0:0:0
     RDKit          3D

 96104  0  0  1  0  0  0  0  0999 V2000
  -29.9660  -23.0820   22.0210 C   0  0  0  0  0  3  0  0  0  0  0  0
  -28.8680  -21.6920   20.3720 C   0  0  0  0  0  3  0  0  0  0  0  0
  -29.0560  -22.9800   20.9520 C   0  0  0  0  0  0  0  0  0  0  0  0
  -30.6440  -21.9520   22.5210 C   0  0  0  0  0  0  0  0  0  0  0  0
  -29.5320  -20.5180   20.8540 C   0  0  0  0  0  0  0  0  0  0  0  0
  -30.4370  -20.6640   21.9510 C   0  0  0  0  0  0  0  0  0  0  0  0
  -26.7890  -24.0210   21.1010 C   0  0  0  0  0  1  0  0  0  0  0  0
  -28.2000  -24.2040   20.5140 C   0  0  0  0  0  3  0  0  0  0  0  0
  -28.7690  -25.6230   20.8890 C   0  0  0  0  0  2  0  0  0  0  0  0
  -28.4200  -26.7310   20.0290 O   0  0  0  0  0  0  0  0  0  0  0  0
  -24.5840  -31.9070   23.2470 C   0  0  0  0  0  0  0  0  0  0  0  0
  -27.2350  -27.4230   20.1880 C   0  0  0  0  0  0  0  0  0  0  0  0
  -23.3770  -30.4830   21.6290 C   0  0  0  0  0  3  0  0  0  0  0  0
  -24.8270  -28.9270   20.2220 C   0  0  0  0  0  0  0  0  0  0  0  0
  -25.9040  -30.8360   21.4210 C   0  0  0  0  0  2  0  0  0  0  0  0
  -25.9880  -29.4530   20.8040 C   0  0  0  0  0  0  0  0  0  0  0  0
  -27.1910  -28.7040   20.7920 C   0  0  0  0  0  3  0  0  0  0  0  0
  -26.0610  -26.9360   19.5720 C   0  0  0  0  0  3  0  0  0  0  0  0
  -24.8540  -27.6620   19.6130 C   0  0  0  0  0  3  0  0  0  0  0  0
  -23.5830  -29.7890   20.2580 C   0  0  0  0  0  2  0  0  0  0  0  0
  -24.6420  -31.0920   22.1560 N   0  0  0  0  0  0  0  0  0  0  0  0
  -23.5010  -32.1830   23.7820 O   0  0  0  0  0  0  0  0  0  0  0  0
  -22.7280  -29.4740   22.6030 C   0  0  0  0  0  0  0  0  0  0  0  0
  -21.4060  -29.2790   22.4660 N   0  0  0  0  0  0  0  0  0  0  0  0
  -23.4090  -28.8650   23.4300 O   0  0  0  0  0  0  0  0  0  0  0  0
  -20.9180  -29.8120   21.7590 H   0  0  0  0  0  0  0  0  0  0  0  0
  -18.0380  -28.0720   22.9820 C   0  0  0  0  0  0  0  0  0  0  0  0
  -20.5940  -28.3490   23.2490 C   0  0  0  0  0  3  0  0  0  0  0  0
  -20.7050  -26.9130   22.6900 C   0  0  0  0  0  2  0  0  0  0  0  0
  -19.6050  -26.5700   21.6800 C   0  0  0  0  0  2  0  0  0  0  0  0
  -18.2220  -26.7150   22.3220 C   0  0  0  0  0  2  0  0  0  0  0  0
  -19.1520  -28.8460   23.4010 C   0  0  0  0  0  0  0  0  0  0  0  0
  -18.9240  -30.1160   23.9780 C   0  0  0  0  0  3  0  0  0  0  0  0
  -17.6180  -30.6100   24.1360 C   0  0  0  0  0  3  0  0  0  0  0  0
  -16.5180  -29.8350   23.7300 C   0  0  0  0  0  3  0  0  0  0  0  0
  -16.7300  -28.5660   23.1580 C   0  0  0  0  0  3  0  0  0  0  0  0
  -25.8670  -32.5490   23.8550 C   0  0  0  0  0  3  0  0  0  0  0  0
  -25.5610  -33.9560   24.1380 N   0  0  0  0  0  0  0  0  0  0  0  0
  -25.8990  -34.9840   23.3450 C   0  0  0  0  0  0  0  0  0  0  0  0
  -26.5670  -34.8470   22.3180 O   0  0  0  0  0  0  0  0  0  0  0  0
  -24.9620  -34.1370   24.9290 H   0  0  0  0  0  0  0  0  0  0  0  0
  -24.1740  -36.7690   22.9350 C   0  0  0  0  0  1  0  0  0  0  0  0
  -25.4140  -36.3860   23.7570 C   0  0  0  0  0  3  0  0  0  0  0  0
  -27.5540  -37.2900   24.5560 C   0  0  0  0  0  1  0  0  0  0  0  0
  -26.4510  -37.4320   23.6100 N   0  0  0  0  0  0  0  0  0  0  0  0
  -26.0470  -38.3570   23.7300 H   0  0  0  0  0  0  0  0  0  0  0  0
  -26.3720  -31.8140   25.1570 C   0  0  1  0  0  0  0  0  0  0  0  0
  -25.2710  -31.6130   26.2250 C   0  0  0  0  0  1  0  0  0  0  0  0
  -26.9510  -30.4240   24.8070 C   0  0  0  0  0  1  0  0  0  0  0  0
  -27.5210  -32.6270   25.8000 C   0  0  0  0  0  1  0  0  0  0  0  0
  -32.5340  -19.1510   22.1440 C   0  0  0  0  0  1  0  0  0  0  0  0
  -31.0960  -19.4540   22.6160 C   0  0  0  0  0  2  0  0  0  0  0  0
  -31.5310  -22.1740   23.7420 C   0  0  0  0  0  2  0  0  0  0  0  0
  -31.7990  -21.8840   26.2330 C   0  0  0  0  0  1  0  0  0  0  0  0
  -30.7980  -21.9160   25.0730 C   0  0  0  0  0  2  0  0  0  0  0  0
  -29.0830  -19.1360   20.2840 C   0  0  0  0  0  2  0  0  0  0  0  0
  -30.1320  -18.0780   19.7870 C   0  0  0  0  0  2  0  0  0  0  0  0
  -30.4950  -16.9170   20.7810 C   0  0  0  0  0  2  0  0  0  0  0  0
  -30.6780  -14.5300   19.9710 C   0  0  0  0  0  0  0  0  0  0  0  0
  -30.3490  -12.3250   18.9290 C   0  0  0  0  0  2  0  0  0  0  0  0
  -29.3500  -12.4670   17.7620 C   0  0  0  0  0  2  0  0  0  0  0  0
  -27.8990  -12.3380   18.2690 C   0  0  0  0  0  2  0  0  0  0  0  0
  -27.6060  -13.2400   19.4980 C   0  0  0  0  0  3  0  0  0  0  0  0
  -28.7080  -13.0760   20.5660 C   0  0  0  0  0  2  0  0  0  0  0  0
  -30.0050  -13.3500   19.9240 N   0  0  0  0  0  0  0  0  0  0  0  0
  -31.8000  -14.6850   19.4800 O   0  0  0  0  0  0  0  0  0  0  0  0
  -29.9830  -15.5710   20.4680 N   0  0  0  0  0  0  0  0  0  0  0  0
  -29.0590  -15.3510   20.8100 H   0  0  0  0  0  0  0  0  0  0  0  0
  -25.2590  -13.8820   20.3390 C   0  0  0  0  0  0  0  0  0  0  0  0
  -24.1980  -13.1280   20.7600 C   0  0  0  0  0  0  0  0  0  0  0  0
  -24.6300  -11.7670   20.6930 C   0  0  0  0  0  0  0  0  0  0  0  0
  -26.2750  -12.9850   20.0470 N   0  0  0  0  0  0  0  0  0  0  0  0
  -25.9020  -11.7080   20.3180 N   0  0  0  0  0  0  0  0  0  0  0  0
  -23.8900  -10.5170   20.9110 C   0  0  0  0  0  0  0  0  0  0  0  0
  -24.3350   -9.5460   21.8350 C   0  0  0  0  0  3  0  0  0  0  0  0
  -23.5990   -8.3600   22.0400 C   0  0  0  0  0  3  0  0  0  0  0  0
  -22.4010   -8.1350   21.3210 C   0  0  0  0  0  0  0  0  0  0  0  0
  -21.9730   -9.0950   20.3860 C   0  0  0  0  0  3  0  0  0  0  0  0
  -22.7100  -10.2740   20.1800 C   0  0  0  0  0  3  0  0  0  0  0  0
  -21.6340   -7.0030   21.4350 O   0  0  0  0  0  0  0  0  0  0  0  0
  -21.5910   -6.2750   22.5970 C   0  0  0  0  0  0  0  0  0  0  0  0
  -21.2010   -6.8560   23.8220 C   0  0  0  0  0  3  0  0  0  0  0  0
  -21.1060   -6.0570   24.9810 C   0  0  0  0  0  3  0  0  0  0  0  0
  -21.3890   -4.6800   24.9120 C   0  0  0  0  0  0  0  0  0  0  0  0
  -21.7720   -4.0990   23.6900 C   0  0  0  0  0  3  0  0  0  0  0  0
  -21.8700   -4.8950   22.5350 C   0  0  0  0  0  0  0  0  0  0  0  0
  -22.2190   -4.3270   21.3560 F   0  0  0  0  0  0  0  0  0  0  0  0
  -21.2890   -3.9110   26.0220 F   0  0  0  0  0  0  0  0  0  0  0  0
  -22.8250  -13.6280   21.1100 C   0  0  0  0  0  0  0  0  0  0  0  0
  -22.1280  -12.9390   22.0050 N   0  0  0  0  0  0  0  0  0  0  0  0
  -22.3840  -14.6690   20.6230 O   0  0  0  0  0  0  0  0  0  0  0  0
  -22.4960  -12.0960   22.4200 H   0  0  0  0  0  0  0  0  0  0  0  0
  -21.2110  -13.2610   22.2800 H   0  0  0  0  0  0  0  0  0  0  0  0
  -25.4380  -15.2510   20.1600 N   0  0  0  0  0  0  0  0  0  0  0  0
  -24.6810  -15.9130   20.2880 H   0  0  0  0  0  0  0  0  0  0  0  0
  -26.2660  -15.6720   19.7590 H   0  0  0  0  0  0  0  0  0  0  0  0
  1  4  1  0
  2  5  2  0
  2  3  1  0
  3  1  2  0
  4 53  1  0
  5  6  1  0
  6  4  2  0
  6 52  1  0
  8  9  1  0
  8  3  1  0
  8  7  1  0
 10 12  1  0
 10  9  1  0
 11 22  2  0
 12 17  1  0
 13 21  1  0
 13 23  1  0
 14 20  1  0
 14 16  1  0
 15 21  1  0
 16 15  1  0
 17 16  2  0
 18 19  1  0
 18 12  2  0
 19 14  2  0
 20 13  1  0
 21 11  1  0
 23 25  2  0
 24 23  1  0
 26 24  1  0
 27 36  2  0
 27 32  1  0
 28 24  1  0
 28 32  1  0
 29 28  1  0
 30 31  1  0
 30 29  1  0
 31 27  1  0
 32 33  2  0
 33 34  1  0
 35 34  2  0
 36 35  1  0
 37 11  1  0
 37 38  1  0
 37 47  1  0
 38 41  1  0
 39 43  1  0
 39 38  1  0
 40 39  2  0
 43 42  1  0
 45 46  1  0
 45 43  1  0
 45 44  1  0
 47 50  1  1
 47 48  1  0
 49 47  1  0
 51 52  1  0
 53 55  1  0
 55 54  1  0
 56  5  1  0
 57 56  1  0
 57 58  1  0
 59 67  1  0
 60 65  1  0
 61 62  1  0
 61 60  1  0
 63 62  1  0
 63 72  1  0
 63 64  1  0
 65 59  1  0
 65 64  1  0
 66 59  2  0
 67 58  1  0
 67 68  1  0
 69 70  2  0
 70 89  1  0
 71 70  1  0
 71 74  1  0
 72 73  1  0
 72 69  1  0
 73 71  2  0
 74 75  1  0
 75 76  2  0
 77 80  1  0
 77 76  1  0
 78 77  2  0
 79 78  1  0
 79 74  2  0
 80 81  1  0
 81 82  1  0
 82 83  2  0
 84 83  1  0
 84 88  1  0
 85 84  2  0
 86 81  2  0
 86 85  1  0
 87 86  1  0
 89 90  1  0
 90 93  1  0
 90 92  1  0
 91 89  2  0
 94 95  1  0
 94 69  1  0
 96 94  1  0
M  ISO  4   9 101  10 101  59 100  67 100
M  END
>  <TORSDO>  (1) 
F 24

>  <SCORE>  (1) 
-10.480

>  <name>  (1) 
0

>  <ligand_id>  (1) 
0

>  <original_smiles>  (1) 
[H]c1c([H])c([H])c2c(c1[H])C([H])([H])C([H])([H])C([H])([H])C2([H])N([H])C(=O)C1([H])N(C(=O)C([H])(N([H])C(=O)C([H])(N([H])C([H])([H])[H])C([H])([H])[H])C(C([H])([H])[H])(C([H])([H])[H])C([H])([H])[H])C([H])([H])c2c([H])c(OC([H])([H])C([H])(c3c([H])c(C([H])([H])C([H])([H])C([H])([H])[H])c(C([H])([H])C([H])([H])[H])c(C([H])([H])C([H])([H])C([H])([H])N([H])C(=O)N4C([H])([H])C([H])([H])C([H])([H])C([H])(n5nc(-c6c([H])c([H])c(Oc7c([H])c([H])c(F)c([H])c7F)c([H])c6[H])c(C(=O)N([H])[H])c5N([H])[H])C4([H])[H])c3[H])C([H])([H])[H])c([H])c([H])c2C1([H])[H]

>  <smiles>  (1) 
[H]c1c([H])c([H])c2c(c1[H])C([H])([H])C([H])([H])C([H])([H])C2([H])N([H])C(=O)C1([H])N(C(=O)C([H])(N([H])C(=O)C([H])(N([H])C([H])([H])[H])C([H])([H])[H])C(C([H])([H])[H])(C([H])([H])[H])C([H])([H])[H])C([H])([H])c2c([H])c(OC([H])([H])C([H])(c3c([H])c(C([H])([H])C([H])([H])C([H])([H])[H])c(C([H])([H])C([H])([H])[H])c(C([H])([H])C([H])([H])C([H])([H])N([H])C(=O)N4C([H])([H])C([H])([H])C([H])([H])C([H])(n5nc(-c6c([H])c([H])c(Oc7c([H])c([H])c(F)c([H])c7F)c([H])c6[H])c(C(=O)N([H])[H])c5N([H])[H])C4([H])[H])c3[H])C([H])([H])[H])c([H])c([H])c2C1([H])[H]

$$$$
1:0:0
     RDKit          3D

 95103  0  0  1  0  0  0  0  0999 V2000
  -32.4130  -24.1320   19.9790 C   0  0  0  0  0  3  0  0  0  0  0  0
  -32.6760  -22.8020   19.5750 C   0  0  0  0  0  0  0  0  0  0  0  0
  -30.2220  -23.5630   20.4910 C   0  0  0  0  0  0  0  0  0  0  0  0
  -30.5100  -22.1830   20.1810 C   0  0  0  0  0  0  0  0  0  0  0  0
  -31.1900  -24.5110   20.4120 N   0  0  0  0  0  0  0  0  0  0  0  0
  -31.7200  -21.8500   19.6630 N   0  0  0  0  0  0  0  0  0  0  0  0
  -34.7070  -21.3280   19.9490 C   0  0  0  0  0  1  0  0  0  0  0  0
  -34.9810  -23.4710   18.6300 C   0  0  0  0  0  1  0  0  0  0  0  0
  -34.0180  -22.3330   19.0080 C   0  0  0  0  0  3  0  0  0  0  0  0
  -28.8850  -24.1150   21.0040 C   0  0  0  0  0  2  0  0  0  0  0  0
  -28.1130  -25.1320   20.0970 C   0  0  0  0  0  2  0  0  0  0  0  0
  -28.3240  -26.5750   20.2660 O   0  0  0  0  0  0  0  0  0  0  0  0
  -24.5930  -31.8960   23.2810 C   0  0  0  0  0  0  0  0  0  0  0  0
  -27.1960  -27.3960   20.1920 C   0  0  0  0  0  0  0  0  0  0  0  0
  -23.3760  -30.4960   21.6500 C   0  0  0  0  0  3  0  0  0  0  0  0
  -24.8180  -28.9660   20.2080 C   0  0  0  0  0  0  0  0  0  0  0  0
  -25.9090  -30.8360   21.4460 C   0  0  0  0  0  2  0  0  0  0  0  0
  -25.9860  -29.4660   20.7970 C   0  0  0  0  0  0  0  0  0  0  0  0
  -27.1760  -28.6870   20.7890 C   0  0  0  0  0  3  0  0  0  0  0  0
  -26.0140  -26.9610   19.5440 C   0  0  0  0  0  3  0  0  0  0  0  0
  -24.8320  -27.7160   19.5760 C   0  0  0  0  0  3  0  0  0  0  0  0
  -23.5760  -29.8270   20.2670 C   0  0  0  0  0  2  0  0  0  0  0  0
  -24.6440  -31.0920   22.1830 N   0  0  0  0  0  0  0  0  0  0  0  0
  -23.5150  -32.1710   23.8270 O   0  0  0  0  0  0  0  0  0  0  0  0
  -22.7290  -29.4720   22.6130 C   0  0  0  0  0  0  0  0  0  0  0  0
  -21.4040  -29.2820   22.4880 N   0  0  0  0  0  0  0  0  0  0  0  0
  -23.4150  -28.8520   23.4300 O   0  0  0  0  0  0  0  0  0  0  0  0
  -20.9080  -29.8360   21.8030 H   0  0  0  0  0  0  0  0  0  0  0  0
  -18.0400  -28.0610   22.9830 C   0  0  0  0  0  0  0  0  0  0  0  0
  -20.5930  -28.3440   23.2630 C   0  0  0  0  0  3  0  0  0  0  0  0
  -20.7090  -26.9070   22.7010 C   0  0  0  0  0  2  0  0  0  0  0  0
  -19.6150  -26.5660   21.6840 C   0  0  0  0  0  2  0  0  0  0  0  0
  -18.2290  -26.7060   22.3220 C   0  0  0  0  0  2  0  0  0  0  0  0
  -19.1490  -28.8360   23.4100 C   0  0  0  0  0  0  0  0  0  0  0  0
  -18.9160  -30.1020   23.9870 C   0  0  0  0  0  3  0  0  0  0  0  0
  -17.6070  -30.5940   24.1440 C   0  0  0  0  0  3  0  0  0  0  0  0
  -16.5110  -29.8150   23.7340 C   0  0  0  0  0  3  0  0  0  0  0  0
  -16.7290  -28.5510   23.1580 C   0  0  0  0  0  3  0  0  0  0  0  0
  -25.8840  -32.5280   23.8900 C   0  0  0  0  0  3  0  0  0  0  0  0
  -25.5770  -33.9270   24.2150 N   0  0  0  0  0  0  0  0  0  0  0  0
  -25.9040  -34.9760   23.4480 C   0  0  0  0  0  0  0  0  0  0  0  0
  -26.5670  -34.8660   22.4120 O   0  0  0  0  0  0  0  0  0  0  0  0
  -24.9840  -34.0850   25.0160 H   0  0  0  0  0  0  0  0  0  0  0  0
  -24.1750  -36.7680   23.0890 C   0  0  0  0  0  1  0  0  0  0  0  0
  -25.4180  -36.3660   23.9000 C   0  0  0  0  0  3  0  0  0  0  0  0
  -27.5580  -37.2520   24.7170 C   0  0  0  0  0  1  0  0  0  0  0  0
  -26.4510  -37.4170   23.7790 N   0  0  0  0  0  0  0  0  0  0  0  0
  -26.0460  -38.3390   23.9230 H   0  0  0  0  0  0  0  0  0  0  0  0
  -26.4060  -31.7610   25.1670 C   0  0  1  0  0  0  0  0  0  0  0  0
  -25.3180  -31.5330   26.2400 C   0  0  0  0  0  1  0  0  0  0  0  0
  -26.9870  -30.3800   24.7790 C   0  0  0  0  0  1  0  0  0  0  0  0
  -27.5620  -32.5560   25.8190 C   0  0  0  0  0  1  0  0  0  0  0  0
  -29.5630  -20.9630   20.3600 C   0  0  0  0  0  2  0  0  0  0  0  0
  -30.3070  -19.5800   20.5550 C   0  0  0  0  0  2  0  0  0  0  0  0
  -28.4630  -18.0370   19.6580 C   0  0  0  0  0  1  0  0  0  0  0  0
  -29.5090  -18.2380   20.7660 C   0  0  0  0  0  3  0  0  0  0  0  0
  -30.5000  -17.0200   20.8430 C   0  0  0  0  0  2  0  0  0  0  0  0
  -30.6430  -14.5430   20.4820 C   0  0  0  0  0  0  0  0  0  0  0  0
  -30.3410  -12.3740   19.3430 C   0  0  0  0  0  2  0  0  0  0  0  0
  -29.4020  -12.5670   18.1350 C   0  0  0  0  0  2  0  0  0  0  0  0
  -27.9280  -12.4360   18.5630 C   0  0  0  0  0  2  0  0  0  0  0  0
  -27.5910  -13.2700   19.8300 C   0  0  0  0  0  3  0  0  0  0  0  0
  -28.6470  -13.0610   20.9360 C   0  0  0  0  0  2  0  0  0  0  0  0
  -29.9630  -13.3690   20.3620 N   0  0  0  0  0  0  0  0  0  0  0  0
  -31.8070  -14.6610   20.0900 O   0  0  0  0  0  0  0  0  0  0  0  0
  -29.9400  -15.6390   20.8590 N   0  0  0  0  0  0  0  0  0  0  0  0
  -28.9750  -15.5120   21.1250 H   0  0  0  0  0  0  0  0  0  0  0  0
  -25.1940  -13.8660   20.5420 C   0  0  0  0  0  0  0  0  0  0  0  0
  -24.1270  -13.0910   20.9060 C   0  0  0  0  0  0  0  0  0  0  0  0
  -24.5930  -11.7410   20.8740 C   0  0  0  0  0  0  0  0  0  0  0  0
  -26.2420  -12.9890   20.3120 N   0  0  0  0  0  0  0  0  0  0  0  0
  -25.8840  -11.7060   20.5710 N   0  0  0  0  0  0  0  0  0  0  0  0
  -23.8710  -10.4750   21.0600 C   0  0  0  0  0  0  0  0  0  0  0  0
  -24.3190   -9.4960   21.9750 C   0  0  0  0  0  3  0  0  0  0  0  0
  -23.5960   -8.2970   22.1520 C   0  0  0  0  0  3  0  0  0  0  0  0
  -22.4130   -8.0650   21.4120 C   0  0  0  0  0  0  0  0  0  0  0  0
  -21.9850   -9.0320   20.4840 C   0  0  0  0  0  3  0  0  0  0  0  0
  -22.7090  -10.2220   20.3050 C   0  0  0  0  0  3  0  0  0  0  0  0
  -21.6610   -6.9160   21.4950 O   0  0  0  0  0  0  0  0  0  0  0  0
  -21.6480   -6.1490   22.6320 C   0  0  0  0  0  0  0  0  0  0  0  0
  -21.2650   -6.6770   23.8840 C   0  0  0  0  0  3  0  0  0  0  0  0
  -21.1970   -5.8350   25.0120 C   0  0  0  0  0  3  0  0  0  0  0  0
  -21.5020   -4.4660   24.8900 C   0  0  0  0  0  0  0  0  0  0  0  0
  -21.8820   -3.9380   23.6440 C   0  0  0  0  0  3  0  0  0  0  0  0
  -21.9500   -4.7770   22.5170 C   0  0  0  0  0  0  0  0  0  0  0  0
  -22.2930   -4.2580   21.3140 F   0  0  0  0  0  0  0  0  0  0  0  0
  -21.4290   -3.6550   25.9730 F   0  0  0  0  0  0  0  0  0  0  0  0
  -22.7270  -13.5610   21.1740 C   0  0  0  0  0  0  0  0  0  0  0  0
  -22.0000  -12.8630   22.0390 N   0  0  0  0  0  0  0  0  0  0  0  0
  -22.2860  -14.5840   20.6500 O   0  0  0  0  0  0  0  0  0  0  0  0
  -22.3710  -12.0400   22.4890 H   0  0  0  0  0  0  0  0  0  0  0  0
  -21.0590  -13.1580   22.2600 H   0  0  0  0  0  0  0  0  0  0  0  0
  -25.3560  -15.2390   20.3640 N   0  0  0  0  0  0  0  0  0  0  0  0
  -24.5960  -15.8970   20.4910 H   0  0  0  0  0  0  0  0  0  0  0  0
  -26.1970  -15.6700   20.0080 H   0  0  0  0  0  0  0  0  0  0  0  0
  1  5  1  0
  2  6  1  0
  2  1  2  0
  3 10  1  0
  4 53  1  0
  4  3  1  0
  5  3  2  0
  6  4  2  0
  8  9  1  0
  9  2  1  0
  9  7  1  0
 11 12  1  0
 11 10  1  0
 13 24  2  0
 14 12  1  0
 14 19  1  0
 15 23  1  0
 15 25  1  0
 16 22  1  0
 16 18  1  0
 17 23  1  0
 18 17  1  0
 19 18  2  0
 20 21  1  0
 20 14  2  0
 21 16  2  0
 22 15  1  0
 23 13  1  0
 25 27  2  0
 26 25  1  0
 28 26  1  0
 29 38  2  0
 29 34  1  0
 30 26  1  0
 30 34  1  0
 31 30  1  0
 32 33  1  0
 32 31  1  0
 33 29  1  0
 34 35  2  0
 35 36  1  0
 37 36  2  0
 38 37  1  0
 39 13  1  0
 39 40  1  0
 39 49  1  0
 40 43  1  0
 41 45  1  0
 41 40  1  0
 42 41  2  0
 45 44  1  0
 47 45  1  0
 47 48  1  0
 47 46  1  0
 49 52  1  1
 49 50  1  0
 51 49  1  0
 53 54  1  0
 54 56  1  0
 56 55  1  0
 56 57  1  0
 57 66  1  0
 58 66  1  0
 59 64  1  0
 60 61  1  0
 60 59  1  0
 62 61  1  0
 62 71  1  0
 62 63  1  0
 64 58  1  0
 64 63  1  0
 65 58  2  0
 66 67  1  0
 68 69  2  0
 69 88  1  0
 70 69  1  0
 70 73  1  0
 71 68  1  0
 71 72  1  0
 72 70  2  0
 73 74  1  0
 74 75  2  0
 76 79  1  0
 76 75  1  0
 77 76  2  0
 78 77  1  0
 78 73  2  0
 79 80  1  0
 80 81  1  0
 81 82  2  0
 83 82  1  0
 83 87  1  0
 84 83  2  0
 85 80  2  0
 85 84  1  0
 86 85  1  0
 88 89  1  0
 89 92  1  0
 89 91  1  0
 90 88  2  0
 93 94  1  0
 93 68  1  0
 95 93  1  0
M  ISO  4  11 101  12 101  58 100  66 100
M  END
>  <TORSDO>  (2) 
F 23

>  <SCORE>  (2) 
-12.882

>  <name>  (2) 
1

>  <ligand_id>  (2) 
1

>  <original_smiles>  (2) 
[H]c1nc(C([H])([H])C([H])([H])Oc2c([H])c([H])c3c(c2[H])C([H])([H])N(C(=O)C([H])(N([H])C(=O)C([H])(N([H])C([H])([H])[H])C([H])([H])[H])C(C([H])([H])[H])(C([H])([H])[H])C([H])([H])[H])C([H])(C(=O)N([H])C2([H])c4c([H])c([H])c([H])c([H])c4C([H])([H])C([H])([H])C2([H])[H])C3([H])[H])c(C([H])([H])C([H])([H])C([H])(C([H])([H])[H])C([H])([H])N([H])C(=O)N2C([H])([H])C([H])([H])C([H])([H])C([H])(n3nc(-c4c([H])c([H])c(Oc5c([H])c([H])c(F)c([H])c5F)c([H])c4[H])c(C(=O)N([H])[H])c3N([H])[H])C2([H])[H])nc1C([H])(C([H])([H])[H])C([H])([H])[H]

>  <smiles>  (2) 
[H]c1nc(C([H])([H])C([H])([H])Oc2c([H])c([H])c3c(c2[H])C([H])([H])N(C(=O)C([H])(N([H])C(=O)C([H])(N([H])C([H])([H])[H])C([H])([H])[H])C(C([H])([H])[H])(C([H])([H])[H])C([H])([H])[H])C([H])(C(=O)N([H])C2([H])c4c([H])c([H])c([H])c([H])c4C([H])([H])C([H])([H])C2([H])[H])C3([H])[H])c(C([H])([H])C([H])([H])C([H])(C([H])([H])[H])C([H])([H])N([H])C(=O)N2C([H])([H])C([H])([H])C([H])([H])C([H])(n3nc(-c4c([H])c([H])c(Oc5c([H])c([H])c(F)c([H])c5F)c([H])c4[H])c(C(=O)N([H])[H])c3N([H])[H])C2([H])[H])nc1C([H])(C([H])([H])[H])C([H])([H])[H]

$$$$
2:0:0
     RDKit          3D

 94102  0  0  1  0  0  0  0  0999 V2000
  -29.4810  -20.5250   19.9970 C   0  0  0  0  0  3  0  0  0  0  0  0
  -30.0600  -21.8230   19.9690 C   0  0  0  0  0  0  0  0  0  0  0  0
  -31.4030  -21.9450   20.4200 C   0  0  0  0  0  0  0  0  0  0  0  0
  -30.2360  -19.4100   20.4450 C   0  0  0  0  0  0  0  0  0  0  0  0
  -32.0500  -20.7910   20.9240 C   0  0  0  0  0  0  0  0  0  0  0  0
  -33.4500  -20.8330   21.5090 C   0  0  0  0  0  1  0  0  0  0  0  0
  -31.4920  -19.5630   20.9060 N   0  0  0  0  0  0  0  0  0  0  0  0
  -29.3090  -23.0020   19.3090 C   0  0  0  0  0  2  0  0  0  0  0  0
  -28.8110  -24.1810   20.2080 C   0  0  0  0  0  2  0  0  0  0  0  0
  -28.6710  -25.5160   19.4080 C   0  0  0  0  0  2  0  0  0  0  0  0
  -28.4400  -26.6980   20.2040 O   0  0  0  0  0  0  0  0  0  0  0  0
  -24.5960  -31.8780   23.2280 C   0  0  0  0  0  0  0  0  0  0  0  0
  -27.2440  -27.4020   20.1610 C   0  0  0  0  0  0  0  0  0  0  0  0
  -23.3910  -30.4720   21.5870 C   0  0  0  0  0  3  0  0  0  0  0  0
  -24.8450  -28.9270   20.1670 C   0  0  0  0  0  0  0  0  0  0  0  0
  -25.9190  -30.8210   21.3950 C   0  0  0  0  0  2  0  0  0  0  0  0
  -26.0020  -29.4470   20.7570 C   0  0  0  0  0  0  0  0  0  0  0  0
  -27.1970  -28.6890   20.7530 C   0  0  0  0  0  3  0  0  0  0  0  0
  -26.0580  -26.8960   19.5790 C   0  0  0  0  0  3  0  0  0  0  0  0
  -24.8690  -27.6510   19.5780 C   0  0  0  0  0  3  0  0  0  0  0  0
  -23.6030  -29.7890   20.2090 C   0  0  0  0  0  2  0  0  0  0  0  0
  -24.6530  -31.0730   22.1280 N   0  0  0  0  0  0  0  0  0  0  0  0
  -23.5140  -32.1520   23.7660 O   0  0  0  0  0  0  0  0  0  0  0  0
  -22.7380  -29.4540   22.5500 C   0  0  0  0  0  0  0  0  0  0  0  0
  -21.4130  -29.2770   22.4260 N   0  0  0  0  0  0  0  0  0  0  0  0
  -23.4200  -28.8270   23.3640 O   0  0  0  0  0  0  0  0  0  0  0  0
  -20.9260  -29.8350   21.7400 H   0  0  0  0  0  0  0  0  0  0  0  0
  -18.0340  -28.1010   22.9330 C   0  0  0  0  0  0  0  0  0  0  0  0
  -20.5930  -28.3430   23.1960 C   0  0  0  0  0  3  0  0  0  0  0  0
  -20.6860  -26.9130   22.6140 C   0  0  0  0  0  2  0  0  0  0  0  0
  -19.5790  -26.6000   21.6050 C   0  0  0  0  0  2  0  0  0  0  0  0
  -18.2000  -26.7520   22.2540 C   0  0  0  0  0  2  0  0  0  0  0  0
  -19.1580  -28.8560   23.3620 C   0  0  0  0  0  0  0  0  0  0  0  0
  -18.9500  -30.1190   23.9550 C   0  0  0  0  0  3  0  0  0  0  0  0
  -17.6490  -30.6290   24.1250 C   0  0  0  0  0  3  0  0  0  0  0  0
  -16.5390  -29.8710   23.7160 C   0  0  0  0  0  3  0  0  0  0  0  0
  -16.7330  -28.6090   23.1250 C   0  0  0  0  0  3  0  0  0  0  0  0
  -25.8810  -32.5090   23.8480 C   0  0  0  0  0  3  0  0  0  0  0  0
  -25.5730  -33.9060   24.1790 N   0  0  0  0  0  0  0  0  0  0  0  0
  -25.9050  -34.9600   23.4200 C   0  0  0  0  0  0  0  0  0  0  0  0
  -26.5750  -34.8570   22.3880 O   0  0  0  0  0  0  0  0  0  0  0  0
  -24.9800  -34.0610   24.9810 H   0  0  0  0  0  0  0  0  0  0  0  0
  -24.1760  -36.7500   23.0650 C   0  0  0  0  0  1  0  0  0  0  0  0
  -25.4170  -36.3460   23.8780 C   0  0  0  0  0  3  0  0  0  0  0  0
  -27.5490  -37.2300   24.7130 C   0  0  0  0  0  1  0  0  0  0  0  0
  -26.4480  -37.4000   23.7690 N   0  0  0  0  0  0  0  0  0  0  0  0
  -26.0420  -38.3190   23.9200 H   0  0  0  0  0  0  0  0  0  0  0  0
  -26.4020  -31.7360   25.1220 C   0  0  1  0  0  0  0  0  0  0  0  0
  -25.3110  -31.4960   26.1910 C   0  0  0  0  0  1  0  0  0  0  0  0
  -26.9850  -30.3610   24.7240 C   0  0  0  0  0  1  0  0  0  0  0  0
  -27.5560  -32.5290   25.7820 C   0  0  0  0  0  1  0  0  0  0  0  0
  -32.1820  -23.2600   20.3110 C   0  0  0  0  0  2  0  0  0  0  0  0
  -33.7280  -24.6950   18.8820 C   0  0  0  0  0  1  0  0  0  0  0  0
  -32.9730  -23.3660   18.9950 C   0  0  0  0  0  2  0  0  0  0  0  0
  -29.7570  -17.9510   20.2680 C   0  0  0  0  0  3  0  0  0  0  0  0
  -30.3320  -16.9060   21.2800 C   0  0  0  0  0  3  0  0  0  0  0  0
  -30.6160  -14.4980   20.5110 C   0  0  0  0  0  0  0  0  0  0  0  0
  -30.3390  -12.3400   19.3390 C   0  0  0  0  0  2  0  0  0  0  0  0
  -29.3970  -12.5470   18.1330 C   0  0  0  0  0  2  0  0  0  0  0  0
  -27.9220  -12.4040   18.5590 C   0  0  0  0  0  2  0  0  0  0  0  0
  -27.5810  -13.2310   19.8280 C   0  0  0  0  0  3  0  0  0  0  0  0
  -28.6320  -13.0010   20.9360 C   0  0  0  0  0  2  0  0  0  0  0  0
  -29.9540  -13.3170   20.3710 N   0  0  0  0  0  0  0  0  0  0  0  0
  -31.7460  -14.6880   20.0550 O   0  0  0  0  0  0  0  0  0  0  0  0
  -29.8980  -15.5050   21.0560 N   0  0  0  0  0  0  0  0  0  0  0  0
  -28.9700  -15.2600   21.3700 H   0  0  0  0  0  0  0  0  0  0  0  0
  -25.1810  -13.8370   20.5250 C   0  0  0  0  0  0  0  0  0  0  0  0
  -24.1120  -13.0630   20.8910 C   0  0  0  0  0  0  0  0  0  0  0  0
  -24.5750  -11.7130   20.8660 C   0  0  0  0  0  0  0  0  0  0  0  0
  -26.2270  -12.9540   20.3010 N   0  0  0  0  0  0  0  0  0  0  0  0
  -25.8660  -11.6730   20.5610 N   0  0  0  0  0  0  0  0  0  0  0  0
  -23.8490  -10.4510   21.0580 C   0  0  0  0  0  0  0  0  0  0  0  0
  -24.2860   -9.4810   21.9860 C   0  0  0  0  0  3  0  0  0  0  0  0
  -23.5610   -8.2820   22.1640 C   0  0  0  0  0  3  0  0  0  0  0  0
  -22.3840   -8.0470   21.4140 C   0  0  0  0  0  0  0  0  0  0  0  0
  -21.9660   -9.0070   20.4750 C   0  0  0  0  0  3  0  0  0  0  0  0
  -22.6910  -10.1960   20.2950 C   0  0  0  0  0  3  0  0  0  0  0  0
  -21.6300   -6.9030   21.5020 O   0  0  0  0  0  0  0  0  0  0  0  0
  -21.5970   -6.1480   22.6480 C   0  0  0  0  0  0  0  0  0  0  0  0
  -21.1940   -6.6940   23.8870 C   0  0  0  0  0  3  0  0  0  0  0  0
  -21.1070   -5.8670   25.0250 C   0  0  0  0  0  3  0  0  0  0  0  0
  -21.4120   -4.4970   24.9260 C   0  0  0  0  0  0  0  0  0  0  0  0
  -21.8070   -3.9510   23.6920 C   0  0  0  0  0  3  0  0  0  0  0  0
  -21.8970   -4.7750   22.5560 C   0  0  0  0  0  0  0  0  0  0  0  0
  -22.2570   -4.2380   21.3650 F   0  0  0  0  0  0  0  0  0  0  0  0
  -21.3220   -3.7010   26.0180 F   0  0  0  0  0  0  0  0  0  0  0  0
  -22.7140  -13.5400   21.1580 C   0  0  0  0  0  0  0  0  0  0  0  0
  -21.9850  -12.8440   22.0240 N   0  0  0  0  0  0  0  0  0  0  0  0
  -22.2770  -14.5640   20.6360 O   0  0  0  0  0  0  0  0  0  0  0  0
  -22.3520  -12.0140   22.4650 H   0  0  0  0  0  0  0  0  0  0  0  0
  -21.0470  -13.1460   22.2470 H   0  0  0  0  0  0  0  0  0  0  0  0
  -25.3470  -15.2070   20.3460 N   0  0  0  0  0  0  0  0  0  0  0  0
  -24.5800  -15.8640   20.4470 H   0  0  0  0  0  0  0  0  0  0  0  0
  -26.1980  -15.6430   20.0130 H   0  0  0  0  0  0  0  0  0  0  0  0
  1  4  1  0
  2  1  2  0
  2  3  1  0
  3  5  2  0
  4  7  2  0
  5  6  1  0
  7  5  1  0
  8  2  1  0
  8  9  1  0
 10 11  1  0
 10  9  1  0
 12 23  2  0
 13 11  1  0
 13 18  1  0
 14 22  1  0
 14 24  1  0
 15 21  1  0
 15 17  1  0
 16 22  1  0
 17 16  1  0
 18 17  2  0
 19 13  2  0
 20 19  1  0
 20 15  2  0
 21 14  1  0
 22 12  1  0
 24 26  2  0
 25 24  1  0
 27 25  1  0
 28 37  2  0
 28 33  1  0
 29 25  1  0
 29 33  1  0
 30 29  1  0
 31 32  1  0
 31 30  1  0
 32 28  1  0
 33 34  2  0
 34 35  1  0
 36 35  2  0
 37 36  1  0
 38 12  1  0
 38 39  1  0
 38 48  1  0
 39 42  1  0
 40 44  1  0
 40 39  1  0
 41 40  2  0
 44 43  1  0
 46 44  1  0
 46 47  1  0
 46 45  1  0
 48 51  1  1
 48 49  1  0
 50 48  1  0
 52  3  1  0
 53 54  1  0
 54 52  1  0
 55  4  1  0
 55 56  2  0
 57 65  1  0
 58 63  1  0
 59 60  1  0
 59 58  1  0
 61 60  1  0
 61 70  1  0
 61 62  1  0
 63 57  1  0
 63 62  1  0
 64 57  2  0
 65 56  1  0
 65 66  1  0
 67 68  2  0
 68 87  1  0
 69 68  1  0
 69 72  1  0
 70 67  1  0
 70 71  1  0
 71 69  2  0
 72 73  1  0
 73 74  2  0
 75 78  1  0
 75 74  1  0
 76 75  2  0
 77 76  1  0
 77 72  2  0
 78 79  1  0
 79 80  1  0
 80 81  2  0
 82 81  1  0
 82 86  1  0
 83 82  2  0
 84 79  2  0
 84 83  1  0
 85 84  1  0
 87 88  1  0
 88 91  1  0
 88 90  1  0
 89 87  2  0
 92 93  1  0
 92 67  1  0
 94 92  1  0
M  ISO  4  10 101  11 101  57 100  65 100
M  END
>  <TORSDO>  (3) 
F 23

>  <SCORE>  (3) 
-12.916

>  <name>  (3) 
2

>  <ligand_id>  (3) 
2

>  <original_smiles>  (3) 
[H]c1c([H])c([H])c2c(c1[H])C([H])([H])C([H])([H])C([H])([H])C2([H])N([H])C(=O)C1([H])N(C(=O)C([H])(N([H])C(=O)C([H])(N([H])C([H])([H])[H])C([H])([H])[H])C(C([H])([H])[H])(C([H])([H])[H])C([H])([H])[H])C([H])([H])c2c([H])c(OC([H])([H])C([H])([H])C([H])([H])c3c([H])c(C([H])([H])C([H])([H])N([H])C(=O)N4C([H])([H])C([H])([H])C([H])([H])C([H])(n5nc(-c6c([H])c([H])c(Oc7c([H])c([H])c(F)c([H])c7F)c([H])c6[H])c(C(=O)N([H])[H])c5N([H])[H])C4([H])[H])nc(C([H])([H])[H])c3C([H])([H])C([H])([H])C([H])([H])[H])c([H])c([H])c2C1([H])[H]

>  <smiles>  (3) 
[H]c1c([H])c([H])c2c(c1[H])C([H])([H])C([H])([H])C([H])([H])C2([H])N([H])C(=O)C1([H])N(C(=O)C([H])(N([H])C(=O)C([H])(N([H])C([H])([H])[H])C([H])([H])[H])C(C([H])([H])[H])(C([H])([H])[H])C([H])([H])[H])C([H])([H])c2c([H])c(OC([H])([H])C([H])([H])C([H])([H])c3c([H])c(C([H])([H])C([H])([H])N([H])C(=O)N4C([H])([H])C([H])([H])C([H])([H])C([H])(n5nc(-c6c([H])c([H])c(Oc7c([H])c([H])c(F)c([H])c7F)c([H])c6[H])c(C(=O)N([H])[H])c5N([H])[H])C4([H])[H])nc(C([H])([H])[H])c3C([H])([H])C([H])([H])C([H])([H])[H])c([H])c([H])c2C1([H])[H]

$$$$
3:0:0
     RDKit          3D

 91 99  0  0  1  0  0  0  0  0999 V2000
  -30.6330  -21.1160   20.0270 C   0  0  0  0  0  3  0  0  0  0  0  0
  -31.0510  -22.4080   19.6350 C   0  0  0  0  0  3  0  0  0  0  0  0
  -28.4000  -22.0170   20.1700 C   0  0  0  0  0  3  0  0  0  0  0  0
  -29.2920  -20.8270   20.3280 C   0  0  0  0  0  0  0  0  0  0  0  0
  -30.1900  -23.5360   19.5180 C   0  0  0  0  0  0  0  0  0  0  0  0
  -28.7870  -23.4050   19.7570 C   0  0  0  0  0  0  0  0  0  0  0  0
  -28.9210  -19.2700   20.7770 C   0  0  0  0  0  3  0  0  0  0  0  0
  -30.0110  -17.9730   20.9490 C   0  0  0  0  0  3  0  0  0  0  0  0
  -30.4430  -15.2420   21.1070 C   0  0  0  0  0  0  0  0  0  0  0  0
  -30.4870  -12.8310   20.3130 C   0  0  0  0  0  2  0  0  0  0  0  0
  -29.7300  -12.6830   18.9730 C   0  0  0  0  0  2  0  0  0  0  0  0
  -28.2270  -12.4580   19.2220 C   0  0  0  0  0  2  0  0  0  0  0  0
  -27.6480  -13.4440   20.2680 C   0  0  0  0  0  3  0  0  0  0  0  0
  -28.5400  -13.5630   21.5210 C   0  0  0  0  0  2  0  0  0  0  0  0
  -29.8730  -13.9690   21.0580 N   0  0  0  0  0  0  0  0  0  0  0  0
  -31.6710  -15.3080   20.9890 O   0  0  0  0  0  0  0  0  0  0  0  0
  -29.6460  -16.4270   21.0780 N   0  0  0  0  0  0  0  0  0  0  0  0
  -28.6560  -16.2420   21.1420 H   0  0  0  0  0  0  0  0  0  0  0  0
  -25.1950  -14.0150   20.7200 C   0  0  0  0  0  0  0  0  0  0  0  0
  -24.0960  -13.2380   20.9590 C   0  0  0  0  0  0  0  0  0  0  0  0
  -24.5630  -11.8880   20.9800 C   0  0  0  0  0  0  0  0  0  0  0  0
  -26.2610  -13.1400   20.6030 N   0  0  0  0  0  0  0  0  0  0  0  0
  -25.8820  -11.8550   20.8260 N   0  0  0  0  0  0  0  0  0  0  0  0
  -23.8220  -10.6240   21.0740 C   0  0  0  0  0  0  0  0  0  0  0  0
  -24.1180   -9.6640   22.0670 C   0  0  0  0  0  3  0  0  0  0  0  0
  -23.3770   -8.4660   22.1510 C   0  0  0  0  0  3  0  0  0  0  0  0
  -22.3220   -8.2190   21.2390 C   0  0  0  0  0  0  0  0  0  0  0  0
  -22.0450   -9.1670   20.2380 C   0  0  0  0  0  3  0  0  0  0  0  0
  -22.7890  -10.3570   20.1530 C   0  0  0  0  0  3  0  0  0  0  0  0
  -21.5650   -7.0730   21.2280 O   0  0  0  0  0  0  0  0  0  0  0  0
  -21.3170   -6.3620   22.3760 C   0  0  0  0  0  0  0  0  0  0  0  0
  -20.6680   -6.9440   23.4860 C   0  0  0  0  0  3  0  0  0  0  0  0
  -20.3710   -6.1600   24.6190 C   0  0  0  0  0  3  0  0  0  0  0  0
  -20.7120   -4.7930   24.6400 C   0  0  0  0  0  0  0  0  0  0  0  0
  -21.3510   -4.2110   23.5320 C   0  0  0  0  0  3  0  0  0  0  0  0
  -21.6500   -4.9930   22.4010 C   0  0  0  0  0  0  0  0  0  0  0  0
  -22.2480   -4.4220   21.3280 F   0  0  0  0  0  0  0  0  0  0  0  0
  -20.4200   -4.0380   25.7230 F   0  0  0  0  0  0  0  0  0  0  0  0
  -22.6760  -13.7120   21.0610 C   0  0  0  0  0  0  0  0  0  0  0  0
  -21.8530  -13.0230   21.8410 N   0  0  0  0  0  0  0  0  0  0  0  0
  -22.3010  -14.7320   20.4820 O   0  0  0  0  0  0  0  0  0  0  0  0
  -22.1640  -12.1990   22.3340 H   0  0  0  0  0  0  0  0  0  0  0  0
  -20.8930  -13.3240   21.9490 H   0  0  0  0  0  0  0  0  0  0  0  0
  -25.3750  -15.3880   20.5650 N   0  0  0  0  0  0  0  0  0  0  0  0
  -24.5960  -16.0360   20.5700 H   0  0  0  0  0  0  0  0  0  0  0  0
  -26.2460  -15.8230   20.2930 H   0  0  0  0  0  0  0  0  0  0  0  0
  -30.8150  -24.8680   19.0820 C   0  0  0  0  0  2  0  0  0  0  0  0
  -32.0060  -25.5970   21.2390 C   0  0  0  0  0  1  0  0  0  0  0  0
  -32.1510  -25.2520   19.7500 C   0  0  0  0  0  2  0  0  0  0  0  0
  -27.7260  -24.6700   19.5040 C   0  0  0  0  0  2  0  0  0  0  0  0
  -28.0050  -26.2150   19.4400 O   0  0  0  0  0  0  0  0  0  0  0  0
  -24.5610  -31.7130   22.9900 C   0  0  0  0  0  0  0  0  0  0  0  0
  -26.9450  -27.1990   19.5120 C   0  0  0  0  0  0  0  0  0  0  0  0
  -23.2570  -30.4010   21.3630 C   0  0  0  0  0  3  0  0  0  0  0  0
  -24.6100  -28.9280   19.7500 C   0  0  0  0  0  0  0  0  0  0  0  0
  -25.7920  -30.7010   21.0330 C   0  0  0  0  0  2  0  0  0  0  0  0
  -25.8290  -29.3490   20.2960 C   0  0  0  0  0  0  0  0  0  0  0  0
  -26.9970  -28.5030   20.1590 C   0  0  0  0  0  3  0  0  0  0  0  0
  -25.6930  -26.8860   18.9380 C   0  0  0  0  0  3  0  0  0  0  0  0
  -24.5550  -27.7120   19.0540 C   0  0  0  0  0  3  0  0  0  0  0  0
  -23.3840  -29.8090   19.9350 C   0  0  0  0  0  2  0  0  0  0  0  0
  -24.5620  -30.9560   21.8500 N   0  0  0  0  0  0  0  0  0  0  0  0
  -23.5130  -31.9540   23.6080 O   0  0  0  0  0  0  0  0  0  0  0  0
  -22.6560  -29.3320   22.3100 C   0  0  0  0  0  0  0  0  0  0  0  0
  -21.3280  -29.1300   22.2430 N   0  0  0  0  0  0  0  0  0  0  0  0
  -23.3860  -28.6870   23.0680 O   0  0  0  0  0  0  0  0  0  0  0  0
  -20.7930  -29.7000   21.6030 H   0  0  0  0  0  0  0  0  0  0  0  0
  -18.0150  -27.7870   22.8300 C   0  0  0  0  0  0  0  0  0  0  0  0
  -20.5710  -28.1380   23.0110 C   0  0  0  0  0  3  0  0  0  0  0  0
  -20.7050  -26.7310   22.3830 C   0  0  0  0  0  2  0  0  0  0  0  0
  -19.5760  -26.4000   21.4010 C   0  0  0  0  0  2  0  0  0  0  0  0
  -18.2160  -26.4700   22.1000 C   0  0  0  0  0  2  0  0  0  0  0  0
  -19.1210  -28.5770   23.2430 C   0  0  0  0  0  0  0  0  0  0  0  0
  -18.8780  -29.8080   23.8920 C   0  0  0  0  0  3  0  0  0  0  0  0
  -17.5620  -30.2510   24.1270 C   0  0  0  0  0  3  0  0  0  0  0  0
  -16.4710  -29.4580   23.7280 C   0  0  0  0  0  3  0  0  0  0  0  0
  -16.7000  -28.2280   23.0860 C   0  0  0  0  0  3  0  0  0  0  0  0
  -25.8750  -32.3280   23.5600 C   0  0  0  0  0  3  0  0  0  0  0  0
  -25.5710  -33.6960   24.0110 N   0  0  0  0  0  0  0  0  0  0  0  0
  -25.8770  -34.8100   23.3330 C   0  0  0  0  0  0  0  0  0  0  0  0
  -26.5130  -34.7930   22.2750 O   0  0  0  0  0  0  0  0  0  0  0  0
  -25.0030  -33.7810   24.8420 H   0  0  0  0  0  0  0  0  0  0  0  0
  -24.1460  -36.6290   23.1820 C   0  0  0  0  0  1  0  0  0  0  0  0
  -25.4080  -36.1550   23.9200 C   0  0  0  0  0  3  0  0  0  0  0  0
  -27.5640  -36.9700   24.7680 C   0  0  0  0  0  1  0  0  0  0  0  0
  -26.4400  -37.2150   23.8680 N   0  0  0  0  0  0  0  0  0  0  0  0
  -26.0410  -38.1190   24.0990 H   0  0  0  0  0  0  0  0  0  0  0  0
  -26.4890  -31.4840   24.7450 C   0  0  1  0  0  0  0  0  0  0  0  0
  -25.4800  -31.1750   25.8770 C   0  0  0  0  0  1  0  0  0  0  0  0
  -27.0440  -30.1360   24.2300 C   0  0  0  0  0  1  0  0  0  0  0  0
  -27.6850  -32.2450   25.3640 C   0  0  0  0  0  1  0  0  0  0  0  0
  1  4  1  0
  2  1  2  0
  3  4  2  0
  4  7  1  0
  5  2  1  0
  5  6  2  0
  6  3  1  0
  7  8  2  0
  8 17  1  0
 10 15  1  0
 11 12  1  0
 11 10  1  0
 13 12  1  0
 13 22  1  0
 13 14  1  0
 15  9  1  0
 15 14  1  0
 16  9  2  0
 17  9  1  0
 17 18  1  0
 19 20  2  0
 20 21  1  0
 20 39  1  0
 21 24  1  0
 22 19  1  0
 22 23  1  0
 23 21  2  0
 24 25  1  0
 25 26  2  0
 27 26  1  0
 28 27  2  0
 29 28  1  0
 29 24  2  0
 30 27  1  0
 30 31  1  0
 31 36  2  0
 31 32  1  0
 32 33  2  0
 33 34  1  0
 34 38  1  0
 35 34  2  0
 36 35  1  0
 37 36  1  0
 39 40  1  0
 40 43  1  0
 40 42  1  0
 41 39  2  0
 44 45  1  0
 44 19  1  0
 46 44  1  0
 47  5  1  0
 47 49  1  0
 49 48  1  0
 50  6  1  0
 51 50  1  0
 51 53  1  0
 52 63  2  0
 53 58  1  0
 54 62  1  0
 54 64  1  0
 55 61  1  0
 55 57  1  0
 56 62  1  0
 57 56  1  0
 58 57  2  0
 59 60  1  0
 59 53  2  0
 60 55  2  0
 61 54  1  0
 62 52  1  0
 64 66  2  0
 65 64  1  0
 67 65  1  0
 68 77  2  0
 68 73  1  0
 69 65  1  0
 69 73  1  0
 70 69  1  0
 71 72  1  0
 71 70  1  0
 72 68  1  0
 73 74  2  0
 74 75  1  0
 76 75  2  0
 77 76  1  0
 78 52  1  0
 78 79  1  0
 78 88  1  0
 79 82  1  0
 80 84  1  0
 80 79  1  0
 81 80  2  0
 84 83  1  0
 86 84  1  0
 86 87  1  0
 86 85  1  0
 88 91  1  1
 88 89  1  0
 90 88  1  0
M  ISO  4   9 100  17 100  50 101  51 101
M  END
>  <TORSDO>  (4) 
F 21

>  <SCORE>  (4) 
-12.703

>  <name>  (4) 
3

>  <ligand_id>  (4) 
3

>  <original_smiles>  (4) 
[H]c1c([H])c([H])c2c(c1[H])C([H])([H])C([H])([H])C([H])([H])C2([H])N([H])C(=O)C1([H])N(C(=O)C([H])(N([H])C(=O)C([H])(N([H])C([H])([H])[H])C([H])([H])[H])C(C([H])([H])[H])(C([H])([H])[H])C([H])([H])[H])C([H])([H])c2c([H])c(OC([H])([H])c3c([H])c(C([H])([H])C([H])([H])N([H])C(=O)N4C([H])([H])C([H])([H])C([H])([H])C([H])(n5nc(-c6c([H])c([H])c(Oc7c([H])c([H])c(F)c([H])c7F)c([H])c6[H])c(C(=O)N([H])[H])c5N([H])[H])C4([H])[H])c([H])c([H])c3C([H])([H])C([H])([H])C([H])([H])[H])c([H])c([H])c2C1([H])[H]

>  <smiles>  (4) 
[H]c1c([H])c([H])c2c(c1[H])C([H])([H])C([H])([H])C([H])([H])C2([H])N([H])C(=O)C1([H])N(C(=O)C([H])(N([H])C(=O)C([H])(N([H])C([H])([H])[H])C([H])([H])[H])C(C([H])([H])[H])(C([H])([H])[H])C([H])([H])[H])C([H])([H])c2c([H])c(OC([H])([H])c3c([H])c(C([H])([H])C([H])([H])N([H])C(=O)N4C([H])([H])C([H])([H])C([H])([H])C([H])(n5nc(-c6c([H])c([H])c(Oc7c([H])c([H])c(F)c([H])c7F)c([H])c6[H])c(C(=O)N([H])[H])c5N([H])[H])C4([H])[H])c([H])c([H])c3C([H])([H])C([H])([H])C([H])([H])[H])c([H])c([H])c2C1([H])[H]

$$$$
4:0:0
     RDKit          3D

 96104  0  0  1  0  0  0  0  0999 V2000
  -28.8390  -23.5270   22.1170 C   0  0  0  0  0  3  0  0  0  0  0  0
  -29.6860  -23.1800   23.1810 C   0  0  0  0  0  0  0  0  0  0  0  0
  -28.7390  -22.7560   20.9300 C   0  0  0  0  0  0  0  0  0  0  0  0
  -30.4710  -22.0260   23.0380 C   0  0  0  0  0  0  0  0  0  0  0  0
  -29.5410  -21.5120   20.9400 C   0  0  0  0  0  0  0  0  0  0  0  0
  -31.4480  -21.5550   24.0990 C   0  0  0  0  0  1  0  0  0  0  0  0
  -30.3730  -21.2330   21.9630 N   0  0  0  0  0  0  0  0  0  0  0  0
  -29.6790  -24.0120   24.4650 C   0  0  0  0  0  2  0  0  0  0  0  0
  -29.1570  -25.4520   24.2920 C   0  0  0  0  0  2  0  0  0  0  0  0
  -28.1850  -27.5340   25.3510 C   0  0  0  0  0  1  0  0  0  0  0  0
  -27.4210  -25.2780   26.1730 C   0  0  0  0  0  1  0  0  0  0  0  0
  -28.6010  -26.0750   25.5900 C   0  0  0  0  0  3  0  0  0  0  0  0
  -27.7630  -23.3930   19.8200 C   0  0  0  0  0  2  0  0  0  0  0  0
  -27.2590  -24.9510   20.0050 C   0  0  0  0  0  2  0  0  0  0  0  0
  -27.0170  -25.9810   18.9390 O   0  0  0  0  0  0  0  0  0  0  0  0
  -24.2950  -31.4880   22.8640 C   0  0  0  0  0  0  0  0  0  0  0  0
  -26.0260  -26.9610   19.1630 C   0  0  0  0  0  0  0  0  0  0  0  0
  -22.7630  -30.3480   21.3000 C   0  0  0  0  0  3  0  0  0  0  0  0
  -23.8610  -28.7970   19.5830 C   0  0  0  0  0  0  0  0  0  0  0  0
  -25.2800  -30.4450   20.8040 C   0  0  0  0  0  2  0  0  0  0  0  0
  -25.1410  -29.1220   20.0520 C   0  0  0  0  0  0  0  0  0  0  0  0
  -26.2300  -28.2190   19.8260 C   0  0  0  0  0  3  0  0  0  0  0  0
  -24.7280  -26.6990   18.6830 C   0  0  0  0  0  3  0  0  0  0  0  0
  -23.6580  -27.5940   18.8880 C   0  0  0  0  0  3  0  0  0  0  0  0
  -22.7350  -29.7760   19.8580 C   0  0  0  0  0  2  0  0  0  0  0  0
  -24.1400  -30.7730   21.7110 N   0  0  0  0  0  0  0  0  0  0  0  0
  -23.3200  -31.8130   23.5580 O   0  0  0  0  0  0  0  0  0  0  0  0
  -22.1260  -29.3180   22.2650 C   0  0  0  0  0  0  0  0  0  0  0  0
  -20.7910  -29.1740   22.2030 N   0  0  0  0  0  0  0  0  0  0  0  0
  -22.8310  -28.6530   23.0290 O   0  0  0  0  0  0  0  0  0  0  0  0
  -20.2810  -29.7620   21.5580 H   0  0  0  0  0  0  0  0  0  0  0  0
  -17.4390  -27.9120   22.7220 C   0  0  0  0  0  0  0  0  0  0  0  0
  -19.9920  -28.2290   22.9860 C   0  0  0  0  0  3  0  0  0  0  0  0
  -20.1240  -26.7930   22.4290 C   0  0  0  0  0  2  0  0  0  0  0  0
  -19.0270  -26.4350   21.4200 C   0  0  0  0  0  2  0  0  0  0  0  0
  -17.6430  -26.5580   22.0630 C   0  0  0  0  0  2  0  0  0  0  0  0
  -18.5410  -28.7030   23.1400 C   0  0  0  0  0  0  0  0  0  0  0  0
  -18.2960  -29.9680   23.7180 C   0  0  0  0  0  3  0  0  0  0  0  0
  -16.9800  -30.4410   23.8810 C   0  0  0  0  0  3  0  0  0  0  0  0
  -15.8930  -29.6480   23.4780 C   0  0  0  0  0  3  0  0  0  0  0  0
  -16.1230  -28.3860   22.9030 C   0  0  0  0  0  3  0  0  0  0  0  0
  -25.7010  -31.9480   23.3570 C   0  0  0  0  0  3  0  0  0  0  0  0
  -25.5410  -33.2670   23.9880 N   0  0  0  0  0  0  0  0  0  0  0  0
  -25.9330  -34.4270   23.4430 C   0  0  0  0  0  0  0  0  0  0  0  0
  -26.5350  -34.4890   22.3680 O   0  0  0  0  0  0  0  0  0  0  0  0
  -25.0020  -33.2970   24.8410 H   0  0  0  0  0  0  0  0  0  0  0  0
  -24.4060  -36.4250   23.5530 C   0  0  0  0  0  1  0  0  0  0  0  0
  -25.6050  -35.7230   24.2110 C   0  0  0  0  0  3  0  0  0  0  0  0
  -27.8300  -36.1770   25.1450 C   0  0  0  0  0  1  0  0  0  0  0  0
  -26.7460  -36.6610   24.2950 N   0  0  0  0  0  0  0  0  0  0  0  0
  -26.4440  -37.5660   24.6470 H   0  0  0  0  0  0  0  0  0  0  0  0
  -26.3710  -30.9310   24.3620 C   0  0  1  0  0  0  0  0  0  0  0  0
  -25.4560  -30.5300   25.5430 C   0  0  0  0  0  1  0  0  0  0  0  0
  -26.7910  -29.6340   23.6320 C   0  0  0  0  0  1  0  0  0  0  0  0
  -27.6640  -31.5470   24.9450 C   0  0  0  0  0  1  0  0  0  0  0  0
  -29.4570  -20.2210   20.0440 C   0  0  0  0  0  2  0  0  0  0  0  0
  -30.2520  -18.8000   20.3270 C   0  0  0  0  0  2  0  0  0  0  0  0
  -29.9200  -17.6580   21.4290 C   0  0  0  0  0  2  0  0  0  0  0  0
  -30.7350  -15.0890   21.0740 C   0  0  0  0  0  0  0  0  0  0  0  0
  -30.7590  -12.7560   20.1530 C   0  0  0  0  0  2  0  0  0  0  0  0
  -29.9610  -12.7210   18.8300 C   0  0  0  0  0  2  0  0  0  0  0  0
  -28.4550  -12.5230   19.0960 C   0  0  0  0  0  2  0  0  0  0  0  0
  -27.9150  -13.4610   20.2070 C   0  0  0  0  0  3  0  0  0  0  0  0
  -28.8370  -13.4530   21.4450 C   0  0  0  0  0  2  0  0  0  0  0  0
  -30.1800  -13.8320   20.9860 N   0  0  0  0  0  0  0  0  0  0  0  0
  -31.9530  -15.2450   20.9490 O   0  0  0  0  0  0  0  0  0  0  0  0
  -29.8500  -16.1580   21.1000 N   0  0  0  0  0  0  0  0  0  0  0  0
  -28.8980  -15.8260   21.0590 H   0  0  0  0  0  0  0  0  0  0  0  0
  -25.4360  -14.0160   20.5620 C   0  0  0  0  0  0  0  0  0  0  0  0
  -24.3560  -13.2350   20.8670 C   0  0  0  0  0  0  0  0  0  0  0  0
  -24.8610  -11.9080   21.0320 C   0  0  0  0  0  0  0  0  0  0  0  0
  -26.5290  -13.1640   20.5500 N   0  0  0  0  0  0  0  0  0  0  0  0
  -26.1820  -11.8980   20.8970 N   0  0  0  0  0  0  0  0  0  0  0  0
  -24.1560  -10.6390   21.2520 C   0  0  0  0  0  0  0  0  0  0  0  0
  -24.5530   -9.7380   22.2640 C   0  0  0  0  0  3  0  0  0  0  0  0
  -23.8480   -8.5320   22.4660 C   0  0  0  0  0  3  0  0  0  0  0  0
  -22.7300   -8.2200   21.6560 C   0  0  0  0  0  0  0  0  0  0  0  0
  -22.3530   -9.1090   20.6340 C   0  0  0  0  0  3  0  0  0  0  0  0
  -23.0590  -10.3050   20.4300 C   0  0  0  0  0  3  0  0  0  0  0  0
  -22.0000   -7.0610   21.7650 O   0  0  0  0  0  0  0  0  0  0  0  0
  -21.8880   -6.3890   22.9560 C   0  0  0  0  0  0  0  0  0  0  0  0
  -21.3790   -7.0120   24.1170 C   0  0  0  0  0  3  0  0  0  0  0  0
  -21.2160   -6.2650   25.3010 C   0  0  0  0  0  3  0  0  0  0  0  0
  -21.5520   -4.8990   25.3250 C   0  0  0  0  0  0  0  0  0  0  0  0
  -22.0530   -4.2750   24.1690 C   0  0  0  0  0  3  0  0  0  0  0  0
  -22.2170   -5.0190   22.9860 C   0  0  0  0  0  0  0  0  0  0  0  0
  -22.6810   -4.4100   21.8690 F   0  0  0  0  0  0  0  0  0  0  0  0
  -21.3880   -4.1790   26.4600 F   0  0  0  0  0  0  0  0  0  0  0  0
  -22.9200  -13.6720   20.9060 C   0  0  0  0  0  0  0  0  0  0  0  0
  -22.1140  -13.0540   21.7630 N   0  0  0  0  0  0  0  0  0  0  0  0
  -22.5160  -14.6010   20.2090 O   0  0  0  0  0  0  0  0  0  0  0  0
  -22.4520  -12.3060   22.3500 H   0  0  0  0  0  0  0  0  0  0  0  0
  -21.1460  -13.3340   21.8340 H   0  0  0  0  0  0  0  0  0  0  0  0
  -25.5750  -15.3690   20.2670 N   0  0  0  0  0  0  0  0  0  0  0  0
  -24.7720  -15.9850   20.2020 H   0  0  0  0  0  0  0  0  0  0  0  0
  -26.4340  -15.8080   19.9610 H   0  0  0  0  0  0  0  0  0  0  0  0
  1  2  1  0
  2  8  1  0
  3  5  1  0
  3  1  2  0
  4  2  2  0
  4  6  1  0
  5  7  2  0
  7  4  1  0
  9  8  1  0
  9 12  1  0
 10 12  1  0
 12 11  1  0
 13 14  1  0
 13  3  1  0
 15 17  1  0
 15 14  1  0
 16 27  2  0
 17 22  1  0
 18 26  1  0
 18 28  1  0
 19 25  1  0
 19 21  1  0
 20 26  1  0
 21 20  1  0
 22 21  2  0
 23 24  1  0
 23 17  2  0
 24 19  2  0
 25 18  1  0
 26 16  1  0
 28 30  2  0
 29 28  1  0
 31 29  1  0
 32 41  2  0
 32 37  1  0
 33 29  1  0
 33 37  1  0
 34 33  1  0
 35 36  1  0
 35 34  1  0
 36 32  1  0
 37 38  2  0
 38 39  1  0
 40 39  2  0
 41 40  1  0
 42 16  1  0
 42 43  1  0
 42 52  1  0
 43 46  1  0
 44 43  1  0
 44 48  1  0
 45 44  2  0
 48 47  1  0
 48 50  1  0
 50 51  1  0
 50 49  1  0
 52 55  1  1
 52 53  1  0
 54 52  1  0
 56 57  1  0
 56  5  1  0
 57 58  1  0
 59 67  1  0
 60 65  1  0
 61 62  1  0
 61 60  1  0
 63 62  1  0
 63 72  1  0
 63 64  1  0
 65 59  1  0
 65 64  1  0
 66 59  2  0
 67 58  1  0
 68 67  1  0
 69 70  2  0
 70 89  1  0
 70 71  1  0
 71 74  1  0
 72 69  1  0
 72 73  1  0
 73 71  2  0
 74 75  1  0
 75 76  2  0
 77 80  1  0
 77 76  1  0
 78 77  2  0
 79 78  1  0
 79 74  2  0
 80 81  1  0
 81 86  2  0
 81 82  1  0
 82 83  2  0
 83 84  1  0
 84 88  1  0
 85 84  2  0
 86 85  1  0
 87 86  1  0
 89 90  1  0
 90 93  1  0
 90 92  1  0
 91 89  2  0
 94 69  1  0
 95 94  1  0
 96 94  1  0
M  ISO  4  14 101  15 101  59 100  67 100
M  END
>  <TORSDO>  (5) 
F 24

>  <SCORE>  (5) 
-8.429

>  <name>  (5) 
4

>  <ligand_id>  (5) 
4

>  <original_smiles>  (5) 
[H]c1c([H])c([H])c2c(c1[H])C([H])([H])C([H])([H])C([H])([H])C2([H])N([H])C(=O)C1([H])N(C(=O)C([H])(N([H])C(=O)C([H])(N([H])C([H])([H])[H])C([H])([H])[H])C(C([H])([H])[H])(C([H])([H])[H])C([H])([H])[H])C([H])([H])c2c([H])c(OC([H])([H])C([H])([H])c3c(C([H])([H])C([H])([H])C([H])([H])N([H])C(=O)N4C([H])([H])C([H])([H])C([H])([H])C([H])(n5nc(-c6c([H])c([H])c(Oc7c([H])c([H])c(F)c([H])c7F)c([H])c6[H])c(C(=O)N([H])[H])c5N([H])[H])C4([H])[H])nc(C([H])([H])[H])c(C([H])([H])C([H])([H])C([H])(C([H])([H])[H])C([H])([H])[H])c3[H])c([H])c([H])c2C1([H])[H]

>  <smiles>  (5) 
[H]c1c([H])c([H])c2c(c1[H])C([H])([H])C([H])([H])C([H])([H])C2([H])N([H])C(=O)C1([H])N(C(=O)C([H])(N([H])C(=O)C([H])(N([H])C([H])([H])[H])C([H])([H])[H])C(C([H])([H])[H])(C([H])([H])[H])C([H])([H])[H])C([H])([H])c2c([H])c(OC([H])([H])C([H])([H])c3c(C([H])([H])C([H])([H])C([H])([H])N([H])C(=O)N4C([H])([H])C([H])([H])C([H])([H])C([H])(n5nc(-c6c([H])c([H])c(Oc7c([H])c([H])c(F)c([H])c7F)c([H])c6[H])c(C(=O)N([H])[H])c5N([H])[H])C4([H])[H])nc(C([H])([H])[H])c(C([H])([H])C([H])([H])C([H])(C([H])([H])[H])C([H])([H])[H])c3[H])c([H])c([H])c2C1([H])[H]

$$$$
5:0:0
     RDKit          3D

 95 95  0  0  1  0  0  0  0  0999 V2000
  -20.5330  -26.9330   21.5210 C   0  0  0  0  0  1  0  0  0  0  0  0
  -21.7240  -26.1660   20.6280 C   0  0  0  0  0  2  0  0  0  0  0  0
  -20.1340  -25.8800   23.3070 C   0  0  0  0  0  1  0  0  0  0  0  0
  -22.4930  -24.8090   21.1210 C   0  0  0  0  0  3  0  0  0  0  0  0
  -21.0970  -24.4360   23.4160 C   0  0  0  0  0  0  0  0  0  0  0  0
  -22.2410  -23.8650   22.3500 C   0  0  0  0  0  0  0  0  0  0  0  0
  -19.7720  -22.4840   24.2870 C   0  0  0  0  0  1  0  0  0  0  0  0
  -20.6790  -24.1890   25.9550 C   0  0  0  0  0  1  0  0  0  0  0  0
  -20.8820  -23.4960   24.5980 C   0  0  0  0  0  3  0  0  0  0  0  0
  -23.9010  -24.4070   20.5290 C   0  0  0  0  0  2  0  0  0  0  0  0
  -25.0250  -25.4740   20.5030 C   0  0  0  0  0  3  0  0  0  0  0  0
  -26.6470  -25.2050   20.4900 C   0  0  0  0  0  3  0  0  0  0  0  0
  -27.6840  -26.3020   20.3250 O   0  0  0  0  0  0  0  0  0  0  0  0
  -24.6380  -31.9250   23.2220 C   0  0  0  0  0  0  0  0  0  0  0  0
  -27.0930  -27.4860   20.0010 C   0  0  0  0  0  0  0  0  0  0  0  0
  -23.4360  -30.5610   21.5730 C   0  0  0  0  0  3  0  0  0  0  0  0
  -24.8710  -29.1410   20.0120 C   0  0  0  0  0  0  0  0  0  0  0  0
  -25.9700  -30.8560   21.4260 C   0  0  0  0  0  2  0  0  0  0  0  0
  -26.0110  -29.5190   20.7310 C   0  0  0  0  0  0  0  0  0  0  0  0
  -27.1330  -28.6550   20.7930 C   0  0  0  0  0  3  0  0  0  0  0  0
  -26.1700  -27.4090   18.9630 C   0  0  0  0  0  3  0  0  0  0  0  0
  -24.9650  -28.1120   19.0790 C   0  0  0  0  0  3  0  0  0  0  0  0
  -23.6080  -29.9450   20.1630 C   0  0  0  0  0  2  0  0  0  0  0  0
  -24.6940  -31.1600   22.1010 N   0  0  0  0  0  0  0  0  0  0  0  0
  -23.5560  -32.1990   23.7620 O   0  0  0  0  0  0  0  0  0  0  0  0
  -22.9450  -29.5110   22.5730 C   0  0  0  0  0  0  0  0  0  0  0  0
  -21.6560  -29.2620   22.6330 N   0  0  0  0  0  0  0  0  0  0  0  0
  -23.7270  -28.9410   23.3330 O   0  0  0  0  0  0  0  0  0  0  0  0
  -21.0000  -29.7470   22.0320 H   0  0  0  0  0  0  0  0  0  0  0  0
  -18.2650  -27.6590   22.6790 C   0  0  0  0  0  0  0  0  0  0  0  0
  -21.1720  -28.1760   23.4720 C   0  0  0  0  0  2  0  0  0  0  0  0
  -22.1670  -26.5520   22.9240 C   0  0  0  0  0 15  0  0  0  0  0  0
  -19.8520  -24.8760   21.3930 C   0  0  0  0  0 15  0  0  0  0  0  0
  -18.2620  -26.0740   21.7640 C   0  0  0  0  0  1  0  0  0  0  0  0
  -19.4290  -28.4770   23.3410 C   0  0  0  0  0  0  0  0  0  0  0  0
  -19.0880  -29.7770   23.8780 C   0  0  0  0  0  3  0  0  0  0  0  0
  -17.7890  -30.3260   23.9340 C   0  0  0  0  0  3  0  0  0  0  0  0
  -16.7240  -29.5610   23.4510 C   0  0  0  0  0  3  0  0  0  0  0  0
  -16.9710  -28.2930   22.8500 C   0  0  0  0  0  3  0  0  0  0  0  0
  -25.9290  -32.5060   23.8590 C   0  0  0  0  0  3  0  0  0  0  0  0
  -26.4550  -31.6670   25.0870 C   0  0  1  0  0  0  0  0  0  0  0  0
  -25.3700  -31.3770   26.1500 C   0  0  0  0  0  1  0  0  0  0  0  0
  -27.0390  -30.3100   24.6270 C   0  0  0  0  0  1  0  0  0  0  0  0
  -27.6130  -32.4280   25.7720 C   0  0  0  0  0  1  0  0  0  0  0  0
  -25.6190  -33.8830   24.2570 N   0  0  0  0  0  0  0  0  0  0  0  0
  -25.9090  -34.9600   23.5180 C   0  0  0  0  0  0  0  0  0  0  0  0
  -26.5500  -34.9010   22.4650 O   0  0  0  0  0  0  0  0  0  0  0  0
  -25.0500  -34.0010   25.0810 H   0  0  0  0  0  0  0  0  0  0  0  0
  -24.1510  -36.7370   23.2610 C   0  0  0  0  0  1  0  0  0  0  0  0
  -25.4120  -36.3220   24.0350 C   0  0  0  0  0  3  0  0  0  0  0  0
  -27.5610  -37.1870   24.8460 C   0  0  0  0  0  1  0  0  0  0  0  0
  -26.4300  -37.3910   23.9440 N   0  0  0  0  0  0  0  0  0  0  0  0
  -26.0190  -38.2970   24.1510 H   0  0  0  0  0  0  0  0  0  0  0  0
  -23.2970  -22.2650   22.5390 C   0  0  0  0  0  1  0  0  0  0  0  0
  -24.6440  -21.0830   21.6500 C   0  0  0  0  0 15  0  0  0  0  0  0
  -25.9070  -19.5650   21.9390 C   0  0  0  0  0 15  0  0  0  0  0  0
  -27.1060  -18.2470   21.0350 C   0  0  0  0  0 15  0  0  0  0  0  0
  -28.2750  -16.5120   22.8650 C   0  0  0  0  0  1  0  0  0  0  0  0
  -28.4590  -16.8330   21.3810 C   0  0  0  0  0  2  0  0  0  0  0  0
  -29.6430  -15.4780   20.6750 C   0  0  0  0  0  0  0  0  0  0  0  0
  -30.3310  -13.0490   19.6830 C   0  0  0  0  0  2  0  0  0  0  0  0
  -29.5290  -12.6640   18.3990 C   0  0  0  0  0  2  0  0  0  0  0  0
  -28.0820  -12.2710   18.7450 C   0  0  0  0  0  2  0  0  0  0  0  0
  -27.5250  -13.2140   19.8330 C   0  0  0  0  0  3  0  0  0  0  0  0
  -28.4310  -13.2990   21.0560 C   0  0  0  0  0  2  0  0  0  0  0  0
  -29.5430  -14.0470   20.5540 N   0  0  0  0  0  0  0  0  0  0  0  0
  -30.8260  -15.7150   20.2970 O   0  0  0  0  0  0  0  0  0  0  0  0
  -25.1980  -13.8030   20.5700 C   0  0  0  0  0  0  0  0  0  0  0  0
  -24.1390  -13.0270   20.9270 C   0  0  0  0  0  0  0  0  0  0  0  0
  -24.6000  -11.6750   20.8800 C   0  0  0  0  0  0  0  0  0  0  0  0
  -26.2070  -12.9100   20.2800 N   0  0  0  0  0  0  0  0  0  0  0  0
  -25.8790  -11.6290   20.5470 N   0  0  0  0  0  0  0  0  0  0  0  0
  -23.8820  -10.4140   21.0490 C   0  0  0  0  0  0  0  0  0  0  0  0
  -24.3480   -9.4090   21.9250 C   0  0  0  0  0  3  0  0  0  0  0  0
  -23.6190   -8.2110   22.0800 C   0  0  0  0  0  3  0  0  0  0  0  0
  -22.4180   -8.0170   21.3570 C   0  0  0  0  0  0  0  0  0  0  0  0
  -21.9760   -9.0120   20.4690 C   0  0  0  0  0  3  0  0  0  0  0  0
  -22.7050  -10.2000   20.3090 C   0  0  0  0  0  3  0  0  0  0  0  0
  -21.6570   -6.8780   21.4250 O   0  0  0  0  0  0  0  0  0  0  0  0
  -21.6800   -6.0670   22.5300 C   0  0  0  0  0  0  0  0  0  0  0  0
  -21.3980   -6.5610   23.8230 C   0  0  0  0  0  3  0  0  0  0  0  0
  -21.3640   -5.6780   24.9200 C   0  0  0  0  0  3  0  0  0  0  0  0
  -21.6030   -4.3040   24.7260 C   0  0  0  0  0  0  0  0  0  0  0  0
  -21.8820   -3.8120   23.4390 C   0  0  0  0  0  3  0  0  0  0  0  0
  -21.9170   -4.6910   22.3440 C   0  0  0  0  0  0  0  0  0  0  0  0
  -22.1650   -4.2120   21.1020 F   0  0  0  0  0  0  0  0  0  0  0  0
  -21.5620   -3.4530   25.7770 F   0  0  0  0  0  0  0  0  0  0  0  0
  -22.7480  -13.5110   21.1950 C   0  0  0  0  0  0  0  0  0  0  0  0
  -22.0120  -12.8220   22.0550 N   0  0  0  0  0  0  0  0  0  0  0  0
  -22.3250  -14.5430   20.6740 O   0  0  0  0  0  0  0  0  0  0  0  0
  -22.3650  -11.9840   22.4920 H   0  0  0  0  0  0  0  0  0  0  0  0
  -21.0810  -13.1430   22.2870 H   0  0  0  0  0  0  0  0  0  0  0  0
  -25.3830  -15.1780   20.4390 N   0  0  0  0  0  0  0  0  0  0  0  0
  -24.6280  -15.8350   20.5940 H   0  0  0  0  0  0  0  0  0  0  0  0
  -26.2350  -15.6240   20.1240 H   0  0  0  0  0  0  0  0  0  0  0  0
  2  4  1  0
  2  1  1  0
  3  5  1  0
  4 10  1  0
  4  6  1  0
  5  9  1  0
  6 54  1  0
  6  5  2  0
  7  9  1  0
  9  8  1  0
 11 10  1  0
 12 11  2  0
 13 12  1  0
 14 25  2  0
 15 13  1  0
 15 20  1  0
 16 24  1  0
 16 26  1  0
 17 23  1  0
 17 19  1  0
 18 24  1  0
 19 20  2  0
 19 18  1  0
 21 22  1  0
 21 15  2  0
 22 17  2  0
 23 16  1  0
 24 14  1  0
 26 27  1  0
 26 28  2  0
 27 31  1  0
 29 27  1  0
 30 39  2  0
 30 35  1  0
 34 30  1  0
 35 31  1  0
 35 36  2  0
 36 37  1  0
 38 37  2  0
 39 38  1  0
 40 14  1  0
 40 45  1  0
 40 41  1  0
 41 44  1  1
 41 42  1  0
 43 41  1  0
 45 48  1  0
 46 50  1  0
 46 45  1  0
 47 46  2  0
 50 49  1  0
 52 50  1  0
 52 53  1  0
 52 51  1  0
 59 58  1  0
 60 59  1  0
 61 66  1  0
 62 63  1  0
 62 61  1  0
 64 63  1  0
 64 71  1  0
 64 65  1  0
 66 60  1  0
 66 65  1  0
 67 60  2  0
 68 69  2  0
 69 88  1  0
 70 69  1  0
 70 73  1  0
 71 72  1  0
 71 68  1  0
 72 70  2  0
 73 74  1  0
 74 75  2  0
 76 79  1  0
 76 75  1  0
 77 76  2  0
 78 77  1  0
 78 73  2  0
 79 80  1  0
 80 81  1  0
 81 82  2  0
 83 82  1  0
 83 87  1  0
 84 83  2  0
 85 80  2  0
 85 84  1  0
 86 85  1  0
 88 89  1  0
 89 92  1  0
 89 91  1  0
 90 88  2  0
 93 68  1  0
 93 94  1  0
 95 93  1  0
M  ISO  4  12 101  13 101  59 100  60 100
M  END
>  <TORSDO>  (6) 
F 25

>  <SCORE>  (6) 
44.574

>  <name>  (6) 
5

>  <ligand_id>  (6) 
5

>  <original_smiles>  (6) 
[H]c1c([H])c([H])c2c(c1[H])C([H])([H])C([H])([H])C([H])([H])C2([H])N([H])C(=O)C1([H])N(C(=O)C([H])(N([H])C(=O)C([H])(N([H])C([H])([H])[H])C([H])([H])[H])C(C([H])([H])[H])(C([H])([H])[H])C([H])([H])[H])C([H])([H])c2c([H])c(OC([H])([H])C([H])([H])C([H])([H])c3c([H])c([H])c([H])c(C([H])(C([H])([H])[H])C([H])([H])[H])c3C([H])([H])C([H])([H])C([H])([H])C([H])([H])C([H])(C(=O)N3C([H])([H])C([H])([H])C([H])([H])C([H])(n4nc(-c5c([H])c([H])c(Oc6c([H])c([H])c(F)c([H])c6F)c([H])c5[H])c(C(=O)N([H])[H])c4N([H])[H])C3([H])[H])C([H])([H])[H])c([H])c([H])c2C1([H])[H]

>  <smiles>  (6) 
[H]c1c([H])c([H])c2c(c1[H])C([H])([H])C([H])([H])C([H])([H])C2([H])N([H])C(=O)C1([H])N(C(=O)C([H])(N([H])C(=O)C([H])(N([H])C([H])([H])[H])C([H])([H])[H])C(C([H])([H])[H])(C([H])([H])[H])C([H])([H])[H])C([H])([H])c2c([H])c(OC([H])([H])C([H])([H])C([H])([H])c3c([H])c([H])c([H])c(C([H])(C([H])([H])[H])C([H])([H])[H])c3C([H])([H])C([H])([H])C([H])([H])C([H])([H])C([H])(C(=O)N3C([H])([H])C([H])([H])C([H])([H])C([H])(n4nc(-c5c([H])c([H])c(Oc6c([H])c([H])c(F)c([H])c6F)c([H])c5[H])c(C(=O)N([H])[H])c4N([H])[H])C3([H])[H])C([H])([H])[H])c([H])c([H])c2C1([H])[H]

$$$$
6:0:0
     RDKit          3D

100108  0  0  1  0  0  0  0  0999 V2000
  -27.3820  -21.8240   18.6730 C   0  0  0  0  0  3  0  0  0  0  0  0
  -28.2580  -20.1630   20.1940 C   0  0  0  0  0  3  0  0  0  0  0  0
  -27.9340  -21.5060   19.9260 C   0  0  0  0  0  0  0  0  0  0  0  0
  -27.1680  -20.7870   17.7460 C   0  0  0  0  0  0  0  0  0  0  0  0
  -27.9970  -19.1790   19.2170 C   0  0  0  0  0  0  0  0  0  0  0  0
  -27.4780  -19.5000   18.0100 N   0  0  0  0  0  0  0  0  0  0  0  0
  -28.1450  -22.5760   20.9820 C   0  0  0  0  0  2  0  0  0  0  0  0
  -29.1130  -23.6840   20.5380 C   0  0  0  0  0  2  0  0  0  0  0  0
  -29.0950  -24.8890   21.4950 C   0  0  0  0  0  2  0  0  0  0  0  0
  -29.2470  -26.1190   20.7930 O   0  0  0  0  0  0  0  0  0  0  0  0
  -24.9910  -31.2850   23.1390 C   0  0  0  0  0  0  0  0  0  0  0  0
  -28.0690  -26.7990   20.6180 C   0  0  0  0  0  0  0  0  0  0  0  0
  -24.0090  -29.7740   21.4420 C   0  0  0  0  0  3  0  0  0  0  0  0
  -25.6500  -28.2040   20.2790 C   0  0  0  0  0  0  0  0  0  0  0  0
  -26.5290  -30.1990   21.5110 C   0  0  0  0  0  2  0  0  0  0  0  0
  -26.7180  -28.8000   20.9630 C   0  0  0  0  0  0  0  0  0  0  0  0
  -27.9340  -28.1060   21.1260 C   0  0  0  0  0  3  0  0  0  0  0  0
  -26.9880  -26.2030   19.9330 C   0  0  0  0  0  3  0  0  0  0  0  0
  -25.7770  -26.9020   19.7610 C   0  0  0  0  0  3  0  0  0  0  0  0
  -24.3890  -29.0260   20.1350 C   0  0  0  0  0  2  0  0  0  0  0  0
  -25.1880  -30.4350   22.0920 N   0  0  0  0  0  0  0  0  0  0  0  0
  -23.8510  -31.5590   23.5370 O   0  0  0  0  0  0  0  0  0  0  0  0
  -23.2670  -28.7910   22.3720 C   0  0  0  0  0  0  0  0  0  0  0  0
  -21.9510  -28.6410   22.1570 N   0  0  0  0  0  0  0  0  0  0  0  0
  -23.8750  -28.1610   23.2420 O   0  0  0  0  0  0  0  0  0  0  0  0
  -21.5250  -29.1990   21.4300 H   0  0  0  0  0  0  0  0  0  0  0  0
  -18.4920  -27.6880   22.5760 C   0  0  0  0  0  0  0  0  0  0  0  0
  -21.0580  -27.7410   22.8840 C   0  0  0  0  0  3  0  0  0  0  0  0
  -21.0610  -26.3270   22.2580 C   0  0  0  0  0  2  0  0  0  0  0  0
  -19.9510  -26.1250   21.2210 C   0  0  0  0  0  2  0  0  0  0  0  0
  -18.5760  -26.3520   21.8540 C   0  0  0  0  0  2  0  0  0  0  0  0
  -19.6590  -28.3470   23.0460 C   0  0  0  0  0  0  0  0  0  0  0  0
  -19.5290  -29.6020   23.6800 C   0  0  0  0  0  3  0  0  0  0  0  0
  -18.2650  -30.1970   23.8460 C   0  0  0  0  0  3  0  0  0  0  0  0
  -17.1120  -29.5350   23.3920 C   0  0  0  0  0  3  0  0  0  0  0  0
  -17.2260  -28.2810   22.7620 C   0  0  0  0  0  3  0  0  0  0  0  0
  -26.1880  -31.9740   23.8700 C   0  0  0  0  0  3  0  0  0  0  0  0
  -25.7870  -33.3540   24.1730 N   0  0  0  0  0  0  0  0  0  0  0  0
  -26.1380  -34.4230   23.4470 C   0  0  0  0  0  0  0  0  0  0  0  0
  -26.9030  -34.3550   22.4820 O   0  0  0  0  0  0  0  0  0  0  0  0
  -25.1160  -33.4780   24.9180 H   0  0  0  0  0  0  0  0  0  0  0  0
  -24.3560  -36.1250   22.9400 C   0  0  0  0  0  1  0  0  0  0  0  0
  -25.5420  -35.7840   23.8560 C   0  0  0  0  0  3  0  0  0  0  0  0
  -27.5550  -36.7720   24.8590 C   0  0  0  0  0  1  0  0  0  0  0  0
  -26.5260  -36.8870   23.8280 N   0  0  0  0  0  0  0  0  0  0  0  0
  -26.0630  -37.7850   23.9410 H   0  0  0  0  0  0  0  0  0  0  0  0
  -26.6310  -31.2210   25.1820 C   0  0  1  0  0  0  0  0  0  0  0  0
  -25.4590  -30.8820   26.1300 C   0  0  0  0  0  1  0  0  0  0  0  0
  -27.3570  -29.9000   24.8310 C   0  0  0  0  0  1  0  0  0  0  0  0
  -27.6440  -32.0860   25.9690 C   0  0  0  0  0  1  0  0  0  0  0  0
  -26.5560  -21.0810   16.3850 C   0  0  0  0  0  2  0  0  0  0  0  0
  -25.1630  -21.7520   16.4460 C   0  0  0  0  0  2  0  0  0  0  0  0
  -22.7910  -21.8200   17.3260 C   0  0  0  0  0  1  0  0  0  0  0  0
  -23.6590  -19.6750   16.3300 C   0  0  0  0  0  1  0  0  0  0  0  0
  -24.0330  -20.9400   17.1230 C   0  0  0  0  0  3  0  0  0  0  0  0
  -28.2170  -17.6780   19.4560 C   0  0  0  0  0  3  0  0  0  0  0  0
  -29.6200  -17.3480   20.0210 C   0  0  0  0  0  2  0  0  0  0  0  0
  -29.7220  -15.8530   20.3790 C   0  0  0  0  0  2  0  0  0  0  0  0
  -31.5620  -14.3110   21.0400 C   0  0  0  0  0  0  0  0  0  0  0  0
  -31.4520  -11.8460   21.1180 C   0  0  0  0  0  2  0  0  0  0  0  0
  -30.7390  -11.2810   19.8750 C   0  0  0  0  0  2  0  0  0  0  0  0
  -29.2200  -11.2100   20.1070 C   0  0  0  0  0  2  0  0  0  0  0  0
  -28.6490  -12.5430   20.6500 C   0  0  0  0  0  3  0  0  0  0  0  0
  -29.4910  -13.0660   21.8410 C   0  0  0  0  0  2  0  0  0  0  0  0
  -30.8910  -13.1770   21.4000 N   0  0  0  0  0  0  0  0  0  0  0  0
  -32.7390  -14.3030   20.6820 O   0  0  0  0  0  0  0  0  0  0  0  0
  -30.9280  -15.4930   21.1290 N   0  0  0  0  0  0  0  0  0  0  0  0
  -31.5830  -16.2590   21.1870 H   0  0  0  0  0  0  0  0  0  0  0  0
  -26.3060  -13.4470   21.2020 C   0  0  0  0  0  0  0  0  0  0  0  0
  -25.1120  -12.8130   21.4140 C   0  0  0  0  0  0  0  0  0  0  0  0
  -25.3850  -11.4160   21.2930 C   0  0  0  0  0  0  0  0  0  0  0  0
  -27.2340  -12.4400   20.9840 N   0  0  0  0  0  0  0  0  0  0  0  0
  -26.6790  -11.2100   21.0960 N   0  0  0  0  0  0  0  0  0  0  0  0
  -24.4840  -10.2610   21.2910 C   0  0  0  0  0  0  0  0  0  0  0  0
  -24.6820   -9.1690   22.1630 C   0  0  0  0  0  3  0  0  0  0  0  0
  -23.7920   -8.0720   22.1520 C   0  0  0  0  0  3  0  0  0  0  0  0
  -22.6890   -8.0670   21.2660 C   0  0  0  0  0  0  0  0  0  0  0  0
  -22.5110   -9.1450   20.3830 C   0  0  0  0  0  3  0  0  0  0  0  0
  -23.4010  -10.2330   20.3880 C   0  0  0  0  0  3  0  0  0  0  0  0
  -21.7840   -7.0380   21.1670 O   0  0  0  0  0  0  0  0  0  0  0  0
  -21.4730   -6.2480   22.2440 C   0  0  0  0  0  0  0  0  0  0  0  0
  -20.8990   -6.7850   23.4180 C   0  0  0  0  0  3  0  0  0  0  0  0
  -20.5340   -5.9290   24.4770 C   0  0  0  0  0  3  0  0  0  0  0  0
  -20.7310   -4.5410   24.3600 C   0  0  0  0  0  0  0  0  0  0  0  0
  -21.2960   -4.0040   23.1890 C   0  0  0  0  0  3  0  0  0  0  0  0
  -21.6640   -4.8560   22.1340 C   0  0  0  0  0  0  0  0  0  0  0  0
  -22.1910   -4.3330   21.0010 F   0  0  0  0  0  0  0  0  0  0  0  0
  -20.3730   -3.7190   25.3750 F   0  0  0  0  0  0  0  0  0  0  0  0
  -23.7750  -13.4640   21.6130 C   0  0  0  0  0  0  0  0  0  0  0  0
  -22.8920  -12.8280   22.3760 N   0  0  0  0  0  0  0  0  0  0  0  0
  -23.5220  -14.5680   21.1340 O   0  0  0  0  0  0  0  0  0  0  0  0
  -23.1040  -11.9250   22.7740 H   0  0  0  0  0  0  0  0  0  0  0  0
  -21.9960  -13.2530   22.5670 H   0  0  0  0  0  0  0  0  0  0  0  0
  -26.6770  -14.7860   21.1530 N   0  0  0  0  0  0  0  0  0  0  0  0
  -25.9980  -15.5320   21.2400 H   0  0  0  0  0  0  0  0  0  0  0  0
  -27.5870  -15.1110   20.8600 H   0  0  0  0  0  0  0  0  0  0  0  0
  -27.1180  -16.9800   20.3000 C   0  0  0  0  0  2  0  0  0  0  0  0
  -26.0990  -15.1560   18.8510 C   0  0  0  0  0  1  0  0  0  0  0  0
  -24.6160  -16.5240   20.3590 C   0  0  0  0  0  1  0  0  0  0  0  0
  -25.8800  -16.5380   19.4880 C   0  0  0  0  0  3  0  0  0  0  0  0
  1  3  1  0
  3  2  2  0
  3  7  1  0
  4  6  1  0
  4  1  2  0
  5 56  1  0
  5  2  1  0
  6  5  2  0
  8  7  1  0
  8  9  1  0
 10  9  1  0
 11 22  2  0
 12 10  1  0
 12 17  1  0
 13 21  1  0
 13 23  1  0
 14 16  1  0
 15 21  1  0
 16 17  2  0
 16 15  1  0
 18 12  2  0
 19 18  1  0
 19 14  2  0
 20 14  1  0
 20 13  1  0
 21 11  1  0
 23 25  2  0
 24 23  1  0
 26 24  1  0
 27 36  2  0
 27 32  1  0
 28 24  1  0
 28 32  1  0
 29 28  1  0
 30 31  1  0
 30 29  1  0
 31 27  1  0
 32 33  2  0
 33 34  1  0
 35 34  2  0
 36 35  1  0
 37 11  1  0
 37 38  1  0
 37 47  1  0
 38 41  1  0
 39 43  1  0
 39 38  1  0
 40 39  2  0
 43 42  1  0
 45 43  1  0
 45 46  1  0
 45 44  1  0
 47 50  1  1
 47 48  1  0
 49 47  1  0
 51 52  1  0
 51  4  1  0
 52 55  1  0
 54 55  1  0
 55 53  1  0
 56 57  1  0
 56 97  1  0
 57 58  1  0
 58 67  1  0
 59 67  1  0
 59 65  1  0
 60 65  1  0
 61 62  1  0
 61 60  1  0
 63 62  1  0
 63 72  1  0
 63 64  1  0
 65 64  1  0
 66 59  2  0
 67 68  1  0
 69 70  2  0
 70 89  1  0
 71 70  1  0
 72 73  1  0
 72 69  1  0
 73 71  2  0
 74 71  1  0
 74 75  1  0
 76 75  2  0
 77 76  1  0
 78 79  1  0
 78 77  2  0
 79 74  2  0
 80 77  1  0
 80 81  1  0
 81 82  1  0
 82 83  2  0
 84 83  1  0
 84 88  1  0
 85 84  2  0
 86 81  2  0
 86 85  1  0
 87 86  1  0
 89 90  1  0
 90 93  1  0
 90 92  1  0
 91 89  2  0
 94 69  1  0
 94 95  1  0
 96 94  1  0
 98100  1  0
100 97  1  0
100 99  1  0
M  ISO  4   9 101  10 101  59 100  67 100
M  END
>  <TORSDO>  (7) 
F 27

>  <SCORE>  (7) 
-4.381

>  <name>  (7) 
6

>  <ligand_id>  (7) 
6

>  <original_smiles>  (7) 
[H]c1c([H])c([H])c2c(c1[H])C([H])([H])C([H])([H])C([H])([H])C2([H])N([H])C(=O)C1([H])N(C(=O)C([H])(N([H])C(=O)C([H])(N([H])C([H])([H])[H])C([H])([H])[H])C(C([H])([H])[H])(C([H])([H])[H])C([H])([H])[H])C([H])([H])c2c([H])c(OC([H])([H])C([H])([H])C([H])([H])c3c([H])c(C([H])([H])C([H])([H])C([H])(C([H])([H])[H])C([H])([H])[H])nc(C([H])(C([H])([H])C([H])([H])N([H])C(=O)N4C([H])([H])C([H])([H])C([H])([H])C([H])(n5nc(-c6c([H])c([H])c(Oc7c([H])c([H])c(F)c([H])c7F)c([H])c6[H])c(C(=O)N([H])[H])c5N([H])[H])C4([H])[H])C([H])([H])C([H])(C([H])([H])[H])C([H])([H])[H])c3[H])c([H])c([H])c2C1([H])[H]

>  <smiles>  (7) 
[H]c1c([H])c([H])c2c(c1[H])C([H])([H])C([H])([H])C([H])([H])C2([H])N([H])C(=O)C1([H])N(C(=O)C([H])(N([H])C(=O)C([H])(N([H])C([H])([H])[H])C([H])([H])[H])C(C([H])([H])[H])(C([H])([H])[H])C([H])([H])[H])C([H])([H])c2c([H])c(OC([H])([H])C([H])([H])C([H])([H])c3c([H])c(C([H])([H])C([H])([H])C([H])(C([H])([H])[H])C([H])([H])[H])nc(C([H])(C([H])([H])C([H])([H])N([H])C(=O)N4C([H])([H])C([H])([H])C([H])([H])C([H])(n5nc(-c6c([H])c([H])c(Oc7c([H])c([H])c(F)c([H])c7F)c([H])c6[H])c(C(=O)N([H])[H])c5N([H])[H])C4([H])[H])C([H])([H])C([H])(C([H])([H])[H])C([H])([H])[H])c3[H])c([H])c([H])c2C1([H])[H]

$$$$
7:0:0
     RDKit          3D

 88 95  0  0  1  0  0  0  0  0999 V2000
  -29.2910  -21.1870   20.3960 C   0  0  0  0  0  2  0  0  0  0  0  0
  -28.9560  -22.8280   19.7560 C   0  0  0  0  0  2  0  0  0  0  0  0
  -28.2010  -24.3020   20.4160 C   0  0  0  0  0  2  0  0  0  0  0  0
  -28.3600  -25.9110   20.1860 O   0  0  0  0  0  0  0  0  0  0  0  0
  -24.6200  -31.7450   23.1520 C   0  0  0  0  0  0  0  0  0  0  0  0
  -27.3030  -26.9470   20.1820 C   0  0  0  0  0  0  0  0  0  0  0  0
  -23.4790  -30.3490   21.4740 C   0  0  0  0  0  3  0  0  0  0  0  0
  -24.9770  -28.7670   20.0870 C   0  0  0  0  0  0  0  0  0  0  0  0
  -26.0430  -30.6000   21.3870 C   0  0  0  0  0  2  0  0  0  0  0  0
  -26.1450  -29.1970   20.7320 C   0  0  0  0  0  0  0  0  0  0  0  0
  -27.3080  -28.3090   20.7490 C   0  0  0  0  0  3  0  0  0  0  0  0
  -26.1030  -26.6530   19.5010 C   0  0  0  0  0  3  0  0  0  0  0  0
  -24.9780  -27.5140   19.4540 C   0  0  0  0  0  3  0  0  0  0  0  0
  -23.7490  -29.6730   20.1020 C   0  0  0  0  0  2  0  0  0  0  0  0
  -24.7340  -30.9240   22.0590 N   0  0  0  0  0  0  0  0  0  0  0  0
  -23.5160  -32.0190   23.6490 O   0  0  0  0  0  0  0  0  0  0  0  0
  -22.7750  -29.3380   22.4160 C   0  0  0  0  0  0  0  0  0  0  0  0
  -21.4450  -29.1800   22.2720 N   0  0  0  0  0  0  0  0  0  0  0  0
  -23.4290  -28.6980   23.2430 O   0  0  0  0  0  0  0  0  0  0  0  0
  -20.9720  -29.7480   21.5840 H   0  0  0  0  0  0  0  0  0  0  0  0
  -18.0510  -27.9910   22.7350 C   0  0  0  0  0  0  0  0  0  0  0  0
  -20.6110  -28.2320   23.0180 C   0  0  0  0  0  3  0  0  0  0  0  0
  -20.7050  -26.8120   22.4130 C   0  0  0  0  0  2  0  0  0  0  0  0
  -19.6060  -26.5190   21.3870 C   0  0  0  0  0  2  0  0  0  0  0  0
  -18.2210  -26.6580   22.0270 C   0  0  0  0  0  2  0  0  0  0  0  0
  -19.1730  -28.7390   23.1850 C   0  0  0  0  0  0  0  0  0  0  0  0
  -18.9560  -29.9860   23.8090 C   0  0  0  0  0  3  0  0  0  0  0  0
  -17.6520  -30.4880   23.9840 C   0  0  0  0  0  3  0  0  0  0  0  0
  -16.5450  -29.7390   23.5470 C   0  0  0  0  0  3  0  0  0  0  0  0
  -16.7470  -28.4920   22.9280 C   0  0  0  0  0  3  0  0  0  0  0  0
  -25.8700  -32.3930   23.8200 C   0  0  0  0  0  3  0  0  0  0  0  0
  -25.5340  -33.7900   24.1460 N   0  0  0  0  0  0  0  0  0  0  0  0
  -25.8830  -34.8550   23.4120 C   0  0  0  0  0  0  0  0  0  0  0  0
  -26.5840  -34.7650   22.4000 O   0  0  0  0  0  0  0  0  0  0  0  0
  -24.9160  -33.9330   24.9310 H   0  0  0  0  0  0  0  0  0  0  0  0
  -24.1460  -36.6400   23.0440 C   0  0  0  0  0  1  0  0  0  0  0  0
  -25.3780  -36.2390   23.8710 C   0  0  0  0  0  3  0  0  0  0  0  0
  -27.4910  -37.1420   24.7400 C   0  0  0  0  0  1  0  0  0  0  0  0
  -26.4020  -37.3020   23.7780 N   0  0  0  0  0  0  0  0  0  0  0  0
  -25.9850  -38.2180   23.9220 H   0  0  0  0  0  0  0  0  0  0  0  0
  -26.3440  -31.6300   25.1190 C   0  0  1  0  0  0  0  0  0  0  0  0
  -25.2130  -31.3890   26.1470 C   0  0  0  0  0  1  0  0  0  0  0  0
  -26.9500  -30.2550   24.7590 C   0  0  0  0  0  1  0  0  0  0  0  0
  -27.4630  -32.4350   25.8190 C   0  0  0  0  0  1  0  0  0  0  0  0
  -29.5110  -19.5620   19.6720 C   0  0  0  0  0  3  0  0  0  0  0  0
  -27.2740  -18.3840   20.0250 C   0  0  0  0  0  1  0  0  0  0  0  0
  -28.3940  -18.2390   17.7660 C   0  0  0  0  0  1  0  0  0  0  0  0
  -27.3450  -20.3420   18.4770 C   0  0  0  0  0  1  0  0  0  0  0  0
  -28.1530  -19.1330   19.0040 C   0  0  2  0  0  0  0  0  0  0  0  0
  -30.3100  -18.1090   20.3620 C   0  0  0  0  0  2  0  0  0  0  0  0
  -30.7460  -15.2170   20.1770 C   0  0  0  0  0  0  0  0  0  0  0  0
  -30.6350  -12.7900   19.2960 C   0  0  0  0  0  2  0  0  0  0  0  0
  -29.7070  -12.6380   18.0660 C   0  0  0  0  0  2  0  0  0  0  0  0
  -28.2470  -12.4260   18.5070 C   0  0  0  0  0  2  0  0  0  0  0  0
  -27.8320  -13.3990   19.6400 C   0  0  0  0  0  3  0  0  0  0  0  0
  -28.8880  -13.4960   20.7610 C   0  0  0  0  0  2  0  0  0  0  0  0
  -30.1360  -13.9400   20.1260 N   0  0  0  0  0  0  0  0  0  0  0  0
  -31.9680  -15.1980   19.9720 O   0  0  0  0  0  0  0  0  0  0  0  0
  -30.0040  -16.4820   20.2620 N   0  0  0  0  0  0  0  0  0  0  0  0
  -29.0160  -16.2920   20.3390 H   0  0  0  0  0  0  0  0  0  0  0  0
  -25.4720  -14.0180   20.3840 C   0  0  0  0  0  0  0  0  0  0  0  0
  -24.3930  -13.2690   20.7580 C   0  0  0  0  0  0  0  0  0  0  0  0
  -24.8310  -11.9100   20.7460 C   0  0  0  0  0  0  0  0  0  0  0  0
  -26.4970  -13.1190   20.1520 N   0  0  0  0  0  0  0  0  0  0  0  0
  -26.1240  -11.8450   20.4400 N   0  0  0  0  0  0  0  0  0  0  0  0
  -24.0790  -10.6660   20.9490 C   0  0  0  0  0  0  0  0  0  0  0  0
  -24.4860   -9.7000   21.8960 C   0  0  0  0  0  3  0  0  0  0  0  0
  -23.7300   -8.5240   22.0880 C   0  0  0  0  0  3  0  0  0  0  0  0
  -22.5530   -8.3060   21.3340 C   0  0  0  0  0  0  0  0  0  0  0  0
  -22.1650   -9.2590   20.3760 C   0  0  0  0  0  3  0  0  0  0  0  0
  -22.9200  -10.4270   20.1820 C   0  0  0  0  0  3  0  0  0  0  0  0
  -21.7710   -7.1810   21.4340 O   0  0  0  0  0  0  0  0  0  0  0  0
  -21.7020   -6.4530   22.5940 C   0  0  0  0  0  0  0  0  0  0  0  0
  -21.2890   -7.0330   23.8150 C   0  0  0  0  0  3  0  0  0  0  0  0
  -21.1660   -6.2330   24.9680 C   0  0  0  0  0  3  0  0  0  0  0  0
  -21.4470   -4.8540   24.9040 C   0  0  0  0  0  0  0  0  0  0  0  0
  -21.8530   -4.2750   23.6890 C   0  0  0  0  0  3  0  0  0  0  0  0
  -21.9770   -5.0710   22.5380 C   0  0  0  0  0  0  0  0  0  0  0  0
  -22.3470   -4.5040   21.3640 F   0  0  0  0  0  0  0  0  0  0  0  0
  -21.3220   -4.0850   26.0090 F   0  0  0  0  0  0  0  0  0  0  0  0
  -23.0050  -13.7800   21.0110 C   0  0  0  0  0  0  0  0  0  0  0  0
  -22.2650  -13.1280   21.9000 N   0  0  0  0  0  0  0  0  0  0  0  0
  -22.5870  -14.7950   20.4550 O   0  0  0  0  0  0  0  0  0  0  0  0
  -22.6140  -12.3070   22.3710 H   0  0  0  0  0  0  0  0  0  0  0  0
  -21.3340  -13.4550   22.1120 H   0  0  0  0  0  0  0  0  0  0  0  0
  -25.6580  -15.3830   20.1890 N   0  0  0  0  0  0  0  0  0  0  0  0
  -24.8960  -16.0440   20.3000 H   0  0  0  0  0  0  0  0  0  0  0  0
  -26.4990  -15.8060   19.8230 H   0  0  0  0  0  0  0  0  0  0  0  0
  2  1  1  0
  2  3  1  0
  4  3  1  0
  5 16  2  0
  6  4  1  0
  6 11  1  0
  7 15  1  0
  7 17  1  0
  8 14  1  0
  8 10  1  0
  9 15  1  0
 10 11  2  0
 10  9  1  0
 12  6  2  0
 13 12  1  0
 13  8  2  0
 14  7  1  0
 15  5  1  0
 17 19  2  0
 18 17  1  0
 20 18  1  0
 21 30  2  0
 21 26  1  0
 22 18  1  0
 22 26  1  0
 23 22  1  0
 24 25  1  0
 24 23  1  0
 25 21  1  0
 26 27  2  0
 27 28  1  0
 29 28  2  0
 30 29  1  0
 31  5  1  0
 31 32  1  0
 31 41  1  0
 32 35  1  0
 33 37  1  0
 33 32  1  0
 34 33  2  0
 37 36  1  0
 39 37  1  0
 39 40  1  0
 39 38  1  0
 41 44  1  1
 41 42  1  0
 43 41  1  0
 45 50  1  0
 45  1  1  0
 49 47  1  6
 48 49  1  0
 49 45  1  0
 49 46  1  0
 51 59  1  0
 52 57  1  0
 53 54  1  0
 53 52  1  0
 55 54  1  0
 55 64  1  0
 55 56  1  0
 57 51  1  0
 57 56  1  0
 58 51  2  0
 59 60  1  0
 59 50  1  0
 61 62  2  0
 62 81  1  0
 63 62  1  0
 63 66  1  0
 64 61  1  0
 64 65  1  0
 65 63  2  0
 66 67  1  0
 67 68  2  0
 69 72  1  0
 69 68  1  0
 70 69  2  0
 71 70  1  0
 71 66  2  0
 72 73  1  0
 73 74  1  0
 74 75  2  0
 76 75  1  0
 76 80  1  0
 77 76  2  0
 78 73  2  0
 78 77  1  0
 79 78  1  0
 81 82  1  0
 82 85  1  0
 82 84  1  0
 83 81  2  0
 86 87  1  0
 86 61  1  0
 88 86  1  0
M  ISO  4   3 101   4 101  51 100  59 100
M  END
>  <TORSDO>  (8) 
F 21

>  <SCORE>  (8) 
-15.691

>  <name>  (8) 
7

>  <ligand_id>  (8) 
7

>  <original_smiles>  (8) 
[H]c1c([H])c([H])c2c(c1[H])C([H])([H])C([H])([H])C([H])([H])C2([H])N([H])C(=O)C1([H])N(C(=O)C([H])(N([H])C(=O)C([H])(N([H])C([H])([H])[H])C([H])([H])[H])C(C([H])([H])[H])(C([H])([H])[H])C([H])([H])[H])C([H])([H])c2c([H])c(OC([H])([H])C([H])([H])C([H])([H])C([H])(C([H])([H])N([H])C(=O)N3C([H])([H])C([H])([H])C([H])([H])C([H])(n4nc(-c5c([H])c([H])c(Oc6c([H])c([H])c(F)c([H])c6F)c([H])c5[H])c(C(=O)N([H])[H])c4N([H])[H])C3([H])[H])C(C([H])([H])[H])(C([H])([H])[H])C([H])([H])[H])c([H])c([H])c2C1([H])[H]

>  <smiles>  (8) 
[H]c1c([H])c([H])c2c(c1[H])C([H])([H])C([H])([H])C([H])([H])C2([H])N([H])C(=O)C1([H])N(C(=O)C([H])(N([H])C(=O)C([H])(N([H])C([H])([H])[H])C([H])([H])[H])C(C([H])([H])[H])(C([H])([H])[H])C([H])([H])[H])C([H])([H])c2c([H])c(OC([H])([H])C([H])([H])C([H])([H])C([H])(C([H])([H])N([H])C(=O)N3C([H])([H])C([H])([H])C([H])([H])C([H])(n4nc(-c5c([H])c([H])c(Oc6c([H])c([H])c(F)c([H])c6F)c([H])c5[H])c(C(=O)N([H])[H])c4N([H])[H])C3([H])[H])C(C([H])([H])[H])(C([H])([H])[H])C([H])([H])[H])c([H])c([H])c2C1([H])[H]

$$$$
8:0:0
     RDKit          3D

 98106  0  0  1  0  0  0  0  0999 V2000
  -29.5760  -22.7260   18.4150 C   0  0  0  0  0  3  0  0  0  0  0  0
  -29.0690  -22.1390   19.5370 C   0  0  0  0  0  0  0  0  0  0  0  0
  -29.6130  -20.7830   19.5730 C   0  0  0  0  0  0  0  0  0  0  0  0
  -30.2800  -20.6030   18.3770 C   0  0  0  0  0  0  0  0  0  0  0  0
  -30.3540  -21.8290   17.7280 N   0  0  0  0  0  0  0  0  0  0  0  0
  -28.1570  -22.9040   20.5110 C   0  0  0  0  0  2  0  0  0  0  0  0
  -27.3300  -24.1550   19.9840 C   0  0  0  0  0  2  0  0  0  0  0  0
  -28.0780  -25.3770   19.3310 C   0  0  0  0  0  2  0  0  0  0  0  0
  -28.0020  -26.6630   20.0220 O   0  0  0  0  0  0  0  0  0  0  0  0
  -24.5160  -31.9500   23.3600 C   0  0  0  0  0  0  0  0  0  0  0  0
  -26.8530  -27.4480   20.0530 C   0  0  0  0  0  0  0  0  0  0  0  0
  -23.1950  -30.6430   21.7320 C   0  0  0  0  0  3  0  0  0  0  0  0
  -24.5270  -29.0850   20.2070 C   0  0  0  0  0  0  0  0  0  0  0  0
  -25.7260  -30.8980   21.4400 C   0  0  0  0  0  2  0  0  0  0  0  0
  -25.7330  -29.5380   20.7570 C   0  0  0  0  0  0  0  0  0  0  0  0
  -26.8940  -28.7270   20.6740 C   0  0  0  0  0  3  0  0  0  0  0  0
  -25.6250  -27.0210   19.5030 C   0  0  0  0  0  3  0  0  0  0  0  0
  -24.4710  -27.8290   19.5790 C   0  0  0  0  0  3  0  0  0  0  0  0
  -23.3230  -29.9930   20.3290 C   0  0  0  0  0  2  0  0  0  0  0  0
  -24.5010  -31.1770   22.2350 N   0  0  0  0  0  0  0  0  0  0  0  0
  -23.4670  -32.2490   23.9480 O   0  0  0  0  0  0  0  0  0  0  0  0
  -22.5360  -29.6240   22.6920 C   0  0  0  0  0  0  0  0  0  0  0  0
  -21.2270  -29.3860   22.5100 N   0  0  0  0  0  0  0  0  0  0  0  0
  -23.2050  -29.0480   23.5540 O   0  0  0  0  0  0  0  0  0  0  0  0
  -20.7490  -29.9030   21.7860 H   0  0  0  0  0  0  0  0  0  0  0  0
  -17.9200  -27.9480   22.7850 C   0  0  0  0  0  0  0  0  0  0  0  0
  -20.4130  -28.4330   23.2670 C   0  0  0  0  0  3  0  0  0  0  0  0
  -20.6800  -26.9830   22.8000 C   0  0  0  0  0  2  0  0  0  0  0  0
  -19.7070  -26.5100   21.7160 C   0  0  0  0  0  2  0  0  0  0  0  0
  -18.2630  -26.5790   22.2210 C   0  0  0  0  0  2  0  0  0  0  0  0
  -18.9310  -28.8240   23.2600 C   0  0  0  0  0  0  0  0  0  0  0  0
  -18.5620  -30.0980   23.7430 C   0  0  0  0  0  3  0  0  0  0  0  0
  -17.2140  -30.5010   23.7560 C   0  0  0  0  0  3  0  0  0  0  0  0
  -16.2160  -29.6260   23.2970 C   0  0  0  0  0  3  0  0  0  0  0  0
  -16.5680  -28.3500   22.8180 C   0  0  0  0  0  3  0  0  0  0  0  0
  -25.8460  -32.5130   23.9470 C   0  0  0  0  0  3  0  0  0  0  0  0
  -25.6300  -33.9360   24.2460 N   0  0  0  0  0  0  0  0  0  0  0  0
  -26.0550  -34.9490   23.4790 C   0  0  0  0  0  0  0  0  0  0  0  0
  -26.7370  -34.7780   22.4650 O   0  0  0  0  0  0  0  0  0  0  0  0
  -25.0210  -34.1450   25.0240 H   0  0  0  0  0  0  0  0  0  0  0  0
  -24.4780  -36.8630   23.0460 C   0  0  0  0  0  1  0  0  0  0  0  0
  -25.6580  -36.3770   23.9030 C   0  0  0  0  0  3  0  0  0  0  0  0
  -27.8200  -37.1130   24.7990 C   0  0  0  0  0  1  0  0  0  0  0  0
  -26.7700  -37.3470   23.8130 N   0  0  0  0  0  0  0  0  0  0  0  0
  -26.4310  -38.2980   23.9310 H   0  0  0  0  0  0  0  0  0  0  0  0
  -26.3320  -31.7440   25.2370 C   0  0  1  0  0  0  0  0  0  0  0  0
  -25.2310  -31.5720   26.3100 C   0  0  0  0  0  1  0  0  0  0  0  0
  -26.8580  -30.3370   24.8680 C   0  0  0  0  0  1  0  0  0  0  0  0
  -27.5130  -32.5040   25.8860 C   0  0  0  0  0  1  0  0  0  0  0  0
  -29.4620  -19.6700   20.6470 C   0  0  0  0  0  3  0  0  0  0  0  0
  -30.7100  -18.7290   20.9000 C   0  0  0  0  0  3  0  0  0  0  0  0
  -30.5500  -17.5440   21.9230 C   0  0  0  0  0  2  0  0  0  0  0  0
  -30.9070  -15.2300   20.8610 C   0  0  0  0  0  0  0  0  0  0  0  0
  -30.7170  -13.2010   19.4490 C   0  0  0  0  0  2  0  0  0  0  0  0
  -29.8160  -13.5110   18.2340 C   0  0  0  0  0  2  0  0  0  0  0  0
  -28.3290  -13.3040   18.5830 C   0  0  0  0  0  2  0  0  0  0  0  0
  -27.9250  -13.9830   19.9190 C   0  0  0  0  0  3  0  0  0  0  0  0
  -28.9400  -13.6570   21.0360 C   0  0  0  0  0  2  0  0  0  0  0  0
  -30.2710  -14.0610   20.5590 N   0  0  0  0  0  0  0  0  0  0  0  0
  -32.0780  -15.4430   20.5380 O   0  0  0  0  0  0  0  0  0  0  0  0
  -30.1340  -16.2120   21.3970 N   0  0  0  0  0  0  0  0  0  0  0  0
  -29.1710  -15.9560   21.5590 H   0  0  0  0  0  0  0  0  0  0  0  0
  -25.4620  -14.4710   20.4670 C   0  0  0  0  0  0  0  0  0  0  0  0
  -24.4080  -13.6470   20.7590 C   0  0  0  0  0  0  0  0  0  0  0  0
  -24.9330  -12.3190   20.7590 C   0  0  0  0  0  0  0  0  0  0  0  0
  -26.5600  -13.6400   20.3070 N   0  0  0  0  0  0  0  0  0  0  0  0
  -26.2430  -12.3410   20.5420 N   0  0  0  0  0  0  0  0  0  0  0  0
  -24.2550  -11.0230   20.8960 C   0  0  0  0  0  0  0  0  0  0  0  0
  -24.6520  -10.0810   21.8700 C   0  0  0  0  0  3  0  0  0  0  0  0
  -23.9730   -8.8490   21.9940 C   0  0  0  0  0  3  0  0  0  0  0  0
  -22.8840   -8.5510   21.1420 C   0  0  0  0  0  0  0  0  0  0  0  0
  -22.5070   -9.4830   20.1590 C   0  0  0  0  0  3  0  0  0  0  0  0
  -23.1860  -10.7070   20.0340 C   0  0  0  0  0  3  0  0  0  0  0  0
  -22.1810   -7.3710   21.1730 O   0  0  0  0  0  0  0  0  0  0  0  0
  -21.9960   -6.6740   22.3390 C   0  0  0  0  0  0  0  0  0  0  0  0
  -21.3320   -7.2420   23.4490 C   0  0  0  0  0  3  0  0  0  0  0  0
  -21.1020   -6.4670   24.6030 C   0  0  0  0  0  3  0  0  0  0  0  0
  -21.5250   -5.1240   24.6470 C   0  0  0  0  0  0  0  0  0  0  0  0
  -22.1800   -4.5560   23.5410 C   0  0  0  0  0  3  0  0  0  0  0  0
  -22.4120   -5.3290   22.3890 C   0  0  0  0  0  0  0  0  0  0  0  0
  -23.0250   -4.7700   21.3180 F   0  0  0  0  0  0  0  0  0  0  0  0
  -21.2960   -4.3770   25.7520 F   0  0  0  0  0  0  0  0  0  0  0  0
  -22.9740  -14.0580   20.9330 C   0  0  0  0  0  0  0  0  0  0  0  0
  -22.2310  -13.3460   21.7720 N   0  0  0  0  0  0  0  0  0  0  0  0
  -22.5170  -15.0450   20.3590 O   0  0  0  0  0  0  0  0  0  0  0  0
  -22.6120  -12.5480   22.2600 H   0  0  0  0  0  0  0  0  0  0  0  0
  -21.2670  -13.6020   21.9320 H   0  0  0  0  0  0  0  0  0  0  0  0
  -25.5750  -15.8490   20.3060 N   0  0  0  0  0  0  0  0  0  0  0  0
  -24.7690  -16.4630   20.3550 H   0  0  0  0  0  0  0  0  0  0  0  0
  -26.4210  -16.3280   20.0320 H   0  0  0  0  0  0  0  0  0  0  0  0
  -30.8780  -19.3650   17.7570 C   0  0  0  0  0  2  0  0  0  0  0  0
  -30.7950  -17.6460   15.8760 C   0  0  0  0  0  1  0  0  0  0  0  0
  -30.2160  -18.9540   16.4320 C   0  0  0  0  0  2  0  0  0  0  0  0
  -31.0910  -22.1770   16.5170 C   0  0  0  0  0  2  0  0  0  0  0  0
  -32.2980  -23.0800   16.8430 C   0  0  0  0  0  2  0  0  0  0  0  0
  -34.0470  -22.2420   15.1780 C   0  0  0  0  0  1  0  0  0  0  0  0
  -34.0610  -24.6530   15.9350 C   0  0  0  0  0  1  0  0  0  0  0  0
  -33.1810  -23.4300   15.6300 C   0  0  0  0  0  3  0  0  0  0  0  0
  1  2  2  0
  2  3  1  0
  2  6  1  0
  3 50  1  0
  4  3  2  0
  5  4  1  0
  5  1  1  0
  7  6  1  0
  8  7  1  0
  8  9  1  0
  9 11  1  0
 10 21  2  0
 11 16  1  0
 12 20  1  0
 12 22  1  0
 13 19  1  0
 13 15  1  0
 14 20  1  0
 15 14  1  0
 16 15  2  0
 17 18  1  0
 17 11  2  0
 18 13  2  0
 19 12  1  0
 20 10  1  0
 22 24  2  0
 23 22  1  0
 25 23  1  0
 26 35  2  0
 26 31  1  0
 27 23  1  0
 28 27  1  0
 29 30  1  0
 29 28  1  0
 30 26  1  0
 31 27  1  0
 31 32  2  0
 32 33  1  0
 34 33  2  0
 35 34  1  0
 36 10  1  0
 36 37  1  0
 36 46  1  0
 37 40  1  0
 38 42  1  0
 38 37  1  0
 39 38  2  0
 42 41  1  0
 44 42  1  0
 44 45  1  0
 44 43  1  0
 46 49  1  1
 46 47  1  0
 48 46  1  0
 50 51  2  0
 51 52  1  0
 53 61  1  0
 54 59  1  0
 55 56  1  0
 55 54  1  0
 57 56  1  0
 57 66  1  0
 57 58  1  0
 59 53  1  0
 59 58  1  0
 60 53  2  0
 61 62  1  0
 61 52  1  0
 63 64  2  0
 64 83  1  0
 65 64  1  0
 65 68  1  0
 66 63  1  0
 66 67  1  0
 67 65  2  0
 68 69  1  0
 69 70  2  0
 71 74  1  0
 71 70  1  0
 72 71  2  0
 73 72  1  0
 73 68  2  0
 74 75  1  0
 75 80  2  0
 75 76  1  0
 76 77  2  0
 77 78  1  0
 78 82  1  0
 79 78  2  0
 80 79  1  0
 81 80  1  0
 83 84  1  0
 84 87  1  0
 84 86  1  0
 85 83  2  0
 88 89  1  0
 88 63  1  0
 90 88  1  0
 91  4  1  0
 92 93  1  0
 93 91  1  0
 94 95  1  0
 94  5  1  0
 96 98  1  0
 98 97  1  0
 98 95  1  0
M  ISO  4   8 101   9 101  53 100  61 100
M  END
>  <TORSDO>  (9) 
F 27

>  <SCORE>  (9) 
-10.737

>  <name>  (9) 
8

>  <ligand_id>  (9) 
8

>  <original_smiles>  (9) 
[H]c1c([H])c([H])c2c(c1[H])C([H])([H])C([H])([H])C([H])([H])C2([H])N([H])C(=O)C1([H])N(C(=O)C([H])(N([H])C(=O)C([H])(N([H])C([H])([H])[H])C([H])([H])[H])C(C([H])([H])[H])(C([H])([H])[H])C([H])([H])[H])C([H])([H])c2c([H])c(OC([H])([H])C([H])([H])C([H])([H])c3c(C([H])([H])C([H])([H])C([H])([H])N([H])C(=O)N4C([H])([H])C([H])([H])C([H])([H])C([H])(n5nc(-c6c([H])c([H])c(Oc7c([H])c([H])c(F)c([H])c7F)c([H])c6[H])c(C(=O)N([H])[H])c5N([H])[H])C4([H])[H])c(C([H])([H])C([H])([H])C([H])([H])[H])n(C([H])([H])C([H])([H])C([H])(C([H])([H])[H])C([H])([H])[H])c3[H])c([H])c([H])c2C1([H])[H]

>  <smiles>  (9) 
[H]c1c([H])c([H])c2c(c1[H])C([H])([H])C([H])([H])C([H])([H])C2([H])N([H])C(=O)C1([H])N(C(=O)C([H])(N([H])C(=O)C([H])(N([H])C([H])([H])[H])C([H])([H])[H])C(C([H])([H])[H])(C([H])([H])[H])C([H])([H])[H])C([H])([H])c2c([H])c(OC([H])([H])C([H])([H])C([H])([H])c3c(C([H])([H])C([H])([H])C([H])([H])N([H])C(=O)N4C([H])([H])C([H])([H])C([H])([H])C([H])(n5nc(-c6c([H])c([H])c(Oc7c([H])c([H])c(F)c([H])c7F)c([H])c6[H])c(C(=O)N([H])[H])c5N([H])[H])C4([H])[H])c(C([H])([H])C([H])([H])C([H])([H])[H])n(C([H])([H])C([H])([H])C([H])(C([H])([H])[H])C([H])([H])[H])c3[H])c([H])c([H])c2C1([H])[H]

$$$$
9:0:0
     RDKit          3D

 97100  0  0  1  0  0  0  0  0999 V2000
  -26.9590  -11.3090   21.4510 C   0  0  0  0  0  2  0  0  0  0  0  0
  -27.5500  -12.9670   19.2720 C   0  0  0  0  0  1  0  0  0  0  0  0
  -27.6340  -11.5040   18.2080 C   0  0  0  0  0  0  0  0  0  0  0  0
  -28.3060  -11.4420   16.8380 C   0  0  0  0  0  1  0  0  0  0  0  0
  -27.3580   -9.9870   19.0220 N   0  0  0  0  0  0  0  0  0  0  0  0
  -27.0690   -9.8790   20.7680 N   0  0  0  0  0  0  0  0  0  0  0  0
  -28.2850  -15.6240   18.1780 C   0  0  0  0  0  1  0  0  0  0  0  0
  -28.6480  -14.9500   19.4950 C   0  0  0  0  0  1  0  0  0  0  0  0
  -29.2320  -16.8770   20.6380 C   0  0  0  0  0 15  0  0  0  0  0  0
  -30.1870  -18.9220   20.9360 C   0  0  0  0  0 15  0  0  0  0  0  0
  -30.1550  -21.1660   21.3190 C   0  0  0  0  0 15  0  0  0  0  0  0
  -30.9470  -23.0330   21.4410 O   0  0  0  0  0  1  0  0  0  0  0  0
  -28.1110  -30.5130   23.3860 C   0  0  0  0  0  0  0  0  0  0  0  0
  -30.5440  -24.6460   21.2830 C   0  0  0  0  0  0  0  0  0  0  0  0
  -27.3270  -29.0880   21.5800 C   0  0  0  0  0  3  0  0  0  0  0  0
  -28.9180  -27.2430   20.6250 C   0  0  0  0  0  0  0  0  0  0  0  0
  -29.8310  -28.8880   22.2140 C   0  0  0  0  0  2  0  0  0  0  0  0
  -29.9000  -27.3790   21.6120 C   0  0  0  0  0  0  0  0  0  0  0  0
  -30.7290  -26.1070   21.8950 C   0  0  0  0  0  3  0  0  0  0  0  0
  -29.6920  -24.9040   20.1930 C   0  0  0  0  0  3  0  0  0  0  0  0
  -28.9090  -26.0460   19.9110 C   0  0  0  0  0  3  0  0  0  0  0  0
  -27.8880  -28.3430   20.3400 C   0  0  0  0  0  2  0  0  0  0  0  0
  -28.4520  -29.5530   22.4440 N   0  0  0  0  0  0  0  0  0  0  0  0
  -26.9370  -30.8960   23.5400 O   0  0  0  0  0  0  0  0  0  0  0  0
  -26.3110  -28.1990   22.3510 C   0  0  0  0  0  0  0  0  0  0  0  0
  -25.4030  -27.4970   21.6400 N   0  0  0  0  0  0  0  0  0  0  0  0
  -26.3590  -28.1420   23.5830 O   0  0  0  0  0  0  0  0  0  0  0  0
  -25.3970  -27.6060   20.6350 H   0  0  0  0  0  0  0  0  0  0  0  0
  -23.0040  -24.8830   20.8460 C   0  0  0  0  0  0  0  0  0  0  0  0
  -24.4210  -26.5630   22.2120 C   0  0  0  0  0  3  0  0  0  0  0  0
  -25.1250  -25.3170   22.8030 C   0  0  0  0  0  2  0  0  0  0  0  0
  -25.2230  -24.1540   21.8080 C   0  0  0  0  0  2  0  0  0  0  0  0
  -23.8280  -23.7170   21.3590 C   0  0  0  0  0  2  0  0  0  0  0  0
  -23.2870  -26.2200   21.2340 C   0  0  0  0  0  0  0  0  0  0  0  0
  -22.5020  -27.2670   20.7020 C   0  0  0  0  0  3  0  0  0  0  0  0
  -21.4520  -26.9940   19.8040 C   0  0  0  0  0  3  0  0  0  0  0  0
  -21.1710  -25.6660   19.4340 C   0  0  0  0  0  3  0  0  0  0  0  0
  -21.9420  -24.6150   19.9600 C   0  0  0  0  0  3  0  0  0  0  0  0
  -29.1630  -31.1830   24.3170 C   0  0  0  0  0  3  0  0  0  0  0  0
  -29.0060  -30.7560   25.8310 C   0  0  1  0  0  0  0  0  0  0  0  0
  -27.5650  -30.8690   26.3800 C   0  0  0  0  0  1  0  0  0  0  0  0
  -29.4640  -29.2990   26.0460 C   0  0  0  0  0  1  0  0  0  0  0  0
  -29.9130  -31.6420   26.7210 C   0  0  0  0  0  1  0  0  0  0  0  0
  -29.0140  -32.6540   24.2150 N   0  0  0  0  0  0  0  0  0  0  0  0
  -29.7970  -33.4740   23.4990 C   0  0  0  0  0  0  0  0  0  0  0  0
  -30.7710  -33.0680   22.8620 O   0  0  0  0  0  0  0  0  0  0  0  0
  -28.2030  -33.0460   24.6680 H   0  0  0  0  0  0  0  0  0  0  0  0
  -28.7840  -35.3570   22.1540 C   0  0  0  0  0  1  0  0  0  0  0  0
  -29.4540  -34.9800   23.4870 C   0  0  0  0  0  3  0  0  0  0  0  0
  -31.1580  -35.8020   25.0570 C   0  0  0  0  0  1  0  0  0  0  0  0
  -30.6210  -35.8650   23.7010 N   0  0  0  0  0  0  0  0  0  0  0  0
  -30.3780  -36.8320   23.5030 H   0  0  0  0  0  0  0  0  0  0  0  0
  -27.3980   -8.8570   21.8470 C   0  0  0  0  0  2  0  0  0  0  0  0
  -27.5560   -9.3170   23.4580 C   0  0  0  0  0  2  0  0  0  0  0  0
  -28.7240  -11.2580   24.8340 C   0  0  0  0  0  1  0  0  0  0  0  0
  -28.8020   -9.8970   24.2270 N   0  0  2  0  0  4  0  0  0  0  0  0
  -28.5770   -9.4590   25.1200 H   0  0  0  0  0  0  0  0  0  0  0  0
  -30.1880   -9.2460   24.2010 C   0  0  0  0  0  2  0  0  0  0  0  0
  -31.6160  -10.0120   24.2100 C   0  0  0  0  0  2  0  0  0  0  0  0
  -32.6540  -10.6790   21.9130 C   0  0  0  0  0  0  0  0  0  0  0  0
  -32.0090   -9.8090   19.6530 C   0  0  0  0  0  2  0  0  0  0  0  0
  -31.8260  -11.0230   18.7230 C   0  0  0  0  0  2  0  0  0  0  0  0
  -30.6640  -11.9030   19.1160 C   0  0  0  0  0  2  0  0  0  0  0  0
  -30.2660  -11.9910   20.7660 C   0  0  1  0  0  0  0  0  0  0  0  0
  -30.4160  -10.4840   21.2630 C   0  0  0  0  0  2  0  0  0  0  0  0
  -31.7670  -10.1490   21.0670 N   0  0  0  0  0  0  0  0  0  0  0  0
  -33.7780  -11.0130   21.5300 O   0  0  0  0  0  0  0  0  0  0  0  0
  -32.1690  -10.9440   23.1590 N   0  0  0  0  0  0  0  0  0  0  0  0
  -32.6730  -11.7420   23.5350 H   0  0  0  0  0  0  0  0  0  0  0  0
  -27.6660  -13.7790   22.1680 C   0  0  0  0  0  3  0  0  0  0  0  0
  -26.0790  -13.2650   21.8900 C   0  0  0  0  0  3  0  0  0  0  0  0
  -25.9380  -11.8470   20.9540 C   0  0  0  0  0  3  0  0  0  0  0  0
  -29.1970  -12.8950   21.4950 N   0  0  0  0  0  0  0  0  0  0  0  0
  -28.7540  -11.6370   20.6720 N   0  0  0  0  0  2  0  0  0  0  0  0
  -24.8250  -10.6570   21.1060 C   0  0  0  0  0  0  0  0  0  0  0  0
  -24.6880   -9.6120   22.1320 C   0  0  0  0  0  3  0  0  0  0  0  0
  -23.7430   -8.5370   22.0850 C   0  0  0  0  0  3  0  0  0  0  0  0
  -22.7420   -8.5570   21.1000 C   0  0  0  0  0  0  0  0  0  0  0  0
  -22.8050   -9.5870   20.1500 C   0  0  0  0  0  3  0  0  0  0  0  0
  -23.8130  -10.5810   20.1400 C   0  0  0  0  0  3  0  0  0  0  0  0
  -21.6900   -7.6600   21.0070 O   0  0  0  0  0  0  0  0  0  0  0  0
  -21.2680   -6.8550   22.0500 C   0  0  0  0  0  0  0  0  0  0  0  0
  -20.7480   -7.3820   23.2530 C   0  0  0  0  0  3  0  0  0  0  0  0
  -20.2680   -6.5190   24.2630 C   0  0  0  0  0  3  0  0  0  0  0  0
  -20.2960   -5.1220   24.0700 C   0  0  0  0  0  0  0  0  0  0  0  0
  -20.8060   -4.5920   22.8700 C   0  0  0  0  0  3  0  0  0  0  0  0
  -21.2820   -5.4570   21.8650 C   0  0  0  0  0  0  0  0  0  0  0  0
  -21.7480   -4.9280   20.7100 F   0  0  0  0  0  0  0  0  0  0  0  0
  -19.8320   -4.2900   25.0340 F   0  0  0  0  0  0  0  0  0  0  0  0
  -24.8030  -13.9430   21.9610 C   0  0  0  0  0  0  0  0  0  0  0  0
  -23.8630  -13.3130   22.6760 N   0  0  0  0  0  0  0  0  0  0  0  0
  -24.6400  -14.9350   21.2810 O   0  0  0  0  0  0  0  0  0  0  0  0
  -24.0420  -12.4190   23.1150 H   0  0  0  0  0  0  0  0  0  0  0  0
  -22.9340  -13.7100   22.7850 H   0  0  0  0  0  0  0  0  0  0  0  0
  -28.0180  -15.0020   22.5610 N   0  0  0  0  0  0  0  0  0  0  0  0
  -27.3550  -15.7780   22.5720 H   0  0  0  0  0  0  0  0  0  0  0  0
  -28.9680  -15.3550   22.5820 H   0  0  0  0  0  0  0  0  0  0  0  0
  3  5  2  0
  3  2  1  0
  4  3  1  0
  5  6  1  0
  6  1  1  0
  6 53  1  0
  7  8  1  0
 13 24  2  0
 14 12  1  0
 14 19  1  0
 15 25  1  0
 15 23  1  0
 16 18  1  0
 17 23  1  0
 18 19  2  0
 18 17  1  0
 20 14  2  0
 21 20  1  0
 21 16  2  0
 22 16  1  0
 22 15  1  0
 23 13  1  0
 25 27  2  0
 26 25  1  0
 28 26  1  0
 29 34  1  0
 29 33  1  0
 30 26  1  0
 30 31  1  0
 32 31  1  0
 33 32  1  0
 34 30  1  0
 35 34  2  0
 36 35  1  0
 37 36  2  0
 37 38  1  0
 38 29  2  0
 39 13  1  0
 39 40  1  0
 40 42  1  6
 40 41  1  0
 40 43  1  0
 44 39  1  0
 44 47  1  0
 45 44  1  0
 46 45  2  0
 49 48  1  0
 49 45  1  0
 49 51  1  0
 51 50  1  0
 52 51  1  0
 53 54  1  0
 54 56  1  0
 56 55  1  0
 56 57  1  1
 58 59  1  0
 58 56  1  0
 60 68  1  0
 61 66  1  0
 62 63  1  0
 62 61  1  0
 64 63  1  1
 64 65  1  0
 64 73  1  0
 66 65  1  0
 66 60  1  0
 67 60  2  0
 68 69  1  0
 68 59  1  0
 70 95  1  0
 71 90  1  0
 71 70  1  0
 72 75  1  0
 72  1  1  0
 72 71  1  0
 73 74  1  0
 73 70  1  0
 74 64  1  0
 75 76  1  0
 77 76  2  0
 78 77  1  0
 79 78  2  0
 80 79  1  0
 80 75  2  0
 81 78  1  0
 81 82  1  0
 82 83  1  0
 83 84  2  0
 85 84  1  0
 85 89  1  0
 86 85  2  0
 87 82  2  0
 87 86  1  0
 88 87  1  0
 90 91  1  0
 91 94  1  0
 91 93  1  0
 92 90  2  0
 95 96  1  0
 95 97  1  0
M  ISO  4  11 101  12 101  60 100  68 100
M  END
>  <TORSDO>  (10) 
F 25

>  <SCORE>  (10) 
2.431

>  <name>  (10) 
9

>  <ligand_id>  (10) 
9

>  <original_smiles>  (10) 
[H]c1c([H])c([H])c2c(c1[H])C([H])([H])C([H])([H])C([H])([H])C2([H])N([H])C(=O)C1([H])N(C(=O)C([H])(N([H])C(=O)C([H])(N([H])C([H])([H])[H])C([H])([H])[H])C(C([H])([H])[H])(C([H])([H])[H])C([H])([H])[H])C([H])([H])c2c([H])c(OC([H])([H])C([H])([H])C([H])([H])C([H])(c3c(C([H])([H])[H])nn(C([H])([H])C([H])([H])[N+]([H])(C([H])([H])[H])C([H])([H])C([H])([H])N([H])C(=O)N4C([H])([H])C([H])([H])C([H])([H])C([H])(n5nc(-c6c([H])c([H])c(Oc7c([H])c([H])c(F)c([H])c7F)c([H])c6[H])c(C(=O)N([H])[H])c5N([H])[H])C4([H])[H])c3[H])C([H])([H])[H])c([H])c([H])c2C1([H])[H]

>  <smiles>  (10) 
[H]c1c([H])c([H])c2c(c1[H])C([H])([H])C([H])([H])C([H])([H])C2([H])N([H])C(=O)C1([H])N(C(=O)C([H])(N([H])C(=O)C([H])(N([H])C([H])([H])[H])C([H])([H])[H])C(C([H])([H])[H])(C([H])([H])[H])C([H])([H])[H])C([H])([H])c2c([H])c(OC([H])([H])C([H])([H])C([H])([H])C([H])(c3c(C([H])([H])[H])nn(C([H])([H])C([H])([H])[N+]([H])(C([H])([H])[H])C([H])([H])C([H])([H])N([H])C(=O)N4C([H])([H])C([H])([H])C([H])([H])C([H])(n5nc(-c6c([H])c([H])c(Oc7c([H])c([H])c(F)c([H])c7F)c([H])c6[H])c(C(=O)N([H])[H])c5N([H])[H])C4([H])[H])c3[H])C([H])([H])[H])c([H])c([H])c2C1([H])[H]

$$$$
10:0:0
     RDKit          3D

 99107  0  0  1  0  0  0  0  0999 V2000
  -30.0620  -21.8770   19.2910 C   0  0  0  0  0  3  0  0  0  0  0  0
  -29.5110  -21.2470   18.1480 C   0  0  0  0  0  0  0  0  0  0  0  0
  -29.9140  -21.0640   20.3690 C   0  0  0  0  0  0  0  0  0  0  0  0
  -29.1060  -19.9880   18.5480 C   0  0  0  0  0  0  0  0  0  0  0  0
  -29.4560  -19.8160   19.9050 N   0  0  0  0  0  0  0  0  0  0  0  0
  -30.7280  -21.9510   16.0700 C   0  0  0  0  0  1  0  0  0  0  0  0
  -28.8410  -23.3780   16.9620 C   0  0  0  0  0  1  0  0  0  0  0  0
  -29.3800  -21.9450   16.8070 C   0  0  0  0  0  3  0  0  0  0  0  0
  -28.5340  -18.8680   16.2770 C   0  0  0  0  0  1  0  0  0  0  0  0
  -26.7950  -19.0980   18.0700 C   0  0  0  0  0  1  0  0  0  0  0  0
  -28.2980  -18.9430   17.7980 C   0  0  0  0  0  3  0  0  0  0  0  0
  -29.2340  -18.5860   20.7230 C   0  0  0  0  0  2  0  0  0  0  0  0
  -30.3980  -17.5120   20.7990 C   0  0  0  0  0  2  0  0  0  0  0  0
  -30.6960  -16.4560   18.5050 C   0  0  0  0  0  1  0  0  0  0  0  0
  -30.2390  -16.1880   19.9590 C   0  0  0  0  0  3  0  0  0  0  0  0
  -31.0310  -14.9130   20.4220 C   0  0  0  0  0  0  0  0  0  0  0  0
  -30.8260  -12.6210   19.5660 C   0  0  0  0  0  2  0  0  0  0  0  0
  -29.9580  -12.6860   18.2890 C   0  0  0  0  0  2  0  0  0  0  0  0
  -28.4580  -12.5710   18.6350 C   0  0  0  0  0  2  0  0  0  0  0  0
  -28.0310  -13.5230   19.7830 C   0  0  0  0  0  3  0  0  0  0  0  0
  -29.0340  -13.4620   20.9590 C   0  0  0  0  0  2  0  0  0  0  0  0
  -30.3890  -13.7090   20.4550 N   0  0  0  0  0  0  0  0  0  0  0  0
  -32.2580  -14.9850   20.3360 O   0  0  0  0  0  0  0  0  0  0  0  0
  -25.6280  -14.1960   20.4150 C   0  0  0  0  0  0  0  0  0  0  0  0
  -24.5320  -13.4480   20.7550 C   0  0  0  0  0  0  0  0  0  0  0  0
  -24.9690  -12.0890   20.7660 C   0  0  0  0  0  0  0  0  0  0  0  0
  -26.6610  -13.2870   20.2290 N   0  0  0  0  0  0  0  0  0  0  0  0
  -26.2680  -12.0200   20.5070 N   0  0  0  0  0  0  0  0  0  0  0  0
  -24.2140  -10.8430   20.9460 C   0  0  0  0  0  0  0  0  0  0  0  0
  -24.5840   -9.8910   21.9210 C   0  0  0  0  0  3  0  0  0  0  0  0
  -23.8330   -8.7070   22.0870 C   0  0  0  0  0  3  0  0  0  0  0  0
  -22.6990   -8.4700   21.2730 C   0  0  0  0  0  0  0  0  0  0  0  0
  -22.3500   -9.4110   20.2890 C   0  0  0  0  0  3  0  0  0  0  0  0
  -23.1000  -10.5870   20.1230 C   0  0  0  0  0  3  0  0  0  0  0  0
  -21.9240   -7.3380   21.3450 O   0  0  0  0  0  0  0  0  0  0  0  0
  -21.7720   -6.6450   22.5190 C   0  0  0  0  0  0  0  0  0  0  0  0
  -21.1950   -7.2390   23.6640 C   0  0  0  0  0  3  0  0  0  0  0  0
  -20.9880   -6.4710   24.8260 C   0  0  0  0  0  3  0  0  0  0  0  0
  -21.3470   -5.1100   24.8470 C   0  0  0  0  0  0  0  0  0  0  0  0
  -21.9170   -4.5150   23.7070 C   0  0  0  0  0  3  0  0  0  0  0  0
  -22.1250   -5.2800   22.5460 C   0  0  0  0  0  0  0  0  0  0  0  0
  -22.6540   -4.6970   21.4430 F   0  0  0  0  0  0  0  0  0  0  0  0
  -21.1440   -4.3710   25.9620 F   0  0  0  0  0  0  0  0  0  0  0  0
  -23.1350  -13.9560   20.9630 C   0  0  0  0  0  0  0  0  0  0  0  0
  -22.3640  -13.2980   21.8220 N   0  0  0  0  0  0  0  0  0  0  0  0
  -22.7310  -14.9710   20.3960 O   0  0  0  0  0  0  0  0  0  0  0  0
  -22.7020  -12.4820   22.3090 H   0  0  0  0  0  0  0  0  0  0  0  0
  -21.4230  -13.6230   21.9940 H   0  0  0  0  0  0  0  0  0  0  0  0
  -25.8240  -15.5610   20.2290 N   0  0  0  0  0  0  0  0  0  0  0  0
  -25.0650  -16.2300   20.3050 H   0  0  0  0  0  0  0  0  0  0  0  0
  -26.6930  -15.9910   19.9420 H   0  0  0  0  0  0  0  0  0  0  0  0
  -30.1290  -21.4980   21.7990 C   0  0  0  0  0  2  0  0  0  0  0  0
  -28.9700  -22.3810   22.3600 C   0  0  0  0  0  2  0  0  0  0  0  0
  -27.1720  -24.1490   22.2120 C   0  0  0  0  0  1  0  0  0  0  0  0
  -28.5510  -23.7310   21.6550 C   0  0  0  0  0  3  0  0  0  0  0  0
  -30.4050  -24.9360   23.0050 C   0  0  0  0  0  1  0  0  0  0  0  0
  -29.5810  -24.9250   21.7010 C   0  0  0  0  0  3  0  0  0  0  0  0
  -28.9960  -26.3730   21.4950 C   0  0  0  0  0  2  0  0  0  0  0  0
  -28.3710  -26.6220   20.2290 O   0  0  0  0  0  0  0  0  0  0  0  0
  -24.6020  -31.9310   23.2630 C   0  0  0  0  0  0  0  0  0  0  0  0
  -27.2470  -27.4290   20.2510 C   0  0  0  0  0  0  0  0  0  0  0  0
  -23.3940  -30.4950   21.6530 C   0  0  0  0  0  3  0  0  0  0  0  0
  -24.8490  -28.9380   20.2440 C   0  0  0  0  0  0  0  0  0  0  0  0
  -25.9190  -30.8550   21.4380 C   0  0  0  0  0  2  0  0  0  0  0  0
  -26.0080  -29.4700   20.8270 C   0  0  0  0  0  0  0  0  0  0  0  0
  -27.2110  -28.7200   20.8370 C   0  0  0  0  0  3  0  0  0  0  0  0
  -26.0800  -26.9250   19.6450 C   0  0  0  0  0  3  0  0  0  0  0  0
  -24.8810  -27.6630   19.6500 C   0  0  0  0  0  3  0  0  0  0  0  0
  -23.6020  -29.7920   20.2840 C   0  0  0  0  0  2  0  0  0  0  0  0
  -24.6570  -31.1110   22.1760 N   0  0  0  0  0  0  0  0  0  0  0  0
  -23.5210  -32.2090   23.8030 O   0  0  0  0  0  0  0  0  0  0  0  0
  -22.7480  -29.4910   22.6350 C   0  0  0  0  0  0  0  0  0  0  0  0
  -21.4350  -29.2560   22.4770 N   0  0  0  0  0  0  0  0  0  0  0  0
  -23.4280  -28.9250   23.4950 O   0  0  0  0  0  0  0  0  0  0  0  0
  -20.9460  -29.7660   21.7530 H   0  0  0  0  0  0  0  0  0  0  0  0
  -18.1010  -27.9180   22.8880 C   0  0  0  0  0  0  0  0  0  0  0  0
  -20.6290  -28.3200   23.2590 C   0  0  0  0  0  3  0  0  0  0  0  0
  -20.8270  -26.8680   22.7670 C   0  0  0  0  0  2  0  0  0  0  0  0
  -19.7900  -26.4380   21.7240 C   0  0  0  0  0  2  0  0  0  0  0  0
  -18.3740  -26.5460   22.2960 C   0  0  0  0  0  2  0  0  0  0  0  0
  -19.1600  -28.7570   23.3250 C   0  0  0  0  0  0  0  0  0  0  0  0
  -18.8530  -30.0380   23.8340 C   0  0  0  0  0  3  0  0  0  0  0  0
  -17.5190  -30.4810   23.9150 C   0  0  0  0  0  3  0  0  0  0  0  0
  -16.4740  -29.6390   23.4960 C   0  0  0  0  0  3  0  0  0  0  0  0
  -16.7660  -28.3610   22.9870 C   0  0  0  0  0  3  0  0  0  0  0  0
  -25.8870  -32.5790   23.8660 C   0  0  0  0  0  3  0  0  0  0  0  0
  -26.4070  -31.8390   25.1600 C   0  0  1  0  0  0  0  0  0  0  0  0
  -25.3060  -31.5850   26.2160 C   0  0  0  0  0  1  0  0  0  0  0  0
  -27.0310  -30.4730   24.7930 C   0  0  0  0  0  1  0  0  0  0  0  0
  -27.5280  -32.6720   25.8250 C   0  0  0  0  0  1  0  0  0  0  0  0
  -25.5830  -33.9850   24.1570 N   0  0  0  0  0  0  0  0  0  0  0  0
  -25.9420  -35.0180   23.3830 C   0  0  0  0  0  0  0  0  0  0  0  0
  -26.6350  -34.8840   22.3690 O   0  0  0  0  0  0  0  0  0  0  0  0
  -24.9690  -34.1640   24.9390 H   0  0  0  0  0  0  0  0  0  0  0  0
  -24.2480  -36.8210   22.9330 C   0  0  0  0  0  1  0  0  0  0  0  0
  -25.4550  -36.4200   23.7960 C   0  0  0  0  0  3  0  0  0  0  0  0
  -27.5640  -37.3000   24.6930 C   0  0  0  0  0  1  0  0  0  0  0  0
  -26.5040  -37.4590   23.7010 N   0  0  0  0  0  0  0  0  0  0  0  0
  -26.1040  -38.3870   23.8110 H   0  0  0  0  0  0  0  0  0  0  0  0
  1  3  2  0
  2  4  2  0
  2  1  1  0
  3 52  1  0
  4  5  1  0
  5  3  1  0
  5 12  1  0
  6  8  1  0
  8  7  1  0
  8  2  1  0
  9 11  1  0
 11 10  1  0
 11  4  1  0
 12 13  1  0
 15 14  1  0
 15 16  1  0
 15 13  1  0
 16 22  1  0
 17 22  1  0
 18 19  1  0
 18 17  1  0
 20 19  1  0
 20 27  1  0
 20 21  1  0
 22 21  1  0
 23 16  2  0
 24 25  2  0
 25 26  1  0
 25 44  1  0
 26 29  1  0
 27 24  1  0
 27 28  1  0
 28 26  2  0
 29 30  1  0
 30 31  2  0
 32 35  1  0
 32 31  1  0
 33 32  2  0
 34 33  1  0
 34 29  2  0
 35 36  1  0
 36 41  2  0
 36 37  1  0
 37 38  2  0
 38 39  1  0
 39 43  1  0
 40 39  2  0
 41 40  1  0
 42 41  1  0
 44 45  1  0
 45 48  1  0
 45 47  1  0
 46 44  2  0
 49 50  1  0
 49 24  1  0
 51 49  1  0
 52 53  1  0
 55 57  1  0
 55 54  1  0
 55 53  1  0
 57 56  1  0
 58 57  1  0
 59 61  1  0
 59 58  1  0
 60 71  2  0
 61 66  1  0
 62 70  1  0
 62 72  1  0
 63 69  1  0
 63 65  1  0
 64 70  1  0
 65 66  2  0
 65 64  1  0
 67 68  1  0
 67 61  2  0
 68 63  2  0
 69 62  1  0
 70 60  1  0
 72 74  2  0
 73 72  1  0
 75 73  1  0
 76 85  2  0
 76 81  1  0
 77 73  1  0
 77 81  1  0
 78 77  1  0
 79 80  1  0
 79 78  1  0
 80 76  1  0
 81 82  2  0
 82 83  1  0
 84 83  2  0
 85 84  1  0
 86 60  1  0
 86 91  1  0
 86 87  1  0
 87 90  1  1
 87 88  1  0
 89 87  1  0
 91 94  1  0
 92 96  1  0
 92 91  1  0
 93 92  2  0
 96 95  1  0
 98 96  1  0
 98 99  1  0
 98 97  1  0
M  ISO  4  15 100  16 100  58 101  59 101
M  END
>  <TORSDO>  (11) 
F 26

>  <SCORE>  (11) 
-11.003

>  <name>  (11) 
10

>  <ligand_id>  (11) 
10

>  <original_smiles>  (11) 
[H]c1c([H])c([H])c2c(c1[H])C([H])([H])C([H])([H])C([H])([H])C2([H])N([H])C(=O)C1([H])N(C(=O)C([H])(N([H])C(=O)C([H])(N([H])C([H])([H])[H])C([H])([H])[H])C(C([H])([H])[H])(C([H])([H])[H])C([H])([H])[H])C([H])([H])c2c([H])c(OC([H])([H])C([H])(C([H])([H])[H])C([H])(C([H])([H])[H])C([H])([H])C([H])([H])c3c([H])c(C([H])(C([H])([H])[H])C([H])([H])[H])c(C([H])(C([H])([H])[H])C([H])([H])[H])n3C([H])([H])C([H])([H])C([H])(C(=O)N3C([H])([H])C([H])([H])C([H])([H])C([H])(n4nc(-c5c([H])c([H])c(Oc6c([H])c([H])c(F)c([H])c6F)c([H])c5[H])c(C(=O)N([H])[H])c4N([H])[H])C3([H])[H])C([H])([H])[H])c([H])c([H])c2C1([H])[H]

>  <smiles>  (11) 
[H]c1c([H])c([H])c2c(c1[H])C([H])([H])C([H])([H])C([H])([H])C2([H])N([H])C(=O)C1([H])N(C(=O)C([H])(N([H])C(=O)C([H])(N([H])C([H])([H])[H])C([H])([H])[H])C(C([H])([H])[H])(C([H])([H])[H])C([H])([H])[H])C([H])([H])c2c([H])c(OC([H])([H])C([H])(C([H])([H])[H])C([H])(C([H])([H])[H])C([H])([H])C([H])([H])c3c([H])c(C([H])(C([H])([H])[H])C([H])([H])[H])c(C([H])(C([H])([H])[H])C([H])([H])[H])n3C([H])([H])C([H])([H])C([H])(C(=O)N3C([H])([H])C([H])([H])C([H])([H])C([H])(n4nc(-c5c([H])c([H])c(Oc6c([H])c([H])c(F)c([H])c6F)c([H])c5[H])c(C(=O)N([H])[H])c4N([H])[H])C3([H])[H])C([H])([H])[H])c([H])c([H])c2C1([H])[H]

$$$$
11:0:0
     RDKit          3D

 94102  0  0  1  0  0  0  0  0999 V2000
  -29.5680  -20.1320   20.4610 C   0  0  0  0  0  3  0  0  0  0  0  0
  -28.8540  -20.7620   19.4720 C   0  0  0  0  0  0  0  0  0  0  0  0
  -28.9550  -19.8620   18.3660 C   0  0  0  0  0  0  0  0  0  0  0  0
  -29.6670  -18.7840   18.6590 N   0  0  0  0  0  0  0  0  0  0  0  0
  -30.0250  -18.9340   19.9480 N   0  0  0  0  0  0  0  0  0  0  0  0
  -27.1290  -19.0210   16.8540 C   0  0  0  0  0  1  0  0  0  0  0  0
  -29.3740  -19.7470   15.8810 C   0  0  0  0  0  1  0  0  0  0  0  0
  -28.3330  -19.9670   16.9900 C   0  0  0  0  0  3  0  0  0  0  0  0
  -26.6640  -21.7670   20.0720 C   0  0  0  0  0  1  0  0  0  0  0  0
  -28.0680  -22.0590   19.5160 C   0  0  0  0  0  3  0  0  0  0  0  0
  -28.7660  -23.2020   20.2980 C   0  0  0  0  0  2  0  0  0  0  0  0
  -28.2710  -24.6030   19.8620 C   0  0  0  0  0  2  0  0  0  0  0  0
  -28.7430  -25.7690   20.7560 C   0  0  0  0  0  2  0  0  0  0  0  0
  -28.6530  -27.0620   20.1420 O   0  0  0  0  0  0  0  0  0  0  0  0
  -24.5490  -31.9980   23.2520 C   0  0  0  0  0  0  0  0  0  0  0  0
  -27.4380  -27.7090   20.1810 C   0  0  0  0  0  0  0  0  0  0  0  0
  -23.4370  -30.5760   21.5610 C   0  0  0  0  0  3  0  0  0  0  0  0
  -24.9840  -29.1120   20.1570 C   0  0  0  0  0  0  0  0  0  0  0  0
  -25.9500  -31.0330   21.4320 C   0  0  0  0  0  2  0  0  0  0  0  0
  -26.1040  -29.6740   20.7810 C   0  0  0  0  0  0  0  0  0  0  0  0
  -27.3340  -28.9780   20.7910 C   0  0  0  0  0  3  0  0  0  0  0  0
  -26.3030  -27.1650   19.5420 C   0  0  0  0  0  3  0  0  0  0  0  0
  -25.0760  -27.8550   19.5370 C   0  0  0  0  0  3  0  0  0  0  0  0
  -23.7080  -29.9220   20.1790 C   0  0  0  0  0  2  0  0  0  0  0  0
  -24.6620  -31.2160   22.1420 N   0  0  0  0  0  0  0  0  0  0  0  0
  -23.4450  -32.2220   23.7680 O   0  0  0  0  0  0  0  0  0  0  0  0
  -22.8030  -29.5170   22.4900 C   0  0  0  0  0  0  0  0  0  0  0  0
  -21.4870  -29.2970   22.3340 N   0  0  0  0  0  0  0  0  0  0  0  0
  -23.4900  -28.8980   23.3070 O   0  0  0  0  0  0  0  0  0  0  0  0
  -20.9940  -29.8500   21.6470 H   0  0  0  0  0  0  0  0  0  0  0  0
  -18.1320  -28.0370   22.7900 C   0  0  0  0  0  0  0  0  0  0  0  0
  -20.6860  -28.3210   23.0710 C   0  0  0  0  0  3  0  0  0  0  0  0
  -20.8080  -26.9130   22.4420 C   0  0  0  0  0  2  0  0  0  0  0  0
  -19.7100  -26.6120   21.4170 C   0  0  0  0  0  2  0  0  0  0  0  0
  -18.3260  -26.7150   22.0670 C   0  0  0  0  0  2  0  0  0  0  0  0
  -19.2390  -28.7980   23.2460 C   0  0  0  0  0  0  0  0  0  0  0  0
  -19.0050  -30.0370   23.8820 C   0  0  0  0  0  3  0  0  0  0  0  0
  -17.6950  -30.5150   24.0650 C   0  0  0  0  0  3  0  0  0  0  0  0
  -16.6010  -29.7510   23.6260 C   0  0  0  0  0  3  0  0  0  0  0  0
  -16.8190  -28.5130   22.9940 C   0  0  0  0  0  3  0  0  0  0  0  0
  -25.7960  -32.6670   23.9110 C   0  0  0  0  0  3  0  0  0  0  0  0
  -25.4370  -34.0570   24.2230 N   0  0  0  0  0  0  0  0  0  0  0  0
  -25.7650  -35.1140   23.4690 C   0  0  0  0  0  0  0  0  0  0  0  0
  -26.4730  -35.0250   22.4620 O   0  0  0  0  0  0  0  0  0  0  0  0
  -24.8090  -34.1970   25.0020 H   0  0  0  0  0  0  0  0  0  0  0  0
  -24.0020  -36.8560   23.0400 C   0  0  0  0  0  1  0  0  0  0  0  0
  -25.2220  -36.4900   23.9000 C   0  0  0  0  0  3  0  0  0  0  0  0
  -27.2960  -37.4400   24.8090 C   0  0  0  0  0  1  0  0  0  0  0  0
  -26.2290  -37.5710   23.8210 N   0  0  0  0  0  0  0  0  0  0  0  0
  -25.7920  -38.4800   23.9450 H   0  0  0  0  0  0  0  0  0  0  0  0
  -26.2930  -31.9140   25.2050 C   0  0  1  0  0  0  0  0  0  0  0  0
  -25.1680  -31.6150   26.2240 C   0  0  0  0  0  1  0  0  0  0  0  0
  -26.9610  -30.5700   24.8320 C   0  0  0  0  0  1  0  0  0  0  0  0
  -27.3750  -32.7580   25.9200 C   0  0  0  0  0  1  0  0  0  0  0  0
  -30.7890  -17.8730   20.5850 C   0  0  0  0  0  2  0  0  0  0  0  0
  -29.9350  -16.5970   20.7850 C   0  0  0  0  0  2  0  0  0  0  0  0
  -31.1260  -14.5660   20.1210 C   0  0  0  0  0  0  0  0  0  0  0  0
  -30.6890  -12.4600   18.9050 C   0  0  0  0  0  2  0  0  0  0  0  0
  -29.7070  -12.6770   17.7380 C   0  0  0  0  0  2  0  0  0  0  0  0
  -28.2490  -12.5650   18.2230 C   0  0  0  0  0  2  0  0  0  0  0  0
  -27.9740  -13.4240   19.4850 C   0  0  0  0  0  3  0  0  0  0  0  0
  -29.0570  -13.1840   20.5600 C   0  0  0  0  0  2  0  0  0  0  0  0
  -30.3780  -13.4410   19.9560 N   0  0  0  0  0  0  0  0  0  0  0  0
  -32.1500  -14.7990   19.4690 O   0  0  0  0  0  0  0  0  0  0  0  0
  -31.5210  -15.4930   22.3260 C   0  0  0  0  0  1  0  0  0  0  0  0
  -30.7240  -15.3990   21.1040 N   0  0  0  0  0  0  0  0  0  0  0  0
  -25.6180  -14.0930   20.2800 C   0  0  0  0  0  0  0  0  0  0  0  0
  -24.5440  -13.3470   20.6840 C   0  0  0  0  0  0  0  0  0  0  0  0
  -24.9670  -11.9830   20.6320 C   0  0  0  0  0  0  0  0  0  0  0  0
  -26.6310  -13.1860   20.0090 N   0  0  0  0  0  0  0  0  0  0  0  0
  -26.2430  -11.9110   20.2750 N   0  0  0  0  0  0  0  0  0  0  0  0
  -24.2150  -10.7400   20.8430 C   0  0  0  0  0  0  0  0  0  0  0  0
  -24.6150   -9.7890   21.8070 C   0  0  0  0  0  3  0  0  0  0  0  0
  -23.8650   -8.6090   22.0040 C   0  0  0  0  0  3  0  0  0  0  0  0
  -22.7010   -8.3720   21.2350 C   0  0  0  0  0  0  0  0  0  0  0  0
  -22.3210   -9.3110   20.2600 C   0  0  0  0  0  3  0  0  0  0  0  0
  -23.0710  -10.4820   20.0610 C   0  0  0  0  0  3  0  0  0  0  0  0
  -21.9250   -7.2430   21.3400 O   0  0  0  0  0  0  0  0  0  0  0  0
  -21.8090   -6.5570   22.5230 C   0  0  0  0  0  0  0  0  0  0  0  0
  -21.3160   -7.1710   23.6950 C   0  0  0  0  0  3  0  0  0  0  0  0
  -21.1470   -6.4110   24.8690 C   0  0  0  0  0  3  0  0  0  0  0  0
  -21.4590   -5.0390   24.8730 C   0  0  0  0  0  0  0  0  0  0  0  0
  -21.9450   -4.4240   23.7050 C   0  0  0  0  0  3  0  0  0  0  0  0
  -22.1160   -5.1820   22.5320 C   0  0  0  0  0  0  0  0  0  0  0  0
  -22.5640   -4.5800   21.4040 F   0  0  0  0  0  0  0  0  0  0  0  0
  -21.2900   -4.3060   25.9990 F   0  0  0  0  0  0  0  0  0  0  0  0
  -23.1700  -13.8590   21.0110 C   0  0  0  0  0  0  0  0  0  0  0  0
  -22.4640  -13.1860   21.9130 N   0  0  0  0  0  0  0  0  0  0  0  0
  -22.7340  -14.8900   20.5000 O   0  0  0  0  0  0  0  0  0  0  0  0
  -22.8290  -12.3510   22.3470 H   0  0  0  0  0  0  0  0  0  0  0  0
  -21.5440  -13.5110   22.1740 H   0  0  0  0  0  0  0  0  0  0  0  0
  -25.8130  -15.4590   20.1010 N   0  0  0  0  0  0  0  0  0  0  0  0
  -25.0700  -16.1350   20.2420 H   0  0  0  0  0  0  0  0  0  0  0  0
  -26.6660  -15.8770   19.7520 H   0  0  0  0  0  0  0  0  0  0  0  0
  2 10  1  0
  2  1  2  0
  3  4  2  0
  3  2  1  0
  4  5  1  0
  5  1  1  0
  5 55  1  0
  6  8  1  0
  7  8  1  0
  8  3  1  0
 10  9  1  0
 10 11  1  0
 12 11  1  0
 12 13  1  0
 14 16  1  0
 14 13  1  0
 15 26  2  0
 16 21  1  0
 17 25  1  0
 17 27  1  0
 18 24  1  0
 18 20  1  0
 19 25  1  0
 20 21  2  0
 20 19  1  0
 22 16  2  0
 23 22  1  0
 23 18  2  0
 24 17  1  0
 25 15  1  0
 27 29  2  0
 28 27  1  0
 30 28  1  0
 31 40  2  0
 31 36  1  0
 32 28  1  0
 32 36  1  0
 33 32  1  0
 34 35  1  0
 34 33  1  0
 35 31  1  0
 36 37  2  0
 37 38  1  0
 39 38  2  0
 40 39  1  0
 41 15  1  0
 41 42  1  0
 41 51  1  0
 42 45  1  0
 43 47  1  0
 43 42  1  0
 44 43  2  0
 47 46  1  0
 49 47  1  0
 49 50  1  0
 49 48  1  0
 51 54  1  1
 51 52  1  0
 53 51  1  0
 55 56  1  0
 56 66  1  0
 57 66  1  0
 58 63  1  0
 59 60  1  0
 59 58  1  0
 61 60  1  0
 61 70  1  0
 61 62  1  0
 63 57  1  0
 63 62  1  0
 64 57  2  0
 66 65  1  0
 67 68  2  0
 68 87  1  0
 69 68  1  0
 69 72  1  0
 70 71  1  0
 70 67  1  0
 71 69  2  0
 72 73  1  0
 73 74  2  0
 75 78  1  0
 75 74  1  0
 76 75  2  0
 77 76  1  0
 77 72  2  0
 78 79  1  0
 79 84  2  0
 79 80  1  0
 80 81  2  0
 81 82  1  0
 82 86  1  0
 83 82  2  0
 84 83  1  0
 85 84  1  0
 87 88  1  0
 88 91  1  0
 88 90  1  0
 89 87  2  0
 92 93  1  0
 92 67  1  0
 94 92  1  0
M  ISO  4  13 101  14 101  57 100  66 100
M  END
>  <TORSDO>  (12) 
F 23

>  <SCORE>  (12) 
-11.439

>  <name>  (12) 
11

>  <ligand_id>  (12) 
11

>  <original_smiles>  (12) 
[H]c1c([H])c([H])c2c(c1[H])C([H])([H])C([H])([H])C([H])([H])C2([H])N([H])C(=O)C1([H])N(C(=O)C([H])(N([H])C(=O)C([H])(N([H])C([H])([H])[H])C([H])([H])[H])C(C([H])([H])[H])(C([H])([H])[H])C([H])([H])[H])C([H])([H])c2c([H])c(OC([H])([H])C([H])([H])C([H])([H])C([H])(c3c(C([H])(C([H])([H])[H])C([H])([H])[H])nn(C([H])([H])C([H])([H])N(C(=O)N4C([H])([H])C([H])([H])C([H])([H])C([H])(n5nc(-c6c([H])c([H])c(Oc7c([H])c([H])c(F)c([H])c7F)c([H])c6[H])c(C(=O)N([H])[H])c5N([H])[H])C4([H])[H])C([H])([H])[H])c3[H])C([H])([H])[H])c([H])c([H])c2C1([H])[H]

>  <smiles>  (12) 
[H]c1c([H])c([H])c2c(c1[H])C([H])([H])C([H])([H])C([H])([H])C2([H])N([H])C(=O)C1([H])N(C(=O)C([H])(N([H])C(=O)C([H])(N([H])C([H])([H])[H])C([H])([H])[H])C(C([H])([H])[H])(C([H])([H])[H])C([H])([H])[H])C([H])([H])c2c([H])c(OC([H])([H])C([H])([H])C([H])([H])C([H])(c3c(C([H])(C([H])([H])[H])C([H])([H])[H])nn(C([H])([H])C([H])([H])N(C(=O)N4C([H])([H])C([H])([H])C([H])([H])C([H])(n5nc(-c6c([H])c([H])c(Oc7c([H])c([H])c(F)c([H])c7F)c([H])c6[H])c(C(=O)N([H])[H])c5N([H])[H])C4([H])[H])C([H])([H])[H])c3[H])C([H])([H])[H])c([H])c([H])c2C1([H])[H]

$$$$
12:0:0
     RDKit          3D

101110  0  0  1  0  0  0  0  0999 V2000
  -29.7240  -19.9040   21.1760 C   0  0  0  0  0  3  0  0  0  0  0  0
  -28.6620  -21.0790   18.9800 C   0  0  0  0  0  3  0  0  0  0  0  0
  -29.5170  -21.3380   21.1580 C   0  0  0  0  0  0  0  0  0  0  0  0
  -28.9700  -22.0250   20.0170 C   0  0  0  0  0  0  0  0  0  0  0  0
  -29.4850  -19.0650   20.0520 C   0  0  0  0  0  0  0  0  0  0  0  0
  -28.9150  -19.7110   18.9840 N   0  0  0  0  0  0  0  0  0  0  0  0
  -29.5610  -23.9550   18.3980 C   0  0  0  0  0  1  0  0  0  0  0  0
  -29.0120  -23.6670   19.8060 C   0  0  0  0  0  3  0  0  0  0  0  0
  -27.8130  -24.7740   20.0910 C   0  0  0  0  0  2  0  0  0  0  0  0
  -28.0650  -26.3010   20.0970 O   0  0  0  0  0  0  0  0  0  0  0  0
  -24.5080  -31.9170   23.2290 C   0  0  0  0  0  0  0  0  0  0  0  0
  -26.9920  -27.2540   20.0880 C   0  0  0  0  0  0  0  0  0  0  0  0
  -23.2650  -30.5520   21.5970 C   0  0  0  0  0  3  0  0  0  0  0  0
  -24.6720  -28.9920   20.1270 C   0  0  0  0  0  0  0  0  0  0  0  0
  -25.8160  -30.8110   21.3850 C   0  0  0  0  0  2  0  0  0  0  0  0
  -25.8650  -29.4300   20.7140 C   0  0  0  0  0  0  0  0  0  0  0  0
  -27.0280  -28.5770   20.6760 C   0  0  0  0  0  3  0  0  0  0  0  0
  -25.7700  -26.9050   19.4730 C   0  0  0  0  0  3  0  0  0  0  0  0
  -24.6350  -27.7420   19.4920 C   0  0  0  0  0  3  0  0  0  0  0  0
  -23.4520  -29.8930   20.2050 C   0  0  0  0  0  2  0  0  0  0  0  0
  -24.5510  -31.1140   22.1250 N   0  0  0  0  0  0  0  0  0  0  0  0
  -23.4350  -32.2030   23.7830 O   0  0  0  0  0  0  0  0  0  0  0  0
  -22.6000  -29.5360   22.5580 C   0  0  0  0  0  0  0  0  0  0  0  0
  -21.2690  -29.3690   22.4480 N   0  0  0  0  0  0  0  0  0  0  0  0
  -23.2820  -28.9010   23.3660 O   0  0  0  0  0  0  0  0  0  0  0  0
  -20.7770  -29.9340   21.7720 H   0  0  0  0  0  0  0  0  0  0  0  0
  -17.9060  -28.1180   22.9230 C   0  0  0  0  0  0  0  0  0  0  0  0
  -20.4550  -28.4300   23.2230 C   0  0  0  0  0  3  0  0  0  0  0  0
  -20.5910  -26.9910   22.6750 C   0  0  0  0  0  2  0  0  0  0  0  0
  -19.5110  -26.6310   21.6500 C   0  0  0  0  0  2  0  0  0  0  0  0
  -18.1170  -26.7610   22.2720 C   0  0  0  0  0  2  0  0  0  0  0  0
  -19.0040  -28.9080   23.3560 C   0  0  0  0  0  0  0  0  0  0  0  0
  -18.7530  -30.1750   23.9250 C   0  0  0  0  0  3  0  0  0  0  0  0
  -17.4370  -30.6530   24.0660 C   0  0  0  0  0  3  0  0  0  0  0  0
  -16.3520  -29.8590   23.6520 C   0  0  0  0  0  3  0  0  0  0  0  0
  -16.5880  -28.5950   23.0860 C   0  0  0  0  0  3  0  0  0  0  0  0
  -25.8040  -32.5370   23.8370 C   0  0  0  0  0  3  0  0  0  0  0  0
  -25.5230  -33.9470   24.1490 N   0  0  0  0  0  0  0  0  0  0  0  0
  -25.8950  -34.9850   23.3890 C   0  0  0  0  0  0  0  0  0  0  0  0
  -26.5790  -34.8570   22.3710 O   0  0  0  0  0  0  0  0  0  0  0  0
  -24.9170  -34.1190   24.9370 H   0  0  0  0  0  0  0  0  0  0  0  0
  -24.2490  -36.8440   22.9680 C   0  0  0  0  0  1  0  0  0  0  0  0
  -25.4380  -36.3910   23.8320 C   0  0  0  0  0  3  0  0  0  0  0  0
  -27.5580  -37.2050   24.7660 C   0  0  0  0  0  1  0  0  0  0  0  0
  -26.5110  -37.4080   23.7680 N   0  0  0  0  0  0  0  0  0  0  0  0
  -26.1300  -38.3410   23.8940 H   0  0  0  0  0  0  0  0  0  0  0  0
  -26.3060  -31.7770   25.1260 C   0  0  1  0  0  0  0  0  0  0  0  0
  -25.2120  -31.5810   26.2020 C   0  0  0  0  0  1  0  0  0  0  0  0
  -26.8610  -30.3810   24.7650 C   0  0  0  0  0  1  0  0  0  0  0  0
  -27.4730  -32.5600   25.7740 C   0  0  0  0  0  1  0  0  0  0  0  0
  -30.0200  -22.1220   22.3660 C   0  0  0  0  0  2  0  0  0  0  0  0
  -31.3190  -22.9250   22.1080 C   0  0  0  0  0  2  0  0  0  0  0  0
  -33.2150  -21.2560   21.8250 C   0  0  0  0  0  3  0  0  0  0  0  0
  -34.0230  -20.7620   19.6010 C   0  0  0  0  0  3  0  0  0  0  0  0
  -34.0690  -20.5190   20.9870 C   0  0  0  0  0  0  0  0  0  0  0  0
  -32.3420  -22.1960   21.2480 C   0  0  0  0  0  0  0  0  0  0  0  0
  -33.1320  -21.7360   19.1120 C   0  0  0  0  0  0  0  0  0  0  0  0
  -34.9840  -19.4610   21.5610 C   0  0  0  0  0  1  0  0  0  0  0  0
  -32.3170  -22.4470   19.9200 N   0  0  0  0  0  0  0  0  0  0  0  0
  -33.0210  -22.0190   17.6200 C   0  0  0  0  0  2  0  0  0  0  0  0
  -31.6920  -21.5750   15.4720 C   0  0  0  0  0  1  0  0  0  0  0  0
  -31.8180  -21.3050   16.9780 C   0  0  0  0  0  2  0  0  0  0  0  0
  -30.2080  -17.6110   19.8380 C   0  0  0  0  0  2  0  0  0  0  0  0
  -30.4530  -14.9750   19.9660 C   0  0  0  0  0  0  0  0  0  0  0  0
  -30.2430  -12.6500   19.0240 C   0  0  0  0  0  2  0  0  0  0  0  0
  -29.2340  -12.6420   17.8550 C   0  0  0  0  0  2  0  0  0  0  0  0
  -27.8010  -12.4290   18.3790 C   0  0  0  0  0  2  0  0  0  0  0  0
  -27.4760  -13.3330   19.5980 C   0  0  0  0  0  3  0  0  0  0  0  0
  -28.6030  -13.3340   20.6520 C   0  0  0  0  0  2  0  0  0  0  0  0
  -29.8350  -13.7330   19.9610 N   0  0  0  0  0  0  0  0  0  0  0  0
  -31.6260  -15.0340   19.5850 O   0  0  0  0  0  0  0  0  0  0  0  0
  -29.7270  -16.1660   20.1670 N   0  0  0  0  0  0  0  0  0  0  0  0
  -28.7700  -16.0730   20.4670 H   0  0  0  0  0  0  0  0  0  0  0  0
  -25.1490  -13.8810   20.5150 C   0  0  0  0  0  0  0  0  0  0  0  0
  -24.1140  -13.0900   20.9330 C   0  0  0  0  0  0  0  0  0  0  0  0
  -24.5780  -11.7420   20.8280 C   0  0  0  0  0  0  0  0  0  0  0  0
  -26.1760  -13.0150   20.1790 N   0  0  0  0  0  0  0  0  0  0  0  0
  -25.8450  -11.7210   20.4300 N   0  0  0  0  0  0  0  0  0  0  0  0
  -23.8680  -10.4710   21.0270 C   0  0  0  0  0  0  0  0  0  0  0  0
  -24.3450   -9.4900   21.9230 C   0  0  0  0  0  3  0  0  0  0  0  0
  -23.6310   -8.2870   22.1120 C   0  0  0  0  0  3  0  0  0  0  0  0
  -22.4270   -8.0560   21.4070 C   0  0  0  0  0  0  0  0  0  0  0  0
  -21.9690   -9.0250   20.4980 C   0  0  0  0  0  3  0  0  0  0  0  0
  -22.6830  -10.2200   20.3060 C   0  0  0  0  0  3  0  0  0  0  0  0
  -21.6830   -6.9050   21.5080 O   0  0  0  0  0  0  0  0  0  0  0  0
  -21.6820   -6.1480   22.6520 C   0  0  0  0  0  0  0  0  0  0  0  0
  -21.2580   -6.6730   23.8920 C   0  0  0  0  0  3  0  0  0  0  0  0
  -21.2070   -5.8400   25.0290 C   0  0  0  0  0  3  0  0  0  0  0  0
  -21.5670   -4.4830   24.9260 C   0  0  0  0  0  0  0  0  0  0  0  0
  -21.9830   -3.9580   23.6900 C   0  0  0  0  0  3  0  0  0  0  0  0
  -22.0370   -4.7870   22.5560 C   0  0  0  0  0  0  0  0  0  0  0  0
  -22.4180   -4.2700   21.3630 F   0  0  0  0  0  0  0  0  0  0  0  0
  -21.5120   -3.6810   26.0140 F   0  0  0  0  0  0  0  0  0  0  0  0
  -22.7370  -13.5520   21.3110 C   0  0  0  0  0  0  0  0  0  0  0  0
  -22.0790  -12.8390   22.2170 N   0  0  0  0  0  0  0  0  0  0  0  0
  -22.2580  -14.5810   20.8350 O   0  0  0  0  0  0  0  0  0  0  0  0
  -22.4810  -12.0050   22.6170 H   0  0  0  0  0  0  0  0  0  0  0  0
  -21.1580  -13.1310   22.5120 H   0  0  0  0  0  0  0  0  0  0  0  0
  -25.2970  -15.2560   20.3600 N   0  0  0  0  0  0  0  0  0  0  0  0
  -24.5370  -15.9060   20.5290 H   0  0  0  0  0  0  0  0  0  0  0  0
  -26.1070  -15.7000   19.9480 H   0  0  0  0  0  0  0  0  0  0  0  0
  2  6  2  0
  2  4  1  0
  3  1  1  0
  3 51  1  0
  4  3  2  0
  5  1  2  0
  6  5  1  0
  8  7  1  0
  8  4  1  0
  8  9  1  0
  9 10  1  0
 11 22  2  0
 12 10  1  0
 12 17  1  0
 13 21  1  0
 13 23  1  0
 14 20  1  0
 14 16  1  0
 15 21  1  0
 16 15  1  0
 17 16  2  0
 18 19  1  0
 18 12  2  0
 19 14  2  0
 20 13  1  0
 21 11  1  0
 23 25  2  0
 24 23  1  0
 26 24  1  0
 27 36  2  0
 27 32  1  0
 28 24  1  0
 28 32  1  0
 29 28  1  0
 30 31  1  0
 30 29  1  0
 31 27  1  0
 32 33  2  0
 33 34  1  0
 35 34  2  0
 36 35  1  0
 37 11  1  0
 37 38  1  0
 37 47  1  0
 38 41  1  0
 39 43  1  0
 39 38  1  0
 40 39  2  0
 43 42  1  0
 45 43  1  0
 45 46  1  0
 45 44  1  0
 47 50  1  1
 47 48  1  0
 49 47  1  0
 52 51  1  0
 54 55  1  0
 55 58  1  0
 55 53  2  0
 56 53  1  0
 56 52  1  0
 57 54  2  0
 57 59  1  0
 59 56  2  0
 60 57  1  0
 61 62  1  0
 62 60  1  0
 63  5  1  0
 63 72  1  0
 64 72  1  0
 65 70  1  0
 66 67  1  0
 66 65  1  0
 68 67  1  0
 68 77  1  0
 68 69  1  0
 70 64  1  0
 70 69  1  0
 71 64  2  0
 72 73  1  0
 74 75  2  0
 75 94  1  0
 76 75  1  0
 76 79  1  0
 77 78  1  0
 77 74  1  0
 78 76  2  0
 79 80  1  0
 80 81  2  0
 82 85  1  0
 82 81  1  0
 83 82  2  0
 84 83  1  0
 84 79  2  0
 85 86  1  0
 86 87  1  0
 87 88  2  0
 89 88  1  0
 89 93  1  0
 90 89  2  0
 91 86  2  0
 91 90  1  0
 92 91  1  0
 94 95  1  0
 95 98  1  0
 95 97  1  0
 96 94  2  0
 99 74  1  0
 99100  1  0
101 99  1  0
M  ISO  4   9 101  10 101  64 100  72 100
M  END
>  <TORSDO>  (13) 
F 24

>  <SCORE>  (13) 
-11.913

>  <name>  (13) 
12

>  <ligand_id>  (13) 
12

>  <original_smiles>  (13) 
[H]c1nc(C([H])([H])N([H])C(=O)N2C([H])([H])C([H])([H])C([H])([H])C([H])(n3nc(-c4c([H])c([H])c(Oc5c([H])c([H])c(F)c([H])c5F)c([H])c4[H])c(C(=O)N([H])[H])c3N([H])[H])C2([H])[H])c([H])c(C([H])([H])C([H])([H])c2nc(C([H])([H])C([H])([H])C([H])([H])[H])c([H])c(C([H])([H])[H])c2[H])c1C([H])(C([H])([H])[H])C([H])([H])Oc1c([H])c([H])c2c(c1[H])C([H])([H])N(C(=O)C([H])(N([H])C(=O)C([H])(N([H])C([H])([H])[H])C([H])([H])[H])C(C([H])([H])[H])(C([H])([H])[H])C([H])([H])[H])C([H])(C(=O)N([H])C1([H])c3c([H])c([H])c([H])c([H])c3C([H])([H])C([H])([H])C1([H])[H])C2([H])[H]

>  <smiles>  (13) 
[H]c1nc(C([H])([H])N([H])C(=O)N2C([H])([H])C([H])([H])C([H])([H])C([H])(n3nc(-c4c([H])c([H])c(Oc5c([H])c([H])c(F)c([H])c5F)c([H])c4[H])c(C(=O)N([H])[H])c3N([H])[H])C2([H])[H])c([H])c(C([H])([H])C([H])([H])c2nc(C([H])([H])C([H])([H])C([H])([H])[H])c([H])c(C([H])([H])[H])c2[H])c1C([H])(C([H])([H])[H])C([H])([H])Oc1c([H])c([H])c2c(c1[H])C([H])([H])N(C(=O)C([H])(N([H])C(=O)C([H])(N([H])C([H])([H])[H])C([H])([H])[H])C(C([H])([H])[H])(C([H])([H])[H])C([H])([H])[H])C([H])(C(=O)N([H])C1([H])c3c([H])c([H])c([H])c([H])c3C([H])([H])C([H])([H])C1([H])[H])C2([H])[H]

$$$$
13:0:0
     RDKit          3D

 92100  0  0  1  0  0  0  0  0999 V2000
  -29.5530  -21.2780   19.5190 C   0  0  0  0  0  3  0  0  0  0  0  0
  -30.2020  -22.5510   21.4590 C   0  0  0  0  0  3  0  0  0  0  0  0
  -29.7210  -22.5830   20.1450 C   0  0  0  0  0  0  0  0  0  0  0  0
  -29.9280  -20.0410   20.2030 C   0  0  0  0  0  0  0  0  0  0  0  0
  -30.3900  -20.2230   21.5350 C   0  0  0  0  0  0  0  0  0  0  0  0
  -30.8000  -19.0770   22.4500 C   0  0  0  0  0  1  0  0  0  0  0  0
  -30.5100  -21.4280   22.1280 N   0  0  0  0  0  0  0  0  0  0  0  0
  -29.3180  -18.5230   18.1810 C   0  0  0  0  0  1  0  0  0  0  0  0
  -29.7420  -18.5410   19.6600 C   0  0  0  0  0  3  0  0  0  0  0  0
  -30.8790  -17.4070   19.9020 C   0  0  0  0  0  2  0  0  0  0  0  0
  -31.2300  -14.8150   19.8720 C   0  0  0  0  0  0  0  0  0  0  0  0
  -30.9780  -12.4900   19.0590 C   0  0  0  0  0  2  0  0  0  0  0  0
  -30.0330  -12.5180   17.8400 C   0  0  0  0  0  2  0  0  0  0  0  0
  -28.5700  -12.3800   18.3060 C   0  0  0  0  0  2  0  0  0  0  0  0
  -28.2090  -13.3810   19.4350 C   0  0  0  0  0  3  0  0  0  0  0  0
  -29.2760  -13.3560   20.5520 C   0  0  0  0  0  2  0  0  0  0  0  0
  -30.5780  -13.6120   19.9250 N   0  0  0  0  0  0  0  0  0  0  0  0
  -32.4220  -14.8770   19.5710 O   0  0  0  0  0  0  0  0  0  0  0  0
  -30.4550  -15.9520   19.9420 N   0  0  0  0  0  0  0  0  0  0  0  0
  -29.4740  -15.7860   20.1060 H   0  0  0  0  0  0  0  0  0  0  0  0
  -25.8820  -14.0870   20.2480 C   0  0  0  0  0  0  0  0  0  0  0  0
  -24.7920  -13.3640   20.6410 C   0  0  0  0  0  0  0  0  0  0  0  0
  -25.1860  -11.9890   20.5900 C   0  0  0  0  0  0  0  0  0  0  0  0
  -26.8710  -13.1580   19.9670 N   0  0  0  0  0  0  0  0  0  0  0  0
  -26.4630  -11.8930   20.2420 N   0  0  0  0  0  0  0  0  0  0  0  0
  -24.4050  -10.7640   20.7950 C   0  0  0  0  0  0  0  0  0  0  0  0
  -24.7780   -9.8030   21.7610 C   0  0  0  0  0  3  0  0  0  0  0  0
  -24.0020   -8.6390   21.9450 C   0  0  0  0  0  3  0  0  0  0  0  0
  -22.8410   -8.4280   21.1650 C   0  0  0  0  0  0  0  0  0  0  0  0
  -22.4880   -9.3790   20.1900 C   0  0  0  0  0  3  0  0  0  0  0  0
  -23.2640  -10.5340   20.0040 C   0  0  0  0  0  3  0  0  0  0  0  0
  -22.0340   -7.3210   21.2600 O   0  0  0  0  0  0  0  0  0  0  0  0
  -21.8680   -6.6500   22.4470 C   0  0  0  0  0  0  0  0  0  0  0  0
  -21.3520   -7.2870   23.5960 C   0  0  0  0  0  3  0  0  0  0  0  0
  -21.1350   -6.5430   24.7740 C   0  0  0  0  0  3  0  0  0  0  0  0
  -21.4240   -5.1660   24.8020 C   0  0  0  0  0  0  0  0  0  0  0  0
  -21.9350   -4.5310   23.6560 C   0  0  0  0  0  3  0  0  0  0  0  0
  -22.1560   -5.2710   22.4820 C   0  0  0  0  0  0  0  0  0  0  0  0
  -22.6260   -4.6490   21.3730 F   0  0  0  0  0  0  0  0  0  0  0  0
  -21.2110   -4.4490   25.9300 F   0  0  0  0  0  0  0  0  0  0  0  0
  -23.4280  -13.9060   20.9600 C   0  0  0  0  0  0  0  0  0  0  0  0
  -22.6970  -13.2460   21.8470 N   0  0  0  0  0  0  0  0  0  0  0  0
  -23.0250  -14.9550   20.4560 O   0  0  0  0  0  0  0  0  0  0  0  0
  -23.0320  -12.3910   22.2670 H   0  0  0  0  0  0  0  0  0  0  0  0
  -21.7840  -13.5890   22.1080 H   0  0  0  0  0  0  0  0  0  0  0  0
  -26.1080  -15.4510   20.0790 N   0  0  0  0  0  0  0  0  0  0  0  0
  -25.3640  -16.1290   20.2130 H   0  0  0  0  0  0  0  0  0  0  0  0
  -26.9630  -15.8580   19.7260 H   0  0  0  0  0  0  0  0  0  0  0  0
  -29.6450  -24.0370   19.4950 C   0  0  0  0  0  2  0  0  0  0  0  0
  -27.7680  -24.9620   18.0720 C   0  0  0  0  0  1  0  0  0  0  0  0
  -28.3320  -24.9830   19.5130 C   0  0  0  0  0  3  0  0  0  0  0  0
  -28.4410  -26.4360   19.9010 O   0  0  0  0  0  0  0  0  0  0  0  0
  -24.6150  -31.7360   23.0920 C   0  0  0  0  0  0  0  0  0  0  0  0
  -27.2960  -27.2730   19.9140 C   0  0  0  0  0  0  0  0  0  0  0  0
  -23.4220  -30.3450   21.4460 C   0  0  0  0  0  3  0  0  0  0  0  0
  -24.8880  -28.8580   19.9820 C   0  0  0  0  0  0  0  0  0  0  0  0
  -25.9560  -30.7190   21.2390 C   0  0  0  0  0  2  0  0  0  0  0  0
  -26.0610  -29.3540   20.5620 C   0  0  0  0  0  0  0  0  0  0  0  0
  -27.2620  -28.5770   20.5230 C   0  0  0  0  0  3  0  0  0  0  0  0
  -26.0740  -26.8340   19.3500 C   0  0  0  0  0  3  0  0  0  0  0  0
  -24.8980  -27.5970   19.3770 C   0  0  0  0  0  3  0  0  0  0  0  0
  -23.6370  -29.7130   20.0500 C   0  0  0  0  0  2  0  0  0  0  0  0
  -24.6840  -30.9480   21.9810 N   0  0  0  0  0  0  0  0  0  0  0  0
  -23.5330  -31.9770   23.6450 O   0  0  0  0  0  0  0  0  0  0  0  0
  -22.7940  -29.2930   22.3890 C   0  0  0  0  0  0  0  0  0  0  0  0
  -21.4770  -29.0620   22.2490 N   0  0  0  0  0  0  0  0  0  0  0  0
  -23.4890  -28.6920   23.2120 O   0  0  0  0  0  0  0  0  0  0  0  0
  -20.9650  -29.5880   21.5540 H   0  0  0  0  0  0  0  0  0  0  0  0
  -18.1740  -27.6530   22.6840 C   0  0  0  0  0  0  0  0  0  0  0  0
  -20.7030  -28.0840   23.0140 C   0  0  0  0  0  3  0  0  0  0  0  0
  -20.9250  -26.6590   22.4550 C   0  0  0  0  0  2  0  0  0  0  0  0
  -19.8660  -26.2400   21.4310 C   0  0  0  0  0  2  0  0  0  0  0  0
  -18.4620  -26.3040   22.0410 C   0  0  0  0  0  2  0  0  0  0  0  0
  -19.2310  -28.4920   23.1260 C   0  0  0  0  0  0  0  0  0  0  0  0
  -18.9170  -29.7470   23.6880 C   0  0  0  0  0  3  0  0  0  0  0  0
  -17.5800  -30.1660   23.8170 C   0  0  0  0  0  3  0  0  0  0  0  0
  -16.5360  -29.3290   23.3890 C   0  0  0  0  0  3  0  0  0  0  0  0
  -16.8350  -28.0750   22.8220 C   0  0  0  0  0  3  0  0  0  0  0  0
  -25.8940  -32.3880   23.7010 C   0  0  0  0  0  3  0  0  0  0  0  0
  -26.4660  -31.5980   24.9430 C   0  0  1  0  0  0  0  0  0  0  0  0
  -25.4050  -31.2970   26.0240 C   0  0  0  0  0  1  0  0  0  0  0  0
  -27.0880  -30.2520   24.5040 C   0  0  0  0  0  1  0  0  0  0  0  0
  -27.5990  -32.4090   25.6100 C   0  0  0  0  0  1  0  0  0  0  0  0
  -25.5510  -33.7670   24.0780 N   0  0  0  0  0  0  0  0  0  0  0  0
  -25.8400  -34.8530   23.3480 C   0  0  0  0  0  0  0  0  0  0  0  0
  -26.5000  -34.8030   22.3070 O   0  0  0  0  0  0  0  0  0  0  0  0
  -24.9780  -33.8850   24.8970 H   0  0  0  0  0  0  0  0  0  0  0  0
  -24.0550  -36.6050   23.0730 C   0  0  0  0  0  1  0  0  0  0  0  0
  -25.3140  -36.2070   23.8590 C   0  0  0  0  0  3  0  0  0  0  0  0
  -27.4200  -37.1350   24.7110 C   0  0  0  0  0  1  0  0  0  0  0  0
  -26.3090  -37.2960   23.7780 N   0  0  0  0  0  0  0  0  0  0  0  0
  -25.8700  -38.1950   23.9580 H   0  0  0  0  0  0  0  0  0  0  0  0
  1  3  2  0
  1  4  1  0
  2  7  2  0
  3  2  1  0
  4  5  2  0
  5  7  1  0
  5  6  1  0
  9  8  1  0
  9 10  1  0
  9  4  1  0
 10 19  1  0
 11 17  1  0
 11 19  1  0
 12 17  1  0
 13 14  1  0
 13 12  1  0
 15 14  1  0
 15 24  1  0
 15 16  1  0
 17 16  1  0
 18 11  2  0
 19 20  1  0
 21 22  2  0
 22 41  1  0
 23 22  1  0
 23 26  1  0
 24 25  1  0
 24 21  1  0
 25 23  2  0
 26 27  1  0
 27 28  2  0
 29 32  1  0
 29 28  1  0
 30 29  2  0
 31 30  1  0
 31 26  2  0
 32 33  1  0
 33 38  2  0
 33 34  1  0
 34 35  2  0
 35 36  1  0
 36 40  1  0
 37 36  2  0
 38 37  1  0
 39 38  1  0
 41 42  1  0
 42 45  1  0
 42 44  1  0
 43 41  2  0
 46 47  1  0
 46 21  1  0
 48 46  1  0
 49 51  1  0
 49  3  1  0
 51 50  1  0
 51 52  1  0
 52 54  1  0
 53 64  2  0
 54 59  1  0
 55 63  1  0
 55 65  1  0
 56 62  1  0
 56 58  1  0
 57 63  1  0
 58 57  1  0
 59 58  2  0
 60 61  1  0
 60 54  2  0
 61 56  2  0
 62 55  1  0
 63 53  1  0
 65 67  2  0
 66 65  1  0
 68 66  1  0
 69 78  2  0
 69 74  1  0
 70 66  1  0
 70 74  1  0
 71 70  1  0
 72 73  1  0
 72 71  1  0
 73 69  1  0
 74 75  2  0
 75 76  1  0
 77 76  2  0
 78 77  1  0
 79 53  1  0
 79 84  1  0
 79 80  1  0
 80 83  1  1
 80 81  1  0
 82 80  1  0
 84 87  1  0
 85 89  1  0
 85 84  1  0
 86 85  2  0
 89 88  1  0
 91 89  1  0
 91 92  1  0
 91 90  1  0
M  ISO  4  11 100  19 100  51 101  52 101
M  END
>  <TORSDO>  (14) 
F 20

>  <SCORE>  (14) 
-13.090

>  <name>  (14) 
13

>  <ligand_id>  (14) 
13

>  <original_smiles>  (14) 
[H]c1nc(C([H])([H])[H])c(C([H])(C([H])([H])[H])C([H])([H])N([H])C(=O)N2C([H])([H])C([H])([H])C([H])([H])C([H])(n3nc(-c4c([H])c([H])c(Oc5c([H])c([H])c(F)c([H])c5F)c([H])c4[H])c(C(=O)N([H])[H])c3N([H])[H])C2([H])[H])c([H])c1C([H])([H])C([H])(Oc1c([H])c([H])c2c(c1[H])C([H])([H])N(C(=O)C([H])(N([H])C(=O)C([H])(N([H])C([H])([H])[H])C([H])([H])[H])C(C([H])([H])[H])(C([H])([H])[H])C([H])([H])[H])C([H])(C(=O)N([H])C1([H])c3c([H])c([H])c([H])c([H])c3C([H])([H])C([H])([H])C1([H])[H])C2([H])[H])C([H])([H])[H]

>  <smiles>  (14) 
[H]c1nc(C([H])([H])[H])c(C([H])(C([H])([H])[H])C([H])([H])N([H])C(=O)N2C([H])([H])C([H])([H])C([H])([H])C([H])(n3nc(-c4c([H])c([H])c(Oc5c([H])c([H])c(F)c([H])c5F)c([H])c4[H])c(C(=O)N([H])[H])c3N([H])[H])C2([H])[H])c([H])c1C([H])([H])C([H])(Oc1c([H])c([H])c2c(c1[H])C([H])([H])N(C(=O)C([H])(N([H])C(=O)C([H])(N([H])C([H])([H])[H])C([H])([H])[H])C(C([H])([H])[H])(C([H])([H])[H])C([H])([H])[H])C([H])(C(=O)N([H])C1([H])c3c([H])c([H])c([H])c([H])c3C([H])([H])C([H])([H])C1([H])[H])C2([H])[H])C([H])([H])[H]

$$$$
14:0:0
     RDKit          3D

 95103  0  0  1  0  0  0  0  0999 V2000
  -30.5330  -21.2480   19.8630 C   0  0  0  0  0  3  0  0  0  0  0  0
  -29.7030  -22.2620   20.4880 C   0  0  0  0  0  0  0  0  0  0  0  0
  -28.5160  -21.7510   21.1060 C   0  0  0  0  0  0  0  0  0  0  0  0
  -30.1560  -19.8510   19.8390 C   0  0  0  0  0  0  0  0  0  0  0  0
  -28.1360  -20.3990   20.8630 C   0  0  0  0  0  0  0  0  0  0  0  0
  -26.7690  -19.7910   21.1470 C   0  0  0  0  0  1  0  0  0  0  0  0
  -28.9470  -19.4970   20.2870 N   0  0  0  0  0  0  0  0  0  0  0  0
  -30.1200  -23.8100   20.6080 C   0  0  0  0  0  2  0  0  0  0  0  0
  -29.1880  -25.0120   20.0610 C   0  0  0  0  0  2  0  0  0  0  0  0
  -29.1910  -26.3670   20.7190 O   0  0  0  0  0  0  0  0  0  0  0  0
  -24.3730  -28.3210   25.7750 C   0  0  0  0  0  0  0  0  0  0  0  0
  -27.9980  -27.0690   21.0270 C   0  0  0  0  0  0  0  0  0  0  0  0
  -23.6380  -28.4640   23.4270 C   0  0  0  0  0  3  0  0  0  0  0  0
  -25.4810  -28.3030   21.6660 C   0  0  0  0  0  0  0  0  0  0  0  0
  -26.1160  -28.7630   24.0310 C   0  0  0  0  0  2  0  0  0  0  0  0
  -26.4740  -28.2170   22.6510 C   0  0  0  0  0  0  0  0  0  0  0  0
  -27.7300  -27.6120   22.3310 C   0  0  0  0  0  3  0  0  0  0  0  0
  -26.9730  -27.2370   20.0640 C   0  0  0  0  0  3  0  0  0  0  0  0
  -25.7330  -27.8160   20.3800 C   0  0  0  0  0  3  0  0  0  0  0  0
  -24.1580  -28.9330   22.0450 C   0  0  0  0  0  2  0  0  0  0  0  0
  -24.7160  -28.4900   24.4650 N   0  0  0  0  0  0  0  0  0  0  0  0
  -23.1910  -28.1720   26.1210 O   0  0  0  0  0  0  0  0  0  0  0  0
  -22.9640  -27.0800   23.2730 C   0  0  0  0  0  0  0  0  0  0  0  0
  -21.8490  -27.0250   22.5250 N   0  0  0  0  0  0  0  0  0  0  0  0
  -23.4570  -26.0800   23.7970 O   0  0  0  0  0  0  0  0  0  0  0  0
  -21.4970  -27.8900   22.1420 H   0  0  0  0  0  0  0  0  0  0  0  0
  -18.9950  -25.7720   20.6800 C   0  0  0  0  0  0  0  0  0  0  0  0
  -21.0750  -25.8190   22.2190 C   0  0  0  0  0  3  0  0  0  0  0  0
  -21.7690  -24.9660   21.1320 C   0  0  0  0  0  2  0  0  0  0  0  0
  -21.2810  -25.2850   19.7140 C   0  0  0  0  0  2  0  0  0  0  0  0
  -19.7730  -25.0450   19.5950 C   0  0  0  0  0  2  0  0  0  0  0  0
  -19.6110  -26.1470   21.9030 C   0  0  0  0  0  0  0  0  0  0  0  0
  -18.8490  -26.8430   22.8640 C   0  0  0  0  0  3  0  0  0  0  0  0
  -17.5010  -27.1650   22.6230 C   0  0  0  0  0  3  0  0  0  0  0  0
  -16.8910  -26.7770   21.4180 C   0  0  0  0  0  3  0  0  0  0  0  0
  -17.6380  -26.0830   20.4500 C   0  0  0  0  0  3  0  0  0  0  0  0
  -25.4480  -28.3270   26.9030 C   0  0  0  0  0  3  0  0  0  0  0  0
  -24.7440  -28.1780   28.1840 N   0  0  0  0  0  0  0  0  0  0  0  0
  -24.5290  -29.1710   29.0580 C   0  0  0  0  0  0  0  0  0  0  0  0
  -24.9670  -30.3120   28.8940 O   0  0  0  0  0  0  0  0  0  0  0  0
  -24.2950  -27.2890   28.3480 H   0  0  0  0  0  0  0  0  0  0  0  0
  -22.2550  -29.3450   30.1200 C   0  0  0  0  0  1  0  0  0  0  0  0
  -23.6950  -28.8430   30.3130 C   0  0  0  0  0  3  0  0  0  0  0  0
  -25.4970  -28.7690   31.9780 C   0  0  0  0  0  1  0  0  0  0  0  0
  -24.2550  -29.4130   31.5570 N   0  0  0  0  0  0  0  0  0  0  0  0
  -23.5870  -29.3440   32.3210 H   0  0  0  0  0  0  0  0  0  0  0  0
  -26.5330  -27.1960   26.7310 C   0  0  1  0  0  0  0  0  0  0  0  0
  -25.9330  -25.7850   26.5300 C   0  0  0  0  0  1  0  0  0  0  0  0
  -27.4560  -27.4920   25.5260 C   0  0  0  0  0  1  0  0  0  0  0  0
  -27.4420  -27.1570   27.9810 C   0  0  0  0  0  1  0  0  0  0  0  0
  -27.7200  -22.6100   22.1010 C   0  0  0  0  0  2  0  0  0  0  0  0
  -28.5690  -23.7560   22.7120 C   0  0  0  0  0  2  0  0  0  0  0  0
  -30.6880  -22.4370   23.4750 C   0  0  0  0  0  1  0  0  0  0  0  0
  -30.2630  -24.7390   24.2950 C   0  0  0  0  0  1  0  0  0  0  0  0
  -29.5820  -23.4390   23.8390 C   0  0  0  0  0  3  0  0  0  0  0  0
  -30.8920  -18.6290   19.1460 C   0  0  0  0  0  2  0  0  0  0  0  0
  -32.0360  -17.7980   19.9300 C   0  0  0  0  0  2  0  0  0  0  0  0
  -33.4750  -15.6390   19.2340 C   0  0  0  0  0  0  0  0  0  0  0  0
  -34.0380  -13.4200   18.2270 C   0  0  0  0  0  2  0  0  0  0  0  0
  -32.9360  -13.0150   17.2220 C   0  0  0  0  0  2  0  0  0  0  0  0
  -31.7630  -12.3100   17.9330 C   0  0  0  0  0  2  0  0  0  0  0  0
  -31.2950  -13.0650   19.2050 C   0  0  0  0  0  3  0  0  0  0  0  0
  -32.4940  -13.4680   20.0920 C   0  0  0  0  0  2  0  0  0  0  0  0
  -33.4010  -14.2660   19.2570 N   0  0  0  0  0  0  0  0  0  0  0  0
  -34.4400  -16.2120   18.7260 O   0  0  0  0  0  0  0  0  0  0  0  0
  -32.3420  -16.3310   19.6240 N   0  0  0  0  0  0  0  0  0  0  0  0
  -31.6120  -15.7050   19.9260 H   0  0  0  0  0  0  0  0  0  0  0  0
  -29.0920  -12.7620   20.4860 C   0  0  0  0  0  0  0  0  0  0  0  0
  -28.4710  -11.6530   20.9950 C   0  0  0  0  0  0  0  0  0  0  0  0
  -29.3450  -10.5550   20.7270 C   0  0  0  0  0  0  0  0  0  0  0  0
  -30.2860  -12.3140   19.9450 N   0  0  0  0  0  0  0  0  0  0  0  0
  -30.4610  -10.9840   20.1490 N   0  0  0  0  0  0  0  0  0  0  0  0
  -29.1560   -9.1130   20.9380 C   0  0  0  0  0  0  0  0  0  0  0  0
  -30.1130   -8.3360   21.6300 C   0  0  0  0  0  3  0  0  0  0  0  0
  -29.9010   -6.9560   21.8350 C   0  0  0  0  0  3  0  0  0  0  0  0
  -28.7240   -6.3380   21.3520 C   0  0  0  0  0  0  0  0  0  0  0  0
  -27.7860   -7.1100   20.6460 C   0  0  0  0  0  3  0  0  0  0  0  0
  -27.9980   -8.4830   20.4380 C   0  0  0  0  0  3  0  0  0  0  0  0
  -28.4460   -4.9990   21.4810 O   0  0  0  0  0  0  0  0  0  0  0  0
  -28.9570   -4.2540   22.5140 C   0  0  0  0  0  0  0  0  0  0  0  0
  -28.9340   -4.7180   23.8470 C   0  0  0  0  0  3  0  0  0  0  0  0
  -29.4070   -3.8930   24.8880 C   0  0  0  0  0  3  0  0  0  0  0  0
  -29.8930   -2.6040   24.5990 C   0  0  0  0  0  0  0  0  0  0  0  0
  -29.9120   -2.1390   23.2730 C   0  0  0  0  0  3  0  0  0  0  0  0
  -29.4430   -2.9620   22.2330 C   0  0  0  0  0  0  0  0  0  0  0  0
  -29.4440   -2.5020   20.9600 F   0  0  0  0  0  0  0  0  0  0  0  0
  -30.3410   -1.8080   25.5990 F   0  0  0  0  0  0  0  0  0  0  0  0
  -27.1010  -11.5990   21.6040 C   0  0  0  0  0  0  0  0  0  0  0  0
  -26.8840  -10.6830   22.5430 N   0  0  0  0  0  0  0  0  0  0  0  0
  -26.2270  -12.4030   21.2850 O   0  0  0  0  0  0  0  0  0  0  0  0
  -27.6050  -10.0330   22.8180 H   0  0  0  0  0  0  0  0  0  0  0  0
  -25.9830  -10.6320   22.9960 H   0  0  0  0  0  0  0  0  0  0  0  0
  -28.7310  -14.1030   20.4140 N   0  0  0  0  0  0  0  0  0  0  0  0
  -27.8300  -14.4330   20.7430 H   0  0  0  0  0  0  0  0  0  0  0  0
  -29.2620  -14.8210   19.9370 H   0  0  0  0  0  0  0  0  0  0  0  0
  1  2  1  0
  2  8  1  0
  2  3  2  0
  3 51  1  0
  4  1  2  0
  4  7  1  0
  5  3  1  0
  5  6  1  0
  7  5  2  0
  9  8  1  0
  9 10  1  0
 10 12  1  0
 11 22  2  0
 12 17  1  0
 13 23  1  0
 13 21  1  0
 14 20  1  0
 14 16  1  0
 15 21  1  0
 16 15  1  0
 17 16  2  0
 18 19  1  0
 18 12  2  0
 19 14  2  0
 20 13  1  0
 21 11  1  0
 23 25  2  0
 24 23  1  0
 26 24  1  0
 27 32  1  0
 28 24  1  0
 29 28  1  0
 30 29  1  0
 31 30  1  0
 31 27  1  0
 32 28  1  0
 32 33  2  0
 34 33  1  0
 35 34  2  0
 36 27  2  0
 36 35  1  0
 37 11  1  0
 37 38  1  0
 38 41  1  0
 38 39  1  0
 39 43  1  0
 40 39  2  0
 43 42  1  0
 43 45  1  0
 45 44  1  0
 45 46  1  0
 47 37  1  0
 47 50  1  1
 48 47  1  0
 49 47  1  0
 51 52  1  0
 52 55  1  0
 53 55  1  0
 55 54  1  0
 56  4  1  0
 56 57  1  0
 58 64  1  0
 58 66  1  0
 59 64  1  0
 60 61  1  0
 60 59  1  0
 62 61  1  0
 62 71  1  0
 62 63  1  0
 64 63  1  0
 65 58  2  0
 66 67  1  0
 66 57  1  0
 68 69  2  0
 69 88  1  0
 70 73  1  0
 70 69  1  0
 71 72  1  0
 71 68  1  0
 72 70  2  0
 73 74  1  0
 74 75  2  0
 76 79  1  0
 76 75  1  0
 77 76  2  0
 78 77  1  0
 78 73  2  0
 79 80  1  0
 80 81  1  0
 81 82  2  0
 83 82  1  0
 83 87  1  0
 84 83  2  0
 85 80  2  0
 85 84  1  0
 86 85  1  0
 88 89  1  0
 89 91  1  0
 89 92  1  0
 90 88  2  0
 93 68  1  0
 93 94  1  0
 95 93  1  0
M  ISO  4   9 101  10 101  58 100  66 100
M  END
>  <TORSDO>  (15) 
F 23

>  <SCORE>  (15) 
4.082

>  <name>  (15) 
14

>  <ligand_id>  (15) 
14

>  <original_smiles>  (15) 
[H]c1c([H])c([H])c2c(c1[H])C([H])([H])C([H])([H])C([H])([H])C2([H])N([H])C(=O)C1([H])N(C(=O)C([H])(N([H])C(=O)C([H])(N([H])C([H])([H])[H])C([H])([H])[H])C(C([H])([H])[H])(C([H])([H])[H])C([H])([H])[H])C([H])([H])c2c([H])c(OC([H])([H])C([H])([H])c3c([H])c(C([H])([H])C([H])([H])N([H])C(=O)N4C([H])([H])C([H])([H])C([H])([H])C([H])(n5nc(-c6c([H])c([H])c(Oc7c([H])c([H])c(F)c([H])c7F)c([H])c6[H])c(C(=O)N([H])[H])c5N([H])[H])C4([H])[H])nc(C([H])([H])[H])c3C([H])([H])C([H])([H])C([H])(C([H])([H])[H])C([H])([H])[H])c([H])c([H])c2C1([H])[H]

>  <smiles>  (15) 
[H]c1c([H])c([H])c2c(c1[H])C([H])([H])C([H])([H])C([H])([H])C2([H])N([H])C(=O)C1([H])N(C(=O)C([H])(N([H])C(=O)C([H])(N([H])C([H])([H])[H])C([H])([H])[H])C(C([H])([H])[H])(C([H])([H])[H])C([H])([H])[H])C([H])([H])c2c([H])c(OC([H])([H])C([H])([H])c3c([H])c(C([H])([H])C([H])([H])N([H])C(=O)N4C([H])([H])C([H])([H])C([H])([H])C([H])(n5nc(-c6c([H])c([H])c(Oc7c([H])c([H])c(F)c([H])c7F)c([H])c6[H])c(C(=O)N([H])[H])c5N([H])[H])C4([H])[H])nc(C([H])([H])[H])c3C([H])([H])C([H])([H])C([H])(C([H])([H])[H])C([H])([H])[H])c([H])c([H])c2C1([H])[H]

$$$$
15:0:0
     RDKit          3D

100108  0  0  1  0  0  0  0  0999 V2000
  -29.6950  -19.4340   19.8200 C   0  0  0  0  0  3  0  0  0  0  0  0
  -29.9620  -18.1890   20.3650 C   0  0  0  0  0  0  0  0  0  0  0  0
  -30.7650  -19.7960   21.7230 C   0  0  0  0  0  3  0  0  0  0  0  0
  -30.2360  -20.4010   20.6380 N   0  0  0  0  0  0  0  0  0  0  0  0
  -30.5710  -18.4720   21.5630 N   0  0  0  0  0  0  0  0  0  0  0  0
  -30.9070  -17.7720   22.2170 H   0  0  0  0  0  0  0  0  0  0  0  0
  -33.0230  -20.6790   22.3580 C   0  0  0  0  0  1  0  0  0  0  0  0
  -31.5930  -20.3810   22.8420 C   0  0  0  0  0  3  0  0  0  0  0  0
  -31.4800  -21.7910   24.9870 C   0  0  0  0  0  1  0  0  0  0  0  0
  -30.9550  -21.5860   23.5590 C   0  0  0  0  0  2  0  0  0  0  0  0
  -30.3600  -21.8500   20.2780 C   0  0  0  0  0  3  0  0  0  0  0  0
  -29.1990  -22.8050   20.7180 C   0  0  0  0  0  3  0  0  0  0  0  0
  -29.0060  -24.2250   18.5970 C   0  0  0  0  0  1  0  0  0  0  0  0
  -29.2630  -24.2560   20.1150 C   0  0  0  0  0  3  0  0  0  0  0  0
  -28.2870  -25.2670   20.7960 C   0  0  0  0  0  2  0  0  0  0  0  0
  -28.3820  -26.6100   20.2560 O   0  0  0  0  0  0  0  0  0  0  0  0
  -24.5940  -31.8960   23.2110 C   0  0  0  0  0  0  0  0  0  0  0  0
  -27.2200  -27.3640   20.2350 C   0  0  0  0  0  0  0  0  0  0  0  0
  -23.3840  -30.4720   21.5900 C   0  0  0  0  0  3  0  0  0  0  0  0
  -24.8360  -28.8990   20.1940 C   0  0  0  0  0  0  0  0  0  0  0  0
  -25.9100  -30.8100   21.3890 C   0  0  0  0  0  2  0  0  0  0  0  0
  -25.9950  -29.4240   20.7780 C   0  0  0  0  0  0  0  0  0  0  0  0
  -27.1930  -28.6660   20.7920 C   0  0  0  0  0  3  0  0  0  0  0  0
  -26.0450  -26.8610   19.6350 C   0  0  0  0  0  3  0  0  0  0  0  0
  -24.8570  -27.6170   19.6150 C   0  0  0  0  0  3  0  0  0  0  0  0
  -23.5960  -29.7670   20.2220 C   0  0  0  0  0  2  0  0  0  0  0  0
  -24.6470  -31.0770   22.1230 N   0  0  0  0  0  0  0  0  0  0  0  0
  -23.5150  -32.1830   23.7460 O   0  0  0  0  0  0  0  0  0  0  0  0
  -22.7250  -29.4730   22.5670 C   0  0  0  0  0  0  0  0  0  0  0  0
  -21.3980  -29.2990   22.4430 N   0  0  0  0  0  0  0  0  0  0  0  0
  -23.4050  -28.8550   23.3910 O   0  0  0  0  0  0  0  0  0  0  0  0
  -20.9110  -29.8430   21.7430 H   0  0  0  0  0  0  0  0  0  0  0  0
  -18.0120  -28.1530   22.9750 C   0  0  0  0  0  0  0  0  0  0  0  0
  -20.5750  -28.3790   23.2280 C   0  0  0  0  0  3  0  0  0  0  0  0
  -20.6550  -26.9440   22.6600 C   0  0  0  0  0  2  0  0  0  0  0  0
  -19.5410  -26.6290   21.6560 C   0  0  0  0  0  2  0  0  0  0  0  0
  -18.1660  -26.7970   22.3080 C   0  0  0  0  0  2  0  0  0  0  0  0
  -19.1440  -28.9040   23.3920 C   0  0  0  0  0  0  0  0  0  0  0  0
  -18.9450  -30.1740   23.9730 C   0  0  0  0  0  3  0  0  0  0  0  0
  -17.6480  -30.6950   24.1420 C   0  0  0  0  0  3  0  0  0  0  0  0
  -16.5310  -29.9420   23.7410 C   0  0  0  0  0  3  0  0  0  0  0  0
  -16.7150  -28.6720   23.1650 C   0  0  0  0  0  3  0  0  0  0  0  0
  -25.8820  -32.5310   23.8210 C   0  0  0  0  0  3  0  0  0  0  0  0
  -26.4190  -31.7530   25.0830 C   0  0  1  0  0  0  0  0  0  0  0  0
  -25.3400  -31.4970   26.1600 C   0  0  0  0  0  1  0  0  0  0  0  0
  -27.0070  -30.3830   24.6700 C   0  0  0  0  0  1  0  0  0  0  0  0
  -27.5720  -32.5490   25.7420 C   0  0  0  0  0  1  0  0  0  0  0  0
  -25.5700  -33.9240   24.1650 N   0  0  0  0  0  0  0  0  0  0  0  0
  -25.8890  -34.9840   23.4080 C   0  0  0  0  0  0  0  0  0  0  0  0
  -26.5520  -34.8900   22.3710 O   0  0  0  0  0  0  0  0  0  0  0  0
  -24.9880  -34.0710   24.9760 H   0  0  0  0  0  0  0  0  0  0  0  0
  -24.1490  -36.7650   23.0700 C   0  0  0  0  0  1  0  0  0  0  0  0
  -25.3940  -36.3650   23.8770 C   0  0  0  0  0  3  0  0  0  0  0  0
  -27.5270  -37.2510   24.7120 C   0  0  0  0  0  1  0  0  0  0  0  0
  -26.4220  -37.4250   23.7730 N   0  0  0  0  0  0  0  0  0  0  0  0
  -26.0110  -38.3390   23.9380 H   0  0  0  0  0  0  0  0  0  0  0  0
  -29.8420  -16.7920   19.7440 C   0  0  0  0  0  3  0  0  0  0  0  0
  -30.5890  -14.5070   20.4100 C   0  0  0  0  0  0  0  0  0  0  0  0
  -30.3080  -12.3240   19.3090 C   0  0  0  0  0  2  0  0  0  0  0  0
  -29.3720  -12.5240   18.0940 C   0  0  0  0  0  2  0  0  0  0  0  0
  -27.8960  -12.3860   18.5190 C   0  0  0  0  0  2  0  0  0  0  0  0
  -27.5540  -13.2090   19.7880 C   0  0  0  0  0  3  0  0  0  0  0  0
  -28.6090  -13.0270   20.9020 C   0  0  0  0  0  2  0  0  0  0  0  0
  -29.9310  -13.3170   20.3300 N   0  0  0  0  0  0  0  0  0  0  0  0
  -31.7490  -14.6430   20.0170 O   0  0  0  0  0  0  0  0  0  0  0  0
  -29.8020  -15.5940   20.6290 N   0  0  0  0  0  0  0  0  0  0  0  0
  -28.9160  -15.3940   21.0650 H   0  0  0  0  0  0  0  0  0  0  0  0
  -25.1690  -13.8170   20.5100 C   0  0  0  0  0  0  0  0  0  0  0  0
  -24.0990  -13.0460   20.8660 C   0  0  0  0  0  0  0  0  0  0  0  0
  -24.5570  -11.6920   20.8330 C   0  0  0  0  0  0  0  0  0  0  0  0
  -26.2060  -12.9330   20.2700 N   0  0  0  0  0  0  0  0  0  0  0  0
  -25.8480  -11.6530   20.5280 N   0  0  0  0  0  0  0  0  0  0  0  0
  -23.8290  -10.4310   21.0220 C   0  0  0  0  0  0  0  0  0  0  0  0
  -24.2510   -9.4700   21.9670 C   0  0  0  0  0  3  0  0  0  0  0  0
  -23.5270   -8.2740   22.1430 C   0  0  0  0  0  3  0  0  0  0  0  0
  -22.3630   -8.0270   21.3760 C   0  0  0  0  0  0  0  0  0  0  0  0
  -21.9570   -8.9790   20.4250 C   0  0  0  0  0  3  0  0  0  0  0  0
  -22.6830  -10.1670   20.2430 C   0  0  0  0  0  3  0  0  0  0  0  0
  -21.6090   -6.8810   21.4620 O   0  0  0  0  0  0  0  0  0  0  0  0
  -21.5450   -6.1500   22.6220 C   0  0  0  0  0  0  0  0  0  0  0  0
  -21.1030   -6.7160   23.8360 C   0  0  0  0  0  3  0  0  0  0  0  0
  -20.9850   -5.9100   24.9860 C   0  0  0  0  0  3  0  0  0  0  0  0
  -21.2990   -4.5390   24.9210 C   0  0  0  0  0  0  0  0  0  0  0  0
  -21.7360   -3.9740   23.7110 C   0  0  0  0  0  3  0  0  0  0  0  0
  -21.8550   -4.7770   22.5640 C   0  0  0  0  0  0  0  0  0  0  0  0
  -22.2570   -4.2230   21.3940 F   0  0  0  0  0  0  0  0  0  0  0  0
  -21.1770   -3.7610   26.0230 F   0  0  0  0  0  0  0  0  0  0  0  0
  -22.7030  -13.5260   21.1370 C   0  0  0  0  0  0  0  0  0  0  0  0
  -21.9700  -12.8320   21.9990 N   0  0  0  0  0  0  0  0  0  0  0  0
  -22.2790  -14.5590   20.6150 O   0  0  0  0  0  0  0  0  0  0  0  0
  -22.3300  -12.0030   22.4480 H   0  0  0  0  0  0  0  0  0  0  0  0
  -21.0330  -13.1380   22.2170 H   0  0  0  0  0  0  0  0  0  0  0  0
  -25.3560  -15.1920   20.3610 N   0  0  0  0  0  0  0  0  0  0  0  0
  -24.4350  -15.5220   20.0800 H   0  0  0  0  0  0  0  0  0  0  0  0
  -25.4070  -15.5340   21.3160 H   0  0  0  0  0  0  0  0  0  0  0  0
  -28.7090  -16.7310   18.6870 C   0  0  0  0  0  2  0  0  0  0  0  0
  -27.3510  -16.9730   19.2240 N   0  0  0  0  0  4  0  0  0  0  0  0
  -26.9420  -16.1820   19.7070 H   0  0  0  0  0  0  0  0  0  0  0  0
  -26.7350  -17.1550   18.4520 H   0  0  0  0  0  0  0  0  0  0  0  0
  -27.3190  -17.7710   19.8300 H   0  0  0  0  0  0  0  0  0  0  0  0
  1  2  2  0
  1  4  1  0
  2  5  1  0
  3  8  1  0
  4  3  1  0
  5  3  1  0
  5  6  1  0
  8  7  1  0
  8 10  1  0
 10  9  1  0
 11  4  1  0
 11 12  2  0
 14 13  1  0
 14 12  1  0
 14 15  1  0
 16 15  1  0
 17 28  2  0
 18 16  1  0
 18 23  1  0
 19 27  1  0
 19 29  1  0
 20 26  1  0
 20 22  1  0
 21 27  1  0
 22 23  2  0
 22 21  1  0
 24 18  2  0
 25 24  1  0
 25 20  2  0
 26 19  1  0
 27 17  1  0
 29 31  2  0
 30 29  1  0
 32 30  1  0
 33 42  2  0
 33 38  1  0
 34 30  1  0
 34 38  1  0
 35 34  1  0
 36 37  1  0
 36 35  1  0
 37 33  1  0
 38 39  2  0
 39 40  1  0
 41 40  2  0
 42 41  1  0
 43 17  1  0
 43 48  1  0
 43 44  1  0
 44 47  1  1
 44 45  1  0
 46 44  1  0
 48 51  1  0
 49 53  1  0
 49 48  1  0
 50 49  2  0
 53 52  1  0
 55 53  1  0
 55 56  1  0
 55 54  1  0
 57 96  1  0
 57  2  1  0
 57 66  1  0
 58 66  1  0
 59 64  1  0
 60 61  1  0
 60 59  1  0
 62 61  1  0
 62 71  1  0
 62 63  1  0
 64 58  1  0
 64 63  1  0
 65 58  2  0
 66 67  1  0
 68 69  2  0
 69 88  1  0
 70 69  1  0
 70 73  1  0
 71 68  1  0
 71 72  1  0
 72 70  2  0
 73 74  1  0
 74 75  2  0
 76 79  1  0
 76 75  1  0
 77 76  2  0
 78 77  1  0
 78 73  2  0
 79 80  1  0
 80 81  1  0
 81 82  2  0
 83 82  1  0
 83 87  1  0
 84 83  2  0
 85 80  2  0
 85 84  1  0
 86 85  1  0
 88 89  1  0
 89 92  1  0
 89 91  1  0
 90 88  2  0
 93 68  1  0
 93 95  1  0
 94 93  1  0
 96 97  1  0
 97 98  1  0
 97100  1  0
 99 97  1  0
M  ISO  4  15 101  16 101  58 100  66 100
M  END
>  <TORSDO>  (16) 
F 25

>  <SCORE>  (16) 
-13.029

>  <name>  (16) 
15

>  <ligand_id>  (16) 
15

>  <original_smiles>  (16) 
[H]c1c([H])c([H])c2c(c1[H])C([H])([H])C([H])([H])C([H])([H])C2([H])N([H])C(=O)C1([H])N(C(=O)C([H])(N([H])C(=O)C([H])(N([H])C([H])([H])[H])C([H])([H])[H])C(C([H])([H])[H])(C([H])([H])[H])C([H])([H])[H])C([H])([H])c2c([H])c(OC([H])([H])C([H])(C([H])([H])[H])C([H])([H])C([H])([H])n3c([H])c(C([H])(N([H])C(=O)N4C([H])([H])C([H])([H])C([H])([H])C([H])(n5nc(-c6c([H])c([H])c(Oc7c([H])c([H])c(F)c([H])c7F)c([H])c6[H])c(C(=O)N([H])[H])c5N([H])[H])C4([H])[H])C([H])([H])[N+]([H])([H])[H])[n+]([H])c3C([H])(C([H])([H])[H])C([H])([H])C([H])([H])[H])c([H])c([H])c2C1([H])[H]

>  <smiles>  (16) 
[H]c1c([H])c([H])c2c(c1[H])C([H])([H])C([H])([H])C([H])([H])C2([H])N([H])C(=O)C1([H])N(C(=O)C([H])(N([H])C(=O)C([H])(N([H])C([H])([H])[H])C([H])([H])[H])C(C([H])([H])[H])(C([H])([H])[H])C([H])([H])[H])C([H])([H])c2c([H])c(OC([H])([H])C([H])(C([H])([H])[H])C([H])([H])C([H])([H])n3c([H])c(C([H])(N([H])C(=O)N4C([H])([H])C([H])([H])C([H])([H])C([H])(n5nc(-c6c([H])c([H])c(Oc7c([H])c([H])c(F)c([H])c7F)c([H])c6[H])c(C(=O)N([H])[H])c5N([H])[H])C4([H])[H])C([H])([H])[N+]([H])([H])[H])[n+]([H])c3C([H])(C([H])([H])[H])C([H])([H])C([H])([H])[H])c([H])c([H])c2C1([H])[H]

$$$$
16:0:0
     RDKit          3D

 93101  0  0  1  0  0  0  0  0999 V2000
  -28.1980  -21.3750   19.8940 C   0  0  0  0  0  3  0  0  0  0  0  0
  -29.7490  -20.8640   21.3580 C   0  0  0  0  0  3  0  0  0  0  0  0
  -29.0390  -21.9750   20.8720 C   0  0  0  0  0  0  0  0  0  0  0  0
  -28.3610  -20.0070   19.8510 C   0  0  0  0  0  0  0  0  0  0  0  0
  -29.3430  -19.6250   20.7790 N   0  0  0  0  0  0  0  0  0  0  0  0
  -30.5020  -24.0820   20.9810 C   0  0  0  0  0  1  0  0  0  0  0  0
  -29.0970  -23.5280   21.2640 C   0  0  0  0  0  3  0  0  0  0  0  0
  -28.0090  -24.5630   20.6500 C   0  0  0  0  0  2  0  0  0  0  0  0
  -28.2030  -26.0520   20.7710 O   0  0  0  0  0  0  0  0  0  0  0  0
  -24.3890  -31.6980   23.2130 C   0  0  0  0  0  0  0  0  0  0  0  0
  -27.1060  -26.9240   20.5840 C   0  0  0  0  0  0  0  0  0  0  0  0
  -23.2590  -30.2210   21.5860 C   0  0  0  0  0  3  0  0  0  0  0  0
  -24.7690  -28.5780   20.3310 C   0  0  0  0  0  0  0  0  0  0  0  0
  -25.8070  -30.5070   21.5220 C   0  0  0  0  0  2  0  0  0  0  0  0
  -25.9120  -29.0890   20.9610 C   0  0  0  0  0  0  0  0  0  0  0  0
  -27.0840  -28.2760   21.0670 C   0  0  0  0  0  3  0  0  0  0  0  0
  -25.9390  -26.4760   19.9210 C   0  0  0  0  0  3  0  0  0  0  0  0
  -24.7910  -27.2830   19.7940 C   0  0  0  0  0  3  0  0  0  0  0  0
  -23.5430  -29.4660   20.2600 C   0  0  0  0  0  2  0  0  0  0  0  0
  -24.4990  -30.8310   22.1640 N   0  0  0  0  0  0  0  0  0  0  0  0
  -23.2820  -32.0140   23.6710 O   0  0  0  0  0  0  0  0  0  0  0  0
  -22.5330  -29.2690   22.5660 C   0  0  0  0  0  0  0  0  0  0  0  0
  -21.2090  -29.1170   22.3940 N   0  0  0  0  0  0  0  0  0  0  0  0
  -23.1610  -28.6670   23.4400 O   0  0  0  0  0  0  0  0  0  0  0  0
  -20.7630  -29.6480   21.6570 H   0  0  0  0  0  0  0  0  0  0  0  0
  -17.7820  -28.0370   22.8290 C   0  0  0  0  0  0  0  0  0  0  0  0
  -20.3380  -28.2350   23.1740 C   0  0  0  0  0  3  0  0  0  0  0  0
  -20.4170  -26.7800   22.6570 C   0  0  0  0  0  2  0  0  0  0  0  0
  -19.3370  -26.4490   21.6200 C   0  0  0  0  0  2  0  0  0  0  0  0
  -17.9400  -26.6590   22.2120 C   0  0  0  0  0  2  0  0  0  0  0  0
  -18.9080  -28.7840   23.2670 C   0  0  0  0  0  0  0  0  0  0  0  0
  -18.7070  -30.0740   23.8060 C   0  0  0  0  0  3  0  0  0  0  0  0
  -17.4110  -30.6150   23.9140 C   0  0  0  0  0  3  0  0  0  0  0  0
  -16.2990  -29.8670   23.4880 C   0  0  0  0  0  3  0  0  0  0  0  0
  -16.4860  -28.5810   22.9520 C   0  0  0  0  0  3  0  0  0  0  0  0
  -25.6420  -32.3560   23.8700 C   0  0  0  0  0  3  0  0  0  0  0  0
  -25.3150  -33.7630   24.1430 N   0  0  0  0  0  0  0  0  0  0  0  0
  -25.6990  -34.7960   23.3830 C   0  0  0  0  0  0  0  0  0  0  0  0
  -26.4330  -34.6650   22.4000 O   0  0  0  0  0  0  0  0  0  0  0  0
  -24.6690  -33.9360   24.8990 H   0  0  0  0  0  0  0  0  0  0  0  0
  -24.0080  -36.5890   22.8720 C   0  0  0  0  0  1  0  0  0  0  0  0
  -25.1890  -36.1950   23.7750 C   0  0  0  0  0  3  0  0  0  0  0  0
  -27.2690  -37.0900   24.7250 C   0  0  0  0  0  1  0  0  0  0  0  0
  -26.2310  -37.2420   23.7080 N   0  0  0  0  0  0  0  0  0  0  0  0
  -25.8200  -38.1660   23.8110 H   0  0  0  0  0  0  0  0  0  0  0  0
  -26.1010  -31.6270   25.1920 C   0  0  1  0  0  0  0  0  0  0  0  0
  -24.9580  -31.4010   26.2080 C   0  0  0  0  0  1  0  0  0  0  0  0
  -26.7260  -30.2480   24.8680 C   0  0  0  0  0  1  0  0  0  0  0  0
  -27.2040  -32.4580   25.8910 C   0  0  0  0  0  1  0  0  0  0  0  0
  -28.3490  -18.6750   17.6910 C   0  0  0  0  0  1  0  0  0  0  0  0
  -27.5830  -19.0810   18.9540 C   0  0  0  0  0  3  0  0  0  0  0  0
  -25.3830  -18.0580   19.8010 C   0  0  0  0  0  1  0  0  0  0  0  0
  -26.9000  -17.8870   19.6610 C   0  0  0  0  0  2  0  0  0  0  0  0
  -29.7300  -18.1920   21.2120 C   0  0  0  0  0  2  0  0  0  0  0  0
  -30.2020  -17.0210   20.1990 C   0  0  0  0  0  2  0  0  0  0  0  0
  -30.5470  -14.4110   20.0310 C   0  0  0  0  0  0  0  0  0  0  0  0
  -30.2080  -12.2020   18.9070 C   0  0  0  0  0  2  0  0  0  0  0  0
  -29.1690  -12.3150   17.7710 C   0  0  0  0  0  2  0  0  0  0  0  0
  -27.7380  -12.1360   18.3050 C   0  0  0  0  0  2  0  0  0  0  0  0
  -27.4720  -12.9740   19.5840 C   0  0  0  0  0  3  0  0  0  0  0  0
  -28.6160  -12.8500   20.6160 C   0  0  0  0  0  2  0  0  0  0  0  0
  -29.8700  -13.2120   19.9430 N   0  0  0  0  0  0  0  0  0  0  0  0
  -31.6710  -14.5120   19.5370 O   0  0  0  0  0  0  0  0  0  0  0  0
  -29.8820  -15.5420   20.4820 N   0  0  0  0  0  0  0  0  0  0  0  0
  -28.9720  -15.3630   20.8790 H   0  0  0  0  0  0  0  0  0  0  0  0
  -25.1260  -13.5290   20.4640 C   0  0  0  0  0  0  0  0  0  0  0  0
  -24.1010  -12.7450   20.9190 C   0  0  0  0  0  0  0  0  0  0  0  0
  -24.5790  -11.4000   20.8600 C   0  0  0  0  0  0  0  0  0  0  0  0
  -26.1690  -12.6650   20.1710 N   0  0  0  0  0  0  0  0  0  0  0  0
  -25.8470  -11.3790   20.4680 N   0  0  0  0  0  0  0  0  0  0  0  0
  -23.8820  -10.1260   21.0990 C   0  0  0  0  0  0  0  0  0  0  0  0
  -24.3480   -9.1980   22.0540 C   0  0  0  0  0  3  0  0  0  0  0  0
  -23.6500   -7.9920   22.2830 C   0  0  0  0  0  3  0  0  0  0  0  0
  -22.4700   -7.7040   21.5570 C   0  0  0  0  0  0  0  0  0  0  0  0
  -22.0230   -8.6230   20.5920 C   0  0  0  0  0  3  0  0  0  0  0  0
  -22.7200   -9.8210   20.3620 C   0  0  0  0  0  3  0  0  0  0  0  0
  -21.7400   -6.5480   21.6950 O   0  0  0  0  0  0  0  0  0  0  0  0
  -21.6860   -5.8700   22.8870 C   0  0  0  0  0  0  0  0  0  0  0  0
  -21.2250   -6.4820   24.0720 C   0  0  0  0  0  3  0  0  0  0  0  0
  -21.1200   -5.7290   25.2580 C   0  0  0  0  0  3  0  0  0  0  0  0
  -21.4640   -4.3630   25.2600 C   0  0  0  0  0  0  0  0  0  0  0  0
  -21.9180   -3.7520   24.0770 C   0  0  0  0  0  3  0  0  0  0  0  0
  -22.0230   -4.5030   22.8930 C   0  0  0  0  0  0  0  0  0  0  0  0
  -22.4410   -3.9010   21.7520 F   0  0  0  0  0  0  0  0  0  0  0  0
  -21.3580   -3.6380   26.3970 F   0  0  0  0  0  0  0  0  0  0  0  0
  -22.7160  -13.2040   21.2760 C   0  0  0  0  0  0  0  0  0  0  0  0
  -22.0640  -12.5240   22.2130 N   0  0  0  0  0  0  0  0  0  0  0  0
  -22.2250  -14.2020   20.7550 O   0  0  0  0  0  0  0  0  0  0  0  0
  -22.4700  -11.7150   22.6580 H   0  0  0  0  0  0  0  0  0  0  0  0
  -21.1390  -12.8250   22.4890 H   0  0  0  0  0  0  0  0  0  0  0  0
  -25.2590  -14.8920   20.2440 N   0  0  0  0  0  0  0  0  0  0  0  0
  -24.4710  -15.5210   20.3490 H   0  0  0  0  0  0  0  0  0  0  0  0
  -26.0300  -15.3030   19.7330 H   0  0  0  0  0  0  0  0  0  0  0  0
  1  3  1  0
  3  7  1  0
  3  2  2  0
  4  1  2  0
  4  5  1  0
  5 54  1  0
  5  2  1  0
  7  6  1  0
  8  9  1  0
  8  7  1  0
 10 21  2  0
 11  9  1  0
 11 16  1  0
 12 20  1  0
 12 22  1  0
 13 15  1  0
 14 20  1  0
 15 16  2  0
 15 14  1  0
 17 11  2  0
 18 17  1  0
 18 13  2  0
 19 13  1  0
 19 12  1  0
 20 10  1  0
 22 24  2  0
 23 22  1  0
 25 23  1  0
 26 35  2  0
 26 31  1  0
 27 23  1  0
 27 31  1  0
 28 27  1  0
 29 30  1  0
 29 28  1  0
 30 26  1  0
 31 32  2  0
 32 33  1  0
 34 33  2  0
 35 34  1  0
 36 10  1  0
 36 37  1  0
 36 46  1  0
 37 40  1  0
 38 42  1  0
 38 37  1  0
 39 38  2  0
 42 41  1  0
 44 42  1  0
 44 45  1  0
 44 43  1  0
 46 49  1  1
 46 47  1  0
 48 46  1  0
 51 50  1  0
 51 53  1  0
 51  4  1  0
 53 52  1  0
 55 64  1  0
 55 54  1  0
 56 64  1  0
 57 62  1  0
 58 59  1  0
 58 57  1  0
 60 59  1  0
 60 69  1  0
 60 61  1  0
 62 56  1  0
 62 61  1  0
 63 56  2  0
 64 65  1  0
 66 67  2  0
 67 86  1  0
 68 67  1  0
 68 71  1  0
 69 66  1  0
 69 70  1  0
 70 68  2  0
 71 72  1  0
 72 73  2  0
 74 77  1  0
 74 73  1  0
 75 74  2  0
 76 75  1  0
 76 71  2  0
 77 78  1  0
 78 83  2  0
 78 79  1  0
 79 80  2  0
 80 81  1  0
 81 85  1  0
 82 81  2  0
 83 82  1  0
 84 83  1  0
 86 87  1  0
 87 90  1  0
 87 89  1  0
 88 86  2  0
 91 92  1  0
 91 66  1  0
 93 91  1  0
M  ISO  4   8 101   9 101  56 100  64 100
M  END
>  <TORSDO>  (17) 
F 22

>  <SCORE>  (17) 
-12.329

>  <name>  (17) 
16

>  <ligand_id>  (17) 
16

>  <original_smiles>  (17) 
[H]c1c([H])c([H])c2c(c1[H])C([H])([H])C([H])([H])C([H])([H])C2([H])N([H])C(=O)C1([H])N(C(=O)C([H])(N([H])C(=O)C([H])(N([H])C([H])([H])[H])C([H])([H])[H])C(C([H])([H])[H])(C([H])([H])[H])C([H])([H])[H])C([H])([H])c2c([H])c(OC([H])([H])C([H])(c3c([H])c(C([H])(C([H])([H])[H])C([H])([H])C([H])([H])[H])n(C([H])([H])C([H])([H])N([H])C(=O)N4C([H])([H])C([H])([H])C([H])([H])C([H])(n5nc(-c6c([H])c([H])c(Oc7c([H])c([H])c(F)c([H])c7F)c([H])c6[H])c(C(=O)N([H])[H])c5N([H])[H])C4([H])[H])c3[H])C([H])([H])[H])c([H])c([H])c2C1([H])[H]

>  <smiles>  (17) 
[H]c1c([H])c([H])c2c(c1[H])C([H])([H])C([H])([H])C([H])([H])C2([H])N([H])C(=O)C1([H])N(C(=O)C([H])(N([H])C(=O)C([H])(N([H])C([H])([H])[H])C([H])([H])[H])C(C([H])([H])[H])(C([H])([H])[H])C([H])([H])[H])C([H])([H])c2c([H])c(OC([H])([H])C([H])(c3c([H])c(C([H])(C([H])([H])[H])C([H])([H])C([H])([H])[H])n(C([H])([H])C([H])([H])N([H])C(=O)N4C([H])([H])C([H])([H])C([H])([H])C([H])(n5nc(-c6c([H])c([H])c(Oc7c([H])c([H])c(F)c([H])c7F)c([H])c6[H])c(C(=O)N([H])[H])c5N([H])[H])C4([H])[H])c3[H])C([H])([H])[H])c([H])c([H])c2C1([H])[H]

$$$$
17:0:0
     RDKit          3D

 97105  0  0  1  0  0  0  0  0999 V2000
  -29.1990  -20.9090   20.0180 C   0  0  0  0  0  3  0  0  0  0  0  0
  -28.1510  -21.8410   19.7110 C   0  0  0  0  0  0  0  0  0  0  0  0
  -27.0210  -21.2960   19.0310 C   0  0  0  0  0  0  0  0  0  0  0  0
  -29.0990  -19.5310   19.6170 C   0  0  0  0  0  0  0  0  0  0  0  0
  -27.0580  -19.9520   18.5870 C   0  0  0  0  0  0  0  0  0  0  0  0
  -25.9720  -19.3430   17.7090 C   0  0  0  0  0  1  0  0  0  0  0  0
  -28.0530  -19.1010   18.8850 N   0  0  0  0  0  0  0  0  0  0  0  0
  -28.1380  -23.3730   20.0800 C   0  0  0  0  0  2  0  0  0  0  0  0
  -29.4370  -24.2430   20.0850 C   0  0  0  0  0  2  0  0  0  0  0  0
  -29.3400  -25.7480   19.5880 C   0  0  0  0  0  2  0  0  0  0  0  0
  -28.9610  -26.8260   20.5080 O   0  0  0  0  0  0  0  0  0  0  0  0
  -24.6000  -31.8090   23.3110 C   0  0  0  0  0  0  0  0  0  0  0  0
  -27.7630  -27.5350   20.3790 C   0  0  0  0  0  0  0  0  0  0  0  0
  -23.6260  -30.3640   21.5620 C   0  0  0  0  0  3  0  0  0  0  0  0
  -25.2860  -28.9450   20.2320 C   0  0  0  0  0  0  0  0  0  0  0  0
  -26.1350  -30.8720   21.5680 C   0  0  0  0  0  2  0  0  0  0  0  0
  -26.3640  -29.5120   20.9230 C   0  0  0  0  0  0  0  0  0  0  0  0
  -27.6010  -28.8110   21.0010 C   0  0  0  0  0  3  0  0  0  0  0  0
  -26.6500  -27.0030   19.6920 C   0  0  0  0  0  3  0  0  0  0  0  0
  -25.4270  -27.6940   19.6170 C   0  0  0  0  0  3  0  0  0  0  0  0
  -23.9930  -29.7330   20.1910 C   0  0  0  0  0  2  0  0  0  0  0  0
  -24.8030  -31.0290   22.2100 N   0  0  0  0  0  0  0  0  0  0  0  0
  -23.4630  -31.9960   23.7660 O   0  0  0  0  0  0  0  0  0  0  0  0
  -22.9710  -29.2820   22.4520 C   0  0  0  0  0  0  0  0  0  0  0  0
  -21.6650  -29.0490   22.2460 N   0  0  0  0  0  0  0  0  0  0  0  0
  -23.6380  -28.6640   23.2830 O   0  0  0  0  0  0  0  0  0  0  0  0
  -21.1850  -29.6070   21.5520 H   0  0  0  0  0  0  0  0  0  0  0  0
  -18.3170  -27.7270   22.5770 C   0  0  0  0  0  0  0  0  0  0  0  0
  -20.8550  -28.0500   22.9440 C   0  0  0  0  0  3  0  0  0  0  0  0
  -21.0220  -26.6540   22.3040 C   0  0  0  0  0  2  0  0  0  0  0  0
  -19.9610  -26.3470   21.2410 C   0  0  0  0  0  2  0  0  0  0  0  0
  -18.5570  -26.4190   21.8440 C   0  0  0  0  0  2  0  0  0  0  0  0
  -19.3960  -28.4990   23.0820 C   0  0  0  0  0  0  0  0  0  0  0  0
  -19.1190  -29.7250   23.7260 C   0  0  0  0  0  3  0  0  0  0  0  0
  -17.7940  -30.1790   23.8700 C   0  0  0  0  0  3  0  0  0  0  0  0
  -16.7290  -29.4050   23.3770 C   0  0  0  0  0  3  0  0  0  0  0  0
  -16.9910  -28.1800   22.7390 C   0  0  0  0  0  3  0  0  0  0  0  0
  -25.7850  -32.5170   24.0370 C   0  0  0  0  0  3  0  0  0  0  0  0
  -26.1900  -31.8060   25.3870 C   0  0  1  0  0  0  0  0  0  0  0  0
  -24.9950  -31.5580   26.3370 C   0  0  0  0  0  1  0  0  0  0  0  0
  -26.8670  -30.4450   25.1020 C   0  0  0  0  0  1  0  0  0  0  0  0
  -27.2320  -32.6680   26.1380 C   0  0  0  0  0  1  0  0  0  0  0  0
  -25.3840  -33.9090   24.2810 N   0  0  0  0  0  0  0  0  0  0  0  0
  -25.7470  -34.9470   23.5140 C   0  0  0  0  0  0  0  0  0  0  0  0
  -26.5190  -34.8360   22.5590 O   0  0  0  0  0  0  0  0  0  0  0  0
  -24.7000  -34.0560   25.0080 H   0  0  0  0  0  0  0  0  0  0  0  0
  -23.9750  -36.6390   22.9380 C   0  0  0  0  0  1  0  0  0  0  0  0
  -25.1610  -36.3290   23.8660 C   0  0  0  0  0  3  0  0  0  0  0  0
  -27.1740  -37.3540   24.8320 C   0  0  0  0  0  1  0  0  0  0  0  0
  -26.1510  -37.4250   23.7900 N   0  0  0  0  0  0  0  0  0  0  0  0
  -25.6920  -38.3280   23.8620 H   0  0  0  0  0  0  0  0  0  0  0  0
  -25.7230  -22.0900   18.8520 C   0  0  0  0  0  2  0  0  0  0  0  0
  -25.7270  -23.1300   17.7160 C   0  0  0  0  0  2  0  0  0  0  0  0
  -24.2860  -23.5670   17.3870 C   0  0  0  0  0  2  0  0  0  0  0  0
  -22.6490  -25.3550   16.7100 C   0  0  0  0  0  1  0  0  0  0  0  0
  -24.8990  -25.2620   15.5750 C   0  0  0  0  0  1  0  0  0  0  0  0
  -24.1370  -25.0140   16.8840 C   0  0  0  0  0  3  0  0  0  0  0  0
  -30.2040  -18.4450   19.7930 C   0  0  0  0  0  2  0  0  0  0  0  0
  -30.1550  -17.4310   21.0130 C   0  0  0  0  0  2  0  0  0  0  0  0
  -30.4960  -14.9190   20.4970 C   0  0  0  0  0  0  0  0  0  0  0  0
  -30.2710  -12.6890   19.4300 C   0  0  0  0  0  2  0  0  0  0  0  0
  -29.3210  -12.8060   18.2240 C   0  0  0  0  0  2  0  0  0  0  0  0
  -27.8600  -12.6150   18.6720 C   0  0  0  0  0  2  0  0  0  0  0  0
  -27.4910  -13.4910   19.8980 C   0  0  0  0  0  3  0  0  0  0  0  0
  -28.5600  -13.3790   21.0060 C   0  0  0  0  0  2  0  0  0  0  0  0
  -29.8590  -13.7140   20.4060 N   0  0  0  0  0  0  0  0  0  0  0  0
  -31.6730  -15.0590   20.1580 O   0  0  0  0  0  0  0  0  0  0  0  0
  -29.7230  -16.0080   20.7860 N   0  0  0  0  0  0  0  0  0  0  0  0
  -28.7420  -15.8230   20.9320 H   0  0  0  0  0  0  0  0  0  0  0  0
  -25.1110  -14.0520   20.6770 C   0  0  0  0  0  0  0  0  0  0  0  0
  -24.0490  -13.2640   21.0300 C   0  0  0  0  0  0  0  0  0  0  0  0
  -24.5170  -11.9170   20.9520 C   0  0  0  0  0  0  0  0  0  0  0  0
  -26.1530  -13.1850   20.3990 N   0  0  0  0  0  0  0  0  0  0  0  0
  -25.8040  -11.8930   20.6270 N   0  0  0  0  0  0  0  0  0  0  0  0
  -23.7980  -10.6440   21.1080 C   0  0  0  0  0  0  0  0  0  0  0  0
  -24.2600   -9.6380   21.9870 C   0  0  0  0  0  3  0  0  0  0  0  0
  -23.5420   -8.4310   22.1320 C   0  0  0  0  0  3  0  0  0  0  0  0
  -22.3480   -8.2230   21.4020 C   0  0  0  0  0  0  0  0  0  0  0  0
  -21.9040   -9.2190   20.5140 C   0  0  0  0  0  3  0  0  0  0  0  0
  -22.6210  -10.4170   20.3650 C   0  0  0  0  0  3  0  0  0  0  0  0
  -21.5980   -7.0730   21.4640 O   0  0  0  0  0  0  0  0  0  0  0  0
  -21.6130   -6.2610   22.5690 C   0  0  0  0  0  0  0  0  0  0  0  0
  -21.2480   -6.7380   23.8470 C   0  0  0  0  0  3  0  0  0  0  0  0
  -21.2100   -5.8560   24.9440 C   0  0  0  0  0  3  0  0  0  0  0  0
  -21.5220   -4.4950   24.7660 C   0  0  0  0  0  0  0  0  0  0  0  0
  -21.8780   -4.0160   23.4930 C   0  0  0  0  0  3  0  0  0  0  0  0
  -21.9210   -4.8960   22.3970 C   0  0  0  0  0  0  0  0  0  0  0  0
  -22.2450   -4.4250   21.1700 F   0  0  0  0  0  0  0  0  0  0  0  0
  -21.4780   -3.6450   25.8180 F   0  0  0  0  0  0  0  0  0  0  0  0
  -22.6510  -13.7260   21.3310 C   0  0  0  0  0  0  0  0  0  0  0  0
  -21.9360  -13.0060   22.1870 N   0  0  0  0  0  0  0  0  0  0  0  0
  -22.2020  -14.7620   20.8410 O   0  0  0  0  0  0  0  0  0  0  0  0
  -22.3090  -12.1670   22.6080 H   0  0  0  0  0  0  0  0  0  0  0  0
  -20.9970  -13.2950   22.4210 H   0  0  0  0  0  0  0  0  0  0  0  0
  -25.2760  -15.4250   20.5390 N   0  0  0  0  0  0  0  0  0  0  0  0
  -24.5160  -16.0810   20.6690 H   0  0  0  0  0  0  0  0  0  0  0  0
  -26.1300  -15.8710   20.2320 H   0  0  0  0  0  0  0  0  0  0  0  0
  2  1  1  0
  2  8  1  0
  3  2  2  0
  4 58  1  0
  4  1  2  0
  5  7  2  0
  5  3  1  0
  6  5  1  0
  7  4  1  0
  8  9  1  0
 10  9  1  0
 10 11  1  0
 12 23  2  0
 13 11  1  0
 13 18  1  0
 14 22  1  0
 14 24  1  0
 15 17  1  0
 16 22  1  0
 17 18  2  0
 17 16  1  0
 19 13  2  0
 20 19  1  0
 20 15  2  0
 21 15  1  0
 21 14  1  0
 22 12  1  0
 24 26  2  0
 25 24  1  0
 27 25  1  0
 28 37  2  0
 28 33  1  0
 29 25  1  0
 29 33  1  0
 30 29  1  0
 31 32  1  0
 31 30  1  0
 32 28  1  0
 33 34  2  0
 34 35  1  0
 36 35  2  0
 37 36  1  0
 38 12  1  0
 38 43  1  0
 38 39  1  0
 39 42  1  1
 39 40  1  0
 41 39  1  0
 43 46  1  0
 44 48  1  0
 44 43  1  0
 45 44  2  0
 48 47  1  0
 50 51  1  0
 50 48  1  0
 50 49  1  0
 52  3  1  0
 53 52  1  0
 54 53  1  0
 55 57  1  0
 56 57  1  0
 57 54  1  0
 58 59  1  0
 60 68  1  0
 61 66  1  0
 62 63  1  0
 62 61  1  0
 64 63  1  0
 64 73  1  0
 64 65  1  0
 66 60  1  0
 66 65  1  0
 67 60  2  0
 68 69  1  0
 68 59  1  0
 70 71  2  0
 71 90  1  0
 72 71  1  0
 72 75  1  0
 73 74  1  0
 73 70  1  0
 74 72  2  0
 75 76  1  0
 76 77  2  0
 78 81  1  0
 78 77  1  0
 79 78  2  0
 80 79  1  0
 80 75  2  0
 81 82  1  0
 82 83  1  0
 83 84  2  0
 85 84  1  0
 85 89  1  0
 86 85  2  0
 87 82  2  0
 87 86  1  0
 88 87  1  0
 90 91  1  0
 91 94  1  0
 91 93  1  0
 92 90  2  0
 95 96  1  0
 95 70  1  0
 97 95  1  0
M  ISO  4  10 101  11 101  60 100  68 100
M  END
>  <TORSDO>  (18) 
F 25

>  <SCORE>  (18) 
-11.430

>  <name>  (18) 
17

>  <ligand_id>  (18) 
17

>  <original_smiles>  (18) 
[H]c1c([H])c([H])c2c(c1[H])C([H])([H])C([H])([H])C([H])([H])C2([H])N([H])C(=O)C1([H])N(C(=O)C([H])(N([H])C(=O)C([H])(N([H])C([H])([H])[H])C([H])([H])[H])C(C([H])([H])[H])(C([H])([H])[H])C([H])([H])[H])C([H])([H])c2c([H])c(OC([H])([H])C([H])([H])C([H])([H])c3c([H])c(C([H])([H])C([H])([H])N([H])C(=O)N4C([H])([H])C([H])([H])C([H])([H])C([H])(n5nc(-c6c([H])c([H])c(Oc7c([H])c([H])c(F)c([H])c7F)c([H])c6[H])c(C(=O)N([H])[H])c5N([H])[H])C4([H])[H])nc(C([H])([H])[H])c3C([H])([H])C([H])([H])C([H])([H])C([H])(C([H])([H])[H])C([H])([H])[H])c([H])c([H])c2C1([H])[H]

>  <smiles>  (18) 
[H]c1c([H])c([H])c2c(c1[H])C([H])([H])C([H])([H])C([H])([H])C2([H])N([H])C(=O)C1([H])N(C(=O)C([H])(N([H])C(=O)C([H])(N([H])C([H])([H])[H])C([H])([H])[H])C(C([H])([H])[H])(C([H])([H])[H])C([H])([H])[H])C([H])([H])c2c([H])c(OC([H])([H])C([H])([H])C([H])([H])c3c([H])c(C([H])([H])C([H])([H])N([H])C(=O)N4C([H])([H])C([H])([H])C([H])([H])C([H])(n5nc(-c6c([H])c([H])c(Oc7c([H])c([H])c(F)c([H])c7F)c([H])c6[H])c(C(=O)N([H])[H])c5N([H])[H])C4([H])[H])nc(C([H])([H])[H])c3C([H])([H])C([H])([H])C([H])([H])C([H])(C([H])([H])[H])C([H])([H])[H])c([H])c([H])c2C1([H])[H]

$$$$
18:0:0
     RDKit          3D

 95103  0  0  1  0  0  0  0  0999 V2000
  -28.0950  -19.8740   19.7780 C   0  0  0  0  0  3  0  0  0  0  0  0
  -27.7340  -22.5940   19.5610 C   0  0  0  0  0  3  0  0  0  0  0  0
  -26.8830  -20.3560   19.2700 C   0  0  0  0  0  0  0  0  0  0  0  0
  -28.9880  -22.1970   20.1140 C   0  0  0  0  0  0  0  0  0  0  0  0
  -29.1820  -20.6750   20.2150 C   0  0  0  0  0  0  0  0  0  0  0  0
  -26.6970  -21.7400   19.1400 C   0  0  0  0  0  0  0  0  0  0  0  0
  -25.8210  -19.3600   18.8310 C   0  0  0  0  0  1  0  0  0  0  0  0
  -24.3330  -22.6100   19.5780 C   0  0  0  0  0  1  0  0  0  0  0  0
  -25.4170  -22.3310   18.5210 C   0  0  0  0  0  3  0  0  0  0  0  0
  -26.8370  -23.3890   16.6380 C   0  0  0  0  0  1  0  0  0  0  0  0
  -25.7060  -23.5790   17.6600 C   0  0  0  0  0  2  0  0  0  0  0  0
  -31.5810  -20.3510   21.1600 C   0  0  0  0  0  1  0  0  0  0  0  0
  -30.3770  -19.6040   20.5750 C   0  0  0  0  0  3  0  0  0  0  0  0
  -30.1160  -18.1380   21.4330 C   0  0  0  0  0  2  0  0  0  0  0  0
  -30.6240  -15.5430   20.5630 C   0  0  0  0  0  0  0  0  0  0  0  0
  -30.5600  -13.3850   19.2210 C   0  0  0  0  0  2  0  0  0  0  0  0
  -29.6130  -13.5110   18.0050 C   0  0  0  0  0  2  0  0  0  0  0  0
  -28.1620  -13.1890   18.4100 C   0  0  0  0  0  2  0  0  0  0  0  0
  -27.7430  -13.8930   19.7280 C   0  0  0  0  0  3  0  0  0  0  0  0
  -28.8120  -13.7480   20.8300 C   0  0  0  0  0  2  0  0  0  0  0  0
  -30.0570  -14.3000   20.2830 N   0  0  0  0  0  0  0  0  0  0  0  0
  -31.8340  -15.6650   20.3450 O   0  0  0  0  0  0  0  0  0  0  0  0
  -29.8130  -16.6730   20.8910 N   0  0  0  0  0  0  0  0  0  0  0  0
  -28.8310  -16.4420   20.9080 H   0  0  0  0  0  0  0  0  0  0  0  0
  -25.3040  -14.2730   20.3990 C   0  0  0  0  0  0  0  0  0  0  0  0
  -24.2910  -13.4100   20.7150 C   0  0  0  0  0  0  0  0  0  0  0  0
  -24.8590  -12.1000   20.6730 C   0  0  0  0  0  0  0  0  0  0  0  0
  -26.4180  -13.4820   20.1770 N   0  0  0  0  0  0  0  0  0  0  0  0
  -26.1590  -12.1680   20.4080 N   0  0  0  0  0  0  0  0  0  0  0  0
  -24.2240  -10.7810   20.8060 C   0  0  0  0  0  0  0  0  0  0  0  0
  -24.6770   -9.8370   21.7540 C   0  0  0  0  0  3  0  0  0  0  0  0
  -24.0370   -8.5860   21.8810 C   0  0  0  0  0  3  0  0  0  0  0  0
  -22.9310   -8.2670   21.0580 C   0  0  0  0  0  0  0  0  0  0  0  0
  -22.4980   -9.2020   20.1010 C   0  0  0  0  0  3  0  0  0  0  0  0
  -23.1400  -10.4450   19.9720 C   0  0  0  0  0  3  0  0  0  0  0  0
  -22.2650   -7.0660   21.0900 O   0  0  0  0  0  0  0  0  0  0  0  0
  -21.9170   -6.4680   22.2750 C   0  0  0  0  0  0  0  0  0  0  0  0
  -21.2260   -7.1700   23.2870 C   0  0  0  0  0  3  0  0  0  0  0  0
  -20.8260   -6.4990   24.4610 C   0  0  0  0  0  3  0  0  0  0  0  0
  -21.1060   -5.1290   24.6200 C   0  0  0  0  0  0  0  0  0  0  0  0
  -21.7900   -4.4280   23.6110 C   0  0  0  0  0  3  0  0  0  0  0  0
  -22.1890   -5.0950   22.4400 C   0  0  0  0  0  0  0  0  0  0  0  0
  -22.8280   -4.4100   21.4610 F   0  0  0  0  0  0  0  0  0  0  0  0
  -20.7160   -4.4820   25.7440 F   0  0  0  0  0  0  0  0  0  0  0  0
  -22.8530  -13.7730   20.9430 C   0  0  0  0  0  0  0  0  0  0  0  0
  -22.1580  -13.0220   21.7890 N   0  0  0  0  0  0  0  0  0  0  0  0
  -22.3510  -14.7600   20.4050 O   0  0  0  0  0  0  0  0  0  0  0  0
  -22.5770  -12.2250   22.2450 H   0  0  0  0  0  0  0  0  0  0  0  0
  -21.1950  -13.2500   21.9880 H   0  0  0  0  0  0  0  0  0  0  0  0
  -25.3640  -15.6560   20.2540 N   0  0  0  0  0  0  0  0  0  0  0  0
  -24.5400  -16.2390   20.3470 H   0  0  0  0  0  0  0  0  0  0  0  0
  -26.1670  -16.1650   19.9110 H   0  0  0  0  0  0  0  0  0  0  0  0
  -29.8550  -23.5780   20.4600 C   0  0  0  0  0  2  0  0  0  0  0  0
  -29.1010  -25.0990   20.7820 C   0  0  0  0  0  2  0  0  0  0  0  0
  -29.3810  -26.5970   20.3850 O   0  0  0  0  0  0  0  0  0  0  0  0
  -26.0060  -31.5490   24.7600 C   0  0  0  0  0  0  0  0  0  0  0  0
  -28.3930  -27.6320   20.6190 C   0  0  0  0  0  0  0  0  0  0  0  0
  -24.7630  -30.6750   22.8230 C   0  0  0  0  0  3  0  0  0  0  0  0
  -26.1550  -29.4510   21.0400 C   0  0  0  0  0  0  0  0  0  0  0  0
  -27.3300  -30.8530   22.7240 C   0  0  0  0  0  2  0  0  0  0  0  0
  -27.3520  -29.6660   21.7400 C   0  0  0  0  0  0  0  0  0  0  0  0
  -28.4750  -28.7800   21.5110 C   0  0  0  0  0  3  0  0  0  0  0  0
  -27.1820  -27.5420   19.9010 C   0  0  0  0  0  3  0  0  0  0  0  0
  -26.0860  -28.4060   20.1100 C   0  0  0  0  0  3  0  0  0  0  0  0
  -24.9700  -30.3640   21.3180 C   0  0  0  0  0  2  0  0  0  0  0  0
  -26.0540  -31.0320   23.4950 N   0  0  0  0  0  0  0  0  0  0  0  0
  -24.9280  -31.7400   25.3460 O   0  0  0  0  0  0  0  0  0  0  0  0
  -24.0290  -29.4870   23.4950 C   0  0  0  0  0  0  0  0  0  0  0  0
  -22.8410  -29.1270   22.9760 N   0  0  0  0  0  0  0  0  0  0  0  0
  -24.5420  -28.8970   24.4480 O   0  0  0  0  0  0  0  0  0  0  0  0
  -22.4780  -29.6670   22.2030 H   0  0  0  0  0  0  0  0  0  0  0  0
  -19.7850  -27.2900   22.3230 C   0  0  0  0  0  0  0  0  0  0  0  0
  -22.0110  -28.0040   23.4290 C   0  0  0  0  0  3  0  0  0  0  0  0
  -22.5750  -26.6550   22.9220 C   0  0  0  0  0  2  0  0  0  0  0  0
  -21.9520  -26.2000   21.5980 C   0  0  0  0  0  2  0  0  0  0  0  0
  -20.4350  -26.0440   21.7450 C   0  0  0  0  0  2  0  0  0  0  0  0
  -20.5290  -28.2170   23.1020 C   0  0  0  0  0  0  0  0  0  0  0  0
  -19.8830  -29.3710   23.5900 C   0  0  0  0  0  3  0  0  0  0  0  0
  -18.5220  -29.6090   23.3140 C   0  0  0  0  0  3  0  0  0  0  0  0
  -17.7870  -28.6800   22.5570 C   0  0  0  0  0  3  0  0  0  0  0  0
  -18.4170  -27.5230   22.0670 C   0  0  0  0  0  3  0  0  0  0  0  0
  -27.3010  -31.9480   25.5300 C   0  0  0  0  0  3  0  0  0  0  0  0
  -27.2090  -33.3820   25.8490 N   0  0  0  0  0  0  0  0  0  0  0  0
  -27.8280  -34.3590   25.1720 C   0  0  0  0  0  0  0  0  0  0  0  0
  -28.5970  -34.1330   24.2330 O   0  0  0  0  0  0  0  0  0  0  0  0
  -26.5430  -33.6450   26.5610 H   0  0  0  0  0  0  0  0  0  0  0  0
  -26.5590  -36.4660   24.6290 C   0  0  0  0  0  1  0  0  0  0  0  0
  -27.5550  -35.8130   25.6020 C   0  0  0  0  0  3  0  0  0  0  0  0
  -29.6760  -36.2430   26.7670 C   0  0  0  0  0  1  0  0  0  0  0  0
  -28.7770  -36.6430   25.6860 N   0  0  0  0  0  0  0  0  0  0  0  0
  -28.5410  -37.6220   25.8180 H   0  0  0  0  0  0  0  0  0  0  0  0
  -27.5250  -31.1050   26.8440 C   0  0  1  0  0  0  0  0  0  0  0  0
  -26.2550  -30.9680   27.7210 C   0  0  0  0  0  1  0  0  0  0  0  0
  -28.0140  -29.6770   26.5060 C   0  0  0  0  0  1  0  0  0  0  0  0
  -28.6350  -31.7580   27.7020 C   0  0  0  0  0  1  0  0  0  0  0  0
  1  5  1  0
  2  4  1  0
  3  1  2  0
  4  5  2  0
  4 53  1  0
  5 13  1  0
  6  3  1  0
  6  2  2  0
  7  3  1  0
  9  6  1  0
  9  8  1  0
 10 11  1  0
 11  9  1  0
 13 12  1  0
 13 14  1  0
 15 23  1  0
 16 21  1  0
 17 18  1  0
 17 16  1  0
 19 18  1  0
 19 28  1  0
 19 20  1  0
 21 15  1  0
 21 20  1  0
 22 15  2  0
 23 24  1  0
 23 14  1  0
 25 26  2  0
 26 45  1  0
 27 26  1  0
 27 30  1  0
 28 25  1  0
 28 29  1  0
 29 27  2  0
 30 31  1  0
 31 32  2  0
 33 36  1  0
 33 32  1  0
 34 33  2  0
 35 34  1  0
 35 30  2  0
 36 37  1  0
 37 42  2  0
 37 38  1  0
 38 39  2  0
 39 40  1  0
 40 44  1  0
 41 40  2  0
 42 41  1  0
 43 42  1  0
 45 46  1  0
 46 49  1  0
 46 48  1  0
 47 45  2  0
 50 51  1  0
 50 25  1  0
 52 50  1  0
 53 54  1  0
 55 57  1  0
 55 54  1  0
 56 67  2  0
 57 62  1  0
 58 66  1  0
 58 68  1  0
 59 65  1  0
 59 61  1  0
 60 66  1  0
 61 60  1  0
 62 61  2  0
 63 64  1  0
 63 57  2  0
 64 59  2  0
 65 58  1  0
 66 56  1  0
 68 70  2  0
 69 68  1  0
 71 69  1  0
 72 77  1  0
 73 69  1  0
 74 73  1  0
 75 76  1  0
 75 74  1  0
 76 72  1  0
 77 73  1  0
 77 78  2  0
 79 78  1  0
 80 79  2  0
 81 72  2  0
 81 80  1  0
 82 56  1  0
 82 83  1  0
 82 92  1  0
 83 86  1  0
 84 88  1  0
 84 83  1  0
 85 84  2  0
 88 87  1  0
 88 90  1  0
 90 91  1  0
 90 89  1  0
 92 95  1  1
 92 93  1  0
 94 92  1  0
M  ISO  4  15 100  23 100  54 101  55 101
M  END
>  <TORSDO>  (19) 
F 22

>  <SCORE>  (19) 
-9.523

>  <name>  (19) 
18

>  <ligand_id>  (19) 
18

>  <original_smiles>  (19) 
[H]c1c([H])c([H])c2c(c1[H])C([H])([H])C([H])([H])C([H])([H])C2([H])N([H])C(=O)C1([H])N(C(=O)C([H])(N([H])C(=O)C([H])(N([H])C([H])([H])[H])C([H])([H])[H])C(C([H])([H])[H])(C([H])([H])[H])C([H])([H])[H])C([H])([H])c2c([H])c(OC([H])([H])C([H])([H])c3c([H])c(C([H])(C([H])([H])[H])C([H])([H])C([H])([H])[H])c(C([H])([H])[H])c([H])c3C([H])(C([H])([H])[H])C([H])([H])N([H])C(=O)N3C([H])([H])C([H])([H])C([H])([H])C([H])(n4nc(-c5c([H])c([H])c(Oc6c([H])c([H])c(F)c([H])c6F)c([H])c5[H])c(C(=O)N([H])[H])c4N([H])[H])C3([H])[H])c([H])c([H])c2C1([H])[H]

>  <smiles>  (19) 
[H]c1c([H])c([H])c2c(c1[H])C([H])([H])C([H])([H])C([H])([H])C2([H])N([H])C(=O)C1([H])N(C(=O)C([H])(N([H])C(=O)C([H])(N([H])C([H])([H])[H])C([H])([H])[H])C(C([H])([H])[H])(C([H])([H])[H])C([H])([H])[H])C([H])([H])c2c([H])c(OC([H])([H])C([H])([H])c3c([H])c(C([H])(C([H])([H])[H])C([H])([H])C([H])([H])[H])c(C([H])([H])[H])c([H])c3C([H])(C([H])([H])[H])C([H])([H])N([H])C(=O)N3C([H])([H])C([H])([H])C([H])([H])C([H])(n4nc(-c5c([H])c([H])c(Oc6c([H])c([H])c(F)c([H])c6F)c([H])c5[H])c(C(=O)N([H])[H])c4N([H])[H])C3([H])[H])c([H])c([H])c2C1([H])[H]

$$$$
19:0:0
     RDKit          3D

 95103  0  0  1  0  0  0  0  0999 V2000
  -29.5170  -21.1850   21.9140 C   0  0  0  0  0  3  0  0  0  0  0  0
  -29.9530  -19.4740   19.8500 C   0  0  0  0  0  3  0  0  0  0  0  0
  -30.2830  -20.0190   22.1750 C   0  0  0  0  0  0  0  0  0  0  0  0
  -30.5440  -19.1000   21.0920 C   0  0  0  0  0  0  0  0  0  0  0  0
  -29.0360  -21.4670   20.6300 C   0  0  0  0  0  0  0  0  0  0  0  0
  -29.2540  -20.6110   19.6150 N   0  0  0  0  0  0  0  0  0  0  0  0
  -32.7010  -18.1280   22.0820 C   0  0  0  0  0  1  0  0  0  0  0  0
  -32.2160  -17.6590   19.7510 C   0  0  0  0  0  1  0  0  0  0  0  0
  -31.5190  -17.8530   21.1200 C   0  0  2  0  0  0  0  0  0  0  0  0
  -30.9120  -16.4660   21.5820 C   0  0  0  0  0  2  0  0  0  0  0  0
  -30.9220  -14.4140   20.0960 C   0  0  0  0  0  0  0  0  0  0  0  0
  -30.5340  -12.1720   19.1060 C   0  0  0  0  0  2  0  0  0  0  0  0
  -29.5590  -12.2560   17.9160 C   0  0  0  0  0  2  0  0  0  0  0  0
  -28.1020  -12.1530   18.4060 C   0  0  0  0  0  2  0  0  0  0  0  0
  -27.8030  -13.1120   19.5900 C   0  0  0  0  0  3  0  0  0  0  0  0
  -28.8930  -13.0140   20.6780 C   0  0  0  0  0  2  0  0  0  0  0  0
  -30.1910  -13.2640   20.0310 N   0  0  0  0  0  0  0  0  0  0  0  0
  -32.0530  -14.4890   19.6170 O   0  0  0  0  0  0  0  0  0  0  0  0
  -30.3090  -15.4920   20.6410 N   0  0  0  0  0  0  0  0  0  0  0  0
  -29.3160  -15.3710   20.7660 H   0  0  0  0  0  0  0  0  0  0  0  0
  -25.4960  -13.8220   20.4770 C   0  0  0  0  0  0  0  0  0  0  0  0
  -24.4070  -13.0960   20.8750 C   0  0  0  0  0  0  0  0  0  0  0  0
  -24.7790  -11.7220   20.7540 C   0  0  0  0  0  0  0  0  0  0  0  0
  -26.4680  -12.8920   20.1390 N   0  0  0  0  0  0  0  0  0  0  0  0
  -26.0440  -11.6210   20.3620 N   0  0  0  0  0  0  0  0  0  0  0  0
  -23.9850  -10.4990   20.9310 C   0  0  0  0  0  0  0  0  0  0  0  0
  -24.3980   -9.4710   21.8070 C   0  0  0  0  0  3  0  0  0  0  0  0
  -23.6100   -8.3130   21.9720 C   0  0  0  0  0  3  0  0  0  0  0  0
  -22.3940   -8.1740   21.2600 C   0  0  0  0  0  0  0  0  0  0  0  0
  -22.0000   -9.1900   20.3710 C   0  0  0  0  0  3  0  0  0  0  0  0
  -22.7880  -10.3400   20.2040 C   0  0  0  0  0  3  0  0  0  0  0  0
  -21.5760   -7.0740   21.3390 O   0  0  0  0  0  0  0  0  0  0  0  0
  -21.5180   -6.2980   22.4690 C   0  0  0  0  0  0  0  0  0  0  0  0
  -21.1540   -6.8350   23.7230 C   0  0  0  0  0  3  0  0  0  0  0  0
  -21.0400   -5.9870   24.8450 C   0  0  0  0  0  3  0  0  0  0  0  0
  -21.2810   -4.6070   24.7120 C   0  0  0  0  0  0  0  0  0  0  0  0
  -21.6390   -4.0710   23.4630 C   0  0  0  0  0  3  0  0  0  0  0  0
  -21.7550   -4.9140   22.3440 C   0  0  0  0  0  0  0  0  0  0  0  0
  -22.0800   -4.3890   21.1380 F   0  0  0  0  0  0  0  0  0  0  0  0
  -21.1640   -3.7920   25.7870 F   0  0  0  0  0  0  0  0  0  0  0  0
  -23.0610  -13.6440   21.2570 C   0  0  0  0  0  0  0  0  0  0  0  0
  -22.3460  -12.9560   22.1400 N   0  0  0  0  0  0  0  0  0  0  0  0
  -22.6590  -14.7160   20.8070 O   0  0  0  0  0  0  0  0  0  0  0  0
  -22.6870  -12.0890   22.5280 H   0  0  0  0  0  0  0  0  0  0  0  0
  -21.4440  -13.3040   22.4330 H   0  0  0  0  0  0  0  0  0  0  0  0
  -25.7360  -15.1870   20.3570 N   0  0  0  0  0  0  0  0  0  0  0  0
  -25.0110  -15.8770   20.5310 H   0  0  0  0  0  0  0  0  0  0  0  0
  -26.5910  -15.5950   19.9970 H   0  0  0  0  0  0  0  0  0  0  0  0
  -30.7830  -19.9100   23.6230 C   0  0  0  0  0  2  0  0  0  0  0  0
  -29.9860  -18.9320   25.8620 C   0  0  0  0  0  1  0  0  0  0  0  0
  -30.3270  -18.6540   24.3880 C   0  0  0  0  0  2  0  0  0  0  0  0
  -28.1250  -22.6760   20.3510 C   0  0  0  0  0  2  0  0  0  0  0  0
  -28.7450  -24.1150   20.3320 C   0  0  0  0  0  2  0  0  0  0  0  0
  -27.6640  -25.1590   19.9160 C   0  0  0  0  0  2  0  0  0  0  0  0
  -27.9550  -26.5850   19.9850 O   0  0  0  0  0  0  0  0  0  0  0  0
  -24.5430  -31.9670   23.2550 C   0  0  0  0  0  0  0  0  0  0  0  0
  -26.8460  -27.4330   19.9870 C   0  0  0  0  0  0  0  0  0  0  0  0
  -23.2040  -30.6320   21.6660 C   0  0  0  0  0  3  0  0  0  0  0  0
  -24.5250  -29.0760   20.1370 C   0  0  0  0  0  0  0  0  0  0  0  0
  -25.7340  -30.8900   21.3450 C   0  0  0  0  0  2  0  0  0  0  0  0
  -25.7360  -29.5240   20.6820 C   0  0  0  0  0  0  0  0  0  0  0  0
  -26.8980  -28.7110   20.6090 C   0  0  0  0  0  3  0  0  0  0  0  0
  -25.6170  -27.0420   19.4000 C   0  0  0  0  0  3  0  0  0  0  0  0
  -24.4640  -27.8370   19.4900 C   0  0  0  0  0  3  0  0  0  0  0  0
  -23.3180  -29.9760   20.2650 C   0  0  0  0  0  2  0  0  0  0  0  0
  -24.5160  -31.1780   22.1440 N   0  0  0  0  0  0  0  0  0  0  0  0
  -23.5020  -32.2690   23.8550 O   0  0  0  0  0  0  0  0  0  0  0  0
  -22.5700  -29.6160   22.6440 C   0  0  0  0  0  0  0  0  0  0  0  0
  -21.2530  -29.3910   22.5070 N   0  0  0  0  0  0  0  0  0  0  0  0
  -23.2590  -29.0360   23.4860 O   0  0  0  0  0  0  0  0  0  0  0  0
  -20.7560  -29.9150   21.8020 H   0  0  0  0  0  0  0  0  0  0  0  0
  -17.9370  -28.0030   22.8940 C   0  0  0  0  0  0  0  0  0  0  0  0
  -20.4520  -28.4520   23.2920 C   0  0  0  0  0  3  0  0  0  0  0  0
  -20.6810  -26.9960   22.8250 C   0  0  0  0  0  2  0  0  0  0  0  0
  -19.6650  -26.5330   21.7750 C   0  0  0  0  0  2  0  0  0  0  0  0
  -18.2400  -26.6260   22.3280 C   0  0  0  0  0  2  0  0  0  0  0  0
  -18.9760  -28.8660   23.3320 C   0  0  0  0  0  0  0  0  0  0  0  0
  -18.6410  -30.1490   23.8170 C   0  0  0  0  0  3  0  0  0  0  0  0
  -17.2990  -30.5700   23.8730 C   0  0  0  0  0  3  0  0  0  0  0  0
  -16.2730  -29.7050   23.4510 C   0  0  0  0  0  3  0  0  0  0  0  0
  -16.5930  -28.4240   22.9670 C   0  0  0  0  0  3  0  0  0  0  0  0
  -25.8810  -32.5450   23.8130 C   0  0  0  0  0  3  0  0  0  0  0  0
  -25.6280  -33.9380   24.2060 N   0  0  0  0  0  0  0  0  0  0  0  0
  -25.9520  -35.0070   23.4700 C   0  0  0  0  0  0  0  0  0  0  0  0
  -26.5710  -34.9230   22.4050 O   0  0  0  0  0  0  0  0  0  0  0  0
  -25.0760  -34.0760   25.0400 H   0  0  0  0  0  0  0  0  0  0  0  0
  -24.2540  -36.8530   23.2650 C   0  0  0  0  0  1  0  0  0  0  0  0
  -25.5250  -36.3910   23.9970 C   0  0  0  0  0  3  0  0  0  0  0  0
  -27.7250  -37.1940   24.7380 C   0  0  0  0  0  1  0  0  0  0  0  0
  -26.5760  -37.4220   23.8650 N   0  0  0  0  0  0  0  0  0  0  0  0
  -26.2020  -38.3460   24.0680 H   0  0  0  0  0  0  0  0  0  0  0  0
  -26.4560  -31.7170   25.0270 C   0  0  1  0  0  0  0  0  0  0  0  0
  -25.4220  -31.4530   26.1450 C   0  0  0  0  0  1  0  0  0  0  0  0
  -26.9940  -30.3480   24.5490 C   0  0  0  0  0  1  0  0  0  0  0  0
  -27.6520  -32.4700   25.6540 C   0  0  0  0  0  1  0  0  0  0  0  0
  1  3  1  0
  2  4  1  0
  3 49  1  0
  4  9  1  0
  4  3  2  0
  5  1  2  0
  6  2  2  0
  6  5  1  0
  9  8  1  6
  9 10  1  0
  9  7  1  0
 11 19  1  0
 12 17  1  0
 13 14  1  0
 13 12  1  0
 15 14  1  0
 15 24  1  0
 15 16  1  0
 17 11  1  0
 17 16  1  0
 18 11  2  0
 19 20  1  0
 19 10  1  0
 21 22  2  0
 22 41  1  0
 23 22  1  0
 23 26  1  0
 24 25  1  0
 24 21  1  0
 25 23  2  0
 26 27  1  0
 27 28  2  0
 29 32  1  0
 29 28  1  0
 30 29  2  0
 31 30  1  0
 31 26  2  0
 32 33  1  0
 33 34  1  0
 34 35  2  0
 36 35  1  0
 36 40  1  0
 37 36  2  0
 38 33  2  0
 38 37  1  0
 39 38  1  0
 41 42  1  0
 42 45  1  0
 42 44  1  0
 43 41  2  0
 46 21  1  0
 46 47  1  0
 48 46  1  0
 49 51  1  0
 51 50  1  0
 52  5  1  0
 53 52  1  0
 54 55  1  0
 54 53  1  0
 55 57  1  0
 56 67  2  0
 57 62  1  0
 58 66  1  0
 58 68  1  0
 59 65  1  0
 59 61  1  0
 60 66  1  0
 61 60  1  0
 62 61  2  0
 63 64  1  0
 63 57  2  0
 64 59  2  0
 65 58  1  0
 66 56  1  0
 68 70  2  0
 69 68  1  0
 71 69  1  0
 72 81  2  0
 72 77  1  0
 73 69  1  0
 73 77  1  0
 74 73  1  0
 75 76  1  0
 75 74  1  0
 76 72  1  0
 77 78  2  0
 78 79  1  0
 80 79  2  0
 81 80  1  0
 82 56  1  0
 82 83  1  0
 82 92  1  0
 83 86  1  0
 84 88  1  0
 84 83  1  0
 85 84  2  0
 88 87  1  0
 90 88  1  0
 90 91  1  0
 90 89  1  0
 92 95  1  1
 92 93  1  0
 94 92  1  0
M  ISO  4  11 100  19 100  54 101  55 101
M  END
>  <TORSDO>  (20) 
F 23

>  <SCORE>  (20) 
-8.523

>  <name>  (20) 
19

>  <ligand_id>  (20) 
19

>  <original_smiles>  (20) 
[H]c1nc(C([H])([H])C([H])([H])C([H])([H])Oc2c([H])c([H])c3c(c2[H])C([H])([H])N(C(=O)C([H])(N([H])C(=O)C([H])(N([H])C([H])([H])[H])C([H])([H])[H])C(C([H])([H])[H])(C([H])([H])[H])C([H])([H])[H])C([H])(C(=O)N([H])C2([H])c4c([H])c([H])c([H])c([H])c4C([H])([H])C([H])([H])C2([H])[H])C3([H])[H])c([H])c(C([H])([H])C([H])([H])C([H])([H])[H])c1C(C([H])([H])[H])(C([H])([H])[H])C([H])([H])N([H])C(=O)N1C([H])([H])C([H])([H])C([H])([H])C([H])(n2nc(-c3c([H])c([H])c(Oc4c([H])c([H])c(F)c([H])c4F)c([H])c3[H])c(C(=O)N([H])[H])c2N([H])[H])C1([H])[H]

>  <smiles>  (20) 
[H]c1nc(C([H])([H])C([H])([H])C([H])([H])Oc2c([H])c([H])c3c(c2[H])C([H])([H])N(C(=O)C([H])(N([H])C(=O)C([H])(N([H])C([H])([H])[H])C([H])([H])[H])C(C([H])([H])[H])(C([H])([H])[H])C([H])([H])[H])C([H])(C(=O)N([H])C2([H])c4c([H])c([H])c([H])c([H])c4C([H])([H])C([H])([H])C2([H])[H])C3([H])[H])c([H])c(C([H])([H])C([H])([H])C([H])([H])[H])c1C(C([H])([H])[H])(C([H])([H])[H])C([H])([H])N([H])C(=O)N1C([H])([H])C([H])([H])C([H])([H])C([H])(n2nc(-c3c([H])c([H])c(Oc4c([H])c([H])c(F)c([H])c4F)c([H])c3[H])c(C(=O)N([H])[H])c2N([H])[H])C1([H])[H]

$$$$
21:0:0
     RDKit          3D

 92100  0  0  1  0  0  0  0  0999 V2000
  -30.0850  -20.1200   19.8930 C   0  0  0  0  0  3  0  0  0  0  0  0
  -27.5630  -19.2160   19.4870 C   0  0  0  0  0  3  0  0  0  0  0  0
  -29.1180  -21.1130   19.4790 C   0  0  0  0  0  0  0  0  0  0  0  0
  -27.8080  -20.5950   19.2620 C   0  0  0  0  0  0  0  0  0  0  0  0
  -29.7500  -18.7230   20.0470 C   0  0  0  0  0  0  0  0  0  0  0  0
  -28.4880  -18.3040   19.8540 N   0  0  0  0  0  0  0  0  0  0  0  0
  -25.4660  -21.5510   19.6390 C   0  0  0  0  0  1  0  0  0  0  0  0
  -26.2290  -20.8950   17.3140 C   0  0  0  0  0  1  0  0  0  0  0  0
  -26.6650  -21.4360   18.6820 C   0  0  0  0  0  3  0  0  0  0  0  0
  -29.5200  -22.5910   19.0390 C   0  0  0  0  0  2  0  0  0  0  0  0
  -29.1820  -23.9460   19.8570 C   0  0  0  0  0  3  0  0  0  0  0  0
  -28.9030  -25.2700   18.9720 C   0  0  0  0  0  3  0  0  0  0  0  0
  -28.7650  -26.6450   19.5560 O   0  0  0  0  0  0  0  0  0  0  0  0
  -24.6350  -31.5320   22.9480 C   0  0  0  0  0  0  0  0  0  0  0  0
  -27.5700  -27.4030   19.5380 C   0  0  0  0  0  0  0  0  0  0  0  0
  -23.5340  -30.1810   21.2000 C   0  0  0  0  0  3  0  0  0  0  0  0
  -25.0880  -28.8580   19.6540 C   0  0  0  0  0  0  0  0  0  0  0  0
  -26.0450  -30.6890   21.0500 C   0  0  0  0  0  2  0  0  0  0  0  0
  -26.2230  -29.3740   20.2930 C   0  0  0  0  0  0  0  0  0  0  0  0
  -27.4580  -28.6580   20.2290 C   0  0  0  0  0  3  0  0  0  0  0  0
  -26.4000  -26.9520   18.8800 C   0  0  0  0  0  3  0  0  0  0  0  0
  -25.1830  -27.6550   18.9420 C   0  0  0  0  0  3  0  0  0  0  0  0
  -23.7900  -29.6340   19.7720 C   0  0  0  0  0  2  0  0  0  0  0  0
  -24.7560  -30.8170   21.7890 N   0  0  0  0  0  0  0  0  0  0  0  0
  -23.5350  -31.6860   23.4970 O   0  0  0  0  0  0  0  0  0  0  0  0
  -22.9510  -29.0450   22.0760 C   0  0  0  0  0  0  0  0  0  0  0  0
  -21.6350  -28.8020   21.9540 N   0  0  0  0  0  0  0  0  0  0  0  0
  -23.6810  -28.3870   22.8210 O   0  0  0  0  0  0  0  0  0  0  0  0
  -21.0950  -29.4100   21.3520 H   0  0  0  0  0  0  0  0  0  0  0  0
  -18.3450  -27.3550   22.3780 C   0  0  0  0  0  0  0  0  0  0  0  0
  -20.8890  -27.7430   22.6340 C   0  0  0  0  0  3  0  0  0  0  0  0
  -21.0620  -26.3850   21.9120 C   0  0  0  0  0  2  0  0  0  0  0  0
  -19.9560  -26.0950   20.8930 C   0  0  0  0  0  2  0  0  0  0  0  0
  -18.5870  -26.0860   21.5780 C   0  0  0  0  0  2  0  0  0  0  0  0
  -19.4260  -28.1420   22.8600 C   0  0  0  0  0  0  0  0  0  0  0  0
  -19.1460  -29.3310   23.5650 C   0  0  0  0  0  3  0  0  0  0  0  0
  -17.8200  -29.7380   23.7940 C   0  0  0  0  0  3  0  0  0  0  0  0
  -16.7540  -28.9490   23.3300 C   0  0  0  0  0  3  0  0  0  0  0  0
  -17.0160  -27.7590   22.6280 C   0  0  0  0  0  3  0  0  0  0  0  0
  -25.8680  -32.2040   23.6250 C   0  0  0  0  0  3  0  0  0  0  0  0
  -25.4630  -33.5490   24.0560 N   0  0  0  0  0  0  0  0  0  0  0  0
  -25.7520  -34.6790   23.3970 C   0  0  0  0  0  0  0  0  0  0  0  0
  -26.4590  -34.7000   22.3860 O   0  0  0  0  0  0  0  0  0  0  0  0
  -24.8320  -33.6030   24.8430 H   0  0  0  0  0  0  0  0  0  0  0  0
  -23.9250  -36.3860   23.1260 C   0  0  0  0  0  1  0  0  0  0  0  0
  -25.1660  -35.9950   23.9440 C   0  0  0  0  0  3  0  0  0  0  0  0
  -27.2200  -36.9320   24.9100 C   0  0  0  0  0  1  0  0  0  0  0  0
  -26.1360  -37.1130   23.9470 N   0  0  0  0  0  0  0  0  0  0  0  0
  -25.6720  -37.9950   24.1550 H   0  0  0  0  0  0  0  0  0  0  0  0
  -26.4300  -31.3780   24.8490 C   0  0  1  0  0  0  0  0  0  0  0  0
  -25.3540  -30.9950   25.8910 C   0  0  0  0  0  1  0  0  0  0  0  0
  -27.1010  -30.0710   24.3660 C   0  0  0  0  0  1  0  0  0  0  0  0
  -27.5290  -32.1940   25.5700 C   0  0  0  0  0  1  0  0  0  0  0  0
  -30.7760  -17.5750   20.3860 C   0  0  0  0  0  2  0  0  0  0  0  0
  -31.0320  -15.0470   20.7830 C   0  0  0  0  0  0  0  0  0  0  0  0
  -30.9330  -12.6680   20.0650 C   0  0  0  0  0  2  0  0  0  0  0  0
  -30.1640  -12.5770   18.7300 C   0  0  0  0  0  2  0  0  0  0  0  0
  -28.6500  -12.4520   18.9860 C   0  0  0  0  0  2  0  0  0  0  0  0
  -28.1260  -13.4880   20.0170 C   0  0  0  0  0  3  0  0  0  0  0  0
  -29.0280  -13.5640   21.2680 C   0  0  0  0  0  2  0  0  0  0  0  0
  -30.3960  -13.8320   20.8080 N   0  0  0  0  0  0  0  0  0  0  0  0
  -32.2430  -15.1100   20.5610 O   0  0  0  0  0  0  0  0  0  0  0  0
  -30.2800  -16.1960   20.7730 N   0  0  0  0  0  0  0  0  0  0  0  0
  -29.2870  -16.1290   20.9370 H   0  0  0  0  0  0  0  0  0  0  0  0
  -25.6860  -14.1540   20.4570 C   0  0  0  0  0  0  0  0  0  0  0  0
  -24.5690  -13.4180   20.7360 C   0  0  0  0  0  0  0  0  0  0  0  0
  -24.9990  -12.0570   20.8060 C   0  0  0  0  0  0  0  0  0  0  0  0
  -26.7290  -13.2460   20.3680 N   0  0  0  0  0  0  0  0  0  0  0  0
  -26.3140  -11.9810   20.6410 N   0  0  0  0  0  0  0  0  0  0  0  0
  -24.2260  -10.8180   20.9620 C   0  0  0  0  0  0  0  0  0  0  0  0
  -24.5820   -9.8400   21.9150 C   0  0  0  0  0  3  0  0  0  0  0  0
  -23.8120   -8.6660   22.0580 C   0  0  0  0  0  3  0  0  0  0  0  0
  -22.6700   -8.4620   21.2480 C   0  0  0  0  0  0  0  0  0  0  0  0
  -22.3320   -9.4290   20.2840 C   0  0  0  0  0  3  0  0  0  0  0  0
  -23.1040  -10.5940   20.1390 C   0  0  0  0  0  3  0  0  0  0  0  0
  -21.8750   -7.3410   21.3010 O   0  0  0  0  0  0  0  0  0  0  0  0
  -21.8290   -6.5440   22.4160 C   0  0  0  0  0  0  0  0  0  0  0  0
  -21.4880   -7.0560   23.6860 C   0  0  0  0  0  3  0  0  0  0  0  0
  -21.3850   -6.1880   24.7920 C   0  0  0  0  0  3  0  0  0  0  0  0
  -21.6130   -4.8080   24.6300 C   0  0  0  0  0  0  0  0  0  0  0  0
  -21.9490   -4.2960   23.3650 C   0  0  0  0  0  3  0  0  0  0  0  0
  -22.0540   -5.1600   22.2610 C   0  0  0  0  0  0  0  0  0  0  0  0
  -22.3560   -4.6570   21.0400 F   0  0  0  0  0  0  0  0  0  0  0  0
  -21.5080   -3.9730   25.6890 F   0  0  0  0  0  0  0  0  0  0  0  0
  -23.1620  -13.9330   20.8380 C   0  0  0  0  0  0  0  0  0  0  0  0
  -22.3370  -13.3010   21.6620 N   0  0  0  0  0  0  0  0  0  0  0  0
  -22.8010  -14.9310   20.2160 O   0  0  0  0  0  0  0  0  0  0  0  0
  -22.6390  -12.4940   22.1900 H   0  0  0  0  0  0  0  0  0  0  0  0
  -21.3860  -13.6230   21.7690 H   0  0  0  0  0  0  0  0  0  0  0  0
  -25.9040  -15.5150   20.2500 N   0  0  0  0  0  0  0  0  0  0  0  0
  -25.1480  -16.1920   20.2460 H   0  0  0  0  0  0  0  0  0  0  0  0
  -26.8010  -15.9280   20.0290 H   0  0  0  0  0  0  0  0  0  0  0  0
  1  5  1  0
  2  6  1  0
  3  1  2  0
  4  3  1  0
  4  2  2  0
  5 54  1  0
  6  5  2  0
  8  9  1  0
  9  4  1  0
  9  7  1  0
 10  3  1  0
 10 11  1  0
 12 13  1  0
 12 11  2  0
 14 25  2  0
 15 13  1  0
 15 20  1  0
 16 24  1  0
 16 26  1  0
 17 23  1  0
 17 19  1  0
 18 24  1  0
 19 18  1  0
 20 19  2  0
 21 22  1  0
 21 15  2  0
 22 17  2  0
 23 16  1  0
 24 14  1  0
 26 28  2  0
 27 26  1  0
 29 27  1  0
 30 39  2  0
 30 35  1  0
 31 27  1  0
 31 35  1  0
 32 31  1  0
 33 34  1  0
 33 32  1  0
 34 30  1  0
 35 36  2  0
 36 37  1  0
 38 37  2  0
 39 38  1  0
 40 14  1  0
 40 41  1  0
 40 50  1  0
 41 44  1  0
 42 46  1  0
 42 41  1  0
 43 42  2  0
 46 45  1  0
 46 48  1  0
 48 49  1  0
 48 47  1  0
 50 53  1  1
 50 51  1  0
 52 50  1  0
 54 63  1  0
 55 61  1  0
 56 61  1  0
 57 58  1  0
 57 56  1  0
 59 58  1  0
 59 68  1  0
 59 60  1  0
 61 60  1  0
 62 55  2  0
 63 55  1  0
 63 64  1  0
 65 66  2  0
 66 67  1  0
 66 85  1  0
 67 70  1  0
 68 65  1  0
 68 69  1  0
 69 67  2  0
 70 71  1  0
 71 72  2  0
 73 76  1  0
 73 72  1  0
 74 73  2  0
 75 74  1  0
 75 70  2  0
 76 77  1  0
 77 78  1  0
 78 79  2  0
 80 79  1  0
 80 84  1  0
 81 80  2  0
 82 77  2  0
 82 81  1  0
 83 82  1  0
 85 86  1  0
 86 89  1  0
 86 88  1  0
 87 85  2  0
 90 65  1  0
 91 90  1  0
 92 90  1  0
M  ISO  4  12 101  13 101  55 100  63 100
M  END
>  <TORSDO>  (21) 
F 21

>  <SCORE>  (21) 
-11.092

>  <name>  (21) 
21

>  <ligand_id>  (21) 
21

>  <original_smiles>  (21) 
[H]c1nc(C([H])([H])N([H])C(=O)N2C([H])([H])C([H])([H])C([H])([H])C([H])(n3nc(-c4c([H])c([H])c(Oc5c([H])c([H])c(F)c([H])c5F)c([H])c4[H])c(C(=O)N([H])[H])c3N([H])[H])C2([H])[H])c([H])c(C([H])([H])C([H])([H])C([H])([H])Oc2c([H])c([H])c3c(c2[H])C([H])([H])N(C(=O)C([H])(N([H])C(=O)C([H])(N([H])C([H])([H])[H])C([H])([H])[H])C(C([H])([H])[H])(C([H])([H])[H])C([H])([H])[H])C([H])(C(=O)N([H])C2([H])c4c([H])c([H])c([H])c([H])c4C([H])([H])C([H])([H])C2([H])[H])C3([H])[H])c1C([H])(C([H])([H])[H])C([H])([H])[H]

>  <smiles>  (21) 
[H]c1nc(C([H])([H])N([H])C(=O)N2C([H])([H])C([H])([H])C([H])([H])C([H])(n3nc(-c4c([H])c([H])c(Oc5c([H])c([H])c(F)c([H])c5F)c([H])c4[H])c(C(=O)N([H])[H])c3N([H])[H])C2([H])[H])c([H])c(C([H])([H])C([H])([H])C([H])([H])Oc2c([H])c([H])c3c(c2[H])C([H])([H])N(C(=O)C([H])(N([H])C(=O)C([H])(N([H])C([H])([H])[H])C([H])([H])[H])C(C([H])([H])[H])(C([H])([H])[H])C([H])([H])[H])C([H])(C(=O)N([H])C2([H])c4c([H])c([H])c([H])c([H])c4C([H])([H])C([H])([H])C2([H])[H])C3([H])[H])c1C([H])(C([H])([H])[H])C([H])([H])[H]

$$$$
22:0:0
     RDKit          3D

 99107  0  0  1  0  0  0  0  0999 V2000
  -26.9850  -22.7850   21.1620 C   0  0  0  0  0  0  0  0  0  0  0  0
  -27.0990  -23.1920   19.7640 C   0  0  0  0  0  0  0  0  0  0  0  0
  -27.9300  -21.7960   21.2610 C   0  0  0  0  0  0  0  0  0  0  0  0
  -28.2840  -20.9740   22.4760 C   0  0  0  0  0  1  0  0  0  0  0  0
  -28.0850  -22.5350   19.1460 N   0  0  0  0  0  0  0  0  0  0  0  0
  -28.6010  -21.6620   20.0390 N   0  0  0  0  0  0  0  0  0  0  0  0
  -26.1720  -23.4260   22.3410 C   0  0  0  0  0  2  0  0  0  0  0  0
  -26.2640  -24.9680   22.4780 C   0  0  0  0  0  2  0  0  0  0  0  0
  -26.5460  -25.4780   23.9140 C   0  0  0  0  0  2  0  0  0  0  0  0
  -29.0570  -25.9200   23.6940 C   0  0  0  0  0  1  0  0  0  0  0  0
  -27.7450  -26.9670   25.5850 C   0  0  0  0  0  1  0  0  0  0  0  0
  -27.6890  -26.4820   24.1180 C   0  0  0  0  0  3  0  0  0  0  0  0
  -26.3940  -24.3490   19.0450 C   0  0  0  0  0  2  0  0  0  0  0  0
  -26.5110  -24.4240   17.4910 C   0  0  0  0  0  2  0  0  0  0  0  0
  -26.5900  -25.8050   16.7210 C   0  0  0  0  0  2  0  0  0  0  0  0
  -27.6720  -26.9940   16.9900 C   0  0  0  0  0  2  0  0  0  0  0  0
  -27.9750  -27.8720   18.1760 O   0  0  0  0  0  0  0  0  0  0  0  0
  -24.6950  -31.4010   23.6540 C   0  0  0  0  0  0  0  0  0  0  0  0
  -26.9810  -28.6620   18.7390 C   0  0  0  0  0  0  0  0  0  0  0  0
  -23.4080  -30.9220   21.6100 C   0  0  0  0  0  3  0  0  0  0  0  0
  -24.7600  -30.1960   19.6060 C   0  0  0  0  0  0  0  0  0  0  0  0
  -25.9590  -31.2990   21.4640 C   0  0  0  0  0  2  0  0  0  0  0  0
  -25.9880  -30.3470   20.2670 C   0  0  0  0  0  0  0  0  0  0  0  0
  -27.1300  -29.6020   19.8140 C   0  0  0  0  0  3  0  0  0  0  0  0
  -25.6860  -28.4660   18.2550 C   0  0  0  0  0  3  0  0  0  0  0  0
  -24.6210  -29.2480   18.6030 C   0  0  0  0  0  3  0  0  0  0  0  0
  -23.5680  -30.9770   20.0770 C   0  0  0  0  0  2  0  0  0  0  0  0
  -24.7190  -31.1850   22.3130 N   0  0  0  0  0  0  0  0  0  0  0  0
  -23.6210  -31.3960   24.3000 O   0  0  0  0  0  0  0  0  0  0  0  0
  -22.8090  -29.5490   22.0050 C   0  0  0  0  0  0  0  0  0  0  0  0
  -21.4800  -29.3890   21.8490 N   0  0  0  0  0  0  0  0  0  0  0  0
  -23.5110  -28.6520   22.4870 O   0  0  0  0  0  0  0  0  0  0  0  0
  -20.9520  -30.1330   21.4060 H   0  0  0  0  0  0  0  0  0  0  0  0
  -18.1570  -27.8930   22.1240 C   0  0  0  0  0  0  0  0  0  0  0  0
  -20.7430  -28.1670   22.2160 C   0  0  0  0  0  3  0  0  0  0  0  0
  -20.7810  -27.1550   21.0570 C   0  0  0  0  0  2  0  0  0  0  0  0
  -19.5010  -27.1680   20.1640 C   0  0  0  0  0  2  0  0  0  0  0  0
  -18.2930  -26.8530   21.0440 C   0  0  0  0  0  2  0  0  0  0  0  0
  -19.3030  -28.4900   22.7190 C   0  0  0  0  0  0  0  0  0  0  0  0
  -19.1140  -29.3880   23.7920 C   0  0  0  0  0  3  0  0  0  0  0  0
  -17.8270  -29.6780   24.2650 C   0  0  0  0  0  3  0  0  0  0  0  0
  -16.6830  -29.1240   23.6320 C   0  0  0  0  0  3  0  0  0  0  0  0
  -16.8620  -28.2320   22.5540 C   0  0  0  0  0  3  0  0  0  0  0  0
  -25.9880  -31.7350   24.4380 C   0  0  0  0  0  3  0  0  0  0  0  0
  -25.7830  -33.0400   25.0830 N   0  0  0  0  0  0  0  0  0  0  0  0
  -26.4310  -34.1660   24.7570 C   0  0  0  0  0  0  0  0  0  0  0  0
  -27.3320  -34.2030   23.9180 O   0  0  0  0  0  0  0  0  0  0  0  0
  -25.0100  -33.1010   25.7260 H   0  0  0  0  0  0  0  0  0  0  0  0
  -25.1460  -36.3250   24.5310 C   0  0  0  0  0  1  0  0  0  0  0  0
  -26.0140  -35.4720   25.4700 C   0  0  0  0  0  3  0  0  0  0  0  0
  -27.9110  -35.6020   27.0250 C   0  0  0  0  0  1  0  0  0  0  0  0
  -27.1670  -36.2660   25.9570 N   0  0  0  0  0  0  0  0  0  0  0  0
  -26.8570  -37.1730   26.2980 H   0  0  0  0  0  0  0  0  0  0  0  0
  -26.3770  -30.6390   25.4920 C   0  0  1  0  0  0  0  0  0  0  0  0
  -25.2080  -30.2040   26.4030 C   0  0  0  0  0  1  0  0  0  0  0  0
  -26.9080  -29.3780   24.7780 C   0  0  0  0  0  1  0  0  0  0  0  0
  -27.5280  -31.1630   26.3870 C   0  0  0  0  0  1  0  0  0  0  0  0
  -29.7990  -20.7960   19.7320 C   0  0  0  0  0  2  0  0  0  0  0  0
  -28.0890  -19.3920   18.5850 C   0  0  0  0  0  1  0  0  0  0  0  0
  -29.5960  -19.4970   18.8590 C   0  0  0  0  0  3  0  0  0  0  0  0
  -30.1890  -18.1770   19.5530 C   0  0  0  0  0  2  0  0  0  0  0  0
  -31.9340  -16.3050   19.3540 C   0  0  0  0  0  0  0  0  0  0  0  0
  -31.9370  -13.8400   18.9970 C   0  0  0  0  0  2  0  0  0  0  0  0
  -31.0580  -13.5420   17.7630 C   0  0  0  0  0  2  0  0  0  0  0  0
  -29.5810  -13.4050   18.1820 C   0  0  0  0  0  2  0  0  0  0  0  0
  -29.1080  -14.5240   19.1500 C   0  0  0  0  0  3  0  0  0  0  0  0
  -30.1360  -14.7640   20.2820 C   0  0  0  0  0  2  0  0  0  0  0  0
  -31.4070  -15.0700   19.6230 N   0  0  0  0  0  0  0  0  0  0  0  0
  -33.1460  -16.3770   19.1220 O   0  0  0  0  0  0  0  0  0  0  0  0
  -31.4410  -17.6650   17.4050 C   0  0  0  0  0  1  0  0  0  0  0  0
  -31.0900  -17.2270   18.7830 N   0  0  0  0  0  0  0  0  0  0  0  0
  -26.7340  -15.1210   19.8820 C   0  0  0  0  0  0  0  0  0  0  0  0
  -25.6860  -14.3710   20.3400 C   0  0  0  0  0  0  0  0  0  0  0  0
  -26.1680  -13.0350   20.3820 C   0  0  0  0  0  0  0  0  0  0  0  0
  -27.7830  -14.2460   19.6800 N   0  0  0  0  0  0  0  0  0  0  0  0
  -27.4540  -12.9830   20.0510 N   0  0  0  0  0  0  0  0  0  0  0  0
  -25.4580  -11.7830   20.6720 C   0  0  0  0  0  0  0  0  0  0  0  0
  -25.7040  -11.0370   21.8450 C   0  0  0  0  0  3  0  0  0  0  0  0
  -24.9850   -9.8470   22.0990 C   0  0  0  0  0  3  0  0  0  0  0  0
  -24.0200   -9.3860   21.1730 C   0  0  0  0  0  0  0  0  0  0  0  0
  -23.8040  -10.1140   19.9920 C   0  0  0  0  0  3  0  0  0  0  0  0
  -24.5240  -11.2950   19.7380 C   0  0  0  0  0  3  0  0  0  0  0  0
  -23.2980   -8.2270   21.3260 O   0  0  0  0  0  0  0  0  0  0  0  0
  -22.6830   -7.9230   22.5140 C   0  0  0  0  0  0  0  0  0  0  0  0
  -21.7100   -8.7670   23.0920 C   0  0  0  0  0  3  0  0  0  0  0  0
  -21.0540   -8.3760   24.2760 C   0  0  0  0  0  3  0  0  0  0  0  0
  -21.3730   -7.1490   24.8840 C   0  0  0  0  0  0  0  0  0  0  0  0
  -22.3360   -6.3030   24.3040 C   0  0  0  0  0  3  0  0  0  0  0  0
  -22.9940   -6.6940   23.1270 C   0  0  0  0  0  0  0  0  0  0  0  0
  -23.9090   -5.8690   22.5650 F   0  0  0  0  0  0  0  0  0  0  0  0
  -20.7320   -6.7690   26.0150 F   0  0  0  0  0  0  0  0  0  0  0  0
  -24.2990  -14.8650   20.6250 C   0  0  0  0  0  0  0  0  0  0  0  0
  -23.6340  -14.2760   21.6180 N   0  0  0  0  0  0  0  0  0  0  0  0
  -23.8200  -15.8160   20.0160 O   0  0  0  0  0  0  0  0  0  0  0  0
  -24.0390  -13.5140   22.1360 H   0  0  0  0  0  0  0  0  0  0  0  0
  -22.7070  -14.6010   21.8560 H   0  0  0  0  0  0  0  0  0  0  0  0
  -26.8390  -16.4550   19.5880 N   0  0  0  0  0  0  0  0  0  0  0  0
  -26.0710  -17.1000   19.7410 H   0  0  0  0  0  0  0  0  0  0  0  0
  -27.7060  -16.9150   19.3370 H   0  0  0  0  0  0  0  0  0  0  0  0
  1  3  2  0
  1  7  1  0
  2  1  1  0
  3  4  1  0
  5  2  2  0
  5  6  1  0
  6  3  1  0
  7  8  1  0
  8  9  1  0
  9 12  1  0
 10 12  1  0
 12 11  1  0
 13  2  1  0
 14 13  1  0
 15 16  1  0
 15 14  1  0
 16 17  1  0
 17 19  1  0
 18 29  2  0
 19 24  1  0
 20 30  1  0
 20 28  1  0
 21 27  1  0
 21 23  1  0
 22 28  1  0
 23 22  1  0
 24 23  2  0
 25 26  1  0
 25 19  2  0
 26 21  2  0
 27 20  1  0
 28 18  1  0
 30 32  2  0
 31 30  1  0
 33 31  1  0
 34 43  2  0
 34 39  1  0
 35 31  1  0
 35 39  1  0
 36 35  1  0
 37 38  1  0
 37 36  1  0
 38 34  1  0
 39 40  2  0
 40 41  1  0
 42 41  2  0
 43 42  1  0
 44 18  1  0
 44 45  1  0
 44 54  1  0
 45 48  1  0
 46 45  1  0
 46 50  1  0
 47 46  2  0
 50 49  1  0
 50 52  1  0
 52 53  1  0
 52 51  1  0
 54 57  1  1
 54 55  1  0
 56 54  1  0
 58  6  1  0
 60 59  1  0
 60 61  1  0
 60 58  1  0
 62 68  1  0
 63 68  1  0
 64 65  1  0
 64 63  1  0
 66 65  1  0
 66 75  1  0
 66 67  1  0
 68 67  1  0
 69 62  2  0
 70 71  1  0
 71 62  1  0
 71 61  1  0
 72 73  2  0
 73 74  1  0
 73 92  1  0
 74 77  1  0
 75 72  1  0
 75 76  1  0
 76 74  2  0
 77 78  1  0
 78 79  2  0
 80 83  1  0
 80 79  1  0
 81 80  2  0
 82 81  1  0
 82 77  2  0
 83 84  1  0
 84 85  2  0
 84 89  1  0
 85 86  1  0
 86 87  2  0
 87 91  1  0
 88 87  1  0
 89 88  2  0
 90 89  1  0
 92 93  1  0
 93 96  1  0
 93 95  1  0
 94 92  2  0
 97 98  1  0
 97 72  1  0
 99 97  1  0
M  ISO  4  16 101  17 101  62 100  71 100
M  END
>  <TORSDO>  (22) 
F 27

>  <SCORE>  (22) 
-2.457

>  <name>  (22) 
22

>  <ligand_id>  (22) 
22

>  <original_smiles>  (22) 
[H]c1c([H])c([H])c2c(c1[H])C([H])([H])C([H])([H])C([H])([H])C2([H])N([H])C(=O)C1([H])N(C(=O)C([H])(N([H])C(=O)C([H])(N([H])C([H])([H])[H])C([H])([H])[H])C(C([H])([H])[H])(C([H])([H])[H])C([H])([H])[H])C([H])([H])c2c([H])c(OC([H])([H])C([H])([H])C([H])([H])C([H])([H])c3nn(C([H])([H])C([H])(C([H])([H])[H])C([H])([H])N(C(=O)N4C([H])([H])C([H])([H])C([H])([H])C([H])(n5nc(-c6c([H])c([H])c(Oc7c([H])c([H])c(F)c([H])c7F)c([H])c6[H])c(C(=O)N([H])[H])c5N([H])[H])C4([H])[H])C([H])([H])[H])c(C([H])([H])[H])c3C([H])([H])C([H])([H])C([H])([H])C([H])(C([H])([H])[H])C([H])([H])[H])c([H])c([H])c2C1([H])[H]

>  <smiles>  (22) 
[H]c1c([H])c([H])c2c(c1[H])C([H])([H])C([H])([H])C([H])([H])C2([H])N([H])C(=O)C1([H])N(C(=O)C([H])(N([H])C(=O)C([H])(N([H])C([H])([H])[H])C([H])([H])[H])C(C([H])([H])[H])(C([H])([H])[H])C([H])([H])[H])C([H])([H])c2c([H])c(OC([H])([H])C([H])([H])C([H])([H])C([H])([H])c3nn(C([H])([H])C([H])(C([H])([H])[H])C([H])([H])N(C(=O)N4C([H])([H])C([H])([H])C([H])([H])C([H])(n5nc(-c6c([H])c([H])c(Oc7c([H])c([H])c(F)c([H])c7F)c([H])c6[H])c(C(=O)N([H])[H])c5N([H])[H])C4([H])[H])C([H])([H])[H])c(C([H])([H])[H])c3C([H])([H])C([H])([H])C([H])([H])C([H])(C([H])([H])[H])C([H])([H])[H])c([H])c([H])c2C1([H])[H]

$$$$
23:0:0
     RDKit          3D

101109  0  0  1  0  0  0  0  0999 V2000
  -30.3340  -20.5230   20.8940 C   0  0  0  0  0  3  0  0  0  0  0  0
  -29.6400  -21.5210   20.2430 C   0  0  0  0  0  0  0  0  0  0  0  0
  -29.6250  -21.1260   18.8650 C   0  0  0  0  0  0  0  0  0  0  0  0
  -30.2050  -19.8770   18.7610 C   0  0  0  0  0  0  0  0  0  0  0  0
  -30.7320  -19.5220   19.9990 N   0  0  0  0  0  0  0  0  0  0  0  0
  -30.0730  -22.7050   16.9350 C   0  0  0  0  0  1  0  0  0  0  0  0
  -29.0190  -21.9200   17.7290 C   0  0  0  0  0  2  0  0  0  0  0  0
  -28.9040  -22.7290   20.8840 C   0  0  0  0  0  2  0  0  0  0  0  0
  -29.3560  -24.2150   20.6190 C   0  0  0  0  0  2  0  0  0  0  0  0
  -28.1870  -25.2570   20.8070 C   0  0  0  0  0  2  0  0  0  0  0  0
  -28.4220  -26.6680   20.4920 O   0  0  0  0  0  0  0  0  0  0  0  0
  -24.5130  -31.9920   23.3450 C   0  0  0  0  0  0  0  0  0  0  0  0
  -27.2840  -27.4690   20.4220 C   0  0  0  0  0  0  0  0  0  0  0  0
  -23.3670  -30.5380   21.7080 C   0  0  0  0  0  3  0  0  0  0  0  0
  -24.8820  -28.9980   20.3360 C   0  0  0  0  0  0  0  0  0  0  0  0
  -25.9010  -30.9080   21.5750 C   0  0  0  0  0  2  0  0  0  0  0  0
  -26.0210  -29.5220   20.9610 C   0  0  0  0  0  0  0  0  0  0  0  0
  -27.2250  -28.7650   21.0050 C   0  0  0  0  0  3  0  0  0  0  0  0
  -26.1340  -26.9940   19.7520 C   0  0  0  0  0  3  0  0  0  0  0  0
  -24.9390  -27.7380   19.7200 C   0  0  0  0  0  3  0  0  0  0  0  0
  -23.6210  -29.8380   20.3470 C   0  0  0  0  0  2  0  0  0  0  0  0
  -24.6100  -31.1630   22.2660 N   0  0  0  0  0  0  0  0  0  0  0  0
  -23.4160  -32.2650   23.8510 O   0  0  0  0  0  0  0  0  0  0  0  0
  -22.7060  -29.5280   22.6760 C   0  0  0  0  0  0  0  0  0  0  0  0
  -21.3880  -29.3210   22.5170 N   0  0  0  0  0  0  0  0  0  0  0  0
  -23.3770  -28.9360   23.5230 O   0  0  0  0  0  0  0  0  0  0  0  0
  -20.9070  -29.8520   21.8060 H   0  0  0  0  0  0  0  0  0  0  0  0
  -18.0190  -28.0810   22.9420 C   0  0  0  0  0  0  0  0  0  0  0  0
  -20.5640  -28.3870   23.2850 C   0  0  0  0  0  3  0  0  0  0  0  0
  -20.7080  -26.9470   22.7410 C   0  0  0  0  0  2  0  0  0  0  0  0
  -19.6400  -26.5860   21.7040 C   0  0  0  0  0  2  0  0  0  0  0  0
  -18.2380  -26.7190   22.3040 C   0  0  0  0  0  2  0  0  0  0  0  0
  -19.1110  -28.8710   23.3870 C   0  0  0  0  0  0  0  0  0  0  0  0
  -18.8560  -30.1430   23.9400 C   0  0  0  0  0  3  0  0  0  0  0  0
  -17.5400  -30.6260   24.0620 C   0  0  0  0  0  3  0  0  0  0  0  0
  -16.4610  -29.8330   23.6380 C   0  0  0  0  0  3  0  0  0  0  0  0
  -16.7020  -28.5650   23.0790 C   0  0  0  0  0  3  0  0  0  0  0  0
  -25.7740  -32.6540   23.9810 C   0  0  0  0  0  3  0  0  0  0  0  0
  -25.4400  -34.0560   24.2610 N   0  0  0  0  0  0  0  0  0  0  0  0
  -25.7860  -35.0920   23.4850 C   0  0  0  0  0  0  0  0  0  0  0  0
  -26.4850  -34.9680   22.4760 O   0  0  0  0  0  0  0  0  0  0  0  0
  -24.8100  -34.2270   25.0330 H   0  0  0  0  0  0  0  0  0  0  0  0
  -24.0370  -36.8510   23.0560 C   0  0  0  0  0  1  0  0  0  0  0  0
  -25.2740  -36.4870   23.8920 C   0  0  0  0  0  3  0  0  0  0  0  0
  -27.3930  -37.4190   24.7130 C   0  0  0  0  0  1  0  0  0  0  0  0
  -26.2940  -37.5490   23.7590 N   0  0  0  0  0  0  0  0  0  0  0  0
  -25.8740  -38.4680   23.8840 H   0  0  0  0  0  0  0  0  0  0  0  0
  -26.2680  -31.9200   25.2890 C   0  0  1  0  0  0  0  0  0  0  0  0
  -25.1410  -31.6450   26.3120 C   0  0  0  0  0  1  0  0  0  0  0  0
  -26.9250  -30.5630   24.9420 C   0  0  0  0  0  1  0  0  0  0  0  0
  -27.3510  -32.7730   25.9900 C   0  0  0  0  0  1  0  0  0  0  0  0
  -30.3120  -18.9550   17.5760 C   0  0  0  0  0  2  0  0  0  0  0  0
  -31.5960  -19.1290   16.7410 C   0  0  0  0  0  2  0  0  0  0  0  0
  -33.1380  -18.2690   14.9240 C   0  0  0  0  0  1  0  0  0  0  0  0
  -30.6470  -18.1110   14.5780 C   0  0  0  0  0  1  0  0  0  0  0  0
  -31.7790  -18.0860   15.6170 C   0  0  2  0  0  0  0  0  0  0  0  0
  -31.7900  -16.8770   16.1740 F   0  0  0  0  0  0  0  0  0  0  0  0
  -31.5930  -18.3320   20.2950 C   0  0  0  0  0  3  0  0  0  0  0  0
  -33.0140  -18.8660   20.6350 C   0  0  0  0  0  2  0  0  0  0  0  0
  -35.5340  -18.6150   20.7230 C   0  0  0  0  0  1  0  0  0  0  0  0
  -34.3070  -17.6550   18.7640 C   0  0  0  0  0  1  0  0  0  0  0  0
  -34.2160  -17.9650   20.2690 C   0  0  0  0  0  3  0  0  0  0  0  0
  -31.0490  -17.3510   21.4020 C   0  0  0  0  0  2  0  0  0  0  0  0
  -31.3500  -14.8860   20.6840 C   0  0  0  0  0  0  0  0  0  0  0  0
  -31.1500  -12.6000   19.7370 C   0  0  0  0  0  2  0  0  0  0  0  0
  -30.2820  -12.6140   18.4620 C   0  0  0  0  0  2  0  0  0  0  0  0
  -28.7860  -12.5010   18.8110 C   0  0  0  0  0  2  0  0  0  0  0  0
  -28.3540  -13.4710   19.9430 C   0  0  0  0  0  3  0  0  0  0  0  0
  -29.3390  -13.4160   21.1300 C   0  0  0  0  0  2  0  0  0  0  0  0
  -30.6840  -13.6970   20.6060 N   0  0  0  0  0  0  0  0  0  0  0  0
  -32.5300  -14.9910   20.3620 O   0  0  0  0  0  0  0  0  0  0  0  0
  -30.6100  -15.9760   21.0160 N   0  0  0  0  0  0  0  0  0  0  0  0
  -29.6300  -15.7880   21.1630 H   0  0  0  0  0  0  0  0  0  0  0  0
  -25.9450  -14.1320   20.5470 C   0  0  0  0  0  0  0  0  0  0  0  0
  -24.8430  -13.3870   20.8680 C   0  0  0  0  0  0  0  0  0  0  0  0
  -25.2700  -12.0240   20.8600 C   0  0  0  0  0  0  0  0  0  0  0  0
  -26.9770  -13.2240   20.3650 N   0  0  0  0  0  0  0  0  0  0  0  0
  -26.5730  -11.9520   20.6160 N   0  0  0  0  0  0  0  0  0  0  0  0
  -24.5050  -10.7810   21.0190 C   0  0  0  0  0  0  0  0  0  0  0  0
  -24.8310   -9.8350   22.0170 C   0  0  0  0  0  3  0  0  0  0  0  0
  -24.0680   -8.6550   22.1610 C   0  0  0  0  0  3  0  0  0  0  0  0
  -22.9650   -8.4140   21.3070 C   0  0  0  0  0  0  0  0  0  0  0  0
  -22.6600   -9.3490   20.3020 C   0  0  0  0  0  3  0  0  0  0  0  0
  -23.4230  -10.5190   20.1570 C   0  0  0  0  0  3  0  0  0  0  0  0
  -22.1850   -7.2850   21.3570 O   0  0  0  0  0  0  0  0  0  0  0  0
  -21.9500   -6.6250   22.5370 C   0  0  0  0  0  0  0  0  0  0  0  0
  -21.3710   -7.2730   23.6510 C   0  0  0  0  0  3  0  0  0  0  0  0
  -21.0820   -6.5410   24.8220 C   0  0  0  0  0  3  0  0  0  0  0  0
  -21.3580   -5.1610   24.8740 C   0  0  0  0  0  0  0  0  0  0  0  0
  -21.9260   -4.5130   23.7640 C   0  0  0  0  0  3  0  0  0  0  0  0
  -22.2160   -5.2430   22.5970 C   0  0  0  0  0  0  0  0  0  0  0  0
  -22.7450   -4.6090   21.5240 F   0  0  0  0  0  0  0  0  0  0  0  0
  -21.0720   -4.4560   25.9930 F   0  0  0  0  0  0  0  0  0  0  0  0
  -23.4460  -13.8990   21.0710 C   0  0  0  0  0  0  0  0  0  0  0  0
  -22.6670  -13.2380   21.9200 N   0  0  0  0  0  0  0  0  0  0  0  0
  -23.0530  -14.9220   20.5120 O   0  0  0  0  0  0  0  0  0  0  0  0
  -22.9930  -12.4090   22.3940 H   0  0  0  0  0  0  0  0  0  0  0  0
  -21.7290  -13.5670   22.1010 H   0  0  0  0  0  0  0  0  0  0  0  0
  -26.1530  -15.4970   20.3770 N   0  0  0  0  0  0  0  0  0  0  0  0
  -25.3970  -16.1710   20.4470 H   0  0  0  0  0  0  0  0  0  0  0  0
  -27.0300  -15.9120   20.0880 H   0  0  0  0  0  0  0  0  0  0  0  0
  2  8  1  0
  2  1  2  0
  3  2  1  0
  4  3  2  0
  4  5  1  0
  5 58  1  0
  5  1  1  0
  6  7  1  0
  7  3  1  0
  9 10  1  0
  9  8  1  0
 11 10  1  0
 12 23  2  0
 13 11  1  0
 13 18  1  0
 14 22  1  0
 14 24  1  0
 15 21  1  0
 15 17  1  0
 16 22  1  0
 17 18  2  0
 17 16  1  0
 19 13  2  0
 20 19  1  0
 20 15  2  0
 21 14  1  0
 22 12  1  0
 24 26  2  0
 25 24  1  0
 27 25  1  0
 28 37  2  0
 28 33  1  0
 29 25  1  0
 29 33  1  0
 30 29  1  0
 31 32  1  0
 31 30  1  0
 32 28  1  0
 33 34  2  0
 34 35  1  0
 36 35  2  0
 37 36  1  0
 38 12  1  0
 38 39  1  0
 38 48  1  0
 39 42  1  0
 40 44  1  0
 40 39  1  0
 41 40  2  0
 44 43  1  0
 46 47  1  0
 46 44  1  0
 46 45  1  0
 48 51  1  1
 48 49  1  0
 50 48  1  0
 52  4  1  0
 53 52  1  0
 56 54  1  6
 55 56  1  0
 56 57  1  0
 56 53  1  0
 58 59  1  0
 58 63  1  0
 61 62  1  0
 62 59  1  0
 62 60  1  0
 64 72  1  0
 65 70  1  0
 66 67  1  0
 66 65  1  0
 68 67  1  0
 68 77  1  0
 68 69  1  0
 70 64  1  0
 70 69  1  0
 71 64  2  0
 72 73  1  0
 72 63  1  0
 74 75  2  0
 75 94  1  0
 76 75  1  0
 76 79  1  0
 77 74  1  0
 77 78  1  0
 78 76  2  0
 79 80  1  0
 80 81  2  0
 82 85  1  0
 82 81  1  0
 83 82  2  0
 84 83  1  0
 84 79  2  0
 85 86  1  0
 86 91  2  0
 86 87  1  0
 87 88  2  0
 88 89  1  0
 89 93  1  0
 90 89  2  0
 91 90  1  0
 92 91  1  0
 94 95  1  0
 95 98  1  0
 95 97  1  0
 96 94  2  0
 99100  1  0
 99 74  1  0
101 99  1  0
M  ISO  4  10 101  11 101  64 100  72 100
M  END
>  <TORSDO>  (23) 
F 27

>  <SCORE>  (23) 
-11.053

>  <name>  (23) 
23

>  <ligand_id>  (23) 
23

>  <original_smiles>  (23) 
[H]c1c([H])c([H])c2c(c1[H])C([H])([H])C([H])([H])C([H])([H])C2([H])N([H])C(=O)C1([H])N(C(=O)C([H])(N([H])C(=O)C([H])(N([H])C([H])([H])[H])C([H])([H])[H])C(C([H])([H])[H])(C([H])([H])[H])C([H])([H])[H])C([H])([H])c2c([H])c(OC([H])([H])C([H])([H])C([H])([H])c3c(C([H])([H])C([H])([H])[H])c(C([H])([H])C([H])([H])C(F)(C([H])([H])[H])C([H])([H])[H])n(C([H])(C([H])([H])N([H])C(=O)N4C([H])([H])C([H])([H])C([H])([H])C([H])(n5nc(-c6c([H])c([H])c(Oc7c([H])c([H])c(F)c([H])c7F)c([H])c6[H])c(C(=O)N([H])[H])c5N([H])[H])C4([H])[H])C([H])([H])C([H])(C([H])([H])[H])C([H])([H])[H])c3[H])c([H])c([H])c2C1([H])[H]

>  <smiles>  (23) 
[H]c1c([H])c([H])c2c(c1[H])C([H])([H])C([H])([H])C([H])([H])C2([H])N([H])C(=O)C1([H])N(C(=O)C([H])(N([H])C(=O)C([H])(N([H])C([H])([H])[H])C([H])([H])[H])C(C([H])([H])[H])(C([H])([H])[H])C([H])([H])[H])C([H])([H])c2c([H])c(OC([H])([H])C([H])([H])C([H])([H])c3c(C([H])([H])C([H])([H])[H])c(C([H])([H])C([H])([H])C(F)(C([H])([H])[H])C([H])([H])[H])n(C([H])(C([H])([H])N([H])C(=O)N4C([H])([H])C([H])([H])C([H])([H])C([H])(n5nc(-c6c([H])c([H])c(Oc7c([H])c([H])c(F)c([H])c7F)c([H])c6[H])c(C(=O)N([H])[H])c5N([H])[H])C4([H])[H])C([H])([H])C([H])(C([H])([H])[H])C([H])([H])[H])c3[H])c([H])c([H])c2C1([H])[H]

$$$$
24:0:0
     RDKit          3D

 93101  0  0  1  0  0  0  0  0999 V2000
  -29.5850  -20.4560   17.6210 C   0  0  0  0  0  3  0  0  0  0  0  0
  -29.2830  -19.3910   18.4860 C   0  0  0  0  0  3  0  0  0  0  0  0
  -29.6750  -21.7630   18.1230 C   0  0  0  0  0  3  0  0  0  0  0  0
  -29.0970  -19.6090   19.8670 C   0  0  0  0  0  0  0  0  0  0  0  0
  -29.5020  -22.0150   19.4980 C   0  0  0  0  0  0  0  0  0  0  0  0
  -29.2520  -20.9310   20.3940 C   0  0  0  0  0  0  0  0  0  0  0  0
  -30.5630  -21.3200   22.5610 C   0  0  0  0  0  1  0  0  0  0  0  0
  -29.1750  -21.2030   21.9000 C   0  0  0  0  0  2  0  0  0  0  0  0
  -28.7030  -18.3960   20.7210 C   0  0  0  0  0  2  0  0  0  0  0  0
  -29.8890  -17.6930   21.4190 C   0  0  0  0  0  2  0  0  0  0  0  0
  -30.7420  -16.7770   20.5190 C   0  0  0  0  0  2  0  0  0  0  0  0
  -30.9900  -14.3420   20.0910 C   0  0  0  0  0  0  0  0  0  0  0  0
  -30.6170  -12.1970   18.9470 C   0  0  0  0  0  2  0  0  0  0  0  0
  -29.6350  -12.4230   17.7790 C   0  0  0  0  0  2  0  0  0  0  0  0
  -28.1660  -12.3480   18.2550 C   0  0  0  0  0  2  0  0  0  0  0  0
  -27.8990  -13.1890   19.5320 C   0  0  0  0  0  3  0  0  0  0  0  0
  -28.9800  -12.9110   20.6020 C   0  0  0  0  0  2  0  0  0  0  0  0
  -30.2940  -13.1790   19.9930 N   0  0  0  0  0  0  0  0  0  0  0  0
  -32.1200  -14.5010   19.6260 O   0  0  0  0  0  0  0  0  0  0  0  0
  -30.2870  -15.3850   20.5540 N   0  0  0  0  0  0  0  0  0  0  0  0
  -29.3430  -15.2030   20.8580 H   0  0  0  0  0  0  0  0  0  0  0  0
  -25.5370  -13.8720   20.2980 C   0  0  0  0  0  0  0  0  0  0  0  0
  -24.4540  -13.1300   20.6920 C   0  0  0  0  0  0  0  0  0  0  0  0
  -24.8780  -11.7670   20.6570 C   0  0  0  0  0  0  0  0  0  0  0  0
  -26.5520  -12.9600   20.0500 N   0  0  0  0  0  0  0  0  0  0  0  0
  -26.1580  -11.6890   20.3200 N   0  0  0  0  0  0  0  0  0  0  0  0
  -24.1240  -10.5260   20.8770 C   0  0  0  0  0  0  0  0  0  0  0  0
  -24.5370   -9.5710   21.8310 C   0  0  0  0  0  3  0  0  0  0  0  0
  -23.7860   -8.3930   22.0340 C   0  0  0  0  0  3  0  0  0  0  0  0
  -22.6080   -8.1610   21.2820 C   0  0  0  0  0  0  0  0  0  0  0  0
  -22.2150   -9.1040   20.3160 C   0  0  0  0  0  3  0  0  0  0  0  0
  -22.9660  -10.2730   20.1130 C   0  0  0  0  0  3  0  0  0  0  0  0
  -21.8340   -7.0300   21.3900 O   0  0  0  0  0  0  0  0  0  0  0  0
  -21.7470   -6.3290   22.5650 C   0  0  0  0  0  0  0  0  0  0  0  0
  -21.2910   -6.9300   23.7590 C   0  0  0  0  0  3  0  0  0  0  0  0
  -21.1500   -6.1540   24.9280 C   0  0  0  0  0  3  0  0  0  0  0  0
  -21.4560   -4.7800   24.9020 C   0  0  0  0  0  0  0  0  0  0  0  0
  -21.9040   -4.1790   23.7130 C   0  0  0  0  0  3  0  0  0  0  0  0
  -22.0430   -4.9520   22.5460 C   0  0  0  0  0  0  0  0  0  0  0  0
  -22.4560   -4.3640   21.3970 F   0  0  0  0  0  0  0  0  0  0  0  0
  -21.3120   -4.0330   26.0210 F   0  0  0  0  0  0  0  0  0  0  0  0
  -23.0770  -13.6440   20.9900 C   0  0  0  0  0  0  0  0  0  0  0  0
  -22.3570  -12.9750   21.8860 N   0  0  0  0  0  0  0  0  0  0  0  0
  -22.6470  -14.6700   20.4660 O   0  0  0  0  0  0  0  0  0  0  0  0
  -22.7130  -12.1410   22.3290 H   0  0  0  0  0  0  0  0  0  0  0  0
  -21.4350  -13.3090   22.1190 H   0  0  0  0  0  0  0  0  0  0  0  0
  -25.7310  -15.2360   20.1150 N   0  0  0  0  0  0  0  0  0  0  0  0
  -24.9780  -15.9020   20.2400 H   0  0  0  0  0  0  0  0  0  0  0  0
  -26.5670  -15.6550   19.7300 H   0  0  0  0  0  0  0  0  0  0  0  0
  -29.6030  -23.4680   19.9670 C   0  0  0  0  0  2  0  0  0  0  0  0
  -28.2350  -24.1590   20.1090 C   0  0  0  0  0  2  0  0  0  0  0  0
  -28.3000  -25.4510   20.9490 C   0  0  0  0  0  2  0  0  0  0  0  0
  -28.4230  -26.6330   20.1520 O   0  0  0  0  0  0  0  0  0  0  0  0
  -24.5210  -31.7470   23.1730 C   0  0  0  0  0  0  0  0  0  0  0  0
  -27.2670  -27.3720   20.1100 C   0  0  0  0  0  0  0  0  0  0  0  0
  -23.3610  -30.3470   21.4960 C   0  0  0  0  0  3  0  0  0  0  0  0
  -24.8560  -28.8370   20.0870 C   0  0  0  0  0  0  0  0  0  0  0  0
  -25.8840  -30.7360   21.3500 C   0  0  0  0  0  2  0  0  0  0  0  0
  -25.9950  -29.3740   20.6990 C   0  0  0  0  0  0  0  0  0  0  0  0
  -27.2070  -28.6500   20.7090 C   0  0  0  0  0  3  0  0  0  0  0  0
  -26.1140  -26.8410   19.4960 C   0  0  0  0  0  3  0  0  0  0  0  0
  -24.9090  -27.5690   19.4800 C   0  0  0  0  0  3  0  0  0  0  0  0
  -23.5990  -29.6790   20.1150 C   0  0  0  0  0  2  0  0  0  0  0  0
  -24.6060  -30.9580   22.0640 N   0  0  0  0  0  0  0  0  0  0  0  0
  -23.4290  -32.0060   23.6950 O   0  0  0  0  0  0  0  0  0  0  0  0
  -22.7020  -29.3120   22.4370 C   0  0  0  0  0  0  0  0  0  0  0  0
  -21.3780  -29.1390   22.2990 N   0  0  0  0  0  0  0  0  0  0  0  0
  -23.3790  -28.6680   23.2440 O   0  0  0  0  0  0  0  0  0  0  0  0
  -20.8950  -29.7090   21.6180 H   0  0  0  0  0  0  0  0  0  0  0  0
  -17.9890  -27.9850   22.7840 C   0  0  0  0  0  0  0  0  0  0  0  0
  -20.5510  -28.1940   23.0490 C   0  0  0  0  0  3  0  0  0  0  0  0
  -20.6290  -26.7780   22.4340 C   0  0  0  0  0  2  0  0  0  0  0  0
  -19.5150  -26.4990   21.4190 C   0  0  0  0  0  2  0  0  0  0  0  0
  -18.1390  -26.6510   22.0730 C   0  0  0  0  0  2  0  0  0  0  0  0
  -19.1220  -28.7170   23.2280 C   0  0  0  0  0  0  0  0  0  0  0  0
  -18.9280  -29.9680   23.8510 C   0  0  0  0  0  3  0  0  0  0  0  0
  -17.6320  -30.4870   24.0380 C   0  0  0  0  0  3  0  0  0  0  0  0
  -16.5130  -29.7510   23.6100 C   0  0  0  0  0  3  0  0  0  0  0  0
  -16.6930  -28.5020   22.9880 C   0  0  0  0  0  3  0  0  0  0  0  0
  -25.7910  -32.3830   23.8220 C   0  0  0  0  0  3  0  0  0  0  0  0
  -25.4690  -33.7780   24.1460 N   0  0  0  0  0  0  0  0  0  0  0  0
  -25.8130  -34.8320   23.3940 C   0  0  0  0  0  0  0  0  0  0  0  0
  -26.5090  -34.7340   22.3790 O   0  0  0  0  0  0  0  0  0  0  0  0
  -24.8550  -33.9320   24.9330 H   0  0  0  0  0  0  0  0  0  0  0  0
  -24.0880  -36.6160   22.9920 C   0  0  0  0  0  1  0  0  0  0  0  0
  -25.3060  -36.2170   23.8400 C   0  0  0  0  0  3  0  0  0  0  0  0
  -27.4110  -37.1090   24.7380 C   0  0  0  0  0  1  0  0  0  0  0  0
  -26.3370  -37.2740   23.7610 N   0  0  0  0  0  0  0  0  0  0  0  0
  -25.9220  -38.1930   23.8960 H   0  0  0  0  0  0  0  0  0  0  0  0
  -26.2880  -31.6100   25.1050 C   0  0  1  0  0  0  0  0  0  0  0  0
  -25.1750  -31.3650   26.1500 C   0  0  0  0  0  1  0  0  0  0  0  0
  -26.8840  -30.2370   24.7190 C   0  0  0  0  0  1  0  0  0  0  0  0
  -27.4190  -32.4110   25.7920 C   0  0  0  0  0  1  0  0  0  0  0  0
  1  3  2  0
  1  2  1  0
  2  4  2  0
  3  5  1  0
  4  6  1  0
  4  9  1  0
  5 50  1  0
  5  6  2  0
  6  8  1  0
  8  7  1  0
  9 10  1  0
 11 20  1  0
 11 10  1  0
 12 20  1  0
 13 18  1  0
 14 15  1  0
 14 13  1  0
 16 15  1  0
 16 25  1  0
 16 17  1  0
 18 12  1  0
 18 17  1  0
 19 12  2  0
 20 21  1  0
 22 23  2  0
 23 42  1  0
 24 23  1  0
 24 27  1  0
 25 22  1  0
 25 26  1  0
 26 24  2  0
 27 28  1  0
 28 29  2  0
 30 33  1  0
 30 29  1  0
 31 30  2  0
 32 31  1  0
 32 27  2  0
 33 34  1  0
 34 35  1  0
 35 36  2  0
 37 36  1  0
 37 41  1  0
 38 37  2  0
 39 34  2  0
 39 38  1  0
 40 39  1  0
 42 43  1  0
 43 46  1  0
 43 45  1  0
 44 42  2  0
 47 48  1  0
 47 22  1  0
 49 47  1  0
 50 51  1  0
 51 52  1  0
 53 52  1  0
 54 65  2  0
 55 53  1  0
 55 60  1  0
 56 64  1  0
 56 66  1  0
 57 63  1  0
 57 59  1  0
 58 64  1  0
 59 60  2  0
 59 58  1  0
 61 55  2  0
 62 61  1  0
 62 57  2  0
 63 56  1  0
 64 54  1  0
 66 68  2  0
 67 66  1  0
 69 67  1  0
 70 79  2  0
 70 75  1  0
 71 67  1  0
 71 75  1  0
 72 71  1  0
 73 74  1  0
 73 72  1  0
 74 70  1  0
 75 76  2  0
 76 77  1  0
 78 77  2  0
 79 78  1  0
 80 54  1  0
 80 81  1  0
 80 90  1  0
 81 84  1  0
 82 86  1  0
 82 81  1  0
 83 82  2  0
 86 85  1  0
 88 86  1  0
 88 89  1  0
 88 87  1  0
 90 93  1  1
 90 91  1  0
 92 90  1  0
M  ISO  4  12 100  20 100  52 101  53 101
M  END
>  <TORSDO>  (24) 
F 23

>  <SCORE>  (24) 
-12.647

>  <name>  (24) 
24

>  <ligand_id>  (24) 
24

>  <original_smiles>  (24) 
[H]c1c([H])c(C([H])([H])C([H])([H])C([H])([H])Oc2c([H])c([H])c3c(c2[H])C([H])([H])N(C(=O)C([H])(N([H])C(=O)C([H])(N([H])C([H])([H])[H])C([H])([H])[H])C(C([H])([H])[H])(C([H])([H])[H])C([H])([H])[H])C([H])(C(=O)N([H])C2([H])c4c([H])c([H])c([H])c([H])c4C([H])([H])C([H])([H])C2([H])[H])C3([H])[H])c(C([H])([H])C([H])([H])[H])c(C([H])([H])C([H])([H])C([H])([H])N([H])C(=O)N2C([H])([H])C([H])([H])C([H])([H])C([H])(n3nc(-c4c([H])c([H])c(Oc5c([H])c([H])c(F)c([H])c5F)c([H])c4[H])c(C(=O)N([H])[H])c3N([H])[H])C2([H])[H])c1[H]

>  <smiles>  (24) 
[H]c1c([H])c(C([H])([H])C([H])([H])C([H])([H])Oc2c([H])c([H])c3c(c2[H])C([H])([H])N(C(=O)C([H])(N([H])C(=O)C([H])(N([H])C([H])([H])[H])C([H])([H])[H])C(C([H])([H])[H])(C([H])([H])[H])C([H])([H])[H])C([H])(C(=O)N([H])C2([H])c4c([H])c([H])c([H])c([H])c4C([H])([H])C([H])([H])C2([H])[H])C3([H])[H])c(C([H])([H])C([H])([H])[H])c(C([H])([H])C([H])([H])C([H])([H])N([H])C(=O)N2C([H])([H])C([H])([H])C([H])([H])C([H])(n3nc(-c4c([H])c([H])c(Oc5c([H])c([H])c(F)c([H])c5F)c([H])c4[H])c(C(=O)N([H])[H])c3N([H])[H])C2([H])[H])c1[H]

$$$$
25:0:0
     RDKit          3D

 96104  0  0  1  0  0  0  0  0999 V2000
  -29.2450  -20.1920   20.3070 C   0  0  0  0  0  3  0  0  0  0  0  0
  -29.6030  -21.4140   19.7910 C   0  0  0  0  0  0  0  0  0  0  0  0
  -30.7720  -21.1620   18.9870 C   0  0  0  0  0  0  0  0  0  0  0  0
  -30.9210  -19.7870   18.8820 C   0  0  0  0  0  0  0  0  0  0  0  0
  -29.9900  -19.1750   19.7280 N   0  0  0  0  0  0  0  0  0  0  0  0
  -31.1050  -18.4360   16.7230 C   0  0  0  0  0  1  0  0  0  0  0  0
  -32.7400  -17.9830   18.6280 C   0  0  0  0  0  1  0  0  0  0  0  0
  -31.8340  -19.0170   17.9480 C   0  0  0  0  0  3  0  0  0  0  0  0
  -33.0960  -22.2010   18.7230 C   0  0  0  0  0  1  0  0  0  0  0  0
  -31.6190  -22.2200   18.2810 C   0  0  0  0  0  3  0  0  0  0  0  0
  -29.9990  -22.5670   16.3170 C   0  0  0  0  0  1  0  0  0  0  0  0
  -31.4390  -22.2520   16.7480 C   0  0  0  0  0  2  0  0  0  0  0  0
  -28.7280  -22.6860   19.9280 C   0  0  0  0  0  2  0  0  0  0  0  0
  -29.2610  -24.1270   20.2760 C   0  0  0  0  0  2  0  0  0  0  0  0
  -28.1230  -25.1670   20.0430 C   0  0  0  0  0  2  0  0  0  0  0  0
  -28.3570  -26.5930   20.2380 O   0  0  0  0  0  0  0  0  0  0  0  0
  -24.6020  -31.9150   23.2450 C   0  0  0  0  0  0  0  0  0  0  0  0
  -27.2180  -27.4000   20.1910 C   0  0  0  0  0  0  0  0  0  0  0  0
  -23.3940  -30.5190   21.6060 C   0  0  0  0  0  3  0  0  0  0  0  0
  -24.8440  -28.9760   20.1880 C   0  0  0  0  0  0  0  0  0  0  0  0
  -25.9300  -30.8520   21.4160 C   0  0  0  0  0  2  0  0  0  0  0  0
  -26.0110  -29.4750   20.7770 C   0  0  0  0  0  0  0  0  0  0  0  0
  -27.2030  -28.7000   20.7700 C   0  0  0  0  0  3  0  0  0  0  0  0
  -26.0190  -26.9420   19.5870 C   0  0  0  0  0  3  0  0  0  0  0  0
  -24.8450  -27.7110   19.5910 C   0  0  0  0  0  3  0  0  0  0  0  0
  -23.6050  -29.8440   20.2270 C   0  0  0  0  0  2  0  0  0  0  0  0
  -24.6610  -31.1120   22.1460 N   0  0  0  0  0  0  0  0  0  0  0  0
  -23.5200  -32.1930   23.7820 O   0  0  0  0  0  0  0  0  0  0  0  0
  -22.7360  -29.4990   22.5660 C   0  0  0  0  0  0  0  0  0  0  0  0
  -21.4100  -29.3190   22.4360 N   0  0  0  0  0  0  0  0  0  0  0  0
  -23.4130  -28.8730   23.3830 O   0  0  0  0  0  0  0  0  0  0  0  0
  -20.9210  -29.8790   21.7520 H   0  0  0  0  0  0  0  0  0  0  0  0
  -18.0290  -28.1430   22.9430 C   0  0  0  0  0  0  0  0  0  0  0  0
  -20.5900  -28.3850   23.2090 C   0  0  0  0  0  3  0  0  0  0  0  0
  -20.6800  -26.9530   22.6350 C   0  0  0  0  0  2  0  0  0  0  0  0
  -19.5740  -26.6360   21.6230 C   0  0  0  0  0  2  0  0  0  0  0  0
  -18.1950  -26.7920   22.2690 C   0  0  0  0  0  2  0  0  0  0  0  0
  -19.1540  -28.8980   23.3710 C   0  0  0  0  0  0  0  0  0  0  0  0
  -18.9440  -30.1630   23.9600 C   0  0  0  0  0  3  0  0  0  0  0  0
  -17.6440  -30.6730   24.1270 C   0  0  0  0  0  3  0  0  0  0  0  0
  -16.5340  -29.9160   23.7140 C   0  0  0  0  0  3  0  0  0  0  0  0
  -16.7270  -28.6530   23.1290 C   0  0  0  0  0  3  0  0  0  0  0  0
  -25.8890  -32.5440   23.8640 C   0  0  0  0  0  3  0  0  0  0  0  0
  -25.5810  -33.9430   24.1910 N   0  0  0  0  0  0  0  0  0  0  0  0
  -25.9150  -34.9930   23.4300 C   0  0  0  0  0  0  0  0  0  0  0  0
  -26.5870  -34.8870   22.4000 O   0  0  0  0  0  0  0  0  0  0  0  0
  -24.9820  -34.0980   24.9880 H   0  0  0  0  0  0  0  0  0  0  0  0
  -24.1950  -36.7920   23.0620 C   0  0  0  0  0  1  0  0  0  0  0  0
  -25.4280  -36.3830   23.8840 C   0  0  0  0  0  3  0  0  0  0  0  0
  -27.5560  -37.2630   24.7350 C   0  0  0  0  0  1  0  0  0  0  0  0
  -26.4640  -37.4330   23.7810 N   0  0  0  0  0  0  0  0  0  0  0  0
  -26.0570  -38.3540   23.9260 H   0  0  0  0  0  0  0  0  0  0  0  0
  -26.4030  -31.7730   25.1400 C   0  0  1  0  0  0  0  0  0  0  0  0
  -25.3110  -31.5380   26.2070 C   0  0  0  0  0  1  0  0  0  0  0  0
  -26.9870  -30.3950   24.7490 C   0  0  0  0  0  1  0  0  0  0  0  0
  -27.5530  -32.5680   25.8040 C   0  0  0  0  0  1  0  0  0  0  0  0
  -29.6830  -17.7300   19.8880 C   0  0  0  0  0  2  0  0  0  0  0  0
  -30.3210  -16.9740   21.0950 C   0  0  0  0  0  2  0  0  0  0  0  0
  -30.6640  -14.5160   20.5490 C   0  0  0  0  0  0  0  0  0  0  0  0
  -30.3740  -12.3630   19.3650 C   0  0  0  0  0  2  0  0  0  0  0  0
  -29.4500  -12.5900   18.1490 C   0  0  0  0  0  2  0  0  0  0  0  0
  -27.9700  -12.4580   18.5540 C   0  0  0  0  0  2  0  0  0  0  0  0
  -27.6200  -13.2730   19.8280 C   0  0  0  0  0  3  0  0  0  0  0  0
  -28.6590  -13.0320   20.9470 C   0  0  0  0  0  2  0  0  0  0  0  0
  -29.9930  -13.3370   20.4040 N   0  0  0  0  0  0  0  0  0  0  0  0
  -31.7880  -14.7000   20.0830 O   0  0  0  0  0  0  0  0  0  0  0  0
  -29.9630  -15.5340   21.0970 N   0  0  0  0  0  0  0  0  0  0  0  0
  -29.0500  -15.3020   21.4590 H   0  0  0  0  0  0  0  0  0  0  0  0
  -25.2060  -13.8800   20.4780 C   0  0  0  0  0  0  0  0  0  0  0  0
  -24.1310  -13.1090   20.8310 C   0  0  0  0  0  0  0  0  0  0  0  0
  -24.5960  -11.7580   20.8230 C   0  0  0  0  0  0  0  0  0  0  0  0
  -26.2580  -13.0000   20.2790 N   0  0  0  0  0  0  0  0  0  0  0  0
  -25.8920  -11.7190   20.5430 N   0  0  0  0  0  0  0  0  0  0  0  0
  -23.8700  -10.4970   21.0140 C   0  0  0  0  0  0  0  0  0  0  0  0
  -24.2840   -9.5450   21.9710 C   0  0  0  0  0  3  0  0  0  0  0  0
  -23.5570   -8.3450   22.1470 C   0  0  0  0  0  3  0  0  0  0  0  0
  -22.4030   -8.0920   21.3680 C   0  0  0  0  0  0  0  0  0  0  0  0
  -22.0080   -9.0360   20.4040 C   0  0  0  0  0  3  0  0  0  0  0  0
  -22.7330  -10.2260   20.2260 C   0  0  0  0  0  3  0  0  0  0  0  0
  -21.6500   -6.9460   21.4540 O   0  0  0  0  0  0  0  0  0  0  0  0
  -21.5750   -6.2190   22.6140 C   0  0  0  0  0  0  0  0  0  0  0  0
  -21.1100   -6.7870   23.8200 C   0  0  0  0  0  3  0  0  0  0  0  0
  -20.9820   -5.9850   24.9730 C   0  0  0  0  0  3  0  0  0  0  0  0
  -21.3080   -4.6170   24.9180 C   0  0  0  0  0  0  0  0  0  0  0  0
  -21.7660   -4.0490   23.7160 C   0  0  0  0  0  3  0  0  0  0  0  0
  -21.8960   -4.8480   22.5660 C   0  0  0  0  0  0  0  0  0  0  0  0
  -22.3160   -4.2920   21.4050 F   0  0  0  0  0  0  0  0  0  0  0  0
  -21.1790   -3.8430   26.0210 F   0  0  0  0  0  0  0  0  0  0  0  0
  -22.7270  -13.5840   21.0700 C   0  0  0  0  0  0  0  0  0  0  0  0
  -21.9810  -12.8920   21.9260 N   0  0  0  0  0  0  0  0  0  0  0  0
  -22.2970  -14.6040   20.5330 O   0  0  0  0  0  0  0  0  0  0  0  0
  -22.3370  -12.0650   22.3830 H   0  0  0  0  0  0  0  0  0  0  0  0
  -21.0370  -13.1930   22.1250 H   0  0  0  0  0  0  0  0  0  0  0  0
  -25.3710  -15.2480   20.2880 N   0  0  0  0  0  0  0  0  0  0  0  0
  -24.5920  -15.8910   20.3740 H   0  0  0  0  0  0  0  0  0  0  0  0
  -26.2180  -15.6950   19.9600 H   0  0  0  0  0  0  0  0  0  0  0  0
  2 13  1  0
  2  1  2  0
  3  2  1  0
  4  3  2  0
  4  5  1  0
  5 57  1  0
  5  1  1  0
  6  8  1  0
  8  7  1  0
  8  4  1  0
 10  9  1  0
 10  3  1  0
 11 12  1  0
 12 10  1  0
 13 14  1  0
 15 16  1  0
 15 14  1  0
 17 28  2  0
 18 16  1  0
 18 23  1  0
 19 27  1  0
 19 29  1  0
 20 26  1  0
 20 22  1  0
 21 27  1  0
 22 21  1  0
 23 22  2  0
 24 25  1  0
 24 18  2  0
 25 20  2  0
 26 19  1  0
 27 17  1  0
 29 31  2  0
 30 29  1  0
 32 30  1  0
 33 42  2  0
 33 38  1  0
 34 30  1  0
 34 38  1  0
 35 34  1  0
 36 37  1  0
 36 35  1  0
 37 33  1  0
 38 39  2  0
 39 40  1  0
 41 40  2  0
 42 41  1  0
 43 17  1  0
 43 44  1  0
 43 53  1  0
 44 47  1  0
 45 49  1  0
 45 44  1  0
 46 45  2  0
 49 48  1  0
 51 49  1  0
 51 52  1  0
 51 50  1  0
 53 56  1  1
 53 54  1  0
 55 53  1  0
 57 58  1  0
 58 67  1  0
 59 67  1  0
 60 65  1  0
 61 62  1  0
 61 60  1  0
 63 62  1  0
 63 72  1  0
 63 64  1  0
 65 59  1  0
 65 64  1  0
 66 59  2  0
 67 68  1  0
 69 70  2  0
 70 89  1  0
 71 70  1  0
 71 74  1  0
 72 69  1  0
 72 73  1  0
 73 71  2  0
 74 75  1  0
 75 76  2  0
 77 80  1  0
 77 76  1  0
 78 77  2  0
 79 78  1  0
 79 74  2  0
 80 81  1  0
 81 82  1  0
 82 83  2  0
 84 83  1  0
 84 88  1  0
 85 84  2  0
 86 81  2  0
 86 85  1  0
 87 86  1  0
 89 90  1  0
 90 93  1  0
 90 92  1  0
 91 89  2  0
 94 95  1  0
 94 69  1  0
 96 94  1  0
M  ISO  4  15 101  16 101  59 100  67 100
M  END
>  <TORSDO>  (25) 
F 24

>  <SCORE>  (25) 
-12.643

>  <name>  (25) 
25

>  <ligand_id>  (25) 
25

>  <original_smiles>  (25) 
[H]c1c([H])c([H])c2c(c1[H])C([H])([H])C([H])([H])C([H])([H])C2([H])N([H])C(=O)C1([H])N(C(=O)C([H])(N([H])C(=O)C([H])(N([H])C([H])([H])[H])C([H])([H])[H])C(C([H])([H])[H])(C([H])([H])[H])C([H])([H])[H])C([H])([H])c2c([H])c(OC([H])([H])C([H])([H])C([H])([H])c3c(C([H])(C([H])([H])[H])C([H])([H])C([H])([H])[H])c(C([H])(C([H])([H])[H])C([H])([H])[H])n(C([H])([H])C([H])([H])N([H])C(=O)N4C([H])([H])C([H])([H])C([H])([H])C([H])(n5nc(-c6c([H])c([H])c(Oc7c([H])c([H])c(F)c([H])c7F)c([H])c6[H])c(C(=O)N([H])[H])c5N([H])[H])C4([H])[H])c3[H])c([H])c([H])c2C1([H])[H]

>  <smiles>  (25) 
[H]c1c([H])c([H])c2c(c1[H])C([H])([H])C([H])([H])C([H])([H])C2([H])N([H])C(=O)C1([H])N(C(=O)C([H])(N([H])C(=O)C([H])(N([H])C([H])([H])[H])C([H])([H])[H])C(C([H])([H])[H])(C([H])([H])[H])C([H])([H])[H])C([H])([H])c2c([H])c(OC([H])([H])C([H])([H])C([H])([H])c3c(C([H])(C([H])([H])[H])C([H])([H])C([H])([H])[H])c(C([H])(C([H])([H])[H])C([H])([H])[H])n(C([H])([H])C([H])([H])N([H])C(=O)N4C([H])([H])C([H])([H])C([H])([H])C([H])(n5nc(-c6c([H])c([H])c(Oc7c([H])c([H])c(F)c([H])c7F)c([H])c6[H])c(C(=O)N([H])[H])c5N([H])[H])C4([H])[H])c3[H])c([H])c([H])c2C1([H])[H]

$$$$
26:0:0
     RDKit          3D

 92100  0  0  1  0  0  0  0  0999 V2000
  -28.1950  -19.5880   20.9510 C   0  0  0  0  0  3  0  0  0  0  0  0
  -30.0860  -19.9800   19.8240 C   0  0  0  0  0  3  0  0  0  0  0  0
  -29.4940  -19.0810   20.6680 C   0  0  0  0  0  0  0  0  0  0  0  0
  -28.0580  -20.8090   20.3590 C   0  0  0  0  0  0  0  0  0  0  0  0
  -26.9320  -21.7950   20.4250 C   0  0  0  0  0  1  0  0  0  0  0  0
  -29.2320  -21.0540   19.6580 N   0  0  0  0  0  0  0  0  0  0  0  0
  -31.5320  -17.9590   21.6590 C   0  0  0  0  0  1  0  0  0  0  0  0
  -30.0690  -17.8000   21.2190 C   0  0  0  0  0  3  0  0  0  0  0  0
  -29.9070  -16.6730   20.2010 C   0  0  0  0  0  2  0  0  0  0  0  0
  -30.8900  -14.4470   20.1370 C   0  0  0  0  0  0  0  0  0  0  0  0
  -30.5020  -12.3600   18.9170 C   0  0  0  0  0  2  0  0  0  0  0  0
  -29.4930  -12.6510   17.7850 C   0  0  0  0  0  2  0  0  0  0  0  0
  -28.0430  -12.5270   18.2970 C   0  0  0  0  0  2  0  0  0  0  0  0
  -27.7970  -13.3200   19.6080 C   0  0  0  0  0  3  0  0  0  0  0  0
  -28.9030  -12.9930   20.6390 C   0  0  0  0  0  2  0  0  0  0  0  0
  -30.2180  -13.2780   20.0240 N   0  0  0  0  0  0  0  0  0  0  0  0
  -31.9330  -14.7180   19.5350 O   0  0  0  0  0  0  0  0  0  0  0  0
  -30.1940  -15.3710   20.7850 N   0  0  0  0  0  0  0  0  0  0  0  0
  -29.4330  -14.9810   21.3140 H   0  0  0  0  0  0  0  0  0  0  0  0
  -25.4480  -13.9560   20.4670 C   0  0  0  0  0  0  0  0  0  0  0  0
  -24.3860  -13.1900   20.8690 C   0  0  0  0  0  0  0  0  0  0  0  0
  -24.8200  -11.8340   20.7670 C   0  0  0  0  0  0  0  0  0  0  0  0
  -26.4640  -13.0650   20.1510 N   0  0  0  0  0  0  0  0  0  0  0  0
  -26.0880  -11.7820   20.3820 N   0  0  0  0  0  0  0  0  0  0  0  0
  -24.0870  -10.5760   20.9560 C   0  0  0  0  0  0  0  0  0  0  0  0
  -24.5350   -9.5900   21.8630 C   0  0  0  0  0  3  0  0  0  0  0  0
  -23.8040   -8.3950   22.0390 C   0  0  0  0  0  3  0  0  0  0  0  0
  -22.6080   -8.1800   21.3110 C   0  0  0  0  0  0  0  0  0  0  0  0
  -22.1820   -9.1540   20.3900 C   0  0  0  0  0  3  0  0  0  0  0  0
  -22.9150  -10.3410   20.2110 C   0  0  0  0  0  3  0  0  0  0  0  0
  -21.8470   -7.0400   21.3980 O   0  0  0  0  0  0  0  0  0  0  0  0
  -21.7940   -6.2970   22.5500 C   0  0  0  0  0  0  0  0  0  0  0  0
  -21.3430   -6.8470   23.7710 C   0  0  0  0  0  3  0  0  0  0  0  0
  -21.2350   -6.0300   24.9140 C   0  0  0  0  0  3  0  0  0  0  0  0
  -21.5740   -4.6640   24.8390 C   0  0  0  0  0  0  0  0  0  0  0  0
  -22.0180   -4.1160   23.6240 C   0  0  0  0  0  3  0  0  0  0  0  0
  -22.1270   -4.9300   22.4830 C   0  0  0  0  0  0  0  0  0  0  0  0
  -22.5360   -4.3890   21.3100 F   0  0  0  0  0  0  0  0  0  0  0  0
  -21.4640   -3.8790   25.9360 F   0  0  0  0  0  0  0  0  0  0  0  0
  -23.0170  -13.6780   21.2450 C   0  0  0  0  0  0  0  0  0  0  0  0
  -22.3350  -12.9620   22.1310 N   0  0  0  0  0  0  0  0  0  0  0  0
  -22.5600  -14.7240   20.7830 O   0  0  0  0  0  0  0  0  0  0  0  0
  -22.7170  -12.1120   22.5180 H   0  0  0  0  0  0  0  0  0  0  0  0
  -21.4210  -13.2680   22.4300 H   0  0  0  0  0  0  0  0  0  0  0  0
  -25.6300  -15.3310   20.3280 N   0  0  0  0  0  0  0  0  0  0  0  0
  -24.8810  -15.9990   20.4820 H   0  0  0  0  0  0  0  0  0  0  0  0
  -26.4770  -15.7600   19.9750 H   0  0  0  0  0  0  0  0  0  0  0  0
  -29.5450  -22.2670   18.9260 C   0  0  0  0  0  2  0  0  0  0  0  0
  -30.0300  -23.3460   19.9070 C   0  0  0  0  0  2  0  0  0  0  0  0
  -29.7300  -24.7760   19.4400 C   0  0  0  0  0  2  0  0  0  0  0  0
  -29.0790  -25.6170   20.5430 C   0  0  0  0  0  2  0  0  0  0  0  0
  -28.9510  -26.9490   20.0770 O   0  0  0  0  0  0  0  0  0  0  0  0
  -24.5710  -31.6280   23.0860 C   0  0  0  0  0  0  0  0  0  0  0  0
  -27.6910  -27.4910   20.0790 C   0  0  0  0  0  0  0  0  0  0  0  0
  -23.5450  -30.1580   21.3780 C   0  0  0  0  0  3  0  0  0  0  0  0
  -25.1720  -28.7520   20.0080 C   0  0  0  0  0  0  0  0  0  0  0  0
  -26.0340  -30.7300   21.2860 C   0  0  0  0  0  2  0  0  0  0  0  0
  -26.2520  -29.3800   20.6350 C   0  0  0  0  0  0  0  0  0  0  0  0
  -27.5170  -28.7590   20.6600 C   0  0  0  0  0  3  0  0  0  0  0  0
  -26.5920  -26.8470   19.4670 C   0  0  0  0  0  3  0  0  0  0  0  0
  -25.3330  -27.4800   19.4230 C   0  0  0  0  0  3  0  0  0  0  0  0
  -23.8610  -29.5060   20.0050 C   0  0  0  0  0  2  0  0  0  0  0  0
  -24.7300  -30.8540   21.9750 N   0  0  0  0  0  0  0  0  0  0  0  0
  -23.4520  -31.8120   23.5830 O   0  0  0  0  0  0  0  0  0  0  0  0
  -22.9360  -29.0830   22.3030 C   0  0  0  0  0  0  0  0  0  0  0  0
  -21.6260  -28.8380   22.1500 N   0  0  0  0  0  0  0  0  0  0  0  0
  -23.6420  -28.4700   23.1110 O   0  0  0  0  0  0  0  0  0  0  0  0
  -21.1170  -29.3910   21.4750 H   0  0  0  0  0  0  0  0  0  0  0  0
  -18.3010  -27.4910   22.6070 C   0  0  0  0  0  0  0  0  0  0  0  0
  -20.8490  -27.8340   22.8760 C   0  0  0  0  0  3  0  0  0  0  0  0
  -21.0050  -26.4370   22.2350 C   0  0  0  0  0  2  0  0  0  0  0  0
  -19.9020  -26.1020   21.2260 C   0  0  0  0  0  2  0  0  0  0  0  0
  -18.5260  -26.1670   21.8940 C   0  0  0  0  0  2  0  0  0  0  0  0
  -19.3930  -28.2750   23.0610 C   0  0  0  0  0  0  0  0  0  0  0  0
  -19.1310  -29.5040   23.7070 C   0  0  0  0  0  3  0  0  0  0  0  0
  -17.8110  -29.9490   23.9000 C   0  0  0  0  0  3  0  0  0  0  0  0
  -16.7340  -29.1660   23.4530 C   0  0  0  0  0  3  0  0  0  0  0  0
  -16.9770  -27.9370   22.8170 C   0  0  0  0  0  3  0  0  0  0  0  0
  -25.7810  -32.3460   23.7660 C   0  0  0  0  0  3  0  0  0  0  0  0
  -25.3520  -33.7100   24.1040 N   0  0  0  0  0  0  0  0  0  0  0  0
  -25.6340  -34.7970   23.3730 C   0  0  0  0  0  0  0  0  0  0  0  0
  -26.3500  -34.7620   22.3680 O   0  0  0  0  0  0  0  0  0  0  0  0
  -24.7170  -33.8050   24.8840 H   0  0  0  0  0  0  0  0  0  0  0  0
  -23.7850  -36.4530   22.9710 C   0  0  0  0  0  1  0  0  0  0  0  0
  -25.0200  -36.1350   23.8260 C   0  0  0  0  0  3  0  0  0  0  0  0
  -27.0400  -37.1730   24.7630 C   0  0  0  0  0  1  0  0  0  0  0  0
  -25.9720  -37.2650   23.7680 N   0  0  0  0  0  0  0  0  0  0  0  0
  -25.4910  -38.1500   23.9030 H   0  0  0  0  0  0  0  0  0  0  0  0
  -26.3130  -31.5950   25.0490 C   0  0  1  0  0  0  0  0  0  0  0  0
  -25.2000  -31.2170   26.0540 C   0  0  0  0  0  1  0  0  0  0  0  0
  -27.0540  -30.2960   24.6520 C   0  0  0  0  0  1  0  0  0  0  0  0
  -27.3420  -32.4850   25.7860 C   0  0  0  0  0  1  0  0  0  0  0  0
  2  3  2  0
  3  1  1  0
  3  8  1  0
  4  5  1  0
  4  1  2  0
  6  2  1  0
  6  4  1  0
  8  7  1  0
  9 18  1  0
  9  8  1  0
 10 18  1  0
 11 16  1  0
 12 13  1  0
 12 11  1  0
 14 13  1  0
 14 23  1  0
 14 15  1  0
 16 10  1  0
 16 15  1  0
 17 10  2  0
 18 19  1  0
 20 21  2  0
 21 40  1  0
 22 21  1  0
 22 25  1  0
 23 24  1  0
 23 20  1  0
 24 22  2  0
 25 26  1  0
 26 27  2  0
 28 31  1  0
 28 27  1  0
 29 28  2  0
 30 29  1  0
 30 25  2  0
 31 32  1  0
 32 33  1  0
 33 34  2  0
 35 34  1  0
 35 39  1  0
 36 35  2  0
 37 32  2  0
 37 36  1  0
 38 37  1  0
 40 41  1  0
 41 44  1  0
 41 43  1  0
 42 40  2  0
 45 20  1  0
 45 46  1  0
 47 45  1  0
 48  6  1  0
 48 49  1  0
 50 49  1  0
 50 51  1  0
 52 54  1  0
 52 51  1  0
 53 64  2  0
 54 59  1  0
 55 63  1  0
 55 65  1  0
 56 58  1  0
 57 63  1  0
 58 59  2  0
 58 57  1  0
 60 54  2  0
 61 60  1  0
 61 56  2  0
 62 56  1  0
 62 55  1  0
 63 53  1  0
 65 67  2  0
 66 65  1  0
 68 66  1  0
 69 78  2  0
 69 74  1  0
 70 66  1  0
 70 74  1  0
 71 70  1  0
 72 73  1  0
 72 71  1  0
 73 69  1  0
 74 75  2  0
 75 76  1  0
 77 76  2  0
 78 77  1  0
 79 53  1  0
 79 80  1  0
 79 89  1  0
 80 83  1  0
 81 85  1  0
 81 80  1  0
 82 81  2  0
 85 84  1  0
 87 85  1  0
 87 88  1  0
 87 86  1  0
 89 92  1  1
 89 90  1  0
 91 89  1  0
M  ISO  4  10 100  18 100  51 101  52 101
M  END
>  <TORSDO>  (26) 
F 22

>  <SCORE>  (26) 
-11.682

>  <name>  (26) 
26

>  <ligand_id>  (26) 
26

>  <original_smiles>  (26) 
[H]c1c([H])c([H])c2c(c1[H])C([H])([H])C([H])([H])C([H])([H])C2([H])N([H])C(=O)C1([H])N(C(=O)C([H])(N([H])C(=O)C([H])(N([H])C([H])([H])[H])C([H])([H])[H])C(C([H])([H])[H])(C([H])([H])[H])C([H])([H])[H])C([H])([H])c2c([H])c(OC([H])([H])C([H])([H])C([H])([H])C([H])([H])n3c([H])c(C([H])(C([H])([H])[H])C([H])([H])N([H])C(=O)N4C([H])([H])C([H])([H])C([H])([H])C([H])(n5nc(-c6c([H])c([H])c(Oc7c([H])c([H])c(F)c([H])c7F)c([H])c6[H])c(C(=O)N([H])[H])c5N([H])[H])C4([H])[H])c([H])c3C([H])([H])[H])c([H])c([H])c2C1([H])[H]

>  <smiles>  (26) 
[H]c1c([H])c([H])c2c(c1[H])C([H])([H])C([H])([H])C([H])([H])C2([H])N([H])C(=O)C1([H])N(C(=O)C([H])(N([H])C(=O)C([H])(N([H])C([H])([H])[H])C([H])([H])[H])C(C([H])([H])[H])(C([H])([H])[H])C([H])([H])[H])C([H])([H])c2c([H])c(OC([H])([H])C([H])([H])C([H])([H])C([H])([H])n3c([H])c(C([H])(C([H])([H])[H])C([H])([H])N([H])C(=O)N4C([H])([H])C([H])([H])C([H])([H])C([H])(n5nc(-c6c([H])c([H])c(Oc7c([H])c([H])c(F)c([H])c7F)c([H])c6[H])c(C(=O)N([H])[H])c5N([H])[H])C4([H])[H])c([H])c3C([H])([H])[H])c([H])c([H])c2C1([H])[H]

$$$$
27:0:0
     RDKit          3D

 93101  0  0  1  0  0  0  0  0999 V2000
  -28.7350  -21.0770   20.6110 C   0  0  0  0  0  3  0  0  0  0  0  0
  -29.3940  -19.8470   20.8660 C   0  0  0  0  0  0  0  0  0  0  0  0
  -28.8700  -21.2800   19.2640 C   0  0  0  0  0  0  0  0  0  0  0  0
  -29.5900  -19.1430   22.1760 C   0  0  0  0  0  1  0  0  0  0  0  0
  -29.8860  -19.3200   19.7600 N   0  0  0  0  0  0  0  0  0  0  0  0
  -29.5400  -20.1680   18.7600 N   0  0  0  0  0  0  0  0  0  0  0  0
  -28.3950  -22.4510   18.4420 C   0  0  0  0  0  2  0  0  0  0  0  0
  -28.3580  -23.7680   19.2470 C   0  0  0  0  0  2  0  0  0  0  0  0
  -28.0710  -25.0430   18.4290 C   0  0  0  0  0  2  0  0  0  0  0  0
  -27.9650  -26.2790   19.3430 C   0  0  0  0  0  2  0  0  0  0  0  0
  -27.7780  -27.4830   18.5960 O   0  0  0  0  0  0  0  0  0  0  0  0
  -25.0260  -31.5910   23.7010 C   0  0  0  0  0  0  0  0  0  0  0  0
  -26.7020  -28.2180   19.0280 C   0  0  0  0  0  0  0  0  0  0  0  0
  -23.4280  -30.7560   22.0060 C   0  0  0  0  0  3  0  0  0  0  0  0
  -24.4690  -29.6760   19.9420 C   0  0  0  0  0  0  0  0  0  0  0  0
  -25.8890  -31.1160   21.4140 C   0  0  0  0  0  2  0  0  0  0  0  0
  -25.7510  -29.9920   20.4100 C   0  0  0  0  0  0  0  0  0  0  0  0
  -26.8740  -29.2690   19.9530 C   0  0  0  0  0  3  0  0  0  0  0  0
  -25.4090  -27.9050   18.5620 C   0  0  0  0  0  3  0  0  0  0  0  0
  -24.2910  -28.6300   19.0170 C   0  0  0  0  0  3  0  0  0  0  0  0
  -23.3220  -30.5030   20.4770 C   0  0  0  0  0  2  0  0  0  0  0  0
  -24.8100  -31.1500   22.4300 N   0  0  0  0  0  0  0  0  0  0  0  0
  -24.0890  -31.7160   24.5030 O   0  0  0  0  0  0  0  0  0  0  0  0
  -22.8890  -29.5140   22.7490 C   0  0  0  0  0  0  0  0  0  0  0  0
  -21.5780  -29.2580   22.6130 N   0  0  0  0  0  0  0  0  0  0  0  0
  -23.6450  -28.7920   23.4040 O   0  0  0  0  0  0  0  0  0  0  0  0
  -21.0250  -29.9030   22.0670 H   0  0  0  0  0  0  0  0  0  0  0  0
  -18.3870  -27.5650   22.6810 C   0  0  0  0  0  0  0  0  0  0  0  0
  -20.8600  -28.1230   23.1910 C   0  0  0  0  0  3  0  0  0  0  0  0
  -21.2030  -26.8120   22.4460 C   0  0  0  0  0  2  0  0  0  0  0  0
  -20.2240  -26.4870   21.3140 C   0  0  0  0  0  2  0  0  0  0  0  0
  -18.7980  -26.3560   21.8570 C   0  0  0  0  0  2  0  0  0  0  0  0
  -19.3560  -28.4030   23.2940 C   0  0  0  0  0  0  0  0  0  0  0  0
  -18.9230  -29.5340   24.0200 C   0  0  0  0  0  3  0  0  0  0  0  0
  -17.5520  -29.8300   24.1420 C   0  0  0  0  0  3  0  0  0  0  0  0
  -16.5970  -28.9880   23.5470 C   0  0  0  0  0  3  0  0  0  0  0  0
  -17.0140  -27.8570   22.8230 C   0  0  0  0  0  3  0  0  0  0  0  0
  -26.4510  -31.9840   24.2020 C   0  0  0  0  0  3  0  0  0  0  0  0
  -26.3670  -33.3430   24.7550 N   0  0  0  0  0  0  0  0  0  0  0  0
  -26.7690  -34.4490   24.1140 C   0  0  0  0  0  0  0  0  0  0  0  0
  -27.3220  -34.4210   23.0110 O   0  0  0  0  0  0  0  0  0  0  0  0
  -25.8740  -33.4450   25.6290 H   0  0  0  0  0  0  0  0  0  0  0  0
  -25.2830  -36.4760   24.1880 C   0  0  0  0  0  1  0  0  0  0  0  0
  -26.5160  -35.8000   24.8080 C   0  0  0  0  0  3  0  0  0  0  0  0
  -28.8050  -36.2800   25.5520 C   0  0  0  0  0  1  0  0  0  0  0  0
  -27.6730  -36.7210   24.7430 N   0  0  0  0  0  0  0  0  0  0  0  0
  -27.4080  -37.6530   25.0500 H   0  0  0  0  0  0  0  0  0  0  0  0
  -27.0330  -30.9810   25.2720 C   0  0  1  0  0  0  0  0  0  0  0  0
  -26.0600  -30.6770   26.4340 C   0  0  0  0  0  1  0  0  0  0  0  0
  -27.4100  -29.6350   24.6070 C   0  0  0  0  0  1  0  0  0  0  0  0
  -28.3370  -31.5550   25.8750 C   0  0  0  0  0  1  0  0  0  0  0  0
  -29.9790  -19.8780   17.3910 C   0  0  0  0  0  2  0  0  0  0  0  0
  -31.5170  -18.5160   15.8850 C   0  0  0  0  0  1  0  0  0  0  0  0
  -30.7390  -18.5310   17.2110 C   0  0  0  0  0  3  0  0  0  0  0  0
  -29.7850  -17.3190   17.3160 C   0  0  0  0  0  2  0  0  0  0  0  0
  -31.0100  -15.5780   18.6330 C   0  0  0  0  0  0  0  0  0  0  0  0
  -31.4180  -13.2340   19.2730 C   0  0  0  0  0  2  0  0  0  0  0  0
  -30.6240  -12.3220   18.3140 C   0  0  0  0  0  2  0  0  0  0  0  0
  -29.1810  -12.1180   18.8160 C   0  0  0  0  0  2  0  0  0  0  0  0
  -28.4850  -13.4540   19.1910 C   0  0  0  0  0  3  0  0  0  0  0  0
  -29.4020  -14.3060   20.0980 C   0  0  0  0  0  2  0  0  0  0  0  0
  -30.6860  -14.5030   19.3990 N   0  0  0  0  0  0  0  0  0  0  0  0
  -32.0640  -15.6660   17.9950 O   0  0  0  0  0  0  0  0  0  0  0  0
  -30.0200  -16.4690   18.4860 N   0  0  0  0  0  0  0  0  0  0  0  0
  -29.2250  -16.3300   19.0920 H   0  0  0  0  0  0  0  0  0  0  0  0
  -26.1610  -14.1210   20.0820 C   0  0  0  0  0  0  0  0  0  0  0  0
  -25.1300  -13.3780   20.5940 C   0  0  0  0  0  0  0  0  0  0  0  0
  -25.5840  -12.0240   20.5930 C   0  0  0  0  0  0  0  0  0  0  0  0
  -27.1790  -13.2220   19.8050 N   0  0  0  0  0  0  0  0  0  0  0  0
  -26.8370  -11.9570   20.1660 N   0  0  0  0  0  0  0  0  0  0  0  0
  -24.8770  -10.7790   20.9210 C   0  0  0  0  0  0  0  0  0  0  0  0
  -25.0870  -10.1130   22.1480 C   0  0  0  0  0  3  0  0  0  0  0  0
  -24.3840   -8.9260   22.4490 C   0  0  0  0  0  3  0  0  0  0  0  0
  -23.4580   -8.3970   21.5200 C   0  0  0  0  0  0  0  0  0  0  0  0
  -23.2690   -9.0510   20.2910 C   0  0  0  0  0  3  0  0  0  0  0  0
  -23.9730  -10.2290   19.9910 C   0  0  0  0  0  3  0  0  0  0  0  0
  -22.7490   -7.2360   21.7150 O   0  0  0  0  0  0  0  0  0  0  0  0
  -22.0540   -7.0020   22.8750 C   0  0  0  0  0  0  0  0  0  0  0  0
  -20.9960   -7.8400   23.2910 C   0  0  0  0  0  3  0  0  0  0  0  0
  -20.2640   -7.5240   24.4530 C   0  0  0  0  0  3  0  0  0  0  0  0
  -20.5800   -6.3690   25.1940 C   0  0  0  0  0  0  0  0  0  0  0  0
  -21.6300   -5.5320   24.7770 C   0  0  0  0  0  3  0  0  0  0  0  0
  -22.3630   -5.8460   23.6190 C   0  0  0  0  0  0  0  0  0  0  0  0
  -23.3590   -5.0240   23.2110 F   0  0  0  0  0  0  0  0  0  0  0  0
  -19.8730   -6.0620   26.3050 F   0  0  0  0  0  0  0  0  0  0  0  0
  -23.7670  -13.8790   20.9750 C   0  0  0  0  0  0  0  0  0  0  0  0
  -23.1360  -13.2510   21.9620 N   0  0  0  0  0  0  0  0  0  0  0  0
  -23.2710  -14.8650   20.4290 O   0  0  0  0  0  0  0  0  0  0  0  0
  -23.5520  -12.4550   22.4230 H   0  0  0  0  0  0  0  0  0  0  0  0
  -22.2260  -13.5710   22.2600 H   0  0  0  0  0  0  0  0  0  0  0  0
  -26.3100  -15.4790   19.8140 N   0  0  0  0  0  0  0  0  0  0  0  0
  -25.5610  -16.1470   19.9600 H   0  0  0  0  0  0  0  0  0  0  0  0
  -27.1350  -15.8930   19.3980 H   0  0  0  0  0  0  0  0  0  0  0  0
  1  2  1  0
  2  4  1  0
  3  1  2  0
  5  2  2  0
  6  3  1  0
  6  5  1  0
  7  8  1  0
  7  3  1  0
  9  8  1  0
  9 10  1  0
 11 13  1  0
 11 10  1  0
 12 23  2  0
 13 18  1  0
 14 22  1  0
 14 24  1  0
 15 17  1  0
 15 21  1  0
 16 22  1  0
 17 16  1  0
 18 17  2  0
 19 20  1  0
 19 13  2  0
 20 15  2  0
 21 14  1  0
 22 12  1  0
 24 26  2  0
 25 24  1  0
 27 25  1  0
 28 37  2  0
 28 33  1  0
 29 25  1  0
 29 33  1  0
 30 29  1  0
 31 32  1  0
 31 30  1  0
 32 28  1  0
 33 34  2  0
 34 35  1  0
 36 35  2  0
 37 36  1  0
 38 12  1  0
 38 39  1  0
 38 48  1  0
 39 42  1  0
 40 39  1  0
 40 44  1  0
 41 40  2  0
 44 43  1  0
 46 44  1  0
 46 47  1  0
 46 45  1  0
 48 51  1  1
 48 49  1  0
 50 48  1  0
 52  6  1  0
 54 53  1  0
 54 55  1  0
 54 52  1  0
 55 64  1  0
 56 62  1  0
 57 62  1  0
 58 59  1  0
 58 57  1  0
 60 59  1  0
 60 69  1  0
 60 61  1  0
 62 61  1  0
 63 56  2  0
 64 56  1  0
 64 65  1  0
 66 67  2  0
 67 86  1  0
 68 67  1  0
 68 71  1  0
 69 66  1  0
 69 70  1  0
 70 68  2  0
 71 72  1  0
 72 73  2  0
 74 77  1  0
 74 73  1  0
 75 74  2  0
 76 75  1  0
 76 71  2  0
 77 78  1  0
 78 79  2  0
 78 83  1  0
 79 80  1  0
 80 81  2  0
 81 85  1  0
 82 81  1  0
 83 82  2  0
 84 83  1  0
 86 87  1  0
 87 90  1  0
 87 89  1  0
 88 86  2  0
 91 92  1  0
 91 66  1  0
 93 91  1  0
M  ISO  4  10 101  11 101  56 100  64 100
M  END
>  <TORSDO>  (27) 
F 23

>  <SCORE>  (27) 
-6.711

>  <name>  (27) 
27

>  <ligand_id>  (27) 
27

>  <original_smiles>  (27) 
[H]c1c([H])c([H])c2c(c1[H])C([H])([H])C([H])([H])C([H])([H])C2([H])N([H])C(=O)C1([H])N(C(=O)C([H])(N([H])C(=O)C([H])(N([H])C([H])([H])[H])C([H])([H])[H])C(C([H])([H])[H])(C([H])([H])[H])C([H])([H])[H])C([H])([H])c2c([H])c(OC([H])([H])C([H])([H])C([H])([H])C([H])([H])c3c([H])c(C([H])([H])[H])nn3C([H])([H])C([H])(C([H])([H])[H])C([H])([H])N([H])C(=O)N3C([H])([H])C([H])([H])C([H])([H])C([H])(n4nc(-c5c([H])c([H])c(Oc6c([H])c([H])c(F)c([H])c6F)c([H])c5[H])c(C(=O)N([H])[H])c4N([H])[H])C3([H])[H])c([H])c([H])c2C1([H])[H]

>  <smiles>  (27) 
[H]c1c([H])c([H])c2c(c1[H])C([H])([H])C([H])([H])C([H])([H])C2([H])N([H])C(=O)C1([H])N(C(=O)C([H])(N([H])C(=O)C([H])(N([H])C([H])([H])[H])C([H])([H])[H])C(C([H])([H])[H])(C([H])([H])[H])C([H])([H])[H])C([H])([H])c2c([H])c(OC([H])([H])C([H])([H])C([H])([H])C([H])([H])c3c([H])c(C([H])([H])[H])nn3C([H])([H])C([H])(C([H])([H])[H])C([H])([H])N([H])C(=O)N3C([H])([H])C([H])([H])C([H])([H])C([H])(n4nc(-c5c([H])c([H])c(Oc6c([H])c([H])c(F)c([H])c6F)c([H])c5[H])c(C(=O)N([H])[H])c4N([H])[H])C3([H])[H])c([H])c([H])c2C1([H])[H]

$$$$
28:0:0
     RDKit          3D

 94102  0  0  1  0  0  0  0  0999 V2000
  -27.9850  -22.1160   19.9460 C   0  0  0  0  0  3  0  0  0  0  0  0
  -27.0460  -21.4990   19.1060 C   0  0  0  0  0  0  0  0  0  0  0  0
  -29.1840  -21.4730   20.3250 C   0  0  0  0  0  0  0  0  0  0  0  0
  -27.2970  -20.1770   18.7030 C   0  0  0  0  0  0  0  0  0  0  0  0
  -29.3660  -20.0940   19.8280 C   0  0  0  0  0  0  0  0  0  0  0  0
  -26.3350  -19.3870   17.8350 C   0  0  0  0  0  1  0  0  0  0  0  0
  -28.4180  -19.5230   19.0510 N   0  0  0  0  0  0  0  0  0  0  0  0
  -25.8240  -22.2940   18.6550 C   0  0  0  0  0  2  0  0  0  0  0  0
  -24.9300  -24.6750   18.3030 C   0  0  0  0  0  1  0  0  0  0  0  0
  -26.1660  -23.7720   18.3750 C   0  0  0  0  0  2  0  0  0  0  0  0
  -30.1490  -22.4130   21.1550 C   0  0  0  0  0  2  0  0  0  0  0  0
  -29.6850  -23.9020   21.6660 C   0  0  0  0  0  3  0  0  0  0  0  0
  -29.3020  -25.1360   20.6890 C   0  0  0  0  0  3  0  0  0  0  0  0
  -29.2560  -26.5570   21.1960 O   0  0  0  0  0  0  0  0  0  0  0  0
  -24.9590  -31.9590   23.4600 C   0  0  0  0  0  0  0  0  0  0  0  0
  -28.1190  -27.3710   20.9580 C   0  0  0  0  0  0  0  0  0  0  0  0
  -24.0140  -30.4030   21.7970 C   0  0  0  0  0  3  0  0  0  0  0  0
  -25.6880  -28.8720   20.6120 C   0  0  0  0  0  0  0  0  0  0  0  0
  -26.5420  -30.8550   21.8550 C   0  0  0  0  0  2  0  0  0  0  0  0
  -26.7640  -29.4480   21.2990 C   0  0  0  0  0  0  0  0  0  0  0  0
  -27.9800  -28.7090   21.4620 C   0  0  0  0  0  3  0  0  0  0  0  0
  -27.0210  -26.8650   20.2240 C   0  0  0  0  0  3  0  0  0  0  0  0
  -25.8240  -27.5870   20.0640 C   0  0  0  0  0  3  0  0  0  0  0  0
  -24.4060  -29.6720   20.4880 C   0  0  0  0  0  2  0  0  0  0  0  0
  -25.1840  -31.0960   22.4270 N   0  0  0  0  0  0  0  0  0  0  0  0
  -23.8120  -32.2000   23.8630 O   0  0  0  0  0  0  0  0  0  0  0  0
  -23.3100  -29.4010   22.7450 C   0  0  0  0  0  0  0  0  0  0  0  0
  -22.0230  -29.1190   22.4820 N   0  0  0  0  0  0  0  0  0  0  0  0
  -23.9290  -28.8770   23.6750 O   0  0  0  0  0  0  0  0  0  0  0  0
  -21.5810  -29.5980   21.7110 H   0  0  0  0  0  0  0  0  0  0  0  0
  -18.6690  -27.7870   22.7530 C   0  0  0  0  0  0  0  0  0  0  0  0
  -21.1840  -28.1730   23.2190 C   0  0  0  0  0  3  0  0  0  0  0  0
  -21.3930  -26.7270   22.7110 C   0  0  0  0  0  2  0  0  0  0  0  0
  -20.3940  -26.3200   21.6230 C   0  0  0  0  0  2  0  0  0  0  0  0
  -18.9590  -26.4240   22.1460 C   0  0  0  0  0  2  0  0  0  0  0  0
  -19.7150  -28.6140   23.2410 C   0  0  0  0  0  0  0  0  0  0  0  0
  -19.3930  -29.8860   23.7640 C   0  0  0  0  0  3  0  0  0  0  0  0
  -18.0570  -30.3300   23.8090 C   0  0  0  0  0  3  0  0  0  0  0  0
  -17.0250  -29.5000   23.3370 C   0  0  0  0  0  3  0  0  0  0  0  0
  -17.3320  -28.2320   22.8120 C   0  0  0  0  0  3  0  0  0  0  0  0
  -26.1310  -32.7050   24.1700 C   0  0  0  0  0  3  0  0  0  0  0  0
  -25.7030  -34.0950   24.3910 N   0  0  0  0  0  0  0  0  0  0  0  0
  -26.0010  -35.1220   23.5830 C   0  0  0  0  0  0  0  0  0  0  0  0
  -26.7340  -35.0060   22.5980 O   0  0  0  0  0  0  0  0  0  0  0  0
  -25.0500  -34.2510   25.1460 H   0  0  0  0  0  0  0  0  0  0  0  0
  -24.1650  -36.7590   23.0410 C   0  0  0  0  0  1  0  0  0  0  0  0
  -25.3940  -36.4960   23.9260 C   0  0  0  0  0  3  0  0  0  0  0  0
  -27.4280  -37.5860   24.7700 C   0  0  0  0  0  1  0  0  0  0  0  0
  -26.3510  -37.6160   23.7840 N   0  0  0  0  0  0  0  0  0  0  0  0
  -25.8720  -38.5090   23.8650 H   0  0  0  0  0  0  0  0  0  0  0  0
  -26.5600  -32.0330   25.5330 C   0  0  1  0  0  0  0  0  0  0  0  0
  -25.3710  -31.7020   26.4670 C   0  0  0  0  0  1  0  0  0  0  0  0
  -27.3340  -30.7170   25.2800 C   0  0  0  0  0  1  0  0  0  0  0  0
  -27.5230  -32.9720   26.2980 C   0  0  0  0  0  1  0  0  0  0  0  0
  -30.5990  -19.1020   19.8810 C   0  0  0  0  0  2  0  0  0  0  0  0
  -30.6580  -17.8940   20.9840 C   0  0  0  0  0  2  0  0  0  0  0  0
  -31.0230  -15.2950   20.5510 C   0  0  0  0  0  0  0  0  0  0  0  0
  -30.8710  -13.0110   19.5420 C   0  0  0  0  0  2  0  0  0  0  0  0
  -29.9690  -13.0570   18.2900 C   0  0  0  0  0  2  0  0  0  0  0  0
  -28.4880  -12.8730   18.6780 C   0  0  0  0  0  2  0  0  0  0  0  0
  -28.0670  -13.7780   19.8670 C   0  0  0  0  0  3  0  0  0  0  0  0
  -29.0900  -13.7110   21.0210 C   0  0  0  0  0  2  0  0  0  0  0  0
  -30.3980  -14.0710   20.4610 N   0  0  0  0  0  0  0  0  0  0  0  0
  -32.2270  -15.3860   20.3070 O   0  0  0  0  0  0  0  0  0  0  0  0
  -30.2440  -16.4340   20.7200 N   0  0  0  0  0  0  0  0  0  0  0  0
  -29.2540  -16.2560   20.8120 H   0  0  0  0  0  0  0  0  0  0  0  0
  -25.6840  -14.3720   20.6060 C   0  0  0  0  0  0  0  0  0  0  0  0
  -24.5940  -13.5990   20.8980 C   0  0  0  0  0  0  0  0  0  0  0  0
  -25.0240  -12.2430   20.7670 C   0  0  0  0  0  0  0  0  0  0  0  0
  -26.7090  -13.4870   20.3170 N   0  0  0  0  0  0  0  0  0  0  0  0
  -26.3190  -12.1960   20.4770 N   0  0  0  0  0  0  0  0  0  0  0  0
  -24.2630  -10.9890   20.8440 C   0  0  0  0  0  0  0  0  0  0  0  0
  -24.6490   -9.9420   21.7100 C   0  0  0  0  0  3  0  0  0  0  0  0
  -23.8910   -8.7550   21.7800 C   0  0  0  0  0  3  0  0  0  0  0  0
  -22.7290   -8.6060   20.9840 C   0  0  0  0  0  0  0  0  0  0  0  0
  -22.3630   -9.6410   20.1070 C   0  0  0  0  0  3  0  0  0  0  0  0
  -23.1230  -10.8210   20.0340 C   0  0  0  0  0  3  0  0  0  0  0  0
  -21.9450   -7.4770   20.9670 O   0  0  0  0  0  0  0  0  0  0  0  0
  -21.8130   -6.6770   22.0730 C   0  0  0  0  0  0  0  0  0  0  0  0
  -21.3310   -7.1780   23.3030 C   0  0  0  0  0  3  0  0  0  0  0  0
  -21.1420   -6.3050   24.3930 C   0  0  0  0  0  3  0  0  0  0  0  0
  -21.4280   -4.9330   24.2560 C   0  0  0  0  0  0  0  0  0  0  0  0
  -21.9020   -4.4330   23.0320 C   0  0  0  0  0  3  0  0  0  0  0  0
  -22.0910   -5.3020   21.9430 C   0  0  0  0  0  0  0  0  0  0  0  0
  -22.5290   -4.8090   20.7580 F   0  0  0  0  0  0  0  0  0  0  0  0
  -21.2410   -4.0930   25.3000 F   0  0  0  0  0  0  0  0  0  0  0  0
  -23.2050  -14.0890   21.1850 C   0  0  0  0  0  0  0  0  0  0  0  0
  -22.4540  -13.3540   21.9990 N   0  0  0  0  0  0  0  0  0  0  0  0
  -22.7950  -15.1540   20.7260 O   0  0  0  0  0  0  0  0  0  0  0  0
  -22.8000  -12.4900   22.3890 H   0  0  0  0  0  0  0  0  0  0  0  0
  -21.5210  -13.6600   22.2360 H   0  0  0  0  0  0  0  0  0  0  0  0
  -25.8830  -15.7470   20.5350 N   0  0  0  0  0  0  0  0  0  0  0  0
  -25.1230  -16.4030   20.6740 H   0  0  0  0  0  0  0  0  0  0  0  0
  -26.7410  -16.1950   20.2450 H   0  0  0  0  0  0  0  0  0  0  0  0
  1  3  1  0
  2  1  2  0
  3 11  1  0
  4  7  2  0
  4  2  1  0
  5 55  1  0
  5  3  2  0
  6  4  1  0
  7  5  1  0
  8  2  1  0
  9 10  1  0
 10  8  1  0
 11 12  1  0
 13 14  1  0
 13 12  2  0
 15 26  2  0
 16 14  1  0
 16 21  1  0
 17 25  1  0
 17 27  1  0
 18 20  1  0
 19 25  1  0
 20 21  2  0
 20 19  1  0
 22 16  2  0
 23 22  1  0
 23 18  2  0
 24 18  1  0
 24 17  1  0
 25 15  1  0
 27 29  2  0
 28 27  1  0
 30 28  1  0
 31 40  2  0
 31 36  1  0
 32 28  1  0
 32 36  1  0
 33 32  1  0
 34 35  1  0
 34 33  1  0
 35 31  1  0
 36 37  2  0
 37 38  1  0
 39 38  2  0
 40 39  1  0
 41 15  1  0
 41 42  1  0
 41 51  1  0
 42 45  1  0
 43 47  1  0
 43 42  1  0
 44 43  2  0
 47 46  1  0
 49 50  1  0
 49 47  1  0
 49 48  1  0
 51 54  1  1
 51 52  1  0
 53 51  1  0
 55 56  1  0
 57 65  1  0
 58 63  1  0
 59 60  1  0
 59 58  1  0
 61 60  1  0
 61 70  1  0
 61 62  1  0
 63 57  1  0
 63 62  1  0
 64 57  2  0
 65 66  1  0
 65 56  1  0
 67 68  2  0
 68 87  1  0
 69 72  1  0
 69 68  1  0
 70 71  1  0
 70 67  1  0
 71 69  2  0
 72 73  1  0
 73 74  2  0
 75 74  1  0
 76 75  2  0
 77 76  1  0
 77 72  2  0
 78 75  1  0
 78 79  1  0
 79 80  1  0
 80 81  2  0
 82 81  1  0
 82 86  1  0
 83 82  2  0
 84 79  2  0
 84 83  1  0
 85 84  1  0
 87 88  1  0
 88 91  1  0
 88 90  1  0
 89 87  2  0
 92 67  1  0
 92 93  1  0
 94 92  1  0
M  ISO  4  13 101  14 101  57 100  65 100
M  END
>  <TORSDO>  (28) 
F 23

>  <SCORE>  (28) 
-11.443

>  <name>  (28) 
28

>  <ligand_id>  (28) 
28

>  <original_smiles>  (28) 
[H]c1c([H])c([H])c2c(c1[H])C([H])([H])C([H])([H])C([H])([H])C2([H])N([H])C(=O)C1([H])N(C(=O)C([H])(N([H])C(=O)C([H])(N([H])C([H])([H])[H])C([H])([H])[H])C(C([H])([H])[H])(C([H])([H])[H])C([H])([H])[H])C([H])([H])c2c([H])c(OC([H])([H])C([H])([H])C([H])([H])c3c(C([H])([H])C([H])([H])N([H])C(=O)N4C([H])([H])C([H])([H])C([H])([H])C([H])(n5nc(-c6c([H])c([H])c(Oc7c([H])c([H])c(F)c([H])c7F)c([H])c6[H])c(C(=O)N([H])[H])c5N([H])[H])C4([H])[H])nc(C([H])([H])[H])c(C([H])([H])C([H])([H])C([H])([H])[H])c3[H])c([H])c([H])c2C1([H])[H]

>  <smiles>  (28) 
[H]c1c([H])c([H])c2c(c1[H])C([H])([H])C([H])([H])C([H])([H])C2([H])N([H])C(=O)C1([H])N(C(=O)C([H])(N([H])C(=O)C([H])(N([H])C([H])([H])[H])C([H])([H])[H])C(C([H])([H])[H])(C([H])([H])[H])C([H])([H])[H])C([H])([H])c2c([H])c(OC([H])([H])C([H])([H])C([H])([H])c3c(C([H])([H])C([H])([H])N([H])C(=O)N4C([H])([H])C([H])([H])C([H])([H])C([H])(n5nc(-c6c([H])c([H])c(Oc7c([H])c([H])c(F)c([H])c7F)c([H])c6[H])c(C(=O)N([H])[H])c5N([H])[H])C4([H])[H])nc(C([H])([H])[H])c(C([H])([H])C([H])([H])C([H])([H])[H])c3[H])c([H])c([H])c2C1([H])[H]

$$$$
29:0:0
     RDKit          3D

 95103  0  0  1  0  0  0  0  0999 V2000
  -27.7370  -19.9350   19.8490 C   0  0  0  0  0  3  0  0  0  0  0  0
  -28.9430  -19.9000   20.6100 C   0  0  0  0  0  0  0  0  0  0  0  0
  -27.4380  -18.6960   19.3730 C   0  0  0  0  0  0  0  0  0  0  0  0
  -29.3610  -18.5680   20.5800 C   0  0  0  0  0  0  0  0  0  0  0  0
  -28.4140  -16.3840   19.7240 C   0  0  0  0  0  1  0  0  0  0  0  0
  -28.3990  -17.8330   19.8810 N   0  0  0  0  0  0  0  0  0  0  0  0
  -26.2400  -19.1190   17.2040 C   0  0  0  0  0  1  0  0  0  0  0  0
  -24.9470  -18.3940   19.2620 C   0  0  0  0  0  1  0  0  0  0  0  0
  -26.2750  -18.2960   18.4990 C   0  0  0  0  0  3  0  0  0  0  0  0
  -31.0570  -20.9930   21.5620 C   0  0  0  0  0  1  0  0  0  0  0  0
  -29.5430  -21.1480   21.3110 C   0  0  0  0  0  3  0  0  0  0  0  0
  -29.2800  -22.5370   20.5910 C   0  0  0  0  0  3  0  0  0  0  0  0
  -28.7280  -23.6970   21.4820 C   0  0  0  0  0  3  0  0  0  0  0  0
  -28.1940  -24.9650   20.7040 C   0  0  0  0  0  2  0  0  0  0  0  0
  -28.3710  -26.4010   20.8750 O   0  0  0  0  0  0  0  0  0  0  0  0
  -24.5960  -31.9100   23.4030 C   0  0  0  0  0  0  0  0  0  0  0  0
  -27.2390  -27.1960   20.7210 C   0  0  0  0  0  0  0  0  0  0  0  0
  -23.4190  -30.4330   21.8100 C   0  0  0  0  0  3  0  0  0  0  0  0
  -24.8880  -28.7780   20.5340 C   0  0  0  0  0  0  0  0  0  0  0  0
  -25.9610  -30.7180   21.6880 C   0  0  0  0  0  2  0  0  0  0  0  0
  -26.0400  -29.3080   21.1300 C   0  0  0  0  0  0  0  0  0  0  0  0
  -27.2200  -28.5270   21.2130 C   0  0  0  0  0  3  0  0  0  0  0  0
  -26.0660  -26.6910   20.1130 C   0  0  0  0  0  3  0  0  0  0  0  0
  -24.8980  -27.4690   20.0220 C   0  0  0  0  0  3  0  0  0  0  0  0
  -23.6630  -29.6670   20.4820 C   0  0  0  0  0  2  0  0  0  0  0  0
  -24.6750  -31.0390   22.3580 N   0  0  0  0  0  0  0  0  0  0  0  0
  -23.5050  -32.2400   23.8870 O   0  0  0  0  0  0  0  0  0  0  0  0
  -22.7090  -29.4890   22.8100 C   0  0  0  0  0  0  0  0  0  0  0  0
  -21.4030  -29.2570   22.5940 N   0  0  0  0  0  0  0  0  0  0  0  0
  -23.3330  -28.9660   23.7360 O   0  0  0  0  0  0  0  0  0  0  0  0
  -20.9600  -29.7370   21.8250 H   0  0  0  0  0  0  0  0  0  0  0  0
  -18.0310  -27.9980   22.9070 C   0  0  0  0  0  0  0  0  0  0  0  0
  -20.5430  -28.3720   23.3810 C   0  0  0  0  0  3  0  0  0  0  0  0
  -20.7390  -26.8960   22.9670 C   0  0  0  0  0  2  0  0  0  0  0  0
  -19.7460  -26.4330   21.8960 C   0  0  0  0  0  2  0  0  0  0  0  0
  -18.3060  -26.5930   22.3950 C   0  0  0  0  0  2  0  0  0  0  0  0
  -19.0840  -28.8390   23.3540 C   0  0  0  0  0  0  0  0  0  0  0  0
  -18.7810  -30.1460   23.7880 C   0  0  0  0  0  3  0  0  0  0  0  0
  -17.4540  -30.6170   23.7870 C   0  0  0  0  0  3  0  0  0  0  0  0
  -16.4110  -29.7760   23.3600 C   0  0  0  0  0  3  0  0  0  0  0  0
  -16.7000  -28.4690   22.9240 C   0  0  0  0  0  3  0  0  0  0  0  0
  -25.8750  -32.5530   24.0280 C   0  0  0  0  0  3  0  0  0  0  0  0
  -25.5730  -33.9650   24.2960 N   0  0  0  0  0  0  0  0  0  0  0  0
  -25.9260  -34.9840   23.5030 C   0  0  0  0  0  0  0  0  0  0  0  0
  -26.6080  -34.8370   22.4840 O   0  0  0  0  0  0  0  0  0  0  0  0
  -24.9620  -34.1530   25.0770 H   0  0  0  0  0  0  0  0  0  0  0  0
  -24.2020  -36.7680   23.0760 C   0  0  0  0  0  1  0  0  0  0  0  0
  -25.4420  -36.3910   23.9030 C   0  0  0  0  0  3  0  0  0  0  0  0
  -27.5790  -37.3030   24.6930 C   0  0  0  0  0  1  0  0  0  0  0  0
  -26.4750  -37.4370   23.7480 N   0  0  0  0  0  0  0  0  0  0  0  0
  -26.0700  -38.3630   23.8610 H   0  0  0  0  0  0  0  0  0  0  0  0
  -26.3580  -31.8290   25.3440 C   0  0  1  0  0  0  0  0  0  0  0  0
  -25.2270  -31.5870   26.3720 C   0  0  0  0  0  1  0  0  0  0  0  0
  -26.9960  -30.4590   25.0100 C   0  0  0  0  0  1  0  0  0  0  0  0
  -27.4550  -32.6720   26.0370 C   0  0  0  0  0  1  0  0  0  0  0  0
  -30.5500  -17.8230   21.1900 C   0  0  0  0  0  2  0  0  0  0  0  0
  -31.1310  -16.6070   20.3920 C   0  0  0  0  0  2  0  0  0  0  0  0
  -31.3260  -14.0980   20.3910 C   0  0  0  0  0  0  0  0  0  0  0  0
  -30.9510  -11.8210   19.4930 C   0  0  0  0  0  2  0  0  0  0  0  0
  -30.0300  -11.9230   18.2600 C   0  0  0  0  0  2  0  0  0  0  0  0
  -28.5440  -11.9090   18.6750 C   0  0  0  0  0  2  0  0  0  0  0  0
  -28.2340  -12.8820   19.8470 C   0  0  0  0  0  3  0  0  0  0  0  0
  -29.2730  -12.7400   20.9830 C   0  0  0  0  0  2  0  0  0  0  0  0
  -30.6100  -12.9370   20.4000 N   0  0  0  0  0  0  0  0  0  0  0  0
  -32.4620  -14.1580   19.9130 O   0  0  0  0  0  0  0  0  0  0  0  0
  -30.6740  -15.2320   20.7520 N   0  0  0  0  0  0  0  0  0  0  0  0
  -29.7390  -15.1200   21.1100 H   0  0  0  0  0  0  0  0  0  0  0  0
  -25.9000  -13.6620   20.6040 C   0  0  0  0  0  0  0  0  0  0  0  0
  -24.7830  -12.9700   20.9840 C   0  0  0  0  0  0  0  0  0  0  0  0
  -25.1280  -11.5860   20.8990 C   0  0  0  0  0  0  0  0  0  0  0  0
  -26.8680  -12.7060   20.3370 N   0  0  0  0  0  0  0  0  0  0  0  0
  -26.4050  -11.4510   20.5670 N   0  0  0  0  0  0  0  0  0  0  0  0
  -24.2980  -10.3850   21.0570 C   0  0  0  0  0  0  0  0  0  0  0  0
  -24.6420   -9.3610   21.9650 C   0  0  0  0  0  3  0  0  0  0  0  0
  -23.8150   -8.2250   22.1110 C   0  0  0  0  0  3  0  0  0  0  0  0
  -22.6290   -8.1080   21.3490 C   0  0  0  0  0  0  0  0  0  0  0  0
  -22.3060   -9.1180   20.4250 C   0  0  0  0  0  3  0  0  0  0  0  0
  -23.1330  -10.2440   20.2770 C   0  0  0  0  0  3  0  0  0  0  0  0
  -21.7780   -7.0310   21.4080 O   0  0  0  0  0  0  0  0  0  0  0  0
  -21.6290   -6.2950   22.5580 C   0  0  0  0  0  0  0  0  0  0  0  0
  -21.2170   -6.8860   23.7730 C   0  0  0  0  0  3  0  0  0  0  0  0
  -21.0100   -6.0810   24.9120 C   0  0  0  0  0  3  0  0  0  0  0  0
  -21.2050   -4.6890   24.8350 C   0  0  0  0  0  0  0  0  0  0  0  0
  -21.6080   -4.0990   23.6250 C   0  0  0  0  0  3  0  0  0  0  0  0
  -21.8170   -4.9000   22.4880 C   0  0  0  0  0  0  0  0  0  0  0  0
  -22.1860   -4.3250   21.3190 F   0  0  0  0  0  0  0  0  0  0  0  0
  -20.9980   -3.9150   25.9250 F   0  0  0  0  0  0  0  0  0  0  0  0
  -23.4370  -13.5560   21.3020 C   0  0  0  0  0  0  0  0  0  0  0  0
  -22.6770  -12.9080   22.1790 N   0  0  0  0  0  0  0  0  0  0  0  0
  -23.0720  -14.6230   20.8090 O   0  0  0  0  0  0  0  0  0  0  0  0
  -22.9840  -12.0430   22.5990 H   0  0  0  0  0  0  0  0  0  0  0  0
  -21.7730  -13.2790   22.4330 H   0  0  0  0  0  0  0  0  0  0  0  0
  -26.1580  -15.0170   20.4350 N   0  0  0  0  0  0  0  0  0  0  0  0
  -25.4240  -15.7080   20.5420 H   0  0  0  0  0  0  0  0  0  0  0  0
  -26.9940  -15.3950   20.0100 H   0  0  0  0  0  0  0  0  0  0  0  0
  1  2  1  0
  2 11  1  0
  3  1  2  0
  3  6  1  0
  4  2  2  0
  4 56  1  0
  5  6  1  0
  6  4  1  0
  7  9  1  0
  9  8  1  0
  9  3  1  0
 11 10  1  0
 12 11  1  0
 12 13  2  0
 14 15  1  0
 14 13  1  0
 16 27  2  0
 17 15  1  0
 17 22  1  0
 18 26  1  0
 18 28  1  0
 19 21  1  0
 20 26  1  0
 21 22  2  0
 21 20  1  0
 23 17  2  0
 24 23  1  0
 24 19  2  0
 25 19  1  0
 25 18  1  0
 26 16  1  0
 28 30  2  0
 29 28  1  0
 31 29  1  0
 32 41  2  0
 32 37  1  0
 33 29  1  0
 34 33  1  0
 35 36  1  0
 35 34  1  0
 36 32  1  0
 37 33  1  0
 37 38  2  0
 39 38  1  0
 40 39  2  0
 41 40  1  0
 42 16  1  0
 42 43  1  0
 42 52  1  0
 43 46  1  0
 44 48  1  0
 44 43  1  0
 45 44  2  0
 48 47  1  0
 50 51  1  0
 50 48  1  0
 50 49  1  0
 52 55  1  1
 52 53  1  0
 54 52  1  0
 57 66  1  0
 57 56  1  0
 58 64  1  0
 58 66  1  0
 59 64  1  0
 60 61  1  0
 60 59  1  0
 62 61  1  0
 62 71  1  0
 62 63  1  0
 64 63  1  0
 65 58  2  0
 66 67  1  0
 68 69  2  0
 69 88  1  0
 70 69  1  0
 70 73  1  0
 71 72  1  0
 71 68  1  0
 72 70  2  0
 73 74  1  0
 74 75  2  0
 76 79  1  0
 76 75  1  0
 77 76  2  0
 78 77  1  0
 78 73  2  0
 79 80  1  0
 80 81  1  0
 81 82  2  0
 83 82  1  0
 83 87  1  0
 84 83  2  0
 85 80  2  0
 85 84  1  0
 86 85  1  0
 88 89  1  0
 89 92  1  0
 89 91  1  0
 90 88  2  0
 93 94  1  0
 93 68  1  0
 95 93  1  0
M  ISO  4  14 101  15 101  58 100  66 100
M  END
>  <TORSDO>  (29) 
F 23

>  <SCORE>  (29) 
-10.552

>  <name>  (29) 
29

>  <ligand_id>  (29) 
29

>  <original_smiles>  (29) 
[H]c1c([H])c([H])c2c(c1[H])C([H])([H])C([H])([H])C([H])([H])C2([H])N([H])C(=O)C1([H])N(C(=O)C([H])(N([H])C(=O)C([H])(N([H])C([H])([H])[H])C([H])([H])[H])C(C([H])([H])[H])(C([H])([H])[H])C([H])([H])[H])C([H])([H])c2c([H])c(OC([H])([H])C([H])([H])C([H])([H])C([H])(c3c([H])c(C([H])(C([H])([H])[H])C([H])([H])[H])n(C([H])([H])[H])c3C([H])([H])C([H])([H])N([H])C(=O)N3C([H])([H])C([H])([H])C([H])([H])C([H])(n4nc(-c5c([H])c([H])c(Oc6c([H])c([H])c(F)c([H])c6F)c([H])c5[H])c(C(=O)N([H])[H])c4N([H])[H])C3([H])[H])C([H])([H])[H])c([H])c([H])c2C1([H])[H]

>  <smiles>  (29) 
[H]c1c([H])c([H])c2c(c1[H])C([H])([H])C([H])([H])C([H])([H])C2([H])N([H])C(=O)C1([H])N(C(=O)C([H])(N([H])C(=O)C([H])(N([H])C([H])([H])[H])C([H])([H])[H])C(C([H])([H])[H])(C([H])([H])[H])C([H])([H])[H])C([H])([H])c2c([H])c(OC([H])([H])C([H])([H])C([H])([H])C([H])(c3c([H])c(C([H])(C([H])([H])[H])C([H])([H])[H])n(C([H])([H])[H])c3C([H])([H])C([H])([H])N([H])C(=O)N3C([H])([H])C([H])([H])C([H])([H])C([H])(n4nc(-c5c([H])c([H])c(Oc6c([H])c([H])c(F)c([H])c6F)c([H])c5[H])c(C(=O)N([H])[H])c4N([H])[H])C3([H])[H])C([H])([H])[H])c([H])c([H])c2C1([H])[H]

$$$$
30:0:0
     RDKit          3D

 93101  0  0  1  0  0  0  0  0999 V2000
  -29.9690  -19.8510   20.8990 C   0  0  0  0  0  3  0  0  0  0  0  0
  -30.2200  -18.9080   21.8540 C   0  0  0  0  0  0  0  0  0  0  0  0
  -31.0260  -19.5390   22.8520 C   0  0  0  0  0  0  0  0  0  0  0  0
  -31.2720  -20.8260   22.4360 C   0  0  0  0  0  0  0  0  0  0  0  0
  -31.5120  -18.9170   24.1400 C   0  0  0  0  0  1  0  0  0  0  0  0
  -32.0770  -21.9180   23.0780 C   0  0  0  0  0  1  0  0  0  0  0  0
  -30.5990  -21.0270   21.2410 N   0  0  0  0  0  0  0  0  0  0  0  0
  -29.7120  -17.4820   21.8240 C   0  0  0  0  0  2  0  0  0  0  0  0
  -30.7190  -16.5380   21.1370 C   0  0  0  0  0  2  0  0  0  0  0  0
  -30.6410  -14.3320   20.0150 C   0  0  0  0  0  0  0  0  0  0  0  0
  -30.2290  -12.2270   18.7940 C   0  0  0  0  0  2  0  0  0  0  0  0
  -29.1850  -12.4630   17.6860 C   0  0  0  0  0  2  0  0  0  0  0  0
  -27.7600  -12.2740   18.2360 C   0  0  0  0  0  2  0  0  0  0  0  0
  -27.5240  -13.0790   19.5430 C   0  0  0  0  0  3  0  0  0  0  0  0
  -28.6720  -12.8430   20.5510 C   0  0  0  0  0  2  0  0  0  0  0  0
  -29.9480  -13.1700   19.8900 N   0  0  0  0  0  0  0  0  0  0  0  0
  -31.6040  -14.6240   19.3020 O   0  0  0  0  0  0  0  0  0  0  0  0
  -30.2020  -15.1780   20.9620 N   0  0  0  0  0  0  0  0  0  0  0  0
  -29.4410  -14.8710   21.5510 H   0  0  0  0  0  0  0  0  0  0  0  0
  -25.1800  -13.6290   20.4560 C   0  0  0  0  0  0  0  0  0  0  0  0
  -24.1660  -12.8280   20.9100 C   0  0  0  0  0  0  0  0  0  0  0  0
  -24.6500  -11.4890   20.8190 C   0  0  0  0  0  0  0  0  0  0  0  0
  -26.2200  -12.7710   20.1280 N   0  0  0  0  0  0  0  0  0  0  0  0
  -25.9090  -11.4770   20.3980 N   0  0  0  0  0  0  0  0  0  0  0  0
  -23.9710  -10.2090   21.0560 C   0  0  0  0  0  0  0  0  0  0  0  0
  -24.4500   -9.2840   22.0110 C   0  0  0  0  0  3  0  0  0  0  0  0
  -23.7710   -8.0680   22.2340 C   0  0  0  0  0  3  0  0  0  0  0  0
  -22.5970   -7.7670   21.5030 C   0  0  0  0  0  0  0  0  0  0  0  0
  -22.1350   -8.6800   20.5390 C   0  0  0  0  0  3  0  0  0  0  0  0
  -22.8160   -9.8900   20.3140 C   0  0  0  0  0  3  0  0  0  0  0  0
  -21.8830   -6.6010   21.6350 O   0  0  0  0  0  0  0  0  0  0  0  0
  -21.8040   -5.9360   22.8320 C   0  0  0  0  0  0  0  0  0  0  0  0
  -21.2590   -6.5410   23.9850 C   0  0  0  0  0  3  0  0  0  0  0  0
  -21.1350   -5.7990   25.1770 C   0  0  0  0  0  3  0  0  0  0  0  0
  -21.5450   -4.4520   25.2150 C   0  0  0  0  0  0  0  0  0  0  0  0
  -22.0830   -3.8470   24.0650 C   0  0  0  0  0  3  0  0  0  0  0  0
  -22.2090   -4.5870   22.8760 C   0  0  0  0  0  0  0  0  0  0  0  0
  -22.7090   -3.9930   21.7660 F   0  0  0  0  0  0  0  0  0  0  0  0
  -21.4180   -3.7370   26.3570 F   0  0  0  0  0  0  0  0  0  0  0  0
  -22.7900  -13.2730   21.3140 C   0  0  0  0  0  0  0  0  0  0  0  0
  -22.1580  -12.5460   22.2310 N   0  0  0  0  0  0  0  0  0  0  0  0
  -22.2860  -14.2980   20.8560 O   0  0  0  0  0  0  0  0  0  0  0  0
  -22.5770  -11.7120   22.6160 H   0  0  0  0  0  0  0  0  0  0  0  0
  -21.2430  -12.8280   22.5540 H   0  0  0  0  0  0  0  0  0  0  0  0
  -25.3040  -15.0040   20.2820 N   0  0  0  0  0  0  0  0  0  0  0  0
  -24.5420  -15.6480   20.4560 H   0  0  0  0  0  0  0  0  0  0  0  0
  -26.1190  -15.4580   19.8850 H   0  0  0  0  0  0  0  0  0  0  0  0
  -30.5230  -22.2510   20.4540 C   0  0  0  0  0  2  0  0  0  0  0  0
  -29.3840  -23.1710   20.9360 C   0  0  0  0  0  2  0  0  0  0  0  0
  -28.3310  -24.0250   18.7840 C   0  0  0  0  0  1  0  0  0  0  0  0
  -29.1600  -24.4080   20.0310 C   0  0  0  0  0  3  0  0  0  0  0  0
  -28.5110  -25.5600   20.8310 C   0  0  0  0  0  2  0  0  0  0  0  0
  -28.5210  -26.7860   20.0930 O   0  0  0  0  0  0  0  0  0  0  0  0
  -24.5620  -31.8150   23.2070 C   0  0  0  0  0  0  0  0  0  0  0  0
  -27.3390  -27.4880   20.1050 C   0  0  0  0  0  0  0  0  0  0  0  0
  -23.4120  -30.4280   21.5100 C   0  0  0  0  0  3  0  0  0  0  0  0
  -24.9180  -28.9370   20.0920 C   0  0  0  0  0  0  0  0  0  0  0  0
  -25.9330  -30.8300   21.3740 C   0  0  0  0  0  2  0  0  0  0  0  0
  -26.0540  -29.4780   20.7060 C   0  0  0  0  0  0  0  0  0  0  0  0
  -27.2730  -28.7630   20.7020 C   0  0  0  0  0  3  0  0  0  0  0  0
  -26.1900  -26.9480   19.4970 C   0  0  0  0  0  3  0  0  0  0  0  0
  -24.9790  -27.6700   19.4850 C   0  0  0  0  0  3  0  0  0  0  0  0
  -23.6590  -29.7730   20.1250 C   0  0  0  0  0  2  0  0  0  0  0  0
  -24.6520  -31.0380   22.0890 N   0  0  0  0  0  0  0  0  0  0  0  0
  -23.4670  -32.0670   23.7300 O   0  0  0  0  0  0  0  0  0  0  0  0
  -22.7550  -29.3800   22.4390 C   0  0  0  0  0  0  0  0  0  0  0  0
  -21.4350  -29.1930   22.2880 N   0  0  0  0  0  0  0  0  0  0  0  0
  -23.4320  -28.7400   23.2490 O   0  0  0  0  0  0  0  0  0  0  0  0
  -20.9480  -29.7710   21.6170 H   0  0  0  0  0  0  0  0  0  0  0  0
  -18.0560  -27.9840   22.7130 C   0  0  0  0  0  0  0  0  0  0  0  0
  -20.6140  -28.2260   23.0180 C   0  0  0  0  0  3  0  0  0  0  0  0
  -20.7150  -26.8150   22.3910 C   0  0  0  0  0  2  0  0  0  0  0  0
  -19.6210  -26.5320   21.3560 C   0  0  0  0  0  2  0  0  0  0  0  0
  -18.2350  -26.6580   21.9950 C   0  0  0  0  0  2  0  0  0  0  0  0
  -19.1740  -28.7280   23.1770 C   0  0  0  0  0  0  0  0  0  0  0  0
  -18.9530  -29.9740   23.8040 C   0  0  0  0  0  3  0  0  0  0  0  0
  -17.6490  -30.4750   23.9750 C   0  0  0  0  0  3  0  0  0  0  0  0
  -16.5470  -29.7250   23.5330 C   0  0  0  0  0  3  0  0  0  0  0  0
  -16.7500  -28.4830   22.9050 C   0  0  0  0  0  3  0  0  0  0  0  0
  -25.8270  -32.4470   23.8680 C   0  0  0  0  0  3  0  0  0  0  0  0
  -25.5090  -33.8450   24.1890 N   0  0  0  0  0  0  0  0  0  0  0  0
  -25.8580  -34.8980   23.4390 C   0  0  0  0  0  0  0  0  0  0  0  0
  -26.5520  -34.7970   22.4230 O   0  0  0  0  0  0  0  0  0  0  0  0
  -24.8960  -33.9980   24.9760 H   0  0  0  0  0  0  0  0  0  0  0  0
  -24.1280  -36.6810   23.0420 C   0  0  0  0  0  1  0  0  0  0  0  0
  -25.3520  -36.2840   23.8840 C   0  0  0  0  0  3  0  0  0  0  0  0
  -27.4540  -37.1820   24.7760 C   0  0  0  0  0  1  0  0  0  0  0  0
  -26.3810  -37.3430   23.8000 N   0  0  0  0  0  0  0  0  0  0  0  0
  -25.9660  -38.2590   23.9350 H   0  0  0  0  0  0  0  0  0  0  0  0
  -26.3090  -31.6770   25.1580 C   0  0  1  0  0  0  0  0  0  0  0  0
  -25.1830  -31.4340   26.1900 C   0  0  0  0  0  1  0  0  0  0  0  0
  -26.9180  -30.3070   24.7780 C   0  0  0  0  0  1  0  0  0  0  0  0
  -27.4290  -32.4780   25.8610 C   0  0  0  0  0  1  0  0  0  0  0  0
  1  7  1  0
  1  2  2  0
  2  3  1  0
  3  5  1  0
  4  3  2  0
  4  6  1  0
  7  4  1  0
  8  2  1  0
  9  8  1  0
 10 18  1  0
 11 16  1  0
 12 13  1  0
 12 11  1  0
 14 13  1  0
 14 23  1  0
 14 15  1  0
 16 10  1  0
 16 15  1  0
 17 10  2  0
 18  9  1  0
 18 19  1  0
 20 21  2  0
 21 40  1  0
 22 21  1  0
 22 25  1  0
 23 24  1  0
 23 20  1  0
 24 22  2  0
 25 26  1  0
 26 27  2  0
 28 31  1  0
 28 27  1  0
 29 28  2  0
 30 29  1  0
 30 25  2  0
 31 32  1  0
 32 37  2  0
 32 33  1  0
 33 34  2  0
 34 35  1  0
 35 39  1  0
 36 35  2  0
 37 36  1  0
 38 37  1  0
 40 41  1  0
 41 44  1  0
 41 43  1  0
 42 40  2  0
 45 20  1  0
 45 46  1  0
 47 45  1  0
 48 49  1  0
 48  7  1  0
 51 50  1  0
 51 52  1  0
 51 49  1  0
 53 55  1  0
 53 52  1  0
 54 65  2  0
 55 60  1  0
 56 64  1  0
 56 66  1  0
 57 63  1  0
 57 59  1  0
 58 64  1  0
 59 58  1  0
 60 59  2  0
 61 55  2  0
 62 61  1  0
 62 57  2  0
 63 56  1  0
 64 54  1  0
 66 68  2  0
 67 66  1  0
 69 67  1  0
 70 79  2  0
 70 75  1  0
 71 67  1  0
 71 75  1  0
 72 71  1  0
 73 74  1  0
 73 72  1  0
 74 70  1  0
 75 76  2  0
 76 77  1  0
 78 77  2  0
 79 78  1  0
 80 54  1  0
 80 81  1  0
 80 90  1  0
 81 84  1  0
 82 86  1  0
 82 81  1  0
 83 82  2  0
 86 85  1  0
 88 86  1  0
 88 89  1  0
 88 87  1  0
 90 93  1  1
 90 91  1  0
 92 90  1  0
M  ISO  4  10 100  18 100  52 101  53 101
M  END
>  <TORSDO>  (30) 
F 22

>  <SCORE>  (30) 
-10.798

>  <name>  (30) 
30

>  <ligand_id>  (30) 
30

>  <original_smiles>  (30) 
[H]c1c([H])c([H])c2c(c1[H])C([H])([H])C([H])([H])C([H])([H])C2([H])N([H])C(=O)C1([H])N(C(=O)C([H])(N([H])C(=O)C([H])(N([H])C([H])([H])[H])C([H])([H])[H])C(C([H])([H])[H])(C([H])([H])[H])C([H])([H])[H])C([H])([H])c2c([H])c(OC([H])([H])C([H])(C([H])([H])[H])C([H])([H])C([H])([H])n3c([H])c(C([H])([H])C([H])([H])N([H])C(=O)N4C([H])([H])C([H])([H])C([H])([H])C([H])(n5nc(-c6c([H])c([H])c(Oc7c([H])c([H])c(F)c([H])c7F)c([H])c6[H])c(C(=O)N([H])[H])c5N([H])[H])C4([H])[H])c(C([H])([H])[H])c3C([H])([H])[H])c([H])c([H])c2C1([H])[H]

>  <smiles>  (30) 
[H]c1c([H])c([H])c2c(c1[H])C([H])([H])C([H])([H])C([H])([H])C2([H])N([H])C(=O)C1([H])N(C(=O)C([H])(N([H])C(=O)C([H])(N([H])C([H])([H])[H])C([H])([H])[H])C(C([H])([H])[H])(C([H])([H])[H])C([H])([H])[H])C([H])([H])c2c([H])c(OC([H])([H])C([H])(C([H])([H])[H])C([H])([H])C([H])([H])n3c([H])c(C([H])([H])C([H])([H])N([H])C(=O)N4C([H])([H])C([H])([H])C([H])([H])C([H])(n5nc(-c6c([H])c([H])c(Oc7c([H])c([H])c(F)c([H])c7F)c([H])c6[H])c(C(=O)N([H])[H])c5N([H])[H])C4([H])[H])c(C([H])([H])[H])c3C([H])([H])[H])c([H])c([H])c2C1([H])[H]

$$$$
31:0:0
     RDKit          3D

 96104  0  0  1  0  0  0  0  0999 V2000
  -31.6770  -20.0070   20.1870 C   0  0  0  0  0  3  0  0  0  0  0  0
  -31.5590  -18.6490   20.0350 C   0  0  0  0  0  0  0  0  0  0  0  0
  -29.8290  -19.6290   19.0080 C   0  0  0  0  0  3  0  0  0  0  0  0
  -30.6140  -20.5870   19.5370 N   0  0  0  0  0  0  0  0  0  0  0  0
  -30.4160  -18.4630   19.3000 N   0  0  0  0  0  0  0  0  0  0  0  0
  -30.0640  -17.5640   18.9980 H   0  0  0  0  0  0  0  0  0  0  0  0
  -27.3370  -19.4330   19.1990 C   0  0  0  0  0  1  0  0  0  0  0  0
  -28.4790  -18.8790   17.0060 C   0  0  0  0  0  1  0  0  0  0  0  0
  -28.5190  -19.7530   18.2730 C   0  0  0  0  0  3  0  0  0  0  0  0
  -32.4440  -17.5220   20.4720 C   0  0  0  0  0  2  0  0  0  0  0  0
  -31.9670  -16.7630   21.7350 C   0  0  0  0  0  2  0  0  0  0  0  0
  -30.4760  -16.3520   21.8460 C   0  0  0  0  0  2  0  0  0  0  0  0
  -30.4380  -14.3620   20.2040 C   0  0  0  0  0  0  0  0  0  0  0  0
  -30.0450  -12.3120   18.8850 C   0  0  0  0  0  2  0  0  0  0  0  0
  -29.0040  -12.5490   17.7760 C   0  0  0  0  0  2  0  0  0  0  0  0
  -27.5740  -12.3450   18.3130 C   0  0  0  0  0  2  0  0  0  0  0  0
  -27.3200  -13.1200   19.6340 C   0  0  0  0  0  3  0  0  0  0  0  0
  -28.4590  -12.8610   20.6450 C   0  0  0  0  0  2  0  0  0  0  0  0
  -29.7430  -13.2130   20.0060 N   0  0  0  0  0  0  0  0  0  0  0  0
  -31.3600  -14.7230   19.4720 O   0  0  0  0  0  0  0  0  0  0  0  0
  -30.0480  -15.0640   21.2780 N   0  0  0  0  0  0  0  0  0  0  0  0
  -29.2910  -14.6220   21.7790 H   0  0  0  0  0  0  0  0  0  0  0  0
  -24.9640  -13.6360   20.5410 C   0  0  0  0  0  0  0  0  0  0  0  0
  -23.9490  -12.8210   20.9660 C   0  0  0  0  0  0  0  0  0  0  0  0
  -24.4410  -11.4850   20.8500 C   0  0  0  0  0  0  0  0  0  0  0  0
  -26.0120  -12.7940   20.2000 N   0  0  0  0  0  0  0  0  0  0  0  0
  -25.7030  -11.4930   20.4380 N   0  0  0  0  0  0  0  0  0  0  0  0
  -23.7670  -10.1960   21.0530 C   0  0  0  0  0  0  0  0  0  0  0  0
  -24.2700   -9.2330   21.9540 C   0  0  0  0  0  3  0  0  0  0  0  0
  -23.5940   -8.0080   22.1440 C   0  0  0  0  0  3  0  0  0  0  0  0
  -22.4000   -7.7390   21.4350 C   0  0  0  0  0  0  0  0  0  0  0  0
  -21.9160   -8.6920   20.5210 C   0  0  0  0  0  3  0  0  0  0  0  0
  -22.5920   -9.9080   20.3290 C   0  0  0  0  0  3  0  0  0  0  0  0
  -21.6900   -6.5660   21.5360 O   0  0  0  0  0  0  0  0  0  0  0  0
  -21.6930   -5.8210   22.6860 C   0  0  0  0  0  0  0  0  0  0  0  0
  -21.2570   -6.3530   23.9200 C   0  0  0  0  0  3  0  0  0  0  0  0
  -21.2090   -5.5310   25.0640 C   0  0  0  0  0  3  0  0  0  0  0  0
  -21.5880   -4.1780   24.9760 C   0  0  0  0  0  0  0  0  0  0  0  0
  -22.0170   -3.6460   23.7470 C   0  0  0  0  0  3  0  0  0  0  0  0
  -22.0660   -4.4640   22.6060 C   0  0  0  0  0  0  0  0  0  0  0  0
  -22.4610   -3.9410   21.4200 F   0  0  0  0  0  0  0  0  0  0  0  0
  -21.5360   -3.3870   26.0720 F   0  0  0  0  0  0  0  0  0  0  0  0
  -22.5660  -13.2480   21.3650 C   0  0  0  0  0  0  0  0  0  0  0  0
  -21.9300  -12.5040   22.2640 N   0  0  0  0  0  0  0  0  0  0  0  0
  -22.0580  -14.2760   20.9190 O   0  0  0  0  0  0  0  0  0  0  0  0
  -22.3530  -11.6710   22.6460 H   0  0  0  0  0  0  0  0  0  0  0  0
  -21.0050  -12.7690   22.5710 H   0  0  0  0  0  0  0  0  0  0  0  0
  -25.0800  -15.0160   20.3980 N   0  0  0  0  0  0  0  0  0  0  0  0
  -24.3120  -15.6480   20.5890 H   0  0  0  0  0  0  0  0  0  0  0  0
  -25.8970  -15.4850   20.0260 H   0  0  0  0  0  0  0  0  0  0  0  0
  -30.4050  -22.0380   19.4050 C   0  0  0  0  0  2  0  0  0  0  0  0
  -29.6380  -22.6670   20.5820 C   0  0  0  0  0  2  0  0  0  0  0  0
  -29.6650  -24.2060   20.5020 C   0  0  0  0  0  2  0  0  0  0  0  0
  -28.8540  -24.9060   21.6060 C   0  0  0  0  0  2  0  0  0  0  0  0
  -28.9950  -26.4390   21.5590 C   0  0  0  0  0  2  0  0  0  0  0  0
  -28.5410  -26.9150   20.2960 O   0  0  0  0  0  0  0  0  0  0  0  0
  -24.5750  -32.0010   23.3280 C   0  0  0  0  0  0  0  0  0  0  0  0
  -27.3660  -27.6210   20.3260 C   0  0  0  0  0  0  0  0  0  0  0  0
  -23.4240  -30.5610   21.6760 C   0  0  0  0  0  3  0  0  0  0  0  0
  -24.9340  -29.0440   20.2910 C   0  0  0  0  0  0  0  0  0  0  0  0
  -25.9400  -30.9810   21.5130 C   0  0  0  0  0  2  0  0  0  0  0  0
  -26.0650  -29.6060   20.8970 C   0  0  0  0  0  0  0  0  0  0  0  0
  -27.2850  -28.8980   20.9200 C   0  0  0  0  0  3  0  0  0  0  0  0
  -26.2270  -27.0640   19.7130 C   0  0  0  0  0  3  0  0  0  0  0  0
  -25.0070  -27.7680   19.6990 C   0  0  0  0  0  3  0  0  0  0  0  0
  -23.6690  -29.8710   20.3070 C   0  0  0  0  0  2  0  0  0  0  0  0
  -24.6620  -31.1970   22.2320 N   0  0  0  0  0  0  0  0  0  0  0  0
  -23.4810  -32.2540   23.8500 O   0  0  0  0  0  0  0  0  0  0  0  0
  -22.7810  -29.5340   22.6350 C   0  0  0  0  0  0  0  0  0  0  0  0
  -21.4620  -29.3300   22.4930 N   0  0  0  0  0  0  0  0  0  0  0  0
  -23.4650  -28.9230   23.4620 O   0  0  0  0  0  0  0  0  0  0  0  0
  -20.9730  -29.8720   21.7940 H   0  0  0  0  0  0  0  0  0  0  0  0
  -18.0980  -28.1030   22.9630 C   0  0  0  0  0  0  0  0  0  0  0  0
  -20.6500  -28.3850   23.2580 C   0  0  0  0  0  3  0  0  0  0  0  0
  -20.7730  -26.9550   22.6810 C   0  0  0  0  0  2  0  0  0  0  0  0
  -19.6830  -26.6220   21.6580 C   0  0  0  0  0  2  0  0  0  0  0  0
  -18.2940  -26.7540   22.2910 C   0  0  0  0  0  2  0  0  0  0  0  0
  -19.2040  -28.8740   23.4030 C   0  0  0  0  0  0  0  0  0  0  0  0
  -18.9700  -30.1360   23.9910 C   0  0  0  0  0  3  0  0  0  0  0  0
  -17.6610  -30.6260   24.1440 C   0  0  0  0  0  3  0  0  0  0  0  0
  -16.5660  -29.8500   23.7230 C   0  0  0  0  0  3  0  0  0  0  0  0
  -16.7860  -28.5890   23.1370 C   0  0  0  0  0  3  0  0  0  0  0  0
  -25.8410  -32.6600   23.9630 C   0  0  0  0  0  3  0  0  0  0  0  0
  -26.3370  -31.9260   25.2680 C   0  0  1  0  0  0  0  0  0  0  0  0
  -25.2170  -31.6820   26.3060 C   0  0  0  0  0  1  0  0  0  0  0  0
  -26.9650  -30.5570   24.9150 C   0  0  0  0  0  1  0  0  0  0  0  0
  -27.4470  -32.7600   25.9500 C   0  0  0  0  0  1  0  0  0  0  0  0
  -25.5140  -34.0640   24.2460 N   0  0  0  0  0  0  0  0  0  0  0  0
  -25.8570  -35.0960   23.4650 C   0  0  0  0  0  0  0  0  0  0  0  0
  -26.5520  -34.9680   22.4530 O   0  0  0  0  0  0  0  0  0  0  0  0
  -24.9020  -34.2350   25.0310 H   0  0  0  0  0  0  0  0  0  0  0  0
  -24.1190  -36.8550   23.0170 C   0  0  0  0  0  1  0  0  0  0  0  0
  -25.3450  -36.4900   23.8700 C   0  0  0  0  0  3  0  0  0  0  0  0
  -27.4490  -37.4210   24.7210 C   0  0  0  0  0  1  0  0  0  0  0  0
  -26.3680  -37.5520   23.7490 N   0  0  0  0  0  0  0  0  0  0  0  0
  -25.9480  -38.4700   23.8630 H   0  0  0  0  0  0  0  0  0  0  0  0
  2  1  2  0
  2 10  1  0
  3  9  1  0
  3  5  1  0
  3  4  1  0
  4  1  1  0
  5  2  1  0
  6  5  1  0
  8  9  1  0
  9  7  1  0
 10 11  1  0
 11 12  1  0
 13 21  1  0
 14 19  1  0
 15 16  1  0
 15 14  1  0
 17 16  1  0
 17 26  1  0
 17 18  1  0
 19 13  1  0
 19 18  1  0
 20 13  2  0
 21 22  1  0
 21 12  1  0
 23 24  2  0
 24 43  1  0
 25 24  1  0
 25 28  1  0
 26 27  1  0
 26 23  1  0
 27 25  2  0
 28 29  1  0
 29 30  2  0
 31 34  1  0
 31 30  1  0
 32 31  2  0
 33 32  1  0
 33 28  2  0
 34 35  1  0
 35 36  1  0
 36 37  2  0
 38 37  1  0
 38 42  1  0
 39 38  2  0
 40 35  2  0
 40 39  1  0
 41 40  1  0
 43 44  1  0
 44 47  1  0
 44 46  1  0
 45 43  2  0
 48 23  1  0
 48 49  1  0
 50 48  1  0
 51  4  1  0
 51 52  1  0
 53 52  1  0
 53 54  1  0
 55 54  1  0
 56 58  1  0
 56 55  1  0
 57 68  2  0
 58 63  1  0
 59 67  1  0
 59 69  1  0
 60 66  1  0
 60 62  1  0
 61 67  1  0
 62 63  2  0
 62 61  1  0
 64 58  2  0
 65 64  1  0
 65 60  2  0
 66 59  1  0
 67 57  1  0
 69 71  2  0
 70 69  1  0
 72 70  1  0
 73 82  2  0
 73 78  1  0
 74 70  1  0
 74 78  1  0
 75 74  1  0
 76 77  1  0
 76 75  1  0
 77 73  1  0
 78 79  2  0
 79 80  1  0
 81 80  2  0
 82 81  1  0
 83 57  1  0
 83 88  1  0
 83 84  1  0
 84 87  1  1
 84 85  1  0
 86 84  1  0
 88 91  1  0
 89 93  1  0
 89 88  1  0
 90 89  2  0
 93 92  1  0
 95 96  1  0
 95 93  1  0
 95 94  1  0
M  ISO  4  13 100  21 100  55 101  56 101
M  END
>  <TORSDO>  (31) 
F 25

>  <SCORE>  (31) 
-11.430

>  <name>  (31) 
31

>  <ligand_id>  (31) 
31

>  <original_smiles>  (31) 
[H]c1c([H])c([H])c2c(c1[H])C([H])([H])C([H])([H])C([H])([H])C2([H])N([H])C(=O)C1([H])N(C(=O)C([H])(N([H])C(=O)C([H])(N([H])C([H])([H])[H])C([H])([H])[H])C(C([H])([H])[H])(C([H])([H])[H])C([H])([H])[H])C([H])([H])c2c([H])c(OC([H])([H])C([H])([H])C([H])([H])C([H])([H])C([H])([H])n3c([H])c(C([H])([H])C([H])([H])C([H])([H])N([H])C(=O)N4C([H])([H])C([H])([H])C([H])([H])C([H])(n5nc(-c6c([H])c([H])c(Oc7c([H])c([H])c(F)c([H])c7F)c([H])c6[H])c(C(=O)N([H])[H])c5N([H])[H])C4([H])[H])[n+]([H])c3C([H])(C([H])([H])[H])C([H])([H])[H])c([H])c([H])c2C1([H])[H]

>  <smiles>  (31) 
[H]c1c([H])c([H])c2c(c1[H])C([H])([H])C([H])([H])C([H])([H])C2([H])N([H])C(=O)C1([H])N(C(=O)C([H])(N([H])C(=O)C([H])(N([H])C([H])([H])[H])C([H])([H])[H])C(C([H])([H])[H])(C([H])([H])[H])C([H])([H])[H])C([H])([H])c2c([H])c(OC([H])([H])C([H])([H])C([H])([H])C([H])([H])C([H])([H])n3c([H])c(C([H])([H])C([H])([H])C([H])([H])N([H])C(=O)N4C([H])([H])C([H])([H])C([H])([H])C([H])(n5nc(-c6c([H])c([H])c(Oc7c([H])c([H])c(F)c([H])c7F)c([H])c6[H])c(C(=O)N([H])[H])c5N([H])[H])C4([H])[H])[n+]([H])c3C([H])(C([H])([H])[H])C([H])([H])[H])c([H])c([H])c2C1([H])[H]

$$$$
32:0:0
     RDKit          3D

103111  0  0  1  0  0  0  0  0999 V2000
  -35.2700  -22.6710   15.8040 C   0  0  0  0  0  3  0  0  0  0  0  0
  -33.8450  -23.7800   14.1690 C   0  0  0  0  0  3  0  0  0  0  0  0
  -33.4600  -21.4380   14.7460 C   0  0  0  0  0  3  0  0  0  0  0  0
  -34.9290  -23.8240   15.0700 C   0  0  0  0  0  0  0  0  0  0  0  0
  -34.5350  -21.4790   15.6650 C   0  0  0  0  0  0  0  0  0  0  0  0
  -33.1030  -22.5890   13.9980 C   0  0  0  0  0  0  0  0  0  0  0  0
  -31.2580  -23.9950   13.1680 C   0  0  0  0  0  1  0  0  0  0  0  0
  -31.8450  -22.5690   13.1220 C   0  0  0  0  0  3  0  0  0  0  0  0
  -32.1020  -22.0350   11.6720 C   0  0  0  0  0  2  0  0  0  0  0  0
  -33.4010  -22.3190   11.1260 O   0  0  0  0  0  0  0  0  0  0  0  0
  -33.4160  -15.3450    9.6970 C   0  0  0  0  0  0  0  0  0  0  0  0
  -34.1290  -21.2090   10.7810 C   0  0  0  0  0  0  0  0  0  0  0  0
  -35.6070  -16.3620   10.2330 C   0  0  0  0  0  3  0  0  0  0  0  0
  -35.6760  -18.9160   10.2420 C   0  0  0  0  0  0  0  0  0  0  0  0
  -33.7540  -17.7480    9.1470 C   0  0  0  0  0  2  0  0  0  0  0  0
  -34.3310  -18.9590    9.8530 C   0  0  0  0  0  0  0  0  0  0  0  0
  -33.5470  -20.1020   10.1270 C   0  0  0  0  0  3  0  0  0  0  0  0
  -35.4970  -21.1820   11.1030 C   0  0  0  0  0  3  0  0  0  0  0  0
  -36.2680  -20.0270   10.8680 C   0  0  0  0  0  3  0  0  0  0  0  0
  -36.4380  -17.6430    9.9460 C   0  0  0  0  0  2  0  0  0  0  0  0
  -34.2070  -16.4550    9.7090 N   0  0  0  0  0  0  0  0  0  0  0  0
  -33.8460  -14.2480   10.0780 O   0  0  0  0  0  0  0  0  0  0  0  0
  -35.6730  -16.0550   11.7460 C   0  0  0  0  0  0  0  0  0  0  0  0
  -36.5890  -15.1530   12.1320 N   0  0  0  0  0  0  0  0  0  0  0  0
  -34.9330  -16.6380   12.5430 O   0  0  0  0  0  0  0  0  0  0  0  0
  -37.1500  -14.7150   11.4140 H   0  0  0  0  0  0  0  0  0  0  0  0
  -37.2960  -12.2840   14.2150 C   0  0  0  0  0  0  0  0  0  0  0  0
  -36.8540  -14.7310   13.5080 C   0  0  0  0  0  3  0  0  0  0  0  0
  -38.3270  -15.0020   13.8980 C   0  0  0  0  0  2  0  0  0  0  0  0
  -39.2440  -13.8000   13.6570 C   0  0  0  0  0  2  0  0  0  0  0  0
  -38.7650  -12.5880   14.4620 C   0  0  0  0  0  2  0  0  0  0  0  0
  -36.4030  -13.2870   13.7530 C   0  0  0  0  0  0  0  0  0  0  0  0
  -35.0570  -12.9450   13.5050 C   0  0  0  0  0  3  0  0  0  0  0  0
  -34.5980  -11.6310   13.7140 C   0  0  0  0  0  3  0  0  0  0  0  0
  -35.4830  -10.6460   14.1890 C   0  0  0  0  0  3  0  0  0  0  0  0
  -36.8280  -10.9740   14.4400 C   0  0  0  0  0  3  0  0  0  0  0  0
  -31.9420  -15.3990    9.1870 C   0  0  0  0  0  3  0  0  0  0  0  0
  -31.3820  -16.6920    9.5990 N   0  0  0  0  0  0  0  0  0  0  0  0
  -30.6410  -16.8860   10.6980 C   0  0  0  0  0  0  0  0  0  0  0  0
  -30.2950  -15.9650   11.4440 O   0  0  0  0  0  0  0  0  0  0  0  0
  -31.6780  -17.5000    9.0700 H   0  0  0  0  0  0  0  0  0  0  0  0
  -30.7490  -18.7220   12.4110 C   0  0  0  0  0  1  0  0  0  0  0  0
  -30.2190  -18.3300   11.0240 C   0  0  0  0  0  3  0  0  0  0  0  0
  -28.2140  -18.4810    9.6150 C   0  0  0  0  0  1  0  0  0  0  0  0
  -28.7560  -18.5380   10.9700 N   0  0  0  0  0  0  0  0  0  0  0  0
  -28.5050  -19.4380   11.3700 H   0  0  0  0  0  0  0  0  0  0  0  0
  -31.8120  -15.2030    7.6270 C   0  0  1  0  0  0  0  0  0  0  0  0
  -33.1740  -15.1130    6.8970 C   0  0  0  0  0  1  0  0  0  0  0  0
  -31.0170  -13.9160    7.3020 C   0  0  0  0  0  1  0  0  0  0  0  0
  -31.0120  -16.3780    7.0180 C   0  0  0  0  0  1  0  0  0  0  0  0
  -35.7100  -25.1120   15.2640 C   0  0  0  0  0  2  0  0  0  0  0  0
  -35.3930  -26.1780   14.1980 C   0  0  0  0  0  2  0  0  0  0  0  0
  -36.4710  -26.4110   13.1170 C   0  0  0  0  0  2  0  0  0  0  0  0
  -36.5550  -28.8790   13.8350 C   0  0  0  0  0  1  0  0  0  0  0  0
  -38.6430  -27.4670   13.9510 C   0  0  0  0  0  1  0  0  0  0  0  0
  -37.6930  -28.1140   11.7480 C   0  0  0  0  0  1  0  0  0  0  0  0
  -37.3240  -27.7090   13.1870 C   0  0  1  0  0  0  0  0  0  0  0  0
  -34.8560  -20.2910   16.5690 C   0  0  0  0  0  2  0  0  0  0  0  0
  -35.1980  -20.6580   18.0420 C   0  0  0  0  0  3  0  0  0  0  0  0
  -37.6820  -20.7900   17.2410 C   0  0  0  0  0  1  0  0  0  0  0  0
  -37.1310  -21.2480   19.6660 C   0  0  0  0  0  1  0  0  0  0  0  0
  -36.6090  -21.3040   18.2210 C   0  0  0  0  0  3  0  0  0  0  0  0
  -34.0750  -21.5360   18.6500 C   0  0  0  0  0  2  0  0  0  0  0  0
  -34.2670  -23.0530   18.4620 C   0  0  0  0  0  2  0  0  0  0  0  0
  -34.5470  -23.7840   19.7820 C   0  0  0  0  0  2  0  0  0  0  0  0
  -35.1990  -26.0510   20.5520 C   0  0  0  0  0  0  0  0  0  0  0  0
  -34.3290  -28.0190   21.7170 C   0  0  0  0  0  2  0  0  0  0  0  0
  -32.8180  -27.7910   21.9360 C   0  0  0  0  0  2  0  0  0  0  0  0
  -32.0120  -28.2830   20.7180 C   0  0  0  0  0  2  0  0  0  0  0  0
  -32.5710  -27.7460   19.3710 C   0  0  0  0  0  3  0  0  0  0  0  0
  -34.1050  -27.9350   19.2930 C   0  0  0  0  0  2  0  0  0  0  0  0
  -34.7020  -27.3110   20.4860 N   0  0  0  0  0  0  0  0  0  0  0  0
  -35.7940  -25.6040   21.5360 O   0  0  0  0  0  0  0  0  0  0  0  0
  -34.7380  -25.2280   19.5990 N   0  0  0  0  0  0  0  0  0  0  0  0
  -34.2430  -25.6650   18.8350 H   0  0  0  0  0  0  0  0  0  0  0  0
  -32.2630  -29.4420   17.4600 C   0  0  0  0  0  0  0  0  0  0  0  0
  -31.3160  -29.5480   16.4750 C   0  0  0  0  0  0  0  0  0  0  0  0
  -30.3920  -28.4840   16.7030 C   0  0  0  0  0  0  0  0  0  0  0  0
  -31.8900  -28.3520   18.2300 N   0  0  0  0  0  0  0  0  0  0  0  0
  -30.7240  -27.8110   17.7980 N   0  0  0  0  0  0  0  0  0  0  0  0
  -29.2440  -28.0280   15.9100 C   0  0  0  0  0  0  0  0  0  0  0  0
  -27.9200  -28.3670   16.2670 C   0  0  0  0  0  3  0  0  0  0  0  0
  -26.8320  -27.9330   15.4780 C   0  0  0  0  0  3  0  0  0  0  0  0
  -27.0630  -27.1550   14.3190 C   0  0  0  0  0  0  0  0  0  0  0  0
  -28.3820  -26.8020   13.9810 C   0  0  0  0  0  3  0  0  0  0  0  0
  -29.4620  -27.2310   14.7700 C   0  0  0  0  0  3  0  0  0  0  0  0
  -26.0680  -26.6680   13.5070 O   0  0  0  0  0  0  0  0  0  0  0  0
  -25.2720  -27.5020   12.7640 C   0  0  0  0  0  0  0  0  0  0  0  0
  -25.7420  -28.1300   11.5900 C   0  0  0  0  0  3  0  0  0  0  0  0
  -24.8700  -28.9250   10.8200 C   0  0  0  0  0  3  0  0  0  0  0  0
  -23.5270  -29.0850   11.2140 C   0  0  0  0  0  0  0  0  0  0  0  0
  -23.0560  -28.4550   12.3790 C   0  0  0  0  0  3  0  0  0  0  0  0
  -23.9260  -27.6630   13.1500 C   0  0  0  0  0  0  0  0  0  0  0  0
  -23.4610  -27.0420   14.2610 F   0  0  0  0  0  0  0  0  0  0  0  0
  -22.6860  -29.8410   10.4700 F   0  0  0  0  0  0  0  0  0  0  0  0
  -31.3200  -30.5200   15.3320 C   0  0  0  0  0  0  0  0  0  0  0  0
  -30.5700  -31.6100   15.4530 N   0  0  0  0  0  0  0  0  0  0  0  0
  -32.0250  -30.3410   14.3410 O   0  0  0  0  0  0  0  0  0  0  0  0
  -30.0050  -31.7660   16.2750 H   0  0  0  0  0  0  0  0  0  0  0  0
  -30.5610  -32.2980   14.7130 H   0  0  0  0  0  0  0  0  0  0  0  0
  -33.4170  -30.1660   17.7500 N   0  0  0  0  0  0  0  0  0  0  0  0
  -33.7340  -30.9320   17.1660 H   0  0  0  0  0  0  0  0  0  0  0  0
  -34.0710  -29.9350   18.4850 H   0  0  0  0  0  0  0  0  0  0  0  0
  2  4  1  0
  3  5  2  0
  4 51  1  0
  4  1  2  0
  5  1  1  0
  5 58  1  0
  6  2  2  0
  6  3  1  0
  8  7  1  0
  8  6  1  0
  9  8  1  0
 10  9  1  0
 11 21  1  0
 11 22  2  0
 12 18  1  0
 12 10  1  0
 13 23  1  0
 14 19  1  0
 15 21  1  0
 15 16  1  0
 16 17  1  0
 16 14  2  0
 17 12  2  0
 19 18  2  0
 20 13  1  0
 20 14  1  0
 21 13  1  0
 23 24  1  0
 23 25  2  0
 26 24  1  0
 27 36  1  0
 27 31  1  0
 28 24  1  0
 28 32  1  0
 28 29  1  0
 30 29  1  0
 30 31  1  0
 32 27  2  0
 33 34  2  0
 33 32  1  0
 34 35  1  0
 35 36  2  0
 37 38  1  0
 37 11  1  0
 38 39  1  0
 39 43  1  0
 39 40  2  0
 41 38  1  0
 43 42  1  0
 44 45  1  0
 45 43  1  0
 45 46  1  0
 47 37  1  0
 47 48  1  6
 49 47  1  0
 50 47  1  0
 52 51  1  0
 53 57  1  0
 53 52  1  0
 57 56  1  6
 57 54  1  0
 57 55  1  0
 59 58  1  0
 59 62  1  0
 59 63  1  0
 60 62  1  0
 62 61  1  0
 64 63  1  0
 64 65  1  0
 66 73  2  0
 67 68  1  0
 69 68  1  0
 70 79  1  0
 70 69  1  0
 71 70  1  0
 71 72  1  0
 72 66  1  0
 72 67  1  0
 74 65  1  0
 74 66  1  0
 75 74  1  0
 76101  1  0
 76 79  1  0
 77 78  1  0
 77 76  2  0
 78 80  2  0
 80 79  1  0
 81 82  1  0
 81 78  1  0
 83 82  2  0
 84 83  1  0
 85 84  2  0
 85 86  1  0
 86 81  2  0
 87 84  1  0
 88 93  1  0
 88 87  1  0
 89 88  2  0
 90 91  2  0
 90 89  1  0
 91 92  1  0
 92 93  2  0
 93 94  1  0
 95 91  1  0
 96 97  1  0
 96 77  1  0
 97 99  1  0
 98 96  2  0
100 97  1  0
101103  1  0
102101  1  0
M  ISO  4   9 101  10 101  66 100  74 100
M  END
>  <TORSDO>  (32) 
F 28

>  <SCORE>  (32) 
-3.417

>  <name>  (32) 
32

>  <ligand_id>  (32) 
32

>  <original_smiles>  (32) 
[H]c1c([H])c([H])c2c(c1[H])C([H])([H])C([H])([H])C([H])([H])C2([H])N([H])C(=O)C1([H])N(C(=O)C([H])(N([H])C(=O)C([H])(N([H])C([H])([H])[H])C([H])([H])[H])C(C([H])([H])[H])(C([H])([H])[H])C([H])([H])[H])C([H])([H])c2c([H])c(OC([H])([H])C([H])(c3c([H])c(C([H])([H])C([H])([H])C([H])([H])C(C([H])([H])[H])(C([H])([H])[H])C([H])([H])[H])c([H])c(C([H])([H])C([H])(C([H])([H])C([H])([H])C([H])([H])N([H])C(=O)N4C([H])([H])C([H])([H])C([H])([H])C([H])(n5nc(-c6c([H])c([H])c(Oc7c([H])c([H])c(F)c([H])c7F)c([H])c6[H])c(C(=O)N([H])[H])c5N([H])[H])C4([H])[H])C([H])(C([H])([H])[H])C([H])([H])[H])c3[H])C([H])([H])[H])c([H])c([H])c2C1([H])[H]

>  <smiles>  (32) 
[H]c1c([H])c([H])c2c(c1[H])C([H])([H])C([H])([H])C([H])([H])C2([H])N([H])C(=O)C1([H])N(C(=O)C([H])(N([H])C(=O)C([H])(N([H])C([H])([H])[H])C([H])([H])[H])C(C([H])([H])[H])(C([H])([H])[H])C([H])([H])[H])C([H])([H])c2c([H])c(OC([H])([H])C([H])(c3c([H])c(C([H])([H])C([H])([H])C([H])([H])C(C([H])([H])[H])(C([H])([H])[H])C([H])([H])[H])c([H])c(C([H])([H])C([H])(C([H])([H])C([H])([H])C([H])([H])N([H])C(=O)N4C([H])([H])C([H])([H])C([H])([H])C([H])(n5nc(-c6c([H])c([H])c(Oc7c([H])c([H])c(F)c([H])c7F)c([H])c6[H])c(C(=O)N([H])[H])c5N([H])[H])C4([H])[H])C([H])(C([H])([H])[H])C([H])([H])[H])c3[H])C([H])([H])[H])c([H])c([H])c2C1([H])[H]

$$$$
33:0:0
     RDKit          3D

 88 95  0  0  1  0  0  0  0  0999 V2000
  -26.5700  -23.0410   19.4770 C   0  0  0  0  0  1  0  0  0  0  0  0
  -28.8210  -23.6440   18.5770 C   0  0  0  0  0  1  0  0  0  0  0  0
  -28.0190  -23.3920   19.8660 C   0  0  2  0  0  0  0  0  0  0  0  0
  -28.6290  -22.0170   20.5860 C   0  0  0  0  0  2  0  0  0  0  0  0
  -28.3010  -20.4400   20.1520 C   0  0  0  0  0  3  0  0  0  0  0  0
  -29.3250  -19.1980   20.5200 C   0  0  0  0  0  3  0  0  0  0  0  0
  -29.1090  -17.5400   20.3280 C   0  0  0  0  0  2  0  0  0  0  0  0
  -31.4300  -17.1890   21.2400 C   0  0  0  0  0  1  0  0  0  0  0  0
  -30.9930  -16.9800   18.7740 C   0  0  0  0  0  1  0  0  0  0  0  0
  -30.4540  -16.5850   20.1850 C   0  0  2  0  0  0  0  0  0  0  0  0
  -30.7400  -14.9320   20.2050 C   0  0  0  0  0  0  0  0  0  0  0  0
  -30.3910  -12.6040   19.3400 C   0  0  0  0  0  2  0  0  0  0  0  0
  -29.4920  -12.6020   18.0920 C   0  0  0  0  0  2  0  0  0  0  0  0
  -28.0240  -12.4410   18.5180 C   0  0  0  0  0  2  0  0  0  0  0  0
  -27.6300  -13.3710   19.6940 C   0  0  0  0  0  3  0  0  0  0  0  0
  -28.6920  -13.4440   20.8120 C   0  0  0  0  0  2  0  0  0  0  0  0
  -29.9750  -13.7680   20.1840 N   0  0  0  0  0  0  0  0  0  0  0  0
  -31.9380  -14.7120   20.0130 O   0  0  0  0  0  0  0  0  0  0  0  0
  -25.2590  -13.9200   20.4590 C   0  0  0  0  0  0  0  0  0  0  0  0
  -24.2030  -13.1350   20.8300 C   0  0  0  0  0  0  0  0  0  0  0  0
  -24.6780  -11.7870   20.8050 C   0  0  0  0  0  0  0  0  0  0  0  0
  -26.3060  -13.0520   20.2100 N   0  0  0  0  0  0  0  0  0  0  0  0
  -25.9700  -11.7640   20.4900 N   0  0  0  0  0  0  0  0  0  0  0  0
  -23.9600  -10.5180   20.9970 C   0  0  0  0  0  0  0  0  0  0  0  0
  -24.3860   -9.5590   21.9430 C   0  0  0  0  0  3  0  0  0  0  0  0
  -23.6620   -8.3610   22.1240 C   0  0  0  0  0  3  0  0  0  0  0  0
  -22.4980   -8.1130   21.3600 C   0  0  0  0  0  0  0  0  0  0  0  0
  -22.0900   -9.0590   20.4030 C   0  0  0  0  0  3  0  0  0  0  0  0
  -22.8140  -10.2480   20.2210 C   0  0  0  0  0  3  0  0  0  0  0  0
  -21.7500   -6.9650   21.4450 O   0  0  0  0  0  0  0  0  0  0  0  0
  -21.6800   -6.2350   22.6070 C   0  0  0  0  0  0  0  0  0  0  0  0
  -21.2110   -6.8000   23.8120 C   0  0  0  0  0  3  0  0  0  0  0  0
  -21.0940   -5.9990   24.9660 C   0  0  0  0  0  3  0  0  0  0  0  0
  -21.4370   -4.6340   24.9130 C   0  0  0  0  0  0  0  0  0  0  0  0
  -21.8990   -4.0680   23.7110 C   0  0  0  0  0  3  0  0  0  0  0  0
  -22.0180   -4.8680   22.5610 C   0  0  0  0  0  0  0  0  0  0  0  0
  -22.4460   -4.3130   21.4010 F   0  0  0  0  0  0  0  0  0  0  0  0
  -21.3180   -3.8620   26.0180 F   0  0  0  0  0  0  0  0  0  0  0  0
  -22.8020  -13.6000   21.1020 C   0  0  0  0  0  0  0  0  0  0  0  0
  -22.0800  -12.8980   21.9650 N   0  0  0  0  0  0  0  0  0  0  0  0
  -22.3590  -14.6270   20.5870 O   0  0  0  0  0  0  0  0  0  0  0  0
  -22.4540  -12.0690   22.4000 H   0  0  0  0  0  0  0  0  0  0  0  0
  -21.1410  -13.1930   22.1950 H   0  0  0  0  0  0  0  0  0  0  0  0
  -25.4180  -15.2920   20.2840 N   0  0  0  0  0  0  0  0  0  0  0  0
  -24.6560  -15.9530   20.3960 H   0  0  0  0  0  0  0  0  0  0  0  0
  -26.2760  -15.7240   19.9680 H   0  0  0  0  0  0  0  0  0  0  0  0
  -28.0090  -24.8400   20.6970 C   0  0  0  0  0  2  0  0  0  0  0  0
  -28.2100  -26.2800   20.1890 O   0  0  0  0  0  0  0  0  0  0  0  0
  -24.5810  -31.9070   23.2160 C   0  0  0  0  0  0  0  0  0  0  0  0
  -27.1570  -27.2360   20.1890 C   0  0  0  0  0  0  0  0  0  0  0  0
  -23.3840  -30.5050   21.5790 C   0  0  0  0  0  3  0  0  0  0  0  0
  -24.8350  -28.9420   20.1550 C   0  0  0  0  0  0  0  0  0  0  0  0
  -25.9320  -30.7970   21.4040 C   0  0  0  0  0  2  0  0  0  0  0  0
  -26.0130  -29.4050   20.7570 C   0  0  0  0  0  0  0  0  0  0  0  0
  -27.1840  -28.5660   20.7560 C   0  0  0  0  0  3  0  0  0  0  0  0
  -25.9590  -26.8570   19.5600 C   0  0  0  0  0  3  0  0  0  0  0  0
  -24.8170  -27.6810   19.5410 C   0  0  0  0  0  3  0  0  0  0  0  0
  -23.6050  -29.8310   20.1990 C   0  0  0  0  0  2  0  0  0  0  0  0
  -24.6540  -31.0910   22.1230 N   0  0  0  0  0  0  0  0  0  0  0  0
  -23.4950  -32.1820   23.7470 O   0  0  0  0  0  0  0  0  0  0  0  0
  -22.7200  -29.4900   22.5420 C   0  0  0  0  0  0  0  0  0  0  0  0
  -21.3910  -29.3180   22.4270 N   0  0  0  0  0  0  0  0  0  0  0  0
  -23.4010  -28.8620   23.3570 O   0  0  0  0  0  0  0  0  0  0  0  0
  -20.8990  -29.8840   21.7520 H   0  0  0  0  0  0  0  0  0  0  0  0
  -18.0160  -28.1100   22.9440 C   0  0  0  0  0  0  0  0  0  0  0  0
  -20.5750  -28.3730   23.1960 C   0  0  0  0  0  3  0  0  0  0  0  0
  -20.6740  -26.9430   22.6150 C   0  0  0  0  0  2  0  0  0  0  0  0
  -19.5660  -26.6220   21.6060 C   0  0  0  0  0  2  0  0  0  0  0  0
  -18.1890  -26.7650   22.2600 C   0  0  0  0  0  2  0  0  0  0  0  0
  -19.1350  -28.8740   23.3680 C   0  0  0  0  0  0  0  0  0  0  0  0
  -18.9200  -30.1330   23.9680 C   0  0  0  0  0  3  0  0  0  0  0  0
  -17.6160  -30.6320   24.1450 C   0  0  0  0  0  3  0  0  0  0  0  0
  -16.5100  -29.8670   23.7370 C   0  0  0  0  0  3  0  0  0  0  0  0
  -16.7100  -28.6070   23.1410 C   0  0  0  0  0  3  0  0  0  0  0  0
  -25.8570  -32.5500   23.8420 C   0  0  0  0  0  3  0  0  0  0  0  0
  -25.5410  -33.9490   24.1640 N   0  0  0  0  0  0  0  0  0  0  0  0
  -25.8750  -35.0030   23.4060 C   0  0  0  0  0  0  0  0  0  0  0  0
  -26.5520  -34.8980   22.3800 O   0  0  0  0  0  0  0  0  0  0  0  0
  -24.9450  -34.1030   24.9630 H   0  0  0  0  0  0  0  0  0  0  0  0
  -24.1570  -36.8040   23.0380 C   0  0  0  0  0  1  0  0  0  0  0  0
  -25.3860  -36.3900   23.8630 C   0  0  0  0  0  3  0  0  0  0  0  0
  -27.5100  -37.2750   24.7220 C   0  0  0  0  0  1  0  0  0  0  0  0
  -26.4210  -37.4410   23.7630 N   0  0  0  0  0  0  0  0  0  0  0  0
  -26.0140  -38.3620   23.9050 H   0  0  0  0  0  0  0  0  0  0  0  0
  -26.3660  -31.7910   25.1300 C   0  0  1  0  0  0  0  0  0  0  0  0
  -25.2680  -31.5660   26.1960 C   0  0  0  0  0  1  0  0  0  0  0  0
  -26.9550  -30.4110   24.7560 C   0  0  0  0  0  1  0  0  0  0  0  0
  -27.5100  -32.5960   25.7930 C   0  0  0  0  0  1  0  0  0  0  0  0
  3  1  1  6
  2  3  1  0
  3  4  1  0
  3 47  1  0
  5  6  2  0
  5  4  1  0
  7  6  1  0
 10  9  1  6
 10 11  1  0
 10  7  1  0
 10  8  1  0
 12 17  1  0
 13 14  1  0
 13 12  1  0
 15 14  1  0
 15 22  1  0
 15 16  1  0
 17 11  1  0
 17 16  1  0
 18 11  2  0
 19 20  2  0
 20 39  1  0
 21 20  1  0
 21 24  1  0
 22 19  1  0
 22 23  1  0
 23 21  2  0
 24 25  1  0
 25 26  2  0
 27 30  1  0
 27 26  1  0
 28 27  2  0
 29 28  1  0
 29 24  2  0
 30 31  1  0
 31 32  1  0
 32 33  2  0
 34 33  1  0
 34 38  1  0
 35 34  2  0
 36 31  2  0
 36 35  1  0
 37 36  1  0
 39 40  1  0
 40 43  1  0
 40 42  1  0
 41 39  2  0
 44 45  1  0
 44 19  1  0
 46 44  1  0
 48 47  1  0
 49 60  2  0
 50 48  1  0
 50 55  1  0
 51 59  1  0
 51 61  1  0
 52 58  1  0
 52 54  1  0
 53 59  1  0
 54 53  1  0
 55 54  2  0
 56 50  2  0
 57 56  1  0
 57 52  2  0
 58 51  1  0
 59 49  1  0
 61 63  2  0
 62 61  1  0
 64 62  1  0
 65 74  2  0
 65 70  1  0
 66 62  1  0
 66 70  1  0
 67 66  1  0
 68 69  1  0
 68 67  1  0
 69 65  1  0
 70 71  2  0
 71 72  1  0
 73 72  2  0
 74 73  1  0
 75 49  1  0
 75 76  1  0
 75 85  1  0
 76 79  1  0
 77 81  1  0
 77 76  1  0
 78 77  2  0
 81 80  1  0
 83 81  1  0
 83 84  1  0
 83 82  1  0
 85 88  1  1
 85 86  1  0
 87 85  1  0
M  ISO  4  10 100  11 100  47 101  48 101
M  END
>  <TORSDO>  (33) 
F 22

>  <SCORE>  (33) 
-13.208

>  <name>  (33) 
33

>  <ligand_id>  (33) 
33

>  <original_smiles>  (33) 
[H]c1c([H])c([H])c2c(c1[H])C([H])([H])C([H])([H])C([H])([H])C2([H])N([H])C(=O)C1([H])N(C(=O)C([H])(N([H])C(=O)C([H])(N([H])C([H])([H])[H])C([H])([H])[H])C(C([H])([H])[H])(C([H])([H])[H])C([H])([H])[H])C([H])([H])c2c([H])c(OC([H])([H])C(C([H])([H])[H])(C([H])([H])[H])C([H])([H])C([H])([H])C([H])([H])C([H])([H])C(C(=O)N3C([H])([H])C([H])([H])C([H])([H])C([H])(n4nc(-c5c([H])c([H])c(Oc6c([H])c([H])c(F)c([H])c6F)c([H])c5[H])c(C(=O)N([H])[H])c4N([H])[H])C3([H])[H])(C([H])([H])[H])C([H])([H])[H])c([H])c([H])c2C1([H])[H]

>  <smiles>  (33) 
[H]c1c([H])c([H])c2c(c1[H])C([H])([H])C([H])([H])C([H])([H])C2([H])N([H])C(=O)C1([H])N(C(=O)C([H])(N([H])C(=O)C([H])(N([H])C([H])([H])[H])C([H])([H])[H])C(C([H])([H])[H])(C([H])([H])[H])C([H])([H])[H])C([H])([H])c2c([H])c(OC([H])([H])C(C([H])([H])[H])(C([H])([H])[H])C([H])([H])C([H])([H])C([H])([H])C([H])([H])C(C(=O)N3C([H])([H])C([H])([H])C([H])([H])C([H])(n4nc(-c5c([H])c([H])c(Oc6c([H])c([H])c(F)c([H])c6F)c([H])c5[H])c(C(=O)N([H])[H])c4N([H])[H])C3([H])[H])(C([H])([H])[H])C([H])([H])[H])c([H])c([H])c2C1([H])[H]

$$$$
34:0:0
     RDKit          3D

101109  0  0  1  0  0  0  0  0999 V2000
  -30.9630  -22.8430   21.3370 C   0  0  0  0  0  3  0  0  0  0  0  0
  -29.4600  -20.9700   21.1430 C   0  0  0  0  0  3  0  0  0  0  0  0
  -29.6510  -22.3460   21.4230 C   0  0  0  0  0  0  0  0  0  0  0  0
  -32.0060  -21.9880   20.9390 C   0  0  0  0  0  0  0  0  0  0  0  0
  -30.5650  -20.1660   20.7720 C   0  0  0  0  0  0  0  0  0  0  0  0
  -31.8140  -20.6760   20.6700 N   0  0  0  0  0  0  0  0  0  0  0  0
  -27.2240  -22.5970   22.2190 C   0  0  0  0  0  1  0  0  0  0  0  0
  -28.5070  -23.3170   21.7680 C   0  0  0  0  0  3  0  0  0  0  0  0
  -28.2120  -24.3340   20.6230 C   0  0  0  0  0  2  0  0  0  0  0  0
  -28.8420  -25.7370   20.8110 C   0  0  0  0  0  2  0  0  0  0  0  0
  -28.5380  -26.6220   19.7230 O   0  0  0  0  0  0  0  0  0  0  0  0
  -24.7350  -31.6440   23.1190 C   0  0  0  0  0  0  0  0  0  0  0  0
  -27.3790  -27.3560   19.8300 C   0  0  0  0  0  0  0  0  0  0  0  0
  -23.5280  -30.3320   21.4070 C   0  0  0  0  0  3  0  0  0  0  0  0
  -24.9820  -28.8570   19.9150 C   0  0  0  0  0  0  0  0  0  0  0  0
  -26.0570  -30.6860   21.2390 C   0  0  0  0  0  2  0  0  0  0  0  0
  -26.1400  -29.3490   20.5320 C   0  0  0  0  0  0  0  0  0  0  0  0
  -27.3430  -28.6010   20.4940 C   0  0  0  0  0  3  0  0  0  0  0  0
  -26.2090  -26.8800   19.2010 C   0  0  0  0  0  3  0  0  0  0  0  0
  -25.0100  -27.6170   19.2500 C   0  0  0  0  0  3  0  0  0  0  0  0
  -23.7380  -29.7160   19.9970 C   0  0  0  0  0  2  0  0  0  0  0  0
  -24.7920  -30.8980   21.9810 N   0  0  0  0  0  0  0  0  0  0  0  0
  -23.6520  -31.8930   23.6680 O   0  0  0  0  0  0  0  0  0  0  0  0
  -22.8730  -29.2650   22.3130 C   0  0  0  0  0  0  0  0  0  0  0  0
  -21.5420  -29.1230   22.2020 N   0  0  0  0  0  0  0  0  0  0  0  0
  -23.5570  -28.5740   23.0710 O   0  0  0  0  0  0  0  0  0  0  0  0
  -21.0520  -29.7260   21.5550 H   0  0  0  0  0  0  0  0  0  0  0  0
  -18.1440  -28.0150   22.7330 C   0  0  0  0  0  0  0  0  0  0  0  0
  -20.7180  -28.1590   22.9270 C   0  0  0  0  0  3  0  0  0  0  0  0
  -20.7440  -26.7770   22.2330 C   0  0  0  0  0  2  0  0  0  0  0  0
  -19.5960  -26.5770   21.2390 C   0  0  0  0  0  2  0  0  0  0  0  0
  -18.2450  -26.7200   21.9460 C   0  0  0  0  0  2  0  0  0  0  0  0
  -19.3050  -28.7000   23.1780 C   0  0  0  0  0  0  0  0  0  0  0  0
  -19.1540  -29.9210   23.8720 C   0  0  0  0  0  3  0  0  0  0  0  0
  -17.8760  -30.4530   24.1270 C   0  0  0  0  0  3  0  0  0  0  0  0
  -16.7300  -29.7610   23.6980 C   0  0  0  0  0  3  0  0  0  0  0  0
  -16.8640  -28.5440   23.0050 C   0  0  0  0  0  3  0  0  0  0  0  0
  -26.0210  -32.2370   23.7720 C   0  0  0  0  0  3  0  0  0  0  0  0
  -26.5310  -31.4010   25.0110 C   0  0  1  0  0  0  0  0  0  0  0  0
  -25.4320  -31.1240   26.0630 C   0  0  0  0  0  1  0  0  0  0  0  0
  -27.1000  -30.0370   24.5540 C   0  0  0  0  0  1  0  0  0  0  0  0
  -27.6940  -32.1520   25.7010 C   0  0  0  0  0  1  0  0  0  0  0  0
  -25.7220  -33.6200   24.1630 N   0  0  0  0  0  0  0  0  0  0  0  0
  -26.0770  -34.7000   23.4530 C   0  0  0  0  0  0  0  0  0  0  0  0
  -26.7560  -34.6340   22.4250 O   0  0  0  0  0  0  0  0  0  0  0  0
  -25.1120  -33.7420   24.9580 H   0  0  0  0  0  0  0  0  0  0  0  0
  -24.3670  -36.5200   23.1660 C   0  0  0  0  0  1  0  0  0  0  0  0
  -25.6030  -36.0720   23.9630 C   0  0  0  0  0  3  0  0  0  0  0  0
  -27.7450  -36.8990   24.8360 C   0  0  0  0  0  1  0  0  0  0  0  0
  -26.6470  -37.1170   23.8970 N   0  0  0  0  0  0  0  0  0  0  0  0
  -26.2530  -38.0340   24.0820 H   0  0  0  0  0  0  0  0  0  0  0  0
  -34.5240  -21.7420   21.2630 C   0  0  0  0  0  1  0  0  0  0  0  0
  -33.3850  -22.5710   20.6450 C   0  0  0  0  0  3  0  0  0  0  0  0
  -33.5970  -22.8150   19.1330 C   0  0  0  0  0  2  0  0  0  0  0  0
  -32.5800  -23.7950   18.5110 C   0  0  0  0  0  2  0  0  0  0  0  0
  -31.9180  -25.1570   16.4430 C   0  0  0  0  0  1  0  0  0  0  0  0
  -32.8750  -24.1120   17.0380 C   0  0  0  0  0  2  0  0  0  0  0  0
  -30.7430  -18.4180   18.9260 C   0  0  0  0  0  1  0  0  0  0  0  0
  -30.3800  -18.6750   20.4030 C   0  0  0  0  0  3  0  0  0  0  0  0
  -31.8000  -18.2130   22.5240 C   0  0  0  0  0  1  0  0  0  0  0  0
  -29.6830  -16.9690   22.1670 C   0  0  0  0  0  1  0  0  0  0  0  0
  -30.9050  -17.5790   21.4330 C   0  0  1  0  0  0  0  0  0  0  0  0
  -31.7490  -16.4230   20.7800 C   0  0  0  0  0  2  0  0  0  0  0  0
  -31.4500  -14.1670   19.7180 C   0  0  0  0  0  0  0  0  0  0  0  0
  -30.9300  -11.9330   18.7870 C   0  0  0  0  0  2  0  0  0  0  0  0
  -29.9250  -12.0500   17.6250 C   0  0  0  0  0  2  0  0  0  0  0  0
  -28.4800  -12.0330   18.1570 C   0  0  0  0  0  2  0  0  0  0  0  0
  -28.2640  -13.0370   19.3200 C   0  0  0  0  0  3  0  0  0  0  0  0
  -29.3730  -12.8930   20.3860 C   0  0  0  0  0  2  0  0  0  0  0  0
  -30.6770  -13.0470   19.7170 N   0  0  0  0  0  0  0  0  0  0  0  0
  -32.4960  -14.2600   19.0670 O   0  0  0  0  0  0  0  0  0  0  0  0
  -31.0040  -15.1910   20.4650 N   0  0  0  0  0  0  0  0  0  0  0  0
  -30.1200  -15.0610   20.9330 H   0  0  0  0  0  0  0  0  0  0  0  0
  -26.0090  -13.8820   20.2290 C   0  0  0  0  0  0  0  0  0  0  0  0
  -24.8980  -13.2200   20.6780 C   0  0  0  0  0  0  0  0  0  0  0  0
  -25.2080  -11.8280   20.5980 C   0  0  0  0  0  0  0  0  0  0  0  0
  -26.9320  -12.8980   19.9050 N   0  0  0  0  0  0  0  0  0  0  0  0
  -26.4560  -11.6570   20.1840 N   0  0  0  0  0  0  0  0  0  0  0  0
  -24.3690  -10.6470   20.8370 C   0  0  0  0  0  0  0  0  0  0  0  0
  -24.7460   -9.6480   21.7620 C   0  0  0  0  0  3  0  0  0  0  0  0
  -23.9130   -8.5310   21.9880 C   0  0  0  0  0  3  0  0  0  0  0  0
  -22.6890   -8.4060   21.2900 C   0  0  0  0  0  0  0  0  0  0  0  0
  -22.3280   -9.3920   20.3550 C   0  0  0  0  0  3  0  0  0  0  0  0
  -23.1600  -10.5010   20.1280 C   0  0  0  0  0  3  0  0  0  0  0  0
  -21.8290   -7.3420   21.4260 O   0  0  0  0  0  0  0  0  0  0  0  0
  -21.7230   -6.6480   22.6030 C   0  0  0  0  0  0  0  0  0  0  0  0
  -21.3790   -7.2840   23.8160 C   0  0  0  0  0  3  0  0  0  0  0  0
  -21.2130   -6.5220   24.9900 C   0  0  0  0  0  3  0  0  0  0  0  0
  -21.3810   -5.1240   24.9510 C   0  0  0  0  0  0  0  0  0  0  0  0
  -21.7210   -4.4890   23.7440 C   0  0  0  0  0  3  0  0  0  0  0  0
  -21.8890   -5.2480   22.5730 C   0  0  0  0  0  0  0  0  0  0  0  0
  -22.1930   -4.6280   21.4080 F   0  0  0  0  0  0  0  0  0  0  0  0
  -21.2160   -4.3890   26.0760 F   0  0  0  0  0  0  0  0  0  0  0  0
  -23.5880  -13.8390   21.0710 C   0  0  0  0  0  0  0  0  0  0  0  0
  -22.8710  -13.2180   22.0010 N   0  0  0  0  0  0  0  0  0  0  0  0
  -23.2120  -14.9050   20.5850 O   0  0  0  0  0  0  0  0  0  0  0  0
  -23.1870  -12.3520   22.4120 H   0  0  0  0  0  0  0  0  0  0  0  0
  -21.9940  -13.6150   22.3060 H   0  0  0  0  0  0  0  0  0  0  0  0
  -26.3050  -15.2300   20.0500 N   0  0  0  0  0  0  0  0  0  0  0  0
  -25.6240  -15.9600   20.2250 H   0  0  0  0  0  0  0  0  0  0  0  0
  -27.1730  -15.5810   19.6650 H   0  0  0  0  0  0  0  0  0  0  0  0
  1  3  1  0
  2  3  2  0
  3  8  1  0
  4  1  2  0
  5  2  1  0
  6  5  2  0
  6  4  1  0
  8  7  1  0
  9 10  1  0
  9  8  1  0
 11 13  1  0
 11 10  1  0
 12 23  2  0
 13 18  1  0
 14 22  1  0
 14 24  1  0
 15 21  1  0
 15 17  1  0
 16 22  1  0
 17 16  1  0
 18 17  2  0
 19 20  1  0
 19 13  2  0
 20 15  2  0
 21 14  1  0
 22 12  1  0
 24 26  2  0
 25 24  1  0
 27 25  1  0
 28 37  2  0
 28 33  1  0
 29 25  1  0
 29 33  1  0
 30 29  1  0
 31 32  1  0
 31 30  1  0
 32 28  1  0
 33 34  2  0
 34 35  1  0
 36 35  2  0
 37 36  1  0
 38 12  1  0
 38 43  1  0
 38 39  1  0
 39 42  1  1
 39 40  1  0
 41 39  1  0
 43 46  1  0
 44 48  1  0
 44 43  1  0
 45 44  2  0
 48 47  1  0
 50 48  1  0
 50 51  1  0
 50 49  1  0
 53  4  1  0
 53 52  1  0
 54 53  1  0
 55 54  1  0
 56 57  1  0
 57 55  1  0
 59 58  1  0
 59  5  1  0
 59 62  1  0
 62 61  1  1
 62 60  1  0
 63 62  1  0
 64 72  1  0
 65 70  1  0
 66 67  1  0
 66 65  1  0
 68 67  1  0
 68 77  1  0
 68 69  1  0
 70 64  1  0
 70 69  1  0
 71 64  2  0
 72 63  1  0
 72 73  1  0
 74 75  2  0
 75 94  1  0
 76 75  1  0
 76 79  1  0
 77 78  1  0
 77 74  1  0
 78 76  2  0
 79 80  1  0
 80 81  2  0
 82 85  1  0
 82 81  1  0
 83 82  2  0
 84 83  1  0
 84 79  2  0
 85 86  1  0
 86 87  1  0
 87 88  2  0
 89 88  1  0
 89 93  1  0
 90 89  2  0
 91 86  2  0
 91 90  1  0
 92 91  1  0
 94 95  1  0
 95 98  1  0
 95 97  1  0
 96 94  2  0
 99100  1  0
 99 74  1  0
101 99  1  0
M  ISO  4  10 101  11 101  64 100  72 100
M  END
>  <TORSDO>  (34) 
F 26

>  <SCORE>  (34) 
-9.718

>  <name>  (34) 
34

>  <ligand_id>  (34) 
34

>  <original_smiles>  (34) 
[H]c1c([H])c([H])c2c(c1[H])C([H])([H])C([H])([H])C([H])([H])C2([H])N([H])C(=O)C1([H])N(C(=O)C([H])(N([H])C(=O)C([H])(N([H])C([H])([H])[H])C([H])([H])[H])C(C([H])([H])[H])(C([H])([H])[H])C([H])([H])[H])C([H])([H])c2c([H])c(OC([H])([H])C([H])([H])C([H])(c3c([H])c(C([H])(C([H])([H])[H])C([H])([H])C([H])([H])C([H])([H])C([H])([H])[H])nc(C([H])(C([H])([H])[H])C(C([H])([H])[H])(C([H])([H])[H])C([H])([H])N([H])C(=O)N4C([H])([H])C([H])([H])C([H])([H])C([H])(n5nc(-c6c([H])c([H])c(Oc7c([H])c([H])c(F)c([H])c7F)c([H])c6[H])c(C(=O)N([H])[H])c5N([H])[H])C4([H])[H])c3[H])C([H])([H])[H])c([H])c([H])c2C1([H])[H]

>  <smiles>  (34) 
[H]c1c([H])c([H])c2c(c1[H])C([H])([H])C([H])([H])C([H])([H])C2([H])N([H])C(=O)C1([H])N(C(=O)C([H])(N([H])C(=O)C([H])(N([H])C([H])([H])[H])C([H])([H])[H])C(C([H])([H])[H])(C([H])([H])[H])C([H])([H])[H])C([H])([H])c2c([H])c(OC([H])([H])C([H])([H])C([H])(c3c([H])c(C([H])(C([H])([H])[H])C([H])([H])C([H])([H])C([H])([H])C([H])([H])[H])nc(C([H])(C([H])([H])[H])C(C([H])([H])[H])(C([H])([H])[H])C([H])([H])N([H])C(=O)N4C([H])([H])C([H])([H])C([H])([H])C([H])(n5nc(-c6c([H])c([H])c(Oc7c([H])c([H])c(F)c([H])c7F)c([H])c6[H])c(C(=O)N([H])[H])c5N([H])[H])C4([H])[H])c3[H])C([H])([H])[H])c([H])c([H])c2C1([H])[H]

$$$$
35:0:0
     RDKit          3D

 94102  0  0  1  0  0  0  0  0999 V2000
  -27.0100  -20.3330   20.7800 C   0  0  0  0  0  3  0  0  0  0  0  0
  -26.6300  -22.3500   20.1580 C   0  0  0  0  0  0  0  0  0  0  0  0
  -27.9890  -22.1210   19.9790 C   0  0  0  0  0  0  0  0  0  0  0  0
  -26.0200  -21.2000   20.6440 N   0  0  0  0  0  0  0  0  0  0  0  0
  -28.2240  -20.7880   20.4310 N   0  0  0  0  0  0  0  0  0  0  0  0
  -24.6320  -23.3200   18.9450 C   0  0  0  0  0  1  0  0  0  0  0  0
  -25.7870  -23.5880   19.9210 C   0  0  0  0  0  3  0  0  0  0  0  0
  -26.3810  -24.9790   22.0010 C   0  0  0  0  0  1  0  0  0  0  0  0
  -25.2840  -24.2290   21.2310 C   0  0  0  0  0  2  0  0  0  0  0  0
  -29.0590  -23.0890   19.4770 C   0  0  0  0  0  2  0  0  0  0  0  0
  -28.5990  -24.3840   18.7070 C   0  0  0  0  0  3  0  0  0  0  0  0
  -28.7450  -25.7580   19.4480 C   0  0  0  0  0  3  0  0  0  0  0  0
  -28.4940  -26.9230   18.6300 O   0  0  0  0  0  0  0  0  0  0  0  0
  -24.8510  -31.3430   22.9080 C   0  0  0  0  0  0  0  0  0  0  0  0
  -27.3220  -27.6110   18.8790 C   0  0  0  0  0  0  0  0  0  0  0  0
  -23.5440  -30.2270   21.1270 C   0  0  0  0  0  3  0  0  0  0  0  0
  -24.9080  -29.0190   19.3390 C   0  0  0  0  0  0  0  0  0  0  0  0
  -26.0390  -30.6960   20.8100 C   0  0  0  0  0  2  0  0  0  0  0  0
  -26.1000  -29.4660   19.9250 C   0  0  0  0  0  0  0  0  0  0  0  0
  -27.3100  -28.7720   19.6890 C   0  0  0  0  0  3  0  0  0  0  0  0
  -26.1150  -27.1780   18.2920 C   0  0  0  0  0  3  0  0  0  0  0  0
  -24.9110  -27.8760   18.5190 C   0  0  0  0  0  3  0  0  0  0  0  0
  -23.6540  -29.8150   19.6350 C   0  0  0  0  0  2  0  0  0  0  0  0
  -24.8340  -30.7620   21.6750 N   0  0  0  0  0  0  0  0  0  0  0  0
  -23.8110  -31.4760   23.5680 O   0  0  0  0  0  0  0  0  0  0  0  0
  -22.9890  -29.0260   21.9290 C   0  0  0  0  0  0  0  0  0  0  0  0
  -21.6680  -28.8020   21.8340 N   0  0  0  0  0  0  0  0  0  0  0  0
  -23.7420  -28.3070   22.5920 O   0  0  0  0  0  0  0  0  0  0  0  0
  -21.1180  -29.4390   21.2750 H   0  0  0  0  0  0  0  0  0  0  0  0
  -18.3890  -27.3390   22.2240 C   0  0  0  0  0  0  0  0  0  0  0  0
  -20.9350  -27.7070   22.4660 C   0  0  0  0  0  3  0  0  0  0  0  0
  -21.0990  -26.3950   21.6640 C   0  0  0  0  0  2  0  0  0  0  0  0
  -19.9820  -26.1700   20.6410 C   0  0  0  0  0  2  0  0  0  0  0  0
  -18.6170  -26.1280   21.3350 C   0  0  0  0  0  2  0  0  0  0  0  0
  -19.4760  -28.0910   22.7400 C   0  0  0  0  0  0  0  0  0  0  0  0
  -19.2100  -29.2310   23.5280 C   0  0  0  0  0  3  0  0  0  0  0  0
  -17.8870  -29.6200   23.8070 C   0  0  0  0  0  3  0  0  0  0  0  0
  -16.8120  -28.8620   23.3080 C   0  0  0  0  0  3  0  0  0  0  0  0
  -17.0650  -27.7220   22.5230 C   0  0  0  0  0  3  0  0  0  0  0  0
  -26.1710  -31.8890   23.5380 C   0  0  0  0  0  3  0  0  0  0  0  0
  -25.8500  -33.1550   24.2120 N   0  0  0  0  0  0  0  0  0  0  0  0
  -26.1160  -34.3700   23.7150 C   0  0  0  0  0  0  0  0  0  0  0  0
  -26.7300  -34.5410   22.6590 O   0  0  0  0  0  0  0  0  0  0  0  0
  -25.2990  -33.0940   25.0550 H   0  0  0  0  0  0  0  0  0  0  0  0
  -24.3400  -36.1440   23.8730 C   0  0  0  0  0  1  0  0  0  0  0  0
  -25.6200  -35.5890   24.5170 C   0  0  0  0  0  3  0  0  0  0  0  0
  -27.7710  -36.2990   25.4650 C   0  0  0  0  0  1  0  0  0  0  0  0
  -26.6280  -36.6650   24.6330 N   0  0  0  0  0  0  0  0  0  0  0  0
  -26.2120  -37.5100   25.0180 H   0  0  0  0  0  0  0  0  0  0  0  0
  -26.8460  -30.8770   24.5440 C   0  0  1  0  0  0  0  0  0  0  0  0
  -25.8810  -30.3400   25.6270 C   0  0  0  0  0  1  0  0  0  0  0  0
  -27.4280  -29.6620   23.7860 C   0  0  0  0  0  1  0  0  0  0  0  0
  -28.0330  -31.5630   25.2620 C   0  0  0  0  0  1  0  0  0  0  0  0
  -29.4740  -19.9870   20.5190 C   0  0  0  0  0  3  0  0  0  0  0  0
  -29.2780  -18.4550   20.8580 C   0  0  0  0  0  3  0  0  0  0  0  0
  -30.5510  -17.5370   20.8700 C   0  0  0  0  0  2  0  0  0  0  0  0
  -31.0600  -15.0390   20.6600 C   0  0  0  0  0  0  0  0  0  0  0  0
  -30.8900  -12.8050   19.6050 C   0  0  0  0  0  2  0  0  0  0  0  0
  -30.0220  -12.9320   18.3350 C   0  0  0  0  0  2  0  0  0  0  0  0
  -28.5230  -12.8040   18.6800 C   0  0  0  0  0  2  0  0  0  0  0  0
  -28.1040  -13.6970   19.8810 C   0  0  0  0  0  3  0  0  0  0  0  0
  -29.0860  -13.5300   21.0600 C   0  0  0  0  0  2  0  0  0  0  0  0
  -30.4360  -13.8320   20.5610 N   0  0  0  0  0  0  0  0  0  0  0  0
  -32.2270  -15.2120   20.2970 O   0  0  0  0  0  0  0  0  0  0  0  0
  -30.2550  -16.0840   20.9920 N   0  0  0  0  0  0  0  0  0  0  0  0
  -29.3090  -15.8310   21.2360 H   0  0  0  0  0  0  0  0  0  0  0  0
  -25.6960  -14.3430   20.5100 C   0  0  0  0  0  0  0  0  0  0  0  0
  -24.5930  -13.5840   20.8010 C   0  0  0  0  0  0  0  0  0  0  0  0
  -25.0200  -12.2240   20.7320 C   0  0  0  0  0  0  0  0  0  0  0  0
  -26.7250  -13.4410   20.2850 N   0  0  0  0  0  0  0  0  0  0  0  0
  -26.3210  -12.1590   20.4790 N   0  0  0  0  0  0  0  0  0  0  0  0
  -24.2540  -10.9750   20.8340 C   0  0  0  0  0  0  0  0  0  0  0  0
  -24.6450   -9.9400   21.7110 C   0  0  0  0  0  3  0  0  0  0  0  0
  -23.8820   -8.7570   21.8050 C   0  0  0  0  0  3  0  0  0  0  0  0
  -22.7120   -8.6020   21.0220 C   0  0  0  0  0  0  0  0  0  0  0  0
  -22.3420   -9.6260   20.1340 C   0  0  0  0  0  3  0  0  0  0  0  0
  -23.1060  -10.8020   20.0360 C   0  0  0  0  0  3  0  0  0  0  0  0
  -21.9240   -7.4780   21.0280 O   0  0  0  0  0  0  0  0  0  0  0  0
  -21.8580   -6.6500   22.1210 C   0  0  0  0  0  0  0  0  0  0  0  0
  -21.4770   -7.1270   23.3950 C   0  0  0  0  0  3  0  0  0  0  0  0
  -21.3550   -6.2290   24.4740 C   0  0  0  0  0  3  0  0  0  0  0  0
  -21.6050   -4.8580   24.2810 C   0  0  0  0  0  0  0  0  0  0  0  0
  -21.9790   -4.3810   23.0130 C   0  0  0  0  0  3  0  0  0  0  0  0
  -22.1010   -5.2750   21.9350 C   0  0  0  0  0  0  0  0  0  0  0  0
  -22.4420   -4.8070   20.7110 F   0  0  0  0  0  0  0  0  0  0  0  0
  -21.4800   -3.9940   25.3160 F   0  0  0  0  0  0  0  0  0  0  0  0
  -23.1980  -14.0900   21.0310 C   0  0  0  0  0  0  0  0  0  0  0  0
  -22.4170  -13.3880   21.8460 N   0  0  0  0  0  0  0  0  0  0  0  0
  -22.8080  -15.1390   20.5230 O   0  0  0  0  0  0  0  0  0  0  0  0
  -22.7420  -12.5350   22.2770 H   0  0  0  0  0  0  0  0  0  0  0  0
  -21.4790  -13.7090   22.0400 H   0  0  0  0  0  0  0  0  0  0  0  0
  -25.9050  -15.7140   20.3980 N   0  0  0  0  0  0  0  0  0  0  0  0
  -25.1490  -16.3810   20.5090 H   0  0  0  0  0  0  0  0  0  0  0  0
  -26.7670  -16.1440   20.0890 H   0  0  0  0  0  0  0  0  0  0  0  0
  2  4  1  0
  3  2  2  0
  3  5  1  0
  4  1  2  0
  5 54  1  0
  5  1  1  0
  7  6  1  0
  7  2  1  0
  7  9  1  0
  9  8  1  0
 10  3  1  0
 11 12  2  0
 11 10  1  0
 13 15  1  0
 13 12  1  0
 14 25  2  0
 15 20  1  0
 16 24  1  0
 16 26  1  0
 17 23  1  0
 17 19  1  0
 18 24  1  0
 19 18  1  0
 20 19  2  0
 21 22  1  0
 21 15  2  0
 22 17  2  0
 23 16  1  0
 24 14  1  0
 26 28  2  0
 27 26  1  0
 29 27  1  0
 30 39  2  0
 30 35  1  0
 31 27  1  0
 31 35  1  0
 32 31  1  0
 33 34  1  0
 33 32  1  0
 34 30  1  0
 35 36  2  0
 36 37  1  0
 38 37  2  0
 39 38  1  0
 40 14  1  0
 40 41  1  0
 40 50  1  0
 41 44  1  0
 42 41  1  0
 42 46  1  0
 43 42  2  0
 46 45  1  0
 46 48  1  0
 48 49  1  0
 48 47  1  0
 50 53  1  1
 50 51  1  0
 52 50  1  0
 54 55  2  0
 55 56  1  0
 56 65  1  0
 57 65  1  0
 58 63  1  0
 59 60  1  0
 59 58  1  0
 61 60  1  0
 61 70  1  0
 61 62  1  0
 63 57  1  0
 63 62  1  0
 64 57  2  0
 65 66  1  0
 67 68  2  0
 68 87  1  0
 69 68  1  0
 69 72  1  0
 70 71  1  0
 70 67  1  0
 71 69  2  0
 72 73  1  0
 73 74  2  0
 75 78  1  0
 75 74  1  0
 76 75  2  0
 77 76  1  0
 77 72  2  0
 78 79  1  0
 79 80  1  0
 80 81  2  0
 82 81  1  0
 82 86  1  0
 83 82  2  0
 84 79  2  0
 84 83  1  0
 85 84  1  0
 87 88  1  0
 88 91  1  0
 88 90  1  0
 89 87  2  0
 92 93  1  0
 92 67  1  0
 94 92  1  0
M  ISO  4  12 101  13 101  57 100  65 100
M  END
>  <TORSDO>  (35) 
F 24

>  <SCORE>  (35) 
-6.841

>  <name>  (35) 
35

>  <ligand_id>  (35) 
35

>  <original_smiles>  (35) 
[H]c1c([H])c([H])c2c(c1[H])C([H])([H])C([H])([H])C([H])([H])C2([H])N([H])C(=O)C1([H])N(C(=O)C([H])(N([H])C(=O)C([H])(N([H])C([H])([H])[H])C([H])([H])[H])C(C([H])([H])[H])(C([H])([H])[H])C([H])([H])[H])C([H])([H])c2c([H])c(OC([H])([H])C([H])([H])C([H])([H])c3c(C([H])(C([H])([H])[H])C([H])([H])C([H])([H])[H])nc([H])n3C([H])([H])C([H])([H])C([H])([H])N([H])C(=O)N3C([H])([H])C([H])([H])C([H])([H])C([H])(n4nc(-c5c([H])c([H])c(Oc6c([H])c([H])c(F)c([H])c6F)c([H])c5[H])c(C(=O)N([H])[H])c4N([H])[H])C3([H])[H])c([H])c([H])c2C1([H])[H]

>  <smiles>  (35) 
[H]c1c([H])c([H])c2c(c1[H])C([H])([H])C([H])([H])C([H])([H])C2([H])N([H])C(=O)C1([H])N(C(=O)C([H])(N([H])C(=O)C([H])(N([H])C([H])([H])[H])C([H])([H])[H])C(C([H])([H])[H])(C([H])([H])[H])C([H])([H])[H])C([H])([H])c2c([H])c(OC([H])([H])C([H])([H])C([H])([H])c3c(C([H])(C([H])([H])[H])C([H])([H])C([H])([H])[H])nc([H])n3C([H])([H])C([H])([H])C([H])([H])N([H])C(=O)N3C([H])([H])C([H])([H])C([H])([H])C([H])(n4nc(-c5c([H])c([H])c(Oc6c([H])c([H])c(F)c([H])c6F)c([H])c5[H])c(C(=O)N([H])[H])c4N([H])[H])C3([H])[H])c([H])c([H])c2C1([H])[H]

$$$$
36:0:0
     RDKit          3D

 98106  0  0  1  0  0  0  0  0999 V2000
  -29.1180  -21.7350   19.8200 C   0  0  0  0  0  2  0  0  0  0  0  0
  -27.8070  -22.1500   19.3770 C   0  0  0  0  0  0  0  0  0  0  0  0
  -29.2790  -20.3660   19.7470 C   0  0  0  0  0  3  0  0  0  0  0  0
  -27.2590  -20.9660   18.8710 C   0  0  0  0  0  0  0  0  0  0  0  0
  -28.0510  -19.8760   19.2890 N   0  0  0  0  0  0  0  0  0  0  0  0
  -27.6560  -17.8340   20.7030 C   0  0  0  0  0  1  0  0  0  0  0  0
  -28.1910  -17.5310   18.2580 C   0  0  0  0  0  1  0  0  0  0  0  0
  -27.5800  -18.4600   19.3050 C   0  0  0  0  0  3  0  0  0  0  0  0
  -27.2090  -23.6310   19.4540 C   0  0  0  0  0  3  0  0  0  0  0  0
  -24.7410  -23.5700   18.6130 C   0  0  0  0  0  1  0  0  0  0  0  0
  -25.7020  -23.5830   19.8320 C   0  0  0  0  0  2  0  0  0  0  0  0
  -27.9290  -24.6470   20.4620 C   0  0  0  0  0  2  0  0  0  0  0  0
  -28.2150  -26.0870   20.1820 O   0  0  0  0  0  0  0  0  0  0  0  0
  -24.5230  -31.5020   23.1690 C   0  0  0  0  0  0  0  0  0  0  0  0
  -27.1700  -26.9970   20.1050 C   0  0  0  0  0  0  0  0  0  0  0  0
  -23.3590  -30.1380   21.4690 C   0  0  0  0  0  3  0  0  0  0  0  0
  -24.8420  -28.6240   20.0380 C   0  0  0  0  0  0  0  0  0  0  0  0
  -25.8980  -30.4410   21.3780 C   0  0  0  0  0  2  0  0  0  0  0  0
  -25.9830  -29.0760   20.7140 C   0  0  0  0  0  0  0  0  0  0  0  0
  -27.1500  -28.2600   20.7620 C   0  0  0  0  0  3  0  0  0  0  0  0
  -26.0730  -26.6690   19.2990 C   0  0  0  0  0  3  0  0  0  0  0  0
  -24.8900  -27.4250   19.3120 C   0  0  0  0  0  3  0  0  0  0  0  0
  -23.6020  -29.4870   20.0790 C   0  0  0  0  0  2  0  0  0  0  0  0
  -24.6110  -30.7080   22.0630 N   0  0  0  0  0  0  0  0  0  0  0  0
  -23.4280  -31.7800   23.6770 O   0  0  0  0  0  0  0  0  0  0  0  0
  -22.6690  -29.1090   22.3940 C   0  0  0  0  0  0  0  0  0  0  0  0
  -21.3550  -28.9110   22.1980 N   0  0  0  0  0  0  0  0  0  0  0  0
  -23.3110  -28.4960   23.2530 O   0  0  0  0  0  0  0  0  0  0  0  0
  -20.8910  -29.4770   21.5010 H   0  0  0  0  0  0  0  0  0  0  0  0
  -17.9830  -27.6470   22.5040 C   0  0  0  0  0  0  0  0  0  0  0  0
  -20.5150  -27.9500   22.9140 C   0  0  0  0  0  3  0  0  0  0  0  0
  -20.6730  -26.5250   22.3320 C   0  0  0  0  0  2  0  0  0  0  0  0
  -19.6370  -26.2070   21.2490 C   0  0  0  0  0  2  0  0  0  0  0  0
  -18.2210  -26.3110   21.8190 C   0  0  0  0  0  2  0  0  0  0  0  0
  -19.0620  -28.4270   22.9990 C   0  0  0  0  0  0  0  0  0  0  0  0
  -18.7860  -29.6840   23.5800 C   0  0  0  0  0  3  0  0  0  0  0  0
  -17.4650  -30.1600   23.6750 C   0  0  0  0  0  3  0  0  0  0  0  0
  -16.3990  -29.3760   23.1980 C   0  0  0  0  0  3  0  0  0  0  0  0
  -16.6590  -28.1220   22.6180 C   0  0  0  0  0  3  0  0  0  0  0  0
  -25.7920  -32.1160   23.8370 C   0  0  0  0  0  3  0  0  0  0  0  0
  -26.1940  -31.3980   25.1830 C   0  0  1  0  0  0  0  0  0  0  0  0
  -25.0240  -31.2220   26.1780 C   0  0  0  0  0  1  0  0  0  0  0  0
  -26.7780  -29.9950   24.9010 C   0  0  0  0  0  1  0  0  0  0  0  0
  -27.3090  -32.2020   25.8930 C   0  0  0  0  0  1  0  0  0  0  0  0
  -25.5220  -33.5410   24.0730 N   0  0  0  0  0  0  0  0  0  0  0  0
  -25.9430  -34.5360   23.2820 C   0  0  0  0  0  0  0  0  0  0  0  0
  -26.6700  -34.3480   22.3010 O   0  0  0  0  0  0  0  0  0  0  0  0
  -24.8920  -33.7640   24.8300 H   0  0  0  0  0  0  0  0  0  0  0  0
  -24.3240  -36.3750   22.7150 C   0  0  0  0  0  1  0  0  0  0  0  0
  -25.4870  -35.9650   23.6320 C   0  0  0  0  0  3  0  0  0  0  0  0
  -27.6040  -36.7990   24.5570 C   0  0  0  0  0  1  0  0  0  0  0  0
  -26.5720  -36.9660   23.5380 N   0  0  0  0  0  0  0  0  0  0  0  0
  -26.2020  -37.9090   23.6180 H   0  0  0  0  0  0  0  0  0  0  0  0
  -25.9950  -20.6370   18.0730 C   0  0  0  0  0  2  0  0  0  0  0  0
  -26.1330  -19.5080   17.0230 C   0  0  0  0  0  2  0  0  0  0  0  0
  -26.9300  -18.7320   14.7410 C   0  0  0  0  0  1  0  0  0  0  0  0
  -26.6880  -19.9410   15.6560 C   0  0  0  0  0  2  0  0  0  0  0  0
  -30.4470  -19.4700   20.2080 C   0  0  0  0  0  2  0  0  0  0  0  0
  -30.9340  -18.2620   19.3140 C   0  0  0  0  0  2  0  0  0  0  0  0
  -31.6260  -17.1020   20.1260 C   0  0  0  0  0  2  0  0  0  0  0  0
  -31.6980  -14.6230   19.4970 C   0  0  0  0  0  0  0  0  0  0  0  0
  -31.1900  -12.3990   18.5420 C   0  0  0  0  0  2  0  0  0  0  0  0
  -30.1180  -12.5540   17.4430 C   0  0  0  0  0  2  0  0  0  0  0  0
  -28.7000  -12.5280   18.0450 C   0  0  0  0  0  2  0  0  0  0  0  0
  -28.5490  -13.4480   19.2880 C   0  0  0  0  0  3  0  0  0  0  0  0
  -29.7220  -13.2530   20.2740 C   0  0  0  0  0  2  0  0  0  0  0  0
  -30.9690  -13.4700   19.5260 N   0  0  0  0  0  0  0  0  0  0  0  0
  -32.8010  -14.6930   18.9500 O   0  0  0  0  0  0  0  0  0  0  0  0
  -31.0700  -15.7320   19.9550 N   0  0  0  0  0  0  0  0  0  0  0  0
  -30.1430  -15.5830   20.3230 H   0  0  0  0  0  0  0  0  0  0  0  0
  -26.3990  -14.2360   20.4550 C   0  0  0  0  0  0  0  0  0  0  0  0
  -25.2840  -13.5580   20.8750 C   0  0  0  0  0  0  0  0  0  0  0  0
  -25.5240  -12.1830   20.5810 C   0  0  0  0  0  0  0  0  0  0  0  0
  -27.2510  -13.2740   19.9370 N   0  0  0  0  0  0  0  0  0  0  0  0
  -26.7360  -12.0240   20.0650 N   0  0  0  0  0  0  0  0  0  0  0  0
  -24.6470  -11.0110   20.7010 C   0  0  0  0  0  0  0  0  0  0  0  0
  -25.0160   -9.8870   21.4700 C   0  0  0  0  0  3  0  0  0  0  0  0
  -24.1450   -8.7820   21.5870 C   0  0  0  0  0  3  0  0  0  0  0  0
  -22.8910   -8.7930   20.9340 C   0  0  0  0  0  0  0  0  0  0  0  0
  -22.5380   -9.9060   20.1510 C   0  0  0  0  0  3  0  0  0  0  0  0
  -23.4070  -11.0020   20.0320 C   0  0  0  0  0  3  0  0  0  0  0  0
  -21.9910   -7.7550   20.9700 O   0  0  0  0  0  0  0  0  0  0  0  0
  -21.8690   -6.9470   22.0720 C   0  0  0  0  0  0  0  0  0  0  0  0
  -21.5260   -7.4630   23.3410 C   0  0  0  0  0  3  0  0  0  0  0  0
  -21.3430   -6.5890   24.4300 C   0  0  0  0  0  3  0  0  0  0  0  0
  -21.4910   -5.2010   24.2530 C   0  0  0  0  0  0  0  0  0  0  0  0
  -21.8240   -4.6840   22.9890 C   0  0  0  0  0  3  0  0  0  0  0  0
  -22.0100   -5.5550   21.9000 C   0  0  0  0  0  0  0  0  0  0  0  0
  -22.3130   -5.0480   20.6820 F   0  0  0  0  0  0  0  0  0  0  0  0
  -21.3050   -4.3610   25.2980 F   0  0  0  0  0  0  0  0  0  0  0  0
  -24.0270  -14.1690   21.4230 C   0  0  0  0  0  0  0  0  0  0  0  0
  -23.3390  -13.4600   22.3140 N   0  0  0  0  0  0  0  0  0  0  0  0
  -23.6700  -15.2960   21.0960 O   0  0  0  0  0  0  0  0  0  0  0  0
  -23.6370  -12.5410   22.6010 H   0  0  0  0  0  0  0  0  0  0  0  0
  -22.5020  -13.8560   22.7170 H   0  0  0  0  0  0  0  0  0  0  0  0
  -26.7450  -15.5800   20.4450 N   0  0  0  0  0  0  0  0  0  0  0  0
  -26.1000  -16.3020   20.7480 H   0  0  0  0  0  0  0  0  0  0  0  0
  -27.5910  -15.9560   20.0360 H   0  0  0  0  0  0  0  0  0  0  0  0
  2  9  1  0
  2  1  1  0
  3  1  1  0
  3 58  1  0
  4  5  1  0
  4  2  2  0
  5  8  1  0
  5  3  1  0
  7  8  1  0
  8  6  1  0
  9 11  1  0
  9 12  1  0
 10 11  1  0
 13 12  1  0
 14 25  2  0
 15 13  1  0
 15 20  1  0
 16 24  1  0
 16 26  1  0
 17 23  1  0
 17 19  1  0
 18 24  1  0
 19 20  2  0
 19 18  1  0
 21 22  1  0
 21 15  2  0
 22 17  2  0
 23 16  1  0
 24 14  1  0
 26 28  2  0
 27 26  1  0
 29 27  1  0
 30 39  2  0
 30 35  1  0
 31 27  1  0
 31 35  1  0
 32 31  1  0
 33 34  1  0
 33 32  1  0
 34 30  1  0
 35 36  2  0
 36 37  1  0
 38 37  2  0
 39 38  1  0
 40 14  1  0
 40 45  1  0
 40 41  1  0
 41 44  1  1
 41 42  1  0
 43 41  1  0
 45 48  1  0
 46 50  1  0
 46 45  1  0
 47 46  2  0
 50 49  1  0
 52 53  1  0
 52 50  1  0
 52 51  1  0
 54  4  1  0
 55 54  1  0
 56 57  1  0
 57 55  1  0
 59 60  1  0
 59 58  1  0
 61 67  1  0
 61 69  1  0
 62 67  1  0
 63 64  1  0
 63 62  1  0
 65 64  1  0
 65 74  1  0
 65 66  1  0
 67 66  1  0
 68 61  2  0
 69 60  1  0
 69 70  1  0
 71 72  2  0
 72 91  1  0
 73 76  1  0
 73 72  1  0
 74 75  1  0
 74 71  1  0
 75 73  2  0
 76 77  1  0
 77 78  2  0
 79 82  1  0
 79 78  1  0
 80 79  2  0
 81 80  1  0
 81 76  2  0
 82 83  1  0
 83 84  1  0
 84 85  2  0
 86 85  1  0
 86 90  1  0
 87 86  2  0
 88 83  2  0
 88 87  1  0
 89 88  1  0
 91 92  1  0
 92 94  1  0
 92 95  1  0
 93 91  2  0
 96 71  1  0
 96 97  1  0
 98 96  1  0
M  ISO  4  12 101  13 101  61 100  69 100
M  END
>  <TORSDO>  (36) 
F 26

>  <SCORE>  (36) 
-7.052

>  <name>  (36) 
36

>  <ligand_id>  (36) 
36

>  <original_smiles>  (36) 
[H]c1c([H])c([H])c2c(c1[H])C([H])([H])C([H])([H])C([H])([H])C2([H])N([H])C(=O)C1([H])N(C(=O)C([H])(N([H])C(=O)C([H])(N([H])C([H])([H])[H])C([H])([H])[H])C(C([H])([H])[H])(C([H])([H])[H])C([H])([H])[H])C([H])([H])c2c([H])c(OC([H])([H])C([H])(c3c([H])c(C([H])([H])C([H])([H])C([H])([H])N([H])C(=O)N4C([H])([H])C([H])([H])C([H])([H])C([H])(n5nc(-c6c([H])c([H])c(Oc7c([H])c([H])c(F)c([H])c7F)c([H])c6[H])c(C(=O)N([H])[H])c5N([H])[H])C4([H])[H])n(C([H])(C([H])([H])[H])C([H])([H])[H])c3C([H])([H])C([H])([H])C([H])([H])C([H])([H])[H])C([H])([H])C([H])([H])[H])c([H])c([H])c2C1([H])[H]

>  <smiles>  (36) 
[H]c1c([H])c([H])c2c(c1[H])C([H])([H])C([H])([H])C([H])([H])C2([H])N([H])C(=O)C1([H])N(C(=O)C([H])(N([H])C(=O)C([H])(N([H])C([H])([H])[H])C([H])([H])[H])C(C([H])([H])[H])(C([H])([H])[H])C([H])([H])[H])C([H])([H])c2c([H])c(OC([H])([H])C([H])(c3c([H])c(C([H])([H])C([H])([H])C([H])([H])N([H])C(=O)N4C([H])([H])C([H])([H])C([H])([H])C([H])(n5nc(-c6c([H])c([H])c(Oc7c([H])c([H])c(F)c([H])c7F)c([H])c6[H])c(C(=O)N([H])[H])c5N([H])[H])C4([H])[H])n(C([H])(C([H])([H])[H])C([H])([H])[H])c3C([H])([H])C([H])([H])C([H])([H])C([H])([H])[H])C([H])([H])C([H])([H])[H])c([H])c([H])c2C1([H])[H]

$$$$
37:0:0
     RDKit          3D

 93101  0  0  1  0  0  0  0  0999 V2000
  -30.3110  -22.8770   19.5690 C   0  0  0  0  0  3  0  0  0  0  0  0
  -28.7890  -21.1890   20.3970 C   0  0  0  0  0  3  0  0  0  0  0  0
  -29.0500  -22.5910   20.1110 C   0  0  0  0  0  0  0  0  0  0  0  0
  -31.2290  -21.8580   19.2470 C   0  0  0  0  0  0  0  0  0  0  0  0
  -29.7070  -20.0960   20.1100 C   0  0  0  0  0  0  0  0  0  0  0  0
  -30.9430  -20.4850   19.4950 C   0  0  0  0  0  0  0  0  0  0  0  0
  -32.5150  -22.2950   18.5570 C   0  0  0  0  0  1  0  0  0  0  0  0
  -31.9580  -19.4480   19.0280 C   0  0  0  0  0  1  0  0  0  0  0  0
  -29.2670  -18.5640   20.3670 C   0  0  0  0  0  3  0  0  0  0  0  0
  -30.2910  -17.3050   20.4650 C   0  0  0  0  0  3  0  0  0  0  0  0
  -30.5640  -14.7270   20.4140 C   0  0  0  0  0  0  0  0  0  0  0  0
  -30.3310  -12.4710   19.3780 C   0  0  0  0  0  2  0  0  0  0  0  0
  -29.4080  -12.5990   18.1460 C   0  0  0  0  0  2  0  0  0  0  0  0
  -27.9290  -12.4520   18.5560 C   0  0  0  0  0  2  0  0  0  0  0  0
  -27.5640  -13.3110   19.7960 C   0  0  0  0  0  3  0  0  0  0  0  0
  -28.6110  -13.1840   20.9220 C   0  0  0  0  0  2  0  0  0  0  0  0
  -29.9180  -13.5160   20.3420 N   0  0  0  0  0  0  0  0  0  0  0  0
  -31.7460  -14.8180   20.0750 O   0  0  0  0  0  0  0  0  0  0  0  0
  -29.8180  -15.8670   20.6510 N   0  0  0  0  0  0  0  0  0  0  0  0
  -28.8530  -15.7280   20.9070 H   0  0  0  0  0  0  0  0  0  0  0  0
  -25.1700  -13.9020   20.4980 C   0  0  0  0  0  0  0  0  0  0  0  0
  -24.1030  -13.1310   20.8640 C   0  0  0  0  0  0  0  0  0  0  0  0
  -24.5680  -11.7800   20.8470 C   0  0  0  0  0  0  0  0  0  0  0  0
  -26.2170  -13.0240   20.2760 N   0  0  0  0  0  0  0  0  0  0  0  0
  -25.8600  -11.7410   20.5470 N   0  0  0  0  0  0  0  0  0  0  0  0
  -23.8400  -10.5190   21.0410 C   0  0  0  0  0  0  0  0  0  0  0  0
  -24.2710   -9.5530   21.9760 C   0  0  0  0  0  3  0  0  0  0  0  0
  -23.5430   -8.3570   22.1570 C   0  0  0  0  0  3  0  0  0  0  0  0
  -22.3710   -8.1190   21.4010 C   0  0  0  0  0  0  0  0  0  0  0  0
  -21.9600   -9.0740   20.4530 C   0  0  0  0  0  3  0  0  0  0  0  0
  -22.6890  -10.2610   20.2720 C   0  0  0  0  0  3  0  0  0  0  0  0
  -21.6130   -6.9760   21.4900 O   0  0  0  0  0  0  0  0  0  0  0  0
  -21.5670   -6.2310   22.6410 C   0  0  0  0  0  0  0  0  0  0  0  0
  -21.1490   -6.7840   23.8710 C   0  0  0  0  0  3  0  0  0  0  0  0
  -21.0500   -5.9660   25.0130 C   0  0  0  0  0  3  0  0  0  0  0  0
  -21.3590   -4.5940   24.9270 C   0  0  0  0  0  0  0  0  0  0  0  0
  -21.7700   -4.0410   23.7020 C   0  0  0  0  0  3  0  0  0  0  0  0
  -21.8700   -4.8560   22.5610 C   0  0  0  0  0  0  0  0  0  0  0  0
  -22.2460   -4.3130   21.3780 F   0  0  0  0  0  0  0  0  0  0  0  0
  -21.2590   -3.8050   26.0230 F   0  0  0  0  0  0  0  0  0  0  0  0
  -22.7060  -13.6100   21.1270 C   0  0  0  0  0  0  0  0  0  0  0  0
  -21.9700  -12.9130   21.9840 N   0  0  0  0  0  0  0  0  0  0  0  0
  -22.2750  -14.6380   20.6060 O   0  0  0  0  0  0  0  0  0  0  0  0
  -22.3330  -12.0840   22.4330 H   0  0  0  0  0  0  0  0  0  0  0  0
  -21.0310  -13.2140   22.1990 H   0  0  0  0  0  0  0  0  0  0  0  0
  -25.3340  -15.2740   20.3150 N   0  0  0  0  0  0  0  0  0  0  0  0
  -24.5610  -15.9240   20.4180 H   0  0  0  0  0  0  0  0  0  0  0  0
  -26.1910  -15.7220   20.0210 H   0  0  0  0  0  0  0  0  0  0  0  0
  -28.0180  -23.8100   20.1870 C   0  0  0  0  0  3  0  0  0  0  0  0
  -25.7360  -22.7290   19.6350 C   0  0  0  0  0  1  0  0  0  0  0  0
  -26.6260  -23.3810   20.7070 C   0  0  0  0  0  2  0  0  0  0  0  0
  -28.4610  -25.2100   20.8620 C   0  0  0  0  0  2  0  0  0  0  0  0
  -28.3830  -26.5290   20.1740 O   0  0  0  0  0  0  0  0  0  0  0  0
  -24.5940  -31.8930   23.2440 C   0  0  0  0  0  0  0  0  0  0  0  0
  -27.2380  -27.3360   20.2240 C   0  0  0  0  0  0  0  0  0  0  0  0
  -23.4000  -30.4860   21.5990 C   0  0  0  0  0  3  0  0  0  0  0  0
  -24.8630  -28.9310   20.1860 C   0  0  0  0  0  0  0  0  0  0  0  0
  -25.9330  -30.8210   21.4140 C   0  0  0  0  0  2  0  0  0  0  0  0
  -26.0260  -29.4360   20.7830 C   0  0  0  0  0  0  0  0  0  0  0  0
  -27.2190  -28.6520   20.7860 C   0  0  0  0  0  3  0  0  0  0  0  0
  -26.0570  -26.8800   19.6100 C   0  0  0  0  0  3  0  0  0  0  0  0
  -24.8800  -27.6590   19.5890 C   0  0  0  0  0  3  0  0  0  0  0  0
  -23.6200  -29.7990   20.2250 C   0  0  0  0  0  2  0  0  0  0  0  0
  -24.6610  -31.0870   22.1430 N   0  0  0  0  0  0  0  0  0  0  0  0
  -23.5090  -32.1650   23.7800 O   0  0  0  0  0  0  0  0  0  0  0  0
  -22.7400  -29.4710   22.5640 C   0  0  0  0  0  0  0  0  0  0  0  0
  -21.4150  -29.2920   22.4380 N   0  0  0  0  0  0  0  0  0  0  0  0
  -23.4190  -28.8450   23.3810 O   0  0  0  0  0  0  0  0  0  0  0  0
  -20.9260  -29.8440   21.7480 H   0  0  0  0  0  0  0  0  0  0  0  0
  -18.0380  -28.0950   22.9450 C   0  0  0  0  0  0  0  0  0  0  0  0
  -20.5980  -28.3540   23.2080 C   0  0  0  0  0  3  0  0  0  0  0  0
  -20.6970  -26.9230   22.6270 C   0  0  0  0  0  2  0  0  0  0  0  0
  -19.5930  -26.6070   21.6140 C   0  0  0  0  0  2  0  0  0  0  0  0
  -18.2120  -26.7490   22.2620 C   0  0  0  0  0  2  0  0  0  0  0  0
  -19.1600  -28.8560   23.3740 C   0  0  0  0  0  0  0  0  0  0  0  0
  -18.9430  -30.1160   23.9720 C   0  0  0  0  0  3  0  0  0  0  0  0
  -17.6390  -30.6170   24.1450 C   0  0  0  0  0  3  0  0  0  0  0  0
  -16.5330  -29.8550   23.7330 C   0  0  0  0  0  3  0  0  0  0  0  0
  -16.7330  -28.5950   23.1400 C   0  0  0  0  0  3  0  0  0  0  0  0
  -25.8730  -32.5310   23.8690 C   0  0  0  0  0  3  0  0  0  0  0  0
  -25.5610  -33.9310   24.1910 N   0  0  0  0  0  0  0  0  0  0  0  0
  -25.8980  -34.9810   23.4300 C   0  0  0  0  0  0  0  0  0  0  0  0
  -26.5740  -34.8730   22.4030 O   0  0  0  0  0  0  0  0  0  0  0  0
  -24.9630  -34.0900   24.9880 H   0  0  0  0  0  0  0  0  0  0  0  0
  -24.1710  -36.7720   23.0560 C   0  0  0  0  0  1  0  0  0  0  0  0
  -25.4080  -36.3720   23.8760 C   0  0  0  0  0  3  0  0  0  0  0  0
  -27.5390  -37.2620   24.7130 C   0  0  0  0  0  1  0  0  0  0  0  0
  -26.4410  -37.4240   23.7620 N   0  0  0  0  0  0  0  0  0  0  0  0
  -26.0330  -38.3450   23.9040 H   0  0  0  0  0  0  0  0  0  0  0  0
  -26.3860  -31.7680   25.1520 C   0  0  1  0  0  0  0  0  0  0  0  0
  -25.2900  -31.5340   26.2170 C   0  0  0  0  0  1  0  0  0  0  0  0
  -26.9730  -30.3870   24.7730 C   0  0  0  0  0  1  0  0  0  0  0  0
  -27.5360  -32.5660   25.8130 C   0  0  0  0  0  1  0  0  0  0  0  0
  1  3  1  0
  3 49  1  0
  3  2  2  0
  4  6  1  0
  4  1  2  0
  5  9  1  0
  5  2  1  0
  6  5  2  0
  7  4  1  0
  8  6  1  0
  9 10  2  0
 10 19  1  0
 11 19  1  0
 12 17  1  0
 13 14  1  0
 13 12  1  0
 15 14  1  0
 15 24  1  0
 15 16  1  0
 17 11  1  0
 17 16  1  0
 18 11  2  0
 19 20  1  0
 21 22  2  0
 22 41  1  0
 23 22  1  0
 23 26  1  0
 24 21  1  0
 24 25  1  0
 25 23  2  0
 26 27  1  0
 27 28  2  0
 29 32  1  0
 29 28  1  0
 30 29  2  0
 31 30  1  0
 31 26  2  0
 32 33  1  0
 33 34  1  0
 34 35  2  0
 36 35  1  0
 36 40  1  0
 37 36  2  0
 38 33  2  0
 38 37  1  0
 39 38  1  0
 41 42  1  0
 42 45  1  0
 42 44  1  0
 43 41  2  0
 46 47  1  0
 46 21  1  0
 48 46  1  0
 49 51  1  0
 49 52  1  0
 50 51  1  0
 53 55  1  0
 53 52  1  0
 54 65  2  0
 55 60  1  0
 56 64  1  0
 56 66  1  0
 57 63  1  0
 57 59  1  0
 58 64  1  0
 59 60  2  0
 59 58  1  0
 61 55  2  0
 62 61  1  0
 62 57  2  0
 63 56  1  0
 64 54  1  0
 66 68  2  0
 67 66  1  0
 69 67  1  0
 70 79  2  0
 70 75  1  0
 71 67  1  0
 71 75  1  0
 72 71  1  0
 73 74  1  0
 73 72  1  0
 74 70  1  0
 75 76  2  0
 76 77  1  0
 78 77  2  0
 79 78  1  0
 80 54  1  0
 80 81  1  0
 80 90  1  0
 81 84  1  0
 82 86  1  0
 82 81  1  0
 83 82  2  0
 86 85  1  0
 88 86  1  0
 88 89  1  0
 88 87  1  0
 90 93  1  1
 90 91  1  0
 92 90  1  0
M  ISO  4  11 100  19 100  52 101  53 101
M  END
>  <TORSDO>  (37) 
F 21

>  <SCORE>  (37) 
-13.533

>  <name>  (37) 
37

>  <ligand_id>  (37) 
37

>  <original_smiles>  (37) 
[H]c1c([H])c([H])c2c(c1[H])C([H])([H])C([H])([H])C([H])([H])C2([H])N([H])C(=O)C1([H])N(C(=O)C([H])(N([H])C(=O)C([H])(N([H])C([H])([H])[H])C([H])([H])[H])C(C([H])([H])[H])(C([H])([H])[H])C([H])([H])[H])C([H])([H])c2c([H])c(OC([H])([H])C([H])(c3c([H])c(C([H])([H])[H])c(C([H])([H])[H])c(C([H])([H])C([H])([H])N([H])C(=O)N4C([H])([H])C([H])([H])C([H])([H])C([H])(n5nc(-c6c([H])c([H])c(Oc7c([H])c([H])c(F)c([H])c7F)c([H])c6[H])c(C(=O)N([H])[H])c5N([H])[H])C4([H])[H])c3[H])C([H])([H])C([H])([H])[H])c([H])c([H])c2C1([H])[H]

>  <smiles>  (37) 
[H]c1c([H])c([H])c2c(c1[H])C([H])([H])C([H])([H])C([H])([H])C2([H])N([H])C(=O)C1([H])N(C(=O)C([H])(N([H])C(=O)C([H])(N([H])C([H])([H])[H])C([H])([H])[H])C(C([H])([H])[H])(C([H])([H])[H])C([H])([H])[H])C([H])([H])c2c([H])c(OC([H])([H])C([H])(c3c([H])c(C([H])([H])[H])c(C([H])([H])[H])c(C([H])([H])C([H])([H])N([H])C(=O)N4C([H])([H])C([H])([H])C([H])([H])C([H])(n5nc(-c6c([H])c([H])c(Oc7c([H])c([H])c(F)c([H])c7F)c([H])c6[H])c(C(=O)N([H])[H])c5N([H])[H])C4([H])[H])c3[H])C([H])([H])C([H])([H])[H])c([H])c([H])c2C1([H])[H]

$$$$
38:0:0
     RDKit          3D

 98106  0  0  1  0  0  0  0  0999 V2000
  -27.8150  -20.9340   19.8230 C   0  0  0  0  0  3  0  0  0  0  0  0
  -28.3230  -18.3350   19.2500 C   0  0  0  0  0  3  0  0  0  0  0  0
  -29.0140  -20.4290   20.3640 C   0  0  0  0  0  0  0  0  0  0  0  0
  -29.3150  -18.9550   20.0520 C   0  0  0  0  0  0  0  0  0  0  0  0
  -26.9540  -20.1680   19.0410 C   0  0  0  0  0  0  0  0  0  0  0  0
  -27.2050  -18.8890   18.7490 N   0  0  0  0  0  0  0  0  0  0  0  0
  -29.6570  -21.6560   21.2320 C   0  0  0  0  0  2  0  0  0  0  0  0
  -29.6250  -23.3290   20.8240 C   0  0  0  0  0  3  0  0  0  0  0  0
  -28.6840  -24.6410   21.3530 C   0  0  0  0  0  3  0  0  0  0  0  0
  -28.8230  -26.1640   20.9980 O   0  0  0  0  0  0  0  0  0  0  0  0
  -24.8370  -31.9450   23.3670 C   0  0  0  0  0  0  0  0  0  0  0  0
  -27.7210  -27.0910   20.8700 C   0  0  0  0  0  0  0  0  0  0  0  0
  -23.7830  -30.4110   21.7480 C   0  0  0  0  0  3  0  0  0  0  0  0
  -25.3620  -28.7690   20.5510 C   0  0  0  0  0  0  0  0  0  0  0  0
  -26.3360  -30.7310   21.7380 C   0  0  0  0  0  2  0  0  0  0  0  0
  -26.4870  -29.2930   21.1980 C   0  0  0  0  0  0  0  0  0  0  0  0
  -27.6710  -28.4720   21.3310 C   0  0  0  0  0  3  0  0  0  0  0  0
  -26.5670  -26.6620   20.1830 C   0  0  0  0  0  3  0  0  0  0  0  0
  -25.4140  -27.4660   20.0270 C   0  0  0  0  0  3  0  0  0  0  0  0
  -24.1170  -29.6390   20.4420 C   0  0  0  0  0  2  0  0  0  0  0  0
  -25.0020  -31.0550   22.3390 N   0  0  0  0  0  0  0  0  0  0  0  0
  -23.7100  -32.2360   23.7990 O   0  0  0  0  0  0  0  0  0  0  0  0
  -23.0590  -29.4580   22.7310 C   0  0  0  0  0  0  0  0  0  0  0  0
  -21.7470  -29.2410   22.5250 N   0  0  0  0  0  0  0  0  0  0  0  0
  -23.6830  -28.9090   23.6430 O   0  0  0  0  0  0  0  0  0  0  0  0
  -21.2980  -29.7390   21.7700 H   0  0  0  0  0  0  0  0  0  0  0  0
  -18.3440  -28.0740   22.9530 C   0  0  0  0  0  0  0  0  0  0  0  0
  -20.8940  -28.3350   23.3010 C   0  0  0  0  0  3  0  0  0  0  0  0
  -21.0060  -26.8820   22.7840 C   0  0  0  0  0  2  0  0  0  0  0  0
  -19.9390  -26.5260   21.7440 C   0  0  0  0  0  2  0  0  0  0  0  0
  -18.5370  -26.7010   22.3330 C   0  0  0  0  0  2  0  0  0  0  0  0
  -19.4510  -28.8480   23.3950 C   0  0  0  0  0  0  0  0  0  0  0  0
  -19.2160  -30.1300   23.9340 C   0  0  0  0  0  3  0  0  0  0  0  0
  -17.9070  -30.6400   24.0390 C   0  0  0  0  0  3  0  0  0  0  0  0
  -16.8160  -29.8640   23.6140 C   0  0  0  0  0  3  0  0  0  0  0  0
  -17.0350  -28.5820   23.0760 C   0  0  0  0  0  3  0  0  0  0  0  0
  -26.0530  -32.6560   24.0370 C   0  0  0  0  0  3  0  0  0  0  0  0
  -26.5280  -31.9530   25.3680 C   0  0  1  0  0  0  0  0  0  0  0  0
  -25.3730  -31.6120   26.3390 C   0  0  0  0  0  1  0  0  0  0  0  0
  -27.2810  -30.6400   25.0540 C   0  0  0  0  0  1  0  0  0  0  0  0
  -27.5280  -32.8650   26.1160 C   0  0  0  0  0  1  0  0  0  0  0  0
  -25.6680  -34.0510   24.3050 N   0  0  0  0  0  0  0  0  0  0  0  0
  -25.9740  -35.0940   23.5210 C   0  0  0  0  0  0  0  0  0  0  0  0
  -26.6780  -34.9860   22.5140 O   0  0  0  0  0  0  0  0  0  0  0  0
  -25.0440  -34.2060   25.0840 H   0  0  0  0  0  0  0  0  0  0  0  0
  -24.1770  -36.7960   23.0690 C   0  0  0  0  0  1  0  0  0  0  0  0
  -25.4160  -36.4750   23.9190 C   0  0  0  0  0  3  0  0  0  0  0  0
  -27.5080  -37.4670   24.7380 C   0  0  0  0  0  1  0  0  0  0  0  0
  -26.4030  -37.5690   23.7890 N   0  0  0  0  0  0  0  0  0  0  0  0
  -25.9570  -38.4740   23.9200 H   0  0  0  0  0  0  0  0  0  0  0  0
  -25.7070  -20.8010   18.4520 C   0  0  0  0  0  2  0  0  0  0  0  0
  -26.0360  -22.0550   17.6180 C   0  0  0  0  0  2  0  0  0  0  0  0
  -25.8140  -24.5810   17.5110 C   0  0  0  0  0  1  0  0  0  0  0  0
  -23.7470  -23.1320   17.2850 C   0  0  0  0  0  1  0  0  0  0  0  0
  -25.1360  -23.2660   17.9280 C   0  0  0  0  0  3  0  0  0  0  0  0
  -30.5230  -17.8530   20.3770 C   0  0  0  0  0  3  0  0  0  0  0  0
  -30.9550  -15.0230   20.3140 C   0  0  0  0  0  0  0  0  0  0  0  0
  -30.6950  -12.7010   19.2990 C   0  0  0  0  0  2  0  0  0  0  0  0
  -29.7760  -12.7420   18.0560 C   0  0  0  0  0  2  0  0  0  0  0  0
  -28.2990  -12.5970   18.4690 C   0  0  0  0  0  2  0  0  0  0  0  0
  -27.9370  -13.5030   19.6750 C   0  0  0  0  0  3  0  0  0  0  0  0
  -28.9840  -13.4430   20.8080 C   0  0  0  0  0  2  0  0  0  0  0  0
  -30.2790  -13.8040   20.2160 N   0  0  0  0  0  0  0  0  0  0  0  0
  -32.1620  -14.9880   20.0610 O   0  0  0  0  0  0  0  0  0  0  0  0
  -30.2450  -16.2620   20.4890 N   0  0  0  0  0  0  0  0  0  0  0  0
  -29.2750  -16.0600   20.6720 H   0  0  0  0  0  0  0  0  0  0  0  0
  -25.5820  -14.1890   20.3940 C   0  0  0  0  0  0  0  0  0  0  0  0
  -24.4790  -13.4660   20.7550 C   0  0  0  0  0  0  0  0  0  0  0  0
  -24.8770  -12.0960   20.7220 C   0  0  0  0  0  0  0  0  0  0  0  0
  -26.5830  -13.2640   20.1600 N   0  0  0  0  0  0  0  0  0  0  0  0
  -26.1690  -11.9970   20.4250 N   0  0  0  0  0  0  0  0  0  0  0  0
  -24.0870  -10.8710   20.9010 C   0  0  0  0  0  0  0  0  0  0  0  0
  -24.4890   -9.8600   21.8010 C   0  0  0  0  0  3  0  0  0  0  0  0
  -23.7030   -8.7000   21.9720 C   0  0  0  0  0  3  0  0  0  0  0  0
  -22.5000   -8.5430   21.2440 C   0  0  0  0  0  0  0  0  0  0  0  0
  -22.1160   -9.5420   20.3330 C   0  0  0  0  0  3  0  0  0  0  0  0
  -22.9000  -10.6950   20.1600 C   0  0  0  0  0  3  0  0  0  0  0  0
  -21.6860   -7.4390   21.3240 O   0  0  0  0  0  0  0  0  0  0  0  0
  -21.6740   -6.6340   22.4340 C   0  0  0  0  0  0  0  0  0  0  0  0
  -21.4040   -7.1460   23.7220 C   0  0  0  0  0  3  0  0  0  0  0  0
  -21.3320   -6.2720   24.8260 C   0  0  0  0  0  3  0  0  0  0  0  0
  -21.5200   -4.8890   24.6430 C   0  0  0  0  0  0  0  0  0  0  0  0
  -21.7820   -4.3770   23.3610 C   0  0  0  0  0  3  0  0  0  0  0  0
  -21.8560   -5.2480   22.2590 C   0  0  0  0  0  0  0  0  0  0  0  0
  -22.0870   -4.7480   21.0210 F   0  0  0  0  0  0  0  0  0  0  0  0
  -21.4420   -4.0490   25.7010 F   0  0  0  0  0  0  0  0  0  0  0  0
  -23.1050  -14.0120   21.0110 C   0  0  0  0  0  0  0  0  0  0  0  0
  -22.3500  -13.3730   21.8970 N   0  0  0  0  0  0  0  0  0  0  0  0
  -22.7100  -15.0370   20.4570 O   0  0  0  0  0  0  0  0  0  0  0  0
  -22.6830  -12.5430   22.3640 H   0  0  0  0  0  0  0  0  0  0  0  0
  -21.4270  -13.7190   22.1160 H   0  0  0  0  0  0  0  0  0  0  0  0
  -25.8080  -15.5500   20.2180 N   0  0  0  0  0  0  0  0  0  0  0  0
  -25.0740  -16.2400   20.3400 H   0  0  0  0  0  0  0  0  0  0  0  0
  -26.6560  -15.9490   19.8410 H   0  0  0  0  0  0  0  0  0  0  0  0
  -31.6380  -18.0850   19.3270 C   0  0  0  0  0  2  0  0  0  0  0  0
  -33.5320  -19.3980   20.4510 C   0  0  0  0  0  1  0  0  0  0  0  0
  -34.0650  -17.6110   18.7480 C   0  0  0  0  0  1  0  0  0  0  0  0
  -33.0920  -18.0500   19.8540 C   0  0  0  0  0  3  0  0  0  0  0  0
  1  3  1  0
  2  4  1  0
  3  7  1  0
  4  3  2  0
  4 56  1  0
  5  1  2  0
  6  5  1  0
  6  2  2  0
  8  7  1  0
  8  9  2  0
 10  9  1  0
 11 22  2  0
 12 10  1  0
 12 17  1  0
 13 21  1  0
 13 23  1  0
 14 16  1  0
 15 21  1  0
 16 17  2  0
 16 15  1  0
 18 12  2  0
 19 18  1  0
 19 14  2  0
 20 14  1  0
 20 13  1  0
 21 11  1  0
 23 25  2  0
 24 23  1  0
 26 24  1  0
 27 36  2  0
 27 32  1  0
 28 24  1  0
 28 32  1  0
 29 28  1  0
 30 31  1  0
 30 29  1  0
 31 27  1  0
 32 33  2  0
 33 34  1  0
 35 34  2  0
 36 35  1  0
 37 11  1  0
 37 42  1  0
 37 38  1  0
 38 41  1  1
 38 39  1  0
 40 38  1  0
 42 45  1  0
 43 47  1  0
 43 42  1  0
 44 43  2  0
 47 46  1  0
 49 47  1  0
 49 50  1  0
 49 48  1  0
 51  5  1  0
 52 55  1  0
 52 51  1  0
 53 55  1  0
 54 55  1  0
 56 95  1  0
 56 65  1  0
 57 65  1  0
 58 63  1  0
 59 60  1  0
 59 58  1  0
 61 60  1  0
 61 70  1  0
 61 62  1  0
 63 57  1  0
 63 62  1  0
 64 57  2  0
 65 66  1  0
 67 68  2  0
 68 87  1  0
 69 68  1  0
 69 72  1  0
 70 67  1  0
 70 71  1  0
 71 69  2  0
 72 73  1  0
 73 74  2  0
 75 78  1  0
 75 74  1  0
 76 75  2  0
 77 76  1  0
 77 72  2  0
 78 79  1  0
 79 80  1  0
 80 81  2  0
 82 81  1  0
 82 86  1  0
 83 82  2  0
 84 79  2  0
 84 83  1  0
 85 84  1  0
 87 88  1  0
 88 91  1  0
 88 90  1  0
 89 87  2  0
 92 93  1  0
 92 67  1  0
 94 92  1  0
 95 98  1  0
 97 98  1  0
 98 96  1  0
M  ISO  4   9 101  10 101  57 100  65 100
M  END
>  <TORSDO>  (38) 
F 25

>  <SCORE>  (38) 
-12.922

>  <name>  (38) 
38

>  <ligand_id>  (38) 
38

>  <original_smiles>  (38) 
[H]c1nc(C([H])([H])C([H])([H])C([H])(C([H])([H])[H])C([H])([H])[H])c([H])c(C([H])([H])C([H])([H])C([H])([H])Oc2c([H])c([H])c3c(c2[H])C([H])([H])N(C(=O)C([H])(N([H])C(=O)C([H])(N([H])C([H])([H])[H])C([H])([H])[H])C(C([H])([H])[H])(C([H])([H])[H])C([H])([H])[H])C([H])(C(=O)N([H])C2([H])c4c([H])c([H])c([H])c([H])c4C([H])([H])C([H])([H])C2([H])[H])C3([H])[H])c1C([H])(N([H])C(=O)N1C([H])([H])C([H])([H])C([H])([H])C([H])(n2nc(-c3c([H])c([H])c(Oc4c([H])c([H])c(F)c([H])c4F)c([H])c3[H])c(C(=O)N([H])[H])c2N([H])[H])C1([H])[H])C([H])([H])C([H])(C([H])([H])[H])C([H])([H])[H]

>  <smiles>  (38) 
[H]c1nc(C([H])([H])C([H])([H])C([H])(C([H])([H])[H])C([H])([H])[H])c([H])c(C([H])([H])C([H])([H])C([H])([H])Oc2c([H])c([H])c3c(c2[H])C([H])([H])N(C(=O)C([H])(N([H])C(=O)C([H])(N([H])C([H])([H])[H])C([H])([H])[H])C(C([H])([H])[H])(C([H])([H])[H])C([H])([H])[H])C([H])(C(=O)N([H])C2([H])c4c([H])c([H])c([H])c([H])c4C([H])([H])C([H])([H])C2([H])[H])C3([H])[H])c1C([H])(N([H])C(=O)N1C([H])([H])C([H])([H])C([H])([H])C([H])(n2nc(-c3c([H])c([H])c(Oc4c([H])c([H])c(F)c([H])c4F)c([H])c3[H])c(C(=O)N([H])[H])c2N([H])[H])C1([H])[H])C([H])([H])C([H])(C([H])([H])[H])C([H])([H])[H]

$$$$
39:0:0
     RDKit          3D

 98106  0  0  1  0  0  0  0  0999 V2000
  -29.6150  -21.4700   18.1510 C   0  0  0  0  0  3  0  0  0  0  0  0
  -31.7450  -20.3390   18.0280 C   0  0  0  0  0  3  0  0  0  0  0  0
  -30.6860  -20.9960   17.3760 C   0  0  0  0  0  0  0  0  0  0  0  0
  -29.5050  -21.1530   19.5230 C   0  0  0  0  0  0  0  0  0  0  0  0
  -31.5890  -19.9170   19.3680 C   0  0  0  0  0  0  0  0  0  0  0  0
  -30.3040  -20.0160   19.9780 C   0  0  0  0  0  0  0  0  0  0  0  0
  -30.7150  -21.2580   15.8810 C   0  0  0  0  0  2  0  0  0  0  0  0
  -29.9540  -20.2920   13.6170 C   0  0  0  0  0  1  0  0  0  0  0  0
  -30.0940  -20.0670   15.1260 C   0  0  0  0  0  2  0  0  0  0  0  0
  -28.7270  -22.2400   20.3760 C   0  0  0  0  0  2  0  0  0  0  0  0
  -28.8970  -23.7940   19.9100 C   0  0  0  0  0  3  0  0  0  0  0  0
  -28.1480  -25.0050   20.6500 C   0  0  0  0  0  3  0  0  0  0  0  0
  -28.3290  -26.4200   20.1870 O   0  0  0  0  0  0  0  0  0  0  0  0
  -24.5870  -31.8580   23.2060 C   0  0  0  0  0  0  0  0  0  0  0  0
  -27.2150  -27.2800   20.1700 C   0  0  0  0  0  0  0  0  0  0  0  0
  -23.3940  -30.4540   21.5620 C   0  0  0  0  0  3  0  0  0  0  0  0
  -24.8510  -28.9040   20.1430 C   0  0  0  0  0  0  0  0  0  0  0  0
  -25.9340  -30.7790   21.3880 C   0  0  0  0  0  2  0  0  0  0  0  0
  -26.0190  -29.3960   20.7420 C   0  0  0  0  0  0  0  0  0  0  0  0
  -27.2080  -28.5990   20.7350 C   0  0  0  0  0  3  0  0  0  0  0  0
  -26.0270  -26.8500   19.5440 C   0  0  0  0  0  3  0  0  0  0  0  0
  -24.8600  -27.6410   19.5290 C   0  0  0  0  0  3  0  0  0  0  0  0
  -23.6140  -29.7780   20.1830 C   0  0  0  0  0  2  0  0  0  0  0  0
  -24.6590  -31.0450   22.1080 N   0  0  0  0  0  0  0  0  0  0  0  0
  -23.5010  -32.1350   23.7340 O   0  0  0  0  0  0  0  0  0  0  0  0
  -22.7260  -29.4370   22.5170 C   0  0  0  0  0  0  0  0  0  0  0  0
  -21.3980  -29.2690   22.3930 N   0  0  0  0  0  0  0  0  0  0  0  0
  -23.4030  -28.8040   23.3320 O   0  0  0  0  0  0  0  0  0  0  0  0
  -20.9090  -29.8380   21.7140 H   0  0  0  0  0  0  0  0  0  0  0  0
  -18.0170  -28.0930   22.9120 C   0  0  0  0  0  0  0  0  0  0  0  0
  -20.5780  -28.3320   23.1610 C   0  0  0  0  0  3  0  0  0  0  0  0
  -20.6620  -26.9040   22.5720 C   0  0  0  0  0  2  0  0  0  0  0  0
  -19.5490  -26.5970   21.5650 C   0  0  0  0  0  2  0  0  0  0  0  0
  -18.1750  -26.7480   22.2200 C   0  0  0  0  0  2  0  0  0  0  0  0
  -19.1430  -28.8420   23.3380 C   0  0  0  0  0  0  0  0  0  0  0  0
  -18.9380  -30.1010   23.9430 C   0  0  0  0  0  3  0  0  0  0  0  0
  -17.6390  -30.6120   24.1180 C   0  0  0  0  0  3  0  0  0  0  0  0
  -16.5250  -29.8600   23.7080 C   0  0  0  0  0  3  0  0  0  0  0  0
  -16.7150  -28.6010   23.1130 C   0  0  0  0  0  3  0  0  0  0  0  0
  -25.8650  -32.4940   23.8350 C   0  0  0  0  0  3  0  0  0  0  0  0
  -26.3860  -31.7160   25.1040 C   0  0  1  0  0  0  0  0  0  0  0  0
  -25.2940  -31.4530   26.1700 C   0  0  0  0  0  1  0  0  0  0  0  0
  -26.9850  -30.3490   24.7020 C   0  0  0  0  0  1  0  0  0  0  0  0
  -27.5400  -32.5090   25.7680 C   0  0  0  0  0  1  0  0  0  0  0  0
  -25.5470  -33.8860   24.1810 N   0  0  0  0  0  0  0  0  0  0  0  0
  -25.8690  -34.9480   23.4250 C   0  0  0  0  0  0  0  0  0  0  0  0
  -26.5350  -34.8540   22.3900 O   0  0  0  0  0  0  0  0  0  0  0  0
  -24.9440  -34.0290   24.9790 H   0  0  0  0  0  0  0  0  0  0  0  0
  -24.1300  -36.7360   23.0950 C   0  0  0  0  0  1  0  0  0  0  0  0
  -25.3780  -36.3300   23.8960 C   0  0  0  0  0  3  0  0  0  0  0  0
  -27.5160  -37.2160   24.7230 C   0  0  0  0  0  1  0  0  0  0  0  0
  -26.4090  -37.3880   23.7850 N   0  0  0  0  0  0  0  0  0  0  0  0
  -25.9990  -38.3050   23.9450 H   0  0  0  0  0  0  0  0  0  0  0  0
  -32.8000  -19.3620   20.1270 C   0  0  0  0  0  2  0  0  0  0  0  0
  -35.0940  -20.3900   19.7610 C   0  0  0  0  0  1  0  0  0  0  0  0
  -33.2760  -21.8630   20.6450 C   0  0  0  0  0  1  0  0  0  0  0  0
  -34.2330  -20.0610   22.0900 C   0  0  0  0  0  1  0  0  0  0  0  0
  -33.8310  -20.4210   20.6420 C   0  0  1  0  0  0  0  0  0  0  0  0
  -29.7930  -18.6960   20.7260 C   0  0  0  0  0  3  0  0  0  0  0  0
  -30.2470  -17.2760   20.0530 C   0  0  0  0  0  3  0  0  0  0  0  0
  -30.6200  -14.7290   20.3710 C   0  0  0  0  0  0  0  0  0  0  0  0
  -30.3790  -12.4610   19.3720 C   0  0  0  0  0  2  0  0  0  0  0  0
  -29.4460  -12.5560   18.1450 C   0  0  0  0  0  2  0  0  0  0  0  0
  -27.9900  -12.3500   18.5950 C   0  0  0  0  0  2  0  0  0  0  0  0
  -27.6120  -13.2680   19.7860 C   0  0  0  0  0  3  0  0  0  0  0  0
  -28.6650  -13.1930   20.9160 C   0  0  0  0  0  2  0  0  0  0  0  0
  -29.9700  -13.5190   20.3250 N   0  0  0  0  0  0  0  0  0  0  0  0
  -31.7930  -14.8000   19.9970 O   0  0  0  0  0  0  0  0  0  0  0  0
  -29.8920  -15.8900   20.5930 N   0  0  0  0  0  0  0  0  0  0  0  0
  -28.9500  -15.7640   20.9350 H   0  0  0  0  0  0  0  0  0  0  0  0
  -25.2250  -13.8770   20.5010 C   0  0  0  0  0  0  0  0  0  0  0  0
  -24.1550  -13.1070   20.8730 C   0  0  0  0  0  0  0  0  0  0  0  0
  -24.6140  -11.7550   20.8540 C   0  0  0  0  0  0  0  0  0  0  0  0
  -26.2660  -12.9910   20.2740 N   0  0  0  0  0  0  0  0  0  0  0  0
  -25.9050  -11.7120   20.5500 N   0  0  0  0  0  0  0  0  0  0  0  0
  -23.8840  -10.4950   21.0470 C   0  0  0  0  0  0  0  0  0  0  0  0
  -24.3150   -9.5250   21.9800 C   0  0  0  0  0  3  0  0  0  0  0  0
  -23.5820   -8.3310   22.1600 C   0  0  0  0  0  3  0  0  0  0  0  0
  -22.4090   -8.0970   21.4050 C   0  0  0  0  0  0  0  0  0  0  0  0
  -21.9980   -9.0560   20.4600 C   0  0  0  0  0  3  0  0  0  0  0  0
  -22.7300  -10.2410   20.2780 C   0  0  0  0  0  3  0  0  0  0  0  0
  -21.6510   -6.9540   21.4910 O   0  0  0  0  0  0  0  0  0  0  0  0
  -21.6050   -6.2080   22.6420 C   0  0  0  0  0  0  0  0  0  0  0  0
  -21.1900   -6.7630   23.8720 C   0  0  0  0  0  3  0  0  0  0  0  0
  -21.0910   -5.9450   25.0160 C   0  0  0  0  0  3  0  0  0  0  0  0
  -21.3980   -4.5740   24.9290 C   0  0  0  0  0  0  0  0  0  0  0  0
  -21.8070   -4.0180   23.7030 C   0  0  0  0  0  3  0  0  0  0  0  0
  -21.9070   -4.8340   22.5630 C   0  0  0  0  0  0  0  0  0  0  0  0
  -22.2800   -4.2890   21.3790 F   0  0  0  0  0  0  0  0  0  0  0  0
  -21.2960   -3.7870   26.0250 F   0  0  0  0  0  0  0  0  0  0  0  0
  -22.7580  -13.5900   21.1350 C   0  0  0  0  0  0  0  0  0  0  0  0
  -22.0240  -12.9000   22.0030 N   0  0  0  0  0  0  0  0  0  0  0  0
  -22.3260  -14.6160   20.6090 O   0  0  0  0  0  0  0  0  0  0  0  0
  -22.3850  -12.0680   22.4460 H   0  0  0  0  0  0  0  0  0  0  0  0
  -21.0860  -13.2070   22.2230 H   0  0  0  0  0  0  0  0  0  0  0  0
  -25.3980  -15.2440   20.3140 N   0  0  0  0  0  0  0  0  0  0  0  0
  -24.6360  -15.9070   20.4010 H   0  0  0  0  0  0  0  0  0  0  0  0
  -26.2510  -15.6650   19.9700 H   0  0  0  0  0  0  0  0  0  0  0  0
  1  4  1  0
  2  5  2  0
  3  2  1  0
  3  1  2  0
  4  6  2  0
  4 10  1  0
  5  6  1  0
  5 54  1  0
  6 59  1  0
  7  3  1  0
  8  9  1  0
  9  7  1  0
 11 10  1  0
 11 12  2  0
 13 12  1  0
 14 25  2  0
 15 13  1  0
 15 20  1  0
 16 24  1  0
 16 26  1  0
 17 23  1  0
 17 19  1  0
 18 24  1  0
 19 18  1  0
 20 19  2  0
 21 15  2  0
 22 21  1  0
 22 17  2  0
 23 16  1  0
 24 14  1  0
 26 28  2  0
 27 26  1  0
 29 27  1  0
 30 39  2  0
 30 35  1  0
 31 27  1  0
 31 35  1  0
 32 31  1  0
 33 34  1  0
 33 32  1  0
 34 30  1  0
 35 36  2  0
 36 37  1  0
 38 37  2  0
 39 38  1  0
 40 14  1  0
 40 45  1  0
 40 41  1  0
 41 44  1  1
 41 42  1  0
 43 41  1  0
 45 48  1  0
 46 50  1  0
 46 45  1  0
 47 46  2  0
 50 49  1  0
 52 50  1  0
 52 53  1  0
 52 51  1  0
 54 58  1  0
 58 55  1  6
 58 56  1  0
 58 57  1  0
 60 69  1  0
 60 59  2  0
 61 69  1  0
 62 67  1  0
 63 64  1  0
 63 62  1  0
 65 64  1  0
 65 74  1  0
 65 66  1  0
 67 61  1  0
 67 66  1  0
 68 61  2  0
 69 70  1  0
 71 72  2  0
 72 91  1  0
 73 72  1  0
 73 76  1  0
 74 71  1  0
 74 75  1  0
 75 73  2  0
 76 77  1  0
 77 78  2  0
 79 82  1  0
 79 78  1  0
 80 79  2  0
 81 80  1  0
 81 76  2  0
 82 83  1  0
 83 84  1  0
 84 85  2  0
 86 85  1  0
 86 90  1  0
 87 86  2  0
 88 83  2  0
 88 87  1  0
 89 88  1  0
 91 92  1  0
 92 95  1  0
 92 94  1  0
 93 91  2  0
 96 97  1  0
 96 71  1  0
 98 96  1  0
M  ISO  4  12 101  13 101  61 100  69 100
M  END
>  <TORSDO>  (39) 
F 25

>  <SCORE>  (39) 
-12.388

>  <name>  (39) 
39

>  <ligand_id>  (39) 
39

>  <original_smiles>  (39) 
[H]c1c([H])c([H])c2c(c1[H])C([H])([H])C([H])([H])C([H])([H])C2([H])N([H])C(=O)C1([H])N(C(=O)C([H])(N([H])C(=O)C([H])(N([H])C([H])([H])[H])C([H])([H])[H])C(C([H])([H])[H])(C([H])([H])[H])C([H])([H])[H])C([H])([H])c2c([H])c(OC([H])([H])C([H])([H])C([H])([H])c3c([H])c(C([H])([H])C([H])([H])C([H])([H])[H])c([H])c(C([H])([H])C(C([H])([H])[H])(C([H])([H])[H])C([H])([H])[H])c3C([H])([H])C([H])([H])N([H])C(=O)N3C([H])([H])C([H])([H])C([H])([H])C([H])(n4nc(-c5c([H])c([H])c(Oc6c([H])c([H])c(F)c([H])c6F)c([H])c5[H])c(C(=O)N([H])[H])c4N([H])[H])C3([H])[H])c([H])c([H])c2C1([H])[H]

>  <smiles>  (39) 
[H]c1c([H])c([H])c2c(c1[H])C([H])([H])C([H])([H])C([H])([H])C2([H])N([H])C(=O)C1([H])N(C(=O)C([H])(N([H])C(=O)C([H])(N([H])C([H])([H])[H])C([H])([H])[H])C(C([H])([H])[H])(C([H])([H])[H])C([H])([H])[H])C([H])([H])c2c([H])c(OC([H])([H])C([H])([H])C([H])([H])c3c([H])c(C([H])([H])C([H])([H])C([H])([H])[H])c([H])c(C([H])([H])C(C([H])([H])[H])(C([H])([H])[H])C([H])([H])[H])c3C([H])([H])C([H])([H])N([H])C(=O)N3C([H])([H])C([H])([H])C([H])([H])C([H])(n4nc(-c5c([H])c([H])c(Oc6c([H])c([H])c(F)c([H])c6F)c([H])c5[H])c(C(=O)N([H])[H])c4N([H])[H])C3([H])[H])c([H])c([H])c2C1([H])[H]

$$$$
40:0:0
     RDKit          3D

 96104  0  0  1  0  0  0  0  0999 V2000
  -30.6610  -14.6820   20.3330 C   0  0  0  0  0  0  0  0  0  0  0  0
  -30.3920  -12.3880   19.3840 C   0  0  0  0  0  2  0  0  0  0  0  0
  -29.4790  -12.4790   18.1430 C   0  0  0  0  0  2  0  0  0  0  0  0
  -28.0000  -12.3530   18.5520 C   0  0  0  0  0  2  0  0  0  0  0  0
  -27.6260  -13.2540   19.7610 C   0  0  0  0  0  3  0  0  0  0  0  0
  -28.6750  -13.1690   20.8900 C   0  0  0  0  0  2  0  0  0  0  0  0
  -29.9850  -13.4770   20.3050 N   0  0  0  0  0  0  0  0  0  0  0  0
  -31.8630  -14.6840   20.0540 O   0  0  0  0  0  0  0  0  0  0  0  0
  -29.3500  -18.3740   20.2970 C   0  0  0  0  0  3  0  0  0  0  0  0
  -29.5940  -19.7100   19.7850 C   0  0  0  0  0  0  0  0  0  0  0  0
  -30.7840  -19.8580   19.0300 C   0  0  0  0  0  0  0  0  0  0  0  0
  -31.7160  -18.7890   19.0020 C   0  0  0  0  0  0  0  0  0  0  0  0
  -30.2670  -17.2670   20.1050 C   0  0  0  0  0  0  0  0  0  0  0  0
  -31.0360  -21.1280   18.2140 C   0  0  0  0  0  1  0  0  0  0  0  0
  -31.4480  -17.5660   19.5110 N   0  0  0  0  0  0  0  0  0  0  0  0
  -29.9380  -15.8640   20.4860 N   0  0  0  0  0  0  0  0  0  0  0  0
  -28.9810  -15.7230   20.7630 H   0  0  0  0  0  0  0  0  0  0  0  0
  -25.2350  -13.8760   20.4470 C   0  0  0  0  0  0  0  0  0  0  0  0
  -24.1570  -13.1190   20.8160 C   0  0  0  0  0  0  0  0  0  0  0  0
  -24.6080  -11.7610   20.8160 C   0  0  0  0  0  0  0  0  0  0  0  0
  -26.2730  -12.9820   20.2400 N   0  0  0  0  0  0  0  0  0  0  0  0
  -25.9030  -11.7080   20.5260 N   0  0  0  0  0  0  0  0  0  0  0  0
  -23.8620  -10.5100   21.0140 C   0  0  0  0  0  0  0  0  0  0  0  0
  -24.2730   -9.5460   21.9610 C   0  0  0  0  0  3  0  0  0  0  0  0
  -23.5260   -8.3620   22.1450 C   0  0  0  0  0  3  0  0  0  0  0  0
  -22.3560   -8.1350   21.3840 C   0  0  0  0  0  0  0  0  0  0  0  0
  -21.9630   -9.0870   20.4270 C   0  0  0  0  0  3  0  0  0  0  0  0
  -22.7090  -10.2610   20.2390 C   0  0  0  0  0  3  0  0  0  0  0  0
  -21.5820   -7.0030   21.4810 O   0  0  0  0  0  0  0  0  0  0  0  0
  -21.5270   -6.2640   22.6350 C   0  0  0  0  0  0  0  0  0  0  0  0
  -21.1150   -6.8270   23.8630 C   0  0  0  0  0  3  0  0  0  0  0  0
  -21.0070   -6.0140   25.0090 C   0  0  0  0  0  3  0  0  0  0  0  0
  -21.2990   -4.6390   24.9300 C   0  0  0  0  0  0  0  0  0  0  0  0
  -21.7060   -4.0760   23.7070 C   0  0  0  0  0  3  0  0  0  0  0  0
  -21.8150   -4.8850   22.5620 C   0  0  0  0  0  0  0  0  0  0  0  0
  -22.1850   -4.3340   21.3810 F   0  0  0  0  0  0  0  0  0  0  0  0
  -21.1900   -3.8560   26.0280 F   0  0  0  0  0  0  0  0  0  0  0  0
  -22.7610  -13.6150   21.0580 C   0  0  0  0  0  0  0  0  0  0  0  0
  -22.0110  -12.9470   21.9260 N   0  0  0  0  0  0  0  0  0  0  0  0
  -22.3420  -14.6320   20.5060 O   0  0  0  0  0  0  0  0  0  0  0  0
  -22.3580  -12.1240   22.3950 H   0  0  0  0  0  0  0  0  0  0  0  0
  -21.0740  -13.2650   22.1290 H   0  0  0  0  0  0  0  0  0  0  0  0
  -25.4190  -15.2430   20.2510 N   0  0  0  0  0  0  0  0  0  0  0  0
  -24.6600  -15.9110   20.3460 H   0  0  0  0  0  0  0  0  0  0  0  0
  -26.2700  -15.6570   19.8950 H   0  0  0  0  0  0  0  0  0  0  0  0
  -28.5710  -20.9260   19.8860 C   0  0  0  0  0  2  0  0  0  0  0  0
  -28.9910  -22.3600   20.5110 C   0  0  0  0  0  3  0  0  0  0  0  0
  -28.4030  -23.7410   19.9070 C   0  0  0  0  0  3  0  0  0  0  0  0
  -28.5020  -25.0820   20.7930 C   0  0  0  0  0  2  0  0  0  0  0  0
  -28.5270  -26.4590   20.2340 O   0  0  0  0  0  0  0  0  0  0  0  0
  -24.5670  -31.7540   23.2060 C   0  0  0  0  0  0  0  0  0  0  0  0
  -27.3800  -27.2580   20.2500 C   0  0  0  0  0  0  0  0  0  0  0  0
  -23.4580  -30.3470   21.5090 C   0  0  0  0  0  3  0  0  0  0  0  0
  -24.9920  -28.8260   20.1400 C   0  0  0  0  0  0  0  0  0  0  0  0
  -25.9950  -30.7140   21.4280 C   0  0  0  0  0  2  0  0  0  0  0  0
  -26.1250  -29.3370   20.7860 C   0  0  0  0  0  0  0  0  0  0  0  0
  -27.3250  -28.5660   20.8280 C   0  0  0  0  0  3  0  0  0  0  0  0
  -26.2280  -26.7890   19.5920 C   0  0  0  0  0  3  0  0  0  0  0  0
  -25.0460  -27.5570   19.5340 C   0  0  0  0  0  3  0  0  0  0  0  0
  -23.7390  -29.6790   20.1360 C   0  0  0  0  0  2  0  0  0  0  0  0
  -24.6900  -30.9550   22.1040 N   0  0  0  0  0  0  0  0  0  0  0  0
  -23.4580  -32.0040   23.6980 O   0  0  0  0  0  0  0  0  0  0  0  0
  -22.7680  -29.3150   22.4340 C   0  0  0  0  0  0  0  0  0  0  0  0
  -21.4430  -29.1490   22.2770 N   0  0  0  0  0  0  0  0  0  0  0  0
  -23.4260  -28.6660   23.2500 O   0  0  0  0  0  0  0  0  0  0  0  0
  -20.9690  -29.7250   21.5940 H   0  0  0  0  0  0  0  0  0  0  0  0
  -18.0440  -27.9990   22.7130 C   0  0  0  0  0  0  0  0  0  0  0  0
  -20.6050  -28.2000   23.0110 C   0  0  0  0  0  3  0  0  0  0  0  0
  -20.6880  -26.7870   22.3870 C   0  0  0  0  0  2  0  0  0  0  0  0
  -19.5860  -26.5240   21.3560 C   0  0  0  0  0  2  0  0  0  0  0  0
  -18.2010  -26.6710   21.9920 C   0  0  0  0  0  2  0  0  0  0  0  0
  -19.1730  -28.7230   23.1790 C   0  0  0  0  0  0  0  0  0  0  0  0
  -18.9710  -29.9690   23.8100 C   0  0  0  0  0  3  0  0  0  0  0  0
  -17.6740  -30.4880   23.9830 C   0  0  0  0  0  3  0  0  0  0  0  0
  -16.5590  -29.7580   23.5390 C   0  0  0  0  0  3  0  0  0  0  0  0
  -16.7470  -28.5170   22.9050 C   0  0  0  0  0  3  0  0  0  0  0  0
  -25.8090  -32.4030   23.8880 C   0  0  0  0  0  3  0  0  0  0  0  0
  -25.4680  -33.8010   24.1940 N   0  0  0  0  0  0  0  0  0  0  0  0
  -25.8100  -34.8510   23.4370 C   0  0  0  0  0  0  0  0  0  0  0  0
  -26.5140  -34.7500   22.4280 O   0  0  0  0  0  0  0  0  0  0  0  0
  -24.8500  -33.9560   24.9770 H   0  0  0  0  0  0  0  0  0  0  0  0
  -24.0590  -36.6100   23.0290 C   0  0  0  0  0  1  0  0  0  0  0  0
  -25.2920  -36.2380   23.8680 C   0  0  0  0  0  3  0  0  0  0  0  0
  -27.3920  -37.1700   24.7270 C   0  0  0  0  0  1  0  0  0  0  0  0
  -26.3070  -37.3090   23.7590 N   0  0  0  0  0  0  0  0  0  0  0  0
  -25.8820  -38.2230   23.8900 H   0  0  0  0  0  0  0  0  0  0  0  0
  -26.2660  -31.6430   25.1930 C   0  0  1  0  0  0  0  0  0  0  0  0
  -25.1240  -31.4030   26.2080 C   0  0  0  0  0  1  0  0  0  0  0  0
  -26.8760  -30.2690   24.8370 C   0  0  0  0  0  1  0  0  0  0  0  0
  -27.3770  -32.4500   25.9060 C   0  0  0  0  0  1  0  0  0  0  0  0
  -33.0990  -18.9030   18.3460 C   0  0  0  0  0  2  0  0  0  0  0  0
  -34.1060  -19.9230   18.9450 C   0  0  0  0  0  2  0  0  0  0  0  0
  -34.2320  -19.9760   20.4810 C   0  0  0  0  0  2  0  0  0  0  0  0
  -35.4780  -20.8610   22.5030 C   0  0  0  0  0  1  0  0  0  0  0  0
  -34.9230  -22.4470   20.6450 C   0  0  0  0  0  1  0  0  0  0  0  0
  -35.2830  -20.9890   20.9840 C   0  0  0  0  0  3  0  0  0  0  0  0
  1 16  1  0
  2  7  1  0
  3  4  1  0
  3  2  1  0
  5  4  1  0
  5 21  1  0
  5  6  1  0
  7  1  1  0
  7  6  1  0
  8  1  2  0
 10 46  1  0
 10  9  2  0
 11 10  1  0
 12 11  2  0
 12 15  1  0
 13  9  1  0
 13 16  1  0
 14 11  1  0
 15 13  2  0
 16 17  1  0
 18 19  2  0
 19 20  1  0
 19 38  1  0
 20 23  1  0
 21 18  1  0
 21 22  1  0
 22 20  2  0
 23 24  1  0
 24 25  2  0
 26 29  1  0
 26 25  1  0
 27 26  2  0
 28 27  1  0
 28 23  2  0
 29 30  1  0
 30 31  1  0
 31 32  2  0
 33 32  1  0
 33 37  1  0
 34 33  2  0
 35 30  2  0
 35 34  1  0
 36 35  1  0
 38 39  1  0
 39 42  1  0
 39 41  1  0
 40 38  2  0
 43 44  1  0
 43 18  1  0
 45 43  1  0
 46 47  1  0
 48 47  2  0
 48 49  1  0
 50 52  1  0
 50 49  1  0
 51 62  2  0
 52 57  1  0
 53 61  1  0
 53 63  1  0
 54 56  1  0
 55 61  1  0
 56 57  2  0
 56 55  1  0
 58 52  2  0
 59 58  1  0
 59 54  2  0
 60 54  1  0
 60 53  1  0
 61 51  1  0
 63 65  2  0
 64 63  1  0
 66 64  1  0
 67 76  2  0
 67 72  1  0
 68 64  1  0
 68 72  1  0
 69 68  1  0
 70 71  1  0
 70 69  1  0
 71 67  1  0
 72 73  2  0
 73 74  1  0
 75 74  2  0
 76 75  1  0
 77 51  1  0
 77 78  1  0
 77 87  1  0
 78 81  1  0
 79 83  1  0
 79 78  1  0
 80 79  2  0
 83 82  1  0
 85 83  1  0
 85 86  1  0
 85 84  1  0
 87 90  1  1
 87 88  1  0
 89 87  1  0
 91 92  1  0
 91 12  1  0
 92 93  1  0
 93 96  1  0
 95 96  1  0
 96 94  1  0
M  ISO  4   1 100  16 100  49 101  50 101
M  END
>  <TORSDO>  (40) 
F 23

>  <SCORE>  (40) 
-12.881

>  <name>  (40) 
40

>  <ligand_id>  (40) 
40

>  <original_smiles>  (40) 
[H]c1c([H])c([H])c2c(c1[H])C([H])([H])C([H])([H])C([H])([H])C2([H])N([H])C(=O)C1([H])N(C(=O)C([H])(N([H])C(=O)C([H])(N([H])C([H])([H])[H])C([H])([H])[H])C(C([H])([H])[H])(C([H])([H])[H])C([H])([H])[H])C([H])([H])c2c([H])c(OC([H])([H])C([H])([H])C([H])([H])C([H])([H])c3c([H])c(N([H])C(=O)N4C([H])([H])C([H])([H])C([H])([H])C([H])(n5nc(-c6c([H])c([H])c(Oc7c([H])c([H])c(F)c([H])c7F)c([H])c6[H])c(C(=O)N([H])[H])c5N([H])[H])C4([H])[H])nc(C([H])([H])C([H])([H])C([H])([H])C([H])(C([H])([H])[H])C([H])([H])[H])c3C([H])([H])[H])c([H])c([H])c2C1([H])[H]

>  <smiles>  (40) 
[H]c1c([H])c([H])c2c(c1[H])C([H])([H])C([H])([H])C([H])([H])C2([H])N([H])C(=O)C1([H])N(C(=O)C([H])(N([H])C(=O)C([H])(N([H])C([H])([H])[H])C([H])([H])[H])C(C([H])([H])[H])(C([H])([H])[H])C([H])([H])[H])C([H])([H])c2c([H])c(OC([H])([H])C([H])([H])C([H])([H])C([H])([H])c3c([H])c(N([H])C(=O)N4C([H])([H])C([H])([H])C([H])([H])C([H])(n5nc(-c6c([H])c([H])c(Oc7c([H])c([H])c(F)c([H])c7F)c([H])c6[H])c(C(=O)N([H])[H])c5N([H])[H])C4([H])[H])nc(C([H])([H])C([H])([H])C([H])([H])C([H])(C([H])([H])[H])C([H])([H])[H])c3C([H])([H])[H])c([H])c([H])c2C1([H])[H]

$$$$
41:0:0
     RDKit          3D

 99107  0  0  1  0  0  0  0  0999 V2000
  -29.7840  -21.2350   22.9190 C   0  0  0  0  0  3  0  0  0  0  0  0
  -29.7130  -19.0830   21.8190 C   0  0  0  0  0  3  0  0  0  0  0  0
  -29.4410  -19.8680   22.9520 C   0  0  0  0  0  0  0  0  0  0  0  0
  -30.3710  -21.7590   21.7490 C   0  0  0  0  0  0  0  0  0  0  0  0
  -30.3190  -19.6830   20.7040 C   0  0  0  0  0  0  0  0  0  0  0  0
  -30.6240  -20.9980   20.6640 N   0  0  0  0  0  0  0  0  0  0  0  0
  -30.2540  -19.4750   18.1940 C   0  0  0  0  0  1  0  0  0  0  0  0
  -30.7540  -18.8440   19.5080 C   0  0  0  0  0  3  0  0  0  0  0  0
  -32.8180  -18.0020   18.2070 C   0  0  0  0  0  1  0  0  0  0  0  0
  -32.2860  -18.5820   19.5370 C   0  0  0  0  0  3  0  0  0  0  0  0
  -32.7490  -17.7530   20.7720 C   0  0  0  0  0  2  0  0  0  0  0  0
  -32.6720  -15.3200   20.3440 C   0  0  0  0  0  0  0  0  0  0  0  0
  -32.0740  -13.3240   19.0590 C   0  0  0  0  0  2  0  0  0  0  0  0
  -31.2270  -13.7590   17.8470 C   0  0  0  0  0  2  0  0  0  0  0  0
  -29.7340  -13.8290   18.2240 C   0  0  0  0  0  2  0  0  0  0  0  0
  -29.4760  -14.6190   19.5360 C   0  0  0  0  0  3  0  0  0  0  0  0
  -30.4460  -14.1760   20.6550 C   0  0  0  0  0  2  0  0  0  0  0  0
  -31.8200  -14.2850   20.1400 N   0  0  0  0  0  0  0  0  0  0  0  0
  -33.8320  -15.3320   19.9270 O   0  0  0  0  0  0  0  0  0  0  0  0
  -32.1190  -16.4300   20.8440 N   0  0  0  0  0  0  0  0  0  0  0  0
  -31.1610  -16.3730   21.1570 H   0  0  0  0  0  0  0  0  0  0  0  0
  -27.1430  -15.5120   20.1640 C   0  0  0  0  0  0  0  0  0  0  0  0
  -25.9710  -14.8750   20.4710 C   0  0  0  0  0  0  0  0  0  0  0  0
  -26.2590  -13.4760   20.4200 C   0  0  0  0  0  0  0  0  0  0  0  0
  -28.0780  -14.5110   19.9530 N   0  0  0  0  0  0  0  0  0  0  0  0
  -27.5450  -13.2800   20.1630 N   0  0  0  0  0  0  0  0  0  0  0  0
  -25.3700  -12.3140   20.5480 C   0  0  0  0  0  0  0  0  0  0  0  0
  -25.6310  -11.2820   21.4770 C   0  0  0  0  0  3  0  0  0  0  0  0
  -24.7540  -10.1840   21.5930 C   0  0  0  0  0  3  0  0  0  0  0  0
  -23.5980  -10.1090   20.7780 C   0  0  0  0  0  0  0  0  0  0  0  0
  -23.3550  -11.1260   19.8390 C   0  0  0  0  0  3  0  0  0  0  0  0
  -24.2340  -12.2160   19.7210 C   0  0  0  0  0  3  0  0  0  0  0  0
  -22.7020   -9.0670   20.8050 O   0  0  0  0  0  0  0  0  0  0  0  0
  -22.4680   -8.3480   21.9490 C   0  0  0  0  0  0  0  0  0  0  0  0
  -21.9990   -8.9600   23.1310 C   0  0  0  0  0  3  0  0  0  0  0  0
  -21.7050   -8.1730   24.2630 C   0  0  0  0  0  3  0  0  0  0  0  0
  -21.8710   -6.7770   24.2120 C   0  0  0  0  0  0  0  0  0  0  0  0
  -22.3310   -6.1640   23.0340 C   0  0  0  0  0  3  0  0  0  0  0  0
  -22.6260   -6.9480   21.9040 C   0  0  0  0  0  0  0  0  0  0  0  0
  -23.0510   -6.3500   20.7650 F   0  0  0  0  0  0  0  0  0  0  0  0
  -21.5810   -6.0190   25.2970 F   0  0  0  0  0  0  0  0  0  0  0  0
  -24.6350  -15.5210   20.7040 C   0  0  0  0  0  0  0  0  0  0  0  0
  -23.7990  -14.9120   21.5370 N   0  0  0  0  0  0  0  0  0  0  0  0
  -24.3450  -16.5960   20.1820 O   0  0  0  0  0  0  0  0  0  0  0  0
  -24.0470  -14.0380   21.9770 H   0  0  0  0  0  0  0  0  0  0  0  0
  -22.8980  -15.3240   21.7360 H   0  0  0  0  0  0  0  0  0  0  0  0
  -27.4880  -16.8540   20.0270 N   0  0  0  0  0  0  0  0  0  0  0  0
  -26.8020  -17.5950   20.1100 H   0  0  0  0  0  0  0  0  0  0  0  0
  -28.3860  -17.1760   19.6960 H   0  0  0  0  0  0  0  0  0  0  0  0
  -30.6690  -23.2430   21.5930 C   0  0  0  0  0  2  0  0  0  0  0  0
  -29.4040  -24.0280   21.2080 C   0  0  0  0  0  2  0  0  0  0  0  0
  -29.6370  -25.3190   20.3980 C   0  0  0  0  0  2  0  0  0  0  0  0
  -28.3530  -26.1600   20.4010 C   0  0  0  0  0  2  0  0  0  0  0  0
  -28.3930  -27.3080   19.5500 O   0  0  0  0  0  0  0  0  0  0  0  0
  -24.5330  -31.8520   23.3850 C   0  0  0  0  0  0  0  0  0  0  0  0
  -27.2150  -28.0060   19.6440 C   0  0  0  0  0  0  0  0  0  0  0  0
  -23.2990  -30.5660   21.6690 C   0  0  0  0  0  3  0  0  0  0  0  0
  -24.7400  -29.3120   19.9800 C   0  0  0  0  0  0  0  0  0  0  0  0
  -25.7740  -31.1270   21.3540 C   0  0  0  0  0  2  0  0  0  0  0  0
  -25.9000  -29.8500   20.5520 C   0  0  0  0  0  0  0  0  0  0  0  0
  -27.1430  -29.2030   20.3850 C   0  0  0  0  0  3  0  0  0  0  0  0
  -26.0440  -27.4830   19.0560 C   0  0  0  0  0  3  0  0  0  0  0  0
  -24.8050  -28.1260   19.2270 C   0  0  0  0  0  3  0  0  0  0  0  0
  -23.4500  -30.0630   20.2080 C   0  0  0  0  0  2  0  0  0  0  0  0
  -24.5570  -31.1890   22.1960 N   0  0  0  0  0  0  0  0  0  0  0  0
  -23.4800  -31.9880   24.0220 O   0  0  0  0  0  0  0  0  0  0  0  0
  -22.7810  -29.4010   22.5420 C   0  0  0  0  0  0  0  0  0  0  0  0
  -21.4870  -29.0730   22.3940 N   0  0  0  0  0  0  0  0  0  0  0  0
  -23.5380  -28.7990   23.3090 O   0  0  0  0  0  0  0  0  0  0  0  0
  -20.9300  -29.6200   21.7530 H   0  0  0  0  0  0  0  0  0  0  0  0
  -18.3200  -27.3560   22.6620 C   0  0  0  0  0  0  0  0  0  0  0  0
  -20.7910  -27.9870   23.0820 C   0  0  0  0  0  3  0  0  0  0  0  0
  -21.1430  -26.6170   22.4580 C   0  0  0  0  0  2  0  0  0  0  0  0
  -20.1520  -26.1780   21.3730 C   0  0  0  0  0  2  0  0  0  0  0  0
  -18.7350  -26.0820   21.9460 C   0  0  0  0  0  2  0  0  0  0  0  0
  -19.2860  -28.2590   23.1800 C   0  0  0  0  0  0  0  0  0  0  0  0
  -18.8480  -29.4470   23.8060 C   0  0  0  0  0  3  0  0  0  0  0  0
  -17.4760  -29.7380   23.9170 C   0  0  0  0  0  3  0  0  0  0  0  0
  -16.5240  -28.8340   23.4160 C   0  0  0  0  0  3  0  0  0  0  0  0
  -16.9450  -27.6450   22.7950 C   0  0  0  0  0  3  0  0  0  0  0  0
  -25.8240  -32.4940   23.9900 C   0  0  0  0  0  3  0  0  0  0  0  0
  -26.3630  -31.7250   25.2580 C   0  0  1  0  0  0  0  0  0  0  0  0
  -25.2870  -31.4890   26.3430 C   0  0  0  0  0  1  0  0  0  0  0  0
  -26.9410  -30.3480   24.8550 C   0  0  0  0  0  1  0  0  0  0  0  0
  -27.5220  -32.5230   25.9020 C   0  0  0  0  0  1  0  0  0  0  0  0
  -25.5090  -33.8900   24.3200 N   0  0  0  0  0  0  0  0  0  0  0  0
  -25.9280  -34.9490   23.6170 C   0  0  0  0  0  0  0  0  0  0  0  0
  -26.6900  -34.8530   22.6500 O   0  0  0  0  0  0  0  0  0  0  0  0
  -24.8490  -34.0400   25.0690 H   0  0  0  0  0  0  0  0  0  0  0  0
  -24.3130  -36.8040   23.0970 C   0  0  0  0  0  1  0  0  0  0  0  0
  -25.4210  -36.3360   24.0550 C   0  0  0  0  0  3  0  0  0  0  0  0
  -27.4440  -37.1230   25.2010 C   0  0  0  0  0  1  0  0  0  0  0  0
  -26.4880  -37.3580   24.1230 N   0  0  0  0  0  0  0  0  0  0  0  0
  -26.0910  -38.2860   24.2480 H   0  0  0  0  0  0  0  0  0  0  0  0
  -28.7920  -19.2330   24.1690 C   0  0  0  0  0  2  0  0  0  0  0  0
  -29.8070  -18.9380   25.2900 C   0  0  0  0  0  2  0  0  0  0  0  0
  -30.2540  -18.0990   27.6400 C   0  0  0  0  0  1  0  0  0  0  0  0
  -28.0230  -19.1700   27.1110 C   0  0  0  0  0  1  0  0  0  0  0  0
  -29.1840  -18.3250   26.5600 C   0  0  0  0  0  3  0  0  0  0  0  0
  1  3  1  0
  2  3  2  0
  3 95  1  0
  4  1  2  0
  5  2  1  0
  6  5  2  0
  6  4  1  0
  8  7  1  0
  8 10  1  0
  8  5  1  0
 10  9  1  0
 10 11  1  0
 11 20  1  0
 12 20  1  0
 13 18  1  0
 14 15  1  0
 14 13  1  0
 16 15  1  0
 16 25  1  0
 16 17  1  0
 18 12  1  0
 18 17  1  0
 19 12  2  0
 20 21  1  0
 22 23  2  0
 23 42  1  0
 24 23  1  0
 24 27  1  0
 25 26  1  0
 25 22  1  0
 26 24  2  0
 27 28  1  0
 28 29  2  0
 30 33  1  0
 30 29  1  0
 31 30  2  0
 32 31  1  0
 32 27  2  0
 33 34  1  0
 34 35  1  0
 35 36  2  0
 37 36  1  0
 37 41  1  0
 38 37  2  0
 39 34  2  0
 39 38  1  0
 40 39  1  0
 42 43  1  0
 43 46  1  0
 43 45  1  0
 44 42  2  0
 47 48  1  0
 47 22  1  0
 49 47  1  0
 50  4  1  0
 51 50  1  0
 52 53  1  0
 52 51  1  0
 54 56  1  0
 54 53  1  0
 55 66  2  0
 56 61  1  0
 57 65  1  0
 57 67  1  0
 58 64  1  0
 58 60  1  0
 59 65  1  0
 60 59  1  0
 61 60  2  0
 62 63  1  0
 62 56  2  0
 63 58  2  0
 64 57  1  0
 65 55  1  0
 67 69  2  0
 68 67  1  0
 70 68  1  0
 71 80  2  0
 71 76  1  0
 72 68  1  0
 72 76  1  0
 73 72  1  0
 74 75  1  0
 74 73  1  0
 75 71  1  0
 76 77  2  0
 77 78  1  0
 79 78  2  0
 80 79  1  0
 81 55  1  0
 81 86  1  0
 81 82  1  0
 82 85  1  1
 82 83  1  0
 84 82  1  0
 86 89  1  0
 87 91  1  0
 87 86  1  0
 88 87  2  0
 91 90  1  0
 91 93  1  0
 93 94  1  0
 93 92  1  0
 95 96  1  0
 96 99  1  0
 99 98  1  0
 99 97  1  0
M  ISO  4  12 100  20 100  53 101  54 101
M  END
>  <TORSDO>  (41) 
F 26

>  <SCORE>  (41) 
8.697

>  <name>  (41) 
41

>  <ligand_id>  (41) 
41

>  <original_smiles>  (41) 
[H]c1c([H])c([H])c2c(c1[H])C([H])([H])C([H])([H])C([H])([H])C2([H])N([H])C(=O)C1([H])N(C(=O)C([H])(N([H])C(=O)C([H])(N([H])C([H])([H])[H])C([H])([H])[H])C(C([H])([H])[H])(C([H])([H])[H])C([H])([H])[H])C([H])([H])c2c([H])c(OC([H])([H])C([H])([H])C([H])([H])C([H])([H])c3nc(C([H])(C([H])([H])[H])C([H])(C([H])([H])[H])C([H])([H])N([H])C(=O)N4C([H])([H])C([H])([H])C([H])([H])C([H])(n5nc(-c6c([H])c([H])c(Oc7c([H])c([H])c(F)c([H])c7F)c([H])c6[H])c(C(=O)N([H])[H])c5N([H])[H])C4([H])[H])c([H])c(C([H])([H])C([H])([H])C([H])(C([H])([H])[H])C([H])([H])[H])c3[H])c([H])c([H])c2C1([H])[H]

>  <smiles>  (41) 
[H]c1c([H])c([H])c2c(c1[H])C([H])([H])C([H])([H])C([H])([H])C2([H])N([H])C(=O)C1([H])N(C(=O)C([H])(N([H])C(=O)C([H])(N([H])C([H])([H])[H])C([H])([H])[H])C(C([H])([H])[H])(C([H])([H])[H])C([H])([H])[H])C([H])([H])c2c([H])c(OC([H])([H])C([H])([H])C([H])([H])C([H])([H])c3nc(C([H])(C([H])([H])[H])C([H])(C([H])([H])[H])C([H])([H])N([H])C(=O)N4C([H])([H])C([H])([H])C([H])([H])C([H])(n5nc(-c6c([H])c([H])c(Oc7c([H])c([H])c(F)c([H])c7F)c([H])c6[H])c(C(=O)N([H])[H])c5N([H])[H])C4([H])[H])c([H])c(C([H])([H])C([H])([H])C([H])(C([H])([H])[H])C([H])([H])[H])c3[H])c([H])c([H])c2C1([H])[H]

$$$$
42:0:0
     RDKit          3D

 98106  0  0  1  0  0  0  0  0999 V2000
  -28.4900  -20.6580   20.4680 C   0  0  0  0  0  3  0  0  0  0  0  0
  -29.5000  -22.1990   18.9310 C   0  0  0  0  0  3  0  0  0  0  0  0
  -28.5570  -21.9850   19.9440 C   0  0  0  0  0  0  0  0  0  0  0  0
  -29.4870  -19.6710   20.1470 C   0  0  0  0  0  0  0  0  0  0  0  0
  -30.5600  -20.1840   19.3680 C   0  0  0  0  0  0  0  0  0  0  0  0
  -30.4570  -21.3110   18.6300 N   0  0  0  0  0  0  0  0  0  0  0  0
  -29.8410  -18.2710   22.1940 C   0  0  0  0  0  1  0  0  0  0  0  0
  -27.9300  -17.7210   20.6990 C   0  0  0  0  0  1  0  0  0  0  0  0
  -29.4060  -18.1960   20.7200 C   0  0  1  0  0  0  0  0  0  0  0  0
  -30.2420  -17.0610   19.9600 C   0  0  0  0  0  2  0  0  0  0  0  0
  -30.6560  -14.5230   19.9170 C   0  0  0  0  0  0  0  0  0  0  0  0
  -30.3550  -12.2660   18.9400 C   0  0  0  0  0  2  0  0  0  0  0  0
  -29.3410  -12.3550   17.7780 C   0  0  0  0  0  2  0  0  0  0  0  0
  -27.9110  -12.1700   18.3100 C   0  0  0  0  0  2  0  0  0  0  0  0
  -27.6010  -13.0940   19.5190 C   0  0  0  0  0  3  0  0  0  0  0  0
  -28.7270  -13.0140   20.5820 C   0  0  0  0  0  2  0  0  0  0  0  0
  -30.0030  -13.3190   19.9140 N   0  0  0  0  0  0  0  0  0  0  0  0
  -31.7690  -14.6530   19.4070 O   0  0  0  0  0  0  0  0  0  0  0  0
  -29.9500  -15.6250   20.3160 N   0  0  0  0  0  0  0  0  0  0  0  0
  -29.0580  -15.4490   20.7420 H   0  0  0  0  0  0  0  0  0  0  0  0
  -25.2710  -13.6880   20.4330 C   0  0  0  0  0  0  0  0  0  0  0  0
  -24.2260  -12.9160   20.8670 C   0  0  0  0  0  0  0  0  0  0  0  0
  -24.6730  -11.5620   20.7790 C   0  0  0  0  0  0  0  0  0  0  0  0
  -26.2880  -12.8080   20.1040 N   0  0  0  0  0  0  0  0  0  0  0  0
  -25.9400  -11.5220   20.3720 N   0  0  0  0  0  0  0  0  0  0  0  0
  -23.9540  -10.2990   20.9980 C   0  0  0  0  0  0  0  0  0  0  0  0
  -24.4130   -9.3410   21.9270 C   0  0  0  0  0  3  0  0  0  0  0  0
  -23.6970   -8.1410   22.1350 C   0  0  0  0  0  3  0  0  0  0  0  0
  -22.5060   -7.8930   21.4150 C   0  0  0  0  0  0  0  0  0  0  0  0
  -22.0640   -8.8400   20.4770 C   0  0  0  0  0  3  0  0  0  0  0  0
  -22.7800  -10.0310   20.2660 C   0  0  0  0  0  3  0  0  0  0  0  0
  -21.7570   -6.7460   21.5370 O   0  0  0  0  0  0  0  0  0  0  0  0
  -21.7080   -6.0410   22.7100 C   0  0  0  0  0  0  0  0  0  0  0  0
  -21.2740   -6.6300   23.9200 C   0  0  0  0  0  3  0  0  0  0  0  0
  -21.1800   -5.8490   25.0880 C   0  0  0  0  0  3  0  0  0  0  0  0
  -21.5000   -4.4790   25.0510 C   0  0  0  0  0  0  0  0  0  0  0  0
  -21.9220   -3.8910   23.8440 C   0  0  0  0  0  3  0  0  0  0  0  0
  -22.0240   -4.6680   22.6800 C   0  0  0  0  0  0  0  0  0  0  0  0
  -22.4160   -4.0900   21.5180 F   0  0  0  0  0  0  0  0  0  0  0  0
  -21.3920   -3.7290   26.1690 F   0  0  0  0  0  0  0  0  0  0  0  0
  -22.8560  -13.3970   21.2430 C   0  0  0  0  0  0  0  0  0  0  0  0
  -22.1920  -12.7040   22.1610 N   0  0  0  0  0  0  0  0  0  0  0  0
  -22.3850  -14.4270   20.7610 O   0  0  0  0  0  0  0  0  0  0  0  0
  -22.5860  -11.8740   22.5760 H   0  0  0  0  0  0  0  0  0  0  0  0
  -21.2750  -13.0080   22.4560 H   0  0  0  0  0  0  0  0  0  0  0  0
  -25.4270  -15.0580   20.2580 N   0  0  0  0  0  0  0  0  0  0  0  0
  -24.6510  -15.7030   20.3700 H   0  0  0  0  0  0  0  0  0  0  0  0
  -26.2250  -15.4720   19.8000 H   0  0  0  0  0  0  0  0  0  0  0  0
  -27.5920  -23.1370   20.3290 C   0  0  0  0  0  2  0  0  0  0  0  0
  -28.1130  -24.3450   21.1900 C   0  0  0  0  0  2  0  0  0  0  0  0
  -29.1330  -25.3720   20.6030 C   0  0  0  0  0  2  0  0  0  0  0  0
  -28.7560  -26.5390   19.8280 O   0  0  0  0  0  0  0  0  0  0  0  0
  -24.7910  -31.5980   23.0600 C   0  0  0  0  0  0  0  0  0  0  0  0
  -27.5570  -27.2060   19.9960 C   0  0  0  0  0  0  0  0  0  0  0  0
  -23.6290  -30.1860   21.3950 C   0  0  0  0  0  3  0  0  0  0  0  0
  -25.1310  -28.6780   19.9790 C   0  0  0  0  0  0  0  0  0  0  0  0
  -26.1490  -30.5970   21.2190 C   0  0  0  0  0  2  0  0  0  0  0  0
  -26.2740  -29.2170   20.5910 C   0  0  0  0  0  0  0  0  0  0  0  0
  -27.4950  -28.4920   20.5890 C   0  0  0  0  0  3  0  0  0  0  0  0
  -26.4000  -26.6840   19.3860 C   0  0  0  0  0  3  0  0  0  0  0  0
  -25.1920  -27.4130   19.3650 C   0  0  0  0  0  3  0  0  0  0  0  0
  -23.8700  -29.5180   20.0120 C   0  0  0  0  0  2  0  0  0  0  0  0
  -24.8740  -30.8120   21.9520 N   0  0  0  0  0  0  0  0  0  0  0  0
  -23.7020  -31.8320   23.6080 O   0  0  0  0  0  0  0  0  0  0  0  0
  -22.9950  -29.1440   22.3380 C   0  0  0  0  0  0  0  0  0  0  0  0
  -21.6700  -28.9480   22.2090 N   0  0  0  0  0  0  0  0  0  0  0  0
  -23.6830  -28.5110   23.1400 O   0  0  0  0  0  0  0  0  0  0  0  0
  -21.1730  -29.4940   21.5180 H   0  0  0  0  0  0  0  0  0  0  0  0
  -18.3030  -27.7320   22.7040 C   0  0  0  0  0  0  0  0  0  0  0  0
  -20.8620  -27.9900   22.9660 C   0  0  0  0  0  3  0  0  0  0  0  0
  -20.9670  -26.5750   22.3520 C   0  0  0  0  0  2  0  0  0  0  0  0
  -19.8600  -26.2780   21.3350 C   0  0  0  0  0  2  0  0  0  0  0  0
  -18.4810  -26.4000   21.9930 C   0  0  0  0  0  2  0  0  0  0  0  0
  -19.4210  -28.4860   23.1430 C   0  0  0  0  0  0  0  0  0  0  0  0
  -19.2040  -29.7340   23.7650 C   0  0  0  0  0  3  0  0  0  0  0  0
  -17.9010  -30.2290   23.9510 C   0  0  0  0  0  3  0  0  0  0  0  0
  -16.7960  -29.4710   23.5320 C   0  0  0  0  0  3  0  0  0  0  0  0
  -16.9970  -28.2230   22.9140 C   0  0  0  0  0  3  0  0  0  0  0  0
  -26.0580  -32.2520   23.6970 C   0  0  0  0  0  3  0  0  0  0  0  0
  -25.7070  -33.6240   24.0820 N   0  0  0  0  0  0  0  0  0  0  0  0
  -25.9880  -34.7140   23.3530 C   0  0  0  0  0  0  0  0  0  0  0  0
  -26.6460  -34.6720   22.3100 O   0  0  0  0  0  0  0  0  0  0  0  0
  -25.1330  -33.7210   24.9080 H   0  0  0  0  0  0  0  0  0  0  0  0
  -24.1900  -36.4460   23.0630 C   0  0  0  0  0  1  0  0  0  0  0  0
  -25.4500  -36.0680   23.8590 C   0  0  0  0  0  3  0  0  0  0  0  0
  -27.5560  -36.9980   24.7090 C   0  0  0  0  0  1  0  0  0  0  0  0
  -26.4410  -37.1640   23.7780 N   0  0  0  0  0  0  0  0  0  0  0  0
  -26.0060  -38.0640   23.9660 H   0  0  0  0  0  0  0  0  0  0  0  0
  -26.6100  -31.4520   24.9380 C   0  0  1  0  0  0  0  0  0  0  0  0
  -25.5390  -31.1370   26.0070 C   0  0  0  0  0  1  0  0  0  0  0  0
  -27.2340  -30.1140   24.4820 C   0  0  0  0  0  1  0  0  0  0  0  0
  -27.7460  -32.2540   25.6140 C   0  0  0  0  0  1  0  0  0  0  0  0
  -32.0240  -19.7820   19.5160 C   0  0  0  0  0  2  0  0  0  0  0  0
  -32.9060  -21.0420   19.8050 C   0  0  0  0  0  2  0  0  0  0  0  0
  -33.7170  -20.5270   22.1650 C   0  0  0  0  0  1  0  0  0  0  0  0
  -34.8410  -22.2920   20.7800 C   0  0  0  0  0  1  0  0  0  0  0  0
  -35.1390  -19.8710   20.1890 C   0  0  0  0  0  1  0  0  0  0  0  0
  -34.1450  -20.9130   20.7300 C   0  0  2  0  0  0  0  0  0  0  0  0
  2  3  1  0
  3 49  1  0
  3  1  2  0
  4  1  1  0
  4  9  1  0
  5 93  1  0
  5  4  2  0
  6  2  2  0
  6  5  1  0
  9  8  1  1
  9  7  1  0
 10 19  1  0
 10  9  1  0
 11 19  1  0
 12 17  1  0
 13 14  1  0
 13 12  1  0
 15 14  1  0
 15 24  1  0
 15 16  1  0
 17 11  1  0
 17 16  1  0
 18 11  2  0
 19 20  1  0
 21 22  2  0
 22 41  1  0
 23 22  1  0
 23 26  1  0
 24 25  1  0
 24 21  1  0
 25 23  2  0
 26 27  1  0
 27 28  2  0
 29 32  1  0
 29 28  1  0
 30 29  2  0
 31 30  1  0
 31 26  2  0
 32 33  1  0
 33 34  1  0
 34 35  2  0
 36 35  1  0
 36 40  1  0
 37 36  2  0
 38 33  2  0
 38 37  1  0
 39 38  1  0
 41 42  1  0
 42 45  1  0
 42 44  1  0
 43 41  2  0
 46 47  1  0
 46 21  1  0
 48 46  1  0
 49 50  1  0
 51 50  1  0
 52 54  1  0
 52 51  1  0
 53 64  2  0
 54 59  1  0
 55 63  1  0
 55 65  1  0
 56 62  1  0
 56 58  1  0
 57 63  1  0
 58 57  1  0
 59 58  2  0
 60 54  2  0
 61 60  1  0
 61 56  2  0
 62 55  1  0
 63 53  1  0
 65 67  2  0
 66 65  1  0
 68 66  1  0
 69 78  2  0
 69 74  1  0
 70 66  1  0
 70 74  1  0
 71 70  1  0
 72 73  1  0
 72 71  1  0
 73 69  1  0
 74 75  2  0
 75 76  1  0
 77 76  2  0
 78 77  1  0
 79 53  1  0
 79 80  1  0
 79 89  1  0
 80 83  1  0
 81 85  1  0
 81 80  1  0
 82 81  2  0
 85 84  1  0
 87 85  1  0
 87 88  1  0
 87 86  1  0
 89 92  1  1
 89 90  1  0
 91 89  1  0
 93 94  1  0
 94 98  1  0
 98 97  1  6
 98 96  1  0
 98 95  1  0
M  ISO  4  11 100  19 100  51 101  52 101
M  END
>  <TORSDO>  (42) 
F 24

>  <SCORE>  (42) 
-11.278

>  <name>  (42) 
42

>  <ligand_id>  (42) 
42

>  <original_smiles>  (42) 
[H]c1nc(C([H])([H])C([H])([H])C(C([H])([H])[H])(C([H])([H])[H])C([H])([H])[H])c(C(C([H])([H])[H])(C([H])([H])[H])C([H])([H])N([H])C(=O)N2C([H])([H])C([H])([H])C([H])([H])C([H])(n3nc(-c4c([H])c([H])c(Oc5c([H])c([H])c(F)c([H])c5F)c([H])c4[H])c(C(=O)N([H])[H])c3N([H])[H])C2([H])[H])c([H])c1C([H])([H])C([H])([H])C([H])([H])Oc1c([H])c([H])c2c(c1[H])C([H])([H])N(C(=O)C([H])(N([H])C(=O)C([H])(N([H])C([H])([H])[H])C([H])([H])[H])C(C([H])([H])[H])(C([H])([H])[H])C([H])([H])[H])C([H])(C(=O)N([H])C1([H])c3c([H])c([H])c([H])c([H])c3C([H])([H])C([H])([H])C1([H])[H])C2([H])[H]

>  <smiles>  (42) 
[H]c1nc(C([H])([H])C([H])([H])C(C([H])([H])[H])(C([H])([H])[H])C([H])([H])[H])c(C(C([H])([H])[H])(C([H])([H])[H])C([H])([H])N([H])C(=O)N2C([H])([H])C([H])([H])C([H])([H])C([H])(n3nc(-c4c([H])c([H])c(Oc5c([H])c([H])c(F)c([H])c5F)c([H])c4[H])c(C(=O)N([H])[H])c3N([H])[H])C2([H])[H])c([H])c1C([H])([H])C([H])([H])C([H])([H])Oc1c([H])c([H])c2c(c1[H])C([H])([H])N(C(=O)C([H])(N([H])C(=O)C([H])(N([H])C([H])([H])[H])C([H])([H])[H])C(C([H])([H])[H])(C([H])([H])[H])C([H])([H])[H])C([H])(C(=O)N([H])C1([H])c3c([H])c([H])c([H])c([H])c3C([H])([H])C([H])([H])C1([H])[H])C2([H])[H]

$$$$
43:0:0
     RDKit          3D

 97105  0  0  1  0  0  0  0  0999 V2000
  -29.7940  -20.6080   20.7880 C   0  0  0  0  0  3  0  0  0  0  0  0
  -28.6700  -21.5740   18.9030 C   0  0  0  0  0  3  0  0  0  0  0  0
  -29.2900  -21.7800   20.1530 C   0  0  0  0  0  0  0  0  0  0  0  0
  -29.7260  -19.3640   20.1050 C   0  0  0  0  0  0  0  0  0  0  0  0
  -28.5950  -20.3580   18.3070 N   0  0  0  0  0  0  0  0  0  0  0  0
  -29.1490  -19.2820   18.8790 N   0  0  0  0  0  0  0  0  0  0  0  0
  -30.0410  -23.2350   22.1450 C   0  0  0  0  0  1  0  0  0  0  0  0
  -29.5230  -23.2120   20.6930 C   0  0  0  0  0  3  0  0  0  0  0  0
  -28.3320  -24.2250   20.5270 C   0  0  0  0  0  2  0  0  0  0  0  0
  -28.5840  -25.4340   19.5720 C   0  0  0  0  0  2  0  0  0  0  0  0
  -28.4380  -26.7330   20.1860 O   0  0  0  0  0  0  0  0  0  0  0  0
  -24.5850  -31.8990   23.2200 C   0  0  0  0  0  0  0  0  0  0  0  0
  -27.2390  -27.4230   20.1640 C   0  0  0  0  0  0  0  0  0  0  0  0
  -23.3820  -30.4900   21.5820 C   0  0  0  0  0  3  0  0  0  0  0  0
  -24.8360  -28.9370   20.1710 C   0  0  0  0  0  0  0  0  0  0  0  0
  -25.9100  -30.8400   21.3890 C   0  0  0  0  0  2  0  0  0  0  0  0
  -25.9940  -29.4640   20.7540 C   0  0  0  0  0  0  0  0  0  0  0  0
  -27.1930  -28.7150   20.7460 C   0  0  0  0  0  3  0  0  0  0  0  0
  -26.0500  -26.9060   19.5950 C   0  0  0  0  0  3  0  0  0  0  0  0
  -24.8600  -27.6560   19.5940 C   0  0  0  0  0  3  0  0  0  0  0  0
  -23.5940  -29.7970   20.2090 C   0  0  0  0  0  2  0  0  0  0  0  0
  -24.6440  -31.0930   22.1210 N   0  0  0  0  0  0  0  0  0  0  0  0
  -23.5030  -32.1740   23.7550 O   0  0  0  0  0  0  0  0  0  0  0  0
  -22.7280  -29.4760   22.5480 C   0  0  0  0  0  0  0  0  0  0  0  0
  -21.4030  -29.2990   22.4250 N   0  0  0  0  0  0  0  0  0  0  0  0
  -23.4110  -28.8480   23.3620 O   0  0  0  0  0  0  0  0  0  0  0  0
  -20.9120  -29.8570   21.7410 H   0  0  0  0  0  0  0  0  0  0  0  0
  -18.0220  -28.1360   22.9440 C   0  0  0  0  0  0  0  0  0  0  0  0
  -20.5840  -28.3640   23.1970 C   0  0  0  0  0  3  0  0  0  0  0  0
  -20.6680  -26.9370   22.6110 C   0  0  0  0  0  2  0  0  0  0  0  0
  -19.5540  -26.6300   21.6060 C   0  0  0  0  0  2  0  0  0  0  0  0
  -18.1790  -26.7870   22.2620 C   0  0  0  0  0  2  0  0  0  0  0  0
  -19.1520  -28.8840   23.3680 C   0  0  0  0  0  0  0  0  0  0  0  0
  -18.9520  -30.1490   23.9650 C   0  0  0  0  0  3  0  0  0  0  0  0
  -17.6540  -30.6620   24.1440 C   0  0  0  0  0  3  0  0  0  0  0  0
  -16.5380  -29.9100   23.7360 C   0  0  0  0  0  3  0  0  0  0  0  0
  -16.7240  -28.6500   23.1430 C   0  0  0  0  0  3  0  0  0  0  0  0
  -25.8700  -32.5320   23.8400 C   0  0  0  0  0  3  0  0  0  0  0  0
  -26.3920  -31.7620   25.1140 C   0  0  1  0  0  0  0  0  0  0  0  0
  -25.3010  -31.5240   26.1860 C   0  0  0  0  0  1  0  0  0  0  0  0
  -26.9780  -30.3860   24.7210 C   0  0  0  0  0  1  0  0  0  0  0  0
  -27.5370  -32.5620   25.7780 C   0  0  0  0  0  1  0  0  0  0  0  0
  -25.5580  -33.9290   24.1680 N   0  0  0  0  0  0  0  0  0  0  0  0
  -25.8930  -34.9830   23.4130 C   0  0  0  0  0  0  0  0  0  0  0  0
  -26.5690  -34.8830   22.3840 O   0  0  0  0  0  0  0  0  0  0  0  0
  -24.9620  -34.0800   24.9680 H   0  0  0  0  0  0  0  0  0  0  0  0
  -24.1690  -36.7780   23.0440 C   0  0  0  0  0  1  0  0  0  0  0  0
  -25.3990  -36.3690   23.8690 C   0  0  0  0  0  3  0  0  0  0  0  0
  -27.5250  -37.2520   24.7300 C   0  0  0  0  0  1  0  0  0  0  0  0
  -26.4330  -37.4220   23.7740 N   0  0  0  0  0  0  0  0  0  0  0  0
  -26.0240  -38.3420   23.9200 H   0  0  0  0  0  0  0  0  0  0  0  0
  -30.4280  -18.0840   20.6420 C   0  0  0  0  0  3  0  0  0  0  0  0
  -31.8800  -17.9700   20.1100 C   0  0  0  0  0  2  0  0  0  0  0  0
  -32.8470  -19.1250   20.4580 C   0  0  0  0  0  2  0  0  0  0  0  0
  -33.7220  -19.5510   19.2630 C   0  0  0  0  0  2  0  0  0  0  0  0
  -34.2520  -21.9300   20.0800 C   0  0  0  0  0  1  0  0  0  0  0  0
  -35.7550  -20.7860   18.4010 C   0  0  0  0  0  1  0  0  0  0  0  0
  -34.8190  -20.5810   19.6030 C   0  0  0  0  0  3  0  0  0  0  0  0
  -29.6020  -16.7850   20.3260 C   0  0  0  0  0  2  0  0  0  0  0  0
  -30.6430  -14.4970   20.4690 C   0  0  0  0  0  0  0  0  0  0  0  0
  -30.3660  -12.3300   19.3310 C   0  0  0  0  0  2  0  0  0  0  0  0
  -29.4330  -12.5570   18.1230 C   0  0  0  0  0  2  0  0  0  0  0  0
  -27.9530  -12.4300   18.5350 C   0  0  0  0  0  2  0  0  0  0  0  0
  -27.6130  -13.2510   19.8080 C   0  0  0  0  0  3  0  0  0  0  0  0
  -28.6590  -12.9990   20.9220 C   0  0  0  0  0  2  0  0  0  0  0  0
  -29.9950  -13.3010   20.3770 N   0  0  0  0  0  0  0  0  0  0  0  0
  -31.7370  -14.6970   19.9370 O   0  0  0  0  0  0  0  0  0  0  0  0
  -29.9290  -15.5050   21.0090 N   0  0  0  0  0  0  0  0  0  0  0  0
  -29.1950  -15.1800   21.6210 H   0  0  0  0  0  0  0  0  0  0  0  0
  -25.2060  -13.8770   20.4780 C   0  0  0  0  0  0  0  0  0  0  0  0
  -24.1300  -13.1140   20.8450 C   0  0  0  0  0  0  0  0  0  0  0  0
  -24.5840  -11.7600   20.8310 C   0  0  0  0  0  0  0  0  0  0  0  0
  -26.2500  -12.9900   20.2690 N   0  0  0  0  0  0  0  0  0  0  0  0
  -25.8770  -11.7120   20.5380 N   0  0  0  0  0  0  0  0  0  0  0  0
  -23.8500  -10.5010   21.0260 C   0  0  0  0  0  0  0  0  0  0  0  0
  -24.2740   -9.5380   21.9680 C   0  0  0  0  0  3  0  0  0  0  0  0
  -23.5430   -8.3440   22.1500 C   0  0  0  0  0  3  0  0  0  0  0  0
  -22.3740   -8.1050   21.3900 C   0  0  0  0  0  0  0  0  0  0  0  0
  -21.9690   -9.0570   20.4390 C   0  0  0  0  0  3  0  0  0  0  0  0
  -22.7010  -10.2430   20.2550 C   0  0  0  0  0  3  0  0  0  0  0  0
  -21.6150   -6.9630   21.4820 O   0  0  0  0  0  0  0  0  0  0  0  0
  -21.5600   -6.2260   22.6370 C   0  0  0  0  0  0  0  0  0  0  0  0
  -21.1310   -6.7870   23.8600 C   0  0  0  0  0  3  0  0  0  0  0  0
  -21.0250   -5.9750   25.0070 C   0  0  0  0  0  3  0  0  0  0  0  0
  -21.3350   -4.6040   24.9320 C   0  0  0  0  0  0  0  0  0  0  0  0
  -21.7530   -4.0430   23.7130 C   0  0  0  0  0  3  0  0  0  0  0  0
  -21.8620   -4.8520   22.5690 C   0  0  0  0  0  0  0  0  0  0  0  0
  -22.2470   -4.3010   21.3920 F   0  0  0  0  0  0  0  0  0  0  0  0
  -21.2240   -3.8220   26.0310 F   0  0  0  0  0  0  0  0  0  0  0  0
  -22.7310  -13.6000   21.0980 C   0  0  0  0  0  0  0  0  0  0  0  0
  -21.9880  -12.9140   21.9600 N   0  0  0  0  0  0  0  0  0  0  0  0
  -22.3050  -14.6220   20.5630 O   0  0  0  0  0  0  0  0  0  0  0  0
  -22.3460  -12.0910   22.4220 H   0  0  0  0  0  0  0  0  0  0  0  0
  -21.0480  -13.2230   22.1630 H   0  0  0  0  0  0  0  0  0  0  0  0
  -25.3850  -15.2440   20.2880 N   0  0  0  0  0  0  0  0  0  0  0  0
  -24.6270  -15.9120   20.3780 H   0  0  0  0  0  0  0  0  0  0  0  0
  -26.2430  -15.6590   19.9460 H   0  0  0  0  0  0  0  0  0  0  0  0
  2  3  2  0
  3  8  1  0
  3  1  1  0
  4 52  1  0
  4  1  2  0
  5  6  2  0
  5  2  1  0
  6  4  1  0
  8  7  1  0
  9  8  1  0
 10 11  1  0
 10  9  1  0
 12 23  2  0
 13 11  1  0
 13 18  1  0
 14 22  1  0
 14 24  1  0
 15 21  1  0
 15 17  1  0
 16 22  1  0
 17 16  1  0
 18 17  2  0
 19 13  2  0
 20 19  1  0
 20 15  2  0
 21 14  1  0
 22 12  1  0
 24 26  2  0
 25 24  1  0
 27 25  1  0
 28 37  2  0
 28 33  1  0
 29 25  1  0
 29 33  1  0
 30 29  1  0
 31 32  1  0
 31 30  1  0
 32 28  1  0
 33 34  2  0
 34 35  1  0
 36 35  2  0
 37 36  1  0
 38 12  1  0
 38 43  1  0
 38 39  1  0
 39 42  1  1
 39 40  1  0
 41 39  1  0
 43 46  1  0
 44 48  1  0
 44 43  1  0
 45 44  2  0
 48 47  1  0
 50 48  1  0
 50 51  1  0
 50 49  1  0
 52 53  1  0
 53 54  1  0
 55 58  1  0
 55 54  1  0
 57 58  1  0
 58 56  1  0
 59 52  1  0
 59 68  1  0
 60 68  1  0
 61 66  1  0
 62 63  1  0
 62 61  1  0
 64 63  1  0
 64 73  1  0
 64 65  1  0
 66 60  1  0
 66 65  1  0
 67 60  2  0
 68 69  1  0
 70 71  2  0
 71 90  1  0
 72 71  1  0
 72 75  1  0
 73 70  1  0
 73 74  1  0
 74 72  2  0
 75 76  1  0
 76 77  2  0
 78 81  1  0
 78 77  1  0
 79 78  2  0
 80 79  1  0
 80 75  2  0
 81 82  1  0
 82 83  1  0
 83 84  2  0
 85 84  1  0
 85 89  1  0
 86 85  2  0
 87 82  2  0
 87 86  1  0
 88 87  1  0
 90 91  1  0
 91 94  1  0
 91 93  1  0
 92 90  2  0
 95 96  1  0
 95 70  1  0
 97 95  1  0
M  ISO  4  10 101  11 101  60 100  68 100
M  END
>  <TORSDO>  (43) 
F 25

>  <SCORE>  (43) 
-12.577

>  <name>  (43) 
43

>  <ligand_id>  (43) 
43

>  <original_smiles>  (43) 
[H]c1nnc(C([H])(C([H])([H])N([H])C(=O)N2C([H])([H])C([H])([H])C([H])([H])C([H])(n3nc(-c4c([H])c([H])c(Oc5c([H])c([H])c(F)c([H])c5F)c([H])c4[H])c(C(=O)N([H])[H])c3N([H])[H])C2([H])[H])C([H])([H])C([H])([H])C([H])([H])C([H])(C([H])([H])[H])C([H])([H])[H])c([H])c1C([H])(C([H])([H])[H])C([H])([H])C([H])([H])Oc1c([H])c([H])c2c(c1[H])C([H])([H])N(C(=O)C([H])(N([H])C(=O)C([H])(N([H])C([H])([H])[H])C([H])([H])[H])C(C([H])([H])[H])(C([H])([H])[H])C([H])([H])[H])C([H])(C(=O)N([H])C1([H])c3c([H])c([H])c([H])c([H])c3C([H])([H])C([H])([H])C1([H])[H])C2([H])[H]

>  <smiles>  (43) 
[H]c1nnc(C([H])(C([H])([H])N([H])C(=O)N2C([H])([H])C([H])([H])C([H])([H])C([H])(n3nc(-c4c([H])c([H])c(Oc5c([H])c([H])c(F)c([H])c5F)c([H])c4[H])c(C(=O)N([H])[H])c3N([H])[H])C2([H])[H])C([H])([H])C([H])([H])C([H])([H])C([H])(C([H])([H])[H])C([H])([H])[H])c([H])c1C([H])(C([H])([H])[H])C([H])([H])C([H])([H])Oc1c([H])c([H])c2c(c1[H])C([H])([H])N(C(=O)C([H])(N([H])C(=O)C([H])(N([H])C([H])([H])[H])C([H])([H])[H])C(C([H])([H])[H])(C([H])([H])[H])C([H])([H])[H])C([H])(C(=O)N([H])C1([H])c3c([H])c([H])c([H])c([H])c3C([H])([H])C([H])([H])C1([H])[H])C2([H])[H]

$$$$
44:0:0
     RDKit          3D

 94102  0  0  1  0  0  0  0  0999 V2000
  -29.8880  -21.1490   20.5130 C   0  0  0  0  0  3  0  0  0  0  0  0
  -29.6220  -22.1800   19.6480 C   0  0  0  0  0  0  0  0  0  0  0  0
  -28.6120  -21.6930   18.7580 C   0  0  0  0  0  0  0  0  0  0  0  0
  -28.4030  -20.3650   19.0330 C   0  0  0  0  0  0  0  0  0  0  0  0
  -27.9200  -22.4810   17.6710 C   0  0  0  0  0  1  0  0  0  0  0  0
  -27.5500  -19.3780   18.2870 C   0  0  0  0  0  1  0  0  0  0  0  0
  -29.1570  -20.0310   20.1530 N   0  0  0  0  0  0  0  0  0  0  0  0
  -31.7890  -23.4060   20.0680 C   0  0  0  0  0  1  0  0  0  0  0  0
  -30.3270  -23.5350   19.6020 C   0  0  0  0  0  3  0  0  0  0  0  0
  -29.6340  -24.6810   20.3830 C   0  0  0  0  0  2  0  0  0  0  0  0
  -28.4520  -25.3830   19.6860 C   0  0  0  0  0  2  0  0  0  0  0  0
  -28.3890  -26.7330   20.1780 O   0  0  0  0  0  0  0  0  0  0  0  0
  -24.5770  -31.8970   23.2370 C   0  0  0  0  0  0  0  0  0  0  0  0
  -27.2000  -27.4330   20.1510 C   0  0  0  0  0  0  0  0  0  0  0  0
  -23.3630  -30.4960   21.6030 C   0  0  0  0  0  3  0  0  0  0  0  0
  -24.8070  -28.9490   20.1800 C   0  0  0  0  0  0  0  0  0  0  0  0
  -25.8910  -30.8440   21.3980 C   0  0  0  0  0  2  0  0  0  0  0  0
  -25.9680  -29.4710   20.7590 C   0  0  0  0  0  0  0  0  0  0  0  0
  -27.1650  -28.7190   20.7440 C   0  0  0  0  0  3  0  0  0  0  0  0
  -26.0150  -26.9270   19.5660 C   0  0  0  0  0  3  0  0  0  0  0  0
  -24.8220  -27.6760   19.5870 C   0  0  0  0  0  3  0  0  0  0  0  0
  -23.5670  -29.8140   20.2260 C   0  0  0  0  0  2  0  0  0  0  0  0
  -24.6300  -31.0930   22.1390 N   0  0  0  0  0  0  0  0  0  0  0  0
  -23.4980  -32.1720   23.7800 O   0  0  0  0  0  0  0  0  0  0  0  0
  -22.7120  -29.4760   22.5660 C   0  0  0  0  0  0  0  0  0  0  0  0
  -21.3860  -29.2980   22.4450 N   0  0  0  0  0  0  0  0  0  0  0  0
  -23.3990  -28.8480   23.3770 O   0  0  0  0  0  0  0  0  0  0  0  0
  -20.8920  -29.8570   21.7640 H   0  0  0  0  0  0  0  0  0  0  0  0
  -18.0100  -28.1280   22.9650 C   0  0  0  0  0  0  0  0  0  0  0  0
  -20.5710  -28.3640   23.2200 C   0  0  0  0  0  3  0  0  0  0  0  0
  -20.6580  -26.9330   22.6420 C   0  0  0  0  0  2  0  0  0  0  0  0
  -19.5480  -26.6220   21.6350 C   0  0  0  0  0  2  0  0  0  0  0  0
  -18.1710  -26.7760   22.2870 C   0  0  0  0  0  2  0  0  0  0  0  0
  -19.1370  -28.8800   23.3900 C   0  0  0  0  0  0  0  0  0  0  0  0
  -18.9320  -30.1460   23.9780 C   0  0  0  0  0  3  0  0  0  0  0  0
  -17.6330  -30.6590   24.1520 C   0  0  0  0  0  3  0  0  0  0  0  0
  -16.5200  -29.9030   23.7440 C   0  0  0  0  0  3  0  0  0  0  0  0
  -16.7090  -28.6400   23.1550 C   0  0  0  0  0  3  0  0  0  0  0  0
  -25.8650  -32.5280   23.8490 C   0  0  0  0  0  3  0  0  0  0  0  0
  -25.5570  -33.9240   24.1850 N   0  0  0  0  0  0  0  0  0  0  0  0
  -25.8890  -34.9780   23.4270 C   0  0  0  0  0  0  0  0  0  0  0  0
  -26.5580  -34.8770   22.3950 O   0  0  0  0  0  0  0  0  0  0  0  0
  -24.9600  -34.0760   24.9840 H   0  0  0  0  0  0  0  0  0  0  0  0
  -24.1600  -36.7670   23.0760 C   0  0  0  0  0  1  0  0  0  0  0  0
  -25.4010  -36.3640   23.8880 C   0  0  0  0  0  3  0  0  0  0  0  0
  -27.5370  -37.2440   24.7200 C   0  0  0  0  0  1  0  0  0  0  0  0
  -26.4340  -37.4180   23.7780 N   0  0  0  0  0  0  0  0  0  0  0  0
  -26.0290  -38.3370   23.9300 H   0  0  0  0  0  0  0  0  0  0  0  0
  -26.3920  -31.7540   25.1190 C   0  0  1  0  0  0  0  0  0  0  0  0
  -25.3080  -31.5120   26.1950 C   0  0  0  0  0  1  0  0  0  0  0  0
  -26.9740  -30.3800   24.7170 C   0  0  0  0  0  1  0  0  0  0  0  0
  -27.5470  -32.5480   25.7750 C   0  0  0  0  0  1  0  0  0  0  0  0
  -29.2180  -18.7510   20.8650 C   0  0  0  0  0  2  0  0  0  0  0  0
  -30.6490  -17.5680   19.0690 C   0  0  0  0  0  1  0  0  0  0  0  0
  -30.4990  -17.9370   20.5590 C   0  0  0  0  0  3  0  0  0  0  0  0
  -30.7060  -16.7420   21.5370 C   0  0  0  0  0  2  0  0  0  0  0  0
  -30.7640  -14.4500   20.5380 C   0  0  0  0  0  0  0  0  0  0  0  0
  -30.4390  -12.3100   19.3590 C   0  0  0  0  0  2  0  0  0  0  0  0
  -29.5270  -12.5420   18.1390 C   0  0  0  0  0  2  0  0  0  0  0  0
  -28.0390  -12.4320   18.5340 C   0  0  0  0  0  2  0  0  0  0  0  0
  -27.6930  -13.2570   19.8030 C   0  0  0  0  0  3  0  0  0  0  0  0
  -28.7240  -13.0110   20.9250 C   0  0  0  0  0  2  0  0  0  0  0  0
  -30.0610  -13.2970   20.3800 N   0  0  0  0  0  0  0  0  0  0  0  0
  -31.8980  -14.6100   20.0790 O   0  0  0  0  0  0  0  0  0  0  0  0
  -30.1100  -15.4530   21.1430 N   0  0  0  0  0  0  0  0  0  0  0  0
  -29.1620  -15.2670   21.4390 H   0  0  0  0  0  0  0  0  0  0  0  0
  -25.2820  -13.8920   20.4390 C   0  0  0  0  0  0  0  0  0  0  0  0
  -24.2000  -13.1330   20.7980 C   0  0  0  0  0  0  0  0  0  0  0  0
  -24.6510  -11.7780   20.8000 C   0  0  0  0  0  0  0  0  0  0  0  0
  -26.3260  -12.9990   20.2510 N   0  0  0  0  0  0  0  0  0  0  0  0
  -25.9480  -11.7230   20.5240 N   0  0  0  0  0  0  0  0  0  0  0  0
  -23.9100  -10.5250   20.9950 C   0  0  0  0  0  0  0  0  0  0  0  0
  -24.3190   -9.5650   21.9480 C   0  0  0  0  0  3  0  0  0  0  0  0
  -23.5800   -8.3760   22.1310 C   0  0  0  0  0  3  0  0  0  0  0  0
  -22.4170   -8.1390   21.3610 C   0  0  0  0  0  0  0  0  0  0  0  0
  -22.0280   -9.0850   20.3950 C   0  0  0  0  0  3  0  0  0  0  0  0
  -22.7670  -10.2670   20.2110 C   0  0  0  0  0  3  0  0  0  0  0  0
  -21.6510   -7.0010   21.4490 O   0  0  0  0  0  0  0  0  0  0  0  0
  -21.5810   -6.2700   22.6070 C   0  0  0  0  0  0  0  0  0  0  0  0
  -21.1540   -6.8440   23.8260 C   0  0  0  0  0  3  0  0  0  0  0  0
  -21.0330   -6.0400   24.9770 C   0  0  0  0  0  3  0  0  0  0  0  0
  -21.3250   -4.6650   24.9120 C   0  0  0  0  0  0  0  0  0  0  0  0
  -21.7420   -4.0910   23.6970 C   0  0  0  0  0  3  0  0  0  0  0  0
  -21.8670   -4.8900   22.5490 C   0  0  0  0  0  0  0  0  0  0  0  0
  -22.2500   -4.3290   21.3770 F   0  0  0  0  0  0  0  0  0  0  0  0
  -21.2000   -3.8900   26.0140 F   0  0  0  0  0  0  0  0  0  0  0  0
  -22.8010  -13.6240   21.0300 C   0  0  0  0  0  0  0  0  0  0  0  0
  -22.0480  -12.9490   21.8930 N   0  0  0  0  0  0  0  0  0  0  0  0
  -22.3810  -14.6410   20.4800 O   0  0  0  0  0  0  0  0  0  0  0  0
  -22.4000  -12.1260   22.3620 H   0  0  0  0  0  0  0  0  0  0  0  0
  -21.1070  -13.2590   22.0890 H   0  0  0  0  0  0  0  0  0  0  0  0
  -25.4620  -15.2570   20.2390 N   0  0  0  0  0  0  0  0  0  0  0  0
  -24.6960  -15.9190   20.3050 H   0  0  0  0  0  0  0  0  0  0  0  0
  -26.3230  -15.6790   19.9130 H   0  0  0  0  0  0  0  0  0  0  0  0
  2  1  2  0
  3  4  2  0
  3  2  1  0
  4  7  1  0
  5  3  1  0
  6  4  1  0
  7  1  1  0
  7 53  1  0
  9  2  1  0
  9  8  1  0
  9 10  1  0
 11 12  1  0
 11 10  1  0
 13 24  2  0
 14 12  1  0
 14 19  1  0
 15 23  1  0
 15 25  1  0
 16 22  1  0
 16 18  1  0
 17 23  1  0
 18 17  1  0
 19 18  2  0
 20 21  1  0
 20 14  2  0
 21 16  2  0
 22 15  1  0
 23 13  1  0
 25 27  2  0
 26 25  1  0
 28 26  1  0
 29 38  2  0
 29 34  1  0
 30 26  1  0
 30 34  1  0
 31 30  1  0
 32 33  1  0
 32 31  1  0
 33 29  1  0
 34 35  2  0
 35 36  1  0
 37 36  2  0
 38 37  1  0
 39 13  1  0
 39 40  1  0
 39 49  1  0
 40 43  1  0
 41 45  1  0
 41 40  1  0
 42 41  2  0
 45 44  1  0
 47 45  1  0
 47 48  1  0
 47 46  1  0
 49 52  1  1
 49 50  1  0
 51 49  1  0
 55 54  1  0
 55 53  1  0
 55 56  1  0
 57 65  1  0
 58 63  1  0
 59 60  1  0
 59 58  1  0
 61 60  1  0
 61 70  1  0
 61 62  1  0
 63 57  1  0
 63 62  1  0
 64 57  2  0
 65 66  1  0
 65 56  1  0
 67 68  2  0
 68 69  1  0
 68 87  1  0
 69 72  1  0
 70 67  1  0
 70 71  1  0
 71 69  2  0
 72 73  1  0
 73 74  2  0
 75 78  1  0
 75 74  1  0
 76 75  2  0
 77 76  1  0
 77 72  2  0
 78 79  1  0
 79 80  1  0
 80 81  2  0
 82 81  1  0
 82 86  1  0
 83 82  2  0
 84 79  2  0
 84 83  1  0
 85 84  1  0
 87 88  1  0
 88 91  1  0
 88 90  1  0
 89 87  2  0
 92 93  1  0
 92 67  1  0
 94 92  1  0
M  ISO  4  11 101  12 101  57 100  65 100
M  END
>  <TORSDO>  (44) 
F 22

>  <SCORE>  (44) 
-13.251

>  <name>  (44) 
44

>  <ligand_id>  (44) 
44

>  <original_smiles>  (44) 
[H]c1c([H])c([H])c2c(c1[H])C([H])([H])C([H])([H])C([H])([H])C2([H])N([H])C(=O)C1([H])N(C(=O)C([H])(N([H])C(=O)C([H])(N([H])C([H])([H])[H])C([H])([H])[H])C(C([H])([H])[H])(C([H])([H])[H])C([H])([H])[H])C([H])([H])c2c([H])c(OC([H])([H])C([H])([H])C([H])(c3c(C([H])([H])[H])c(C([H])([H])[H])n(C([H])([H])C([H])(C([H])([H])[H])C([H])([H])N([H])C(=O)N4C([H])([H])C([H])([H])C([H])([H])C([H])(n5nc(-c6c([H])c([H])c(Oc7c([H])c([H])c(F)c([H])c7F)c([H])c6[H])c(C(=O)N([H])[H])c5N([H])[H])C4([H])[H])c3[H])C([H])([H])[H])c([H])c([H])c2C1([H])[H]

>  <smiles>  (44) 
[H]c1c([H])c([H])c2c(c1[H])C([H])([H])C([H])([H])C([H])([H])C2([H])N([H])C(=O)C1([H])N(C(=O)C([H])(N([H])C(=O)C([H])(N([H])C([H])([H])[H])C([H])([H])[H])C(C([H])([H])[H])(C([H])([H])[H])C([H])([H])[H])C([H])([H])c2c([H])c(OC([H])([H])C([H])([H])C([H])(c3c(C([H])([H])[H])c(C([H])([H])[H])n(C([H])([H])C([H])(C([H])([H])[H])C([H])([H])N([H])C(=O)N4C([H])([H])C([H])([H])C([H])([H])C([H])(n5nc(-c6c([H])c([H])c(Oc7c([H])c([H])c(F)c([H])c7F)c([H])c6[H])c(C(=O)N([H])[H])c5N([H])[H])C4([H])[H])c3[H])C([H])([H])[H])c([H])c([H])c2C1([H])[H]

$$$$
45:0:0
     RDKit          3D

 90 98  0  0  1  0  0  0  0  0999 V2000
  -28.2440  -19.9910   20.0090 C   0  0  0  0  0  0  0  0  0  0  0  0
  -27.7440  -22.3590   19.8830 C   0  0  0  0  0  0  0  0  0  0  0  0
  -27.8070  -20.4880   21.1750 N   0  0  0  0  0  0  0  0  0  0  0  0
  -27.5330  -21.8500   21.1070 N   0  0  0  0  0  0  0  0  0  0  0  0
  -28.3480  -21.1860   18.7130 S   0  0  0  0  0  0  0  0  0  0  0  0
  -28.6900  -18.5650   19.8470 C   0  0  0  0  0  2  0  0  0  0  0  0
  -30.0560  -18.3070   20.5220 C   0  0  0  0  0  2  0  0  0  0  0  0
  -30.9180  -17.1630   19.9390 C   0  0  0  0  0  2  0  0  0  0  0  0
  -31.3090  -14.7280   20.1030 C   0  0  0  0  0  0  0  0  0  0  0  0
  -31.0700  -12.4260   19.2840 C   0  0  0  0  0  2  0  0  0  0  0  0
  -30.1240  -12.4590   18.0650 C   0  0  0  0  0  2  0  0  0  0  0  0
  -28.6510  -12.3590   18.5140 C   0  0  0  0  0  2  0  0  0  0  0  0
  -28.3030  -13.3470   19.6600 C   0  0  0  0  0  3  0  0  0  0  0  0
  -29.3630  -13.2890   20.7830 C   0  0  0  0  0  2  0  0  0  0  0  0
  -30.6770  -13.5300   20.1700 N   0  0  0  0  0  0  0  0  0  0  0  0
  -32.4540  -14.8600   19.6600 O   0  0  0  0  0  0  0  0  0  0  0  0
  -30.5290  -15.8030   20.3300 N   0  0  0  0  0  0  0  0  0  0  0  0
  -29.5810  -15.6380   20.6350 H   0  0  0  0  0  0  0  0  0  0  0  0
  -25.9630  -14.0360   20.4770 C   0  0  0  0  0  0  0  0  0  0  0  0
  -24.8750  -13.2990   20.8650 C   0  0  0  0  0  0  0  0  0  0  0  0
  -25.2730  -11.9300   20.7720 C   0  0  0  0  0  0  0  0  0  0  0  0
  -26.9570  -13.1170   20.1800 N   0  0  0  0  0  0  0  0  0  0  0  0
  -26.5480  -11.8440   20.4140 N   0  0  0  0  0  0  0  0  0  0  0  0
  -24.4990  -10.6960   20.9490 C   0  0  0  0  0  0  0  0  0  0  0  0
  -24.8730   -9.7200   21.8990 C   0  0  0  0  0  3  0  0  0  0  0  0
  -24.1020   -8.5490   22.0620 C   0  0  0  0  0  3  0  0  0  0  0  0
  -22.9440   -8.3450   21.2740 C   0  0  0  0  0  0  0  0  0  0  0  0
  -22.5910   -9.3090   20.3130 C   0  0  0  0  0  3  0  0  0  0  0  0
  -23.3620  -10.4720   20.1480 C   0  0  0  0  0  3  0  0  0  0  0  0
  -22.1500   -7.2260   21.3440 O   0  0  0  0  0  0  0  0  0  0  0  0
  -21.9880   -6.5320   22.5160 C   0  0  0  0  0  0  0  0  0  0  0  0
  -21.4260   -7.1310   23.6650 C   0  0  0  0  0  3  0  0  0  0  0  0
  -21.2140   -6.3630   24.8270 C   0  0  0  0  0  3  0  0  0  0  0  0
  -21.5510   -4.9960   24.8400 C   0  0  0  0  0  0  0  0  0  0  0  0
  -22.1060   -4.3970   23.6950 C   0  0  0  0  0  3  0  0  0  0  0  0
  -22.3200   -5.1630   22.5360 C   0  0  0  0  0  0  0  0  0  0  0  0
  -22.8350   -4.5760   21.4280 F   0  0  0  0  0  0  0  0  0  0  0  0
  -21.3400   -4.2550   25.9530 F   0  0  0  0  0  0  0  0  0  0  0  0
  -23.5120  -13.8280   21.2020 C   0  0  0  0  0  0  0  0  0  0  0  0
  -22.7930  -13.1470   22.0900 N   0  0  0  0  0  0  0  0  0  0  0  0
  -23.0940  -14.8760   20.7160 O   0  0  0  0  0  0  0  0  0  0  0  0
  -23.1460  -12.2950   22.5020 H   0  0  0  0  0  0  0  0  0  0  0  0
  -21.8790  -13.4810   22.3570 H   0  0  0  0  0  0  0  0  0  0  0  0
  -26.1820  -15.4020   20.3330 N   0  0  0  0  0  0  0  0  0  0  0  0
  -25.4440  -16.0830   20.4760 H   0  0  0  0  0  0  0  0  0  0  0  0
  -27.0160  -15.8020   19.9230 H   0  0  0  0  0  0  0  0  0  0  0  0
  -27.4740  -23.7990   19.5420 C   0  0  0  0  0  2  0  0  0  0  0  0
  -28.4790  -24.8360   20.1190 C   0  0  0  0  0  2  0  0  0  0  0  0
  -29.0710  -25.8470   19.0940 C   0  0  0  0  0  2  0  0  0  0  0  0
  -28.9730  -27.2240   19.5090 O   0  0  0  0  0  0  0  0  0  0  0  0
  -24.6030  -31.5340   23.1220 C   0  0  0  0  0  0  0  0  0  0  0  0
  -27.7290  -27.8310   19.5400 C   0  0  0  0  0  0  0  0  0  0  0  0
  -23.5720  -30.2480   21.2800 C   0  0  0  0  0  3  0  0  0  0  0  0
  -25.1930  -29.0860   19.6920 C   0  0  0  0  0  0  0  0  0  0  0  0
  -26.0500  -30.8890   21.1940 C   0  0  0  0  0  2  0  0  0  0  0  0
  -26.2860  -29.6360   20.3750 C   0  0  0  0  0  0  0  0  0  0  0  0
  -27.5580  -29.0160   20.2960 C   0  0  0  0  0  3  0  0  0  0  0  0
  -26.6130  -27.3060   18.8490 C   0  0  0  0  0  3  0  0  0  0  0  0
  -25.3520  -27.9210   18.9240 C   0  0  0  0  0  3  0  0  0  0  0  0
  -23.8660  -29.7950   19.8250 C   0  0  0  0  0  2  0  0  0  0  0  0
  -24.7580  -30.9000   21.9250 N   0  0  0  0  0  0  0  0  0  0  0  0
  -23.4920  -31.6160   23.6660 O   0  0  0  0  0  0  0  0  0  0  0  0
  -23.0280  -29.0400   22.0760 C   0  0  0  0  0  0  0  0  0  0  0  0
  -21.7370  -28.7250   21.8790 N   0  0  0  0  0  0  0  0  0  0  0  0
  -23.7650  -28.3970   22.8290 O   0  0  0  0  0  0  0  0  0  0  0  0
  -21.2020  -29.3060   21.2490 H   0  0  0  0  0  0  0  0  0  0  0  0
  -18.5160  -27.0980   22.0920 C   0  0  0  0  0  0  0  0  0  0  0  0
  -21.0200  -27.6060   22.4910 C   0  0  0  0  0  3  0  0  0  0  0  0
  -21.3030  -26.2830   21.7410 C   0  0  0  0  0  2  0  0  0  0  0  0
  -20.2680  -25.9750   20.6530 C   0  0  0  0  0  2  0  0  0  0  0  0
  -18.8640  -25.8780   21.2580 C   0  0  0  0  0  2  0  0  0  0  0  0
  -19.5280  -27.9200   22.6570 C   0  0  0  0  0  0  0  0  0  0  0  0
  -19.1500  -29.0640   23.3920 C   0  0  0  0  0  3  0  0  0  0  0  0
  -17.7930  -29.3910   23.5700 C   0  0  0  0  0  3  0  0  0  0  0  0
  -16.7950  -28.5630   23.0240 C   0  0  0  0  0  3  0  0  0  0  0  0
  -17.1570  -27.4200   22.2890 C   0  0  0  0  0  3  0  0  0  0  0  0
  -25.8060  -32.2080   23.8500 C   0  0  0  0  0  3  0  0  0  0  0  0
  -25.4080  -33.5810   24.1880 N   0  0  0  0  0  0  0  0  0  0  0  0
  -25.7600  -34.6680   23.4890 C   0  0  0  0  0  0  0  0  0  0  0  0
  -26.5230  -34.6270   22.5200 O   0  0  0  0  0  0  0  0  0  0  0  0
  -24.7330  -33.6850   24.9310 H   0  0  0  0  0  0  0  0  0  0  0  0
  -23.9880  -36.3920   23.0300 C   0  0  0  0  0  1  0  0  0  0  0  0
  -25.1710  -36.0200   23.9370 C   0  0  0  0  0  3  0  0  0  0  0  0
  -27.1710  -36.9800   24.9870 C   0  0  0  0  0  1  0  0  0  0  0  0
  -26.1590  -37.1200   23.9440 N   0  0  0  0  0  0  0  0  0  0  0  0
  -25.6980  -38.0160   24.0690 H   0  0  0  0  0  0  0  0  0  0  0  0
  -26.2680  -31.4250   25.1390 C   0  0  1  0  0  0  0  0  0  0  0  0
  -25.1150  -31.1180   26.1230 C   0  0  0  0  0  1  0  0  0  0  0  0
  -26.9280  -30.0810   24.7520 C   0  0  0  0  0  1  0  0  0  0  0  0
  -27.3430  -32.2430   25.8920 C   0  0  0  0  0  1  0  0  0  0  0  0
  1  3  2  0
  2  4  2  0
  4  3  1  0
  5  2  1  0
  5  1  1  0
  6  1  1  0
  6  7  1  0
  8 17  1  0
  8  7  1  0
  9 15  1  0
  9 17  1  0
 10 15  1  0
 11 12  1  0
 11 10  1  0
 13 12  1  0
 13 22  1  0
 13 14  1  0
 15 14  1  0
 16  9  2  0
 17 18  1  0
 19 20  2  0
 20 39  1  0
 21 20  1  0
 21 24  1  0
 22 23  1  0
 22 19  1  0
 23 21  2  0
 24 25  1  0
 25 26  2  0
 27 30  1  0
 27 26  1  0
 28 27  2  0
 29 28  1  0
 29 24  2  0
 30 31  1  0
 31 36  2  0
 31 32  1  0
 32 33  2  0
 33 34  1  0
 34 38  1  0
 35 34  2  0
 36 35  1  0
 37 36  1  0
 39 40  1  0
 40 43  1  0
 40 42  1  0
 41 39  2  0
 44 45  1  0
 44 19  1  0
 46 44  1  0
 47  2  1  0
 47 48  1  0
 49 50  1  0
 49 48  1  0
 50 52  1  0
 51 62  2  0
 52 57  1  0
 53 61  1  0
 53 63  1  0
 54 60  1  0
 54 56  1  0
 55 61  1  0
 56 55  1  0
 57 56  2  0
 58 59  1  0
 58 52  2  0
 59 54  2  0
 60 53  1  0
 61 51  1  0
 63 65  2  0
 64 63  1  0
 66 64  1  0
 67 76  2  0
 67 72  1  0
 68 64  1  0
 68 72  1  0
 69 68  1  0
 70 71  1  0
 70 69  1  0
 71 67  1  0
 72 73  2  0
 73 74  1  0
 75 74  2  0
 76 75  1  0
 77 51  1  0
 77 78  1  0
 77 87  1  0
 78 81  1  0
 79 83  1  0
 79 78  1  0
 80 79  2  0
 83 82  1  0
 83 85  1  0
 85 86  1  0
 85 84  1  0
 87 90  1  1
 87 88  1  0
 89 87  1  0
M  ISO  4   9 100  17 100  49 101  50 101
M  END
>  <TORSDO>  (45) 
F 22

>  <SCORE>  (45) 
-10.587

>  <name>  (45) 
45

>  <ligand_id>  (45) 
45

>  <original_smiles>  (45) 
[H]c1c([H])c([H])c2c(c1[H])C([H])([H])C([H])([H])C([H])([H])C2([H])N([H])C(=O)C1([H])N(C(=O)C([H])(N([H])C(=O)C([H])(N([H])C([H])([H])[H])C([H])([H])[H])C(C([H])([H])[H])(C([H])([H])[H])C([H])([H])[H])C([H])([H])c2c([H])c(OC([H])([H])C([H])([H])C([H])([H])c3nnc(C([H])([H])C([H])([H])C([H])([H])N([H])C(=O)N4C([H])([H])C([H])([H])C([H])([H])C([H])(n5nc(-c6c([H])c([H])c(Oc7c([H])c([H])c(F)c([H])c7F)c([H])c6[H])c(C(=O)N([H])[H])c5N([H])[H])C4([H])[H])s3)c([H])c([H])c2C1([H])[H]

>  <smiles>  (45) 
[H]c1c([H])c([H])c2c(c1[H])C([H])([H])C([H])([H])C([H])([H])C2([H])N([H])C(=O)C1([H])N(C(=O)C([H])(N([H])C(=O)C([H])(N([H])C([H])([H])[H])C([H])([H])[H])C(C([H])([H])[H])(C([H])([H])[H])C([H])([H])[H])C([H])([H])c2c([H])c(OC([H])([H])C([H])([H])C([H])([H])c3nnc(C([H])([H])C([H])([H])C([H])([H])N([H])C(=O)N4C([H])([H])C([H])([H])C([H])([H])C([H])(n5nc(-c6c([H])c([H])c(Oc7c([H])c([H])c(F)c([H])c7F)c([H])c6[H])c(C(=O)N([H])[H])c5N([H])[H])C4([H])[H])s3)c([H])c([H])c2C1([H])[H]

$$$$
46:0:0
     RDKit          3D

 91 99  0  0  1  0  0  0  0  0999 V2000
  -29.1470  -21.1510   21.1710 C   0  0  0  0  0  3  0  0  0  0  0  0
  -29.9650  -18.2230   18.6670 C   0  0  0  0  0  3  0  0  0  0  0  0
  -29.6910  -19.4490   19.2810 C   0  0  0  0  0  3  0  0  0  0  0  0
  -30.2110  -17.0140   19.3660 C   0  0  0  0  0  0  0  0  0  0  0  0
  -30.2230  -16.9420   20.8090 C   0  0  0  0  0  0  0  0  0  0  0  0
  -29.6370  -19.5620   20.6630 C   0  0  0  0  0  0  0  0  0  0  0  0
  -29.9290  -18.2910   21.3830 N   0  0  0  0  0  0  0  0  0  0  0  0
  -30.8170  -15.4870   21.4950 C   0  0  0  0  0  0  0  0  0  0  0  0
  -30.9600  -12.9170   21.0550 C   0  0  0  0  0  2  0  0  0  0  0  0
  -30.3600  -12.3810   19.7260 C   0  0  0  0  0  2  0  0  0  0  0  0
  -28.8220  -12.2650   19.7880 C   0  0  0  0  0  2  0  0  0  0  0  0
  -28.1340  -13.3830   20.6160 C   0  0  0  0  0  3  0  0  0  0  0  0
  -28.8950  -13.7450   21.9010 C   0  0  0  0  0  2  0  0  0  0  0  0
  -30.2460  -14.1720   21.5020 N   0  0  0  0  0  0  0  0  0  0  0  0
  -32.0340  -15.4340   21.7400 O   0  0  0  0  0  0  0  0  0  0  0  0
  -25.6740  -14.0240   20.7840 C   0  0  0  0  0  0  0  0  0  0  0  0
  -24.5380  -13.2890   20.9710 C   0  0  0  0  0  0  0  0  0  0  0  0
  -24.9680  -11.9400   21.1700 C   0  0  0  0  0  0  0  0  0  0  0  0
  -26.7220  -13.1250   20.8560 N   0  0  0  0  0  0  0  0  0  0  0  0
  -26.2930  -11.8730   21.1640 N   0  0  0  0  0  0  0  0  0  0  0  0
  -24.1900  -10.7020   21.3010 C   0  0  0  0  0  0  0  0  0  0  0  0
  -24.5150   -9.7220   22.2630 C   0  0  0  0  0  3  0  0  0  0  0  0
  -23.7360   -8.5500   22.3820 C   0  0  0  0  0  3  0  0  0  0  0  0
  -22.6170   -8.3530   21.5380 C   0  0  0  0  0  0  0  0  0  0  0  0
  -22.3120   -9.3220   20.5660 C   0  0  0  0  0  3  0  0  0  0  0  0
  -23.0920  -10.4830   20.4440 C   0  0  0  0  0  3  0  0  0  0  0  0
  -21.8180   -7.2350   21.5650 O   0  0  0  0  0  0  0  0  0  0  0  0
  -21.7110   -6.4550   22.6870 C   0  0  0  0  0  0  0  0  0  0  0  0
  -21.2410   -6.9740   23.9140 C   0  0  0  0  0  3  0  0  0  0  0  0
  -21.0810   -6.1200   25.0240 C   0  0  0  0  0  3  0  0  0  0  0  0
  -21.3790   -4.7500   24.9090 C   0  0  0  0  0  0  0  0  0  0  0  0
  -21.8420   -4.2300   23.6870 C   0  0  0  0  0  3  0  0  0  0  0  0
  -22.0040   -5.0810   22.5790 C   0  0  0  0  0  0  0  0  0  0  0  0
  -22.4290   -4.5710   21.3980 F   0  0  0  0  0  0  0  0  0  0  0  0
  -21.2170   -3.9280   25.9720 F   0  0  0  0  0  0  0  0  0  0  0  0
  -23.1290  -13.7940   20.8700 C   0  0  0  0  0  0  0  0  0  0  0  0
  -22.2120  -13.2070   21.6310 N   0  0  0  0  0  0  0  0  0  0  0  0
  -22.8440  -14.7490   20.1490 O   0  0  0  0  0  0  0  0  0  0  0  0
  -22.4550  -12.4400   22.2390 H   0  0  0  0  0  0  0  0  0  0  0  0
  -21.2560  -13.5310   21.6050 H   0  0  0  0  0  0  0  0  0  0  0  0
  -25.9070  -15.3740   20.5300 N   0  0  0  0  0  0  0  0  0  0  0  0
  -25.1490  -16.0360   20.4070 H   0  0  0  0  0  0  0  0  0  0  0  0
  -26.8180  -15.7840   20.3720 H   0  0  0  0  0  0  0  0  0  0  0  0
  -31.9960  -15.9910   17.8930 C   0  0  0  0  0  1  0  0  0  0  0  0
  -29.5520  -15.5050   17.3570 C   0  0  0  0  0  1  0  0  0  0  0  0
  -30.5790  -15.8370   18.4610 C   0  0  0  0  0  3  0  0  0  0  0  0
  -28.8100  -22.6740   20.2550 C   0  0  0  0  0  3  0  0  0  0  0  0
  -28.0250  -24.2390   20.6720 C   0  0  0  0  0  3  0  0  0  0  0  0
  -26.0370  -24.6390   22.3270 C   0  0  0  0  0  1  0  0  0  0  0  0
  -26.5890  -23.8650   21.1180 C   0  0  0  0  0  2  0  0  0  0  0  0
  -28.0330  -25.7690   20.0230 O   0  0  0  0  0  0  0  0  0  0  0  0
  -24.4910  -31.6500   23.1800 C   0  0  0  0  0  0  0  0  0  0  0  0
  -27.0070  -26.8530   20.0390 C   0  0  0  0  0  0  0  0  0  0  0  0
  -23.2710  -30.2820   21.5350 C   0  0  0  0  0  3  0  0  0  0  0  0
  -24.7020  -28.7190   20.0530 C   0  0  0  0  0  0  0  0  0  0  0  0
  -25.8320  -30.5140   21.3440 C   0  0  0  0  0  2  0  0  0  0  0  0
  -25.8970  -29.1170   20.6640 C   0  0  0  0  0  0  0  0  0  0  0  0
  -27.0460  -28.2070   20.6320 C   0  0  0  0  0  3  0  0  0  0  0  0
  -25.7900  -26.6160   19.3600 C   0  0  0  0  0  3  0  0  0  0  0  0
  -24.6710  -27.4870   19.3790 C   0  0  0  0  0  3  0  0  0  0  0  0
  -23.4800  -29.6320   20.1390 C   0  0  0  0  0  2  0  0  0  0  0  0
  -24.5540  -30.8420   22.0730 N   0  0  0  0  0  0  0  0  0  0  0  0
  -23.4100  -31.9210   23.7300 O   0  0  0  0  0  0  0  0  0  0  0  0
  -22.6050  -29.2580   22.4910 C   0  0  0  0  0  0  0  0  0  0  0  0
  -21.2760  -29.0760   22.3790 N   0  0  0  0  0  0  0  0  0  0  0  0
  -23.2890  -28.6320   23.3030 O   0  0  0  0  0  0  0  0  0  0  0  0
  -20.7770  -29.6350   21.7010 H   0  0  0  0  0  0  0  0  0  0  0  0
  -17.9220  -27.7910   22.8830 C   0  0  0  0  0  0  0  0  0  0  0  0
  -20.4760  -28.1120   23.1440 C   0  0  0  0  0  3  0  0  0  0  0  0
  -20.6080  -26.6880   22.5550 C   0  0  0  0  0  2  0  0  0  0  0  0
  -19.5120  -26.3500   21.5410 C   0  0  0  0  0  2  0  0  0  0  0  0
  -18.1290  -26.4540   22.1890 C   0  0  0  0  0  2  0  0  0  0  0  0
  -19.0230  -28.5760   23.3160 C   0  0  0  0  0  0  0  0  0  0  0  0
  -18.7740  -29.8240   23.9260 C   0  0  0  0  0  3  0  0  0  0  0  0
  -17.4580  -30.2900   24.1020 C   0  0  0  0  0  3  0  0  0  0  0  0
  -16.3710  -29.5030   23.6840 C   0  0  0  0  0  3  0  0  0  0  0  0
  -16.6040  -28.2550   23.0800 C   0  0  0  0  0  3  0  0  0  0  0  0
  -25.7710  -32.2860   23.8010 C   0  0  0  0  0  3  0  0  0  0  0  0
  -25.4700  -33.6920   24.1160 N   0  0  0  0  0  0  0  0  0  0  0  0
  -25.8320  -34.7420   23.3670 C   0  0  0  0  0  0  0  0  0  0  0  0
  -26.5170  -34.6270   22.3470 O   0  0  0  0  0  0  0  0  0  0  0  0
  -24.8620  -33.8550   24.9050 H   0  0  0  0  0  0  0  0  0  0  0  0
  -24.1360  -36.5660   22.9940 C   0  0  0  0  0  1  0  0  0  0  0  0
  -25.3620  -36.1400   23.8160 C   0  0  0  0  0  3  0  0  0  0  0  0
  -27.4970  -37.0050   24.6700 C   0  0  0  0  0  1  0  0  0  0  0  0
  -26.4110  -37.1780   23.7100 N   0  0  0  0  0  0  0  0  0  0  0  0
  -26.0160  -38.1050   23.8420 H   0  0  0  0  0  0  0  0  0  0  0  0
  -26.2670  -31.5340   25.0970 C   0  0  1  0  0  0  0  0  0  0  0  0
  -25.1680  -31.3440   26.1690 C   0  0  0  0  0  1  0  0  0  0  0  0
  -26.8250  -30.1350   24.7460 C   0  0  0  0  0  1  0  0  0  0  0  0
  -27.4320  -32.3200   25.7450 C   0  0  0  0  0  1  0  0  0  0  0  0
  2  3  2  0
  2  4  1  0
  3  6  1  0
  4  5  2  0
  5  7  1  0
  5  8  1  0
  6  1  1  0
  6  7  2  0
  8 14  1  0
  8 15  2  0
  9 14  1  0
 10 11  1  0
 10  9  1  0
 12 11  1  0
 12 19  1  0
 12 13  1  0
 14 13  1  0
 16 19  1  0
 16 17  2  0
 17 18  1  0
 18 21  1  0
 19 20  1  0
 20 18  2  0
 21 22  1  0
 22 23  2  0
 24 27  1  0
 24 23  1  0
 25 24  2  0
 26 25  1  0
 26 21  2  0
 27 28  1  0
 28 29  1  0
 29 30  2  0
 31 30  1  0
 31 35  1  0
 32 31  2  0
 33 28  2  0
 33 32  1  0
 34 33  1  0
 36 17  1  0
 36 37  1  0
 37 39  1  0
 38 36  2  0
 40 37  1  0
 41 16  1  0
 42 41  1  0
 43 41  1  0
 44 46  1  0
 45 46  1  0
 46  4  1  0
 47  1  2  0
 48 47  1  0
 48 50  1  0
 50 49  1  0
 51 53  1  0
 51 48  1  0
 52 63  2  0
 53 58  1  0
 54 62  1  0
 54 64  1  0
 55 61  1  0
 55 57  1  0
 56 62  1  0
 57 56  1  0
 58 57  2  0
 59 60  1  0
 59 53  2  0
 60 55  2  0
 61 54  1  0
 62 52  1  0
 64 66  2  0
 65 64  1  0
 67 65  1  0
 68 77  2  0
 68 73  1  0
 69 65  1  0
 69 73  1  0
 70 69  1  0
 71 72  1  0
 71 70  1  0
 72 68  1  0
 73 74  2  0
 74 75  1  0
 76 75  2  0
 77 76  1  0
 78 52  1  0
 78 79  1  0
 78 88  1  0
 79 82  1  0
 80 84  1  0
 80 79  1  0
 81 80  2  0
 84 83  1  0
 86 84  1  0
 86 87  1  0
 86 85  1  0
 88 91  1  1
 88 89  1  0
 90 88  1  0
M  ISO  4   5 100   8 100  48 101  51 101
M  END
>  <TORSDO>  (46) 
F 21

>  <SCORE>  (46) 
-10.179

>  <name>  (46) 
46

>  <ligand_id>  (46) 
46

>  <original_smiles>  (46) 
[H]c1c(C([H])([H])C([H])([H])C([H])(Oc2c([H])c([H])c3c(c2[H])C([H])([H])N(C(=O)C([H])(N([H])C(=O)C([H])(N([H])C([H])([H])[H])C([H])([H])[H])C(C([H])([H])[H])(C([H])([H])[H])C([H])([H])[H])C([H])(C(=O)N([H])C2([H])c4c([H])c([H])c([H])c([H])c4C([H])([H])C([H])([H])C2([H])[H])C3([H])[H])C([H])([H])C([H])([H])[H])nc(C(=O)N2C([H])([H])C([H])([H])C([H])([H])C([H])(n3nc(-c4c([H])c([H])c(Oc5c([H])c([H])c(F)c([H])c5F)c([H])c4[H])c(C(=O)N([H])[H])c3N([H])[H])C2([H])[H])c(C([H])(C([H])([H])[H])C([H])([H])[H])c1[H]

>  <smiles>  (46) 
[H]c1c(C([H])([H])C([H])([H])C([H])(Oc2c([H])c([H])c3c(c2[H])C([H])([H])N(C(=O)C([H])(N([H])C(=O)C([H])(N([H])C([H])([H])[H])C([H])([H])[H])C(C([H])([H])[H])(C([H])([H])[H])C([H])([H])[H])C([H])(C(=O)N([H])C2([H])c4c([H])c([H])c([H])c([H])c4C([H])([H])C([H])([H])C2([H])[H])C3([H])[H])C([H])([H])C([H])([H])[H])nc(C(=O)N2C([H])([H])C([H])([H])C([H])([H])C([H])(n3nc(-c4c([H])c([H])c(Oc5c([H])c([H])c(F)c([H])c5F)c([H])c4[H])c(C(=O)N([H])[H])c3N([H])[H])C2([H])[H])c(C([H])(C([H])([H])[H])C([H])([H])[H])c1[H]

$$$$
47:0:0
     RDKit          3D

 92100  0  0  1  0  0  0  0  0999 V2000
  -29.0380  -21.6400   21.3090 C   0  0  0  0  0  3  0  0  0  0  0  0
  -28.9710  -19.1910   20.4930 C   0  0  0  0  0  3  0  0  0  0  0  0
  -29.9030  -18.1930   20.2860 C   0  0  0  0  0  0  0  0  0  0  0  0
  -30.9520  -20.0480   20.9880 C   0  0  0  0  0  3  0  0  0  0  0  0
  -32.0810  -20.9500   21.3810 C   0  0  0  0  0  1  0  0  0  0  0  0
  -29.6360  -20.3250   20.9170 N   0  0  0  0  0  0  0  0  0  0  0  0
  -31.1030  -18.7670   20.6180 N   0  0  0  0  0  0  0  0  0  0  0  0
  -31.9990  -18.2980   20.5580 H   0  0  0  0  0  0  0  0  0  0  0  0
  -29.8090  -16.8040   19.6770 C   0  0  0  0  0  2  0  0  0  0  0  0
  -30.6330  -14.5530   20.3240 C   0  0  0  0  0  0  0  0  0  0  0  0
  -30.3530  -12.3610   19.2460 C   0  0  0  0  0  2  0  0  0  0  0  0
  -29.4040  -12.5680   18.0470 C   0  0  0  0  0  2  0  0  0  0  0  0
  -27.9300  -12.4440   18.4830 C   0  0  0  0  0  2  0  0  0  0  0  0
  -27.6040  -13.2700   19.7560 C   0  0  0  0  0  3  0  0  0  0  0  0
  -28.6740  -13.0540   20.8550 C   0  0  0  0  0  2  0  0  0  0  0  0
  -29.9900  -13.3530   20.2720 N   0  0  0  0  0  0  0  0  0  0  0  0
  -31.7830  -14.7100   19.9020 O   0  0  0  0  0  0  0  0  0  0  0  0
  -29.8370  -15.6190   20.5630 N   0  0  0  0  0  0  0  0  0  0  0  0
  -28.9550  -15.4000   20.9980 H   0  0  0  0  0  0  0  0  0  0  0  0
  -25.2150  -13.8890   20.4820 C   0  0  0  0  0  0  0  0  0  0  0  0
  -24.1460  -13.1210   20.8610 C   0  0  0  0  0  0  0  0  0  0  0  0
  -24.6030  -11.7680   20.8330 C   0  0  0  0  0  0  0  0  0  0  0  0
  -26.2540  -13.0010   20.2460 N   0  0  0  0  0  0  0  0  0  0  0  0
  -25.8910  -11.7220   20.5150 N   0  0  0  0  0  0  0  0  0  0  0  0
  -23.8740  -10.5090   21.0330 C   0  0  0  0  0  0  0  0  0  0  0  0
  -24.3210   -9.5360   21.9540 C   0  0  0  0  0  3  0  0  0  0  0  0
  -23.5920   -8.3420   22.1440 C   0  0  0  0  0  3  0  0  0  0  0  0
  -22.4040   -8.1110   21.4090 C   0  0  0  0  0  0  0  0  0  0  0  0
  -21.9770   -9.0740   20.4770 C   0  0  0  0  0  3  0  0  0  0  0  0
  -22.7050  -10.2600   20.2860 C   0  0  0  0  0  3  0  0  0  0  0  0
  -21.6480   -6.9680   21.5060 O   0  0  0  0  0  0  0  0  0  0  0  0
  -21.6280   -6.2130   22.6520 C   0  0  0  0  0  0  0  0  0  0  0  0
  -21.2550   -6.7610   23.9000 C   0  0  0  0  0  3  0  0  0  0  0  0
  -21.1810   -5.9330   25.0390 C   0  0  0  0  0  3  0  0  0  0  0  0
  -21.4700   -4.5590   24.9310 C   0  0  0  0  0  0  0  0  0  0  0  0
  -21.8370   -4.0120   23.6890 C   0  0  0  0  0  3  0  0  0  0  0  0
  -21.9140   -4.8370   22.5530 C   0  0  0  0  0  0  0  0  0  0  0  0
  -22.2460   -4.3010   21.3550 F   0  0  0  0  0  0  0  0  0  0  0  0
  -21.3940   -3.7620   26.0220 F   0  0  0  0  0  0  0  0  0  0  0  0
  -22.7520  -13.6060   21.1390 C   0  0  0  0  0  0  0  0  0  0  0  0
  -22.0270  -12.9180   22.0150 N   0  0  0  0  0  0  0  0  0  0  0  0
  -22.3140  -14.6290   20.6170 O   0  0  0  0  0  0  0  0  0  0  0  0
  -22.3930  -12.0920   22.4640 H   0  0  0  0  0  0  0  0  0  0  0  0
  -21.0900  -13.2220   22.2380 H   0  0  0  0  0  0  0  0  0  0  0  0
  -25.3840  -15.2590   20.2960 N   0  0  0  0  0  0  0  0  0  0  0  0
  -24.6160  -15.9130   20.4000 H   0  0  0  0  0  0  0  0  0  0  0  0
  -26.2220  -15.6940   19.9300 H   0  0  0  0  0  0  0  0  0  0  0  0
  -29.1130  -22.7840   20.2490 C   0  0  0  0  0  3  0  0  0  0  0  0
  -30.1710  -24.6860   21.5590 C   0  0  0  0  0  1  0  0  0  0  0  0
  -28.9020  -24.2400   20.8100 C   0  0  0  0  0  3  0  0  0  0  0  0
  -28.5090  -25.2940   19.7190 C   0  0  0  0  0  2  0  0  0  0  0  0
  -28.4050  -26.6700   20.1980 O   0  0  0  0  0  0  0  0  0  0  0  0
  -24.5980  -31.8980   23.2510 C   0  0  0  0  0  0  0  0  0  0  0  0
  -27.2200  -27.4020   20.1630 C   0  0  0  0  0  0  0  0  0  0  0  0
  -23.3890  -30.4980   21.6150 C   0  0  0  0  0  3  0  0  0  0  0  0
  -24.8330  -28.9580   20.1830 C   0  0  0  0  0  0  0  0  0  0  0  0
  -25.9210  -30.8350   21.4180 C   0  0  0  0  0  2  0  0  0  0  0  0
  -25.9970  -29.4630   20.7720 C   0  0  0  0  0  0  0  0  0  0  0  0
  -27.1890  -28.6940   20.7550 C   0  0  0  0  0  3  0  0  0  0  0  0
  -26.0270  -26.9300   19.5610 C   0  0  0  0  0  3  0  0  0  0  0  0
  -24.8470  -27.6950   19.5740 C   0  0  0  0  0  3  0  0  0  0  0  0
  -23.5940  -29.8250   20.2330 C   0  0  0  0  0  2  0  0  0  0  0  0
  -24.6550  -31.0940   22.1520 N   0  0  0  0  0  0  0  0  0  0  0  0
  -23.5180  -32.1730   23.7920 O   0  0  0  0  0  0  0  0  0  0  0  0
  -22.7350  -29.4770   22.5740 C   0  0  0  0  0  0  0  0  0  0  0  0
  -21.4100  -29.2920   22.4440 N   0  0  0  0  0  0  0  0  0  0  0  0
  -23.4160  -28.8560   23.3940 O   0  0  0  0  0  0  0  0  0  0  0  0
  -20.9220  -29.8490   21.7580 H   0  0  0  0  0  0  0  0  0  0  0  0
  -18.0380  -28.0790   22.9220 C   0  0  0  0  0  0  0  0  0  0  0  0
  -20.5930  -28.3530   23.2130 C   0  0  0  0  0  3  0  0  0  0  0  0
  -20.7070  -26.9190   22.6460 C   0  0  0  0  0  2  0  0  0  0  0  0
  -19.6140  -26.5840   21.6240 C   0  0  0  0  0  2  0  0  0  0  0  0
  -18.2270  -26.7260   22.2560 C   0  0  0  0  0  2  0  0  0  0  0  0
  -19.1500  -28.8490   23.3560 C   0  0  0  0  0  0  0  0  0  0  0  0
  -18.9190  -30.1150   23.9380 C   0  0  0  0  0  3  0  0  0  0  0  0
  -17.6100  -30.6100   24.0900 C   0  0  0  0  0  3  0  0  0  0  0  0
  -16.5140  -29.8370   23.6720 C   0  0  0  0  0  3  0  0  0  0  0  0
  -16.7290  -28.5730   23.0950 C   0  0  0  0  0  3  0  0  0  0  0  0
  -25.8840  -32.5270   23.8710 C   0  0  0  0  0  3  0  0  0  0  0  0
  -25.5770  -33.9270   24.1970 N   0  0  0  0  0  0  0  0  0  0  0  0
  -25.9130  -34.9760   23.4360 C   0  0  0  0  0  0  0  0  0  0  0  0
  -26.5820  -34.8690   22.4050 O   0  0  0  0  0  0  0  0  0  0  0  0
  -24.9800  -34.0840   24.9950 H   0  0  0  0  0  0  0  0  0  0  0  0
  -24.1830  -36.7700   23.0800 C   0  0  0  0  0  1  0  0  0  0  0  0
  -25.4270  -36.3660   23.8890 C   0  0  0  0  0  3  0  0  0  0  0  0
  -27.5670  -37.2490   24.7100 C   0  0  0  0  0  1  0  0  0  0  0  0
  -26.4610  -37.4190   23.7710 N   0  0  0  0  0  0  0  0  0  0  0  0
  -26.0570  -38.3410   23.9200 H   0  0  0  0  0  0  0  0  0  0  0  0
  -26.4000  -31.7580   25.1490 C   0  0  1  0  0  0  0  0  0  0  0  0
  -25.3070  -31.5290   26.2200 C   0  0  0  0  0  1  0  0  0  0  0  0
  -26.9770  -30.3770   24.7610 C   0  0  0  0  0  1  0  0  0  0  0  0
  -27.5540  -32.5510   25.8070 C   0  0  0  0  0  1  0  0  0  0  0  0
  2  6  1  0
  3  2  2  0
  3  7  1  0
  4  5  1  0
  6  4  1  0
  6  1  1  0
  7  4  1  0
  8  7  1  0
  9  3  1  0
  9 18  1  0
 10 18  1  0
 11 16  1  0
 12 13  1  0
 12 11  1  0
 14 13  1  0
 14 23  1  0
 14 15  1  0
 16 10  1  0
 16 15  1  0
 17 10  2  0
 18 19  1  0
 20 21  2  0
 21 40  1  0
 22 21  1  0
 22 25  1  0
 23 20  1  0
 23 24  1  0
 24 22  2  0
 25 26  1  0
 26 27  2  0
 28 31  1  0
 28 27  1  0
 29 28  2  0
 30 29  1  0
 30 25  2  0
 31 32  1  0
 32 33  1  0
 33 34  2  0
 35 34  1  0
 35 39  1  0
 36 35  2  0
 37 32  2  0
 37 36  1  0
 38 37  1  0
 40 41  1  0
 41 44  1  0
 41 43  1  0
 42 40  2  0
 45 46  1  0
 45 20  1  0
 47 45  1  0
 48 50  1  0
 48  1  2  0
 50 49  1  0
 51 52  1  0
 51 50  1  0
 53 64  2  0
 54 52  1  0
 54 59  1  0
 55 63  1  0
 55 65  1  0
 56 62  1  0
 56 58  1  0
 57 63  1  0
 58 57  1  0
 59 58  2  0
 60 61  1  0
 60 54  2  0
 61 56  2  0
 62 55  1  0
 63 53  1  0
 65 67  2  0
 66 65  1  0
 68 66  1  0
 69 78  2  0
 69 74  1  0
 70 66  1  0
 70 74  1  0
 71 70  1  0
 72 73  1  0
 72 71  1  0
 73 69  1  0
 74 75  2  0
 75 76  1  0
 77 76  2  0
 78 77  1  0
 79 53  1  0
 79 80  1  0
 79 89  1  0
 80 83  1  0
 81 85  1  0
 81 80  1  0
 82 81  2  0
 85 84  1  0
 87 85  1  0
 87 88  1  0
 87 86  1  0
 89 92  1  1
 89 90  1  0
 91 89  1  0
M  ISO  4  10 100  18 100  51 101  52 101
M  END
>  <TORSDO>  (47) 
F 21

>  <SCORE>  (47) 
-13.749

>  <name>  (47) 
47

>  <ligand_id>  (47) 
47

>  <original_smiles>  (47) 
[H]c1c([H])c([H])c2c(c1[H])C([H])([H])C([H])([H])C([H])([H])C2([H])N([H])C(=O)C1([H])N(C(=O)C([H])(N([H])C(=O)C([H])(N([H])C([H])([H])[H])C([H])([H])[H])C(C([H])([H])[H])(C([H])([H])[H])C([H])([H])[H])C([H])([H])c2c([H])c(OC([H])([H])C([H])(C([H])([H])[H])C([H])([H])C([H])([H])n3c([H])c(C([H])([H])N([H])C(=O)N4C([H])([H])C([H])([H])C([H])([H])C([H])(n5nc(-c6c([H])c([H])c(Oc7c([H])c([H])c(F)c([H])c7F)c([H])c6[H])c(C(=O)N([H])[H])c5N([H])[H])C4([H])[H])[n+]([H])c3C([H])([H])[H])c([H])c([H])c2C1([H])[H]

>  <smiles>  (47) 
[H]c1c([H])c([H])c2c(c1[H])C([H])([H])C([H])([H])C([H])([H])C2([H])N([H])C(=O)C1([H])N(C(=O)C([H])(N([H])C(=O)C([H])(N([H])C([H])([H])[H])C([H])([H])[H])C(C([H])([H])[H])(C([H])([H])[H])C([H])([H])[H])C([H])([H])c2c([H])c(OC([H])([H])C([H])(C([H])([H])[H])C([H])([H])C([H])([H])n3c([H])c(C([H])([H])N([H])C(=O)N4C([H])([H])C([H])([H])C([H])([H])C([H])(n5nc(-c6c([H])c([H])c(Oc7c([H])c([H])c(F)c([H])c7F)c([H])c6[H])c(C(=O)N([H])[H])c5N([H])[H])C4([H])[H])[n+]([H])c3C([H])([H])[H])c([H])c([H])c2C1([H])[H]

$$$$
48:0:0
     RDKit          3D

 90 98  0  0  1  0  0  0  0  0999 V2000
  -28.7040  -21.2480   21.0440 C   0  0  0  0  0  3  0  0  0  0  0  0
  -28.9930  -18.7370   20.2050 C   0  0  0  0  0  3  0  0  0  0  0  0
  -29.9660  -17.7330   20.2810 C   0  0  0  0  0  0  0  0  0  0  0  0
  -30.9780  -18.4310   21.0170 C   0  0  0  0  0  0  0  0  0  0  0  0
  -32.3350  -17.9360   21.4290 C   0  0  0  0  0  1  0  0  0  0  0  0
  -30.6560  -19.7040   21.3010 N   0  0  0  0  0  0  0  0  0  0  0  0
  -29.4270  -19.9400   20.7780 N   0  0  0  0  0  0  0  0  0  0  0  0
  -30.9360  -16.5830   18.3290 C   0  0  0  0  0  1  0  0  0  0  0  0
  -28.6140  -16.1880   18.8530 C   0  0  0  0  0  1  0  0  0  0  0  0
  -29.9850  -16.3260   19.5320 C   0  0  2  0  0  0  0  0  0  0  0  0
  -30.5510  -14.9300   20.2000 C   0  0  0  0  0  0  0  0  0  0  0  0
  -30.3460  -12.5950   19.3720 C   0  0  0  0  0  2  0  0  0  0  0  0
  -29.3980  -12.5180   18.1590 C   0  0  0  0  0  2  0  0  0  0  0  0
  -27.9410  -12.3100   18.6210 C   0  0  0  0  0  2  0  0  0  0  0  0
  -27.5240  -13.2410   19.7870 C   0  0  0  0  0  3  0  0  0  0  0  0
  -28.6140  -13.3780   20.8730 C   0  0  0  0  0  2  0  0  0  0  0  0
  -29.8860  -13.7170   20.2190 N   0  0  0  0  0  0  0  0  0  0  0  0
  -31.7780  -14.8800   20.2810 O   0  0  0  0  0  0  0  0  0  0  0  0
  -25.1640  -13.8130   20.5850 C   0  0  0  0  0  0  0  0  0  0  0  0
  -24.1120  -13.0230   20.9560 C   0  0  0  0  0  0  0  0  0  0  0  0
  -24.5970  -11.6800   20.9110 C   0  0  0  0  0  0  0  0  0  0  0  0
  -26.2120  -12.9420   20.3270 N   0  0  0  0  0  0  0  0  0  0  0  0
  -25.8830  -11.6570   20.5920 N   0  0  0  0  0  0  0  0  0  0  0  0
  -23.8980  -10.4060   21.0910 C   0  0  0  0  0  0  0  0  0  0  0  0
  -24.3480   -9.4480   22.0250 C   0  0  0  0  0  3  0  0  0  0  0  0
  -23.6470   -8.2360   22.1950 C   0  0  0  0  0  3  0  0  0  0  0  0
  -22.4850   -7.9760   21.4300 C   0  0  0  0  0  0  0  0  0  0  0  0
  -22.0580   -8.9230   20.4830 C   0  0  0  0  0  3  0  0  0  0  0  0
  -22.7600  -10.1270   20.3110 C   0  0  0  0  0  3  0  0  0  0  0  0
  -21.7550   -6.8150   21.5130 O   0  0  0  0  0  0  0  0  0  0  0  0
  -21.7050   -6.0810   22.6690 C   0  0  0  0  0  0  0  0  0  0  0  0
  -21.2130   -6.6230   23.8780 C   0  0  0  0  0  3  0  0  0  0  0  0
  -21.1140   -5.8110   25.0240 C   0  0  0  0  0  3  0  0  0  0  0  0
  -21.4950   -4.4560   24.9650 C   0  0  0  0  0  0  0  0  0  0  0  0
  -21.9800   -3.9140   23.7610 C   0  0  0  0  0  3  0  0  0  0  0  0
  -22.0820   -4.7230   22.6160 C   0  0  0  0  0  0  0  0  0  0  0  0
  -22.5300   -4.1900   21.4540 F   0  0  0  0  0  0  0  0  0  0  0  0
  -21.3920   -3.6740   26.0630 F   0  0  0  0  0  0  0  0  0  0  0  0
  -22.7110  -13.4780   21.2390 C   0  0  0  0  0  0  0  0  0  0  0  0
  -21.9970  -12.7580   22.0970 N   0  0  0  0  0  0  0  0  0  0  0  0
  -22.2560  -14.5040   20.7360 O   0  0  0  0  0  0  0  0  0  0  0  0
  -22.3760  -11.9260   22.5240 H   0  0  0  0  0  0  0  0  0  0  0  0
  -21.0570  -13.0430   22.3310 H   0  0  0  0  0  0  0  0  0  0  0  0
  -25.3030  -15.1880   20.4160 N   0  0  0  0  0  0  0  0  0  0  0  0
  -24.5290  -15.8300   20.5470 H   0  0  0  0  0  0  0  0  0  0  0  0
  -26.1500  -15.6470   20.1070 H   0  0  0  0  0  0  0  0  0  0  0  0
  -28.9780  -22.5670   20.1730 C   0  0  0  0  0  3  0  0  0  0  0  0
  -28.3530  -23.9670   20.6830 C   0  0  0  0  0  2  0  0  0  0  0  0
  -28.3970  -25.2580   19.7300 C   0  0  0  0  0  2  0  0  0  0  0  0
  -28.2710  -26.6340   20.2800 O   0  0  0  0  0  0  0  0  0  0  0  0
  -24.5330  -32.0010   23.2920 C   0  0  0  0  0  0  0  0  0  0  0  0
  -27.1150  -27.4340   20.2130 C   0  0  0  0  0  0  0  0  0  0  0  0
  -23.3100  -30.6050   21.6610 C   0  0  0  0  0  3  0  0  0  0  0  0
  -24.7440  -29.0460   20.2210 C   0  0  0  0  0  0  0  0  0  0  0  0
  -25.8460  -30.9180   21.4530 C   0  0  0  0  0  2  0  0  0  0  0  0
  -25.9150  -29.5380   20.8070 C   0  0  0  0  0  0  0  0  0  0  0  0
  -27.0980  -28.7420   20.7930 C   0  0  0  0  0  3  0  0  0  0  0  0
  -25.9160  -26.9880   19.6130 C   0  0  0  0  0  3  0  0  0  0  0  0
  -24.7470  -27.7790   19.6150 C   0  0  0  0  0  3  0  0  0  0  0  0
  -23.5080  -29.9230   20.2800 C   0  0  0  0  0  2  0  0  0  0  0  0
  -24.5840  -31.1930   22.1930 N   0  0  0  0  0  0  0  0  0  0  0  0
  -23.4560  -32.2810   23.8370 O   0  0  0  0  0  0  0  0  0  0  0  0
  -22.6540  -29.5930   22.6300 C   0  0  0  0  0  0  0  0  0  0  0  0
  -21.3310  -29.3980   22.4960 N   0  0  0  0  0  0  0  0  0  0  0  0
  -23.3350  -28.9840   23.4590 O   0  0  0  0  0  0  0  0  0  0  0  0
  -20.8400  -29.9420   21.8010 H   0  0  0  0  0  0  0  0  0  0  0  0
  -17.9700  -28.1490   22.9700 C   0  0  0  0  0  0  0  0  0  0  0  0
  -20.5190  -28.4580   23.2710 C   0  0  0  0  0  3  0  0  0  0  0  0
  -20.6540  -27.0200   22.7200 C   0  0  0  0  0  2  0  0  0  0  0  0
  -19.5730  -26.6620   21.6960 C   0  0  0  0  0  2  0  0  0  0  0  0
  -18.1790  -26.7930   22.3180 C   0  0  0  0  0  2  0  0  0  0  0  0
  -19.0690  -28.9380   23.4040 C   0  0  0  0  0  0  0  0  0  0  0  0
  -18.8200  -30.2050   23.9730 C   0  0  0  0  0  3  0  0  0  0  0  0
  -17.5040  -30.6860   24.1130 C   0  0  0  0  0  3  0  0  0  0  0  0
  -16.4190  -29.8960   23.6960 C   0  0  0  0  0  3  0  0  0  0  0  0
  -16.6530  -28.6290   23.1310 C   0  0  0  0  0  3  0  0  0  0  0  0
  -25.8250  -32.6290   23.9030 C   0  0  0  0  0  3  0  0  0  0  0  0
  -25.5300  -34.0360   24.2120 N   0  0  0  0  0  0  0  0  0  0  0  0
  -25.8810  -35.0750   23.4430 C   0  0  0  0  0  0  0  0  0  0  0  0
  -26.5560  -34.9500   22.4170 O   0  0  0  0  0  0  0  0  0  0  0  0
  -24.9300  -34.2070   25.0060 H   0  0  0  0  0  0  0  0  0  0  0  0
  -24.1890  -36.8950   23.0450 C   0  0  0  0  0  1  0  0  0  0  0  0
  -25.4100  -36.4760   23.8790 C   0  0  0  0  0  3  0  0  0  0  0  0
  -27.5440  -37.3370   24.7400 C   0  0  0  0  0  1  0  0  0  0  0  0
  -26.4620  -37.5110   23.7730 N   0  0  0  0  0  0  0  0  0  0  0  0
  -26.0690  -38.4400   23.9000 H   0  0  0  0  0  0  0  0  0  0  0  0
  -26.3340  -31.8740   25.1910 C   0  0  1  0  0  0  0  0  0  0  0  0
  -25.2360  -31.6630   26.2620 C   0  0  0  0  0  1  0  0  0  0  0  0
  -26.9050  -30.4850   24.8240 C   0  0  0  0  0  1  0  0  0  0  0  0
  -27.4910  -32.6690   25.8420 C   0  0  0  0  0  1  0  0  0  0  0  0
  2  3  2  0
  2  7  1  0
  3  4  1  0
  4  6  2  0
  4  5  1  0
  7  1  1  0
  7  6  1  0
 10  8  1  6
  9 10  1  0
 10 11  1  0
 10  3  1  0
 11 17  1  0
 11 18  2  0
 12 17  1  0
 13 14  1  0
 13 12  1  0
 15 14  1  0
 15 22  1  0
 15 16  1  0
 17 16  1  0
 19 20  2  0
 20 39  1  0
 21 20  1  0
 21 24  1  0
 22 19  1  0
 22 23  1  0
 23 21  2  0
 24 25  1  0
 25 26  2  0
 27 30  1  0
 27 26  1  0
 28 27  2  0
 29 28  1  0
 29 24  2  0
 30 31  1  0
 31 32  1  0
 32 33  2  0
 34 33  1  0
 34 38  1  0
 35 34  2  0
 36 31  2  0
 36 35  1  0
 37 36  1  0
 39 40  1  0
 40 43  1  0
 40 42  1  0
 41 39  2  0
 44 45  1  0
 44 19  1  0
 46 44  1  0
 47 48  1  0
 47  1  2  0
 49 50  1  0
 49 48  1  0
 51 62  2  0
 52 50  1  0
 52 57  1  0
 53 61  1  0
 53 63  1  0
 54 60  1  0
 54 56  1  0
 55 61  1  0
 56 55  1  0
 57 56  2  0
 58 59  1  0
 58 52  2  0
 59 54  2  0
 60 53  1  0
 61 51  1  0
 63 65  2  0
 64 63  1  0
 66 64  1  0
 67 76  2  0
 67 72  1  0
 68 64  1  0
 68 72  1  0
 69 68  1  0
 70 71  1  0
 70 69  1  0
 71 67  1  0
 72 73  2  0
 73 74  1  0
 75 74  2  0
 76 75  1  0
 77 51  1  0
 77 78  1  0
 77 87  1  0
 78 81  1  0
 79 83  1  0
 79 78  1  0
 80 79  2  0
 83 82  1  0
 85 83  1  0
 85 86  1  0
 85 84  1  0
 87 90  1  1
 87 88  1  0
 89 87  1  0
M  ISO  4  10 100  11 100  49 101  50 101
M  END
>  <TORSDO>  (48) 
F 21

>  <SCORE>  (48) 
-13.098

>  <name>  (48) 
48

>  <ligand_id>  (48) 
48

>  <original_smiles>  (48) 
[H]c1c([H])c([H])c2c(c1[H])C([H])([H])C([H])([H])C([H])([H])C2([H])N([H])C(=O)C1([H])N(C(=O)C([H])(N([H])C(=O)C([H])(N([H])C([H])([H])[H])C([H])([H])[H])C(C([H])([H])[H])(C([H])([H])[H])C([H])([H])[H])C([H])([H])c2c([H])c(OC([H])([H])C([H])([H])C([H])([H])C([H])([H])n3nc(C([H])([H])[H])c(C(C(=O)N4C([H])([H])C([H])([H])C([H])([H])C([H])(n5nc(-c6c([H])c([H])c(Oc7c([H])c([H])c(F)c([H])c7F)c([H])c6[H])c(C(=O)N([H])[H])c5N([H])[H])C4([H])[H])(C([H])([H])[H])C([H])([H])[H])c3[H])c([H])c([H])c2C1([H])[H]

>  <smiles>  (48) 
[H]c1c([H])c([H])c2c(c1[H])C([H])([H])C([H])([H])C([H])([H])C2([H])N([H])C(=O)C1([H])N(C(=O)C([H])(N([H])C(=O)C([H])(N([H])C([H])([H])[H])C([H])([H])[H])C(C([H])([H])[H])(C([H])([H])[H])C([H])([H])[H])C([H])([H])c2c([H])c(OC([H])([H])C([H])([H])C([H])([H])C([H])([H])n3nc(C([H])([H])[H])c(C(C(=O)N4C([H])([H])C([H])([H])C([H])([H])C([H])(n5nc(-c6c([H])c([H])c(Oc7c([H])c([H])c(F)c([H])c7F)c([H])c6[H])c(C(=O)N([H])[H])c5N([H])[H])C4([H])[H])(C([H])([H])[H])C([H])([H])[H])c3[H])c([H])c([H])c2C1([H])[H]

$$$$
49:0:0
     RDKit          3D

 94102  0  0  1  0  0  0  0  0999 V2000
  -27.8560  -22.1280   19.9420 C   0  0  0  0  0  3  0  0  0  0  0  0
  -29.0690  -21.4970   20.2790 C   0  0  0  0  0  0  0  0  0  0  0  0
  -26.8130  -21.4480   19.2930 C   0  0  0  0  0  0  0  0  0  0  0  0
  -29.1840  -20.0680   19.9230 C   0  0  0  0  0  0  0  0  0  0  0  0
  -27.0020  -20.0790   19.0260 C   0  0  0  0  0  0  0  0  0  0  0  0
  -25.9530  -19.2330   18.3270 C   0  0  0  0  0  1  0  0  0  0  0  0
  -28.1450  -19.4360   19.3300 N   0  0  0  0  0  0  0  0  0  0  0  0
  -25.8740  -22.9790   17.5290 C   0  0  0  0  0  1  0  0  0  0  0  0
  -25.0190  -23.1770   19.9170 C   0  0  0  0  0  1  0  0  0  0  0  0
  -25.5740  -22.2260   18.8360 C   0  0  0  0  0  3  0  0  0  0  0  0
  -30.1210  -22.5090   20.8930 C   0  0  0  0  0  2  0  0  0  0  0  0
  -29.6750  -24.0000   21.4200 C   0  0  0  0  0  3  0  0  0  0  0  0
  -29.1650  -25.2050   20.4650 C   0  0  0  0  0  3  0  0  0  0  0  0
  -29.1440  -26.6330   20.9470 O   0  0  0  0  0  0  0  0  0  0  0  0
  -24.8830  -31.9440   23.4750 C   0  0  0  0  0  0  0  0  0  0  0  0
  -27.9900  -27.4370   20.7690 C   0  0  0  0  0  0  0  0  0  0  0  0
  -23.8900  -30.4110   21.8160 C   0  0  0  0  0  3  0  0  0  0  0  0
  -25.5340  -28.9180   20.5420 C   0  0  0  0  0  0  0  0  0  0  0  0
  -26.4150  -30.8850   21.7940 C   0  0  0  0  0  2  0  0  0  0  0  0
  -26.6270  -29.4910   21.2020 C   0  0  0  0  0  0  0  0  0  0  0  0
  -27.8570  -28.7640   21.3060 C   0  0  0  0  0  3  0  0  0  0  0  0
  -26.8730  -26.9340   20.0640 C   0  0  0  0  0  3  0  0  0  0  0  0
  -25.6630  -27.6480   19.9610 C   0  0  0  0  0  3  0  0  0  0  0  0
  -24.2440  -29.7130   20.4770 C   0  0  0  0  0  2  0  0  0  0  0  0
  -25.0760  -31.1020   22.4170 N   0  0  0  0  0  0  0  0  0  0  0  0
  -23.7500  -32.1640   23.9270 O   0  0  0  0  0  0  0  0  0  0  0  0
  -23.2340  -29.3820   22.7700 C   0  0  0  0  0  0  0  0  0  0  0  0
  -21.9420  -29.0900   22.5510 N   0  0  0  0  0  0  0  0  0  0  0  0
  -23.8910  -28.8530   23.6710 O   0  0  0  0  0  0  0  0  0  0  0  0
  -21.4660  -29.5720   21.8000 H   0  0  0  0  0  0  0  0  0  0  0  0
  -18.6240  -27.6830   22.8930 C   0  0  0  0  0  0  0  0  0  0  0  0
  -21.1400  -28.1190   23.2990 C   0  0  0  0  0  3  0  0  0  0  0  0
  -21.3700  -26.6810   22.7760 C   0  0  0  0  0  2  0  0  0  0  0  0
  -20.3540  -26.2590   21.7110 C   0  0  0  0  0  2  0  0  0  0  0  0
  -18.9270  -26.3290   22.2680 C   0  0  0  0  0  2  0  0  0  0  0  0
  -19.6640  -28.5280   23.3630 C   0  0  0  0  0  0  0  0  0  0  0  0
  -19.3330  -29.7880   23.9060 C   0  0  0  0  0  3  0  0  0  0  0  0
  -17.9910  -30.2060   23.9890 C   0  0  0  0  0  3  0  0  0  0  0  0
  -16.9640  -29.3590   23.5370 C   0  0  0  0  0  3  0  0  0  0  0  0
  -17.2790  -28.1020   22.9920 C   0  0  0  0  0  3  0  0  0  0  0  0
  -26.0760  -32.6900   24.1490 C   0  0  0  0  0  3  0  0  0  0  0  0
  -25.6640  -34.0830   24.3730 N   0  0  0  0  0  0  0  0  0  0  0  0
  -25.9460  -35.1050   23.5540 C   0  0  0  0  0  0  0  0  0  0  0  0
  -26.6530  -34.9820   22.5500 O   0  0  0  0  0  0  0  0  0  0  0  0
  -25.0490  -34.2540   25.1570 H   0  0  0  0  0  0  0  0  0  0  0  0
  -24.0960  -36.7350   23.0570 C   0  0  0  0  0  1  0  0  0  0  0  0
  -25.3520  -36.4840   23.9050 C   0  0  0  0  0  3  0  0  0  0  0  0
  -27.4100  -37.5780   24.6760 C   0  0  0  0  0  1  0  0  0  0  0  0
  -26.3040  -37.6010   23.7250 N   0  0  0  0  0  0  0  0  0  0  0  0
  -25.8280  -38.4950   23.8180 H   0  0  0  0  0  0  0  0  0  0  0  0
  -26.5340  -32.0240   25.5050 C   0  0  1  0  0  0  0  0  0  0  0  0
  -25.3690  -31.7180   26.4750 C   0  0  0  0  0  1  0  0  0  0  0  0
  -27.2860  -30.6990   25.2390 C   0  0  0  0  0  1  0  0  0  0  0  0
  -27.5300  -32.9570   26.2350 C   0  0  0  0  0  1  0  0  0  0  0  0
  -30.4280  -19.0860   19.9180 C   0  0  0  0  0  2  0  0  0  0  0  0
  -30.5870  -17.8590   20.9920 C   0  0  0  0  0  2  0  0  0  0  0  0
  -30.8850  -15.2540   20.5890 C   0  0  0  0  0  0  0  0  0  0  0  0
  -30.7170  -12.9800   19.5550 C   0  0  0  0  0  2  0  0  0  0  0  0
  -29.8200  -13.0340   18.2990 C   0  0  0  0  0  2  0  0  0  0  0  0
  -28.3360  -12.8570   18.6800 C   0  0  0  0  0  2  0  0  0  0  0  0
  -27.9160  -13.7550   19.8750 C   0  0  0  0  0  3  0  0  0  0  0  0
  -28.9360  -13.6790   21.0320 C   0  0  0  0  0  2  0  0  0  0  0  0
  -30.2460  -14.0370   20.4770 N   0  0  0  0  0  0  0  0  0  0  0  0
  -32.0950  -15.3290   20.3600 O   0  0  0  0  0  0  0  0  0  0  0  0
  -30.1250  -16.4080   20.7610 N   0  0  0  0  0  0  0  0  0  0  0  0
  -29.1320  -16.2560   20.8440 H   0  0  0  0  0  0  0  0  0  0  0  0
  -25.5050  -14.3340   20.5240 C   0  0  0  0  0  0  0  0  0  0  0  0
  -24.4260  -13.5570   20.8440 C   0  0  0  0  0  0  0  0  0  0  0  0
  -24.8900  -12.2050   20.8190 C   0  0  0  0  0  0  0  0  0  0  0  0
  -26.5570  -13.4590   20.3200 N   0  0  0  0  0  0  0  0  0  0  0  0
  -26.1940  -12.1730   20.5650 N   0  0  0  0  0  0  0  0  0  0  0  0
  -24.1590  -10.9400   20.9660 C   0  0  0  0  0  0  0  0  0  0  0  0
  -24.5600   -9.9590   21.9000 C   0  0  0  0  0  3  0  0  0  0  0  0
  -23.8270   -8.7610   22.0370 C   0  0  0  0  0  3  0  0  0  0  0  0
  -22.6810   -8.5340   21.2400 C   0  0  0  0  0  0  0  0  0  0  0  0
  -22.3000   -9.5040   20.2960 C   0  0  0  0  0  3  0  0  0  0  0  0
  -23.0320  -10.6940   20.1570 C   0  0  0  0  0  3  0  0  0  0  0  0
  -21.9230   -7.3890   21.2850 O   0  0  0  0  0  0  0  0  0  0  0  0
  -21.8140   -6.6440   22.4320 C   0  0  0  0  0  0  0  0  0  0  0  0
  -21.3290   -7.1970   23.6360 C   0  0  0  0  0  3  0  0  0  0  0  0
  -21.1680   -6.3800   24.7720 C   0  0  0  0  0  3  0  0  0  0  0  0
  -21.4800   -5.0090   24.7040 C   0  0  0  0  0  0  0  0  0  0  0  0
  -21.9590   -4.4550   23.5030 C   0  0  0  0  0  3  0  0  0  0  0  0
  -22.1220   -5.2700   22.3690 C   0  0  0  0  0  0  0  0  0  0  0  0
  -22.5620   -4.7270   21.2100 F   0  0  0  0  0  0  0  0  0  0  0  0
  -21.3200   -4.2210   25.7920 F   0  0  0  0  0  0  0  0  0  0  0  0
  -23.0170  -14.0300   21.0600 C   0  0  0  0  0  0  0  0  0  0  0  0
  -22.2640  -13.3380   21.9080 N   0  0  0  0  0  0  0  0  0  0  0  0
  -22.5940  -15.0490   20.5160 O   0  0  0  0  0  0  0  0  0  0  0  0
  -22.6190  -12.5130   22.3670 H   0  0  0  0  0  0  0  0  0  0  0  0
  -21.3210  -13.6380   22.1030 H   0  0  0  0  0  0  0  0  0  0  0  0
  -25.6730  -15.7070   20.3690 N   0  0  0  0  0  0  0  0  0  0  0  0
  -24.8990  -16.3560   20.4550 H   0  0  0  0  0  0  0  0  0  0  0  0
  -26.5350  -16.1570   20.0860 H   0  0  0  0  0  0  0  0  0  0  0  0
  1  2  1  0
  2 11  1  0
  3  1  2  0
  4  2  2  0
  5  3  1  0
  5  7  2  0
  6  5  1  0
  7  4  1  0
  8 10  1  0
 10  3  1  0
 10  9  1  0
 11 12  1  0
 13 14  1  0
 13 12  2  0
 15 26  2  0
 16 14  1  0
 16 21  1  0
 17 25  1  0
 17 27  1  0
 18 20  1  0
 19 25  1  0
 20 21  2  0
 20 19  1  0
 22 16  2  0
 23 22  1  0
 23 18  2  0
 24 18  1  0
 24 17  1  0
 25 15  1  0
 27 29  2  0
 28 27  1  0
 30 28  1  0
 31 40  2  0
 31 36  1  0
 32 28  1  0
 32 36  1  0
 33 32  1  0
 34 35  1  0
 34 33  1  0
 35 31  1  0
 36 37  2  0
 37 38  1  0
 39 38  2  0
 40 39  1  0
 41 15  1  0
 41 42  1  0
 41 51  1  0
 42 45  1  0
 43 47  1  0
 43 42  1  0
 44 43  2  0
 47 46  1  0
 49 50  1  0
 49 47  1  0
 49 48  1  0
 51 54  1  1
 51 52  1  0
 53 51  1  0
 55  4  1  0
 55 56  1  0
 57 65  1  0
 58 63  1  0
 59 60  1  0
 59 58  1  0
 61 60  1  0
 61 70  1  0
 61 62  1  0
 63 57  1  0
 63 62  1  0
 64 57  2  0
 65 66  1  0
 65 56  1  0
 67 68  2  0
 68 87  1  0
 69 68  1  0
 69 72  1  0
 70 67  1  0
 70 71  1  0
 71 69  2  0
 72 73  1  0
 73 74  2  0
 75 78  1  0
 75 74  1  0
 76 75  2  0
 77 76  1  0
 77 72  2  0
 78 79  1  0
 79 80  1  0
 80 81  2  0
 82 81  1  0
 82 86  1  0
 83 82  2  0
 84 79  2  0
 84 83  1  0
 85 84  1  0
 87 88  1  0
 88 91  1  0
 88 90  1  0
 89 87  2  0
 92 93  1  0
 92 67  1  0
 94 92  1  0
M  ISO  4  13 101  14 101  57 100  65 100
M  END
>  <TORSDO>  (49) 
F 22

>  <SCORE>  (49) 
-11.701

>  <name>  (49) 
49

>  <ligand_id>  (49) 
49

>  <original_smiles>  (49) 
[H]c1c([H])c([H])c2c(c1[H])C([H])([H])C([H])([H])C([H])([H])C2([H])N([H])C(=O)C1([H])N(C(=O)C([H])(N([H])C(=O)C([H])(N([H])C([H])([H])[H])C([H])([H])[H])C(C([H])([H])[H])(C([H])([H])[H])C([H])([H])[H])C([H])([H])c2c([H])c(OC([H])([H])C([H])([H])C([H])([H])c3c(C([H])([H])C([H])([H])N([H])C(=O)N4C([H])([H])C([H])([H])C([H])([H])C([H])(n5nc(-c6c([H])c([H])c(Oc7c([H])c([H])c(F)c([H])c7F)c([H])c6[H])c(C(=O)N([H])[H])c5N([H])[H])C4([H])[H])nc(C([H])([H])[H])c(C([H])(C([H])([H])[H])C([H])([H])[H])c3[H])c([H])c([H])c2C1([H])[H]

>  <smiles>  (49) 
[H]c1c([H])c([H])c2c(c1[H])C([H])([H])C([H])([H])C([H])([H])C2([H])N([H])C(=O)C1([H])N(C(=O)C([H])(N([H])C(=O)C([H])(N([H])C([H])([H])[H])C([H])([H])[H])C(C([H])([H])[H])(C([H])([H])[H])C([H])([H])[H])C([H])([H])c2c([H])c(OC([H])([H])C([H])([H])C([H])([H])c3c(C([H])([H])C([H])([H])N([H])C(=O)N4C([H])([H])C([H])([H])C([H])([H])C([H])(n5nc(-c6c([H])c([H])c(Oc7c([H])c([H])c(F)c([H])c7F)c([H])c6[H])c(C(=O)N([H])[H])c5N([H])[H])C4([H])[H])nc(C([H])([H])[H])c(C([H])(C([H])([H])[H])C([H])([H])[H])c3[H])c([H])c([H])c2C1([H])[H]

$$$$
50:0:0
     RDKit          3D

 99107  0  0  1  0  0  0  0  0999 V2000
  -30.4470  -20.2490   18.8580 C   0  0  0  0  0  3  0  0  0  0  0  0
  -30.0040  -21.5470   18.4810 C   0  0  0  0  0  3  0  0  0  0  0  0
  -29.6090  -19.3850   19.6040 C   0  0  0  0  0  0  0  0  0  0  0  0
  -28.7080  -22.0100   18.8170 C   0  0  0  0  0  0  0  0  0  0  0  0
  -28.3240  -19.9380   19.9150 C   0  0  0  0  0  0  0  0  0  0  0  0
  -27.8870  -21.1750   19.5040 N   0  0  0  0  0  0  0  0  0  0  0  0
  -28.1670  -23.3830   18.2450 C   0  0  0  0  0  2  0  0  0  0  0  0
  -27.8040  -24.6050   19.1910 C   0  0  0  0  0  2  0  0  0  0  0  0
  -27.8720  -25.9880   18.6630 O   0  0  0  0  0  0  0  0  0  0  0  0
  -25.4450  -30.8890   23.3700 C   0  0  0  0  0  0  0  0  0  0  0  0
  -26.9050  -26.9320   19.0160 C   0  0  0  0  0  0  0  0  0  0  0  0
  -23.8790  -30.2090   21.5830 C   0  0  0  0  0  3  0  0  0  0  0  0
  -24.8960  -28.8530   19.6650 C   0  0  0  0  0  0  0  0  0  0  0  0
  -26.4110  -30.1290   21.1880 C   0  0  0  0  0  2  0  0  0  0  0  0
  -26.1750  -28.9720   20.2240 C   0  0  0  0  0  0  0  0  0  0  0  0
  -27.1850  -28.0280   19.8880 C   0  0  0  0  0  3  0  0  0  0  0  0
  -25.6120  -26.8520   18.4600 C   0  0  0  0  0  3  0  0  0  0  0  0
  -24.6160  -27.7990   18.7770 C   0  0  0  0  0  3  0  0  0  0  0  0
  -23.8600  -29.8860   20.0640 C   0  0  0  0  0  2  0  0  0  0  0  0
  -25.2710  -30.4070   22.1040 N   0  0  0  0  0  0  0  0  0  0  0  0
  -24.4770  -31.1950   24.0810 O   0  0  0  0  0  0  0  0  0  0  0  0
  -23.0960  -29.1070   22.3340 C   0  0  0  0  0  0  0  0  0  0  0  0
  -21.7560  -29.1370   22.2260 N   0  0  0  0  0  0  0  0  0  0  0  0
  -23.6910  -28.2370   22.9750 O   0  0  0  0  0  0  0  0  0  0  0  0
  -21.3410  -29.8830   21.6870 H   0  0  0  0  0  0  0  0  0  0  0  0
  -18.2580  -28.2700   22.5160 C   0  0  0  0  0  0  0  0  0  0  0  0
  -20.8250  -28.1720   22.8130 C   0  0  0  0  0  3  0  0  0  0  0  0
  -20.7720  -26.8730   21.9750 C   0  0  0  0  0  2  0  0  0  0  0  0
  -19.6560  -26.8800   20.9270 C   0  0  0  0  0  2  0  0  0  0  0  0
  -18.2880  -27.0610   21.5950 C   0  0  0  0  0  2  0  0  0  0  0  0
  -19.4500  -28.8000   23.0750 C   0  0  0  0  0  0  0  0  0  0  0  0
  -19.3690  -29.9450   23.8980 C   0  0  0  0  0  3  0  0  0  0  0  0
  -18.1290  -30.5530   24.1670 C   0  0  0  0  0  3  0  0  0  0  0  0
  -16.9500  -30.0120   23.6250 C   0  0  0  0  0  3  0  0  0  0  0  0
  -17.0160  -28.8730   22.8030 C   0  0  0  0  0  3  0  0  0  0  0  0
  -26.8660  -31.1010   23.9760 C   0  0  0  0  0  3  0  0  0  0  0  0
  -27.3710  -29.8660   24.8200 C   0  0  1  0  0  0  0  0  0  0  0  0
  -26.3610  -29.3880   25.8880 C   0  0  0  0  0  1  0  0  0  0  0  0
  -27.6810  -28.6660   23.8940 C   0  0  0  0  0  1  0  0  0  0  0  0
  -28.6960  -30.2250   25.5310 C   0  0  0  0  0  1  0  0  0  0  0  0
  -26.8210  -32.3100   24.8100 N   0  0  0  0  0  0  0  0  0  0  0  0
  -27.3230  -33.5010   24.4520 C   0  0  0  0  0  0  0  0  0  0  0  0
  -27.9370  -33.6780   23.3970 O   0  0  0  0  0  0  0  0  0  0  0  0
  -26.2840  -32.2510   25.6630 H   0  0  0  0  0  0  0  0  0  0  0  0
  -25.9550  -35.5630   24.9030 C   0  0  0  0  0  1  0  0  0  0  0  0
  -27.1040  -34.6830   25.4170 C   0  0  0  0  0  3  0  0  0  0  0  0
  -29.3580  -34.8310   26.3780 C   0  0  0  0  0  1  0  0  0  0  0  0
  -28.3140  -35.5100   25.6160 N   0  0  0  0  0  0  0  0  0  0  0  0
  -28.0830  -36.3760   26.0980 H   0  0  0  0  0  0  0  0  0  0  0  0
  -27.3280  -19.1990   20.8060 C   0  0  0  0  0  2  0  0  0  0  0  0
  -26.9610  -17.7820   20.3330 C   0  0  0  0  0  2  0  0  0  0  0  0
  -27.2630  -16.7390   21.4370 C   0  0  0  0  0  2  0  0  0  0  0  0
  -25.5540  -14.8570   21.5000 C   0  0  0  0  0  1  0  0  0  0  0  0
  -27.2060  -14.9700   19.6060 C   0  0  0  0  0  1  0  0  0  0  0  0
  -27.9730  -14.3840   21.9110 C   0  0  0  0  0  1  0  0  0  0  0  0
  -26.9890  -15.2510   21.1020 C   0  0  1  0  0  0  0  0  0  0  0  0
  -30.1110  -17.9600   20.0990 C   0  0  0  0  0  3  0  0  0  0  0  0
  -31.6320  -17.9700   20.4060 C   0  0  0  0  0  2  0  0  0  0  0  0
  -33.6590  -19.4330   20.9450 C   0  0  0  0  0  1  0  0  0  0  0  0
  -32.1540  -19.2130   21.1450 C   0  0  0  0  0  2  0  0  0  0  0  0
  -29.8070  -16.6970   19.1820 C   0  0  0  0  0  2  0  0  0  0  0  0
  -30.6990  -14.2940   19.6030 C   0  0  0  0  0  0  0  0  0  0  0  0
  -30.6590  -11.9320   18.8360 C   0  0  0  0  0  2  0  0  0  0  0  0
  -29.7070  -11.8350   17.6220 C   0  0  0  0  0  2  0  0  0  0  0  0
  -28.2570  -11.6030   18.0870 C   0  0  0  0  0  2  0  0  0  0  0  0
  -27.8310  -12.5830   19.2130 C   0  0  0  0  0  3  0  0  0  0  0  0
  -28.8980  -12.6650   20.3290 C   0  0  0  0  0  2  0  0  0  0  0  0
  -30.1770  -13.0290   19.7000 N   0  0  0  0  0  0  0  0  0  0  0  0
  -31.8230  -14.4880   19.1310 O   0  0  0  0  0  0  0  0  0  0  0  0
  -29.8390  -15.3340   19.8310 N   0  0  0  0  0  0  0  0  0  0  0  0
  -28.9780  -15.0630   20.2820 H   0  0  0  0  0  0  0  0  0  0  0  0
  -25.4100  -13.0760   19.9150 C   0  0  0  0  0  0  0  0  0  0  0  0
  -24.4060  -12.2710   20.3790 C   0  0  0  0  0  0  0  0  0  0  0  0
  -24.9600  -10.9560   20.4570 C   0  0  0  0  0  0  0  0  0  0  0  0
  -26.5110  -12.2530   19.7440 N   0  0  0  0  0  0  0  0  0  0  0  0
  -26.2460  -10.9780   20.1270 N   0  0  0  0  0  0  0  0  0  0  0  0
  -24.3260   -9.6680   20.7660 C   0  0  0  0  0  0  0  0  0  0  0  0
  -24.6990   -8.9140   21.9010 C   0  0  0  0  0  3  0  0  0  0  0  0
  -24.0600   -7.6880   22.1860 C   0  0  0  0  0  3  0  0  0  0  0  0
  -23.0360   -7.2060   21.3370 C   0  0  0  0  0  0  0  0  0  0  0  0
  -22.6850   -7.9490   20.1960 C   0  0  0  0  0  3  0  0  0  0  0  0
  -23.3250   -9.1660   19.9100 C   0  0  0  0  0  3  0  0  0  0  0  0
  -22.3780   -6.0140   21.5220 O   0  0  0  0  0  0  0  0  0  0  0  0
  -21.8930   -5.6430   22.7500 C   0  0  0  0  0  0  0  0  0  0  0  0
  -20.9810   -6.4500   23.4670 C   0  0  0  0  0  3  0  0  0  0  0  0
  -20.4560   -5.9980   24.6940 C   0  0  0  0  0  3  0  0  0  0  0  0
  -20.8310   -4.7390   25.2010 C   0  0  0  0  0  0  0  0  0  0  0  0
  -21.7360   -3.9340   24.4870 C   0  0  0  0  0  3  0  0  0  0  0  0
  -22.2620   -4.3840   23.2640 C   0  0  0  0  0  0  0  0  0  0  0  0
  -23.1160   -3.5940   22.5690 F   0  0  0  0  0  0  0  0  0  0  0  0
  -20.3200   -4.3030   26.3760 F   0  0  0  0  0  0  0  0  0  0  0  0
  -22.9840  -12.6760   20.6390 C   0  0  0  0  0  0  0  0  0  0  0  0
  -22.3350  -12.0440   21.6110 N   0  0  0  0  0  0  0  0  0  0  0  0
  -22.4520  -13.5900   20.0080 O   0  0  0  0  0  0  0  0  0  0  0  0
  -22.7770  -11.3090   22.1410 H   0  0  0  0  0  0  0  0  0  0  0  0
  -21.3830  -12.3010   21.8300 H   0  0  0  0  0  0  0  0  0  0  0  0
  -25.4750  -14.4280   19.5990 N   0  0  0  0  0  0  0  0  0  0  0  0
  -24.6660  -15.0350   19.6740 H   0  0  0  0  0  0  0  0  0  0  0  0
  -26.2810  -14.8890   19.1970 H   0  0  0  0  0  0  0  0  0  0  0  0
  1  3  1  0
  2  4  1  0
  2  1  2  0
  3  5  2  0
  3 57  1  0
  4  6  2  0
  5 50  1  0
  6  5  1  0
  7  4  1  0
  7  8  1  0
  9 11  1  0
  9  8  1  0
 10 21  2  0
 11 16  1  0
 12 20  1  0
 12 22  1  0
 13 19  1  0
 13 15  1  0
 14 20  1  0
 15 14  1  0
 16 15  2  0
 17 18  1  0
 17 11  2  0
 18 13  2  0
 19 12  1  0
 20 10  1  0
 22 24  2  0
 23 22  1  0
 25 23  1  0
 26 35  2  0
 26 31  1  0
 27 23  1  0
 27 31  1  0
 28 27  1  0
 29 30  1  0
 29 28  1  0
 30 26  1  0
 31 32  2  0
 32 33  1  0
 34 33  2  0
 35 34  1  0
 36 10  1  0
 36 41  1  0
 36 37  1  0
 37 40  1  1
 37 38  1  0
 39 37  1  0
 41 44  1  0
 42 41  1  0
 42 46  1  0
 43 42  2  0
 46 45  1  0
 46 48  1  0
 48 49  1  0
 48 47  1  0
 51 50  1  0
 51 52  1  0
 56 54  1  6
 56 52  1  0
 56 53  1  0
 56 55  1  0
 57 61  1  0
 57 58  1  0
 58 60  1  0
 59 60  1  0
 61 70  1  0
 62 68  1  0
 62 70  1  0
 63 68  1  0
 64 65  1  0
 64 63  1  0
 66 65  1  0
 66 75  1  0
 66 67  1  0
 68 67  1  0
 69 62  2  0
 70 71  1  0
 72 73  2  0
 73 74  1  0
 73 92  1  0
 74 77  1  0
 75 72  1  0
 75 76  1  0
 76 74  2  0
 77 78  1  0
 78 79  2  0
 80 83  1  0
 80 79  1  0
 81 80  2  0
 82 81  1  0
 82 77  2  0
 83 84  1  0
 84 89  2  0
 84 85  1  0
 85 86  2  0
 86 87  1  0
 87 91  1  0
 88 87  2  0
 89 88  1  0
 90 89  1  0
 92 93  1  0
 93 96  1  0
 93 95  1  0
 94 92  2  0
 97 98  1  0
 97 72  1  0
 99 97  1  0
M  ISO  4   8 101   9 101  62 100  70 100
M  END
>  <TORSDO>  (50) 
F 26

>  <SCORE>  (50) 
-3.950

>  <name>  (50) 
50

>  <ligand_id>  (50) 
50

>  <original_smiles>  (50) 
[H]c1c(C([H])([H])C([H])([H])Oc2c([H])c([H])c3c(c2[H])C([H])([H])N(C(=O)C([H])(N([H])C(=O)C([H])(N([H])C([H])([H])[H])C([H])([H])[H])C(C([H])([H])[H])(C([H])([H])[H])C([H])([H])[H])C([H])(C(=O)N([H])C2([H])c4c([H])c([H])c([H])c([H])c4C([H])([H])C([H])([H])C2([H])[H])C3([H])[H])nc(C([H])([H])C([H])([H])C([H])([H])C(C([H])([H])[H])(C([H])([H])[H])C([H])([H])[H])c(C([H])(C([H])([H])N([H])C(=O)N2C([H])([H])C([H])([H])C([H])([H])C([H])(n3nc(-c4c([H])c([H])c(Oc5c([H])c([H])c(F)c([H])c5F)c([H])c4[H])c(C(=O)N([H])[H])c3N([H])[H])C2([H])[H])C([H])([H])C([H])([H])C([H])([H])[H])c1[H]

>  <smiles>  (50) 
[H]c1c(C([H])([H])C([H])([H])Oc2c([H])c([H])c3c(c2[H])C([H])([H])N(C(=O)C([H])(N([H])C(=O)C([H])(N([H])C([H])([H])[H])C([H])([H])[H])C(C([H])([H])[H])(C([H])([H])[H])C([H])([H])[H])C([H])(C(=O)N([H])C2([H])c4c([H])c([H])c([H])c([H])c4C([H])([H])C([H])([H])C2([H])[H])C3([H])[H])nc(C([H])([H])C([H])([H])C([H])([H])C(C([H])([H])[H])(C([H])([H])[H])C([H])([H])[H])c(C([H])(C([H])([H])N([H])C(=O)N2C([H])([H])C([H])([H])C([H])([H])C([H])(n3nc(-c4c([H])c([H])c(Oc5c([H])c([H])c(F)c([H])c5F)c([H])c4[H])c(C(=O)N([H])[H])c3N([H])[H])C2([H])[H])C([H])([H])C([H])([H])C([H])([H])[H])c1[H]

$$$$
51:0:0
     RDKit          3D

 96104  0  0  1  0  0  0  0  0999 V2000
  -29.4800  -19.0810   20.5880 C   0  0  0  0  0  3  0  0  0  0  0  0
  -30.0170  -18.1790   19.6900 C   0  0  0  0  0  0  0  0  0  0  0  0
  -30.5300  -20.2650   19.0220 C   0  0  0  0  0  3  0  0  0  0  0  0
  -29.7710  -20.3700   20.1440 N   0  0  0  0  0  0  0  0  0  0  0  0
  -30.6710  -18.9610   18.7850 N   0  0  0  0  0  0  0  0  0  0  0  0
  -31.1570  -18.6010   17.9720 H   0  0  0  0  0  0  0  0  0  0  0  0
  -32.4520  -20.8700   17.5010 C   0  0  0  0  0  1  0  0  0  0  0  0
  -31.0530  -21.2650   18.0190 C   0  0  0  0  0  3  0  0  0  0  0  0
  -30.3260  -22.6040   15.9210 C   0  0  0  0  0  1  0  0  0  0  0  0
  -30.0410  -21.4230   16.8600 C   0  0  0  0  0  2  0  0  0  0  0  0
  -28.7250  -16.5340   18.4210 C   0  0  0  0  0  1  0  0  0  0  0  0
  -29.9270  -16.6970   19.3690 C   0  0  0  0  0  3  0  0  0  0  0  0
  -30.6750  -14.5900   20.4110 C   0  0  0  0  0  0  0  0  0  0  0  0
  -30.3890  -12.3950   19.3500 C   0  0  0  0  0  2  0  0  0  0  0  0
  -29.4540  -12.6010   18.1390 C   0  0  0  0  0  2  0  0  0  0  0  0
  -27.9730  -12.5010   18.5650 C   0  0  0  0  0  2  0  0  0  0  0  0
  -27.6370  -13.3070   19.8500 C   0  0  0  0  0  3  0  0  0  0  0  0
  -28.7050  -13.1030   20.9500 C   0  0  0  0  0  2  0  0  0  0  0  0
  -30.0200  -13.3950   20.3660 N   0  0  0  0  0  0  0  0  0  0  0  0
  -31.8570  -14.7100   20.0820 O   0  0  0  0  0  0  0  0  0  0  0  0
  -29.8670  -15.6780   20.4460 N   0  0  0  0  0  0  0  0  0  0  0  0
  -28.9530  -15.5190   20.8380 H   0  0  0  0  0  0  0  0  0  0  0  0
  -25.2430  -13.8970   20.5720 C   0  0  0  0  0  0  0  0  0  0  0  0
  -24.1790  -13.1160   20.9360 C   0  0  0  0  0  0  0  0  0  0  0  0
  -24.6480  -11.7670   20.8920 C   0  0  0  0  0  0  0  0  0  0  0  0
  -26.2910  -13.0220   20.3310 N   0  0  0  0  0  0  0  0  0  0  0  0
  -25.9380  -11.7360   20.5800 N   0  0  0  0  0  0  0  0  0  0  0  0
  -23.9300  -10.4990   21.0700 C   0  0  0  0  0  0  0  0  0  0  0  0
  -24.3570   -9.5360   22.0110 C   0  0  0  0  0  3  0  0  0  0  0  0
  -23.6410   -8.3320   22.1770 C   0  0  0  0  0  3  0  0  0  0  0  0
  -22.4830   -8.0830   21.4030 C   0  0  0  0  0  0  0  0  0  0  0  0
  -22.0770   -9.0350   20.4510 C   0  0  0  0  0  3  0  0  0  0  0  0
  -22.7940  -10.2310   20.2830 C   0  0  0  0  0  3  0  0  0  0  0  0
  -21.7380   -6.9320   21.4800 O   0  0  0  0  0  0  0  0  0  0  0  0
  -21.6600   -6.2010   22.6390 C   0  0  0  0  0  0  0  0  0  0  0  0
  -21.1670   -6.7570   23.8390 C   0  0  0  0  0  3  0  0  0  0  0  0
  -21.0400   -5.9520   24.9890 C   0  0  0  0  0  3  0  0  0  0  0  0
  -21.3940   -4.5910   24.9370 C   0  0  0  0  0  0  0  0  0  0  0  0
  -21.8790   -4.0330   23.7400 C   0  0  0  0  0  3  0  0  0  0  0  0
  -22.0090   -4.8360   22.5940 C   0  0  0  0  0  0  0  0  0  0  0  0
  -22.4590   -4.2910   21.4380 F   0  0  0  0  0  0  0  0  0  0  0  0
  -21.2640   -3.8130   26.0370 F   0  0  0  0  0  0  0  0  0  0  0  0
  -22.7810  -13.5830   21.2150 C   0  0  0  0  0  0  0  0  0  0  0  0
  -22.0580  -12.8700   22.0710 N   0  0  0  0  0  0  0  0  0  0  0  0
  -22.3370  -14.6140   20.7130 O   0  0  0  0  0  0  0  0  0  0  0  0
  -22.4300  -12.0350   22.4980 H   0  0  0  0  0  0  0  0  0  0  0  0
  -21.1180  -13.1620   22.3030 H   0  0  0  0  0  0  0  0  0  0  0  0
  -25.3990  -15.2690   20.4030 N   0  0  0  0  0  0  0  0  0  0  0  0
  -24.6190  -15.9090   20.5080 H   0  0  0  0  0  0  0  0  0  0  0  0
  -26.2240  -15.7190   20.0340 H   0  0  0  0  0  0  0  0  0  0  0  0
  -29.2930  -21.6220   20.8430 C   0  0  0  0  0  3  0  0  0  0  0  0
  -29.3790  -23.0120   20.1220 C   0  0  0  0  0  3  0  0  0  0  0  0
  -29.1370  -24.5250   22.1750 C   0  0  0  0  0  1  0  0  0  0  0  0
  -28.6380  -24.2440   20.7470 C   0  0  0  0  0  3  0  0  0  0  0  0
  -28.7990  -25.5100   19.8320 C   0  0  0  0  0  2  0  0  0  0  0  0
  -28.5810  -26.8010   20.4450 O   0  0  0  0  0  0  0  0  0  0  0  0
  -24.5920  -31.9480   23.3190 C   0  0  0  0  0  0  0  0  0  0  0  0
  -27.3760  -27.4790   20.3670 C   0  0  0  0  0  0  0  0  0  0  0  0
  -23.4490  -30.5080   21.6630 C   0  0  0  0  0  3  0  0  0  0  0  0
  -24.9580  -28.9680   20.2970 C   0  0  0  0  0  0  0  0  0  0  0  0
  -25.9740  -30.8940   21.5270 C   0  0  0  0  0  2  0  0  0  0  0  0
  -26.0940  -29.5140   20.9060 C   0  0  0  0  0  0  0  0  0  0  0  0
  -27.3010  -28.7760   20.9350 C   0  0  0  0  0  3  0  0  0  0  0  0
  -26.2160  -26.9480   19.7570 C   0  0  0  0  0  3  0  0  0  0  0  0
  -25.0170  -27.6880   19.7180 C   0  0  0  0  0  3  0  0  0  0  0  0
  -23.7030  -29.8130   20.2980 C   0  0  0  0  0  2  0  0  0  0  0  0
  -24.6890  -31.1340   22.2290 N   0  0  0  0  0  0  0  0  0  0  0  0
  -23.4940  -32.2110   23.8280 O   0  0  0  0  0  0  0  0  0  0  0  0
  -22.7860  -29.4920   22.6220 C   0  0  0  0  0  0  0  0  0  0  0  0
  -21.4680  -29.2860   22.4600 N   0  0  0  0  0  0  0  0  0  0  0  0
  -23.4540  -28.8900   23.4670 O   0  0  0  0  0  0  0  0  0  0  0  0
  -20.9890  -29.8280   21.7530 H   0  0  0  0  0  0  0  0  0  0  0  0
  -18.0990  -28.0450   22.8800 C   0  0  0  0  0  0  0  0  0  0  0  0
  -20.6430  -28.3450   23.2200 C   0  0  0  0  0  3  0  0  0  0  0  0
  -20.7850  -26.9100   22.6640 C   0  0  0  0  0  2  0  0  0  0  0  0
  -19.7160  -26.5580   21.6230 C   0  0  0  0  0  2  0  0  0  0  0  0
  -18.3140  -26.6900   22.2260 C   0  0  0  0  0  2  0  0  0  0  0  0
  -19.1930  -28.8280   23.3320 C   0  0  0  0  0  0  0  0  0  0  0  0
  -18.9400  -30.0950   23.9020 C   0  0  0  0  0  3  0  0  0  0  0  0
  -17.6250  -30.5790   24.0250 C   0  0  0  0  0  3  0  0  0  0  0  0
  -16.5440  -29.7920   23.5900 C   0  0  0  0  0  3  0  0  0  0  0  0
  -16.7820  -28.5270   23.0250 C   0  0  0  0  0  3  0  0  0  0  0  0
  -25.8530  -32.6050   23.9640 C   0  0  0  0  0  3  0  0  0  0  0  0
  -25.5240  -34.0070   24.2510 N   0  0  0  0  0  0  0  0  0  0  0  0
  -25.8720  -35.0430   23.4760 C   0  0  0  0  0  0  0  0  0  0  0  0
  -26.5730  -34.9200   22.4680 O   0  0  0  0  0  0  0  0  0  0  0  0
  -24.9070  -34.1760   25.0300 H   0  0  0  0  0  0  0  0  0  0  0  0
  -24.1480  -36.8160   23.0190 C   0  0  0  0  0  1  0  0  0  0  0  0
  -25.3600  -36.4380   23.8840 C   0  0  0  0  0  3  0  0  0  0  0  0
  -27.4550  -37.3600   24.7740 C   0  0  0  0  0  1  0  0  0  0  0  0
  -26.3900  -37.4950   23.7840 N   0  0  0  0  0  0  0  0  0  0  0  0
  -25.9730  -38.4160   23.8910 H   0  0  0  0  0  0  0  0  0  0  0  0
  -26.3360  -31.8680   25.2740 C   0  0  1  0  0  0  0  0  0  0  0  0
  -25.2120  -31.6430   26.3110 C   0  0  0  0  0  1  0  0  0  0  0  0
  -26.9470  -30.4910   24.9310 C   0  0  0  0  0  1  0  0  0  0  0  0
  -27.4570  -32.6910   25.9560 C   0  0  0  0  0  1  0  0  0  0  0  0
  2  1  2  0
  3  8  1  0
  3  4  1  0
  4  1  1  0
  4 51  1  0
  5  3  1  0
  5  2  1  0
  6  5  1  0
  8  7  1  0
  9 10  1  0
 10  8  1  0
 12 11  1  0
 12  2  1  0
 12 21  1  0
 13 21  1  0
 14 19  1  0
 15 16  1  0
 15 14  1  0
 17 16  1  0
 17 26  1  0
 17 18  1  0
 19 13  1  0
 19 18  1  0
 20 13  2  0
 21 22  1  0
 23 24  2  0
 24 43  1  0
 25 24  1  0
 25 28  1  0
 26 23  1  0
 26 27  1  0
 27 25  2  0
 28 29  1  0
 29 30  2  0
 31 34  1  0
 31 30  1  0
 32 31  2  0
 33 32  1  0
 33 28  2  0
 34 35  1  0
 35 36  1  0
 36 37  2  0
 38 37  1  0
 38 42  1  0
 39 38  2  0
 40 35  2  0
 40 39  1  0
 41 40  1  0
 43 44  1  0
 44 47  1  0
 44 46  1  0
 45 43  2  0
 48 49  1  0
 48 23  1  0
 50 48  1  0
 52 54  1  0
 52 51  2  0
 54 53  1  0
 55 56  1  0
 55 54  1  0
 57 68  2  0
 58 56  1  0
 58 63  1  0
 59 67  1  0
 59 69  1  0
 60 66  1  0
 60 62  1  0
 61 67  1  0
 62 63  2  0
 62 61  1  0
 64 58  2  0
 65 64  1  0
 65 60  2  0
 66 59  1  0
 67 57  1  0
 69 71  2  0
 70 69  1  0
 72 70  1  0
 73 82  2  0
 73 78  1  0
 74 70  1  0
 74 78  1  0
 75 74  1  0
 76 77  1  0
 76 75  1  0
 77 73  1  0
 78 79  2  0
 79 80  1  0
 81 80  2  0
 82 81  1  0
 83 57  1  0
 83 84  1  0
 83 93  1  0
 84 87  1  0
 85 89  1  0
 85 84  1  0
 86 85  2  0
 89 88  1  0
 91 89  1  0
 91 92  1  0
 91 90  1  0
 93 96  1  1
 93 94  1  0
 95 93  1  0
M  ISO  4  13 100  21 100  55 101  56 101
M  END
>  <TORSDO>  (51) 
F 23

>  <SCORE>  (51) 
-12.710

>  <name>  (51) 
51

>  <ligand_id>  (51) 
51

>  <original_smiles>  (51) 
[H]c1c([H])c([H])c2c(c1[H])C([H])([H])C([H])([H])C([H])([H])C2([H])N([H])C(=O)C1([H])N(C(=O)C([H])(N([H])C(=O)C([H])(N([H])C([H])([H])[H])C([H])([H])[H])C(C([H])([H])[H])(C([H])([H])[H])C([H])([H])[H])C([H])([H])c2c([H])c(OC([H])([H])C([H])(C([H])([H])[H])C([H])([H])C([H])([H])n3c([H])c(C([H])(N([H])C(=O)N4C([H])([H])C([H])([H])C([H])([H])C([H])(n5nc(-c6c([H])c([H])c(Oc7c([H])c([H])c(F)c([H])c7F)c([H])c6[H])c(C(=O)N([H])[H])c5N([H])[H])C4([H])[H])C([H])([H])[H])[n+]([H])c3C([H])(C([H])([H])[H])C([H])([H])C([H])([H])[H])c([H])c([H])c2C1([H])[H]

>  <smiles>  (51) 
[H]c1c([H])c([H])c2c(c1[H])C([H])([H])C([H])([H])C([H])([H])C2([H])N([H])C(=O)C1([H])N(C(=O)C([H])(N([H])C(=O)C([H])(N([H])C([H])([H])[H])C([H])([H])[H])C(C([H])([H])[H])(C([H])([H])[H])C([H])([H])[H])C([H])([H])c2c([H])c(OC([H])([H])C([H])(C([H])([H])[H])C([H])([H])C([H])([H])n3c([H])c(C([H])(N([H])C(=O)N4C([H])([H])C([H])([H])C([H])([H])C([H])(n5nc(-c6c([H])c([H])c(Oc7c([H])c([H])c(F)c([H])c7F)c([H])c6[H])c(C(=O)N([H])[H])c5N([H])[H])C4([H])[H])C([H])([H])[H])[n+]([H])c3C([H])(C([H])([H])[H])C([H])([H])C([H])([H])[H])c([H])c([H])c2C1([H])[H]

$$$$
52:0:0
     RDKit          3D

 95103  0  0  1  0  0  0  0  0999 V2000
  -29.6450  -22.1860   19.9100 C   0  0  0  0  0  3  0  0  0  0  0  0
  -28.4230  -23.0400   20.0160 C   0  0  0  0  0  0  0  0  0  0  0  0
  -27.2980  -22.3460   19.4760 C   0  0  0  0  0  0  0  0  0  0  0  0
  -29.7270  -20.8410   19.2680 C   0  0  0  0  0  0  0  0  0  0  0  0
  -27.4440  -21.0940   18.8050 C   0  0  0  0  0  0  0  0  0  0  0  0
  -25.8850  -22.8510   19.7070 C   0  0  0  0  0  1  0  0  0  0  0  0
  -26.2490  -20.3870   18.1840 C   0  0  0  0  0  1  0  0  0  0  0  0
  -28.5900  -20.3860   18.7120 N   0  0  0  0  0  0  0  0  0  0  0  0
  -28.2120  -24.4420   20.9240 C   0  0  0  0  0  2  0  0  0  0  0  0
  -28.4250  -25.9650   20.5820 O   0  0  0  0  0  0  0  0  0  0  0  0
  -24.5840  -31.7240   23.3350 C   0  0  0  0  0  0  0  0  0  0  0  0
  -27.3960  -26.9850   20.5380 C   0  0  0  0  0  0  0  0  0  0  0  0
  -23.5520  -30.3720   21.5520 C   0  0  0  0  0  3  0  0  0  0  0  0
  -25.1260  -28.7950   20.2710 C   0  0  0  0  0  0  0  0  0  0  0  0
  -26.1130  -30.5820   21.6860 C   0  0  0  0  0  2  0  0  0  0  0  0
  -26.2330  -29.1940   21.0330 C   0  0  0  0  0  0  0  0  0  0  0  0
  -27.3690  -28.3010   21.1610 C   0  0  0  0  0  3  0  0  0  0  0  0
  -26.3030  -26.7380   19.6870 C   0  0  0  0  0  3  0  0  0  0  0  0
  -25.1780  -27.5790   19.5810 C   0  0  0  0  0  3  0  0  0  0  0  0
  -23.9180  -29.7160   20.1940 C   0  0  0  0  0  2  0  0  0  0  0  0
  -24.7640  -30.9150   22.2460 N   0  0  0  0  0  0  0  0  0  0  0  0
  -23.4510  -32.0190   23.7440 O   0  0  0  0  0  0  0  0  0  0  0  0
  -22.7580  -29.3600   22.4150 C   0  0  0  0  0  0  0  0  0  0  0  0
  -21.4340  -29.2710   22.1950 N   0  0  0  0  0  0  0  0  0  0  0  0
  -23.3390  -28.6590   23.2480 O   0  0  0  0  0  0  0  0  0  0  0  0
  -21.0260  -29.8840   21.5040 H   0  0  0  0  0  0  0  0  0  0  0  0
  -17.9480  -28.3450   22.5480 C   0  0  0  0  0  0  0  0  0  0  0  0
  -20.5150  -28.3470   22.8670 C   0  0  0  0  0  3  0  0  0  0  0  0
  -20.4970  -26.9690   22.1630 C   0  0  0  0  0  2  0  0  0  0  0  0
  -19.3890  -26.8390   21.1130 C   0  0  0  0  0  2  0  0  0  0  0  0
  -18.0160  -27.0510   21.7540 C   0  0  0  0  0  2  0  0  0  0  0  0
  -19.1220  -28.9600   23.0590 C   0  0  0  0  0  0  0  0  0  0  0  0
  -19.0060  -30.1750   23.7690 C   0  0  0  0  0  3  0  0  0  0  0  0
  -17.7470  -30.7720   23.9720 C   0  0  0  0  0  3  0  0  0  0  0  0
  -16.5880  -30.1540   23.4740 C   0  0  0  0  0  3  0  0  0  0  0  0
  -16.6880  -28.9410   22.7690 C   0  0  0  0  0  3  0  0  0  0  0  0
  -25.7960  -32.3290   24.1050 C   0  0  0  0  0  3  0  0  0  0  0  0
  -25.4070  -33.6730   24.5650 N   0  0  0  0  0  0  0  0  0  0  0  0
  -25.7190  -34.8150   23.9380 C   0  0  0  0  0  0  0  0  0  0  0  0
  -26.4300  -34.8510   22.9310 O   0  0  0  0  0  0  0  0  0  0  0  0
  -24.7770  -33.7160   25.3520 H   0  0  0  0  0  0  0  0  0  0  0  0
  -23.9180  -36.5600   23.7160 C   0  0  0  0  0  1  0  0  0  0  0  0
  -25.1540  -36.1270   24.5200 C   0  0  0  0  0  3  0  0  0  0  0  0
  -27.2170  -37.0190   25.5100 C   0  0  0  0  0  1  0  0  0  0  0  0
  -26.1380  -37.2310   24.5490 N   0  0  0  0  0  0  0  0  0  0  0  0
  -25.6850  -38.1130   24.7720 H   0  0  0  0  0  0  0  0  0  0  0  0
  -26.2570  -31.4430   25.3280 C   0  0  1  0  0  0  0  0  0  0  0  0
  -25.0950  -30.9960   26.2450 C   0  0  0  0  0  1  0  0  0  0  0  0
  -26.9880  -30.1710   24.8450 C   0  0  0  0  0  1  0  0  0  0  0  0
  -27.2710  -32.2330   26.1910 C   0  0  0  0  0  1  0  0  0  0  0  0
  -30.9150  -19.6720   19.3720 C   0  0  0  0  0  3  0  0  0  0  0  0
  -31.7300  -19.8680   20.6780 C   0  0  0  0  0  2  0  0  0  0  0  0
  -30.9110  -19.7910   21.9840 C   0  0  0  0  0  2  0  0  0  0  0  0
  -30.8790  -20.1040   24.4940 C   0  0  0  0  0  1  0  0  0  0  0  0
  -32.9380  -20.7830   23.2000 C   0  0  0  0  0  1  0  0  0  0  0  0
  -31.7590  -19.8000   23.2720 C   0  0  0  0  0  3  0  0  0  0  0  0
  -30.7920  -17.9930   19.0250 C   0  0  0  0  0  2  0  0  0  0  0  0
  -31.5010  -15.5030   20.1070 C   0  0  0  0  0  0  0  0  0  0  0  0
  -31.5220  -12.9710   19.9620 C   0  0  0  0  0  2  0  0  0  0  0  0
  -30.7050  -12.5060   18.7330 C   0  0  0  0  0  2  0  0  0  0  0  0
  -29.2110  -12.3770   19.0910 C   0  0  0  0  0  2  0  0  0  0  0  0
  -28.6860  -13.5960   19.8950 C   0  0  0  0  0  3  0  0  0  0  0  0
  -29.6380  -13.9980   21.0430 C   0  0  0  0  0  2  0  0  0  0  0  0
  -30.9510  -14.2640   20.4400 N   0  0  0  0  0  0  0  0  0  0  0  0
  -32.7080  -15.5290   19.8430 O   0  0  0  0  0  0  0  0  0  0  0  0
  -30.6750  -16.6420   19.8760 N   0  0  0  0  0  0  0  0  0  0  0  0
  -29.7340  -16.4770   20.2010 H   0  0  0  0  0  0  0  0  0  0  0  0
  -26.3400  -14.3550   20.5810 C   0  0  0  0  0  0  0  0  0  0  0  0
  -25.2090  -13.6630   20.9180 C   0  0  0  0  0  0  0  0  0  0  0  0
  -25.5640  -12.2800   20.8800 C   0  0  0  0  0  0  0  0  0  0  0  0
  -27.3150  -13.3980   20.3540 N   0  0  0  0  0  0  0  0  0  0  0  0
  -26.8550  -12.1440   20.6000 N   0  0  0  0  0  0  0  0  0  0  0  0
  -24.7340  -11.0770   21.0390 C   0  0  0  0  0  0  0  0  0  0  0  0
  -25.0640  -10.0690   21.9720 C   0  0  0  0  0  3  0  0  0  0  0  0
  -24.2380   -8.9330   22.1210 C   0  0  0  0  0  3  0  0  0  0  0  0
  -23.0680   -8.7970   21.3360 C   0  0  0  0  0  0  0  0  0  0  0  0
  -22.7570   -9.7920   20.3930 C   0  0  0  0  0  3  0  0  0  0  0  0
  -23.5830  -10.9190   20.2420 C   0  0  0  0  0  3  0  0  0  0  0  0
  -22.2220   -7.7180   21.3940 O   0  0  0  0  0  0  0  0  0  0  0  0
  -22.0520   -6.9960   22.5490 C   0  0  0  0  0  0  0  0  0  0  0  0
  -21.5750   -7.5930   23.7360 C   0  0  0  0  0  3  0  0  0  0  0  0
  -21.3480   -6.8020   24.8800 C   0  0  0  0  0  3  0  0  0  0  0  0
  -21.5900   -5.4150   24.8390 C   0  0  0  0  0  0  0  0  0  0  0  0
  -22.0610   -4.8190   23.6560 C   0  0  0  0  0  3  0  0  0  0  0  0
  -22.2880   -5.6080   22.5130 C   0  0  0  0  0  0  0  0  0  0  0  0
  -22.7220   -5.0230   21.3700 F   0  0  0  0  0  0  0  0  0  0  0  0
  -21.3660   -4.6540   25.9350 F   0  0  0  0  0  0  0  0  0  0  0  0
  -23.8480  -14.2480   21.1600 C   0  0  0  0  0  0  0  0  0  0  0  0
  -23.0540  -13.6190   22.0210 N   0  0  0  0  0  0  0  0  0  0  0  0
  -23.4990  -15.2960   20.6200 O   0  0  0  0  0  0  0  0  0  0  0  0
  -23.3480  -12.7690   22.4790 H   0  0  0  0  0  0  0  0  0  0  0  0
  -22.1410  -13.9950   22.2270 H   0  0  0  0  0  0  0  0  0  0  0  0
  -26.6140  -15.7100   20.4210 N   0  0  0  0  0  0  0  0  0  0  0  0
  -25.8960  -16.4180   20.5250 H   0  0  0  0  0  0  0  0  0  0  0  0
  -27.4830  -16.0790   20.0590 H   0  0  0  0  0  0  0  0  0  0  0  0
  1  2  1  0
  2  9  1  0
  3  6  1  0
  3  2  2  0
  4 51  1  0
  4  1  2  0
  5  3  1  0
  7  5  1  0
  8  5  2  0
  8  4  1  0
 10  9  1  0
 11 22  2  0
 12 10  1  0
 12 17  1  0
 13 21  1  0
 13 23  1  0
 14 16  1  0
 15 21  1  0
 16 17  2  0
 16 15  1  0
 18 12  2  0
 19 18  1  0
 19 14  2  0
 20 14  1  0
 20 13  1  0
 21 11  1  0
 23 25  2  0
 24 23  1  0
 26 24  1  0
 27 36  2  0
 27 32  1  0
 28 24  1  0
 28 32  1  0
 29 28  1  0
 30 31  1  0
 30 29  1  0
 31 27  1  0
 32 33  2  0
 33 34  1  0
 35 34  2  0
 36 35  1  0
 37 11  1  0
 37 38  1  0
 37 47  1  0
 38 41  1  0
 39 43  1  0
 39 38  1  0
 40 39  2  0
 43 42  1  0
 43 45  1  0
 45 46  1  0
 45 44  1  0
 47 50  1  1
 47 48  1  0
 49 47  1  0
 51 57  1  0
 51 52  1  0
 52 53  1  0
 53 56  1  0
 55 56  1  0
 56 54  1  0
 57 66  1  0
 58 64  1  0
 59 64  1  0
 60 61  1  0
 60 59  1  0
 62 61  1  0
 62 71  1  0
 62 63  1  0
 64 63  1  0
 65 58  2  0
 66 58  1  0
 66 67  1  0
 68 69  2  0
 69 88  1  0
 70 69  1  0
 70 73  1  0
 71 68  1  0
 71 72  1  0
 72 70  2  0
 73 74  1  0
 74 75  2  0
 76 79  1  0
 76 75  1  0
 77 76  2  0
 78 77  1  0
 78 73  2  0
 79 80  1  0
 80 81  1  0
 81 82  2  0
 83 82  1  0
 83 87  1  0
 84 83  2  0
 85 80  2  0
 85 84  1  0
 86 85  1  0
 88 89  1  0
 89 92  1  0
 89 91  1  0
 90 88  2  0
 93 94  1  0
 93 68  1  0
 95 93  1  0
M  ISO  4   9 101  10 101  58 100  66 100
M  END
>  <TORSDO>  (52) 
F 22

>  <SCORE>  (52) 
-11.420

>  <name>  (52) 
52

>  <ligand_id>  (52) 
52

>  <original_smiles>  (52) 
[H]c1c([H])c([H])c2c(c1[H])C([H])([H])C([H])([H])C([H])([H])C2([H])N([H])C(=O)C1([H])N(C(=O)C([H])(N([H])C(=O)C([H])(N([H])C([H])([H])[H])C([H])([H])[H])C(C([H])([H])[H])(C([H])([H])[H])C([H])([H])[H])C([H])([H])c2c([H])c(OC([H])([H])c3c([H])c(C([H])(C([H])([H])N([H])C(=O)N4C([H])([H])C([H])([H])C([H])([H])C([H])(n5nc(-c6c([H])c([H])c(Oc7c([H])c([H])c(F)c([H])c7F)c([H])c6[H])c(C(=O)N([H])[H])c5N([H])[H])C4([H])[H])C([H])([H])C([H])([H])C([H])(C([H])([H])[H])C([H])([H])[H])nc(C([H])([H])[H])c3C([H])([H])[H])c([H])c([H])c2C1([H])[H]

>  <smiles>  (52) 
[H]c1c([H])c([H])c2c(c1[H])C([H])([H])C([H])([H])C([H])([H])C2([H])N([H])C(=O)C1([H])N(C(=O)C([H])(N([H])C(=O)C([H])(N([H])C([H])([H])[H])C([H])([H])[H])C(C([H])([H])[H])(C([H])([H])[H])C([H])([H])[H])C([H])([H])c2c([H])c(OC([H])([H])c3c([H])c(C([H])(C([H])([H])N([H])C(=O)N4C([H])([H])C([H])([H])C([H])([H])C([H])(n5nc(-c6c([H])c([H])c(Oc7c([H])c([H])c(F)c([H])c7F)c([H])c6[H])c(C(=O)N([H])[H])c5N([H])[H])C4([H])[H])C([H])([H])C([H])([H])C([H])(C([H])([H])[H])C([H])([H])[H])nc(C([H])([H])[H])c3C([H])([H])[H])c([H])c([H])c2C1([H])[H]

$$$$
53:0:0
     RDKit          3D

100108  0  0  1  0  0  0  0  0999 V2000
  -30.1900  -20.6780   21.3800 C   0  0  0  0  0  3  0  0  0  0  0  0
  -30.1580  -19.3510   20.8630 C   0  0  0  0  0  0  0  0  0  0  0  0
  -29.0860  -18.9350   20.0080 C   0  0  0  0  0  0  0  0  0  0  0  0
  -29.1720  -21.6010   21.0740 C   0  0  0  0  0  0  0  0  0  0  0  0
  -28.0610  -19.9200   19.8280 C   0  0  0  0  0  0  0  0  0  0  0  0
  -28.1190  -21.1910   20.3290 N   0  0  0  0  0  0  0  0  0  0  0  0
  -28.3070  -17.6060   17.9200 C   0  0  0  0  0  1  0  0  0  0  0  0
  -29.1690  -17.5660   19.2010 C   0  0  0  0  0  3  0  0  0  0  0  0
  -29.8760  -15.1650   19.6010 C   0  0  0  0  0  0  0  0  0  0  0  0
  -29.6600  -12.9530   18.5300 C   0  0  0  0  0  2  0  0  0  0  0  0
  -28.5620  -13.0720   17.4530 C   0  0  0  0  0  2  0  0  0  0  0  0
  -27.1770  -12.7860   18.0650 C   0  0  0  0  0  2  0  0  0  0  0  0
  -26.9290  -13.5690   19.3850 C   0  0  0  0  0  3  0  0  0  0  0  0
  -28.1390  -13.4890   20.3430 C   0  0  0  0  0  2  0  0  0  0  0  0
  -29.3260  -13.9150   19.5970 N   0  0  0  0  0  0  0  0  0  0  0  0
  -30.9920  -15.3670   19.1140 O   0  0  0  0  0  0  0  0  0  0  0  0
  -29.0260  -16.2140   19.8490 N   0  0  0  0  0  0  0  0  0  0  0  0
  -28.1330  -15.9790   20.2480 H   0  0  0  0  0  0  0  0  0  0  0  0
  -24.6600  -13.9280   20.5260 C   0  0  0  0  0  0  0  0  0  0  0  0
  -23.7090  -13.0530   20.9730 C   0  0  0  0  0  0  0  0  0  0  0  0
  -24.2300  -11.7460   20.7290 C   0  0  0  0  0  0  0  0  0  0  0  0
  -25.6950  -13.1480   20.0390 N   0  0  0  0  0  0  0  0  0  0  0  0
  -25.4530  -11.8250   20.2220 N   0  0  0  0  0  0  0  0  0  0  0  0
  -23.6100  -10.4260   20.8970 C   0  0  0  0  0  0  0  0  0  0  0  0
  -24.1870   -9.4370   21.7240 C   0  0  0  0  0  3  0  0  0  0  0  0
  -23.5600   -8.1820   21.8830 C   0  0  0  0  0  3  0  0  0  0  0  0
  -22.3440   -7.9060   21.2150 C   0  0  0  0  0  0  0  0  0  0  0  0
  -21.7860   -8.8860   20.3740 C   0  0  0  0  0  3  0  0  0  0  0  0
  -22.4140  -10.1320   20.2130 C   0  0  0  0  0  3  0  0  0  0  0  0
  -21.6780   -6.7070   21.2890 O   0  0  0  0  0  0  0  0  0  0  0  0
  -21.7380   -5.9180   22.4090 C   0  0  0  0  0  0  0  0  0  0  0  0
  -21.3450   -6.3960   23.6780 C   0  0  0  0  0  3  0  0  0  0  0  0
  -21.3570   -5.5300   24.7900 C   0  0  0  0  0  3  0  0  0  0  0  0
  -21.7530   -4.1890   24.6360 C   0  0  0  0  0  0  0  0  0  0  0  0
  -22.1390   -3.7090   23.3720 C   0  0  0  0  0  3  0  0  0  0  0  0
  -22.1300   -4.5720   22.2610 C   0  0  0  0  0  0  0  0  0  0  0  0
  -22.4840   -4.1010   21.0400 F   0  0  0  0  0  0  0  0  0  0  0  0
  -21.7560   -3.3550   25.7020 F   0  0  0  0  0  0  0  0  0  0  0  0
  -22.3510  -13.4080   21.5050 C   0  0  0  0  0  0  0  0  0  0  0  0
  -21.8140  -12.5950   22.4070 N   0  0  0  0  0  0  0  0  0  0  0  0
  -21.7790  -14.4420   21.1590 O   0  0  0  0  0  0  0  0  0  0  0  0
  -22.2920  -11.7570   22.7060 H   0  0  0  0  0  0  0  0  0  0  0  0
  -20.9120  -12.8130   22.8050 H   0  0  0  0  0  0  0  0  0  0  0  0
  -24.7170  -15.3160   20.4690 N   0  0  0  0  0  0  0  0  0  0  0  0
  -23.9200  -15.8850   20.7290 H   0  0  0  0  0  0  0  0  0  0  0  0
  -25.4340  -15.8340   19.9850 H   0  0  0  0  0  0  0  0  0  0  0  0
  -31.2820  -18.4060   21.2870 C   0  0  0  0  0  2  0  0  0  0  0  0
  -30.7420  -17.1090   21.9220 C   0  0  0  0  0  2  0  0  0  0  0  0
  -31.6950  -15.9100   21.7830 C   0  0  0  0  0  2  0  0  0  0  0  0
  -31.8810  -13.3630   21.9040 C   0  0  0  0  0  1  0  0  0  0  0  0
  -31.0610  -14.6020   22.2820 C   0  0  0  0  0  2  0  0  0  0  0  0
  -29.0930  -23.0150   21.7460 C   0  0  0  0  0  2  0  0  0  0  0  0
  -29.6210  -24.3200   21.0160 C   0  0  0  0  0  2  0  0  0  0  0  0
  -29.0540  -25.6720   21.6290 C   0  0  0  0  0  2  0  0  0  0  0  0
  -29.2080  -26.9490   20.9110 O   0  0  0  0  0  0  0  0  0  0  0  0
  -24.7300  -31.9630   23.4710 C   0  0  0  0  0  0  0  0  0  0  0  0
  -28.0360  -27.6880   20.7500 C   0  0  0  0  0  0  0  0  0  0  0  0
  -23.8240  -30.4470   21.7420 C   0  0  0  0  0  3  0  0  0  0  0  0
  -25.5450  -29.0390   20.4790 C   0  0  0  0  0  0  0  0  0  0  0  0
  -26.3210  -31.0160   21.7940 C   0  0  0  0  0  2  0  0  0  0  0  0
  -26.5950  -29.6510   21.1750 C   0  0  0  0  0  0  0  0  0  0  0  0
  -27.8490  -28.9880   21.3010 C   0  0  0  0  0  3  0  0  0  0  0  0
  -26.9690  -27.1170   20.0250 C   0  0  0  0  0  3  0  0  0  0  0  0
  -25.7330  -27.7780   19.8900 C   0  0  0  0  0  3  0  0  0  0  0  0
  -24.2310  -29.7890   20.3960 C   0  0  0  0  0  2  0  0  0  0  0  0
  -24.9690  -31.1600   22.3960 N   0  0  0  0  0  0  0  0  0  0  0  0
  -23.5800  -32.1430   23.8990 O   0  0  0  0  0  0  0  0  0  0  0  0
  -23.1710  -29.3770   22.6500 C   0  0  0  0  0  0  0  0  0  0  0  0
  -21.8900  -29.0690   22.3950 N   0  0  0  0  0  0  0  0  0  0  0  0
  -23.8230  -28.8230   23.5390 O   0  0  0  0  0  0  0  0  0  0  0  0
  -21.4230  -29.5740   21.6540 H   0  0  0  0  0  0  0  0  0  0  0  0
  -18.5960  -27.5910   22.6050 C   0  0  0  0  0  0  0  0  0  0  0  0
  -21.0890  -28.0620   23.0950 C   0  0  0  0  0  3  0  0  0  0  0  0
  -21.3620  -26.6480   22.5320 C   0  0  0  0  0  2  0  0  0  0  0  0
  -20.3840  -26.2390   21.4270 C   0  0  0  0  0  2  0  0  0  0  0  0
  -18.9430  -26.2630   21.9490 C   0  0  0  0  0  2  0  0  0  0  0  0
  -19.6050  -28.4420   23.1260 C   0  0  0  0  0  0  0  0  0  0  0  0
  -19.2320  -29.6800   23.6930 C   0  0  0  0  0  3  0  0  0  0  0  0
  -17.8820  -30.0710   23.7460 C   0  0  0  0  0  3  0  0  0  0  0  0
  -16.8840  -29.2170   23.2420 C   0  0  0  0  0  3  0  0  0  0  0  0
  -17.2410  -27.9790   22.6770 C   0  0  0  0  0  3  0  0  0  0  0  0
  -25.8850  -32.7130   24.2030 C   0  0  0  0  0  3  0  0  0  0  0  0
  -25.4470  -34.0990   24.4180 N   0  0  0  0  0  0  0  0  0  0  0  0
  -25.7810  -35.1320   23.6340 C   0  0  0  0  0  0  0  0  0  0  0  0
  -26.5550  -35.0280   22.6800 O   0  0  0  0  0  0  0  0  0  0  0  0
  -24.7660  -34.2450   25.1490 H   0  0  0  0  0  0  0  0  0  0  0  0
  -23.9750  -36.7690   23.0070 C   0  0  0  0  0  1  0  0  0  0  0  0
  -25.1530  -36.5030   23.9590 C   0  0  0  0  0  3  0  0  0  0  0  0
  -27.1420  -37.5760   24.9210 C   0  0  0  0  0  1  0  0  0  0  0  0
  -26.1170  -37.6230   23.8810 N   0  0  0  0  0  0  0  0  0  0  0  0
  -25.6380  -38.5180   23.9480 H   0  0  0  0  0  0  0  0  0  0  0  0
  -26.2910  -32.0420   25.5720 C   0  0  1  0  0  0  0  0  0  0  0  0
  -25.0870  -31.7130   26.4860 C   0  0  0  0  0  1  0  0  0  0  0  0
  -27.0690  -30.7280   25.3240 C   0  0  0  0  0  1  0  0  0  0  0  0
  -27.2440  -32.9780   26.3510 C   0  0  0  0  0  1  0  0  0  0  0  0
  -26.7470  -19.6240   19.1170 C   0  0  0  0  0  2  0  0  0  0  0  0
  -26.3090  -20.7380   18.1460 C   0  0  0  0  0  2  0  0  0  0  0  0
  -24.2220  -21.9190   17.3110 C   0  0  0  0  0  1  0  0  0  0  0  0
  -24.8180  -19.6350   16.3950 C   0  0  0  0  0  1  0  0  0  0  0  0
  -24.8690  -20.5630   17.6220 C   0  0  0  0  0  3  0  0  0  0  0  0
  2 47  1  0
  2  1  2  0
  3  2  1  0
  4  1  1  0
  4 52  1  0
  5  3  2  0
  5  6  1  0
  6  4  2  0
  8  7  1  0
  8 17  1  0
  8  3  1  0
  9 17  1  0
 10 15  1  0
 11 12  1  0
 11 10  1  0
 13 12  1  0
 13 22  1  0
 13 14  1  0
 15  9  1  0
 15 14  1  0
 16  9  2  0
 17 18  1  0
 19 20  2  0
 20 39  1  0
 21 24  1  0
 21 20  1  0
 22 23  1  0
 22 19  1  0
 23 21  2  0
 24 25  1  0
 25 26  2  0
 27 30  1  0
 27 26  1  0
 28 27  2  0
 29 28  1  0
 29 24  2  0
 30 31  1  0
 31 32  1  0
 32 33  2  0
 34 33  1  0
 34 38  1  0
 35 34  2  0
 36 31  2  0
 36 35  1  0
 37 36  1  0
 39 40  1  0
 40 42  1  0
 40 43  1  0
 41 39  2  0
 44 19  1  0
 44 45  1  0
 46 44  1  0
 47 48  1  0
 49 48  1  0
 49 51  1  0
 50 51  1  0
 53 54  1  0
 53 52  1  0
 55 54  1  0
 56 67  2  0
 57 55  1  0
 57 62  1  0
 58 66  1  0
 58 68  1  0
 59 61  1  0
 60 66  1  0
 61 62  2  0
 61 60  1  0
 63 57  2  0
 64 63  1  0
 64 59  2  0
 65 59  1  0
 65 58  1  0
 66 56  1  0
 68 70  2  0
 69 68  1  0
 71 69  1  0
 72 81  2  0
 72 77  1  0
 73 69  1  0
 73 77  1  0
 74 73  1  0
 75 76  1  0
 75 74  1  0
 76 72  1  0
 77 78  2  0
 78 79  1  0
 80 79  2  0
 81 80  1  0
 82 56  1  0
 82 83  1  0
 82 92  1  0
 83 86  1  0
 84 88  1  0
 84 83  1  0
 85 84  2  0
 88 87  1  0
 90 91  1  0
 90 88  1  0
 90 89  1  0
 92 95  1  1
 92 93  1  0
 94 92  1  0
 96  5  1  0
 97 96  1  0
 98100  1  0
 99100  1  0
100 97  1  0
M  ISO  4   9 100  17 100  54 101  55 101
M  END
>  <TORSDO>  (53) 
F 27

>  <SCORE>  (53) 
-8.431

>  <name>  (53) 
53

>  <ligand_id>  (53) 
53

>  <original_smiles>  (53) 
[H]c1c([H])c([H])c2c(c1[H])C([H])([H])C([H])([H])C([H])([H])C2([H])N([H])C(=O)C1([H])N(C(=O)C([H])(N([H])C(=O)C([H])(N([H])C([H])([H])[H])C([H])([H])[H])C(C([H])([H])[H])(C([H])([H])[H])C([H])([H])[H])C([H])([H])c2c([H])c(OC([H])([H])C([H])([H])C([H])([H])c3nc(C([H])([H])C([H])([H])C([H])(C([H])([H])[H])C([H])([H])[H])c(C([H])(N([H])C(=O)N4C([H])([H])C([H])([H])C([H])([H])C([H])(n5nc(-c6c([H])c([H])c(Oc7c([H])c([H])c(F)c([H])c7F)c([H])c6[H])c(C(=O)N([H])[H])c5N([H])[H])C4([H])[H])C([H])([H])[H])c(C([H])([H])C([H])([H])C([H])([H])C([H])([H])C([H])([H])[H])c3[H])c([H])c([H])c2C1([H])[H]

>  <smiles>  (53) 
[H]c1c([H])c([H])c2c(c1[H])C([H])([H])C([H])([H])C([H])([H])C2([H])N([H])C(=O)C1([H])N(C(=O)C([H])(N([H])C(=O)C([H])(N([H])C([H])([H])[H])C([H])([H])[H])C(C([H])([H])[H])(C([H])([H])[H])C([H])([H])[H])C([H])([H])c2c([H])c(OC([H])([H])C([H])([H])C([H])([H])c3nc(C([H])([H])C([H])([H])C([H])(C([H])([H])[H])C([H])([H])[H])c(C([H])(N([H])C(=O)N4C([H])([H])C([H])([H])C([H])([H])C([H])(n5nc(-c6c([H])c([H])c(Oc7c([H])c([H])c(F)c([H])c7F)c([H])c6[H])c(C(=O)N([H])[H])c5N([H])[H])C4([H])[H])C([H])([H])[H])c(C([H])([H])C([H])([H])C([H])([H])C([H])([H])C([H])([H])[H])c3[H])c([H])c([H])c2C1([H])[H]

$$$$
54:0:0
     RDKit          3D

 94102  0  0  1  0  0  0  0  0999 V2000
  -28.5270  -21.9520   20.3220 C   0  0  0  0  0  3  0  0  0  0  0  0
  -28.7100  -20.5410   20.3050 C   0  0  0  0  0  0  0  0  0  0  0  0
  -29.8470  -19.9570   19.6490 C   0  0  0  0  0  0  0  0  0  0  0  0
  -29.4740  -22.8040   19.7250 C   0  0  0  0  0  0  0  0  0  0  0  0
  -30.7560  -20.9100   19.0930 C   0  0  0  0  0  0  0  0  0  0  0  0
  -30.5740  -22.2610   19.1560 N   0  0  0  0  0  0  0  0  0  0  0  0
  -29.6600  -18.0390   17.9550 C   0  0  0  0  0  1  0  0  0  0  0  0
  -29.9530  -18.3900   19.4240 C   0  0  0  0  0  3  0  0  0  0  0  0
  -31.2000  -17.5570   19.9390 C   0  0  0  0  0  2  0  0  0  0  0  0
  -31.0940  -16.5260   22.2780 C   0  0  0  0  0  1  0  0  0  0  0  0
  -30.8630  -16.2460   20.7810 C   0  0  0  0  0  3  0  0  0  0  0  0
  -31.5880  -14.9040   20.3620 C   0  0  0  0  0  0  0  0  0  0  0  0
  -31.3370  -12.5950   19.4580 C   0  0  0  0  0  2  0  0  0  0  0  0
  -30.4730  -12.6560   18.1810 C   0  0  0  0  0  2  0  0  0  0  0  0
  -28.9730  -12.5890   18.5270 C   0  0  0  0  0  2  0  0  0  0  0  0
  -28.5810  -13.5720   19.6620 C   0  0  0  0  0  3  0  0  0  0  0  0
  -29.5630  -13.4730   20.8490 C   0  0  0  0  0  2  0  0  0  0  0  0
  -30.9190  -13.7100   20.3310 N   0  0  0  0  0  0  0  0  0  0  0  0
  -32.7560  -14.9770   19.9680 O   0  0  0  0  0  0  0  0  0  0  0  0
  -26.1930  -14.3340   20.2320 C   0  0  0  0  0  0  0  0  0  0  0  0
  -25.0670  -13.6340   20.5710 C   0  0  0  0  0  0  0  0  0  0  0  0
  -25.4520  -12.2580   20.6070 C   0  0  0  0  0  0  0  0  0  0  0  0
  -27.1960  -13.3880   20.0820 N   0  0  0  0  0  0  0  0  0  0  0  0
  -26.7510  -12.1370   20.3670 N   0  0  0  0  0  0  0  0  0  0  0  0
  -24.6470  -11.0460   20.8010 C   0  0  0  0  0  0  0  0  0  0  0  0
  -24.9330  -10.1260   21.8340 C   0  0  0  0  0  3  0  0  0  0  0  0
  -24.1340   -8.9770   22.0120 C   0  0  0  0  0  3  0  0  0  0  0  0
  -23.0310   -8.7390   21.1570 C   0  0  0  0  0  0  0  0  0  0  0  0
  -22.7640   -9.6450   20.1150 C   0  0  0  0  0  3  0  0  0  0  0  0
  -23.5650  -10.7870   19.9370 C   0  0  0  0  0  3  0  0  0  0  0  0
  -22.2150   -7.6360   21.2370 O   0  0  0  0  0  0  0  0  0  0  0  0
  -21.9320   -7.0370   22.4380 C   0  0  0  0  0  0  0  0  0  0  0  0
  -21.3420   -7.7490   23.5050 C   0  0  0  0  0  3  0  0  0  0  0  0
  -21.0070   -7.0790   24.6980 C   0  0  0  0  0  3  0  0  0  0  0  0
  -21.2460   -5.6970   24.8230 C   0  0  0  0  0  0  0  0  0  0  0  0
  -21.8260   -4.9850   23.7590 C   0  0  0  0  0  3  0  0  0  0  0  0
  -22.1670   -5.6540   22.5690 C   0  0  0  0  0  0  0  0  0  0  0  0
  -22.7060   -4.9580   21.5390 F   0  0  0  0  0  0  0  0  0  0  0  0
  -20.9150   -5.0520   25.9660 F   0  0  0  0  0  0  0  0  0  0  0  0
  -23.6870  -14.1950   20.7590 C   0  0  0  0  0  0  0  0  0  0  0  0
  -22.8880  -13.5810   21.6260 N   0  0  0  0  0  0  0  0  0  0  0  0
  -23.3260  -15.2120   20.1680 O   0  0  0  0  0  0  0  0  0  0  0  0
  -23.1930  -12.7570   22.1220 H   0  0  0  0  0  0  0  0  0  0  0  0
  -21.9590  -13.9390   21.7950 H   0  0  0  0  0  0  0  0  0  0  0  0
  -26.4450  -15.6860   20.0170 N   0  0  0  0  0  0  0  0  0  0  0  0
  -25.7140  -16.3870   20.0640 H   0  0  0  0  0  0  0  0  0  0  0  0
  -27.3380  -16.0610   19.7270 H   0  0  0  0  0  0  0  0  0  0  0  0
  -31.9140  -20.8790   16.8260 C   0  0  0  0  0  1  0  0  0  0  0  0
  -32.0150  -20.5370   18.3200 C   0  0  0  0  0  2  0  0  0  0  0  0
  -26.7530  -18.9470   19.9380 C   0  0  0  0  0  1  0  0  0  0  0  0
  -27.6110  -19.7090   20.9610 C   0  0  0  0  0  2  0  0  0  0  0  0
  -29.3330  -24.3540   19.5860 C   0  0  0  0  0  3  0  0  0  0  0  0
  -28.4500  -25.1750   20.5880 C   0  0  0  0  0  3  0  0  0  0  0  0
  -28.5940  -26.6330   20.4970 O   0  0  0  0  0  0  0  0  0  0  0  0
  -24.6300  -31.9090   23.3200 C   0  0  0  0  0  0  0  0  0  0  0  0
  -27.4390  -27.4050   20.4270 C   0  0  0  0  0  0  0  0  0  0  0  0
  -23.5140  -30.4710   21.6490 C   0  0  0  0  0  3  0  0  0  0  0  0
  -25.0450  -28.9320   20.3020 C   0  0  0  0  0  0  0  0  0  0  0  0
  -26.0470  -30.8480   21.5560 C   0  0  0  0  0  2  0  0  0  0  0  0
  -26.1760  -29.4650   20.9320 C   0  0  0  0  0  0  0  0  0  0  0  0
  -27.3810  -28.7150   20.9790 C   0  0  0  0  0  3  0  0  0  0  0  0
  -26.2900  -26.9050   19.7790 C   0  0  0  0  0  3  0  0  0  0  0  0
  -25.1000  -27.6560   19.7160 C   0  0  0  0  0  3  0  0  0  0  0  0
  -23.7910  -29.7790   20.2870 C   0  0  0  0  0  2  0  0  0  0  0  0
  -24.7460  -31.0920   22.2330 N   0  0  0  0  0  0  0  0  0  0  0  0
  -23.5220  -32.1730   23.8100 O   0  0  0  0  0  0  0  0  0  0  0  0
  -22.8300  -29.4550   22.5930 C   0  0  0  0  0  0  0  0  0  0  0  0
  -21.5090  -29.2730   22.4280 N   0  0  0  0  0  0  0  0  0  0  0  0
  -23.4890  -28.8330   23.4300 O   0  0  0  0  0  0  0  0  0  0  0  0
  -21.0380  -29.8250   21.7250 H   0  0  0  0  0  0  0  0  0  0  0  0
  -18.1180  -28.0960   22.8470 C   0  0  0  0  0  0  0  0  0  0  0  0
  -20.6710  -28.3350   23.1750 C   0  0  0  0  0  3  0  0  0  0  0  0
  -20.7770  -26.9070   22.5930 C   0  0  0  0  0  2  0  0  0  0  0  0
  -19.6960  -26.5980   21.5540 C   0  0  0  0  0  2  0  0  0  0  0  0
  -18.3020  -26.7500   22.1680 C   0  0  0  0  0  2  0  0  0  0  0  0
  -19.2320  -28.8480   23.3050 C   0  0  0  0  0  0  0  0  0  0  0  0
  -19.0090  -30.1110   23.8970 C   0  0  0  0  0  3  0  0  0  0  0  0
  -17.7060  -30.6220   24.0350 C   0  0  0  0  0  3  0  0  0  0  0  0
  -16.6050  -29.8660   23.5960 C   0  0  0  0  0  3  0  0  0  0  0  0
  -16.8130  -28.6040   23.0080 C   0  0  0  0  0  3  0  0  0  0  0  0
  -25.8780  -32.5660   23.9870 C   0  0  0  0  0  3  0  0  0  0  0  0
  -25.5460  -33.9700   24.2660 N   0  0  0  0  0  0  0  0  0  0  0  0
  -25.9040  -35.0030   23.4920 C   0  0  0  0  0  0  0  0  0  0  0  0
  -26.6180  -34.8750   22.4930 O   0  0  0  0  0  0  0  0  0  0  0  0
  -24.9210  -34.1440   25.0390 H   0  0  0  0  0  0  0  0  0  0  0  0
  -24.1730  -36.7660   23.0220 C   0  0  0  0  0  1  0  0  0  0  0  0
  -25.3890  -36.4000   23.8900 C   0  0  0  0  0  3  0  0  0  0  0  0
  -27.4870  -37.3300   24.7630 C   0  0  0  0  0  1  0  0  0  0  0  0
  -26.4150  -37.4600   23.7780 N   0  0  0  0  0  0  0  0  0  0  0  0
  -25.9960  -38.3810   23.8840 H   0  0  0  0  0  0  0  0  0  0  0  0
  -26.3380  -31.8300   25.3050 C   0  0  1  0  0  0  0  0  0  0  0  0
  -25.1910  -31.5830   26.3150 C   0  0  0  0  0  1  0  0  0  0  0  0
  -26.9710  -30.4600   24.9710 C   0  0  0  0  0  1  0  0  0  0  0  0
  -27.4300  -32.6620   26.0180 C   0  0  0  0  0  1  0  0  0  0  0  0
  2  1  1  0
  2 51  1  0
  3  2  2  0
  4  1  2  0
  5  6  2  0
  5  3  1  0
  6  4  1  0
  8  7  1  0
  8  3  1  0
  8  9  1  0
  9 11  1  0
 11 10  1  0
 12 11  1  0
 13 18  1  0
 14 15  1  0
 14 13  1  0
 16 15  1  0
 16 23  1  0
 16 17  1  0
 18 12  1  0
 18 17  1  0
 19 12  2  0
 20 21  2  0
 21 22  1  0
 21 40  1  0
 22 25  1  0
 23 20  1  0
 23 24  1  0
 24 22  2  0
 25 26  1  0
 26 27  2  0
 28 31  1  0
 28 27  1  0
 29 28  2  0
 30 29  1  0
 30 25  2  0
 31 32  1  0
 32 37  2  0
 32 33  1  0
 33 34  2  0
 34 35  1  0
 35 39  1  0
 36 35  2  0
 37 36  1  0
 38 37  1  0
 40 41  1  0
 41 44  1  0
 41 43  1  0
 42 40  2  0
 45 46  1  0
 45 20  1  0
 47 45  1  0
 48 49  1  0
 49  5  1  0
 50 51  1  0
 52  4  1  0
 52 53  2  0
 54 53  1  0
 55 66  2  0
 56 54  1  0
 56 61  1  0
 57 65  1  0
 57 67  1  0
 58 60  1  0
 59 65  1  0
 60 61  2  0
 60 59  1  0
 62 56  2  0
 63 62  1  0
 63 58  2  0
 64 58  1  0
 64 57  1  0
 65 55  1  0
 67 69  2  0
 68 67  1  0
 70 68  1  0
 71 80  2  0
 71 76  1  0
 72 68  1  0
 72 76  1  0
 73 72  1  0
 74 75  1  0
 74 73  1  0
 75 71  1  0
 76 77  2  0
 77 78  1  0
 79 78  2  0
 80 79  1  0
 81 55  1  0
 81 82  1  0
 81 91  1  0
 82 85  1  0
 83 87  1  0
 83 82  1  0
 84 83  2  0
 87 86  1  0
 89 90  1  0
 89 87  1  0
 89 88  1  0
 91 94  1  1
 91 92  1  0
 93 91  1  0
M  ISO  4  11 100  12 100  53 101  54 101
M  END
>  <TORSDO>  (54) 
F 23

>  <SCORE>  (54) 
-10.617

>  <name>  (54) 
54

>  <ligand_id>  (54) 
54

>  <original_smiles>  (54) 
[H]c1c([H])c([H])c2c(c1[H])C([H])([H])C([H])([H])C([H])([H])C2([H])N([H])C(=O)C1([H])N(C(=O)C([H])(N([H])C(=O)C([H])(N([H])C([H])([H])[H])C([H])([H])[H])C(C([H])([H])[H])(C([H])([H])[H])C([H])([H])[H])C([H])([H])c2c([H])c(OC([H])([H])C([H])([H])c3nc(C([H])([H])C([H])([H])[H])c(C([H])(C([H])([H])[H])C([H])([H])C([H])(C(=O)N4C([H])([H])C([H])([H])C([H])([H])C([H])(n5nc(-c6c([H])c([H])c(Oc7c([H])c([H])c(F)c([H])c7F)c([H])c6[H])c(C(=O)N([H])[H])c5N([H])[H])C4([H])[H])C([H])([H])[H])c(C([H])([H])C([H])([H])[H])c3[H])c([H])c([H])c2C1([H])[H]

>  <smiles>  (54) 
[H]c1c([H])c([H])c2c(c1[H])C([H])([H])C([H])([H])C([H])([H])C2([H])N([H])C(=O)C1([H])N(C(=O)C([H])(N([H])C(=O)C([H])(N([H])C([H])([H])[H])C([H])([H])[H])C(C([H])([H])[H])(C([H])([H])[H])C([H])([H])[H])C([H])([H])c2c([H])c(OC([H])([H])C([H])([H])c3nc(C([H])([H])C([H])([H])[H])c(C([H])(C([H])([H])[H])C([H])([H])C([H])(C(=O)N4C([H])([H])C([H])([H])C([H])([H])C([H])(n5nc(-c6c([H])c([H])c(Oc7c([H])c([H])c(F)c([H])c7F)c([H])c6[H])c(C(=O)N([H])[H])c5N([H])[H])C4([H])[H])C([H])([H])[H])c(C([H])([H])C([H])([H])[H])c3[H])c([H])c([H])c2C1([H])[H]

$$$$
55:0:0
     RDKit          3D

 95103  0  0  1  0  0  0  0  0999 V2000
  -29.5070  -22.0600   19.8290 C   0  0  0  0  0  3  0  0  0  0  0  0
  -29.6540  -23.2760   20.5490 C   0  0  0  0  0  0  0  0  0  0  0  0
  -30.0920  -23.1750   21.8990 C   0  0  0  0  0  0  0  0  0  0  0  0
  -29.8200  -20.8210   20.4410 C   0  0  0  0  0  0  0  0  0  0  0  0
  -30.3700  -21.8860   22.4380 C   0  0  0  0  0  0  0  0  0  0  0  0
  -30.2960  -24.4200   22.7620 C   0  0  0  0  0  1  0  0  0  0  0  0
  -30.2510  -20.7570   21.7100 N   0  0  0  0  0  0  0  0  0  0  0  0
  -30.1090  -20.5480   24.6030 C   0  0  0  0  0  1  0  0  0  0  0  0
  -30.8830  -21.6610   23.8730 C   0  0  0  0  0  3  0  0  0  0  0  0
  -33.0350  -20.2960   23.2210 C   0  0  0  0  0  1  0  0  0  0  0  0
  -32.4220  -21.4950   23.9680 C   0  0  0  0  0  2  0  0  0  0  0  0
  -29.4790  -24.6370   19.8240 C   0  0  0  0  0  2  0  0  0  0  0  0
  -28.2050  -25.4720   20.1440 C   0  0  0  0  0  2  0  0  0  0  0  0
  -28.3270  -26.8660   19.7480 O   0  0  0  0  0  0  0  0  0  0  0  0
  -24.6400  -31.8680   23.2770 C   0  0  0  0  0  0  0  0  0  0  0  0
  -27.1750  -27.6330   19.8160 C   0  0  0  0  0  0  0  0  0  0  0  0
  -23.3860  -30.6010   21.5630 C   0  0  0  0  0  3  0  0  0  0  0  0
  -24.7970  -29.1760   19.9840 C   0  0  0  0  0  0  0  0  0  0  0  0
  -25.9120  -30.9600   21.3320 C   0  0  0  0  0  2  0  0  0  0  0  0
  -25.9730  -29.6400   20.5850 C   0  0  0  0  0  0  0  0  0  0  0  0
  -27.1670  -28.8820   20.4900 C   0  0  0  0  0  3  0  0  0  0  0  0
  -25.9800  -27.2020   19.1960 C   0  0  0  0  0  3  0  0  0  0  0  0
  -24.7980  -27.9610   19.2790 C   0  0  0  0  0  3  0  0  0  0  0  0
  -23.5580  -30.0330   20.1300 C   0  0  0  0  0  2  0  0  0  0  0  0
  -24.6650  -31.1550   22.1150 N   0  0  0  0  0  0  0  0  0  0  0  0
  -23.5740  -32.1010   23.8640 O   0  0  0  0  0  0  0  0  0  0  0  0
  -22.7560  -29.5100   22.4590 C   0  0  0  0  0  0  0  0  0  0  0  0
  -21.4320  -29.3180   22.3290 N   0  0  0  0  0  0  0  0  0  0  0  0
  -23.4530  -28.8420   23.2280 O   0  0  0  0  0  0  0  0  0  0  0  0
  -20.9320  -29.9120   21.6830 H   0  0  0  0  0  0  0  0  0  0  0  0
  -18.0860  -28.0140   22.7300 C   0  0  0  0  0  0  0  0  0  0  0  0
  -20.6330  -28.3200   23.0400 C   0  0  0  0  0  3  0  0  0  0  0  0
  -20.7770  -26.9250   22.3900 C   0  0  0  0  0  2  0  0  0  0  0  0
  -19.6930  -26.6290   21.3500 C   0  0  0  0  0  2  0  0  0  0  0  0
  -18.3030  -26.7060   21.9860 C   0  0  0  0  0  2  0  0  0  0  0  0
  -19.1810  -28.7790   23.2100 C   0  0  0  0  0  0  0  0  0  0  0  0
  -18.9250  -30.0030   23.8650 C   0  0  0  0  0  3  0  0  0  0  0  0
  -17.6070  -30.4630   24.0430 C   0  0  0  0  0  3  0  0  0  0  0  0
  -16.5260  -29.6940   23.5790 C   0  0  0  0  0  3  0  0  0  0  0  0
  -16.7660  -28.4710   22.9290 C   0  0  0  0  0  3  0  0  0  0  0  0
  -25.9440  -32.4460   23.9110 C   0  0  0  0  0  3  0  0  0  0  0  0
  -25.6670  -33.8330   24.3050 N   0  0  0  0  0  0  0  0  0  0  0  0
  -26.0350  -34.9120   23.6020 C   0  0  0  0  0  0  0  0  0  0  0  0
  -26.7160  -34.8430   22.5770 O   0  0  0  0  0  0  0  0  0  0  0  0
  -25.0660  -33.9640   25.1070 H   0  0  0  0  0  0  0  0  0  0  0  0
  -24.3560  -36.7620   23.3130 C   0  0  0  0  0  1  0  0  0  0  0  0
  -25.5750  -36.2880   24.1220 C   0  0  0  0  0  3  0  0  0  0  0  0
  -27.7160  -37.0780   25.0270 C   0  0  0  0  0  1  0  0  0  0  0  0
  -26.6350  -37.3190   24.0760 N   0  0  0  0  0  0  0  0  0  0  0  0
  -26.2490  -38.2410   24.2580 H   0  0  0  0  0  0  0  0  0  0  0  0
  -26.4600  -31.6100   25.1460 C   0  0  1  0  0  0  0  0  0  0  0  0
  -25.3760  -31.3550   26.2180 C   0  0  0  0  0  1  0  0  0  0  0  0
  -27.0040  -30.2370   24.6870 C   0  0  0  0  0  1  0  0  0  0  0  0
  -27.6420  -32.3450   25.8200 C   0  0  0  0  0  1  0  0  0  0  0  0
  -29.8810  -19.5090   19.6440 C   0  0  0  0  0  2  0  0  0  0  0  0
  -29.2620  -18.2180   20.2790 C   0  0  0  0  0  2  0  0  0  0  0  0
  -30.2710  -17.2580   20.9800 C   0  0  0  0  0  2  0  0  0  0  0  0
  -30.6160  -14.7940   20.5030 C   0  0  0  0  0  0  0  0  0  0  0  0
  -30.3780  -12.6340   19.3340 C   0  0  0  0  0  2  0  0  0  0  0  0
  -29.4520  -12.8410   18.1170 C   0  0  0  0  0  2  0  0  0  0  0  0
  -27.9750  -12.6670   18.5240 C   0  0  0  0  0  2  0  0  0  0  0  0
  -27.6020  -13.4770   19.7940 C   0  0  0  0  0  3  0  0  0  0  0  0
  -28.6470  -13.2660   20.9140 C   0  0  0  0  0  2  0  0  0  0  0  0
  -29.9700  -13.6030   20.3650 N   0  0  0  0  0  0  0  0  0  0  0  0
  -31.7610  -14.9750   20.0850 O   0  0  0  0  0  0  0  0  0  0  0  0
  -29.8700  -15.8290   20.9580 N   0  0  0  0  0  0  0  0  0  0  0  0
  -28.9380  -15.6050   21.2770 H   0  0  0  0  0  0  0  0  0  0  0  0
  -25.1740  -14.0280   20.4400 C   0  0  0  0  0  0  0  0  0  0  0  0
  -24.1220  -13.2320   20.8060 C   0  0  0  0  0  0  0  0  0  0  0  0
  -24.6190  -11.8940   20.8050 C   0  0  0  0  0  0  0  0  0  0  0  0
  -26.2470  -13.1720   20.2480 N   0  0  0  0  0  0  0  0  0  0  0  0
  -25.9160  -11.8850   20.5230 N   0  0  0  0  0  0  0  0  0  0  0  0
  -23.9210  -10.6160   20.9980 C   0  0  0  0  0  0  0  0  0  0  0  0
  -24.3710   -9.6630   21.9390 C   0  0  0  0  0  3  0  0  0  0  0  0
  -23.6750   -8.4490   22.1180 C   0  0  0  0  0  3  0  0  0  0  0  0
  -22.5110   -8.1800   21.3580 C   0  0  0  0  0  0  0  0  0  0  0  0
  -22.0810   -9.1210   20.4070 C   0  0  0  0  0  3  0  0  0  0  0  0
  -22.7800  -10.3270   20.2240 C   0  0  0  0  0  3  0  0  0  0  0  0
  -21.7830   -7.0180   21.4480 O   0  0  0  0  0  0  0  0  0  0  0  0
  -21.7470   -6.2800   22.6040 C   0  0  0  0  0  0  0  0  0  0  0  0
  -21.2920   -6.8260   23.8250 C   0  0  0  0  0  3  0  0  0  0  0  0
  -21.2070   -6.0110   24.9710 C   0  0  0  0  0  3  0  0  0  0  0  0
  -21.5650   -4.6510   24.8990 C   0  0  0  0  0  0  0  0  0  0  0  0
  -22.0110   -4.1050   23.6830 C   0  0  0  0  0  3  0  0  0  0  0  0
  -22.1000   -4.9170   22.5390 C   0  0  0  0  0  0  0  0  0  0  0  0
  -22.5120   -4.3800   21.3650 F   0  0  0  0  0  0  0  0  0  0  0  0
  -21.4760   -3.8670   25.9980 F   0  0  0  0  0  0  0  0  0  0  0  0
  -22.7060  -13.6760   21.0420 C   0  0  0  0  0  0  0  0  0  0  0  0
  -21.9780  -12.9780   21.9070 N   0  0  0  0  0  0  0  0  0  0  0  0
  -22.2530  -14.6790   20.4950 O   0  0  0  0  0  0  0  0  0  0  0  0
  -22.3540  -12.1690   22.3800 H   0  0  0  0  0  0  0  0  0  0  0  0
  -21.0280  -13.2610   22.1010 H   0  0  0  0  0  0  0  0  0  0  0  0
  -25.3010  -15.3980   20.2380 N   0  0  0  0  0  0  0  0  0  0  0  0
  -24.5000  -16.0160   20.2930 H   0  0  0  0  0  0  0  0  0  0  0  0
  -26.1300  -15.8560   19.8810 H   0  0  0  0  0  0  0  0  0  0  0  0
  1  4  2  0
  1  2  1  0
  2  3  2  0
  3  5  1  0
  3  6  1  0
  4  7  1  0
  5  9  1  0
  7  5  2  0
  9 11  1  0
  9  8  1  0
 10 11  1  0
 12 13  1  0
 12  2  1  0
 14 16  1  0
 14 13  1  0
 15 26  2  0
 16 21  1  0
 17 25  1  0
 17 27  1  0
 18 24  1  0
 18 20  1  0
 19 25  1  0
 20 19  1  0
 21 20  2  0
 22 23  1  0
 22 16  2  0
 23 18  2  0
 24 17  1  0
 25 15  1  0
 27 29  2  0
 28 27  1  0
 30 28  1  0
 31 40  2  0
 31 36  1  0
 32 28  1  0
 32 36  1  0
 33 32  1  0
 34 35  1  0
 34 33  1  0
 35 31  1  0
 36 37  2  0
 37 38  1  0
 39 38  2  0
 40 39  1  0
 41 15  1  0
 41 42  1  0
 41 51  1  0
 42 45  1  0
 43 47  1  0
 43 42  1  0
 44 43  2  0
 47 46  1  0
 49 47  1  0
 49 50  1  0
 49 48  1  0
 51 54  1  1
 51 52  1  0
 53 51  1  0
 55 56  1  0
 55  4  1  0
 56 57  1  0
 58 66  1  0
 59 64  1  0
 60 61  1  0
 60 59  1  0
 62 61  1  0
 62 71  1  0
 62 63  1  0
 64 58  1  0
 64 63  1  0
 65 58  2  0
 66 57  1  0
 66 67  1  0
 68 69  2  0
 69 88  1  0
 70 69  1  0
 70 73  1  0
 71 68  1  0
 71 72  1  0
 72 70  2  0
 73 74  1  0
 74 75  2  0
 76 79  1  0
 76 75  1  0
 77 76  2  0
 78 77  1  0
 78 73  2  0
 79 80  1  0
 80 81  1  0
 81 82  2  0
 83 82  1  0
 83 87  1  0
 84 83  2  0
 85 80  2  0
 85 84  1  0
 86 85  1  0
 88 89  1  0
 89 92  1  0
 89 91  1  0
 90 88  2  0
 93 94  1  0
 93 68  1  0
 95 93  1  0
M  ISO  4  13 101  14 101  58 100  66 100
M  END
>  <TORSDO>  (55) 
F 23

>  <SCORE>  (55) 
-12.319

>  <name>  (55) 
55

>  <ligand_id>  (55) 
55

>  <original_smiles>  (55) 
[H]c1c([H])c([H])c2c(c1[H])C([H])([H])C([H])([H])C([H])([H])C2([H])N([H])C(=O)C1([H])N(C(=O)C([H])(N([H])C(=O)C([H])(N([H])C([H])([H])[H])C([H])([H])[H])C(C([H])([H])[H])(C([H])([H])[H])C([H])([H])[H])C([H])([H])c2c([H])c(OC([H])([H])C([H])([H])c3c([H])c(C([H])([H])C([H])([H])C([H])([H])N([H])C(=O)N4C([H])([H])C([H])([H])C([H])([H])C([H])(n5nc(-c6c([H])c([H])c(Oc7c([H])c([H])c(F)c([H])c7F)c([H])c6[H])c(C(=O)N([H])[H])c5N([H])[H])C4([H])[H])nc(C([H])(C([H])([H])[H])C([H])([H])C([H])([H])[H])c3C([H])([H])[H])c([H])c([H])c2C1([H])[H]

>  <smiles>  (55) 
[H]c1c([H])c([H])c2c(c1[H])C([H])([H])C([H])([H])C([H])([H])C2([H])N([H])C(=O)C1([H])N(C(=O)C([H])(N([H])C(=O)C([H])(N([H])C([H])([H])[H])C([H])([H])[H])C(C([H])([H])[H])(C([H])([H])[H])C([H])([H])[H])C([H])([H])c2c([H])c(OC([H])([H])C([H])([H])c3c([H])c(C([H])([H])C([H])([H])C([H])([H])N([H])C(=O)N4C([H])([H])C([H])([H])C([H])([H])C([H])(n5nc(-c6c([H])c([H])c(Oc7c([H])c([H])c(F)c([H])c7F)c([H])c6[H])c(C(=O)N([H])[H])c5N([H])[H])C4([H])[H])nc(C([H])(C([H])([H])[H])C([H])([H])C([H])([H])[H])c3C([H])([H])[H])c([H])c([H])c2C1([H])[H]

$$$$
56:0:0
     RDKit          3D

 96104  0  0  1  0  0  0  0  0999 V2000
  -28.8630  -21.4470   19.2800 C   0  0  0  0  0  3  0  0  0  0  0  0
  -26.5540  -21.9500   18.7390 C   0  0  0  0  0  3  0  0  0  0  0  0
  -27.8110  -22.3760   19.1980 C   0  0  0  0  0  0  0  0  0  0  0  0
  -28.6810  -20.1170   18.8360 C   0  0  0  0  0  0  0  0  0  0  0  0
  -26.3420  -20.6410   18.2540 C   0  0  0  0  0  0  0  0  0  0  0  0
  -27.4360  -19.7230   18.2570 C   0  0  0  0  0  0  0  0  0  0  0  0
  -27.2950  -18.3570   17.5870 C   0  0  0  0  0  1  0  0  0  0  0  0
  -24.2060  -19.2930   18.6500 C   0  0  0  0  0  1  0  0  0  0  0  0
  -24.7630  -20.0430   16.2620 C   0  0  0  0  0  1  0  0  0  0  0  0
  -24.9150  -20.3310   17.7640 C   0  0  0  0  0  3  0  0  0  0  0  0
  -28.0050  -23.8530   19.5060 C   0  0  0  0  0  2  0  0  0  0  0  0
  -28.8030  -24.2250   20.7640 C   0  0  0  0  0  2  0  0  0  0  0  0
  -28.3580  -25.5880   21.3480 C   0  0  0  0  0  2  0  0  0  0  0  0
  -28.2930  -26.6040   20.3410 O   0  0  0  0  0  0  0  0  0  0  0  0
  -24.5920  -31.9200   23.3230 C   0  0  0  0  0  0  0  0  0  0  0  0
  -27.1420  -27.3590   20.3590 C   0  0  0  0  0  0  0  0  0  0  0  0
  -23.3490  -30.5020   21.7230 C   0  0  0  0  0  3  0  0  0  0  0  0
  -24.7680  -28.8940   20.3440 C   0  0  0  0  0  0  0  0  0  0  0  0
  -25.8820  -30.8000   21.5140 C   0  0  0  0  0  2  0  0  0  0  0  0
  -25.9360  -29.4110   20.9180 C   0  0  0  0  0  0  0  0  0  0  0  0
  -27.1260  -28.6480   20.9310 C   0  0  0  0  0  3  0  0  0  0  0  0
  -25.9610  -26.8610   19.7630 C   0  0  0  0  0  3  0  0  0  0  0  0
  -24.7740  -27.6120   19.7700 C   0  0  0  0  0  3  0  0  0  0  0  0
  -23.5400  -29.7760   20.3650 C   0  0  0  0  0  2  0  0  0  0  0  0
  -24.6260  -31.0920   22.2430 N   0  0  0  0  0  0  0  0  0  0  0  0
  -23.5190  -32.2300   23.8570 O   0  0  0  0  0  0  0  0  0  0  0  0
  -22.6800  -29.5220   22.7130 C   0  0  0  0  0  0  0  0  0  0  0  0
  -21.3650  -29.3090   22.5470 N   0  0  0  0  0  0  0  0  0  0  0  0
  -23.3430  -28.9530   23.5840 O   0  0  0  0  0  0  0  0  0  0  0  0
  -20.8930  -29.8190   21.8120 H   0  0  0  0  0  0  0  0  0  0  0  0
  -18.0090  -28.0270   22.9270 C   0  0  0  0  0  0  0  0  0  0  0  0
  -20.5350  -28.3980   23.3330 C   0  0  0  0  0  3  0  0  0  0  0  0
  -20.7210  -26.9350   22.8710 C   0  0  0  0  0  2  0  0  0  0  0  0
  -19.6960  -26.5010   21.8190 C   0  0  0  0  0  2  0  0  0  0  0  0
  -18.2730  -26.6390   22.3660 C   0  0  0  0  0  2  0  0  0  0  0  0
  -19.0730  -28.8580   23.3660 C   0  0  0  0  0  0  0  0  0  0  0  0
  -18.7780  -30.1530   23.8460 C   0  0  0  0  0  3  0  0  0  0  0  0
  -17.4490  -30.6180   23.8910 C   0  0  0  0  0  3  0  0  0  0  0  0
  -16.4000  -29.7860   23.4720 C   0  0  0  0  0  3  0  0  0  0  0  0
  -16.6790  -28.4910   22.9960 C   0  0  0  0  0  3  0  0  0  0  0  0
  -25.8950  -32.5370   23.9200 C   0  0  0  0  0  3  0  0  0  0  0  0
  -25.6170  -33.9460   24.2200 N   0  0  0  0  0  0  0  0  0  0  0  0
  -25.9640  -34.9750   23.4340 C   0  0  0  0  0  0  0  0  0  0  0  0
  -26.6260  -34.8350   22.4020 O   0  0  0  0  0  0  0  0  0  0  0  0
  -25.0320  -34.1320   25.0210 H   0  0  0  0  0  0  0  0  0  0  0  0
  -24.2660  -36.7900   23.0490 C   0  0  0  0  0  1  0  0  0  0  0  0
  -25.5040  -36.3810   23.8610 C   0  0  0  0  0  3  0  0  0  0  0  0
  -27.6620  -37.2450   24.6550 C   0  0  0  0  0  1  0  0  0  0  0  0
  -26.5550  -37.4120   23.7160 N   0  0  0  0  0  0  0  0  0  0  0  0
  -26.1670  -38.3430   23.8430 H   0  0  0  0  0  0  0  0  0  0  0  0
  -26.4100  -31.7810   25.2070 C   0  0  1  0  0  0  0  0  0  0  0  0
  -25.3200  -31.5760   26.2840 C   0  0  0  0  0  1  0  0  0  0  0  0
  -26.9770  -30.3890   24.8370 C   0  0  0  0  0  1  0  0  0  0  0  0
  -27.5730  -32.5730   25.8500 C   0  0  0  0  0  1  0  0  0  0  0  0
  -29.8780  -19.1680   18.9330 C   0  0  0  0  0  2  0  0  0  0  0  0
  -30.3100  -18.6700   21.4100 C   0  0  0  0  0  1  0  0  0  0  0  0
  -29.8000  -18.1090   20.0720 C   0  0  0  0  0  3  0  0  0  0  0  0
  -30.6050  -16.8500   19.6890 C   0  0  0  0  0  2  0  0  0  0  0  0
  -31.0580  -14.5630   20.4120 C   0  0  0  0  0  0  0  0  0  0  0  0
  -30.7070  -12.3700   19.3960 C   0  0  0  0  0  2  0  0  0  0  0  0
  -29.8000  -12.5690   18.1650 C   0  0  0  0  0  2  0  0  0  0  0  0
  -28.3180  -12.4700   18.5720 C   0  0  0  0  0  2  0  0  0  0  0  0
  -27.9680  -13.3730   19.7890 C   0  0  0  0  0  3  0  0  0  0  0  0
  -29.0030  -13.1980   20.9310 C   0  0  0  0  0  2  0  0  0  0  0  0
  -30.3480  -13.4070   20.3720 N   0  0  0  0  0  0  0  0  0  0  0  0
  -32.2350  -14.6480   20.0590 O   0  0  0  0  0  0  0  0  0  0  0  0
  -30.3120  -15.6710   20.5150 N   0  0  0  0  0  0  0  0  0  0  0  0
  -29.3560  -15.5390   20.8100 H   0  0  0  0  0  0  0  0  0  0  0  0
  -25.5940  -14.0530   20.5160 C   0  0  0  0  0  0  0  0  0  0  0  0
  -24.4900  -13.3110   20.8380 C   0  0  0  0  0  0  0  0  0  0  0  0
  -24.8930  -11.9430   20.7480 C   0  0  0  0  0  0  0  0  0  0  0  0
  -26.6020  -13.1390   20.2500 N   0  0  0  0  0  0  0  0  0  0  0  0
  -26.1820  -11.8640   20.4480 N   0  0  0  0  0  0  0  0  0  0  0  0
  -24.1140  -10.7050   20.8750 C   0  0  0  0  0  0  0  0  0  0  0  0
  -24.5220   -9.6610   21.7350 C   0  0  0  0  0  3  0  0  0  0  0  0
  -23.7460   -8.4880   21.8530 C   0  0  0  0  0  3  0  0  0  0  0  0
  -22.5460   -8.3520   21.1140 C   0  0  0  0  0  0  0  0  0  0  0  0
  -22.1560   -9.3860   20.2450 C   0  0  0  0  0  3  0  0  0  0  0  0
  -22.9320  -10.5500   20.1230 C   0  0  0  0  0  3  0  0  0  0  0  0
  -21.7410   -7.2370   21.1480 O   0  0  0  0  0  0  0  0  0  0  0  0
  -21.7100   -6.4080   22.2390 C   0  0  0  0  0  0  0  0  0  0  0  0
  -21.3800   -6.8830   23.5290 C   0  0  0  0  0  3  0  0  0  0  0  0
  -21.2920   -5.9810   24.6090 C   0  0  0  0  0  3  0  0  0  0  0  0
  -21.5220   -4.6080   24.4000 C   0  0  0  0  0  0  0  0  0  0  0  0
  -21.8460   -4.1330   23.1170 C   0  0  0  0  0  3  0  0  0  0  0  0
  -21.9380   -5.0310   22.0390 C   0  0  0  0  0  0  0  0  0  0  0  0
  -22.2300   -4.5690   20.8000 F   0  0  0  0  0  0  0  0  0  0  0  0
  -21.4280   -3.7390   25.4340 F   0  0  0  0  0  0  0  0  0  0  0  0
  -23.1100  -13.8330   21.1190 C   0  0  0  0  0  0  0  0  0  0  0  0
  -22.3520  -13.1380   21.9590 N   0  0  0  0  0  0  0  0  0  0  0  0
  -22.7150  -14.8920   20.6340 O   0  0  0  0  0  0  0  0  0  0  0  0
  -22.6810  -12.2770   22.3710 H   0  0  0  0  0  0  0  0  0  0  0  0
  -21.4280  -13.4710   22.1940 H   0  0  0  0  0  0  0  0  0  0  0  0
  -25.8220  -15.4210   20.4100 N   0  0  0  0  0  0  0  0  0  0  0  0
  -25.0910  -16.1020   20.5750 H   0  0  0  0  0  0  0  0  0  0  0  0
  -26.7090  -15.8370   20.1640 H   0  0  0  0  0  0  0  0  0  0  0  0
  2  3  2  0
  3  1  1  0
  3 11  1  0
  4 55  1  0
  4  1  2  0
  5  6  2  0
  5  2  1  0
  6  4  1  0
  7  6  1  0
  9 10  1  0
 10  5  1  0
 10  8  1  0
 11 12  1  0
 12 13  1  0
 14 16  1  0
 14 13  1  0
 15 26  2  0
 16 21  1  0
 17 25  1  0
 17 27  1  0
 18 24  1  0
 18 20  1  0
 19 25  1  0
 20 21  2  0
 20 19  1  0
 22 23  1  0
 22 16  2  0
 23 18  2  0
 24 17  1  0
 25 15  1  0
 27 29  2  0
 28 27  1  0
 30 28  1  0
 31 40  2  0
 31 36  1  0
 32 28  1  0
 32 36  1  0
 33 32  1  0
 34 35  1  0
 34 33  1  0
 35 31  1  0
 36 37  2  0
 37 38  1  0
 39 38  2  0
 40 39  1  0
 41 15  1  0
 41 42  1  0
 41 51  1  0
 42 45  1  0
 43 47  1  0
 43 42  1  0
 44 43  2  0
 47 46  1  0
 49 50  1  0
 49 47  1  0
 49 48  1  0
 51 54  1  1
 51 52  1  0
 53 51  1  0
 55 57  1  0
 57 56  1  0
 58 57  1  0
 58 67  1  0
 59 67  1  0
 60 65  1  0
 61 62  1  0
 61 60  1  0
 63 62  1  0
 63 72  1  0
 63 64  1  0
 65 59  1  0
 65 64  1  0
 66 59  2  0
 67 68  1  0
 69 70  2  0
 70 89  1  0
 71 70  1  0
 71 74  1  0
 72 73  1  0
 72 69  1  0
 73 71  2  0
 74 75  1  0
 75 76  2  0
 77 80  1  0
 77 76  1  0
 78 77  2  0
 79 78  1  0
 79 74  2  0
 80 81  1  0
 81 82  1  0
 82 83  2  0
 84 83  1  0
 84 88  1  0
 85 84  2  0
 86 81  2  0
 86 85  1  0
 87 86  1  0
 89 90  1  0
 90 93  1  0
 90 92  1  0
 91 89  2  0
 94 69  1  0
 94 95  1  0
 96 94  1  0
M  ISO  4  13 101  14 101  59 100  67 100
M  END
>  <TORSDO>  (56) 
F 23

>  <SCORE>  (56) 
-10.557

>  <name>  (56) 
56

>  <ligand_id>  (56) 
56

>  <original_smiles>  (56) 
[H]c1c([H])c([H])c2c(c1[H])C([H])([H])C([H])([H])C([H])([H])C2([H])N([H])C(=O)C1([H])N(C(=O)C([H])(N([H])C(=O)C([H])(N([H])C([H])([H])[H])C([H])([H])[H])C(C([H])([H])[H])(C([H])([H])[H])C([H])([H])[H])C([H])([H])c2c([H])c(OC([H])([H])C([H])([H])C([H])([H])c3c([H])c(C([H])([H])C([H])(C([H])([H])[H])C([H])([H])N([H])C(=O)N4C([H])([H])C([H])([H])C([H])([H])C([H])(n5nc(-c6c([H])c([H])c(Oc7c([H])c([H])c(F)c([H])c7F)c([H])c6[H])c(C(=O)N([H])[H])c5N([H])[H])C4([H])[H])c(C([H])([H])[H])c(C([H])(C([H])([H])[H])C([H])([H])[H])c3[H])c([H])c([H])c2C1([H])[H]

>  <smiles>  (56) 
[H]c1c([H])c([H])c2c(c1[H])C([H])([H])C([H])([H])C([H])([H])C2([H])N([H])C(=O)C1([H])N(C(=O)C([H])(N([H])C(=O)C([H])(N([H])C([H])([H])[H])C([H])([H])[H])C(C([H])([H])[H])(C([H])([H])[H])C([H])([H])[H])C([H])([H])c2c([H])c(OC([H])([H])C([H])([H])C([H])([H])c3c([H])c(C([H])([H])C([H])(C([H])([H])[H])C([H])([H])N([H])C(=O)N4C([H])([H])C([H])([H])C([H])([H])C([H])(n5nc(-c6c([H])c([H])c(Oc7c([H])c([H])c(F)c([H])c7F)c([H])c6[H])c(C(=O)N([H])[H])c5N([H])[H])C4([H])[H])c(C([H])([H])[H])c(C([H])(C([H])([H])[H])C([H])([H])[H])c3[H])c([H])c([H])c2C1([H])[H]

$$$$
57:0:0
     RDKit          3D

 94102  0  0  1  0  0  0  0  0999 V2000
  -28.6480  -20.6980   19.7340 C   0  0  0  0  0  3  0  0  0  0  0  0
  -27.3180  -21.9450   18.1480 C   0  0  0  0  0  3  0  0  0  0  0  0
  -28.3780  -21.9130   19.0650 C   0  0  0  0  0  0  0  0  0  0  0  0
  -27.8090  -19.5770   19.5080 C   0  0  0  0  0  0  0  0  0  0  0  0
  -26.7190  -19.7440   18.6020 C   0  0  0  0  0  0  0  0  0  0  0  0
  -26.5120  -20.8970   17.9300 N   0  0  0  0  0  0  0  0  0  0  0  0
  -25.3650  -18.3900   16.9010 C   0  0  0  0  0  1  0  0  0  0  0  0
  -24.2880  -19.2210   19.0590 C   0  0  0  0  0  1  0  0  0  0  0  0
  -25.5780  -18.7320   18.3860 C   0  0  0  0  0  3  0  0  0  0  0  0
  -29.1900  -23.1840   19.2860 C   0  0  0  0  0  2  0  0  0  0  0  0
  -28.4630  -24.2700   20.1220 C   0  0  0  0  0  2  0  0  0  0  0  0
  -28.9310  -25.7020   19.7600 C   0  0  0  0  0  2  0  0  0  0  0  0
  -28.5570  -26.7050   20.7160 O   0  0  0  0  0  0  0  0  0  0  0  0
  -24.6050  -31.9800   23.3630 C   0  0  0  0  0  0  0  0  0  0  0  0
  -27.3580  -27.3860   20.6080 C   0  0  0  0  0  0  0  0  0  0  0  0
  -23.4550  -30.5030   21.7420 C   0  0  0  0  0  3  0  0  0  0  0  0
  -24.9610  -28.8960   20.4470 C   0  0  0  0  0  0  0  0  0  0  0  0
  -25.9880  -30.8440   21.6340 C   0  0  0  0  0  2  0  0  0  0  0  0
  -26.0910  -29.4430   21.0650 C   0  0  0  0  0  0  0  0  0  0  0  0
  -27.2840  -28.6910   21.1490 C   0  0  0  0  0  3  0  0  0  0  0  0
  -26.2040  -26.8480   19.9900 C   0  0  0  0  0  3  0  0  0  0  0  0
  -25.0140  -27.6000   19.9030 C   0  0  0  0  0  3  0  0  0  0  0  0
  -23.7190  -29.7570   20.4060 C   0  0  0  0  0  2  0  0  0  0  0  0
  -24.6980  -31.1260   22.3040 N   0  0  0  0  0  0  0  0  0  0  0  0
  -23.5050  -32.2790   23.8480 O   0  0  0  0  0  0  0  0  0  0  0  0
  -22.7640  -29.5300   22.7260 C   0  0  0  0  0  0  0  0  0  0  0  0
  -21.4410  -29.3520   22.5640 N   0  0  0  0  0  0  0  0  0  0  0  0
  -23.4150  -28.9370   23.5900 O   0  0  0  0  0  0  0  0  0  0  0  0
  -20.9730  -29.8900   21.8500 H   0  0  0  0  0  0  0  0  0  0  0  0
  -18.0420  -28.2020   22.9990 C   0  0  0  0  0  0  0  0  0  0  0  0
  -20.5930  -28.4460   23.3420 C   0  0  0  0  0  3  0  0  0  0  0  0
  -20.7030  -26.9950   22.8190 C   0  0  0  0  0  2  0  0  0  0  0  0
  -19.6260  -26.6390   21.7890 C   0  0  0  0  0  2  0  0  0  0  0  0
  -18.2240  -26.8250   22.3830 C   0  0  0  0  0  2  0  0  0  0  0  0
  -19.1550  -28.9690   23.4350 C   0  0  0  0  0  0  0  0  0  0  0  0
  -18.9310  -30.2600   23.9650 C   0  0  0  0  0  3  0  0  0  0  0  0
  -17.6270  -30.7830   24.0580 C   0  0  0  0  0  3  0  0  0  0  0  0
  -16.5290  -30.0130   23.6380 C   0  0  0  0  0  3  0  0  0  0  0  0
  -16.7380  -28.7230   23.1160 C   0  0  0  0  0  3  0  0  0  0  0  0
  -25.8710  -32.6350   24.0000 C   0  0  0  0  0  3  0  0  0  0  0  0
  -25.5570  -34.0470   24.2500 N   0  0  0  0  0  0  0  0  0  0  0  0
  -25.9130  -35.0590   23.4460 C   0  0  0  0  0  0  0  0  0  0  0  0
  -26.6120  -34.9030   22.4410 O   0  0  0  0  0  0  0  0  0  0  0  0
  -24.9420  -34.2420   25.0280 H   0  0  0  0  0  0  0  0  0  0  0  0
  -24.1890  -36.8240   22.9700 C   0  0  0  0  0  1  0  0  0  0  0  0
  -25.4180  -36.4670   23.8200 C   0  0  0  0  0  3  0  0  0  0  0  0
  -27.5400  -37.4020   24.6310 C   0  0  0  0  0  1  0  0  0  0  0  0
  -26.4500  -37.5160   23.6630 N   0  0  0  0  0  0  0  0  0  0  0  0
  -26.0400  -38.4410   23.7580 H   0  0  0  0  0  0  0  0  0  0  0  0
  -26.3410  -31.9210   25.3270 C   0  0  1  0  0  0  0  0  0  0  0  0
  -25.2030  -31.7190   26.3550 C   0  0  0  0  0  1  0  0  0  0  0  0
  -26.9520  -30.5330   25.0210 C   0  0  0  0  0  1  0  0  0  0  0  0
  -27.4540  -32.7550   26.0040 C   0  0  0  0  0  1  0  0  0  0  0  0
  -28.0060  -18.2880   20.3320 C   0  0  0  0  0  2  0  0  0  0  0  0
  -29.4010  -17.6030   20.3670 C   0  0  0  0  0  2  0  0  0  0  0  0
  -29.2520  -16.0560   20.3100 C   0  0  0  0  0  2  0  0  0  0  0  0
  -30.8620  -14.2430   19.6970 C   0  0  0  0  0  0  0  0  0  0  0  0
  -30.3240  -12.0500   18.7000 C   0  0  0  0  0  2  0  0  0  0  0  0
  -29.2630  -12.1900   17.5920 C   0  0  0  0  0  2  0  0  0  0  0  0
  -27.8470  -12.0970   18.1860 C   0  0  0  0  0  2  0  0  0  0  0  0
  -27.6560  -13.0280   19.4060 C   0  0  0  0  0  3  0  0  0  0  0  0
  -28.8290  -12.8910   20.4110 C   0  0  0  0  0  2  0  0  0  0  0  0
  -30.0900  -13.1180   19.6870 N   0  0  0  0  0  0  0  0  0  0  0  0
  -31.9160  -14.3320   19.0680 O   0  0  0  0  0  0  0  0  0  0  0  0
  -30.4940  -15.2870   20.4600 N   0  0  0  0  0  0  0  0  0  0  0  0
  -31.2850  -15.8750   20.6790 H   0  0  0  0  0  0  0  0  0  0  0  0
  -25.4320  -13.7700   20.4540 C   0  0  0  0  0  0  0  0  0  0  0  0
  -24.3580  -13.0570   20.9180 C   0  0  0  0  0  0  0  0  0  0  0  0
  -24.7020  -11.6800   20.7560 C   0  0  0  0  0  0  0  0  0  0  0  0
  -26.3620  -12.8270   20.0460 N   0  0  0  0  0  0  0  0  0  0  0  0
  -25.9360  -11.5630   20.2870 N   0  0  0  0  0  0  0  0  0  0  0  0
  -23.9100  -10.4630   20.9620 C   0  0  0  0  0  0  0  0  0  0  0  0
  -24.3920   -9.3910   21.7450 C   0  0  0  0  0  3  0  0  0  0  0  0
  -23.6020   -8.2390   21.9460 C   0  0  0  0  0  3  0  0  0  0  0  0
  -22.3150   -8.1520   21.3640 C   0  0  0  0  0  0  0  0  0  0  0  0
  -21.8500   -9.2120   20.5650 C   0  0  0  0  0  3  0  0  0  0  0  0
  -22.6400  -10.3550   20.3610 C   0  0  0  0  0  3  0  0  0  0  0  0
  -21.4890   -7.0600   21.4810 O   0  0  0  0  0  0  0  0  0  0  0  0
  -21.5750   -6.2050   22.5510 C   0  0  0  0  0  0  0  0  0  0  0  0
  -21.4080   -6.6560   23.8790 C   0  0  0  0  0  3  0  0  0  0  0  0
  -21.4320   -5.7330   24.9440 C   0  0  0  0  0  3  0  0  0  0  0  0
  -21.6160   -4.3610   24.6830 C   0  0  0  0  0  0  0  0  0  0  0  0
  -21.7780   -3.9110   23.3610 C   0  0  0  0  0  3  0  0  0  0  0  0
  -21.7540   -4.8300   22.2970 C   0  0  0  0  0  0  0  0  0  0  0  0
  -21.8880   -4.3890   21.0230 F   0  0  0  0  0  0  0  0  0  0  0  0
  -21.6340   -3.4720   25.7030 F   0  0  0  0  0  0  0  0  0  0  0  0
  -23.0470  -13.6170   21.3850 C   0  0  0  0  0  0  0  0  0  0  0  0
  -22.3940  -12.9300   22.3160 N   0  0  0  0  0  0  0  0  0  0  0  0
  -22.6180  -14.6890   20.9660 O   0  0  0  0  0  0  0  0  0  0  0  0
  -22.7540  -12.0530   22.6610 H   0  0  0  0  0  0  0  0  0  0  0  0
  -21.5210  -13.2830   22.6790 H   0  0  0  0  0  0  0  0  0  0  0  0
  -25.6860  -15.1290   20.3170 N   0  0  0  0  0  0  0  0  0  0  0  0
  -24.9640  -15.8160   20.4960 H   0  0  0  0  0  0  0  0  0  0  0  0
  -26.4730  -15.4950   19.8010 H   0  0  0  0  0  0  0  0  0  0  0  0
  2  3  1  0
  3 10  1  0
  3  1  2  0
  4  1  1  0
  4 54  1  0
  5  4  2  0
  6  2  2  0
  6  5  1  0
  7  9  1  0
  9  5  1  0
  9  8  1  0
 10 11  1  0
 12 11  1  0
 12 13  1  0
 14 25  2  0
 15 13  1  0
 15 20  1  0
 16 24  1  0
 16 26  1  0
 17 19  1  0
 18 24  1  0
 19 20  2  0
 19 18  1  0
 21 15  2  0
 22 21  1  0
 22 17  2  0
 23 17  1  0
 23 16  1  0
 24 14  1  0
 26 28  2  0
 27 26  1  0
 29 27  1  0
 30 39  2  0
 30 35  1  0
 31 27  1  0
 31 35  1  0
 32 31  1  0
 33 34  1  0
 33 32  1  0
 34 30  1  0
 35 36  2  0
 36 37  1  0
 38 37  2  0
 39 38  1  0
 40 14  1  0
 40 41  1  0
 40 50  1  0
 41 44  1  0
 42 46  1  0
 42 41  1  0
 43 42  2  0
 46 45  1  0
 48 49  1  0
 48 46  1  0
 48 47  1  0
 50 53  1  1
 50 51  1  0
 52 50  1  0
 54 55  1  0
 56 55  1  0
 56 65  1  0
 57 65  1  0
 58 63  1  0
 59 60  1  0
 59 58  1  0
 61 60  1  0
 61 70  1  0
 61 62  1  0
 63 57  1  0
 63 62  1  0
 64 57  2  0
 65 66  1  0
 67 68  2  0
 68 87  1  0
 69 68  1  0
 69 72  1  0
 70 71  1  0
 70 67  1  0
 71 69  2  0
 72 73  1  0
 73 74  2  0
 75 78  1  0
 75 74  1  0
 76 75  2  0
 77 76  1  0
 77 72  2  0
 78 79  1  0
 79 80  1  0
 80 81  2  0
 82 81  1  0
 82 86  1  0
 83 82  2  0
 84 79  2  0
 84 83  1  0
 85 84  1  0
 87 88  1  0
 88 90  1  0
 88 91  1  0
 89 87  2  0
 92 67  1  0
 92 93  1  0
 94 92  1  0
M  ISO  4  12 101  13 101  57 100  65 100
M  END
>  <TORSDO>  (57) 
F 23

>  <SCORE>  (57) 
-7.101

>  <name>  (57) 
57

>  <ligand_id>  (57) 
57

>  <original_smiles>  (57) 
[H]c1nc(C([H])(C([H])([H])[H])C([H])([H])[H])c(C([H])([H])C([H])([H])C([H])([H])N([H])C(=O)N2C([H])([H])C([H])([H])C([H])([H])C([H])(n3nc(-c4c([H])c([H])c(Oc5c([H])c([H])c(F)c([H])c5F)c([H])c4[H])c(C(=O)N([H])[H])c3N([H])[H])C2([H])[H])c([H])c1C([H])([H])C([H])([H])C([H])([H])Oc1c([H])c([H])c2c(c1[H])C([H])([H])N(C(=O)C([H])(N([H])C(=O)C([H])(N([H])C([H])([H])[H])C([H])([H])[H])C(C([H])([H])[H])(C([H])([H])[H])C([H])([H])[H])C([H])(C(=O)N([H])C1([H])c3c([H])c([H])c([H])c([H])c3C([H])([H])C([H])([H])C1([H])[H])C2([H])[H]

>  <smiles>  (57) 
[H]c1nc(C([H])(C([H])([H])[H])C([H])([H])[H])c(C([H])([H])C([H])([H])C([H])([H])N([H])C(=O)N2C([H])([H])C([H])([H])C([H])([H])C([H])(n3nc(-c4c([H])c([H])c(Oc5c([H])c([H])c(F)c([H])c5F)c([H])c4[H])c(C(=O)N([H])[H])c3N([H])[H])C2([H])[H])c([H])c1C([H])([H])C([H])([H])C([H])([H])Oc1c([H])c([H])c2c(c1[H])C([H])([H])N(C(=O)C([H])(N([H])C(=O)C([H])(N([H])C([H])([H])[H])C([H])([H])[H])C(C([H])([H])[H])(C([H])([H])[H])C([H])([H])[H])C([H])(C(=O)N([H])C1([H])c3c([H])c([H])c([H])c([H])c3C([H])([H])C([H])([H])C1([H])[H])C2([H])[H]

$$$$
58:0:0
     RDKit          3D

 97105  0  0  1  0  0  0  0  0999 V2000
  -30.8430  -21.9810   19.6440 C   0  0  0  0  0  3  0  0  0  0  0  0
  -29.0310  -20.4940   20.2140 C   0  0  0  0  0  3  0  0  0  0  0  0
  -29.5010  -21.8200   20.0340 C   0  0  0  0  0  0  0  0  0  0  0  0
  -31.6410  -20.8440   19.4390 C   0  0  0  0  0  0  0  0  0  0  0  0
  -29.8990  -19.3990   19.9860 C   0  0  0  0  0  0  0  0  0  0  0  0
  -31.1800  -19.5830   19.5920 N   0  0  0  0  0  0  0  0  0  0  0  0
  -29.1960  -17.3950   18.6190 C   0  0  0  0  0  1  0  0  0  0  0  0
  -29.3970  -17.9410   20.0410 C   0  0  0  0  0  3  0  0  0  0  0  0
  -30.2790  -17.0050   20.9330 C   0  0  0  0  0  2  0  0  0  0  0  0
  -30.6100  -14.5380   20.4900 C   0  0  0  0  0  0  0  0  0  0  0  0
  -30.3200  -12.3890   19.3250 C   0  0  0  0  0  2  0  0  0  0  0  0
  -29.3660  -12.6050   18.1320 C   0  0  0  0  0  2  0  0  0  0  0  0
  -27.8960  -12.4610   18.5690 C   0  0  0  0  0  2  0  0  0  0  0  0
  -27.5650  -13.2710   19.8500 C   0  0  0  0  0  3  0  0  0  0  0  0
  -28.6320  -13.0400   20.9430 C   0  0  0  0  0  2  0  0  0  0  0  0
  -29.9470  -13.3580   20.3660 N   0  0  0  0  0  0  0  0  0  0  0  0
  -31.7560  -14.7080   20.0620 O   0  0  0  0  0  0  0  0  0  0  0  0
  -29.8760  -15.5770   20.9370 N   0  0  0  0  0  0  0  0  0  0  0  0
  -28.9430  -15.3620   21.2530 H   0  0  0  0  0  0  0  0  0  0  0  0
  -25.1630  -13.8530   20.5610 C   0  0  0  0  0  0  0  0  0  0  0  0
  -24.1040  -13.0690   20.9290 C   0  0  0  0  0  0  0  0  0  0  0  0
  -24.5770  -11.7230   20.8980 C   0  0  0  0  0  0  0  0  0  0  0  0
  -26.2180  -12.9830   20.3340 N   0  0  0  0  0  0  0  0  0  0  0  0
  -25.8680  -11.6970   20.5920 N   0  0  0  0  0  0  0  0  0  0  0  0
  -23.8620  -10.4550   21.0880 C   0  0  0  0  0  0  0  0  0  0  0  0
  -24.3070   -9.4890   22.0180 C   0  0  0  0  0  3  0  0  0  0  0  0
  -23.5920   -8.2850   22.1940 C   0  0  0  0  0  3  0  0  0  0  0  0
  -22.4200   -8.0390   21.4420 C   0  0  0  0  0  0  0  0  0  0  0  0
  -21.9960   -8.9920   20.4990 C   0  0  0  0  0  3  0  0  0  0  0  0
  -22.7100  -10.1880   20.3200 C   0  0  0  0  0  3  0  0  0  0  0  0
  -21.6760   -6.8870   21.5290 O   0  0  0  0  0  0  0  0  0  0  0  0
  -21.6390   -6.1390   22.6790 C   0  0  0  0  0  0  0  0  0  0  0  0
  -21.2090   -6.6820   23.9090 C   0  0  0  0  0  3  0  0  0  0  0  0
  -21.1200   -5.8600   25.0500 C   0  0  0  0  0  3  0  0  0  0  0  0
  -21.4540   -4.4940   24.9610 C   0  0  0  0  0  0  0  0  0  0  0  0
  -21.8790   -3.9520   23.7360 C   0  0  0  0  0  3  0  0  0  0  0  0
  -21.9690   -4.7720   22.5980 C   0  0  0  0  0  0  0  0  0  0  0  0
  -22.3560   -4.2390   21.4140 F   0  0  0  0  0  0  0  0  0  0  0  0
  -21.3640   -3.7010   26.0540 F   0  0  0  0  0  0  0  0  0  0  0  0
  -22.7010  -13.5310   21.2020 C   0  0  0  0  0  0  0  0  0  0  0  0
  -21.9840  -12.8260   22.0700 N   0  0  0  0  0  0  0  0  0  0  0  0
  -22.2500  -14.5530   20.6840 O   0  0  0  0  0  0  0  0  0  0  0  0
  -22.3590  -11.9990   22.5110 H   0  0  0  0  0  0  0  0  0  0  0  0
  -21.0430  -13.1190   22.2970 H   0  0  0  0  0  0  0  0  0  0  0  0
  -25.3100  -15.2260   20.3780 N   0  0  0  0  0  0  0  0  0  0  0  0
  -24.5350  -15.8710   20.4820 H   0  0  0  0  0  0  0  0  0  0  0  0
  -26.1430  -15.6730   20.0170 H   0  0  0  0  0  0  0  0  0  0  0  0
  -27.6330  -23.1200   18.9580 C   0  0  0  0  0  1  0  0  0  0  0  0
  -28.5570  -23.0220   20.1890 C   0  0  0  0  0  3  0  0  0  0  0  0
  -29.2690  -24.3880   20.4510 C   0  0  0  0  0  2  0  0  0  0  0  0
  -28.3420  -25.5050   20.9940 C   0  0  0  0  0  2  0  0  0  0  0  0
  -28.4630  -26.7460   20.2750 O   0  0  0  0  0  0  0  0  0  0  0  0
  -24.6180  -31.9360   23.2700 C   0  0  0  0  0  0  0  0  0  0  0  0
  -27.3080  -27.4930   20.2440 C   0  0  0  0  0  0  0  0  0  0  0  0
  -23.4320  -30.5170   21.6290 C   0  0  0  0  0  3  0  0  0  0  0  0
  -24.9080  -28.9850   20.2200 C   0  0  0  0  0  0  0  0  0  0  0  0
  -25.9580  -30.8900   21.4500 C   0  0  0  0  0  2  0  0  0  0  0  0
  -26.0580  -29.5190   20.8160 C   0  0  0  0  0  0  0  0  0  0  0  0
  -27.2630  -28.7820   20.8230 C   0  0  0  0  0  3  0  0  0  0  0  0
  -26.1440  -26.9760   19.6340 C   0  0  0  0  0  3  0  0  0  0  0  0
  -24.9460  -27.7130   19.6230 C   0  0  0  0  0  3  0  0  0  0  0  0
  -23.6560  -29.8320   20.2540 C   0  0  0  0  0  2  0  0  0  0  0  0
  -24.6860  -31.1290   22.1740 N   0  0  0  0  0  0  0  0  0  0  0  0
  -23.5290  -32.2060   23.7990 O   0  0  0  0  0  0  0  0  0  0  0  0
  -22.7800  -29.4960   22.5890 C   0  0  0  0  0  0  0  0  0  0  0  0
  -21.4610  -29.2930   22.4410 N   0  0  0  0  0  0  0  0  0  0  0  0
  -23.4590  -28.8890   23.4230 O   0  0  0  0  0  0  0  0  0  0  0  0
  -20.9770  -29.8290   21.7340 H   0  0  0  0  0  0  0  0  0  0  0  0
  -18.0930  -28.0680   22.8970 C   0  0  0  0  0  0  0  0  0  0  0  0
  -20.6440  -28.3540   23.2080 C   0  0  0  0  0  3  0  0  0  0  0  0
  -20.7740  -26.9210   22.6430 C   0  0  0  0  0  2  0  0  0  0  0  0
  -19.6910  -26.5780   21.6160 C   0  0  0  0  0  2  0  0  0  0  0  0
  -18.2960  -26.7140   22.2360 C   0  0  0  0  0  2  0  0  0  0  0  0
  -19.1970  -28.8440   23.3390 C   0  0  0  0  0  0  0  0  0  0  0  0
  -18.9570  -30.1100   23.9140 C   0  0  0  0  0  3  0  0  0  0  0  0
  -17.6470  -30.6040   24.0490 C   0  0  0  0  0  3  0  0  0  0  0  0
  -16.5560  -29.8230   23.6290 C   0  0  0  0  0  3  0  0  0  0  0  0
  -16.7810  -28.5560   23.0600 C   0  0  0  0  0  3  0  0  0  0  0  0
  -25.8970  -32.5780   23.8960 C   0  0  0  0  0  3  0  0  0  0  0  0
  -25.5820  -33.9780   24.2060 N   0  0  0  0  0  0  0  0  0  0  0  0
  -25.9140  -35.0200   23.4330 C   0  0  0  0  0  0  0  0  0  0  0  0
  -26.5920  -34.9050   22.4080 O   0  0  0  0  0  0  0  0  0  0  0  0
  -24.9830  -34.1410   25.0030 H   0  0  0  0  0  0  0  0  0  0  0  0
  -24.1820  -36.7980   23.0400 C   0  0  0  0  0  1  0  0  0  0  0  0
  -25.4170  -36.4130   23.8690 C   0  0  0  0  0  3  0  0  0  0  0  0
  -27.5410  -37.3160   24.7070 C   0  0  0  0  0  1  0  0  0  0  0  0
  -26.4480  -37.4670   23.7500 N   0  0  0  0  0  0  0  0  0  0  0  0
  -26.0370  -38.3870   23.8810 H   0  0  0  0  0  0  0  0  0  0  0  0
  -26.4030  -31.8220   25.1840 C   0  0  1  0  0  0  0  0  0  0  0  0
  -25.2980  -31.5920   26.2420 C   0  0  0  0  0  1  0  0  0  0  0  0
  -26.9950  -30.4420   24.8090 C   0  0  0  0  0  1  0  0  0  0  0  0
  -27.5460  -32.6240   25.8490 C   0  0  0  0  0  1  0  0  0  0  0  0
  -33.0700  -20.9940   18.9440 C   0  0  0  0  0  2  0  0  0  0  0  0
  -33.1610  -21.5870   17.5220 C   0  0  0  0  0  2  0  0  0  0  0  0
  -32.2900  -21.7000   15.1560 C   0  0  0  0  0  1  0  0  0  0  0  0
  -32.8640  -19.4410   16.1620 C   0  0  0  0  0  1  0  0  0  0  0  0
  -32.3340  -20.8590   16.4390 C   0  0  0  0  0  3  0  0  0  0  0  0
  1  3  1  0
  3 49  1  0
  3  2  2  0
  4  6  1  0
  4  1  2  0
  5  8  1  0
  5  2  1  0
  6  5  2  0
  8  7  1  0
  8  9  1  0
  9 18  1  0
 10 18  1  0
 11 16  1  0
 12 13  1  0
 12 11  1  0
 14 13  1  0
 14 23  1  0
 14 15  1  0
 16 10  1  0
 16 15  1  0
 17 10  2  0
 18 19  1  0
 20 21  2  0
 21 40  1  0
 22 21  1  0
 22 25  1  0
 23 20  1  0
 23 24  1  0
 24 22  2  0
 25 26  1  0
 26 27  2  0
 28 31  1  0
 28 27  1  0
 29 28  2  0
 30 29  1  0
 30 25  2  0
 31 32  1  0
 32 33  1  0
 33 34  2  0
 35 34  1  0
 35 39  1  0
 36 35  2  0
 37 32  2  0
 37 36  1  0
 38 37  1  0
 40 41  1  0
 41 44  1  0
 41 43  1  0
 42 40  2  0
 45 46  1  0
 45 20  1  0
 47 45  1  0
 49 48  1  0
 49 50  1  0
 50 51  1  0
 52 51  1  0
 53 64  2  0
 54 52  1  0
 54 59  1  0
 55 63  1  0
 55 65  1  0
 56 62  1  0
 56 58  1  0
 57 63  1  0
 58 59  2  0
 58 57  1  0
 60 54  2  0
 61 60  1  0
 61 56  2  0
 62 55  1  0
 63 53  1  0
 65 67  2  0
 66 65  1  0
 68 66  1  0
 69 78  2  0
 69 74  1  0
 70 66  1  0
 70 74  1  0
 71 70  1  0
 72 73  1  0
 72 71  1  0
 73 69  1  0
 74 75  2  0
 75 76  1  0
 77 76  2  0
 78 77  1  0
 79 53  1  0
 79 80  1  0
 79 89  1  0
 80 83  1  0
 81 85  1  0
 81 80  1  0
 82 81  2  0
 85 84  1  0
 87 85  1  0
 87 88  1  0
 87 86  1  0
 89 92  1  1
 89 90  1  0
 91 89  1  0
 93  4  1  0
 94 93  1  0
 95 97  1  0
 96 97  1  0
 97 94  1  0
M  ISO  4  10 100  18 100  51 101  52 101
M  END
>  <TORSDO>  (58) 
F 24

>  <SCORE>  (58) 
-12.693

>  <name>  (58) 
58

>  <ligand_id>  (58) 
58

>  <original_smiles>  (58) 
[H]c1c([H])c([H])c2c(c1[H])C([H])([H])C([H])([H])C([H])([H])C2([H])N([H])C(=O)C1([H])N(C(=O)C([H])(N([H])C(=O)C([H])(N([H])C([H])([H])[H])C([H])([H])[H])C(C([H])([H])[H])(C([H])([H])[H])C([H])([H])[H])C([H])([H])c2c([H])c(OC([H])([H])C([H])([H])C([H])(c3c([H])c(C([H])([H])C([H])([H])C([H])(C([H])([H])[H])C([H])([H])[H])nc(C([H])(C([H])([H])[H])C([H])([H])N([H])C(=O)N4C([H])([H])C([H])([H])C([H])([H])C([H])(n5nc(-c6c([H])c([H])c(Oc7c([H])c([H])c(F)c([H])c7F)c([H])c6[H])c(C(=O)N([H])[H])c5N([H])[H])C4([H])[H])c3[H])C([H])([H])[H])c([H])c([H])c2C1([H])[H]

>  <smiles>  (58) 
[H]c1c([H])c([H])c2c(c1[H])C([H])([H])C([H])([H])C([H])([H])C2([H])N([H])C(=O)C1([H])N(C(=O)C([H])(N([H])C(=O)C([H])(N([H])C([H])([H])[H])C([H])([H])[H])C(C([H])([H])[H])(C([H])([H])[H])C([H])([H])[H])C([H])([H])c2c([H])c(OC([H])([H])C([H])([H])C([H])(c3c([H])c(C([H])([H])C([H])([H])C([H])(C([H])([H])[H])C([H])([H])[H])nc(C([H])(C([H])([H])[H])C([H])([H])N([H])C(=O)N4C([H])([H])C([H])([H])C([H])([H])C([H])(n5nc(-c6c([H])c([H])c(Oc7c([H])c([H])c(F)c([H])c7F)c([H])c6[H])c(C(=O)N([H])[H])c5N([H])[H])C4([H])[H])c3[H])C([H])([H])[H])c([H])c([H])c2C1([H])[H]

$$$$
59:0:0
     RDKit          3D

 96104  0  0  1  0  0  0  0  0999 V2000
  -29.6900  -19.5210   18.8420 C   0  0  0  0  0  3  0  0  0  0  0  0
  -28.9950  -19.1850   21.0970 C   0  0  0  0  0  3  0  0  0  0  0  0
  -29.5140  -18.6180   19.9110 C   0  0  0  0  0  0  0  0  0  0  0  0
  -29.3680  -20.9000   18.9500 C   0  0  0  0  0  0  0  0  0  0  0  0
  -28.8460  -21.3770   20.1900 C   0  0  0  0  0  0  0  0  0  0  0  0
  -28.6850  -20.5050   21.2260 N   0  0  0  0  0  0  0  0  0  0  0  0
  -28.2600  -22.8070   20.4220 C   0  0  0  0  0  2  0  0  0  0  0  0
  -29.1960  -24.0670   20.6310 C   0  0  0  0  0  2  0  0  0  0  0  0
  -28.8000  -25.3670   19.8080 C   0  0  0  0  0  2  0  0  0  0  0  0
  -28.6260  -26.6640   20.4720 O   0  0  0  0  0  0  0  0  0  0  0  0
  -24.6900  -31.9540   23.2810 C   0  0  0  0  0  0  0  0  0  0  0  0
  -27.4570  -27.4240   20.3420 C   0  0  0  0  0  0  0  0  0  0  0  0
  -23.5500  -30.5170   21.6300 C   0  0  0  0  0  3  0  0  0  0  0  0
  -25.0570  -28.9750   20.2610 C   0  0  0  0  0  0  0  0  0  0  0  0
  -26.0850  -30.8810   21.4980 C   0  0  0  0  0  2  0  0  0  0  0  0
  -26.1980  -29.4950   20.8790 C   0  0  0  0  0  0  0  0  0  0  0  0
  -27.3950  -28.7280   20.9130 C   0  0  0  0  0  3  0  0  0  0  0  0
  -26.2850  -26.9550   19.6940 C   0  0  0  0  0  3  0  0  0  0  0  0
  -25.1030  -27.7090   19.6590 C   0  0  0  0  0  3  0  0  0  0  0  0
  -23.8020  -29.8200   20.2680 C   0  0  0  0  0  2  0  0  0  0  0  0
  -24.7950  -31.1360   22.1940 N   0  0  0  0  0  0  0  0  0  0  0  0
  -23.5900  -32.2210   23.7820 O   0  0  0  0  0  0  0  0  0  0  0  0
  -22.8750  -29.5060   22.5860 C   0  0  0  0  0  0  0  0  0  0  0  0
  -21.5530  -29.3250   22.4340 N   0  0  0  0  0  0  0  0  0  0  0  0
  -23.5390  -28.8860   23.4200 O   0  0  0  0  0  0  0  0  0  0  0  0
  -21.0810  -29.8690   21.7250 H   0  0  0  0  0  0  0  0  0  0  0  0
  -18.1650  -28.1510   22.9170 C   0  0  0  0  0  0  0  0  0  0  0  0
  -20.7240  -28.3920   23.1970 C   0  0  0  0  0  3  0  0  0  0  0  0
  -20.8180  -26.9610   22.6190 C   0  0  0  0  0  2  0  0  0  0  0  0
  -19.7190  -26.6480   21.6000 C   0  0  0  0  0  2  0  0  0  0  0  0
  -18.3370  -26.8010   22.2400 C   0  0  0  0  0  2  0  0  0  0  0  0
  -19.2870  -28.9040   23.3530 C   0  0  0  0  0  0  0  0  0  0  0  0
  -19.0760  -30.1640   23.9520 C   0  0  0  0  0  3  0  0  0  0  0  0
  -17.7740  -30.6760   24.1130 C   0  0  0  0  0  3  0  0  0  0  0  0
  -16.6650  -29.9200   23.6920 C   0  0  0  0  0  3  0  0  0  0  0  0
  -16.8620  -28.6580   23.1020 C   0  0  0  0  0  3  0  0  0  0  0  0
  -25.9450  -32.6140   23.9290 C   0  0  0  0  0  3  0  0  0  0  0  0
  -26.4350  -31.8670   25.2290 C   0  0  1  0  0  0  0  0  0  0  0  0
  -25.3160  -31.6170   26.2680 C   0  0  0  0  0  1  0  0  0  0  0  0
  -27.0530  -30.4970   24.8670 C   0  0  0  0  0  1  0  0  0  0  0  0
  -27.5540  -32.6900   25.9100 C   0  0  0  0  0  1  0  0  0  0  0  0
  -25.6060  -34.0120   24.2320 N   0  0  0  0  0  0  0  0  0  0  0  0
  -25.9380  -35.0590   23.4640 C   0  0  0  0  0  0  0  0  0  0  0  0
  -26.6290  -34.9480   22.4470 O   0  0  0  0  0  0  0  0  0  0  0  0
  -24.9930  -34.1640   25.0180 H   0  0  0  0  0  0  0  0  0  0  0  0
  -24.1940  -36.8220   23.0460 C   0  0  0  0  0  1  0  0  0  0  0  0
  -25.4210  -36.4470   23.8910 C   0  0  0  0  0  3  0  0  0  0  0  0
  -27.5270  -37.3730   24.7520 C   0  0  0  0  0  1  0  0  0  0  0  0
  -26.4420  -37.5120   23.7850 N   0  0  0  0  0  0  0  0  0  0  0  0
  -26.0240  -38.4300   23.9090 H   0  0  0  0  0  0  0  0  0  0  0  0
  -29.7090  -21.7500   17.7160 C   0  0  0  0  0  2  0  0  0  0  0  0
  -28.9310  -23.0450   17.4110 C   0  0  0  0  0  2  0  0  0  0  0  0
  -27.4020  -22.9030   17.3080 C   0  0  0  0  0  2  0  0  0  0  0  0
  -25.1230  -24.0130   17.4250 C   0  0  0  0  0  1  0  0  0  0  0  0
  -27.0570  -25.2970   16.4570 C   0  0  0  0  0  1  0  0  0  0  0  0
  -26.6410  -24.2370   17.4920 C   0  0  0  0  0  3  0  0  0  0  0  0
  -29.9320  -17.1320   19.6630 C   0  0  0  0  0  2  0  0  0  0  0  0
  -29.8340  -15.9540   20.7210 C   0  0  0  0  0  3  0  0  0  0  0  0
  -30.5180  -14.6430   20.1610 C   0  0  0  0  0  0  0  0  0  0  0  0
  -30.2410  -12.4590   19.0260 C   0  0  0  0  0  2  0  0  0  0  0  0
  -29.2560  -12.6400   17.8520 C   0  0  0  0  0  2  0  0  0  0  0  0
  -27.7980  -12.4760   18.3250 C   0  0  0  0  0  2  0  0  0  0  0  0
  -27.4890  -13.2750   19.6190 C   0  0  0  0  0  3  0  0  0  0  0  0
  -28.5930  -13.0830   20.6820 C   0  0  0  0  0  2  0  0  0  0  0  0
  -29.8770  -13.4410   20.0670 N   0  0  0  0  0  0  0  0  0  0  0  0
  -31.6410  -14.7770   19.6660 O   0  0  0  0  0  0  0  0  0  0  0  0
  -25.0870  -13.8080   20.3630 C   0  0  0  0  0  0  0  0  0  0  0  0
  -24.0540  -13.0090   20.7690 C   0  0  0  0  0  0  0  0  0  0  0  0
  -24.5580  -11.6720   20.7580 C   0  0  0  0  0  0  0  0  0  0  0  0
  -26.1580  -12.9590   20.1350 N   0  0  0  0  0  0  0  0  0  0  0  0
  -25.8460  -11.6690   20.4290 N   0  0  0  0  0  0  0  0  0  0  0  0
  -23.8770  -10.3920   20.9850 C   0  0  0  0  0  0  0  0  0  0  0  0
  -24.3300   -9.4770   21.9600 C   0  0  0  0  0  3  0  0  0  0  0  0
  -23.6460   -8.2630   22.1770 C   0  0  0  0  0  3  0  0  0  0  0  0
  -22.4930   -7.9520   21.4200 C   0  0  0  0  0  0  0  0  0  0  0  0
  -22.0570   -8.8560   20.4350 C   0  0  0  0  0  3  0  0  0  0  0  0
  -22.7420  -10.0630   20.2180 C   0  0  0  0  0  3  0  0  0  0  0  0
  -21.7820   -6.7830   21.5420 O   0  0  0  0  0  0  0  0  0  0  0  0
  -21.7160   -6.1050   22.7320 C   0  0  0  0  0  0  0  0  0  0  0  0
  -21.2190   -6.7080   23.9090 C   0  0  0  0  0  3  0  0  0  0  0  0
  -21.1080   -5.9550   25.0940 C   0  0  0  0  0  3  0  0  0  0  0  0
  -21.4780   -4.5970   25.1020 C   0  0  0  0  0  0  0  0  0  0  0  0
  -21.9660   -3.9920   23.9310 C   0  0  0  0  0  3  0  0  0  0  0  0
  -22.0820   -4.7440   22.7490 C   0  0  0  0  0  0  0  0  0  0  0  0
  -22.5340   -4.1510   21.6170 F   0  0  0  0  0  0  0  0  0  0  0  0
  -21.3620   -3.8690   26.2380 F   0  0  0  0  0  0  0  0  0  0  0  0
  -22.6470  -13.4460   21.0590 C   0  0  0  0  0  0  0  0  0  0  0  0
  -21.9630  -12.7530   21.9590 N   0  0  0  0  0  0  0  0  0  0  0  0
  -22.1660  -14.4450   20.5230 O   0  0  0  0  0  0  0  0  0  0  0  0
  -22.3620  -11.9410   22.4090 H   0  0  0  0  0  0  0  0  0  0  0  0
  -21.0260  -13.0380   22.2060 H   0  0  0  0  0  0  0  0  0  0  0  0
  -25.1930  -15.1790   20.1480 N   0  0  0  0  0  0  0  0  0  0  0  0
  -24.3930  -15.7890   20.2710 H   0  0  0  0  0  0  0  0  0  0  0  0
  -26.0050  -15.6580   19.7800 H   0  0  0  0  0  0  0  0  0  0  0  0
  -31.7400  -17.1120   22.1210 C   0  0  0  0  0  1  0  0  0  0  0  0
  -30.4230  -16.3100   22.1150 C   0  0  0  0  0  2  0  0  0  0  0  0
  1  4  2  0
  1  3  1  0
  2  6  1  0
  3  2  2  0
  4  5  1  0
  5  7  1  0
  5  6  2  0
  7  8  1  0
  9 10  1  0
  9  8  1  0
 11 22  2  0
 12 10  1  0
 12 17  1  0
 13 21  1  0
 13 23  1  0
 14 20  1  0
 14 16  1  0
 15 21  1  0
 16 17  2  0
 16 15  1  0
 18 12  2  0
 19 18  1  0
 19 14  2  0
 20 13  1  0
 21 11  1  0
 23 25  2  0
 24 23  1  0
 26 24  1  0
 27 36  2  0
 27 32  1  0
 28 24  1  0
 28 32  1  0
 29 28  1  0
 30 31  1  0
 30 29  1  0
 31 27  1  0
 32 33  2  0
 33 34  1  0
 35 34  2  0
 36 35  1  0
 37 11  1  0
 37 42  1  0
 37 38  1  0
 38 41  1  1
 38 39  1  0
 40 38  1  0
 42 45  1  0
 43 47  1  0
 43 42  1  0
 44 43  2  0
 47 46  1  0
 49 47  1  0
 49 50  1  0
 49 48  1  0
 51  4  1  0
 52 51  1  0
 53 52  1  0
 53 56  1  0
 54 56  1  0
 55 56  1  0
 57  3  1  0
 58 57  1  0
 58 96  1  0
 59 58  1  0
 60 65  1  0
 61 62  1  0
 61 60  1  0
 63 62  1  0
 63 70  1  0
 63 64  1  0
 65 59  1  0
 65 64  1  0
 66 59  2  0
 67 68  2  0
 68 87  1  0
 69 68  1  0
 69 72  1  0
 70 67  1  0
 70 71  1  0
 71 69  2  0
 72 73  1  0
 73 74  2  0
 75 78  1  0
 75 74  1  0
 76 75  2  0
 77 76  1  0
 77 72  2  0
 78 79  1  0
 79 84  2  0
 79 80  1  0
 80 81  2  0
 81 82  1  0
 82 86  1  0
 83 82  2  0
 84 83  1  0
 85 84  1  0
 87 88  1  0
 88 91  1  0
 88 90  1  0
 89 87  2  0
 92 93  1  0
 92 67  1  0
 94 92  1  0
 96 95  1  0
M  ISO  4   9 101  10 101  58 100  59 100
M  END
>  <TORSDO>  (59) 
F 26

>  <SCORE>  (59) 
-10.708

>  <name>  (59) 
59

>  <ligand_id>  (59) 
59

>  <original_smiles>  (59) 
[H]c1nc(C([H])([H])C([H])([H])C([H])([H])Oc2c([H])c([H])c3c(c2[H])C([H])([H])N(C(=O)C([H])(N([H])C(=O)C([H])(N([H])C([H])([H])[H])C([H])([H])[H])C(C([H])([H])[H])(C([H])([H])[H])C([H])([H])[H])C([H])(C(=O)N([H])C2([H])c4c([H])c([H])c([H])c([H])c4C([H])([H])C([H])([H])C2([H])[H])C3([H])[H])c(C([H])([H])C([H])([H])C([H])([H])C([H])(C([H])([H])[H])C([H])([H])[H])c([H])c1C([H])([H])C([H])(C(=O)N1C([H])([H])C([H])([H])C([H])([H])C([H])(n2nc(-c3c([H])c([H])c(Oc4c([H])c([H])c(F)c([H])c4F)c([H])c3[H])c(C(=O)N([H])[H])c2N([H])[H])C1([H])[H])C([H])([H])C([H])([H])[H]

>  <smiles>  (59) 
[H]c1nc(C([H])([H])C([H])([H])C([H])([H])Oc2c([H])c([H])c3c(c2[H])C([H])([H])N(C(=O)C([H])(N([H])C(=O)C([H])(N([H])C([H])([H])[H])C([H])([H])[H])C(C([H])([H])[H])(C([H])([H])[H])C([H])([H])[H])C([H])(C(=O)N([H])C2([H])c4c([H])c([H])c([H])c([H])c4C([H])([H])C([H])([H])C2([H])[H])C3([H])[H])c(C([H])([H])C([H])([H])C([H])([H])C([H])(C([H])([H])[H])C([H])([H])[H])c([H])c1C([H])([H])C([H])(C(=O)N1C([H])([H])C([H])([H])C([H])([H])C([H])(n2nc(-c3c([H])c([H])c(Oc4c([H])c([H])c(F)c([H])c4F)c([H])c3[H])c(C(=O)N([H])[H])c2N([H])[H])C1([H])[H])C([H])([H])C([H])([H])[H]

$$$$
60:0:0
     RDKit          3D

 90 98  0  0  1  0  0  0  0  0999 V2000
  -27.9900  -21.5410   20.4440 C   0  0  0  0  0  2  0  0  0  0  0  0
  -28.4040  -17.9710   19.6300 C   0  0  0  0  0  3  0  0  0  0  0  0
  -29.5440  -19.4830   20.7830 C   0  0  0  0  0  3  0  0  0  0  0  0
  -29.5460  -18.1380   20.4600 C   0  0  0  0  0  0  0  0  0  0  0  0
  -27.7440  -19.1630   19.5030 C   0  0  0  0  0  0  0  0  0  0  0  0
  -26.4650  -19.4290   18.7740 C   0  0  0  0  0  1  0  0  0  0  0  0
  -28.4450  -20.1380   20.2080 N   0  0  0  0  0  0  0  0  0  0  0  0
  -30.5510  -17.0460   20.8900 C   0  0  0  0  0  2  0  0  0  0  0  0
  -30.8160  -14.5670   20.4720 C   0  0  0  0  0  0  0  0  0  0  0  0
  -30.5310  -12.4090   19.2970 C   0  0  0  0  0  2  0  0  0  0  0  0
  -29.5980  -12.6560   18.0930 C   0  0  0  0  0  2  0  0  0  0  0  0
  -28.1200  -12.5360   18.5170 C   0  0  0  0  0  2  0  0  0  0  0  0
  -27.7870  -13.3320   19.8080 C   0  0  0  0  0  3  0  0  0  0  0  0
  -28.8350  -13.0600   20.9070 C   0  0  0  0  0  2  0  0  0  0  0  0
  -30.1580  -13.3760   20.3480 N   0  0  0  0  0  0  0  0  0  0  0  0
  -31.9680  -14.7190   20.0590 O   0  0  0  0  0  0  0  0  0  0  0  0
  -30.0910  -15.6280   20.9030 N   0  0  0  0  0  0  0  0  0  0  0  0
  -29.1610  -15.4410   21.2410 H   0  0  0  0  0  0  0  0  0  0  0  0
  -25.3850  -13.9500   20.4920 C   0  0  0  0  0  0  0  0  0  0  0  0
  -24.3120  -13.1900   20.8580 C   0  0  0  0  0  0  0  0  0  0  0  0
  -24.7610  -11.8330   20.8230 C   0  0  0  0  0  0  0  0  0  0  0  0
  -26.4270  -13.0640   20.2680 N   0  0  0  0  0  0  0  0  0  0  0  0
  -26.0530  -11.7840   20.5200 N   0  0  0  0  0  0  0  0  0  0  0  0
  -24.0180  -10.5820   20.9970 C   0  0  0  0  0  0  0  0  0  0  0  0
  -24.4120   -9.6150   21.9460 C   0  0  0  0  0  3  0  0  0  0  0  0
  -23.6680   -8.4290   22.1090 C   0  0  0  0  0  3  0  0  0  0  0  0
  -22.5150   -8.1980   21.3230 C   0  0  0  0  0  0  0  0  0  0  0  0
  -22.1370   -9.1550   20.3650 C   0  0  0  0  0  3  0  0  0  0  0  0
  -22.8820  -10.3340   20.1990 C   0  0  0  0  0  3  0  0  0  0  0  0
  -21.7510   -7.0570   21.3920 O   0  0  0  0  0  0  0  0  0  0  0  0
  -21.6420   -6.3310   22.5510 C   0  0  0  0  0  0  0  0  0  0  0  0
  -21.1400   -6.9010   23.7420 C   0  0  0  0  0  3  0  0  0  0  0  0
  -20.9810   -6.1040   24.8910 C   0  0  0  0  0  3  0  0  0  0  0  0
  -21.3140   -4.7380   24.8530 C   0  0  0  0  0  0  0  0  0  0  0  0
  -21.8060   -4.1640   23.6680 C   0  0  0  0  0  3  0  0  0  0  0  0
  -21.9690   -4.9590   22.5190 C   0  0  0  0  0  0  0  0  0  0  0  0
  -22.4250   -4.3990   21.3740 F   0  0  0  0  0  0  0  0  0  0  0  0
  -21.1540   -3.9690   25.9560 F   0  0  0  0  0  0  0  0  0  0  0  0
  -22.9200  -13.6890   21.1220 C   0  0  0  0  0  0  0  0  0  0  0  0
  -22.1730  -13.0070   21.9810 N   0  0  0  0  0  0  0  0  0  0  0  0
  -22.5050  -14.7260   20.6030 O   0  0  0  0  0  0  0  0  0  0  0  0
  -22.5200  -12.1760   22.4370 H   0  0  0  0  0  0  0  0  0  0  0  0
  -21.2410  -13.3290   22.1920 H   0  0  0  0  0  0  0  0  0  0  0  0
  -25.5520  -15.3160   20.2980 N   0  0  0  0  0  0  0  0  0  0  0  0
  -24.7340  -15.9170   20.3010 H   0  0  0  0  0  0  0  0  0  0  0  0
  -26.3560  -15.7360   19.8530 H   0  0  0  0  0  0  0  0  0  0  0  0
  -28.7850  -22.7440   19.8280 C   0  0  0  0  0  2  0  0  0  0  0  0
  -28.2220  -24.1220   20.3510 C   0  0  0  0  0  3  0  0  0  0  0  0
  -28.7200  -25.4510   19.6860 C   0  0  0  0  0  3  0  0  0  0  0  0
  -28.4800  -26.6840   20.4300 O   0  0  0  0  0  0  0  0  0  0  0  0
  -24.5300  -31.9010   23.3300 C   0  0  0  0  0  0  0  0  0  0  0  0
  -27.2920  -27.4040   20.3580 C   0  0  0  0  0  0  0  0  0  0  0  0
  -23.3810  -30.4860   21.6600 C   0  0  0  0  0  3  0  0  0  0  0  0
  -24.8860  -28.9300   20.2940 C   0  0  0  0  0  0  0  0  0  0  0  0
  -25.9170  -30.8350   21.5440 C   0  0  0  0  0  2  0  0  0  0  0  0
  -26.0270  -29.4560   20.9130 C   0  0  0  0  0  0  0  0  0  0  0  0
  -27.2290  -28.7000   20.9380 C   0  0  0  0  0  3  0  0  0  0  0  0
  -26.1260  -26.8960   19.7450 C   0  0  0  0  0  3  0  0  0  0  0  0
  -24.9330  -27.6490   19.7110 C   0  0  0  0  0  3  0  0  0  0  0  0
  -23.6380  -29.7890   20.2970 C   0  0  0  0  0  2  0  0  0  0  0  0
  -24.6290  -31.0920   22.2360 N   0  0  0  0  0  0  0  0  0  0  0  0
  -23.4320  -32.1700   23.8360 O   0  0  0  0  0  0  0  0  0  0  0  0
  -22.6980  -29.4750   22.6120 C   0  0  0  0  0  0  0  0  0  0  0  0
  -21.3730  -29.3040   22.4620 N   0  0  0  0  0  0  0  0  0  0  0  0
  -23.3590  -28.8460   23.4430 O   0  0  0  0  0  0  0  0  0  0  0  0
  -20.8940  -29.8590   21.7670 H   0  0  0  0  0  0  0  0  0  0  0  0
  -17.9790  -28.1400   22.9390 C   0  0  0  0  0  0  0  0  0  0  0  0
  -20.5390  -28.3720   23.2170 C   0  0  0  0  0  3  0  0  0  0  0  0
  -20.6310  -26.9480   22.6170 C   0  0  0  0  0  2  0  0  0  0  0  0
  -19.5120  -26.6310   21.6210 C   0  0  0  0  0  2  0  0  0  0  0  0
  -18.1430  -26.7840   22.2820 C   0  0  0  0  0  2  0  0  0  0  0  0
  -19.1030  -28.8850   23.3740 C   0  0  0  0  0  0  0  0  0  0  0  0
  -18.8950  -30.1480   23.9710 C   0  0  0  0  0  3  0  0  0  0  0  0
  -17.5960  -30.6650   24.1350 C   0  0  0  0  0  3  0  0  0  0  0  0
  -16.4840  -29.9160   23.7120 C   0  0  0  0  0  3  0  0  0  0  0  0
  -16.6760  -28.6570   23.1200 C   0  0  0  0  0  3  0  0  0  0  0  0
  -25.7890  -32.5460   23.9870 C   0  0  0  0  0  3  0  0  0  0  0  0
  -25.4750  -33.9550   24.2620 N   0  0  0  0  0  0  0  0  0  0  0  0
  -25.8390  -34.9800   23.4810 C   0  0  0  0  0  0  0  0  0  0  0  0
  -26.5450  -34.8430   22.4790 O   0  0  0  0  0  0  0  0  0  0  0  0
  -24.8610  -34.1370   25.0400 H   0  0  0  0  0  0  0  0  0  0  0  0
  -24.1380  -36.7720   23.0060 C   0  0  0  0  0  1  0  0  0  0  0  0
  -25.3450  -36.3890   23.8780 C   0  0  0  0  0  3  0  0  0  0  0  0
  -27.4470  -37.2920   24.7630 C   0  0  0  0  0  1  0  0  0  0  0  0
  -26.3860  -37.4310   23.7710 N   0  0  0  0  0  0  0  0  0  0  0  0
  -25.9810  -38.3590   23.8620 H   0  0  0  0  0  0  0  0  0  0  0  0
  -26.2470  -31.8140   25.3080 C   0  0  1  0  0  0  0  0  0  0  0  0
  -25.1070  -31.6040   26.3320 C   0  0  0  0  0  1  0  0  0  0  0  0
  -26.8470  -30.4280   24.9790 C   0  0  0  0  0  1  0  0  0  0  0  0
  -27.3690  -32.6260   25.9980 C   0  0  0  0  0  1  0  0  0  0  0  0
  2  4  1  0
  4  3  2  0
  4  8  1  0
  5  2  2  0
  5  7  1  0
  6  5  1  0
  7  1  1  0
  7  3  1  0
  8 17  1  0
  9 17  1  0
 10 15  1  0
 11 12  1  0
 11 10  1  0
 13 12  1  0
 13 22  1  0
 13 14  1  0
 15  9  1  0
 15 14  1  0
 16  9  2  0
 17 18  1  0
 19 20  2  0
 20 39  1  0
 21 20  1  0
 21 24  1  0
 22 19  1  0
 22 23  1  0
 23 21  2  0
 24 25  1  0
 25 26  2  0
 27 30  1  0
 27 26  1  0
 28 27  2  0
 29 28  1  0
 29 24  2  0
 30 31  1  0
 31 32  1  0
 32 33  2  0
 34 33  1  0
 34 38  1  0
 35 34  2  0
 36 31  2  0
 36 35  1  0
 37 36  1  0
 39 40  1  0
 40 43  1  0
 40 42  1  0
 41 39  2  0
 44 45  1  0
 44 19  1  0
 46 44  1  0
 47 48  1  0
 47  1  1  0
 49 48  2  0
 49 50  1  0
 51 62  2  0
 52 50  1  0
 52 57  1  0
 53 61  1  0
 53 63  1  0
 54 60  1  0
 54 56  1  0
 55 61  1  0
 56 57  2  0
 56 55  1  0
 58 52  2  0
 59 58  1  0
 59 54  2  0
 60 53  1  0
 61 51  1  0
 63 65  2  0
 64 63  1  0
 66 64  1  0
 67 76  2  0
 67 72  1  0
 68 64  1  0
 68 72  1  0
 69 68  1  0
 70 71  1  0
 70 69  1  0
 71 67  1  0
 72 73  2  0
 73 74  1  0
 75 74  2  0
 76 75  1  0
 77 51  1  0
 77 78  1  0
 77 87  1  0
 78 81  1  0
 79 83  1  0
 79 78  1  0
 80 79  2  0
 83 82  1  0
 85 86  1  0
 85 83  1  0
 85 84  1  0
 87 90  1  1
 87 88  1  0
 89 87  1  0
M  ISO  4   9 100  17 100  49 101  50 101
M  END
>  <TORSDO>  (60) 
F 21

>  <SCORE>  (60) 
-13.314

>  <name>  (60) 
60

>  <ligand_id>  (60) 
60

>  <original_smiles>  (60) 
[H]c1c([H])c([H])c2c(c1[H])C([H])([H])C([H])([H])C([H])([H])C2([H])N([H])C(=O)C1([H])N(C(=O)C([H])(N([H])C(=O)C([H])(N([H])C([H])([H])[H])C([H])([H])[H])C(C([H])([H])[H])(C([H])([H])[H])C([H])([H])[H])C([H])([H])c2c([H])c(OC([H])([H])C([H])([H])C([H])([H])C([H])([H])n3c([H])c(C([H])([H])N([H])C(=O)N4C([H])([H])C([H])([H])C([H])([H])C([H])(n5nc(-c6c([H])c([H])c(Oc7c([H])c([H])c(F)c([H])c7F)c([H])c6[H])c(C(=O)N([H])[H])c5N([H])[H])C4([H])[H])c([H])c3C([H])([H])[H])c([H])c([H])c2C1([H])[H]

>  <smiles>  (60) 
[H]c1c([H])c([H])c2c(c1[H])C([H])([H])C([H])([H])C([H])([H])C2([H])N([H])C(=O)C1([H])N(C(=O)C([H])(N([H])C(=O)C([H])(N([H])C([H])([H])[H])C([H])([H])[H])C(C([H])([H])[H])(C([H])([H])[H])C([H])([H])[H])C([H])([H])c2c([H])c(OC([H])([H])C([H])([H])C([H])([H])C([H])([H])n3c([H])c(C([H])([H])N([H])C(=O)N4C([H])([H])C([H])([H])C([H])([H])C([H])(n5nc(-c6c([H])c([H])c(Oc7c([H])c([H])c(F)c([H])c7F)c([H])c6[H])c(C(=O)N([H])[H])c5N([H])[H])C4([H])[H])c([H])c3C([H])([H])[H])c([H])c([H])c2C1([H])[H]

$$$$
61:0:0
     RDKit          3D

100108  0  0  1  0  0  0  0  0999 V2000
  -29.4890  -20.6180   21.2550 C   0  0  0  0  0  3  0  0  0  0  0  0
  -30.1860  -19.5650   20.7010 C   0  0  0  0  0  0  0  0  0  0  0  0
  -29.8330  -21.1320   19.1280 C   0  0  0  0  0  3  0  0  0  0  0  0
  -29.2750  -21.5710   20.2750 N   0  0  0  0  0  0  0  0  0  0  0  0
  -30.4440  -19.9740   19.4180 N   0  0  0  0  0  0  0  0  0  0  0  0
  -30.9770  -19.4450   18.7380 H   0  0  0  0  0  0  0  0  0  0  0  0
  -29.7590  -21.7390   17.7530 C   0  0  0  0  0  2  0  0  0  0  0  0
  -30.8080  -21.1960   16.7500 C   0  0  0  0  0  2  0  0  0  0  0  0
  -30.5330  -19.7600   16.2360 C   0  0  0  0  0  2  0  0  0  0  0  0
  -32.0200  -19.9570   14.1680 C   0  0  0  0  0  1  0  0  0  0  0  0
  -32.9300  -18.8630   16.2380 C   0  0  0  0  0  1  0  0  0  0  0  0
  -31.1400  -17.7340   14.9120 C   0  0  0  0  0  1  0  0  0  0  0  0
  -31.6590  -19.0990   15.3970 C   0  0  1  0  0  0  0  0  0  0  0  0
  -28.4140  -22.7840   20.4200 C   0  0  0  0  0  2  0  0  0  0  0  0
  -28.9860  -24.1930   20.0440 C   0  0  0  0  0  2  0  0  0  0  0  0
  -28.1420  -25.3450   20.6770 C   0  0  0  0  0  2  0  0  0  0  0  0
  -28.3610  -26.6960   20.1790 O   0  0  0  0  0  0  0  0  0  0  0  0
  -24.5870  -31.9490   23.2670 C   0  0  0  0  0  0  0  0  0  0  0  0
  -27.2290  -27.4970   20.1590 C   0  0  0  0  0  0  0  0  0  0  0  0
  -23.3840  -30.5460   21.6270 C   0  0  0  0  0  3  0  0  0  0  0  0
  -24.8400  -29.0270   20.1840 C   0  0  0  0  0  0  0  0  0  0  0  0
  -25.9130  -30.9110   21.4240 C   0  0  0  0  0  2  0  0  0  0  0  0
  -26.0040  -29.5450   20.7660 C   0  0  0  0  0  0  0  0  0  0  0  0
  -27.2080  -28.7930   20.7390 C   0  0  0  0  0  3  0  0  0  0  0  0
  -26.0490  -27.0150   19.5520 C   0  0  0  0  0  3  0  0  0  0  0  0
  -24.8600  -27.7640   19.5710 C   0  0  0  0  0  3  0  0  0  0  0  0
  -23.5910  -29.8780   20.2440 C   0  0  0  0  0  2  0  0  0  0  0  0
  -24.6470  -31.1510   22.1630 N   0  0  0  0  0  0  0  0  0  0  0  0
  -23.5070  -32.2150   23.8100 O   0  0  0  0  0  0  0  0  0  0  0  0
  -22.7430  -29.5150   22.5860 C   0  0  0  0  0  0  0  0  0  0  0  0
  -21.4180  -29.3230   22.4640 N   0  0  0  0  0  0  0  0  0  0  0  0
  -23.4340  -28.8930   23.3960 O   0  0  0  0  0  0  0  0  0  0  0  0
  -20.9200  -29.8830   21.7880 H   0  0  0  0  0  0  0  0  0  0  0  0
  -18.0550  -28.0930   22.9620 C   0  0  0  0  0  0  0  0  0  0  0  0
  -20.6100  -28.3760   23.2320 C   0  0  0  0  0  3  0  0  0  0  0  0
  -20.7240  -26.9450   22.6570 C   0  0  0  0  0  2  0  0  0  0  0  0
  -19.6250  -26.6110   21.6440 C   0  0  0  0  0  2  0  0  0  0  0  0
  -18.2440  -26.7440   22.2890 C   0  0  0  0  0  2  0  0  0  0  0  0
  -19.1670  -28.8670   23.3920 C   0  0  0  0  0  0  0  0  0  0  0  0
  -18.9360  -30.1300   23.9810 C   0  0  0  0  0  3  0  0  0  0  0  0
  -17.6260  -30.6180   24.1480 C   0  0  0  0  0  3  0  0  0  0  0  0
  -16.5300  -29.8400   23.7360 C   0  0  0  0  0  3  0  0  0  0  0  0
  -16.7450  -28.5800   23.1490 C   0  0  0  0  0  3  0  0  0  0  0  0
  -25.8700  -32.5900   23.8850 C   0  0  0  0  0  3  0  0  0  0  0  0
  -25.5540  -33.9880   24.2120 N   0  0  0  0  0  0  0  0  0  0  0  0
  -25.8810  -35.0400   23.4510 C   0  0  0  0  0  0  0  0  0  0  0  0
  -26.5510  -34.9380   22.4200 O   0  0  0  0  0  0  0  0  0  0  0  0
  -24.9580  -34.1430   25.0130 H   0  0  0  0  0  0  0  0  0  0  0  0
  -24.1370  -36.8200   23.1020 C   0  0  0  0  0  1  0  0  0  0  0  0
  -25.3850  -36.4250   23.9070 C   0  0  0  0  0  3  0  0  0  0  0  0
  -27.5210  -37.3210   24.7230 C   0  0  0  0  0  1  0  0  0  0  0  0
  -26.4100  -37.4860   23.7890 N   0  0  0  0  0  0  0  0  0  0  0  0
  -25.9990  -38.4030   23.9420 H   0  0  0  0  0  0  0  0  0  0  0  0
  -26.3970  -31.8270   25.1600 C   0  0  1  0  0  0  0  0  0  0  0  0
  -25.3070  -31.5720   26.2270 C   0  0  0  0  0  1  0  0  0  0  0  0
  -27.0080  -30.4600   24.7700 C   0  0  0  0  0  1  0  0  0  0  0  0
  -27.5320  -32.6410   25.8260 C   0  0  0  0  0  1  0  0  0  0  0  0
  -30.6170  -18.2080   21.2520 C   0  0  0  0  0  3  0  0  0  0  0  0
  -32.1500  -18.1290   21.4430 C   0  0  0  0  0  2  0  0  0  0  0  0
  -33.3560  -20.4250   21.4400 C   0  0  0  0  0  1  0  0  0  0  0  0
  -32.7860  -19.2670   22.2750 C   0  0  0  0  0  2  0  0  0  0  0  0
  -30.0730  -17.0360   20.3710 C   0  0  0  0  0  2  0  0  0  0  0  0
  -30.8350  -14.6500   20.4540 C   0  0  0  0  0  0  0  0  0  0  0  0
  -30.5410  -12.5020   19.2830 C   0  0  0  0  0  2  0  0  0  0  0  0
  -29.6150  -12.7500   18.0750 C   0  0  0  0  0  2  0  0  0  0  0  0
  -28.1310  -12.6290   18.4740 C   0  0  0  0  0  2  0  0  0  0  0  0
  -27.7890  -13.4260   19.7620 C   0  0  0  0  0  3  0  0  0  0  0  0
  -28.8340  -13.1710   20.8740 C   0  0  0  0  0  2  0  0  0  0  0  0
  -30.1720  -13.4660   20.3330 N   0  0  0  0  0  0  0  0  0  0  0  0
  -31.9490  -14.8500   19.9660 O   0  0  0  0  0  0  0  0  0  0  0  0
  -30.0950  -15.6660   20.9360 N   0  0  0  0  0  0  0  0  0  0  0  0
  -29.2460  -15.3750   21.3990 H   0  0  0  0  0  0  0  0  0  0  0  0
  -25.3790  -14.0390   20.4230 C   0  0  0  0  0  0  0  0  0  0  0  0
  -24.3040  -13.2730   20.7850 C   0  0  0  0  0  0  0  0  0  0  0  0
  -24.7640  -11.9200   20.7760 C   0  0  0  0  0  0  0  0  0  0  0  0
  -26.4280  -13.1550   20.2180 N   0  0  0  0  0  0  0  0  0  0  0  0
  -26.0600  -11.8740   20.4850 N   0  0  0  0  0  0  0  0  0  0  0  0
  -24.0330  -10.6610   20.9680 C   0  0  0  0  0  0  0  0  0  0  0  0
  -24.4400   -9.7110   21.9310 C   0  0  0  0  0  3  0  0  0  0  0  0
  -23.7100   -8.5170   22.1130 C   0  0  0  0  0  3  0  0  0  0  0  0
  -22.5570   -8.2640   21.3320 C   0  0  0  0  0  0  0  0  0  0  0  0
  -22.1690   -9.2020   20.3600 C   0  0  0  0  0  3  0  0  0  0  0  0
  -22.9000  -10.3880   20.1760 C   0  0  0  0  0  3  0  0  0  0  0  0
  -21.8020   -7.1190   21.4210 O   0  0  0  0  0  0  0  0  0  0  0  0
  -21.7050   -6.4080   22.5910 C   0  0  0  0  0  0  0  0  0  0  0  0
  -21.2510   -7.0000   23.7900 C   0  0  0  0  0  3  0  0  0  0  0  0
  -21.1050   -6.2140   24.9500 C   0  0  0  0  0  3  0  0  0  0  0  0
  -21.3980   -4.8390   24.9130 C   0  0  0  0  0  0  0  0  0  0  0  0
  -21.8450   -4.2470   23.7180 C   0  0  0  0  0  3  0  0  0  0  0  0
  -21.9950   -5.0280   22.5600 C   0  0  0  0  0  0  0  0  0  0  0  0
  -22.4040   -4.4490   21.4070 F   0  0  0  0  0  0  0  0  0  0  0  0
  -21.2490   -4.0830   26.0250 F   0  0  0  0  0  0  0  0  0  0  0  0
  -22.9020  -13.7540   21.0330 C   0  0  0  0  0  0  0  0  0  0  0  0
  -22.1670  -13.0820   21.9120 N   0  0  0  0  0  0  0  0  0  0  0  0
  -22.4660  -14.7630   20.4820 O   0  0  0  0  0  0  0  0  0  0  0  0
  -22.5300  -12.2670   22.3860 H   0  0  0  0  0  0  0  0  0  0  0  0
  -21.2250  -13.3880   22.1150 H   0  0  0  0  0  0  0  0  0  0  0  0
  -25.5460  -15.4070   20.2300 N   0  0  0  0  0  0  0  0  0  0  0  0
  -24.7740  -16.0600   20.3090 H   0  0  0  0  0  0  0  0  0  0  0  0
  -26.4000  -15.8430   19.9080 H   0  0  0  0  0  0  0  0  0  0  0  0
  2 58  1  0
  2  1  2  0
  3  7  1  0
  3  5  1  0
  3  4  1  0
  4 14  1  0
  4  1  1  0
  5  2  1  0
  6  5  1  0
  8  7  1  0
  9  8  1  0
 13 10  1  6
 12 13  1  0
 13  9  1  0
 13 11  1  0
 15 14  1  0
 15 16  1  0
 17 16  1  0
 18 29  2  0
 19 17  1  0
 19 24  1  0
 20 28  1  0
 20 30  1  0
 21 27  1  0
 21 23  1  0
 22 28  1  0
 23 22  1  0
 24 23  2  0
 25 26  1  0
 25 19  2  0
 26 21  2  0
 27 20  1  0
 28 18  1  0
 30 32  2  0
 31 30  1  0
 33 31  1  0
 34 43  2  0
 34 39  1  0
 35 31  1  0
 35 39  1  0
 36 35  1  0
 37 38  1  0
 37 36  1  0
 38 34  1  0
 39 40  2  0
 40 41  1  0
 42 41  2  0
 43 42  1  0
 44 18  1  0
 44 45  1  0
 44 54  1  0
 45 48  1  0
 46 50  1  0
 46 45  1  0
 47 46  2  0
 50 49  1  0
 52 50  1  0
 52 53  1  0
 52 51  1  0
 54 57  1  1
 54 55  1  0
 56 54  1  0
 58 62  1  0
 58 59  1  0
 59 61  1  0
 60 61  1  0
 62 71  1  0
 63 71  1  0
 64 69  1  0
 65 66  1  0
 65 64  1  0
 67 66  1  0
 67 76  1  0
 67 68  1  0
 69 63  1  0
 69 68  1  0
 70 63  2  0
 71 72  1  0
 73 74  2  0
 74 93  1  0
 75 74  1  0
 75 78  1  0
 76 73  1  0
 76 77  1  0
 77 75  2  0
 78 79  1  0
 79 80  2  0
 81 84  1  0
 81 80  1  0
 82 81  2  0
 83 82  1  0
 83 78  2  0
 84 85  1  0
 85 86  1  0
 86 87  2  0
 88 87  1  0
 88 92  1  0
 89 88  2  0
 90 85  2  0
 90 89  1  0
 91 90  1  0
 93 94  1  0
 94 97  1  0
 94 96  1  0
 95 93  2  0
 98 99  1  0
 98 73  1  0
100 98  1  0
M  ISO  4  16 101  17 101  63 100  71 100
M  END
>  <TORSDO>  (61) 
F 27

>  <SCORE>  (61) 
-11.668

>  <name>  (61) 
61

>  <ligand_id>  (61) 
61

>  <original_smiles>  (61) 
[H]c1c([H])c([H])c2c(c1[H])C([H])([H])C([H])([H])C([H])([H])C2([H])N([H])C(=O)C1([H])N(C(=O)C([H])(N([H])C(=O)C([H])(N([H])C([H])([H])[H])C([H])([H])[H])C(C([H])([H])[H])(C([H])([H])[H])C([H])([H])[H])C([H])([H])c2c([H])c(OC([H])([H])C([H])([H])C([H])([H])n3c([H])c(C([H])(C([H])([H])N([H])C(=O)N4C([H])([H])C([H])([H])C([H])([H])C([H])(n5nc(-c6c([H])c([H])c(Oc7c([H])c([H])c(F)c([H])c7F)c([H])c6[H])c(C(=O)N([H])[H])c5N([H])[H])C4([H])[H])C([H])([H])C([H])([H])C([H])([H])[H])[n+]([H])c3C([H])([H])C([H])([H])C([H])([H])C(C([H])([H])[H])(C([H])([H])[H])C([H])([H])[H])c([H])c([H])c2C1([H])[H]

>  <smiles>  (61) 
[H]c1c([H])c([H])c2c(c1[H])C([H])([H])C([H])([H])C([H])([H])C2([H])N([H])C(=O)C1([H])N(C(=O)C([H])(N([H])C(=O)C([H])(N([H])C([H])([H])[H])C([H])([H])[H])C(C([H])([H])[H])(C([H])([H])[H])C([H])([H])[H])C([H])([H])c2c([H])c(OC([H])([H])C([H])([H])C([H])([H])n3c([H])c(C([H])(C([H])([H])N([H])C(=O)N4C([H])([H])C([H])([H])C([H])([H])C([H])(n5nc(-c6c([H])c([H])c(Oc7c([H])c([H])c(F)c([H])c7F)c([H])c6[H])c(C(=O)N([H])[H])c5N([H])[H])C4([H])[H])C([H])([H])C([H])([H])C([H])([H])[H])[n+]([H])c3C([H])([H])C([H])([H])C([H])([H])C(C([H])([H])[H])(C([H])([H])[H])C([H])([H])[H])c([H])c([H])c2C1([H])[H]

$$$$
62:0:0
     RDKit          3D

 93101  0  0  1  0  0  0  0  0999 V2000
  -30.0680  -20.8820   19.2990 C   0  0  0  0  0  3  0  0  0  0  0  0
  -29.3320  -19.7740   19.6860 C   0  0  0  0  0  0  0  0  0  0  0  0
  -28.0970  -21.6340   19.9760 C   0  0  0  0  0  3  0  0  0  0  0  0
  -29.2690  -22.0120   19.4200 N   0  0  0  0  0  0  0  0  0  0  0  0
  -28.1500  -20.3030   20.1280 N   0  0  0  0  0  0  0  0  0  0  0  0
  -27.3610  -19.7570   20.4540 H   0  0  0  0  0  0  0  0  0  0  0  0
  -26.0790  -21.9380   21.4670 C   0  0  0  0  0  1  0  0  0  0  0  0
  -25.9560  -22.5070   18.9890 C   0  0  0  0  0  1  0  0  0  0  0  0
  -26.8510  -22.4370   20.2360 C   0  0  0  0  0  3  0  0  0  0  0  0
  -29.5200  -18.2600   19.5310 C   0  0  0  0  0  3  0  0  0  0  0  0
  -29.8420  -17.4410   20.8240 C   0  0  0  0  0  3  0  0  0  0  0  0
  -30.4160  -14.9680   20.3590 C   0  0  0  0  0  0  0  0  0  0  0  0
  -30.2440  -12.7520   19.2710 C   0  0  0  0  0  2  0  0  0  0  0  0
  -29.2740  -12.8740   18.0740 C   0  0  0  0  0  2  0  0  0  0  0  0
  -27.8180  -12.6570   18.5360 C   0  0  0  0  0  2  0  0  0  0  0  0
  -27.4500  -13.5100   19.7780 C   0  0  0  0  0  3  0  0  0  0  0  0
  -28.5310  -13.3720   20.8740 C   0  0  0  0  0  2  0  0  0  0  0  0
  -29.8240  -13.7420   20.2760 N   0  0  0  0  0  0  0  0  0  0  0  0
  -31.5590  -15.1870   19.9550 O   0  0  0  0  0  0  0  0  0  0  0  0
  -29.5890  -15.9770   20.7260 N   0  0  0  0  0  0  0  0  0  0  0  0
  -28.6580  -15.6810   20.9740 H   0  0  0  0  0  0  0  0  0  0  0  0
  -25.0620  -14.0280   20.5780 C   0  0  0  0  0  0  0  0  0  0  0  0
  -24.0200  -13.2130   20.9290 C   0  0  0  0  0  0  0  0  0  0  0  0
  -24.5080  -11.8740   20.8210 C   0  0  0  0  0  0  0  0  0  0  0  0
  -26.1180  -13.1820   20.2790 N   0  0  0  0  0  0  0  0  0  0  0  0
  -25.7920  -11.8800   20.4820 N   0  0  0  0  0  0  0  0  0  0  0  0
  -23.8140  -10.5880   20.9610 C   0  0  0  0  0  0  0  0  0  0  0  0
  -24.2890   -9.5850   21.8360 C   0  0  0  0  0  3  0  0  0  0  0  0
  -23.5960   -8.3630   21.9670 C   0  0  0  0  0  3  0  0  0  0  0  0
  -22.4140   -8.1350   21.2210 C   0  0  0  0  0  0  0  0  0  0  0  0
  -21.9580   -9.1260   20.3350 C   0  0  0  0  0  3  0  0  0  0  0  0
  -22.6530  -10.3400   20.2030 C   0  0  0  0  0  3  0  0  0  0  0  0
  -21.6880   -6.9700   21.2660 O   0  0  0  0  0  0  0  0  0  0  0  0
  -21.6820   -6.1660   22.3770 C   0  0  0  0  0  0  0  0  0  0  0  0
  -21.2770   -6.6480   23.6420 C   0  0  0  0  0  3  0  0  0  0  0  0
  -21.2220   -5.7730   24.7440 C   0  0  0  0  0  3  0  0  0  0  0  0
  -21.5600   -4.4140   24.5830 C   0  0  0  0  0  0  0  0  0  0  0  0
  -21.9580   -3.9310   23.3240 C   0  0  0  0  0  3  0  0  0  0  0  0
  -22.0170   -4.8060   22.2240 C   0  0  0  0  0  0  0  0  0  0  0  0
  -22.3820   -4.3320   21.0080 F   0  0  0  0  0  0  0  0  0  0  0  0
  -21.4980   -3.5690   25.6390 F   0  0  0  0  0  0  0  0  0  0  0  0
  -22.6180  -13.6420   21.2590 C   0  0  0  0  0  0  0  0  0  0  0  0
  -21.9300  -12.8870   22.1070 N   0  0  0  0  0  0  0  0  0  0  0  0
  -22.1430  -14.6810   20.8020 O   0  0  0  0  0  0  0  0  0  0  0  0
  -22.3240  -12.0420   22.4950 H   0  0  0  0  0  0  0  0  0  0  0  0
  -20.9930  -13.1540   22.3740 H   0  0  0  0  0  0  0  0  0  0  0  0
  -25.1950  -15.4090   20.4650 N   0  0  0  0  0  0  0  0  0  0  0  0
  -24.4100  -16.0400   20.5910 H   0  0  0  0  0  0  0  0  0  0  0  0
  -26.0220  -15.8720   20.1170 H   0  0  0  0  0  0  0  0  0  0  0  0
  -29.5770  -23.3600   18.8220 C   0  0  0  0  0  2  0  0  0  0  0  0
  -29.3160  -24.6810   19.6280 C   0  0  0  0  0  2  0  0  0  0  0  0
  -29.4720  -25.9680   18.7600 C   0  0  0  0  0  2  0  0  0  0  0  0
  -29.1700  -27.2060   19.4400 O   0  0  0  0  0  0  0  0  0  0  0  0
  -24.7490  -31.6260   22.8600 C   0  0  0  0  0  0  0  0  0  0  0  0
  -27.8930  -27.7450   19.4650 C   0  0  0  0  0  0  0  0  0  0  0  0
  -23.7050  -30.2030   21.1270 C   0  0  0  0  0  3  0  0  0  0  0  0
  -25.3220  -28.9540   19.5910 C   0  0  0  0  0  0  0  0  0  0  0  0
  -26.1660  -30.8790   20.9440 C   0  0  0  0  0  2  0  0  0  0  0  0
  -26.4110  -29.5670   20.2210 C   0  0  0  0  0  0  0  0  0  0  0  0
  -27.6900  -28.9640   20.1630 C   0  0  0  0  0  3  0  0  0  0  0  0
  -26.7760  -27.1440   18.8360 C   0  0  0  0  0  3  0  0  0  0  0  0
  -25.5010  -27.7430   18.8980 C   0  0  0  0  0  3  0  0  0  0  0  0
  -23.9790  -29.6450   19.7030 C   0  0  0  0  0  2  0  0  0  0  0  0
  -24.8910  -30.9170   21.7040 N   0  0  0  0  0  0  0  0  0  0  0  0
  -23.6480  -31.7250   23.4210 O   0  0  0  0  0  0  0  0  0  0  0  0
  -23.1910  -29.0490   22.0180 C   0  0  0  0  0  0  0  0  0  0  0  0
  -21.8920  -28.7310   21.8940 N   0  0  0  0  0  0  0  0  0  0  0  0
  -23.9550  -28.4470   22.7770 O   0  0  0  0  0  0  0  0  0  0  0  0
  -21.3280  -29.2780   21.2600 H   0  0  0  0  0  0  0  0  0  0  0  0
  -18.6820  -27.1360   22.3460 C   0  0  0  0  0  0  0  0  0  0  0  0
  -21.2020  -27.6510   22.6000 C   0  0  0  0  0  3  0  0  0  0  0  0
  -21.4460  -26.2890   21.9100 C   0  0  0  0  0  2  0  0  0  0  0  0
  -20.3620  -25.9270   20.8890 C   0  0  0  0  0  2  0  0  0  0  0  0
  -18.9880  -25.8710   21.5630 C   0  0  0  0  0  2  0  0  0  0  0  0
  -19.7220  -27.9790   22.8210 C   0  0  0  0  0  0  0  0  0  0  0  0
  -19.3820  -29.1620   23.5140 C   0  0  0  0  0  3  0  0  0  0  0  0
  -18.0360  -29.5050   23.7360 C   0  0  0  0  0  3  0  0  0  0  0  0
  -17.0110  -28.6590   23.2790 C   0  0  0  0  0  3  0  0  0  0  0  0
  -17.3350  -27.4750   22.5910 C   0  0  0  0  0  3  0  0  0  0  0  0
  -25.9520  -32.3660   23.5210 C   0  0  0  0  0  3  0  0  0  0  0  0
  -25.4780  -33.6890   23.9510 N   0  0  0  0  0  0  0  0  0  0  0  0
  -25.6970  -34.8310   23.2870 C   0  0  0  0  0  0  0  0  0  0  0  0
  -26.3870  -34.8890   22.2650 O   0  0  0  0  0  0  0  0  0  0  0  0
  -24.8490  -33.7070   24.7400 H   0  0  0  0  0  0  0  0  0  0  0  0
  -23.7770  -36.4410   23.0390 C   0  0  0  0  0  1  0  0  0  0  0  0
  -25.0460  -36.1130   23.8430 C   0  0  0  0  0  3  0  0  0  0  0  0
  -27.0570  -37.1650   24.7810 C   0  0  0  0  0  1  0  0  0  0  0  0
  -25.9520  -37.2810   23.8340 N   0  0  0  0  0  0  0  0  0  0  0  0
  -25.4420  -38.1350   24.0430 H   0  0  0  0  0  0  0  0  0  0  0  0
  -26.5790  -31.5750   24.7330 C   0  0  1  0  0  0  0  0  0  0  0  0
  -25.5390  -31.1320   25.7890 C   0  0  0  0  0  1  0  0  0  0  0  0
  -27.3120  -30.3090   24.2310 C   0  0  0  0  0  1  0  0  0  0  0  0
  -27.6350  -32.4520   25.4450 C   0  0  0  0  0  1  0  0  0  0  0  0
  1  4  1  0
  1  2  2  0
  2  5  1  0
  3  5  1  0
  3  9  1  0
  4  3  1  0
  5  6  1  0
  8  9  1  0
  9  7  1  0
 10  2  1  0
 10 11  2  0
 12 20  1  0
 13 18  1  0
 14 15  1  0
 14 13  1  0
 16 15  1  0
 16 25  1  0
 16 17  1  0
 18 12  1  0
 18 17  1  0
 19 12  2  0
 20 11  1  0
 20 21  1  0
 22 23  2  0
 23 42  1  0
 24 23  1  0
 24 27  1  0
 25 26  1  0
 25 22  1  0
 26 24  2  0
 27 28  1  0
 28 29  2  0
 30 33  1  0
 30 29  1  0
 31 30  2  0
 32 31  1  0
 32 27  2  0
 33 34  1  0
 34 35  1  0
 35 36  2  0
 37 36  1  0
 37 41  1  0
 38 37  2  0
 39 34  2  0
 39 38  1  0
 40 39  1  0
 42 43  1  0
 43 46  1  0
 43 45  1  0
 44 42  2  0
 47 22  1  0
 47 48  1  0
 49 47  1  0
 50  4  1  0
 50 51  1  0
 52 53  1  0
 52 51  1  0
 53 55  1  0
 54 65  2  0
 55 60  1  0
 56 64  1  0
 56 66  1  0
 57 63  1  0
 57 59  1  0
 58 64  1  0
 59 58  1  0
 60 59  2  0
 61 62  1  0
 61 55  2  0
 62 57  2  0
 63 56  1  0
 64 54  1  0
 66 68  2  0
 67 66  1  0
 69 67  1  0
 70 79  2  0
 70 75  1  0
 71 67  1  0
 71 75  1  0
 72 71  1  0
 73 74  1  0
 73 72  1  0
 74 70  1  0
 75 76  2  0
 76 77  1  0
 78 77  2  0
 79 78  1  0
 80 54  1  0
 80 81  1  0
 80 90  1  0
 81 84  1  0
 82 86  1  0
 82 81  1  0
 83 82  2  0
 86 85  1  0
 88 86  1  0
 88 89  1  0
 88 87  1  0
 90 93  1  1
 90 91  1  0
 92 90  1  0
M  ISO  4  12 100  20 100  52 101  53 101
M  END
>  <TORSDO>  (62) 
F 22

>  <SCORE>  (62) 
-9.295

>  <name>  (62) 
62

>  <ligand_id>  (62) 
62

>  <original_smiles>  (62) 
[H]c1c([H])c([H])c2c(c1[H])C([H])([H])C([H])([H])C([H])([H])C2([H])N([H])C(=O)C1([H])N(C(=O)C([H])(N([H])C(=O)C([H])(N([H])C([H])([H])[H])C([H])([H])[H])C(C([H])([H])[H])(C([H])([H])[H])C([H])([H])[H])C([H])([H])c2c([H])c(OC([H])([H])C([H])([H])C([H])([H])n3c([H])c(C([H])([H])C([H])([H])N([H])C(=O)N4C([H])([H])C([H])([H])C([H])([H])C([H])(n5nc(-c6c([H])c([H])c(Oc7c([H])c([H])c(F)c([H])c7F)c([H])c6[H])c(C(=O)N([H])[H])c5N([H])[H])C4([H])[H])[n+]([H])c3C([H])(C([H])([H])[H])C([H])([H])[H])c([H])c([H])c2C1([H])[H]

>  <smiles>  (62) 
[H]c1c([H])c([H])c2c(c1[H])C([H])([H])C([H])([H])C([H])([H])C2([H])N([H])C(=O)C1([H])N(C(=O)C([H])(N([H])C(=O)C([H])(N([H])C([H])([H])[H])C([H])([H])[H])C(C([H])([H])[H])(C([H])([H])[H])C([H])([H])[H])C([H])([H])c2c([H])c(OC([H])([H])C([H])([H])C([H])([H])n3c([H])c(C([H])([H])C([H])([H])N([H])C(=O)N4C([H])([H])C([H])([H])C([H])([H])C([H])(n5nc(-c6c([H])c([H])c(Oc7c([H])c([H])c(F)c([H])c7F)c([H])c6[H])c(C(=O)N([H])[H])c5N([H])[H])C4([H])[H])[n+]([H])c3C([H])(C([H])([H])[H])C([H])([H])[H])c([H])c([H])c2C1([H])[H]

$$$$
63:0:0
     RDKit          3D

 97105  0  0  1  0  0  0  0  0999 V2000
  -29.4220  -20.5240   20.7110 C   0  0  0  0  0  3  0  0  0  0  0  0
  -27.0180  -20.7640   20.5620 C   0  0  0  0  0  3  0  0  0  0  0  0
  -28.2780  -21.3500   20.8010 C   0  0  0  0  0  0  0  0  0  0  0  0
  -29.2570  -19.1610   20.3880 C   0  0  0  0  0  0  0  0  0  0  0  0
  -26.9490  -19.3930   20.2480 C   0  0  0  0  0  0  0  0  0  0  0  0
  -28.0460  -18.6190   20.1530 N   0  0  0  0  0  0  0  0  0  0  0  0
  -28.3820  -22.8160   21.2080 C   0  0  0  0  0  2  0  0  0  0  0  0
  -28.0490  -23.8250   20.0870 C   0  0  0  0  0  2  0  0  0  0  0  0
  -28.4900  -25.2630   20.4470 C   0  0  0  0  0  2  0  0  0  0  0  0
  -28.2490  -26.2040   19.3990 O   0  0  0  0  0  0  0  0  0  0  0  0
  -25.3570  -31.0190   23.7880 C   0  0  0  0  0  0  0  0  0  0  0  0
  -27.2390  -27.0980   19.6450 C   0  0  0  0  0  0  0  0  0  0  0  0
  -23.9690  -30.3280   21.8590 C   0  0  0  0  0  3  0  0  0  0  0  0
  -25.1620  -28.9560   20.0680 C   0  0  0  0  0  0  0  0  0  0  0  0
  -26.5200  -30.2520   21.7220 C   0  0  0  0  0  2  0  0  0  0  0  0
  -26.3730  -29.0920   20.7590 C   0  0  0  0  0  0  0  0  0  0  0  0
  -27.4170  -28.1660   20.5520 C   0  0  0  0  0  3  0  0  0  0  0  0
  -26.0230  -26.9760   18.9460 C   0  0  0  0  0  3  0  0  0  0  0  0
  -24.9790  -27.8980   19.1610 C   0  0  0  0  0  3  0  0  0  0  0  0
  -24.0950  -29.9910   20.3480 C   0  0  0  0  0  2  0  0  0  0  0  0
  -25.3010  -30.5290   22.5170 N   0  0  0  0  0  0  0  0  0  0  0  0
  -24.3270  -31.3430   24.3950 O   0  0  0  0  0  0  0  0  0  0  0  0
  -23.1110  -29.2360   22.5370 C   0  0  0  0  0  0  0  0  0  0  0  0
  -21.7800  -29.3450   22.3890 N   0  0  0  0  0  0  0  0  0  0  0  0
  -23.6400  -28.3080   23.1550 O   0  0  0  0  0  0  0  0  0  0  0  0
  -21.4250  -30.1400   21.8770 H   0  0  0  0  0  0  0  0  0  0  0  0
  -18.2290  -28.7380   22.6470 C   0  0  0  0  0  0  0  0  0  0  0  0
  -20.7790  -28.4110   22.9060 C   0  0  0  0  0  3  0  0  0  0  0  0
  -20.6170  -27.1930   21.9670 C   0  0  0  0  0  2  0  0  0  0  0  0
  -19.4980  -27.3720   20.9350 C   0  0  0  0  0  2  0  0  0  0  0  0
  -18.1560  -27.6080   21.6350 C   0  0  0  0  0  2  0  0  0  0  0  0
  -19.4640  -29.1260   23.2340 C   0  0  0  0  0  0  0  0  0  0  0  0
  -19.4810  -30.2050   24.1430 C   0  0  0  0  0  3  0  0  0  0  0  0
  -18.2960  -30.8890   24.4720 C   0  0  0  0  0  3  0  0  0  0  0  0
  -17.0740  -30.4910   23.9010 C   0  0  0  0  0  3  0  0  0  0  0  0
  -17.0420  -29.4160   22.9950 C   0  0  0  0  0  3  0  0  0  0  0  0
  -26.7170  -31.2200   24.5270 C   0  0  0  0  0  3  0  0  0  0  0  0
  -27.1360  -29.9800   25.4080 C   0  0  1  0  0  0  0  0  0  0  0  0
  -26.0190  -29.4860   26.3570 C   0  0  0  0  0  1  0  0  0  0  0  0
  -27.5530  -28.7900   24.5120 C   0  0  0  0  0  1  0  0  0  0  0  0
  -28.3700  -30.3400   26.2690 C   0  0  0  0  0  1  0  0  0  0  0  0
  -26.6000  -32.4300   25.3520 N   0  0  0  0  0  0  0  0  0  0  0  0
  -27.1450  -33.6140   25.0460 C   0  0  0  0  0  0  0  0  0  0  0  0
  -27.8710  -33.7830   24.0630 O   0  0  0  0  0  0  0  0  0  0  0  0
  -25.9740  -32.3800   26.1430 H   0  0  0  0  0  0  0  0  0  0  0  0
  -25.7680  -35.6980   25.3350 C   0  0  0  0  0  1  0  0  0  0  0  0
  -26.8360  -34.8000   25.9790 C   0  0  0  0  0  3  0  0  0  0  0  0
  -28.9830  -34.8990   27.1670 C   0  0  0  0  0  1  0  0  0  0  0  0
  -28.0290  -35.6070   26.3180 N   0  0  0  0  0  0  0  0  0  0  0  0
  -27.7590  -36.4650   26.7920 H   0  0  0  0  0  0  0  0  0  0  0  0
  -30.4260  -18.1890   20.2810 C   0  0  0  0  0  2  0  0  0  0  0  0
  -30.7170  -17.4280   21.5980 C   0  0  0  0  0  2  0  0  0  0  0  0
  -30.5670  -15.8910   21.5110 C   0  0  0  0  0  2  0  0  0  0  0  0
  -32.4250  -14.1370   21.6030 C   0  0  0  0  0  0  0  0  0  0  0  0
  -32.3900  -11.6900   21.3640 C   0  0  0  0  0  2  0  0  0  0  0  0
  -32.0030  -11.3190   19.9180 C   0  0  0  0  0  2  0  0  0  0  0  0
  -30.4710  -11.2520   19.7570 C   0  0  0  0  0  2  0  0  0  0  0  0
  -29.7470  -12.4840   20.3660 C   0  0  0  0  0  3  0  0  0  0  0  0
  -30.2760  -12.7740   21.7870 C   0  0  0  0  0  2  0  0  0  0  0  0
  -31.7290  -12.9670   21.6810 N   0  0  0  0  0  0  0  0  0  0  0  0
  -33.6560  -14.1710   21.6110 O   0  0  0  0  0  0  0  0  0  0  0  0
  -31.8100  -15.2320   21.1170 N   0  0  0  0  0  0  0  0  0  0  0  0
  -32.4910  -15.8830   20.7540 H   0  0  0  0  0  0  0  0  0  0  0  0
  -27.3240  -13.1230   19.7830 C   0  0  0  0  0  0  0  0  0  0  0  0
  -26.1330  -12.4800   19.9850 C   0  0  0  0  0  0  0  0  0  0  0  0
  -26.4530  -11.2690   20.6710 C   0  0  0  0  0  0  0  0  0  0  0  0
  -28.2960  -12.3130   20.3480 N   0  0  0  0  0  0  0  0  0  0  0  0
  -27.7530  -11.2140   20.9300 N   0  0  0  0  0  0  0  0  0  0  0  0
  -25.6040  -10.1300   21.0460 C   0  0  0  0  0  0  0  0  0  0  0  0
  -25.4340   -9.7510   22.3960 C   0  0  0  0  0  3  0  0  0  0  0  0
  -24.5990   -8.6630   22.7330 C   0  0  0  0  0  3  0  0  0  0  0  0
  -23.9230   -7.9460   21.7180 C   0  0  0  0  0  0  0  0  0  0  0  0
  -24.1140   -8.3150   20.3750 C   0  0  0  0  0  3  0  0  0  0  0  0
  -24.9490   -9.3930   20.0400 C   0  0  0  0  0  3  0  0  0  0  0  0
  -23.1100   -6.8620   21.9490 O   0  0  0  0  0  0  0  0  0  0  0  0
  -22.3120   -6.7860   23.0620 C   0  0  0  0  0  0  0  0  0  0  0  0
  -21.3660   -7.7880   23.3720 C   0  0  0  0  0  3  0  0  0  0  0  0
  -20.5170   -7.6350   24.4860 C   0  0  0  0  0  3  0  0  0  0  0  0
  -20.6080   -6.4810   25.2890 C   0  0  0  0  0  0  0  0  0  0  0  0
  -21.5460   -5.4810   24.9800 C   0  0  0  0  0  3  0  0  0  0  0  0
  -22.3940   -5.6320   23.8690 C   0  0  0  0  0  0  0  0  0  0  0  0
  -23.2820   -4.6550   23.5630 F   0  0  0  0  0  0  0  0  0  0  0  0
  -19.7890   -6.3320   26.3550 F   0  0  0  0  0  0  0  0  0  0  0  0
  -24.7860  -12.9140   19.4850 C   0  0  0  0  0  0  0  0  0  0  0  0
  -23.7310  -12.6260   20.2390 N   0  0  0  0  0  0  0  0  0  0  0  0
  -24.6670  -13.5530   18.4400 O   0  0  0  0  0  0  0  0  0  0  0  0
  -23.8270  -12.1210   21.1070 H   0  0  0  0  0  0  0  0  0  0  0  0
  -22.8100  -12.9180   19.9420 H   0  0  0  0  0  0  0  0  0  0  0  0
  -27.6640  -14.3130   19.1480 N   0  0  0  0  0  0  0  0  0  0  0  0
  -26.9690  -14.9050   18.7100 H   0  0  0  0  0  0  0  0  0  0  0  0
  -28.6090  -14.6580   19.0370 H   0  0  0  0  0  0  0  0  0  0  0  0
  -25.6150  -18.6920   20.0290 C   0  0  0  0  0  2  0  0  0  0  0  0
  -25.3400  -17.5600   21.0520 C   0  0  0  0  0  2  0  0  0  0  0  0
  -23.4830  -16.0370   20.1740 C   0  0  0  0  0  1  0  0  0  0  0  0
  -25.3310  -15.1070   21.5730 C   0  0  0  0  0  1  0  0  0  0  0  0
  -25.8030  -15.8210   19.2330 C   0  0  0  0  0  1  0  0  0  0  0  0
  -24.9870  -16.1520   20.4940 C   0  0  2  0  0  0  0  0  0  0  0  0
  1  3  1  0
  2  3  2  0
  3  7  1  0
  4  1  2  0
  5  2  1  0
  6  5  2  0
  6  4  1  0
  8  9  1  0
  8  7  1  0
 10 12  1  0
 10  9  1  0
 11 22  2  0
 12 17  1  0
 13 21  1  0
 13 23  1  0
 14 20  1  0
 14 16  1  0
 15 21  1  0
 16 15  1  0
 17 16  2  0
 18 19  1  0
 18 12  2  0
 19 14  2  0
 20 13  1  0
 21 11  1  0
 23 25  2  0
 24 23  1  0
 26 24  1  0
 27 36  2  0
 27 32  1  0
 28 24  1  0
 28 32  1  0
 29 28  1  0
 30 31  1  0
 30 29  1  0
 31 27  1  0
 32 33  2  0
 33 34  1  0
 35 34  2  0
 36 35  1  0
 37 11  1  0
 37 42  1  0
 37 38  1  0
 38 41  1  1
 38 39  1  0
 40 38  1  0
 42 45  1  0
 43 42  1  0
 43 47  1  0
 44 43  2  0
 47 46  1  0
 47 49  1  0
 49 50  1  0
 49 48  1  0
 51  4  1  0
 51 52  1  0
 53 52  1  0
 54 61  2  0
 54 60  1  0
 55 60  1  0
 56 55  1  0
 57 56  1  0
 58 57  1  0
 58 59  1  0
 60 59  1  0
 62 53  1  0
 62 54  1  0
 63 62  1  0
 64 65  2  0
 64 67  1  0
 65 66  1  0
 66 68  2  0
 66 69  1  0
 67 58  1  0
 67 68  1  0
 69 70  1  0
 70 71  2  0
 72 75  1  0
 72 71  1  0
 73 72  2  0
 74 73  1  0
 74 69  2  0
 75 76  1  0
 76 77  2  0
 76 81  1  0
 77 78  1  0
 78 79  2  0
 79 83  1  0
 80 79  1  0
 81 80  2  0
 82 81  1  0
 84 65  1  0
 84 85  1  0
 85 87  1  0
 86 84  2  0
 88 85  1  0
 89 64  1  0
 90 89  1  0
 91 89  1  0
 92  5  1  0
 92 93  1  0
 97 94  1  6
 96 97  1  0
 97 93  1  0
 97 95  1  0
M  ISO  4   9 101  10 101  54 100  62 100
M  END
>  <TORSDO>  (63) 
F 25

>  <SCORE>  (63) 
1.617

>  <name>  (63) 
63

>  <ligand_id>  (63) 
63

>  <original_smiles>  (63) 
[H]c1c([H])c([H])c2c(c1[H])C([H])([H])C([H])([H])C([H])([H])C2([H])N([H])C(=O)C1([H])N(C(=O)C([H])(N([H])C(=O)C([H])(N([H])C([H])([H])[H])C([H])([H])[H])C(C([H])([H])[H])(C([H])([H])[H])C([H])([H])[H])C([H])([H])c2c([H])c(OC([H])([H])C([H])([H])C([H])([H])c3c([H])c(C([H])([H])C([H])([H])C([H])([H])N([H])C(=O)N4C([H])([H])C([H])([H])C([H])([H])C([H])(n5nc(-c6c([H])c([H])c(Oc7c([H])c([H])c(F)c([H])c7F)c([H])c6[H])c(C(=O)N([H])[H])c5N([H])[H])C4([H])[H])nc(C([H])([H])C([H])([H])C(C([H])([H])[H])(C([H])([H])[H])C([H])([H])[H])c3[H])c([H])c([H])c2C1([H])[H]

>  <smiles>  (63) 
[H]c1c([H])c([H])c2c(c1[H])C([H])([H])C([H])([H])C([H])([H])C2([H])N([H])C(=O)C1([H])N(C(=O)C([H])(N([H])C(=O)C([H])(N([H])C([H])([H])[H])C([H])([H])[H])C(C([H])([H])[H])(C([H])([H])[H])C([H])([H])[H])C([H])([H])c2c([H])c(OC([H])([H])C([H])([H])C([H])([H])c3c([H])c(C([H])([H])C([H])([H])C([H])([H])N([H])C(=O)N4C([H])([H])C([H])([H])C([H])([H])C([H])(n5nc(-c6c([H])c([H])c(Oc7c([H])c([H])c(F)c([H])c7F)c([H])c6[H])c(C(=O)N([H])[H])c5N([H])[H])C4([H])[H])nc(C([H])([H])C([H])([H])C(C([H])([H])[H])(C([H])([H])[H])C([H])([H])[H])c3[H])c([H])c([H])c2C1([H])[H]

$$$$
64:0:0
     RDKit          3D

 96 97  0  0  1  0  0  0  0  0999 V2000
  -28.3310  -26.2790   18.6040 C   0  0  0  0  0  2  0  0  0  0  0  0
  -28.3190  -25.0580   19.1810 C   0  0  0  0  0  1  0  0  0  0  0  0
  -27.0620  -26.5220   19.4940 C   0  0  0  0  0  2  0  0  0  0  0  0
  -25.9360  -26.7930   20.4560 C   0  0  0  0  0  3  0  0  0  0  0  0
  -25.7910  -27.1560   21.4700 C   0  0  0  0  0  3  0  0  0  0  0  0
  -26.8760  -26.2690   18.8480 N   0  0  0  0  0  0  0  0  0  0  0  0
  -23.8530  -25.4570   22.6020 C   0  0  0  0  0  1  0  0  0  0  0  0
  -23.9200  -26.0850   21.1570 C   0  0  0  0  0  3  0  0  0  0  0  0
  -21.8290  -25.5600   19.2990 C   0  0  0  0  0  1  0  0  0  0  0  0
  -22.4870  -26.3430   20.4790 C   0  0  0  0  0  2  0  0  0  0  0  0
  -29.4440  -22.9430   19.2840 C   0  0  0  0  0 15  0  0  0  0  0  0
  -31.1820  -20.9100   20.6110 C   0  0  0  0  0  1  0  0  0  0  0  0
  -29.8090  -20.6430   19.9850 C   0  0  0  0  0  1  0  0  0  0  0  0
  -30.5630  -16.7930   20.1430 C   0  0  0  0  0  0  0  0  0  0  0  0
  -30.8130  -13.9540   19.5720 C   0  0  0  0  0  2  0  0  0  0  0  0
  -30.0910  -13.0220   18.5150 C   0  0  0  0  0  2  0  0  0  0  0  0
  -28.7450  -12.4880   19.0010 C   0  0  0  0  0  2  0  0  0  0  0  0
  -28.0530  -13.5670   19.8410 C   0  0  0  0  0  3  0  0  0  0  0  0
  -28.9920  -14.3940   20.8230 C   0  0  0  0  0  2  0  0  0  0  0  0
  -30.0310  -15.2730   20.0590 N   0  0  0  0  0  0  0  0  0  0  0  0
  -31.7700  -16.4410   20.3400 O   0  0  0  0  0  0  0  0  0  0  0  0
  -30.0820  -18.5100   19.7740 N   0  0  0  0  0  2  0  0  0  0  0  0
  -30.7780  -18.5730   19.0430 H   0  0  0  0  0  0  0  0  0  0  0  0
  -25.6570  -13.9890   20.5510 C   0  0  0  0  0  0  0  0  0  0  0  0
  -24.5860  -13.1960   20.8500 C   0  0  0  0  0  0  0  0  0  0  0  0
  -25.0660  -11.8490   20.8280 C   0  0  0  0  0  0  0  0  0  0  0  0
  -26.7360  -13.1490   20.3610 N   0  0  0  0  0  0  0  0  0  0  0  0
  -26.3830  -11.8420   20.5750 N   0  0  0  0  0  0  0  0  0  0  0  0
  -24.3150  -10.5820   20.9700 C   0  0  0  0  0  0  0  0  0  0  0  0
  -24.6280   -9.6380   21.9750 C   0  0  0  0  0  3  0  0  0  0  0  0
  -23.8690   -8.4540   22.1140 C   0  0  0  0  0  3  0  0  0  0  0  0
  -22.7780   -8.2000   21.2500 C   0  0  0  0  0  0  0  0  0  0  0  0
  -22.4790   -9.1320   20.2410 C   0  0  0  0  0  3  0  0  0  0  0  0
  -23.2390  -10.3070   20.1000 C   0  0  0  0  0  3  0  0  0  0  0  0
  -22.0050   -7.0620   21.2930 O   0  0  0  0  0  0  0  0  0  0  0  0
  -21.7490   -6.4060   22.4710 C   0  0  0  0  0  0  0  0  0  0  0  0
  -21.0570   -7.0250   23.5350 C   0  0  0  0  0  3  0  0  0  0  0  0
  -20.7540   -6.2940   24.7010 C   0  0  0  0  0  3  0  0  0  0  0  0
  -21.1330   -4.9420   24.8030 C   0  0  0  0  0  0  0  0  0  0  0  0
  -21.8140   -4.3200   23.7420 C   0  0  0  0  0  3  0  0  0  0  0  0
  -22.1180   -5.0490   22.5790 C   0  0  0  0  0  0  0  0  0  0  0  0
  -22.7560   -4.4350   21.5520 F   0  0  0  0  0  0  0  0  0  0  0  0
  -20.8370   -4.2370   25.9210 F   0  0  0  0  0  0  0  0  0  0  0  0
  -23.1720  -13.6670   21.0410 C   0  0  0  0  0  0  0  0  0  0  0  0
  -22.4010  -12.9830   21.8770 N   0  0  0  0  0  0  0  0  0  0  0  0
  -22.7620  -14.6850   20.4840 O   0  0  0  0  0  0  0  0  0  0  0  0
  -22.7430  -12.1600   22.3510 H   0  0  0  0  0  0  0  0  0  0  0  0
  -21.4530  -13.2860   22.0480 H   0  0  0  0  0  0  0  0  0  0  0  0
  -25.8040  -15.3620   20.3760 N   0  0  0  0  0  0  0  0  0  0  0  0
  -25.0260  -16.0110   20.4350 H   0  0  0  0  0  0  0  0  0  0  0  0
  -26.6730  -15.8040   20.1040 H   0  0  0  0  0  0  0  0  0  0  0  0
  -26.4590  -25.0420   17.6630 C   0  0  0  0  0  2  0  0  0  0  0  0
  -26.2190  -23.4210   18.1610 C   0  0  0  0  0  3  0  0  0  0  0  0
  -26.1390  -22.6760   19.7060 C   0  0  0  0  0  3  0  0  0  0  0  0
  -26.5220  -23.2870   21.2870 C   0  0  0  0  0  2  0  0  0  0  0  0
  -27.4490  -24.4410   21.7520 O   0  0  0  0  0  0  0  0  0  0  0  0
  -24.7080  -31.8790   23.3410 C   0  0  0  0  0  0  0  0  0  0  0  0
  -26.7450  -25.5460   21.7250 C   0  0  0  0  0  2  0  0  0  0  0  0
  -23.5580  -30.5120   21.5950 C   0  0  0  0  0  3  0  0  0  0  0  0
  -24.9720  -28.8580   19.5570 C   0  0  0  0  0  1  0  0  0  0  0  0
  -26.2170  -30.5990   21.5470 C   0  0  0  0  0  2  0  0  0  0  0  0
  -26.5550  -29.1780   20.7380 C   0  0  0  0  0  1  0  0  0  0  0  0
  -27.6240  -27.6450   21.7560 C   0  0  0  0  0  1  0  0  0  0  0  0
  -25.0080  -25.1600   20.2600 C   0  0  0  0  0  2  0  0  0  0  0  0
  -24.2580  -26.9690   19.0640 C   0  0  0  0  0 15  0  0  0  0  0  0
  -23.8400  -29.9310   20.0560 C   0  0  0  0  0  2  0  0  0  0  0  0
  -24.8480  -31.0170   22.2270 N   0  0  0  0  0  0  0  0  0  0  0  0
  -23.6000  -32.2270   23.8050 O   0  0  0  0  0  0  0  0  0  0  0  0
  -22.6210  -29.7360   22.6680 C   0  0  0  0  0  0  0  0  0  0  0  0
  -21.2690  -29.6170   22.5230 N   0  0  0  0  0  0  0  0  0  0  0  0
  -23.1460  -29.2300   23.6650 O   0  0  0  0  0  0  0  0  0  0  0  0
  -20.8520  -30.0880   21.7360 H   0  0  0  0  0  0  0  0  0  0  0  0
  -17.8410  -28.3260   22.8700 C   0  0  0  0  0  0  0  0  0  0  0  0
  -20.3450  -28.8060   23.3770 C   0  0  0  0  0  3  0  0  0  0  0  0
  -20.4310  -27.2930   23.2030 C   0  0  0  0  0  2  0  0  0  0  0  0
  -19.5810  -26.7490   22.0290 C   0  0  0  0  0  2  0  0  0  0  0  0
  -18.1170  -26.9310   22.3390 C   0  0  0  0  0  2  0  0  0  0  0  0
  -18.8740  -29.2060   23.3200 C   0  0  0  0  0  0  0  0  0  0  0  0
  -18.5270  -30.4790   23.8010 C   0  0  0  0  0  3  0  0  0  0  0  0
  -17.1830  -30.8880   23.8270 C   0  0  0  0  0  3  0  0  0  0  0  0
  -16.1720  -30.0220   23.3780 C   0  0  0  0  0  3  0  0  0  0  0  0
  -16.5000  -28.7440   22.9060 C   0  0  0  0  0  3  0  0  0  0  0  0
  -25.9270  -32.5160   24.0910 C   0  0  0  0  0  3  0  0  0  0  0  0
  -25.6250  -33.9270   24.4510 N   0  0  0  0  0  0  0  0  0  0  0  0
  -25.9320  -35.0070   23.7140 C   0  0  0  0  0  0  0  0  0  0  0  0
  -26.5170  -34.9110   22.6340 O   0  0  0  0  0  0  0  0  0  0  0  0
  -25.0870  -34.0610   25.2920 H   0  0  0  0  0  0  0  0  0  0  0  0
  -24.2030  -36.8500   23.5950 C   0  0  0  0  0  1  0  0  0  0  0  0
  -25.5310  -36.4100   24.2360 C   0  0  0  0  0  3  0  0  0  0  0  0
  -27.7570  -37.2950   24.8020 C   0  0  0  0  0  1  0  0  0  0  0  0
  -26.5570  -37.4520   23.9860 N   0  0  0  0  0  0  0  0  0  0  0  0
  -26.1790  -38.3800   24.1560 H   0  0  0  0  0  0  0  0  0  0  0  0
  -26.3210  -31.7350   25.4080 C   0  0  1  0  0  0  0  0  0  0  0  0
  -25.1320  -31.4610   26.3620 C   0  0  0  0  0  1  0  0  0  0  0  0
  -26.9560  -30.3760   25.0470 C   0  0  0  0  0  1  0  0  0  0  0  0
  -27.3910  -32.5280   26.1960 C   0  0  0  0  0  1  0  0  0  0  0  0
  1  6  1  0
  1  2  1  0
  3  4  1  0
  4 64  1  0
  4  5  1  0
  5 58  1  0
  5 63  1  0
  6  3  1  0
  8  7  1  0
  9 10  1  0
 10  8  1  0
 13 12  1  0
 14 21  2  0
 15 20  1  0
 16 17  1  0
 16 15  1  0
 18 17  1  0
 18 27  1  0
 18 19  1  0
 20 14  1  0
 20 19  1  0
 22 14  1  0
 23 22  1  0
 24 25  2  0
 25 44  1  0
 26 25  1  0
 26 29  1  0
 27 24  1  0
 27 28  1  0
 28 26  2  0
 29 30  1  0
 30 31  2  0
 32 35  1  0
 32 31  1  0
 33 32  2  0
 34 33  1  0
 34 29  2  0
 35 36  1  0
 36 41  2  0
 36 37  1  0
 37 38  2  0
 38 39  1  0
 39 43  1  0
 40 39  2  0
 41 40  1  0
 42 41  1  0
 44 45  1  0
 45 48  1  0
 45 47  1  0
 46 44  2  0
 49 50  1  0
 49 24  1  0
 51 49  1  0
 52 53  1  0
 52  6  1  0
 53 54  2  0
 54 55  1  0
 55 56  1  0
 57 68  2  0
 58 56  1  0
 59 66  1  0
 59 67  1  0
 59 69  1  0
 60 66  1  0
 61 67  1  0
 62 61  1  0
 64  8  1  0
 67 57  1  0
 69 71  2  0
 70 69  1  0
 72 70  1  0
 73 82  2  0
 73 78  1  0
 74 70  1  0
 75 74  1  0
 76 77  1  0
 76 75  1  0
 77 73  1  0
 78 74  1  0
 78 79  2  0
 79 80  1  0
 81 80  2  0
 82 81  1  0
 83 57  1  0
 83 84  1  0
 83 93  1  0
 84 87  1  0
 85 89  1  0
 85 84  1  0
 86 85  2  0
 89 88  1  0
 91 92  1  0
 91 89  1  0
 91 90  1  0
 93 96  1  1
 93 94  1  0
 95 93  1  0
M  ISO  4  14 100  22 100  55 101  56 101
M  END
>  <TORSDO>  (64) 
F 24

>  <SCORE>  (64) 
-15.295

>  <name>  (64) 
64

>  <ligand_id>  (64) 
64

>  <original_smiles>  (64) 
[H]c1c([H])c([H])c2c(c1[H])C([H])([H])C([H])([H])C([H])([H])C2([H])N([H])C(=O)C1([H])N(C(=O)C([H])(N([H])C(=O)C([H])(N([H])C([H])([H])[H])C([H])([H])[H])C(C([H])([H])[H])(C([H])([H])[H])C([H])([H])[H])C([H])([H])c2c([H])c(OC([H])([H])C([H])([H])C([H])([H])C([H])([H])n3c([H])c(C([H])([H])C([H])(N([H])C(=O)N4C([H])([H])C([H])([H])C([H])([H])C([H])(n5nc(-c6c([H])c([H])c(Oc7c([H])c([H])c(F)c([H])c7F)c([H])c6[H])c(C(=O)N([H])[H])c5N([H])[H])C4([H])[H])C([H])([H])[H])c(C([H])([H])[H])c3C([H])(C([H])([H])[H])C([H])([H])C([H])([H])[H])c([H])c([H])c2C1([H])[H]

>  <smiles>  (64) 
[H]c1c([H])c([H])c2c(c1[H])C([H])([H])C([H])([H])C([H])([H])C2([H])N([H])C(=O)C1([H])N(C(=O)C([H])(N([H])C(=O)C([H])(N([H])C([H])([H])[H])C([H])([H])[H])C(C([H])([H])[H])(C([H])([H])[H])C([H])([H])[H])C([H])([H])c2c([H])c(OC([H])([H])C([H])([H])C([H])([H])C([H])([H])n3c([H])c(C([H])([H])C([H])(N([H])C(=O)N4C([H])([H])C([H])([H])C([H])([H])C([H])(n5nc(-c6c([H])c([H])c(Oc7c([H])c([H])c(F)c([H])c7F)c([H])c6[H])c(C(=O)N([H])[H])c5N([H])[H])C4([H])[H])C([H])([H])[H])c(C([H])([H])[H])c3C([H])(C([H])([H])[H])C([H])([H])C([H])([H])[H])c([H])c([H])c2C1([H])[H]

$$$$
65:0:0
     RDKit          3D

101109  0  0  1  0  0  0  0  0999 V2000
  -30.3980  -18.8330   21.0650 C   0  0  0  0  0  3  0  0  0  0  0  0
  -30.9730  -17.6110   21.3210 C   0  0  0  0  0  0  0  0  0  0  0  0
  -32.1870  -18.6580   19.7570 C   0  0  0  0  0  3  0  0  0  0  0  0
  -31.1970  -19.4740   20.1480 N   0  0  0  0  0  0  0  0  0  0  0  0
  -32.0580  -17.5450   20.4850 N   0  0  0  0  0  0  0  0  0  0  0  0
  -32.6950  -16.7610   20.4280 H   0  0  0  0  0  0  0  0  0  0  0  0
  -29.2010  -16.5970   22.7690 C   0  0  0  0  0  1  0  0  0  0  0  0
  -31.5530  -16.8650   23.5810 C   0  0  0  0  0  1  0  0  0  0  0  0
  -30.6850  -16.5510   22.3500 C   0  0  2  0  0  0  0  0  0  0  0  0
  -31.0630  -15.1410   21.8340 C   0  0  0  0  0  2  0  0  0  0  0  0
  -29.9150  -14.1950   19.8170 C   0  0  0  0  0  0  0  0  0  0  0  0
  -29.4330  -12.2280   18.4120 C   0  0  0  0  0  2  0  0  0  0  0  0
  -28.2880  -12.3820   17.4010 C   0  0  0  0  0  2  0  0  0  0  0  0
  -26.9330  -12.0770   18.0620 C   0  0  0  0  0  2  0  0  0  0  0  0
  -26.7320  -12.8660   19.3790 C   0  0  0  0  0  3  0  0  0  0  0  0
  -27.9540  -12.7130   20.3080 C   0  0  0  0  0  2  0  0  0  0  0  0
  -29.1710  -13.0950   19.5670 N   0  0  0  0  0  0  0  0  0  0  0  0
  -30.6620  -14.7340   18.9920 O   0  0  0  0  0  0  0  0  0  0  0  0
  -29.9850  -14.4580   21.1250 N   0  0  0  0  0  0  0  0  0  0  0  0
  -29.3560  -13.9180   21.7010 H   0  0  0  0  0  0  0  0  0  0  0  0
  -24.4390  -13.2540   20.4820 C   0  0  0  0  0  0  0  0  0  0  0  0
  -23.5070  -12.3850   20.9830 C   0  0  0  0  0  0  0  0  0  0  0  0
  -24.0630  -11.0780   20.8270 C   0  0  0  0  0  0  0  0  0  0  0  0
  -25.4990  -12.4700   20.0530 N   0  0  0  0  0  0  0  0  0  0  0  0
  -25.2850  -11.1550   20.3170 N   0  0  0  0  0  0  0  0  0  0  0  0
  -23.4790   -9.7540   21.0800 C   0  0  0  0  0  0  0  0  0  0  0  0
  -24.0580   -8.8560   22.0020 C   0  0  0  0  0  3  0  0  0  0  0  0
  -23.4700   -7.5950   22.2390 C   0  0  0  0  0  3  0  0  0  0  0  0
  -22.2870   -7.2240   21.5540 C   0  0  0  0  0  0  0  0  0  0  0  0
  -21.7270   -8.1140   20.6210 C   0  0  0  0  0  3  0  0  0  0  0  0
  -22.3180   -9.3670   20.3820 C   0  0  0  0  0  3  0  0  0  0  0  0
  -21.6580   -6.0120   21.7030 O   0  0  0  0  0  0  0  0  0  0  0  0
  -21.6750   -5.3340   22.8950 C   0  0  0  0  0  0  0  0  0  0  0  0
  -21.1690   -5.9010   24.0840 C   0  0  0  0  0  3  0  0  0  0  0  0
  -21.1430   -5.1430   25.2700 C   0  0  0  0  0  3  0  0  0  0  0  0
  -21.6120   -3.8160   25.2690 C   0  0  0  0  0  0  0  0  0  0  0  0
  -22.1120   -3.2470   24.0850 C   0  0  0  0  0  3  0  0  0  0  0  0
  -22.1410   -4.0030   22.9010 C   0  0  0  0  0  0  0  0  0  0  0  0
  -22.6030   -3.4430   21.7570 F   0  0  0  0  0  0  0  0  0  0  0  0
  -21.5800   -3.0840   26.4070 F   0  0  0  0  0  0  0  0  0  0  0  0
  -22.1380  -12.7350   21.4910 C   0  0  0  0  0  0  0  0  0  0  0  0
  -21.6260  -11.9700   22.4490 N   0  0  0  0  0  0  0  0  0  0  0  0
  -21.5320  -13.7220   21.0740 O   0  0  0  0  0  0  0  0  0  0  0  0
  -22.1290  -11.1710   22.8020 H   0  0  0  0  0  0  0  0  0  0  0  0
  -20.7170  -12.1870   22.8330 H   0  0  0  0  0  0  0  0  0  0  0  0
  -24.4650  -14.6370   20.3370 N   0  0  0  0  0  0  0  0  0  0  0  0
  -23.6810  -15.2270   20.5940 H   0  0  0  0  0  0  0  0  0  0  0  0
  -25.2310  -15.1560   19.9210 H   0  0  0  0  0  0  0  0  0  0  0  0
  -33.3090  -18.9150   18.7930 C   0  0  0  0  0  2  0  0  0  0  0  0
  -33.5600  -17.7450   17.8230 C   0  0  0  0  0  2  0  0  0  0  0  0
  -35.1250  -16.5780   16.2120 C   0  0  0  0  0  1  0  0  0  0  0  0
  -35.0230  -19.1010   16.2120 C   0  0  0  0  0  1  0  0  0  0  0  0
  -34.9020  -17.8320   17.0700 C   0  0  0  0  0  3  0  0  0  0  0  0
  -31.0520  -20.8680   19.7070 C   0  0  0  0  0  2  0  0  0  0  0  0
  -31.6210  -21.6150   22.1150 C   0  0  0  0  0  1  0  0  0  0  0  0
  -31.8390  -21.8560   20.6060 C   0  0  0  0  0  3  0  0  0  0  0  0
  -31.6050  -23.3340   20.2290 C   0  0  0  0  0  2  0  0  0  0  0  0
  -30.1420  -23.7140   19.9320 C   0  0  0  0  0  2  0  0  0  0  0  0
  -29.9480  -25.2340   19.8750 C   0  0  0  0  0  2  0  0  0  0  0  0
  -28.5290  -25.6690   19.4810 C   0  0  0  0  0  2  0  0  0  0  0  0
  -28.4720  -27.0700   19.7000 O   0  0  0  0  0  0  0  0  0  0  0  0
  -24.5740  -31.7580   23.2930 C   0  0  0  0  0  0  0  0  0  0  0  0
  -27.2460  -27.6840   19.7830 C   0  0  0  0  0  0  0  0  0  0  0  0
  -23.3570  -30.4810   21.5510 C   0  0  0  0  0  3  0  0  0  0  0  0
  -24.8100  -29.1000   19.9720 C   0  0  0  0  0  0  0  0  0  0  0  0
  -25.8660  -30.9160   21.3370 C   0  0  0  0  0  2  0  0  0  0  0  0
  -25.9640  -29.6090   20.5790 C   0  0  0  0  0  0  0  0  0  0  0  0
  -27.1820  -28.9100   20.4760 C   0  0  0  0  0  3  0  0  0  0  0  0
  -26.0710  -27.1700   19.1870 C   0  0  0  0  0  3  0  0  0  0  0  0
  -24.8560  -27.8780   19.2740 C   0  0  0  0  0  3  0  0  0  0  0  0
  -23.5500  -29.9240   20.1140 C   0  0  0  0  0  2  0  0  0  0  0  0
  -24.6160  -31.0620   22.1200 N   0  0  0  0  0  0  0  0  0  0  0  0
  -23.5010  -31.9590   23.8800 O   0  0  0  0  0  0  0  0  0  0  0  0
  -22.7460  -29.3690   22.4300 C   0  0  0  0  0  0  0  0  0  0  0  0
  -21.4430  -29.1070   22.2380 N   0  0  0  0  0  0  0  0  0  0  0  0
  -23.4390  -28.7480   23.2400 O   0  0  0  0  0  0  0  0  0  0  0  0
  -20.9440  -29.6670   21.5610 H   0  0  0  0  0  0  0  0  0  0  0  0
  -18.1550  -27.6390   22.4820 C   0  0  0  0  0  0  0  0  0  0  0  0
  -20.6630  -28.0760   22.9220 C   0  0  0  0  0  3  0  0  0  0  0  0
  -20.9110  -26.6830   22.2970 C   0  0  0  0  0  2  0  0  0  0  0  0
  -19.9000  -26.3230   21.2040 C   0  0  0  0  0  2  0  0  0  0  0  0
  -18.4760  -26.3360   21.7690 C   0  0  0  0  0  2  0  0  0  0  0  0
  -19.1830  -28.4630   23.0090 C   0  0  0  0  0  0  0  0  0  0  0  0
  -18.8330  -29.6820   23.6320 C   0  0  0  0  0  3  0  0  0  0  0  0
  -17.4850  -30.0770   23.7340 C   0  0  0  0  0  3  0  0  0  0  0  0
  -16.4700  -29.2500   23.2260 C   0  0  0  0  0  3  0  0  0  0  0  0
  -16.8060  -28.0310   22.6070 C   0  0  0  0  0  3  0  0  0  0  0  0
  -25.8630  -32.3530   23.9410 C   0  0  0  0  0  3  0  0  0  0  0  0
  -25.5750  -33.7480   24.2990 N   0  0  0  0  0  0  0  0  0  0  0  0
  -25.9390  -34.8090   23.5670 C   0  0  0  0  0  0  0  0  0  0  0  0
  -26.6220  -34.7160   22.5440 O   0  0  0  0  0  0  0  0  0  0  0  0
  -24.9760  -33.8950   25.0960 H   0  0  0  0  0  0  0  0  0  0  0  0
  -24.2430  -36.6290   23.2240 C   0  0  0  0  0  1  0  0  0  0  0  0
  -25.4670  -36.1950   24.0460 C   0  0  0  0  0  3  0  0  0  0  0  0
  -27.6000  -37.0290   24.9250 C   0  0  0  0  0  1  0  0  0  0  0  0
  -26.5180  -37.2330   23.9680 N   0  0  0  0  0  0  0  0  0  0  0  0
  -26.1260  -38.1590   24.1260 H   0  0  0  0  0  0  0  0  0  0  0  0
  -26.3530  -31.5460   25.2070 C   0  0  1  0  0  0  0  0  0  0  0  0
  -25.2370  -31.2670   26.2400 C   0  0  0  0  0  1  0  0  0  0  0  0
  -26.9540  -30.1880   24.7810 C   0  0  0  0  0  1  0  0  0  0  0  0
  -27.4800  -32.3270   25.9230 C   0  0  0  0  0  1  0  0  0  0  0  0
  1  2  2  0
  2  9  1  0
  3 49  1  0
  3  4  1  0
  3  5  1  0
  4  1  1  0
  5  2  1  0
  6  5  1  0
  9  7  1  1
  9  8  1  0
 10  9  1  0
 11 19  1  0
 12 17  1  0
 13 14  1  0
 13 12  1  0
 15 14  1  0
 15 24  1  0
 15 16  1  0
 17 11  1  0
 17 16  1  0
 18 11  2  0
 19 20  1  0
 19 10  1  0
 21 22  2  0
 22 41  1  0
 23 22  1  0
 23 26  1  0
 24 25  1  0
 24 21  1  0
 25 23  2  0
 26 27  1  0
 27 28  2  0
 29 32  1  0
 29 28  1  0
 30 29  2  0
 31 30  1  0
 31 26  2  0
 32 33  1  0
 33 38  2  0
 33 34  1  0
 34 35  2  0
 36 35  1  0
 36 40  1  0
 37 36  2  0
 38 37  1  0
 39 38  1  0
 41 42  1  0
 42 44  1  0
 42 45  1  0
 43 41  2  0
 46 21  1  0
 46 47  1  0
 48 46  1  0
 50 49  1  0
 51 53  1  0
 52 53  1  0
 53 50  1  0
 54  4  1  0
 54 56  1  0
 56 55  1  0
 57 56  1  0
 58 57  1  0
 59 58  1  0
 60 61  1  0
 60 59  1  0
 61 63  1  0
 62 73  2  0
 63 68  1  0
 64 72  1  0
 64 74  1  0
 65 71  1  0
 65 67  1  0
 66 72  1  0
 67 66  1  0
 68 67  2  0
 69 70  1  0
 69 63  2  0
 70 65  2  0
 71 64  1  0
 72 62  1  0
 74 76  2  0
 75 74  1  0
 77 75  1  0
 78 87  2  0
 78 83  1  0
 79 75  1  0
 79 83  1  0
 80 79  1  0
 81 82  1  0
 81 80  1  0
 82 78  1  0
 83 84  2  0
 84 85  1  0
 86 85  2  0
 87 86  1  0
 88 62  1  0
 88 89  1  0
 88 98  1  0
 89 92  1  0
 90 94  1  0
 90 89  1  0
 91 90  2  0
 94 93  1  0
 96 94  1  0
 96 97  1  0
 96 95  1  0
 98101  1  1
 98 99  1  0
100 98  1  0
M  ISO  4  11 100  19 100  60 101  61 101
M  END
>  <TORSDO>  (65) 
F 27

>  <SCORE>  (65) 
-5.761

>  <name>  (65) 
65

>  <ligand_id>  (65) 
65

>  <original_smiles>  (65) 
[H]c1c([H])c([H])c2c(c1[H])C([H])([H])C([H])([H])C([H])([H])C2([H])N([H])C(=O)C1([H])N(C(=O)C([H])(N([H])C(=O)C([H])(N([H])C([H])([H])[H])C([H])([H])[H])C(C([H])([H])[H])(C([H])([H])[H])C([H])([H])[H])C([H])([H])c2c([H])c(OC([H])([H])C([H])([H])C([H])([H])C([H])([H])C([H])(C([H])([H])[H])C([H])([H])n3c([H])c(C(C([H])([H])[H])(C([H])([H])[H])C([H])([H])N([H])C(=O)N4C([H])([H])C([H])([H])C([H])([H])C([H])(n5nc(-c6c([H])c([H])c(Oc7c([H])c([H])c(F)c([H])c7F)c([H])c6[H])c(C(=O)N([H])[H])c5N([H])[H])C4([H])[H])[n+]([H])c3C([H])([H])C([H])([H])C([H])(C([H])([H])[H])C([H])([H])[H])c([H])c([H])c2C1([H])[H]

>  <smiles>  (65) 
[H]c1c([H])c([H])c2c(c1[H])C([H])([H])C([H])([H])C([H])([H])C2([H])N([H])C(=O)C1([H])N(C(=O)C([H])(N([H])C(=O)C([H])(N([H])C([H])([H])[H])C([H])([H])[H])C(C([H])([H])[H])(C([H])([H])[H])C([H])([H])[H])C([H])([H])c2c([H])c(OC([H])([H])C([H])([H])C([H])([H])C([H])([H])C([H])(C([H])([H])[H])C([H])([H])n3c([H])c(C(C([H])([H])[H])(C([H])([H])[H])C([H])([H])N([H])C(=O)N4C([H])([H])C([H])([H])C([H])([H])C([H])(n5nc(-c6c([H])c([H])c(Oc7c([H])c([H])c(F)c([H])c7F)c([H])c6[H])c(C(=O)N([H])[H])c5N([H])[H])C4([H])[H])[n+]([H])c3C([H])([H])C([H])([H])C([H])(C([H])([H])[H])C([H])([H])[H])c([H])c([H])c2C1([H])[H]

$$$$
66:0:0
     RDKit          3D

 98106  0  0  1  0  0  0  0  0999 V2000
  -29.3920  -20.3000   20.4260 C   0  0  0  0  0  3  0  0  0  0  0  0
  -29.9090  -21.5830   20.1230 C   0  0  0  0  0  0  0  0  0  0  0  0
  -31.1940  -21.6310   19.4870 C   0  0  0  0  0  0  0  0  0  0  0  0
  -30.1260  -19.1410   20.1170 C   0  0  0  0  0  0  0  0  0  0  0  0
  -31.8090  -20.4000   19.0870 C   0  0  0  0  0  0  0  0  0  0  0  0
  -31.9080  -22.9570   19.2600 C   0  0  0  0  0  1  0  0  0  0  0  0
  -31.3030  -19.2150   19.4840 N   0  0  0  0  0  0  0  0  0  0  0  0
  -33.2270  -18.7880   17.6620 C   0  0  0  0  0  1  0  0  0  0  0  0
  -34.3460  -20.4600   19.0980 C   0  0  0  0  0  1  0  0  0  0  0  0
  -33.1000  -20.2400   18.2160 C   0  0  2  0  0  0  0  0  0  0  0  0
  -33.1390  -21.1480   16.9420 C   0  0  0  0  0  2  0  0  0  0  0  0
  -31.9440  -22.2050   14.9480 C   0  0  0  0  0  1  0  0  0  0  0  0
  -31.8650  -21.1590   16.0670 C   0  0  0  0  0  2  0  0  0  0  0  0
  -29.3290  -17.0760   18.9310 C   0  0  0  0  0  1  0  0  0  0  0  0
  -29.5800  -17.7180   20.3140 C   0  0  0  0  0  3  0  0  0  0  0  0
  -30.4670  -16.8310   21.2450 C   0  0  0  0  0  2  0  0  0  0  0  0
  -30.7100  -14.4400   20.5370 C   0  0  0  0  0  0  0  0  0  0  0  0
  -30.3660  -12.3340   19.3000 C   0  0  0  0  0  2  0  0  0  0  0  0
  -29.4270  -12.5890   18.1050 C   0  0  0  0  0  2  0  0  0  0  0  0
  -27.9520  -12.4460   18.5280 C   0  0  0  0  0  2  0  0  0  0  0  0
  -27.6220  -13.2480   19.8130 C   0  0  0  0  0  3  0  0  0  0  0  0
  -28.6770  -12.9910   20.9160 C   0  0  0  0  0  2  0  0  0  0  0  0
  -30.0090  -13.2890   20.3620 N   0  0  0  0  0  0  0  0  0  0  0  0
  -31.7980  -14.6490   19.9940 O   0  0  0  0  0  0  0  0  0  0  0  0
  -30.0850  -15.4040   21.2370 N   0  0  0  0  0  0  0  0  0  0  0  0
  -29.2070  -15.1530   21.6670 H   0  0  0  0  0  0  0  0  0  0  0  0
  -25.2190  -13.8560   20.5100 C   0  0  0  0  0  0  0  0  0  0  0  0
  -24.1520  -13.0800   20.8770 C   0  0  0  0  0  0  0  0  0  0  0  0
  -24.6170  -11.7300   20.8520 C   0  0  0  0  0  0  0  0  0  0  0  0
  -26.2670  -12.9750   20.2860 N   0  0  0  0  0  0  0  0  0  0  0  0
  -25.9060  -11.6920   20.5470 N   0  0  0  0  0  0  0  0  0  0  0  0
  -23.8920  -10.4680   21.0470 C   0  0  0  0  0  0  0  0  0  0  0  0
  -24.3320   -9.5010   21.9790 C   0  0  0  0  0  3  0  0  0  0  0  0
  -23.6130   -8.3010   22.1590 C   0  0  0  0  0  3  0  0  0  0  0  0
  -22.4390   -8.0570   21.4080 C   0  0  0  0  0  0  0  0  0  0  0  0
  -22.0170   -9.0120   20.4640 C   0  0  0  0  0  3  0  0  0  0  0  0
  -22.7380  -10.2030   20.2820 C   0  0  0  0  0  3  0  0  0  0  0  0
  -21.6840   -6.9130   21.5030 O   0  0  0  0  0  0  0  0  0  0  0  0
  -21.6510   -6.1650   22.6530 C   0  0  0  0  0  0  0  0  0  0  0  0
  -21.2300   -6.7100   23.8850 C   0  0  0  0  0  3  0  0  0  0  0  0
  -21.1430   -5.8860   25.0250 C   0  0  0  0  0  3  0  0  0  0  0  0
  -21.4710   -4.5200   24.9340 C   0  0  0  0  0  0  0  0  0  0  0  0
  -21.8850   -3.9740   23.7060 C   0  0  0  0  0  3  0  0  0  0  0  0
  -21.9740   -4.7950   22.5680 C   0  0  0  0  0  0  0  0  0  0  0  0
  -22.3540   -4.2600   21.3830 F   0  0  0  0  0  0  0  0  0  0  0  0
  -21.3790   -3.7260   26.0270 F   0  0  0  0  0  0  0  0  0  0  0  0
  -22.7510  -13.5530   21.1420 C   0  0  0  0  0  0  0  0  0  0  0  0
  -22.0220  -12.8570   22.0100 N   0  0  0  0  0  0  0  0  0  0  0  0
  -22.3120  -14.5750   20.6190 O   0  0  0  0  0  0  0  0  0  0  0  0
  -22.3860  -12.0280   22.4580 H   0  0  0  0  0  0  0  0  0  0  0  0
  -21.0830  -13.1560   22.2290 H   0  0  0  0  0  0  0  0  0  0  0  0
  -25.3820  -15.2270   20.3300 N   0  0  0  0  0  0  0  0  0  0  0  0
  -24.6160  -15.8810   20.4330 H   0  0  0  0  0  0  0  0  0  0  0  0
  -26.2380  -15.6690   20.0170 H   0  0  0  0  0  0  0  0  0  0  0  0
  -28.9810  -22.7720   20.5080 C   0  0  0  0  0  2  0  0  0  0  0  0
  -29.2920  -24.2630   20.1480 C   0  0  0  0  0  2  0  0  0  0  0  0
  -28.0720  -25.1930   20.3410 C   0  0  0  0  0  2  0  0  0  0  0  0
  -28.3200  -26.6140   20.1620 O   0  0  0  0  0  0  0  0  0  0  0  0
  -24.5940  -31.9220   23.2530 C   0  0  0  0  0  0  0  0  0  0  0  0
  -27.1860  -27.4150   20.1570 C   0  0  0  0  0  0  0  0  0  0  0  0
  -23.3830  -30.5290   21.6190 C   0  0  0  0  0  3  0  0  0  0  0  0
  -24.8200  -28.9900   20.1860 C   0  0  0  0  0  0  0  0  0  0  0  0
  -25.9200  -30.8460   21.4310 C   0  0  0  0  0  2  0  0  0  0  0  0
  -25.9890  -29.4750   20.7850 C   0  0  0  0  0  0  0  0  0  0  0  0
  -27.1770  -28.6950   20.7730 C   0  0  0  0  0  3  0  0  0  0  0  0
  -25.9980  -26.9790   19.5220 C   0  0  0  0  0  3  0  0  0  0  0  0
  -24.8220  -27.7410   19.5520 C   0  0  0  0  0  3  0  0  0  0  0  0
  -23.5880  -29.8640   20.2350 C   0  0  0  0  0  2  0  0  0  0  0  0
  -24.6520  -31.1130   22.1580 N   0  0  0  0  0  0  0  0  0  0  0  0
  -23.5110  -32.2040   23.7860 O   0  0  0  0  0  0  0  0  0  0  0  0
  -22.7250  -29.5050   22.5730 C   0  0  0  0  0  0  0  0  0  0  0  0
  -21.4010  -29.3200   22.4370 N   0  0  0  0  0  0  0  0  0  0  0  0
  -23.4040  -28.8820   23.3940 O   0  0  0  0  0  0  0  0  0  0  0  0
  -20.9130  -29.8740   21.7460 H   0  0  0  0  0  0  0  0  0  0  0  0
  -18.0230  -28.1380   22.9310 C   0  0  0  0  0  0  0  0  0  0  0  0
  -20.5810  -28.3860   23.2080 C   0  0  0  0  0  3  0  0  0  0  0  0
  -20.6810  -26.9540   22.6340 C   0  0  0  0  0  2  0  0  0  0  0  0
  -19.5800  -26.6340   21.6180 C   0  0  0  0  0  2  0  0  0  0  0  0
  -18.1960  -26.7870   22.2570 C   0  0  0  0  0  2  0  0  0  0  0  0
  -19.1430  -28.8960   23.3620 C   0  0  0  0  0  0  0  0  0  0  0  0
  -18.9270  -30.1630   23.9490 C   0  0  0  0  0  3  0  0  0  0  0  0
  -17.6240  -30.6700   24.1070 C   0  0  0  0  0  3  0  0  0  0  0  0
  -16.5180  -29.9080   23.6900 C   0  0  0  0  0  3  0  0  0  0  0  0
  -16.7180  -28.6440   23.1090 C   0  0  0  0  0  3  0  0  0  0  0  0
  -25.8800  -32.5490   23.8720 C   0  0  0  0  0  3  0  0  0  0  0  0
  -25.5740  -33.9470   24.2000 N   0  0  0  0  0  0  0  0  0  0  0  0
  -25.9060  -34.9970   23.4380 C   0  0  0  0  0  0  0  0  0  0  0  0
  -26.5710  -34.8900   22.4050 O   0  0  0  0  0  0  0  0  0  0  0  0
  -24.9840  -34.1050   25.0050 H   0  0  0  0  0  0  0  0  0  0  0  0
  -24.1820  -36.7920   23.0770 C   0  0  0  0  0  1  0  0  0  0  0  0
  -25.4210  -36.3870   23.8920 C   0  0  0  0  0  3  0  0  0  0  0  0
  -27.5550  -37.2680   24.7250 C   0  0  0  0  0  1  0  0  0  0  0  0
  -26.4560  -37.4350   23.7790 N   0  0  0  0  0  0  0  0  0  0  0  0
  -26.0520  -38.3580   23.9210 H   0  0  0  0  0  0  0  0  0  0  0  0
  -26.3940  -31.7750   25.1480 C   0  0  1  0  0  0  0  0  0  0  0  0
  -25.2990  -31.5400   26.2150 C   0  0  0  0  0  1  0  0  0  0  0  0
  -26.9750  -30.3990   24.7510 C   0  0  0  0  0  1  0  0  0  0  0  0
  -27.5460  -32.5670   25.8100 C   0  0  0  0  0  1  0  0  0  0  0  0
  2  1  1  0
  2 55  1  0
  3  2  2  0
  4 15  1  0
  4  1  2  0
  5  7  2  0
  5  3  1  0
  6  3  1  0
  7  4  1  0
 10  8  1  6
 10  5  1  0
 10  9  1  0
 11 10  1  0
 12 13  1  0
 13 11  1  0
 15 14  1  0
 15 16  1  0
 17 25  1  0
 18 23  1  0
 19 20  1  0
 19 18  1  0
 21 20  1  0
 21 30  1  0
 21 22  1  0
 23 17  1  0
 23 22  1  0
 24 17  2  0
 25 16  1  0
 25 26  1  0
 27 28  2  0
 28 47  1  0
 29 28  1  0
 29 32  1  0
 30 27  1  0
 30 31  1  0
 31 29  2  0
 32 33  1  0
 33 34  2  0
 35 38  1  0
 35 34  1  0
 36 35  2  0
 37 36  1  0
 37 32  2  0
 38 39  1  0
 39 40  1  0
 40 41  2  0
 42 41  1  0
 42 46  1  0
 43 42  2  0
 44 39  2  0
 44 43  1  0
 45 44  1  0
 47 48  1  0
 48 51  1  0
 48 50  1  0
 49 47  2  0
 52 53  1  0
 52 27  1  0
 54 52  1  0
 56 57  1  0
 56 55  1  0
 58 57  1  0
 59 70  2  0
 60 58  1  0
 60 65  1  0
 61 69  1  0
 61 71  1  0
 62 68  1  0
 62 64  1  0
 63 69  1  0
 64 63  1  0
 65 64  2  0
 66 67  1  0
 66 60  2  0
 67 62  2  0
 68 61  1  0
 69 59  1  0
 71 73  2  0
 72 71  1  0
 74 72  1  0
 75 84  2  0
 75 80  1  0
 76 72  1  0
 76 80  1  0
 77 76  1  0
 78 79  1  0
 78 77  1  0
 79 75  1  0
 80 81  2  0
 81 82  1  0
 83 82  2  0
 84 83  1  0
 85 59  1  0
 85 86  1  0
 85 95  1  0
 86 89  1  0
 87 91  1  0
 87 86  1  0
 88 87  2  0
 91 90  1  0
 93 91  1  0
 93 94  1  0
 93 92  1  0
 95 98  1  1
 95 96  1  0
 97 95  1  0
M  ISO  4  17 100  25 100  57 101  58 101
M  END
>  <TORSDO>  (66) 
F 24

>  <SCORE>  (66) 
-12.777

>  <name>  (66) 
66

>  <ligand_id>  (66) 
66

>  <original_smiles>  (66) 
[H]c1c([H])c([H])c2c(c1[H])C([H])([H])C([H])([H])C([H])([H])C2([H])N([H])C(=O)C1([H])N(C(=O)C([H])(N([H])C(=O)C([H])(N([H])C([H])([H])[H])C([H])([H])[H])C(C([H])([H])[H])(C([H])([H])[H])C([H])([H])[H])C([H])([H])c2c([H])c(OC([H])([H])C([H])([H])C([H])([H])c3c([H])c(C([H])(C([H])([H])[H])C([H])([H])N([H])C(=O)N4C([H])([H])C([H])([H])C([H])([H])C([H])(n5nc(-c6c([H])c([H])c(Oc7c([H])c([H])c(F)c([H])c7F)c([H])c6[H])c(C(=O)N([H])[H])c5N([H])[H])C4([H])[H])nc(C(C([H])([H])[H])(C([H])([H])[H])C([H])([H])C([H])([H])C([H])([H])[H])c3C([H])([H])[H])c([H])c([H])c2C1([H])[H]

>  <smiles>  (66) 
[H]c1c([H])c([H])c2c(c1[H])C([H])([H])C([H])([H])C([H])([H])C2([H])N([H])C(=O)C1([H])N(C(=O)C([H])(N([H])C(=O)C([H])(N([H])C([H])([H])[H])C([H])([H])[H])C(C([H])([H])[H])(C([H])([H])[H])C([H])([H])[H])C([H])([H])c2c([H])c(OC([H])([H])C([H])([H])C([H])([H])c3c([H])c(C([H])(C([H])([H])[H])C([H])([H])N([H])C(=O)N4C([H])([H])C([H])([H])C([H])([H])C([H])(n5nc(-c6c([H])c([H])c(Oc7c([H])c([H])c(F)c([H])c7F)c([H])c6[H])c(C(=O)N([H])[H])c5N([H])[H])C4([H])[H])nc(C(C([H])([H])[H])(C([H])([H])[H])C([H])([H])C([H])([H])C([H])([H])[H])c3C([H])([H])[H])c([H])c([H])c2C1([H])[H]

$$$$
67:0:0
     RDKit          3D

 96104  0  0  1  0  0  0  0  0999 V2000
  -30.4100  -19.0520   19.9590 C   0  0  0  0  0  3  0  0  0  0  0  0
  -28.5100  -20.1130   20.4030 C   0  0  0  0  0  3  0  0  0  0  0  0
  -29.0590  -18.8540   20.3760 C   0  0  0  0  0  0  0  0  0  0  0  0
  -30.6120  -20.3850   19.6850 C   0  0  0  0  0  0  0  0  0  0  0  0
  -31.8500  -21.0930   19.2140 C   0  0  0  0  0  1  0  0  0  0  0  0
  -29.4010  -21.0340   19.8940 N   0  0  0  0  0  0  0  0  0  0  0  0
  -29.0280  -22.4090   19.5610 C   0  0  0  0  0  2  0  0  0  0  0  0
  -29.4250  -23.4950   20.5850 C   0  0  0  0  0  2  0  0  0  0  0  0
  -27.3660  -24.2130   21.8880 C   0  0  0  0  0  1  0  0  0  0  0  0
  -28.3150  -24.5820   20.7410 C   0  0  0  0  0  3  0  0  0  0  0  0
  -28.8290  -26.0350   20.9140 C   0  0  0  0  0  2  0  0  0  0  0  0
  -28.4750  -26.8450   19.7870 O   0  0  0  0  0  0  0  0  0  0  0  0
  -24.5170  -31.7590   23.1210 C   0  0  0  0  0  0  0  0  0  0  0  0
  -27.2790  -27.5210   19.8860 C   0  0  0  0  0  0  0  0  0  0  0  0
  -23.3420  -30.3920   21.4270 C   0  0  0  0  0  3  0  0  0  0  0  0
  -24.8350  -28.9410   19.9510 C   0  0  0  0  0  0  0  0  0  0  0  0
  -25.8510  -30.8280   21.2330 C   0  0  0  0  0  2  0  0  0  0  0  0
  -25.9760  -29.4760   20.5620 C   0  0  0  0  0  0  0  0  0  0  0  0
  -27.1980  -28.7690   20.5390 C   0  0  0  0  0  3  0  0  0  0  0  0
  -26.1270  -26.9910   19.2730 C   0  0  0  0  0  3  0  0  0  0  0  0
  -24.9050  -27.6930   19.3040 C   0  0  0  0  0  3  0  0  0  0  0  0
  -23.5680  -29.7660   20.0250 C   0  0  0  0  0  2  0  0  0  0  0  0
  -24.5870  -31.0080   21.9870 N   0  0  0  0  0  0  0  0  0  0  0  0
  -23.4320  -31.9830   23.6780 O   0  0  0  0  0  0  0  0  0  0  0  0
  -22.7200  -29.3210   22.3500 C   0  0  0  0  0  0  0  0  0  0  0  0
  -21.3990  -29.1230   22.2310 N   0  0  0  0  0  0  0  0  0  0  0  0
  -23.4240  -28.6710   23.1290 O   0  0  0  0  0  0  0  0  0  0  0  0
  -20.8930  -29.7000   21.5720 H   0  0  0  0  0  0  0  0  0  0  0  0
  -18.0450  -27.8710   22.7230 C   0  0  0  0  0  0  0  0  0  0  0  0
  -20.6040  -28.1380   22.9640 C   0  0  0  0  0  3  0  0  0  0  0  0
  -20.7110  -26.7400   22.3120 C   0  0  0  0  0  2  0  0  0  0  0  0
  -19.5930  -26.4590   21.3030 C   0  0  0  0  0  2  0  0  0  0  0  0
  -18.2210  -26.5570   21.9780 C   0  0  0  0  0  2  0  0  0  0  0  0
  -19.1650  -28.6210   23.1720 C   0  0  0  0  0  0  0  0  0  0  0  0
  -18.9480  -29.8510   23.8290 C   0  0  0  0  0  3  0  0  0  0  0  0
  -17.6430  -30.3320   24.0440 C   0  0  0  0  0  3  0  0  0  0  0  0
  -16.5370  -29.5800   23.6110 C   0  0  0  0  0  3  0  0  0  0  0  0
  -16.7390  -28.3520   22.9560 C   0  0  0  0  0  3  0  0  0  0  0  0
  -25.7940  -32.3950   23.7570 C   0  0  0  0  0  3  0  0  0  0  0  0
  -26.3190  -31.5990   25.0140 C   0  0  1  0  0  0  0  0  0  0  0  0
  -25.2290  -31.3250   26.0760 C   0  0  0  0  0  1  0  0  0  0  0  0
  -26.9210  -30.2390   24.5890 C   0  0  0  0  0  1  0  0  0  0  0  0
  -27.4600  -32.3920   25.6960 C   0  0  0  0  0  1  0  0  0  0  0  0
  -25.4670  -33.7810   24.1170 N   0  0  0  0  0  0  0  0  0  0  0  0
  -25.7910  -34.8510   23.3810 C   0  0  0  0  0  0  0  0  0  0  0  0
  -26.4650  -34.7770   22.3500 O   0  0  0  0  0  0  0  0  0  0  0  0
  -24.8680  -33.9100   24.9190 H   0  0  0  0  0  0  0  0  0  0  0  0
  -24.0370  -36.6220   23.0510 C   0  0  0  0  0  1  0  0  0  0  0  0
  -25.2800  -36.2230   23.8610 C   0  0  0  0  0  3  0  0  0  0  0  0
  -27.3970  -37.1240   24.7200 C   0  0  0  0  0  1  0  0  0  0  0  0
  -26.2990  -37.2930   23.7730 N   0  0  0  0  0  0  0  0  0  0  0  0
  -25.8770  -38.2040   23.9340 H   0  0  0  0  0  0  0  0  0  0  0  0
  -28.3010  -17.5530   20.6790 C   0  0  0  0  0  3  0  0  0  0  0  0
  -26.9690  -17.7200   20.0750 N   0  0  0  0  0  4  0  0  0  0  0  0
  -27.0700  -17.9480   19.1040 H   0  0  0  0  0  0  0  0  0  0  0  0
  -26.4650  -18.4620   20.5250 H   0  0  0  0  0  0  0  0  0  0  0  0
  -26.4360  -16.8630   20.1440 H   0  0  0  0  0  0  0  0  0  0  0  0
  -28.8820  -16.2190   20.1030 C   0  0  0  0  0  2  0  0  0  0  0  0
  -30.7110  -14.5630   19.9690 C   0  0  0  0  0  0  0  0  0  0  0  0
  -30.4480  -12.2740   19.0520 C   0  0  0  0  0  2  0  0  0  0  0  0
  -29.4620  -12.2690   17.8630 C   0  0  0  0  0  2  0  0  0  0  0  0
  -28.0110  -12.1120   18.3620 C   0  0  0  0  0  2  0  0  0  0  0  0
  -27.6740  -13.1090   19.4950 C   0  0  0  0  0  3  0  0  0  0  0  0
  -28.7630  -13.0510   20.5980 C   0  0  0  0  0  2  0  0  0  0  0  0
  -30.0530  -13.3650   19.9620 N   0  0  0  0  0  0  0  0  0  0  0  0
  -31.8180  -14.6980   19.4350 O   0  0  0  0  0  0  0  0  0  0  0  0
  -30.9520  -16.4270   21.5200 C   0  0  0  0  0  1  0  0  0  0  0  0
  -30.1320  -15.6100   20.6220 N   0  0  0  0  0  0  0  0  0  0  0  0
  -25.3430  -13.8220   20.3260 C   0  0  0  0  0  0  0  0  0  0  0  0
  -24.2660  -13.0930   20.7500 C   0  0  0  0  0  0  0  0  0  0  0  0
  -24.6720  -11.7240   20.6940 C   0  0  0  0  0  0  0  0  0  0  0  0
  -26.3370  -12.8990   20.0390 N   0  0  0  0  0  0  0  0  0  0  0  0
  -25.9420  -11.6330   20.3220 N   0  0  0  0  0  0  0  0  0  0  0  0
  -23.9110  -10.4880   20.9100 C   0  0  0  0  0  0  0  0  0  0  0  0
  -24.3460   -9.5100   21.8310 C   0  0  0  0  0  3  0  0  0  0  0  0
  -23.5930   -8.3340   22.0350 C   0  0  0  0  0  3  0  0  0  0  0  0
  -22.3890   -8.1300   21.3180 C   0  0  0  0  0  0  0  0  0  0  0  0
  -21.9730   -9.0970   20.3850 C   0  0  0  0  0  3  0  0  0  0  0  0
  -22.7270  -10.2640   20.1790 C   0  0  0  0  0  3  0  0  0  0  0  0
  -21.6060   -7.0080   21.4340 O   0  0  0  0  0  0  0  0  0  0  0  0
  -21.5650   -6.2760   22.5930 C   0  0  0  0  0  0  0  0  0  0  0  0
  -21.1770   -6.8510   23.8230 C   0  0  0  0  0  3  0  0  0  0  0  0
  -21.0820   -6.0470   24.9760 C   0  0  0  0  0  3  0  0  0  0  0  0
  -21.3660   -4.6700   24.9010 C   0  0  0  0  0  0  0  0  0  0  0  0
  -21.7480   -4.0960   23.6760 C   0  0  0  0  0  3  0  0  0  0  0  0
  -21.8440   -4.8970   22.5260 C   0  0  0  0  0  0  0  0  0  0  0  0
  -22.1940   -4.3340   21.3420 F   0  0  0  0  0  0  0  0  0  0  0  0
  -21.2660   -3.8970   26.0070 F   0  0  0  0  0  0  0  0  0  0  0  0
  -22.8970  -13.6200   21.0780 C   0  0  0  0  0  0  0  0  0  0  0  0
  -22.1850  -12.9530   21.9750 N   0  0  0  0  0  0  0  0  0  0  0  0
  -22.4770  -14.6570   20.5670 O   0  0  0  0  0  0  0  0  0  0  0  0
  -22.5440  -12.1160   22.4090 H   0  0  0  0  0  0  0  0  0  0  0  0
  -21.2690  -13.2870   22.2390 H   0  0  0  0  0  0  0  0  0  0  0  0
  -25.5480  -15.1860   20.1180 N   0  0  0  0  0  0  0  0  0  0  0  0
  -24.6460  -15.6510   20.1050 H   0  0  0  0  0  0  0  0  0  0  0  0
  -25.9950  -15.2920   19.2130 H   0  0  0  0  0  0  0  0  0  0  0  0
  1  3  1  0
  3  2  2  0
  3 53  1  0
  4  6  1  0
  4  1  2  0
  5  4  1  0
  6  2  1  0
  7  6  1  0
  7  8  1  0
  8 10  1  0
 10 11  1  0
 10  9  1  0
 12 14  1  0
 12 11  1  0
 13 24  2  0
 14 19  1  0
 15 23  1  0
 15 25  1  0
 16 22  1  0
 16 18  1  0
 17 23  1  0
 18 17  1  0
 19 18  2  0
 20 21  1  0
 20 14  2  0
 21 16  2  0
 22 15  1  0
 23 13  1  0
 25 27  2  0
 26 25  1  0
 28 26  1  0
 29 38  2  0
 29 34  1  0
 30 26  1  0
 30 34  1  0
 31 30  1  0
 32 33  1  0
 32 31  1  0
 33 29  1  0
 34 35  2  0
 35 36  1  0
 37 36  2  0
 38 37  1  0
 39 13  1  0
 39 44  1  0
 39 40  1  0
 40 43  1  1
 40 41  1  0
 42 40  1  0
 44 47  1  0
 45 49  1  0
 45 44  1  0
 46 45  2  0
 49 48  1  0
 51 49  1  0
 51 52  1  0
 51 50  1  0
 53 58  1  0
 54 57  1  0
 54 56  1  0
 54 53  1  0
 55 54  1  0
 58 68  1  0
 59 68  1  0
 60 65  1  0
 61 62  1  0
 61 60  1  0
 63 62  1  0
 63 72  1  0
 63 64  1  0
 65 59  1  0
 65 64  1  0
 66 59  2  0
 68 67  1  0
 69 70  2  0
 70 89  1  0
 71 70  1  0
 71 74  1  0
 72 73  1  0
 72 69  1  0
 73 71  2  0
 74 75  1  0
 75 76  2  0
 77 80  1  0
 77 76  1  0
 78 77  2  0
 79 78  1  0
 79 74  2  0
 80 81  1  0
 81 82  1  0
 82 83  2  0
 84 83  1  0
 84 88  1  0
 85 84  2  0
 86 81  2  0
 86 85  1  0
 87 86  1  0
 89 90  1  0
 90 93  1  0
 90 92  1  0
 91 89  2  0
 94 69  1  0
 95 94  1  0
 96 94  1  0
M  ISO  4  11 101  12 101  59 100  68 100
M  END
>  <TORSDO>  (67) 
F 23

>  <SCORE>  (67) 
-13.092

>  <name>  (67) 
67

>  <ligand_id>  (67) 
67

>  <original_smiles>  (67) 
[H]c1c([H])c([H])c2c(c1[H])C([H])([H])C([H])([H])C([H])([H])C2([H])N([H])C(=O)C1([H])N(C(=O)C([H])(N([H])C(=O)C([H])(N([H])C([H])([H])[H])C([H])([H])[H])C(C([H])([H])[H])(C([H])([H])[H])C([H])([H])[H])C([H])([H])c2c([H])c(OC([H])([H])C([H])(C([H])([H])[H])C([H])([H])C([H])([H])n3c([H])c(C([H])(C([H])([H])N(C(=O)N4C([H])([H])C([H])([H])C([H])([H])C([H])(n5nc(-c6c([H])c([H])c(Oc7c([H])c([H])c(F)c([H])c7F)c([H])c6[H])c(C(=O)N([H])[H])c5N([H])[H])C4([H])[H])C([H])([H])[H])[N+]([H])([H])[H])c([H])c3C([H])([H])[H])c([H])c([H])c2C1([H])[H]

>  <smiles>  (67) 
[H]c1c([H])c([H])c2c(c1[H])C([H])([H])C([H])([H])C([H])([H])C2([H])N([H])C(=O)C1([H])N(C(=O)C([H])(N([H])C(=O)C([H])(N([H])C([H])([H])[H])C([H])([H])[H])C(C([H])([H])[H])(C([H])([H])[H])C([H])([H])[H])C([H])([H])c2c([H])c(OC([H])([H])C([H])(C([H])([H])[H])C([H])([H])C([H])([H])n3c([H])c(C([H])(C([H])([H])N(C(=O)N4C([H])([H])C([H])([H])C([H])([H])C([H])(n5nc(-c6c([H])c([H])c(Oc7c([H])c([H])c(F)c([H])c7F)c([H])c6[H])c(C(=O)N([H])[H])c5N([H])[H])C4([H])[H])C([H])([H])[H])[N+]([H])([H])[H])c([H])c3C([H])([H])[H])c([H])c([H])c2C1([H])[H]

$$$$
68:0:0
     RDKit          3D

 93101  0  0  1  0  0  0  0  0999 V2000
  -29.0810  -22.5800   20.7230 C   0  0  0  0  0  3  0  0  0  0  0  0
  -29.3960  -21.4150   19.9220 C   0  0  0  0  0  0  0  0  0  0  0  0
  -29.2390  -21.6060   18.5170 C   0  0  0  0  0  0  0  0  0  0  0  0
  -28.6710  -23.8420   20.1480 C   0  0  0  0  0  0  0  0  0  0  0  0
  -28.8150  -22.8770   18.0310 C   0  0  0  0  0  0  0  0  0  0  0  0
  -28.6770  -23.1800   16.5470 C   0  0  0  0  0  1  0  0  0  0  0  0
  -28.5470  -23.9440   18.8140 N   0  0  0  0  0  0  0  0  0  0  0  0
  -30.0800  -20.1070   20.5370 C   0  0  0  0  0  2  0  0  0  0  0  0
  -29.5300  -18.5930   20.3840 C   0  0  0  0  0  3  0  0  0  0  0  0
  -30.5830  -17.3860   20.5810 C   0  0  0  0  0  3  0  0  0  0  0  0
  -30.8620  -14.7990   20.4490 C   0  0  0  0  0  0  0  0  0  0  0  0
  -30.6490  -12.5400   19.4200 C   0  0  0  0  0  2  0  0  0  0  0  0
  -29.7350  -12.6310   18.1790 C   0  0  0  0  0  2  0  0  0  0  0  0
  -28.2570  -12.4690   18.5850 C   0  0  0  0  0  2  0  0  0  0  0  0
  -27.8670  -13.3580   19.7960 C   0  0  0  0  0  3  0  0  0  0  0  0
  -28.9020  -13.2610   20.9370 C   0  0  0  0  0  2  0  0  0  0  0  0
  -30.2150  -13.5910   20.3670 N   0  0  0  0  0  0  0  0  0  0  0  0
  -32.0540  -14.8900   20.1480 O   0  0  0  0  0  0  0  0  0  0  0  0
  -30.1110  -15.9390   20.6560 N   0  0  0  0  0  0  0  0  0  0  0  0
  -29.1340  -15.7910   20.8610 H   0  0  0  0  0  0  0  0  0  0  0  0
  -25.4590  -13.9490   20.4600 C   0  0  0  0  0  0  0  0  0  0  0  0
  -24.3880  -13.1750   20.8110 C   0  0  0  0  0  0  0  0  0  0  0  0
  -24.8560  -11.8260   20.8080 C   0  0  0  0  0  0  0  0  0  0  0  0
  -26.5130  -13.0720   20.2600 N   0  0  0  0  0  0  0  0  0  0  0  0
  -26.1540  -11.7910   20.5330 N   0  0  0  0  0  0  0  0  0  0  0  0
  -24.1290  -10.5630   20.9950 C   0  0  0  0  0  0  0  0  0  0  0  0
  -24.5330   -9.6150   21.9620 C   0  0  0  0  0  3  0  0  0  0  0  0
  -23.8050   -8.4180   22.1380 C   0  0  0  0  0  3  0  0  0  0  0  0
  -22.6620   -8.1590   21.3460 C   0  0  0  0  0  0  0  0  0  0  0  0
  -22.2770   -9.0950   20.3700 C   0  0  0  0  0  3  0  0  0  0  0  0
  -23.0040  -10.2850   20.1940 C   0  0  0  0  0  3  0  0  0  0  0  0
  -21.9090   -7.0120   21.4270 O   0  0  0  0  0  0  0  0  0  0  0  0
  -21.8150   -6.2950   22.5920 C   0  0  0  0  0  0  0  0  0  0  0  0
  -21.3190   -6.8720   23.7820 C   0  0  0  0  0  3  0  0  0  0  0  0
  -21.1740   -6.0810   24.9400 C   0  0  0  0  0  3  0  0  0  0  0  0
  -21.5130   -4.7150   24.9080 C   0  0  0  0  0  0  0  0  0  0  0  0
  -22.0010   -4.1380   23.7220 C   0  0  0  0  0  3  0  0  0  0  0  0
  -22.1480   -4.9260   22.5670 C   0  0  0  0  0  0  0  0  0  0  0  0
  -22.6000   -4.3620   21.4210 F   0  0  0  0  0  0  0  0  0  0  0  0
  -21.3650   -3.9530   26.0160 F   0  0  0  0  0  0  0  0  0  0  0  0
  -22.9820  -13.6500   21.0400 C   0  0  0  0  0  0  0  0  0  0  0  0
  -22.2390  -12.9680   21.9030 N   0  0  0  0  0  0  0  0  0  0  0  0
  -22.5540  -14.6630   20.4890 O   0  0  0  0  0  0  0  0  0  0  0  0
  -22.6020  -12.1510   22.3720 H   0  0  0  0  0  0  0  0  0  0  0  0
  -21.2970  -13.2720   22.1040 H   0  0  0  0  0  0  0  0  0  0  0  0
  -25.6210  -15.3180   20.2710 N   0  0  0  0  0  0  0  0  0  0  0  0
  -24.8410  -15.9610   20.3470 H   0  0  0  0  0  0  0  0  0  0  0  0
  -26.4660  -15.7610   19.9370 H   0  0  0  0  0  0  0  0  0  0  0  0
  -29.5870  -20.5080   17.5060 C   0  0  0  0  0  2  0  0  0  0  0  0
  -28.7040  -18.8410   15.7800 C   0  0  0  0  0  1  0  0  0  0  0  0
  -28.3570  -19.7410   16.9720 C   0  0  0  0  0  2  0  0  0  0  0  0
  -28.2700  -25.1400   20.9710 C   0  0  0  0  0  2  0  0  0  0  0  0
  -28.4070  -26.5110   20.3930 O   0  0  0  0  0  0  0  0  0  0  0  0
  -24.6030  -31.9760   23.2740 C   0  0  0  0  0  0  0  0  0  0  0  0
  -27.2860  -27.3580   20.3690 C   0  0  0  0  0  0  0  0  0  0  0  0
  -23.4350  -30.5430   21.6380 C   0  0  0  0  0  3  0  0  0  0  0  0
  -24.9190  -28.9650   20.2710 C   0  0  0  0  0  0  0  0  0  0  0  0
  -25.9760  -30.8630   21.4980 C   0  0  0  0  0  2  0  0  0  0  0  0
  -26.0750  -29.4710   20.8820 C   0  0  0  0  0  0  0  0  0  0  0  0
  -27.2650  -28.6810   20.9130 C   0  0  0  0  0  3  0  0  0  0  0  0
  -26.1120  -26.9000   19.7430 C   0  0  0  0  0  3  0  0  0  0  0  0
  -24.9420  -27.6860   19.6880 C   0  0  0  0  0  3  0  0  0  0  0  0
  -23.6800  -29.8380   20.2760 C   0  0  0  0  0  2  0  0  0  0  0  0
  -24.6890  -31.1480   22.1930 N   0  0  0  0  0  0  0  0  0  0  0  0
  -23.5100  -32.2630   23.7820 O   0  0  0  0  0  0  0  0  0  0  0  0
  -22.7560  -29.5460   22.6070 C   0  0  0  0  0  0  0  0  0  0  0  0
  -21.4310  -29.3720   22.4650 N   0  0  0  0  0  0  0  0  0  0  0  0
  -23.4190  -28.9290   23.4440 O   0  0  0  0  0  0  0  0  0  0  0  0
  -20.9550  -29.9230   21.7640 H   0  0  0  0  0  0  0  0  0  0  0  0
  -18.0360  -28.2180   22.9650 C   0  0  0  0  0  0  0  0  0  0  0  0
  -20.5980  -28.4470   23.2360 C   0  0  0  0  0  3  0  0  0  0  0  0
  -20.6830  -27.0130   22.6670 C   0  0  0  0  0  2  0  0  0  0  0  0
  -19.5770  -26.6990   21.6530 C   0  0  0  0  0  2  0  0  0  0  0  0
  -18.1950  -26.8650   22.2940 C   0  0  0  0  0  2  0  0  0  0  0  0
  -19.1650  -28.9690   23.3920 C   0  0  0  0  0  0  0  0  0  0  0  0
  -18.9610  -30.2360   23.9800 C   0  0  0  0  0  3  0  0  0  0  0  0
  -17.6620  -30.7540   24.1430 C   0  0  0  0  0  3  0  0  0  0  0  0
  -16.5490  -30.0020   23.7300 C   0  0  0  0  0  3  0  0  0  0  0  0
  -16.7370  -28.7360   23.1470 C   0  0  0  0  0  3  0  0  0  0  0  0
  -25.8720  -32.6240   23.9130 C   0  0  0  0  0  3  0  0  0  0  0  0
  -25.5470  -34.0220   24.2310 N   0  0  0  0  0  0  0  0  0  0  0  0
  -25.8870  -35.0750   23.4770 C   0  0  0  0  0  0  0  0  0  0  0  0
  -26.5780  -34.9730   22.4600 O   0  0  0  0  0  0  0  0  0  0  0  0
  -24.9360  -34.1750   25.0210 H   0  0  0  0  0  0  0  0  0  0  0  0
  -24.1610  -36.8600   23.0800 C   0  0  0  0  0  1  0  0  0  0  0  0
  -25.3820  -36.4610   23.9230 C   0  0  0  0  0  3  0  0  0  0  0  0
  -27.4890  -37.3550   24.8120 C   0  0  0  0  0  1  0  0  0  0  0  0
  -26.4140  -37.5180   23.8370 N   0  0  0  0  0  0  0  0  0  0  0  0
  -26.0000  -38.4360   23.9710 H   0  0  0  0  0  0  0  0  0  0  0  0
  -26.3760  -31.8660   25.2010 C   0  0  1  0  0  0  0  0  0  0  0  0
  -25.2630  -31.5940   26.2400 C   0  0  0  0  0  1  0  0  0  0  0  0
  -27.0100  -30.5070   24.8230 C   0  0  0  0  0  1  0  0  0  0  0  0
  -27.4880  -32.6940   25.8910 C   0  0  0  0  0  1  0  0  0  0  0  0
  2  8  1  0
  2  1  2  0
  3  2  1  0
  4  1  1  0
  4 52  1  0
  5  3  2  0
  5  7  1  0
  6  5  1  0
  7  4  2  0
  9  8  1  0
  9 10  2  0
 10 19  1  0
 11 19  1  0
 12 17  1  0
 13 14  1  0
 13 12  1  0
 15 14  1  0
 15 24  1  0
 15 16  1  0
 17 11  1  0
 17 16  1  0
 18 11  2  0
 19 20  1  0
 21 22  2  0
 22 41  1  0
 23 22  1  0
 23 26  1  0
 24 21  1  0
 24 25  1  0
 25 23  2  0
 26 27  1  0
 27 28  2  0
 29 32  1  0
 29 28  1  0
 30 29  2  0
 31 30  1  0
 31 26  2  0
 32 33  1  0
 33 34  1  0
 34 35  2  0
 36 35  1  0
 36 40  1  0
 37 36  2  0
 38 33  2  0
 38 37  1  0
 39 38  1  0
 41 42  1  0
 42 45  1  0
 42 44  1  0
 43 41  2  0
 46 47  1  0
 46 21  1  0
 48 46  1  0
 49  3  1  0
 50 51  1  0
 51 49  1  0
 53 52  1  0
 54 65  2  0
 55 53  1  0
 55 60  1  0
 56 64  1  0
 56 66  1  0
 57 63  1  0
 57 59  1  0
 58 64  1  0
 59 60  2  0
 59 58  1  0
 61 55  2  0
 62 61  1  0
 62 57  2  0
 63 56  1  0
 64 54  1  0
 66 68  2  0
 67 66  1  0
 69 67  1  0
 70 79  2  0
 70 75  1  0
 71 67  1  0
 71 75  1  0
 72 71  1  0
 73 74  1  0
 73 72  1  0
 74 70  1  0
 75 76  2  0
 76 77  1  0
 78 77  2  0
 79 78  1  0
 80 54  1  0
 80 81  1  0
 80 90  1  0
 81 84  1  0
 82 86  1  0
 82 81  1  0
 83 82  2  0
 86 85  1  0
 88 86  1  0
 88 89  1  0
 88 87  1  0
 90 93  1  1
 90 91  1  0
 92 90  1  0
M  ISO  4  11 100  19 100  52 101  53 101
M  END
>  <TORSDO>  (68) 
F 22

>  <SCORE>  (68) 
-12.977

>  <name>  (68) 
68

>  <ligand_id>  (68) 
68

>  <original_smiles>  (68) 
[H]c1c([H])c([H])c2c(c1[H])C([H])([H])C([H])([H])C([H])([H])C2([H])N([H])C(=O)C1([H])N(C(=O)C([H])(N([H])C(=O)C([H])(N([H])C([H])([H])[H])C([H])([H])[H])C(C([H])([H])[H])(C([H])([H])[H])C([H])([H])[H])C([H])([H])c2c([H])c(OC([H])([H])c3nc(C([H])([H])[H])c(C([H])([H])C([H])([H])C([H])([H])[H])c(C([H])([H])C([H])([H])C([H])([H])N([H])C(=O)N4C([H])([H])C([H])([H])C([H])([H])C([H])(n5nc(-c6c([H])c([H])c(Oc7c([H])c([H])c(F)c([H])c7F)c([H])c6[H])c(C(=O)N([H])[H])c5N([H])[H])C4([H])[H])c3[H])c([H])c([H])c2C1([H])[H]

>  <smiles>  (68) 
[H]c1c([H])c([H])c2c(c1[H])C([H])([H])C([H])([H])C([H])([H])C2([H])N([H])C(=O)C1([H])N(C(=O)C([H])(N([H])C(=O)C([H])(N([H])C([H])([H])[H])C([H])([H])[H])C(C([H])([H])[H])(C([H])([H])[H])C([H])([H])[H])C([H])([H])c2c([H])c(OC([H])([H])c3nc(C([H])([H])[H])c(C([H])([H])C([H])([H])C([H])([H])[H])c(C([H])([H])C([H])([H])C([H])([H])N([H])C(=O)N4C([H])([H])C([H])([H])C([H])([H])C([H])(n5nc(-c6c([H])c([H])c(Oc7c([H])c([H])c(F)c([H])c7F)c([H])c6[H])c(C(=O)N([H])[H])c5N([H])[H])C4([H])[H])c3[H])c([H])c([H])c2C1([H])[H]

$$$$
69:0:0
     RDKit          3D

101110  0  0  1  0  0  0  0  0999 V2000
  -27.8720  -22.0330   18.3650 C   0  0  0  0  0  3  0  0  0  0  0  0
  -27.6970  -21.2130   17.2540 C   0  0  0  0  0  3  0  0  0  0  0  0
  -29.4130  -22.0500   21.6940 C   0  0  0  0  0  3  0  0  0  0  0  0
  -29.8930  -20.7220   21.7750 C   0  0  0  0  0  3  0  0  0  0  0  0
  -28.6500  -21.6160   19.4610 C   0  0  0  0  0  0  0  0  0  0  0  0
  -29.2630  -20.2870   19.4600 C   0  0  0  0  0  0  0  0  0  0  0  0
  -28.7570  -22.5430   20.5480 C   0  0  0  0  0  0  0  0  0  0  0  0
  -29.8280  -19.7890   20.7050 C   0  0  0  0  0  0  0  0  0  0  0  0
  -28.3870  -19.9980   17.1520 C   0  0  0  0  0  0  0  0  0  0  0  0
  -29.2550  -19.5640   18.2020 C   0  0  0  0  0  0  0  0  0  0  0  0
  -28.1260  -19.1880   15.8850 C   0  0  0  0  0  1  0  0  0  0  0  0
  -28.1000  -23.9880   20.6280 C   0  0  0  0  0  2  0  0  0  0  0  0
  -28.5430  -25.1840   19.6730 C   0  0  0  0  0  2  0  0  0  0  0  0
  -28.4340  -26.5800   20.1580 O   0  0  0  0  0  0  0  0  0  0  0  0
  -24.6160  -31.8390   23.2450 C   0  0  0  0  0  0  0  0  0  0  0  0
  -27.2610  -27.3460   20.1220 C   0  0  0  0  0  0  0  0  0  0  0  0
  -23.4130  -30.4400   21.6010 C   0  0  0  0  0  3  0  0  0  0  0  0
  -24.8670  -28.9120   20.1530 C   0  0  0  0  0  0  0  0  0  0  0  0
  -25.9440  -30.7880   21.4020 C   0  0  0  0  0  2  0  0  0  0  0  0
  -26.0310  -29.4170   20.7450 C   0  0  0  0  0  0  0  0  0  0  0  0
  -27.2250  -28.6430   20.7220 C   0  0  0  0  0  3  0  0  0  0  0  0
  -26.0710  -26.8790   19.5230 C   0  0  0  0  0  3  0  0  0  0  0  0
  -24.8890  -27.6490   19.5360 C   0  0  0  0  0  3  0  0  0  0  0  0
  -23.6230  -29.7740   20.2140 C   0  0  0  0  0  2  0  0  0  0  0  0
  -24.6760  -31.0420   22.1380 N   0  0  0  0  0  0  0  0  0  0  0  0
  -23.5360  -32.1040   23.7930 O   0  0  0  0  0  0  0  0  0  0  0  0
  -22.7680  -29.4140   22.5620 C   0  0  0  0  0  0  0  0  0  0  0  0
  -21.4450  -29.2180   22.4390 N   0  0  0  0  0  0  0  0  0  0  0  0
  -23.4580  -28.7950   23.3760 O   0  0  0  0  0  0  0  0  0  0  0  0
  -20.9460  -29.7720   21.7570 H   0  0  0  0  0  0  0  0  0  0  0  0
  -18.0890  -27.9730   22.9370 C   0  0  0  0  0  0  0  0  0  0  0  0
  -20.6430  -28.2670   23.2080 C   0  0  0  0  0  3  0  0  0  0  0  0
  -20.7650  -26.8390   22.6260 C   0  0  0  0  0  2  0  0  0  0  0  0
  -19.6670  -26.5070   21.6120 C   0  0  0  0  0  2  0  0  0  0  0  0
  -18.2840  -26.6280   22.2560 C   0  0  0  0  0  2  0  0  0  0  0  0
  -19.1970  -28.7480   23.3700 C   0  0  0  0  0  0  0  0  0  0  0  0
  -18.9600  -30.0050   23.9680 C   0  0  0  0  0  3  0  0  0  0  0  0
  -17.6490  -30.4890   24.1360 C   0  0  0  0  0  3  0  0  0  0  0  0
  -16.5560  -29.7090   23.7210 C   0  0  0  0  0  3  0  0  0  0  0  0
  -16.7760  -28.4540   23.1260 C   0  0  0  0  0  3  0  0  0  0  0  0
  -25.8990  -32.4770   23.8630 C   0  0  0  0  0  3  0  0  0  0  0  0
  -25.5880  -33.8790   24.1770 N   0  0  0  0  0  0  0  0  0  0  0  0
  -25.9370  -34.9280   23.4200 C   0  0  0  0  0  0  0  0  0  0  0  0
  -26.6230  -34.8170   22.4010 O   0  0  0  0  0  0  0  0  0  0  0  0
  -24.9710  -34.0390   24.9600 H   0  0  0  0  0  0  0  0  0  0  0  0
  -24.2430  -36.7450   23.0080 C   0  0  0  0  0  1  0  0  0  0  0  0
  -25.4480  -36.3210   23.8620 C   0  0  0  0  0  3  0  0  0  0  0  0
  -27.5580  -37.1900   24.7730 C   0  0  0  0  0  1  0  0  0  0  0  0
  -26.4960  -37.3620   23.7860 N   0  0  0  0  0  0  0  0  0  0  0  0
  -26.0940  -38.2880   23.9100 H   0  0  0  0  0  0  0  0  0  0  0  0
  -26.4140  -31.7180   25.1490 C   0  0  1  0  0  0  0  0  0  0  0  0
  -25.3180  -31.4950   26.2190 C   0  0  0  0  0  1  0  0  0  0  0  0
  -26.9970  -30.3340   24.7790 C   0  0  0  0  0  1  0  0  0  0  0  0
  -27.5620  -32.5200   25.8070 C   0  0  0  0  0  1  0  0  0  0  0  0
  -30.3780  -18.3380   21.0580 C   0  0  0  0  0  3  0  0  0  0  0  0
  -29.3800  -17.1050   20.9840 C   0  0  0  0  0  3  0  0  0  0  0  0
  -30.6100  -14.7440   21.0210 C   0  0  0  0  0  0  0  0  0  0  0  0
  -30.5570  -12.5290   19.8980 C   0  0  0  0  0  2  0  0  0  0  0  0
  -29.6650  -12.6720   18.6420 C   0  0  0  0  0  2  0  0  0  0  0  0
  -28.1740  -12.4720   18.9860 C   0  0  0  0  0  2  0  0  0  0  0  0
  -27.7360  -13.2810   20.2350 C   0  0  0  0  0  3  0  0  0  0  0  0
  -28.7400  -13.0870   21.3960 C   0  0  0  0  0  2  0  0  0  0  0  0
  -30.0720  -13.4880   20.9100 N   0  0  0  0  0  0  0  0  0  0  0  0
  -31.7450  -15.0030   20.6070 O   0  0  0  0  0  0  0  0  0  0  0  0
  -29.7400  -15.7080   21.4470 N   0  0  0  0  0  0  0  0  0  0  0  0
  -28.9550  -15.2690   21.9080 H   0  0  0  0  0  0  0  0  0  0  0  0
  -25.2880  -13.8180   20.8120 C   0  0  0  0  0  0  0  0  0  0  0  0
  -24.2190  -13.0150   21.1130 C   0  0  0  0  0  0  0  0  0  0  0  0
  -24.7150  -11.6750   21.0950 C   0  0  0  0  0  0  0  0  0  0  0  0
  -26.3660  -12.9650   20.6340 N   0  0  0  0  0  0  0  0  0  0  0  0
  -26.0220  -11.6710   20.8600 N   0  0  0  0  0  0  0  0  0  0  0  0
  -24.0110  -10.3950   21.2290 C   0  0  0  0  0  0  0  0  0  0  0  0
  -24.4160   -9.4230   22.1720 C   0  0  0  0  0  3  0  0  0  0  0  0
  -23.7100   -8.2070   22.2960 C   0  0  0  0  0  3  0  0  0  0  0  0
  -22.5860   -7.9530   21.4750 C   0  0  0  0  0  0  0  0  0  0  0  0
  -22.1990   -8.9130   20.5240 C   0  0  0  0  0  3  0  0  0  0  0  0
  -22.9050  -10.1210   20.3990 C   0  0  0  0  0  3  0  0  0  0  0  0
  -21.8550   -6.7890   21.5080 O   0  0  0  0  0  0  0  0  0  0  0  0
  -21.7540   -6.0350   22.6500 C   0  0  0  0  0  0  0  0  0  0  0  0
  -21.1930   -6.5540   23.8390 C   0  0  0  0  0  3  0  0  0  0  0  0
  -21.0450   -5.7230   24.9670 C   0  0  0  0  0  3  0  0  0  0  0  0
  -21.4450   -4.3740   24.9080 C   0  0  0  0  0  0  0  0  0  0  0  0
  -21.9980   -3.8550   23.7240 C   0  0  0  0  0  3  0  0  0  0  0  0
  -22.1480   -4.6830   22.5980 C   0  0  0  0  0  0  0  0  0  0  0  0
  -22.6620   -4.1720   21.4530 F   0  0  0  0  0  0  0  0  0  0  0  0
  -21.2950   -3.5750   25.9900 F   0  0  0  0  0  0  0  0  0  0  0  0
  -22.7970  -13.4560   21.3120 C   0  0  0  0  0  0  0  0  0  0  0  0
  -22.0410  -12.7350   22.1330 N   0  0  0  0  0  0  0  0  0  0  0  0
  -22.3630  -14.4750   20.7760 O   0  0  0  0  0  0  0  0  0  0  0  0
  -22.4020  -11.9100   22.5890 H   0  0  0  0  0  0  0  0  0  0  0  0
  -21.0850  -13.0130   22.3100 H   0  0  0  0  0  0  0  0  0  0  0  0
  -25.4270  -15.1920   20.6550 N   0  0  0  0  0  0  0  0  0  0  0  0
  -24.6360  -15.8250   20.7080 H   0  0  0  0  0  0  0  0  0  0  0  0
  -26.2790  -15.6510   20.3540 H   0  0  0  0  0  0  0  0  0  0  0  0
  -30.1800  -18.3670   17.8700 C   0  0  0  0  0  2  0  0  0  0  0  0
  -31.6630  -18.8450   15.8400 C   0  0  0  0  0  1  0  0  0  0  0  0
  -32.4240  -17.3170   17.6160 C   0  0  0  0  0  1  0  0  0  0  0  0
  -31.6530  -18.6390   17.3710 C   0  0  2  0  0  0  0  0  0  0  0  0
  -33.9210  -19.6970   18.1620 C   0  0  0  0  0  1  0  0  0  0  0  0
  -32.0930  -21.2270   17.4630 C   0  0  0  0  0  1  0  0  0  0  0  0
  -32.3830  -19.8410   18.0820 C   0  0  0  0  0  3  0  0  0  0  0  0
  1  5  1  0
  2  1  2  0
  3  4  1  0
  5  7  1  0
  6  5  2  0
  6  8  1  0
  7 12  1  0
  7  3  2  0
  8 55  1  0
  8  4  2  0
  9  2  1  0
  9 10  2  0
 10  6  1  0
 11  9  1  0
 13 14  1  0
 13 12  1  0
 15 26  2  0
 16 14  1  0
 16 21  1  0
 17 25  1  0
 17 27  1  0
 18 24  1  0
 18 20  1  0
 19 25  1  0
 20 19  1  0
 21 20  2  0
 22 23  1  0
 22 16  2  0
 23 18  2  0
 24 17  1  0
 25 15  1  0
 27 29  2  0
 28 27  1  0
 30 28  1  0
 31 40  2  0
 31 36  1  0
 32 28  1  0
 32 36  1  0
 33 32  1  0
 34 35  1  0
 34 33  1  0
 35 31  1  0
 36 37  2  0
 37 38  1  0
 39 38  2  0
 40 39  1  0
 41 15  1  0
 41 42  1  0
 41 51  1  0
 42 45  1  0
 43 47  1  0
 43 42  1  0
 44 43  2  0
 47 46  1  0
 49 47  1  0
 49 50  1  0
 49 48  1  0
 51 54  1  1
 51 52  1  0
 53 51  1  0
 56 55  2  0
 56 65  1  0
 57 65  1  0
 58 63  1  0
 59 60  1  0
 59 58  1  0
 61 60  1  0
 61 70  1  0
 61 62  1  0
 63 57  1  0
 63 62  1  0
 64 57  2  0
 65 66  1  0
 67 68  2  0
 68 87  1  0
 69 68  1  0
 69 72  1  0
 70 67  1  0
 70 71  1  0
 71 69  2  0
 72 73  1  0
 73 74  2  0
 75 78  1  0
 75 74  1  0
 76 75  2  0
 77 76  1  0
 77 72  2  0
 78 79  1  0
 79 80  1  0
 80 81  2  0
 82 81  1  0
 82 86  1  0
 83 82  2  0
 84 79  2  0
 84 83  1  0
 85 84  1  0
 87 88  1  0
 88 91  1  0
 88 90  1  0
 89 87  2  0
 92 93  1  0
 92 67  1  0
 94 92  1  0
 95 10  1  0
 98 96  1  6
 98 97  1  0
 98 95  1  0
 98101  1  0
100101  1  0
101 99  1  0
M  ISO  4  13 101  14 101  57 100  65 100
M  END
>  <TORSDO>  (69) 
F 23

>  <SCORE>  (69) 
-12.953

>  <name>  (69) 
69

>  <ligand_id>  (69) 
69

>  <original_smiles>  (69) 
[H]c1c([H])c([H])c2c(c1[H])C([H])([H])C([H])([H])C([H])([H])C2([H])N([H])C(=O)C1([H])N(C(=O)C([H])(N([H])C(=O)C([H])(N([H])C([H])([H])[H])C([H])([H])[H])C(C([H])([H])[H])(C([H])([H])[H])C([H])([H])[H])C([H])([H])c2c([H])c(OC([H])([H])C([H])([H])c3c([H])c([H])c(C([H])([H])C([H])([H])N([H])C(=O)N4C([H])([H])C([H])([H])C([H])([H])C([H])(n5nc(-c6c([H])c([H])c(Oc7c([H])c([H])c(F)c([H])c7F)c([H])c6[H])c(C(=O)N([H])[H])c5N([H])[H])C4([H])[H])c4c(C([H])([H])C(C([H])([H])[H])(C([H])([H])[H])C([H])(C([H])([H])[H])C([H])([H])[H])c(C([H])([H])[H])c([H])c([H])c34)c([H])c([H])c2C1([H])[H]

>  <smiles>  (69) 
[H]c1c([H])c([H])c2c(c1[H])C([H])([H])C([H])([H])C([H])([H])C2([H])N([H])C(=O)C1([H])N(C(=O)C([H])(N([H])C(=O)C([H])(N([H])C([H])([H])[H])C([H])([H])[H])C(C([H])([H])[H])(C([H])([H])[H])C([H])([H])[H])C([H])([H])c2c([H])c(OC([H])([H])C([H])([H])c3c([H])c([H])c(C([H])([H])C([H])([H])N([H])C(=O)N4C([H])([H])C([H])([H])C([H])([H])C([H])(n5nc(-c6c([H])c([H])c(Oc7c([H])c([H])c(F)c([H])c7F)c([H])c6[H])c(C(=O)N([H])[H])c5N([H])[H])C4([H])[H])c4c(C([H])([H])C(C([H])([H])[H])(C([H])([H])[H])C([H])(C([H])([H])[H])C([H])([H])[H])c(C([H])([H])[H])c([H])c([H])c34)c([H])c([H])c2C1([H])[H]

$$$$
70:0:0
     RDKit          3D

 95103  0  0  1  0  0  0  0  0999 V2000
  -29.0050  -22.5110   21.1290 C   0  0  0  0  0  3  0  0  0  0  0  0
  -29.3690  -23.9000   19.1990 C   0  0  0  0  0  3  0  0  0  0  0  0
  -28.9840  -23.8380   20.5480 C   0  0  0  0  0  0  0  0  0  0  0  0
  -29.4330  -21.3460   20.3880 C   0  0  0  0  0  0  0  0  0  0  0  0
  -29.7630  -22.7280   18.5060 C   0  0  0  0  0  0  0  0  0  0  0  0
  -29.8410  -21.5100   19.1110 N   0  0  0  0  0  0  0  0  0  0  0  0
  -31.6690  -22.8200   16.8540 C   0  0  0  0  0  1  0  0  0  0  0  0
  -29.5580  -23.9940   16.2710 C   0  0  0  0  0  1  0  0  0  0  0  0
  -29.5830  -21.5140   16.2840 C   0  0  0  0  0  1  0  0  0  0  0  0
  -30.1410  -22.7630   17.0070 C   0  0  2  0  0  0  0  0  0  0  0  0
  -27.0770  -24.8570   21.8820 C   0  0  0  0  0  1  0  0  0  0  0  0
  -29.4320  -25.4500   22.4460 C   0  0  0  0  0  1  0  0  0  0  0  0
  -28.4740  -25.1550   21.2840 C   0  0  1  0  0  0  0  0  0  0  0  0
  -28.5280  -26.4670   20.5460 O   0  0  0  0  0  0  0  0  0  0  0  0
  -24.6020  -31.9080   23.3060 C   0  0  0  0  0  0  0  0  0  0  0  0
  -27.4180  -27.3280   20.4730 C   0  0  0  0  0  0  0  0  0  0  0  0
  -23.5050  -30.4780   21.6190 C   0  0  0  0  0  3  0  0  0  0  0  0
  -25.0510  -28.9260   20.2920 C   0  0  0  0  0  0  0  0  0  0  0  0
  -26.0470  -30.8230   21.5700 C   0  0  0  0  0  2  0  0  0  0  0  0
  -26.1780  -29.4340   20.9520 C   0  0  0  0  0  0  0  0  0  0  0  0
  -27.3690  -28.6460   21.0330 C   0  0  0  0  0  3  0  0  0  0  0  0
  -26.2800  -26.8820   19.7760 C   0  0  0  0  0  3  0  0  0  0  0  0
  -25.1060  -27.6550   19.6940 C   0  0  0  0  0  3  0  0  0  0  0  0
  -23.8020  -29.7870   20.2610 C   0  0  0  0  0  2  0  0  0  0  0  0
  -24.7340  -31.0900   22.2230 N   0  0  0  0  0  0  0  0  0  0  0  0
  -23.4890  -32.1790   23.7790 O   0  0  0  0  0  0  0  0  0  0  0  0
  -22.8030  -29.4660   22.5550 C   0  0  0  0  0  0  0  0  0  0  0  0
  -21.4790  -29.3100   22.3940 N   0  0  0  0  0  0  0  0  0  0  0  0
  -23.4520  -28.8220   23.3830 O   0  0  0  0  0  0  0  0  0  0  0  0
  -21.0150  -29.8800   21.7000 H   0  0  0  0  0  0  0  0  0  0  0  0
  -18.0580  -28.2360   22.8710 C   0  0  0  0  0  0  0  0  0  0  0  0
  -20.6270  -28.3780   23.1340 C   0  0  0  0  0  3  0  0  0  0  0  0
  -20.6650  -26.9660   22.5050 C   0  0  0  0  0  2  0  0  0  0  0  0
  -19.5470  -26.7280   21.4870 C   0  0  0  0  0  2  0  0  0  0  0  0
  -18.1750  -26.9060   22.1440 C   0  0  0  0  0  2  0  0  0  0  0  0
  -19.2100  -28.9340   23.3220 C   0  0  0  0  0  0  0  0  0  0  0  0
  -19.0460  -30.1820   23.9620 C   0  0  0  0  0  3  0  0  0  0  0  0
  -17.7640  -30.7300   24.1540 C   0  0  0  0  0  3  0  0  0  0  0  0
  -16.6270  -30.0280   23.7200 C   0  0  0  0  0  3  0  0  0  0  0  0
  -16.7750  -28.7830   23.0840 C   0  0  0  0  0  3  0  0  0  0  0  0
  -25.8410  -32.5640   23.9900 C   0  0  0  0  0  3  0  0  0  0  0  0
  -25.5050  -33.9680   24.2660 N   0  0  0  0  0  0  0  0  0  0  0  0
  -25.8560  -35.0020   23.4910 C   0  0  0  0  0  0  0  0  0  0  0  0
  -26.5670  -34.8770   22.4890 O   0  0  0  0  0  0  0  0  0  0  0  0
  -24.8700  -34.1370   25.0320 H   0  0  0  0  0  0  0  0  0  0  0  0
  -24.1130  -36.7610   23.0430 C   0  0  0  0  0  1  0  0  0  0  0  0
  -25.3420  -36.3990   23.8920 C   0  0  0  0  0  3  0  0  0  0  0  0
  -27.4440  -37.3450   24.7400 C   0  0  0  0  0  1  0  0  0  0  0  0
  -26.3600  -37.4630   23.7660 N   0  0  0  0  0  0  0  0  0  0  0  0
  -25.9380  -38.3810   23.8730 H   0  0  0  0  0  0  0  0  0  0  0  0
  -26.2790  -31.8270   25.3140 C   0  0  1  0  0  0  0  0  0  0  0  0
  -25.1180  -31.5920   26.3080 C   0  0  0  0  0  1  0  0  0  0  0  0
  -26.9100  -30.4510   24.9930 C   0  0  0  0  0  1  0  0  0  0  0  0
  -27.3650  -32.6570   26.0400 C   0  0  0  0  0  1  0  0  0  0  0  0
  -29.1490  -19.8310   20.8080 C   0  0  0  0  0  2  0  0  0  0  0  0
  -30.2460  -18.6460   20.9490 C   0  0  0  0  0  2  0  0  0  0  0  0
  -30.0840  -17.2420   20.1530 C   0  0  0  0  0  2  0  0  0  0  0  0
  -30.8780  -14.7480   20.4940 C   0  0  0  0  0  0  0  0  0  0  0  0
  -30.6560  -12.5070   19.4180 C   0  0  0  0  0  2  0  0  0  0  0  0
  -29.7330  -12.6600   18.1880 C   0  0  0  0  0  2  0  0  0  0  0  0
  -28.2570  -12.4970   18.5960 C   0  0  0  0  0  2  0  0  0  0  0  0
  -27.8890  -13.3480   19.8410 C   0  0  0  0  0  3  0  0  0  0  0  0
  -28.9310  -13.1760   20.9720 C   0  0  0  0  0  2  0  0  0  0  0  0
  -30.2470  -13.5250   20.4170 N   0  0  0  0  0  0  0  0  0  0  0  0
  -32.0360  -14.8740   20.0900 O   0  0  0  0  0  0  0  0  0  0  0  0
  -30.1070  -15.8560   20.8100 N   0  0  0  0  0  0  0  0  0  0  0  0
  -29.2250  -15.5950   21.2280 H   0  0  0  0  0  0  0  0  0  0  0  0
  -25.5000  -13.9630   20.5480 C   0  0  0  0  0  0  0  0  0  0  0  0
  -24.4180  -13.2010   20.8960 C   0  0  0  0  0  0  0  0  0  0  0  0
  -24.8610  -11.8440   20.8440 C   0  0  0  0  0  0  0  0  0  0  0  0
  -26.5330  -13.0720   20.3080 N   0  0  0  0  0  0  0  0  0  0  0  0
  -26.1550  -11.7910   20.5520 N   0  0  0  0  0  0  0  0  0  0  0  0
  -24.1160  -10.5900   21.0050 C   0  0  0  0  0  0  0  0  0  0  0  0
  -24.5200   -9.6050   21.9340 C   0  0  0  0  0  3  0  0  0  0  0  0
  -23.7760   -8.4140   22.0860 C   0  0  0  0  0  3  0  0  0  0  0  0
  -22.6140   -8.2000   21.3060 C   0  0  0  0  0  0  0  0  0  0  0  0
  -22.2300   -9.1710   20.3650 C   0  0  0  0  0  3  0  0  0  0  0  0
  -22.9740  -10.3530   20.2130 C   0  0  0  0  0  3  0  0  0  0  0  0
  -21.8430   -7.0650   21.3690 O   0  0  0  0  0  0  0  0  0  0  0  0
  -21.7560   -6.3160   22.5150 C   0  0  0  0  0  0  0  0  0  0  0  0
  -21.2810   -6.8610   23.7280 C   0  0  0  0  0  3  0  0  0  0  0  0
  -21.1380   -6.0380   24.8600 C   0  0  0  0  0  3  0  0  0  0  0  0
  -21.4620   -4.6690   24.7840 C   0  0  0  0  0  0  0  0  0  0  0  0
  -21.9280   -4.1230   23.5750 C   0  0  0  0  0  3  0  0  0  0  0  0
  -22.0700   -4.9430   22.4430 C   0  0  0  0  0  0  0  0  0  0  0  0
  -22.5010   -4.4070   21.2750 F   0  0  0  0  0  0  0  0  0  0  0  0
  -21.3170   -3.8760   25.8710 F   0  0  0  0  0  0  0  0  0  0  0  0
  -23.0260  -13.6960   21.1560 C   0  0  0  0  0  0  0  0  0  0  0  0
  -22.2810  -13.0000   22.0090 N   0  0  0  0  0  0  0  0  0  0  0  0
  -22.6060  -14.7320   20.6430 O   0  0  0  0  0  0  0  0  0  0  0  0
  -22.6370  -12.1700   22.4590 H   0  0  0  0  0  0  0  0  0  0  0  0
  -21.3390  -13.3030   22.2110 H   0  0  0  0  0  0  0  0  0  0  0  0
  -25.6830  -15.3350   20.3890 N   0  0  0  0  0  0  0  0  0  0  0  0
  -24.9170  -15.9940   20.4720 H   0  0  0  0  0  0  0  0  0  0  0  0
  -26.5310  -15.7620   20.0400 H   0  0  0  0  0  0  0  0  0  0  0  0
  2  3  2  0
  3  1  1  0
  3 13  1  0
  4 55  1  0
  4  1  2  0
  5  6  2  0
  5  2  1  0
  6  4  1  0
 10  7  1  1
  8 10  1  0
  9 10  1  0
 10  5  1  0
 13 11  1  1
 13 12  1  0
 14 13  1  0
 15 26  2  0
 16 14  1  0
 16 21  1  0
 17 25  1  0
 17 27  1  0
 18 20  1  0
 19 25  1  0
 20 21  2  0
 20 19  1  0
 22 16  2  0
 23 22  1  0
 23 18  2  0
 24 18  1  0
 24 17  1  0
 25 15  1  0
 27 29  2  0
 28 27  1  0
 30 28  1  0
 31 40  2  0
 31 36  1  0
 32 28  1  0
 32 36  1  0
 33 32  1  0
 34 35  1  0
 34 33  1  0
 35 31  1  0
 36 37  2  0
 37 38  1  0
 39 38  2  0
 40 39  1  0
 41 15  1  0
 41 42  1  0
 41 51  1  0
 42 45  1  0
 43 47  1  0
 43 42  1  0
 44 43  2  0
 47 46  1  0
 49 50  1  0
 49 47  1  0
 49 48  1  0
 51 54  1  1
 51 52  1  0
 53 51  1  0
 55 56  1  0
 57 66  1  0
 57 56  1  0
 58 66  1  0
 59 64  1  0
 60 61  1  0
 60 59  1  0
 62 61  1  0
 62 71  1  0
 62 63  1  0
 64 58  1  0
 64 63  1  0
 65 58  2  0
 66 67  1  0
 68 69  2  0
 69 88  1  0
 70 69  1  0
 70 73  1  0
 71 68  1  0
 71 72  1  0
 72 70  2  0
 73 74  1  0
 74 75  2  0
 76 79  1  0
 76 75  1  0
 77 76  2  0
 78 77  1  0
 78 73  2  0
 79 80  1  0
 80 81  1  0
 81 82  2  0
 83 82  1  0
 83 87  1  0
 84 83  2  0
 85 80  2  0
 85 84  1  0
 86 85  1  0
 88 89  1  0
 89 92  1  0
 89 91  1  0
 90 88  2  0
 93 94  1  0
 93 68  1  0
 95 93  1  0
M  ISO  4  13 101  14 101  58 100  66 100
M  END
>  <TORSDO>  (70) 
F 21

>  <SCORE>  (70) 
-13.429

>  <name>  (70) 
70

>  <ligand_id>  (70) 
70

>  <original_smiles>  (70) 
[H]c1c([H])c([H])c2c(c1[H])C([H])([H])C([H])([H])C([H])([H])C2([H])N([H])C(=O)C1([H])N(C(=O)C([H])(N([H])C(=O)C([H])(N([H])C([H])([H])[H])C([H])([H])[H])C(C([H])([H])[H])(C([H])([H])[H])C([H])([H])[H])C([H])([H])c2c([H])c(OC(c3c([H])c(C([H])([H])C([H])([H])C([H])([H])N([H])C(=O)N4C([H])([H])C([H])([H])C([H])([H])C([H])(n5nc(-c6c([H])c([H])c(Oc7c([H])c([H])c(F)c([H])c7F)c([H])c6[H])c(C(=O)N([H])[H])c5N([H])[H])C4([H])[H])nc(C(C([H])([H])[H])(C([H])([H])[H])C([H])([H])[H])c3[H])(C([H])([H])[H])C([H])([H])[H])c([H])c([H])c2C1([H])[H]

>  <smiles>  (70) 
[H]c1c([H])c([H])c2c(c1[H])C([H])([H])C([H])([H])C([H])([H])C2([H])N([H])C(=O)C1([H])N(C(=O)C([H])(N([H])C(=O)C([H])(N([H])C([H])([H])[H])C([H])([H])[H])C(C([H])([H])[H])(C([H])([H])[H])C([H])([H])[H])C([H])([H])c2c([H])c(OC(c3c([H])c(C([H])([H])C([H])([H])C([H])([H])N([H])C(=O)N4C([H])([H])C([H])([H])C([H])([H])C([H])(n5nc(-c6c([H])c([H])c(Oc7c([H])c([H])c(F)c([H])c7F)c([H])c6[H])c(C(=O)N([H])[H])c5N([H])[H])C4([H])[H])nc(C(C([H])([H])[H])(C([H])([H])[H])C([H])([H])[H])c3[H])(C([H])([H])[H])C([H])([H])[H])c([H])c([H])c2C1([H])[H]

$$$$
71:0:0
     RDKit          3D

100108  0  0  1  0  0  0  0  0999 V2000
  -31.6490  -22.3040   19.3560 C   0  0  0  0  0  3  0  0  0  0  0  0
  -32.7090  -21.3800   19.3080 C   0  0  0  0  0  3  0  0  0  0  0  0
  -30.0880  -20.4680   19.6740 C   0  0  0  0  0  3  0  0  0  0  0  0
  -30.3280  -21.8560   19.5430 C   0  0  0  0  0  0  0  0  0  0  0  0
  -32.4710  -19.9940   19.4430 C   0  0  0  0  0  0  0  0  0  0  0  0
  -31.1420  -19.5250   19.6320 C   0  0  0  0  0  0  0  0  0  0  0  0
  -28.4030  -22.7630   18.2170 C   0  0  0  0  0  1  0  0  0  0  0  0
  -29.1470  -22.8280   19.5640 C   0  0  0  0  0  3  0  0  0  0  0  0
  -29.5010  -24.2970   19.9390 C   0  0  0  0  0  2  0  0  0  0  0  0
  -28.2610  -25.1180   20.3580 C   0  0  0  0  0  2  0  0  0  0  0  0
  -28.4030  -26.5310   20.1210 O   0  0  0  0  0  0  0  0  0  0  0  0
  -24.5220  -31.6940   23.1470 C   0  0  0  0  0  0  0  0  0  0  0  0
  -27.2290  -27.2590   20.1030 C   0  0  0  0  0  0  0  0  0  0  0  0
  -23.3440  -30.2790   21.4980 C   0  0  0  0  0  3  0  0  0  0  0  0
  -24.8230  -28.7550   20.0910 C   0  0  0  0  0  0  0  0  0  0  0  0
  -25.8720  -30.6540   21.3270 C   0  0  0  0  0  2  0  0  0  0  0  0
  -25.9740  -29.2820   20.6930 C   0  0  0  0  0  0  0  0  0  0  0  0
  -27.1800  -28.5430   20.6950 C   0  0  0  0  0  3  0  0  0  0  0  0
  -26.0620  -26.7630   19.4740 C   0  0  0  0  0  3  0  0  0  0  0  0
  -24.8620  -27.4940   19.4800 C   0  0  0  0  0  3  0  0  0  0  0  0
  -23.5730  -29.6030   20.1220 C   0  0  0  0  0  2  0  0  0  0  0  0
  -24.5960  -30.8910   22.0480 N   0  0  0  0  0  0  0  0  0  0  0  0
  -23.4330  -31.9580   23.6750 O   0  0  0  0  0  0  0  0  0  0  0  0
  -22.6930  -29.2520   22.4530 C   0  0  0  0  0  0  0  0  0  0  0  0
  -21.3720  -29.0570   22.3110 N   0  0  0  0  0  0  0  0  0  0  0  0
  -23.3730  -28.6360   23.2780 O   0  0  0  0  0  0  0  0  0  0  0  0
  -20.8830  -29.6060   21.6180 H   0  0  0  0  0  0  0  0  0  0  0  0
  -18.0070  -27.8180   22.7630 C   0  0  0  0  0  0  0  0  0  0  0  0
  -20.5560  -28.1140   23.0750 C   0  0  0  0  0  3  0  0  0  0  0  0
  -20.6880  -26.6790   22.5150 C   0  0  0  0  0  2  0  0  0  0  0  0
  -19.6100  -26.3310   21.4850 C   0  0  0  0  0  2  0  0  0  0  0  0
  -18.2150  -26.4660   22.1020 C   0  0  0  0  0  2  0  0  0  0  0  0
  -19.1080  -28.5990   23.2060 C   0  0  0  0  0  0  0  0  0  0  0  0
  -18.8640  -29.8660   23.7800 C   0  0  0  0  0  3  0  0  0  0  0  0
  -17.5510  -30.3520   23.9150 C   0  0  0  0  0  3  0  0  0  0  0  0
  -16.4630  -29.5690   23.4890 C   0  0  0  0  0  3  0  0  0  0  0  0
  -16.6920  -28.3030   22.9200 C   0  0  0  0  0  3  0  0  0  0  0  0
  -25.7980  -32.3390   23.7770 C   0  0  0  0  0  3  0  0  0  0  0  0
  -26.3240  -31.5620   25.0460 C   0  0  1  0  0  0  0  0  0  0  0  0
  -25.2320  -31.2930   26.1070 C   0  0  0  0  0  1  0  0  0  0  0  0
  -26.9300  -30.2000   24.6360 C   0  0  0  0  0  1  0  0  0  0  0  0
  -27.4630  -32.3650   25.7170 C   0  0  0  0  0  1  0  0  0  0  0  0
  -25.4700  -33.7290   24.1190 N   0  0  0  0  0  0  0  0  0  0  0  0
  -25.7970  -34.7910   23.3720 C   0  0  0  0  0  0  0  0  0  0  0  0
  -26.4790  -34.7060   22.3470 O   0  0  0  0  0  0  0  0  0  0  0  0
  -24.8720  -33.8710   24.9190 H   0  0  0  0  0  0  0  0  0  0  0  0
  -24.0550  -36.5650   23.0070 C   0  0  0  0  0  1  0  0  0  0  0  0
  -25.2850  -36.1680   23.8360 C   0  0  0  0  0  3  0  0  0  0  0  0
  -27.3930  -37.0660   24.7180 C   0  0  0  0  0  1  0  0  0  0  0  0
  -26.3070  -37.2340   23.7550 N   0  0  0  0  0  0  0  0  0  0  0  0
  -25.8890  -38.1470   23.9060 H   0  0  0  0  0  0  0  0  0  0  0  0
  -33.6700  -19.0610   19.3500 C   0  0  0  0  0  2  0  0  0  0  0  0
  -33.9480  -18.6360   17.8920 C   0  0  0  0  0  2  0  0  0  0  0  0
  -36.4880  -18.7890   17.9980 C   0  0  0  0  0  1  0  0  0  0  0  0
  -35.3690  -17.5630   16.1280 C   0  0  0  0  0  1  0  0  0  0  0  0
  -35.3610  -16.5820   18.4250 C   0  0  0  0  0  1  0  0  0  0  0  0
  -35.2860  -17.8970   17.6300 C   0  0  2  0  0  0  0  0  0  0  0  0
  -30.8020  -18.0320   19.7770 C   0  0  0  0  0  2  0  0  0  0  0  0
  -31.0510  -18.5030   22.3070 C   0  0  0  0  0  1  0  0  0  0  0  0
  -29.0450  -17.2940   21.4490 C   0  0  0  0  0  1  0  0  0  0  0  0
  -30.5620  -17.5040   21.2340 C   0  0  1  0  0  0  0  0  0  0  0  0
  -31.3210  -16.1670   21.4800 C   0  0  0  0  0  2  0  0  0  0  0  0
  -31.0410  -14.1060   20.0820 C   0  0  0  0  0  0  0  0  0  0  0  0
  -30.5600  -11.9890   18.9080 C   0  0  0  0  0  2  0  0  0  0  0  0
  -29.5520  -12.2060   17.7630 C   0  0  0  0  0  2  0  0  0  0  0  0
  -28.1040  -12.1200   18.2840 C   0  0  0  0  0  2  0  0  0  0  0  0
  -27.8710  -12.9910   19.5460 C   0  0  0  0  0  3  0  0  0  0  0  0
  -28.9770  -12.7420   20.5930 C   0  0  0  0  0  2  0  0  0  0  0  0
  -30.2840  -12.9860   19.9530 N   0  0  0  0  0  0  0  0  0  0  0  0
  -32.0570  -14.3170   19.4170 O   0  0  0  0  0  0  0  0  0  0  0  0
  -30.6160  -14.9740   21.0070 N   0  0  0  0  0  0  0  0  0  0  0  0
  -29.7680  -14.7250   21.4920 H   0  0  0  0  0  0  0  0  0  0  0  0
  -25.5520  -13.6970   20.4180 C   0  0  0  0  0  0  0  0  0  0  0  0
  -24.4720  -12.9680   20.8390 C   0  0  0  0  0  0  0  0  0  0  0  0
  -24.8620  -11.5960   20.7500 C   0  0  0  0  0  0  0  0  0  0  0  0
  -26.5370  -12.7720   20.1050 N   0  0  0  0  0  0  0  0  0  0  0  0
  -26.1270  -11.5020   20.3590 N   0  0  0  0  0  0  0  0  0  0  0  0
  -24.0880  -10.3660   20.9590 C   0  0  0  0  0  0  0  0  0  0  0  0
  -24.5050   -9.3800   21.8800 C   0  0  0  0  0  3  0  0  0  0  0  0
  -23.7340   -8.2140   22.0770 C   0  0  0  0  0  3  0  0  0  0  0  0
  -22.5330   -8.0270   21.3550 C   0  0  0  0  0  0  0  0  0  0  0  0
  -22.1340   -9.0010   20.4230 C   0  0  0  0  0  3  0  0  0  0  0  0
  -22.9050  -10.1580   20.2230 C   0  0  0  0  0  3  0  0  0  0  0  0
  -21.7330   -6.9140   21.4620 O   0  0  0  0  0  0  0  0  0  0  0  0
  -21.6590   -6.1900   22.6250 C   0  0  0  0  0  0  0  0  0  0  0  0
  -21.2510   -6.7750   23.8430 C   0  0  0  0  0  3  0  0  0  0  0  0
  -21.1230   -5.9790   24.9990 C   0  0  0  0  0  3  0  0  0  0  0  0
  -21.3920   -4.5990   24.9380 C   0  0  0  0  0  0  0  0  0  0  0  0
  -21.7950   -4.0130   23.7240 C   0  0  0  0  0  3  0  0  0  0  0  0
  -21.9250   -4.8060   22.5710 C   0  0  0  0  0  0  0  0  0  0  0  0
  -22.2910   -4.2330   21.3990 F   0  0  0  0  0  0  0  0  0  0  0  0
  -21.2620   -3.8320   26.0450 F   0  0  0  0  0  0  0  0  0  0  0  0
  -23.1200  -13.5050   21.2130 C   0  0  0  0  0  0  0  0  0  0  0  0
  -22.4170  -12.8240   22.1100 N   0  0  0  0  0  0  0  0  0  0  0  0
  -22.7010  -14.5620   20.7450 O   0  0  0  0  0  0  0  0  0  0  0  0
  -22.7690  -11.9680   22.5120 H   0  0  0  0  0  0  0  0  0  0  0  0
  -21.5120  -13.1660   22.4020 H   0  0  0  0  0  0  0  0  0  0  0  0
  -25.7760  -15.0610   20.2590 N   0  0  0  0  0  0  0  0  0  0  0  0
  -25.0550  -15.7540   20.4270 H   0  0  0  0  0  0  0  0  0  0  0  0
  -26.6330  -15.4610   19.8980 H   0  0  0  0  0  0  0  0  0  0  0  0
  1  4  1  0
  2  1  2  0
  2  5  1  0
  4  8  1  0
  4  3  2  0
  5  6  2  0
  6  3  1  0
  6 58  1  0
  8  7  1  0
  8  9  1  0
  9 10  1  0
 11 10  1  0
 12 23  2  0
 13 11  1  0
 13 18  1  0
 14 22  1  0
 14 24  1  0
 15 21  1  0
 15 17  1  0
 16 22  1  0
 17 18  2  0
 17 16  1  0
 19 20  1  0
 19 13  2  0
 20 15  2  0
 21 14  1  0
 22 12  1  0
 24 26  2  0
 25 24  1  0
 27 25  1  0
 28 37  2  0
 28 33  1  0
 29 25  1  0
 29 33  1  0
 30 29  1  0
 31 32  1  0
 31 30  1  0
 32 28  1  0
 33 34  2  0
 34 35  1  0
 36 35  2  0
 37 36  1  0
 38 12  1  0
 38 43  1  0
 38 39  1  0
 39 42  1  1
 39 40  1  0
 41 39  1  0
 43 46  1  0
 44 48  1  0
 44 43  1  0
 45 44  2  0
 48 47  1  0
 50 48  1  0
 50 51  1  0
 50 49  1  0
 52  5  1  0
 53 52  1  0
 57 55  1  6
 57 53  1  0
 57 54  1  0
 57 56  1  0
 58 61  1  0
 61 60  1  1
 61 62  1  0
 61 59  1  0
 63 71  1  0
 64 69  1  0
 65 66  1  0
 65 64  1  0
 67 66  1  0
 67 76  1  0
 67 68  1  0
 69 63  1  0
 69 68  1  0
 70 63  2  0
 71 62  1  0
 71 72  1  0
 73 74  2  0
 74 93  1  0
 75 74  1  0
 75 78  1  0
 76 77  1  0
 76 73  1  0
 77 75  2  0
 78 79  1  0
 79 80  2  0
 81 84  1  0
 81 80  1  0
 82 81  2  0
 83 82  1  0
 83 78  2  0
 84 85  1  0
 85 86  1  0
 86 87  2  0
 88 87  1  0
 88 92  1  0
 89 88  2  0
 90 85  2  0
 90 89  1  0
 91 90  1  0
 93 94  1  0
 94 97  1  0
 94 96  1  0
 95 93  2  0
 98 73  1  0
 98 99  1  0
100 98  1  0
M  ISO  4  10 101  11 101  63 100  71 100
M  END
>  <TORSDO>  (71) 
F 25

>  <SCORE>  (71) 
-11.679

>  <name>  (71) 
71

>  <ligand_id>  (71) 
71

>  <original_smiles>  (71) 
[H]c1c([H])c([H])c2c(c1[H])C([H])([H])C([H])([H])C([H])([H])C2([H])N([H])C(=O)C1([H])N(C(=O)C([H])(N([H])C(=O)C([H])(N([H])C([H])([H])[H])C([H])([H])[H])C(C([H])([H])[H])(C([H])([H])[H])C([H])([H])[H])C([H])([H])c2c([H])c(OC([H])([H])C([H])([H])C([H])(c3c([H])c([H])c(C([H])([H])C([H])([H])C(C([H])([H])[H])(C([H])([H])[H])C([H])([H])[H])c(C([H])([H])C(C([H])([H])[H])(C([H])([H])[H])C([H])([H])N([H])C(=O)N4C([H])([H])C([H])([H])C([H])([H])C([H])(n5nc(-c6c([H])c([H])c(Oc7c([H])c([H])c(F)c([H])c7F)c([H])c6[H])c(C(=O)N([H])[H])c5N([H])[H])C4([H])[H])c3[H])C([H])([H])[H])c([H])c([H])c2C1([H])[H]

>  <smiles>  (71) 
[H]c1c([H])c([H])c2c(c1[H])C([H])([H])C([H])([H])C([H])([H])C2([H])N([H])C(=O)C1([H])N(C(=O)C([H])(N([H])C(=O)C([H])(N([H])C([H])([H])[H])C([H])([H])[H])C(C([H])([H])[H])(C([H])([H])[H])C([H])([H])[H])C([H])([H])c2c([H])c(OC([H])([H])C([H])([H])C([H])(c3c([H])c([H])c(C([H])([H])C([H])([H])C(C([H])([H])[H])(C([H])([H])[H])C([H])([H])[H])c(C([H])([H])C(C([H])([H])[H])(C([H])([H])[H])C([H])([H])N([H])C(=O)N4C([H])([H])C([H])([H])C([H])([H])C([H])(n5nc(-c6c([H])c([H])c(Oc7c([H])c([H])c(F)c([H])c7F)c([H])c6[H])c(C(=O)N([H])[H])c5N([H])[H])C4([H])[H])c3[H])C([H])([H])[H])c([H])c([H])c2C1([H])[H]

$$$$
72:0:0
     RDKit          3D

 91 99  0  0  1  0  0  0  0  0999 V2000
  -28.7220  -21.5130   17.8190 C   0  0  0  0  0  3  0  0  0  0  0  0
  -28.4370  -20.6300   16.7790 C   0  0  0  0  0  3  0  0  0  0  0  0
  -28.8320  -21.0790   19.1620 C   0  0  0  0  0  0  0  0  0  0  0  0
  -28.8330  -19.6020   19.3520 C   0  0  0  0  0  0  0  0  0  0  0  0
  -28.3960  -18.8350   18.2230 C   0  0  0  0  0  0  0  0  0  0  0  0
  -27.9440  -17.3790   18.2810 C   0  0  0  0  0  1  0  0  0  0  0  0
  -28.2210  -19.3320   16.9880 N   0  0  0  0  0  0  0  0  0  0  0  0
  -28.8340  -22.2940   20.2010 C   0  0  0  0  0  2  0  0  0  0  0  0
  -28.6180  -23.8260   19.6290 C   0  0  0  0  0  3  0  0  0  0  0  0
  -28.2880  -25.1140   20.5490 C   0  0  0  0  0  3  0  0  0  0  0  0
  -28.3650  -26.5260   20.0290 O   0  0  0  0  0  0  0  0  0  0  0  0
  -24.6450  -31.9330   23.1710 C   0  0  0  0  0  0  0  0  0  0  0  0
  -27.2400  -27.3740   20.0640 C   0  0  0  0  0  0  0  0  0  0  0  0
  -23.4250  -30.5310   21.5470 C   0  0  0  0  0  3  0  0  0  0  0  0
  -24.8670  -28.9860   20.0960 C   0  0  0  0  0  0  0  0  0  0  0  0
  -25.9590  -30.8630   21.3200 C   0  0  0  0  0  2  0  0  0  0  0  0
  -26.0410  -29.4820   20.6740 C   0  0  0  0  0  0  0  0  0  0  0  0
  -27.2350  -28.6890   20.6400 C   0  0  0  0  0  3  0  0  0  0  0  0
  -26.0400  -26.9340   19.4700 C   0  0  0  0  0  3  0  0  0  0  0  0
  -24.8680  -27.7160   19.4900 C   0  0  0  0  0  3  0  0  0  0  0  0
  -23.6250  -29.8550   20.1630 C   0  0  0  0  0  2  0  0  0  0  0  0
  -24.6970  -31.1280   22.0690 N   0  0  0  0  0  0  0  0  0  0  0  0
  -23.5690  -32.1980   23.7280 O   0  0  0  0  0  0  0  0  0  0  0  0
  -22.7850  -29.5090   22.5140 C   0  0  0  0  0  0  0  0  0  0  0  0
  -21.4610  -29.3080   22.3980 N   0  0  0  0  0  0  0  0  0  0  0  0
  -23.4790  -28.8970   23.3310 O   0  0  0  0  0  0  0  0  0  0  0  0
  -20.9550  -29.8550   21.7160 H   0  0  0  0  0  0  0  0  0  0  0  0
  -18.1160  -28.0250   22.8980 C   0  0  0  0  0  0  0  0  0  0  0  0
  -20.6650  -28.3570   23.1760 C   0  0  0  0  0  3  0  0  0  0  0  0
  -20.8100  -26.9230   22.6170 C   0  0  0  0  0  2  0  0  0  0  0  0
  -19.7230  -26.5590   21.6020 C   0  0  0  0  0  2  0  0  0  0  0  0
  -18.3350  -26.6730   22.2380 C   0  0  0  0  0  2  0  0  0  0  0  0
  -19.2120  -28.8210   23.3250 C   0  0  0  0  0  0  0  0  0  0  0  0
  -18.9550  -30.0840   23.9010 C   0  0  0  0  0  3  0  0  0  0  0  0
  -17.6370  -30.5510   24.0560 C   0  0  0  0  0  3  0  0  0  0  0  0
  -16.5550  -29.7510   23.6470 C   0  0  0  0  0  3  0  0  0  0  0  0
  -16.7960  -28.4890   23.0720 C   0  0  0  0  0  3  0  0  0  0  0  0
  -25.9310  -32.5760   23.7770 C   0  0  0  0  0  3  0  0  0  0  0  0
  -25.6110  -33.9660   24.1360 N   0  0  0  0  0  0  0  0  0  0  0  0
  -25.9290  -35.0360   23.3950 C   0  0  0  0  0  0  0  0  0  0  0  0
  -26.5890  -34.9570   22.3550 O   0  0  0  0  0  0  0  0  0  0  0  0
  -25.0300  -34.1030   24.9490 H   0  0  0  0  0  0  0  0  0  0  0  0
  -24.1910  -36.8270   23.0830 C   0  0  0  0  0  1  0  0  0  0  0  0
  -25.4350  -36.4120   23.8840 C   0  0  0  0  0  3  0  0  0  0  0  0
  -27.5670  -37.2880   24.7300 C   0  0  0  0  0  1  0  0  0  0  0  0
  -26.4630  -37.4720   23.7930 N   0  0  0  0  0  0  0  0  0  0  0  0
  -26.0530  -38.3860   23.9620 H   0  0  0  0  0  0  0  0  0  0  0  0
  -26.4840  -31.7940   25.0330 C   0  0  1  0  0  0  0  0  0  0  0  0
  -25.4170  -31.5300   26.1210 C   0  0  0  0  0  1  0  0  0  0  0  0
  -27.0690  -30.4280   24.6080 C   0  0  0  0  0  1  0  0  0  0  0  0
  -27.6430  -32.5900   25.6790 C   0  0  0  0  0  1  0  0  0  0  0  0
  -29.1950  -18.7210   20.6280 C   0  0  0  0  0  2  0  0  0  0  0  0
  -30.2500  -17.4780   20.4460 C   0  0  0  0  0  2  0  0  0  0  0  0
  -30.7020  -14.9000   20.6810 C   0  0  0  0  0  0  0  0  0  0  0  0
  -30.5620  -12.6220   19.6830 C   0  0  0  0  0  2  0  0  0  0  0  0
  -29.6790  -12.6850   18.4180 C   0  0  0  0  0  2  0  0  0  0  0  0
  -28.1980  -12.4910   18.7870 C   0  0  0  0  0  2  0  0  0  0  0  0
  -27.7600  -13.3810   19.9790 C   0  0  0  0  0  3  0  0  0  0  0  0
  -28.7630  -13.3130   21.1530 C   0  0  0  0  0  2  0  0  0  0  0  0
  -30.0870  -13.6690   20.6220 N   0  0  0  0  0  0  0  0  0  0  0  0
  -31.8940  -15.0020   20.3750 O   0  0  0  0  0  0  0  0  0  0  0  0
  -29.9200  -16.0350   20.8510 N   0  0  0  0  0  0  0  0  0  0  0  0
  -28.9820  -15.8670   21.1750 H   0  0  0  0  0  0  0  0  0  0  0  0
  -25.3260  -13.9480   20.5510 C   0  0  0  0  0  0  0  0  0  0  0  0
  -24.2550  -13.1670   20.8830 C   0  0  0  0  0  0  0  0  0  0  0  0
  -24.7380  -11.8210   20.9060 C   0  0  0  0  0  0  0  0  0  0  0  0
  -26.3950  -13.0810   20.4010 N   0  0  0  0  0  0  0  0  0  0  0  0
  -26.0430  -11.7970   20.6690 N   0  0  0  0  0  0  0  0  0  0  0  0
  -24.0210  -10.5530   21.0810 C   0  0  0  0  0  0  0  0  0  0  0  0
  -24.4240   -9.6010   22.0450 C   0  0  0  0  0  3  0  0  0  0  0  0
  -23.7020   -8.3990   22.2080 C   0  0  0  0  0  3  0  0  0  0  0  0
  -22.5640   -8.1380   21.4070 C   0  0  0  0  0  0  0  0  0  0  0  0
  -22.1850   -9.0780   20.4330 C   0  0  0  0  0  3  0  0  0  0  0  0
  -22.9060  -10.2710   20.2680 C   0  0  0  0  0  3  0  0  0  0  0  0
  -21.8200   -6.9850   21.4770 O   0  0  0  0  0  0  0  0  0  0  0  0
  -21.7350   -6.2520   22.6340 C   0  0  0  0  0  0  0  0  0  0  0  0
  -21.2530   -6.8140   23.8370 C   0  0  0  0  0  3  0  0  0  0  0  0
  -21.1160   -6.0070   24.9860 C   0  0  0  0  0  3  0  0  0  0  0  0
  -21.4490   -4.6400   24.9320 C   0  0  0  0  0  0  0  0  0  0  0  0
  -21.9230   -4.0780   23.7320 C   0  0  0  0  0  3  0  0  0  0  0  0
  -22.0630   -4.8830   22.5870 C   0  0  0  0  0  0  0  0  0  0  0  0
  -22.4990   -4.3300   21.4290 F   0  0  0  0  0  0  0  0  0  0  0  0
  -21.3120   -3.8640   26.0320 F   0  0  0  0  0  0  0  0  0  0  0  0
  -22.8390  -13.6260   21.0710 C   0  0  0  0  0  0  0  0  0  0  0  0
  -22.0790  -12.9360   21.9120 N   0  0  0  0  0  0  0  0  0  0  0  0
  -22.4140  -14.6340   20.5070 O   0  0  0  0  0  0  0  0  0  0  0  0
  -22.4390  -12.1230   22.3900 H   0  0  0  0  0  0  0  0  0  0  0  0
  -21.1250  -13.2240   22.0810 H   0  0  0  0  0  0  0  0  0  0  0  0
  -25.4810  -15.3160   20.3370 N   0  0  0  0  0  0  0  0  0  0  0  0
  -24.6910  -15.9540   20.3490 H   0  0  0  0  0  0  0  0  0  0  0  0
  -26.3150  -15.7350   19.9490 H   0  0  0  0  0  0  0  0  0  0  0  0
  1  3  1  0
  2  7  1  0
  2  1  2  0
  3  4  2  0
  3  8  1  0
  4 52  1  0
  5  6  1  0
  5  4  1  0
  7  5  2  0
  9  8  1  0
  9 10  2  0
 11 13  1  0
 11 10  1  0
 12 23  2  0
 13 18  1  0
 14 22  1  0
 14 24  1  0
 15 21  1  0
 15 17  1  0
 16 22  1  0
 17 16  1  0
 18 17  2  0
 19 20  1  0
 19 13  2  0
 20 15  2  0
 21 14  1  0
 22 12  1  0
 24 26  2  0
 25 24  1  0
 27 25  1  0
 28 37  2  0
 28 33  1  0
 29 25  1  0
 29 33  1  0
 30 29  1  0
 31 32  1  0
 31 30  1  0
 32 28  1  0
 33 34  2  0
 34 35  1  0
 36 35  2  0
 37 36  1  0
 38 12  1  0
 38 39  1  0
 38 48  1  0
 39 42  1  0
 40 44  1  0
 40 39  1  0
 41 40  2  0
 44 43  1  0
 46 44  1  0
 46 47  1  0
 46 45  1  0
 48 51  1  1
 48 49  1  0
 50 48  1  0
 53 52  1  0
 53 62  1  0
 54 62  1  0
 55 60  1  0
 56 57  1  0
 56 55  1  0
 58 57  1  0
 58 67  1  0
 58 59  1  0
 60 54  1  0
 60 59  1  0
 61 54  2  0
 62 63  1  0
 64 65  2  0
 65 66  1  0
 65 84  1  0
 66 69  1  0
 67 64  1  0
 67 68  1  0
 68 66  2  0
 69 70  1  0
 70 71  2  0
 72 75  1  0
 72 71  1  0
 73 72  2  0
 74 73  1  0
 74 69  2  0
 75 76  1  0
 76 77  1  0
 77 78  2  0
 79 78  1  0
 79 83  1  0
 80 79  2  0
 81 76  2  0
 81 80  1  0
 82 81  1  0
 84 85  1  0
 85 88  1  0
 85 87  1  0
 86 84  2  0
 89 90  1  0
 89 64  1  0
 91 89  1  0
M  ISO  4  10 101  11 101  54 100  62 100
M  END
>  <TORSDO>  (72) 
F 21

>  <SCORE>  (72) 
-13.304

>  <name>  (72) 
72

>  <ligand_id>  (72) 
72

>  <original_smiles>  (72) 
[H]c1nc(C([H])([H])[H])c(C([H])([H])C([H])([H])N([H])C(=O)N2C([H])([H])C([H])([H])C([H])([H])C([H])(n3nc(-c4c([H])c([H])c(Oc5c([H])c([H])c(F)c([H])c5F)c([H])c4[H])c(C(=O)N([H])[H])c3N([H])[H])C2([H])[H])c(C([H])([H])C([H])([H])C([H])([H])Oc2c([H])c([H])c3c(c2[H])C([H])([H])N(C(=O)C([H])(N([H])C(=O)C([H])(N([H])C([H])([H])[H])C([H])([H])[H])C(C([H])([H])[H])(C([H])([H])[H])C([H])([H])[H])C([H])(C(=O)N([H])C2([H])c4c([H])c([H])c([H])c([H])c4C([H])([H])C([H])([H])C2([H])[H])C3([H])[H])c1[H]

>  <smiles>  (72) 
[H]c1nc(C([H])([H])[H])c(C([H])([H])C([H])([H])N([H])C(=O)N2C([H])([H])C([H])([H])C([H])([H])C([H])(n3nc(-c4c([H])c([H])c(Oc5c([H])c([H])c(F)c([H])c5F)c([H])c4[H])c(C(=O)N([H])[H])c3N([H])[H])C2([H])[H])c(C([H])([H])C([H])([H])C([H])([H])Oc2c([H])c([H])c3c(c2[H])C([H])([H])N(C(=O)C([H])(N([H])C(=O)C([H])(N([H])C([H])([H])[H])C([H])([H])[H])C(C([H])([H])[H])(C([H])([H])[H])C([H])([H])[H])C([H])(C(=O)N([H])C2([H])c4c([H])c([H])c([H])c([H])c4C([H])([H])C([H])([H])C2([H])[H])C3([H])[H])c1[H]

$$$$
73:0:0
     RDKit          3D

 95103  0  0  1  0  0  0  0  0999 V2000
  -28.7620  -20.5290   20.5210 C   0  0  0  0  0  3  0  0  0  0  0  0
  -28.8590  -21.7550   19.8090 C   0  0  0  0  0  0  0  0  0  0  0  0
  -29.5720  -21.7450   18.5800 C   0  0  0  0  0  0  0  0  0  0  0  0
  -29.3700  -19.3580   20.0070 C   0  0  0  0  0  0  0  0  0  0  0  0
  -30.1960  -20.5370   18.1710 C   0  0  0  0  0  0  0  0  0  0  0  0
  -29.6490  -22.9920   17.7020 C   0  0  0  0  0  1  0  0  0  0  0  0
  -30.0840  -19.3880   18.8670 N   0  0  0  0  0  0  0  0  0  0  0  0
  -28.1190  -23.0080   20.3210 C   0  0  0  0  0  2  0  0  0  0  0  0
  -28.9890  -24.2580   20.6540 C   0  0  0  0  0  2  0  0  0  0  0  0
  -28.1780  -25.4740   21.1790 C   0  0  0  0  0  2  0  0  0  0  0  0
  -28.2940  -26.6500   20.3550 O   0  0  0  0  0  0  0  0  0  0  0  0
  -24.5440  -31.9570   23.2860 C   0  0  0  0  0  0  0  0  0  0  0  0
  -27.1570  -27.4270   20.3220 C   0  0  0  0  0  0  0  0  0  0  0  0
  -23.3370  -30.5400   21.6570 C   0  0  0  0  0  3  0  0  0  0  0  0
  -24.7850  -28.9590   20.2760 C   0  0  0  0  0  0  0  0  0  0  0  0
  -25.8680  -30.8680   21.4740 C   0  0  0  0  0  2  0  0  0  0  0  0
  -25.9460  -29.4850   20.8610 C   0  0  0  0  0  0  0  0  0  0  0  0
  -27.1390  -28.7270   20.8770 C   0  0  0  0  0  3  0  0  0  0  0  0
  -25.9840  -26.9140   19.7320 C   0  0  0  0  0  3  0  0  0  0  0  0
  -24.7980  -27.6720   19.7080 C   0  0  0  0  0  3  0  0  0  0  0  0
  -23.5520  -29.8340   20.2930 C   0  0  0  0  0  2  0  0  0  0  0  0
  -24.6010  -31.1380   22.1980 N   0  0  0  0  0  0  0  0  0  0  0  0
  -23.4620  -32.2510   23.8130 O   0  0  0  0  0  0  0  0  0  0  0  0
  -22.6630  -29.5450   22.6310 C   0  0  0  0  0  0  0  0  0  0  0  0
  -21.3380  -29.3790   22.4960 N   0  0  0  0  0  0  0  0  0  0  0  0
  -23.3320  -28.9240   23.4630 O   0  0  0  0  0  0  0  0  0  0  0  0
  -20.8600  -29.9300   21.7970 H   0  0  0  0  0  0  0  0  0  0  0  0
  -17.9430  -28.2440   22.9920 C   0  0  0  0  0  0  0  0  0  0  0  0
  -20.5030  -28.4650   23.2750 C   0  0  0  0  0  3  0  0  0  0  0  0
  -20.5860  -27.0250   22.7190 C   0  0  0  0  0  2  0  0  0  0  0  0
  -19.4850  -26.7060   21.7040 C   0  0  0  0  0  2  0  0  0  0  0  0
  -18.1020  -26.8840   22.3370 C   0  0  0  0  0  2  0  0  0  0  0  0
  -19.0710  -28.9940   23.4190 C   0  0  0  0  0  0  0  0  0  0  0  0
  -18.8690  -30.2700   23.9900 C   0  0  0  0  0  3  0  0  0  0  0  0
  -17.5720  -30.7960   24.1370 C   0  0  0  0  0  3  0  0  0  0  0  0
  -16.4580  -30.0430   23.7280 C   0  0  0  0  0  3  0  0  0  0  0  0
  -16.6450  -28.7690   23.1620 C   0  0  0  0  0  3  0  0  0  0  0  0
  -25.8330  -32.5830   23.9050 C   0  0  0  0  0  3  0  0  0  0  0  0
  -25.5400  -33.9870   24.2190 N   0  0  0  0  0  0  0  0  0  0  0  0
  -25.8870  -35.0270   23.4460 C   0  0  0  0  0  0  0  0  0  0  0  0
  -26.5600  -34.9020   22.4200 O   0  0  0  0  0  0  0  0  0  0  0  0
  -24.9480  -34.1590   25.0180 H   0  0  0  0  0  0  0  0  0  0  0  0
  -24.1780  -36.8300   23.0610 C   0  0  0  0  0  1  0  0  0  0  0  0
  -25.4120  -36.4260   23.8840 C   0  0  0  0  0  3  0  0  0  0  0  0
  -27.5500  -37.3020   24.7140 C   0  0  0  0  0  1  0  0  0  0  0  0
  -26.4550  -37.4670   23.7610 N   0  0  0  0  0  0  0  0  0  0  0  0
  -26.0560  -38.3930   23.8940 H   0  0  0  0  0  0  0  0  0  0  0  0
  -26.3400  -31.8220   25.1920 C   0  0  1  0  0  0  0  0  0  0  0  0
  -25.2400  -31.5920   26.2540 C   0  0  0  0  0  1  0  0  0  0  0  0
  -26.9260  -30.4420   24.8120 C   0  0  0  0  0  1  0  0  0  0  0  0
  -27.4840  -32.6210   25.8600 C   0  0  0  0  0  1  0  0  0  0  0  0
  -29.1180  -17.9490   20.5850 C   0  0  0  0  0  2  0  0  0  0  0  0
  -30.3550  -16.9970   20.6430 C   0  0  0  0  0  2  0  0  0  0  0  0
  -30.7940  -14.5210   20.5620 C   0  0  0  0  0  0  0  0  0  0  0  0
  -30.4960  -12.3840   19.3770 C   0  0  0  0  0  2  0  0  0  0  0  0
  -29.5730  -12.6430   18.1660 C   0  0  0  0  0  2  0  0  0  0  0  0
  -28.0900  -12.5170   18.5720 C   0  0  0  0  0  2  0  0  0  0  0  0
  -27.7530  -13.3230   19.8540 C   0  0  0  0  0  3  0  0  0  0  0  0
  -28.7890  -13.0550   20.9710 C   0  0  0  0  0  2  0  0  0  0  0  0
  -30.1240  -13.3460   20.4270 N   0  0  0  0  0  0  0  0  0  0  0  0
  -31.9500  -14.6810   20.1590 O   0  0  0  0  0  0  0  0  0  0  0  0
  -30.0390  -15.5780   20.9390 N   0  0  0  0  0  0  0  0  0  0  0  0
  -29.1070  -15.3640   21.2610 H   0  0  0  0  0  0  0  0  0  0  0  0
  -25.3520  -13.9600   20.5180 C   0  0  0  0  0  0  0  0  0  0  0  0
  -24.2680  -13.2000   20.8690 C   0  0  0  0  0  0  0  0  0  0  0  0
  -24.7120  -11.8440   20.8440 C   0  0  0  0  0  0  0  0  0  0  0  0
  -26.3900  -13.0640   20.3080 N   0  0  0  0  0  0  0  0  0  0  0  0
  -26.0070  -11.7870   20.5610 N   0  0  0  0  0  0  0  0  0  0  0  0
  -23.9660  -10.5910   21.0170 C   0  0  0  0  0  0  0  0  0  0  0  0
  -24.3710   -9.6140   21.9530 C   0  0  0  0  0  3  0  0  0  0  0  0
  -23.6270   -8.4250   22.1160 C   0  0  0  0  0  3  0  0  0  0  0  0
  -22.4640   -8.2060   21.3400 C   0  0  0  0  0  0  0  0  0  0  0  0
  -22.0770   -9.1700   20.3930 C   0  0  0  0  0  3  0  0  0  0  0  0
  -22.8220  -10.3500   20.2280 C   0  0  0  0  0  3  0  0  0  0  0  0
  -21.6930   -7.0710   21.4110 O   0  0  0  0  0  0  0  0  0  0  0  0
  -21.6140   -6.3250   22.5600 C   0  0  0  0  0  0  0  0  0  0  0  0
  -21.1630   -6.8780   23.7780 C   0  0  0  0  0  3  0  0  0  0  0  0
  -21.0300   -6.0580   24.9170 C   0  0  0  0  0  3  0  0  0  0  0  0
  -21.3410   -4.6880   24.8380 C   0  0  0  0  0  0  0  0  0  0  0  0
  -21.7870   -4.1350   23.6250 C   0  0  0  0  0  3  0  0  0  0  0  0
  -21.9200   -4.9510   22.4880 C   0  0  0  0  0  0  0  0  0  0  0  0
  -22.3300   -4.4100   21.3150 F   0  0  0  0  0  0  0  0  0  0  0  0
  -21.2070   -3.8990   25.9280 F   0  0  0  0  0  0  0  0  0  0  0  0
  -22.8730  -13.6950   21.1140 C   0  0  0  0  0  0  0  0  0  0  0  0
  -22.1230  -13.0140   21.9750 N   0  0  0  0  0  0  0  0  0  0  0  0
  -22.4560  -14.7210   20.5810 O   0  0  0  0  0  0  0  0  0  0  0  0
  -22.4710  -12.1830   22.4300 H   0  0  0  0  0  0  0  0  0  0  0  0
  -21.1860  -13.3300   22.1800 H   0  0  0  0  0  0  0  0  0  0  0  0
  -25.5360  -15.3280   20.3410 N   0  0  0  0  0  0  0  0  0  0  0  0
  -24.7640  -15.9810   20.4080 H   0  0  0  0  0  0  0  0  0  0  0  0
  -26.3830  -15.7510   19.9850 H   0  0  0  0  0  0  0  0  0  0  0  0
  -31.0710  -20.4170   16.9190 C   0  0  0  0  0  2  0  0  0  0  0  0
  -31.2960  -18.0230   16.0120 C   0  0  0  0  0  1  0  0  0  0  0  0
  -29.0760  -19.2190   15.7530 C   0  0  0  0  0  1  0  0  0  0  0  0
  -30.6030  -19.3880   15.8520 C   0  0  0  0  0  3  0  0  0  0  0  0
  2  8  1  0
  2  1  2  0
  3  2  1  0
  4  1  1  0
  4 52  1  0
  5  3  2  0
  5  7  1  0
  6  3  1  0
  7  4  2  0
  8  9  1  0
  9 10  1  0
 11 10  1  0
 12 23  2  0
 13 11  1  0
 13 18  1  0
 14 22  1  0
 14 24  1  0
 15 21  1  0
 15 17  1  0
 16 22  1  0
 17 18  2  0
 17 16  1  0
 19 13  2  0
 20 19  1  0
 20 15  2  0
 21 14  1  0
 22 12  1  0
 24 26  2  0
 25 24  1  0
 27 25  1  0
 28 37  2  0
 28 33  1  0
 29 25  1  0
 29 33  1  0
 30 29  1  0
 31 32  1  0
 31 30  1  0
 32 28  1  0
 33 34  2  0
 34 35  1  0
 36 35  2  0
 37 36  1  0
 38 12  1  0
 38 39  1  0
 38 48  1  0
 39 42  1  0
 40 44  1  0
 40 39  1  0
 41 40  2  0
 44 43  1  0
 46 44  1  0
 46 47  1  0
 46 45  1  0
 48 51  1  1
 48 49  1  0
 50 48  1  0
 52 53  1  0
 53 62  1  0
 54 62  1  0
 55 60  1  0
 56 57  1  0
 56 55  1  0
 58 57  1  0
 58 67  1  0
 58 59  1  0
 60 54  1  0
 60 59  1  0
 61 54  2  0
 62 63  1  0
 64 65  2  0
 65 84  1  0
 66 65  1  0
 66 69  1  0
 67 64  1  0
 67 68  1  0
 68 66  2  0
 69 70  1  0
 70 71  2  0
 72 75  1  0
 72 71  1  0
 73 72  2  0
 74 73  1  0
 74 69  2  0
 75 76  1  0
 76 77  1  0
 77 78  2  0
 79 78  1  0
 79 83  1  0
 80 79  2  0
 81 76  2  0
 81 80  1  0
 82 81  1  0
 84 85  1  0
 85 88  1  0
 85 87  1  0
 86 84  2  0
 89 90  1  0
 89 64  1  0
 91 89  1  0
 92  5  1  0
 94 95  1  0
 95 93  1  0
 95 92  1  0
M  ISO  4  10 101  11 101  54 100  62 100
M  END
>  <TORSDO>  (73) 
F 23

>  <SCORE>  (73) 
-13.056

>  <name>  (73) 
73

>  <ligand_id>  (73) 
73

>  <original_smiles>  (73) 
[H]c1c([H])c([H])c2c(c1[H])C([H])([H])C([H])([H])C([H])([H])C2([H])N([H])C(=O)C1([H])N(C(=O)C([H])(N([H])C(=O)C([H])(N([H])C([H])([H])[H])C([H])([H])[H])C(C([H])([H])[H])(C([H])([H])[H])C([H])([H])[H])C([H])([H])c2c([H])c(OC([H])([H])C([H])([H])C([H])([H])c3c([H])c(C([H])([H])C([H])([H])N([H])C(=O)N4C([H])([H])C([H])([H])C([H])([H])C([H])(n5nc(-c6c([H])c([H])c(Oc7c([H])c([H])c(F)c([H])c7F)c([H])c6[H])c(C(=O)N([H])[H])c5N([H])[H])C4([H])[H])nc(C([H])([H])C([H])(C([H])([H])[H])C([H])([H])[H])c3C([H])([H])[H])c([H])c([H])c2C1([H])[H]

>  <smiles>  (73) 
[H]c1c([H])c([H])c2c(c1[H])C([H])([H])C([H])([H])C([H])([H])C2([H])N([H])C(=O)C1([H])N(C(=O)C([H])(N([H])C(=O)C([H])(N([H])C([H])([H])[H])C([H])([H])[H])C(C([H])([H])[H])(C([H])([H])[H])C([H])([H])[H])C([H])([H])c2c([H])c(OC([H])([H])C([H])([H])C([H])([H])c3c([H])c(C([H])([H])C([H])([H])N([H])C(=O)N4C([H])([H])C([H])([H])C([H])([H])C([H])(n5nc(-c6c([H])c([H])c(Oc7c([H])c([H])c(F)c([H])c7F)c([H])c6[H])c(C(=O)N([H])[H])c5N([H])[H])C4([H])[H])nc(C([H])([H])C([H])(C([H])([H])[H])C([H])([H])[H])c3C([H])([H])[H])c([H])c([H])c2C1([H])[H]

$$$$
74:0:0
     RDKit          3D

 94102  0  0  1  0  0  0  0  0999 V2000
  -29.2780  -21.4760   20.6060 C   0  0  0  0  0  3  0  0  0  0  0  0
  -28.8200  -20.1520   20.3290 C   0  0  0  0  0  0  0  0  0  0  0  0
  -27.9120  -19.9870   19.2360 C   0  0  0  0  0  0  0  0  0  0  0  0
  -28.8720  -22.5750   19.8020 C   0  0  0  0  0  0  0  0  0  0  0  0
  -27.6490  -21.1340   18.4320 C   0  0  0  0  0  0  0  0  0  0  0  0
  -26.7610  -21.0980   17.1990 C   0  0  0  0  0  1  0  0  0  0  0  0
  -28.1290  -22.3650   18.7000 N   0  0  0  0  0  0  0  0  0  0  0  0
  -25.9860  -18.4660   19.9590 C   0  0  0  0  0  1  0  0  0  0  0  0
  -27.9440  -17.4000   18.7170 C   0  0  0  0  0  1  0  0  0  0  0  0
  -27.1250  -18.6800   18.9490 C   0  0  0  0  0  3  0  0  0  0  0  0
  -29.2510  -18.9820   21.2520 C   0  0  0  0  0  3  0  0  0  0  0  0
  -30.5010  -18.1630   20.7960 C   0  0  0  0  0  3  0  0  0  0  0  0
  -30.8220  -16.8580   21.6060 C   0  0  0  0  0  2  0  0  0  0  0  0
  -30.8950  -14.5800   20.4800 C   0  0  0  0  0  0  0  0  0  0  0  0
  -30.5670  -12.4750   19.2150 C   0  0  0  0  0  2  0  0  0  0  0  0
  -29.6090  -12.7240   18.0310 C   0  0  0  0  0  2  0  0  0  0  0  0
  -28.1420  -12.5660   18.4740 C   0  0  0  0  0  2  0  0  0  0  0  0
  -27.8230  -13.3460   19.7770 C   0  0  0  0  0  3  0  0  0  0  0  0
  -28.8920  -13.0830   20.8610 C   0  0  0  0  0  2  0  0  0  0  0  0
  -30.2040  -13.4200   20.2860 N   0  0  0  0  0  0  0  0  0  0  0  0
  -32.0230  -14.7590   20.0140 O   0  0  0  0  0  0  0  0  0  0  0  0
  -30.2420  -15.5770   21.1240 N   0  0  0  0  0  0  0  0  0  0  0  0
  -29.3040  -15.3600   21.4310 H   0  0  0  0  0  0  0  0  0  0  0  0
  -25.4240  -13.9240   20.5010 C   0  0  0  0  0  0  0  0  0  0  0  0
  -24.3640  -13.1410   20.8680 C   0  0  0  0  0  0  0  0  0  0  0  0
  -24.8360  -11.7930   20.8260 C   0  0  0  0  0  0  0  0  0  0  0  0
  -26.4760  -13.0540   20.2600 N   0  0  0  0  0  0  0  0  0  0  0  0
  -26.1260  -11.7660   20.5150 N   0  0  0  0  0  0  0  0  0  0  0  0
  -24.1200  -10.5250   21.0110 C   0  0  0  0  0  0  0  0  0  0  0  0
  -24.5460   -9.5660   21.9580 C   0  0  0  0  0  3  0  0  0  0  0  0
  -23.8290   -8.3620   22.1300 C   0  0  0  0  0  3  0  0  0  0  0  0
  -22.6730   -8.1070   21.3540 C   0  0  0  0  0  0  0  0  0  0  0  0
  -22.2670   -9.0540   20.3970 C   0  0  0  0  0  3  0  0  0  0  0  0
  -22.9840  -10.2500   20.2230 C   0  0  0  0  0  3  0  0  0  0  0  0
  -21.9300   -6.9540   21.4340 O   0  0  0  0  0  0  0  0  0  0  0  0
  -21.8440   -6.2340   22.5980 C   0  0  0  0  0  0  0  0  0  0  0  0
  -21.3330   -6.7970   23.7870 C   0  0  0  0  0  3  0  0  0  0  0  0
  -21.1970   -6.0010   24.9420 C   0  0  0  0  0  3  0  0  0  0  0  0
  -21.5600   -4.6400   24.9070 C   0  0  0  0  0  0  0  0  0  0  0  0
  -22.0620   -4.0760   23.7210 C   0  0  0  0  0  3  0  0  0  0  0  0
  -22.2000   -4.8700   22.5690 C   0  0  0  0  0  0  0  0  0  0  0  0
  -22.6660   -4.3160   21.4240 F   0  0  0  0  0  0  0  0  0  0  0  0
  -21.4210   -3.8730   26.0130 F   0  0  0  0  0  0  0  0  0  0  0  0
  -22.9640  -13.6060   21.1470 C   0  0  0  0  0  0  0  0  0  0  0  0
  -22.2430  -12.8960   22.0090 N   0  0  0  0  0  0  0  0  0  0  0  0
  -22.5170  -14.6320   20.6370 O   0  0  0  0  0  0  0  0  0  0  0  0
  -22.6180  -12.0660   22.4420 H   0  0  0  0  0  0  0  0  0  0  0  0
  -21.3040  -13.1880   22.2380 H   0  0  0  0  0  0  0  0  0  0  0  0
  -25.5770  -15.2960   20.3320 N   0  0  0  0  0  0  0  0  0  0  0  0
  -24.8020  -15.9390   20.4410 H   0  0  0  0  0  0  0  0  0  0  0  0
  -26.4180  -15.7430   19.9910 H   0  0  0  0  0  0  0  0  0  0  0  0
  -29.2740  -24.0560   20.0570 C   0  0  0  0  0  2  0  0  0  0  0  0
  -28.0880  -25.0790   19.9390 C   0  0  0  0  0  2  0  0  0  0  0  0
  -28.3030  -26.5110   20.1710 O   0  0  0  0  0  0  0  0  0  0  0  0
  -24.5490  -31.8370   23.2260 C   0  0  0  0  0  0  0  0  0  0  0  0
  -27.1650  -27.3250   20.1400 C   0  0  0  0  0  0  0  0  0  0  0  0
  -23.3430  -30.4420   21.5860 C   0  0  0  0  0  3  0  0  0  0  0  0
  -24.7890  -28.9040   20.1560 C   0  0  0  0  0  0  0  0  0  0  0  0
  -25.8790  -30.7700   21.3960 C   0  0  0  0  0  2  0  0  0  0  0  0
  -25.9580  -29.3980   20.7480 C   0  0  0  0  0  0  0  0  0  0  0  0
  -27.1490  -28.6190   20.7350 C   0  0  0  0  0  3  0  0  0  0  0  0
  -25.9650  -26.8750   19.5340 C   0  0  0  0  0  3  0  0  0  0  0  0
  -24.7910  -27.6440   19.5460 C   0  0  0  0  0  3  0  0  0  0  0  0
  -23.5520  -29.7720   20.2040 C   0  0  0  0  0  2  0  0  0  0  0  0
  -24.6090  -31.0330   22.1270 N   0  0  0  0  0  0  0  0  0  0  0  0
  -23.4670  -32.1130   23.7630 O   0  0  0  0  0  0  0  0  0  0  0  0
  -22.6850  -29.4190   22.5420 C   0  0  0  0  0  0  0  0  0  0  0  0
  -21.3630  -29.2230   22.3970 N   0  0  0  0  0  0  0  0  0  0  0  0
  -23.3620  -28.8050   23.3710 O   0  0  0  0  0  0  0  0  0  0  0  0
  -20.8780  -29.7740   21.7030 H   0  0  0  0  0  0  0  0  0  0  0  0
  -17.9950  -27.9910   22.8520 C   0  0  0  0  0  0  0  0  0  0  0  0
  -20.5440  -28.2820   23.1630 C   0  0  0  0  0  3  0  0  0  0  0  0
  -20.6720  -26.8470   22.6020 C   0  0  0  0  0  2  0  0  0  0  0  0
  -19.5910  -26.5020   21.5730 C   0  0  0  0  0  2  0  0  0  0  0  0
  -18.1970  -26.6380   22.1930 C   0  0  0  0  0  2  0  0  0  0  0  0
  -19.0970  -28.7710   23.2930 C   0  0  0  0  0  0  0  0  0  0  0  0
  -18.8540  -30.0370   23.8670 C   0  0  0  0  0  3  0  0  0  0  0  0
  -17.5410  -30.5250   24.0070 C   0  0  0  0  0  3  0  0  0  0  0  0
  -16.4530  -29.7420   23.5840 C   0  0  0  0  0  3  0  0  0  0  0  0
  -16.6800  -28.4780   23.0110 C   0  0  0  0  0  3  0  0  0  0  0  0
  -25.8340  -32.4650   23.8480 C   0  0  0  0  0  3  0  0  0  0  0  0
  -25.5280  -33.8640   24.1750 N   0  0  0  0  0  0  0  0  0  0  0  0
  -25.8760  -34.9160   23.4200 C   0  0  0  0  0  0  0  0  0  0  0  0
  -26.5600  -34.8090   22.3980 O   0  0  0  0  0  0  0  0  0  0  0  0
  -24.9250  -34.0220   24.9690 H   0  0  0  0  0  0  0  0  0  0  0  0
  -24.1750  -36.7270   23.0260 C   0  0  0  0  0  1  0  0  0  0  0  0
  -25.3890  -36.3060   23.8700 C   0  0  0  0  0  3  0  0  0  0  0  0
  -27.5050  -37.1690   24.7710 C   0  0  0  0  0  1  0  0  0  0  0  0
  -26.4340  -37.3500   23.7940 N   0  0  0  0  0  0  0  0  0  0  0  0
  -26.0330  -38.2740   23.9310 H   0  0  0  0  0  0  0  0  0  0  0  0
  -26.3460  -31.6940   25.1260 C   0  0  1  0  0  0  0  0  0  0  0  0
  -25.2490  -31.4580   26.1920 C   0  0  0  0  0  1  0  0  0  0  0  0
  -26.9280  -30.3150   24.7360 C   0  0  0  0  0  1  0  0  0  0  0  0
  -27.4960  -32.4870   25.7890 C   0  0  0  0  0  1  0  0  0  0  0  0
  2  1  1  0
  2 11  1  0
  3  2  2  0
  4 52  1  0
  4  1  2  0
  5  7  2  0
  5  3  1  0
  6  5  1  0
  7  4  1  0
  9 10  1  0
 10  3  1  0
 10  8  1  0
 12 11  2  0
 12 13  1  0
 14 22  1  0
 15 20  1  0
 16 17  1  0
 16 15  1  0
 18 17  1  0
 18 27  1  0
 18 19  1  0
 20 14  1  0
 20 19  1  0
 21 14  2  0
 22 23  1  0
 22 13  1  0
 24 25  2  0
 25 44  1  0
 26 25  1  0
 26 29  1  0
 27 24  1  0
 27 28  1  0
 28 26  2  0
 29 30  1  0
 30 31  2  0
 32 35  1  0
 32 31  1  0
 33 32  2  0
 34 33  1  0
 34 29  2  0
 35 36  1  0
 36 37  1  0
 37 38  2  0
 39 38  1  0
 39 43  1  0
 40 39  2  0
 41 36  2  0
 41 40  1  0
 42 41  1  0
 44 45  1  0
 45 48  1  0
 45 47  1  0
 46 44  2  0
 49 50  1  0
 49 24  1  0
 51 49  1  0
 53 52  1  0
 53 54  1  0
 55 66  2  0
 56 54  1  0
 56 61  1  0
 57 65  1  0
 57 67  1  0
 58 64  1  0
 58 60  1  0
 59 65  1  0
 60 59  1  0
 61 60  2  0
 62 63  1  0
 62 56  2  0
 63 58  2  0
 64 57  1  0
 65 55  1  0
 67 69  2  0
 68 67  1  0
 70 68  1  0
 71 80  2  0
 71 76  1  0
 72 68  1  0
 72 76  1  0
 73 72  1  0
 74 75  1  0
 74 73  1  0
 75 71  1  0
 76 77  2  0
 77 78  1  0
 79 78  2  0
 80 79  1  0
 81 55  1  0
 81 82  1  0
 81 91  1  0
 82 85  1  0
 83 87  1  0
 83 82  1  0
 84 83  2  0
 87 86  1  0
 89 87  1  0
 89 90  1  0
 89 88  1  0
 91 94  1  1
 91 92  1  0
 93 91  1  0
M  ISO  4  14 100  22 100  53 101  54 101
M  END
>  <TORSDO>  (74) 
F 22

>  <SCORE>  (74) 
-12.455

>  <name>  (74) 
74

>  <ligand_id>  (74) 
74

>  <original_smiles>  (74) 
[H]c1c([H])c([H])c2c(c1[H])C([H])([H])C([H])([H])C([H])([H])C2([H])N([H])C(=O)C1([H])N(C(=O)C([H])(N([H])C(=O)C([H])(N([H])C([H])([H])[H])C([H])([H])[H])C(C([H])([H])[H])(C([H])([H])[H])C([H])([H])[H])C([H])([H])c2c([H])c(OC([H])([H])C([H])([H])c3nc(C([H])([H])[H])c(C([H])(C([H])([H])[H])C([H])([H])[H])c(C([H])([H])C([H])([H])C([H])([H])N([H])C(=O)N4C([H])([H])C([H])([H])C([H])([H])C([H])(n5nc(-c6c([H])c([H])c(Oc7c([H])c([H])c(F)c([H])c7F)c([H])c6[H])c(C(=O)N([H])[H])c5N([H])[H])C4([H])[H])c3[H])c([H])c([H])c2C1([H])[H]

>  <smiles>  (74) 
[H]c1c([H])c([H])c2c(c1[H])C([H])([H])C([H])([H])C([H])([H])C2([H])N([H])C(=O)C1([H])N(C(=O)C([H])(N([H])C(=O)C([H])(N([H])C([H])([H])[H])C([H])([H])[H])C(C([H])([H])[H])(C([H])([H])[H])C([H])([H])[H])C([H])([H])c2c([H])c(OC([H])([H])C([H])([H])c3nc(C([H])([H])[H])c(C([H])(C([H])([H])[H])C([H])([H])[H])c(C([H])([H])C([H])([H])C([H])([H])N([H])C(=O)N4C([H])([H])C([H])([H])C([H])([H])C([H])(n5nc(-c6c([H])c([H])c(Oc7c([H])c([H])c(F)c([H])c7F)c([H])c6[H])c(C(=O)N([H])[H])c5N([H])[H])C4([H])[H])c3[H])c([H])c([H])c2C1([H])[H]

$$$$
75:0:0
     RDKit          3D

 96104  0  0  1  0  0  0  0  0999 V2000
  -30.6260  -14.7360   20.4300 C   0  0  0  0  0  0  0  0  0  0  0  0
  -30.4110  -12.4310   19.5020 C   0  0  0  0  0  2  0  0  0  0  0  0
  -29.5230  -12.4650   18.2410 C   0  0  0  0  0  2  0  0  0  0  0  0
  -28.0400  -12.3100   18.6270 C   0  0  0  0  0  2  0  0  0  0  0  0
  -27.6270  -13.2450   19.7950 C   0  0  0  0  0  3  0  0  0  0  0  0
  -28.6450  -13.2140   20.9550 C   0  0  0  0  0  2  0  0  0  0  0  0
  -29.9640  -13.5290   20.3920 N   0  0  0  0  0  0  0  0  0  0  0  0
  -31.8260  -14.7440   20.1360 O   0  0  0  0  0  0  0  0  0  0  0  0
  -29.4640  -18.4740   20.7030 C   0  0  0  0  0  3  0  0  0  0  0  0
  -29.9400  -19.8510   20.6770 C   0  0  0  0  0  0  0  0  0  0  0  0
  -31.3500  -19.9850   20.5010 C   0  0  0  0  0  0  0  0  0  0  0  0
  -32.0750  -18.8540   20.0420 C   0  0  0  0  0  0  0  0  0  0  0  0
  -30.3220  -17.3280   20.4590 C   0  0  0  0  0  0  0  0  0  0  0  0
  -31.5690  -17.6050   20.0460 N   0  0  0  0  0  0  0  0  0  0  0  0
  -29.9000  -15.9120   20.6110 N   0  0  0  0  0  0  0  0  0  0  0  0
  -28.9310  -15.7750   20.8530 H   0  0  0  0  0  0  0  0  0  0  0  0
  -25.2270  -13.8610   20.4500 C   0  0  0  0  0  0  0  0  0  0  0  0
  -24.1470  -13.1000   20.8060 C   0  0  0  0  0  0  0  0  0  0  0  0
  -24.6030  -11.7460   20.8140 C   0  0  0  0  0  0  0  0  0  0  0  0
  -26.2700  -12.9710   20.2560 N   0  0  0  0  0  0  0  0  0  0  0  0
  -25.9020  -11.6960   20.5390 N   0  0  0  0  0  0  0  0  0  0  0  0
  -23.8650  -10.4920   21.0080 C   0  0  0  0  0  0  0  0  0  0  0  0
  -24.2800   -9.5310   21.9560 C   0  0  0  0  0  3  0  0  0  0  0  0
  -23.5440   -8.3400   22.1380 C   0  0  0  0  0  3  0  0  0  0  0  0
  -22.3790   -8.1030   21.3710 C   0  0  0  0  0  0  0  0  0  0  0  0
  -21.9840   -9.0490   20.4100 C   0  0  0  0  0  3  0  0  0  0  0  0
  -22.7200  -10.2310   20.2270 C   0  0  0  0  0  3  0  0  0  0  0  0
  -21.6140   -6.9650   21.4620 O   0  0  0  0  0  0  0  0  0  0  0  0
  -21.5510   -6.2300   22.6180 C   0  0  0  0  0  0  0  0  0  0  0  0
  -21.1430   -6.8000   23.8440 C   0  0  0  0  0  3  0  0  0  0  0  0
  -21.0280   -5.9940   24.9920 C   0  0  0  0  0  3  0  0  0  0  0  0
  -21.3070   -4.6160   24.9180 C   0  0  0  0  0  0  0  0  0  0  0  0
  -21.7070   -4.0440   23.6970 C   0  0  0  0  0  3  0  0  0  0  0  0
  -21.8260   -4.8490   22.5500 C   0  0  0  0  0  0  0  0  0  0  0  0
  -22.1920   -4.2900   21.3730 F   0  0  0  0  0  0  0  0  0  0  0  0
  -21.1880   -3.8390   26.0190 F   0  0  0  0  0  0  0  0  0  0  0  0
  -22.7460  -13.5890   21.0290 C   0  0  0  0  0  0  0  0  0  0  0  0
  -21.9930  -12.9190   21.8930 N   0  0  0  0  0  0  0  0  0  0  0  0
  -22.3280  -14.6030   20.4710 O   0  0  0  0  0  0  0  0  0  0  0  0
  -22.3450  -12.1020   22.3680 H   0  0  0  0  0  0  0  0  0  0  0  0
  -21.0490  -13.2250   22.0820 H   0  0  0  0  0  0  0  0  0  0  0  0
  -25.4030  -15.2270   20.2510 N   0  0  0  0  0  0  0  0  0  0  0  0
  -24.6340  -15.8830   20.3230 H   0  0  0  0  0  0  0  0  0  0  0  0
  -26.2490  -15.6490   19.8910 H   0  0  0  0  0  0  0  0  0  0  0  0
  -33.5020  -18.5320   17.9700 C   0  0  0  0  0  1  0  0  0  0  0  0
  -34.4990  -18.1050   20.2710 C   0  0  0  0  0  1  0  0  0  0  0  0
  -33.4880  -18.9300   19.4550 C   0  0  0  0  0  3  0  0  0  0  0  0
  -33.2370  -21.1270   21.8790 C   0  0  0  0  0  1  0  0  0  0  0  0
  -32.0810  -21.2820   20.8720 C   0  0  0  0  0  2  0  0  0  0  0  0
  -28.9780  -21.1040   20.9560 C   0  0  0  0  0  3  0  0  0  0  0  0
  -29.1160  -22.6000   20.2910 C   0  0  0  0  0  3  0  0  0  0  0  0
  -27.3490  -23.4130   21.9370 C   0  0  0  0  0  1  0  0  0  0  0  0
  -26.8870  -23.5780   19.5130 C   0  0  0  0  0  1  0  0  0  0  0  0
  -27.9930  -23.7480   20.5670 C   0  0  2  0  0  0  0  0  0  0  0  0
  -28.4440  -25.3220   20.6890 C   0  0  0  0  0  2  0  0  0  0  0  0
  -28.2560  -26.4360   19.7190 O   0  0  0  0  0  0  0  0  0  0  0  0
  -24.6140  -31.7920   23.0450 C   0  0  0  0  0  0  0  0  0  0  0  0
  -27.1510  -27.2990   19.8220 C   0  0  0  0  0  0  0  0  0  0  0  0
  -23.3740  -30.4310   21.4020 C   0  0  0  0  0  3  0  0  0  0  0  0
  -24.7890  -28.9180   19.9030 C   0  0  0  0  0  0  0  0  0  0  0  0
  -25.9090  -30.7550   21.1640 C   0  0  0  0  0  2  0  0  0  0  0  0
  -25.9740  -29.3890   20.4870 C   0  0  0  0  0  0  0  0  0  0  0  0
  -27.1590  -28.5920   20.4420 C   0  0  0  0  0  3  0  0  0  0  0  0
  -25.9560  -26.8990   19.1960 C   0  0  0  0  0  3  0  0  0  0  0  0
  -24.7840  -27.6760   19.2490 C   0  0  0  0  0  3  0  0  0  0  0  0
  -23.5540  -29.7900   20.0000 C   0  0  0  0  0  2  0  0  0  0  0  0
  -24.6530  -31.0110   21.9250 N   0  0  0  0  0  0  0  0  0  0  0  0
  -23.5430  -32.0490   23.6150 O   0  0  0  0  0  0  0  0  0  0  0  0
  -22.7400  -29.3860   22.3530 C   0  0  0  0  0  0  0  0  0  0  0  0
  -21.4090  -29.2160   22.2670 N   0  0  0  0  0  0  0  0  0  0  0  0
  -23.4430  -28.7310   23.1260 O   0  0  0  0  0  0  0  0  0  0  0  0
  -20.8970  -29.7920   21.6130 H   0  0  0  0  0  0  0  0  0  0  0  0
  -18.0450  -28.0170   22.8590 C   0  0  0  0  0  0  0  0  0  0  0  0
  -20.6140  -28.2570   23.0370 C   0  0  0  0  0  3  0  0  0  0  0  0
  -20.6870  -26.8430   22.4130 C   0  0  0  0  0  2  0  0  0  0  0  0
  -19.5460  -26.5590   21.4320 C   0  0  0  0  0  2  0  0  0  0  0  0
  -18.1880  -26.6900   22.1310 C   0  0  0  0  0  2  0  0  0  0  0  0
  -19.1840  -28.7600   23.2690 C   0  0  0  0  0  0  0  0  0  0  0  0
  -18.9940  -30.0040   23.9080 C   0  0  0  0  0  3  0  0  0  0  0  0
  -17.6990  -30.5040   24.1450 C   0  0  0  0  0  3  0  0  0  0  0  0
  -16.5760  -29.7560   23.7510 C   0  0  0  0  0  3  0  0  0  0  0  0
  -16.7490  -28.5150   23.1120 C   0  0  0  0  0  3  0  0  0  0  0  0
  -25.9080  -32.4180   23.6480 C   0  0  0  0  0  3  0  0  0  0  0  0
  -25.5890  -33.7940   24.0560 N   0  0  0  0  0  0  0  0  0  0  0  0
  -25.8730  -34.8900   23.3370 C   0  0  0  0  0  0  0  0  0  0  0  0
  -26.5010  -34.8490   22.2760 O   0  0  0  0  0  0  0  0  0  0  0  0
  -25.0380  -33.9000   24.8960 H   0  0  0  0  0  0  0  0  0  0  0  0
  -24.1030  -36.6660   23.1400 C   0  0  0  0  0  1  0  0  0  0  0  0
  -25.3830  -36.2460   23.8820 C   0  0  0  0  0  3  0  0  0  0  0  0
  -27.5380  -37.1250   24.6640 C   0  0  0  0  0  1  0  0  0  0  0  0
  -26.3920  -37.3230   23.7800 N   0  0  0  0  0  0  0  0  0  0  0  0
  -25.9790  -38.2260   23.9970 H   0  0  0  0  0  0  0  0  0  0  0  0
  -26.4850  -31.6010   24.8670 C   0  0  1  0  0  0  0  0  0  0  0  0
  -25.4390  -31.3010   25.9680 C   0  0  0  0  0  1  0  0  0  0  0  0
  -27.0680  -30.2500   24.3930 C   0  0  0  0  0  1  0  0  0  0  0  0
  -27.6510  -32.3820   25.5160 C   0  0  0  0  0  1  0  0  0  0  0  0
  1 15  1  0
  2  7  1  0
  3  4  1  0
  3  2  1  0
  5  4  1  0
  5 20  1  0
  5  6  1  0
  7  1  1  0
  7  6  1  0
  8  1  2  0
 10  9  1  0
 10 50  1  0
 11 10  2  0
 11 49  1  0
 12 14  2  0
 12 11  1  0
 13 15  1  0
 13  9  2  0
 14 13  1  0
 15 16  1  0
 17 18  2  0
 18 19  1  0
 18 37  1  0
 19 22  1  0
 20 17  1  0
 20 21  1  0
 21 19  2  0
 22 23  1  0
 23 24  2  0
 25 28  1  0
 25 24  1  0
 26 25  2  0
 27 26  1  0
 27 22  2  0
 28 29  1  0
 29 30  1  0
 30 31  2  0
 32 31  1  0
 32 36  1  0
 33 32  2  0
 34 29  2  0
 34 33  1  0
 35 34  1  0
 37 38  1  0
 38 41  1  0
 38 40  1  0
 39 37  2  0
 42 43  1  0
 42 17  1  0
 44 42  1  0
 45 47  1  0
 47 12  1  0
 47 46  1  0
 49 48  1  0
 51 54  1  0
 51 50  2  0
 54 53  1  6
 54 55  1  0
 54 52  1  0
 56 58  1  0
 56 55  1  0
 57 68  2  0
 58 63  1  0
 59 67  1  0
 59 69  1  0
 60 66  1  0
 60 62  1  0
 61 67  1  0
 62 61  1  0
 63 62  2  0
 64 65  1  0
 64 58  2  0
 65 60  2  0
 66 59  1  0
 67 57  1  0
 69 71  2  0
 70 69  1  0
 72 70  1  0
 73 82  2  0
 73 78  1  0
 74 70  1  0
 74 78  1  0
 75 74  1  0
 76 77  1  0
 76 75  1  0
 77 73  1  0
 78 79  2  0
 79 80  1  0
 81 80  2  0
 82 81  1  0
 83 57  1  0
 83 84  1  0
 83 93  1  0
 84 87  1  0
 85 89  1  0
 85 84  1  0
 86 85  2  0
 89 88  1  0
 91 89  1  0
 91 92  1  0
 91 90  1  0
 93 96  1  1
 93 94  1  0
 95 93  1  0
M  ISO  4   1 100  15 100  55 101  56 101
M  END
>  <TORSDO>  (75) 
F 21

>  <SCORE>  (75) 
-13.045

>  <name>  (75) 
75

>  <ligand_id>  (75) 
75

>  <original_smiles>  (75) 
[H]c1c([H])c([H])c2c(c1[H])C([H])([H])C([H])([H])C([H])([H])C2([H])N([H])C(=O)C1([H])N(C(=O)C([H])(N([H])C(=O)C([H])(N([H])C([H])([H])[H])C([H])([H])[H])C(C([H])([H])[H])(C([H])([H])[H])C([H])([H])[H])C([H])([H])c2c([H])c(OC([H])([H])C(C([H])([H])[H])(C([H])([H])[H])C([H])([H])C([H])([H])c3c([H])c(N([H])C(=O)N4C([H])([H])C([H])([H])C([H])([H])C([H])(n5nc(-c6c([H])c([H])c(Oc7c([H])c([H])c(F)c([H])c7F)c([H])c6[H])c(C(=O)N([H])[H])c5N([H])[H])C4([H])[H])nc(C([H])(C([H])([H])[H])C([H])([H])[H])c3C([H])([H])C([H])([H])[H])c([H])c([H])c2C1([H])[H]

>  <smiles>  (75) 
[H]c1c([H])c([H])c2c(c1[H])C([H])([H])C([H])([H])C([H])([H])C2([H])N([H])C(=O)C1([H])N(C(=O)C([H])(N([H])C(=O)C([H])(N([H])C([H])([H])[H])C([H])([H])[H])C(C([H])([H])[H])(C([H])([H])[H])C([H])([H])[H])C([H])([H])c2c([H])c(OC([H])([H])C(C([H])([H])[H])(C([H])([H])[H])C([H])([H])C([H])([H])c3c([H])c(N([H])C(=O)N4C([H])([H])C([H])([H])C([H])([H])C([H])(n5nc(-c6c([H])c([H])c(Oc7c([H])c([H])c(F)c([H])c7F)c([H])c6[H])c(C(=O)N([H])[H])c5N([H])[H])C4([H])[H])nc(C([H])(C([H])([H])[H])C([H])([H])[H])c3C([H])([H])C([H])([H])[H])c([H])c([H])c2C1([H])[H]

$$$$
76:0:0
     RDKit          3D

101109  0  0  1  0  0  0  0  0999 V2000
  -30.1990  -19.0740   22.6630 C   0  0  0  0  0  3  0  0  0  0  0  0
  -30.8190  -20.3530   20.2720 C   0  0  0  0  0  3  0  0  0  0  0  0
  -29.9580  -18.4060   21.4470 C   0  0  0  0  0  0  0  0  0  0  0  0
  -30.7300  -20.3770   22.7010 C   0  0  0  0  0  0  0  0  0  0  0  0
  -30.1940  -19.0910   20.2240 C   0  0  0  0  0  0  0  0  0  0  0  0
  -31.0920  -21.0160   21.4880 C   0  0  0  0  0  0  0  0  0  0  0  0
  -31.1420  -23.3860   20.5020 C   0  0  0  0  0  1  0  0  0  0  0  0
  -33.2890  -22.1800   21.1320 C   0  0  0  0  0  1  0  0  0  0  0  0
  -31.8020  -22.3720   21.4580 C   0  0  0  0  0  3  0  0  0  0  0  0
  -29.8340  -18.5190   18.8520 C   0  0  0  0  0  2  0  0  0  0  0  0
  -29.1160  -19.5140   17.8970 C   0  0  0  0  0  3  0  0  0  0  0  0
  -29.8420  -20.8730   17.6930 C   0  0  0  0  0  3  0  0  0  0  0  0
  -29.3470  -21.2570   15.2030 C   0  0  0  0  0  1  0  0  0  0  0  0
  -29.2620  -21.8330   16.6270 C   0  0  0  0  0  3  0  0  0  0  0  0
  -27.8380  -22.3350   16.9760 C   0  0  0  0  0  2  0  0  0  0  0  0
  -27.7200  -23.0600   18.3320 C   0  0  0  0  0  2  0  0  0  0  0  0
  -27.9870  -24.4460   18.1280 O   0  0  0  0  0  0  0  0  0  0  0  0
  -25.5180  -28.4350   23.4270 C   0  0  0  0  0  0  0  0  0  0  0  0
  -27.0320  -25.3550   18.5170 C   0  0  0  0  0  0  0  0  0  0  0  0
  -24.1140  -28.4060   21.3850 C   0  0  0  0  0  3  0  0  0  0  0  0
  -25.1750  -27.3190   19.3360 C   0  0  0  0  0  0  0  0  0  0  0  0
  -26.6370  -28.0360   21.2390 C   0  0  0  0  0  2  0  0  0  0  0  0
  -26.3760  -27.1550   20.0350 C   0  0  0  0  0  0  0  0  0  0  0  0
  -27.3120  -26.1860   19.6200 C   0  0  0  0  0  3  0  0  0  0  0  0
  -25.8100  -25.5150   17.8240 C   0  0  0  0  0  3  0  0  0  0  0  0
  -24.8820  -26.4960   18.2310 C   0  0  0  0  0  3  0  0  0  0  0  0
  -24.2410  -28.3980   19.8360 C   0  0  0  0  0  2  0  0  0  0  0  0
  -25.4390  -28.2710   22.0760 N   0  0  0  0  0  0  0  0  0  0  0  0
  -24.5190  -28.7450   24.0910 O   0  0  0  0  0  0  0  0  0  0  0  0
  -23.0960  -27.3190   21.7940 C   0  0  0  0  0  0  0  0  0  0  0  0
  -21.8030  -27.5960   21.5610 N   0  0  0  0  0  0  0  0  0  0  0  0
  -23.4730  -26.2470   22.2750 O   0  0  0  0  0  0  0  0  0  0  0  0
  -21.5760  -28.5000   21.1700 H   0  0  0  0  0  0  0  0  0  0  0  0
  -18.2170  -27.2900   21.2690 C   0  0  0  0  0  0  0  0  0  0  0  0
  -20.6730  -26.7070   21.8220 C   0  0  0  0  0  3  0  0  0  0  0  0
  -20.5550  -25.6190   20.7290 C   0  0  0  0  0  2  0  0  0  0  0  0
  -19.6130  -26.0130   19.5870 C   0  0  0  0  0  2  0  0  0  0  0  0
  -18.2060  -26.2930   20.1230 C   0  0  0  0  0  2  0  0  0  0  0  0
  -19.3810  -27.4960   22.0560 C   0  0  0  0  0  0  0  0  0  0  0  0
  -19.3500  -28.4620   23.0860 C   0  0  0  0  0  3  0  0  0  0  0  0
  -18.1860  -29.2110   23.3360 C   0  0  0  0  0  3  0  0  0  0  0  0
  -17.0310  -28.9910   22.5650 C   0  0  0  0  0  3  0  0  0  0  0  0
  -17.0470  -28.0320   21.5370 C   0  0  0  0  0  3  0  0  0  0  0  0
  -26.8660  -28.2670   24.1960 C   0  0  0  0  0  3  0  0  0  0  0  0
  -26.9130  -29.3020   25.2370 N   0  0  0  0  0  0  0  0  0  0  0  0
  -27.6320  -30.4310   25.1520 C   0  0  0  0  0  0  0  0  0  0  0  0
  -28.3920  -30.6710   24.2090 O   0  0  0  0  0  0  0  0  0  0  0  0
  -26.2820  -29.1930   26.0160 H   0  0  0  0  0  0  0  0  0  0  0  0
  -26.5470  -32.5850   25.8570 C   0  0  0  0  0  1  0  0  0  0  0  0
  -27.4870  -31.4510   26.2950 C   0  0  0  0  0  3  0  0  0  0  0  0
  -29.6280  -31.0460   27.4270 C   0  0  0  0  0  1  0  0  0  0  0  0
  -28.7760  -32.0180   26.7470 N   0  0  0  0  0  0  0  0  0  0  0  0
  -28.6240  -32.8040   27.3750 H   0  0  0  0  0  0  0  0  0  0  0  0
  -27.0470  -26.8310   24.8260 C   0  0  1  0  0  0  0  0  0  0  0  0
  -25.8470  -26.3700   25.6860 C   0  0  0  0  0  1  0  0  0  0  0  0
  -27.2660  -25.7780   23.7150 C   0  0  0  0  0  1  0  0  0  0  0  0
  -28.3080  -26.8020   25.7210 C   0  0  0  0  0  1  0  0  0  0  0  0
  -29.5550  -16.9430   21.5500 C   0  0  0  0  0  2  0  0  0  0  0  0
  -30.7460  -16.0200   21.1960 C   0  0  0  0  0  2  0  0  0  0  0  0
  -30.9900  -13.6110   20.5280 C   0  0  0  0  0  0  0  0  0  0  0  0
  -30.6420  -11.4030   19.4940 C   0  0  0  0  0  2  0  0  0  0  0  0
  -29.7730  -11.5830   18.2320 C   0  0  0  0  0  2  0  0  0  0  0  0
  -28.2690  -11.5700   18.5810 C   0  0  0  0  0  2  0  0  0  0  0  0
  -27.9260  -12.5050   19.7730 C   0  0  0  0  0  3  0  0  0  0  0  0
  -28.9020  -12.2640   20.9470 C   0  0  0  0  0  2  0  0  0  0  0  0
  -30.2740  -12.4610   20.4420 N   0  0  0  0  0  0  0  0  0  0  0  0
  -32.1020  -13.7620   20.0070 O   0  0  0  0  0  0  0  0  0  0  0  0
  -30.3540  -14.6100   21.1480 N   0  0  0  0  0  0  0  0  0  0  0  0
  -29.4850  -14.3660   21.6020 H   0  0  0  0  0  0  0  0  0  0  0  0
  -25.5650  -13.3220   20.3980 C   0  0  0  0  0  0  0  0  0  0  0  0
  -24.4160  -12.6490   20.7130 C   0  0  0  0  0  0  0  0  0  0  0  0
  -24.7490  -11.2600   20.6700 C   0  0  0  0  0  0  0  0  0  0  0  0
  -26.5340  -12.3520   20.1900 N   0  0  0  0  0  0  0  0  0  0  0  0
  -26.0420  -11.1060   20.4060 N   0  0  0  0  0  0  0  0  0  0  0  0
  -23.9010  -10.0700   20.8050 C   0  0  0  0  0  0  0  0  0  0  0  0
  -24.1490   -9.1000   21.8010 C   0  0  0  0  0  3  0  0  0  0  0  0
  -23.3110   -7.9710   21.9240 C   0  0  0  0  0  3  0  0  0  0  0  0
  -22.2080   -7.8070   21.0530 C   0  0  0  0  0  0  0  0  0  0  0  0
  -21.9790   -8.7650   20.0490 C   0  0  0  0  0  3  0  0  0  0  0  0
  -22.8160   -9.8850   19.9240 C   0  0  0  0  0  3  0  0  0  0  0  0
  -21.3550   -6.7320   21.0830 O   0  0  0  0  0  0  0  0  0  0  0  0
  -21.1170   -6.0340   22.2390 C   0  0  0  0  0  0  0  0  0  0  0  0
  -20.5500   -6.6450   23.3780 C   0  0  0  0  0  3  0  0  0  0  0  0
  -20.2600   -5.8730   24.5210 C   0  0  0  0  0  3  0  0  0  0  0  0
  -20.5260   -4.4910   24.5230 C   0  0  0  0  0  0  0  0  0  0  0  0
  -21.0860   -3.8790   23.3870 C   0  0  0  0  0  3  0  0  0  0  0  0
  -21.3780   -4.6480   22.2480 C   0  0  0  0  0  0  0  0  0  0  0  0
  -21.8970   -4.0490   21.1500 F   0  0  0  0  0  0  0  0  0  0  0  0
  -20.2410   -3.7470   25.6180 F   0  0  0  0  0  0  0  0  0  0  0  0
  -23.0600  -13.2540   20.9460 C   0  0  0  0  0  0  0  0  0  0  0  0
  -22.2530  -12.6470   21.8100 N   0  0  0  0  0  0  0  0  0  0  0  0
  -22.7280  -14.3010   20.3940 O   0  0  0  0  0  0  0  0  0  0  0  0
  -22.5290  -11.8000   22.2840 H   0  0  0  0  0  0  0  0  0  0  0  0
  -21.3420  -13.0430   22.0020 H   0  0  0  0  0  0  0  0  0  0  0  0
  -25.8660  -14.6730   20.2510 N   0  0  0  0  0  0  0  0  0  0  0  0
  -25.1570  -15.3950   20.3210 H   0  0  0  0  0  0  0  0  0  0  0  0
  -26.7640  -15.0320   19.9580 H   0  0  0  0  0  0  0  0  0  0  0  0
  -30.8850  -21.0350   24.0650 C   0  0  0  0  0  2  0  0  0  0  0  0
  -29.7930  -23.0580   22.8340 C   0  0  0  0  0  1  0  0  0  0  0  0
  -29.6140  -22.8410   25.3340 C   0  0  0  0  0  1  0  0  0  0  0  0
  -30.4840  -22.5330   24.1100 C   0  0  0  0  0  3  0  0  0  0  0  0
  1  4  1  0
  2  6  1  0
  3 58  1  0
  3  1  2  0
  4 98  1  0
  5  2  2  0
  5  3  1  0
  6  4  2  0
  7  9  1  0
  8  9  1  0
  9  6  1  0
 10  5  1  0
 11 10  1  0
 12 11  2  0
 14 13  1  0
 14 15  1  0
 14 12  1  0
 15 16  1  0
 17 16  1  0
 17 19  1  0
 18 29  2  0
 19 24  1  0
 20 30  1  0
 20 28  1  0
 21 27  1  0
 21 23  1  0
 22 28  1  0
 23 22  1  0
 24 23  2  0
 25 26  1  0
 25 19  2  0
 26 21  2  0
 27 20  1  0
 28 18  1  0
 30 32  2  0
 31 30  1  0
 33 31  1  0
 34 43  2  0
 34 39  1  0
 35 31  1  0
 35 39  1  0
 36 35  1  0
 37 38  1  0
 37 36  1  0
 38 34  1  0
 39 40  2  0
 40 41  1  0
 42 41  2  0
 43 42  1  0
 44 18  1  0
 44 54  1  0
 44 45  1  0
 45 48  1  0
 46 45  1  0
 46 50  1  0
 47 46  2  0
 50 49  1  0
 50 52  1  0
 52 53  1  0
 52 51  1  0
 54 55  1  1
 54 57  1  0
 56 54  1  0
 59 58  1  0
 60 68  1  0
 61 66  1  0
 62 63  1  0
 62 61  1  0
 64 63  1  0
 64 73  1  0
 64 65  1  0
 66 60  1  0
 66 65  1  0
 67 60  2  0
 68 59  1  0
 68 69  1  0
 70 71  2  0
 71 90  1  0
 72 71  1  0
 72 75  1  0
 73 70  1  0
 73 74  1  0
 74 72  2  0
 75 76  1  0
 76 77  2  0
 78 81  1  0
 78 77  1  0
 79 78  2  0
 80 79  1  0
 80 75  2  0
 81 82  1  0
 82 87  2  0
 82 83  1  0
 83 84  2  0
 84 85  1  0
 85 89  1  0
 86 85  2  0
 87 86  1  0
 88 87  1  0
 90 91  1  0
 91 94  1  0
 91 93  1  0
 92 90  2  0
 95 96  1  0
 95 70  1  0
 97 95  1  0
 98101  1  0
 99101  1  0
101100  1  0
M  ISO  4  16 101  17 101  60 100  68 100
M  END
>  <TORSDO>  (76) 
F 27

>  <SCORE>  (76) 
-5.071

>  <name>  (76) 
76

>  <ligand_id>  (76) 
76

>  <original_smiles>  (76) 
[H]c1c([H])c([H])c2c(c1[H])C([H])([H])C([H])([H])C([H])([H])C2([H])N([H])C(=O)C1([H])N(C(=O)C([H])(N([H])C(=O)C([H])(N([H])C([H])([H])[H])C([H])([H])[H])C(C([H])([H])[H])(C([H])([H])[H])C([H])([H])[H])C([H])([H])c2c([H])c(OC([H])([H])C([H])([H])C([H])(C([H])([H])[H])C([H])([H])C([H])([H])C([H])([H])c3c([H])c(C([H])(C([H])([H])[H])C([H])([H])[H])c(C([H])([H])C([H])(C([H])([H])[H])C([H])([H])[H])c([H])c3C([H])([H])C([H])([H])N([H])C(=O)N3C([H])([H])C([H])([H])C([H])([H])C([H])(n4nc(-c5c([H])c([H])c(Oc6c([H])c([H])c(F)c([H])c6F)c([H])c5[H])c(C(=O)N([H])[H])c4N([H])[H])C3([H])[H])c([H])c([H])c2C1([H])[H]

>  <smiles>  (76) 
[H]c1c([H])c([H])c2c(c1[H])C([H])([H])C([H])([H])C([H])([H])C2([H])N([H])C(=O)C1([H])N(C(=O)C([H])(N([H])C(=O)C([H])(N([H])C([H])([H])[H])C([H])([H])[H])C(C([H])([H])[H])(C([H])([H])[H])C([H])([H])[H])C([H])([H])c2c([H])c(OC([H])([H])C([H])([H])C([H])(C([H])([H])[H])C([H])([H])C([H])([H])C([H])([H])c3c([H])c(C([H])(C([H])([H])[H])C([H])([H])[H])c(C([H])([H])C([H])(C([H])([H])[H])C([H])([H])[H])c([H])c3C([H])([H])C([H])([H])N([H])C(=O)N3C([H])([H])C([H])([H])C([H])([H])C([H])(n4nc(-c5c([H])c([H])c(Oc6c([H])c([H])c(F)c([H])c6F)c([H])c5[H])c(C(=O)N([H])[H])c4N([H])[H])C3([H])[H])c([H])c([H])c2C1([H])[H]

$$$$
77:0:0
     RDKit          3D

 95 97  0  0  1  0  0  0  0  0999 V2000
  -26.8630  -12.3340   22.8500 C   0  0  0  0  0  2  0  0  0  0  0  0
  -25.5030  -13.3820   22.3820 C   0  0  0  0  0  2  0  0  0  0  0  0
  -27.3480  -10.7000   22.1770 C   0  0  0  0  0  3  0  0  0  0  0  0
  -24.0800  -12.1500   21.8700 C   0  0  0  0  0  3  0  0  0  0  0  0
  -26.0930   -9.7480   21.1920 N   0  0  0  0  0  2  0  0  0  0  0  0
  -24.3810  -10.5150   20.9940 N   0  0  0  0  0  2  0  0  0  0  0  0
  -26.1750  -15.3230   21.3750 C   0  0  0  0  0 15  0  0  0  0  0  0
  -27.2960  -16.6920   19.7270 C   0  0  0  0  0 15  0  0  0  0  0  0
  -28.3260  -18.5800   18.6920 C   0  0  0  0  0 15  0  0  0  0  0  0
  -29.5040  -19.7990   17.0120 C   0  0  0  0  0 15  0  0  0  0  0  0
  -30.7900  -21.2830   16.1860 O   0  0  0  0  0  1  0  0  0  0  0  0
  -31.0590  -28.2310   12.1120 C   0  0  0  0  0  0  0  0  0  0  0  0
  -31.2410  -22.2190   14.8100 C   0  0  0  0  0  0  0  0  0  0  0  0
  -30.0470  -26.1600   11.2770 C   0  0  0  0  0  3  0  0  0  0  0  0
  -31.0010  -23.8600   12.1210 C   0  0  0  0  0  0  0  0  0  0  0  0
  -32.2080  -25.9380   12.6620 C   0  0  0  0  0  2  0  0  0  0  0  0
  -31.7660  -24.4470   13.1260 C   0  0  0  0  0  0  0  0  0  0  0  0
  -31.9150  -23.6170   14.4180 C   0  0  0  0  0  3  0  0  0  0  0  0
  -30.9110  -21.7450   13.5040 C   0  0  0  0  0  3  0  0  0  0  0  0
  -30.7190  -22.4950   12.2900 C   0  0  0  0  0  3  0  0  0  0  0  0
  -30.4640  -24.6920   10.9340 C   0  0  0  0  0  2  0  0  0  0  0  0
  -31.1460  -26.8490   12.0250 N   0  0  0  0  0  0  0  0  0  0  0  0
  -30.0810  -28.8590   11.6640 O   0  0  0  0  0  0  0  0  0  0  0  0
  -28.7160  -26.1840   12.0780 C   0  0  0  0  0  0  0  0  0  0  0  0
  -27.5570  -26.2780   11.4000 N   0  0  0  0  0  0  0  0  0  0  0  0
  -28.7440  -26.1070   13.3080 O   0  0  0  0  0  0  0  0  0  0  0  0
  -27.5940  -26.3630   10.3930 H   0  0  0  0  0  0  0  0  0  0  0  0
  -23.9980  -26.5840   10.7280 C   0  0  0  0  0  0  0  0  0  0  0  0
  -26.2190  -26.2250   12.0050 C   0  0  0  0  0  3  0  0  0  0  0  0
  -25.7530  -24.7610   12.1860 C   0  0  0  0  0  2  0  0  0  0  0  0
  -24.9250  -24.2440   11.0060 C   0  0  0  0  0  2  0  0  0  0  0  0
  -23.6710  -25.1020   10.8150 C   0  0  0  0  0  2  0  0  0  0  0  0
  -25.2010  -27.1090   11.2730 C   0  0  0  0  0  0  0  0  0  0  0  0
  -25.4650  -28.4890   11.1420 C   0  0  0  0  0  3  0  0  0  0  0  0
  -24.5580  -29.3360   10.4780 C   0  0  0  0  0  3  0  0  0  0  0  0
  -23.3630  -28.8130    9.9500 C   0  0  0  0  0  3  0  0  0  0  0  0
  -23.0840  -27.4410   10.0800 C   0  0  0  0  0  3  0  0  0  0  0  0
  -32.1760  -29.1020   12.7640 C   0  0  0  0  0  3  0  0  0  0  0  0
  -32.4880  -30.2290   11.8540 N   0  0  0  0  0  0  0  0  0  0  0  0
  -33.5180  -30.2880   10.9970 C   0  0  0  0  0  0  0  0  0  0  0  0
  -34.3540  -29.3870   10.9080 O   0  0  0  0  0  0  0  0  0  0  0  0
  -31.8120  -30.9770   11.8280 H   0  0  0  0  0  0  0  0  0  0  0  0
  -33.0670  -31.2490    8.7040 C   0  0  0  0  0  1  0  0  0  0  0  0
  -33.6490  -31.5410   10.0970 C   0  0  0  0  0  3  0  0  0  0  0  0
  -35.6060  -32.5530   11.1880 C   0  0  0  0  0  1  0  0  0  0  0  0
  -35.0400  -32.0250    9.9500 N   0  0  0  0  0  0  0  0  0  0  0  0
  -35.0980  -32.7500    9.2400 H   0  0  0  0  0  0  0  0  0  0  0  0
  -31.7600  -29.6820   14.1750 C   0  0  1  0  0  0  0  0  0  0  0  0
  -30.4170  -30.4500   14.1670 C   0  0  0  0  0  1  0  0  0  0  0  0
  -31.6380  -28.5680   15.2360 C   0  0  0  0  0  1  0  0  0  0  0  0
  -32.8570  -30.6460   14.6880 C   0  0  0  0  0  1  0  0  0  0  0  0
  -29.1140  -10.5840   22.0000 C   0  0  0  0  0  1  0  0  0  0  0  0
  -32.2260  -10.7090   19.2780 C   0  0  0  0  0  1  0  0  0  0  0  0
  -31.0040  -11.4390   20.0480 C   0  0  0  0  0  2  0  0  0  0  0  0
  -31.9310  -12.8900   21.4860 C   0  0  0  0  0  0  0  0  0  0  0  0
  -31.4220  -10.4700   22.1550 C   0  0  0  0  0  3  0  0  0  0  0  0
  -30.6200   -9.2680   20.8370 C   0  0  0  0  0  3  0  0  0  0  0  0
  -29.2130   -9.9890   19.7150 C   0  0  0  0  0  1  0  0  0  0  0  0
  -28.7620  -11.9530   20.0000 C   0  0  0  0  0  2  0  0  0  0  0  0
  -29.5820  -12.8830   21.4400 C   0  0  0  0  0  2  0  0  0  0  0  0
  -30.9870  -12.1850   22.1590 N   0  0  0  0  0  0  0  0  0  0  0  0
  -33.0620  -13.2460   21.7590 O   0  0  0  0  0  0  0  0  0  0  0  0
  -31.7100  -12.6930   20.2300 N   0  0  0  0  0  0  0  0  0  0  0  0
  -32.4160  -12.9820   19.5750 H   0  0  0  0  0  0  0  0  0  0  0  0
  -26.6690  -13.1120   19.2640 C   0  0  0  0  0  3  0  0  0  0  0  0
  -25.4600  -12.5610   19.2580 C   0  0  0  0  0  3  0  0  0  0  0  0
  -25.9910  -11.4380   19.9400 C   0  0  0  0  0  3  0  0  0  0  0  0
  -27.4750  -12.2210   19.8480 N   0  0  2  0  0  4  0  0  0  0  0  0
  -27.0000  -11.3460   19.1650 N   0  0  0  0  0  2  0  0  0  0  0  0
  -24.9540   -9.4660   21.7600 C   0  0  2  0  0  0  0  0  0  0  0  0
  -24.0290   -9.2000   22.8340 C   0  0  0  0  0  2  0  0  0  0  0  0
  -23.2370   -7.9500   23.0200 C   0  0  0  0  0  3  0  0  0  0  0  0
  -23.0450   -7.0200   21.9120 C   0  0  0  0  0  0  0  0  0  0  0  0
  -23.7690   -7.2920   20.7980 C   0  0  0  0  0  2  0  0  0  0  0  0
  -24.8750   -7.9780   21.2980 C   0  0  0  0  0  2  0  0  0  0  0  0
  -22.3310   -5.8500   21.7950 O   0  0  0  0  0  0  0  0  0  0  0  0
  -21.9520   -5.1950   22.9140 C   0  0  0  0  0  0  0  0  0  0  0  0
  -21.2210   -5.9010   23.8840 C   0  0  0  0  0  3  0  0  0  0  0  0
  -20.8740   -5.2740   25.0840 C   0  0  0  0  0  3  0  0  0  0  0  0
  -21.2020   -3.9240   25.2840 C   0  0  0  0  0  0  0  0  0  0  0  0
  -21.8740   -3.1930   24.2840 C   0  0  0  0  0  3  0  0  0  0  0  0
  -22.2530   -3.8270   23.0900 C   0  0  0  0  0  0  0  0  0  0  0  0
  -22.8920   -3.1170   22.1250 F   0  0  0  0  0  0  0  0  0  0  0  0
  -20.8520   -3.3270   26.4440 F   0  0  0  0  0  0  0  0  0  0  0  0
  -24.0640  -13.1380   19.0070 C   0  0  0  0  0  0  0  0  0  0  0  0
  -23.2880  -13.6840   19.9510 N   0  0  0  0  0  0  0  0  0  0  0  0
  -23.5480  -12.9690   17.9500 O   0  0  0  0  0  0  0  0  0  0  0  0
  -23.6550  -13.8340   20.8790 H   0  0  0  0  0  0  0  0  0  0  0  0
  -22.3700  -14.0330   19.7140 H   0  0  0  0  0  0  0  0  0  0  0  0
  -27.1920  -14.1840   18.7000 N   0  0  0  0  0  0  0  0  0  0  0  0
  -26.6590  -14.8500   18.1580 H   0  0  0  0  0  0  0  0  0  0  0  0
  -28.1820  -14.3860   18.6990 H   0  0  0  0  0  0  0  0  0  0  0  0
  -22.5480  -12.4170   22.1150 C   0  0  0  0  0  2  0  0  0  0  0  0
  -20.1690  -11.8010   22.8310 C   0  0  0  0  0  1  0  0  0  0  0  0
  -21.6620  -11.4590   22.9100 C   0  0  0  0  0  2  0  0  0  0  0  0
  2  1  1  0
  3 52  1  0
  3  1  1  0
  4 93  1  0
  4  2  1  0
  5 70  1  0
  5  3  1  0
  6 70  1  0
  6  4  1  0
 13 11  1  0
 14 22  1  0
 14 24  1  0
 15 20  2  0
 15 17  1  0
 16 17  1  0
 17 18  2  0
 18 13  1  0
 19 13  2  0
 20 19  1  0
 21 14  1  0
 21 15  1  0
 22 12  1  0
 22 16  1  0
 23 12  2  0
 24 26  2  0
 25 24  1  0
 27 25  1  0
 28 32  1  0
 28 33  1  0
 29 25  1  0
 29 30  1  0
 31 30  1  0
 32 31  1  0
 33 29  1  0
 34 33  2  0
 35 34  1  0
 36 37  1  0
 36 35  2  0
 37 28  2  0
 38 12  1  0
 38 48  1  0
 39 38  1  0
 40 39  1  0
 41 40  2  0
 42 39  1  0
 44 43  1  0
 44 40  1  0
 46 44  1  0
 46 45  1  0
 47 46  1  0
 48 51  1  1
 48 50  1  0
 49 48  1  0
 53 54  1  0
 54 63  1  0
 55 62  2  0
 55 61  1  0
 56 61  1  0
 57 56  2  0
 58 57  1  0
 59 60  1  0
 60 61  1  0
 63 55  1  0
 64 63  1  0
 65 90  1  0
 65 68  1  0
 66 85  1  0
 66 65  1  0
 66 67  1  0
 67 69  1  0
 68 67  1  0
 68 59  1  6
 69 68  1  0
 70 75  1  6
 70 71  1  0
 71 72  1  0
 73 72  2  0
 74 75  1  0
 74 73  1  0
 76 73  1  0
 76 77  1  0
 77 82  2  0
 77 78  1  0
 78 79  2  0
 79 80  1  0
 80 84  1  0
 81 80  2  0
 82 81  1  0
 83 82  1  0
 85 86  1  0
 86 88  1  0
 87 85  2  0
 89 86  1  0
 91 90  1  0
 92 90  1  0
 93 95  1  0
 94 95  1  0
M  ISO  4  10 101  11 101  55 100  63 100
M  END
>  <TORSDO>  (77) 
F 24

>  <SCORE>  (77) 
6.362

>  <name>  (77) 
77

>  <ligand_id>  (77) 
77

>  <original_smiles>  (77) 
[H]c1c([H])c([H])c2c(c1[H])C([H])([H])C([H])([H])C([H])([H])C2([H])N([H])C(=O)C1([H])N(C(=O)C([H])(N([H])C(=O)C([H])(N([H])C([H])([H])[H])C([H])([H])[H])C(C([H])([H])[H])(C([H])([H])[H])C([H])([H])[H])C([H])([H])c2c([H])c(OC([H])([H])C([H])([H])C([H])([H])C([H])([H])c3c(C([H])([H])C([H])([H])C([H])([H])[H])nnc(C([H])([H])C([H])(N([H])C(=O)N4C([H])([H])C([H])([H])C([H])([H])C([H])(n5nc(-c6c([H])c([H])c(Oc7c([H])c([H])c(F)c([H])c7F)c([H])c6[H])c(C(=O)N([H])[H])c5N([H])[H])C4([H])[H])C([H])([H])[H])c3[H])c([H])c([H])c2C1([H])[H]

>  <smiles>  (77) 
[H]c1c([H])c([H])c2c(c1[H])C([H])([H])C([H])([H])C([H])([H])C2([H])N([H])C(=O)C1([H])N(C(=O)C([H])(N([H])C(=O)C([H])(N([H])C([H])([H])[H])C([H])([H])[H])C(C([H])([H])[H])(C([H])([H])[H])C([H])([H])[H])C([H])([H])c2c([H])c(OC([H])([H])C([H])([H])C([H])([H])C([H])([H])c3c(C([H])([H])C([H])([H])C([H])([H])[H])nnc(C([H])([H])C([H])(N([H])C(=O)N4C([H])([H])C([H])([H])C([H])([H])C([H])(n5nc(-c6c([H])c([H])c(Oc7c([H])c([H])c(F)c([H])c7F)c([H])c6[H])c(C(=O)N([H])[H])c5N([H])[H])C4([H])[H])C([H])([H])[H])c3[H])c([H])c([H])c2C1([H])[H]

$$$$
78:0:0
     RDKit          3D

 94103  0  0  1  0  0  0  0  0999 V2000
  -28.9300  -21.3960   20.3480 C   0  0  0  0  0  3  0  0  0  0  0  0
  -29.5540  -22.7070   22.2740 C   0  0  0  0  0  3  0  0  0  0  0  0
  -28.9710  -22.6770   20.9880 C   0  0  0  0  0  0  0  0  0  0  0  0
  -29.4400  -20.2310   21.0010 C   0  0  0  0  0  0  0  0  0  0  0  0
  -30.0440  -21.5180   22.8470 C   0  0  0  0  0  0  0  0  0  0  0  0
  -29.9800  -20.3140   22.2350 N   0  0  0  0  0  0  0  0  0  0  0  0
  -30.6370  -14.6070   20.0510 C   0  0  0  0  0  0  0  0  0  0  0  0
  -30.2590  -12.4260   18.9280 C   0  0  0  0  0  2  0  0  0  0  0  0
  -29.2540  -12.5940   17.7730 C   0  0  0  0  0  2  0  0  0  0  0  0
  -27.8140  -12.4090   18.2860 C   0  0  0  0  0  2  0  0  0  0  0  0
  -27.5370  -13.2340   19.5730 C   0  0  0  0  0  3  0  0  0  0  0  0
  -28.6650  -13.0580   20.6170 C   0  0  0  0  0  2  0  0  0  0  0  0
  -29.9190  -13.4370   19.9570 N   0  0  0  0  0  0  0  0  0  0  0  0
  -31.7670  -14.6380   19.5520 O   0  0  0  0  0  0  0  0  0  0  0  0
  -30.8250  -18.1670   20.1660 C   0  0  0  0  0  2  0  0  0  0  0  0
  -28.5200  -17.7600   21.0900 C   0  0  0  0  0  2  0  0  0  0  0  0
  -31.0780  -16.8640   20.9910 C   0  0  0  0  0  2  0  0  0  0  0  0
  -28.7360  -16.2770   20.6140 C   0  0  0  0  0  2  0  0  0  0  0  0
  -29.4200  -18.8020   20.3670 C   0  0  0  0  0  3  0  0  0  0  0  0
  -30.1380  -15.7600   20.6470 N   0  0  0  0  0  0  0  0  0  0  0  0
  -25.1980  -13.8260   20.4520 C   0  0  0  0  0  0  0  0  0  0  0  0
  -24.1550  -13.0450   20.8690 C   0  0  0  0  0  0  0  0  0  0  0  0
  -24.6120  -11.6950   20.7740 C   0  0  0  0  0  0  0  0  0  0  0  0
  -26.2230  -12.9490   20.1340 N   0  0  0  0  0  0  0  0  0  0  0  0
  -25.8800  -11.6610   20.3860 N   0  0  0  0  0  0  0  0  0  0  0  0
  -23.8980  -10.4310   20.9760 C   0  0  0  0  0  0  0  0  0  0  0  0
  -24.3740   -9.4520   21.8740 C   0  0  0  0  0  3  0  0  0  0  0  0
  -23.6600   -8.2490   22.0610 C   0  0  0  0  0  3  0  0  0  0  0  0
  -22.4560   -8.0210   21.3550 C   0  0  0  0  0  0  0  0  0  0  0  0
  -22.0050   -8.9870   20.4390 C   0  0  0  0  0  3  0  0  0  0  0  0
  -22.7200  -10.1810   20.2490 C   0  0  0  0  0  3  0  0  0  0  0  0
  -21.7060   -6.8750   21.4560 O   0  0  0  0  0  0  0  0  0  0  0  0
  -21.6810   -6.1310   22.6080 C   0  0  0  0  0  0  0  0  0  0  0  0
  -21.2610   -6.6760   23.8410 C   0  0  0  0  0  3  0  0  0  0  0  0
  -21.1840   -5.8540   24.9840 C   0  0  0  0  0  3  0  0  0  0  0  0
  -21.5180   -4.4900   24.8950 C   0  0  0  0  0  0  0  0  0  0  0  0
  -21.9330   -3.9440   23.6660 C   0  0  0  0  0  3  0  0  0  0  0  0
  -22.0120   -4.7630   22.5260 C   0  0  0  0  0  0  0  0  0  0  0  0
  -22.3900   -4.2270   21.3410 F   0  0  0  0  0  0  0  0  0  0  0  0
  -21.4390   -3.6980   25.9900 F   0  0  0  0  0  0  0  0  0  0  0  0
  -22.7790  -13.5160   21.2380 C   0  0  0  0  0  0  0  0  0  0  0  0
  -22.1080  -12.8010   22.1370 N   0  0  0  0  0  0  0  0  0  0  0  0
  -22.3110  -14.5530   20.7700 O   0  0  0  0  0  0  0  0  0  0  0  0
  -22.5080  -11.9700   22.5430 H   0  0  0  0  0  0  0  0  0  0  0  0
  -21.1850  -13.0930   22.4250 H   0  0  0  0  0  0  0  0  0  0  0  0
  -25.3460  -15.2010   20.2950 N   0  0  0  0  0  0  0  0  0  0  0  0
  -24.5730  -15.8370   20.4610 H   0  0  0  0  0  0  0  0  0  0  0  0
  -26.1570  -15.6610   19.9050 H   0  0  0  0  0  0  0  0  0  0  0  0
  -32.2730  -21.4250   24.0150 C   0  0  0  0  0  1  0  0  0  0  0  0
  -30.7550  -21.5440   24.1900 C   0  0  0  0  0  2  0  0  0  0  0  0
  -26.7820  -23.6380   20.3980 C   0  0  0  0  0  1  0  0  0  0  0  0
  -28.2890  -23.9430   20.3570 C   0  0  0  0  0  3  0  0  0  0  0  0
  -28.6130  -25.3720   20.9950 C   0  0  0  0  0  2  0  0  0  0  0  0
  -28.5430  -26.5960   20.1860 O   0  0  0  0  0  0  0  0  0  0  0  0
  -24.6560  -31.8650   23.1950 C   0  0  0  0  0  0  0  0  0  0  0  0
  -27.3910  -27.3730   20.2060 C   0  0  0  0  0  0  0  0  0  0  0  0
  -23.5040  -30.4470   21.5310 C   0  0  0  0  0  3  0  0  0  0  0  0
  -24.9980  -28.9090   20.1470 C   0  0  0  0  0  0  0  0  0  0  0  0
  -26.0370  -30.8040   21.3990 C   0  0  0  0  0  2  0  0  0  0  0  0
  -26.1410  -29.4260   20.7710 C   0  0  0  0  0  0  0  0  0  0  0  0
  -27.3410  -28.6640   20.7990 C   0  0  0  0  0  3  0  0  0  0  0  0
  -26.2460  -26.9150   19.5240 C   0  0  0  0  0  3  0  0  0  0  0  0
  -25.0480  -27.6530   19.5180 C   0  0  0  0  0  3  0  0  0  0  0  0
  -23.7510  -29.7660   20.1590 C   0  0  0  0  0  2  0  0  0  0  0  0
  -24.7490  -31.0610   22.0970 N   0  0  0  0  0  0  0  0  0  0  0  0
  -23.5590  -32.1290   23.7070 O   0  0  0  0  0  0  0  0  0  0  0  0
  -22.8380  -29.4240   22.4820 C   0  0  0  0  0  0  0  0  0  0  0  0
  -21.5120  -29.2550   22.3530 N   0  0  0  0  0  0  0  0  0  0  0  0
  -23.5140  -28.7830   23.2920 O   0  0  0  0  0  0  0  0  0  0  0  0
  -21.0250  -29.8170   21.6690 H   0  0  0  0  0  0  0  0  0  0  0  0
  -18.1200  -28.1210   22.8860 C   0  0  0  0  0  0  0  0  0  0  0  0
  -20.6890  -28.3140   23.1120 C   0  0  0  0  0  3  0  0  0  0  0  0
  -20.7450  -26.8970   22.4960 C   0  0  0  0  0  2  0  0  0  0  0  0
  -19.6150  -26.6270   21.4970 C   0  0  0  0  0  2  0  0  0  0  0  0
  -18.2500  -26.7880   22.1700 C   0  0  0  0  0  2  0  0  0  0  0  0
  -19.2650  -28.8440   23.3140 C   0  0  0  0  0  0  0  0  0  0  0  0
  -19.0880  -30.0970   23.9420 C   0  0  0  0  0  3  0  0  0  0  0  0
  -17.7970  -30.6240   24.1470 C   0  0  0  0  0  3  0  0  0  0  0  0
  -16.6690  -29.8970   23.7330 C   0  0  0  0  0  3  0  0  0  0  0  0
  -16.8280  -28.6470   23.1090 C   0  0  0  0  0  3  0  0  0  0  0  0
  -25.9200  -32.5080   23.8440 C   0  0  0  0  0  3  0  0  0  0  0  0
  -26.4200  -31.7460   25.1320 C   0  0  1  0  0  0  0  0  0  0  0  0
  -25.3070  -31.4990   26.1770 C   0  0  0  0  0  1  0  0  0  0  0  0
  -27.0310  -30.3760   24.7550 C   0  0  0  0  0  1  0  0  0  0  0  0
  -27.5440  -32.5580   25.8160 C   0  0  0  0  0  1  0  0  0  0  0  0
  -25.5920  -33.9020   24.1620 N   0  0  0  0  0  0  0  0  0  0  0  0
  -25.9170  -34.9560   23.3980 C   0  0  0  0  0  0  0  0  0  0  0  0
  -26.5940  -34.8540   22.3710 O   0  0  0  0  0  0  0  0  0  0  0  0
  -24.9910  -34.0560   24.9580 H   0  0  0  0  0  0  0  0  0  0  0  0
  -24.1590  -36.7150   23.0300 C   0  0  0  0  0  1  0  0  0  0  0  0
  -25.4070  -36.3390   23.8460 C   0  0  0  0  0  3  0  0  0  0  0  0
  -27.5240  -37.2660   24.6750 C   0  0  0  0  0  1  0  0  0  0  0  0
  -26.4210  -37.4100   23.7280 N   0  0  0  0  0  0  0  0  0  0  0  0
  -25.9980  -38.3250   23.8620 H   0  0  0  0  0  0  0  0  0  0  0  0
  1  3  2  0
  1  4  1  0
  2  5  2  0
  3  2  1  0
  4  6  2  0
  5 50  1  0
  6  5  1  0
  7 20  1  0
  8 13  1  0
  9 10  1  0
  9  8  1  0
 11 10  1  0
 11 24  1  0
 11 12  1  0
 13  7  1  0
 13 12  1  0
 14  7  2  0
 15 19  1  0
 15 17  1  0
 18 20  1  0
 18 16  1  0
 19  4  1  0
 19 16  1  0
 20 17  1  0
 21 22  2  0
 22 41  1  0
 23 22  1  0
 23 26  1  0
 24 25  1  0
 24 21  1  0
 25 23  2  0
 26 27  1  0
 27 28  2  0
 29 32  1  0
 29 28  1  0
 30 29  2  0
 31 30  1  0
 31 26  2  0
 32 33  1  0
 33 34  1  0
 34 35  2  0
 36 35  1  0
 36 40  1  0
 37 36  2  0
 38 33  2  0
 38 37  1  0
 39 38  1  0
 41 42  1  0
 42 45  1  0
 42 44  1  0
 43 41  2  0
 46 21  1  0
 46 47  1  0
 48 46  1  0
 49 50  1  0
 52 51  1  0
 52  3  1  0
 52 53  1  0
 54 56  1  0
 54 53  1  0
 55 66  2  0
 56 61  1  0
 57 65  1  0
 57 67  1  0
 58 64  1  0
 58 60  1  0
 59 65  1  0
 60 61  2  0
 60 59  1  0
 62 56  2  0
 63 62  1  0
 63 58  2  0
 64 57  1  0
 65 55  1  0
 67 69  2  0
 68 67  1  0
 70 68  1  0
 71 80  2  0
 71 76  1  0
 72 68  1  0
 72 76  1  0
 73 72  1  0
 74 75  1  0
 74 73  1  0
 75 71  1  0
 76 77  2  0
 77 78  1  0
 79 78  2  0
 80 79  1  0
 81 55  1  0
 81 86  1  0
 81 82  1  0
 82 85  1  1
 82 83  1  0
 84 82  1  0
 86 89  1  0
 87 91  1  0
 87 86  1  0
 88 87  2  0
 91 90  1  0
 93 91  1  0
 93 94  1  0
 93 92  1  0
M  ISO  4   7 100  20 100  53 101  54 101
M  END
>  <TORSDO>  (78) 
F 19

>  <SCORE>  (78) 
-14.155

>  <name>  (78) 
78

>  <ligand_id>  (78) 
78

>  <original_smiles>  (78) 
[H]c1c([H])c([H])c2c(c1[H])C([H])([H])C([H])([H])C([H])([H])C2([H])N([H])C(=O)C1([H])N(C(=O)C([H])(N([H])C(=O)C([H])(N([H])C([H])([H])[H])C([H])([H])[H])C(C([H])([H])[H])(C([H])([H])[H])C([H])([H])[H])C([H])([H])c2c([H])c(OC([H])([H])C([H])(c3c([H])c(C([H])([H])C([H])([H])[H])nc(C4([H])C([H])([H])C([H])([H])N(C(=O)N5C([H])([H])C([H])([H])C([H])([H])C([H])(n6nc(-c7c([H])c([H])c(Oc8c([H])c([H])c(F)c([H])c8F)c([H])c7[H])c(C(=O)N([H])[H])c6N([H])[H])C5([H])[H])C([H])([H])C4([H])[H])c3[H])C([H])([H])[H])c([H])c([H])c2C1([H])[H]

>  <smiles>  (78) 
[H]c1c([H])c([H])c2c(c1[H])C([H])([H])C([H])([H])C([H])([H])C2([H])N([H])C(=O)C1([H])N(C(=O)C([H])(N([H])C(=O)C([H])(N([H])C([H])([H])[H])C([H])([H])[H])C(C([H])([H])[H])(C([H])([H])[H])C([H])([H])[H])C([H])([H])c2c([H])c(OC([H])([H])C([H])(c3c([H])c(C([H])([H])C([H])([H])[H])nc(C4([H])C([H])([H])C([H])([H])N(C(=O)N5C([H])([H])C([H])([H])C([H])([H])C([H])(n6nc(-c7c([H])c([H])c(Oc8c([H])c([H])c(F)c([H])c8F)c([H])c7[H])c(C(=O)N([H])[H])c6N([H])[H])C5([H])[H])C([H])([H])C4([H])[H])c3[H])C([H])([H])[H])c([H])c([H])c2C1([H])[H]

$$$$
79:0:0
     RDKit          3D

 99107  0  0  1  0  0  0  0  0999 V2000
  -28.6360  -19.6590   20.3040 C   0  0  0  0  0  3  0  0  0  0  0  0
  -29.0740  -21.0390   20.3620 C   0  0  0  0  0  0  0  0  0  0  0  0
  -30.4780  -21.2110   20.2300 C   0  0  0  0  0  0  0  0  0  0  0  0
  -29.5470  -18.5830   20.0000 C   0  0  0  0  0  0  0  0  0  0  0  0
  -31.2230  -20.1780   19.5760 C   0  0  0  0  0  0  0  0  0  0  0  0
  -30.7610  -18.9030   19.5310 N   0  0  0  0  0  0  0  0  0  0  0  0
  -33.3900  -19.2520   18.5600 C   0  0  0  0  0  1  0  0  0  0  0  0
  -33.1860  -21.6970   18.7290 C   0  0  0  0  0  1  0  0  0  0  0  0
  -31.7280  -20.5010   17.1350 C   0  0  0  0  0  1  0  0  0  0  0  0
  -32.3660  -20.4120   18.5400 C   0  0  2  0  0  0  0  0  0  0  0  0
  -28.1300  -22.2750   20.7160 C   0  0  0  0  0  2  0  0  0  0  0  0
  -28.1220  -23.6640   19.8580 C   0  0  0  0  0  2  0  0  0  0  0  0
  -26.5100  -24.9460   21.4210 C   0  0  0  0  0  1  0  0  0  0  0  0
  -27.8250  -25.0690   20.6180 C   0  0  0  0  0  3  0  0  0  0  0  0
  -27.9800  -26.4070   19.9280 O   0  0  0  0  0  0  0  0  0  0  0  0
  -24.5200  -31.8730   23.1820 C   0  0  0  0  0  0  0  0  0  0  0  0
  -26.9240  -27.3420   19.9110 C   0  0  0  0  0  0  0  0  0  0  0  0
  -23.2400  -30.5420   21.5470 C   0  0  0  0  0  3  0  0  0  0  0  0
  -24.6140  -29.0320   19.9930 C   0  0  0  0  0  0  0  0  0  0  0  0
  -25.7740  -30.8200   21.2810 C   0  0  0  0  0  2  0  0  0  0  0  0
  -25.8050  -29.4620   20.5910 C   0  0  0  0  0  0  0  0  0  0  0  0
  -26.9680  -28.6290   20.5420 C   0  0  0  0  0  3  0  0  0  0  0  0
  -25.7320  -27.0030   19.2390 C   0  0  0  0  0  3  0  0  0  0  0  0
  -24.5830  -27.8180   19.2940 C   0  0  0  0  0  3  0  0  0  0  0  0
  -23.3890  -29.9200   20.1320 C   0  0  0  0  0  2  0  0  0  0  0  0
  -24.5330  -31.0960   22.0610 N   0  0  0  0  0  0  0  0  0  0  0  0
  -23.4610  -32.1470   23.7630 O   0  0  0  0  0  0  0  0  0  0  0  0
  -22.5980  -29.5000   22.4940 C   0  0  0  0  0  0  0  0  0  0  0  0
  -21.2700  -29.3270   22.3930 N   0  0  0  0  0  0  0  0  0  0  0  0
  -23.2950  -28.8570   23.2810 O   0  0  0  0  0  0  0  0  0  0  0  0
  -20.7680  -29.8990   21.7290 H   0  0  0  0  0  0  0  0  0  0  0  0
  -17.9070  -28.1000   22.9080 C   0  0  0  0  0  0  0  0  0  0  0  0
  -20.4650  -28.3740   23.1610 C   0  0  0  0  0  3  0  0  0  0  0  0
  -20.5760  -26.9520   22.5650 C   0  0  0  0  0  2  0  0  0  0  0  0
  -19.4670  -26.6320   21.5590 C   0  0  0  0  0  2  0  0  0  0  0  0
  -18.0890  -26.7610   22.2160 C   0  0  0  0  0  2  0  0  0  0  0  0
  -19.0220  -28.8660   23.3400 C   0  0  0  0  0  0  0  0  0  0  0  0
  -18.7980  -30.1200   23.9450 C   0  0  0  0  0  3  0  0  0  0  0  0
  -17.4900  -30.6060   24.1330 C   0  0  0  0  0  3  0  0  0  0  0  0
  -16.3900  -29.8360   23.7210 C   0  0  0  0  0  3  0  0  0  0  0  0
  -16.5980  -28.5860   23.1130 C   0  0  0  0  0  3  0  0  0  0  0  0
  -25.8330  -32.4710   23.7740 C   0  0  0  0  0  3  0  0  0  0  0  0
  -25.5650  -33.8740   24.1310 N   0  0  0  0  0  0  0  0  0  0  0  0
  -25.9070  -34.9300   23.3840 C   0  0  0  0  0  0  0  0  0  0  0  0
  -26.5560  -34.8270   22.3390 O   0  0  0  0  0  0  0  0  0  0  0  0
  -24.9980  -34.0300   24.9520 H   0  0  0  0  0  0  0  0  0  0  0  0
  -24.2280  -36.7770   23.0740 C   0  0  0  0  0  1  0  0  0  0  0  0
  -25.4630  -36.3230   23.8690 C   0  0  0  0  0  3  0  0  0  0  0  0
  -27.6230  -37.1370   24.7070 C   0  0  0  0  0  1  0  0  0  0  0  0
  -26.5240  -37.3490   23.7680 N   0  0  0  0  0  0  0  0  0  0  0  0
  -26.1450  -38.2780   23.9300 H   0  0  0  0  0  0  0  0  0  0  0  0
  -26.3640  -31.6730   25.0280 C   0  0  1  0  0  0  0  0  0  0  0  0
  -25.2920  -31.4510   26.1190 C   0  0  0  0  0  1  0  0  0  0  0  0
  -26.9020  -30.2870   24.6050 C   0  0  0  0  0  1  0  0  0  0  0  0
  -27.5510  -32.4310   25.6670 C   0  0  0  0  0  1  0  0  0  0  0  0
  -31.1310  -22.3550   21.0310 C   0  0  0  0  0  2  0  0  0  0  0  0
  -30.6430  -22.4020   22.5090 C   0  0  0  0  0  2  0  0  0  0  0  0
  -30.8250  -21.7290   24.9450 C   0  0  0  0  0  1  0  0  0  0  0  0
  -31.4800  -20.0610   23.1800 C   0  0  0  0  0  1  0  0  0  0  0  0
  -31.4300  -21.5500   23.5410 C   0  0  0  0  0  3  0  0  0  0  0  0
  -29.1790  -17.0530   19.8130 C   0  0  0  0  0  2  0  0  0  0  0  0
  -30.4700  -14.8490   20.4340 C   0  0  0  0  0  0  0  0  0  0  0  0
  -30.4060  -12.5120   19.5650 C   0  0  0  0  0  2  0  0  0  0  0  0
  -29.4980  -12.5220   18.3110 C   0  0  0  0  0  2  0  0  0  0  0  0
  -28.0180  -12.3410   18.7070 C   0  0  0  0  0  2  0  0  0  0  0  0
  -27.5960  -13.2730   19.8750 C   0  0  0  0  0  3  0  0  0  0  0  0
  -28.6200  -13.2180   21.0300 C   0  0  0  0  0  2  0  0  0  0  0  0
  -29.9320  -13.5810   20.4770 N   0  0  0  0  0  0  0  0  0  0  0  0
  -31.6160  -15.0200   20.0050 O   0  0  0  0  0  0  0  0  0  0  0  0
  -29.6180  -15.9010   20.7040 N   0  0  0  0  0  0  0  0  0  0  0  0
  -28.8510  -15.6130   21.2900 H   0  0  0  0  0  0  0  0  0  0  0  0
  -25.2000  -13.8690   20.5790 C   0  0  0  0  0  0  0  0  0  0  0  0
  -24.1240  -13.0930   20.9300 C   0  0  0  0  0  0  0  0  0  0  0  0
  -24.5820  -11.7420   20.8810 C   0  0  0  0  0  0  0  0  0  0  0  0
  -26.2410  -12.9850   20.3380 N   0  0  0  0  0  0  0  0  0  0  0  0
  -25.8750  -11.7010   20.5800 N   0  0  0  0  0  0  0  0  0  0  0  0
  -23.8480  -10.4800   21.0460 C   0  0  0  0  0  0  0  0  0  0  0  0
  -24.2690   -9.4970   21.9670 C   0  0  0  0  0  3  0  0  0  0  0  0
  -23.5360   -8.2990   22.1170 C   0  0  0  0  0  3  0  0  0  0  0  0
  -22.3710   -8.0800   21.3460 C   0  0  0  0  0  0  0  0  0  0  0  0
  -21.9700   -9.0520   20.4130 C   0  0  0  0  0  3  0  0  0  0  0  0
  -22.7020  -10.2410   20.2610 C   0  0  0  0  0  3  0  0  0  0  0  0
  -21.6100   -6.9380   21.4090 O   0  0  0  0  0  0  0  0  0  0  0  0
  -21.5380   -6.1820   22.5530 C   0  0  0  0  0  0  0  0  0  0  0  0
  -21.0570   -6.7130   23.7700 C   0  0  0  0  0  3  0  0  0  0  0  0
  -20.9350   -5.8820   24.9000 C   0  0  0  0  0  3  0  0  0  0  0  0
  -21.2870   -4.5200   24.8170 C   0  0  0  0  0  0  0  0  0  0  0  0
  -21.7590   -3.9890   23.6040 C   0  0  0  0  0  3  0  0  0  0  0  0
  -21.8830   -4.8180   22.4760 C   0  0  0  0  0  0  0  0  0  0  0  0
  -22.3200   -4.2960   21.3050 F   0  0  0  0  0  0  0  0  0  0  0  0
  -21.1620   -3.7190   25.9000 F   0  0  0  0  0  0  0  0  0  0  0  0
  -22.7280  -13.5760   21.1990 C   0  0  0  0  0  0  0  0  0  0  0  0
  -21.9860  -12.8680   22.0470 N   0  0  0  0  0  0  0  0  0  0  0  0
  -22.2990  -14.6090   20.6920 O   0  0  0  0  0  0  0  0  0  0  0  0
  -22.3410  -12.0300   22.4830 H   0  0  0  0  0  0  0  0  0  0  0  0
  -21.0470  -13.1700   22.2670 H   0  0  0  0  0  0  0  0  0  0  0  0
  -25.3710  -15.2390   20.4240 N   0  0  0  0  0  0  0  0  0  0  0  0
  -24.6020  -15.8900   20.5260 H   0  0  0  0  0  0  0  0  0  0  0  0
  -26.2150  -15.6690   20.0670 H   0  0  0  0  0  0  0  0  0  0  0  0
  1  2  1  0
  2 11  1  0
  3  2  2  0
  3 56  1  0
  4  1  2  0
  5  3  1  0
  6  5  2  0
  6  4  1  0
 10  9  1  6
 10  7  1  0
 10  8  1  0
 10  5  1  0
 12 14  1  0
 12 11  1  0
 14 13  1  0
 15 14  1  0
 16 27  2  0
 17 15  1  0
 17 22  1  0
 18 26  1  0
 18 28  1  0
 19 25  1  0
 19 21  1  0
 20 26  1  0
 21 20  1  0
 22 21  2  0
 23 24  1  0
 23 17  2  0
 24 19  2  0
 25 18  1  0
 26 16  1  0
 28 30  2  0
 29 28  1  0
 31 29  1  0
 32 41  2  0
 32 37  1  0
 33 29  1  0
 33 37  1  0
 34 33  1  0
 35 36  1  0
 35 34  1  0
 36 32  1  0
 37 38  2  0
 38 39  1  0
 40 39  2  0
 41 40  1  0
 42 16  1  0
 42 43  1  0
 42 52  1  0
 43 46  1  0
 44 48  1  0
 44 43  1  0
 45 44  2  0
 48 47  1  0
 50 48  1  0
 50 51  1  0
 50 49  1  0
 52 55  1  1
 52 53  1  0
 54 52  1  0
 56 57  1  0
 57 60  1  0
 59 60  1  0
 60 58  1  0
 61  4  1  0
 61 70  1  0
 62 68  1  0
 62 70  1  0
 63 68  1  0
 64 65  1  0
 64 63  1  0
 66 65  1  0
 66 75  1  0
 66 67  1  0
 68 67  1  0
 69 62  2  0
 70 71  1  0
 72 73  2  0
 73 92  1  0
 74 73  1  0
 74 77  1  0
 75 72  1  0
 75 76  1  0
 76 74  2  0
 77 78  1  0
 78 79  2  0
 80 83  1  0
 80 79  1  0
 81 80  2  0
 82 81  1  0
 82 77  2  0
 83 84  1  0
 84 85  1  0
 85 86  2  0
 87 86  1  0
 87 91  1  0
 88 87  2  0
 89 84  2  0
 89 88  1  0
 90 89  1  0
 92 93  1  0
 93 96  1  0
 93 95  1  0
 94 92  2  0
 97 98  1  0
 97 72  1  0
 99 97  1  0
M  ISO  4  14 101  15 101  62 100  70 100
M  END
>  <TORSDO>  (79) 
F 24

>  <SCORE>  (79) 
-13.225

>  <name>  (79) 
79

>  <ligand_id>  (79) 
79

>  <original_smiles>  (79) 
[H]c1c([H])c([H])c2c(c1[H])C([H])([H])C([H])([H])C([H])([H])C2([H])N([H])C(=O)C1([H])N(C(=O)C([H])(N([H])C(=O)C([H])(N([H])C([H])([H])[H])C([H])([H])[H])C(C([H])([H])[H])(C([H])([H])[H])C([H])([H])[H])C([H])([H])c2c([H])c(OC([H])(C([H])([H])[H])C([H])([H])C([H])([H])c3c([H])c(C([H])([H])N([H])C(=O)N4C([H])([H])C([H])([H])C([H])([H])C([H])(n5nc(-c6c([H])c([H])c(Oc7c([H])c([H])c(F)c([H])c7F)c([H])c6[H])c(C(=O)N([H])[H])c5N([H])[H])C4([H])[H])nc(C(C([H])([H])[H])(C([H])([H])[H])C([H])([H])[H])c3C([H])([H])C([H])([H])C([H])(C([H])([H])[H])C([H])([H])[H])c([H])c([H])c2C1([H])[H]

>  <smiles>  (79) 
[H]c1c([H])c([H])c2c(c1[H])C([H])([H])C([H])([H])C([H])([H])C2([H])N([H])C(=O)C1([H])N(C(=O)C([H])(N([H])C(=O)C([H])(N([H])C([H])([H])[H])C([H])([H])[H])C(C([H])([H])[H])(C([H])([H])[H])C([H])([H])[H])C([H])([H])c2c([H])c(OC([H])(C([H])([H])[H])C([H])([H])C([H])([H])c3c([H])c(C([H])([H])N([H])C(=O)N4C([H])([H])C([H])([H])C([H])([H])C([H])(n5nc(-c6c([H])c([H])c(Oc7c([H])c([H])c(F)c([H])c7F)c([H])c6[H])c(C(=O)N([H])[H])c5N([H])[H])C4([H])[H])nc(C(C([H])([H])[H])(C([H])([H])[H])C([H])([H])[H])c3C([H])([H])C([H])([H])C([H])(C([H])([H])[H])C([H])([H])[H])c([H])c([H])c2C1([H])[H]

$$$$
80:0:0
     RDKit          3D

 95103  0  0  1  0  0  0  0  0999 V2000
  -30.2110  -20.0500   22.1670 C   0  0  0  0  0  3  0  0  0  0  0  0
  -30.0970  -21.4540   22.2990 C   0  0  0  0  0  3  0  0  0  0  0  0
  -29.1470  -20.1980   19.9920 C   0  0  0  0  0  3  0  0  0  0  0  0
  -29.6920  -19.4040   21.0260 C   0  0  0  0  0  0  0  0  0  0  0  0
  -29.4820  -22.2470   21.2990 C   0  0  0  0  0  0  0  0  0  0  0  0
  -29.0290  -21.6060   20.1080 C   0  0  0  0  0  0  0  0  0  0  0  0
  -29.5800  -17.8750   20.9340 C   0  0  0  0  0  2  0  0  0  0  0  0
  -30.8610  -17.0800   20.5880 C   0  0  0  0  0  2  0  0  0  0  0  0
  -31.1800  -14.6620   20.0080 C   0  0  0  0  0  0  0  0  0  0  0  0
  -30.8370  -12.4270   19.0110 C   0  0  0  0  0  2  0  0  0  0  0  0
  -29.8630  -12.5290   17.8220 C   0  0  0  0  0  2  0  0  0  0  0  0
  -28.4060  -12.4180   18.3040 C   0  0  0  0  0  2  0  0  0  0  0  0
  -28.0990  -13.3710   19.4890 C   0  0  0  0  0  3  0  0  0  0  0  0
  -29.1770  -13.2350   20.5880 C   0  0  0  0  0  2  0  0  0  0  0  0
  -30.5000  -13.4850   19.9800 N   0  0  0  0  0  0  0  0  0  0  0  0
  -32.2110  -14.8670   19.3620 O   0  0  0  0  0  0  0  0  0  0  0  0
  -30.6040  -15.6400   20.7230 N   0  0  0  0  0  0  0  0  0  0  0  0
  -29.8150  -15.3630   21.2870 H   0  0  0  0  0  0  0  0  0  0  0  0
  -25.7640  -14.0660   20.3310 C   0  0  0  0  0  0  0  0  0  0  0  0
  -24.6830  -13.3320   20.7450 C   0  0  0  0  0  0  0  0  0  0  0  0
  -25.0840  -11.9620   20.6520 C   0  0  0  0  0  0  0  0  0  0  0  0
  -26.7560  -13.1470   20.0230 N   0  0  0  0  0  0  0  0  0  0  0  0
  -26.3520  -11.8750   20.2710 N   0  0  0  0  0  0  0  0  0  0  0  0
  -24.3150  -10.7250   20.8460 C   0  0  0  0  0  0  0  0  0  0  0  0
  -24.7290   -9.7340   21.7660 C   0  0  0  0  0  3  0  0  0  0  0  0
  -23.9640   -8.5630   21.9470 C   0  0  0  0  0  3  0  0  0  0  0  0
  -22.7710   -8.3740   21.2110 C   0  0  0  0  0  0  0  0  0  0  0  0
  -22.3760   -9.3500   20.2780 C   0  0  0  0  0  3  0  0  0  0  0  0
  -23.1420  -10.5140   20.0950 C   0  0  0  0  0  3  0  0  0  0  0  0
  -21.9790   -7.2540   21.3030 O   0  0  0  0  0  0  0  0  0  0  0  0
  -21.8650   -6.5470   22.4730 C   0  0  0  0  0  0  0  0  0  0  0  0
  -21.4200   -7.1510   23.6690 C   0  0  0  0  0  3  0  0  0  0  0  0
  -21.2540   -6.3750   24.8320 C   0  0  0  0  0  3  0  0  0  0  0  0
  -21.5180   -4.9930   24.8010 C   0  0  0  0  0  0  0  0  0  0  0  0
  -21.9550   -4.3870   23.6090 C   0  0  0  0  0  3  0  0  0  0  0  0
  -22.1250   -5.1610   22.4490 C   0  0  0  0  0  0  0  0  0  0  0  0
  -22.5270   -4.5680   21.3000 F   0  0  0  0  0  0  0  0  0  0  0  0
  -21.3500   -4.2450   25.9160 F   0  0  0  0  0  0  0  0  0  0  0  0
  -23.3220  -13.8580   21.1050 C   0  0  0  0  0  0  0  0  0  0  0  0
  -22.6280  -13.1960   22.0220 N   0  0  0  0  0  0  0  0  0  0  0  0
  -22.8890  -14.8960   20.6070 O   0  0  0  0  0  0  0  0  0  0  0  0
  -22.9910  -12.3530   22.4430 H   0  0  0  0  0  0  0  0  0  0  0  0
  -21.7260  -13.5420   22.3180 H   0  0  0  0  0  0  0  0  0  0  0  0
  -25.9860  -15.4320   20.1790 N   0  0  0  0  0  0  0  0  0  0  0  0
  -25.2690  -16.1300   20.3480 H   0  0  0  0  0  0  0  0  0  0  0  0
  -26.8460  -15.8250   19.8170 H   0  0  0  0  0  0  0  0  0  0  0  0
  -29.2370  -23.7410   21.5960 C   0  0  0  0  0  2  0  0  0  0  0  0
  -30.2180  -24.7690   20.9530 C   0  0  0  0  0  2  0  0  0  0  0  0
  -29.5980  -25.7320   19.9050 C   0  0  0  0  0  2  0  0  0  0  0  0
  -29.5410  -27.1220   20.3280 O   0  0  0  0  0  0  0  0  0  0  0  0
  -24.8040  -31.4530   23.4410 C   0  0  0  0  0  0  0  0  0  0  0  0
  -28.3010  -27.7300   20.2350 C   0  0  0  0  0  0  0  0  0  0  0  0
  -23.9390  -30.0000   21.6410 C   0  0  0  0  0  3  0  0  0  0  0  0
  -25.6980  -28.8590   20.1850 C   0  0  0  0  0  0  0  0  0  0  0  0
  -26.3790  -30.7850   21.6200 C   0  0  0  0  0  2  0  0  0  0  0  0
  -26.7280  -29.5000   20.8920 C   0  0  0  0  0  0  0  0  0  0  0  0
  -28.0320  -28.9470   20.9100 C   0  0  0  0  0  3  0  0  0  0  0  0
  -27.2600  -27.1470   19.4710 C   0  0  0  0  0  3  0  0  0  0  0  0
  -25.9690  -27.6910   19.4550 C   0  0  0  0  0  3  0  0  0  0  0  0
  -24.3230  -29.4890   20.2280 C   0  0  0  0  0  2  0  0  0  0  0  0
  -25.0530  -30.7640   22.2910 N   0  0  0  0  0  0  0  0  0  0  0  0
  -23.6670  -31.4930   23.9320 O   0  0  0  0  0  0  0  0  0  0  0  0
  -23.4390  -28.8040   22.4840 C   0  0  0  0  0  0  0  0  0  0  0  0
  -22.2120  -28.3400   22.1950 N   0  0  0  0  0  0  0  0  0  0  0  0
  -24.1530  -28.3000   23.3550 O   0  0  0  0  0  0  0  0  0  0  0  0
  -21.7030  -28.8050   21.4580 H   0  0  0  0  0  0  0  0  0  0  0  0
  -19.2080  -26.3270   22.1560 C   0  0  0  0  0  0  0  0  0  0  0  0
  -21.5390  -27.2110   22.8400 C   0  0  0  0  0  3  0  0  0  0  0  0
  -22.0890  -25.8660   22.3120 C   0  0  0  0  0  2  0  0  0  0  0  0
  -21.2870  -25.2970   21.1400 C   0  0  0  0  0  2  0  0  0  0  0  0
  -19.8260  -25.0810   21.5430 C   0  0  0  0  0  2  0  0  0  0  0  0
  -20.0160  -27.3340   22.7540 C   0  0  0  0  0  0  0  0  0  0  0  0
  -19.3940  -28.4880   23.2810 C   0  0  0  0  0  3  0  0  0  0  0  0
  -17.9970  -28.6430   23.2210 C   0  0  0  0  0  3  0  0  0  0  0  0
  -17.2030  -27.6340   22.6490 C   0  0  0  0  0  3  0  0  0  0  0  0
  -17.8080  -26.4790   22.1230 C   0  0  0  0  0  3  0  0  0  0  0  0
  -25.9260  -32.2420   24.1810 C   0  0  0  0  0  3  0  0  0  0  0  0
  -25.4760  -33.6360   24.3090 N   0  0  0  0  0  0  0  0  0  0  0  0
  -25.8630  -34.6350   23.5050 C   0  0  0  0  0  0  0  0  0  0  0  0
  -26.7100  -34.4880   22.6180 O   0  0  0  0  0  0  0  0  0  0  0  0
  -24.7510  -33.8180   24.9880 H   0  0  0  0  0  0  0  0  0  0  0  0
  -24.1240  -36.2370   22.6590 C   0  0  0  0  0  1  0  0  0  0  0  0
  -25.2160  -36.0150   23.7190 C   0  0  0  0  0  3  0  0  0  0  0  0
  -27.1200  -37.1190   24.8070 C   0  0  0  0  0  1  0  0  0  0  0  0
  -26.1880  -37.1310   23.6810 N   0  0  0  0  0  0  0  0  0  0  0  0
  -25.7100  -38.0280   23.6740 H   0  0  0  0  0  0  0  0  0  0  0  0
  -26.2840  -31.6380   25.5920 C   0  0  1  0  0  0  0  0  0  0  0  0
  -25.0540  -31.4160   26.5040 C   0  0  0  0  0  1  0  0  0  0  0  0
  -27.0040  -30.2790   25.4300 C   0  0  0  0  0  1  0  0  0  0  0  0
  -27.2780  -32.5730   26.3180 C   0  0  0  0  0  1  0  0  0  0  0  0
  -28.4290  -22.3690   18.9210 C   0  0  0  0  0  2  0  0  0  0  0  0
  -26.2050  -21.2710   18.2600 C   0  0  0  0  0  1  0  0  0  0  0  0
  -26.2590  -22.7330   20.2780 C   0  0  0  0  0  1  0  0  0  0  0  0
  -26.5360  -23.7180   17.9810 C   0  0  0  0  0  1  0  0  0  0  0  0
  -26.8750  -22.5150   18.8820 C   0  0  1  0  0  0  0  0  0  0  0  0
  1  2  1  0
  3  6  2  0
  3  4  1  0
  4  1  2  0
  5 47  1  0
  5  2  2  0
  6  5  1  0
  7  4  1  0
  8 17  1  0
  8  7  1  0
  9 17  1  0
 10 15  1  0
 11 12  1  0
 11 10  1  0
 13 12  1  0
 13 22  1  0
 13 14  1  0
 15  9  1  0
 15 14  1  0
 16  9  2  0
 17 18  1  0
 19 20  2  0
 20 39  1  0
 21 20  1  0
 21 24  1  0
 22 23  1  0
 22 19  1  0
 23 21  2  0
 24 25  1  0
 25 26  2  0
 27 30  1  0
 27 26  1  0
 28 27  2  0
 29 28  1  0
 29 24  2  0
 30 31  1  0
 31 32  1  0
 32 33  2  0
 34 33  1  0
 34 38  1  0
 35 34  2  0
 36 31  2  0
 36 35  1  0
 37 36  1  0
 39 40  1  0
 40 43  1  0
 40 42  1  0
 41 39  2  0
 44 19  1  0
 44 45  1  0
 46 44  1  0
 48 47  1  0
 49 50  1  0
 49 48  1  0
 51 62  2  0
 52 50  1  0
 52 57  1  0
 53 61  1  0
 53 63  1  0
 54 60  1  0
 54 56  1  0
 55 61  1  0
 56 57  2  0
 56 55  1  0
 58 52  2  0
 59 58  1  0
 59 54  2  0
 60 53  1  0
 61 51  1  0
 63 65  2  0
 64 63  1  0
 66 64  1  0
 67 72  1  0
 68 64  1  0
 69 68  1  0
 70 71  1  0
 70 69  1  0
 71 67  1  0
 72 68  1  0
 72 73  2  0
 74 73  1  0
 75 74  2  0
 76 67  2  0
 76 75  1  0
 77 51  1  0
 77 78  1  0
 77 87  1  0
 78 81  1  0
 79 83  1  0
 79 78  1  0
 80 79  2  0
 83 82  1  0
 85 83  1  0
 85 84  1  0
 86 85  1  0
 87 90  1  1
 87 88  1  0
 89 87  1  0
 91  6  1  0
 95 92  1  6
 94 95  1  0
 95 91  1  0
 95 93  1  0
M  ISO  4   9 100  17 100  49 101  50 101
M  END
>  <TORSDO>  (80) 
F 23

>  <SCORE>  (80) 
-11.037

>  <name>  (80) 
80

>  <ligand_id>  (80) 
80

>  <original_smiles>  (80) 
[H]c1c([H])c([H])c2c(c1[H])C([H])([H])C([H])([H])C([H])([H])C2([H])N([H])C(=O)C1([H])N(C(=O)C([H])(N([H])C(=O)C([H])(N([H])C([H])([H])[H])C([H])([H])[H])C(C([H])([H])[H])(C([H])([H])[H])C([H])([H])[H])C([H])([H])c2c([H])c(OC([H])([H])C([H])([H])C([H])([H])c3c([H])c([H])c(C([H])([H])C([H])([H])N([H])C(=O)N4C([H])([H])C([H])([H])C([H])([H])C([H])(n5nc(-c6c([H])c([H])c(Oc7c([H])c([H])c(F)c([H])c7F)c([H])c6[H])c(C(=O)N([H])[H])c5N([H])[H])C4([H])[H])c([H])c3C([H])([H])C(C([H])([H])[H])(C([H])([H])[H])C([H])([H])[H])c([H])c([H])c2C1([H])[H]

>  <smiles>  (80) 
[H]c1c([H])c([H])c2c(c1[H])C([H])([H])C([H])([H])C([H])([H])C2([H])N([H])C(=O)C1([H])N(C(=O)C([H])(N([H])C(=O)C([H])(N([H])C([H])([H])[H])C([H])([H])[H])C(C([H])([H])[H])(C([H])([H])[H])C([H])([H])[H])C([H])([H])c2c([H])c(OC([H])([H])C([H])([H])C([H])([H])c3c([H])c([H])c(C([H])([H])C([H])([H])N([H])C(=O)N4C([H])([H])C([H])([H])C([H])([H])C([H])(n5nc(-c6c([H])c([H])c(Oc7c([H])c([H])c(F)c([H])c7F)c([H])c6[H])c(C(=O)N([H])[H])c5N([H])[H])C4([H])[H])c([H])c3C([H])([H])C(C([H])([H])[H])(C([H])([H])[H])C([H])([H])[H])c([H])c([H])c2C1([H])[H]

$$$$
81:0:0
     RDKit          3D

 93101  0  0  1  0  0  0  0  0999 V2000
  -27.9500  -19.4910   19.5360 C   0  0  0  0  0  3  0  0  0  0  0  0
  -29.5670  -21.2390   19.9720 C   0  0  0  0  0  3  0  0  0  0  0  0
  -29.2560  -19.8220   19.9240 C   0  0  0  0  0  0  0  0  0  0  0  0
  -27.0010  -20.4680   19.1760 C   0  0  0  0  0  0  0  0  0  0  0  0
  -28.6240  -22.2890   19.6140 C   0  0  0  0  0  0  0  0  0  0  0  0
  -27.3240  -21.8580   19.1960 C   0  0  0  0  0  0  0  0  0  0  0  0
  -25.6260  -19.9500   18.7710 C   0  0  0  0  0  1  0  0  0  0  0  0
  -25.1810  -23.1640   19.7630 C   0  0  0  0  0  1  0  0  0  0  0  0
  -26.2700  -22.8630   18.7170 C   0  0  0  0  0  2  0  0  0  0  0  0
  -29.9560  -18.3240   21.8660 C   0  0  0  0  0  1  0  0  0  0  0  0
  -30.1970  -18.6240   20.3780 C   0  0  0  0  0  3  0  0  0  0  0  0
  -30.2060  -17.2600   19.5060 C   0  0  0  0  0  2  0  0  0  0  0  0
  -30.9040  -14.7700   19.9320 C   0  0  0  0  0  0  0  0  0  0  0  0
  -30.6820  -12.4450   19.0700 C   0  0  0  0  0  2  0  0  0  0  0  0
  -29.7110  -12.4680   17.8690 C   0  0  0  0  0  2  0  0  0  0  0  0
  -28.2530  -12.3200   18.3450 C   0  0  0  0  0  2  0  0  0  0  0  0
  -27.9150  -13.2710   19.5250 C   0  0  0  0  0  3  0  0  0  0  0  0
  -29.0030  -13.2360   20.6230 C   0  0  0  0  0  2  0  0  0  0  0  0
  -30.2900  -13.5410   19.9840 N   0  0  0  0  0  0  0  0  0  0  0  0
  -32.0480  -14.8800   19.4840 O   0  0  0  0  0  0  0  0  0  0  0  0
  -30.1250  -15.8850   20.1620 N   0  0  0  0  0  0  0  0  0  0  0  0
  -29.2330  -15.6780   20.5840 H   0  0  0  0  0  0  0  0  0  0  0  0
  -25.5780  -13.9160   20.3700 C   0  0  0  0  0  0  0  0  0  0  0  0
  -24.5080  -13.1630   20.7730 C   0  0  0  0  0  0  0  0  0  0  0  0
  -24.9300  -11.8010   20.6940 C   0  0  0  0  0  0  0  0  0  0  0  0
  -26.5840  -13.0130   20.0670 N   0  0  0  0  0  0  0  0  0  0  0  0
  -26.2040  -11.7340   20.3230 N   0  0  0  0  0  0  0  0  0  0  0  0
  -24.1780  -10.5550   20.8920 C   0  0  0  0  0  0  0  0  0  0  0  0
  -24.5700   -9.6030   21.8600 C   0  0  0  0  0  3  0  0  0  0  0  0
  -23.8190   -8.4210   22.0440 C   0  0  0  0  0  3  0  0  0  0  0  0
  -22.6650   -8.1840   21.2610 C   0  0  0  0  0  0  0  0  0  0  0  0
  -22.2930   -9.1240   20.2840 C   0  0  0  0  0  3  0  0  0  0  0  0
  -23.0430  -10.2970   20.0980 C   0  0  0  0  0  3  0  0  0  0  0  0
  -21.8890   -7.0540   21.3530 O   0  0  0  0  0  0  0  0  0  0  0  0
  -21.7230   -6.3900   22.5420 C   0  0  0  0  0  0  0  0  0  0  0  0
  -21.1480   -7.0130   23.6700 C   0  0  0  0  0  3  0  0  0  0  0  0
  -20.9320   -6.2730   24.8500 C   0  0  0  0  0  3  0  0  0  0  0  0
  -21.2820   -4.9100   24.9020 C   0  0  0  0  0  0  0  0  0  0  0  0
  -21.8500   -4.2860   23.7770 C   0  0  0  0  0  3  0  0  0  0  0  0
  -22.0670   -5.0230   22.5990 C   0  0  0  0  0  0  0  0  0  0  0  0
  -22.5950   -4.4120   21.5120 F   0  0  0  0  0  0  0  0  0  0  0  0
  -21.0670   -4.1970   26.0320 F   0  0  0  0  0  0  0  0  0  0  0  0
  -23.1380  -13.6730   21.1200 C   0  0  0  0  0  0  0  0  0  0  0  0
  -22.4360  -12.9850   22.0130 N   0  0  0  0  0  0  0  0  0  0  0  0
  -22.7030  -14.7160   20.6330 O   0  0  0  0  0  0  0  0  0  0  0  0
  -22.8010  -12.1400   22.4260 H   0  0  0  0  0  0  0  0  0  0  0  0
  -21.5200  -13.3100   22.2880 H   0  0  0  0  0  0  0  0  0  0  0  0
  -25.7710  -15.2850   20.2130 N   0  0  0  0  0  0  0  0  0  0  0  0
  -25.0220  -15.9510   20.3670 H   0  0  0  0  0  0  0  0  0  0  0  0
  -26.6080  -15.7110   19.8380 H   0  0  0  0  0  0  0  0  0  0  0  0
  -29.0440  -23.8310   19.5120 C   0  0  0  0  0  3  0  0  0  0  0  0
  -28.2490  -25.0190   20.2640 C   0  0  0  0  0  3  0  0  0  0  0  0
  -28.4590  -26.4590   19.8930 O   0  0  0  0  0  0  0  0  0  0  0  0
  -24.6200  -31.7200   23.0670 C   0  0  0  0  0  0  0  0  0  0  0  0
  -27.3410  -27.3160   19.8770 C   0  0  0  0  0  0  0  0  0  0  0  0
  -23.4580  -30.3640   21.3630 C   0  0  0  0  0  3  0  0  0  0  0  0
  -24.9520  -28.8970   19.8930 C   0  0  0  0  0  0  0  0  0  0  0  0
  -25.9920  -30.7370   21.2130 C   0  0  0  0  0  2  0  0  0  0  0  0
  -26.1060  -29.3830   20.5190 C   0  0  0  0  0  0  0  0  0  0  0  0
  -27.3060  -28.6050   20.4990 C   0  0  0  0  0  3  0  0  0  0  0  0
  -26.1690  -26.9010   19.2090 C   0  0  0  0  0  3  0  0  0  0  0  0
  -24.9860  -27.6640   19.2250 C   0  0  0  0  0  3  0  0  0  0  0  0
  -23.6970  -29.7440   19.9600 C   0  0  0  0  0  2  0  0  0  0  0  0
  -24.7080  -30.9550   21.9390 N   0  0  0  0  0  0  0  0  0  0  0  0
  -23.5280  -31.9550   23.6030 O   0  0  0  0  0  0  0  0  0  0  0  0
  -22.8050  -29.2990   22.2780 C   0  0  0  0  0  0  0  0  0  0  0  0
  -21.4770  -29.1290   22.1600 N   0  0  0  0  0  0  0  0  0  0  0  0
  -23.4940  -28.6320   23.0540 O   0  0  0  0  0  0  0  0  0  0  0  0
  -20.9810  -29.7180   21.5050 H   0  0  0  0  0  0  0  0  0  0  0  0
  -18.1010  -27.9380   22.6680 C   0  0  0  0  0  0  0  0  0  0  0  0
  -20.6680  -28.1530   22.8920 C   0  0  0  0  0  3  0  0  0  0  0  0
  -20.7400  -26.7590   22.2250 C   0  0  0  0  0  2  0  0  0  0  0  0
  -19.6100  -26.5100   21.2220 C   0  0  0  0  0  2  0  0  0  0  0  0
  -18.2440  -26.6350   21.9020 C   0  0  0  0  0  2  0  0  0  0  0  0
  -19.2380  -28.6590   23.1200 C   0  0  0  0  0  0  0  0  0  0  0  0
  -19.0480  -29.8810   23.8010 C   0  0  0  0  0  3  0  0  0  0  0  0
  -17.7530  -30.3830   24.0310 C   0  0  0  0  0  3  0  0  0  0  0  0
  -16.6310  -29.6600   23.5930 C   0  0  0  0  0  3  0  0  0  0  0  0
  -16.8050  -28.4390   22.9170 C   0  0  0  0  0  3  0  0  0  0  0  0
  -25.8860  -32.3540   23.7240 C   0  0  0  0  0  3  0  0  0  0  0  0
  -25.5530  -33.7390   24.0890 N   0  0  0  0  0  0  0  0  0  0  0  0
  -25.8870  -34.8170   23.3690 C   0  0  0  0  0  0  0  0  0  0  0  0
  -26.5790  -34.7520   22.3480 O   0  0  0  0  0  0  0  0  0  0  0  0
  -24.9410  -33.8620   24.8830 H   0  0  0  0  0  0  0  0  0  0  0  0
  -24.1550  -36.6090   23.0220 C   0  0  0  0  0  1  0  0  0  0  0  0
  -25.3760  -36.1870   23.8560 C   0  0  0  0  0  3  0  0  0  0  0  0
  -27.4710  -37.0670   24.7850 C   0  0  0  0  0  1  0  0  0  0  0  0
  -26.4030  -37.2510   23.8060 N   0  0  0  0  0  0  0  0  0  0  0  0
  -25.9840  -38.1640   23.9600 H   0  0  0  0  0  0  0  0  0  0  0  0
  -26.3940  -31.5550   24.9870 C   0  0  1  0  0  0  0  0  0  0  0  0
  -25.2890  -31.2760   26.0330 C   0  0  0  0  0  1  0  0  0  0  0  0
  -26.9970  -30.1950   24.5670 C   0  0  0  0  0  1  0  0  0  0  0  0
  -27.5270  -32.3420   25.6850 C   0  0  0  0  0  1  0  0  0  0  0  0
  1  3  1  0
  3  2  2  0
  3 11  1  0
  4  6  1  0
  4  1  2  0
  5  2  1  0
  6  5  2  0
  7  4  1  0
  9  6  1  0
  9  8  1  0
 11 10  1  0
 12 21  1  0
 12 11  1  0
 13 19  1  0
 13 21  1  0
 14 19  1  0
 15 16  1  0
 15 14  1  0
 17 16  1  0
 17 26  1  0
 17 18  1  0
 19 18  1  0
 20 13  2  0
 21 22  1  0
 23 24  2  0
 24 43  1  0
 25 24  1  0
 25 28  1  0
 26 27  1  0
 26 23  1  0
 27 25  2  0
 28 29  1  0
 29 30  2  0
 31 34  1  0
 31 30  1  0
 32 31  2  0
 33 32  1  0
 33 28  2  0
 34 35  1  0
 35 40  2  0
 35 36  1  0
 36 37  2  0
 37 38  1  0
 38 42  1  0
 39 38  2  0
 40 39  1  0
 41 40  1  0
 43 44  1  0
 44 47  1  0
 44 46  1  0
 45 43  2  0
 48 49  1  0
 48 23  1  0
 50 48  1  0
 51  5  1  0
 51 52  2  0
 53 52  1  0
 54 65  2  0
 55 53  1  0
 55 60  1  0
 56 64  1  0
 56 66  1  0
 57 63  1  0
 57 59  1  0
 58 64  1  0
 59 58  1  0
 60 59  2  0
 61 62  1  0
 61 55  2  0
 62 57  2  0
 63 56  1  0
 64 54  1  0
 66 68  2  0
 67 66  1  0
 69 67  1  0
 70 79  2  0
 70 75  1  0
 71 67  1  0
 71 75  1  0
 72 71  1  0
 73 74  1  0
 73 72  1  0
 74 70  1  0
 75 76  2  0
 76 77  1  0
 78 77  2  0
 79 78  1  0
 80 54  1  0
 80 81  1  0
 80 90  1  0
 81 84  1  0
 82 86  1  0
 82 81  1  0
 83 82  2  0
 86 85  1  0
 88 86  1  0
 88 89  1  0
 88 87  1  0
 90 93  1  1
 90 91  1  0
 92 90  1  0
M  ISO  4  13 100  21 100  52 101  53 101
M  END
>  <TORSDO>  (81) 
F 21

>  <SCORE>  (81) 
-12.436

>  <name>  (81) 
81

>  <ligand_id>  (81) 
81

>  <original_smiles>  (81) 
[H]c1c([H])c([H])c2c(c1[H])C([H])([H])C([H])([H])C([H])([H])C2([H])N([H])C(=O)C1([H])N(C(=O)C([H])(N([H])C(=O)C([H])(N([H])C([H])([H])[H])C([H])([H])[H])C(C([H])([H])[H])(C([H])([H])[H])C([H])([H])[H])C([H])([H])c2c([H])c(OC([H])([H])C([H])([H])c3c([H])c(C([H])(C([H])([H])[H])C([H])([H])N([H])C(=O)N4C([H])([H])C([H])([H])C([H])([H])C([H])(n5nc(-c6c([H])c([H])c(Oc7c([H])c([H])c(F)c([H])c7F)c([H])c6[H])c(C(=O)N([H])[H])c5N([H])[H])C4([H])[H])c([H])c(C([H])([H])[H])c3C([H])([H])C([H])([H])[H])c([H])c([H])c2C1([H])[H]

>  <smiles>  (81) 
[H]c1c([H])c([H])c2c(c1[H])C([H])([H])C([H])([H])C([H])([H])C2([H])N([H])C(=O)C1([H])N(C(=O)C([H])(N([H])C(=O)C([H])(N([H])C([H])([H])[H])C([H])([H])[H])C(C([H])([H])[H])(C([H])([H])[H])C([H])([H])[H])C([H])([H])c2c([H])c(OC([H])([H])C([H])([H])c3c([H])c(C([H])(C([H])([H])[H])C([H])([H])N([H])C(=O)N4C([H])([H])C([H])([H])C([H])([H])C([H])(n5nc(-c6c([H])c([H])c(Oc7c([H])c([H])c(F)c([H])c7F)c([H])c6[H])c(C(=O)N([H])[H])c5N([H])[H])C4([H])[H])c([H])c(C([H])([H])[H])c3C([H])([H])C([H])([H])[H])c([H])c([H])c2C1([H])[H]

$$$$
82:0:0
     RDKit          3D

 90 98  0  0  1  0  0  0  0  0999 V2000
  -29.1590  -21.0060   20.7110 C   0  0  0  0  0  3  0  0  0  0  0  0
  -28.6420  -19.5010   20.4330 C   0  0  0  0  0  2  0  0  0  0  0  0
  -30.9890  -16.3130   18.6390 C   0  0  0  0  0  3  0  0  0  0  0  0
  -30.1920  -18.5760   18.6290 C   0  0  0  0  0  3  0  0  0  0  0  0
  -30.8660  -17.5320   17.9740 C   0  0  0  0  0  0  0  0  0  0  0  0
  -30.4910  -16.1190   19.9420 C   0  0  0  0  0  0  0  0  0  0  0  0
  -29.6190  -18.3730   19.9030 C   0  0  0  0  0  0  0  0  0  0  0  0
  -31.4720  -17.6860   16.5850 C   0  0  0  0  0  1  0  0  0  0  0  0
  -29.7970  -17.1570   20.5620 N   0  0  0  0  0  0  0  0  0  0  0  0
  -31.0590  -14.8490   20.6260 C   0  0  0  0  0  0  0  0  0  0  0  0
  -30.8160  -12.5680   19.6890 C   0  0  0  0  0  2  0  0  0  0  0  0
  -29.9730  -12.6630   18.4010 C   0  0  0  0  0  2  0  0  0  0  0  0
  -28.4630  -12.6010   18.7030 C   0  0  0  0  0  2  0  0  0  0  0  0
  -28.0450  -13.4840   19.9070 C   0  0  0  0  0  3  0  0  0  0  0  0
  -29.0260  -13.4120   21.0940 C   0  0  0  0  0  2  0  0  0  0  0  0
  -30.3710  -13.6620   20.5750 N   0  0  0  0  0  0  0  0  0  0  0  0
  -32.2930  -14.8310   20.6450 O   0  0  0  0  0  0  0  0  0  0  0  0
  -25.6400  -14.1310   20.4820 C   0  0  0  0  0  0  0  0  0  0  0  0
  -24.5360  -13.3840   20.8070 C   0  0  0  0  0  0  0  0  0  0  0  0
  -24.9730  -12.0280   20.8420 C   0  0  0  0  0  0  0  0  0  0  0  0
  -26.6730  -13.2250   20.3240 N   0  0  0  0  0  0  0  0  0  0  0  0
  -26.2780  -11.9550   20.6050 N   0  0  0  0  0  0  0  0  0  0  0  0
  -24.2050  -10.7870   21.0240 C   0  0  0  0  0  0  0  0  0  0  0  0
  -24.5830   -9.8200   21.9790 C   0  0  0  0  0  3  0  0  0  0  0  0
  -23.8210   -8.6450   22.1470 C   0  0  0  0  0  3  0  0  0  0  0  0
  -22.6680   -8.4250   21.3570 C   0  0  0  0  0  0  0  0  0  0  0  0
  -22.3090   -9.3800   20.3890 C   0  0  0  0  0  3  0  0  0  0  0  0
  -23.0720  -10.5500   20.2200 C   0  0  0  0  0  3  0  0  0  0  0  0
  -21.8810   -7.3010   21.4290 O   0  0  0  0  0  0  0  0  0  0  0  0
  -21.7930   -6.5540   22.5810 C   0  0  0  0  0  0  0  0  0  0  0  0
  -21.3740   -7.1240   23.8020 C   0  0  0  0  0  3  0  0  0  0  0  0
  -21.2290   -6.3100   24.9460 C   0  0  0  0  0  3  0  0  0  0  0  0
  -21.4960   -4.9290   24.8670 C   0  0  0  0  0  0  0  0  0  0  0  0
  -21.9070   -4.3600   23.6490 C   0  0  0  0  0  3  0  0  0  0  0  0
  -22.0530   -5.1720   22.5090 C   0  0  0  0  0  0  0  0  0  0  0  0
  -22.4290   -4.6160   21.3310 F   0  0  0  0  0  0  0  0  0  0  0  0
  -21.3490   -4.1450   25.9590 F   0  0  0  0  0  0  0  0  0  0  0  0
  -23.1370  -13.8960   20.9900 C   0  0  0  0  0  0  0  0  0  0  0  0
  -22.3600  -13.2350   21.8420 N   0  0  0  0  0  0  0  0  0  0  0  0
  -22.7430  -14.9040   20.4060 O   0  0  0  0  0  0  0  0  0  0  0  0
  -22.7020  -12.4140   22.3140 H   0  0  0  0  0  0  0  0  0  0  0  0
  -21.4150  -13.5450   22.0160 H   0  0  0  0  0  0  0  0  0  0  0  0
  -25.8450  -15.4930   20.2850 N   0  0  0  0  0  0  0  0  0  0  0  0
  -25.0850  -16.1650   20.3250 H   0  0  0  0  0  0  0  0  0  0  0  0
  -26.7290  -15.9080   20.0150 H   0  0  0  0  0  0  0  0  0  0  0  0
  -28.1670  -22.2670   20.5200 C   0  0  0  0  0  3  0  0  0  0  0  0
  -28.4560  -23.9620   22.4540 C   0  0  0  0  0  1  0  0  0  0  0  0
  -28.6100  -23.7690   20.9240 C   0  0  0  0  0  3  0  0  0  0  0  0
  -27.8180  -24.9530   20.1870 C   0  0  0  0  0  2  0  0  0  0  0  0
  -28.1950  -26.4000   20.2740 O   0  0  0  0  0  0  0  0  0  0  0  0
  -24.5820  -31.9260   23.1920 C   0  0  0  0  0  0  0  0  0  0  0  0
  -27.1480  -27.3340   20.1530 C   0  0  0  0  0  0  0  0  0  0  0  0
  -23.3740  -30.5080   21.5720 C   0  0  0  0  0  3  0  0  0  0  0  0
  -24.8160  -28.9750   20.1130 C   0  0  0  0  0  0  0  0  0  0  0  0
  -25.9040  -30.8320   21.3630 C   0  0  0  0  0  2  0  0  0  0  0  0
  -25.9800  -29.4460   20.7350 C   0  0  0  0  0  0  0  0  0  0  0  0
  -27.1500  -28.6260   20.7690 C   0  0  0  0  0  3  0  0  0  0  0  0
  -25.9850  -26.9670   19.4400 C   0  0  0  0  0  3  0  0  0  0  0  0
  -24.8210  -27.7490   19.4410 C   0  0  0  0  0  3  0  0  0  0  0  0
  -23.5700  -29.8250   20.1910 C   0  0  0  0  0  2  0  0  0  0  0  0
  -24.6400  -31.1080   22.0990 N   0  0  0  0  0  0  0  0  0  0  0  0
  -23.5020  -32.2100   23.7310 O   0  0  0  0  0  0  0  0  0  0  0  0
  -22.7280  -29.4960   22.5550 C   0  0  0  0  0  0  0  0  0  0  0  0
  -21.4000  -29.3070   22.4500 N   0  0  0  0  0  0  0  0  0  0  0  0
  -23.4220  -28.8800   23.3700 O   0  0  0  0  0  0  0  0  0  0  0  0
  -20.9040  -29.8710   21.7760 H   0  0  0  0  0  0  0  0  0  0  0  0
  -18.0310  -28.0830   22.9830 C   0  0  0  0  0  0  0  0  0  0  0  0
  -20.5900  -28.3720   23.2350 C   0  0  0  0  0  3  0  0  0  0  0  0
  -20.6960  -26.9350   22.6740 C   0  0  0  0  0  2  0  0  0  0  0  0
  -19.5920  -26.5920   21.6680 C   0  0  0  0  0  2  0  0  0  0  0  0
  -18.2140  -26.7290   22.3200 C   0  0  0  0  0  2  0  0  0  0  0  0
  -19.1450  -28.8630   23.3970 C   0  0  0  0  0  0  0  0  0  0  0  0
  -18.9140  -30.1280   23.9800 C   0  0  0  0  0  3  0  0  0  0  0  0
  -17.6030  -30.6190   24.1410 C   0  0  0  0  0  3  0  0  0  0  0  0
  -16.5070  -29.8380   23.7350 C   0  0  0  0  0  3  0  0  0  0  0  0
  -16.7210  -28.5700   23.1690 C   0  0  0  0  0  3  0  0  0  0  0  0
  -25.8660  -32.5650   23.8040 C   0  0  0  0  0  3  0  0  0  0  0  0
  -25.5490  -33.9590   24.1480 N   0  0  0  0  0  0  0  0  0  0  0  0
  -25.9020  -35.0220   23.4080 C   0  0  0  0  0  0  0  0  0  0  0  0
  -26.5900  -34.9280   22.3880 O   0  0  0  0  0  0  0  0  0  0  0  0
  -24.9170  -34.1020   24.9230 H   0  0  0  0  0  0  0  0  0  0  0  0
  -24.1870  -36.8220   23.0430 C   0  0  0  0  0  1  0  0  0  0  0  0
  -25.4140  -36.4070   23.8700 C   0  0  0  0  0  3  0  0  0  0  0  0
  -27.5440  -37.2660   24.7430 C   0  0  0  0  0  1  0  0  0  0  0  0
  -26.4580  -37.4510   23.7820 N   0  0  0  0  0  0  0  0  0  0  0  0
  -26.0610  -38.3760   23.9260 H   0  0  0  0  0  0  0  0  0  0  0  0
  -26.4130  -31.7820   25.0600 C   0  0  1  0  0  0  0  0  0  0  0  0
  -25.3370  -31.5050   26.1390 C   0  0  0  0  0  1  0  0  0  0  0  0
  -26.9970  -30.4140   24.6360 C   0  0  0  0  0  1  0  0  0  0  0  0
  -27.5920  -32.5640   25.6850 C   0  0  0  0  0  1  0  0  0  0  0  0
  2  1  1  0
  3  6  1  0
  4  7  2  0
  5  4  1  0
  5  3  2  0
  6  9  2  0
  6 10  1  0
  7  2  1  0
  7  9  1  0
  8  5  1  0
 10 17  2  0
 11 16  1  0
 12 13  1  0
 12 11  1  0
 14 13  1  0
 14 21  1  0
 14 15  1  0
 16 10  1  0
 16 15  1  0
 18 19  2  0
 19 20  1  0
 19 38  1  0
 20 23  1  0
 21 18  1  0
 21 22  1  0
 22 20  2  0
 23 24  1  0
 24 25  2  0
 26 29  1  0
 26 25  1  0
 27 26  2  0
 28 27  1  0
 28 23  2  0
 29 30  1  0
 30 31  1  0
 31 32  2  0
 33 32  1  0
 33 37  1  0
 34 33  2  0
 35 30  2  0
 35 34  1  0
 36 35  1  0
 38 39  1  0
 39 42  1  0
 39 41  1  0
 40 38  2  0
 43 44  1  0
 43 18  1  0
 45 43  1  0
 46  1  2  0
 46 48  1  0
 48 47  1  0
 49 50  1  0
 49 48  1  0
 51 62  2  0
 52 50  1  0
 52 57  1  0
 53 61  1  0
 53 63  1  0
 54 60  1  0
 54 56  1  0
 55 61  1  0
 56 57  2  0
 56 55  1  0
 58 59  1  0
 58 52  2  0
 59 54  2  0
 60 53  1  0
 61 51  1  0
 63 65  2  0
 64 63  1  0
 66 64  1  0
 67 76  2  0
 67 72  1  0
 68 64  1  0
 68 72  1  0
 69 68  1  0
 70 71  1  0
 70 69  1  0
 71 67  1  0
 72 73  2  0
 73 74  1  0
 75 74  2  0
 76 75  1  0
 77 51  1  0
 77 78  1  0
 77 87  1  0
 78 81  1  0
 79 83  1  0
 79 78  1  0
 80 79  2  0
 83 82  1  0
 85 83  1  0
 85 86  1  0
 85 84  1  0
 87 90  1  1
 87 88  1  0
 89 87  1  0
M  ISO  4   6 100  10 100  49 101  50 101
M  END
>  <TORSDO>  (82) 
F 21

>  <SCORE>  (82) 
-13.087

>  <name>  (82) 
82

>  <ligand_id>  (82) 
82

>  <original_smiles>  (82) 
[H]c1c([H])c([H])c2c(c1[H])C([H])([H])C([H])([H])C([H])([H])C2([H])N([H])C(=O)C1([H])N(C(=O)C([H])(N([H])C(=O)C([H])(N([H])C([H])([H])[H])C([H])([H])[H])C(C([H])([H])[H])(C([H])([H])[H])C([H])([H])[H])C([H])([H])c2c([H])c(OC([H])([H])C([H])(C([H])([H])[H])C([H])([H])C([H])([H])C([H])([H])c3nc(C(=O)N4C([H])([H])C([H])([H])C([H])([H])C([H])(n5nc(-c6c([H])c([H])c(Oc7c([H])c([H])c(F)c([H])c7F)c([H])c6[H])c(C(=O)N([H])[H])c5N([H])[H])C4([H])[H])c([H])c(C([H])([H])[H])c3[H])c([H])c([H])c2C1([H])[H]

>  <smiles>  (82) 
[H]c1c([H])c([H])c2c(c1[H])C([H])([H])C([H])([H])C([H])([H])C2([H])N([H])C(=O)C1([H])N(C(=O)C([H])(N([H])C(=O)C([H])(N([H])C([H])([H])[H])C([H])([H])[H])C(C([H])([H])[H])(C([H])([H])[H])C([H])([H])[H])C([H])([H])c2c([H])c(OC([H])([H])C([H])(C([H])([H])[H])C([H])([H])C([H])([H])C([H])([H])c3nc(C(=O)N4C([H])([H])C([H])([H])C([H])([H])C([H])(n5nc(-c6c([H])c([H])c(Oc7c([H])c([H])c(F)c([H])c7F)c([H])c6[H])c(C(=O)N([H])[H])c5N([H])[H])C4([H])[H])c([H])c(C([H])([H])[H])c3[H])c([H])c([H])c2C1([H])[H]

$$$$
83:0:0
     RDKit          3D

 96104  0  0  1  0  0  0  0  0999 V2000
  -29.9330  -19.2960   19.0870 C   0  0  0  0  0  3  0  0  0  0  0  0
  -30.8500  -18.5420   19.7740 C   0  0  0  0  0  0  0  0  0  0  0  0
  -31.2130  -20.6900   20.2350 C   0  0  0  0  0  3  0  0  0  0  0  0
  -30.1830  -20.6150   19.3760 N   0  0  0  0  0  0  0  0  0  0  0  0
  -31.6090  -19.4380   20.4690 N   0  0  0  0  0  0  0  0  0  0  0  0
  -32.3900  -19.1950   21.0670 H   0  0  0  0  0  0  0  0  0  0  0  0
  -33.3720  -21.8480   20.7000 C   0  0  0  0  0  1  0  0  0  0  0  0
  -31.3980  -21.9830   22.3370 C   0  0  0  0  0  1  0  0  0  0  0  0
  -31.8410  -21.8890   20.8680 C   0  0  0  0  0  3  0  0  0  0  0  0
  -31.1120  -17.0760   19.7950 C   0  0  0  0  0  2  0  0  0  0  0  0
  -30.6770  -16.3640   21.1100 C   0  0  0  0  0  2  0  0  0  0  0  0
  -30.8820  -14.1610   19.9750 C   0  0  0  0  0  0  0  0  0  0  0  0
  -30.1690  -12.2790   18.5560 C   0  0  0  0  0  2  0  0  0  0  0  0
  -29.1410  -12.7190   17.5020 C   0  0  0  0  0  2  0  0  0  0  0  0
  -27.7200  -12.5960   18.0760 C   0  0  0  0  0  2  0  0  0  0  0  0
  -27.5730  -13.2870   19.4570 C   0  0  0  0  0  3  0  0  0  0  0  0
  -28.7260  -12.8880   20.4110 C   0  0  0  0  0  2  0  0  0  0  0  0
  -30.0170  -13.1350   19.7420 N   0  0  0  0  0  0  0  0  0  0  0  0
  -31.7870  -14.4500   19.1910 O   0  0  0  0  0  0  0  0  0  0  0  0
  -31.1440  -14.2470   22.3630 C   0  0  0  0  0  1  0  0  0  0  0  0
  -30.7110  -14.8760   21.1060 N   0  0  0  0  0  0  0  0  0  0  0  0
  -25.2400  -13.8780   20.3780 C   0  0  0  0  0  0  0  0  0  0  0  0
  -24.2000  -13.0950   20.8150 C   0  0  0  0  0  0  0  0  0  0  0  0
  -24.6490  -11.7460   20.7010 C   0  0  0  0  0  0  0  0  0  0  0  0
  -26.2600  -13.0020   20.0400 N   0  0  0  0  0  0  0  0  0  0  0  0
  -25.9090  -11.7110   20.2840 N   0  0  0  0  0  0  0  0  0  0  0  0
  -23.9310  -10.4810   20.9140 C   0  0  0  0  0  0  0  0  0  0  0  0
  -24.4010   -9.5080   21.8240 C   0  0  0  0  0  3  0  0  0  0  0  0
  -23.6830   -8.3080   22.0270 C   0  0  0  0  0  3  0  0  0  0  0  0
  -22.4800   -8.0740   21.3200 C   0  0  0  0  0  0  0  0  0  0  0  0
  -22.0260   -9.0380   20.4020 C   0  0  0  0  0  3  0  0  0  0  0  0
  -22.7450  -10.2270   20.1970 C   0  0  0  0  0  3  0  0  0  0  0  0
  -21.7300   -6.9280   21.4330 O   0  0  0  0  0  0  0  0  0  0  0  0
  -21.6890   -6.2060   22.6000 C   0  0  0  0  0  0  0  0  0  0  0  0
  -21.2690   -6.7820   23.8180 C   0  0  0  0  0  3  0  0  0  0  0  0
  -21.1780   -5.9880   24.9800 C   0  0  0  0  0  3  0  0  0  0  0  0
  -21.4940   -4.6190   24.9210 C   0  0  0  0  0  0  0  0  0  0  0  0
  -21.9050   -4.0420   23.7060 C   0  0  0  0  0  3  0  0  0  0  0  0
  -22.0010   -4.8330   22.5480 C   0  0  0  0  0  0  0  0  0  0  0  0
  -22.3790   -4.2690   21.3770 F   0  0  0  0  0  0  0  0  0  0  0  0
  -21.3970   -3.8510   26.0320 F   0  0  0  0  0  0  0  0  0  0  0  0
  -22.8370  -13.5750   21.2250 C   0  0  0  0  0  0  0  0  0  0  0  0
  -22.1840  -12.8590   22.1360 N   0  0  0  0  0  0  0  0  0  0  0  0
  -22.3620  -14.6150   20.7750 O   0  0  0  0  0  0  0  0  0  0  0  0
  -22.5740  -12.0110   22.5150 H   0  0  0  0  0  0  0  0  0  0  0  0
  -21.2810  -13.1710   22.4600 H   0  0  0  0  0  0  0  0  0  0  0  0
  -25.3940  -15.2510   20.2240 N   0  0  0  0  0  0  0  0  0  0  0  0
  -24.6410  -15.9010   20.4220 H   0  0  0  0  0  0  0  0  0  0  0  0
  -26.2200  -15.7000   19.8490 H   0  0  0  0  0  0  0  0  0  0  0  0
  -29.4600  -21.7670   18.8110 C   0  0  0  0  0  2  0  0  0  0  0  0
  -28.2890  -22.2240   19.7010 C   0  0  0  0  0  2  0  0  0  0  0  0
  -25.9370  -23.2550   19.5820 C   0  0  0  0  0  1  0  0  0  0  0  0
  -27.3610  -23.2320   18.9820 C   0  0  0  0  0  3  0  0  0  0  0  0
  -27.9820  -24.6450   18.8520 C   0  0  0  0  0  2  0  0  0  0  0  0
  -28.2650  -25.3010   20.2280 C   0  0  0  0  0  2  0  0  0  0  0  0
  -28.3250  -26.7250   20.2280 O   0  0  0  0  0  0  0  0  0  0  0  0
  -24.5680  -31.9350   23.2670 C   0  0  0  0  0  0  0  0  0  0  0  0
  -27.1310  -27.4150   20.2690 C   0  0  0  0  0  0  0  0  0  0  0  0
  -23.3280  -30.5160   21.6720 C   0  0  0  0  0  3  0  0  0  0  0  0
  -24.7470  -28.9310   20.2830 C   0  0  0  0  0  0  0  0  0  0  0  0
  -25.8540  -30.8490   21.4310 C   0  0  0  0  0  2  0  0  0  0  0  0
  -25.9170  -29.4600   20.8380 C   0  0  0  0  0  0  0  0  0  0  0  0
  -27.1150  -28.7100   20.8210 C   0  0  0  0  0  3  0  0  0  0  0  0
  -25.9220  -26.8820   19.7580 C   0  0  0  0  0  3  0  0  0  0  0  0
  -24.7430  -27.6360   19.7460 C   0  0  0  0  0  3  0  0  0  0  0  0
  -23.5110  -29.8000   20.3090 C   0  0  0  0  0  2  0  0  0  0  0  0
  -24.6030  -31.1160   22.1800 N   0  0  0  0  0  0  0  0  0  0  0  0
  -23.4940  -32.2190   23.8180 O   0  0  0  0  0  0  0  0  0  0  0  0
  -22.6800  -29.5190   22.6620 C   0  0  0  0  0  0  0  0  0  0  0  0
  -21.3620  -29.3110   22.5110 N   0  0  0  0  0  0  0  0  0  0  0  0
  -23.3590  -28.9350   23.5130 O   0  0  0  0  0  0  0  0  0  0  0  0
  -20.8870  -29.8260   21.7850 H   0  0  0  0  0  0  0  0  0  0  0  0
  -17.9960  -28.0720   22.9550 C   0  0  0  0  0  0  0  0  0  0  0  0
  -20.5370  -28.3980   23.3000 C   0  0  0  0  0  3  0  0  0  0  0  0
  -20.6960  -26.9440   22.8000 C   0  0  0  0  0  2  0  0  0  0  0  0
  -19.6300  -26.5460   21.7720 C   0  0  0  0  0  2  0  0  0  0  0  0
  -18.2220  -26.6950   22.3570 C   0  0  0  0  0  2  0  0  0  0  0  0
  -19.0840  -28.8760   23.3840 C   0  0  0  0  0  0  0  0  0  0  0  0
  -18.8230  -30.1640   23.9000 C   0  0  0  0  0  3  0  0  0  0  0  0
  -17.5040  -30.6430   24.0060 C   0  0  0  0  0  3  0  0  0  0  0  0
  -16.4290  -29.8320   23.6040 C   0  0  0  0  0  3  0  0  0  0  0  0
  -16.6770  -28.5520   23.0730 C   0  0  0  0  0  3  0  0  0  0  0  0
  -25.8600  -32.5690   23.8620 C   0  0  0  0  0  3  0  0  0  0  0  0
  -25.5640  -33.9690   24.1850 N   0  0  0  0  0  0  0  0  0  0  0  0
  -25.8960  -35.0130   23.4120 C   0  0  0  0  0  0  0  0  0  0  0  0
  -26.5590  -34.8950   22.3770 O   0  0  0  0  0  0  0  0  0  0  0  0
  -24.9860  -34.1280   24.9960 H   0  0  0  0  0  0  0  0  0  0  0  0
  -24.1770  -36.8140   23.0420 C   0  0  0  0  0  1  0  0  0  0  0  0
  -25.4120  -36.4070   23.8600 C   0  0  0  0  0  3  0  0  0  0  0  0
  -27.5470  -37.2810   24.6990 C   0  0  0  0  0  1  0  0  0  0  0  0
  -26.4490  -37.4560   23.7530 N   0  0  0  0  0  0  0  0  0  0  0  0
  -26.0470  -38.3780   23.9040 H   0  0  0  0  0  0  0  0  0  0  0  0
  -26.3850  -31.8050   25.1370 C   0  0  1  0  0  0  0  0  0  0  0  0
  -25.2990  -31.5620   26.2170 C   0  0  0  0  0  1  0  0  0  0  0  0
  -26.9680  -30.4340   24.7360 C   0  0  0  0  0  1  0  0  0  0  0  0
  -27.5530  -32.5930   25.7740 C   0  0  0  0  0  1  0  0  0  0  0  0
  1  4  1  0
  1  2  2  0
  2 10  1  0
  2  5  1  0
  3  5  1  0
  3  9  1  0
  4  3  1  0
  5  6  1  0
  7  9  1  0
  9  8  1  0
 10 11  1  0
 12 21  1  0
 13 18  1  0
 14 15  1  0
 14 13  1  0
 16 15  1  0
 16 25  1  0
 16 17  1  0
 18 12  1  0
 18 17  1  0
 19 12  2  0
 21 11  1  0
 21 20  1  0
 22 23  2  0
 23 42  1  0
 24 23  1  0
 24 27  1  0
 25 26  1  0
 25 22  1  0
 26 24  2  0
 27 28  1  0
 28 29  2  0
 30 33  1  0
 30 29  1  0
 31 30  2  0
 32 31  1  0
 32 27  2  0
 33 34  1  0
 34 35  1  0
 35 36  2  0
 37 36  1  0
 37 41  1  0
 38 37  2  0
 39 34  2  0
 39 38  1  0
 40 39  1  0
 42 43  1  0
 43 46  1  0
 43 45  1  0
 44 42  2  0
 47 22  1  0
 47 48  1  0
 49 47  1  0
 50  4  1  0
 50 51  1  0
 53 52  1  0
 53 51  1  0
 54 53  1  0
 54 55  1  0
 56 55  1  0
 56 58  1  0
 57 68  2  0
 58 63  1  0
 59 67  1  0
 59 69  1  0
 60 66  1  0
 60 62  1  0
 61 67  1  0
 62 61  1  0
 63 62  2  0
 64 58  2  0
 65 64  1  0
 65 60  2  0
 66 59  1  0
 67 57  1  0
 69 71  2  0
 70 69  1  0
 72 70  1  0
 73 82  2  0
 73 78  1  0
 74 70  1  0
 74 78  1  0
 75 74  1  0
 76 77  1  0
 76 75  1  0
 77 73  1  0
 78 79  2  0
 79 80  1  0
 81 80  2  0
 82 81  1  0
 83 57  1  0
 83 84  1  0
 83 93  1  0
 84 87  1  0
 85 89  1  0
 85 84  1  0
 86 85  2  0
 89 88  1  0
 91 89  1  0
 91 92  1  0
 91 90  1  0
 93 96  1  1
 93 94  1  0
 95 93  1  0
M  ISO  4  12 100  21 100  55 101  56 101
M  END
>  <TORSDO>  (83) 
F 24

>  <SCORE>  (83) 
-11.241

>  <name>  (83) 
83

>  <ligand_id>  (83) 
83

>  <original_smiles>  (83) 
[H]c1c([H])c([H])c2c(c1[H])C([H])([H])C([H])([H])C([H])([H])C2([H])N([H])C(=O)C1([H])N(C(=O)C([H])(N([H])C(=O)C([H])(N([H])C([H])([H])[H])C([H])([H])[H])C(C([H])([H])[H])(C([H])([H])[H])C([H])([H])[H])C([H])([H])c2c([H])c(OC([H])([H])C([H])([H])C([H])(C([H])([H])[H])C([H])([H])C([H])([H])n3c([H])c(C([H])([H])C([H])([H])N(C(=O)N4C([H])([H])C([H])([H])C([H])([H])C([H])(n5nc(-c6c([H])c([H])c(Oc7c([H])c([H])c(F)c([H])c7F)c([H])c6[H])c(C(=O)N([H])[H])c5N([H])[H])C4([H])[H])C([H])([H])[H])[n+]([H])c3C([H])(C([H])([H])[H])C([H])([H])[H])c([H])c([H])c2C1([H])[H]

>  <smiles>  (83) 
[H]c1c([H])c([H])c2c(c1[H])C([H])([H])C([H])([H])C([H])([H])C2([H])N([H])C(=O)C1([H])N(C(=O)C([H])(N([H])C(=O)C([H])(N([H])C([H])([H])[H])C([H])([H])[H])C(C([H])([H])[H])(C([H])([H])[H])C([H])([H])[H])C([H])([H])c2c([H])c(OC([H])([H])C([H])([H])C([H])(C([H])([H])[H])C([H])([H])C([H])([H])n3c([H])c(C([H])([H])C([H])([H])N(C(=O)N4C([H])([H])C([H])([H])C([H])([H])C([H])(n5nc(-c6c([H])c([H])c(Oc7c([H])c([H])c(F)c([H])c7F)c([H])c6[H])c(C(=O)N([H])[H])c5N([H])[H])C4([H])[H])C([H])([H])[H])[n+]([H])c3C([H])(C([H])([H])[H])C([H])([H])[H])c([H])c([H])c2C1([H])[H]

$$$$
84:0:0
     RDKit          3D

 95103  0  0  1  0  0  0  0  0999 V2000
  -29.2270  -20.3280   19.5550 C   0  0  0  0  0  3  0  0  0  0  0  0
  -28.6860  -21.3640   18.7140 C   0  0  0  0  0  3  0  0  0  0  0  0
  -27.8160  -20.9030   17.6990 C   0  0  0  0  0  3  0  0  0  0  0  0
  -28.6320  -19.0330   19.5120 C   0  0  0  0  0  0  0  0  0  0  0  0
  -27.0060  -19.7840   18.0130 C   0  0  0  0  0  0  0  0  0  0  0  0
  -27.4570  -18.8420   18.8610 N   0  0  0  0  0  0  0  0  0  0  0  0
  -27.9020  -20.0470   15.1690 C   0  0  0  0  0  1  0  0  0  0  0  0
  -28.5130  -20.8580   16.3240 C   0  0  0  0  0  2  0  0  0  0  0  0
  -29.2480  -22.8320   18.7130 C   0  0  0  0  0  3  0  0  0  0  0  0
  -28.3610  -24.0010   19.3330 C   0  0  0  0  0  3  0  0  0  0  0  0
  -28.8670  -25.5030   19.1280 C   0  0  0  0  0  2  0  0  0  0  0  0
  -28.6140  -26.5230   20.1710 O   0  0  0  0  0  0  0  0  0  0  0  0
  -24.6350  -31.7050   23.2630 C   0  0  0  0  0  0  0  0  0  0  0  0
  -27.4640  -27.3140   20.1390 C   0  0  0  0  0  0  0  0  0  0  0  0
  -23.5360  -30.3530   21.5260 C   0  0  0  0  0  3  0  0  0  0  0  0
  -25.0810  -28.8740   20.1120 C   0  0  0  0  0  0  0  0  0  0  0  0
  -26.0710  -30.7120   21.4700 C   0  0  0  0  0  2  0  0  0  0  0  0
  -26.2060  -29.3600   20.7840 C   0  0  0  0  0  0  0  0  0  0  0  0
  -27.3950  -28.5810   20.7970 C   0  0  0  0  0  3  0  0  0  0  0  0
  -26.3020  -26.8680   19.4660 C   0  0  0  0  0  3  0  0  0  0  0  0
  -25.1260  -27.6320   19.4580 C   0  0  0  0  0  3  0  0  0  0  0  0
  -23.8260  -29.7360   20.1300 C   0  0  0  0  0  2  0  0  0  0  0  0
  -24.7640  -30.9320   22.1510 N   0  0  0  0  0  0  0  0  0  0  0  0
  -23.5150  -31.9600   23.7400 O   0  0  0  0  0  0  0  0  0  0  0  0
  -22.8550  -29.2820   22.4090 C   0  0  0  0  0  0  0  0  0  0  0  0
  -21.5280  -29.1670   22.2810 N   0  0  0  0  0  0  0  0  0  0  0  0
  -23.5110  -28.5450   23.1600 O   0  0  0  0  0  0  0  0  0  0  0  0
  -21.0540  -29.8520   21.7130 H   0  0  0  0  0  0  0  0  0  0  0  0
  -18.0960  -28.0420   22.6400 C   0  0  0  0  0  0  0  0  0  0  0  0
  -20.6840  -28.1400   22.9050 C   0  0  0  0  0  0  0  0  0  0  0  0
  -20.7830  -26.8410   22.0670 C   0  0  0  0  0  3  0  0  0  0  0  0
  -19.5350  -26.2420   21.4390 C   0  0  0  0  0  3  0  0  0  0  0  0
  -18.1410  -26.7930   21.7830 C   0  0  0  0  0  3  0  0  0  0  0  0
  -19.2600  -28.6780   23.1270 C   0  0  0  0  0  0  0  0  0  0  0  0
  -19.1170  -29.8930   23.8370 C   0  0  0  0  0  3  0  0  0  0  0  0
  -17.8540  -30.4720   24.0730 C   0  0  0  0  0  3  0  0  0  0  0  0
  -16.7150  -29.8130   23.5920 C   0  0  0  0  0  3  0  0  0  0  0  0
  -16.8310  -28.6130   22.8860 C   0  0  0  0  0  3  0  0  0  0  0  0
  -25.8780  -32.3330   23.9700 C   0  0  0  0  0  3  0  0  0  0  0  0
  -25.5540  -33.7340   24.2920 N   0  0  0  0  0  0  0  0  0  0  0  0
  -25.9550  -34.7860   23.5730 C   0  0  0  0  0  0  0  0  0  0  0  0
  -26.7080  -34.6810   22.6050 O   0  0  0  0  0  0  0  0  0  0  0  0
  -24.9060  -33.8900   25.0490 H   0  0  0  0  0  0  0  0  0  0  0  0
  -24.2770  -36.5920   23.0850 C   0  0  0  0  0  1  0  0  0  0  0  0
  -25.4390  -36.1730   23.9970 C   0  0  0  0  0  3  0  0  0  0  0  0
  -27.4980  -37.0360   25.0200 C   0  0  0  0  0  1  0  0  0  0  0  0
  -26.4840  -37.2180   23.9850 N   0  0  0  0  0  0  0  0  0  0  0  0
  -26.0690  -38.1390   24.1050 H   0  0  0  0  0  0  0  0  0  0  0  0
  -26.3040  -31.5470   25.2680 C   0  0  1  0  0  0  0  0  0  0  0  0
  -25.1440  -31.3030   26.2590 C   0  0  0  0  0  1  0  0  0  0  0  0
  -26.8990  -30.1680   24.9040 C   0  0  0  0  0  1  0  0  0  0  0  0
  -27.4060  -32.3310   26.0150 C   0  0  0  0  0  1  0  0  0  0  0  0
  -29.0670  -17.6730   20.1280 C   0  0  0  0  0  2  0  0  0  0  0  0
  -30.4700  -17.2770   20.6510 C   0  0  0  0  0  2  0  0  0  0  0  0
  -31.1440  -14.9170   21.3810 C   0  0  0  0  0  0  0  0  0  0  0  0
  -31.0700  -12.5220   20.8120 C   0  0  0  0  0  2  0  0  0  0  0  0
  -30.4290  -12.4270   19.4010 C   0  0  0  0  0  2  0  0  0  0  0  0
  -28.8830  -12.3820   19.4860 C   0  0  0  0  0  2  0  0  0  0  0  0
  -28.3050  -13.5080   20.3900 C   0  0  0  0  0  3  0  0  0  0  0  0
  -29.0760  -13.5560   21.7340 C   0  0  0  0  0  2  0  0  0  0  0  0
  -30.5200  -13.7150   21.4650 N   0  0  0  0  0  0  0  0  0  0  0  0
  -32.3570  -15.0470   21.1700 O   0  0  0  0  0  0  0  0  0  0  0  0
  -30.2910  -15.9450   21.2970 N   0  0  0  0  0  0  0  0  0  0  0  0
  -29.3300  -15.6690   21.5040 H   0  0  0  0  0  0  0  0  0  0  0  0
  -25.8610  -14.3150   20.5730 C   0  0  0  0  0  0  0  0  0  0  0  0
  -24.6880  -13.6360   20.7510 C   0  0  0  0  0  0  0  0  0  0  0  0
  -25.0440  -12.2600   20.8850 C   0  0  0  0  0  0  0  0  0  0  0  0
  -26.8630  -13.3570   20.6010 N   0  0  0  0  0  0  0  0  0  0  0  0
  -26.3610  -12.1210   20.8480 N   0  0  0  0  0  0  0  0  0  0  0  0
  -24.2090  -11.0540   20.9930 C   0  0  0  0  0  0  0  0  0  0  0  0
  -24.4720  -10.0590   21.9630 C   0  0  0  0  0  3  0  0  0  0  0  0
  -23.6440   -8.9190   22.0530 C   0  0  0  0  0  3  0  0  0  0  0  0
  -22.5430   -8.7690   21.1790 C   0  0  0  0  0  0  0  0  0  0  0  0
  -22.3070   -9.7510   20.2010 C   0  0  0  0  0  3  0  0  0  0  0  0
  -23.1290  -10.8820   20.1050 C   0  0  0  0  0  3  0  0  0  0  0  0
  -21.6900   -7.6920   21.1850 O   0  0  0  0  0  0  0  0  0  0  0  0
  -21.6030   -6.8470   22.2630 C   0  0  0  0  0  0  0  0  0  0  0  0
  -21.2920   -7.3200   23.5600 C   0  0  0  0  0  3  0  0  0  0  0  0
  -21.1490   -6.4110   24.6260 C   0  0  0  0  0  3  0  0  0  0  0  0
  -21.2970   -5.0310   24.4020 C   0  0  0  0  0  0  0  0  0  0  0  0
  -21.5950   -4.5550   23.1130 C   0  0  0  0  0  3  0  0  0  0  0  0
  -21.7480   -5.4600   22.0490 C   0  0  0  0  0  0  0  0  0  0  0  0
  -22.0190   -4.9960   20.8060 F   0  0  0  0  0  0  0  0  0  0  0  0
  -21.1490   -4.1580   25.4260 F   0  0  0  0  0  0  0  0  0  0  0  0
  -23.3030  -14.2120   20.7060 C   0  0  0  0  0  0  0  0  0  0  0  0
  -22.3800  -13.6490   21.4770 N   0  0  0  0  0  0  0  0  0  0  0  0
  -23.0410  -15.1910   20.0040 O   0  0  0  0  0  0  0  0  0  0  0  0
  -22.6040  -12.8500   22.0540 H   0  0  0  0  0  0  0  0  0  0  0  0
  -21.4410  -14.0220   21.4940 H   0  0  0  0  0  0  0  0  0  0  0  0
  -26.1670  -15.6530   20.3710 N   0  0  0  0  0  0  0  0  0  0  0  0
  -25.4770  -16.3930   20.2640 H   0  0  0  0  0  0  0  0  0  0  0  0
  -27.1010  -15.9790   20.1720 H   0  0  0  0  0  0  0  0  0  0  0  0
  -25.6480  -19.4600   17.3960 C   0  0  0  0  0  2  0  0  0  0  0  0
  -23.4180  -20.3850   16.4900 C   0  0  0  0  0  1  0  0  0  0  0  0
  -24.9250  -20.6210   16.6710 C   0  0  0  0  0  2  0  0  0  0  0  0
  2  9  1  0
  2  1  1  0
  3  8  1  0
  3  5  1  0
  3  2  1  0
  4  1  2  0
  4 53  1  0
  5  6  2  0
  6  4  1  0
  7  8  1  0
  9 10  2  0
 11 10  1  0
 11 12  1  0
 13 24  2  0
 14 12  1  0
 14 19  1  0
 15 23  1  0
 15 25  1  0
 16 22  1  0
 16 18  1  0
 17 23  1  0
 18 19  2  0
 18 17  1  0
 20 14  2  0
 21 20  1  0
 21 16  2  0
 22 15  1  0
 23 13  1  0
 25 27  2  0
 26 25  1  0
 26 30  1  0
 28 26  1  0
 29 38  2  0
 29 34  1  0
 30 34  1  0
 31 30  2  0
 32 33  2  0
 32 31  1  0
 33 29  1  0
 34 35  2  0
 35 36  1  0
 37 36  2  0
 38 37  1  0
 39 13  1  0
 39 40  1  0
 39 49  1  0
 40 43  1  0
 41 45  1  0
 41 40  1  0
 42 41  2  0
 45 44  1  0
 47 45  1  0
 47 48  1  0
 47 46  1  0
 49 52  1  1
 49 50  1  0
 51 49  1  0
 53 54  1  0
 54 63  1  0
 55 61  1  0
 56 61  1  0
 57 58  1  0
 57 56  1  0
 59 58  1  0
 59 68  1  0
 59 60  1  0
 61 60  1  0
 62 55  2  0
 63 55  1  0
 63 64  1  0
 65 68  1  0
 65 66  2  0
 66 67  1  0
 67 70  1  0
 68 69  1  0
 69 67  2  0
 70 71  1  0
 71 72  2  0
 73 76  1  0
 73 72  1  0
 74 73  2  0
 75 74  1  0
 75 70  2  0
 76 77  1  0
 77 78  1  0
 78 79  2  0
 80 79  1  0
 80 84  1  0
 81 80  2  0
 82 77  2  0
 82 81  1  0
 83 82  1  0
 85 66  1  0
 85 86  1  0
 86 89  1  0
 86 88  1  0
 87 85  2  0
 90 65  1  0
 91 90  1  0
 92 90  1  0
 93  5  1  0
 94 95  1  0
 95 93  1  0
M  ISO  4  11 101  12 101  55 100  63 100
M  END
>  <TORSDO>  (84) 
F 24

>  <SCORE>  (84) 
-8.284

>  <name>  (84) 
84

>  <ligand_id>  (84) 
84

>  <original_smiles>  (84) 
[H]c1c([H])c([H])c2c(c1[H])C([H])([H])C([H])([H])C([H])([H])C2([H])N([H])C(=O)C1([H])N(C(=O)C([H])(N([H])C(=O)C([H])(N([H])C([H])([H])[H])C([H])([H])[H])C(C([H])([H])[H])(C([H])([H])[H])C([H])([H])[H])C([H])([H])c2c([H])c(OC([H])([H])C([H])([H])C([H])([H])c3c([H])c(C([H])([H])C([H])([H])N([H])C(=O)N4C([H])([H])C([H])([H])C([H])([H])C([H])(n5nc(-c6c([H])c([H])c(Oc7c([H])c([H])c(F)c([H])c7F)c([H])c6[H])c(C(=O)N([H])[H])c5N([H])[H])C4([H])[H])nc(C([H])([H])C([H])([H])C([H])([H])[H])c3C([H])([H])C([H])([H])[H])c([H])c([H])c2C1([H])[H]

>  <smiles>  (84) 
[H]c1c([H])c([H])c2c(c1[H])C([H])([H])C([H])([H])C([H])([H])C2([H])N([H])C(=O)C1([H])N(C(=O)C([H])(N([H])C(=O)C([H])(N([H])C([H])([H])[H])C([H])([H])[H])C(C([H])([H])[H])(C([H])([H])[H])C([H])([H])[H])C([H])([H])c2c([H])c(OC([H])([H])C([H])([H])C([H])([H])c3c([H])c(C([H])([H])C([H])([H])N([H])C(=O)N4C([H])([H])C([H])([H])C([H])([H])C([H])(n5nc(-c6c([H])c([H])c(Oc7c([H])c([H])c(F)c([H])c7F)c([H])c6[H])c(C(=O)N([H])[H])c5N([H])[H])C4([H])[H])nc(C([H])([H])C([H])([H])C([H])([H])[H])c3C([H])([H])C([H])([H])[H])c([H])c([H])c2C1([H])[H]

$$$$
85:0:0
     RDKit          3D

 98106  0  0  1  0  0  0  0  0999 V2000
  -29.3580  -23.4510   21.7940 C   0  0  0  0  0  3  0  0  0  0  0  0
  -29.4160  -22.0600   21.5840 C   0  0  0  0  0  3  0  0  0  0  0  0
  -28.8510  -24.3210   20.7970 C   0  0  0  0  0  0  0  0  0  0  0  0
  -28.9530  -21.5420   20.3680 C   0  0  0  0  0  0  0  0  0  0  0  0
  -28.5110  -23.7080   19.5510 C   0  0  0  0  0  0  0  0  0  0  0  0
  -28.5190  -22.3580   19.3860 N   0  0  0  0  0  0  0  0  0  0  0  0
  -27.7720  -25.9490   22.4690 C   0  0  0  0  0  1  0  0  0  0  0  0
  -28.6920  -25.8090   21.2220 C   0  0  0  0  0  3  0  0  0  0  0  0
  -28.4470  -26.7800   20.1860 O   0  0  0  0  0  0  0  0  0  0  0  0
  -24.6170  -31.9510   23.2570 C   0  0  0  0  0  0  0  0  0  0  0  0
  -27.2740  -27.5080   20.2160 C   0  0  0  0  0  0  0  0  0  0  0  0
  -23.4180  -30.5370   21.6160 C   0  0  0  0  0  3  0  0  0  0  0  0
  -24.8770  -29.0010   20.2050 C   0  0  0  0  0  0  0  0  0  0  0  0
  -25.9390  -30.9110   21.4180 C   0  0  0  0  0  2  0  0  0  0  0  0
  -26.0330  -29.5370   20.7870 C   0  0  0  0  0  0  0  0  0  0  0  0
  -27.2420  -28.8030   20.7830 C   0  0  0  0  0  3  0  0  0  0  0  0
  -26.0980  -26.9750   19.6510 C   0  0  0  0  0  3  0  0  0  0  0  0
  -24.9020  -27.7190   19.6350 C   0  0  0  0  0  3  0  0  0  0  0  0
  -23.6330  -29.8560   20.2390 C   0  0  0  0  0  2  0  0  0  0  0  0
  -24.6760  -31.1470   22.1570 N   0  0  0  0  0  0  0  0  0  0  0  0
  -23.5340  -32.2180   23.7980 O   0  0  0  0  0  0  0  0  0  0  0  0
  -22.7680  -29.5170   22.5800 C   0  0  0  0  0  0  0  0  0  0  0  0
  -21.4440  -29.3300   22.4550 N   0  0  0  0  0  0  0  0  0  0  0  0
  -23.4520  -28.8930   23.3970 O   0  0  0  0  0  0  0  0  0  0  0  0
  -20.9490  -29.8770   21.7650 H   0  0  0  0  0  0  0  0  0  0  0  0
  -18.0750  -28.1310   22.9650 C   0  0  0  0  0  0  0  0  0  0  0  0
  -20.6310  -28.3950   23.2320 C   0  0  0  0  0  3  0  0  0  0  0  0
  -20.7380  -26.9610   22.6610 C   0  0  0  0  0  2  0  0  0  0  0  0
  -19.6370  -26.6320   21.6510 C   0  0  0  0  0  2  0  0  0  0  0  0
  -18.2530  -26.7780   22.2930 C   0  0  0  0  0  2  0  0  0  0  0  0
  -19.1930  -28.8960   23.3900 C   0  0  0  0  0  0  0  0  0  0  0  0
  -18.9730  -30.1600   23.9760 C   0  0  0  0  0  3  0  0  0  0  0  0
  -17.6690  -30.6630   24.1380 C   0  0  0  0  0  3  0  0  0  0  0  0
  -16.5640  -29.8960   23.7280 C   0  0  0  0  0  3  0  0  0  0  0  0
  -16.7660  -28.6300   23.1460 C   0  0  0  0  0  3  0  0  0  0  0  0
  -25.9030  -32.5890   23.8720 C   0  0  0  0  0  3  0  0  0  0  0  0
  -25.5920  -33.9890   24.1920 N   0  0  0  0  0  0  0  0  0  0  0  0
  -25.9170  -35.0360   23.4220 C   0  0  0  0  0  0  0  0  0  0  0  0
  -26.5860  -34.9250   22.3910 O   0  0  0  0  0  0  0  0  0  0  0  0
  -25.0060  -34.1490   25.0000 H   0  0  0  0  0  0  0  0  0  0  0  0
  -24.1800  -36.8140   23.0450 C   0  0  0  0  0  1  0  0  0  0  0  0
  -25.4230  -36.4270   23.8630 C   0  0  0  0  0  3  0  0  0  0  0  0
  -27.5550  -37.3240   24.6840 C   0  0  0  0  0  1  0  0  0  0  0  0
  -26.4510  -37.4830   23.7390 N   0  0  0  0  0  0  0  0  0  0  0  0
  -26.0400  -38.4010   23.8860 H   0  0  0  0  0  0  0  0  0  0  0  0
  -26.4220  -31.8260   25.1530 C   0  0  1  0  0  0  0  0  0  0  0  0
  -25.3280  -31.5910   26.2200 C   0  0  0  0  0  1  0  0  0  0  0  0
  -27.0090  -30.4490   24.7670 C   0  0  0  0  0  1  0  0  0  0  0  0
  -27.5690  -32.6290   25.8120 C   0  0  0  0  0  1  0  0  0  0  0  0
  -28.8560  -20.0270   20.1260 C   0  0  0  0  0  2  0  0  0  0  0  0
  -30.4100  -19.9980   18.0910 C   0  0  0  0  0  1  0  0  0  0  0  0
  -30.0710  -19.3150   19.4370 C   0  0  0  0  0  3  0  0  0  0  0  0
  -28.4740  -17.3440   18.9750 C   0  0  0  0  0  1  0  0  0  0  0  0
  -30.8220  -17.1500   18.2190 C   0  0  0  0  0  1  0  0  0  0  0  0
  -29.9240  -17.7370   19.3370 C   0  0  1  0  0  0  0  0  0  0  0  0
  -30.3420  -17.0640   20.6920 C   0  0  0  0  0  2  0  0  0  0  0  0
  -30.8050  -14.5820   20.4770 C   0  0  0  0  0  0  0  0  0  0  0  0
  -30.5350  -12.4110   19.3500 C   0  0  0  0  0  2  0  0  0  0  0  0
  -29.6120  -12.6160   18.1320 C   0  0  0  0  0  2  0  0  0  0  0  0
  -28.1310  -12.4840   18.5380 C   0  0  0  0  0  2  0  0  0  0  0  0
  -27.7760  -13.3290   19.7910 C   0  0  0  0  0  3  0  0  0  0  0  0
  -28.8110  -13.1160   20.9180 C   0  0  0  0  0  2  0  0  0  0  0  0
  -30.1450  -13.4020   20.3630 N   0  0  0  0  0  0  0  0  0  0  0  0
  -31.9740  -14.7410   20.1110 O   0  0  0  0  0  0  0  0  0  0  0  0
  -30.0210  -15.6280   20.7920 N   0  0  0  0  0  0  0  0  0  0  0  0
  -29.0690  -15.4020   21.0370 H   0  0  0  0  0  0  0  0  0  0  0  0
  -25.3710  -13.9710   20.4350 C   0  0  0  0  0  0  0  0  0  0  0  0
  -24.2890  -13.2150   20.7990 C   0  0  0  0  0  0  0  0  0  0  0  0
  -24.7400  -11.8600   20.8040 C   0  0  0  0  0  0  0  0  0  0  0  0
  -26.4130  -13.0780   20.2440 N   0  0  0  0  0  0  0  0  0  0  0  0
  -26.0370  -11.8050   20.5270 N   0  0  0  0  0  0  0  0  0  0  0  0
  -24.0010  -10.6070   21.0030 C   0  0  0  0  0  0  0  0  0  0  0  0
  -24.4190   -9.6490   21.9530 C   0  0  0  0  0  3  0  0  0  0  0  0
  -23.6850   -8.4580   22.1360 C   0  0  0  0  0  3  0  0  0  0  0  0
  -22.5180   -8.2180   21.3720 C   0  0  0  0  0  0  0  0  0  0  0  0
  -22.1210   -9.1650   20.4120 C   0  0  0  0  0  3  0  0  0  0  0  0
  -22.8540  -10.3490   20.2260 C   0  0  0  0  0  3  0  0  0  0  0  0
  -21.7550   -7.0810   21.4690 O   0  0  0  0  0  0  0  0  0  0  0  0
  -21.7030   -6.3440   22.6240 C   0  0  0  0  0  0  0  0  0  0  0  0
  -21.2960   -6.9110   23.8510 C   0  0  0  0  0  3  0  0  0  0  0  0
  -21.1880   -6.1000   24.9990 C   0  0  0  0  0  3  0  0  0  0  0  0
  -21.4760   -4.7260   24.9220 C   0  0  0  0  0  0  0  0  0  0  0  0
  -21.8790   -4.1590   23.6990 C   0  0  0  0  0  3  0  0  0  0  0  0
  -21.9880   -4.9650   22.5530 C   0  0  0  0  0  0  0  0  0  0  0  0
  -22.3540   -4.4090   21.3740 F   0  0  0  0  0  0  0  0  0  0  0  0
  -21.3650   -3.9440   26.0230 F   0  0  0  0  0  0  0  0  0  0  0  0
  -22.8900  -13.7080   21.0320 C   0  0  0  0  0  0  0  0  0  0  0  0
  -22.1390  -13.0350   21.8980 N   0  0  0  0  0  0  0  0  0  0  0  0
  -22.4710  -14.7240   20.4800 O   0  0  0  0  0  0  0  0  0  0  0  0
  -22.4900  -12.2100   22.3630 H   0  0  0  0  0  0  0  0  0  0  0  0
  -21.2010  -13.3530   22.0980 H   0  0  0  0  0  0  0  0  0  0  0  0
  -25.5470  -15.3370   20.2350 N   0  0  0  0  0  0  0  0  0  0  0  0
  -24.7740  -15.9890   20.3020 H   0  0  0  0  0  0  0  0  0  0  0  0
  -26.3980  -15.7610   19.8940 H   0  0  0  0  0  0  0  0  0  0  0  0
  -28.1060  -24.4320   18.2680 C   0  0  0  0  0  2  0  0  0  0  0  0
  -29.0120  -24.1000   17.0660 C   0  0  0  0  0  2  0  0  0  0  0  0
  -29.5920  -26.1970   15.7050 C   0  0  0  0  0  1  0  0  0  0  0  0
  -28.7150  -24.9410   15.8080 C   0  0  0  0  0  2  0  0  0  0  0  0
  2  1  1  0
  3  8  1  0
  3  1  2  0
  4  2  2  0
  5  3  1  0
  6  5  2  0
  6  4  1  0
  8  7  1  0
  9 11  1  0
  9  8  1  0
 10 21  2  0
 11 16  1  0
 12 20  1  0
 12 22  1  0
 13 19  1  0
 13 15  1  0
 14 20  1  0
 15 14  1  0
 16 15  2  0
 17 11  2  0
 18 17  1  0
 18 13  2  0
 19 12  1  0
 20 10  1  0
 22 24  2  0
 23 22  1  0
 25 23  1  0
 26 35  2  0
 26 31  1  0
 27 23  1  0
 27 31  1  0
 28 27  1  0
 29 30  1  0
 29 28  1  0
 30 26  1  0
 31 32  2  0
 32 33  1  0
 34 33  2  0
 35 34  1  0
 36 10  1  0
 36 37  1  0
 36 46  1  0
 37 40  1  0
 38 42  1  0
 38 37  1  0
 39 38  2  0
 42 41  1  0
 44 42  1  0
 44 45  1  0
 44 43  1  0
 46 49  1  1
 46 47  1  0
 48 46  1  0
 50  4  1  0
 52 51  1  0
 52 50  1  0
 55 53  1  6
 54 55  1  0
 55 52  1  0
 55 56  1  0
 56 65  1  0
 57 65  1  0
 58 63  1  0
 59 60  1  0
 59 58  1  0
 61 60  1  0
 61 70  1  0
 61 62  1  0
 63 57  1  0
 63 62  1  0
 64 57  2  0
 65 66  1  0
 67 68  2  0
 68 69  1  0
 68 87  1  0
 69 72  1  0
 70 67  1  0
 70 71  1  0
 71 69  2  0
 72 73  1  0
 73 74  2  0
 75 78  1  0
 75 74  1  0
 76 75  2  0
 77 76  1  0
 77 72  2  0
 78 79  1  0
 79 80  1  0
 80 81  2  0
 82 81  1  0
 82 86  1  0
 83 82  2  0
 84 79  2  0
 84 83  1  0
 85 84  1  0
 87 88  1  0
 88 91  1  0
 88 90  1  0
 89 87  2  0
 92 93  1  0
 92 67  1  0
 94 92  1  0
 95  5  1  0
 96 95  1  0
 97 98  1  0
 98 96  1  0
M  ISO  4   8 101   9 101  57 100  65 100
M  END
>  <TORSDO>  (85) 
F 24

>  <SCORE>  (85) 
-12.842

>  <name>  (85) 
85

>  <ligand_id>  (85) 
85

>  <original_smiles>  (85) 
[H]c1c(C([H])([H])C([H])(C([H])([H])[H])C(C([H])([H])[H])(C([H])([H])[H])C([H])([H])N([H])C(=O)N2C([H])([H])C([H])([H])C([H])([H])C([H])(n3nc(-c4c([H])c([H])c(Oc5c([H])c([H])c(F)c([H])c5F)c([H])c4[H])c(C(=O)N([H])[H])c3N([H])[H])C2([H])[H])nc(C([H])([H])C([H])([H])C([H])([H])C([H])([H])[H])c(C([H])(Oc2c([H])c([H])c3c(c2[H])C([H])([H])N(C(=O)C([H])(N([H])C(=O)C([H])(N([H])C([H])([H])[H])C([H])([H])[H])C(C([H])([H])[H])(C([H])([H])[H])C([H])([H])[H])C([H])(C(=O)N([H])C2([H])c4c([H])c([H])c([H])c([H])c4C([H])([H])C([H])([H])C2([H])[H])C3([H])[H])C([H])([H])[H])c1[H]

>  <smiles>  (85) 
[H]c1c(C([H])([H])C([H])(C([H])([H])[H])C(C([H])([H])[H])(C([H])([H])[H])C([H])([H])N([H])C(=O)N2C([H])([H])C([H])([H])C([H])([H])C([H])(n3nc(-c4c([H])c([H])c(Oc5c([H])c([H])c(F)c([H])c5F)c([H])c4[H])c(C(=O)N([H])[H])c3N([H])[H])C2([H])[H])nc(C([H])([H])C([H])([H])C([H])([H])C([H])([H])[H])c(C([H])(Oc2c([H])c([H])c3c(c2[H])C([H])([H])N(C(=O)C([H])(N([H])C(=O)C([H])(N([H])C([H])([H])[H])C([H])([H])[H])C(C([H])([H])[H])(C([H])([H])[H])C([H])([H])[H])C([H])(C(=O)N([H])C2([H])c4c([H])c([H])c([H])c([H])c4C([H])([H])C([H])([H])C2([H])[H])C3([H])[H])C([H])([H])[H])c1[H]

$$$$
86:0:0
     RDKit          3D

 94102  0  0  1  0  0  0  0  0999 V2000
  -30.3570  -20.4970   19.9240 C   0  0  0  0  0  3  0  0  0  0  0  0
  -30.6380  -19.1030   19.7820 C   0  0  0  0  0  3  0  0  0  0  0  0
  -28.0740  -19.9490   20.3930 C   0  0  0  0  0  3  0  0  0  0  0  0
  -29.0540  -20.9560   20.2310 C   0  0  0  0  0  0  0  0  0  0  0  0
  -29.6460  -18.0880   19.9140 C   0  0  0  0  0  0  0  0  0  0  0  0
  -28.3300  -18.5560   20.2190 C   0  0  0  0  0  0  0  0  0  0  0  0
  -28.6930  -22.4490   20.5530 C   0  0  0  0  0  2  0  0  0  0  0  0
  -28.7030  -23.6010   19.4640 C   0  0  0  0  0  2  0  0  0  0  0  0
  -28.2490  -25.0140   20.0340 C   0  0  0  0  0  2  0  0  0  0  0  0
  -28.1890  -26.1910   19.1610 O   0  0  0  0  0  0  0  0  0  0  0  0
  -24.8040  -31.3900   22.8270 C   0  0  0  0  0  0  0  0  0  0  0  0
  -27.0860  -27.0280   19.3060 C   0  0  0  0  0  0  0  0  0  0  0  0
  -23.4530  -30.1350   21.1820 C   0  0  0  0  0  3  0  0  0  0  0  0
  -24.7610  -28.6490   19.5630 C   0  0  0  0  0  0  0  0  0  0  0  0
  -25.9750  -30.4190   20.8400 C   0  0  0  0  0  2  0  0  0  0  0  0
  -25.9760  -29.0840   20.1090 C   0  0  0  0  0  0  0  0  0  0  0  0
  -27.1450  -28.2850   19.9720 C   0  0  0  0  0  3  0  0  0  0  0  0
  -25.8560  -26.6290   18.7470 C   0  0  0  0  0  3  0  0  0  0  0  0
  -24.7000  -27.4250   18.8730 C   0  0  0  0  0  3  0  0  0  0  0  0
  -23.5550  -29.5460   19.7490 C   0  0  0  0  0  2  0  0  0  0  0  0
  -24.7670  -30.6610   21.6740 N   0  0  0  0  0  0  0  0  0  0  0  0
  -23.7680  -31.6520   23.4540 O   0  0  0  0  0  0  0  0  0  0  0  0
  -22.8310  -29.0710   22.1160 C   0  0  0  0  0  0  0  0  0  0  0  0
  -21.4990  -28.9140   22.0460 N   0  0  0  0  0  0  0  0  0  0  0  0
  -23.5430  -28.3920   22.8610 O   0  0  0  0  0  0  0  0  0  0  0  0
  -20.9840  -29.5140   21.4180 H   0  0  0  0  0  0  0  0  0  0  0  0
  -18.1350  -27.7320   22.6490 C   0  0  0  0  0  0  0  0  0  0  0  0
  -20.7070  -27.9420   22.8030 C   0  0  0  0  0  3  0  0  0  0  0  0
  -20.7590  -26.5460   22.1410 C   0  0  0  0  0  2  0  0  0  0  0  0
  -19.6010  -26.2950   21.1700 C   0  0  0  0  0  2  0  0  0  0  0  0
  -18.2560  -26.4220   21.8900 C   0  0  0  0  0  2  0  0  0  0  0  0
  -19.2850  -28.4540   23.0650 C   0  0  0  0  0  0  0  0  0  0  0  0
  -19.1150  -29.6820   23.7410 C   0  0  0  0  0  3  0  0  0  0  0  0
  -17.8280  -30.1880   24.0030 C   0  0  0  0  0  3  0  0  0  0  0  0
  -16.6940  -29.4630   23.5990 C   0  0  0  0  0  3  0  0  0  0  0  0
  -16.8480  -28.2370   22.9270 C   0  0  0  0  0  3  0  0  0  0  0  0
  -26.1450  -31.9450   23.4020 C   0  0  0  0  0  3  0  0  0  0  0  0
  -25.8650  -33.2670   23.9790 N   0  0  0  0  0  0  0  0  0  0  0  0
  -26.1150  -34.4330   23.3680 C   0  0  0  0  0  0  0  0  0  0  0  0
  -26.6780  -34.5050   22.2720 O   0  0  0  0  0  0  0  0  0  0  0  0
  -25.3610  -33.2830   24.8530 H   0  0  0  0  0  0  0  0  0  0  0  0
  -24.3560  -36.2270   23.4730 C   0  0  0  0  0  1  0  0  0  0  0  0
  -25.6730  -35.7220   24.0860 C   0  0  0  0  0  3  0  0  0  0  0  0
  -27.8730  -36.5070   24.8420 C   0  0  0  0  0  1  0  0  0  0  0  0
  -26.6860  -36.7990   24.0420 N   0  0  0  0  0  0  0  0  0  0  0  0
  -26.2920  -37.6790   24.3650 H   0  0  0  0  0  0  0  0  0  0  0  0
  -26.7990  -30.9950   24.4770 C   0  0  1  0  0  0  0  0  0  0  0  0
  -25.8340  -30.5760   25.6110 C   0  0  0  0  0  1  0  0  0  0  0  0
  -27.3310  -29.7040   23.8120 C   0  0  0  0  0  1  0  0  0  0  0  0
  -28.0160  -31.6960   25.1240 C   0  0  0  0  0  1  0  0  0  0  0  0
  -27.1310  -17.6270   20.3720 C   0  0  0  0  0  2  0  0  0  0  0  0
  -26.1140  -17.7570   19.2170 C   0  0  0  0  0  2  0  0  0  0  0  0
  -23.7040  -17.9480   18.4680 C   0  0  0  0  0  1  0  0  0  0  0  0
  -24.1920  -16.8860   20.7040 C   0  0  0  0  0  1  0  0  0  0  0  0
  -24.6510  -17.9320   19.6760 C   0  0  0  0  0  3  0  0  0  0  0  0
  -30.0130  -16.5950   19.5430 C   0  0  0  0  0  2  0  0  0  0  0  0
  -31.1200  -14.4150   20.0660 C   0  0  0  0  0  0  0  0  0  0  0  0
  -30.8410  -12.1160   19.1550 C   0  0  0  0  0  2  0  0  0  0  0  0
  -29.8690  -12.1490   17.9580 C   0  0  0  0  0  2  0  0  0  0  0  0
  -28.4150  -12.0010   18.4440 C   0  0  0  0  0  2  0  0  0  0  0  0
  -28.0840  -12.9540   19.6230 C   0  0  0  0  0  3  0  0  0  0  0  0
  -29.1730  -12.9210   20.7150 C   0  0  0  0  0  2  0  0  0  0  0  0
  -30.4610  -13.2120   20.0720 N   0  0  0  0  0  0  0  0  0  0  0  0
  -32.2390  -14.5170   19.5500 O   0  0  0  0  0  0  0  0  0  0  0  0
  -30.9940  -16.0830   21.7850 C   0  0  0  0  0  1  0  0  0  0  0  0
  -30.4720  -15.5410   20.5270 N   0  0  0  0  0  0  0  0  0  0  0  0
  -25.7640  -13.5870   20.5130 C   0  0  0  0  0  0  0  0  0  0  0  0
  -24.6940  -12.8380   20.9170 C   0  0  0  0  0  0  0  0  0  0  0  0
  -25.1010  -11.4750   20.7850 C   0  0  0  0  0  0  0  0  0  0  0  0
  -26.7590  -12.6880   20.1740 N   0  0  0  0  0  0  0  0  0  0  0  0
  -26.3680  -11.4070   20.3930 N   0  0  0  0  0  0  0  0  0  0  0  0
  -24.3380  -10.2330   20.9510 C   0  0  0  0  0  0  0  0  0  0  0  0
  -24.7330   -9.2430   21.8770 C   0  0  0  0  0  3  0  0  0  0  0  0
  -23.9720   -8.0640   22.0320 C   0  0  0  0  0  3  0  0  0  0  0  0
  -22.8020   -7.8680   21.2610 C   0  0  0  0  0  0  0  0  0  0  0  0
  -22.4240   -8.8480   20.3250 C   0  0  0  0  0  3  0  0  0  0  0  0
  -23.1850  -10.0190   20.1690 C   0  0  0  0  0  3  0  0  0  0  0  0
  -22.0140   -6.7450   21.3270 O   0  0  0  0  0  0  0  0  0  0  0  0
  -21.7580   -6.1140   22.5180 C   0  0  0  0  0  0  0  0  0  0  0  0
  -21.1510   -6.7850   23.6010 C   0  0  0  0  0  3  0  0  0  0  0  0
  -20.8450   -6.0810   24.7830 C   0  0  0  0  0  3  0  0  0  0  0  0
  -21.1350   -4.7060   24.8790 C   0  0  0  0  0  0  0  0  0  0  0  0
  -21.7330   -4.0350   23.7980 C   0  0  0  0  0  3  0  0  0  0  0  0
  -22.0410   -4.7370   22.6190 C   0  0  0  0  0  0  0  0  0  0  0  0
  -22.5990   -4.0820   21.5730 F   0  0  0  0  0  0  0  0  0  0  0  0
  -20.8350   -4.0270   26.0110 F   0  0  0  0  0  0  0  0  0  0  0  0
  -23.3380  -13.3540   21.3040 C   0  0  0  0  0  0  0  0  0  0  0  0
  -22.6950  -12.7210   22.2790 N   0  0  0  0  0  0  0  0  0  0  0  0
  -22.8600  -14.3550   20.7730 O   0  0  0  0  0  0  0  0  0  0  0  0
  -23.0880  -11.9090   22.7330 H   0  0  0  0  0  0  0  0  0  0  0  0
  -21.7880  -13.0540   22.5760 H   0  0  0  0  0  0  0  0  0  0  0  0
  -25.9690  -14.9510   20.3750 N   0  0  0  0  0  0  0  0  0  0  0  0
  -25.2530  -15.6240   20.6150 H   0  0  0  0  0  0  0  0  0  0  0  0
  -26.8390  -15.3760   20.0870 H   0  0  0  0  0  0  0  0  0  0  0  0
  1  4  1  0
  2  5  1  0
  2  1  2  0
  4  3  2  0
  4  7  1  0
  5  6  2  0
  6 51  1  0
  6  3  1  0
  8  9  1  0
  8  7  1  0
 10 12  1  0
 10  9  1  0
 11 22  2  0
 12 17  1  0
 13 21  1  0
 13 23  1  0
 14 20  1  0
 14 16  1  0
 15 21  1  0
 16 15  1  0
 17 16  2  0
 18 19  1  0
 18 12  2  0
 19 14  2  0
 20 13  1  0
 21 11  1  0
 23 25  2  0
 24 23  1  0
 26 24  1  0
 27 36  2  0
 27 32  1  0
 28 24  1  0
 28 32  1  0
 29 28  1  0
 30 31  1  0
 30 29  1  0
 31 27  1  0
 32 33  2  0
 33 34  1  0
 35 34  2  0
 36 35  1  0
 37 11  1  0
 37 38  1  0
 37 47  1  0
 38 41  1  0
 39 38  1  0
 39 43  1  0
 40 39  2  0
 43 42  1  0
 45 43  1  0
 45 46  1  0
 45 44  1  0
 47 50  1  1
 47 48  1  0
 49 47  1  0
 52 55  1  0
 52 51  1  0
 53 55  1  0
 55 54  1  0
 56  5  1  0
 56 66  1  0
 57 63  1  0
 57 66  1  0
 58 63  1  0
 59 60  1  0
 59 58  1  0
 61 60  1  0
 61 70  1  0
 61 62  1  0
 63 62  1  0
 64 57  2  0
 66 65  1  0
 67 68  2  0
 68 87  1  0
 69 68  1  0
 69 72  1  0
 70 71  1  0
 70 67  1  0
 71 69  2  0
 72 73  1  0
 73 74  2  0
 75 78  1  0
 75 74  1  0
 76 75  2  0
 77 76  1  0
 77 72  2  0
 78 79  1  0
 79 84  2  0
 79 80  1  0
 80 81  2  0
 81 82  1  0
 82 86  1  0
 83 82  2  0
 84 83  1  0
 85 84  1  0
 87 88  1  0
 88 91  1  0
 88 90  1  0
 89 87  2  0
 92 67  1  0
 92 93  1  0
 94 92  1  0
M  ISO  4   9 101  10 101  57 100  66 100
M  END
>  <TORSDO>  (86) 
F 23

>  <SCORE>  (86) 
-7.028

>  <name>  (86) 
86

>  <ligand_id>  (86) 
86

>  <original_smiles>  (86) 
[H]c1c([H])c([H])c2c(c1[H])C([H])([H])C([H])([H])C([H])([H])C2([H])N([H])C(=O)C1([H])N(C(=O)C([H])(N([H])C(=O)C([H])(N([H])C([H])([H])[H])C([H])([H])[H])C(C([H])([H])[H])(C([H])([H])[H])C([H])([H])[H])C([H])([H])c2c([H])c(OC([H])([H])C([H])([H])C([H])([H])c3c([H])c([H])c(C([H])([H])N(C(=O)N4C([H])([H])C([H])([H])C([H])([H])C([H])(n5nc(-c6c([H])c([H])c(Oc7c([H])c([H])c(F)c([H])c7F)c([H])c6[H])c(C(=O)N([H])[H])c5N([H])[H])C4([H])[H])C([H])([H])[H])c(C([H])([H])C([H])([H])C([H])(C([H])([H])[H])C([H])([H])[H])c3[H])c([H])c([H])c2C1([H])[H]

>  <smiles>  (86) 
[H]c1c([H])c([H])c2c(c1[H])C([H])([H])C([H])([H])C([H])([H])C2([H])N([H])C(=O)C1([H])N(C(=O)C([H])(N([H])C(=O)C([H])(N([H])C([H])([H])[H])C([H])([H])[H])C(C([H])([H])[H])(C([H])([H])[H])C([H])([H])[H])C([H])([H])c2c([H])c(OC([H])([H])C([H])([H])C([H])([H])c3c([H])c([H])c(C([H])([H])N(C(=O)N4C([H])([H])C([H])([H])C([H])([H])C([H])(n5nc(-c6c([H])c([H])c(Oc7c([H])c([H])c(F)c([H])c7F)c([H])c6[H])c(C(=O)N([H])[H])c5N([H])[H])C4([H])[H])C([H])([H])[H])c(C([H])([H])C([H])([H])C([H])(C([H])([H])[H])C([H])([H])[H])c3[H])c([H])c([H])c2C1([H])[H]

$$$$
87:0:0
     RDKit          3D

 90 98  0  0  1  0  0  0  0  0999 V2000
  -30.4480  -15.3500   20.3520 C   0  0  0  0  0  0  0  0  0  0  0  0
  -30.3610  -12.9110   19.4630 C   0  0  0  0  0  2  0  0  0  0  0  0
  -29.4560  -12.7110   18.2250 C   0  0  0  0  0  2  0  0  0  0  0  0
  -28.0110  -12.4290   18.6610 C   0  0  0  0  0  2  0  0  0  0  0  0
  -27.5500  -13.3820   19.7930 C   0  0  0  0  0  3  0  0  0  0  0  0
  -28.5960  -13.5570   20.9180 C   0  0  0  0  0  2  0  0  0  0  0  0
  -29.8180  -14.0690   20.2750 N   0  0  0  0  0  0  0  0  0  0  0  0
  -31.6720  -15.2130   20.1920 O   0  0  0  0  0  0  0  0  0  0  0  0
  -31.1290  -20.5880   19.9880 C   0  0  0  0  0  3  0  0  0  0  0  0
  -29.9970  -19.7790   20.2560 C   0  0  0  0  0  0  0  0  0  0  0  0
  -30.3550  -18.2140   20.2250 C   0  0  0  0  0  0  0  0  0  0  0  0
  -32.5520  -18.9070   19.6450 C   0  0  0  0  0  0  0  0  0  0  0  0
  -32.3610  -20.1930   19.6790 N   0  0  0  0  0  0  0  0  0  0  0  0
  -31.6410  -17.9950   19.8870 N   0  0  0  0  0  0  0  0  0  0  0  0
  -29.7940  -16.7070   20.4150 N   0  0  0  0  0  0  0  0  0  0  0  0
  -28.7970  -16.6650   20.5500 H   0  0  0  0  0  0  0  0  0  0  0  0
  -25.1710  -13.9080   20.5330 C   0  0  0  0  0  0  0  0  0  0  0  0
  -24.1150  -13.1180   20.8910 C   0  0  0  0  0  0  0  0  0  0  0  0
  -24.5990  -11.7730   20.8640 C   0  0  0  0  0  0  0  0  0  0  0  0
  -26.2270  -13.0460   20.2990 N   0  0  0  0  0  0  0  0  0  0  0  0
  -25.8940  -11.7550   20.5660 N   0  0  0  0  0  0  0  0  0  0  0  0
  -23.8830  -10.5020   21.0430 C   0  0  0  0  0  0  0  0  0  0  0  0
  -24.3060   -9.5400   21.9870 C   0  0  0  0  0  3  0  0  0  0  0  0
  -23.5860   -8.3380   22.1560 C   0  0  0  0  0  3  0  0  0  0  0  0
  -22.4280   -8.0890   21.3810 C   0  0  0  0  0  0  0  0  0  0  0  0
  -22.0250   -9.0390   20.4260 C   0  0  0  0  0  3  0  0  0  0  0  0
  -22.7460  -10.2320   20.2560 C   0  0  0  0  0  3  0  0  0  0  0  0
  -21.6810   -6.9380   21.4590 O   0  0  0  0  0  0  0  0  0  0  0  0
  -21.6030   -6.2080   22.6190 C   0  0  0  0  0  0  0  0  0  0  0  0
  -21.1180   -6.7680   23.8200 C   0  0  0  0  0  3  0  0  0  0  0  0
  -20.9880   -5.9630   24.9700 C   0  0  0  0  0  3  0  0  0  0  0  0
  -21.3350   -4.6000   24.9190 C   0  0  0  0  0  0  0  0  0  0  0  0
  -21.8130   -4.0380   23.7220 C   0  0  0  0  0  3  0  0  0  0  0  0
  -21.9430   -4.8400   22.5740 C   0  0  0  0  0  0  0  0  0  0  0  0
  -22.3840   -4.2900   21.4180 F   0  0  0  0  0  0  0  0  0  0  0  0
  -21.2040   -3.8240   26.0210 F   0  0  0  0  0  0  0  0  0  0  0  0
  -22.7110  -13.5790   21.1420 C   0  0  0  0  0  0  0  0  0  0  0  0
  -21.9810  -12.8830   22.0050 N   0  0  0  0  0  0  0  0  0  0  0  0
  -22.2700  -14.5970   20.6090 O   0  0  0  0  0  0  0  0  0  0  0  0
  -22.3500  -12.0600   22.4570 H   0  0  0  0  0  0  0  0  0  0  0  0
  -21.0380  -13.1780   22.2160 H   0  0  0  0  0  0  0  0  0  0  0  0
  -25.3180  -15.2800   20.3540 N   0  0  0  0  0  0  0  0  0  0  0  0
  -24.5360  -15.9200   20.4470 H   0  0  0  0  0  0  0  0  0  0  0  0
  -26.1540  -15.7270   20.0020 H   0  0  0  0  0  0  0  0  0  0  0  0
  -33.9500  -18.2450   17.6490 C   0  0  0  0  0  1  0  0  0  0  0  0
  -33.9070  -18.4150   19.1730 C   0  0  0  0  0  2  0  0  0  0  0  0
  -28.7640  -20.9910   20.4700 C   0  0  0  0  0  2  0  0  0  0  0  0
  -28.9570  -22.8090   20.3810 C   0  0  0  0  0  3  0  0  0  0  0  0
  -27.9080  -24.2770   20.3760 C   0  0  0  0  0  3  0  0  0  0  0  0
  -28.1820  -25.9050   20.3880 O   0  0  0  0  0  0  0  0  0  0  0  0
  -24.6290  -31.9280   23.2570 C   0  0  0  0  0  0  0  0  0  0  0  0
  -27.1760  -27.0040   20.3190 C   0  0  0  0  0  0  0  0  0  0  0  0
  -23.4430  -30.5210   21.6240 C   0  0  0  0  0  3  0  0  0  0  0  0
  -24.8930  -28.8950   20.2320 C   0  0  0  0  0  0  0  0  0  0  0  0
  -26.0110  -30.7150   21.5000 C   0  0  0  0  0  2  0  0  0  0  0  0
  -26.0770  -29.2990   20.8580 C   0  0  0  0  0  0  0  0  0  0  0  0
  -27.2150  -28.3750   20.8760 C   0  0  0  0  0  3  0  0  0  0  0  0
  -25.9610  -26.7480   19.6460 C   0  0  0  0  0  3  0  0  0  0  0  0
  -24.8590  -27.6400   19.6060 C   0  0  0  0  0  3  0  0  0  0  0  0
  -23.6800  -29.8220   20.2570 C   0  0  0  0  0  2  0  0  0  0  0  0
  -24.7160  -31.0820   22.1800 N   0  0  0  0  0  0  0  0  0  0  0  0
  -23.5370  -32.2300   23.7640 O   0  0  0  0  0  0  0  0  0  0  0  0
  -22.7370  -29.5380   22.5930 C   0  0  0  0  0  0  0  0  0  0  0  0
  -21.4060  -29.3790   22.4590 N   0  0  0  0  0  0  0  0  0  0  0  0
  -23.3930  -28.9180   23.4340 O   0  0  0  0  0  0  0  0  0  0  0  0
  -20.9310  -29.9270   21.7560 H   0  0  0  0  0  0  0  0  0  0  0  0
  -18.0110  -28.2030   22.9620 C   0  0  0  0  0  0  0  0  0  0  0  0
  -20.5720  -28.4540   23.2340 C   0  0  0  0  0  3  0  0  0  0  0  0
  -20.6670  -27.0170   22.6720 C   0  0  0  0  0  2  0  0  0  0  0  0
  -19.5670  -26.6930   21.6570 C   0  0  0  0  0  2  0  0  0  0  0  0
  -18.1830  -26.8500   22.2930 C   0  0  0  0  0  2  0  0  0  0  0  0
  -19.1320  -28.9630   23.3890 C   0  0  0  0  0  0  0  0  0  0  0  0
  -18.9160  -30.2280   23.9770 C   0  0  0  0  0  3  0  0  0  0  0  0
  -17.6130  -30.7350   24.1390 C   0  0  0  0  0  3  0  0  0  0  0  0
  -16.5060  -29.9720   23.7270 C   0  0  0  0  0  3  0  0  0  0  0  0
  -16.7060  -28.7080   23.1450 C   0  0  0  0  0  3  0  0  0  0  0  0
  -25.8990  -32.5710   23.8930 C   0  0  0  0  0  3  0  0  0  0  0  0
  -26.3930  -31.8140   25.1890 C   0  0  1  0  0  0  0  0  0  0  0  0
  -25.2820  -31.5960   26.2440 C   0  0  0  0  0  1  0  0  0  0  0  0
  -26.9770  -30.4280   24.8330 C   0  0  0  0  0  1  0  0  0  0  0  0
  -27.5380  -32.6140   25.8560 C   0  0  0  0  0  1  0  0  0  0  0  0
  -25.5830  -33.9750   24.2160 N   0  0  0  0  0  0  0  0  0  0  0  0
  -25.9070  -35.0290   23.4560 C   0  0  0  0  0  0  0  0  0  0  0  0
  -26.5690  -34.9240   22.4200 O   0  0  0  0  0  0  0  0  0  0  0  0
  -24.9890  -34.1290   25.0180 H   0  0  0  0  0  0  0  0  0  0  0  0
  -24.1700  -36.8230   23.1330 C   0  0  0  0  0  1  0  0  0  0  0  0
  -25.4280  -36.4200   23.9190 C   0  0  0  0  0  3  0  0  0  0  0  0
  -27.5760  -37.3190   24.7030 C   0  0  0  0  0  1  0  0  0  0  0  0
  -26.4570  -37.4750   23.7780 N   0  0  0  0  0  0  0  0  0  0  0  0
  -26.0520  -38.3950   23.9250 H   0  0  0  0  0  0  0  0  0  0  0  0
  1 15  1  0
  2  7  1  0
  3  4  1  0
  3  2  1  0
  5  4  1  0
  5 20  1  0
  5  6  1  0
  7  1  1  0
  7  6  1  0
  8  1  2  0
  9 10  2  0
 10 47  1  0
 11 10  1  0
 11 15  1  0
 12 13  2  0
 12 14  1  0
 13  9  1  0
 14 11  2  0
 15 16  1  0
 17 18  2  0
 18 37  1  0
 19 18  1  0
 19 22  1  0
 20 17  1  0
 20 21  1  0
 21 19  2  0
 22 23  1  0
 23 24  2  0
 25 28  1  0
 25 24  1  0
 26 25  2  0
 27 26  1  0
 27 22  2  0
 28 29  1  0
 29 30  1  0
 30 31  2  0
 32 31  1  0
 32 36  1  0
 33 32  2  0
 34 29  2  0
 34 33  1  0
 35 34  1  0
 37 38  1  0
 38 41  1  0
 38 40  1  0
 39 37  2  0
 42 43  1  0
 42 17  1  0
 44 42  1  0
 45 46  1  0
 46 12  1  0
 48 47  1  0
 49 48  2  0
 49 50  1  0
 51 62  2  0
 52 50  1  0
 52 57  1  0
 53 61  1  0
 53 63  1  0
 54 60  1  0
 54 56  1  0
 55 61  1  0
 56 57  2  0
 56 55  1  0
 58 52  2  0
 59 58  1  0
 59 54  2  0
 60 53  1  0
 61 51  1  0
 63 65  2  0
 64 63  1  0
 66 64  1  0
 67 76  2  0
 67 72  1  0
 68 64  1  0
 68 72  1  0
 69 68  1  0
 70 71  1  0
 70 69  1  0
 71 67  1  0
 72 73  2  0
 73 74  1  0
 75 74  2  0
 76 75  1  0
 77 51  1  0
 77 82  1  0
 77 78  1  0
 78 81  1  1
 78 79  1  0
 80 78  1  0
 82 85  1  0
 83 87  1  0
 83 82  1  0
 84 83  2  0
 87 86  1  0
 89 87  1  0
 89 90  1  0
 89 88  1  0
M  ISO  4   1 100  15 100  49 101  50 101
M  END
>  <TORSDO>  (87) 
F 19

>  <SCORE>  (87) 
-16.156

>  <name>  (87) 
87

>  <ligand_id>  (87) 
87

>  <original_smiles>  (87) 
[H]c1nc(C([H])([H])C([H])([H])[H])nc(N([H])C(=O)N2C([H])([H])C([H])([H])C([H])([H])C([H])(n3nc(-c4c([H])c([H])c(Oc5c([H])c([H])c(F)c([H])c5F)c([H])c4[H])c(C(=O)N([H])[H])c3N([H])[H])C2([H])[H])c1C([H])([H])C([H])([H])C([H])([H])Oc1c([H])c([H])c2c(c1[H])C([H])([H])N(C(=O)C([H])(N([H])C(=O)C([H])(N([H])C([H])([H])[H])C([H])([H])[H])C(C([H])([H])[H])(C([H])([H])[H])C([H])([H])[H])C([H])(C(=O)N([H])C1([H])c3c([H])c([H])c([H])c([H])c3C([H])([H])C([H])([H])C1([H])[H])C2([H])[H]

>  <smiles>  (87) 
[H]c1nc(C([H])([H])C([H])([H])[H])nc(N([H])C(=O)N2C([H])([H])C([H])([H])C([H])([H])C([H])(n3nc(-c4c([H])c([H])c(Oc5c([H])c([H])c(F)c([H])c5F)c([H])c4[H])c(C(=O)N([H])[H])c3N([H])[H])C2([H])[H])c1C([H])([H])C([H])([H])C([H])([H])Oc1c([H])c([H])c2c(c1[H])C([H])([H])N(C(=O)C([H])(N([H])C(=O)C([H])(N([H])C([H])([H])[H])C([H])([H])[H])C(C([H])([H])[H])(C([H])([H])[H])C([H])([H])[H])C([H])(C(=O)N([H])C1([H])c3c([H])c([H])c([H])c([H])c3C([H])([H])C([H])([H])C1([H])[H])C2([H])[H]

$$$$
88:0:0
     RDKit          3D

 93101  0  0  1  0  0  0  0  0999 V2000
  -29.3970  -22.9840   20.3950 C   0  0  0  0  0  3  0  0  0  0  0  0
  -29.6360  -23.5390   19.1090 C   0  0  0  0  0  0  0  0  0  0  0  0
  -29.7780  -21.6700   20.4220 C   0  0  0  0  0  0  0  0  0  0  0  0
  -30.2080  -22.5060   18.3780 C   0  0  0  0  0  0  0  0  0  0  0  0
  -30.6700  -22.5030   16.9530 C   0  0  0  0  0  1  0  0  0  0  0  0
  -30.3080  -21.3440   19.1690 N   0  0  0  0  0  0  0  0  0  0  0  0
  -28.3200  -19.8970   21.4840 C   0  0  0  0  0  1  0  0  0  0  0  0
  -29.7270  -21.3750   22.9360 C   0  0  0  0  0  1  0  0  0  0  0  0
  -29.6380  -20.6890   21.5620 C   0  0  0  0  0  3  0  0  0  0  0  0
  -29.2900  -24.9890   18.6710 C   0  0  0  0  0  3  0  0  0  0  0  0
  -28.6430  -25.9170   19.7690 C   0  0  0  0  0  3  0  0  0  0  0  0
  -28.7110  -27.3640   19.5580 O   0  0  0  0  0  0  0  0  0  0  0  0
  -24.7220  -31.8900   23.4470 C   0  0  0  0  0  0  0  0  0  0  0  0
  -27.5180  -28.0600   19.7000 C   0  0  0  0  0  0  0  0  0  0  0  0
  -23.5430  -30.6160   21.6880 C   0  0  0  0  0  3  0  0  0  0  0  0
  -25.0300  -29.3950   20.0070 C   0  0  0  0  0  0  0  0  0  0  0  0
  -26.0270  -31.1900   21.4310 C   0  0  0  0  0  2  0  0  0  0  0  0
  -26.1800  -29.9220   20.6080 C   0  0  0  0  0  0  0  0  0  0  0  0
  -27.4290  -29.2670   20.4440 C   0  0  0  0  0  3  0  0  0  0  0  0
  -26.3480  -27.5700   19.0830 C   0  0  0  0  0  3  0  0  0  0  0  0
  -25.1110  -28.2220   19.2370 C   0  0  0  0  0  3  0  0  0  0  0  0
  -23.7310  -30.1410   20.2210 C   0  0  0  0  0  2  0  0  0  0  0  0
  -24.7840  -31.2430   22.2470 N   0  0  0  0  0  0  0  0  0  0  0  0
  -23.6520  -32.0030   24.0610 O   0  0  0  0  0  0  0  0  0  0  0  0
  -23.0220  -29.4310   22.5330 C   0  0  0  0  0  0  0  0  0  0  0  0
  -21.7400  -29.0750   22.3430 N   0  0  0  0  0  0  0  0  0  0  0  0
  -23.7690  -28.8390   23.3160 O   0  0  0  0  0  0  0  0  0  0  0  0
  -21.1920  -29.6220   21.6960 H   0  0  0  0  0  0  0  0  0  0  0  0
  -18.6130  -27.2680   22.4820 C   0  0  0  0  0  0  0  0  0  0  0  0
  -21.0490  -27.9640   22.9970 C   0  0  0  0  0  3  0  0  0  0  0  0
  -21.4580  -26.6100   22.3720 C   0  0  0  0  0  2  0  0  0  0  0  0
  -20.5210  -26.1540   21.2490 C   0  0  0  0  0  2  0  0  0  0  0  0
  -19.0870  -26.0150   21.7680 C   0  0  0  0  0  2  0  0  0  0  0  0
  -19.5340  -28.1910   23.0430 C   0  0  0  0  0  0  0  0  0  0  0  0
  -19.0400  -29.3590   23.6640 C   0  0  0  0  0  3  0  0  0  0  0  0
  -17.6570  -29.6090   23.7340 C   0  0  0  0  0  3  0  0  0  0  0  0
  -16.7480  -28.6840   23.1910 C   0  0  0  0  0  3  0  0  0  0  0  0
  -17.2260  -27.5150   22.5700 C   0  0  0  0  0  3  0  0  0  0  0  0
  -25.9880  -32.5390   24.0890 C   0  0  0  0  0  3  0  0  0  0  0  0
  -25.6580  -33.9380   24.4020 N   0  0  0  0  0  0  0  0  0  0  0  0
  -26.0130  -34.9900   23.6510 C   0  0  0  0  0  0  0  0  0  0  0  0
  -26.7200  -34.8860   22.6450 O   0  0  0  0  0  0  0  0  0  0  0  0
  -25.0340  -34.0930   25.1790 H   0  0  0  0  0  0  0  0  0  0  0  0
  -24.2870  -36.7680   23.2210 C   0  0  0  0  0  1  0  0  0  0  0  0
  -25.4970  -36.3760   24.0840 C   0  0  0  0  0  3  0  0  0  0  0  0
  -27.5910  -37.2760   24.9970 C   0  0  0  0  0  1  0  0  0  0  0  0
  -26.5280  -37.4340   24.0080 N   0  0  0  0  0  0  0  0  0  0  0  0
  -26.1120  -38.3530   24.1330 H   0  0  0  0  0  0  0  0  0  0  0  0
  -26.4900  -31.7830   25.3800 C   0  0  1  0  0  0  0  0  0  0  0  0
  -25.3680  -31.5080   26.4090 C   0  0  0  0  0  1  0  0  0  0  0  0
  -27.1290  -30.4250   25.0040 C   0  0  0  0  0  1  0  0  0  0  0  0
  -27.5940  -32.6110   26.0770 C   0  0  0  0  0  1  0  0  0  0  0  0
  -30.7770  -19.9770   18.7570 C   0  0  0  0  0  2  0  0  0  0  0  0
  -32.3160  -19.6950   18.7220 C   0  0  0  0  0  2  0  0  0  0  0  0
  -32.9140  -18.6470   19.7400 C   0  0  0  0  0  2  0  0  0  0  0  0
  -33.1700  -16.1080   19.6810 C   0  0  0  0  0  0  0  0  0  0  0  0
  -32.9680  -13.6670   19.3200 C   0  0  0  0  0  2  0  0  0  0  0  0
  -32.1010  -13.4140   18.0670 C   0  0  0  0  0  2  0  0  0  0  0  0
  -30.6030  -13.3970   18.4290 C   0  0  0  0  0  2  0  0  0  0  0  0
  -30.1840  -14.6040   19.3100 C   0  0  0  0  0  3  0  0  0  0  0  0
  -31.1680  -14.7980   20.4850 C   0  0  0  0  0  2  0  0  0  0  0  0
  -32.5150  -14.9350   19.9140 N   0  0  0  0  0  0  0  0  0  0  0  0
  -34.3470  -16.1410   19.3170 O   0  0  0  0  0  0  0  0  0  0  0  0
  -32.4210  -17.2420   19.7360 N   0  0  0  0  0  0  0  0  0  0  0  0
  -31.4510  -17.1010   19.9790 H   0  0  0  0  0  0  0  0  0  0  0  0
  -27.8670  -15.4780   20.0020 C   0  0  0  0  0  0  0  0  0  0  0  0
  -26.7110  -14.8320   20.3480 C   0  0  0  0  0  0  0  0  0  0  0  0
  -27.0120  -13.4340   20.3110 C   0  0  0  0  0  0  0  0  0  0  0  0
  -28.8020  -14.4820   19.7710 N   0  0  0  0  0  0  0  0  0  0  0  0
  -28.2920  -13.2480   20.0170 N   0  0  0  0  0  0  0  0  0  0  0  0
  -26.1420  -12.2640   20.4770 C   0  0  0  0  0  0  0  0  0  0  0  0
  -26.3380  -11.3410   21.5270 C   0  0  0  0  0  3  0  0  0  0  0  0
  -25.4780  -10.2330   21.6770 C   0  0  0  0  0  3  0  0  0  0  0  0
  -24.4060  -10.0390   20.7750 C   0  0  0  0  0  0  0  0  0  0  0  0
  -24.2280  -10.9480   19.7170 C   0  0  0  0  0  3  0  0  0  0  0  0
  -25.0890  -12.0480   19.5650 C   0  0  0  0  0  3  0  0  0  0  0  0
  -23.5340   -8.9790   20.8290 O   0  0  0  0  0  0  0  0  0  0  0  0
  -23.0780   -8.4830   22.0230 C   0  0  0  0  0  0  0  0  0  0  0  0
  -22.3420   -9.2790   22.9290 C   0  0  0  0  0  3  0  0  0  0  0  0
  -21.8300   -8.7100   24.1120 C   0  0  0  0  0  3  0  0  0  0  0  0
  -22.0430   -7.3460   24.3890 C   0  0  0  0  0  0  0  0  0  0  0  0
  -22.7700   -6.5500   23.4860 C   0  0  0  0  0  3  0  0  0  0  0  0
  -23.2820   -7.1170   22.3060 C   0  0  0  0  0  0  0  0  0  0  0  0
  -23.9650   -6.3400   21.4300 F   0  0  0  0  0  0  0  0  0  0  0  0
  -21.5440   -6.7990   25.5220 F   0  0  0  0  0  0  0  0  0  0  0  0
  -25.3740  -15.4660   20.6020 C   0  0  0  0  0  0  0  0  0  0  0  0
  -24.5530  -14.8570   21.4510 N   0  0  0  0  0  0  0  0  0  0  0  0
  -25.0660  -16.5370   20.0800 O   0  0  0  0  0  0  0  0  0  0  0  0
  -24.8110  -13.9880   21.8960 H   0  0  0  0  0  0  0  0  0  0  0  0
  -23.6540  -15.2640   21.6600 H   0  0  0  0  0  0  0  0  0  0  0  0
  -28.1940  -16.8210   19.8410 N   0  0  0  0  0  0  0  0  0  0  0  0
  -27.5100  -17.5600   19.9610 H   0  0  0  0  0  0  0  0  0  0  0  0
  -29.0860  -17.1610   19.5050 H   0  0  0  0  0  0  0  0  0  0  0  0
  1  3  2  0
  2  1  1  0
  3  9  1  0
  4  2  2  0
  4  6  1  0
  5  4  1  0
  6  3  1  0
  7  9  1  0
  9  8  1  0
 10  2  1  0
 10 11  2  0
 12 14  1  0
 12 11  1  0
 13 24  2  0
 14 19  1  0
 15 23  1  0
 15 25  1  0
 16 22  1  0
 16 18  1  0
 17 23  1  0
 18 17  1  0
 19 18  2  0
 20 21  1  0
 20 14  2  0
 21 16  2  0
 22 15  1  0
 23 13  1  0
 25 27  2  0
 26 25  1  0
 28 26  1  0
 29 38  2  0
 29 34  1  0
 30 26  1  0
 30 34  1  0
 31 30  1  0
 32 33  1  0
 32 31  1  0
 33 29  1  0
 34 35  2  0
 35 36  1  0
 37 36  2  0
 38 37  1  0
 39 13  1  0
 39 40  1  0
 39 49  1  0
 40 43  1  0
 41 45  1  0
 41 40  1  0
 42 41  2  0
 45 44  1  0
 47 45  1  0
 47 48  1  0
 47 46  1  0
 49 52  1  1
 49 50  1  0
 51 49  1  0
 53  6  1  0
 54 53  1  0
 54 55  1  0
 56 64  1  0
 56 62  1  0
 57 62  1  0
 58 59  1  0
 58 57  1  0
 60 59  1  0
 60 69  1  0
 60 61  1  0
 62 61  1  0
 63 56  2  0
 64 55  1  0
 64 65  1  0
 66 67  2  0
 67 86  1  0
 68 67  1  0
 68 71  1  0
 69 66  1  0
 69 70  1  0
 70 68  2  0
 71 72  1  0
 72 73  2  0
 74 77  1  0
 74 73  1  0
 75 74  2  0
 76 75  1  0
 76 71  2  0
 77 78  1  0
 78 83  2  0
 78 79  1  0
 79 80  2  0
 80 81  1  0
 81 85  1  0
 82 81  2  0
 83 82  1  0
 84 83  1  0
 86 87  1  0
 87 90  1  0
 87 89  1  0
 88 86  2  0
 91 92  1  0
 91 66  1  0
 93 91  1  0
M  ISO  4  11 101  12 101  56 100  64 100
M  END
>  <TORSDO>  (88) 
F 22

>  <SCORE>  (88) 
-6.719

>  <name>  (88) 
88

>  <ligand_id>  (88) 
88

>  <original_smiles>  (88) 
[H]c1c([H])c([H])c2c(c1[H])C([H])([H])C([H])([H])C([H])([H])C2([H])N([H])C(=O)C1([H])N(C(=O)C([H])(N([H])C(=O)C([H])(N([H])C([H])([H])[H])C([H])([H])[H])C(C([H])([H])[H])(C([H])([H])[H])C([H])([H])[H])C([H])([H])c2c([H])c(OC([H])([H])C([H])([H])c3c([H])c(C([H])(C([H])([H])[H])C([H])([H])[H])n(C([H])([H])C([H])([H])C([H])([H])N([H])C(=O)N4C([H])([H])C([H])([H])C([H])([H])C([H])(n5nc(-c6c([H])c([H])c(Oc7c([H])c([H])c(F)c([H])c7F)c([H])c6[H])c(C(=O)N([H])[H])c5N([H])[H])C4([H])[H])c3C([H])([H])[H])c([H])c([H])c2C1([H])[H]

>  <smiles>  (88) 
[H]c1c([H])c([H])c2c(c1[H])C([H])([H])C([H])([H])C([H])([H])C2([H])N([H])C(=O)C1([H])N(C(=O)C([H])(N([H])C(=O)C([H])(N([H])C([H])([H])[H])C([H])([H])[H])C(C([H])([H])[H])(C([H])([H])[H])C([H])([H])[H])C([H])([H])c2c([H])c(OC([H])([H])C([H])([H])c3c([H])c(C([H])(C([H])([H])[H])C([H])([H])[H])n(C([H])([H])C([H])([H])C([H])([H])N([H])C(=O)N4C([H])([H])C([H])([H])C([H])([H])C([H])(n5nc(-c6c([H])c([H])c(Oc7c([H])c([H])c(F)c([H])c7F)c([H])c6[H])c(C(=O)N([H])[H])c5N([H])[H])C4([H])[H])c3C([H])([H])[H])c([H])c([H])c2C1([H])[H]

$$$$
89:0:0
     RDKit          3D

101109  0  0  1  0  0  0  0  0999 V2000
  -31.4860  -23.2230   23.0520 C   0  0  0  0  0  3  0  0  0  0  0  0
  -31.5340  -22.8550   20.6650 C   0  0  0  0  0  3  0  0  0  0  0  0
  -31.3280  -23.7280   21.7510 C   0  0  0  0  0  0  0  0  0  0  0  0
  -31.8160  -21.8680   23.2130 C   0  0  0  0  0  0  0  0  0  0  0  0
  -31.8480  -21.4970   20.9100 C   0  0  0  0  0  0  0  0  0  0  0  0
  -31.9890  -21.0290   22.1680 N   0  0  0  0  0  0  0  0  0  0  0  0
  -31.9430  -21.0430   18.4820 C   0  0  0  0  0  1  0  0  0  0  0  0
  -32.0130  -20.5640   19.8600 N   0  0  0  0  0  0  0  0  0  0  0  0
  -31.6990  -19.1520   20.1010 C   0  0  0  0  0  2  0  0  0  0  0  0
  -30.1790  -18.8850   20.1340 C   0  0  0  0  0  2  0  0  0  0  0  0
  -28.2290  -17.2990   19.9890 C   0  0  0  0  0  1  0  0  0  0  0  0
  -29.7650  -17.4060   19.9750 C   0  0  0  0  0  3  0  0  0  0  0  0
  -30.4020  -16.4650   21.0260 C   0  0  0  0  0  2  0  0  0  0  0  0
  -30.4210  -14.1680   20.0470 C   0  0  0  0  0  0  0  0  0  0  0  0
  -30.0040  -12.0190   18.9120 C   0  0  0  0  0  2  0  0  0  0  0  0
  -28.9930  -12.2060   17.7640 C   0  0  0  0  0  2  0  0  0  0  0  0
  -27.5470  -12.0870   18.2840 C   0  0  0  0  0  2  0  0  0  0  0  0
  -27.2920  -12.9660   19.5370 C   0  0  0  0  0  3  0  0  0  0  0  0
  -28.4040  -12.7520   20.5890 C   0  0  0  0  0  2  0  0  0  0  0  0
  -29.7070  -13.0160   19.9510 N   0  0  0  0  0  0  0  0  0  0  0  0
  -31.4390  -14.3900   19.3840 O   0  0  0  0  0  0  0  0  0  0  0  0
  -29.9210  -15.0880   20.8820 N   0  0  0  0  0  0  0  0  0  0  0  0
  -29.0930  -14.8310   21.3990 H   0  0  0  0  0  0  0  0  0  0  0  0
  -24.9440  -13.6230   20.3660 C   0  0  0  0  0  0  0  0  0  0  0  0
  -23.8890  -12.8730   20.8150 C   0  0  0  0  0  0  0  0  0  0  0  0
  -24.3320  -11.5160   20.7840 C   0  0  0  0  0  0  0  0  0  0  0  0
  -25.9630  -12.7230   20.0960 N   0  0  0  0  0  0  0  0  0  0  0  0
  -25.6000  -11.4520   20.4010 N   0  0  0  0  0  0  0  0  0  0  0  0
  -23.6030  -10.2670   21.0440 C   0  0  0  0  0  0  0  0  0  0  0  0
  -24.0630   -9.3260   21.9900 C   0  0  0  0  0  3  0  0  0  0  0  0
  -23.3360   -8.1410   22.2340 C   0  0  0  0  0  3  0  0  0  0  0  0
  -22.1330   -7.8890   21.5310 C   0  0  0  0  0  0  0  0  0  0  0  0
  -21.6920   -8.8180   20.5720 C   0  0  0  0  0  3  0  0  0  0  0  0
  -22.4200   -9.9950   20.3270 C   0  0  0  0  0  3  0  0  0  0  0  0
  -21.3740   -6.7550   21.6840 O   0  0  0  0  0  0  0  0  0  0  0  0
  -21.3630   -6.0490   22.8600 C   0  0  0  0  0  0  0  0  0  0  0  0
  -20.9690   -6.6390   24.0810 C   0  0  0  0  0  3  0  0  0  0  0  0
  -20.9070   -5.8590   25.2530 C   0  0  0  0  0  3  0  0  0  0  0  0
  -21.2270   -4.4890   25.2050 C   0  0  0  0  0  0  0  0  0  0  0  0
  -21.6150   -3.8980   23.9900 C   0  0  0  0  0  3  0  0  0  0  0  0
  -21.6800   -4.6760   22.8200 C   0  0  0  0  0  0  0  0  0  0  0  0
  -22.0330   -4.0970   21.6480 F   0  0  0  0  0  0  0  0  0  0  0  0
  -21.1600   -3.7380   26.3280 F   0  0  0  0  0  0  0  0  0  0  0  0
  -22.5170  -13.3750   21.1620 C   0  0  0  0  0  0  0  0  0  0  0  0
  -21.8410  -12.7150   22.0950 N   0  0  0  0  0  0  0  0  0  0  0  0
  -22.0550  -14.3870   20.6370 O   0  0  0  0  0  0  0  0  0  0  0  0
  -22.2290  -11.8960   22.5390 H   0  0  0  0  0  0  0  0  0  0  0  0
  -20.9230  -13.0330   22.3710 H   0  0  0  0  0  0  0  0  0  0  0  0
  -25.1150  -14.9870   20.1500 N   0  0  0  0  0  0  0  0  0  0  0  0
  -24.3670  -15.6570   20.2930 H   0  0  0  0  0  0  0  0  0  0  0  0
  -25.9560  -15.4070   19.7770 H   0  0  0  0  0  0  0  0  0  0  0  0
  -30.8690  -25.1610   21.5250 C   0  0  0  0  0  2  0  0  0  0  0  0
  -29.4750  -25.1920   20.8760 C   0  0  0  0  0  2  0  0  0  0  0  0
  -28.8620  -26.5910   20.6980 C   0  0  0  0  0  2  0  0  0  0  0  0
  -27.6720  -26.3830   19.9480 O   0  0  0  0  0  0  0  0  0  0  0  0
  -24.4580  -31.9150   23.1850 C   0  0  0  0  0  0  0  0  0  0  0  0
  -26.6070  -27.2420   20.0860 C   0  0  0  0  0  0  0  0  0  0  0  0
  -23.0510  -30.5470   21.6780 C   0  0  0  0  0  3  0  0  0  0  0  0
  -24.3040  -28.8760   20.2170 C   0  0  0  0  0  0  0  0  0  0  0  0
  -25.5720  -30.7380   21.2960 C   0  0  0  0  0  2  0  0  0  0  0  0
  -25.5280  -29.3460   20.7090 C   0  0  0  0  0  0  0  0  0  0  0  0
  -26.6850  -28.5370   20.6500 C   0  0  0  0  0  3  0  0  0  0  0  0
  -25.3690  -26.7830   19.5930 C   0  0  0  0  0  3  0  0  0  0  0  0
  -24.2150  -27.5890   19.6600 C   0  0  0  0  0  3  0  0  0  0  0  0
  -23.1210  -29.8120   20.3130 C   0  0  0  0  0  2  0  0  0  0  0  0
  -24.3830  -31.0810   22.1100 N   0  0  0  0  0  0  0  0  0  0  0  0
  -23.4380  -32.2740   23.7890 O   0  0  0  0  0  0  0  0  0  0  0  0
  -22.4060  -29.6000   22.7140 C   0  0  0  0  0  0  0  0  0  0  0  0
  -21.0880  -29.3770   22.5810 N   0  0  0  0  0  0  0  0  0  0  0  0
  -23.0870  -29.0650   23.5920 O   0  0  0  0  0  0  0  0  0  0  0  0
  -20.5990  -29.8600   21.8400 H   0  0  0  0  0  0  0  0  0  0  0  0
  -17.7620  -28.0410   23.0220 C   0  0  0  0  0  0  0  0  0  0  0  0
  -20.2750  -28.4950   23.4170 C   0  0  0  0  0  3  0  0  0  0  0  0
  -20.4990  -27.0120   23.0420 C   0  0  0  0  0  2  0  0  0  0  0  0
  -19.4910  -26.4920   22.0120 C   0  0  0  0  0  2  0  0  0  0  0  0
  -18.0610  -26.6290   22.5440 C   0  0  0  0  0  2  0  0  0  0  0  0
  -18.8030  -28.9210   23.4160 C   0  0  0  0  0  0  0  0  0  0  0  0
  -18.4730  -30.2350   23.8160 C   0  0  0  0  0  3  0  0  0  0  0  0
  -17.1340  -30.6680   23.8320 C   0  0  0  0  0  3  0  0  0  0  0  0
  -16.1060  -29.7860   23.4560 C   0  0  0  0  0  3  0  0  0  0  0  0
  -16.4200  -28.4760   23.0560 C   0  0  0  0  0  3  0  0  0  0  0  0
  -25.8240  -32.4750   23.6910 C   0  0  0  0  0  3  0  0  0  0  0  0
  -25.6080  -33.8720   24.0910 N   0  0  0  0  0  0  0  0  0  0  0  0
  -25.9930  -34.9340   23.3700 C   0  0  0  0  0  0  0  0  0  0  0  0
  -26.6360  -34.8370   22.3220 O   0  0  0  0  0  0  0  0  0  0  0  0
  -25.0400  -34.0280   24.9100 H   0  0  0  0  0  0  0  0  0  0  0  0
  -24.3870  -36.8490   23.1120 C   0  0  0  0  0  1  0  0  0  0  0  0
  -25.6010  -36.3270   23.8980 C   0  0  0  0  0  3  0  0  0  0  0  0
  -27.7900  -37.0230   24.7620 C   0  0  0  0  0  1  0  0  0  0  0  0
  -26.7010  -37.3120   23.8330 N   0  0  0  0  0  0  0  0  0  0  0  0
  -26.3580  -38.2480   24.0300 H   0  0  0  0  0  0  0  0  0  0  0  0
  -26.4330  -31.6390   24.8820 C   0  0  1  0  0  0  0  0  0  0  0  0
  -25.4360  -31.3850   26.0360 C   0  0  0  0  0  1  0  0  0  0  0  0
  -26.9410  -30.2680   24.3820 C   0  0  0  0  0  1  0  0  0  0  0  0
  -27.6620  -32.3770   25.4640 C   0  0  0  0  0  1  0  0  0  0  0  0
  -31.9390  -21.2640   24.6010 C   0  0  0  0  0  2  0  0  0  0  0  0
  -30.6130  -20.6970   25.1470 C   0  0  0  0  0  2  0  0  0  0  0  0
  -30.2860  -19.2620   24.6870 C   0  0  0  0  0  2  0  0  0  0  0  0
  -29.5610  -16.9320   25.3770 C   0  0  0  0  0  1  0  0  0  0  0  0
  -28.1000  -18.9050   25.9810 C   0  0  0  0  0  1  0  0  0  0  0  0
  -29.5430  -18.4230   25.7490 C   0  0  0  0  0  3  0  0  0  0  0  0
  1  4  1  0
  2  5  2  0
  2  3  1  0
  3  1  2  0
  4 96  1  0
  5  6  1  0
  6  4  2  0
  7  8  1  0
  8  9  1  0
  8  5  1  0
  9 10  1  0
 12 11  1  0
 12 10  1  0
 12 13  1  0
 14 22  1  0
 15 20  1  0
 16 17  1  0
 16 15  1  0
 18 17  1  0
 18 27  1  0
 18 19  1  0
 20 14  1  0
 20 19  1  0
 21 14  2  0
 22 13  1  0
 22 23  1  0
 24 25  2  0
 25 44  1  0
 26 25  1  0
 26 29  1  0
 27 24  1  0
 27 28  1  0
 28 26  2  0
 29 30  1  0
 30 31  2  0
 32 35  1  0
 32 31  1  0
 33 32  2  0
 34 33  1  0
 34 29  2  0
 35 36  1  0
 36 37  1  0
 37 38  2  0
 39 38  1  0
 39 43  1  0
 40 39  2  0
 41 36  2  0
 41 40  1  0
 42 41  1  0
 44 45  1  0
 45 48  1  0
 45 47  1  0
 46 44  2  0
 49 50  1  0
 49 24  1  0
 51 49  1  0
 52  3  1  0
 53 52  1  0
 54 53  1  0
 55 57  1  0
 55 54  1  0
 56 67  2  0
 57 62  1  0
 58 66  1  0
 58 68  1  0
 59 65  1  0
 59 61  1  0
 60 66  1  0
 61 60  1  0
 62 61  2  0
 63 64  1  0
 63 57  2  0
 64 59  2  0
 65 58  1  0
 66 56  1  0
 68 70  2  0
 69 68  1  0
 71 69  1  0
 72 81  2  0
 72 77  1  0
 73 69  1  0
 74 73  1  0
 75 76  1  0
 75 74  1  0
 76 72  1  0
 77 73  1  0
 77 78  2  0
 78 79  1  0
 80 79  2  0
 81 80  1  0
 82 56  1  0
 82 83  1  0
 82 92  1  0
 83 86  1  0
 84 88  1  0
 84 83  1  0
 85 84  2  0
 88 87  1  0
 90 88  1  0
 90 91  1  0
 90 89  1  0
 92 95  1  1
 92 93  1  0
 94 92  1  0
 96 97  1  0
 98 97  1  0
 98101  1  0
 99101  1  0
101100  1  0
M  ISO  4  14 100  22 100  54 101  55 101
M  END
>  <TORSDO>  (89) 
F 28

>  <SCORE>  (89) 
1.439

>  <name>  (89) 
89

>  <ligand_id>  (89) 
89

>  <original_smiles>  (89) 
[H]c1c([H])c([H])c2c(c1[H])C([H])([H])C([H])([H])C([H])([H])C2([H])N([H])C(=O)C1([H])N(C(=O)C([H])(N([H])C(=O)C([H])(N([H])C([H])([H])[H])C([H])([H])[H])C(C([H])([H])[H])(C([H])([H])[H])C([H])([H])[H])C([H])([H])c2c([H])c(OC([H])([H])C([H])([H])C([H])([H])c3c([H])c(N(C([H])([H])[H])C([H])([H])C([H])([H])C([H])(C([H])([H])[H])C([H])([H])N([H])C(=O)N4C([H])([H])C([H])([H])C([H])([H])C([H])(n5nc(-c6c([H])c([H])c(Oc7c([H])c([H])c(F)c([H])c7F)c([H])c6[H])c(C(=O)N([H])[H])c5N([H])[H])C4([H])[H])nc(C([H])([H])C([H])([H])C([H])([H])C([H])(C([H])([H])[H])C([H])([H])[H])c3[H])c([H])c([H])c2C1([H])[H]

>  <smiles>  (89) 
[H]c1c([H])c([H])c2c(c1[H])C([H])([H])C([H])([H])C([H])([H])C2([H])N([H])C(=O)C1([H])N(C(=O)C([H])(N([H])C(=O)C([H])(N([H])C([H])([H])[H])C([H])([H])[H])C(C([H])([H])[H])(C([H])([H])[H])C([H])([H])[H])C([H])([H])c2c([H])c(OC([H])([H])C([H])([H])C([H])([H])c3c([H])c(N(C([H])([H])[H])C([H])([H])C([H])([H])C([H])(C([H])([H])[H])C([H])([H])N([H])C(=O)N4C([H])([H])C([H])([H])C([H])([H])C([H])(n5nc(-c6c([H])c([H])c(Oc7c([H])c([H])c(F)c([H])c7F)c([H])c6[H])c(C(=O)N([H])[H])c5N([H])[H])C4([H])[H])nc(C([H])([H])C([H])([H])C([H])([H])C([H])(C([H])([H])[H])C([H])([H])[H])c3[H])c([H])c([H])c2C1([H])[H]

$$$$
90:0:0
     RDKit          3D

 95103  0  0  1  0  0  0  0  0999 V2000
  -27.9440  -21.1560   19.8110 C   0  0  0  0  0  3  0  0  0  0  0  0
  -29.5990  -20.1240   20.8630 C   0  0  0  0  0  3  0  0  0  0  0  0
  -29.1560  -21.3880   20.5090 C   0  0  0  0  0  0  0  0  0  0  0  0
  -27.6610  -19.8160   19.7540 C   0  0  0  0  0  0  0  0  0  0  0  0
  -28.7160  -19.1380   20.3980 N   0  0  0  0  0  0  0  0  0  0  0  0
  -26.8870  -18.6530   17.6790 C   0  0  0  0  0  1  0  0  0  0  0  0
  -25.3690  -20.2500   18.7780 C   0  0  0  0  0  1  0  0  0  0  0  0
  -25.7530  -18.0900   19.8890 C   0  0  0  0  0  1  0  0  0  0  0  0
  -26.4590  -19.1870   19.0560 C   0  0  2  0  0  0  0  0  0  0  0  0
  -31.0030  -22.6910   21.6760 C   0  0  0  0  0  1  0  0  0  0  0  0
  -29.7940  -22.7820   20.7250 C   0  0  0  0  0  3  0  0  0  0  0  0
  -28.5910  -24.0510   22.6250 C   0  0  0  0  0  1  0  0  0  0  0  0
  -28.7920  -23.9580   21.1010 C   0  0  0  0  0  3  0  0  0  0  0  0
  -29.1630  -25.3610   20.4910 C   0  0  0  0  0  2  0  0  0  0  0  0
  -28.7270  -26.5260   21.2450 O   0  0  0  0  0  0  0  0  0  0  0  0
  -24.4780  -31.8710   23.3370 C   0  0  0  0  0  0  0  0  0  0  0  0
  -27.5290  -27.1920   21.0140 C   0  0  0  0  0  0  0  0  0  0  0  0
  -23.4880  -30.2910   21.7110 C   0  0  0  0  0  3  0  0  0  0  0  0
  -25.1180  -28.6550   20.6140 C   0  0  0  0  0  0  0  0  0  0  0  0
  -26.0180  -30.6810   21.7700 C   0  0  0  0  0  2  0  0  0  0  0  0
  -26.1940  -29.2550   21.2780 C   0  0  0  0  0  0  0  0  0  0  0  0
  -27.3950  -28.5290   21.4740 C   0  0  0  0  0  3  0  0  0  0  0  0
  -26.4240  -26.6080   20.3540 C   0  0  0  0  0  3  0  0  0  0  0  0
  -25.2300  -27.3310   20.1520 C   0  0  0  0  0  3  0  0  0  0  0  0
  -23.8620  -29.4830   20.4390 C   0  0  0  0  0  2  0  0  0  0  0  0
  -24.6730  -30.9700   22.3310 N   0  0  0  0  0  0  0  0  0  0  0  0
  -23.3370  -32.1660   23.7200 O   0  0  0  0  0  0  0  0  0  0  0  0
  -22.7400  -29.3540   22.6870 C   0  0  0  0  0  0  0  0  0  0  0  0
  -21.4320  -29.1650   22.4540 N   0  0  0  0  0  0  0  0  0  0  0  0
  -23.3420  -28.7940   23.6080 O   0  0  0  0  0  0  0  0  0  0  0  0
  -21.0100  -29.6660   21.6850 H   0  0  0  0  0  0  0  0  0  0  0  0
  -17.9960  -28.0980   22.8040 C   0  0  0  0  0  0  0  0  0  0  0  0
  -20.5410  -28.2900   23.2170 C   0  0  0  0  0  3  0  0  0  0  0  0
  -20.6290  -26.8310   22.7130 C   0  0  0  0  0  2  0  0  0  0  0  0
  -19.5780  -26.4960   21.6500 C   0  0  0  0  0  2  0  0  0  0  0  0
  -18.1660  -26.7140   22.2020 C   0  0  0  0  0  2  0  0  0  0  0  0
  -19.1130  -28.8450   23.2660 C   0  0  0  0  0  0  0  0  0  0  0  0
  -18.9030  -30.1420   23.7840 C   0  0  0  0  0  3  0  0  0  0  0  0
  -17.6090  -30.6920   23.8460 C   0  0  0  0  0  3  0  0  0  0  0  0
  -16.5060  -29.9430   23.4020 C   0  0  0  0  0  3  0  0  0  0  0  0
  -16.7000  -28.6480   22.8890 C   0  0  0  0  0  3  0  0  0  0  0  0
  -25.6730  -32.5900   24.0360 C   0  0  0  0  0  3  0  0  0  0  0  0
  -25.2960  -33.9980   24.2220 N   0  0  0  0  0  0  0  0  0  0  0  0
  -25.6770  -35.0000   23.4190 C   0  0  0  0  0  0  0  0  0  0  0  0
  -26.4510  -34.8410   22.4700 O   0  0  0  0  0  0  0  0  0  0  0  0
  -24.6170  -34.1920   24.9430 H   0  0  0  0  0  0  0  0  0  0  0  0
  -23.9410  -36.6960   22.7640 C   0  0  0  0  0  1  0  0  0  0  0  0
  -25.1120  -36.4020   23.7150 C   0  0  0  0  0  3  0  0  0  0  0  0
  -27.1370  -37.4200   24.6560 C   0  0  0  0  0  1  0  0  0  0  0  0
  -26.1210  -37.4790   23.6110 N   0  0  0  0  0  0  0  0  0  0  0  0
  -25.6780  -38.3930   23.6490 H   0  0  0  0  0  0  0  0  0  0  0  0
  -26.0720  -31.9350   25.4150 C   0  0  1  0  0  0  0  0  0  0  0  0
  -24.8710  -31.7010   26.3610 C   0  0  0  0  0  1  0  0  0  0  0  0
  -26.7710  -30.5740   25.1910 C   0  0  0  0  0  1  0  0  0  0  0  0
  -27.0880  -32.8400   26.1510 C   0  0  0  0  0  1  0  0  0  0  0  0
  -28.7900  -17.6600   20.6040 C   0  0  0  0  0  2  0  0  0  0  0  0
  -30.1330  -16.8660   20.4680 C   0  0  0  0  0  2  0  0  0  0  0  0
  -30.7900  -14.3900   20.7770 C   0  0  0  0  0  0  0  0  0  0  0  0
  -30.6360  -12.0560   19.9790 C   0  0  0  0  0  2  0  0  0  0  0  0
  -29.7970  -12.0620   18.6820 C   0  0  0  0  0  2  0  0  0  0  0  0
  -28.2910  -11.9730   18.9990 C   0  0  0  0  0  2  0  0  0  0  0  0
  -27.8480  -12.9780   20.0940 C   0  0  0  0  0  3  0  0  0  0  0  0
  -28.8040  -12.9290   21.3080 C   0  0  0  0  0  2  0  0  0  0  0  0
  -30.1690  -13.1760   20.8140 N   0  0  0  0  0  0  0  0  0  0  0  0
  -31.9660  -14.5250   20.4270 O   0  0  0  0  0  0  0  0  0  0  0  0
  -29.9630  -15.4560   20.9270 N   0  0  0  0  0  0  0  0  0  0  0  0
  -29.0360  -15.2110   21.2390 H   0  0  0  0  0  0  0  0  0  0  0  0
  -25.4440  -13.7040   20.6530 C   0  0  0  0  0  0  0  0  0  0  0  0
  -24.3170  -12.9930   20.9570 C   0  0  0  0  0  0  0  0  0  0  0  0
  -24.7090  -11.6200   20.9520 C   0  0  0  0  0  0  0  0  0  0  0  0
  -26.4550  -12.7730   20.4870 N   0  0  0  0  0  0  0  0  0  0  0  0
  -26.0120  -11.5110   20.7240 N   0  0  0  0  0  0  0  0  0  0  0  0
  -23.9080  -10.3980   21.0910 C   0  0  0  0  0  0  0  0  0  0  0  0
  -24.1810   -9.4490   22.1000 C   0  0  0  0  0  3  0  0  0  0  0  0
  -23.3860   -8.2910   22.2260 C   0  0  0  0  0  3  0  0  0  0  0  0
  -22.3020   -8.0750   21.3420 C   0  0  0  0  0  0  0  0  0  0  0  0
  -22.0480   -9.0130   20.3250 C   0  0  0  0  0  3  0  0  0  0  0  0
  -22.8450  -10.1620   20.1970 C   0  0  0  0  0  3  0  0  0  0  0  0
  -21.4890   -6.9680   21.3730 O   0  0  0  0  0  0  0  0  0  0  0  0
  -21.2160   -6.3100   22.5450 C   0  0  0  0  0  0  0  0  0  0  0  0
  -20.6180   -6.9650   23.6440 C   0  0  0  0  0  3  0  0  0  0  0  0
  -20.2910   -6.2360   24.8050 C   0  0  0  0  0  3  0  0  0  0  0  0
  -20.5500   -4.8540   24.8650 C   0  0  0  0  0  0  0  0  0  0  0  0
  -21.1420   -4.2000   23.7700 C   0  0  0  0  0  3  0  0  0  0  0  0
  -21.4700   -4.9270   22.6130 C   0  0  0  0  0  0  0  0  0  0  0  0
  -22.0210   -4.2880   21.5520 F   0  0  0  0  0  0  0  0  0  0  0  0
  -20.2300   -4.1510   25.9760 F   0  0  0  0  0  0  0  0  0  0  0  0
  -22.9330  -13.5470   21.1410 C   0  0  0  0  0  0  0  0  0  0  0  0
  -22.1210  -12.9030   21.9730 N   0  0  0  0  0  0  0  0  0  0  0  0
  -22.5790  -14.5850   20.5830 O   0  0  0  0  0  0  0  0  0  0  0  0
  -22.4160  -12.0640   22.4490 H   0  0  0  0  0  0  0  0  0  0  0  0
  -21.1890  -13.2570   22.1370 H   0  0  0  0  0  0  0  0  0  0  0  0
  -25.6870  -15.0590   20.4810 N   0  0  0  0  0  0  0  0  0  0  0  0
  -24.9320  -15.7350   20.5040 H   0  0  0  0  0  0  0  0  0  0  0  0
  -26.5550  -15.4430   20.1340 H   0  0  0  0  0  0  0  0  0  0  0  0
  1  3  1  0
  3 11  1  0
  3  2  2  0
  4  1  2  0
  4  5  1  0
  5 56  1  0
  5  2  1  0
  9  6  1  6
  7  9  1  0
  9  4  1  0
  9  8  1  0
 11 13  1  0
 11 10  1  0
 13 12  1  0
 14 13  1  0
 14 15  1  0
 16 27  2  0
 17 15  1  0
 17 22  1  0
 18 26  1  0
 18 28  1  0
 19 21  1  0
 20 26  1  0
 21 22  2  0
 21 20  1  0
 23 17  2  0
 24 23  1  0
 24 19  2  0
 25 19  1  0
 25 18  1  0
 26 16  1  0
 28 30  2  0
 29 28  1  0
 31 29  1  0
 32 41  2  0
 32 37  1  0
 33 29  1  0
 33 37  1  0
 34 33  1  0
 35 36  1  0
 35 34  1  0
 36 32  1  0
 37 38  2  0
 38 39  1  0
 40 39  2  0
 41 40  1  0
 42 16  1  0
 42 43  1  0
 42 52  1  0
 43 46  1  0
 44 48  1  0
 44 43  1  0
 45 44  2  0
 48 47  1  0
 50 51  1  0
 50 48  1  0
 50 49  1  0
 52 55  1  1
 52 53  1  0
 54 52  1  0
 57 56  1  0
 57 66  1  0
 58 64  1  0
 58 66  1  0
 59 64  1  0
 60 61  1  0
 60 59  1  0
 62 61  1  0
 62 71  1  0
 62 63  1  0
 64 63  1  0
 65 58  2  0
 66 67  1  0
 68 69  2  0
 69 88  1  0
 70 69  1  0
 70 73  1  0
 71 68  1  0
 71 72  1  0
 72 70  2  0
 73 74  1  0
 74 75  2  0
 76 79  1  0
 76 75  1  0
 77 76  2  0
 78 77  1  0
 78 73  2  0
 79 80  1  0
 80 85  2  0
 80 81  1  0
 81 82  2  0
 82 83  1  0
 83 87  1  0
 84 83  2  0
 85 84  1  0
 86 85  1  0
 88 89  1  0
 89 92  1  0
 89 91  1  0
 90 88  2  0
 93 94  1  0
 93 68  1  0
 95 93  1  0
M  ISO  4  14 101  15 101  58 100  66 100
M  END
>  <TORSDO>  (90) 
F 22

>  <SCORE>  (90) 
-10.603

>  <name>  (90) 
90

>  <ligand_id>  (90) 
90

>  <original_smiles>  (90) 
[H]c1c([H])c([H])c2c(c1[H])C([H])([H])C([H])([H])C([H])([H])C2([H])N([H])C(=O)C1([H])N(C(=O)C([H])(N([H])C(=O)C([H])(N([H])C([H])([H])[H])C([H])([H])[H])C(C([H])([H])[H])(C([H])([H])[H])C([H])([H])[H])C([H])([H])c2c([H])c(OC([H])([H])C([H])(C([H])([H])[H])C([H])(c3c([H])c(C(C([H])([H])[H])(C([H])([H])[H])C([H])([H])[H])n(C([H])([H])C([H])([H])N([H])C(=O)N4C([H])([H])C([H])([H])C([H])([H])C([H])(n5nc(-c6c([H])c([H])c(Oc7c([H])c([H])c(F)c([H])c7F)c([H])c6[H])c(C(=O)N([H])[H])c5N([H])[H])C4([H])[H])c3[H])C([H])([H])[H])c([H])c([H])c2C1([H])[H]

>  <smiles>  (90) 
[H]c1c([H])c([H])c2c(c1[H])C([H])([H])C([H])([H])C([H])([H])C2([H])N([H])C(=O)C1([H])N(C(=O)C([H])(N([H])C(=O)C([H])(N([H])C([H])([H])[H])C([H])([H])[H])C(C([H])([H])[H])(C([H])([H])[H])C([H])([H])[H])C([H])([H])c2c([H])c(OC([H])([H])C([H])(C([H])([H])[H])C([H])(c3c([H])c(C(C([H])([H])[H])(C([H])([H])[H])C([H])([H])[H])n(C([H])([H])C([H])([H])N([H])C(=O)N4C([H])([H])C([H])([H])C([H])([H])C([H])(n5nc(-c6c([H])c([H])c(Oc7c([H])c([H])c(F)c([H])c7F)c([H])c6[H])c(C(=O)N([H])[H])c5N([H])[H])C4([H])[H])c3[H])C([H])([H])[H])c([H])c([H])c2C1([H])[H]

$$$$
91:0:0
     RDKit          3D

 95103  0  0  1  0  0  0  0  0999 V2000
  -28.9140  -21.2930   19.4660 C   0  0  0  0  0  3  0  0  0  0  0  0
  -29.5970  -20.0910   19.2280 C   0  0  0  0  0  3  0  0  0  0  0  0
  -27.5180  -21.3390   19.2810 C   0  0  0  0  0  0  0  0  0  0  0  0
  -28.8670  -18.9640   18.8130 C   0  0  0  0  0  0  0  0  0  0  0  0
  -26.8800  -20.1640   18.8020 C   0  0  0  0  0  0  0  0  0  0  0  0
  -27.5440  -19.0090   18.5770 N   0  0  0  0  0  0  0  0  0  0  0  0
  -25.1780  -20.3650   16.9440 C   0  0  0  0  0  1  0  0  0  0  0  0
  -25.4010  -20.1020   18.4420 C   0  0  0  0  0  2  0  0  0  0  0  0
  -26.7000  -22.5930   19.6040 C   0  0  0  0  0  2  0  0  0  0  0  0
  -27.3720  -23.9910   19.5660 C   0  0  0  0  0  2  0  0  0  0  0  0
  -28.5460  -23.5370   21.8360 C   0  0  0  0  0  1  0  0  0  0  0  0
  -28.5310  -24.3640   20.5370 C   0  0  0  0  0  3  0  0  0  0  0  0
  -28.5440  -25.8750   20.8950 C   0  0  0  0  0  2  0  0  0  0  0  0
  -28.3560  -26.7360   19.7680 O   0  0  0  0  0  0  0  0  0  0  0  0
  -24.6800  -31.8260   23.1520 C   0  0  0  0  0  0  0  0  0  0  0  0
  -27.2150  -27.4980   19.8430 C   0  0  0  0  0  0  0  0  0  0  0  0
  -23.4170  -30.4730   21.5110 C   0  0  0  0  0  3  0  0  0  0  0  0
  -24.8210  -28.9820   19.9940 C   0  0  0  0  0  0  0  0  0  0  0  0
  -25.9320  -30.8410   21.2400 C   0  0  0  0  0  2  0  0  0  0  0  0
  -25.9950  -29.4880   20.5660 C   0  0  0  0  0  0  0  0  0  0  0  0
  -27.1960  -28.7450   20.5040 C   0  0  0  0  0  3  0  0  0  0  0  0
  -26.0370  -27.0200   19.2390 C   0  0  0  0  0  3  0  0  0  0  0  0
  -24.8320  -27.7410   19.3360 C   0  0  0  0  0  3  0  0  0  0  0  0
  -23.5770  -29.8330   20.1070 C   0  0  0  0  0  2  0  0  0  0  0  0
  -24.6960  -31.0590   22.0250 N   0  0  0  0  0  0  0  0  0  0  0  0
  -23.6180  -32.0790   23.7380 O   0  0  0  0  0  0  0  0  0  0  0  0
  -22.8000  -29.4230   22.4620 C   0  0  0  0  0  0  0  0  0  0  0  0
  -21.4760  -29.2240   22.3530 N   0  0  0  0  0  0  0  0  0  0  0  0
  -23.5050  -28.7910   23.2520 O   0  0  0  0  0  0  0  0  0  0  0  0
  -20.9660  -29.7870   21.6860 H   0  0  0  0  0  0  0  0  0  0  0  0
  -18.1330  -27.9680   22.8840 C   0  0  0  0  0  0  0  0  0  0  0  0
  -20.6880  -28.2590   23.1190 C   0  0  0  0  0  3  0  0  0  0  0  0
  -20.8020  -26.8410   22.5160 C   0  0  0  0  0  2  0  0  0  0  0  0
  -19.6910  -26.5280   21.5080 C   0  0  0  0  0  2  0  0  0  0  0  0
  -18.3190  -26.6350   22.1810 C   0  0  0  0  0  2  0  0  0  0  0  0
  -19.2460  -28.7390   23.3120 C   0  0  0  0  0  0  0  0  0  0  0  0
  -19.0200  -29.9890   23.9280 C   0  0  0  0  0  3  0  0  0  0  0  0
  -17.7110  -30.4680   24.1250 C   0  0  0  0  0  3  0  0  0  0  0  0
  -16.6120  -29.6950   23.7130 C   0  0  0  0  0  3  0  0  0  0  0  0
  -16.8240  -28.4470   23.0980 C   0  0  0  0  0  3  0  0  0  0  0  0
  -25.9870  -32.4380   23.7440 C   0  0  0  0  0  3  0  0  0  0  0  0
  -25.6890  -33.8220   24.1340 N   0  0  0  0  0  0  0  0  0  0  0  0
  -25.9680  -34.8990   23.3880 C   0  0  0  0  0  0  0  0  0  0  0  0
  -26.5760  -34.8330   22.3160 O   0  0  0  0  0  0  0  0  0  0  0  0
  -25.1480  -33.9440   24.9770 H   0  0  0  0  0  0  0  0  0  0  0  0
  -24.2010  -36.6800   23.1940 C   0  0  0  0  0  1  0  0  0  0  0  0
  -25.4950  -36.2670   23.9140 C   0  0  0  0  0  3  0  0  0  0  0  0
  -27.6640  -37.1640   24.6360 C   0  0  0  0  0  1  0  0  0  0  0  0
  -26.5070  -37.3360   23.7630 N   0  0  0  0  0  0  0  0  0  0  0  0
  -26.0980  -38.2460   23.9540 H   0  0  0  0  0  0  0  0  0  0  0  0
  -26.5590  -31.6210   24.9670 C   0  0  1  0  0  0  0  0  0  0  0  0
  -25.5120  -31.3370   26.0700 C   0  0  0  0  0  1  0  0  0  0  0  0
  -27.1340  -30.2640   24.4970 C   0  0  0  0  0  1  0  0  0  0  0  0
  -27.7300  -32.3970   25.6140 C   0  0  0  0  0  1  0  0  0  0  0  0
  -29.5590  -17.6290   18.5840 C   0  0  0  0  0  2  0  0  0  0  0  0
  -30.0890  -17.2440   21.0800 C   0  0  0  0  0  1  0  0  0  0  0  0
  -29.5380  -16.6330   19.7760 C   0  0  0  0  0  3  0  0  0  0  0  0
  -30.9420  -14.5530   20.1090 C   0  0  0  0  0  0  0  0  0  0  0  0
  -30.6280  -12.2580   19.3700 C   0  0  0  0  0  2  0  0  0  0  0  0
  -29.6970  -12.3150   18.1390 C   0  0  0  0  0  2  0  0  0  0  0  0
  -28.2230  -12.2350   18.5770 C   0  0  0  0  0  2  0  0  0  0  0  0
  -27.8670  -13.2450   19.7010 C   0  0  0  0  0  3  0  0  0  0  0  0
  -28.9290  -13.2410   20.8300 C   0  0  0  0  0  2  0  0  0  0  0  0
  -30.2540  -13.3910   20.2170 N   0  0  0  0  0  0  0  0  0  0  0  0
  -32.1580  -14.6080   19.9560 O   0  0  0  0  0  0  0  0  0  0  0  0
  -30.2860  -15.4410   19.3620 N   0  0  0  0  0  0  0  0  0  0  0  0
  -30.8520  -15.6450   18.5530 H   0  0  0  0  0  0  0  0  0  0  0  0
  -25.5170  -13.9490   20.4840 C   0  0  0  0  0  0  0  0  0  0  0  0
  -24.4230  -13.2160   20.8620 C   0  0  0  0  0  0  0  0  0  0  0  0
  -24.8260  -11.8480   20.8060 C   0  0  0  0  0  0  0  0  0  0  0  0
  -26.5170  -13.0250   20.2170 N   0  0  0  0  0  0  0  0  0  0  0  0
  -26.1080  -11.7570   20.4760 N   0  0  0  0  0  0  0  0  0  0  0  0
  -24.0490  -10.6170   20.9880 C   0  0  0  0  0  0  0  0  0  0  0  0
  -24.4530   -9.6120   21.8950 C   0  0  0  0  0  3  0  0  0  0  0  0
  -23.6740   -8.4450   22.0630 C   0  0  0  0  0  3  0  0  0  0  0  0
  -22.4800   -8.2740   21.3220 C   0  0  0  0  0  0  0  0  0  0  0  0
  -22.0960   -9.2660   20.4010 C   0  0  0  0  0  3  0  0  0  0  0  0
  -22.8750  -10.4240   20.2320 C   0  0  0  0  0  3  0  0  0  0  0  0
  -21.6750   -7.1630   21.4040 O   0  0  0  0  0  0  0  0  0  0  0  0
  -21.6070   -6.4040   22.5450 C   0  0  0  0  0  0  0  0  0  0  0  0
  -21.2160   -6.9560   23.7830 C   0  0  0  0  0  3  0  0  0  0  0  0
  -21.0900   -6.1280   24.9170 C   0  0  0  0  0  3  0  0  0  0  0  0
  -21.3470   -4.7490   24.8140 C   0  0  0  0  0  0  0  0  0  0  0  0
  -21.7320   -4.1940   23.5800 C   0  0  0  0  0  3  0  0  0  0  0  0
  -21.8590   -5.0200   22.4480 C   0  0  0  0  0  0  0  0  0  0  0  0
  -22.2080   -4.4760   21.2580 F   0  0  0  0  0  0  0  0  0  0  0  0
  -21.2220   -3.9510   25.9010 F   0  0  0  0  0  0  0  0  0  0  0  0
  -23.0520  -13.7490   21.1660 C   0  0  0  0  0  0  0  0  0  0  0  0
  -22.3210  -13.0830   22.0530 N   0  0  0  0  0  0  0  0  0  0  0  0
  -22.6410  -14.7890   20.6540 O   0  0  0  0  0  0  0  0  0  0  0  0
  -22.6650  -12.2340   22.4770 H   0  0  0  0  0  0  0  0  0  0  0  0
  -21.4050  -13.4200   22.3100 H   0  0  0  0  0  0  0  0  0  0  0  0
  -25.7410  -15.3120   20.3210 N   0  0  0  0  0  0  0  0  0  0  0  0
  -25.0180  -16.0130   20.4440 H   0  0  0  0  0  0  0  0  0  0  0  0
  -26.6120  -15.7050   19.9920 H   0  0  0  0  0  0  0  0  0  0  0  0
  2  1  2  0
  3  1  1  0
  3  9  1  0
  4  2  1  0
  5  3  2  0
  6  5  1  0
  6  4  2  0
  7  8  1  0
  8  5  1  0
 10  9  1  0
 10 12  1  0
 12 13  1  0
 12 11  1  0
 14 16  1  0
 14 13  1  0
 15 26  2  0
 16 21  1  0
 17 25  1  0
 17 27  1  0
 18 24  1  0
 18 20  1  0
 19 25  1  0
 20 19  1  0
 21 20  2  0
 22 23  1  0
 22 16  2  0
 23 18  2  0
 24 17  1  0
 25 15  1  0
 27 29  2  0
 28 27  1  0
 30 28  1  0
 31 40  2  0
 31 36  1  0
 32 28  1  0
 32 36  1  0
 33 32  1  0
 34 35  1  0
 34 33  1  0
 35 31  1  0
 36 37  2  0
 37 38  1  0
 39 38  2  0
 40 39  1  0
 41 15  1  0
 41 42  1  0
 41 51  1  0
 42 45  1  0
 43 47  1  0
 43 42  1  0
 44 43  2  0
 47 46  1  0
 49 47  1  0
 49 50  1  0
 49 48  1  0
 51 54  1  1
 51 52  1  0
 53 51  1  0
 55  4  1  0
 55 57  1  0
 57 56  1  0
 58 64  1  0
 59 64  1  0
 60 61  1  0
 60 59  1  0
 62 61  1  0
 62 71  1  0
 62 63  1  0
 64 63  1  0
 65 58  2  0
 66 57  1  0
 66 58  1  0
 67 66  1  0
 68 69  2  0
 69 88  1  0
 70 69  1  0
 70 73  1  0
 71 72  1  0
 71 68  1  0
 72 70  2  0
 73 74  1  0
 74 75  2  0
 76 79  1  0
 76 75  1  0
 77 76  2  0
 78 77  1  0
 78 73  2  0
 79 80  1  0
 80 81  1  0
 81 82  2  0
 83 82  1  0
 83 87  1  0
 84 83  2  0
 85 80  2  0
 85 84  1  0
 86 85  1  0
 88 89  1  0
 89 92  1  0
 89 91  1  0
 90 88  2  0
 93 94  1  0
 93 68  1  0
 95 93  1  0
M  ISO  4  13 101  14 101  58 100  66 100
M  END
>  <TORSDO>  (91) 
F 23

>  <SCORE>  (91) 
-12.356

>  <name>  (91) 
91

>  <ligand_id>  (91) 
91

>  <original_smiles>  (91) 
[H]c1c(C([H])([H])C([H])(N([H])C(=O)N2C([H])([H])C([H])([H])C([H])([H])C([H])(n3nc(-c4c([H])c([H])c(Oc5c([H])c([H])c(F)c([H])c5F)c([H])c4[H])c(C(=O)N([H])[H])c3N([H])[H])C2([H])[H])C([H])([H])[H])nc(C([H])([H])C([H])([H])[H])c(C([H])([H])C([H])([H])C([H])(C([H])([H])[H])C([H])([H])Oc2c([H])c([H])c3c(c2[H])C([H])([H])N(C(=O)C([H])(N([H])C(=O)C([H])(N([H])C([H])([H])[H])C([H])([H])[H])C(C([H])([H])[H])(C([H])([H])[H])C([H])([H])[H])C([H])(C(=O)N([H])C2([H])c4c([H])c([H])c([H])c([H])c4C([H])([H])C([H])([H])C2([H])[H])C3([H])[H])c1[H]

>  <smiles>  (91) 
[H]c1c(C([H])([H])C([H])(N([H])C(=O)N2C([H])([H])C([H])([H])C([H])([H])C([H])(n3nc(-c4c([H])c([H])c(Oc5c([H])c([H])c(F)c([H])c5F)c([H])c4[H])c(C(=O)N([H])[H])c3N([H])[H])C2([H])[H])C([H])([H])[H])nc(C([H])([H])C([H])([H])[H])c(C([H])([H])C([H])([H])C([H])(C([H])([H])[H])C([H])([H])Oc2c([H])c([H])c3c(c2[H])C([H])([H])N(C(=O)C([H])(N([H])C(=O)C([H])(N([H])C([H])([H])[H])C([H])([H])[H])C(C([H])([H])[H])(C([H])([H])[H])C([H])([H])[H])C([H])(C(=O)N([H])C2([H])c4c([H])c([H])c([H])c([H])c4C([H])([H])C([H])([H])C2([H])[H])C3([H])[H])c1[H]

$$$$
92:0:0
     RDKit          3D

 95103  0  0  1  0  0  0  0  0999 V2000
  -28.7240  -23.1460   21.9930 C   0  0  0  0  0  3  0  0  0  0  0  0
  -29.0850  -21.8200   21.7070 C   0  0  0  0  0  0  0  0  0  0  0  0
  -30.3060  -21.5930   21.0180 C   0  0  0  0  0  0  0  0  0  0  0  0
  -29.5670  -24.1830   21.5750 C   0  0  0  0  0  0  0  0  0  0  0  0
  -31.1650  -22.6990   20.8040 C   0  0  0  0  0  0  0  0  0  0  0  0
  -28.0850  -20.7250   22.0350 C   0  0  0  0  0  1  0  0  0  0  0  0
  -32.5030  -22.5700   20.1060 C   0  0  0  0  0  1  0  0  0  0  0  0
  -30.7990  -23.9670   21.0750 N   0  0  0  0  0  0  0  0  0  0  0  0
  -30.5630  -20.2850   20.2690 C   0  0  0  0  0  2  0  0  0  0  0  0
  -30.8950  -19.0000   21.0540 C   0  0  0  0  0  2  0  0  0  0  0  0
  -29.1670  -17.4580   19.9720 C   0  0  0  0  0  1  0  0  0  0  0  0
  -31.4100  -17.8360   18.8590 C   0  0  0  0  0  1  0  0  0  0  0  0
  -30.6800  -17.6920   20.2260 C   0  0  1  0  0  0  0  0  0  0  0  0
  -31.2740  -16.5030   21.0470 C   0  0  0  0  0  2  0  0  0  0  0  0
  -31.0120  -14.3220   19.8130 C   0  0  0  0  0  0  0  0  0  0  0  0
  -30.5540  -12.1600   18.7410 C   0  0  0  0  0  2  0  0  0  0  0  0
  -29.5370  -12.2930   17.5950 C   0  0  0  0  0  2  0  0  0  0  0  0
  -28.0950  -12.1820   18.1270 C   0  0  0  0  0  2  0  0  0  0  0  0
  -27.8340  -13.1020   19.3520 C   0  0  0  0  0  3  0  0  0  0  0  0
  -28.9580  -12.9600   20.4020 C   0  0  0  0  0  2  0  0  0  0  0  0
  -30.2610  -13.1940   19.7450 N   0  0  0  0  0  0  0  0  0  0  0  0
  -31.9730  -14.5310   19.0710 O   0  0  0  0  0  0  0  0  0  0  0  0
  -30.6810  -15.1810   20.7820 N   0  0  0  0  0  0  0  0  0  0  0  0
  -29.9390  -14.8760   21.3960 H   0  0  0  0  0  0  0  0  0  0  0  0
  -25.5050  -13.7570   20.2530 C   0  0  0  0  0  0  0  0  0  0  0  0
  -24.4540  -13.0030   20.7140 C   0  0  0  0  0  0  0  0  0  0  0  0
  -24.8850  -11.6440   20.6460 C   0  0  0  0  0  0  0  0  0  0  0  0
  -26.5120  -12.8550   19.9360 N   0  0  0  0  0  0  0  0  0  0  0  0
  -26.1430  -11.5780   20.2220 N   0  0  0  0  0  0  0  0  0  0  0  0
  -24.1490  -10.3960   20.9070 C   0  0  0  0  0  0  0  0  0  0  0  0
  -24.5690   -9.4880   21.9040 C   0  0  0  0  0  3  0  0  0  0  0  0
  -23.8390   -8.3050   22.1490 C   0  0  0  0  0  3  0  0  0  0  0  0
  -22.6750   -8.0220   21.3950 C   0  0  0  0  0  0  0  0  0  0  0  0
  -22.2710   -8.9190   20.3930 C   0  0  0  0  0  3  0  0  0  0  0  0
  -23.0010  -10.0940   20.1470 C   0  0  0  0  0  3  0  0  0  0  0  0
  -21.9180   -6.8840   21.5420 O   0  0  0  0  0  0  0  0  0  0  0  0
  -21.7740   -6.2670   22.7580 C   0  0  0  0  0  0  0  0  0  0  0  0
  -21.2200   -6.9340   23.8730 C   0  0  0  0  0  3  0  0  0  0  0  0
  -21.0270   -6.2430   25.0840 C   0  0  0  0  0  3  0  0  0  0  0  0
  -21.3800   -4.8830   25.1830 C   0  0  0  0  0  0  0  0  0  0  0  0
  -21.9280   -4.2140   24.0740 C   0  0  0  0  0  3  0  0  0  0  0  0
  -22.1210   -4.9040   22.8650 C   0  0  0  0  0  0  0  0  0  0  0  0
  -22.6300   -4.2510   21.7930 F   0  0  0  0  0  0  0  0  0  0  0  0
  -21.1860   -4.2160   26.3450 F   0  0  0  0  0  0  0  0  0  0  0  0
  -23.0950  -13.5130   21.1010 C   0  0  0  0  0  0  0  0  0  0  0  0
  -22.4230  -12.8350   22.0290 N   0  0  0  0  0  0  0  0  0  0  0  0
  -22.6370  -14.5470   20.6200 O   0  0  0  0  0  0  0  0  0  0  0  0
  -22.8060  -12.0040   22.4530 H   0  0  0  0  0  0  0  0  0  0  0  0
  -21.5130  -13.1630   22.3210 H   0  0  0  0  0  0  0  0  0  0  0  0
  -25.6720  -15.1240   20.0650 N   0  0  0  0  0  0  0  0  0  0  0  0
  -24.9210  -15.7780   20.2450 H   0  0  0  0  0  0  0  0  0  0  0  0
  -26.5040  -15.5670   19.6910 H   0  0  0  0  0  0  0  0  0  0  0  0
  -29.0070  -25.5740   21.3890 C   0  0  0  0  0  2  0  0  0  0  0  0
  -28.4400  -25.6850   19.9550 C   0  0  0  0  0  2  0  0  0  0  0  0
  -28.2860  -27.0370   19.5610 O   0  0  0  0  0  0  0  0  0  0  0  0
  -24.5100  -31.8410   23.1290 C   0  0  0  0  0  0  0  0  0  0  0  0
  -27.0600  -27.6260   19.7180 C   0  0  0  0  0  0  0  0  0  0  0  0
  -23.2390  -30.5300   21.4570 C   0  0  0  0  0  3  0  0  0  0  0  0
  -24.6430  -29.0650   19.9060 C   0  0  0  0  0  0  0  0  0  0  0  0
  -25.7490  -30.9180   21.1770 C   0  0  0  0  0  2  0  0  0  0  0  0
  -25.8140  -29.5840   20.4700 C   0  0  0  0  0  0  0  0  0  0  0  0
  -27.0240  -28.8710   20.3660 C   0  0  0  0  0  3  0  0  0  0  0  0
  -25.8710  -27.0940   19.1650 C   0  0  0  0  0  3  0  0  0  0  0  0
  -24.6610  -27.8160   19.2570 C   0  0  0  0  0  3  0  0  0  0  0  0
  -23.3950  -29.9100   20.0400 C   0  0  0  0  0  2  0  0  0  0  0  0
  -24.5200  -31.1080   21.9810 N   0  0  0  0  0  0  0  0  0  0  0  0
  -23.4520  -32.0800   23.7280 O   0  0  0  0  0  0  0  0  0  0  0  0
  -22.6320  -29.4560   22.3850 C   0  0  0  0  0  0  0  0  0  0  0  0
  -21.3190  -29.2210   22.2400 N   0  0  0  0  0  0  0  0  0  0  0  0
  -23.3390  -28.8350   23.1820 O   0  0  0  0  0  0  0  0  0  0  0  0
  -20.8180  -29.7780   21.5640 H   0  0  0  0  0  0  0  0  0  0  0  0
  -18.0090  -27.8290   22.6150 C   0  0  0  0  0  0  0  0  0  0  0  0
  -20.5360  -28.2260   22.9690 C   0  0  0  0  0  3  0  0  0  0  0  0
  -20.7380  -26.8130   22.3750 C   0  0  0  0  0  2  0  0  0  0  0  0
  -19.6870  -26.4430   21.3230 C   0  0  0  0  0  2  0  0  0  0  0  0
  -18.2800  -26.5020   21.9260 C   0  0  0  0  0  2  0  0  0  0  0  0
  -19.0680  -28.6470   23.0880 C   0  0  0  0  0  0  0  0  0  0  0  0
  -18.7620  -29.8900   23.6850 C   0  0  0  0  0  3  0  0  0  0  0  0
  -17.4270  -30.3160   23.8150 C   0  0  0  0  0  3  0  0  0  0  0  0
  -16.3800  -29.4970   23.3590 C   0  0  0  0  0  3  0  0  0  0  0  0
  -16.6720  -28.2550   22.7670 C   0  0  0  0  0  3  0  0  0  0  0  0
  -25.8220  -32.4360   23.7330 C   0  0  0  0  0  3  0  0  0  0  0  0
  -25.5390  -33.8220   24.1310 N   0  0  0  0  0  0  0  0  0  0  0  0
  -25.8690  -34.9030   23.4110 C   0  0  0  0  0  0  0  0  0  0  0  0
  -26.5220  -34.8380   22.3660 O   0  0  0  0  0  0  0  0  0  0  0  0
  -24.9690  -33.9460   24.9540 H   0  0  0  0  0  0  0  0  0  0  0  0
  -24.1520  -36.7200   23.1610 C   0  0  0  0  0  1  0  0  0  0  0  0
  -25.4010  -36.2740   23.9350 C   0  0  0  0  0  3  0  0  0  0  0  0
  -27.5520  -37.1050   24.7780 C   0  0  0  0  0  1  0  0  0  0  0  0
  -26.4440  -37.3200   23.8500 N   0  0  0  0  0  0  0  0  0  0  0  0
  -26.0510  -38.2390   24.0370 H   0  0  0  0  0  0  0  0  0  0  0  0
  -26.3760  -31.6060   24.9550 C   0  0  1  0  0  0  0  0  0  0  0  0
  -25.3050  -31.2960   26.0260 C   0  0  0  0  0  1  0  0  0  0  0  0
  -26.9780  -30.2660   24.4720 C   0  0  0  0  0  1  0  0  0  0  0  0
  -27.5210  -32.3860   25.6420 C   0  0  0  0  0  1  0  0  0  0  0  0
  2  1  1  0
  2  6  1  0
  3  2  2  0
  4  1  2  0
  5  3  1  0
  5  8  2  0
  7  5  1  0
  8  4  1  0
  9  3  1  0
  9 10  1  0
 13 11  1  6
 12 13  1  0
 13 14  1  0
 13 10  1  0
 15 23  1  0
 16 21  1  0
 17 18  1  0
 17 16  1  0
 19 18  1  0
 19 28  1  0
 19 20  1  0
 21 15  1  0
 21 20  1  0
 22 15  2  0
 23 14  1  0
 23 24  1  0
 25 26  2  0
 26 45  1  0
 27 26  1  0
 27 30  1  0
 28 29  1  0
 28 25  1  0
 29 27  2  0
 30 31  1  0
 31 32  2  0
 33 36  1  0
 33 32  1  0
 34 33  2  0
 35 34  1  0
 35 30  2  0
 36 37  1  0
 37 42  2  0
 37 38  1  0
 38 39  2  0
 39 40  1  0
 40 44  1  0
 41 40  2  0
 42 41  1  0
 43 42  1  0
 45 46  1  0
 46 49  1  0
 46 48  1  0
 47 45  2  0
 50 51  1  0
 50 25  1  0
 52 50  1  0
 53  4  1  0
 54 53  1  0
 55 57  1  0
 55 54  1  0
 56 67  2  0
 57 62  1  0
 58 66  1  0
 58 68  1  0
 59 65  1  0
 59 61  1  0
 60 66  1  0
 61 60  1  0
 62 61  2  0
 63 64  1  0
 63 57  2  0
 64 59  2  0
 65 58  1  0
 66 56  1  0
 68 70  2  0
 69 68  1  0
 71 69  1  0
 72 81  2  0
 72 77  1  0
 73 69  1  0
 73 77  1  0
 74 73  1  0
 75 76  1  0
 75 74  1  0
 76 72  1  0
 77 78  2  0
 78 79  1  0
 80 79  2  0
 81 80  1  0
 82 56  1  0
 82 83  1  0
 82 92  1  0
 83 86  1  0
 84 88  1  0
 84 83  1  0
 85 84  2  0
 88 87  1  0
 90 88  1  0
 90 91  1  0
 90 89  1  0
 92 95  1  1
 92 93  1  0
 94 92  1  0
M  ISO  4  15 100  23 100  54 101  55 101
M  END
>  <TORSDO>  (92) 
F 22

>  <SCORE>  (92) 
-11.356

>  <name>  (92) 
92

>  <ligand_id>  (92) 
92

>  <original_smiles>  (92) 
[H]c1c([H])c([H])c2c(c1[H])C([H])([H])C([H])([H])C([H])([H])C2([H])N([H])C(=O)C1([H])N(C(=O)C([H])(N([H])C(=O)C([H])(N([H])C([H])([H])[H])C([H])([H])[H])C(C([H])([H])[H])(C([H])([H])[H])C([H])([H])[H])C([H])([H])c2c([H])c(OC([H])([H])C([H])([H])c3nc(C([H])([H])[H])c(C([H])([H])C([H])([H])C(C([H])([H])[H])(C([H])([H])[H])C([H])([H])N([H])C(=O)N4C([H])([H])C([H])([H])C([H])([H])C([H])(n5nc(-c6c([H])c([H])c(Oc7c([H])c([H])c(F)c([H])c7F)c([H])c6[H])c(C(=O)N([H])[H])c5N([H])[H])C4([H])[H])c(C([H])([H])[H])c3[H])c([H])c([H])c2C1([H])[H]

>  <smiles>  (92) 
[H]c1c([H])c([H])c2c(c1[H])C([H])([H])C([H])([H])C([H])([H])C2([H])N([H])C(=O)C1([H])N(C(=O)C([H])(N([H])C(=O)C([H])(N([H])C([H])([H])[H])C([H])([H])[H])C(C([H])([H])[H])(C([H])([H])[H])C([H])([H])[H])C([H])([H])c2c([H])c(OC([H])([H])C([H])([H])c3nc(C([H])([H])[H])c(C([H])([H])C([H])([H])C(C([H])([H])[H])(C([H])([H])[H])C([H])([H])N([H])C(=O)N4C([H])([H])C([H])([H])C([H])([H])C([H])(n5nc(-c6c([H])c([H])c(Oc7c([H])c([H])c(F)c([H])c7F)c([H])c6[H])c(C(=O)N([H])[H])c5N([H])[H])C4([H])[H])c(C([H])([H])[H])c3[H])c([H])c([H])c2C1([H])[H]

$$$$
93:0:0
     RDKit          3D

 94102  0  0  1  0  0  0  0  0999 V2000
  -30.0840  -20.9590   21.4510 C   0  0  0  0  0  3  0  0  0  0  0  0
  -28.2090  -21.1640   20.2600 C   0  0  0  0  0  3  0  0  0  0  0  0
  -29.8390  -19.7380   20.8760 C   0  0  0  0  0  0  0  0  0  0  0  0
  -28.6590  -19.8820   20.0860 C   0  0  0  0  0  0  0  0  0  0  0  0
  -29.0890  -21.8460   21.0790 N   0  0  0  0  0  0  0  0  0  0  0  0
  -28.4470  -19.0080   17.7510 C   0  0  0  0  0  1  0  0  0  0  0  0
  -26.5180  -18.7350   19.3980 C   0  0  0  0  0  1  0  0  0  0  0  0
  -28.0390  -18.8070   19.2150 C   0  0  0  0  0  3  0  0  0  0  0  0
  -30.6490  -18.4650   21.0230 C   0  0  0  0  0  2  0  0  0  0  0  0
  -31.0470  -17.8500   19.6690 C   0  0  0  0  0  2  0  0  0  0  0  0
  -30.8900  -16.3180   19.5600 C   0  0  0  0  0  2  0  0  0  0  0  0
  -32.3280  -14.3550   19.8430 C   0  0  0  0  0  0  0  0  0  0  0  0
  -31.7020  -12.0940   19.0930 C   0  0  0  0  0  2  0  0  0  0  0  0
  -30.7470  -12.1770   17.8900 C   0  0  0  0  0  2  0  0  0  0  0  0
  -29.2840  -12.2670   18.3640 C   0  0  0  0  0  2  0  0  0  0  0  0
  -29.0770  -13.3630   19.4360 C   0  0  0  0  0  3  0  0  0  0  0  0
  -30.1500  -13.2690   20.5490 C   0  0  0  0  0  2  0  0  0  0  0  0
  -31.4780  -13.2920   19.9140 N   0  0  0  0  0  0  0  0  0  0  0  0
  -33.4530  -14.2890   19.3520 O   0  0  0  0  0  0  0  0  0  0  0  0
  -31.8910  -15.5380   20.2950 N   0  0  0  0  0  0  0  0  0  0  0  0
  -32.6620  -16.1200   20.5900 H   0  0  0  0  0  0  0  0  0  0  0  0
  -26.8840  -14.3790   20.3090 C   0  0  0  0  0  0  0  0  0  0  0  0
  -25.7000  -13.8110   20.6880 C   0  0  0  0  0  0  0  0  0  0  0  0
  -25.8820  -12.3990   20.5530 C   0  0  0  0  0  0  0  0  0  0  0  0
  -27.7230  -13.3290   19.9760 N   0  0  0  0  0  0  0  0  0  0  0  0
  -27.1240  -12.1280   20.1820 N   0  0  0  0  0  0  0  0  0  0  0  0
  -24.9290  -11.2930   20.7030 C   0  0  0  0  0  0  0  0  0  0  0  0
  -25.2120  -10.1790   21.5210 C   0  0  0  0  0  3  0  0  0  0  0  0
  -24.2710   -9.1360   21.6630 C   0  0  0  0  0  3  0  0  0  0  0  0
  -23.0320   -9.2050   20.9860 C   0  0  0  0  0  0  0  0  0  0  0  0
  -22.7640  -10.3050   20.1530 C   0  0  0  0  0  3  0  0  0  0  0  0
  -23.7030  -11.3380   20.0100 C   0  0  0  0  0  3  0  0  0  0  0  0
  -22.0650   -8.2300   21.0450 O   0  0  0  0  0  0  0  0  0  0  0  0
  -21.9290   -7.4210   22.1440 C   0  0  0  0  0  0  0  0  0  0  0  0
  -21.7160   -7.9490   23.4350 C   0  0  0  0  0  3  0  0  0  0  0  0
  -21.5120   -7.0810   24.5270 C   0  0  0  0  0  3  0  0  0  0  0  0
  -21.5110   -5.6870   24.3280 C   0  0  0  0  0  0  0  0  0  0  0  0
  -21.7190   -5.1600   23.0410 C   0  0  0  0  0  3  0  0  0  0  0  0
  -21.9240   -6.0250   21.9520 C   0  0  0  0  0  0  0  0  0  0  0  0
  -22.1020   -5.5100   20.7110 F   0  0  0  0  0  0  0  0  0  0  0  0
  -21.3060   -4.8540   25.3740 F   0  0  0  0  0  0  0  0  0  0  0  0
  -24.4380  -14.5320   21.0580 C   0  0  0  0  0  0  0  0  0  0  0  0
  -23.6310  -13.9400   21.9280 N   0  0  0  0  0  0  0  0  0  0  0  0
  -24.1840  -15.6520   20.6130 O   0  0  0  0  0  0  0  0  0  0  0  0
  -23.8510  -13.0280   22.3010 H   0  0  0  0  0  0  0  0  0  0  0  0
  -22.7810  -14.3980   22.2240 H   0  0  0  0  0  0  0  0  0  0  0  0
  -27.3130  -15.7000   20.2000 N   0  0  0  0  0  0  0  0  0  0  0  0
  -26.7120  -16.4890   20.4110 H   0  0  0  0  0  0  0  0  0  0  0  0
  -28.2280  -15.9720   19.8670 H   0  0  0  0  0  0  0  0  0  0  0  0
  -28.9390  -23.2380   21.5200 C   0  0  0  0  0  2  0  0  0  0  0  0
  -28.5990  -24.0030   19.0570 C   0  0  0  0  0  1  0  0  0  0  0  0
  -29.1490  -24.3610   20.4480 C   0  0  0  0  0  3  0  0  0  0  0  0
  -28.5960  -25.7220   20.9760 C   0  0  0  0  0  2  0  0  0  0  0  0
  -28.4780  -26.7540   19.9830 O   0  0  0  0  0  0  0  0  0  0  0  0
  -24.5980  -31.8370   23.1930 C   0  0  0  0  0  0  0  0  0  0  0  0
  -27.3140  -27.4920   20.0370 C   0  0  0  0  0  0  0  0  0  0  0  0
  -23.4200  -30.4720   21.4970 C   0  0  0  0  0  3  0  0  0  0  0  0
  -24.8980  -28.9710   20.0610 C   0  0  0  0  0  0  0  0  0  0  0  0
  -25.9470  -30.8510   21.3410 C   0  0  0  0  0  2  0  0  0  0  0  0
  -26.0460  -29.4940   20.6730 C   0  0  0  0  0  0  0  0  0  0  0  0
  -27.2570  -28.7610   20.6610 C   0  0  0  0  0  3  0  0  0  0  0  0
  -26.1530  -26.9820   19.4260 C   0  0  0  0  0  3  0  0  0  0  0  0
  -24.9460  -27.7080   19.4430 C   0  0  0  0  0  3  0  0  0  0  0  0
  -23.6480  -29.8230   20.1050 C   0  0  0  0  0  2  0  0  0  0  0  0
  -24.6720  -31.0710   22.0660 N   0  0  0  0  0  0  0  0  0  0  0  0
  -23.5110  -32.0890   23.7290 O   0  0  0  0  0  0  0  0  0  0  0  0
  -22.7630  -29.4250   22.4290 C   0  0  0  0  0  0  0  0  0  0  0  0
  -21.4340  -29.2630   22.3080 N   0  0  0  0  0  0  0  0  0  0  0  0
  -23.4470  -28.7610   23.2130 O   0  0  0  0  0  0  0  0  0  0  0  0
  -20.9400  -29.8590   21.6600 H   0  0  0  0  0  0  0  0  0  0  0  0
  -18.0450  -28.1160   22.8180 C   0  0  0  0  0  0  0  0  0  0  0  0
  -20.6150  -28.2990   23.0460 C   0  0  0  0  0  3  0  0  0  0  0  0
  -20.6670  -26.9000   22.3900 C   0  0  0  0  0  2  0  0  0  0  0  0
  -19.5360  -26.6590   21.3850 C   0  0  0  0  0  2  0  0  0  0  0  0
  -18.1730  -26.7990   22.0700 C   0  0  0  0  0  2  0  0  0  0  0  0
  -19.1920  -28.8270   23.2630 C   0  0  0  0  0  0  0  0  0  0  0  0
  -19.0180  -30.0630   23.9200 C   0  0  0  0  0  3  0  0  0  0  0  0
  -17.7280  -30.5840   24.1430 C   0  0  0  0  0  3  0  0  0  0  0  0
  -16.5980  -29.8680   23.7160 C   0  0  0  0  0  3  0  0  0  0  0  0
  -16.7560  -28.6360   23.0560 C   0  0  0  0  0  3  0  0  0  0  0  0
  -25.8740  -32.4530   23.8500 C   0  0  0  0  0  3  0  0  0  0  0  0
  -25.5680  -33.8520   24.1780 N   0  0  0  0  0  0  0  0  0  0  0  0
  -25.9150  -34.9050   23.4260 C   0  0  0  0  0  0  0  0  0  0  0  0
  -26.5990  -34.8010   22.4040 O   0  0  0  0  0  0  0  0  0  0  0  0
  -24.9670  -34.0090   24.9750 H   0  0  0  0  0  0  0  0  0  0  0  0
  -24.1940  -36.6990   23.0540 C   0  0  0  0  0  1  0  0  0  0  0  0
  -25.4260  -36.2940   23.8780 C   0  0  0  0  0  3  0  0  0  0  0  0
  -27.5580  -37.1760   24.7210 C   0  0  0  0  0  1  0  0  0  0  0  0
  -26.4600  -37.3440   23.7710 N   0  0  0  0  0  0  0  0  0  0  0  0
  -26.0560  -38.2660   23.9080 H   0  0  0  0  0  0  0  0  0  0  0  0
  -26.3560  -31.6720   25.1330 C   0  0  1  0  0  0  0  0  0  0  0  0
  -25.2430  -31.4390   26.1810 C   0  0  0  0  0  1  0  0  0  0  0  0
  -26.9380  -30.2900   24.7520 C   0  0  0  0  0  1  0  0  0  0  0  0
  -27.4930  -32.4590   25.8260 C   0  0  0  0  0  1  0  0  0  0  0  0
  2  5  1  0
  3  9  1  0
  3  1  2  0
  4  2  2  0
  4  3  1  0
  5  1  1  0
  5 50  1  0
  6  8  1  0
  8  7  1  0
  8  4  1  0
 10  9  1  0
 11 10  1  0
 11 20  1  0
 12 18  1  0
 12 20  1  0
 13 18  1  0
 14 15  1  0
 14 13  1  0
 16 15  1  0
 16 25  1  0
 16 17  1  0
 18 17  1  0
 19 12  2  0
 20 21  1  0
 22 23  2  0
 23 42  1  0
 24 23  1  0
 24 27  1  0
 25 26  1  0
 25 22  1  0
 26 24  2  0
 27 28  1  0
 28 29  2  0
 30 33  1  0
 30 29  1  0
 31 30  2  0
 32 31  1  0
 32 27  2  0
 33 34  1  0
 34 35  1  0
 35 36  2  0
 37 36  1  0
 37 41  1  0
 38 37  2  0
 39 34  2  0
 39 38  1  0
 40 39  1  0
 42 43  1  0
 43 46  1  0
 43 45  1  0
 44 42  2  0
 47 22  1  0
 47 48  1  0
 49 47  1  0
 52 51  1  0
 52 53  1  0
 52 50  1  0
 54 56  1  0
 54 53  1  0
 55 66  2  0
 56 61  1  0
 57 65  1  0
 57 67  1  0
 58 64  1  0
 58 60  1  0
 59 65  1  0
 60 59  1  0
 61 60  2  0
 62 63  1  0
 62 56  2  0
 63 58  2  0
 64 57  1  0
 65 55  1  0
 67 69  2  0
 68 67  1  0
 70 68  1  0
 71 80  2  0
 71 76  1  0
 72 68  1  0
 72 76  1  0
 73 72  1  0
 74 75  1  0
 74 73  1  0
 75 71  1  0
 76 77  2  0
 77 78  1  0
 79 78  2  0
 80 79  1  0
 81 55  1  0
 81 82  1  0
 81 91  1  0
 82 85  1  0
 83 87  1  0
 83 82  1  0
 84 83  2  0
 87 86  1  0
 89 87  1  0
 89 90  1  0
 89 88  1  0
 91 94  1  1
 91 92  1  0
 93 91  1  0
M  ISO  4  12 100  20 100  53 101  54 101
M  END
>  <TORSDO>  (93) 
F 23

>  <SCORE>  (93) 
-11.723

>  <name>  (93) 
93

>  <ligand_id>  (93) 
93

>  <original_smiles>  (93) 
[H]c1c([H])c([H])c2c(c1[H])C([H])([H])C([H])([H])C([H])([H])C2([H])N([H])C(=O)C1([H])N(C(=O)C([H])(N([H])C(=O)C([H])(N([H])C([H])([H])[H])C([H])([H])[H])C(C([H])([H])[H])(C([H])([H])[H])C([H])([H])[H])C([H])([H])c2c([H])c(OC([H])([H])C([H])(C([H])([H])[H])C([H])([H])n3c([H])c(C([H])([H])C([H])([H])C([H])([H])N([H])C(=O)N4C([H])([H])C([H])([H])C([H])([H])C([H])(n5nc(-c6c([H])c([H])c(Oc7c([H])c([H])c(F)c([H])c7F)c([H])c6[H])c(C(=O)N([H])[H])c5N([H])[H])C4([H])[H])c(C([H])(C([H])([H])[H])C([H])([H])[H])c3[H])c([H])c([H])c2C1([H])[H]

>  <smiles>  (93) 
[H]c1c([H])c([H])c2c(c1[H])C([H])([H])C([H])([H])C([H])([H])C2([H])N([H])C(=O)C1([H])N(C(=O)C([H])(N([H])C(=O)C([H])(N([H])C([H])([H])[H])C([H])([H])[H])C(C([H])([H])[H])(C([H])([H])[H])C([H])([H])[H])C([H])([H])c2c([H])c(OC([H])([H])C([H])(C([H])([H])[H])C([H])([H])n3c([H])c(C([H])([H])C([H])([H])C([H])([H])N([H])C(=O)N4C([H])([H])C([H])([H])C([H])([H])C([H])(n5nc(-c6c([H])c([H])c(Oc7c([H])c([H])c(F)c([H])c7F)c([H])c6[H])c(C(=O)N([H])[H])c5N([H])[H])C4([H])[H])c(C([H])(C([H])([H])[H])C([H])([H])[H])c3[H])c([H])c([H])c2C1([H])[H]

$$$$
94:0:0
     RDKit          3D

 95103  0  0  1  0  0  0  0  0999 V2000
  -29.7680  -19.1320   19.3340 C   0  0  0  0  0  3  0  0  0  0  0  0
  -30.9600  -18.7220   19.9570 C   0  0  0  0  0  0  0  0  0  0  0  0
  -32.1550  -19.4330   19.6620 C   0  0  0  0  0  0  0  0  0  0  0  0
  -32.0600  -20.5760   18.8190 C   0  0  0  0  0  0  0  0  0  0  0  0
  -30.7910  -20.9080   18.2750 C   0  0  0  0  0  0  0  0  0  0  0  0
  -33.4950  -19.0080   20.2660 C   0  0  0  0  0  1  0  0  0  0  0  0
  -33.2930  -21.4320   18.5200 C   0  0  0  0  0  1  0  0  0  0  0  0
  -29.6860  -20.1790   18.5050 N   0  0  0  0  0  0  0  0  0  0  0  0
  -30.3120  -18.0750   22.2850 C   0  0  0  0  0  1  0  0  0  0  0  0
  -30.8930  -17.5630   20.9530 C   0  0  0  0  0  3  0  0  0  0  0  0
  -30.0490  -16.3830   20.4150 C   0  0  0  0  0  2  0  0  0  0  0  0
  -31.0130  -14.2040   19.9530 C   0  0  0  0  0  0  0  0  0  0  0  0
  -30.4730  -12.2360   18.5650 C   0  0  0  0  0  2  0  0  0  0  0  0
  -29.4570  -12.6130   17.4680 C   0  0  0  0  0  2  0  0  0  0  0  0
  -28.0100  -12.5170   17.9970 C   0  0  0  0  0  2  0  0  0  0  0  0
  -27.8230  -13.2560   19.3460 C   0  0  0  0  0  3  0  0  0  0  0  0
  -28.9250  -12.8300   20.3350 C   0  0  0  0  0  2  0  0  0  0  0  0
  -30.2430  -13.1080   19.7250 N   0  0  0  0  0  0  0  0  0  0  0  0
  -31.9960  -14.5010   19.2620 O   0  0  0  0  0  0  0  0  0  0  0  0
  -30.5770  -14.7890   22.3010 C   0  0  0  0  0  1  0  0  0  0  0  0
  -30.5100  -15.0640   20.8610 N   0  0  0  0  0  0  0  0  0  0  0  0
  -25.4880  -13.9510   20.1960 C   0  0  0  0  0  0  0  0  0  0  0  0
  -24.4240  -13.2160   20.6410 C   0  0  0  0  0  0  0  0  0  0  0  0
  -24.8390  -11.8490   20.5890 C   0  0  0  0  0  0  0  0  0  0  0  0
  -26.4900  -13.0350   19.9050 N   0  0  0  0  0  0  0  0  0  0  0  0
  -26.1030  -11.7660   20.1950 N   0  0  0  0  0  0  0  0  0  0  0  0
  -24.0900  -10.6120   20.8350 C   0  0  0  0  0  0  0  0  0  0  0  0
  -24.5060   -9.6770   21.8090 C   0  0  0  0  0  3  0  0  0  0  0  0
  -23.7580   -8.5020   22.0390 C   0  0  0  0  0  3  0  0  0  0  0  0
  -22.5810   -8.2530   21.2940 C   0  0  0  0  0  0  0  0  0  0  0  0
  -22.1820   -9.1760   20.3110 C   0  0  0  0  0  3  0  0  0  0  0  0
  -22.9300  -10.3440   20.0810 C   0  0  0  0  0  3  0  0  0  0  0  0
  -21.8080   -7.1250   21.4290 O   0  0  0  0  0  0  0  0  0  0  0  0
  -21.6820   -6.4780   22.6320 C   0  0  0  0  0  0  0  0  0  0  0  0
  -21.1890   -7.1350   23.7810 C   0  0  0  0  0  3  0  0  0  0  0  0
  -21.0100   -6.4160   24.9800 C   0  0  0  0  0  3  0  0  0  0  0  0
  -21.3130   -5.0420   25.0310 C   0  0  0  0  0  0  0  0  0  0  0  0
  -21.7980   -4.3860   23.8860 C   0  0  0  0  0  3  0  0  0  0  0  0
  -21.9790   -5.1020   22.6890 C   0  0  0  0  0  0  0  0  0  0  0  0
  -22.4270   -4.4590   21.5840 F   0  0  0  0  0  0  0  0  0  0  0  0
  -21.1340   -4.3490   26.1800 F   0  0  0  0  0  0  0  0  0  0  0  0
  -23.0640  -13.7370   21.0040 C   0  0  0  0  0  0  0  0  0  0  0  0
  -22.3820  -13.0830   21.9380 N   0  0  0  0  0  0  0  0  0  0  0  0
  -22.6130  -14.7600   20.4900 O   0  0  0  0  0  0  0  0  0  0  0  0
  -22.7580  -12.2550   22.3760 H   0  0  0  0  0  0  0  0  0  0  0  0
  -21.4720  -13.4160   22.2210 H   0  0  0  0  0  0  0  0  0  0  0  0
  -25.6860  -15.3150   20.0000 N   0  0  0  0  0  0  0  0  0  0  0  0
  -24.9500  -15.9950   20.1530 H   0  0  0  0  0  0  0  0  0  0  0  0
  -26.5330  -15.7250   19.6300 H   0  0  0  0  0  0  0  0  0  0  0  0
  -30.5010  -22.1500   17.4460 C   0  0  0  0  0  2  0  0  0  0  0  0
  -29.6650  -23.1670   18.2470 C   0  0  0  0  0  2  0  0  0  0  0  0
  -30.5150  -24.0490   19.1710 C   0  0  0  0  0  2  0  0  0  0  0  0
  -29.7310  -25.0410   20.0410 C   0  0  0  0  0  2  0  0  0  0  0  0
  -28.4690  -25.6540   19.4200 C   0  0  0  0  0  2  0  0  0  0  0  0
  -28.2370  -26.8080   20.2060 O   0  0  0  0  0  0  0  0  0  0  0  0
  -24.4940  -31.9160   23.3130 C   0  0  0  0  0  0  0  0  0  0  0  0
  -27.0310  -27.4600   20.1840 C   0  0  0  0  0  0  0  0  0  0  0  0
  -23.2380  -30.5220   21.6970 C   0  0  0  0  0  3  0  0  0  0  0  0
  -24.6430  -28.9630   20.2490 C   0  0  0  0  0  0  0  0  0  0  0  0
  -25.7570  -30.8550   21.4500 C   0  0  0  0  0  2  0  0  0  0  0  0
  -25.8110  -29.4820   20.8160 C   0  0  0  0  0  0  0  0  0  0  0  0
  -27.0000  -28.7300   20.7940 C   0  0  0  0  0  3  0  0  0  0  0  0
  -25.8440  -26.9400   19.6150 C   0  0  0  0  0  3  0  0  0  0  0  0
  -24.6500  -27.6880   19.6560 C   0  0  0  0  0  3  0  0  0  0  0  0
  -23.4100  -29.8350   20.3150 C   0  0  0  0  0  2  0  0  0  0  0  0
  -24.5160  -31.1100   22.2130 N   0  0  0  0  0  0  0  0  0  0  0  0
  -23.4280  -32.2090   23.8700 O   0  0  0  0  0  0  0  0  0  0  0  0
  -22.5920  -29.5150   22.6710 C   0  0  0  0  0  0  0  0  0  0  0  0
  -21.2820  -29.2760   22.5000 N   0  0  0  0  0  0  0  0  0  0  0  0
  -23.2660  -28.9470   23.5350 O   0  0  0  0  0  0  0  0  0  0  0  0
  -20.7990  -29.7820   21.7700 H   0  0  0  0  0  0  0  0  0  0  0  0
  -17.9650  -27.8950   22.8330 C   0  0  0  0  0  0  0  0  0  0  0  0
  -20.4720  -28.3380   23.2740 C   0  0  0  0  0  3  0  0  0  0  0  0
  -20.7080  -26.8830   22.8060 C   0  0  0  0  0  2  0  0  0  0  0  0
  -19.7090  -26.4230   21.7390 C   0  0  0  0  0  2  0  0  0  0  0  0
  -18.2750  -26.5180   22.2680 C   0  0  0  0  0  2  0  0  0  0  0  0
  -18.9970  -28.7550   23.2900 C   0  0  0  0  0  0  0  0  0  0  0  0
  -18.6560  -30.0390   23.7690 C   0  0  0  0  0  3  0  0  0  0  0  0
  -17.3150  -30.4640   23.8010 C   0  0  0  0  0  3  0  0  0  0  0  0
  -16.2950  -29.6000   23.3650 C   0  0  0  0  0  3  0  0  0  0  0  0
  -16.6200  -28.3180   22.8860 C   0  0  0  0  0  3  0  0  0  0  0  0
  -25.8020  -32.5260   23.9070 C   0  0  0  0  0  3  0  0  0  0  0  0
  -25.5250  -33.9310   24.2330 N   0  0  0  0  0  0  0  0  0  0  0  0
  -25.8510  -34.9690   23.4510 C   0  0  0  0  0  0  0  0  0  0  0  0
  -26.4890  -34.8450   22.4020 O   0  0  0  0  0  0  0  0  0  0  0  0
  -24.9570  -34.1040   25.0480 H   0  0  0  0  0  0  0  0  0  0  0  0
  -24.1270  -36.7720   23.1390 C   0  0  0  0  0  1  0  0  0  0  0  0
  -25.3960  -36.3690   23.9070 C   0  0  0  0  0  3  0  0  0  0  0  0
  -27.5690  -37.2430   24.6410 C   0  0  0  0  0  1  0  0  0  0  0  0
  -26.4340  -37.4080   23.7370 N   0  0  0  0  0  0  0  0  0  0  0  0
  -26.0440  -38.3340   23.8880 H   0  0  0  0  0  0  0  0  0  0  0  0
  -26.3320  -31.7520   25.1760 C   0  0  1  0  0  0  0  0  0  0  0  0
  -25.2460  -31.5110   26.2500 C   0  0  0  0  0  1  0  0  0  0  0  0
  -26.9130  -30.3770   24.7700 C   0  0  0  0  0  1  0  0  0  0  0  0
  -27.4910  -32.5440   25.8280 C   0  0  0  0  0  1  0  0  0  0  0  0
  1  2  1  0
  2 10  1  0
  3  2  2  0
  3  6  1  0
  4  3  1  0
  5  8  1  0
  5  4  2  0
  7  4  1  0
  8  1  2  0
 10  9  1  0
 11 21  1  0
 11 10  1  0
 12 21  1  0
 13 18  1  0
 14 15  1  0
 14 13  1  0
 16 15  1  0
 16 25  1  0
 16 17  1  0
 18 12  1  0
 18 17  1  0
 19 12  2  0
 21 20  1  0
 22 23  2  0
 23 42  1  0
 24 23  1  0
 24 27  1  0
 25 26  1  0
 25 22  1  0
 26 24  2  0
 27 28  1  0
 28 29  2  0
 30 33  1  0
 30 29  1  0
 31 30  2  0
 32 31  1  0
 32 27  2  0
 33 34  1  0
 34 39  2  0
 34 35  1  0
 35 36  2  0
 36 37  1  0
 37 41  1  0
 38 37  2  0
 39 38  1  0
 40 39  1  0
 42 43  1  0
 43 46  1  0
 43 45  1  0
 44 42  2  0
 47 48  1  0
 47 22  1  0
 49 47  1  0
 50 51  1  0
 50  5  1  0
 51 52  1  0
 52 53  1  0
 54 53  1  0
 54 55  1  0
 56 67  2  0
 57 55  1  0
 57 62  1  0
 58 66  1  0
 58 68  1  0
 59 65  1  0
 59 61  1  0
 60 66  1  0
 61 60  1  0
 62 61  2  0
 63 64  1  0
 63 57  2  0
 64 59  2  0
 65 58  1  0
 66 56  1  0
 68 70  2  0
 69 68  1  0
 71 69  1  0
 72 81  2  0
 72 77  1  0
 73 69  1  0
 73 77  1  0
 74 73  1  0
 75 76  1  0
 75 74  1  0
 76 72  1  0
 77 78  2  0
 78 79  1  0
 80 79  2  0
 81 80  1  0
 82 56  1  0
 82 83  1  0
 82 92  1  0
 83 86  1  0
 84 88  1  0
 84 83  1  0
 85 84  2  0
 88 87  1  0
 90 91  1  0
 90 88  1  0
 90 89  1  0
 92 95  1  1
 92 93  1  0
 94 92  1  0
M  ISO  4  12 100  21 100  54 101  55 101
M  END
>  <TORSDO>  (94) 
F 23

>  <SCORE>  (94) 
-11.111

>  <name>  (94) 
94

>  <ligand_id>  (94) 
94

>  <original_smiles>  (94) 
[H]c1nc(C([H])([H])C([H])([H])C([H])([H])C([H])([H])C([H])([H])Oc2c([H])c([H])c3c(c2[H])C([H])([H])N(C(=O)C([H])(N([H])C(=O)C([H])(N([H])C([H])([H])[H])C([H])([H])[H])C(C([H])([H])[H])(C([H])([H])[H])C([H])([H])[H])C([H])(C(=O)N([H])C2([H])c4c([H])c([H])c([H])c([H])c4C([H])([H])C([H])([H])C2([H])[H])C3([H])[H])c(C([H])([H])[H])c(C([H])([H])[H])c1C([H])(C([H])([H])[H])C([H])([H])N(C(=O)N1C([H])([H])C([H])([H])C([H])([H])C([H])(n2nc(-c3c([H])c([H])c(Oc4c([H])c([H])c(F)c([H])c4F)c([H])c3[H])c(C(=O)N([H])[H])c2N([H])[H])C1([H])[H])C([H])([H])[H]

>  <smiles>  (94) 
[H]c1nc(C([H])([H])C([H])([H])C([H])([H])C([H])([H])C([H])([H])Oc2c([H])c([H])c3c(c2[H])C([H])([H])N(C(=O)C([H])(N([H])C(=O)C([H])(N([H])C([H])([H])[H])C([H])([H])[H])C(C([H])([H])[H])(C([H])([H])[H])C([H])([H])[H])C([H])(C(=O)N([H])C2([H])c4c([H])c([H])c([H])c([H])c4C([H])([H])C([H])([H])C2([H])[H])C3([H])[H])c(C([H])([H])[H])c(C([H])([H])[H])c1C([H])(C([H])([H])[H])C([H])([H])N(C(=O)N1C([H])([H])C([H])([H])C([H])([H])C([H])(n2nc(-c3c([H])c([H])c(Oc4c([H])c([H])c(F)c([H])c4F)c([H])c3[H])c(C(=O)N([H])[H])c2N([H])[H])C1([H])[H])C([H])([H])[H]

$$$$
95:0:0
     RDKit          3D

 98106  0  0  1  0  0  0  0  0999 V2000
  -31.6650  -19.7670   18.7850 C   0  0  0  0  0  2  0  0  0  0  0  0
  -31.4220  -18.6350   17.9480 C   0  0  0  0  0  3  0  0  0  0  0  0
  -30.8840  -19.6490   19.9030 C   0  0  0  0  0  3  0  0  0  0  0  0
  -30.3190  -18.0720   18.5400 C   0  0  0  0  0  3  0  0  0  0  0  0
  -30.4870  -18.3130   19.9070 N   0  0  0  0  0  0  0  0  0  0  0  0
  -33.6000  -18.6940   16.7330 C   0  0  0  0  0  1  0  0  0  0  0  0
  -31.4880  -19.1040   15.4600 C   0  0  0  0  0  1  0  0  0  0  0  0
  -32.0450  -16.8090   16.3100 C   0  0  0  0  0  1  0  0  0  0  0  0
  -32.1110  -18.3180   16.6230 C   0  0  2  0  0  0  0  0  0  0  0  0
  -28.2290  -16.6550   18.6980 C   0  0  0  0  0  1  0  0  0  0  0  0
  -28.9940  -17.7040   17.9110 C   0  0  0  0  0  3  0  0  0  0  0  0
  -28.3920  -19.8400   16.5380 C   0  0  0  0  0  1  0  0  0  0  0  0
  -28.0610  -18.9310   17.7290 C   0  0  0  0  0  2  0  0  0  0  0  0
  -30.5950  -20.6430   21.0020 C   0  0  0  0  0  2  0  0  0  0  0  0
  -30.7660  -22.1230   20.5490 C   0  0  0  0  0  2  0  0  0  0  0  0
  -29.8370  -23.1490   21.2420 C   0  0  0  0  0  2  0  0  0  0  0  0
  -30.0480  -24.6270   20.7890 C   0  0  0  0  0  2  0  0  0  0  0  0
  -28.7170  -25.3980   20.6340 C   0  0  0  0  0  2  0  0  0  0  0  0
  -28.8590  -26.8310   20.5450 O   0  0  0  0  0  0  0  0  0  0  0  0
  -24.7650  -31.9650   23.3450 C   0  0  0  0  0  0  0  0  0  0  0  0
  -27.6740  -27.5440   20.4570 C   0  0  0  0  0  0  0  0  0  0  0  0
  -23.6750  -30.4920   21.6890 C   0  0  0  0  0  3  0  0  0  0  0  0
  -25.2340  -28.9870   20.3500 C   0  0  0  0  0  0  0  0  0  0  0  0
  -26.1970  -30.9320   21.5830 C   0  0  0  0  0  2  0  0  0  0  0  0
  -26.3540  -29.5540   20.9700 C   0  0  0  0  0  0  0  0  0  0  0  0
  -27.5780  -28.8420   21.0180 C   0  0  0  0  0  3  0  0  0  0  0  0
  -26.5300  -27.0050   19.8200 C   0  0  0  0  0  3  0  0  0  0  0  0
  -25.3190  -27.7140   19.7690 C   0  0  0  0  0  3  0  0  0  0  0  0
  -23.9590  -29.7990   20.3310 C   0  0  0  0  0  2  0  0  0  0  0  0
  -24.8950  -31.1450   22.2640 N   0  0  0  0  0  0  0  0  0  0  0  0
  -23.6540  -32.2070   23.8370 O   0  0  0  0  0  0  0  0  0  0  0  0
  -23.0230  -29.4620   22.6430 C   0  0  0  0  0  0  0  0  0  0  0  0
  -21.7180  -29.2080   22.4510 N   0  0  0  0  0  0  0  0  0  0  0  0
  -23.6910  -28.8950   23.5100 O   0  0  0  0  0  0  0  0  0  0  0  0
  -21.2370  -29.7220   21.7250 H   0  0  0  0  0  0  0  0  0  0  0  0
  -18.3900  -27.8390   22.7860 C   0  0  0  0  0  0  0  0  0  0  0  0
  -20.9080  -28.2520   23.2050 C   0  0  0  0  0  3  0  0  0  0  0  0
  -21.1240  -26.8090   22.6940 C   0  0  0  0  0  2  0  0  0  0  0  0
  -20.1090  -26.3890   21.6270 C   0  0  0  0  0  2  0  0  0  0  0  0
  -18.6830  -26.4780   22.1760 C   0  0  0  0  0  2  0  0  0  0  0  0
  -19.4370  -28.6780   23.2550 C   0  0  0  0  0  0  0  0  0  0  0  0
  -19.1110  -29.9480   23.7800 C   0  0  0  0  0  3  0  0  0  0  0  0
  -17.7730  -30.3800   23.8420 C   0  0  0  0  0  3  0  0  0  0  0  0
  -16.7410  -29.5390   23.3910 C   0  0  0  0  0  3  0  0  0  0  0  0
  -17.0500  -28.2700   22.8690 C   0  0  0  0  0  3  0  0  0  0  0  0
  -26.0030  -32.6550   23.9990 C   0  0  0  0  0  3  0  0  0  0  0  0
  -26.4920  -31.9370   25.3160 C   0  0  1  0  0  0  0  0  0  0  0  0
  -25.3630  -31.6850   26.3430 C   0  0  0  0  0  1  0  0  0  0  0  0
  -27.1420  -30.5730   24.9850 C   0  0  0  0  0  1  0  0  0  0  0  0
  -27.5790  -32.7930   26.0060 C   0  0  0  0  0  1  0  0  0  0  0  0
  -25.6350  -34.0500   24.2720 N   0  0  0  0  0  0  0  0  0  0  0  0
  -25.9590  -35.0900   23.4920 C   0  0  0  0  0  0  0  0  0  0  0  0
  -26.6690  -34.9790   22.4880 O   0  0  0  0  0  0  0  0  0  0  0  0
  -25.0100  -34.2080   25.0480 H   0  0  0  0  0  0  0  0  0  0  0  0
  -24.1820  -36.8090   23.0210 C   0  0  0  0  0  1  0  0  0  0  0  0
  -25.4070  -36.4740   23.8860 C   0  0  0  0  0  3  0  0  0  0  0  0
  -27.4800  -37.4620   24.7560 C   0  0  0  0  0  1  0  0  0  0  0  0
  -26.4040  -37.5590   23.7740 N   0  0  0  0  0  0  0  0  0  0  0  0
  -25.9620  -38.4670   23.8780 H   0  0  0  0  0  0  0  0  0  0  0  0
  -31.1670  -17.3700   20.8480 C   0  0  0  0  0  2  0  0  0  0  0  0
  -29.0590  -16.2210   21.7950 C   0  0  0  0  0  1  0  0  0  0  0  0
  -30.5230  -16.0160   21.3520 C   0  0  0  0  0  3  0  0  0  0  0  0
  -30.9970  -14.7140   20.5850 C   0  0  0  0  0  0  0  0  0  0  0  0
  -30.6580  -12.5850   19.3560 C   0  0  0  0  0  2  0  0  0  0  0  0
  -29.7240  -12.7910   18.1410 C   0  0  0  0  0  2  0  0  0  0  0  0
  -28.2400  -12.6830   18.5510 C   0  0  0  0  0  2  0  0  0  0  0  0
  -27.9060  -13.4660   19.8500 C   0  0  0  0  0  3  0  0  0  0  0  0
  -28.9610  -13.2000   20.9470 C   0  0  0  0  0  2  0  0  0  0  0  0
  -30.2770  -13.5590   20.4070 N   0  0  0  0  0  0  0  0  0  0  0  0
  -32.1210  -14.7930   20.0860 O   0  0  0  0  0  0  0  0  0  0  0  0
  -25.5050  -14.0790   20.5470 C   0  0  0  0  0  0  0  0  0  0  0  0
  -24.4310  -13.3040   20.8930 C   0  0  0  0  0  0  0  0  0  0  0  0
  -24.8910  -11.9530   20.8520 C   0  0  0  0  0  0  0  0  0  0  0  0
  -26.5520  -13.1950   20.3200 N   0  0  0  0  0  0  0  0  0  0  0  0
  -26.1860  -11.9120   20.5660 N   0  0  0  0  0  0  0  0  0  0  0  0
  -24.1640  -10.6920   21.0170 C   0  0  0  0  0  0  0  0  0  0  0  0
  -24.5790   -9.7160   21.9480 C   0  0  0  0  0  3  0  0  0  0  0  0
  -23.8480   -8.5180   22.1020 C   0  0  0  0  0  3  0  0  0  0  0  0
  -22.6900   -8.2870   21.3230 C   0  0  0  0  0  0  0  0  0  0  0  0
  -22.2980   -9.2530   20.3800 C   0  0  0  0  0  3  0  0  0  0  0  0
  -23.0290  -10.4420   20.2230 C   0  0  0  0  0  3  0  0  0  0  0  0
  -21.9340   -7.1420   21.3880 O   0  0  0  0  0  0  0  0  0  0  0  0
  -21.8480   -6.4030   22.5400 C   0  0  0  0  0  0  0  0  0  0  0  0
  -21.3740   -6.9560   23.7510 C   0  0  0  0  0  3  0  0  0  0  0  0
  -21.2290   -6.1390   24.8900 C   0  0  0  0  0  3  0  0  0  0  0  0
  -21.5540   -4.7710   24.8200 C   0  0  0  0  0  0  0  0  0  0  0  0
  -22.0230   -4.2180   23.6160 C   0  0  0  0  0  3  0  0  0  0  0  0
  -22.1660   -5.0320   22.4790 C   0  0  0  0  0  0  0  0  0  0  0  0
  -22.5980   -4.4910   21.3130 F   0  0  0  0  0  0  0  0  0  0  0  0
  -21.4130   -3.9830   25.9110 F   0  0  0  0  0  0  0  0  0  0  0  0
  -23.0320  -13.7810   21.1520 C   0  0  0  0  0  0  0  0  0  0  0  0
  -22.2950  -13.0790   22.0070 N   0  0  0  0  0  0  0  0  0  0  0  0
  -22.5960  -14.8100   20.6360 O   0  0  0  0  0  0  0  0  0  0  0  0
  -22.6590  -12.2480   22.4470 H   0  0  0  0  0  0  0  0  0  0  0  0
  -21.3570  -13.3840   22.2280 H   0  0  0  0  0  0  0  0  0  0  0  0
  -25.6610  -15.4520   20.3940 N   0  0  0  0  0  0  0  0  0  0  0  0
  -24.8870  -16.0850   20.5660 H   0  0  0  0  0  0  0  0  0  0  0  0
  -26.5160  -15.9360   20.1540 H   0  0  0  0  0  0  0  0  0  0  0  0
  1  3  1  0
  2  9  1  0
  2  4  1  0
  2  1  1  0
  3  5  1  0
  3 14  1  0
  4 11  1  0
  4  5  1  0
  5 60  1  0
  9  7  1  6
  8  9  1  0
  9  6  1  0
 11 10  1  0
 12 13  1  0
 13 11  1  0
 15 14  1  0
 15 16  1  0
 17 16  1  0
 18 17  1  0
 19 18  1  0
 20 31  2  0
 21 19  1  0
 21 26  1  0
 22 30  1  0
 22 32  1  0
 23 25  1  0
 24 30  1  0
 25 26  2  0
 25 24  1  0
 27 21  2  0
 28 27  1  0
 28 23  2  0
 29 23  1  0
 29 22  1  0
 30 20  1  0
 32 34  2  0
 33 32  1  0
 35 33  1  0
 36 45  2  0
 36 41  1  0
 37 33  1  0
 37 41  1  0
 38 37  1  0
 39 40  1  0
 39 38  1  0
 40 36  1  0
 41 42  2  0
 42 43  1  0
 44 43  2  0
 45 44  1  0
 46 20  1  0
 46 51  1  0
 46 47  1  0
 47 50  1  1
 47 48  1  0
 49 47  1  0
 51 54  1  0
 52 56  1  0
 52 51  1  0
 53 52  2  0
 56 55  1  0
 58 59  1  0
 58 56  1  0
 58 57  1  0
 60 62  1  0
 62 61  1  0
 63 62  1  0
 64 69  1  0
 65 66  1  0
 65 64  1  0
 67 66  1  0
 67 74  1  0
 67 68  1  0
 69 63  1  0
 69 68  1  0
 70 63  2  0
 71 72  2  0
 72 91  1  0
 73 72  1  0
 73 76  1  0
 74 71  1  0
 74 75  1  0
 75 73  2  0
 76 77  1  0
 77 78  2  0
 79 82  1  0
 79 78  1  0
 80 79  2  0
 81 80  1  0
 81 76  2  0
 82 83  1  0
 83 84  1  0
 84 85  2  0
 86 85  1  0
 86 90  1  0
 87 86  2  0
 88 83  2  0
 88 87  1  0
 89 88  1  0
 91 92  1  0
 92 95  1  0
 92 94  1  0
 93 91  2  0
 96 71  1  0
 96 97  1  0
 98 96  1  0
M  ISO  4  18 101  19 101  62 100  63 100
M  END
>  <TORSDO>  (95) 
F 26

>  <SCORE>  (95) 
-11.329

>  <name>  (95) 
95

>  <ligand_id>  (95) 
95

>  <original_smiles>  (95) 
[H]c1c([H])c([H])c2c(c1[H])C([H])([H])C([H])([H])C([H])([H])C2([H])N([H])C(=O)C1([H])N(C(=O)C([H])(N([H])C(=O)C([H])(N([H])C([H])([H])[H])C([H])([H])[H])C(C([H])([H])[H])(C([H])([H])[H])C([H])([H])[H])C([H])([H])c2c([H])c(OC([H])([H])C([H])([H])C([H])([H])C([H])([H])C([H])([H])c3c([H])c(C(C([H])([H])[H])(C([H])([H])[H])C([H])([H])[H])c(C([H])(C([H])([H])[H])C([H])([H])C([H])([H])[H])n3C([H])([H])C([H])(C(=O)N3C([H])([H])C([H])([H])C([H])([H])C([H])(n4nc(-c5c([H])c([H])c(Oc6c([H])c([H])c(F)c([H])c6F)c([H])c5[H])c(C(=O)N([H])[H])c4N([H])[H])C3([H])[H])C([H])([H])[H])c([H])c([H])c2C1([H])[H]

>  <smiles>  (95) 
[H]c1c([H])c([H])c2c(c1[H])C([H])([H])C([H])([H])C([H])([H])C2([H])N([H])C(=O)C1([H])N(C(=O)C([H])(N([H])C(=O)C([H])(N([H])C([H])([H])[H])C([H])([H])[H])C(C([H])([H])[H])(C([H])([H])[H])C([H])([H])[H])C([H])([H])c2c([H])c(OC([H])([H])C([H])([H])C([H])([H])C([H])([H])C([H])([H])c3c([H])c(C(C([H])([H])[H])(C([H])([H])[H])C([H])([H])[H])c(C([H])(C([H])([H])[H])C([H])([H])C([H])([H])[H])n3C([H])([H])C([H])(C(=O)N3C([H])([H])C([H])([H])C([H])([H])C([H])(n4nc(-c5c([H])c([H])c(Oc6c([H])c([H])c(F)c([H])c6F)c([H])c5[H])c(C(=O)N([H])[H])c4N([H])[H])C3([H])[H])C([H])([H])[H])c([H])c([H])c2C1([H])[H]

$$$$
96:0:0
     RDKit          3D

 96104  0  0  1  0  0  0  0  0999 V2000
  -31.5810  -18.1730   22.8150 C   0  0  0  0  0  3  0  0  0  0  0  0
  -31.5270  -19.4570   22.2560 C   0  0  0  0  0  3  0  0  0  0  0  0
  -30.9250  -17.1040   22.1730 C   0  0  0  0  0  0  0  0  0  0  0  0
  -30.8000  -19.6690   21.0760 C   0  0  0  0  0  0  0  0  0  0  0  0
  -30.2620  -17.3470   20.9400 C   0  0  0  0  0  0  0  0  0  0  0  0
  -30.9420  -15.7460   22.8620 C   0  0  0  0  0  1  0  0  0  0  0  0
  -30.1600  -18.6360   20.4600 N   0  0  0  0  0  0  0  0  0  0  0  0
  -30.8890  -21.1740   18.9840 C   0  0  0  0  0  1  0  0  0  0  0  0
  -30.6910  -21.1110   20.5080 C   0  0  0  0  0  3  0  0  0  0  0  0
  -29.4270  -21.8970   20.9810 C   0  0  0  0  0  2  0  0  0  0  0  0
  -29.5540  -23.4590   21.1760 C   0  0  0  0  0  2  0  0  0  0  0  0
  -29.3230  -24.4640   19.9800 C   0  0  0  0  0  2  0  0  0  0  0  0
  -28.1040  -25.4290   19.7080 C   0  0  0  0  0  2  0  0  0  0  0  0
  -28.2990  -26.8710   19.8270 O   0  0  0  0  0  0  0  0  0  0  0  0
  -24.6280  -31.9650   23.2870 C   0  0  0  0  0  0  0  0  0  0  0  0
  -27.1440  -27.6500   19.8780 C   0  0  0  0  0  0  0  0  0  0  0  0
  -23.3630  -30.6520   21.6240 C   0  0  0  0  0  3  0  0  0  0  0  0
  -24.7590  -29.1970   20.0620 C   0  0  0  0  0  0  0  0  0  0  0  0
  -25.8860  -31.0140   21.3480 C   0  0  0  0  0  2  0  0  0  0  0  0
  -25.9470  -29.6770   20.6260 C   0  0  0  0  0  0  0  0  0  0  0  0
  -27.1420  -28.9170   20.5260 C   0  0  0  0  0  3  0  0  0  0  0  0
  -25.9250  -27.2050   19.3060 C   0  0  0  0  0  3  0  0  0  0  0  0
  -24.7460  -27.9610   19.3970 C   0  0  0  0  0  3  0  0  0  0  0  0
  -23.5220  -30.0530   20.2020 C   0  0  0  0  0  2  0  0  0  0  0  0
  -24.6470  -31.2210   22.1440 N   0  0  0  0  0  0  0  0  0  0  0  0
  -23.5670  -32.2030   23.8810 O   0  0  0  0  0  0  0  0  0  0  0  0
  -22.7460  -29.5770   22.5500 C   0  0  0  0  0  0  0  0  0  0  0  0
  -21.4220  -29.3730   22.4400 N   0  0  0  0  0  0  0  0  0  0  0  0
  -23.4560  -28.9330   23.3260 O   0  0  0  0  0  0  0  0  0  0  0  0
  -20.9090  -29.9530   21.7900 H   0  0  0  0  0  0  0  0  0  0  0  0
  -18.0830  -28.0850   22.9480 C   0  0  0  0  0  0  0  0  0  0  0  0
  -20.6400  -28.3880   23.1850 C   0  0  0  0  0  3  0  0  0  0  0  0
  -20.7590  -26.9820   22.5530 C   0  0  0  0  0  2  0  0  0  0  0  0
  -19.6470  -26.6760   21.5460 C   0  0  0  0  0  2  0  0  0  0  0  0
  -18.2730  -26.7660   22.2170 C   0  0  0  0  0  2  0  0  0  0  0  0
  -19.1920  -28.8540   23.3880 C   0  0  0  0  0  0  0  0  0  0  0  0
  -18.9600  -30.0900   24.0310 C   0  0  0  0  0  3  0  0  0  0  0  0
  -17.6470  -30.5570   24.2370 C   0  0  0  0  0  3  0  0  0  0  0  0
  -16.5520  -29.7850   23.8110 C   0  0  0  0  0  3  0  0  0  0  0  0
  -16.7700  -28.5520   23.1730 C   0  0  0  0  0  3  0  0  0  0  0  0
  -25.9360  -32.5660   23.8880 C   0  0  0  0  0  3  0  0  0  0  0  0
  -26.4620  -31.7730   25.1460 C   0  0  1  0  0  0  0  0  0  0  0  0
  -25.3730  -31.5130   26.2130 C   0  0  0  0  0  1  0  0  0  0  0  0
  -27.0470  -30.4050   24.7240 C   0  0  0  0  0  1  0  0  0  0  0  0
  -27.6170  -32.5550   25.8140 C   0  0  0  0  0  1  0  0  0  0  0  0
  -25.6610  -33.9660   24.2340 N   0  0  0  0  0  0  0  0  0  0  0  0
  -25.9990  -35.0170   23.4750 C   0  0  0  0  0  0  0  0  0  0  0  0
  -26.6470  -34.9090   22.4320 O   0  0  0  0  0  0  0  0  0  0  0  0
  -25.0830  -34.1260   25.0470 H   0  0  0  0  0  0  0  0  0  0  0  0
  -24.2970  -36.8430   23.1680 C   0  0  0  0  0  1  0  0  0  0  0  0
  -25.5450  -36.4100   23.9520 C   0  0  0  0  0  3  0  0  0  0  0  0
  -27.7070  -37.2570   24.7520 C   0  0  0  0  0  1  0  0  0  0  0  0
  -26.5960  -37.4430   23.8230 N   0  0  0  0  0  0  0  0  0  0  0  0
  -26.2100  -38.3710   23.9780 H   0  0  0  0  0  0  0  0  0  0  0  0
  -29.4890  -16.2310   20.1450 C   0  0  0  0  0  3  0  0  0  0  0  0
  -30.2970  -14.9140   19.8060 C   0  0  0  0  0  0  0  0  0  0  0  0
  -30.0070  -12.6960   18.7710 C   0  0  0  0  0  2  0  0  0  0  0  0
  -28.9290  -12.8290   17.6720 C   0  0  0  0  0  2  0  0  0  0  0  0
  -27.5220  -12.6080   18.2620 C   0  0  0  0  0  2  0  0  0  0  0  0
  -27.2710  -13.4280   19.5540 C   0  0  0  0  0  3  0  0  0  0  0  0
  -28.4630  -13.3140   20.5320 C   0  0  0  0  0  2  0  0  0  0  0  0
  -29.6950  -13.6850   19.8180 N   0  0  0  0  0  0  0  0  0  0  0  0
  -31.4230  -15.0530   19.3210 O   0  0  0  0  0  0  0  0  0  0  0  0
  -24.9910  -13.9180   20.6340 C   0  0  0  0  0  0  0  0  0  0  0  0
  -23.9900  -13.0930   21.0730 C   0  0  0  0  0  0  0  0  0  0  0  0
  -24.4560  -11.7600   20.8560 C   0  0  0  0  0  0  0  0  0  0  0  0
  -26.0000  -13.0810   20.1840 N   0  0  0  0  0  0  0  0  0  0  0  0
  -25.6940  -11.7750   20.3790 N   0  0  0  0  0  0  0  0  0  0  0  0
  -23.7740  -10.4720   21.0170 C   0  0  0  0  0  0  0  0  0  0  0  0
  -24.2590   -9.4880   21.9080 C   0  0  0  0  0  3  0  0  0  0  0  0
  -23.5780   -8.2620   22.0600 C   0  0  0  0  0  3  0  0  0  0  0  0
  -22.3960   -8.0110   21.3220 C   0  0  0  0  0  0  0  0  0  0  0  0
  -21.9310   -8.9830   20.4190 C   0  0  0  0  0  3  0  0  0  0  0  0
  -22.6130  -10.2010   20.2640 C   0  0  0  0  0  3  0  0  0  0  0  0
  -21.6830   -6.8390   21.3880 O   0  0  0  0  0  0  0  0  0  0  0  0
  -21.5890   -6.1180   22.5510 C   0  0  0  0  0  0  0  0  0  0  0  0
  -21.0330   -6.6690   23.7250 C   0  0  0  0  0  3  0  0  0  0  0  0
  -20.8940   -5.8710   24.8790 C   0  0  0  0  0  3  0  0  0  0  0  0
  -21.2990   -4.5230   24.8570 C   0  0  0  0  0  0  0  0  0  0  0  0
  -21.8490   -3.9720   23.6860 C   0  0  0  0  0  3  0  0  0  0  0  0
  -21.9900   -4.7670   22.5350 C   0  0  0  0  0  0  0  0  0  0  0  0
  -22.4990   -4.2250   21.4030 F   0  0  0  0  0  0  0  0  0  0  0  0
  -21.1580   -3.7550   25.9610 F   0  0  0  0  0  0  0  0  0  0  0  0
  -22.6330  -13.5150   21.5540 C   0  0  0  0  0  0  0  0  0  0  0  0
  -22.0200  -12.7260   22.4290 N   0  0  0  0  0  0  0  0  0  0  0  0
  -22.1270  -14.5750   21.1890 O   0  0  0  0  0  0  0  0  0  0  0  0
  -22.4420  -11.8650   22.7440 H   0  0  0  0  0  0  0  0  0  0  0  0
  -21.1120  -12.9820   22.7880 H   0  0  0  0  0  0  0  0  0  0  0  0
  -25.1130  -15.3010   20.5410 N   0  0  0  0  0  0  0  0  0  0  0  0
  -24.2710  -15.8250   20.7580 H   0  0  0  0  0  0  0  0  0  0  0  0
  -25.5320  -15.6250   19.6820 H   0  0  0  0  0  0  0  0  0  0  0  0
  -28.9400  -16.7880   18.7900 C   0  0  0  0  0  2  0  0  0  0  0  0
  -27.8200  -17.7420   18.9560 N   0  0  0  0  0  4  0  0  0  0  0  0
  -27.0380  -17.3390   19.4400 H   0  0  0  0  0  0  0  0  0  0  0  0
  -27.5140  -18.1100   18.0730 H   0  0  0  0  0  0  0  0  0  0  0  0
  -28.1890  -18.4970   19.5210 H   0  0  0  0  0  0  0  0  0  0  0  0
  2  1  1  0
  3  1  2  0
  3  6  1  0
  4  2  2  0
  5  3  1  0
  7  5  2  0
  7  4  1  0
  9  8  1  0
  9 10  1  0
  9  4  1  0
 10 11  1  0
 12 11  1  0
 13 14  1  0
 13 12  1  0
 14 16  1  0
 15 26  2  0
 16 21  1  0
 17 25  1  0
 17 27  1  0
 18 24  1  0
 18 20  1  0
 19 25  1  0
 20 19  1  0
 21 20  2  0
 22 23  1  0
 22 16  2  0
 23 18  2  0
 24 17  1  0
 25 15  1  0
 27 29  2  0
 28 27  1  0
 30 28  1  0
 31 40  2  0
 31 36  1  0
 32 28  1  0
 32 36  1  0
 33 32  1  0
 34 35  1  0
 34 33  1  0
 35 31  1  0
 36 37  2  0
 37 38  1  0
 39 38  2  0
 40 39  1  0
 41 15  1  0
 41 46  1  0
 41 42  1  0
 42 45  1  1
 42 43  1  0
 44 42  1  0
 46 49  1  0
 47 51  1  0
 47 46  1  0
 48 47  2  0
 51 50  1  0
 53 51  1  0
 53 54  1  0
 53 52  1  0
 55 92  1  0
 55  5  1  0
 56 62  1  0
 56 55  1  0
 57 62  1  0
 58 59  1  0
 58 57  1  0
 60 59  1  0
 60 67  1  0
 60 61  1  0
 62 61  1  0
 63 56  2  0
 64 65  2  0
 65 84  1  0
 66 69  1  0
 66 65  1  0
 67 68  1  0
 67 64  1  0
 68 66  2  0
 69 70  1  0
 70 71  2  0
 72 75  1  0
 72 71  1  0
 73 72  2  0
 74 73  1  0
 74 69  2  0
 75 76  1  0
 76 77  1  0
 77 78  2  0
 79 78  1  0
 79 83  1  0
 80 79  2  0
 81 76  2  0
 81 80  1  0
 82 81  1  0
 84 85  1  0
 85 87  1  0
 85 88  1  0
 86 84  2  0
 89 64  1  0
 89 90  1  0
 91 89  1  0
 92 93  1  0
 93 94  1  0
 93 96  1  0
 95 93  1  0
M  ISO  4  13 101  14 101  55 100  56 100
M  END
>  <TORSDO>  (96) 
F 24

>  <SCORE>  (96) 
-10.742

>  <name>  (96) 
96

>  <ligand_id>  (96) 
96

>  <original_smiles>  (96) 
[H]c1c(C([H])(C([H])([H])[H])C([H])([H])C([H])([H])C([H])([H])C([H])([H])Oc2c([H])c([H])c3c(c2[H])C([H])([H])N(C(=O)C([H])(N([H])C(=O)C([H])(N([H])C([H])([H])[H])C([H])([H])[H])C(C([H])([H])[H])(C([H])([H])[H])C([H])([H])[H])C([H])(C(=O)N([H])C2([H])c4c([H])c([H])c([H])c([H])c4C([H])([H])C([H])([H])C2([H])[H])C3([H])[H])nc(C([H])(C(=O)N2C([H])([H])C([H])([H])C([H])([H])C([H])(n3nc(-c4c([H])c([H])c(Oc5c([H])c([H])c(F)c([H])c5F)c([H])c4[H])c(C(=O)N([H])[H])c3N([H])[H])C2([H])[H])C([H])([H])[N+]([H])([H])[H])c(C([H])([H])[H])c1[H]

>  <smiles>  (96) 
[H]c1c(C([H])(C([H])([H])[H])C([H])([H])C([H])([H])C([H])([H])C([H])([H])Oc2c([H])c([H])c3c(c2[H])C([H])([H])N(C(=O)C([H])(N([H])C(=O)C([H])(N([H])C([H])([H])[H])C([H])([H])[H])C(C([H])([H])[H])(C([H])([H])[H])C([H])([H])[H])C([H])(C(=O)N([H])C2([H])c4c([H])c([H])c([H])c([H])c4C([H])([H])C([H])([H])C2([H])[H])C3([H])[H])nc(C([H])(C(=O)N2C([H])([H])C([H])([H])C([H])([H])C([H])(n3nc(-c4c([H])c([H])c(Oc5c([H])c([H])c(F)c([H])c5F)c([H])c4[H])c(C(=O)N([H])[H])c3N([H])[H])C2([H])[H])C([H])([H])[N+]([H])([H])[H])c(C([H])([H])[H])c1[H]

$$$$
97:0:0
     RDKit          3D

 95103  0  0  1  0  0  0  0  0999 V2000
  -29.1810  -20.6570   21.0710 C   0  0  0  0  0  3  0  0  0  0  0  0
  -28.2960  -21.6630   20.5940 C   0  0  0  0  0  0  0  0  0  0  0  0
  -27.3100  -21.2710   19.6370 C   0  0  0  0  0  0  0  0  0  0  0  0
  -29.0320  -19.3130   20.6480 C   0  0  0  0  0  0  0  0  0  0  0  0
  -27.2510  -19.8930   19.2770 C   0  0  0  0  0  0  0  0  0  0  0  0
  -26.1590  -19.2830   18.4300 C   0  0  0  0  0  1  0  0  0  0  0  0
  -28.0830  -18.9640   19.7640 N   0  0  0  0  0  0  0  0  0  0  0  0
  -28.3100  -23.0590   21.2750 C   0  0  0  0  0  2  0  0  0  0  0  0
  -29.2010  -24.1800   20.6350 C   0  0  0  0  0  2  0  0  0  0  0  0
  -28.4770  -25.2810   19.7920 C   0  0  0  0  0  2  0  0  0  0  0  0
  -28.4620  -26.6490   20.2730 O   0  0  0  0  0  0  0  0  0  0  0  0
  -24.6450  -31.9280   23.2320 C   0  0  0  0  0  0  0  0  0  0  0  0
  -27.2860  -27.4000   20.2130 C   0  0  0  0  0  0  0  0  0  0  0  0
  -23.4460  -30.5050   21.6060 C   0  0  0  0  0  3  0  0  0  0  0  0
  -24.9010  -28.9520   20.2130 C   0  0  0  0  0  0  0  0  0  0  0  0
  -25.9800  -30.8430   21.4220 C   0  0  0  0  0  2  0  0  0  0  0  0
  -26.0620  -29.4620   20.8030 C   0  0  0  0  0  0  0  0  0  0  0  0
  -27.2490  -28.6840   20.8190 C   0  0  0  0  0  3  0  0  0  0  0  0
  -26.0940  -26.9400   19.5860 C   0  0  0  0  0  3  0  0  0  0  0  0
  -24.9090  -27.6890   19.6090 C   0  0  0  0  0  3  0  0  0  0  0  0
  -23.6660  -29.8170   20.2330 C   0  0  0  0  0  2  0  0  0  0  0  0
  -24.7090  -31.1110   22.1440 N   0  0  0  0  0  0  0  0  0  0  0  0
  -23.5640  -32.2060   23.7660 O   0  0  0  0  0  0  0  0  0  0  0  0
  -22.7950  -29.4920   22.5760 C   0  0  0  0  0  0  0  0  0  0  0  0
  -21.4720  -29.3040   22.4530 N   0  0  0  0  0  0  0  0  0  0  0  0
  -23.4770  -28.8830   23.4030 O   0  0  0  0  0  0  0  0  0  0  0  0
  -20.9830  -29.8620   21.7670 H   0  0  0  0  0  0  0  0  0  0  0  0
  -18.1070  -28.0640   22.9160 C   0  0  0  0  0  0  0  0  0  0  0  0
  -20.6570  -28.3590   23.2210 C   0  0  0  0  0  3  0  0  0  0  0  0
  -20.7900  -26.9310   22.6450 C   0  0  0  0  0  2  0  0  0  0  0  0
  -19.7030  -26.5990   21.6170 C   0  0  0  0  0  2  0  0  0  0  0  0
  -18.3090  -26.7160   22.2440 C   0  0  0  0  0  2  0  0  0  0  0  0
  -19.2080  -28.8460   23.3530 C   0  0  0  0  0  0  0  0  0  0  0  0
  -18.9690  -30.1160   23.9180 C   0  0  0  0  0  3  0  0  0  0  0  0
  -17.6600  -30.6070   24.0620 C   0  0  0  0  0  3  0  0  0  0  0  0
  -16.5710  -29.8260   23.6390 C   0  0  0  0  0  3  0  0  0  0  0  0
  -16.7940  -28.5560   23.0770 C   0  0  0  0  0  3  0  0  0  0  0  0
  -25.9290  -32.5710   23.8420 C   0  0  0  0  0  3  0  0  0  0  0  0
  -25.6140  -33.9670   24.1690 N   0  0  0  0  0  0  0  0  0  0  0  0
  -25.9300  -35.0200   23.4060 C   0  0  0  0  0  0  0  0  0  0  0  0
  -26.5910  -34.9200   22.3680 O   0  0  0  0  0  0  0  0  0  0  0  0
  -25.0370  -34.1130   24.9810 H   0  0  0  0  0  0  0  0  0  0  0  0
  -24.1870  -36.8040   23.0450 C   0  0  0  0  0  1  0  0  0  0  0  0
  -25.4290  -36.4070   23.8590 C   0  0  0  0  0  3  0  0  0  0  0  0
  -27.5580  -37.3090   24.6900 C   0  0  0  0  0  1  0  0  0  0  0  0
  -26.4530  -37.4680   23.7500 N   0  0  0  0  0  0  0  0  0  0  0  0
  -26.0420  -38.3860   23.8960 H   0  0  0  0  0  0  0  0  0  0  0  0
  -26.4580  -31.8080   25.1190 C   0  0  1  0  0  0  0  0  0  0  0  0
  -25.3800  -31.5770   26.2030 C   0  0  0  0  0  1  0  0  0  0  0  0
  -27.0580  -30.4340   24.7350 C   0  0  0  0  0  1  0  0  0  0  0  0
  -27.6010  -32.6200   25.7780 C   0  0  0  0  0  1  0  0  0  0  0  0
  -26.2320  -22.2610   19.1800 C   0  0  0  0  0  2  0  0  0  0  0  0
  -25.7750  -22.2750   17.7000 C   0  0  0  0  0  2  0  0  0  0  0  0
  -23.7230  -22.6530   16.2360 C   0  0  0  0  0  1  0  0  0  0  0  0
  -24.2430  -22.1140   17.5660 C   0  0  0  0  0  2  0  0  0  0  0  0
  -29.7250  -18.1190   21.3220 C   0  0  0  0  0  2  0  0  0  0  0  0
  -30.3710  -17.0640   20.3680 C   0  0  0  0  0  2  0  0  0  0  0  0
  -30.6890  -14.5660   20.2060 C   0  0  0  0  0  0  0  0  0  0  0  0
  -30.3370  -12.3990   19.0850 C   0  0  0  0  0  2  0  0  0  0  0  0
  -29.3810  -12.6150   17.8950 C   0  0  0  0  0  2  0  0  0  0  0  0
  -27.9150  -12.4640   18.3440 C   0  0  0  0  0  2  0  0  0  0  0  0
  -27.5940  -13.2900   19.6180 C   0  0  0  0  0  3  0  0  0  0  0  0
  -28.6730  -13.0900   20.7060 C   0  0  0  0  0  2  0  0  0  0  0  0
  -29.9890  -13.3920   20.1150 N   0  0  0  0  0  0  0  0  0  0  0  0
  -31.8090  -14.7040   19.7140 O   0  0  0  0  0  0  0  0  0  0  0  0
  -30.0270  -15.6430   20.6790 N   0  0  0  0  0  0  0  0  0  0  0  0
  -29.1260  -15.4680   21.0960 H   0  0  0  0  0  0  0  0  0  0  0  0
  -25.2140  -13.8800   20.3900 C   0  0  0  0  0  0  0  0  0  0  0  0
  -24.1610  -13.0960   20.7870 C   0  0  0  0  0  0  0  0  0  0  0  0
  -24.6280  -11.7480   20.7430 C   0  0  0  0  0  0  0  0  0  0  0  0
  -26.2520  -13.0020   20.1260 N   0  0  0  0  0  0  0  0  0  0  0  0
  -25.9070  -11.7160   20.3950 N   0  0  0  0  0  0  0  0  0  0  0  0
  -23.9150  -10.4820   20.9550 C   0  0  0  0  0  0  0  0  0  0  0  0
  -24.3550   -9.5290   21.9000 C   0  0  0  0  0  3  0  0  0  0  0  0
  -23.6420   -8.3260   22.0910 C   0  0  0  0  0  3  0  0  0  0  0  0
  -22.4710   -8.0700   21.3380 C   0  0  0  0  0  0  0  0  0  0  0  0
  -22.0480   -9.0110   20.3830 C   0  0  0  0  0  3  0  0  0  0  0  0
  -22.7640  -10.2040   20.1910 C   0  0  0  0  0  3  0  0  0  0  0  0
  -21.7280   -6.9190   21.4400 O   0  0  0  0  0  0  0  0  0  0  0  0
  -21.6700   -6.2020   22.6060 C   0  0  0  0  0  0  0  0  0  0  0  0
  -21.2250   -6.7820   23.8150 C   0  0  0  0  0  3  0  0  0  0  0  0
  -21.1080   -5.9900   24.9740 C   0  0  0  0  0  3  0  0  0  0  0  0
  -21.4310   -4.6210   24.9270 C   0  0  0  0  0  0  0  0  0  0  0  0
  -21.8700   -4.0400   23.7240 C   0  0  0  0  0  3  0  0  0  0  0  0
  -21.9840   -4.8280   22.5650 C   0  0  0  0  0  0  0  0  0  0  0  0
  -22.3870   -4.2620   21.4030 F   0  0  0  0  0  0  0  0  0  0  0  0
  -21.3110   -3.8580   26.0380 F   0  0  0  0  0  0  0  0  0  0  0  0
  -22.7690  -13.5710   21.0860 C   0  0  0  0  0  0  0  0  0  0  0  0
  -22.0590  -12.8690   21.9650 N   0  0  0  0  0  0  0  0  0  0  0  0
  -22.3200  -14.6020   20.5880 O   0  0  0  0  0  0  0  0  0  0  0  0
  -22.4330  -12.0420   22.4020 H   0  0  0  0  0  0  0  0  0  0  0  0
  -21.1280  -13.1780   22.2050 H   0  0  0  0  0  0  0  0  0  0  0  0
  -25.3670  -15.2490   20.2130 N   0  0  0  0  0  0  0  0  0  0  0  0
  -24.6050  -15.9050   20.3640 H   0  0  0  0  0  0  0  0  0  0  0  0
  -26.2160  -15.6970   19.8990 H   0  0  0  0  0  0  0  0  0  0  0  0
  2  1  2  0
  2  8  1  0
  3  2  1  0
  4  1  1  0
  4 56  1  0
  5  3  2  0
  5  7  1  0
  6  5  1  0
  7  4  2  0
  9  8  1  0
 10 11  1  0
 10  9  1  0
 12 23  2  0
 13 11  1  0
 13 18  1  0
 14 22  1  0
 14 24  1  0
 15 21  1  0
 15 17  1  0
 16 22  1  0
 17 18  2  0
 17 16  1  0
 19 20  1  0
 19 13  2  0
 20 15  2  0
 21 14  1  0
 22 12  1  0
 24 26  2  0
 25 24  1  0
 27 25  1  0
 28 37  2  0
 28 33  1  0
 29 25  1  0
 29 33  1  0
 30 29  1  0
 31 32  1  0
 31 30  1  0
 32 28  1  0
 33 34  2  0
 34 35  1  0
 36 35  2  0
 37 36  1  0
 38 12  1  0
 38 39  1  0
 38 48  1  0
 39 42  1  0
 40 44  1  0
 40 39  1  0
 41 40  2  0
 44 43  1  0
 46 44  1  0
 46 47  1  0
 46 45  1  0
 48 51  1  1
 48 49  1  0
 50 48  1  0
 52  3  1  0
 53 52  1  0
 54 55  1  0
 55 53  1  0
 57 66  1  0
 57 56  1  0
 58 66  1  0
 59 64  1  0
 60 61  1  0
 60 59  1  0
 62 61  1  0
 62 71  1  0
 62 63  1  0
 64 58  1  0
 64 63  1  0
 65 58  2  0
 66 67  1  0
 68 69  2  0
 69 88  1  0
 70 69  1  0
 70 73  1  0
 71 68  1  0
 71 72  1  0
 72 70  2  0
 73 74  1  0
 74 75  2  0
 76 79  1  0
 76 75  1  0
 77 76  2  0
 78 77  1  0
 78 73  2  0
 79 80  1  0
 80 81  1  0
 81 82  2  0
 83 82  1  0
 83 87  1  0
 84 83  2  0
 85 80  2  0
 85 84  1  0
 86 85  1  0
 88 89  1  0
 89 92  1  0
 89 91  1  0
 90 88  2  0
 93 94  1  0
 93 68  1  0
 95 93  1  0
M  ISO  4  10 101  11 101  58 100  66 100
M  END
>  <TORSDO>  (97) 
F 24

>  <SCORE>  (97) 
-12.036

>  <name>  (97) 
97

>  <ligand_id>  (97) 
97

>  <original_smiles>  (97) 
[H]c1c([H])c([H])c2c(c1[H])C([H])([H])C([H])([H])C([H])([H])C2([H])N([H])C(=O)C1([H])N(C(=O)C([H])(N([H])C(=O)C([H])(N([H])C([H])([H])[H])C([H])([H])[H])C(C([H])([H])[H])(C([H])([H])[H])C([H])([H])[H])C([H])([H])c2c([H])c(OC([H])([H])C([H])([H])C([H])([H])c3c([H])c(C([H])([H])C([H])([H])N([H])C(=O)N4C([H])([H])C([H])([H])C([H])([H])C([H])(n5nc(-c6c([H])c([H])c(Oc7c([H])c([H])c(F)c([H])c7F)c([H])c6[H])c(C(=O)N([H])[H])c5N([H])[H])C4([H])[H])nc(C([H])([H])[H])c3C([H])([H])C([H])([H])C([H])([H])C([H])([H])[H])c([H])c([H])c2C1([H])[H]

>  <smiles>  (97) 
[H]c1c([H])c([H])c2c(c1[H])C([H])([H])C([H])([H])C([H])([H])C2([H])N([H])C(=O)C1([H])N(C(=O)C([H])(N([H])C(=O)C([H])(N([H])C([H])([H])[H])C([H])([H])[H])C(C([H])([H])[H])(C([H])([H])[H])C([H])([H])[H])C([H])([H])c2c([H])c(OC([H])([H])C([H])([H])C([H])([H])c3c([H])c(C([H])([H])C([H])([H])N([H])C(=O)N4C([H])([H])C([H])([H])C([H])([H])C([H])(n5nc(-c6c([H])c([H])c(Oc7c([H])c([H])c(F)c([H])c7F)c([H])c6[H])c(C(=O)N([H])[H])c5N([H])[H])C4([H])[H])nc(C([H])([H])[H])c3C([H])([H])C([H])([H])C([H])([H])C([H])([H])[H])c([H])c([H])c2C1([H])[H]

$$$$
98:0:0
     RDKit          3D

 98106  0  0  1  0  0  0  0  0999 V2000
  -27.4000  -21.6410   19.5930 C   0  0  0  0  0  3  0  0  0  0  0  0
  -28.5310  -20.8180   19.7440 C   0  0  0  0  0  0  0  0  0  0  0  0
  -28.3120  -19.4220   19.4550 C   0  0  0  0  0  0  0  0  0  0  0  0
  -26.1870  -19.9280   18.7270 C   0  0  0  0  0  0  0  0  0  0  0  0
  -26.2520  -21.2060   19.0590 N   0  0  0  0  0  0  0  0  0  0  0  0
  -27.1300  -19.0230   18.9450 N   0  0  0  0  0  0  0  0  0  0  0  0
  -29.8420  -21.5240   20.1860 C   0  0  0  0  0  2  0  0  0  0  0  0
  -30.0280  -23.0260   19.6980 C   0  0  0  0  0  2  0  0  0  0  0  0
  -29.5730  -24.2210   20.6270 C   0  0  0  0  0  2  0  0  0  0  0  0
  -29.6680  -25.6480   19.9610 C   0  0  0  0  0  2  0  0  0  0  0  0
  -29.2810  -26.8110   20.7550 O   0  0  0  0  0  0  0  0  0  0  0  0
  -24.9030  -31.7990   23.4290 C   0  0  0  0  0  0  0  0  0  0  0  0
  -28.0640  -27.4720   20.6060 C   0  0  0  0  0  0  0  0  0  0  0  0
  -23.9260  -30.3240   21.7020 C   0  0  0  0  0  3  0  0  0  0  0  0
  -25.5860  -28.8710   20.4080 C   0  0  0  0  0  0  0  0  0  0  0  0
  -26.4380  -30.8220   21.7150 C   0  0  0  0  0  2  0  0  0  0  0  0
  -26.6600  -29.4540   21.0900 C   0  0  0  0  0  0  0  0  0  0  0  0
  -27.8950  -28.7610   21.1850 C   0  0  0  0  0  3  0  0  0  0  0  0
  -26.9610  -26.9130   19.9240 C   0  0  0  0  0  3  0  0  0  0  0  0
  -25.7350  -27.6010   19.8200 C   0  0  0  0  0  3  0  0  0  0  0  0
  -24.2950  -29.6580   20.3480 C   0  0  0  0  0  2  0  0  0  0  0  0
  -25.1020  -30.9990   22.3410 N   0  0  0  0  0  0  0  0  0  0  0  0
  -23.7660  -32.0040   23.8760 O   0  0  0  0  0  0  0  0  0  0  0  0
  -23.2590  -29.2670   22.6120 C   0  0  0  0  0  0  0  0  0  0  0  0
  -21.9570  -29.0250   22.3970 N   0  0  0  0  0  0  0  0  0  0  0  0
  -23.9160  -28.6670   23.4680 O   0  0  0  0  0  0  0  0  0  0  0  0
  -21.4860  -29.5670   21.6860 H   0  0  0  0  0  0  0  0  0  0  0  0
  -18.6000  -27.7210   22.7290 C   0  0  0  0  0  0  0  0  0  0  0  0
  -21.1360  -28.0420   23.1080 C   0  0  0  0  0  3  0  0  0  0  0  0
  -21.3010  -26.6320   22.4940 C   0  0  0  0  0  2  0  0  0  0  0  0
  -20.2470  -26.3090   21.4290 C   0  0  0  0  0  2  0  0  0  0  0  0
  -18.8390  -26.3980   22.0240 C   0  0  0  0  0  2  0  0  0  0  0  0
  -19.6790  -28.5000   23.2260 C   0  0  0  0  0  0  0  0  0  0  0  0
  -19.4020  -29.7380   23.8460 C   0  0  0  0  0  3  0  0  0  0  0  0
  -18.0790  -30.1980   23.9740 C   0  0  0  0  0  3  0  0  0  0  0  0
  -17.0140  -29.4170   23.4930 C   0  0  0  0  0  3  0  0  0  0  0  0
  -17.2730  -28.1790   22.8770 C   0  0  0  0  0  3  0  0  0  0  0  0
  -26.0900  -32.5110   24.1500 C   0  0  0  0  0  3  0  0  0  0  0  0
  -26.4770  -31.8400   25.5250 C   0  0  1  0  0  0  0  0  0  0  0  0
  -25.2770  -31.6480   26.4840 C   0  0  0  0  0  1  0  0  0  0  0  0
  -27.1230  -30.4540   25.2940 C   0  0  0  0  0  1  0  0  0  0  0  0
  -27.5330  -32.7050   26.2530 C   0  0  0  0  0  1  0  0  0  0  0  0
  -25.7080  -33.9160   24.3510 N   0  0  0  0  0  0  0  0  0  0  0  0
  -26.0940  -34.9300   23.5640 C   0  0  0  0  0  0  0  0  0  0  0  0
  -26.8750  -34.7840   22.6200 O   0  0  0  0  0  0  0  0  0  0  0  0
  -25.0250  -34.0990   25.0710 H   0  0  0  0  0  0  0  0  0  0  0  0
  -24.3610  -36.6330   22.9110 C   0  0  0  0  0  1  0  0  0  0  0  0
  -25.5200  -36.3260   23.8730 C   0  0  0  0  0  3  0  0  0  0  0  0
  -27.5230  -37.3450   24.8640 C   0  0  0  0  0  1  0  0  0  0  0  0
  -26.5270  -37.4060   23.7960 N   0  0  0  0  0  0  0  0  0  0  0  0
  -26.0800  -38.3180   23.8310 H   0  0  0  0  0  0  0  0  0  0  0  0
  -29.3140  -18.2400   19.5490 C   0  0  0  0  0  2  0  0  0  0  0  0
  -30.0680  -17.5960   21.9460 C   0  0  0  0  0  1  0  0  0  0  0  0
  -29.1450  -17.2370   20.7680 C   0  0  0  0  0  3  0  0  0  0  0  0
  -30.0970  -14.8330   20.1750 C   0  0  0  0  0  0  0  0  0  0  0  0
  -30.1680  -12.4840   19.3540 C   0  0  0  0  0  2  0  0  0  0  0  0
  -29.1620  -12.3510   18.1870 C   0  0  0  0  0  2  0  0  0  0  0  0
  -27.7350  -12.0710   18.7140 C   0  0  0  0  0  2  0  0  0  0  0  0
  -27.3230  -13.0340   19.8570 C   0  0  0  0  0  3  0  0  0  0  0  0
  -28.4320  -13.1030   20.9260 C   0  0  0  0  0  2  0  0  0  0  0  0
  -29.6640  -13.5420   20.2480 N   0  0  0  0  0  0  0  0  0  0  0  0
  -31.1930  -15.1360   19.6860 O   0  0  0  0  0  0  0  0  0  0  0  0
  -29.1620  -15.7520   20.5490 N   0  0  0  0  0  0  0  0  0  0  0  0
  -28.3050  -15.3010   20.8460 H   0  0  0  0  0  0  0  0  0  0  0  0
  -25.0000  -13.4910   20.8580 C   0  0  0  0  0  0  0  0  0  0  0  0
  -23.9870  -12.6570   21.2490 C   0  0  0  0  0  0  0  0  0  0  0  0
  -24.4750  -11.3300   21.0540 C   0  0  0  0  0  0  0  0  0  0  0  0
  -26.0310  -12.6700   20.4360 N   0  0  0  0  0  0  0  0  0  0  0  0
  -25.7250  -11.3590   20.6100 N   0  0  0  0  0  0  0  0  0  0  0  0
  -23.8040  -10.0330   21.2020 C   0  0  0  0  0  0  0  0  0  0  0  0
  -24.2640   -9.0680   22.1250 C   0  0  0  0  0  3  0  0  0  0  0  0
  -23.5930   -7.8350   22.2650 C   0  0  0  0  0  3  0  0  0  0  0  0
  -22.4480   -7.5560   21.4810 C   0  0  0  0  0  0  0  0  0  0  0  0
  -22.0050   -8.5110   20.5470 C   0  0  0  0  0  3  0  0  0  0  0  0
  -22.6800   -9.7350   20.4070 C   0  0  0  0  0  3  0  0  0  0  0  0
  -21.7470   -6.3750   21.5240 O   0  0  0  0  0  0  0  0  0  0  0  0
  -21.6640   -5.6360   22.6760 C   0  0  0  0  0  0  0  0  0  0  0  0
  -21.0160   -6.1240   23.8320 C   0  0  0  0  0  3  0  0  0  0  0  0
  -20.8910   -5.3030   24.9720 C   0  0  0  0  0  3  0  0  0  0  0  0
  -21.4040   -3.9910   24.9540 C   0  0  0  0  0  0  0  0  0  0  0  0
  -22.0480   -3.5030   23.8040 C   0  0  0  0  0  3  0  0  0  0  0  0
  -22.1730   -4.3210   22.6680 C   0  0  0  0  0  0  0  0  0  0  0  0
  -22.7750   -3.8360   21.5550 F   0  0  0  0  0  0  0  0  0  0  0  0
  -21.2780   -3.2000   26.0440 F   0  0  0  0  0  0  0  0  0  0  0  0
  -22.6110  -13.0650   21.6920 C   0  0  0  0  0  0  0  0  0  0  0  0
  -21.9920  -12.2820   22.5670 N   0  0  0  0  0  0  0  0  0  0  0  0
  -22.0960  -14.1120   21.3000 O   0  0  0  0  0  0  0  0  0  0  0  0
  -22.4250  -11.4400   22.9160 H   0  0  0  0  0  0  0  0  0  0  0  0
  -21.0720  -12.5370   22.8990 H   0  0  0  0  0  0  0  0  0  0  0  0
  -25.1280  -14.8740   20.8180 N   0  0  0  0  0  0  0  0  0  0  0  0
  -24.3590  -15.4870   21.0610 H   0  0  0  0  0  0  0  0  0  0  0  0
  -25.9270  -15.3670   20.4430 H   0  0  0  0  0  0  0  0  0  0  0  0
  -24.9770  -19.4980   17.9240 C   0  0  0  0  0  2  0  0  0  0  0  0
  -23.8940  -20.5870   17.8270 C   0  0  0  0  0  2  0  0  0  0  0  0
  -25.0670  -21.8070   15.9420 C   0  0  0  0  0  1  0  0  0  0  0  0
  -22.7030  -22.3850   16.5880 C   0  0  0  0  0  1  0  0  0  0  0  0
  -23.1750  -20.2360   15.3990 C   0  0  0  0  0  1  0  0  0  0  0  0
  -23.7210  -21.2390   16.4370 C   0  0  2  0  0  0  0  0  0  0  0  0
  1  2  2  0
  2  7  1  0
  3 52  1  0
  3  2  1  0
  4  6  1  0
  4  5  2  0
  5  1  1  0
  6  3  2  0
  8  7  1  0
  8  9  1  0
 10  9  1  0
 10 11  1  0
 12 23  2  0
 13 11  1  0
 13 18  1  0
 14 22  1  0
 14 24  1  0
 15 17  1  0
 16 22  1  0
 17 18  2  0
 17 16  1  0
 19 13  2  0
 20 19  1  0
 20 15  2  0
 21 15  1  0
 21 14  1  0
 22 12  1  0
 24 26  2  0
 25 24  1  0
 27 25  1  0
 28 37  2  0
 28 33  1  0
 29 25  1  0
 29 33  1  0
 30 29  1  0
 31 32  1  0
 31 30  1  0
 32 28  1  0
 33 34  2  0
 34 35  1  0
 36 35  2  0
 37 36  1  0
 38 12  1  0
 38 43  1  0
 38 39  1  0
 39 42  1  1
 39 40  1  0
 41 39  1  0
 43 46  1  0
 44 48  1  0
 44 43  1  0
 45 44  2  0
 48 47  1  0
 50 51  1  0
 50 48  1  0
 50 49  1  0
 52 54  1  0
 54 53  1  0
 55 61  1  0
 55 63  1  0
 56 61  1  0
 57 58  1  0
 57 56  1  0
 59 58  1  0
 59 68  1  0
 59 60  1  0
 61 60  1  0
 62 55  2  0
 63 54  1  0
 63 64  1  0
 65 66  2  0
 66 85  1  0
 67 70  1  0
 67 66  1  0
 68 69  1  0
 68 65  1  0
 69 67  2  0
 70 71  1  0
 71 72  2  0
 73 76  1  0
 73 72  1  0
 74 73  2  0
 75 74  1  0
 75 70  2  0
 76 77  1  0
 77 78  1  0
 78 79  2  0
 80 79  1  0
 80 84  1  0
 81 80  2  0
 82 77  2  0
 82 81  1  0
 83 82  1  0
 85 86  1  0
 86 89  1  0
 86 88  1  0
 87 85  2  0
 90 65  1  0
 90 91  1  0
 92 90  1  0
 93  4  1  0
 94 93  1  0
 98 95  1  6
 97 98  1  0
 98 96  1  0
 98 94  1  0
M  ISO  4  10 101  11 101  55 100  63 100
M  END
>  <TORSDO>  (98) 
F 25

>  <SCORE>  (98) 
-7.662

>  <name>  (98) 
98

>  <ligand_id>  (98) 
98

>  <original_smiles>  (98) 
[H]c1nc(C([H])([H])C([H])([H])C(C([H])([H])[H])(C([H])([H])[H])C([H])([H])[H])nc(C([H])([H])C([H])(N([H])C(=O)N2C([H])([H])C([H])([H])C([H])([H])C([H])(n3nc(-c4c([H])c([H])c(Oc5c([H])c([H])c(F)c([H])c5F)c([H])c4[H])c(C(=O)N([H])[H])c3N([H])[H])C2([H])[H])C([H])([H])[H])c1C([H])([H])C([H])([H])C([H])([H])C([H])([H])Oc1c([H])c([H])c2c(c1[H])C([H])([H])N(C(=O)C([H])(N([H])C(=O)C([H])(N([H])C([H])([H])[H])C([H])([H])[H])C(C([H])([H])[H])(C([H])([H])[H])C([H])([H])[H])C([H])(C(=O)N([H])C1([H])c3c([H])c([H])c([H])c([H])c3C([H])([H])C([H])([H])C1([H])[H])C2([H])[H]

>  <smiles>  (98) 
[H]c1nc(C([H])([H])C([H])([H])C(C([H])([H])[H])(C([H])([H])[H])C([H])([H])[H])nc(C([H])([H])C([H])(N([H])C(=O)N2C([H])([H])C([H])([H])C([H])([H])C([H])(n3nc(-c4c([H])c([H])c(Oc5c([H])c([H])c(F)c([H])c5F)c([H])c4[H])c(C(=O)N([H])[H])c3N([H])[H])C2([H])[H])C([H])([H])[H])c1C([H])([H])C([H])([H])C([H])([H])C([H])([H])Oc1c([H])c([H])c2c(c1[H])C([H])([H])N(C(=O)C([H])(N([H])C(=O)C([H])(N([H])C([H])([H])[H])C([H])([H])[H])C(C([H])([H])[H])(C([H])([H])[H])C([H])([H])[H])C([H])(C(=O)N([H])C1([H])c3c([H])c([H])c([H])c([H])c3C([H])([H])C([H])([H])C1([H])[H])C2([H])[H]

$$$$
