0:0:0
     RDKit          3D

 92100  0  0  1  0  0  0  0  0999 V2000
  -29.6570  -19.2340   18.3780 C   0  0  0  0  0  2  0  0  0  0  0  0
  -29.1270  -20.1500   17.4470 C   0  0  0  0  0  0  0  0  0  0  0  0
  -29.4010  -19.6650   19.6490 C   0  0  0  0  0  3  0  0  0  0  0  0
  -28.5560  -21.1570   18.1670 C   0  0  0  0  0  0  0  0  0  0  0  0
  -29.1060  -19.9780   15.9510 C   0  0  0  0  0  1  0  0  0  0  0  0
  -27.6310  -22.1910   17.6040 C   0  0  0  0  0  1  0  0  0  0  0  0
  -28.8900  -21.0310   19.5260 N   0  0  0  0  0  0  0  0  0  0  0  0
  -29.6020  -18.6960   20.8610 C   0  0  0  0  0  2  0  0  0  0  0  0
  -30.5020  -17.3400   20.6800 C   0  0  0  0  0  2  0  0  0  0  0  0
  -30.6550  -14.7570   20.3670 C   0  0  0  0  0  0  0  0  0  0  0  0
  -30.4160  -12.5210   19.2780 C   0  0  0  0  0  2  0  0  0  0  0  0
  -29.4740  -12.6190   18.0610 C   0  0  0  0  0  2  0  0  0  0  0  0
  -28.0060  -12.4390   18.4940 C   0  0  0  0  0  2  0  0  0  0  0  0
  -27.6390  -13.2990   19.7330 C   0  0  0  0  0  3  0  0  0  0  0  0
  -28.7030  -13.1920   20.8490 C   0  0  0  0  0  2  0  0  0  0  0  0
  -29.9970  -13.5530   20.2550 N   0  0  0  0  0  0  0  0  0  0  0  0
  -31.8410  -14.8340   20.0320 O   0  0  0  0  0  0  0  0  0  0  0  0
  -29.9440  -15.9120   20.6580 N   0  0  0  0  0  0  0  0  0  0  0  0
  -28.9630  -15.8010   20.8660 H   0  0  0  0  0  0  0  0  0  0  0  0
  -25.2460  -13.8730   20.4520 C   0  0  0  0  0  0  0  0  0  0  0  0
  -24.1850  -13.0920   20.8220 C   0  0  0  0  0  0  0  0  0  0  0  0
  -24.6590  -11.7440   20.7990 C   0  0  0  0  0  0  0  0  0  0  0  0
  -26.2980  -13.0000   20.2230 N   0  0  0  0  0  0  0  0  0  0  0  0
  -25.9520  -11.7150   20.4950 N   0  0  0  0  0  0  0  0  0  0  0  0
  -23.9410  -10.4770   20.9910 C   0  0  0  0  0  0  0  0  0  0  0  0
  -24.3620   -9.5280   21.9500 C   0  0  0  0  0  3  0  0  0  0  0  0
  -23.6430   -8.3260   22.1290 C   0  0  0  0  0  3  0  0  0  0  0  0
  -22.4910   -8.0650   21.3500 C   0  0  0  0  0  0  0  0  0  0  0  0
  -22.0900   -9.0030   20.3820 C   0  0  0  0  0  3  0  0  0  0  0  0
  -22.8090  -10.1950   20.2000 C   0  0  0  0  0  3  0  0  0  0  0  0
  -21.7450   -6.9150   21.4370 O   0  0  0  0  0  0  0  0  0  0  0  0
  -21.6600   -6.1980   22.6040 C   0  0  0  0  0  0  0  0  0  0  0  0
  -21.1470   -6.7670   23.7900 C   0  0  0  0  0  3  0  0  0  0  0  0
  -21.0130   -5.9770   24.9500 C   0  0  0  0  0  3  0  0  0  0  0  0
  -21.3800   -4.6170   24.9220 C   0  0  0  0  0  0  0  0  0  0  0  0
  -21.8840   -4.0480   23.7390 C   0  0  0  0  0  3  0  0  0  0  0  0
  -22.0210   -4.8360   22.5840 C   0  0  0  0  0  0  0  0  0  0  0  0
  -22.4860   -4.2780   21.4410 F   0  0  0  0  0  0  0  0  0  0  0  0
  -21.2440   -3.8550   26.0320 F   0  0  0  0  0  0  0  0  0  0  0  0
  -22.7830  -13.5590   21.0840 C   0  0  0  0  0  0  0  0  0  0  0  0
  -22.0540  -12.8560   21.9450 N   0  0  0  0  0  0  0  0  0  0  0  0
  -22.3410  -14.5810   20.5620 O   0  0  0  0  0  0  0  0  0  0  0  0
  -22.4270  -12.0310   22.3920 H   0  0  0  0  0  0  0  0  0  0  0  0
  -21.1130  -13.1490   22.1620 H   0  0  0  0  0  0  0  0  0  0  0  0
  -25.3990  -15.2440   20.2660 N   0  0  0  0  0  0  0  0  0  0  0  0
  -24.6250  -15.8910   20.3690 H   0  0  0  0  0  0  0  0  0  0  0  0
  -26.2370  -15.6840   19.9060 H   0  0  0  0  0  0  0  0  0  0  0  0
  -28.5310  -22.1170   20.5470 C   0  0  0  0  0  2  0  0  0  0  0  0
  -29.0960  -23.6650   20.4900 C   0  0  0  0  0  2  0  0  0  0  0  0
  -28.9630  -25.2390   18.4360 C   0  0  0  0  0  1  0  0  0  0  0  0
  -28.3370  -24.9420   19.8100 C   0  0  0  0  0  3  0  0  0  0  0  0
  -28.3410  -26.3280   20.4150 O   0  0  0  0  0  0  0  0  0  0  0  0
  -24.5780  -31.8540   23.2530 C   0  0  0  0  0  0  0  0  0  0  0  0
  -27.2460  -27.2250   20.2800 C   0  0  0  0  0  0  0  0  0  0  0  0
  -23.4140  -30.4480   21.5930 C   0  0  0  0  0  3  0  0  0  0  0  0
  -24.8960  -28.8910   20.2030 C   0  0  0  0  0  0  0  0  0  0  0  0
  -25.9640  -30.7440   21.4800 C   0  0  0  0  0  2  0  0  0  0  0  0
  -26.0530  -29.3610   20.8340 C   0  0  0  0  0  0  0  0  0  0  0  0
  -27.2270  -28.5380   20.8680 C   0  0  0  0  0  3  0  0  0  0  0  0
  -26.0670  -26.8390   19.6000 C   0  0  0  0  0  3  0  0  0  0  0  0
  -24.9090  -27.6380   19.5750 C   0  0  0  0  0  3  0  0  0  0  0  0
  -23.6610  -29.7710   20.2210 C   0  0  0  0  0  2  0  0  0  0  0  0
  -24.6700  -31.0350   22.1630 N   0  0  0  0  0  0  0  0  0  0  0  0
  -23.4820  -32.1350   23.7580 O   0  0  0  0  0  0  0  0  0  0  0  0
  -22.7270  -29.4350   22.5410 C   0  0  0  0  0  0  0  0  0  0  0  0
  -21.4000  -29.2740   22.3990 N   0  0  0  0  0  0  0  0  0  0  0  0
  -23.3890  -28.7980   23.3660 O   0  0  0  0  0  0  0  0  0  0  0  0
  -20.9270  -29.8350   21.7040 H   0  0  0  0  0  0  0  0  0  0  0  0
  -17.9960  -28.1510   22.9000 C   0  0  0  0  0  0  0  0  0  0  0  0
  -20.5620  -28.3450   23.1590 C   0  0  0  0  0  3  0  0  0  0  0  0
  -20.6270  -26.9210   22.5610 C   0  0  0  0  0  2  0  0  0  0  0  0
  -19.5130  -26.6400   21.5480 C   0  0  0  0  0  2  0  0  0  0  0  0
  -18.1370  -26.8090   22.2000 C   0  0  0  0  0  2  0  0  0  0  0  0
  -19.1360  -28.8790   23.3360 C   0  0  0  0  0  0  0  0  0  0  0  0
  -18.9500  -30.1370   23.9510 C   0  0  0  0  0  3  0  0  0  0  0  0
  -17.6580  -30.6660   24.1320 C   0  0  0  0  0  3  0  0  0  0  0  0
  -16.5340  -29.9340   23.7120 C   0  0  0  0  0  3  0  0  0  0  0  0
  -16.7040  -28.6780   23.1030 C   0  0  0  0  0  3  0  0  0  0  0  0
  -25.8450  -32.4910   23.9010 C   0  0  0  0  0  3  0  0  0  0  0  0
  -25.5280  -33.8930   24.2090 N   0  0  0  0  0  0  0  0  0  0  0  0
  -25.8710  -34.9390   23.4450 C   0  0  0  0  0  0  0  0  0  0  0  0
  -26.5570  -34.8250   22.4260 O   0  0  0  0  0  0  0  0  0  0  0  0
  -24.9200  -34.0550   24.9990 H   0  0  0  0  0  0  0  0  0  0  0  0
  -24.1510  -36.7290   23.0430 C   0  0  0  0  0  1  0  0  0  0  0  0
  -25.3770  -36.3320   23.8810 C   0  0  0  0  0  3  0  0  0  0  0  0
  -27.4900  -37.2270   24.7530 C   0  0  0  0  0  1  0  0  0  0  0  0
  -26.4120  -37.3830   23.7790 N   0  0  0  0  0  0  0  0  0  0  0  0
  -26.0040  -38.3060   23.9030 H   0  0  0  0  0  0  0  0  0  0  0  0
  -26.3240  -31.7350   25.2010 C   0  0  1  0  0  0  0  0  0  0  0  0
  -25.1990  -31.5090   26.2390 C   0  0  0  0  0  1  0  0  0  0  0  0
  -26.9210  -30.3540   24.8480 C   0  0  0  0  0  1  0  0  0  0  0  0
  -27.4530  -32.5390   25.8880 C   0  0  0  0  0  1  0  0  0  0  0  0
  1  3  1  0
  2  4  2  0
  2  1  1  0
  3  8  1  0
  4  7  1  0
  5  2  1  0
  6  4  1  0
  7  3  1  0
  7 48  1  0
  9  8  1  0
 10 18  1  0
 11 16  1  0
 12 13  1  0
 12 11  1  0
 14 13  1  0
 14 23  1  0
 14 15  1  0
 16 10  1  0
 16 15  1  0
 17 10  2  0
 18  9  1  0
 18 19  1  0
 20 21  2  0
 21 40  1  0
 22 21  1  0
 22 25  1  0
 23 20  1  0
 23 24  1  0
 24 22  2  0
 25 26  1  0
 26 27  2  0
 28 31  1  0
 28 27  1  0
 29 28  2  0
 30 29  1  0
 30 25  2  0
 31 32  1  0
 32 33  1  0
 33 34  2  0
 35 34  1  0
 35 39  1  0
 36 35  2  0
 37 32  2  0
 37 36  1  0
 38 37  1  0
 40 41  1  0
 41 44  1  0
 41 43  1  0
 42 40  2  0
 45 46  1  0
 45 20  1  0
 47 45  1  0
 49 48  1  0
 51 50  1  0
 51 52  1  0
 51 49  1  0
 53 64  2  0
 54 52  1  0
 54 59  1  0
 55 63  1  0
 55 65  1  0
 56 62  1  0
 56 58  1  0
 57 63  1  0
 58 59  2  0
 58 57  1  0
 60 54  2  0
 61 60  1  0
 61 56  2  0
 62 55  1  0
 63 53  1  0
 65 67  2  0
 66 65  1  0
 68 66  1  0
 69 78  2  0
 69 74  1  0
 70 66  1  0
 70 74  1  0
 71 70  1  0
 72 73  1  0
 72 71  1  0
 73 69  1  0
 74 75  2  0
 75 76  1  0
 77 76  2  0
 78 77  1  0
 79 53  1  0
 79 80  1  0
 79 89  1  0
 80 83  1  0
 81 85  1  0
 81 80  1  0
 82 81  2  0
 85 84  1  0
 87 85  1  0
 87 88  1  0
 87 86  1  0
 89 92  1  1
 89 90  1  0
 91 89  1  0
M  ISO  4  10 100  18 100  51 101  52 101
M  END
>  <TORSDO>  (1) 
F 21

>  <SCORE>  (1) 
-13.341

>  <name>  (1) 
0

>  <ligand_id>  (1) 
0

>  <original_smiles>  (1) 
[H]c1c([H])c([H])c2c(c1[H])C([H])([H])C([H])([H])C([H])([H])C2([H])N([H])C(=O)C1([H])N(C(=O)C([H])(N([H])C(=O)C([H])(N([H])C([H])([H])[H])C([H])([H])[H])C(C([H])([H])[H])(C([H])([H])[H])C([H])([H])[H])C([H])([H])c2c([H])c(OC([H])(C([H])([H])[H])C([H])([H])C([H])([H])n3c(C([H])([H])[H])c(C([H])([H])[H])c([H])c3C([H])([H])C([H])([H])N([H])C(=O)N3C([H])([H])C([H])([H])C([H])([H])C([H])(n4nc(-c5c([H])c([H])c(Oc6c([H])c([H])c(F)c([H])c6F)c([H])c5[H])c(C(=O)N([H])[H])c4N([H])[H])C3([H])[H])c([H])c([H])c2C1([H])[H]

>  <smiles>  (1) 
[H]c1c([H])c([H])c2c(c1[H])C([H])([H])C([H])([H])C([H])([H])C2([H])N([H])C(=O)C1([H])N(C(=O)C([H])(N([H])C(=O)C([H])(N([H])C([H])([H])[H])C([H])([H])[H])C(C([H])([H])[H])(C([H])([H])[H])C([H])([H])[H])C([H])([H])c2c([H])c(OC([H])(C([H])([H])[H])C([H])([H])C([H])([H])n3c(C([H])([H])[H])c(C([H])([H])[H])c([H])c3C([H])([H])C([H])([H])N([H])C(=O)N3C([H])([H])C([H])([H])C([H])([H])C([H])(n4nc(-c5c([H])c([H])c(Oc6c([H])c([H])c(F)c([H])c6F)c([H])c5[H])c(C(=O)N([H])[H])c4N([H])[H])C3([H])[H])c([H])c([H])c2C1([H])[H]

$$$$
1:0:0
     RDKit          3D

 96104  0  0  1  0  0  0  0  0999 V2000
  -31.1090  -21.8960   19.2230 C   0  0  0  0  0  3  0  0  0  0  0  0
  -31.9780  -22.7110   18.4650 C   0  0  0  0  0  0  0  0  0  0  0  0
  -32.6440  -22.1260   17.3540 C   0  0  0  0  0  0  0  0  0  0  0  0
  -30.9050  -20.5580   18.8370 C   0  0  0  0  0  0  0  0  0  0  0  0
  -32.4220  -20.7460   17.0790 C   0  0  0  0  0  0  0  0  0  0  0  0
  -33.5100  -23.0060   16.4520 C   0  0  0  0  0  1  0  0  0  0  0  0
  -31.5570  -20.0010   17.7980 N   0  0  0  0  0  0  0  0  0  0  0  0
  -32.0240  -24.2180   18.7500 C   0  0  0  0  0  2  0  0  0  0  0  0
  -30.6560  -24.6720   19.2720 C   0  0  0  0  0  2  0  0  0  0  0  0
  -29.7550  -25.4770   18.3100 C   0  0  0  0  0  2  0  0  0  0  0  0
  -30.5320  -26.1320   16.0050 C   0  0  0  0  0  0  0  0  0  0  0  0
  -29.1600  -27.7510   14.8140 C   0  0  0  0  0  2  0  0  0  0  0  0
  -28.2800  -28.4750   15.8500 C   0  0  0  0  0  2  0  0  0  0  0  0
  -26.9550  -27.7220   16.0880 C   0  0  0  0  0  2  0  0  0  0  0  0
  -27.1410  -26.1990   16.3060 C   0  0  0  0  0  3  0  0  0  0  0  0
  -28.1560  -25.5810   15.3100 C   0  0  0  0  0  2  0  0  0  0  0  0
  -29.3760  -26.3970   15.3370 N   0  0  0  0  0  0  0  0  0  0  0  0
  -31.6270  -26.4260   15.5320 O   0  0  0  0  0  0  0  0  0  0  0  0
  -31.1840  -27.4540   17.9580 C   0  0  0  0  0  1  0  0  0  0  0  0
  -30.4330  -26.3450   17.3450 N   0  0  0  0  0  0  0  0  0  0  0  0
  -25.4670  -24.4230   17.1360 C   0  0  0  0  0  0  0  0  0  0  0  0
  -24.1450  -24.2130   16.8470 C   0  0  0  0  0  0  0  0  0  0  0  0
  -23.7970  -25.1870   15.8650 C   0  0  0  0  0  0  0  0  0  0  0  0
  -25.8610  -25.4920   16.3400 N   0  0  0  0  0  0  0  0  0  0  0  0
  -24.8580  -25.9060   15.5270 N   0  0  0  0  0  0  0  0  0  0  0  0
  -22.4960  -25.5220   15.2710 C   0  0  0  0  0  0  0  0  0  0  0  0
  -22.2140  -25.2570   13.9120 C   0  0  0  0  0  3  0  0  0  0  0  0
  -20.9460  -25.5640   13.3720 C   0  0  0  0  0  3  0  0  0  0  0  0
  -19.9470  -26.1400   14.1910 C   0  0  0  0  0  0  0  0  0  0  0  0
  -20.2410  -26.4240   15.5360 C   0  0  0  0  0  3  0  0  0  0  0  0
  -21.5060  -26.1240   16.0720 C   0  0  0  0  0  3  0  0  0  0  0  0
  -18.6970  -26.4980   13.7420 O   0  0  0  0  0  0  0  0  0  0  0  0
  -17.8640  -25.5910   13.1400 C   0  0  0  0  0  0  0  0  0  0  0  0
  -17.4240  -24.4260   13.8080 C   0  0  0  0  0  3  0  0  0  0  0  0
  -16.5080  -23.5580   13.1850 C   0  0  0  0  0  3  0  0  0  0  0  0
  -16.0300  -23.8510   11.8920 C   0  0  0  0  0  0  0  0  0  0  0  0
  -16.4600  -25.0140   11.2260 C   0  0  0  0  0  3  0  0  0  0  0  0
  -17.3720  -25.8820   11.8510 C   0  0  0  0  0  0  0  0  0  0  0  0
  -17.7700  -27.0100   11.2150 F   0  0  0  0  0  0  0  0  0  0  0  0
  -15.1410  -23.0250   11.2950 F   0  0  0  0  0  0  0  0  0  0  0  0
  -23.2360  -23.2290   17.5240 C   0  0  0  0  0  0  0  0  0  0  0  0
  -22.3910  -22.5450   16.7580 N   0  0  0  0  0  0  0  0  0  0  0  0
  -23.2990  -23.0220   18.7340 O   0  0  0  0  0  0  0  0  0  0  0  0
  -22.3620  -22.6860   15.7600 H   0  0  0  0  0  0  0  0  0  0  0  0
  -21.7820  -21.8580   17.1780 H   0  0  0  0  0  0  0  0  0  0  0  0
  -26.3480  -23.8080   18.0190 N   0  0  0  0  0  0  0  0  0  0  0  0
  -26.0310  -23.0770   18.6470 H   0  0  0  0  0  0  0  0  0  0  0  0
  -27.3190  -24.0650   18.1450 H   0  0  0  0  0  0  0  0  0  0  0  0
  -29.7780  -19.7350   19.4600 C   0  0  0  0  0  2  0  0  0  0  0  0
  -30.1970  -18.4860   20.2700 C   0  0  0  0  0  2  0  0  0  0  0  0
  -30.2610  -17.2060   19.4070 C   0  0  0  0  0  2  0  0  0  0  0  0
  -30.9160  -16.1510   20.1310 O   0  0  0  0  0  0  0  0  0  0  0  0
  -36.1480  -11.3420   20.7300 C   0  0  0  0  0  0  0  0  0  0  0  0
  -32.1840  -15.7720   19.7300 C   0  0  0  0  0  0  0  0  0  0  0  0
  -36.7260  -13.4210   19.5250 C   0  0  0  0  0  3  0  0  0  0  0  0
  -34.7680  -14.9370   18.9200 C   0  0  0  0  0  0  0  0  0  0  0  0
  -34.3180  -12.5600   19.5410 C   0  0  0  0  0  2  0  0  0  0  0  0
  -33.8670  -14.0030   19.4440 C   0  0  0  0  0  0  0  0  0  0  0  0
  -32.5760  -14.4160   19.8450 C   0  0  0  0  0  3  0  0  0  0  0  0
  -33.1140  -16.6930   19.1910 C   0  0  0  0  0  3  0  0  0  0  0  0
  -34.3940  -16.2840   18.7880 C   0  0  0  0  0  3  0  0  0  0  0  0
  -36.1260  -14.4230   18.5010 C   0  0  0  0  0  2  0  0  0  0  0  0
  -35.7260  -12.4050   19.9850 N   0  0  0  0  0  0  0  0  0  0  0  0
  -37.3490  -11.1900   21.0010 O   0  0  0  0  0  0  0  0  0  0  0  0
  -37.3660  -14.2230   20.6850 C   0  0  0  0  0  0  0  0  0  0  0  0
  -38.5390  -14.8260   20.4300 N   0  0  0  0  0  0  0  0  0  0  0  0
  -36.7870  -14.3230   21.7720 O   0  0  0  0  0  0  0  0  0  0  0  0
  -38.9520  -14.6920   19.5180 H   0  0  0  0  0  0  0  0  0  0  0  0
  -41.7320  -16.4260   20.9690 C   0  0  0  0  0  0  0  0  0  0  0  0
  -39.2980  -15.6530   21.3670 C   0  0  0  0  0  3  0  0  0  0  0  0
  -38.9120  -17.1420   21.2280 C   0  0  0  0  0  2  0  0  0  0  0  0
  -39.8090  -17.9150   20.2560 C   0  0  0  0  0  2  0  0  0  0  0  0
  -41.2690  -17.8520   20.7140 C   0  0  0  0  0  2  0  0  0  0  0  0
  -40.8040  -15.3910   21.2620 C   0  0  0  0  0  0  0  0  0  0  0  0
  -41.2810  -14.0780   21.4600 C   0  0  0  0  0  3  0  0  0  0  0  0
  -42.6550  -13.7880   21.3620 C   0  0  0  0  0  3  0  0  0  0  0  0
  -43.5710  -14.8180   21.0820 C   0  0  0  0  0  3  0  0  0  0  0  0
  -43.1100  -16.1350   20.8980 C   0  0  0  0  0  3  0  0  0  0  0  0
  -35.1510  -10.2630   21.2520 C   0  0  0  0  0  3  0  0  0  0  0  0
  -34.8830  -10.3680   22.8020 C   0  0  1  0  0  0  0  0  0  0  0  0
  -35.9380   -9.6390   23.6670 C   0  0  0  0  0  1  0  0  0  0  0  0
  -34.8550  -11.8500   23.2400 C   0  0  0  0  0  1  0  0  0  0  0  0
  -33.4900   -9.7860   23.1340 C   0  0  0  0  0  1  0  0  0  0  0  0
  -35.7020   -8.9440   20.9140 N   0  0  0  0  0  0  0  0  0  0  0  0
  -35.6010   -8.3640   19.7120 C   0  0  0  0  0  0  0  0  0  0  0  0
  -34.9610   -8.8640   18.7820 O   0  0  0  0  0  0  0  0  0  0  0  0
  -36.2660   -8.4970   21.6220 H   0  0  0  0  0  0  0  0  0  0  0  0
  -37.5960   -7.2520   18.6740 C   0  0  0  0  0  1  0  0  0  0  0  0
  -36.3250   -7.0180   19.5070 C   0  0  0  0  0  3  0  0  0  0  0  0
  -34.6950   -5.2100   19.8120 C   0  0  0  0  0  1  0  0  0  0  0  0
  -35.4830   -5.9900   18.8600 N   0  0  0  0  0  0  0  0  0  0  0  0
  -36.0470   -5.3490   18.3060 H   0  0  0  0  0  0  0  0  0  0  0  0
  -33.1110  -19.9720   15.9510 C   0  0  0  0  0  2  0  0  0  0  0  0
  -32.6050  -18.5170   15.8500 C   0  0  0  0  0  2  0  0  0  0  0  0
  -32.1070  -16.4720   14.4030 C   0  0  0  0  0  1  0  0  0  0  0  0
  -32.7160  -17.8840   14.4490 C   0  0  0  0  0  2  0  0  0  0  0  0
  2  8  1  0
  2  1  2  0
  3  2  1  0
  4  1  1  0
  4 49  1  0
  5  3  2  0
  5  7  1  0
  6  3  1  0
  7  4  2  0
  8  9  1  0
 10  9  1  0
 11 20  1  0
 12 17  1  0
 12 13  1  0
 13 14  1  0
 14 15  1  0
 15 16  1  0
 15 24  1  0
 16 17  1  0
 17 11  1  0
 18 11  2  0
 20 19  1  0
 20 10  1  0
 21 46  1  0
 22 21  2  0
 22 41  1  0
 23 22  1  0
 24 21  1  0
 25 23  2  0
 25 24  1  0
 26 23  1  0
 26 31  1  0
 27 26  2  0
 28 27  1  0
 28 29  2  0
 29 30  1  0
 30 31  2  0
 32 29  1  0
 33 32  1  0
 33 34  1  0
 35 34  2  0
 36 35  1  0
 37 38  1  0
 37 36  2  0
 38 33  2  0
 39 38  1  0
 40 36  1  0
 41 43  2  0
 42 45  1  0
 42 41  1  0
 44 42  1  0
 46 48  1  0
 46 47  1  0
 49 50  1  0
 51 52  1  0
 51 50  1  0
 53 64  2  0
 54 59  1  0
 54 52  1  0
 55 63  1  0
 55 65  1  0
 56 58  1  0
 57 63  1  0
 58 57  1  0
 58 59  2  0
 60 54  2  0
 61 56  2  0
 61 60  1  0
 62 56  1  0
 62 55  1  0
 63 53  1  0
 65 67  2  0
 66 65  1  0
 68 66  1  0
 69 74  1  0
 70 66  1  0
 71 70  1  0
 72 73  1  0
 72 71  1  0
 73 69  1  0
 74 70  1  0
 74 75  2  0
 76 75  1  0
 77 76  2  0
 78 69  2  0
 78 77  1  0
 79 53  1  0
 79 80  1  0
 80 83  1  6
 80 82  1  0
 80 81  1  0
 84 79  1  0
 84 87  1  0
 85 84  1  0
 86 85  2  0
 89 88  1  0
 89 85  1  0
 91 89  1  0
 91 90  1  0
 92 91  1  0
 93  5  1  0
 94 93  1  0
 95 96  1  0
 96 94  1  0
M  ISO  4  11 100  20 100  51 101  52 101
M  END
>  <TORSDO>  (2) 
F 25

>  <SCORE>  (2) 
-4.970

>  <name>  (2) 
1

>  <ligand_id>  (2) 
1

>  <original_smiles>  (2) 
[H]c1c([H])c([H])c2c(c1[H])C([H])([H])C([H])([H])C([H])([H])C2([H])N([H])C(=O)C1([H])N(C(=O)C([H])(N([H])C(=O)C([H])(N([H])C([H])([H])[H])C([H])([H])[H])C(C([H])([H])[H])(C([H])([H])[H])C([H])([H])[H])C([H])([H])c2c([H])c(OC([H])([H])C([H])([H])C([H])([H])c3nc(C([H])([H])C([H])([H])C([H])([H])C([H])([H])[H])c(C([H])([H])[H])c(C([H])([H])C([H])([H])C([H])([H])N(C(=O)N4C([H])([H])C([H])([H])C([H])([H])C([H])(n5nc(-c6c([H])c([H])c(Oc7c([H])c([H])c(F)c([H])c7F)c([H])c6[H])c(C(=O)N([H])[H])c5N([H])[H])C4([H])[H])C([H])([H])[H])c3[H])c([H])c([H])c2C1([H])[H]

>  <smiles>  (2) 
[H]c1c([H])c([H])c2c(c1[H])C([H])([H])C([H])([H])C([H])([H])C2([H])N([H])C(=O)C1([H])N(C(=O)C([H])(N([H])C(=O)C([H])(N([H])C([H])([H])[H])C([H])([H])[H])C(C([H])([H])[H])(C([H])([H])[H])C([H])([H])[H])C([H])([H])c2c([H])c(OC([H])([H])C([H])([H])C([H])([H])c3nc(C([H])([H])C([H])([H])C([H])([H])C([H])([H])[H])c(C([H])([H])[H])c(C([H])([H])C([H])([H])C([H])([H])N(C(=O)N4C([H])([H])C([H])([H])C([H])([H])C([H])(n5nc(-c6c([H])c([H])c(Oc7c([H])c([H])c(F)c([H])c7F)c([H])c6[H])c(C(=O)N([H])[H])c5N([H])[H])C4([H])[H])C([H])([H])[H])c3[H])c([H])c([H])c2C1([H])[H]

$$$$
2:0:0
     RDKit          3D

 95103  0  0  1  0  0  0  0  0999 V2000
  -29.7600  -22.9120   21.6650 C   0  0  0  0  0  0  0  0  0  0  0  0
  -29.7910  -23.2120   20.2690 C   0  0  0  0  0  0  0  0  0  0  0  0
  -30.0770  -21.5860   21.8390 C   0  0  0  0  0  0  0  0  0  0  0  0
  -30.1910  -22.0420   19.6450 C   0  0  0  0  0  0  0  0  0  0  0  0
  -29.4840  -23.8980   22.7730 C   0  0  0  0  0  1  0  0  0  0  0  0
  -30.4460  -21.8050   18.1880 C   0  0  0  0  0  1  0  0  0  0  0  0
  -30.4020  -21.0370   20.6050 N   0  0  0  0  0  0  0  0  0  0  0  0
  -29.5660  -24.6170   19.6430 C   0  0  0  0  0  2  0  0  0  0  0  0
  -28.1690  -25.3030   19.7830 C   0  0  0  0  0  2  0  0  0  0  0  0
  -28.2440  -26.7350   19.5190 O   0  0  0  0  0  0  0  0  0  0  0  0
  -24.5030  -31.6670   23.1200 C   0  0  0  0  0  0  0  0  0  0  0  0
  -27.0660  -27.4660   19.6130 C   0  0  0  0  0  0  0  0  0  0  0  0
  -23.2380  -30.3070   21.4930 C   0  0  0  0  0  3  0  0  0  0  0  0
  -24.6390  -28.9150   19.8740 C   0  0  0  0  0  0  0  0  0  0  0  0
  -25.7340  -30.7710   21.1390 C   0  0  0  0  0  2  0  0  0  0  0  0
  -25.8210  -29.4380   20.4140 C   0  0  0  0  0  0  0  0  0  0  0  0
  -27.0390  -28.7230   20.2740 C   0  0  0  0  0  3  0  0  0  0  0  0
  -25.8590  -26.9760   19.0650 C   0  0  0  0  0  3  0  0  0  0  0  0
  -24.6550  -27.6920   19.1890 C   0  0  0  0  0  3  0  0  0  0  0  0
  -23.3720  -29.7190   20.0610 C   0  0  0  0  0  2  0  0  0  0  0  0
  -24.5160  -30.9260   21.9770 N   0  0  0  0  0  0  0  0  0  0  0  0
  -23.4520  -31.8650   23.7470 O   0  0  0  0  0  0  0  0  0  0  0  0
  -22.6950  -29.2060   22.4360 C   0  0  0  0  0  0  0  0  0  0  0  0
  -21.4060  -28.8610   22.2730 N   0  0  0  0  0  0  0  0  0  0  0  0
  -23.4300  -28.6680   23.2680 O   0  0  0  0  0  0  0  0  0  0  0  0
  -20.8710  -29.3530   21.5720 H   0  0  0  0  0  0  0  0  0  0  0  0
  -18.2510  -27.1190   22.5370 C   0  0  0  0  0  0  0  0  0  0  0  0
  -20.6910  -27.8260   23.0180 C   0  0  0  0  0  3  0  0  0  0  0  0
  -21.0890  -26.4140   22.5280 C   0  0  0  0  0  2  0  0  0  0  0  0
  -20.1580  -25.8680   21.4410 C   0  0  0  0  0  2  0  0  0  0  0  0
  -18.7170  -25.7950   21.9530 C   0  0  0  0  0  2  0  0  0  0  0  0
  -19.1790  -28.0790   23.0220 C   0  0  0  0  0  0  0  0  0  0  0  0
  -18.6930  -29.3060   23.5210 C   0  0  0  0  0  3  0  0  0  0  0  0
  -17.3130  -29.5810   23.5420 C   0  0  0  0  0  3  0  0  0  0  0  0
  -16.3980  -28.6190   23.0790 C   0  0  0  0  0  3  0  0  0  0  0  0
  -16.8670  -27.3900   22.5810 C   0  0  0  0  0  3  0  0  0  0  0  0
  -25.8050  -32.3160   23.6890 C   0  0  0  0  0  3  0  0  0  0  0  0
  -25.4840  -33.7020   24.0570 N   0  0  0  0  0  0  0  0  0  0  0  0
  -25.8430  -34.7800   23.3500 C   0  0  0  0  0  0  0  0  0  0  0  0
  -26.5500  -34.7120   22.3400 O   0  0  0  0  0  0  0  0  0  0  0  0
  -24.8620  -33.8300   24.8420 H   0  0  0  0  0  0  0  0  0  0  0  0
  -24.1480  -36.5980   22.9760 C   0  0  0  0  0  1  0  0  0  0  0  0
  -25.3390  -36.1510   23.8360 C   0  0  0  0  0  3  0  0  0  0  0  0
  -27.4290  -36.9800   24.8180 C   0  0  0  0  0  1  0  0  0  0  0  0
  -26.3820  -37.1990   23.8240 N   0  0  0  0  0  0  0  0  0  0  0  0
  -25.9740  -38.1160   23.9900 H   0  0  0  0  0  0  0  0  0  0  0  0
  -26.4010  -31.5330   24.9210 C   0  0  1  0  0  0  0  0  0  0  0  0
  -25.3650  -31.2360   26.0300 C   0  0  0  0  0  1  0  0  0  0  0  0
  -27.0000  -30.1820   24.4630 C   0  0  0  0  0  1  0  0  0  0  0  0
  -27.5580  -32.3430   25.5480 C   0  0  0  0  0  1  0  0  0  0  0  0
  -30.1770  -20.8060   23.1190 C   0  0  0  0  0  2  0  0  0  0  0  0
  -31.7970  -21.3490   24.9920 C   0  0  0  0  0  1  0  0  0  0  0  0
  -31.6150  -20.6330   23.6470 C   0  0  0  0  0  2  0  0  0  0  0  0
  -31.0190  -19.6970   20.4140 C   0  0  0  0  0  2  0  0  0  0  0  0
  -29.3620  -18.2910   19.0020 C   0  0  0  0  0  1  0  0  0  0  0  0
  -30.1270  -18.4030   20.3350 C   0  0  0  0  0  3  0  0  0  0  0  0
  -31.0350  -17.1570   20.5900 C   0  0  0  0  0  2  0  0  0  0  0  0
  -31.0730  -14.7140   20.0360 C   0  0  0  0  0  0  0  0  0  0  0  0
  -30.7300  -12.4540   19.1080 C   0  0  0  0  0  2  0  0  0  0  0  0
  -29.7790  -12.5740   17.9000 C   0  0  0  0  0  2  0  0  0  0  0  0
  -28.3130  -12.4700   18.3740 C   0  0  0  0  0  2  0  0  0  0  0  0
  -28.0000  -13.4090   19.5740 C   0  0  0  0  0  3  0  0  0  0  0  0
  -29.0800  -13.2880   20.6750 C   0  0  0  0  0  2  0  0  0  0  0  0
  -30.3860  -13.5370   20.0450 N   0  0  0  0  0  0  0  0  0  0  0  0
  -32.1950  -14.8150   19.5370 O   0  0  0  0  0  0  0  0  0  0  0  0
  -30.4230  -15.8110   20.4870 N   0  0  0  0  0  0  0  0  0  0  0  0
  -29.5060  -15.6710   20.8830 H   0  0  0  0  0  0  0  0  0  0  0  0
  -25.6560  -14.0940   20.3840 C   0  0  0  0  0  0  0  0  0  0  0  0
  -24.5720  -13.3560   20.7820 C   0  0  0  0  0  0  0  0  0  0  0  0
  -24.9760  -11.9890   20.7090 C   0  0  0  0  0  0  0  0  0  0  0  0
  -26.6550  -13.1760   20.0980 N   0  0  0  0  0  0  0  0  0  0  0  0
  -26.2520  -11.9040   20.3470 N   0  0  0  0  0  0  0  0  0  0  0  0
  -24.2060  -10.7510   20.9070 C   0  0  0  0  0  0  0  0  0  0  0  0
  -24.5980   -9.7920   21.8630 C   0  0  0  0  0  3  0  0  0  0  0  0
  -23.8380   -8.6160   22.0510 C   0  0  0  0  0  3  0  0  0  0  0  0
  -22.6730   -8.3930   21.2820 C   0  0  0  0  0  0  0  0  0  0  0  0
  -22.2970   -9.3420   20.3200 C   0  0  0  0  0  3  0  0  0  0  0  0
  -23.0540  -10.5110   20.1290 C   0  0  0  0  0  3  0  0  0  0  0  0
  -21.8910   -7.2670   21.3740 O   0  0  0  0  0  0  0  0  0  0  0  0
  -21.7560   -6.5790   22.5520 C   0  0  0  0  0  0  0  0  0  0  0  0
  -21.2500   -7.1920   23.7180 C   0  0  0  0  0  3  0  0  0  0  0  0
  -21.0640   -6.4300   24.8890 C   0  0  0  0  0  3  0  0  0  0  0  0
  -21.3740   -5.0560   24.8930 C   0  0  0  0  0  0  0  0  0  0  0  0
  -21.8720   -4.4430   23.7310 C   0  0  0  0  0  3  0  0  0  0  0  0
  -22.0590   -5.2030   22.5630 C   0  0  0  0  0  0  0  0  0  0  0  0
  -22.5220   -4.6050   21.4400 F   0  0  0  0  0  0  0  0  0  0  0  0
  -21.1860   -4.3220   26.0150 F   0  0  0  0  0  0  0  0  0  0  0  0
  -23.2080  -13.8830   21.1160 C   0  0  0  0  0  0  0  0  0  0  0  0
  -22.4940  -13.2110   22.0150 N   0  0  0  0  0  0  0  0  0  0  0  0
  -22.7840  -14.9200   20.6140 O   0  0  0  0  0  0  0  0  0  0  0  0
  -22.8510  -12.3720   22.4500 H   0  0  0  0  0  0  0  0  0  0  0  0
  -21.5740  -13.5400   22.2680 H   0  0  0  0  0  0  0  0  0  0  0  0
  -25.8690  -15.4560   20.2220 N   0  0  0  0  0  0  0  0  0  0  0  0
  -25.1260  -16.1280   20.3740 H   0  0  0  0  0  0  0  0  0  0  0  0
  -26.7150  -15.8740   19.8560 H   0  0  0  0  0  0  0  0  0  0  0  0
  1  3  2  0
  1  5  1  0
  2  1  1  0
  3 51  1  0
  4  2  2  0
  4  7  1  0
  6  4  1  0
  7  3  1  0
  8  9  1  0
  8  2  1  0
 10 12  1  0
 10  9  1  0
 11 22  2  0
 12 17  1  0
 13 21  1  0
 13 23  1  0
 14 20  1  0
 14 16  1  0
 15 21  1  0
 16 15  1  0
 17 16  2  0
 18 19  1  0
 18 12  2  0
 19 14  2  0
 20 13  1  0
 21 11  1  0
 23 25  2  0
 24 23  1  0
 26 24  1  0
 27 36  2  0
 27 32  1  0
 28 24  1  0
 28 32  1  0
 29 28  1  0
 30 31  1  0
 30 29  1  0
 31 27  1  0
 32 33  2  0
 33 34  1  0
 35 34  2  0
 36 35  1  0
 37 11  1  0
 37 38  1  0
 37 47  1  0
 38 41  1  0
 39 43  1  0
 39 38  1  0
 40 39  2  0
 43 42  1  0
 45 43  1  0
 45 46  1  0
 45 44  1  0
 47 50  1  1
 47 48  1  0
 49 47  1  0
 51 53  1  0
 53 52  1  0
 54  7  1  0
 56 55  1  0
 56 54  1  0
 56 57  1  0
 58 64  1  0
 58 66  1  0
 59 64  1  0
 60 61  1  0
 60 59  1  0
 62 61  1  0
 62 71  1  0
 62 63  1  0
 64 63  1  0
 65 58  2  0
 66 57  1  0
 66 67  1  0
 68 69  2  0
 69 88  1  0
 70 69  1  0
 70 73  1  0
 71 72  1  0
 71 68  1  0
 72 70  2  0
 73 74  1  0
 74 75  2  0
 76 79  1  0
 76 75  1  0
 77 76  2  0
 78 77  1  0
 78 73  2  0
 79 80  1  0
 80 85  2  0
 80 81  1  0
 81 82  2  0
 82 83  1  0
 83 87  1  0
 84 83  2  0
 85 84  1  0
 86 85  1  0
 88 89  1  0
 89 92  1  0
 89 91  1  0
 90 88  2  0
 93 94  1  0
 93 68  1  0
 95 93  1  0
M  ISO  4   9 101  10 101  58 100  66 100
M  END
>  <TORSDO>  (3) 
F 23

>  <SCORE>  (3) 
-12.184

>  <name>  (3) 
2

>  <ligand_id>  (3) 
2

>  <original_smiles>  (3) 
[H]c1c([H])c([H])c2c(c1[H])C([H])([H])C([H])([H])C([H])([H])C2([H])N([H])C(=O)C1([H])N(C(=O)C([H])(N([H])C(=O)C([H])(N([H])C([H])([H])[H])C([H])([H])[H])C(C([H])([H])[H])(C([H])([H])[H])C([H])([H])[H])C([H])([H])c2c([H])c(OC([H])([H])C([H])([H])c3c(C([H])([H])[H])c(C([H])([H])C([H])([H])C([H])([H])[H])n(C([H])([H])C([H])(C([H])([H])[H])C([H])([H])N([H])C(=O)N4C([H])([H])C([H])([H])C([H])([H])C([H])(n5nc(-c6c([H])c([H])c(Oc7c([H])c([H])c(F)c([H])c7F)c([H])c6[H])c(C(=O)N([H])[H])c5N([H])[H])C4([H])[H])c3C([H])([H])[H])c([H])c([H])c2C1([H])[H]

>  <smiles>  (3) 
[H]c1c([H])c([H])c2c(c1[H])C([H])([H])C([H])([H])C([H])([H])C2([H])N([H])C(=O)C1([H])N(C(=O)C([H])(N([H])C(=O)C([H])(N([H])C([H])([H])[H])C([H])([H])[H])C(C([H])([H])[H])(C([H])([H])[H])C([H])([H])[H])C([H])([H])c2c([H])c(OC([H])([H])C([H])([H])c3c(C([H])([H])[H])c(C([H])([H])C([H])([H])C([H])([H])[H])n(C([H])([H])C([H])(C([H])([H])[H])C([H])([H])N([H])C(=O)N4C([H])([H])C([H])([H])C([H])([H])C([H])(n5nc(-c6c([H])c([H])c(Oc7c([H])c([H])c(F)c([H])c7F)c([H])c6[H])c(C(=O)N([H])[H])c5N([H])[H])C4([H])[H])c3C([H])([H])[H])c([H])c([H])c2C1([H])[H]

$$$$
3:0:0
     RDKit          3D

 96104  0  0  1  0  0  0  0  0999 V2000
  -28.3120  -22.7050   20.0920 C   0  0  0  0  0  3  0  0  0  0  0  0
  -28.3290  -20.0920   19.1810 C   0  0  0  0  0  3  0  0  0  0  0  0
  -27.1090  -22.1270   19.6600 C   0  0  0  0  0  0  0  0  0  0  0  0
  -29.5600  -22.0380   20.0830 C   0  0  0  0  0  0  0  0  0  0  0  0
  -27.1050  -20.7830   19.2370 C   0  0  0  0  0  0  0  0  0  0  0  0
  -29.5780  -20.6450   19.5670 C   0  0  0  0  0  0  0  0  0  0  0  0
  -31.9810  -20.3310   18.6150 C   0  0  0  0  0  1  0  0  0  0  0  0
  -30.7600  -19.6300   19.2220 C   0  0  0  0  0  3  0  0  0  0  0  0
  -31.2350  -18.5530   20.3580 C   0  0  0  0  0  2  0  0  0  0  0  0
  -31.7270  -15.9500   20.2020 C   0  0  0  0  0  0  0  0  0  0  0  0
  -31.6570  -13.5590   19.4660 C   0  0  0  0  0  2  0  0  0  0  0  0
  -30.7590  -13.4180   18.2190 C   0  0  0  0  0  2  0  0  0  0  0  0
  -29.2840  -13.2350   18.6250 C   0  0  0  0  0  2  0  0  0  0  0  0
  -28.8290  -14.2710   19.6860 C   0  0  0  0  0  3  0  0  0  0  0  0
  -29.8410  -14.3830   20.8440 C   0  0  0  0  0  2  0  0  0  0  0  0
  -31.1470  -14.7050   20.2540 N   0  0  0  0  0  0  0  0  0  0  0  0
  -32.9260  -16.0630   19.9290 O   0  0  0  0  0  0  0  0  0  0  0  0
  -30.9010  -17.0610   20.2750 N   0  0  0  0  0  0  0  0  0  0  0  0
  -29.9290  -16.8360   20.4210 H   0  0  0  0  0  0  0  0  0  0  0  0
  -26.4660  -14.8970   20.4610 C   0  0  0  0  0  0  0  0  0  0  0  0
  -25.3770  -14.1360   20.7930 C   0  0  0  0  0  0  0  0  0  0  0  0
  -25.7980  -12.7750   20.6840 C   0  0  0  0  0  0  0  0  0  0  0  0
  -27.4780  -14.0000   20.1690 N   0  0  0  0  0  0  0  0  0  0  0  0
  -27.0860  -12.7150   20.3680 N   0  0  0  0  0  0  0  0  0  0  0  0
  -25.0340  -11.5270   20.8010 C   0  0  0  0  0  0  0  0  0  0  0  0
  -25.3530  -10.5510   21.7700 C   0  0  0  0  0  3  0  0  0  0  0  0
  -24.5900   -9.3700   21.8750 C   0  0  0  0  0  3  0  0  0  0  0  0
  -23.4900   -9.1550   21.0090 C   0  0  0  0  0  0  0  0  0  0  0  0
  -23.1910  -10.1180   20.0300 C   0  0  0  0  0  3  0  0  0  0  0  0
  -23.9570  -11.2920   19.9230 C   0  0  0  0  0  3  0  0  0  0  0  0
  -22.7070   -8.0260   21.0230 O   0  0  0  0  0  0  0  0  0  0  0  0
  -22.3810   -7.3880   22.1940 C   0  0  0  0  0  0  0  0  0  0  0  0
  -21.6850   -8.0440   23.2320 C   0  0  0  0  0  3  0  0  0  0  0  0
  -21.3090   -7.3310   24.3880 C   0  0  0  0  0  3  0  0  0  0  0  0
  -21.6210   -5.9630   24.5050 C   0  0  0  0  0  0  0  0  0  0  0  0
  -22.3090   -5.3070   23.4700 C   0  0  0  0  0  3  0  0  0  0  0  0
  -22.6860   -6.0160   22.3170 C   0  0  0  0  0  0  0  0  0  0  0  0
  -23.3300   -5.3740   21.3120 F   0  0  0  0  0  0  0  0  0  0  0  0
  -21.2540   -5.2760   25.6110 F   0  0  0  0  0  0  0  0  0  0  0  0
  -23.9960  -14.6390   21.0960 C   0  0  0  0  0  0  0  0  0  0  0  0
  -23.2650  -13.9330   21.9510 N   0  0  0  0  0  0  0  0  0  0  0  0
  -23.5770  -15.6880   20.6090 O   0  0  0  0  0  0  0  0  0  0  0  0
  -23.6220  -13.0830   22.3610 H   0  0  0  0  0  0  0  0  0  0  0  0
  -22.3370  -14.2450   22.2000 H   0  0  0  0  0  0  0  0  0  0  0  0
  -26.6710  -16.2700   20.3500 N   0  0  0  0  0  0  0  0  0  0  0  0
  -25.9140  -16.9330   20.4670 H   0  0  0  0  0  0  0  0  0  0  0  0
  -27.5050  -16.6910   19.9630 H   0  0  0  0  0  0  0  0  0  0  0  0
  -25.6000  -19.9800   17.3170 C   0  0  0  0  0  1  0  0  0  0  0  0
  -25.8320  -20.0430   18.8320 C   0  0  0  0  0  2  0  0  0  0  0  0
  -25.8750  -23.0150   19.6300 C   0  0  0  0  0  2  0  0  0  0  0  0
  -25.1200  -25.4170   20.0570 C   0  0  0  0  0  1  0  0  0  0  0  0
  -26.2590  -24.5060   19.5930 C   0  0  0  0  0  2  0  0  0  0  0  0
  -30.7200  -22.9950   20.5870 C   0  0  0  0  0  2  0  0  0  0  0  0
  -30.4050  -24.4580   21.2580 C   0  0  0  0  0  3  0  0  0  0  0  0
  -29.8030  -25.7300   20.4590 C   0  0  0  0  0  3  0  0  0  0  0  0
  -29.7560  -27.1020   21.0840 O   0  0  0  0  0  0  0  0  0  0  0  0
  -25.1540  -31.9460   23.9520 C   0  0  0  0  0  0  0  0  0  0  0  0
  -28.5980  -27.9050   20.9320 C   0  0  0  0  0  0  0  0  0  0  0  0
  -24.3460  -30.6360   22.0250 C   0  0  0  0  0  3  0  0  0  0  0  0
  -26.1280  -29.3570   20.7090 C   0  0  0  0  0  0  0  0  0  0  0  0
  -26.8510  -31.1520   22.2800 C   0  0  0  0  0  2  0  0  0  0  0  0
  -27.1490  -29.8580   21.5250 C   0  0  0  0  0  0  0  0  0  0  0  0
  -28.3900  -29.1450   21.6260 C   0  0  0  0  0  3  0  0  0  0  0  0
  -27.5470  -27.4730   20.0920 C   0  0  0  0  0  3  0  0  0  0  0  0
  -26.3310  -28.1740   19.9840 C   0  0  0  0  0  3  0  0  0  0  0  0
  -24.8200  -30.1210   20.6440 C   0  0  0  0  0  2  0  0  0  0  0  0
  -25.4590  -31.2620   22.8100 N   0  0  0  0  0  0  0  0  0  0  0  0
  -23.9810  -32.0840   24.3290 O   0  0  0  0  0  0  0  0  0  0  0  0
  -23.6430  -29.4780   22.7770 C   0  0  0  0  0  0  0  0  0  0  0  0
  -22.3730  -29.2130   22.4280 N   0  0  0  0  0  0  0  0  0  0  0  0
  -24.2470  -28.8220   23.6300 O   0  0  0  0  0  0  0  0  0  0  0  0
  -21.9420  -29.7990   21.7260 H   0  0  0  0  0  0  0  0  0  0  0  0
  -19.0490  -27.7810   22.3770 C   0  0  0  0  0  0  0  0  0  0  0  0
  -21.5400  -28.1390   22.9730 C   0  0  0  0  0  3  0  0  0  0  0  0
  -21.7990  -26.8020   22.2400 C   0  0  0  0  0  2  0  0  0  0  0  0
  -20.8400  -26.5600   21.0700 C   0  0  0  0  0  2  0  0  0  0  0  0
  -19.3900  -26.5450   21.5600 C   0  0  0  0  0  2  0  0  0  0  0  0
  -20.0590  -28.5370   23.0270 C   0  0  0  0  0  0  0  0  0  0  0  0
  -19.6920  -29.6970   23.7440 C   0  0  0  0  0  3  0  0  0  0  0  0
  -18.3450  -30.0980   23.8230 C   0  0  0  0  0  3  0  0  0  0  0  0
  -17.3480  -29.3380   23.1890 C   0  0  0  0  0  3  0  0  0  0  0  0
  -17.7000  -28.1820   22.4700 C   0  0  0  0  0  3  0  0  0  0  0  0
  -26.2620  -32.6090   24.8250 C   0  0  0  0  0  3  0  0  0  0  0  0
  -25.8740  -34.0110   25.0450 N   0  0  0  0  0  0  0  0  0  0  0  0
  -26.3190  -35.0480   24.3220 C   0  0  0  0  0  0  0  0  0  0  0  0
  -27.1650  -34.9260   23.4310 O   0  0  0  0  0  0  0  0  0  0  0  0
  -25.1380  -34.1740   25.7160 H   0  0  0  0  0  0  0  0  0  0  0  0
  -24.6410  -36.7880   23.6210 C   0  0  0  0  0  1  0  0  0  0  0  0
  -25.7390  -36.4400   24.6360 C   0  0  0  0  0  3  0  0  0  0  0  0
  -27.6940  -37.4090   25.7660 C   0  0  0  0  0  1  0  0  0  0  0  0
  -26.7570  -37.5130   24.6510 N   0  0  0  0  0  0  0  0  0  0  0  0
  -26.3150  -38.4270   24.6900 H   0  0  0  0  0  0  0  0  0  0  0  0
  -26.4900  -31.8730   26.2040 C   0  0  1  0  0  0  0  0  0  0  0  0
  -25.1820  -31.6050   26.9850 C   0  0  0  0  0  1  0  0  0  0  0  0
  -27.1950  -30.5110   25.9960 C   0  0  0  0  0  1  0  0  0  0  0  0
  -27.4290  -32.7200   27.0950 C   0  0  0  0  0  1  0  0  0  0  0  0
  2  5  2  0
  2  6  1  0
  3  1  2  0
  4  1  1  0
  4 53  1  0
  5  3  1  0
  6  4  2  0
  8  7  1  0
  8  6  1  0
  8  9  1  0
 10 16  1  0
 10 18  1  0
 11 16  1  0
 12 13  1  0
 12 11  1  0
 14 13  1  0
 14 23  1  0
 14 15  1  0
 16 15  1  0
 17 10  2  0
 18  9  1  0
 18 19  1  0
 20 21  2  0
 21 40  1  0
 22 21  1  0
 22 25  1  0
 23 24  1  0
 23 20  1  0
 24 22  2  0
 25 26  1  0
 26 27  2  0
 28 31  1  0
 28 27  1  0
 29 28  2  0
 30 29  1  0
 30 25  2  0
 31 32  1  0
 32 37  2  0
 32 33  1  0
 33 34  2  0
 34 35  1  0
 35 39  1  0
 36 35  2  0
 37 36  1  0
 38 37  1  0
 40 41  1  0
 41 44  1  0
 41 43  1  0
 42 40  2  0
 45 20  1  0
 45 46  1  0
 47 45  1  0
 48 49  1  0
 49  5  1  0
 50  3  1  0
 52 50  1  0
 52 51  1  0
 53 54  1  0
 55 56  1  0
 55 54  2  0
 57 68  2  0
 58 56  1  0
 58 63  1  0
 59 69  1  0
 59 67  1  0
 60 62  1  0
 61 67  1  0
 62 63  2  0
 62 61  1  0
 64 58  2  0
 65 64  1  0
 65 60  2  0
 66 60  1  0
 66 59  1  0
 67 57  1  0
 69 71  2  0
 70 69  1  0
 72 70  1  0
 73 82  2  0
 73 78  1  0
 74 70  1  0
 74 78  1  0
 75 74  1  0
 76 77  1  0
 76 75  1  0
 77 73  1  0
 78 79  2  0
 79 80  1  0
 81 80  2  0
 82 81  1  0
 83 57  1  0
 83 84  1  0
 83 93  1  0
 84 87  1  0
 85 89  1  0
 85 84  1  0
 86 85  2  0
 89 88  1  0
 89 91  1  0
 91 92  1  0
 91 90  1  0
 93 94  1  1
 93 96  1  0
 95 93  1  0
M  ISO  4  10 100  18 100  55 101  56 101
M  END
>  <TORSDO>  (4) 
F 24

>  <SCORE>  (4) 
-8.246

>  <name>  (4) 
3

>  <ligand_id>  (4) 
3

>  <original_smiles>  (4) 
[H]c1c([H])c([H])c2c(c1[H])C([H])([H])C([H])([H])C([H])([H])C2([H])N([H])C(=O)C1([H])N(C(=O)C([H])(N([H])C(=O)C([H])(N([H])C([H])([H])[H])C([H])([H])[H])C(C([H])([H])[H])(C([H])([H])[H])C([H])([H])[H])C([H])([H])c2c([H])c(OC([H])([H])C([H])([H])C([H])([H])c3c([H])c(C([H])([H])C([H])([H])C([H])([H])[H])c(C([H])([H])C([H])([H])[H])c([H])c3C([H])(C([H])([H])[H])C([H])([H])N([H])C(=O)N3C([H])([H])C([H])([H])C([H])([H])C([H])(n4nc(-c5c([H])c([H])c(Oc6c([H])c([H])c(F)c([H])c6F)c([H])c5[H])c(C(=O)N([H])[H])c4N([H])[H])C3([H])[H])c([H])c([H])c2C1([H])[H]

>  <smiles>  (4) 
[H]c1c([H])c([H])c2c(c1[H])C([H])([H])C([H])([H])C([H])([H])C2([H])N([H])C(=O)C1([H])N(C(=O)C([H])(N([H])C(=O)C([H])(N([H])C([H])([H])[H])C([H])([H])[H])C(C([H])([H])[H])(C([H])([H])[H])C([H])([H])[H])C([H])([H])c2c([H])c(OC([H])([H])C([H])([H])C([H])([H])c3c([H])c(C([H])([H])C([H])([H])C([H])([H])[H])c(C([H])([H])C([H])([H])[H])c([H])c3C([H])(C([H])([H])[H])C([H])([H])N([H])C(=O)N3C([H])([H])C([H])([H])C([H])([H])C([H])(n4nc(-c5c([H])c([H])c(Oc6c([H])c([H])c(F)c([H])c6F)c([H])c5[H])c(C(=O)N([H])[H])c4N([H])[H])C3([H])[H])c([H])c([H])c2C1([H])[H]

$$$$
4:0:0
     RDKit          3D

 90 98  0  0  1  0  0  0  0  0999 V2000
  -30.5010  -15.2460   20.3150 C   0  0  0  0  0  0  0  0  0  0  0  0
  -30.4680  -12.7890   19.4790 C   0  0  0  0  0  2  0  0  0  0  0  0
  -29.5660  -12.5710   18.2380 C   0  0  0  0  0  2  0  0  0  0  0  0
  -28.0910  -12.3520   18.6340 C   0  0  0  0  0  2  0  0  0  0  0  0
  -27.6420  -13.3230   19.7570 C   0  0  0  0  0  3  0  0  0  0  0  0
  -28.6840  -13.3770   20.8960 C   0  0  0  0  0  2  0  0  0  0  0  0
  -29.9130  -13.9380   20.2880 N   0  0  0  0  0  0  0  0  0  0  0  0
  -31.7190  -15.2040   20.0850 O   0  0  0  0  0  0  0  0  0  0  0  0
  -28.0030  -17.9150   21.5870 C   0  0  0  0  0  2  0  0  0  0  0  0
  -28.0620  -19.2320   20.7950 C   0  0  0  0  0  2  0  0  0  0  0  0
  -28.3910  -16.6590   20.7760 C   0  0  0  0  0  2  0  0  0  0  0  0
  -30.1990  -18.0950   19.8520 C   0  0  0  0  0  3  0  0  0  0  0  0
  -29.4820  -19.6490   20.3890 C   0  0  2  0  0  0  0  0  0  0  0  0
  -30.2850  -20.0280   21.6510 C   0  0  0  0  0  1  0  0  0  0  0  0
  -29.7930  -16.5670   20.3390 N   0  0  0  0  0  0  0  0  0  0  0  0
  -25.2480  -13.9480   20.3970 C   0  0  0  0  0  0  0  0  0  0  0  0
  -24.1640  -13.2040   20.7590 C   0  0  0  0  0  0  0  0  0  0  0  0
  -24.6100  -11.8470   20.7870 C   0  0  0  0  0  0  0  0  0  0  0  0
  -26.2890  -13.0520   20.2250 N   0  0  0  0  0  0  0  0  0  0  0  0
  -25.9120  -11.7820   20.5230 N   0  0  0  0  0  0  0  0  0  0  0  0
  -23.8550  -10.6050   20.9940 C   0  0  0  0  0  0  0  0  0  0  0  0
  -24.2610   -9.6420   21.9440 C   0  0  0  0  0  3  0  0  0  0  0  0
  -23.5040   -8.4660   22.1390 C   0  0  0  0  0  3  0  0  0  0  0  0
  -22.3290   -8.2450   21.3830 C   0  0  0  0  0  0  0  0  0  0  0  0
  -21.9420   -9.1960   20.4230 C   0  0  0  0  0  3  0  0  0  0  0  0
  -22.6990  -10.3630   20.2260 C   0  0  0  0  0  3  0  0  0  0  0  0
  -21.5470   -7.1210   21.4850 O   0  0  0  0  0  0  0  0  0  0  0  0
  -21.5000   -6.3820   22.6390 C   0  0  0  0  0  0  0  0  0  0  0  0
  -21.1450   -6.9570   23.8790 C   0  0  0  0  0  3  0  0  0  0  0  0
  -21.0420   -6.1470   25.0280 C   0  0  0  0  0  3  0  0  0  0  0  0
  -21.2830   -4.7630   24.9370 C   0  0  0  0  0  0  0  0  0  0  0  0
  -21.6310   -4.1880   23.7030 C   0  0  0  0  0  3  0  0  0  0  0  0
  -21.7360   -4.9950   22.5560 C   0  0  0  0  0  0  0  0  0  0  0  0
  -22.0520   -4.4330   21.3650 F   0  0  0  0  0  0  0  0  0  0  0  0
  -21.1760   -3.9820   26.0370 F   0  0  0  0  0  0  0  0  0  0  0  0
  -22.7680  -13.7150   20.9670 C   0  0  0  0  0  0  0  0  0  0  0  0
  -22.0030  -13.0700   21.8400 N   0  0  0  0  0  0  0  0  0  0  0  0
  -22.3650  -14.7250   20.3910 O   0  0  0  0  0  0  0  0  0  0  0  0
  -22.3400  -12.2520   22.3270 H   0  0  0  0  0  0  0  0  0  0  0  0
  -21.0660  -13.4000   22.0240 H   0  0  0  0  0  0  0  0  0  0  0  0
  -25.4230  -15.3080   20.1730 N   0  0  0  0  0  0  0  0  0  0  0  0
  -24.6560  -15.9660   20.2550 H   0  0  0  0  0  0  0  0  0  0  0  0
  -26.2850  -15.7360   19.8660 H   0  0  0  0  0  0  0  0  0  0  0  0
  -29.0970  -18.2230   17.5120 C   0  0  0  0  0  1  0  0  0  0  0  0
  -31.5280  -18.9360   17.7980 C   0  0  0  0  0  1  0  0  0  0  0  0
  -30.3960  -18.0310   18.3100 C   0  0  0  0  0  3  0  0  0  0  0  0
  -29.2840  -21.2430   19.5980 C   0  0  0  0  0  2  0  0  0  0  0  0
  -29.0090  -22.8910   20.2090 C   0  0  0  0  0  3  0  0  0  0  0  0
  -28.3270  -24.3650   19.4820 C   0  0  0  0  0  3  0  0  0  0  0  0
  -28.3770  -25.9530   19.8410 O   0  0  0  0  0  0  0  0  0  0  0  0
  -24.5700  -31.6210   22.9300 C   0  0  0  0  0  0  0  0  0  0  0  0
  -27.3000  -26.9670   19.7700 C   0  0  0  0  0  0  0  0  0  0  0  0
  -23.4130  -30.2100   21.2760 C   0  0  0  0  0  3  0  0  0  0  0  0
  -24.9080  -28.7070   19.7980 C   0  0  0  0  0  0  0  0  0  0  0  0
  -25.9600  -30.5470   21.0980 C   0  0  0  0  0  2  0  0  0  0  0  0
  -26.0820  -29.1600   20.4130 C   0  0  0  0  0  0  0  0  0  0  0  0
  -27.2690  -28.3100   20.3780 C   0  0  0  0  0  3  0  0  0  0  0  0
  -26.0940  -26.6560   19.1030 C   0  0  0  0  0  3  0  0  0  0  0  0
  -24.9360  -27.4740   19.1240 C   0  0  0  0  0  3  0  0  0  0  0  0
  -23.6490  -29.5660   19.8830 C   0  0  0  0  0  2  0  0  0  0  0  0
  -24.6680  -30.8180   21.8230 N   0  0  0  0  0  0  0  0  0  0  0  0
  -23.4770  -31.8530   23.4710 O   0  0  0  0  0  0  0  0  0  0  0  0
  -22.7760  -29.1650   22.2290 C   0  0  0  0  0  0  0  0  0  0  0  0
  -21.4470  -28.9710   22.1380 N   0  0  0  0  0  0  0  0  0  0  0  0
  -23.4830  -28.5310   23.0160 O   0  0  0  0  0  0  0  0  0  0  0  0
  -20.9300  -29.5370   21.4790 H   0  0  0  0  0  0  0  0  0  0  0  0
  -18.1090  -27.6750   22.7150 C   0  0  0  0  0  0  0  0  0  0  0  0
  -20.6710  -27.9880   22.9020 C   0  0  0  0  0  3  0  0  0  0  0  0
  -20.7830  -26.5800   22.2730 C   0  0  0  0  0  2  0  0  0  0  0  0
  -19.6540  -26.2680   21.2860 C   0  0  0  0  0  2  0  0  0  0  0  0
  -18.2930  -26.3560   21.9820 C   0  0  0  0  0  2  0  0  0  0  0  0
  -19.2250  -28.4490   23.1330 C   0  0  0  0  0  0  0  0  0  0  0  0
  -18.9970  -29.6800   23.7840 C   0  0  0  0  0  3  0  0  0  0  0  0
  -17.6870  -30.1390   24.0190 C   0  0  0  0  0  3  0  0  0  0  0  0
  -16.5880  -29.3630   23.6150 C   0  0  0  0  0  3  0  0  0  0  0  0
  -16.7990  -28.1330   22.9700 C   0  0  0  0  0  3  0  0  0  0  0  0
  -25.8220  -32.3010   23.5600 C   0  0  0  0  0  3  0  0  0  0  0  0
  -26.4200  -31.4910   24.7770 C   0  0  1  0  0  0  0  0  0  0  0  0
  -25.3760  -31.1350   25.8620 C   0  0  0  0  0  1  0  0  0  0  0  0
  -27.0630  -30.1710   24.2970 C   0  0  0  0  0  1  0  0  0  0  0  0
  -27.5480  -32.3100   25.4470 C   0  0  0  0  0  1  0  0  0  0  0  0
  -25.4330  -33.6540   23.9950 N   0  0  0  0  0  0  0  0  0  0  0  0
  -25.6840  -34.7800   23.3140 C   0  0  0  0  0  0  0  0  0  0  0  0
  -26.3300  -34.7920   22.2620 O   0  0  0  0  0  0  0  0  0  0  0  0
  -24.8510  -33.7130   24.8180 H   0  0  0  0  0  0  0  0  0  0  0  0
  -23.8410  -36.4880   23.1460 C   0  0  0  0  0  1  0  0  0  0  0  0
  -25.1330  -36.1030   23.8850 C   0  0  0  0  0  3  0  0  0  0  0  0
  -27.2430  -37.0560   24.7050 C   0  0  0  0  0  1  0  0  0  0  0  0
  -26.0970  -37.2240   23.8140 N   0  0  0  0  0  0  0  0  0  0  0  0
  -25.6450  -38.1040   24.0420 H   0  0  0  0  0  0  0  0  0  0  0  0
  1 15  1  0
  2  7  1  0
  3  4  1  0
  3  2  1  0
  5  4  1  0
  5 19  1  0
  5  6  1  0
  7  1  1  0
  7  6  1  0
  8  1  2  0
 10  9  1  0
 11  9  1  0
 12 46  1  0
 12 15  1  0
 12 13  1  0
 13 10  1  0
 13 14  1  1
 15 11  1  0
 16 17  2  0
 17 18  1  0
 17 36  1  0
 18 21  1  0
 19 16  1  0
 19 20  1  0
 20 18  2  0
 21 22  1  0
 22 23  2  0
 24 27  1  0
 24 23  1  0
 25 24  2  0
 26 25  1  0
 26 21  2  0
 27 28  1  0
 28 29  1  0
 29 30  2  0
 31 30  1  0
 31 35  1  0
 32 31  2  0
 33 28  2  0
 33 32  1  0
 34 33  1  0
 36 37  1  0
 37 40  1  0
 37 39  1  0
 38 36  2  0
 41 42  1  0
 41 16  1  0
 43 41  1  0
 44 46  1  0
 45 46  1  0
 47 48  1  0
 47 13  1  0
 49 50  1  0
 49 48  2  0
 51 62  2  0
 52 50  1  0
 52 57  1  0
 53 61  1  0
 53 63  1  0
 54 60  1  0
 54 56  1  0
 55 61  1  0
 56 55  1  0
 57 56  2  0
 58 59  1  0
 58 52  2  0
 59 54  2  0
 60 53  1  0
 61 51  1  0
 63 65  2  0
 64 63  1  0
 66 64  1  0
 67 76  2  0
 67 72  1  0
 68 64  1  0
 68 72  1  0
 69 68  1  0
 70 71  1  0
 70 69  1  0
 71 67  1  0
 72 73  2  0
 73 74  1  0
 75 74  2  0
 76 75  1  0
 77 51  1  0
 77 82  1  0
 77 78  1  0
 78 81  1  1
 78 79  1  0
 80 78  1  0
 82 85  1  0
 83 87  1  0
 83 82  1  0
 84 83  2  0
 87 86  1  0
 89 87  1  0
 89 90  1  0
 89 88  1  0
M  ISO  4   1 100  15 100  49 101  50 101
M  END
>  <TORSDO>  (5) 
F 19

>  <SCORE>  (5) 
-12.236

>  <name>  (5) 
4

>  <ligand_id>  (5) 
4

>  <original_smiles>  (5) 
[H]c1c([H])c([H])c2c(c1[H])C([H])([H])C([H])([H])C([H])([H])C2([H])N([H])C(=O)C1([H])N(C(=O)C([H])(N([H])C(=O)C([H])(N([H])C([H])([H])[H])C([H])([H])[H])C(C([H])([H])[H])(C([H])([H])[H])C([H])([H])[H])C([H])([H])c2c([H])c(OC([H])([H])C([H])([H])C([H])([H])C3(C([H])([H])[H])C([H])([H])C([H])([H])C([H])([H])N(C(=O)N4C([H])([H])C([H])([H])C([H])([H])C([H])(n5nc(-c6c([H])c([H])c(Oc7c([H])c([H])c(F)c([H])c7F)c([H])c6[H])c(C(=O)N([H])[H])c5N([H])[H])C4([H])[H])C3([H])C([H])(C([H])([H])[H])C([H])([H])[H])c([H])c([H])c2C1([H])[H]

>  <smiles>  (5) 
[H]c1c([H])c([H])c2c(c1[H])C([H])([H])C([H])([H])C([H])([H])C2([H])N([H])C(=O)C1([H])N(C(=O)C([H])(N([H])C(=O)C([H])(N([H])C([H])([H])[H])C([H])([H])[H])C(C([H])([H])[H])(C([H])([H])[H])C([H])([H])[H])C([H])([H])c2c([H])c(OC([H])([H])C([H])([H])C([H])([H])C3(C([H])([H])[H])C([H])([H])C([H])([H])C([H])([H])N(C(=O)N4C([H])([H])C([H])([H])C([H])([H])C([H])(n5nc(-c6c([H])c([H])c(Oc7c([H])c([H])c(F)c([H])c7F)c([H])c6[H])c(C(=O)N([H])[H])c5N([H])[H])C4([H])[H])C3([H])C([H])(C([H])([H])[H])C([H])([H])[H])c([H])c([H])c2C1([H])[H]

$$$$
5:0:0
     RDKit          3D

 96104  0  0  1  0  0  0  0  0999 V2000
  -29.3970  -22.6860   22.2270 C   0  0  0  0  0  3  0  0  0  0  0  0
  -30.7300  -22.4310   22.5940 C   0  0  0  0  0  3  0  0  0  0  0  0
  -28.9730  -22.3370   20.9330 C   0  0  0  0  0  0  0  0  0  0  0  0
  -31.6020  -21.7910   21.6850 C   0  0  0  0  0  0  0  0  0  0  0  0
  -29.6360  -21.1660   20.3760 C   0  0  0  0  0  0  0  0  0  0  0  0
  -31.0490  -21.1410   20.5420 C   0  0  0  0  0  0  0  0  0  0  0  0
  -32.8540  -19.4310   19.7000 C   0  0  0  0  0  1  0  0  0  0  0  0
  -32.5040  -21.7390   18.5760 C   0  0  0  0  0  1  0  0  0  0  0  0
  -31.8840  -20.5820   19.3790 C   0  0  0  0  0  3  0  0  0  0  0  0
  -33.5710  -20.7050   22.8760 C   0  0  0  0  0  1  0  0  0  0  0  0
  -33.0920  -21.8630   21.9970 C   0  0  0  0  0  2  0  0  0  0  0  0
  -28.4900  -23.6020   20.0840 C   0  0  0  0  0  2  0  0  0  0  0  0
  -28.3420  -25.0440   20.8260 C   0  0  0  0  0  2  0  0  0  0  0  0
  -28.3790  -26.3570   20.1310 O   0  0  0  0  0  0  0  0  0  0  0  0
  -24.4590  -31.6540   23.1510 C   0  0  0  0  0  0  0  0  0  0  0  0
  -27.2380  -27.1710   20.1460 C   0  0  0  0  0  0  0  0  0  0  0  0
  -23.3230  -30.2370   21.4770 C   0  0  0  0  0  3  0  0  0  0  0  0
  -24.8440  -28.7300   20.0760 C   0  0  0  0  0  0  0  0  0  0  0  0
  -25.8590  -30.6190   21.3520 C   0  0  0  0  0  2  0  0  0  0  0  0
  -25.9860  -29.2450   20.6990 C   0  0  0  0  0  0  0  0  0  0  0  0
  -27.1880  -28.4780   20.7260 C   0  0  0  0  0  3  0  0  0  0  0  0
  -26.0720  -26.6940   19.5140 C   0  0  0  0  0  3  0  0  0  0  0  0
  -24.8890  -27.4610   19.4730 C   0  0  0  0  0  3  0  0  0  0  0  0
  -23.5840  -29.5720   20.0990 C   0  0  0  0  0  2  0  0  0  0  0  0
  -24.5630  -30.8550   22.0480 N   0  0  0  0  0  0  0  0  0  0  0  0
  -23.3580  -31.9040   23.6610 O   0  0  0  0  0  0  0  0  0  0  0  0
  -22.6700  -29.1970   22.4180 C   0  0  0  0  0  0  0  0  0  0  0  0
  -21.3510  -28.9930   22.2660 N   0  0  0  0  0  0  0  0  0  0  0  0
  -23.3500  -28.5800   23.2420 O   0  0  0  0  0  0  0  0  0  0  0  0
  -20.8620  -29.5410   21.5730 H   0  0  0  0  0  0  0  0  0  0  0  0
  -17.9870  -27.7440   22.7050 C   0  0  0  0  0  0  0  0  0  0  0  0
  -20.5380  -28.0360   23.0150 C   0  0  0  0  0  3  0  0  0  0  0  0
  -20.6700  -26.6130   22.4210 C   0  0  0  0  0  2  0  0  0  0  0  0
  -19.5880  -26.2880   21.3880 C   0  0  0  0  0  2  0  0  0  0  0  0
  -18.1940  -26.4070   22.0130 C   0  0  0  0  0  2  0  0  0  0  0  0
  -19.0880  -28.5140   23.1600 C   0  0  0  0  0  0  0  0  0  0  0  0
  -18.8450  -29.7670   23.7650 C   0  0  0  0  0  3  0  0  0  0  0  0
  -17.5300  -30.2470   23.9190 C   0  0  0  0  0  3  0  0  0  0  0  0
  -16.4440  -29.4710   23.4810 C   0  0  0  0  0  3  0  0  0  0  0  0
  -16.6710  -28.2210   22.8790 C   0  0  0  0  0  3  0  0  0  0  0  0
  -25.7130  -32.3130   23.8020 C   0  0  0  0  0  3  0  0  0  0  0  0
  -25.3620  -33.7010   24.1400 N   0  0  0  0  0  0  0  0  0  0  0  0
  -25.6780  -34.7680   23.3920 C   0  0  0  0  0  0  0  0  0  0  0  0
  -26.3620  -34.6910   22.3690 O   0  0  0  0  0  0  0  0  0  0  0  0
  -24.7520  -33.8340   24.9330 H   0  0  0  0  0  0  0  0  0  0  0  0
  -23.9050  -36.5110   23.0410 C   0  0  0  0  0  1  0  0  0  0  0  0
  -25.1510  -36.1380   23.8590 C   0  0  0  0  0  3  0  0  0  0  0  0
  -27.2540  -37.0740   24.7130 C   0  0  0  0  0  1  0  0  0  0  0  0
  -26.1560  -37.2180   23.7600 N   0  0  0  0  0  0  0  0  0  0  0  0
  -25.7230  -38.1250   23.9120 H   0  0  0  0  0  0  0  0  0  0  0  0
  -26.2210  -31.5440   25.0820 C   0  0  1  0  0  0  0  0  0  0  0  0
  -25.1090  -31.2690   26.1210 C   0  0  0  0  0  1  0  0  0  0  0  0
  -26.8540  -30.1900   24.6890 C   0  0  0  0  0  1  0  0  0  0  0  0
  -27.3340  -32.3640   25.7770 C   0  0  0  0  0  1  0  0  0  0  0  0
  -28.9260  -19.8520   19.8150 C   0  0  0  0  0  2  0  0  0  0  0  0
  -28.1990  -18.0450   21.5120 C   0  0  0  0  0  1  0  0  0  0  0  0
  -29.2660  -18.3860   20.4600 C   0  0  0  0  0  3  0  0  0  0  0  0
  -29.5110  -17.1000   19.4900 C   0  0  0  0  0  2  0  0  0  0  0  0
  -30.1090  -14.5300   19.5340 C   0  0  0  0  0  0  0  0  0  0  0  0
  -29.7100  -12.3040   18.4650 C   0  0  0  0  0  2  0  0  0  0  0  0
  -28.5780  -12.4460   17.4190 C   0  0  0  0  0  2  0  0  0  0  0  0
  -27.2190  -12.1790   18.0880 C   0  0  0  0  0  2  0  0  0  0  0  0
  -27.0440  -13.0170   19.3800 C   0  0  0  0  0  3  0  0  0  0  0  0
  -28.2800  -12.9110   20.3060 C   0  0  0  0  0  2  0  0  0  0  0  0
  -29.4650  -13.3070   19.5300 N   0  0  0  0  0  0  0  0  0  0  0  0
  -31.1760  -14.6600   18.9330 O   0  0  0  0  0  0  0  0  0  0  0  0
  -29.4380  -15.6490   20.0010 N   0  0  0  0  0  0  0  0  0  0  0  0
  -28.6320  -15.4340   20.5650 H   0  0  0  0  0  0  0  0  0  0  0  0
  -24.7980  -13.5200   20.5120 C   0  0  0  0  0  0  0  0  0  0  0  0
  -23.8210  -12.7060   21.0210 C   0  0  0  0  0  0  0  0  0  0  0  0
  -24.3010  -11.3680   20.8600 C   0  0  0  0  0  0  0  0  0  0  0  0
  -25.8070  -12.6780   20.0760 N   0  0  0  0  0  0  0  0  0  0  0  0
  -25.5270  -11.3780   20.3510 N   0  0  0  0  0  0  0  0  0  0  0  0
  -23.6380  -10.0800   21.1070 C   0  0  0  0  0  0  0  0  0  0  0  0
  -24.1920   -9.1200   21.9830 C   0  0  0  0  0  3  0  0  0  0  0  0
  -23.5230   -7.8990   22.2200 C   0  0  0  0  0  3  0  0  0  0  0  0
  -22.2890   -7.6290   21.5830 C   0  0  0  0  0  0  0  0  0  0  0  0
  -21.7550   -8.5760   20.6920 C   0  0  0  0  0  3  0  0  0  0  0  0
  -22.4250   -9.7890   20.4510 C   0  0  0  0  0  3  0  0  0  0  0  0
  -21.5830   -6.4600   21.7360 O   0  0  0  0  0  0  0  0  0  0  0  0
  -21.6290   -5.7380   22.9020 C   0  0  0  0  0  0  0  0  0  0  0  0
  -21.2530   -6.2950   24.1440 C   0  0  0  0  0  3  0  0  0  0  0  0
  -21.2510   -5.4950   25.3030 C   0  0  0  0  0  3  0  0  0  0  0  0
  -21.6140   -4.1390   25.2240 C   0  0  0  0  0  0  0  0  0  0  0  0
  -21.9840   -3.5790   23.9880 C   0  0  0  0  0  3  0  0  0  0  0  0
  -21.9870   -4.3750   22.8300 C   0  0  0  0  0  0  0  0  0  0  0  0
  -22.3230   -3.8270   21.6370 F   0  0  0  0  0  0  0  0  0  0  0  0
  -21.6040   -3.3650   26.3360 F   0  0  0  0  0  0  0  0  0  0  0  0
  -22.4750  -13.1310   21.5300 C   0  0  0  0  0  0  0  0  0  0  0  0
  -21.9140  -12.3940   22.4800 N   0  0  0  0  0  0  0  0  0  0  0  0
  -21.9320  -14.1540   21.1170 O   0  0  0  0  0  0  0  0  0  0  0  0
  -22.3810  -11.5730   22.8420 H   0  0  0  0  0  0  0  0  0  0  0  0
  -21.0100  -12.6520   22.8500 H   0  0  0  0  0  0  0  0  0  0  0  0
  -24.9110  -14.8980   20.3570 N   0  0  0  0  0  0  0  0  0  0  0  0
  -24.1600  -15.5390   20.5820 H   0  0  0  0  0  0  0  0  0  0  0  0
  -25.6920  -15.3480   19.8960 H   0  0  0  0  0  0  0  0  0  0  0  0
  1  2  1  0
  3  1  2  0
  4 11  1  0
  4  2  2  0
  5  6  2  0
  5  3  1  0
  6  4  1  0
  8  9  1  0
  9  7  1  0
  9  6  1  0
 11 10  1  0
 12 13  1  0
 12  3  1  0
 14 16  1  0
 14 13  1  0
 15 26  2  0
 16 21  1  0
 17 25  1  0
 17 27  1  0
 18 24  1  0
 18 20  1  0
 19 25  1  0
 20 21  2  0
 20 19  1  0
 22 16  2  0
 23 22  1  0
 23 18  2  0
 24 17  1  0
 25 15  1  0
 27 29  2  0
 28 27  1  0
 30 28  1  0
 31 40  2  0
 31 36  1  0
 32 28  1  0
 32 36  1  0
 33 32  1  0
 34 35  1  0
 34 33  1  0
 35 31  1  0
 36 37  2  0
 37 38  1  0
 39 38  2  0
 40 39  1  0
 41 15  1  0
 41 42  1  0
 41 51  1  0
 42 45  1  0
 43 47  1  0
 43 42  1  0
 44 43  2  0
 47 46  1  0
 49 47  1  0
 49 50  1  0
 49 48  1  0
 51 54  1  1
 51 52  1  0
 53 51  1  0
 55  5  1  0
 55 57  1  0
 57 56  1  0
 58 67  1  0
 58 57  1  0
 59 67  1  0
 60 65  1  0
 61 62  1  0
 61 60  1  0
 63 62  1  0
 63 72  1  0
 63 64  1  0
 65 59  1  0
 65 64  1  0
 66 59  2  0
 67 68  1  0
 69 70  2  0
 70 89  1  0
 71 70  1  0
 71 74  1  0
 72 73  1  0
 72 69  1  0
 73 71  2  0
 74 75  1  0
 75 76  2  0
 77 80  1  0
 77 76  1  0
 78 77  2  0
 79 78  1  0
 79 74  2  0
 80 81  1  0
 81 82  1  0
 82 83  2  0
 84 83  1  0
 84 88  1  0
 85 84  2  0
 86 81  2  0
 86 85  1  0
 87 86  1  0
 89 90  1  0
 90 92  1  0
 90 93  1  0
 91 89  2  0
 94 69  1  0
 94 95  1  0
 96 94  1  0
M  ISO  4  13 101  14 101  59 100  67 100
M  END
>  <TORSDO>  (6) 
F 23

>  <SCORE>  (6) 
-9.557

>  <name>  (6) 
5

>  <ligand_id>  (6) 
5

>  <original_smiles>  (6) 
[H]c1c([H])c([H])c2c(c1[H])C([H])([H])C([H])([H])C([H])([H])C2([H])N([H])C(=O)C1([H])N(C(=O)C([H])(N([H])C(=O)C([H])(N([H])C([H])([H])[H])C([H])([H])[H])C(C([H])([H])[H])(C([H])([H])[H])C([H])([H])[H])C([H])([H])c2c([H])c(OC([H])([H])C([H])([H])c3c([H])c([H])c(C([H])([H])C([H])([H])[H])c(C([H])(C([H])([H])[H])C([H])([H])[H])c3C([H])([H])C([H])(C([H])([H])[H])C([H])([H])N([H])C(=O)N3C([H])([H])C([H])([H])C([H])([H])C([H])(n4nc(-c5c([H])c([H])c(Oc6c([H])c([H])c(F)c([H])c6F)c([H])c5[H])c(C(=O)N([H])[H])c4N([H])[H])C3([H])[H])c([H])c([H])c2C1([H])[H]

>  <smiles>  (6) 
[H]c1c([H])c([H])c2c(c1[H])C([H])([H])C([H])([H])C([H])([H])C2([H])N([H])C(=O)C1([H])N(C(=O)C([H])(N([H])C(=O)C([H])(N([H])C([H])([H])[H])C([H])([H])[H])C(C([H])([H])[H])(C([H])([H])[H])C([H])([H])[H])C([H])([H])c2c([H])c(OC([H])([H])C([H])([H])c3c([H])c([H])c(C([H])([H])C([H])([H])[H])c(C([H])(C([H])([H])[H])C([H])([H])[H])c3C([H])([H])C([H])(C([H])([H])[H])C([H])([H])N([H])C(=O)N3C([H])([H])C([H])([H])C([H])([H])C([H])(n4nc(-c5c([H])c([H])c(Oc6c([H])c([H])c(F)c([H])c6F)c([H])c5[H])c(C(=O)N([H])[H])c4N([H])[H])C3([H])[H])c([H])c([H])c2C1([H])[H]

$$$$
6:0:0
     RDKit          3D

 98106  0  0  1  0  0  0  0  0999 V2000
  -29.5330  -24.0370   17.2040 C   0  0  0  0  0  3  0  0  0  0  0  0
  -29.8120  -24.6810   15.9840 C   0  0  0  0  0  0  0  0  0  0  0  0
  -30.2150  -23.7590   14.8950 C   0  0  0  0  0  0  0  0  0  0  0  0
  -29.8520  -21.9710   16.3260 C   0  0  0  0  0  0  0  0  0  0  0  0
  -29.5490  -22.7110   17.3720 N   0  0  0  0  0  0  0  0  0  0  0  0
  -30.2060  -22.4290   15.1350 N   0  0  0  0  0  0  0  0  0  0  0  0
  -29.5480  -26.2530   16.0360 C   0  0  0  0  0  2  0  0  0  0  0  0
  -30.1750  -27.2080   17.2140 C   0  0  0  0  0  2  0  0  0  0  0  0
  -29.7280  -27.1540   18.7660 C   0  0  0  0  0  2  0  0  0  0  0  0
  -30.6830  -27.5570   19.8580 O   0  0  0  0  0  0  0  0  0  0  0  0
  -37.8190  -27.6460   21.1310 C   0  0  0  0  0  0  0  0  0  0  0  0
  -31.8730  -26.8190   20.0590 C   0  0  0  0  0  0  0  0  0  0  0  0
  -36.8880  -25.5800   20.1510 C   0  0  0  0  0  3  0  0  0  0  0  0
  -34.3380  -25.3500   20.2330 C   0  0  0  0  0  0  0  0  0  0  0  0
  -35.4390  -27.0600   21.6720 C   0  0  0  0  0  2  0  0  0  0  0  0
  -34.2110  -26.5730   20.9050 C   0  0  0  0  0  0  0  0  0  0  0  0
  -32.9810  -27.2990   20.8350 C   0  0  0  0  0  3  0  0  0  0  0  0
  -32.0360  -25.5540   19.4490 C   0  0  0  0  0  3  0  0  0  0  0  0
  -33.2460  -24.8360   19.5160 C   0  0  0  0  0  3  0  0  0  0  0  0
  -35.6720  -24.6310   20.3070 C   0  0  0  0  0  2  0  0  0  0  0  0
  -36.7430  -26.8180   20.9880 N   0  0  0  0  0  0  0  0  0  0  0  0
  -38.9120  -27.3790   20.6130 O   0  0  0  0  0  0  0  0  0  0  0  0
  -37.1110  -25.8810   18.6490 C   0  0  0  0  0  0  0  0  0  0  0  0
  -37.7160  -24.9250   17.9240 N   0  0  0  0  0  0  0  0  0  0  0  0
  -36.7190  -26.9420   18.1560 O   0  0  0  0  0  0  0  0  0  0  0  0
  -38.0240  -24.0910   18.4030 H   0  0  0  0  0  0  0  0  0  0  0  0
  -39.2990  -23.1750   15.1790 C   0  0  0  0  0  0  0  0  0  0  0  0
  -37.9880  -24.9800   16.4850 C   0  0  0  0  0  3  0  0  0  0  0  0
  -36.7550  -24.5310   15.6650 C   0  0  0  0  0  2  0  0  0  0  0  0
  -36.7760  -23.0380   15.3160 C   0  0  0  0  0  2  0  0  0  0  0  0
  -38.0260  -22.6930   14.5010 C   0  0  0  0  0  2  0  0  0  0  0  0
  -39.2780  -24.2370   16.1210 C   0  0  0  0  0  0  0  0  0  0  0  0
  -40.4860  -24.6190   16.7450 C   0  0  0  0  0  3  0  0  0  0  0  0
  -41.6930  -23.9680   16.4380 C   0  0  0  0  0  3  0  0  0  0  0  0
  -41.7100  -22.9260   15.4950 C   0  0  0  0  0  3  0  0  0  0  0  0
  -40.5160  -22.5320   14.8670 C   0  0  0  0  0  3  0  0  0  0  0  0
  -37.7340  -28.9530   21.9780 C   0  0  0  0  0  3  0  0  0  0  0  0
  -38.0400  -30.2550   21.1380 C   0  0  1  0  0  0  0  0  0  0  0  0
  -39.5440  -30.4760   20.8540 C   0  0  0  0  0  1  0  0  0  0  0  0
  -37.3050  -30.2190   19.7760 C   0  0  0  0  0  1  0  0  0  0  0  0
  -37.5040  -31.4960   21.8910 C   0  0  0  0  0  1  0  0  0  0  0  0
  -38.6840  -28.8200   23.0920 N   0  0  0  0  0  0  0  0  0  0  0  0
  -38.5470  -27.9630   24.1130 C   0  0  0  0  0  0  0  0  0  0  0  0
  -37.5560  -27.2400   24.2470 O   0  0  0  0  0  0  0  0  0  0  0  0
  -39.5430  -29.3420   23.0160 H   0  0  0  0  0  0  0  0  0  0  0  0
  -40.4630  -26.5820   24.9870 C   0  0  0  0  0  1  0  0  0  0  0  0
  -39.6850  -27.8980   25.1500 C   0  0  0  0  0  3  0  0  0  0  0  0
  -38.8730  -29.3940   26.9220 C   0  0  0  0  0  1  0  0  0  0  0  0
  -39.2170  -28.0250   26.5480 N   0  0  0  0  0  0  0  0  0  0  0  0
  -39.9260  -27.6900   27.1950 H   0  0  0  0  0  0  0  0  0  0  0  0
  -29.7070  -20.4690   16.5120 C   0  0  0  0  0  2  0  0  0  0  0  0
  -30.6900  -19.8690   17.5330 C   0  0  0  0  0  2  0  0  0  0  0  0
  -30.6510  -18.6980   19.8040 C   0  0  0  0  0  1  0  0  0  0  0  0
  -30.0340  -18.7850   18.4050 C   0  0  0  0  0  2  0  0  0  0  0  0
  -30.5100  -24.0110   13.3540 C   0  0  0  0  0  3  0  0  0  0  0  0
  -29.6750  -23.0370   12.6510 N   0  0  0  0  0  4  0  0  0  0  0  0
  -28.7200  -23.3440   12.6260 H   0  0  0  0  0  0  0  0  0  0  0  0
  -29.7200  -22.1840   13.1790 H   0  0  0  0  0  0  0  0  0  0  0  0
  -30.0110  -22.8800   11.7200 H   0  0  0  0  0  0  0  0  0  0  0  0
  -30.2700  -25.4940   12.6890 C   0  0  0  0  0  2  0  0  0  0  0  0
  -31.6790  -27.6670   12.2470 C   0  0  0  0  0  0  0  0  0  0  0  0
  -32.6600  -29.6630   11.1040 C   0  0  0  0  0  2  0  0  0  0  0  0
  -32.2250  -29.6850    9.6230 C   0  0  0  0  0  2  0  0  0  0  0  0
  -33.1840  -28.8400    8.7610 C   0  0  0  0  0  2  0  0  0  0  0  0
  -33.4770  -27.4470    9.3820 C   0  0  0  0  0  3  0  0  0  0  0  0
  -33.8150  -27.5470   10.8840 C   0  0  0  0  0  2  0  0  0  0  0  0
  -32.7030  -28.2460   11.5340 N   0  0  0  0  0  0  0  0  0  0  0  0
  -30.9470  -28.3700   12.9490 O   0  0  0  0  0  0  0  0  0  0  0  0
  -31.3600  -26.3370   12.0130 N   0  0  0  0  0  0  0  0  0  0  0  0
  -31.9730  -25.8480   11.3800 H   0  0  0  0  0  0  0  0  0  0  0  0
  -34.4860  -25.4250    8.1720 C   0  0  0  0  0  0  0  0  0  0  0  0
  -35.6450  -25.2620    7.4620 C   0  0  0  0  0  0  0  0  0  0  0  0
  -36.3300  -26.5130    7.5360 C   0  0  0  0  0  0  0  0  0  0  0  0
  -34.5050  -26.7300    8.6370 N   0  0  0  0  0  0  0  0  0  0  0  0
  -35.6570  -27.3650    8.3000 N   0  0  0  0  0  0  0  0  0  0  0  0
  -37.5610  -26.9680    6.8750 C   0  0  0  0  0  0  0  0  0  0  0  0
  -38.8250  -26.8370    7.4920 C   0  0  0  0  0  3  0  0  0  0  0  0
  -39.9940  -27.2630    6.8270 C   0  0  0  0  0  3  0  0  0  0  0  0
  -39.9100  -27.8230    5.5310 C   0  0  0  0  0  0  0  0  0  0  0  0
  -38.6480  -27.9710    4.9290 C   0  0  0  0  0  3  0  0  0  0  0  0
  -37.4850  -27.5510    5.5950 C   0  0  0  0  0  3  0  0  0  0  0  0
  -40.9910  -28.2850    4.8180 O   0  0  0  0  0  0  0  0  0  0  0  0
  -41.8810  -27.4280    4.2220 C   0  0  0  0  0  0  0  0  0  0  0  0
  -41.5670  -26.7370    3.0320 C   0  0  0  0  0  3  0  0  0  0  0  0
  -42.5350  -25.9200    2.4160 C   0  0  0  0  0  3  0  0  0  0  0  0
  -43.8190  -25.8000    2.9810 C   0  0  0  0  0  0  0  0  0  0  0  0
  -44.1340  -26.4910    4.1620 C   0  0  0  0  0  3  0  0  0  0  0  0
  -43.1690  -27.3060    4.7800 C   0  0  0  0  0  0  0  0  0  0  0  0
  -43.4860  -27.9860    5.9080 F   0  0  0  0  0  0  0  0  0  0  0  0
  -44.7520  -25.0220    2.3840 F   0  0  0  0  0  0  0  0  0  0  0  0
  -36.0470  -24.0500    6.6770 C   0  0  0  0  0  0  0  0  0  0  0  0
  -37.2490  -23.5350    6.9150 N   0  0  0  0  0  0  0  0  0  0  0  0
  -35.2750  -23.5200    5.8780 O   0  0  0  0  0  0  0  0  0  0  0  0
  -37.8740  -23.9600    7.5840 H   0  0  0  0  0  0  0  0  0  0  0  0
  -37.5480  -22.7060    6.4230 H   0  0  0  0  0  0  0  0  0  0  0  0
  -33.4110  -24.5830    8.4370 N   0  0  0  0  0  0  0  0  0  0  0  0
  -33.3490  -23.6520    8.0400 H   0  0  0  0  0  0  0  0  0  0  0  0
  -32.5670  -24.8630    8.9210 H   0  0  0  0  0  0  0  0  0  0  0  0
  1  5  1  0
  2  7  1  0
  2  1  2  0
  3  6  2  0
  3  2  1  0
  4 51  1  0
  4  5  2  0
  6  4  1  0
  7  8  1  0
  8  9  1  0
  9 10  1  0
 10 12  1  0
 12 17  1  0
 13 23  1  0
 13 20  1  0
 13 21  1  0
 14 20  1  0
 14 16  1  0
 16 15  1  0
 17 16  2  0
 18 19  1  0
 18 12  2  0
 19 14  2  0
 21 11  1  0
 21 15  1  0
 22 11  2  0
 24 26  1  0
 24 23  1  0
 25 23  2  0
 27 32  1  0
 28 24  1  0
 29 28  1  0
 30 29  1  0
 31 27  1  0
 31 30  1  0
 32 28  1  0
 32 33  2  0
 34 33  1  0
 35 34  2  0
 36 27  2  0
 36 35  1  0
 37 11  1  0
 37 42  1  0
 38 41  1  1
 38 37  1  0
 39 38  1  0
 40 38  1  0
 42 43  1  0
 43 44  2  0
 43 47  1  0
 45 42  1  0
 47 46  1  0
 47 49  1  0
 49 48  1  0
 49 50  1  0
 51 52  1  0
 52 54  1  0
 54 53  1  0
 55 60  1  0
 55  3  1  0
 56 58  1  0
 56 55  1  0
 57 56  1  0
 59 56  1  0
 61 68  2  0
 62 67  1  0
 63 62  1  0
 64 65  1  0
 64 63  1  0
 65 74  1  0
 65 66  1  0
 66 67  1  0
 67 61  1  0
 69 61  1  0
 69 60  1  0
 70 69  1  0
 71 96  1  0
 71 74  1  0
 72 73  1  0
 72 71  2  0
 73 75  2  0
 75 74  1  0
 76 77  1  0
 76 73  1  0
 78 77  2  0
 79 78  1  0
 80 79  2  0
 80 81  1  0
 81 76  2  0
 82 79  1  0
 83 88  1  0
 83 82  1  0
 84 83  2  0
 85 86  2  0
 85 84  1  0
 86 87  1  0
 87 88  2  0
 88 89  1  0
 90 86  1  0
 91 92  1  0
 91 72  1  0
 92 94  1  0
 93 91  2  0
 95 92  1  0
 96 98  1  0
 97 96  1  0
M  ISO  4   9 101  10 101  61 100  69 100
M  END
>  <TORSDO>  (7) 
F 25

>  <SCORE>  (7) 
-1.968

>  <name>  (7) 
6

>  <ligand_id>  (7) 
6

>  <original_smiles>  (7) 
[H]c1nc(C([H])([H])C([H])([H])C([H])([H])C([H])([H])[H])nc(C([H])(C([H])([H])N([H])C(=O)N2C([H])([H])C([H])([H])C([H])([H])C([H])(n3nc(-c4c([H])c([H])c(Oc5c([H])c([H])c(F)c([H])c5F)c([H])c4[H])c(C(=O)N([H])[H])c3N([H])[H])C2([H])[H])[N+]([H])([H])[H])c1C([H])([H])C([H])([H])C([H])([H])Oc1c([H])c([H])c2c(c1[H])C([H])([H])N(C(=O)C([H])(N([H])C(=O)C([H])(N([H])C([H])([H])[H])C([H])([H])[H])C(C([H])([H])[H])(C([H])([H])[H])C([H])([H])[H])C([H])(C(=O)N([H])C1([H])c3c([H])c([H])c([H])c([H])c3C([H])([H])C([H])([H])C1([H])[H])C2([H])[H]

>  <smiles>  (7) 
[H]c1nc(C([H])([H])C([H])([H])C([H])([H])C([H])([H])[H])nc(C([H])(C([H])([H])N([H])C(=O)N2C([H])([H])C([H])([H])C([H])([H])C([H])(n3nc(-c4c([H])c([H])c(Oc5c([H])c([H])c(F)c([H])c5F)c([H])c4[H])c(C(=O)N([H])[H])c3N([H])[H])C2([H])[H])[N+]([H])([H])[H])c1C([H])([H])C([H])([H])C([H])([H])Oc1c([H])c([H])c2c(c1[H])C([H])([H])N(C(=O)C([H])(N([H])C(=O)C([H])(N([H])C([H])([H])[H])C([H])([H])[H])C(C([H])([H])[H])(C([H])([H])[H])C([H])([H])[H])C([H])(C(=O)N([H])C1([H])c3c([H])c([H])c([H])c([H])c3C([H])([H])C([H])([H])C1([H])[H])C2([H])[H]

$$$$
7:0:0
     RDKit          3D

 94102  0  0  1  0  0  0  0  0999 V2000
  -29.0200  -19.9410   21.1470 C   0  0  0  0  0  3  0  0  0  0  0  0
  -30.5610  -21.5470   21.1040 C   0  0  0  0  0  3  0  0  0  0  0  0
  -30.2300  -19.3370   21.3810 C   0  0  0  0  0  0  0  0  0  0  0  0
  -31.2240  -20.3710   21.3350 C   0  0  0  0  0  0  0  0  0  0  0  0
  -29.2110  -21.2990   20.9950 N   0  0  0  0  0  0  0  0  0  0  0  0
  -33.0860  -20.3660   23.0160 C   0  0  0  0  0  1  0  0  0  0  0  0
  -33.5120  -21.2530   20.6870 C   0  0  0  0  0  1  0  0  0  0  0  0
  -32.7250  -20.2310   21.5310 C   0  0  0  0  0  3  0  0  0  0  0  0
  -30.4200  -17.8530   21.6450 C   0  0  0  0  0  2  0  0  0  0  0  0
  -30.8470  -17.0880   20.3750 C   0  0  0  0  0  2  0  0  0  0  0  0
  -31.1600  -14.7000   19.7290 C   0  0  0  0  0  0  0  0  0  0  0  0
  -30.8170  -12.4450   18.7830 C   0  0  0  0  0  2  0  0  0  0  0  0
  -29.7870  -12.5040   17.6360 C   0  0  0  0  0  2  0  0  0  0  0  0
  -28.3460  -12.4060   18.1740 C   0  0  0  0  0  2  0  0  0  0  0  0
  -28.0840  -13.3890   19.3450 C   0  0  0  0  0  3  0  0  0  0  0  0
  -29.2020  -13.2690   20.4030 C   0  0  0  0  0  2  0  0  0  0  0  0
  -30.4970  -13.5150   19.7380 N   0  0  0  0  0  0  0  0  0  0  0  0
  -32.1580  -14.9170   19.0320 O   0  0  0  0  0  0  0  0  0  0  0  0
  -30.6010  -15.6520   20.4890 N   0  0  0  0  0  0  0  0  0  0  0  0
  -29.8070  -15.3640   21.0430 H   0  0  0  0  0  0  0  0  0  0  0  0
  -25.8110  -14.1150   20.3220 C   0  0  0  0  0  0  0  0  0  0  0  0
  -24.7290  -13.3920   20.7500 C   0  0  0  0  0  0  0  0  0  0  0  0
  -25.0810  -12.0190   20.5850 C   0  0  0  0  0  0  0  0  0  0  0  0
  -26.7620  -13.1830   19.9320 N   0  0  0  0  0  0  0  0  0  0  0  0
  -26.3270  -11.9130   20.1430 N   0  0  0  0  0  0  0  0  0  0  0  0
  -24.2860  -10.7990   20.7700 C   0  0  0  0  0  0  0  0  0  0  0  0
  -24.6930   -9.7800   21.6570 C   0  0  0  0  0  3  0  0  0  0  0  0
  -23.9020   -8.6230   21.8300 C   0  0  0  0  0  3  0  0  0  0  0  0
  -22.6880   -8.4790   21.1140 C   0  0  0  0  0  0  0  0  0  0  0  0
  -22.3010   -9.4870   20.2130 C   0  0  0  0  0  3  0  0  0  0  0  0
  -23.0920  -10.6340   20.0380 C   0  0  0  0  0  3  0  0  0  0  0  0
  -21.8700   -7.3780   21.1970 O   0  0  0  0  0  0  0  0  0  0  0  0
  -21.7490   -6.6580   22.3580 C   0  0  0  0  0  0  0  0  0  0  0  0
  -21.3060   -7.2510   23.5610 C   0  0  0  0  0  3  0  0  0  0  0  0
  -21.1290   -6.4600   24.7130 C   0  0  0  0  0  3  0  0  0  0  0  0
  -21.3860   -5.0760   24.6640 C   0  0  0  0  0  0  0  0  0  0  0  0
  -21.8230   -4.4830   23.4650 C   0  0  0  0  0  3  0  0  0  0  0  0
  -22.0010   -5.2720   22.3170 C   0  0  0  0  0  0  0  0  0  0  0  0
  -22.4010   -4.6920   21.1590 F   0  0  0  0  0  0  0  0  0  0  0  0
  -21.2090   -4.3140   25.7680 F   0  0  0  0  0  0  0  0  0  0  0  0
  -23.4040  -13.9450   21.1950 C   0  0  0  0  0  0  0  0  0  0  0  0
  -22.7230  -13.2460   22.0990 N   0  0  0  0  0  0  0  0  0  0  0  0
  -22.9890  -15.0250   20.7820 O   0  0  0  0  0  0  0  0  0  0  0  0
  -23.0720  -12.3690   22.4560 H   0  0  0  0  0  0  0  0  0  0  0  0
  -21.8400  -13.5980   22.4410 H   0  0  0  0  0  0  0  0  0  0  0  0
  -26.0590  -15.4800   20.2150 N   0  0  0  0  0  0  0  0  0  0  0  0
  -25.3550  -16.1760   20.4390 H   0  0  0  0  0  0  0  0  0  0  0  0
  -26.9070  -15.8830   19.8370 H   0  0  0  0  0  0  0  0  0  0  0  0
  -28.1400  -22.2750   20.8310 C   0  0  0  0  0  2  0  0  0  0  0  0
  -28.5950  -23.7080   20.4460 C   0  0  0  0  0  2  0  0  0  0  0  0
  -26.3390  -24.6650   21.1540 C   0  0  0  0  0  1  0  0  0  0  0  0
  -27.4420  -24.6730   20.0730 C   0  0  0  0  0  3  0  0  0  0  0  0
  -27.9810  -26.1080   19.8240 C   0  0  0  0  0  2  0  0  0  0  0  0
  -27.3170  -26.7720   18.7500 O   0  0  0  0  0  0  0  0  0  0  0  0
  -24.4890  -31.7260   23.0450 C   0  0  0  0  0  0  0  0  0  0  0  0
  -26.2460  -27.5610   19.0830 C   0  0  0  0  0  0  0  0  0  0  0  0
  -22.9320  -30.6240   21.4680 C   0  0  0  0  0  3  0  0  0  0  0  0
  -24.0180  -29.1890   19.6590 C   0  0  0  0  0  0  0  0  0  0  0  0
  -25.4190  -30.8360   20.9120 C   0  0  0  0  0  2  0  0  0  0  0  0
  -25.2900  -29.5520   20.1210 C   0  0  0  0  0  0  0  0  0  0  0  0
  -26.4090  -28.7370   19.8440 C   0  0  0  0  0  3  0  0  0  0  0  0
  -24.9700  -27.2240   18.5920 C   0  0  0  0  0  3  0  0  0  0  0  0
  -23.8500  -28.0180   18.8980 C   0  0  0  0  0  3  0  0  0  0  0  0
  -22.8700  -30.1100   20.0040 C   0  0  0  0  0  2  0  0  0  0  0  0
  -24.3080  -31.0670   21.8640 N   0  0  0  0  0  0  0  0  0  0  0  0
  -23.5280  -32.0030   23.7790 O   0  0  0  0  0  0  0  0  0  0  0  0
  -22.3470  -29.5370   22.3990 C   0  0  0  0  0  0  0  0  0  0  0  0
  -21.0170  -29.3600   22.3480 N   0  0  0  0  0  0  0  0  0  0  0  0
  -23.0830  -28.8620   23.1210 O   0  0  0  0  0  0  0  0  0  0  0  0
  -20.4840  -29.9580   21.7320 H   0  0  0  0  0  0  0  0  0  0  0  0
  -17.7090  -27.9860   22.8330 C   0  0  0  0  0  0  0  0  0  0  0  0
  -20.2510  -28.3690   23.1040 C   0  0  0  0  0  3  0  0  0  0  0  0
  -20.4260  -26.9550   22.5040 C   0  0  0  0  0  2  0  0  0  0  0  0
  -19.3380  -26.5930   21.4880 C   0  0  0  0  0  2  0  0  0  0  0  0
  -17.9510  -26.6590   22.1360 C   0  0  0  0  0  2  0  0  0  0  0  0
  -18.7880  -28.7970   23.2740 C   0  0  0  0  0  0  0  0  0  0  0  0
  -18.5080  -30.0390   23.8840 C   0  0  0  0  0  3  0  0  0  0  0  0
  -17.1810  -30.4710   24.0590 C   0  0  0  0  0  3  0  0  0  0  0  0
  -16.1150  -29.6580   23.6380 C   0  0  0  0  0  3  0  0  0  0  0  0
  -16.3800  -28.4170   23.0300 C   0  0  0  0  0  3  0  0  0  0  0  0
  -25.9040  -32.1840   23.5150 C   0  0  0  0  0  3  0  0  0  0  0  0
  -25.7730  -33.5410   24.0580 N   0  0  0  0  0  0  0  0  0  0  0  0
  -26.1470  -34.6550   23.4140 C   0  0  0  0  0  0  0  0  0  0  0  0
  -26.7110  -34.6370   22.3170 O   0  0  0  0  0  0  0  0  0  0  0  0
  -25.2770  -33.6350   24.9320 H   0  0  0  0  0  0  0  0  0  0  0  0
  -24.6100  -36.6430   23.4460 C   0  0  0  0  0  1  0  0  0  0  0  0
  -25.8460  -36.0030   24.0970 C   0  0  0  0  0  3  0  0  0  0  0  0
  -28.1120  -36.5340   24.8770 C   0  0  0  0  0  1  0  0  0  0  0  0
  -26.9810  -36.9510   24.0520 N   0  0  0  0  0  0  0  0  0  0  0  0
  -26.6920  -37.8770   24.3560 H   0  0  0  0  0  0  0  0  0  0  0  0
  -26.5460  -31.2140   24.5820 C   0  0  1  0  0  0  0  0  0  0  0  0
  -25.6180  -30.9090   25.7810 C   0  0  0  0  0  1  0  0  0  0  0  0
  -26.9340  -29.8660   23.9310 C   0  0  0  0  0  1  0  0  0  0  0  0
  -27.8540  -31.8320   25.1300 C   0  0  0  0  0  1  0  0  0  0  0  0
  1  3  2  0
  2  4  2  0
  3  9  1  0
  4  3  1  0
  4  8  1  0
  5  2  1  0
  5  1  1  0
  7  8  1  0
  8  6  1  0
 10 19  1  0
 10  9  1  0
 11 17  1  0
 11 19  1  0
 12 17  1  0
 13 14  1  0
 13 12  1  0
 15 14  1  0
 15 24  1  0
 15 16  1  0
 17 16  1  0
 18 11  2  0
 19 20  1  0
 21 22  2  0
 22 41  1  0
 23 22  1  0
 23 26  1  0
 24 25  1  0
 24 21  1  0
 25 23  2  0
 26 27  1  0
 27 28  2  0
 29 32  1  0
 29 28  1  0
 30 29  2  0
 31 30  1  0
 31 26  2  0
 32 33  1  0
 33 34  1  0
 34 35  2  0
 36 35  1  0
 36 40  1  0
 37 36  2  0
 38 33  2  0
 38 37  1  0
 39 38  1  0
 41 42  1  0
 42 45  1  0
 42 44  1  0
 43 41  2  0
 46 21  1  0
 46 47  1  0
 48 46  1  0
 49  5  1  0
 50 49  1  0
 52 50  1  0
 52 51  1  0
 53 52  1  0
 54 56  1  0
 54 53  1  0
 55 66  2  0
 56 61  1  0
 57 65  1  0
 57 67  1  0
 58 64  1  0
 58 60  1  0
 59 65  1  0
 60 59  1  0
 61 60  2  0
 62 63  1  0
 62 56  2  0
 63 58  2  0
 64 57  1  0
 65 55  1  0
 67 69  2  0
 68 67  1  0
 70 68  1  0
 71 80  2  0
 71 76  1  0
 72 68  1  0
 72 76  1  0
 73 72  1  0
 74 75  1  0
 74 73  1  0
 75 71  1  0
 76 77  2  0
 77 78  1  0
 79 78  2  0
 80 79  1  0
 81 55  1  0
 81 82  1  0
 81 91  1  0
 82 85  1  0
 83 82  1  0
 83 87  1  0
 84 83  2  0
 87 86  1  0
 89 87  1  0
 89 90  1  0
 89 88  1  0
 91 94  1  1
 91 92  1  0
 93 91  1  0
M  ISO  4  11 100  19 100  53 101  54 101
M  END
>  <TORSDO>  (8) 
F 23

>  <SCORE>  (8) 
-11.409

>  <name>  (8) 
7

>  <ligand_id>  (8) 
7

>  <original_smiles>  (8) 
[H]c1c([H])c([H])c2c(c1[H])C([H])([H])C([H])([H])C([H])([H])C2([H])N([H])C(=O)C1([H])N(C(=O)C([H])(N([H])C(=O)C([H])(N([H])C([H])([H])[H])C([H])([H])[H])C(C([H])([H])[H])(C([H])([H])[H])C([H])([H])[H])C([H])([H])c2c([H])c(OC([H])([H])C([H])(C([H])([H])[H])C([H])([H])C([H])([H])n3c([H])c(C([H])([H])C([H])([H])N([H])C(=O)N4C([H])([H])C([H])([H])C([H])([H])C([H])(n5nc(-c6c([H])c([H])c(Oc7c([H])c([H])c(F)c([H])c7F)c([H])c6[H])c(C(=O)N([H])[H])c5N([H])[H])C4([H])[H])c(C([H])(C([H])([H])[H])C([H])([H])[H])c3[H])c([H])c([H])c2C1([H])[H]

>  <smiles>  (8) 
[H]c1c([H])c([H])c2c(c1[H])C([H])([H])C([H])([H])C([H])([H])C2([H])N([H])C(=O)C1([H])N(C(=O)C([H])(N([H])C(=O)C([H])(N([H])C([H])([H])[H])C([H])([H])[H])C(C([H])([H])[H])(C([H])([H])[H])C([H])([H])[H])C([H])([H])c2c([H])c(OC([H])([H])C([H])(C([H])([H])[H])C([H])([H])C([H])([H])n3c([H])c(C([H])([H])C([H])([H])N([H])C(=O)N4C([H])([H])C([H])([H])C([H])([H])C([H])(n5nc(-c6c([H])c([H])c(Oc7c([H])c([H])c(F)c([H])c7F)c([H])c6[H])c(C(=O)N([H])[H])c5N([H])[H])C4([H])[H])c(C([H])(C([H])([H])[H])C([H])([H])[H])c3[H])c([H])c([H])c2C1([H])[H]

$$$$
8:0:0
     RDKit          3D

 92100  0  0  1  0  0  0  0  0999 V2000
  -29.4000  -19.7730   19.3090 C   0  0  0  0  0  3  0  0  0  0  0  0
  -27.4670  -20.8230   20.2990 C   0  0  0  0  0  3  0  0  0  0  0  0
  -28.6750  -20.9930   19.6090 C   0  0  0  0  0  0  0  0  0  0  0  0
  -28.8820  -18.4580   19.6520 C   0  0  0  0  0  0  0  0  0  0  0  0
  -27.5700  -18.4840   20.1980 C   0  0  0  0  0  0  0  0  0  0  0  0
  -26.9340  -19.6190   20.5770 N   0  0  0  0  0  0  0  0  0  0  0  0
  -25.4300  -17.1210   19.5650 C   0  0  0  0  0  1  0  0  0  0  0  0
  -26.7430  -17.2170   20.3850 C   0  0  0  0  0  2  0  0  0  0  0  0
  -29.0000  -22.4380   19.0500 C   0  0  0  0  0  2  0  0  0  0  0  0
  -29.3600  -23.3960   21.4770 C   0  0  0  0  0  1  0  0  0  0  0  0
  -29.2460  -23.7310   19.9860 C   0  0  0  0  0  3  0  0  0  0  0  0
  -28.2600  -24.9530   19.7190 C   0  0  0  0  0  2  0  0  0  0  0  0
  -28.5210  -26.3540   20.1380 O   0  0  0  0  0  0  0  0  0  0  0  0
  -24.7560  -31.7030   23.2300 C   0  0  0  0  0  0  0  0  0  0  0  0
  -27.4170  -27.2290   20.0950 C   0  0  0  0  0  0  0  0  0  0  0  0
  -23.5800  -30.3470   21.5360 C   0  0  0  0  0  3  0  0  0  0  0  0
  -25.0570  -28.8520   20.0970 C   0  0  0  0  0  0  0  0  0  0  0  0
  -26.1250  -30.6790   21.4050 C   0  0  0  0  0  2  0  0  0  0  0  0
  -26.2190  -29.3190   20.7260 C   0  0  0  0  0  0  0  0  0  0  0  0
  -27.3980  -28.5120   20.7280 C   0  0  0  0  0  3  0  0  0  0  0  0
  -26.2270  -26.8360   19.4350 C   0  0  0  0  0  3  0  0  0  0  0  0
  -25.0620  -27.6090   19.4560 C   0  0  0  0  0  3  0  0  0  0  0  0
  -23.8170  -29.7140   20.1420 C   0  0  0  0  0  2  0  0  0  0  0  0
  -24.8380  -30.9270   22.1110 N   0  0  0  0  0  0  0  0  0  0  0  0
  -23.6650  -31.9640   23.7560 O   0  0  0  0  0  0  0  0  0  0  0  0
  -22.9070  -29.2990   22.4560 C   0  0  0  0  0  0  0  0  0  0  0  0
  -21.5850  -29.1170   22.2960 N   0  0  0  0  0  0  0  0  0  0  0  0
  -23.5750  -28.6550   23.2700 O   0  0  0  0  0  0  0  0  0  0  0  0
  -21.1110  -29.6910   21.6130 H   0  0  0  0  0  0  0  0  0  0  0  0
  -18.2030  -27.9060   22.7180 C   0  0  0  0  0  0  0  0  0  0  0  0
  -20.7570  -28.1570   23.0270 C   0  0  0  0  0  3  0  0  0  0  0  0
  -20.8690  -26.7410   22.4160 C   0  0  0  0  0  2  0  0  0  0  0  0
  -19.7810  -26.4330   21.3860 C   0  0  0  0  0  2  0  0  0  0  0  0
  -18.3860  -26.5760   22.0060 C   0  0  0  0  0  2  0  0  0  0  0  0
  -19.3150  -28.6570   23.1810 C   0  0  0  0  0  0  0  0  0  0  0  0
  -19.0870  -29.9070   23.7990 C   0  0  0  0  0  3  0  0  0  0  0  0
  -17.7810  -30.4040   23.9590 C   0  0  0  0  0  3  0  0  0  0  0  0
  -16.6830  -29.6450   23.5190 C   0  0  0  0  0  3  0  0  0  0  0  0
  -16.8960  -28.3990   22.8990 C   0  0  0  0  0  3  0  0  0  0  0  0
  -26.0300  -32.3180   23.8880 C   0  0  0  0  0  3  0  0  0  0  0  0
  -25.7120  -33.7060   24.2550 N   0  0  0  0  0  0  0  0  0  0  0  0
  -26.0520  -34.7800   23.5290 C   0  0  0  0  0  0  0  0  0  0  0  0
  -26.7330  -34.7080   22.5030 O   0  0  0  0  0  0  0  0  0  0  0  0
  -25.1080  -33.8370   25.0530 H   0  0  0  0  0  0  0  0  0  0  0  0
  -24.3210  -36.5750   23.2040 C   0  0  0  0  0  1  0  0  0  0  0  0
  -25.5540  -36.1540   24.0200 C   0  0  0  0  0  3  0  0  0  0  0  0
  -27.6750  -37.0170   24.9040 C   0  0  0  0  0  1  0  0  0  0  0  0
  -26.5870  -37.2120   23.9500 N   0  0  0  0  0  0  0  0  0  0  0  0
  -26.1780  -38.1270   24.1180 H   0  0  0  0  0  0  0  0  0  0  0  0
  -26.5320  -31.5090   25.1470 C   0  0  1  0  0  0  0  0  0  0  0  0
  -25.4150  -31.2140   26.1770 C   0  0  0  0  0  1  0  0  0  0  0  0
  -27.1500  -30.1560   24.7240 C   0  0  0  0  0  1  0  0  0  0  0  0
  -27.6500  -32.3000   25.8650 C   0  0  0  0  0  1  0  0  0  0  0  0
  -29.5790  -17.0710   19.2230 C   0  0  0  0  0  2  0  0  0  0  0  0
  -30.2030  -15.9430   21.7100 C   0  0  0  0  0  1  0  0  0  0  0  0
  -30.4700  -16.0920   20.1880 C   0  0  0  0  0  3  0  0  0  0  0  0
  -30.9960  -14.6870   19.6240 C   0  0  0  0  0  0  0  0  0  0  0  0
  -30.7700  -12.2900   18.9660 C   0  0  0  0  0  2  0  0  0  0  0  0
  -29.7920  -12.1690   17.7820 C   0  0  0  0  0  2  0  0  0  0  0  0
  -28.3490  -12.0170   18.2990 C   0  0  0  0  0  2  0  0  0  0  0  0
  -27.9950  -13.0690   19.3830 C   0  0  0  0  0  3  0  0  0  0  0  0
  -29.1020  -13.2060   20.4480 C   0  0  0  0  0  2  0  0  0  0  0  0
  -30.3710  -13.4700   19.7630 N   0  0  0  0  0  0  0  0  0  0  0  0
  -32.0780  -14.7290   19.0310 O   0  0  0  0  0  0  0  0  0  0  0  0
  -25.7170  -13.7270   20.3590 C   0  0  0  0  0  0  0  0  0  0  0  0
  -24.6500  -12.9820   20.7930 C   0  0  0  0  0  0  0  0  0  0  0  0
  -25.0430  -11.6150   20.6630 C   0  0  0  0  0  0  0  0  0  0  0  0
  -26.6880  -12.8120   19.9850 N   0  0  0  0  0  0  0  0  0  0  0  0
  -26.2980  -11.5350   20.2310 N   0  0  0  0  0  0  0  0  0  0  0  0
  -24.2750  -10.3780   20.8770 C   0  0  0  0  0  0  0  0  0  0  0  0
  -24.7010   -9.3930   21.7960 C   0  0  0  0  0  3  0  0  0  0  0  0
  -23.9360   -8.2230   21.9980 C   0  0  0  0  0  3  0  0  0  0  0  0
  -22.7300   -8.0330   21.2830 C   0  0  0  0  0  0  0  0  0  0  0  0
  -22.3220   -9.0050   20.3540 C   0  0  0  0  0  3  0  0  0  0  0  0
  -23.0870  -10.1670   20.1510 C   0  0  0  0  0  3  0  0  0  0  0  0
  -21.9360   -6.9160   21.3970 O   0  0  0  0  0  0  0  0  0  0  0  0
  -21.8390   -6.2150   22.5720 C   0  0  0  0  0  0  0  0  0  0  0  0
  -21.3970   -6.8230   23.7690 C   0  0  0  0  0  3  0  0  0  0  0  0
  -21.2500   -6.0500   24.9380 C   0  0  0  0  0  3  0  0  0  0  0  0
  -21.5310   -4.6710   24.9110 C   0  0  0  0  0  0  0  0  0  0  0  0
  -21.9640   -4.0630   23.7200 C   0  0  0  0  0  3  0  0  0  0  0  0
  -22.1160   -4.8330   22.5540 C   0  0  0  0  0  0  0  0  0  0  0  0
  -22.5140   -4.2390   21.4030 F   0  0  0  0  0  0  0  0  0  0  0  0
  -21.3790   -3.9270   26.0310 F   0  0  0  0  0  0  0  0  0  0  0  0
  -23.3120  -13.5140   21.2120 C   0  0  0  0  0  0  0  0  0  0  0  0
  -22.6410  -12.8290   22.1350 N   0  0  0  0  0  0  0  0  0  0  0  0
  -22.8690  -14.5660   20.7570 O   0  0  0  0  0  0  0  0  0  0  0  0
  -23.0070  -11.9730   22.5190 H   0  0  0  0  0  0  0  0  0  0  0  0
  -21.7460  -13.1700   22.4520 H   0  0  0  0  0  0  0  0  0  0  0  0
  -25.9310  -15.0920   20.2370 N   0  0  0  0  0  0  0  0  0  0  0  0
  -25.2250  -15.7710   20.4980 H   0  0  0  0  0  0  0  0  0  0  0  0
  -26.7810  -15.5140   19.8840 H   0  0  0  0  0  0  0  0  0  0  0  0
  1  3  2  0
  1  4  1  0
  2  6  2  0
  3  2  1  0
  4  5  2  0
  5  8  1  0
  5  6  1  0
  7  8  1  0
  9  3  1  0
  9 11  1  0
 11 10  1  0
 12 11  1  0
 12 13  1  0
 14 25  2  0
 15 13  1  0
 15 20  1  0
 16 24  1  0
 16 26  1  0
 17 23  1  0
 17 19  1  0
 18 24  1  0
 19 20  2  0
 19 18  1  0
 21 22  1  0
 21 15  2  0
 22 17  2  0
 23 16  1  0
 24 14  1  0
 26 28  2  0
 27 26  1  0
 29 27  1  0
 30 39  2  0
 30 35  1  0
 31 27  1  0
 31 35  1  0
 32 31  1  0
 33 34  1  0
 33 32  1  0
 34 30  1  0
 35 36  2  0
 36 37  1  0
 38 37  2  0
 39 38  1  0
 40 14  1  0
 40 41  1  0
 40 50  1  0
 41 44  1  0
 42 46  1  0
 42 41  1  0
 43 42  2  0
 46 45  1  0
 48 46  1  0
 48 49  1  0
 48 47  1  0
 50 53  1  1
 50 51  1  0
 52 50  1  0
 54  4  1  0
 54 56  1  0
 56 55  1  0
 57 63  1  0
 57 56  1  0
 58 63  1  0
 59 60  1  0
 59 58  1  0
 61 60  1  0
 61 68  1  0
 61 62  1  0
 63 62  1  0
 64 57  2  0
 65 66  2  0
 66 85  1  0
 67 66  1  0
 67 70  1  0
 68 69  1  0
 68 65  1  0
 69 67  2  0
 70 71  1  0
 71 72  2  0
 73 76  1  0
 73 72  1  0
 74 73  2  0
 75 74  1  0
 75 70  2  0
 76 77  1  0
 77 78  1  0
 78 79  2  0
 80 79  1  0
 80 84  1  0
 81 80  2  0
 82 77  2  0
 82 81  1  0
 83 82  1  0
 85 86  1  0
 86 89  1  0
 86 88  1  0
 87 85  2  0
 90 65  1  0
 90 91  1  0
 92 90  1  0
M  ISO  4  12 101  13 101  56 100  57 100
M  END
>  <TORSDO>  (9) 
F 22

>  <SCORE>  (9) 
-11.168

>  <name>  (9) 
8

>  <ligand_id>  (9) 
8

>  <original_smiles>  (9) 
[H]c1nc(C([H])([H])C([H])([H])[H])c(C([H])([H])C([H])(C(=O)N2C([H])([H])C([H])([H])C([H])([H])C([H])(n3nc(-c4c([H])c([H])c(Oc5c([H])c([H])c(F)c([H])c5F)c([H])c4[H])c(C(=O)N([H])[H])c3N([H])[H])C2([H])[H])C([H])([H])[H])c([H])c1C([H])([H])C([H])(C([H])([H])[H])C([H])([H])Oc1c([H])c([H])c2c(c1[H])C([H])([H])N(C(=O)C([H])(N([H])C(=O)C([H])(N([H])C([H])([H])[H])C([H])([H])[H])C(C([H])([H])[H])(C([H])([H])[H])C([H])([H])[H])C([H])(C(=O)N([H])C1([H])c3c([H])c([H])c([H])c([H])c3C([H])([H])C([H])([H])C1([H])[H])C2([H])[H]

>  <smiles>  (9) 
[H]c1nc(C([H])([H])C([H])([H])[H])c(C([H])([H])C([H])(C(=O)N2C([H])([H])C([H])([H])C([H])([H])C([H])(n3nc(-c4c([H])c([H])c(Oc5c([H])c([H])c(F)c([H])c5F)c([H])c4[H])c(C(=O)N([H])[H])c3N([H])[H])C2([H])[H])C([H])([H])[H])c([H])c1C([H])([H])C([H])(C([H])([H])[H])C([H])([H])Oc1c([H])c([H])c2c(c1[H])C([H])([H])N(C(=O)C([H])(N([H])C(=O)C([H])(N([H])C([H])([H])[H])C([H])([H])[H])C(C([H])([H])[H])(C([H])([H])[H])C([H])([H])[H])C([H])(C(=O)N([H])C1([H])c3c([H])c([H])c([H])c([H])c3C([H])([H])C([H])([H])C1([H])[H])C2([H])[H]

$$$$
9:0:0
     RDKit          3D

 90 98  0  0  1  0  0  0  0  0999 V2000
  -28.1260  -21.4030   20.5610 C   0  0  0  0  0  3  0  0  0  0  0  0
  -30.4900  -21.3220   21.0850 C   0  0  0  0  0  3  0  0  0  0  0  0
  -28.0500  -19.9990   20.7070 C   0  0  0  0  0  3  0  0  0  0  0  0
  -30.4140  -19.9190   21.2380 C   0  0  0  0  0  3  0  0  0  0  0  0
  -29.3530  -22.0840   20.7280 C   0  0  0  0  0  0  0  0  0  0  0  0
  -29.1960  -19.2350   21.0320 C   0  0  0  0  0  0  0  0  0  0  0  0
  -29.4840  -23.6090   20.5510 C   0  0  0  0  0  3  0  0  0  0  0  0
  -28.4410  -24.2850   19.6190 C   0  0  0  0  0  3  0  0  0  0  0  0
  -28.8050  -25.7110   19.1170 C   0  0  0  0  0  2  0  0  0  0  0  0
  -28.5800  -26.7790   20.0510 O   0  0  0  0  0  0  0  0  0  0  0  0
  -24.6990  -31.8540   23.1940 C   0  0  0  0  0  0  0  0  0  0  0  0
  -27.3790  -27.4680   20.0470 C   0  0  0  0  0  0  0  0  0  0  0  0
  -23.4980  -30.4610   21.5400 C   0  0  0  0  0  3  0  0  0  0  0  0
  -24.9610  -28.9530   20.0950 C   0  0  0  0  0  0  0  0  0  0  0  0
  -26.0200  -30.8470   21.3350 C   0  0  0  0  0  2  0  0  0  0  0  0
  -26.1160  -29.4810   20.6840 C   0  0  0  0  0  0  0  0  0  0  0  0
  -27.3210  -28.7400   20.6660 C   0  0  0  0  0  3  0  0  0  0  0  0
  -26.1970  -26.9530   19.4620 C   0  0  0  0  0  3  0  0  0  0  0  0
  -24.9970  -27.6880   19.4850 C   0  0  0  0  0  3  0  0  0  0  0  0
  -23.7090  -29.7970   20.1530 C   0  0  0  0  0  2  0  0  0  0  0  0
  -24.7570  -31.0680   22.0820 N   0  0  0  0  0  0  0  0  0  0  0  0
  -23.6160  -32.1080   23.7420 O   0  0  0  0  0  0  0  0  0  0  0  0
  -22.8580  -29.4260   22.4950 C   0  0  0  0  0  0  0  0  0  0  0  0
  -21.5360  -29.2360   22.3710 N   0  0  0  0  0  0  0  0  0  0  0  0
  -23.5480  -28.7960   23.3010 O   0  0  0  0  0  0  0  0  0  0  0  0
  -21.0380  -29.7840   21.6830 H   0  0  0  0  0  0  0  0  0  0  0  0
  -18.1760  -27.9940   22.8660 C   0  0  0  0  0  0  0  0  0  0  0  0
  -20.7310  -28.2780   23.1280 C   0  0  0  0  0  3  0  0  0  0  0  0
  -20.8520  -26.8590   22.5220 C   0  0  0  0  0  2  0  0  0  0  0  0
  -19.7390  -26.5290   21.5220 C   0  0  0  0  0  2  0  0  0  0  0  0
  -18.3660  -26.6490   22.1880 C   0  0  0  0  0  2  0  0  0  0  0  0
  -19.2870  -28.7640   23.2970 C   0  0  0  0  0  0  0  0  0  0  0  0
  -19.0560  -30.0200   23.9010 C   0  0  0  0  0  3  0  0  0  0  0  0
  -17.7480  -30.5090   24.0730 C   0  0  0  0  0  3  0  0  0  0  0  0
  -16.6500  -29.7350   23.6570 C   0  0  0  0  0  3  0  0  0  0  0  0
  -16.8660  -28.4790   23.0590 C   0  0  0  0  0  3  0  0  0  0  0  0
  -25.9830  -32.4890   23.8160 C   0  0  0  0  0  3  0  0  0  0  0  0
  -25.6680  -33.8840   24.1530 N   0  0  0  0  0  0  0  0  0  0  0  0
  -25.9830  -34.9390   23.3920 C   0  0  0  0  0  0  0  0  0  0  0  0
  -26.6400  -34.8410   22.3510 O   0  0  0  0  0  0  0  0  0  0  0  0
  -25.0920  -34.0360   24.9680 H   0  0  0  0  0  0  0  0  0  0  0  0
  -24.2300  -36.7100   23.0700 C   0  0  0  0  0  1  0  0  0  0  0  0
  -25.4910  -36.3230   23.8580 C   0  0  0  0  0  3  0  0  0  0  0  0
  -27.6330  -37.2320   24.6410 C   0  0  0  0  0  1  0  0  0  0  0  0
  -26.5110  -37.3850   23.7190 N   0  0  0  0  0  0  0  0  0  0  0  0
  -26.1000  -38.3020   23.8710 H   0  0  0  0  0  0  0  0  0  0  0  0
  -26.5100  -31.7120   25.0840 C   0  0  1  0  0  0  0  0  0  0  0  0
  -25.4250  -31.4590   26.1570 C   0  0  0  0  0  1  0  0  0  0  0  0
  -27.1010  -30.3420   24.6760 C   0  0  0  0  0  1  0  0  0  0  0  0
  -27.6600  -32.5050   25.7480 C   0  0  0  0  0  1  0  0  0  0  0  0
  -29.0850  -17.7090   21.1880 C   0  0  0  0  0  2  0  0  0  0  0  0
  -30.2740  -16.8650   20.6440 C   0  0  0  0  0  2  0  0  0  0  0  0
  -30.7000  -14.4440   20.0560 C   0  0  0  0  0  0  0  0  0  0  0  0
  -30.4030  -12.2740   18.9110 C   0  0  0  0  0  2  0  0  0  0  0  0
  -29.3900  -12.4470   17.7570 C   0  0  0  0  0  2  0  0  0  0  0  0
  -27.9400  -12.2990   18.2610 C   0  0  0  0  0  2  0  0  0  0  0  0
  -27.6600  -13.1610   19.5200 C   0  0  0  0  0  3  0  0  0  0  0  0
  -28.7620  -12.9270   20.5790 C   0  0  0  0  0  2  0  0  0  0  0  0
  -30.0580  -13.2490   19.9590 N   0  0  0  0  0  0  0  0  0  0  0  0
  -31.7860  -14.6710   19.5170 O   0  0  0  0  0  0  0  0  0  0  0  0
  -29.9860  -15.4200   20.6570 N   0  0  0  0  0  0  0  0  0  0  0  0
  -29.0980  -15.1340   21.0410 H   0  0  0  0  0  0  0  0  0  0  0  0
  -25.3110  -13.8060   20.3570 C   0  0  0  0  0  0  0  0  0  0  0  0
  -24.2480  -13.0490   20.7670 C   0  0  0  0  0  0  0  0  0  0  0  0
  -24.6800  -11.6890   20.6920 C   0  0  0  0  0  0  0  0  0  0  0  0
  -26.3250  -12.9090   20.0590 N   0  0  0  0  0  0  0  0  0  0  0  0
  -25.9530  -11.6290   20.3200 N   0  0  0  0  0  0  0  0  0  0  0  0
  -23.9430  -10.4390   20.9000 C   0  0  0  0  0  0  0  0  0  0  0  0
  -24.3680   -9.4790   21.8450 C   0  0  0  0  0  3  0  0  0  0  0  0
  -23.6320   -8.2910   22.0380 C   0  0  0  0  0  3  0  0  0  0  0  0
  -22.4550   -8.0550   21.2890 C   0  0  0  0  0  0  0  0  0  0  0  0
  -22.0490   -9.0030   20.3330 C   0  0  0  0  0  3  0  0  0  0  0  0
  -22.7850  -10.1830   20.1380 C   0  0  0  0  0  3  0  0  0  0  0  0
  -21.6930   -6.9160   21.3890 O   0  0  0  0  0  0  0  0  0  0  0  0
  -21.5860   -6.2240   22.5690 C   0  0  0  0  0  0  0  0  0  0  0  0
  -21.1050   -6.8330   23.7490 C   0  0  0  0  0  3  0  0  0  0  0  0
  -20.9460   -6.0670   24.9210 C   0  0  0  0  0  3  0  0  0  0  0  0
  -21.2560   -4.6940   24.9140 C   0  0  0  0  0  0  0  0  0  0  0  0
  -21.7290   -4.0840   23.7380 C   0  0  0  0  0  3  0  0  0  0  0  0
  -21.8890   -4.8470   22.5680 C   0  0  0  0  0  0  0  0  0  0  0  0
  -22.3240   -4.2510   21.4320 F   0  0  0  0  0  0  0  0  0  0  0  0
  -21.0970   -3.9550   26.0370 F   0  0  0  0  0  0  0  0  0  0  0  0
  -22.8750  -13.5480   21.1170 C   0  0  0  0  0  0  0  0  0  0  0  0
  -22.1770  -12.8540   22.0100 N   0  0  0  0  0  0  0  0  0  0  0  0
  -22.4320  -14.5900   20.6360 O   0  0  0  0  0  0  0  0  0  0  0  0
  -22.5470  -12.0110   22.4220 H   0  0  0  0  0  0  0  0  0  0  0  0
  -21.2610  -13.1760   22.2880 H   0  0  0  0  0  0  0  0  0  0  0  0
  -25.4980  -15.1770   20.1950 N   0  0  0  0  0  0  0  0  0  0  0  0
  -24.7550  -15.8450   20.3770 H   0  0  0  0  0  0  0  0  0  0  0  0
  -26.3390  -15.6090   19.8350 H   0  0  0  0  0  0  0  0  0  0  0  0
  1  3  2  0
  1  5  1  0
  2  4  1  0
  3  6  1  0
  5  2  2  0
  6 51  1  0
  6  4  2  0
  7  5  1  0
  8  7  2  0
  9  8  1  0
  9 10  1  0
 11 22  2  0
 12 10  1  0
 12 17  1  0
 13 21  1  0
 13 23  1  0
 14 20  1  0
 14 16  1  0
 15 21  1  0
 16 15  1  0
 17 16  2  0
 18 19  1  0
 18 12  2  0
 19 14  2  0
 20 13  1  0
 21 11  1  0
 23 25  2  0
 24 23  1  0
 26 24  1  0
 27 36  2  0
 27 32  1  0
 28 24  1  0
 28 32  1  0
 29 28  1  0
 30 31  1  0
 30 29  1  0
 31 27  1  0
 32 33  2  0
 33 34  1  0
 35 34  2  0
 36 35  1  0
 37 11  1  0
 37 38  1  0
 37 47  1  0
 38 41  1  0
 39 43  1  0
 39 38  1  0
 40 39  2  0
 43 42  1  0
 45 43  1  0
 45 46  1  0
 45 44  1  0
 47 50  1  1
 47 48  1  0
 49 47  1  0
 52 61  1  0
 52 51  1  0
 53 61  1  0
 54 59  1  0
 55 56  1  0
 55 54  1  0
 57 56  1  0
 57 66  1  0
 57 58  1  0
 59 53  1  0
 59 58  1  0
 60 53  2  0
 61 62  1  0
 63 64  2  0
 64 83  1  0
 65 64  1  0
 65 68  1  0
 66 67  1  0
 66 63  1  0
 67 65  2  0
 68 69  1  0
 69 70  2  0
 71 74  1  0
 71 70  1  0
 72 71  2  0
 73 72  1  0
 73 68  2  0
 74 75  1  0
 75 76  1  0
 76 77  2  0
 78 77  1  0
 78 82  1  0
 79 78  2  0
 80 75  2  0
 80 79  1  0
 81 80  1  0
 83 84  1  0
 84 87  1  0
 84 86  1  0
 85 83  2  0
 88 63  1  0
 88 89  1  0
 90 88  1  0
M  ISO  4   9 101  10 101  53 100  61 100
M  END
>  <TORSDO>  (10) 
F 21

>  <SCORE>  (10) 
-12.617

>  <name>  (10) 
9

>  <ligand_id>  (10) 
9

>  <original_smiles>  (10) 
[H]c1c([H])c([H])c2c(c1[H])C([H])([H])C([H])([H])C([H])([H])C2([H])N([H])C(=O)C1([H])N(C(=O)C([H])(N([H])C(=O)C([H])(N([H])C([H])([H])[H])C([H])([H])[H])C(C([H])([H])[H])(C([H])([H])[H])C([H])([H])[H])C([H])([H])c2c([H])c(OC([H])([H])C([H])([H])C([H])([H])c3c([H])c([H])c(C([H])([H])C([H])([H])N([H])C(=O)N4C([H])([H])C([H])([H])C([H])([H])C([H])(n5nc(-c6c([H])c([H])c(Oc7c([H])c([H])c(F)c([H])c7F)c([H])c6[H])c(C(=O)N([H])[H])c5N([H])[H])C4([H])[H])c([H])c3[H])c([H])c([H])c2C1([H])[H]

>  <smiles>  (10) 
[H]c1c([H])c([H])c2c(c1[H])C([H])([H])C([H])([H])C([H])([H])C2([H])N([H])C(=O)C1([H])N(C(=O)C([H])(N([H])C(=O)C([H])(N([H])C([H])([H])[H])C([H])([H])[H])C(C([H])([H])[H])(C([H])([H])[H])C([H])([H])[H])C([H])([H])c2c([H])c(OC([H])([H])C([H])([H])C([H])([H])c3c([H])c([H])c(C([H])([H])C([H])([H])N([H])C(=O)N4C([H])([H])C([H])([H])C([H])([H])C([H])(n5nc(-c6c([H])c([H])c(Oc7c([H])c([H])c(F)c([H])c7F)c([H])c6[H])c(C(=O)N([H])[H])c5N([H])[H])C4([H])[H])c([H])c3[H])c([H])c([H])c2C1([H])[H]

$$$$
10:0:0
     RDKit          3D

 90 97  0  0  1  0  0  0  0  0999 V2000
  -30.1830  -22.0100   20.6040 C   0  0  0  0  0  2  0  0  0  0  0  0
  -29.2630  -20.6390   22.4330 C   0  0  0  0  0  1  0  0  0  0  0  0
  -29.5970  -20.6970   20.9850 N   0  0  2  0  0  4  0  0  0  0  0  0
  -28.7190  -20.6420   20.4910 H   0  0  0  0  0  0  0  0  0  0  0  0
  -30.3790  -19.5320   20.4840 C   0  0  0  0  0  2  0  0  0  0  0  0
  -29.8860  -18.1650   21.0250 C   0  0  0  0  0  2  0  0  0  0  0  0
  -30.3790  -16.9480   20.2040 C   0  0  0  0  0  2  0  0  0  0  0  0
  -29.1820  -15.4260   21.8660 C   0  0  0  0  0  1  0  0  0  0  0  0
  -31.6630  -15.5290   21.8360 C   0  0  0  0  0  1  0  0  0  0  0  0
  -30.4100  -15.5610   20.9300 C   0  0  2  0  0  0  0  0  0  0  0  0
  -30.6180  -14.4590   19.8180 C   0  0  0  0  0  0  0  0  0  0  0  0
  -30.0930  -12.4740   18.4320 C   0  0  0  0  0  2  0  0  0  0  0  0
  -29.0130  -12.7960   17.3770 C   0  0  0  0  0  2  0  0  0  0  0  0
  -27.5930  -12.6360   17.9600 C   0  0  0  0  0  2  0  0  0  0  0  0
  -27.4400  -13.3230   19.3420 C   0  0  0  0  0  3  0  0  0  0  0  0
  -28.6080  -12.9000   20.2530 C   0  0  0  0  0  2  0  0  0  0  0  0
  -29.8630  -13.3320   19.6160 N   0  0  0  0  0  0  0  0  0  0  0  0
  -31.5710  -14.6870   19.0610 O   0  0  0  0  0  0  0  0  0  0  0  0
  -25.1310  -13.9000   20.3220 C   0  0  0  0  0  0  0  0  0  0  0  0
  -24.1100  -13.1110   20.7830 C   0  0  0  0  0  0  0  0  0  0  0  0
  -24.5640  -11.7630   20.6570 C   0  0  0  0  0  0  0  0  0  0  0  0
  -26.1450  -13.0300   19.9500 N   0  0  0  0  0  0  0  0  0  0  0  0
  -25.8100  -11.7370   20.2020 N   0  0  0  0  0  0  0  0  0  0  0  0
  -23.8650  -10.4940   20.8900 C   0  0  0  0  0  0  0  0  0  0  0  0
  -24.3570   -9.5410   21.8080 C   0  0  0  0  0  3  0  0  0  0  0  0
  -23.6600   -8.3330   22.0290 C   0  0  0  0  0  3  0  0  0  0  0  0
  -22.4570   -8.0710   21.3310 C   0  0  0  0  0  0  0  0  0  0  0  0
  -21.9820   -9.0160   20.4040 C   0  0  0  0  0  3  0  0  0  0  0  0
  -22.6800  -10.2140   20.1820 C   0  0  0  0  0  3  0  0  0  0  0  0
  -21.7260   -6.9130   21.4610 O   0  0  0  0  0  0  0  0  0  0  0  0
  -21.7120   -6.1990   22.6320 C   0  0  0  0  0  0  0  0  0  0  0  0
  -21.3060   -6.7780   23.8540 C   0  0  0  0  0  3  0  0  0  0  0  0
  -21.2400   -5.9900   25.0200 C   0  0  0  0  0  3  0  0  0  0  0  0
  -21.5680   -4.6220   24.9650 C   0  0  0  0  0  0  0  0  0  0  0  0
  -21.9660   -4.0420   23.7480 C   0  0  0  0  0  3  0  0  0  0  0  0
  -22.0350   -4.8280   22.5840 C   0  0  0  0  0  0  0  0  0  0  0  0
  -22.4000   -4.2590   21.4100 F   0  0  0  0  0  0  0  0  0  0  0  0
  -21.4970   -3.8610   26.0820 F   0  0  0  0  0  0  0  0  0  0  0  0
  -22.7540  -13.5740   21.2310 C   0  0  0  0  0  0  0  0  0  0  0  0
  -22.1460  -12.8690   22.1780 N   0  0  0  0  0  0  0  0  0  0  0  0
  -22.2440  -14.5970   20.7740 O   0  0  0  0  0  0  0  0  0  0  0  0
  -22.5740  -12.0410   22.5670 H   0  0  0  0  0  0  0  0  0  0  0  0
  -21.2420  -13.1610   22.5180 H   0  0  0  0  0  0  0  0  0  0  0  0
  -25.2730  -15.2750   20.1700 N   0  0  0  0  0  0  0  0  0  0  0  0
  -24.5190  -15.9230   20.3720 H   0  0  0  0  0  0  0  0  0  0  0  0
  -26.0920  -15.7260   19.7800 H   0  0  0  0  0  0  0  0  0  0  0  0
  -29.0860  -22.9890   20.1480 C   0  0  0  0  0  2  0  0  0  0  0  0
  -29.5080  -24.4740   20.0970 C   0  0  0  0  0  2  0  0  0  0  0  0
  -28.2890  -25.3580   19.8010 C   0  0  0  0  0  2  0  0  0  0  0  0
  -28.4670  -26.7480   20.1000 O   0  0  0  0  0  0  0  0  0  0  0  0
  -24.6780  -31.8360   23.3880 C   0  0  0  0  0  0  0  0  0  0  0  0
  -27.3020  -27.4990   20.1270 C   0  0  0  0  0  0  0  0  0  0  0  0
  -23.4710  -30.5120   21.6870 C   0  0  0  0  0  3  0  0  0  0  0  0
  -24.9200  -29.0360   20.2050 C   0  0  0  0  0  0  0  0  0  0  0  0
  -26.0050  -30.8540   21.5200 C   0  0  0  0  0  2  0  0  0  0  0  0
  -26.0840  -29.5150   20.8220 C   0  0  0  0  0  0  0  0  0  0  0  0
  -27.2780  -28.7580   20.7750 C   0  0  0  0  0  3  0  0  0  0  0  0
  -26.1090  -27.0440   19.5110 C   0  0  0  0  0  3  0  0  0  0  0  0
  -24.9290  -27.8010   19.5510 C   0  0  0  0  0  3  0  0  0  0  0  0
  -23.6850  -29.9000   20.2810 C   0  0  0  0  0  2  0  0  0  0  0  0
  -24.7380  -31.0790   22.2570 N   0  0  0  0  0  0  0  0  0  0  0  0
  -23.5950  -32.0900   23.9330 O   0  0  0  0  0  0  0  0  0  0  0  0
  -22.8110  -29.4500   22.5940 C   0  0  0  0  0  0  0  0  0  0  0  0
  -21.4850  -29.2830   22.4550 N   0  0  0  0  0  0  0  0  0  0  0  0
  -23.4870  -28.7850   23.3830 O   0  0  0  0  0  0  0  0  0  0  0  0
  -20.9990  -29.8730   21.7950 H   0  0  0  0  0  0  0  0  0  0  0  0
  -18.0940  -28.1300   22.9260 C   0  0  0  0  0  0  0  0  0  0  0  0
  -20.6590  -28.3220   23.1860 C   0  0  0  0  0  3  0  0  0  0  0  0
  -20.7300  -26.9220   22.5350 C   0  0  0  0  0  2  0  0  0  0  0  0
  -19.6120  -26.6740   21.5160 C   0  0  0  0  0  2  0  0  0  0  0  0
  -18.2390  -26.8130   22.1780 C   0  0  0  0  0  2  0  0  0  0  0  0
  -19.2320  -28.8450   23.3840 C   0  0  0  0  0  0  0  0  0  0  0  0
  -19.0430  -30.0800   24.0410 C   0  0  0  0  0  3  0  0  0  0  0  0
  -17.7500  -30.6030   24.2410 C   0  0  0  0  0  3  0  0  0  0  0  0
  -16.6270  -29.8830   23.7970 C   0  0  0  0  0  3  0  0  0  0  0  0
  -16.8000  -28.6470   23.1480 C   0  0  0  0  0  3  0  0  0  0  0  0
  -25.9640  -32.4360   24.0380 C   0  0  0  0  0  3  0  0  0  0  0  0
  -25.6640  -33.8230   24.4110 N   0  0  0  0  0  0  0  0  0  0  0  0
  -26.0150  -34.8970   23.6900 C   0  0  0  0  0  0  0  0  0  0  0  0
  -26.6970  -34.8210   22.6640 O   0  0  0  0  0  0  0  0  0  0  0  0
  -25.0730  -33.9600   25.2180 H   0  0  0  0  0  0  0  0  0  0  0  0
  -24.3150  -36.7170   23.3620 C   0  0  0  0  0  1  0  0  0  0  0  0
  -25.5320  -36.2720   24.1890 C   0  0  0  0  0  3  0  0  0  0  0  0
  -27.6550  -37.0960   25.1050 C   0  0  0  0  0  1  0  0  0  0  0  0
  -26.5770  -37.3190   24.1430 N   0  0  0  0  0  0  0  0  0  0  0  0
  -26.1780  -38.2360   24.3190 H   0  0  0  0  0  0  0  0  0  0  0  0
  -26.4660  -31.6160   25.2900 C   0  0  1  0  0  0  0  0  0  0  0  0
  -25.3630  -31.3410   26.3370 C   0  0  0  0  0  1  0  0  0  0  0  0
  -27.0450  -30.2520   24.8450 C   0  0  0  0  0  1  0  0  0  0  0  0
  -27.6150  -32.3770   25.9930 C   0  0  0  0  0  1  0  0  0  0  0  0
  1  3  1  0
  3  2  1  0
  3  4  1  6
  5  3  1  0
  5  6  1  0
  7 10  1  0
  7  6  1  0
 10  9  1  1
 10  8  1  0
 11 10  1  0
 12 17  1  0
 13 14  1  0
 13 12  1  0
 15 14  1  0
 15 22  1  0
 15 16  1  0
 17 11  1  0
 17 16  1  0
 18 11  2  0
 19 20  2  0
 20 39  1  0
 21 20  1  0
 21 24  1  0
 22 23  1  0
 22 19  1  0
 23 21  2  0
 24 25  1  0
 25 26  2  0
 27 30  1  0
 27 26  1  0
 28 27  2  0
 29 28  1  0
 29 24  2  0
 30 31  1  0
 31 32  1  0
 32 33  2  0
 34 33  1  0
 34 38  1  0
 35 34  2  0
 36 31  2  0
 36 35  1  0
 37 36  1  0
 39 40  1  0
 40 43  1  0
 40 42  1  0
 41 39  2  0
 44 19  1  0
 44 45  1  0
 46 44  1  0
 47  1  1  0
 48 47  1  0
 49 48  1  0
 49 50  1  0
 50 52  1  0
 51 62  2  0
 52 57  1  0
 53 61  1  0
 53 63  1  0
 54 60  1  0
 54 56  1  0
 55 61  1  0
 56 55  1  0
 57 56  2  0
 58 59  1  0
 58 52  2  0
 59 54  2  0
 60 53  1  0
 61 51  1  0
 63 65  2  0
 64 63  1  0
 66 64  1  0
 67 76  2  0
 67 72  1  0
 68 64  1  0
 68 72  1  0
 69 68  1  0
 70 71  1  0
 70 69  1  0
 71 67  1  0
 72 73  2  0
 73 74  1  0
 75 74  2  0
 76 75  1  0
 77 51  1  0
 77 78  1  0
 77 87  1  0
 78 81  1  0
 79 83  1  0
 79 78  1  0
 80 79  2  0
 83 82  1  0
 85 83  1  0
 85 86  1  0
 85 84  1  0
 87 90  1  1
 87 88  1  0
 89 87  1  0
M  ISO  4  10 100  11 100  49 101  50 101
M  END
>  <TORSDO>  (11) 
F 24

>  <SCORE>  (11) 
-9.568

>  <name>  (11) 
10

>  <ligand_id>  (11) 
10

>  <original_smiles>  (11) 
[H]c1c([H])c([H])c2c(c1[H])C([H])([H])C([H])([H])C([H])([H])C2([H])N([H])C(=O)C1([H])N(C(=O)C([H])(N([H])C(=O)C([H])(N([H])C([H])([H])[H])C([H])([H])[H])C(C([H])([H])[H])(C([H])([H])[H])C([H])([H])[H])C([H])([H])c2c([H])c(OC([H])([H])C([H])([H])C([H])([H])C([H])([H])[N+]([H])(C([H])([H])[H])C([H])([H])C([H])([H])C([H])([H])C(C(=O)N3C([H])([H])C([H])([H])C([H])([H])C([H])(n4nc(-c5c([H])c([H])c(Oc6c([H])c([H])c(F)c([H])c6F)c([H])c5[H])c(C(=O)N([H])[H])c4N([H])[H])C3([H])[H])(C([H])([H])[H])C([H])([H])[H])c([H])c([H])c2C1([H])[H]

>  <smiles>  (11) 
[H]c1c([H])c([H])c2c(c1[H])C([H])([H])C([H])([H])C([H])([H])C2([H])N([H])C(=O)C1([H])N(C(=O)C([H])(N([H])C(=O)C([H])(N([H])C([H])([H])[H])C([H])([H])[H])C(C([H])([H])[H])(C([H])([H])[H])C([H])([H])[H])C([H])([H])c2c([H])c(OC([H])([H])C([H])([H])C([H])([H])C([H])([H])[N+]([H])(C([H])([H])[H])C([H])([H])C([H])([H])C([H])([H])C(C(=O)N3C([H])([H])C([H])([H])C([H])([H])C([H])(n4nc(-c5c([H])c([H])c(Oc6c([H])c([H])c(F)c([H])c6F)c([H])c5[H])c(C(=O)N([H])[H])c4N([H])[H])C3([H])[H])(C([H])([H])[H])C([H])([H])[H])c([H])c([H])c2C1([H])[H]

$$$$
11:0:0
     RDKit          3D

103111  0  0  1  0  0  0  0  0999 V2000
  -29.7820  -23.2470   21.7930 C   0  0  0  0  0  3  0  0  0  0  0  0
  -30.4430  -22.7090   22.9070 C   0  0  0  0  0  0  0  0  0  0  0  0
  -29.5750  -22.5060   20.6150 C   0  0  0  0  0  0  0  0  0  0  0  0
  -30.9670  -21.3930   22.8410 C   0  0  0  0  0  0  0  0  0  0  0  0
  -30.0200  -21.1550   20.5660 C   0  0  0  0  0  0  0  0  0  0  0  0
  -30.7610  -20.6150   21.6620 C   0  0  0  0  0  0  0  0  0  0  0  0
  -30.7710  -20.4640   18.2240 C   0  0  0  0  0  1  0  0  0  0  0  0
  -29.7250  -20.2910   19.3360 C   0  0  0  0  0  2  0  0  0  0  0  0
  -33.2670  -21.2220   23.9290 C   0  0  0  0  0  1  0  0  0  0  0  0
  -31.7810  -20.8430   24.0200 C   0  0  0  0  0  2  0  0  0  0  0  0
  -31.4120  -19.2270   21.5540 C   0  0  0  0  0  2  0  0  0  0  0  0
  -30.4390  -18.0340   21.7040 C   0  0  0  0  0  2  0  0  0  0  0  0
  -31.2210  -16.7190   21.9060 C   0  0  0  0  0  2  0  0  0  0  0  0
  -30.8670  -14.3810   22.7600 C   0  0  0  0  0  1  0  0  0  0  0  0
  -30.4220  -15.4030   21.6900 C   0  0  0  0  0  3  0  0  0  0  0  0
  -30.5720  -14.7730   20.2820 C   0  0  0  0  0  0  0  0  0  0  0  0
  -30.1170  -12.8700   18.7640 C   0  0  0  0  0  2  0  0  0  0  0  0
  -29.0190  -13.1470   17.7230 C   0  0  0  0  0  2  0  0  0  0  0  0
  -27.6260  -12.8570   18.3100 C   0  0  0  0  0  2  0  0  0  0  0  0
  -27.4130  -13.5370   19.6870 C   0  0  0  0  0  3  0  0  0  0  0  0
  -28.5990  -13.2390   20.6290 C   0  0  0  0  0  2  0  0  0  0  0  0
  -29.8390  -13.6740   19.9630 N   0  0  0  0  0  0  0  0  0  0  0  0
  -31.4260  -15.2310   19.5130 O   0  0  0  0  0  0  0  0  0  0  0  0
  -25.1500  -13.9360   20.8510 C   0  0  0  0  0  0  0  0  0  0  0  0
  -24.1320  -13.0850   21.1850 C   0  0  0  0  0  0  0  0  0  0  0  0
  -24.5590  -11.7820   20.7820 C   0  0  0  0  0  0  0  0  0  0  0  0
  -26.1370  -13.1450   20.2820 N   0  0  0  0  0  0  0  0  0  0  0  0
  -25.7890  -11.8330   20.2910 N   0  0  0  0  0  0  0  0  0  0  0  0
  -23.8450  -10.4980   20.7850 C   0  0  0  0  0  0  0  0  0  0  0  0
  -24.3400   -9.3800   21.4920 C   0  0  0  0  0  3  0  0  0  0  0  0
  -23.6270   -8.1610   21.4930 C   0  0  0  0  0  3  0  0  0  0  0  0
  -22.4050   -8.0520   20.7870 C   0  0  0  0  0  0  0  0  0  0  0  0
  -21.9280   -9.1630   20.0680 C   0  0  0  0  0  3  0  0  0  0  0  0
  -22.6410  -10.3730   20.0630 C   0  0  0  0  0  3  0  0  0  0  0  0
  -21.6580   -6.9020   20.7120 O   0  0  0  0  0  0  0  0  0  0  0  0
  -21.6400   -5.9880   21.7350 C   0  0  0  0  0  0  0  0  0  0  0  0
  -21.2390   -6.3390   23.0420 C   0  0  0  0  0  3  0  0  0  0  0  0
  -21.1680   -5.3530   24.0450 C   0  0  0  0  0  3  0  0  0  0  0  0
  -21.4880   -4.0150   23.7440 C   0  0  0  0  0  0  0  0  0  0  0  0
  -21.8810   -3.6620   22.4410 C   0  0  0  0  0  3  0  0  0  0  0  0
  -21.9540   -4.6450   21.4380 C   0  0  0  0  0  0  0  0  0  0  0  0
  -22.3140   -4.2960   20.1800 F   0  0  0  0  0  0  0  0  0  0  0  0
  -21.4110   -3.0670   24.7050 F   0  0  0  0  0  0  0  0  0  0  0  0
  -22.7970  -13.4660   21.7600 C   0  0  0  0  0  0  0  0  0  0  0  0
  -22.2100  -12.5970   22.5760 N   0  0  0  0  0  0  0  0  0  0  0  0
  -22.2900  -14.5620   21.5250 O   0  0  0  0  0  0  0  0  0  0  0  0
  -22.6360  -11.7050   22.7830 H   0  0  0  0  0  0  0  0  0  0  0  0
  -21.3230  -12.8260   23.0000 H   0  0  0  0  0  0  0  0  0  0  0  0
  -25.3120  -15.3140   20.9660 N   0  0  0  0  0  0  0  0  0  0  0  0
  -24.5740  -15.9170   21.3110 H   0  0  0  0  0  0  0  0  0  0  0  0
  -26.1200  -15.8230   20.6320 H   0  0  0  0  0  0  0  0  0  0  0  0
  -28.9340  -23.2360   19.4210 C   0  0  0  0  0  2  0  0  0  0  0  0
  -26.6560  -23.7360   18.3830 C   0  0  0  0  0  1  0  0  0  0  0  0
  -27.4960  -23.7600   19.6740 C   0  0  0  0  0  3  0  0  0  0  0  0
  -27.4740  -25.1420   20.3830 C   0  0  0  0  0  2  0  0  0  0  0  0
  -27.4720  -26.2610   19.4920 O   0  0  0  0  0  0  0  0  0  0  0  0
  -24.5760  -31.6150   23.1610 C   0  0  0  0  0  0  0  0  0  0  0  0
  -26.3960  -27.1020   19.6440 C   0  0  0  0  0  0  0  0  0  0  0  0
  -23.0620  -30.4300   21.6040 C   0  0  0  0  0  3  0  0  0  0  0  0
  -24.1860  -28.8240   19.9740 C   0  0  0  0  0  0  0  0  0  0  0  0
  -25.5760  -30.5410   21.1480 C   0  0  0  0  0  2  0  0  0  0  0  0
  -25.4480  -29.2050   20.4490 C   0  0  0  0  0  0  0  0  0  0  0  0
  -26.5590  -28.3510   20.2780 C   0  0  0  0  0  3  0  0  0  0  0  0
  -25.1190  -26.7290   19.1710 C   0  0  0  0  0  3  0  0  0  0  0  0
  -24.0140  -27.5850   19.3340 C   0  0  0  0  0  3  0  0  0  0  0  0
  -23.0530  -29.8000   20.1860 C   0  0  0  0  0  2  0  0  0  0  0  0
  -24.4300  -30.8700   22.0290 N   0  0  0  0  0  0  0  0  0  0  0  0
  -23.5920  -31.9700   23.8240 O   0  0  0  0  0  0  0  0  0  0  0  0
  -22.4050  -29.4360   22.5870 C   0  0  0  0  0  0  0  0  0  0  0  0
  -21.0780  -29.2660   22.4670 N   0  0  0  0  0  0  0  0  0  0  0  0
  -23.0850  -28.8190   23.4120 O   0  0  0  0  0  0  0  0  0  0  0  0
  -20.5930  -29.8140   21.7710 H   0  0  0  0  0  0  0  0  0  0  0  0
  -17.7220  -27.9930   22.8760 C   0  0  0  0  0  0  0  0  0  0  0  0
  -20.2520  -28.3550   23.2580 C   0  0  0  0  0  3  0  0  0  0  0  0
  -20.4290  -26.8930   22.7870 C   0  0  0  0  0  2  0  0  0  0  0  0
  -19.3920  -26.4660   21.7430 C   0  0  0  0  0  2  0  0  0  0  0  0
  -17.9750  -26.6090   22.3040 C   0  0  0  0  0  2  0  0  0  0  0  0
  -18.7930  -28.8210   23.3080 C   0  0  0  0  0  0  0  0  0  0  0  0
  -18.5060  -30.1130   23.7980 C   0  0  0  0  0  3  0  0  0  0  0  0
  -17.1810  -30.5820   23.8600 C   0  0  0  0  0  3  0  0  0  0  0  0
  -16.1230  -29.7540   23.4470 C   0  0  0  0  0  3  0  0  0  0  0  0
  -16.3940  -28.4620   22.9600 C   0  0  0  0  0  3  0  0  0  0  0  0
  -25.9800  -32.0730   23.6640 C   0  0  0  0  0  3  0  0  0  0  0  0
  -25.8530  -33.4630   24.1220 N   0  0  0  0  0  0  0  0  0  0  0  0
  -26.2320  -34.5340   23.4110 C   0  0  0  0  0  0  0  0  0  0  0  0
  -26.8000  -34.4480   22.3190 O   0  0  0  0  0  0  0  0  0  0  0  0
  -25.3470  -33.6130   24.9820 H   0  0  0  0  0  0  0  0  0  0  0  0
  -24.6910  -36.5200   23.3330 C   0  0  0  0  0  1  0  0  0  0  0  0
  -25.9360  -35.9230   24.0080 C   0  0  0  0  0  3  0  0  0  0  0  0
  -28.2080  -36.5090   24.7280 C   0  0  0  0  0  1  0  0  0  0  0  0
  -27.0670  -36.8680   23.8910 N   0  0  0  0  0  0  0  0  0  0  0  0
  -26.7750  -37.8110   24.1370 H   0  0  0  0  0  0  0  0  0  0  0  0
  -26.5600  -31.1570   24.8100 C   0  0  1  0  0  0  0  0  0  0  0  0
  -25.5720  -30.9160   25.9740 C   0  0  0  0  0  1  0  0  0  0  0  0
  -26.9710  -29.7760   24.2460 C   0  0  0  0  0  1  0  0  0  0  0  0
  -27.8420  -31.7960   25.3950 C   0  0  0  0  0  1  0  0  0  0  0  0
  -30.5810  -23.6180   24.1290 C   0  0  0  0  0  2  0  0  0  0  0  0
  -29.7060  -24.8850   24.0520 C   0  0  0  0  0  2  0  0  0  0  0  0
  -28.3800  -24.7820   24.8360 C   0  0  0  0  0  2  0  0  0  0  0  0
  -26.3730  -25.9370   25.6660 C   0  0  0  0  0  1  0  0  0  0  0  0
  -28.4330  -27.2170   25.3210 C   0  0  0  0  0  1  0  0  0  0  0  0
  -27.6200  -26.0590   24.8760 N   0  0  1  0  0  4  0  0  0  0  0  0
  -27.3250  -26.2560   23.9310 H   0  0  0  0  0  0  0  0  0  0  0  0
  1  2  1  0
  2 97  1  0
  3  1  2  0
  4  2  2  0
  4 10  1  0
  5  3  1  0
  5  6  2  0
  6  4  1  0
  7  8  1  0
  8  5  1  0
  9 10  1  0
 11  6  1  0
 11 12  1  0
 12 13  1  0
 15 13  1  0
 15 14  1  0
 16 15  1  0
 17 22  1  0
 18 19  1  0
 18 17  1  0
 20 19  1  0
 20 27  1  0
 20 21  1  0
 22 16  1  0
 22 21  1  0
 23 16  2  0
 24 49  1  0
 24 25  2  0
 25 44  1  0
 26 29  1  0
 26 25  1  0
 27 28  1  0
 27 24  1  0
 28 26  2  0
 29 30  1  0
 30 31  2  0
 32 31  1  0
 33 32  2  0
 34 33  1  0
 34 29  2  0
 35 32  1  0
 35 36  1  0
 36 37  1  0
 37 38  2  0
 39 38  1  0
 39 43  1  0
 40 39  2  0
 41 36  2  0
 41 40  1  0
 42 41  1  0
 44 45  1  0
 45 47  1  0
 45 48  1  0
 46 44  2  0
 49 50  1  0
 51 49  1  0
 52 54  1  0
 52  3  1  0
 54 53  1  0
 54 55  1  0
 56 58  1  0
 56 55  1  0
 57 68  2  0
 58 63  1  0
 59 67  1  0
 59 69  1  0
 60 66  1  0
 60 62  1  0
 61 67  1  0
 62 61  1  0
 63 62  2  0
 64 65  1  0
 64 58  2  0
 65 60  2  0
 66 59  1  0
 67 57  1  0
 69 71  2  0
 70 69  1  0
 72 70  1  0
 73 82  2  0
 73 78  1  0
 74 70  1  0
 74 78  1  0
 75 74  1  0
 76 77  1  0
 76 75  1  0
 77 73  1  0
 78 79  2  0
 79 80  1  0
 81 80  2  0
 82 81  1  0
 83 57  1  0
 83 84  1  0
 83 93  1  0
 84 87  1  0
 85 89  1  0
 85 84  1  0
 86 85  2  0
 89 88  1  0
 91 89  1  0
 91 92  1  0
 91 90  1  0
 93 96  1  1
 93 94  1  0
 95 93  1  0
 98 97  1  0
 98 99  1  0
 99102  1  0
102101  1  0
102100  1  0
102103  1  6
M  ISO  4  15 100  16 100  55 101  56 101
M  END
>  <TORSDO>  (12) 
F 29

>  <SCORE>  (12) 
-5.262

>  <name>  (12) 
11

>  <ligand_id>  (12) 
11

>  <original_smiles>  (12) 
[H]c1c([H])c([H])c2c(c1[H])C([H])([H])C([H])([H])C([H])([H])C2([H])N([H])C(=O)C1([H])N(C(=O)C([H])(N([H])C(=O)C([H])(N([H])C([H])([H])[H])C([H])([H])[H])C(C([H])([H])[H])(C([H])([H])[H])C([H])([H])[H])C([H])([H])c2c([H])c(OC([H])([H])C([H])(C([H])([H])[H])C([H])([H])c3c([H])c(C([H])([H])C([H])([H])C([H])([H])[N+]([H])(C([H])([H])[H])C([H])([H])[H])c(C([H])([H])C([H])([H])[H])c(C([H])([H])C([H])([H])C([H])([H])C([H])(C(=O)N4C([H])([H])C([H])([H])C([H])([H])C([H])(n5nc(-c6c([H])c([H])c(Oc7c([H])c([H])c(F)c([H])c7F)c([H])c6[H])c(C(=O)N([H])[H])c5N([H])[H])C4([H])[H])C([H])([H])[H])c3C([H])([H])C([H])([H])[H])c([H])c([H])c2C1([H])[H]

>  <smiles>  (12) 
[H]c1c([H])c([H])c2c(c1[H])C([H])([H])C([H])([H])C([H])([H])C2([H])N([H])C(=O)C1([H])N(C(=O)C([H])(N([H])C(=O)C([H])(N([H])C([H])([H])[H])C([H])([H])[H])C(C([H])([H])[H])(C([H])([H])[H])C([H])([H])[H])C([H])([H])c2c([H])c(OC([H])([H])C([H])(C([H])([H])[H])C([H])([H])c3c([H])c(C([H])([H])C([H])([H])C([H])([H])[N+]([H])(C([H])([H])[H])C([H])([H])[H])c(C([H])([H])C([H])([H])[H])c(C([H])([H])C([H])([H])C([H])([H])C([H])(C(=O)N4C([H])([H])C([H])([H])C([H])([H])C([H])(n5nc(-c6c([H])c([H])c(Oc7c([H])c([H])c(F)c([H])c7F)c([H])c6[H])c(C(=O)N([H])[H])c5N([H])[H])C4([H])[H])C([H])([H])[H])c3C([H])([H])C([H])([H])[H])c([H])c([H])c2C1([H])[H]

$$$$
12:0:0
     RDKit          3D

 91 99  0  0  1  0  0  0  0  0999 V2000
  -30.1530  -20.2570   19.4610 C   0  0  0  0  0  3  0  0  0  0  0  0
  -28.8840  -18.9830   21.0580 C   0  0  0  0  0  3  0  0  0  0  0  0
  -29.9140  -18.9860   20.1050 C   0  0  0  0  0  0  0  0  0  0  0  0
  -29.3520  -21.4290   19.7390 C   0  0  0  0  0  0  0  0  0  0  0  0
  -28.3190  -21.2310   20.6920 C   0  0  0  0  0  0  0  0  0  0  0  0
  -28.1220  -20.0590   21.3390 N   0  0  0  0  0  0  0  0  0  0  0  0
  -26.1550  -22.3260   19.9350 C   0  0  0  0  0  1  0  0  0  0  0  0
  -27.2560  -22.2780   21.0030 C   0  0  0  0  0  2  0  0  0  0  0  0
  -29.4410  -22.7650   18.8840 C   0  0  0  0  0  2  0  0  0  0  0  0
  -29.7140  -24.2370   19.4880 C   0  0  0  0  0  3  0  0  0  0  0  0
  -28.7010  -25.3880   19.0130 C   0  0  0  0  0  3  0  0  0  0  0  0
  -28.8200  -26.8290   19.3930 O   0  0  0  0  0  0  0  0  0  0  0  0
  -24.7780  -31.6040   23.0360 C   0  0  0  0  0  0  0  0  0  0  0  0
  -27.6410  -27.6050   19.4450 C   0  0  0  0  0  0  0  0  0  0  0  0
  -23.6300  -30.2530   21.3200 C   0  0  0  0  0  3  0  0  0  0  0  0
  -25.1440  -28.9970   19.6870 C   0  0  0  0  0  0  0  0  0  0  0  0
  -26.1200  -30.8260   21.0670 C   0  0  0  0  0  2  0  0  0  0  0  0
  -26.2930  -29.5280   20.2850 C   0  0  0  0  0  0  0  0  0  0  0  0
  -27.5420  -28.8440   20.1580 C   0  0  0  0  0  3  0  0  0  0  0  0
  -26.4600  -27.1500   18.8100 C   0  0  0  0  0  3  0  0  0  0  0  0
  -25.2300  -27.8140   18.9410 C   0  0  0  0  0  3  0  0  0  0  0  0
  -23.8360  -29.7380   19.8730 C   0  0  0  0  0  2  0  0  0  0  0  0
  -24.8630  -30.9080   21.8650 N   0  0  0  0  0  0  0  0  0  0  0  0
  -23.7020  -31.7240   23.6390 O   0  0  0  0  0  0  0  0  0  0  0  0
  -23.1150  -29.0890   22.2020 C   0  0  0  0  0  0  0  0  0  0  0  0
  -21.8140  -28.7700   22.0860 N   0  0  0  0  0  0  0  0  0  0  0  0
  -23.8820  -28.4820   22.9520 O   0  0  0  0  0  0  0  0  0  0  0  0
  -21.2460  -29.3220   21.4580 H   0  0  0  0  0  0  0  0  0  0  0  0
  -18.6270  -27.1090   22.4950 C   0  0  0  0  0  0  0  0  0  0  0  0
  -21.1290  -27.6860   22.7920 C   0  0  0  0  0  3  0  0  0  0  0  0
  -21.4160  -26.3200   22.1260 C   0  0  0  0  0  2  0  0  0  0  0  0
  -20.3620  -25.9200   21.0890 C   0  0  0  0  0  2  0  0  0  0  0  0
  -18.9760  -25.8410   21.7350 C   0  0  0  0  0  2  0  0  0  0  0  0
  -19.6370  -27.9840   22.9770 C   0  0  0  0  0  0  0  0  0  0  0  0
  -19.2550  -29.1660   23.6480 C   0  0  0  0  0  3  0  0  0  0  0  0
  -17.8970  -29.4790   23.8400 C   0  0  0  0  0  3  0  0  0  0  0  0
  -16.9010  -28.6040   23.3720 C   0  0  0  0  0  3  0  0  0  0  0  0
  -17.2660  -27.4200   22.7070 C   0  0  0  0  0  3  0  0  0  0  0  0
  -26.0260  -32.2990   23.6610 C   0  0  0  0  0  3  0  0  0  0  0  0
  -25.6240  -33.6570   24.0580 N   0  0  0  0  0  0  0  0  0  0  0  0
  -25.8840  -34.7650   23.3520 C   0  0  0  0  0  0  0  0  0  0  0  0
  -26.5560  -34.7570   22.3180 O   0  0  0  0  0  0  0  0  0  0  0  0
  -25.0230  -33.7320   24.8660 H   0  0  0  0  0  0  0  0  0  0  0  0
  -24.0300  -36.4460   23.0980 C   0  0  0  0  0  1  0  0  0  0  0  0
  -25.3080  -36.0940   23.8770 C   0  0  0  0  0  3  0  0  0  0  0  0
  -27.3870  -37.0880   24.7240 C   0  0  0  0  0  1  0  0  0  0  0  0
  -26.2620  -37.2220   23.8010 N   0  0  0  0  0  0  0  0  0  0  0  0
  -25.7960  -38.1030   23.9960 H   0  0  0  0  0  0  0  0  0  0  0  0
  -26.6220  -31.5140   24.8940 C   0  0  1  0  0  0  0  0  0  0  0  0
  -25.5710  -31.1660   25.9760 C   0  0  0  0  0  1  0  0  0  0  0  0
  -27.2810  -30.1920   24.4360 C   0  0  0  0  0  1  0  0  0  0  0  0
  -27.7330  -32.3550   25.5630 C   0  0  0  0  0  1  0  0  0  0  0  0
  -30.7660  -17.6780   19.8350 C   0  0  0  0  0  2  0  0  0  0  0  0
  -31.1390  -15.1750   20.3580 C   0  0  0  0  0  0  0  0  0  0  0  0
  -31.0160  -12.7820   19.7000 C   0  0  0  0  0  2  0  0  0  0  0  0
  -30.1710  -12.6650   18.4140 C   0  0  0  0  0  2  0  0  0  0  0  0
  -28.6760  -12.5300   18.7590 C   0  0  0  0  0  2  0  0  0  0  0  0
  -28.2050  -13.5810   19.8000 C   0  0  0  0  0  3  0  0  0  0  0  0
  -29.1810  -13.6850   20.9940 C   0  0  0  0  0  2  0  0  0  0  0  0
  -30.5190  -13.9540   20.4510 N   0  0  0  0  0  0  0  0  0  0  0  0
  -32.3350  -15.2490   20.0690 O   0  0  0  0  0  0  0  0  0  0  0  0
  -30.3560  -16.3080   20.3530 N   0  0  0  0  0  0  0  0  0  0  0  0
  -29.3790  -16.1610   20.5500 H   0  0  0  0  0  0  0  0  0  0  0  0
  -25.8240  -14.2510   20.4830 C   0  0  0  0  0  0  0  0  0  0  0  0
  -24.7120  -13.5110   20.7820 C   0  0  0  0  0  0  0  0  0  0  0  0
  -25.1140  -12.1420   20.6960 C   0  0  0  0  0  0  0  0  0  0  0  0
  -26.8330  -13.3350   20.2330 N   0  0  0  0  0  0  0  0  0  0  0  0
  -26.4100  -12.0580   20.4240 N   0  0  0  0  0  0  0  0  0  0  0  0
  -24.3240  -10.9070   20.7990 C   0  0  0  0  0  0  0  0  0  0  0  0
  -24.7270   -9.8400   21.6300 C   0  0  0  0  0  3  0  0  0  0  0  0
  -23.9410   -8.6720   21.7290 C   0  0  0  0  0  3  0  0  0  0  0  0
  -22.7350   -8.5630   20.9950 C   0  0  0  0  0  0  0  0  0  0  0  0
  -22.3490   -9.6210   20.1510 C   0  0  0  0  0  3  0  0  0  0  0  0
  -23.1370  -10.7800   20.0500 C   0  0  0  0  0  3  0  0  0  0  0  0
  -21.9210   -7.4570   21.0070 O   0  0  0  0  0  0  0  0  0  0  0  0
  -21.9370   -6.5640   22.0490 C   0  0  0  0  0  0  0  0  0  0  0  0
  -21.6940   -6.9680   23.3800 C   0  0  0  0  0  3  0  0  0  0  0  0
  -21.6500   -6.0060   24.4100 C   0  0  0  0  0  3  0  0  0  0  0  0
  -21.8390   -4.6440   24.1100 C   0  0  0  0  0  0  0  0  0  0  0  0
  -22.0760   -4.2400   22.7850 C   0  0  0  0  0  3  0  0  0  0  0  0
  -22.1210   -5.1970   21.7570 C   0  0  0  0  0  0  0  0  0  0  0  0
  -22.3290   -4.8010   20.4780 F   0  0  0  0  0  0  0  0  0  0  0  0
  -21.7880   -3.7190   25.0980 F   0  0  0  0  0  0  0  0  0  0  0  0
  -23.3300  -14.0400   21.0350 C   0  0  0  0  0  0  0  0  0  0  0  0
  -22.5500  -13.3480   21.8570 N   0  0  0  0  0  0  0  0  0  0  0  0
  -22.9500  -15.1010   20.5400 O   0  0  0  0  0  0  0  0  0  0  0  0
  -22.8680  -12.4900   22.2800 H   0  0  0  0  0  0  0  0  0  0  0  0
  -21.6210  -13.6850   22.0690 H   0  0  0  0  0  0  0  0  0  0  0  0
  -26.0540  -15.6200   20.3810 N   0  0  0  0  0  0  0  0  0  0  0  0
  -25.3130  -16.3000   20.5150 H   0  0  0  0  0  0  0  0  0  0  0  0
  -26.9190  -16.0370   20.0600 H   0  0  0  0  0  0  0  0  0  0  0  0
  1  4  2  0
  1  3  1  0
  2  6  1  0
  3  2  2  0
  4  5  1  0
  5  8  1  0
  5  6  2  0
  7  8  1  0
  9 10  1  0
  9  4  1  0
 11 12  1  0
 11 10  2  0
 12 14  1  0
 13 24  2  0
 14 19  1  0
 15 23  1  0
 15 25  1  0
 16 22  1  0
 16 18  1  0
 17 23  1  0
 18 17  1  0
 19 18  2  0
 20 21  1  0
 20 14  2  0
 21 16  2  0
 22 15  1  0
 23 13  1  0
 25 27  2  0
 26 25  1  0
 28 26  1  0
 29 38  2  0
 29 34  1  0
 30 26  1  0
 30 34  1  0
 31 30  1  0
 32 33  1  0
 32 31  1  0
 33 29  1  0
 34 35  2  0
 35 36  1  0
 37 36  2  0
 38 37  1  0
 39 13  1  0
 39 40  1  0
 39 49  1  0
 40 43  1  0
 41 45  1  0
 41 40  1  0
 42 41  2  0
 45 44  1  0
 47 45  1  0
 47 48  1  0
 47 46  1  0
 49 52  1  1
 49 50  1  0
 51 49  1  0
 53  3  1  0
 53 62  1  0
 54 60  1  0
 55 60  1  0
 56 57  1  0
 56 55  1  0
 58 57  1  0
 58 67  1  0
 58 59  1  0
 60 59  1  0
 61 54  2  0
 62 54  1  0
 62 63  1  0
 64 65  2  0
 65 84  1  0
 66 65  1  0
 66 69  1  0
 67 68  1  0
 67 64  1  0
 68 66  2  0
 69 70  1  0
 70 71  2  0
 72 75  1  0
 72 71  1  0
 73 72  2  0
 74 73  1  0
 74 69  2  0
 75 76  1  0
 76 77  1  0
 77 78  2  0
 79 78  1  0
 79 83  1  0
 80 79  2  0
 81 76  2  0
 81 80  1  0
 82 81  1  0
 84 85  1  0
 85 88  1  0
 85 87  1  0
 86 84  2  0
 89 64  1  0
 89 90  1  0
 91 89  1  0
M  ISO  4  11 101  12 101  54 100  62 100
M  END
>  <TORSDO>  (13) 
F 21

>  <SCORE>  (13) 
-9.914

>  <name>  (13) 
12

>  <ligand_id>  (13) 
12

>  <original_smiles>  (13) 
[H]c1nc(C([H])([H])C([H])([H])[H])c(C([H])([H])C([H])([H])C([H])([H])Oc2c([H])c([H])c3c(c2[H])C([H])([H])N(C(=O)C([H])(N([H])C(=O)C([H])(N([H])C([H])([H])[H])C([H])([H])[H])C(C([H])([H])[H])(C([H])([H])[H])C([H])([H])[H])C([H])(C(=O)N([H])C2([H])c4c([H])c([H])c([H])c([H])c4C([H])([H])C([H])([H])C2([H])[H])C3([H])[H])c([H])c1C([H])([H])N([H])C(=O)N1C([H])([H])C([H])([H])C([H])([H])C([H])(n2nc(-c3c([H])c([H])c(Oc4c([H])c([H])c(F)c([H])c4F)c([H])c3[H])c(C(=O)N([H])[H])c2N([H])[H])C1([H])[H]

>  <smiles>  (13) 
[H]c1nc(C([H])([H])C([H])([H])[H])c(C([H])([H])C([H])([H])C([H])([H])Oc2c([H])c([H])c3c(c2[H])C([H])([H])N(C(=O)C([H])(N([H])C(=O)C([H])(N([H])C([H])([H])[H])C([H])([H])[H])C(C([H])([H])[H])(C([H])([H])[H])C([H])([H])[H])C([H])(C(=O)N([H])C2([H])c4c([H])c([H])c([H])c([H])c4C([H])([H])C([H])([H])C2([H])[H])C3([H])[H])c([H])c1C([H])([H])N([H])C(=O)N1C([H])([H])C([H])([H])C([H])([H])C([H])(n2nc(-c3c([H])c([H])c(Oc4c([H])c([H])c(F)c([H])c4F)c([H])c3[H])c(C(=O)N([H])[H])c2N([H])[H])C1([H])[H]

$$$$
13:0:0
     RDKit          3D

 98106  0  0  1  0  0  0  0  0999 V2000
  -30.0490  -19.9200   20.0840 C   0  0  0  0  0  3  0  0  0  0  0  0
  -30.4640  -19.4710   21.3540 C   0  0  0  0  0  0  0  0  0  0  0  0
  -30.3400  -21.2330   19.6580 C   0  0  0  0  0  0  0  0  0  0  0  0
  -31.1740  -20.3930   22.1600 C   0  0  0  0  0  0  0  0  0  0  0  0
  -31.0640  -22.0700   20.5340 C   0  0  0  0  0  0  0  0  0  0  0  0
  -31.4630  -21.6510   21.7540 N   0  0  0  0  0  0  0  0  0  0  0  0
  -28.4640  -21.2910   17.9300 C   0  0  0  0  0  1  0  0  0  0  0  0
  -30.8920  -21.2070   17.1970 C   0  0  0  0  0  1  0  0  0  0  0  0
  -29.9070  -21.6990   18.2660 C   0  0  0  0  0  3  0  0  0  0  0  0
  -32.9990  -23.3350   19.9730 C   0  0  0  0  0  1  0  0  0  0  0  0
  -31.5450  -23.3210   20.1000 N   0  0  0  0  0  0  0  0  0  0  0  0
  -30.9200  -24.5780   20.5470 C   0  0  0  0  0  2  0  0  0  0  0  0
  -29.3780  -24.5900   20.6220 C   0  0  0  0  0  2  0  0  0  0  0  0
  -27.5040  -25.7520   21.8470 C   0  0  0  0  0  1  0  0  0  0  0  0
  -28.7570  -25.9760   20.9610 C   0  0  0  0  0  3  0  0  0  0  0  0
  -28.5320  -26.7400   19.7420 O   0  0  0  0  0  0  0  0  0  0  0  0
  -24.7750  -31.7490   23.1120 C   0  0  0  0  0  0  0  0  0  0  0  0
  -27.4050  -27.5300   19.7400 C   0  0  0  0  0  0  0  0  0  0  0  0
  -23.5420  -30.4020   21.4420 C   0  0  0  0  0  3  0  0  0  0  0  0
  -24.9820  -28.9770   19.8850 C   0  0  0  0  0  0  0  0  0  0  0  0
  -26.0480  -30.8380   21.1730 C   0  0  0  0  0  2  0  0  0  0  0  0
  -26.1470  -29.5020   20.4630 C   0  0  0  0  0  0  0  0  0  0  0  0
  -27.3630  -28.7830   20.3930 C   0  0  0  0  0  3  0  0  0  0  0  0
  -26.2370  -27.0350   19.1260 C   0  0  0  0  0  3  0  0  0  0  0  0
  -25.0230  -27.7430   19.2110 C   0  0  0  0  0  3  0  0  0  0  0  0
  -23.7210  -29.7990   20.0220 C   0  0  0  0  0  2  0  0  0  0  0  0
  -24.8070  -31.0080   21.9680 N   0  0  0  0  0  0  0  0  0  0  0  0
  -23.7090  -31.9680   23.7040 O   0  0  0  0  0  0  0  0  0  0  0  0
  -22.9510  -29.3160   22.3710 C   0  0  0  0  0  0  0  0  0  0  0  0
  -21.6340  -29.0810   22.2520 N   0  0  0  0  0  0  0  0  0  0  0  0
  -23.6710  -28.6920   23.1540 O   0  0  0  0  0  0  0  0  0  0  0  0
  -21.1110  -29.6370   21.5900 H   0  0  0  0  0  0  0  0  0  0  0  0
  -18.3310  -27.6830   22.7050 C   0  0  0  0  0  0  0  0  0  0  0  0
  -20.8690  -28.0840   22.9990 C   0  0  0  0  0  3  0  0  0  0  0  0
  -21.0570  -26.6730   22.3920 C   0  0  0  0  0  2  0  0  0  0  0  0
  -19.9810  -26.3100   21.3630 C   0  0  0  0  0  2  0  0  0  0  0  0
  -18.5900  -26.3610   21.9990 C   0  0  0  0  0  2  0  0  0  0  0  0
  -19.4010  -28.4980   23.1580 C   0  0  0  0  0  0  0  0  0  0  0  0
  -19.1060  -29.7360   23.7730 C   0  0  0  0  0  3  0  0  0  0  0  0
  -17.7740  -30.1560   23.9380 C   0  0  0  0  0  3  0  0  0  0  0  0
  -16.7180  -29.3400   23.4990 C   0  0  0  0  0  3  0  0  0  0  0  0
  -16.9980  -28.1040   22.8900 C   0  0  0  0  0  3  0  0  0  0  0  0
  -26.0690  -32.3760   23.7180 C   0  0  0  0  0  3  0  0  0  0  0  0
  -25.7410  -33.7460   24.1340 N   0  0  0  0  0  0  0  0  0  0  0  0
  -26.0210  -34.8440   23.4180 C   0  0  0  0  0  0  0  0  0  0  0  0
  -26.6520  -34.8100   22.3580 O   0  0  0  0  0  0  0  0  0  0  0  0
  -25.1790  -33.8420   24.9660 H   0  0  0  0  0  0  0  0  0  0  0  0
  -24.2300  -36.5960   23.2240 C   0  0  0  0  0  1  0  0  0  0  0  0
  -25.5180  -36.1950   23.9620 C   0  0  0  0  0  3  0  0  0  0  0  0
  -27.6670  -37.0940   24.7390 C   0  0  0  0  0  1  0  0  0  0  0  0
  -26.5180  -37.2790   23.8570 N   0  0  0  0  0  0  0  0  0  0  0  0
  -26.0970  -38.1820   24.0710 H   0  0  0  0  0  0  0  0  0  0  0  0
  -26.6530  -31.5480   24.9280 C   0  0  1  0  0  0  0  0  0  0  0  0
  -25.6110  -31.2320   26.0260 C   0  0  0  0  0  1  0  0  0  0  0  0
  -27.2420  -30.2060   24.4350 C   0  0  0  0  0  1  0  0  0  0  0  0
  -27.8180  -32.3320   25.5790 C   0  0  0  0  0  1  0  0  0  0  0  0
  -30.6930  -20.6230   24.6260 C   0  0  0  0  0  1  0  0  0  0  0  0
  -31.6450  -20.0600   23.5650 C   0  0  0  0  0  2  0  0  0  0  0  0
  -30.1060  -18.0390   21.7850 C   0  0  0  0  0  2  0  0  0  0  0  0
  -31.1720  -16.9880   21.3910 C   0  0  0  0  0  2  0  0  0  0  0  0
  -31.2500  -14.6180   20.6050 C   0  0  0  0  0  0  0  0  0  0  0  0
  -30.9170  -12.4760   19.4170 C   0  0  0  0  0  2  0  0  0  0  0  0
  -30.0280  -12.7050   18.1760 C   0  0  0  0  0  2  0  0  0  0  0  0
  -28.5350  -12.6070   18.5520 C   0  0  0  0  0  2  0  0  0  0  0  0
  -28.1720  -13.4550   19.8020 C   0  0  0  0  0  3  0  0  0  0  0  0
  -29.1800  -13.2130   20.9510 C   0  0  0  0  0  2  0  0  0  0  0  0
  -30.5320  -13.4690   20.4350 N   0  0  0  0  0  0  0  0  0  0  0  0
  -32.3600  -14.7850   20.0940 O   0  0  0  0  0  0  0  0  0  0  0  0
  -30.6450  -15.6130   21.2810 N   0  0  0  0  0  0  0  0  0  0  0  0
  -29.7540  -15.4130   21.7110 H   0  0  0  0  0  0  0  0  0  0  0  0
  -25.7670  -14.1230   20.4330 C   0  0  0  0  0  0  0  0  0  0  0  0
  -24.6710  -13.3800   20.7800 C   0  0  0  0  0  0  0  0  0  0  0  0
  -25.1000  -12.0180   20.7710 C   0  0  0  0  0  0  0  0  0  0  0  0
  -26.7970  -13.2160   20.2360 N   0  0  0  0  0  0  0  0  0  0  0  0
  -26.3960  -11.9460   20.4960 N   0  0  0  0  0  0  0  0  0  0  0  0
  -24.3390  -10.7750   20.9490 C   0  0  0  0  0  0  0  0  0  0  0  0
  -24.7200   -9.8060   21.9040 C   0  0  0  0  0  3  0  0  0  0  0  0
  -23.9570   -8.6290   22.0730 C   0  0  0  0  0  3  0  0  0  0  0  0
  -22.8010   -8.4130   21.2860 C   0  0  0  0  0  0  0  0  0  0  0  0
  -22.4410   -9.3690   20.3200 C   0  0  0  0  0  3  0  0  0  0  0  0
  -23.2050  -10.5370   20.1480 C   0  0  0  0  0  3  0  0  0  0  0  0
  -22.0230   -7.2820   21.3550 O   0  0  0  0  0  0  0  0  0  0  0  0
  -21.9020   -6.5600   22.5160 C   0  0  0  0  0  0  0  0  0  0  0  0
  -21.4530   -7.1490   23.7170 C   0  0  0  0  0  3  0  0  0  0  0  0
  -21.2790   -6.3560   24.8690 C   0  0  0  0  0  3  0  0  0  0  0  0
  -21.5460   -4.9750   24.8200 C   0  0  0  0  0  0  0  0  0  0  0  0
  -21.9890   -4.3860   23.6240 C   0  0  0  0  0  3  0  0  0  0  0  0
  -22.1640   -5.1750   22.4740 C   0  0  0  0  0  0  0  0  0  0  0  0
  -22.5710   -4.5980   21.3180 F   0  0  0  0  0  0  0  0  0  0  0  0
  -21.3740   -4.2130   25.9260 F   0  0  0  0  0  0  0  0  0  0  0  0
  -23.2780  -13.8940   21.0110 C   0  0  0  0  0  0  0  0  0  0  0  0
  -22.5120  -13.2300   21.8710 N   0  0  0  0  0  0  0  0  0  0  0  0
  -22.8730  -14.9180   20.4610 O   0  0  0  0  0  0  0  0  0  0  0  0
  -22.8520  -12.4080   22.3450 H   0  0  0  0  0  0  0  0  0  0  0  0
  -21.5740  -13.5500   22.0590 H   0  0  0  0  0  0  0  0  0  0  0  0
  -25.9730  -15.4880   20.2550 N   0  0  0  0  0  0  0  0  0  0  0  0
  -25.2280  -16.1680   20.3540 H   0  0  0  0  0  0  0  0  0  0  0  0
  -26.8500  -15.9030   19.9670 H   0  0  0  0  0  0  0  0  0  0  0  0
  1  2  1  0
  2 59  1  0
  2  4  2  0
  3  1  2  0
  3  5  1  0
  4 58  1  0
  5  6  2  0
  6  4  1  0
  7  9  1  0
  8  9  1  0
  9  3  1  0
 10 11  1  0
 11  5  1  0
 11 12  1  0
 12 13  1  0
 13 15  1  0
 15 14  1  0
 16 15  1  0
 17 28  2  0
 18 16  1  0
 18 23  1  0
 19 27  1  0
 19 29  1  0
 20 26  1  0
 20 22  1  0
 21 27  1  0
 22 21  1  0
 23 22  2  0
 24 25  1  0
 24 18  2  0
 25 20  2  0
 26 19  1  0
 27 17  1  0
 29 31  2  0
 30 29  1  0
 32 30  1  0
 33 42  2  0
 33 38  1  0
 34 30  1  0
 34 38  1  0
 35 34  1  0
 36 37  1  0
 36 35  1  0
 37 33  1  0
 38 39  2  0
 39 40  1  0
 41 40  2  0
 42 41  1  0
 43 17  1  0
 43 44  1  0
 43 53  1  0
 44 47  1  0
 45 49  1  0
 45 44  1  0
 46 45  2  0
 49 48  1  0
 51 49  1  0
 51 52  1  0
 51 50  1  0
 53 56  1  1
 53 54  1  0
 55 53  1  0
 58 57  1  0
 60 59  1  0
 61 69  1  0
 62 67  1  0
 63 64  1  0
 63 62  1  0
 65 64  1  0
 65 74  1  0
 65 66  1  0
 67 61  1  0
 67 66  1  0
 68 61  2  0
 69 60  1  0
 69 70  1  0
 71 72  2  0
 72 91  1  0
 73 72  1  0
 73 76  1  0
 74 71  1  0
 74 75  1  0
 75 73  2  0
 76 77  1  0
 77 78  2  0
 79 82  1  0
 79 78  1  0
 80 79  2  0
 81 80  1  0
 81 76  2  0
 82 83  1  0
 83 84  1  0
 84 85  2  0
 86 85  1  0
 86 90  1  0
 87 86  2  0
 88 83  2  0
 88 87  1  0
 89 88  1  0
 91 92  1  0
 92 95  1  0
 92 94  1  0
 93 91  2  0
 96 97  1  0
 96 71  1  0
 98 96  1  0
M  ISO  4  15 101  16 101  61 100  69 100
M  END
>  <TORSDO>  (14) 
F 24

>  <SCORE>  (14) 
-12.077

>  <name>  (14) 
13

>  <ligand_id>  (14) 
13

>  <original_smiles>  (14) 
[H]c1c([H])c([H])c2c(c1[H])C([H])([H])C([H])([H])C([H])([H])C2([H])N([H])C(=O)C1([H])N(C(=O)C([H])(N([H])C(=O)C([H])(N([H])C([H])([H])[H])C([H])([H])[H])C(C([H])([H])[H])(C([H])([H])[H])C([H])([H])[H])C([H])([H])c2c([H])c(OC([H])(C([H])([H])[H])C([H])([H])C([H])([H])N(c3nc(C([H])([H])C([H])([H])[H])c(C([H])([H])C([H])([H])N([H])C(=O)N4C([H])([H])C([H])([H])C([H])([H])C([H])(n5nc(-c6c([H])c([H])c(Oc7c([H])c([H])c(F)c([H])c7F)c([H])c6[H])c(C(=O)N([H])[H])c5N([H])[H])C4([H])[H])c([H])c3C([H])(C([H])([H])[H])C([H])([H])[H])C([H])([H])[H])c([H])c([H])c2C1([H])[H]

>  <smiles>  (14) 
[H]c1c([H])c([H])c2c(c1[H])C([H])([H])C([H])([H])C([H])([H])C2([H])N([H])C(=O)C1([H])N(C(=O)C([H])(N([H])C(=O)C([H])(N([H])C([H])([H])[H])C([H])([H])[H])C(C([H])([H])[H])(C([H])([H])[H])C([H])([H])[H])C([H])([H])c2c([H])c(OC([H])(C([H])([H])[H])C([H])([H])C([H])([H])N(c3nc(C([H])([H])C([H])([H])[H])c(C([H])([H])C([H])([H])N([H])C(=O)N4C([H])([H])C([H])([H])C([H])([H])C([H])(n5nc(-c6c([H])c([H])c(Oc7c([H])c([H])c(F)c([H])c7F)c([H])c6[H])c(C(=O)N([H])[H])c5N([H])[H])C4([H])[H])c([H])c3C([H])(C([H])([H])[H])C([H])([H])[H])C([H])([H])[H])c([H])c([H])c2C1([H])[H]

$$$$
14:0:0
     RDKit          3D

 91 99  0  0  1  0  0  0  0  0999 V2000
  -30.3730  -20.7470   20.5610 C   0  0  0  0  0  3  0  0  0  0  0  0
  -29.7680  -19.5110   20.4550 C   0  0  0  0  0  0  0  0  0  0  0  0
  -28.4310  -19.7800   20.0230 C   0  0  0  0  0  0  0  0  0  0  0  0
  -28.2450  -21.1430   20.0060 C   0  0  0  0  0  0  0  0  0  0  0  0
  -27.3680  -18.7450   19.7540 C   0  0  0  0  0  1  0  0  0  0  0  0
  -26.9830  -21.9220   19.7900 C   0  0  0  0  0  1  0  0  0  0  0  0
  -29.4330  -21.7600   20.3740 N   0  0  0  0  0  0  0  0  0  0  0  0
  -30.3230  -18.1260   20.8600 C   0  0  0  0  0  2  0  0  0  0  0  0
  -30.2360  -16.9780   19.8090 C   0  0  0  0  0  2  0  0  0  0  0  0
  -30.8940  -14.5320   19.9640 C   0  0  0  0  0  0  0  0  0  0  0  0
  -30.5410  -12.3120   18.9410 C   0  0  0  0  0  2  0  0  0  0  0  0
  -29.5350  -12.4910   17.7850 C   0  0  0  0  0  2  0  0  0  0  0  0
  -28.0870  -12.3690   18.3010 C   0  0  0  0  0  2  0  0  0  0  0  0
  -27.8240  -13.2510   19.5510 C   0  0  0  0  0  3  0  0  0  0  0  0
  -28.9420  -13.0670   20.6070 C   0  0  0  0  0  2  0  0  0  0  0  0
  -30.2360  -13.3380   19.9570 N   0  0  0  0  0  0  0  0  0  0  0  0
  -31.9980  -14.6880   19.4360 O   0  0  0  0  0  0  0  0  0  0  0  0
  -30.1630  -15.5970   20.3610 N   0  0  0  0  0  0  0  0  0  0  0  0
  -29.3040  -15.3650   20.8400 H   0  0  0  0  0  0  0  0  0  0  0  0
  -25.4960  -13.9080   20.4340 C   0  0  0  0  0  0  0  0  0  0  0  0
  -24.4310  -13.1590   20.8570 C   0  0  0  0  0  0  0  0  0  0  0  0
  -24.8470  -11.7940   20.7590 C   0  0  0  0  0  0  0  0  0  0  0  0
  -26.4960  -13.0030   20.1120 N   0  0  0  0  0  0  0  0  0  0  0  0
  -26.1120  -11.7250   20.3660 N   0  0  0  0  0  0  0  0  0  0  0  0
  -24.0940  -10.5500   20.9670 C   0  0  0  0  0  0  0  0  0  0  0  0
  -24.5420   -9.5600   21.8690 C   0  0  0  0  0  3  0  0  0  0  0  0
  -23.7920   -8.3780   22.0630 C   0  0  0  0  0  3  0  0  0  0  0  0
  -22.5810   -8.1810   21.3570 C   0  0  0  0  0  0  0  0  0  0  0  0
  -22.1540   -9.1610   20.4440 C   0  0  0  0  0  3  0  0  0  0  0  0
  -22.9020  -10.3340   20.2470 C   0  0  0  0  0  3  0  0  0  0  0  0
  -21.8000   -7.0560   21.4640 O   0  0  0  0  0  0  0  0  0  0  0  0
  -21.7610   -6.3150   22.6190 C   0  0  0  0  0  0  0  0  0  0  0  0
  -21.3790   -6.8800   23.8550 C   0  0  0  0  0  3  0  0  0  0  0  0
  -21.2860   -6.0660   25.0010 C   0  0  0  0  0  3  0  0  0  0  0  0
  -21.5600   -4.6880   24.9120 C   0  0  0  0  0  0  0  0  0  0  0  0
  -21.9340   -4.1240   23.6790 C   0  0  0  0  0  3  0  0  0  0  0  0
  -22.0310   -4.9350   22.5350 C   0  0  0  0  0  0  0  0  0  0  0  0
  -22.3710   -4.3820   21.3470 F   0  0  0  0  0  0  0  0  0  0  0  0
  -21.4640   -3.9040   26.0110 F   0  0  0  0  0  0  0  0  0  0  0  0
  -23.0710  -13.6690   21.2350 C   0  0  0  0  0  0  0  0  0  0  0  0
  -22.3830  -12.9790   22.1370 N   0  0  0  0  0  0  0  0  0  0  0  0
  -22.6270  -14.7150   20.7600 O   0  0  0  0  0  0  0  0  0  0  0  0
  -22.7540  -12.1320   22.5450 H   0  0  0  0  0  0  0  0  0  0  0  0
  -21.4730  -13.3040   22.4310 H   0  0  0  0  0  0  0  0  0  0  0  0
  -25.6880  -15.2770   20.2780 N   0  0  0  0  0  0  0  0  0  0  0  0
  -24.9380  -15.9370   20.4420 H   0  0  0  0  0  0  0  0  0  0  0  0
  -26.5160  -15.7070   19.8880 H   0  0  0  0  0  0  0  0  0  0  0  0
  -29.6080  -23.1860   20.7430 C   0  0  0  0  0  2  0  0  0  0  0  0
  -29.1680  -24.3290   19.7640 C   0  0  0  0  0  2  0  0  0  0  0  0
  -28.7740  -25.6320   20.5360 C   0  0  0  0  0  2  0  0  0  0  0  0
  -28.5510  -26.8000   19.7290 O   0  0  0  0  0  0  0  0  0  0  0  0
  -24.5600  -31.7490   23.0680 C   0  0  0  0  0  0  0  0  0  0  0  0
  -27.3460  -27.4660   19.8570 C   0  0  0  0  0  0  0  0  0  0  0  0
  -23.4010  -30.3600   21.3820 C   0  0  0  0  0  3  0  0  0  0  0  0
  -24.9010  -28.8970   19.9210 C   0  0  0  0  0  0  0  0  0  0  0  0
  -25.9170  -30.7900   21.2030 C   0  0  0  0  0  2  0  0  0  0  0  0
  -26.0410  -29.4360   20.5300 C   0  0  0  0  0  0  0  0  0  0  0  0
  -27.2680  -28.7260   20.4950 C   0  0  0  0  0  3  0  0  0  0  0  0
  -26.1870  -26.9360   19.2560 C   0  0  0  0  0  3  0  0  0  0  0  0
  -24.9670  -27.6450   19.2810 C   0  0  0  0  0  3  0  0  0  0  0  0
  -23.6320  -29.7210   19.9860 C   0  0  0  0  0  2  0  0  0  0  0  0
  -24.6430  -30.9840   21.9420 N   0  0  0  0  0  0  0  0  0  0  0  0
  -23.4690  -31.9740   23.6110 O   0  0  0  0  0  0  0  0  0  0  0  0
  -22.7720  -29.2950   22.3100 C   0  0  0  0  0  0  0  0  0  0  0  0
  -21.4480  -29.1070   22.1970 N   0  0  0  0  0  0  0  0  0  0  0  0
  -23.4730  -28.6430   23.0900 O   0  0  0  0  0  0  0  0  0  0  0  0
  -20.9440  -29.6890   21.5430 H   0  0  0  0  0  0  0  0  0  0  0  0
  -18.0860  -27.8930   22.7190 C   0  0  0  0  0  0  0  0  0  0  0  0
  -20.6500  -28.1280   22.9350 C   0  0  0  0  0  3  0  0  0  0  0  0
  -20.7330  -26.7340   22.2700 C   0  0  0  0  0  2  0  0  0  0  0  0
  -19.6000  -26.4730   21.2730 C   0  0  0  0  0  2  0  0  0  0  0  0
  -18.2370  -26.5840   21.9640 C   0  0  0  0  0  2  0  0  0  0  0  0
  -19.2190  -28.6260   23.1600 C   0  0  0  0  0  0  0  0  0  0  0  0
  -19.0240  -29.8540   23.8280 C   0  0  0  0  0  3  0  0  0  0  0  0
  -17.7260  -30.3480   24.0600 C   0  0  0  0  0  3  0  0  0  0  0  0
  -16.6070  -29.6090   23.6400 C   0  0  0  0  0  3  0  0  0  0  0  0
  -16.7890  -28.3850   22.9740 C   0  0  0  0  0  3  0  0  0  0  0  0
  -25.8230  -32.3980   23.7150 C   0  0  0  0  0  3  0  0  0  0  0  0
  -25.4760  -33.7800   24.0750 N   0  0  0  0  0  0  0  0  0  0  0  0
  -25.7970  -34.8590   23.3480 C   0  0  0  0  0  0  0  0  0  0  0  0
  -26.4860  -34.7950   22.3260 O   0  0  0  0  0  0  0  0  0  0  0  0
  -24.8640  -33.9020   24.8680 H   0  0  0  0  0  0  0  0  0  0  0  0
  -24.0320  -36.6190   23.0160 C   0  0  0  0  0  1  0  0  0  0  0  0
  -25.2740  -36.2240   23.8320 C   0  0  0  0  0  3  0  0  0  0  0  0
  -27.3790  -37.1370   24.7050 C   0  0  0  0  0  1  0  0  0  0  0  0
  -26.2830  -37.3020   23.7530 N   0  0  0  0  0  0  0  0  0  0  0  0
  -25.8570  -38.2100   23.9150 H   0  0  0  0  0  0  0  0  0  0  0  0
  -26.3520  -31.6070   24.9740 C   0  0  1  0  0  0  0  0  0  0  0  0
  -25.2610  -31.3160   26.0320 C   0  0  0  0  0  1  0  0  0  0  0  0
  -26.9690  -30.2540   24.5480 C   0  0  0  0  0  1  0  0  0  0  0  0
  -27.4820  -32.4110   25.6620 C   0  0  0  0  0  1  0  0  0  0  0  0
  2  1  2  0
  2  8  1  0
  3  2  1  0
  4  3  2  0
  4  7  1  0
  5  3  1  0
  6  4  1  0
  7  1  1  0
  7 48  1  0
  9 18  1  0
  9  8  1  0
 10 18  1  0
 11 16  1  0
 12 13  1  0
 12 11  1  0
 14 13  1  0
 14 23  1  0
 14 15  1  0
 16 10  1  0
 16 15  1  0
 17 10  2  0
 18 19  1  0
 20 21  2  0
 21 40  1  0
 22 21  1  0
 22 25  1  0
 23 24  1  0
 23 20  1  0
 24 22  2  0
 25 26  1  0
 26 27  2  0
 28 31  1  0
 28 27  1  0
 29 28  2  0
 30 29  1  0
 30 25  2  0
 31 32  1  0
 32 33  1  0
 33 34  2  0
 35 34  1  0
 35 39  1  0
 36 35  2  0
 37 32  2  0
 37 36  1  0
 38 37  1  0
 40 41  1  0
 41 44  1  0
 41 43  1  0
 42 40  2  0
 45 20  1  0
 45 46  1  0
 47 45  1  0
 49 50  1  0
 49 48  1  0
 51 53  1  0
 51 50  1  0
 52 63  2  0
 53 58  1  0
 54 62  1  0
 54 64  1  0
 55 61  1  0
 55 57  1  0
 56 62  1  0
 57 56  1  0
 58 57  2  0
 59 60  1  0
 59 53  2  0
 60 55  2  0
 61 54  1  0
 62 52  1  0
 64 66  2  0
 65 64  1  0
 67 65  1  0
 68 77  2  0
 68 73  1  0
 69 65  1  0
 69 73  1  0
 70 69  1  0
 71 72  1  0
 71 70  1  0
 72 68  1  0
 73 74  2  0
 74 75  1  0
 76 75  2  0
 77 76  1  0
 78 52  1  0
 78 79  1  0
 78 88  1  0
 79 82  1  0
 80 84  1  0
 80 79  1  0
 81 80  2  0
 84 83  1  0
 86 84  1  0
 86 87  1  0
 86 85  1  0
 88 91  1  1
 88 89  1  0
 90 88  1  0
M  ISO  4  10 100  18 100  50 101  51 101
M  END
>  <TORSDO>  (15) 
F 21

>  <SCORE>  (15) 
-13.118

>  <name>  (15) 
14

>  <ligand_id>  (15) 
14

>  <original_smiles>  (15) 
[H]c1c([H])c([H])c2c(c1[H])C([H])([H])C([H])([H])C([H])([H])C2([H])N([H])C(=O)C1([H])N(C(=O)C([H])(N([H])C(=O)C([H])(N([H])C([H])([H])[H])C([H])([H])[H])C(C([H])([H])[H])(C([H])([H])[H])C([H])([H])[H])C([H])([H])c2c([H])c(OC([H])([H])C([H])([H])C([H])([H])n3c([H])c(C([H])([H])C([H])([H])N([H])C(=O)N4C([H])([H])C([H])([H])C([H])([H])C([H])(n5nc(-c6c([H])c([H])c(Oc7c([H])c([H])c(F)c([H])c7F)c([H])c6[H])c(C(=O)N([H])[H])c5N([H])[H])C4([H])[H])c(C([H])([H])[H])c3C([H])([H])[H])c([H])c([H])c2C1([H])[H]

>  <smiles>  (15) 
[H]c1c([H])c([H])c2c(c1[H])C([H])([H])C([H])([H])C([H])([H])C2([H])N([H])C(=O)C1([H])N(C(=O)C([H])(N([H])C(=O)C([H])(N([H])C([H])([H])[H])C([H])([H])[H])C(C([H])([H])[H])(C([H])([H])[H])C([H])([H])[H])C([H])([H])c2c([H])c(OC([H])([H])C([H])([H])C([H])([H])n3c([H])c(C([H])([H])C([H])([H])N([H])C(=O)N4C([H])([H])C([H])([H])C([H])([H])C([H])(n5nc(-c6c([H])c([H])c(Oc7c([H])c([H])c(F)c([H])c7F)c([H])c6[H])c(C(=O)N([H])[H])c5N([H])[H])C4([H])[H])c(C([H])([H])[H])c3C([H])([H])[H])c([H])c([H])c2C1([H])[H]

$$$$
15:0:0
     RDKit          3D

 95103  0  0  1  0  0  0  0  0999 V2000
  -28.5290  -22.0030   20.7260 C   0  0  0  0  0  0  0  0  0  0  0  0
  -28.3490  -23.4310   20.6160 C   0  0  0  0  0  0  0  0  0  0  0  0
  -29.4060  -21.2840   19.8350 C   0  0  0  0  0  0  0  0  0  0  0  0
  -29.0740  -24.1680   19.6380 C   0  0  0  0  0  0  0  0  0  0  0  0
  -30.1050  -22.1380   18.9290 C   0  0  0  0  0  0  0  0  0  0  0  0
  -27.7090  -21.2220   21.7530 C   0  0  0  0  0  1  0  0  0  0  0  0
  -27.3350  -24.1580   21.4980 C   0  0  0  0  0  1  0  0  0  0  0  0
  -29.9630  -23.4930   18.8720 N   0  0  0  0  0  0  0  0  0  0  0  0
  -32.5040  -21.6150   18.2240 C   0  0  0  0  0  1  0  0  0  0  0  0
  -31.0170  -21.6220   17.8330 C   0  0  0  0  0  2  0  0  0  0  0  0
  -28.4000  -19.2260   18.6600 C   0  0  0  0  0  1  0  0  0  0  0  0
  -29.3830  -19.6730   19.7570 C   0  0  0  0  0  3  0  0  0  0  0  0
  -31.2230  -18.1390   18.4910 C   0  0  0  0  0  1  0  0  0  0  0  0
  -30.6910  -18.7200   19.8210 C   0  0  0  0  0  3  0  0  0  0  0  0
  -30.6800  -17.4930   20.8530 C   0  0  0  0  0  2  0  0  0  0  0  0
  -30.9360  -15.0000   20.1200 C   0  0  0  0  0  0  0  0  0  0  0  0
  -30.6450  -12.7840   19.0240 C   0  0  0  0  0  2  0  0  0  0  0  0
  -29.6620  -12.9060   17.8410 C   0  0  0  0  0  2  0  0  0  0  0  0
  -28.2020  -12.7500   18.3170 C   0  0  0  0  0  2  0  0  0  0  0  0
  -27.8880  -13.6100   19.5700 C   0  0  0  0  0  3  0  0  0  0  0  0
  -28.9840  -13.4700   20.6480 C   0  0  0  0  0  2  0  0  0  0  0  0
  -30.2660  -13.8090   20.0160 N   0  0  0  0  0  0  0  0  0  0  0  0
  -32.1160  -15.0990   19.7730 O   0  0  0  0  0  0  0  0  0  0  0  0
  -30.2050  -16.1110   20.4570 N   0  0  0  0  0  0  0  0  0  0  0  0
  -29.2210  -15.9410   20.5940 H   0  0  0  0  0  0  0  0  0  0  0  0
  -25.5340  -14.2150   20.3880 C   0  0  0  0  0  0  0  0  0  0  0  0
  -24.4710  -13.4460   20.7800 C   0  0  0  0  0  0  0  0  0  0  0  0
  -24.9160  -12.0910   20.7080 C   0  0  0  0  0  0  0  0  0  0  0  0
  -26.5580  -13.3280   20.1010 N   0  0  0  0  0  0  0  0  0  0  0  0
  -26.1960  -12.0440   20.3570 N   0  0  0  0  0  0  0  0  0  0  0  0
  -24.1810  -10.8330   20.9030 C   0  0  0  0  0  0  0  0  0  0  0  0
  -24.5960   -9.8750   21.8530 C   0  0  0  0  0  3  0  0  0  0  0  0
  -23.8630   -8.6820   22.0350 C   0  0  0  0  0  3  0  0  0  0  0  0
  -22.7010   -8.4390   21.2650 C   0  0  0  0  0  0  0  0  0  0  0  0
  -22.3040   -9.3850   20.3050 C   0  0  0  0  0  3  0  0  0  0  0  0
  -23.0360  -10.5710   20.1220 C   0  0  0  0  0  3  0  0  0  0  0  0
  -21.9440   -7.2950   21.3520 O   0  0  0  0  0  0  0  0  0  0  0  0
  -21.8360   -6.5930   22.5250 C   0  0  0  0  0  0  0  0  0  0  0  0
  -21.2890   -7.1700   23.6920 C   0  0  0  0  0  3  0  0  0  0  0  0
  -21.1340   -6.3910   24.8560 C   0  0  0  0  0  3  0  0  0  0  0  0
  -21.5110   -5.0350   24.8530 C   0  0  0  0  0  0  0  0  0  0  0  0
  -22.0480   -4.4570   23.6890 C   0  0  0  0  0  3  0  0  0  0  0  0
  -22.2080   -5.2330   22.5290 C   0  0  0  0  0  0  0  0  0  0  0  0
  -22.7060   -4.6670   21.4040 F   0  0  0  0  0  0  0  0  0  0  0  0
  -21.3530   -4.2840   25.9670 F   0  0  0  0  0  0  0  0  0  0  0  0
  -23.0900  -13.9350   21.1040 C   0  0  0  0  0  0  0  0  0  0  0  0
  -22.3860  -13.2410   21.9930 N   0  0  0  0  0  0  0  0  0  0  0  0
  -22.6420  -14.9670   20.6060 O   0  0  0  0  0  0  0  0  0  0  0  0
  -22.7590  -12.4080   22.4210 H   0  0  0  0  0  0  0  0  0  0  0  0
  -21.4570  -13.5470   22.2450 H   0  0  0  0  0  0  0  0  0  0  0  0
  -25.7080  -15.5850   20.2290 N   0  0  0  0  0  0  0  0  0  0  0  0
  -24.9480  -16.2440   20.3700 H   0  0  0  0  0  0  0  0  0  0  0  0
  -26.5420  -16.0170   19.8530 H   0  0  0  0  0  0  0  0  0  0  0  0
  -28.7770  -25.6450   19.1310 C   0  0  0  0  0  2  0  0  0  0  0  0
  -28.5690  -26.8020   20.0260 O   0  0  0  0  0  0  0  0  0  0  0  0
  -24.6380  -31.9190   23.2100 C   0  0  0  0  0  0  0  0  0  0  0  0
  -27.4000  -27.5830   19.9730 C   0  0  0  0  0  0  0  0  0  0  0  0
  -23.4740  -30.5400   21.5230 C   0  0  0  0  0  3  0  0  0  0  0  0
  -24.9690  -29.0990   20.0340 C   0  0  0  0  0  0  0  0  0  0  0  0
  -25.9970  -30.9620   21.3360 C   0  0  0  0  0  2  0  0  0  0  0  0
  -26.1230  -29.6130   20.6380 C   0  0  0  0  0  0  0  0  0  0  0  0
  -27.3350  -28.8640   20.6040 C   0  0  0  0  0  3  0  0  0  0  0  0
  -26.2090  -27.1090   19.3730 C   0  0  0  0  0  3  0  0  0  0  0  0
  -25.0130  -27.8490   19.3990 C   0  0  0  0  0  3  0  0  0  0  0  0
  -23.7000  -29.9190   20.1190 C   0  0  0  0  0  2  0  0  0  0  0  0
  -24.7220  -31.1550   22.0810 N   0  0  0  0  0  0  0  0  0  0  0  0
  -23.5470  -32.1360   23.7580 O   0  0  0  0  0  0  0  0  0  0  0  0
  -22.8530  -29.4650   22.4480 C   0  0  0  0  0  0  0  0  0  0  0  0
  -21.5400  -29.2220   22.2940 N   0  0  0  0  0  0  0  0  0  0  0  0
  -23.5520  -28.8520   23.2580 O   0  0  0  0  0  0  0  0  0  0  0  0
  -21.0370  -29.7720   21.6110 H   0  0  0  0  0  0  0  0  0  0  0  0
  -18.2200  -27.8430   22.7060 C   0  0  0  0  0  0  0  0  0  0  0  0
  -20.7580  -28.2260   23.0270 C   0  0  0  0  0  3  0  0  0  0  0  0
  -20.9450  -26.8170   22.4190 C   0  0  0  0  0  2  0  0  0  0  0  0
  -19.8780  -26.4630   21.3780 C   0  0  0  0  0  2  0  0  0  0  0  0
  -18.4790  -26.5230   21.9990 C   0  0  0  0  0  2  0  0  0  0  0  0
  -19.2920  -28.6500   23.1720 C   0  0  0  0  0  0  0  0  0  0  0  0
  -19.0010  -29.8850   23.7920 C   0  0  0  0  0  3  0  0  0  0  0  0
  -17.6710  -30.3160   23.9500 C   0  0  0  0  0  3  0  0  0  0  0  0
  -16.6130  -29.5070   23.5010 C   0  0  0  0  0  3  0  0  0  0  0  0
  -16.8880  -28.2720   22.8860 C   0  0  0  0  0  3  0  0  0  0  0  0
  -25.9010  -32.5700   23.8550 C   0  0  0  0  0  3  0  0  0  0  0  0
  -25.5680  -33.9650   24.1780 N   0  0  0  0  0  0  0  0  0  0  0  0
  -25.9000  -35.0220   23.4270 C   0  0  0  0  0  0  0  0  0  0  0  0
  -26.5910  -34.9260   22.4070 O   0  0  0  0  0  0  0  0  0  0  0  0
  -24.9770  -34.1160   24.9830 H   0  0  0  0  0  0  0  0  0  0  0  0
  -24.1720  -36.7950   23.0090 C   0  0  0  0  0  1  0  0  0  0  0  0
  -25.3850  -36.4050   23.8700 C   0  0  0  0  0  3  0  0  0  0  0  0
  -27.4660  -37.3040   24.8070 C   0  0  0  0  0  1  0  0  0  0  0  0
  -26.4150  -37.4650   23.8040 N   0  0  0  0  0  0  0  0  0  0  0  0
  -25.9980  -38.3840   23.9270 H   0  0  0  0  0  0  0  0  0  0  0  0
  -26.4050  -31.8110   25.1430 C   0  0  1  0  0  0  0  0  0  0  0  0
  -25.2940  -31.5580   26.1880 C   0  0  0  0  0  1  0  0  0  0  0  0
  -27.0200  -30.4450   24.7620 C   0  0  0  0  0  1  0  0  0  0  0  0
  -27.5290  -32.6250   25.8280 C   0  0  0  0  0  1  0  0  0  0  0  0
  1  6  1  0
  2  1  1  0
  2  7  1  0
  3  1  2  0
  4  2  2  0
  5  3  1  0
  8  5  2  0
  8  4  1  0
 10  9  1  0
 10  5  1  0
 12 11  1  0
 12 14  1  0
 12  3  1  0
 14 13  1  0
 14 15  1  0
 16 24  1  0
 17 22  1  0
 18 19  1  0
 18 17  1  0
 20 19  1  0
 20 29  1  0
 20 21  1  0
 22 16  1  0
 22 21  1  0
 23 16  2  0
 24 25  1  0
 24 15  1  0
 26 27  2  0
 27 46  1  0
 28 27  1  0
 28 31  1  0
 29 30  1  0
 29 26  1  0
 30 28  2  0
 31 32  1  0
 32 33  2  0
 34 37  1  0
 34 33  1  0
 35 34  2  0
 36 35  1  0
 36 31  2  0
 37 38  1  0
 38 43  2  0
 38 39  1  0
 39 40  2  0
 41 40  1  0
 41 45  1  0
 42 41  2  0
 43 42  1  0
 44 43  1  0
 46 47  1  0
 47 50  1  0
 47 49  1  0
 48 46  2  0
 51 52  1  0
 51 26  1  0
 53 51  1  0
 54  4  1  0
 54 55  1  0
 56 67  2  0
 57 55  1  0
 57 62  1  0
 58 66  1  0
 58 68  1  0
 59 65  1  0
 59 61  1  0
 60 66  1  0
 61 60  1  0
 62 61  2  0
 63 64  1  0
 63 57  2  0
 64 59  2  0
 65 58  1  0
 66 56  1  0
 68 70  2  0
 69 68  1  0
 71 69  1  0
 72 81  2  0
 72 77  1  0
 73 69  1  0
 73 77  1  0
 74 73  1  0
 75 76  1  0
 75 74  1  0
 76 72  1  0
 77 78  2  0
 78 79  1  0
 80 79  2  0
 81 80  1  0
 82 56  1  0
 82 83  1  0
 82 92  1  0
 83 86  1  0
 84 88  1  0
 84 83  1  0
 85 84  2  0
 88 87  1  0
 90 88  1  0
 90 91  1  0
 90 89  1  0
 92 95  1  1
 92 93  1  0
 94 92  1  0
M  ISO  4  16 100  24 100  54 101  55 101
M  END
>  <TORSDO>  (16) 
F 21

>  <SCORE>  (16) 
-12.378

>  <name>  (16) 
15

>  <ligand_id>  (16) 
15

>  <original_smiles>  (16) 
[H]c1c([H])c([H])c2c(c1[H])C([H])([H])C([H])([H])C([H])([H])C2([H])N([H])C(=O)C1([H])N(C(=O)C([H])(N([H])C(=O)C([H])(N([H])C([H])([H])[H])C([H])([H])[H])C(C([H])([H])[H])(C([H])([H])[H])C([H])([H])[H])C([H])([H])c2c([H])c(OC([H])([H])c3nc(C([H])([H])C([H])([H])[H])c(C([H])(C([H])([H])[H])C([H])(C([H])([H])[H])C([H])([H])N([H])C(=O)N4C([H])([H])C([H])([H])C([H])([H])C([H])(n5nc(-c6c([H])c([H])c(Oc7c([H])c([H])c(F)c([H])c7F)c([H])c6[H])c(C(=O)N([H])[H])c5N([H])[H])C4([H])[H])c(C([H])([H])[H])c3C([H])([H])[H])c([H])c([H])c2C1([H])[H]

>  <smiles>  (16) 
[H]c1c([H])c([H])c2c(c1[H])C([H])([H])C([H])([H])C([H])([H])C2([H])N([H])C(=O)C1([H])N(C(=O)C([H])(N([H])C(=O)C([H])(N([H])C([H])([H])[H])C([H])([H])[H])C(C([H])([H])[H])(C([H])([H])[H])C([H])([H])[H])C([H])([H])c2c([H])c(OC([H])([H])c3nc(C([H])([H])C([H])([H])[H])c(C([H])(C([H])([H])[H])C([H])(C([H])([H])[H])C([H])([H])N([H])C(=O)N4C([H])([H])C([H])([H])C([H])([H])C([H])(n5nc(-c6c([H])c([H])c(Oc7c([H])c([H])c(F)c([H])c7F)c([H])c6[H])c(C(=O)N([H])[H])c5N([H])[H])C4([H])[H])c(C([H])([H])[H])c3C([H])([H])[H])c([H])c([H])c2C1([H])[H]

$$$$
16:0:0
     RDKit          3D

 94102  0  0  1  0  0  0  0  0999 V2000
  -28.5660  -18.6440   20.3340 C   0  0  0  0  0  3  0  0  0  0  0  0
  -29.7920  -20.3920   20.9680 C   0  0  0  0  0  3  0  0  0  0  0  0
  -29.8380  -19.0250   20.8560 C   0  0  0  0  0  0  0  0  0  0  0  0
  -27.7890  -19.7570   20.1720 C   0  0  0  0  0  0  0  0  0  0  0  0
  -26.3750  -19.8800   19.6990 C   0  0  0  0  0  1  0  0  0  0  0  0
  -28.5480  -20.8490   20.5650 N   0  0  0  0  0  0  0  0  0  0  0  0
  -30.6790  -17.5390   22.6650 C   0  0  0  0  0  1  0  0  0  0  0  0
  -32.3130  -18.8410   21.2920 C   0  0  0  0  0  1  0  0  0  0  0  0
  -30.9730  -18.0730   21.2430 C   0  0  2  0  0  0  0  0  0  0  0  0
  -31.1100  -16.9340   20.1790 C   0  0  0  0  0  2  0  0  0  0  0  0
  -31.5410  -14.4840   20.3530 C   0  0  0  0  0  0  0  0  0  0  0  0
  -31.3230  -12.0940   19.7980 C   0  0  0  0  0  2  0  0  0  0  0  0
  -30.4540  -11.9540   18.5320 C   0  0  0  0  0  2  0  0  0  0  0  0
  -28.9590  -11.9040   18.8990 C   0  0  0  0  0  2  0  0  0  0  0  0
  -28.5410  -13.0450   19.8640 C   0  0  0  0  0  3  0  0  0  0  0  0
  -29.5250  -13.1440   21.0520 C   0  0  0  0  0  2  0  0  0  0  0  0
  -30.8860  -13.3050   20.5120 N   0  0  0  0  0  0  0  0  0  0  0  0
  -32.6550  -14.5710   19.8290 O   0  0  0  0  0  0  0  0  0  0  0  0
  -30.8350  -15.5780   20.6720 N   0  0  0  0  0  0  0  0  0  0  0  0
  -29.9440  -15.4270   21.1190 H   0  0  0  0  0  0  0  0  0  0  0  0
  -26.2020  -13.8490   20.5830 C   0  0  0  0  0  0  0  0  0  0  0  0
  -25.0620  -13.1660   20.9100 C   0  0  0  0  0  0  0  0  0  0  0  0
  -25.3920  -11.7780   20.8160 C   0  0  0  0  0  0  0  0  0  0  0  0
  -27.1600  -12.8830   20.3160 N   0  0  0  0  0  0  0  0  0  0  0  0
  -26.6750  -11.6310   20.5130 N   0  0  0  0  0  0  0  0  0  0  0  0
  -24.5480  -10.5840   20.9440 C   0  0  0  0  0  0  0  0  0  0  0  0
  -24.8160   -9.5900   21.9120 C   0  0  0  0  0  3  0  0  0  0  0  0
  -23.9780   -8.4600   22.0270 C   0  0  0  0  0  3  0  0  0  0  0  0
  -22.8590   -8.3150   21.1720 C   0  0  0  0  0  0  0  0  0  0  0  0
  -22.6110   -9.2970   20.1950 C   0  0  0  0  0  3  0  0  0  0  0  0
  -23.4480  -10.4180   20.0790 C   0  0  0  0  0  3  0  0  0  0  0  0
  -22.0050   -7.2400   21.1940 O   0  0  0  0  0  0  0  0  0  0  0  0
  -21.6980   -6.5890   22.3620 C   0  0  0  0  0  0  0  0  0  0  0  0
  -21.0870   -7.2550   23.4480 C   0  0  0  0  0  3  0  0  0  0  0  0
  -20.7240   -6.5330   24.6020 C   0  0  0  0  0  3  0  0  0  0  0  0
  -20.9620   -5.1470   24.6710 C   0  0  0  0  0  0  0  0  0  0  0  0
  -21.5660   -4.4810   23.5890 C   0  0  0  0  0  3  0  0  0  0  0  0
  -21.9300   -5.2010   22.4380 C   0  0  0  0  0  0  0  0  0  0  0  0
  -22.4910   -4.5510   21.3890 F   0  0  0  0  0  0  0  0  0  0  0  0
  -20.6060   -4.4510   25.7750 F   0  0  0  0  0  0  0  0  0  0  0  0
  -23.7140  -13.7600   21.2010 C   0  0  0  0  0  0  0  0  0  0  0  0
  -22.9260  -13.1060   22.0460 N   0  0  0  0  0  0  0  0  0  0  0  0
  -23.3720  -14.8370   20.7140 O   0  0  0  0  0  0  0  0  0  0  0  0
  -23.2160  -12.2310   22.4580 H   0  0  0  0  0  0  0  0  0  0  0  0
  -22.0200  -13.4840   22.2830 H   0  0  0  0  0  0  0  0  0  0  0  0
  -26.4980  -15.2040   20.4700 N   0  0  0  0  0  0  0  0  0  0  0  0
  -25.7980  -15.9210   20.6210 H   0  0  0  0  0  0  0  0  0  0  0  0
  -27.3820  -15.5720   20.1460 H   0  0  0  0  0  0  0  0  0  0  0  0
  -28.1230  -22.2450   20.5810 C   0  0  0  0  0  2  0  0  0  0  0  0
  -28.4670  -22.9820   19.2770 C   0  0  0  0  0  2  0  0  0  0  0  0
  -27.9390  -24.4320   19.2670 C   0  0  0  0  0  2  0  0  0  0  0  0
  -28.2780  -24.9490   16.7240 C   0  0  0  0  0  1  0  0  0  0  0  0
  -28.5830  -25.3320   18.1850 C   0  0  0  0  0  3  0  0  0  0  0  0
  -28.4540  -26.7370   18.4540 O   0  0  0  0  0  0  0  0  0  0  0  0
  -24.8110  -30.9830   22.8230 C   0  0  0  0  0  0  0  0  0  0  0  0
  -27.2430  -27.3650   18.6700 C   0  0  0  0  0  0  0  0  0  0  0  0
  -23.4970  -29.9580   20.9950 C   0  0  0  0  0  3  0  0  0  0  0  0
  -24.8490  -28.7920   19.1780 C   0  0  0  0  0  0  0  0  0  0  0  0
  -26.0040  -30.3890   20.7170 C   0  0  0  0  0  2  0  0  0  0  0  0
  -26.0440  -29.1950   19.7830 C   0  0  0  0  0  0  0  0  0  0  0  0
  -27.2410  -28.4930   19.5240 C   0  0  0  0  0  3  0  0  0  0  0  0
  -26.0210  -26.9630   18.0870 C   0  0  0  0  0  3  0  0  0  0  0  0
  -24.8300  -27.6720   18.3310 C   0  0  0  0  0  3  0  0  0  0  0  0
  -23.6140  -29.6050   19.4890 C   0  0  0  0  0  2  0  0  0  0  0  0
  -24.7930  -30.4440   21.5710 N   0  0  0  0  0  0  0  0  0  0  0  0
  -23.7700  -31.1170   23.4790 O   0  0  0  0  0  0  0  0  0  0  0  0
  -22.9120  -28.7390   21.7460 C   0  0  0  0  0  0  0  0  0  0  0  0
  -21.5850  -28.5590   21.6540 N   0  0  0  0  0  0  0  0  0  0  0  0
  -23.6470  -27.9670   22.3680 O   0  0  0  0  0  0  0  0  0  0  0  0
  -21.0510  -29.2410   21.1340 H   0  0  0  0  0  0  0  0  0  0  0  0
  -18.2630  -27.1870   22.0260 C   0  0  0  0  0  0  0  0  0  0  0  0
  -20.8220  -27.4600   22.2470 C   0  0  0  0  0  3  0  0  0  0  0  0
  -20.9330  -26.1790   21.3890 C   0  0  0  0  0  2  0  0  0  0  0  0
  -19.7950  -26.0340   20.3730 C   0  0  0  0  0  2  0  0  0  0  0  0
  -18.4390  -26.0070   21.0840 C   0  0  0  0  0  2  0  0  0  0  0  0
  -19.3830  -27.8780   22.5590 C   0  0  0  0  0  0  0  0  0  0  0  0
  -19.1670  -28.9900   23.4000 C   0  0  0  0  0  3  0  0  0  0  0  0
  -17.8610  -29.4160   23.7110 C   0  0  0  0  0  3  0  0  0  0  0  0
  -16.7540  -28.7180   23.1950 C   0  0  0  0  0  3  0  0  0  0  0  0
  -16.9560  -27.6050   22.3600 C   0  0  0  0  0  3  0  0  0  0  0  0
  -26.1380  -31.4800   23.4780 C   0  0  0  0  0  3  0  0  0  0  0  0
  -25.8730  -32.7970   24.0690 N   0  0  0  0  0  0  0  0  0  0  0  0
  -26.2560  -33.9620   23.5330 C   0  0  0  0  0  0  0  0  0  0  0  0
  -26.9430  -34.0350   22.5100 O   0  0  0  0  0  0  0  0  0  0  0  0
  -25.2810  -32.8170   24.8850 H   0  0  0  0  0  0  0  0  0  0  0  0
  -24.6420  -35.8880   23.4640 C   0  0  0  0  0  1  0  0  0  0  0  0
  -25.8030  -35.2510   24.2440 C   0  0  0  0  0  3  0  0  0  0  0  0
  -27.9070  -35.8120   25.3760 C   0  0  0  0  0  1  0  0  0  0  0  0
  -26.8900  -36.2390   24.4190 N   0  0  0  0  0  0  0  0  0  0  0  0
  -26.5160  -37.1310   24.7320 H   0  0  0  0  0  0  0  0  0  0  0  0
  -26.7090  -30.4880   24.5640 C   0  0  1  0  0  0  0  0  0  0  0  0
  -25.6710  -30.0770   25.6340 C   0  0  0  0  0  1  0  0  0  0  0  0
  -27.2470  -29.2010   23.8990 C   0  0  0  0  0  1  0  0  0  0  0  0
  -27.9060  -31.1450   25.2920 C   0  0  0  0  0  1  0  0  0  0  0  0
  1  3  1  0
  3  2  2  0
  3  9  1  0
  4  1  2  0
  4  6  1  0
  5  4  1  0
  6 49  1  0
  6  2  1  0
  9  8  1  1
  9  7  1  0
 10 19  1  0
 10  9  1  0
 11 17  1  0
 11 19  1  0
 12 17  1  0
 13 14  1  0
 13 12  1  0
 15 14  1  0
 15 24  1  0
 15 16  1  0
 17 16  1  0
 18 11  2  0
 19 20  1  0
 21 22  2  0
 22 41  1  0
 23 22  1  0
 23 26  1  0
 24 25  1  0
 24 21  1  0
 25 23  2  0
 26 27  1  0
 27 28  2  0
 29 32  1  0
 29 28  1  0
 30 29  2  0
 31 30  1  0
 31 26  2  0
 32 33  1  0
 33 38  2  0
 33 34  1  0
 34 35  2  0
 35 36  1  0
 36 40  1  0
 37 36  2  0
 38 37  1  0
 39 38  1  0
 41 42  1  0
 42 45  1  0
 42 44  1  0
 43 41  2  0
 46 21  1  0
 46 47  1  0
 48 46  1  0
 50 49  1  0
 51 50  1  0
 53 52  1  0
 53 54  1  0
 53 51  1  0
 54 56  1  0
 55 66  2  0
 56 61  1  0
 57 65  1  0
 57 67  1  0
 58 64  1  0
 58 60  1  0
 59 65  1  0
 60 59  1  0
 61 60  2  0
 62 63  1  0
 62 56  2  0
 63 58  2  0
 64 57  1  0
 65 55  1  0
 67 69  2  0
 68 67  1  0
 70 68  1  0
 71 80  2  0
 71 76  1  0
 72 68  1  0
 72 76  1  0
 73 72  1  0
 74 75  1  0
 74 73  1  0
 75 71  1  0
 76 77  2  0
 77 78  1  0
 79 78  2  0
 80 79  1  0
 81 55  1  0
 81 82  1  0
 81 91  1  0
 82 85  1  0
 83 82  1  0
 83 87  1  0
 84 83  2  0
 87 86  1  0
 87 89  1  0
 89 90  1  0
 89 88  1  0
 91 94  1  1
 91 92  1  0
 93 91  1  0
M  ISO  4  11 100  19 100  53 101  54 101
M  END
>  <TORSDO>  (17) 
F 22

>  <SCORE>  (17) 
-9.259

>  <name>  (17) 
16

>  <ligand_id>  (17) 
16

>  <original_smiles>  (17) 
[H]c1c([H])c([H])c2c(c1[H])C([H])([H])C([H])([H])C([H])([H])C2([H])N([H])C(=O)C1([H])N(C(=O)C([H])(N([H])C(=O)C([H])(N([H])C([H])([H])[H])C([H])([H])[H])C(C([H])([H])[H])(C([H])([H])[H])C([H])([H])[H])C([H])([H])c2c([H])c(OC([H])(C([H])([H])[H])C([H])([H])C([H])([H])C([H])([H])n3c([H])c(C(C([H])([H])[H])(C([H])([H])[H])C([H])([H])N([H])C(=O)N4C([H])([H])C([H])([H])C([H])([H])C([H])(n5nc(-c6c([H])c([H])c(Oc7c([H])c([H])c(F)c([H])c7F)c([H])c6[H])c(C(=O)N([H])[H])c5N([H])[H])C4([H])[H])c([H])c3C([H])([H])[H])c([H])c([H])c2C1([H])[H]

>  <smiles>  (17) 
[H]c1c([H])c([H])c2c(c1[H])C([H])([H])C([H])([H])C([H])([H])C2([H])N([H])C(=O)C1([H])N(C(=O)C([H])(N([H])C(=O)C([H])(N([H])C([H])([H])[H])C([H])([H])[H])C(C([H])([H])[H])(C([H])([H])[H])C([H])([H])[H])C([H])([H])c2c([H])c(OC([H])(C([H])([H])[H])C([H])([H])C([H])([H])C([H])([H])n3c([H])c(C(C([H])([H])[H])(C([H])([H])[H])C([H])([H])N([H])C(=O)N4C([H])([H])C([H])([H])C([H])([H])C([H])(n5nc(-c6c([H])c([H])c(Oc7c([H])c([H])c(F)c([H])c7F)c([H])c6[H])c(C(=O)N([H])[H])c5N([H])[H])C4([H])[H])c([H])c3C([H])([H])[H])c([H])c([H])c2C1([H])[H]

$$$$
17:0:0
     RDKit          3D

 93101  0  0  1  0  0  0  0  0999 V2000
  -28.8990  -22.0190   19.3330 C   0  0  0  0  0  3  0  0  0  0  0  0
  -29.2360  -21.2880   20.5100 C   0  0  0  0  0  0  0  0  0  0  0  0
  -28.9500  -24.1090   20.4550 C   0  0  0  0  0  0  0  0  0  0  0  0
  -29.2430  -23.3680   21.6660 C   0  0  0  0  0  0  0  0  0  0  0  0
  -28.7830  -23.3940   19.2970 N   0  0  0  0  0  0  0  0  0  0  0  0
  -29.4360  -22.0060   21.6430 N   0  0  0  0  0  0  0  0  0  0  0  0
  -28.6360  -25.2130   23.4790 C   0  0  0  0  0  1  0  0  0  0  0  0
  -30.9550  -24.2830   23.2720 C   0  0  0  0  0  1  0  0  0  0  0  0
  -29.0450  -22.9290   24.1850 C   0  0  0  0  0  1  0  0  0  0  0  0
  -29.4620  -23.9580   23.0990 C   0  0  2  0  0  0  0  0  0  0  0  0
  -29.1830  -19.7110   20.6920 C   0  0  0  0  0  2  0  0  0  0  0  0
  -30.3570  -18.7370   20.2190 C   0  0  0  0  0  2  0  0  0  0  0  0
  -30.6900  -17.3620   20.9910 C   0  0  0  0  0  2  0  0  0  0  0  0
  -30.9850  -14.8760   20.2440 C   0  0  0  0  0  0  0  0  0  0  0  0
  -30.7220  -12.6330   19.1830 C   0  0  0  0  0  2  0  0  0  0  0  0
  -29.7740  -12.7490   17.9710 C   0  0  0  0  0  2  0  0  0  0  0  0
  -28.3030  -12.6250   18.4120 C   0  0  0  0  0  2  0  0  0  0  0  0
  -27.9660  -13.5090   19.6440 C   0  0  0  0  0  3  0  0  0  0  0  0
  -29.0270  -13.3560   20.7540 C   0  0  0  0  0  2  0  0  0  0  0  0
  -30.3270  -13.6760   20.1520 N   0  0  0  0  0  0  0  0  0  0  0  0
  -32.1720  -14.9720   19.9210 O   0  0  0  0  0  0  0  0  0  0  0  0
  -30.2330  -15.9940   20.5340 N   0  0  0  0  0  0  0  0  0  0  0  0
  -29.2520  -15.8030   20.6740 H   0  0  0  0  0  0  0  0  0  0  0  0
  -25.6050  -14.1650   20.4060 C   0  0  0  0  0  0  0  0  0  0  0  0
  -24.5150  -13.4170   20.7610 C   0  0  0  0  0  0  0  0  0  0  0  0
  -24.9320  -12.0530   20.6870 C   0  0  0  0  0  0  0  0  0  0  0  0
  -26.6160  -13.2580   20.1370 N   0  0  0  0  0  0  0  0  0  0  0  0
  -26.2180  -11.9810   20.3670 N   0  0  0  0  0  0  0  0  0  0  0  0
  -24.1640  -10.8110   20.8410 C   0  0  0  0  0  0  0  0  0  0  0  0
  -24.5660   -9.8020   21.7440 C   0  0  0  0  0  3  0  0  0  0  0  0
  -23.8000   -8.6250   21.8900 C   0  0  0  0  0  3  0  0  0  0  0  0
  -22.6180   -8.4490   21.1320 C   0  0  0  0  0  0  0  0  0  0  0  0
  -22.2360   -9.4460   20.2170 C   0  0  0  0  0  3  0  0  0  0  0  0
  -23.0020  -10.6140   20.0700 C   0  0  0  0  0  3  0  0  0  0  0  0
  -21.8250   -7.3290   21.1880 O   0  0  0  0  0  0  0  0  0  0  0  0
  -21.7340   -6.5670   22.3260 C   0  0  0  0  0  0  0  0  0  0  0  0
  -21.3140   -7.1150   23.5570 C   0  0  0  0  0  3  0  0  0  0  0  0
  -21.1690   -6.2820   24.6850 C   0  0  0  0  0  3  0  0  0  0  0  0
  -21.4340   -4.9030   24.5820 C   0  0  0  0  0  0  0  0  0  0  0  0
  -21.8480   -4.3560   23.3550 C   0  0  0  0  0  3  0  0  0  0  0  0
  -21.9950   -5.1850   22.2300 C   0  0  0  0  0  0  0  0  0  0  0  0
  -22.3730   -4.6480   21.0440 F   0  0  0  0  0  0  0  0  0  0  0  0
  -21.2880   -4.1010   25.6640 F   0  0  0  0  0  0  0  0  0  0  0  0
  -23.1370  -13.9330   21.0570 C   0  0  0  0  0  0  0  0  0  0  0  0
  -22.3950  -13.2400   21.9140 N   0  0  0  0  0  0  0  0  0  0  0  0
  -22.7270  -14.9840   20.5640 O   0  0  0  0  0  0  0  0  0  0  0  0
  -22.7390  -12.3880   22.3310 H   0  0  0  0  0  0  0  0  0  0  0  0
  -21.4700  -13.5660   22.1570 H   0  0  0  0  0  0  0  0  0  0  0  0
  -25.8130  -15.5340   20.2650 N   0  0  0  0  0  0  0  0  0  0  0  0
  -25.0660  -16.2080   20.3960 H   0  0  0  0  0  0  0  0  0  0  0  0
  -26.6620  -15.9540   19.9080 H   0  0  0  0  0  0  0  0  0  0  0  0
  -28.7990  -25.6920   20.4560 C   0  0  0  0  0  2  0  0  0  0  0  0
  -28.6490  -26.5660   19.2730 O   0  0  0  0  0  0  0  0  0  0  0  0
  -24.9120  -31.6000   22.9110 C   0  0  0  0  0  0  0  0  0  0  0  0
  -27.5450  -27.4220   19.3640 C   0  0  0  0  0  0  0  0  0  0  0  0
  -23.6770  -30.2380   21.2670 C   0  0  0  0  0  3  0  0  0  0  0  0
  -25.1070  -28.8740   19.6390 C   0  0  0  0  0  0  0  0  0  0  0  0
  -26.1740  -30.7240   20.9300 C   0  0  0  0  0  2  0  0  0  0  0  0
  -26.2890  -29.3960   20.1870 C   0  0  0  0  0  0  0  0  0  0  0  0
  -27.5150  -28.6790   20.0460 C   0  0  0  0  0  3  0  0  0  0  0  0
  -26.3420  -26.9510   18.8010 C   0  0  0  0  0  3  0  0  0  0  0  0
  -25.1320  -27.6560   18.9410 C   0  0  0  0  0  3  0  0  0  0  0  0
  -23.8290  -29.6670   19.8330 C   0  0  0  0  0  2  0  0  0  0  0  0
  -24.9430  -30.8670   21.7600 N   0  0  0  0  0  0  0  0  0  0  0  0
  -23.8540  -31.7770   23.5340 O   0  0  0  0  0  0  0  0  0  0  0  0
  -23.1400  -29.1240   22.1960 C   0  0  0  0  0  0  0  0  0  0  0  0
  -21.8270  -28.8490   22.1180 N   0  0  0  0  0  0  0  0  0  0  0  0
  -23.9020  -28.5120   22.9480 O   0  0  0  0  0  0  0  0  0  0  0  0
  -21.2650  -29.4040   21.4870 H   0  0  0  0  0  0  0  0  0  0  0  0
  -18.5950  -27.3060   22.6260 C   0  0  0  0  0  0  0  0  0  0  0  0
  -21.1190  -27.8110   22.8680 C   0  0  0  0  0  3  0  0  0  0  0  0
  -21.3540  -26.4140   22.2460 C   0  0  0  0  0  2  0  0  0  0  0  0
  -20.2740  -26.0140   21.2390 C   0  0  0  0  0  2  0  0  0  0  0  0
  -18.8940  -26.0010   21.9050 C   0  0  0  0  0  2  0  0  0  0  0  0
  -19.6390  -28.1630   23.0620 C   0  0  0  0  0  0  0  0  0  0  0  0
  -19.3070  -29.3800   23.6970 C   0  0  0  0  0  3  0  0  0  0  0  0
  -17.9610  -29.7440   23.8950 C   0  0  0  0  0  3  0  0  0  0  0  0
  -16.9310  -28.8830   23.4760 C   0  0  0  0  0  3  0  0  0  0  0  0
  -17.2490  -27.6660   22.8480 C   0  0  0  0  0  3  0  0  0  0  0  0
  -26.1950  -32.2710   23.4860 C   0  0  0  0  0  3  0  0  0  0  0  0
  -25.8210  -33.6040   23.9820 N   0  0  0  0  0  0  0  0  0  0  0  0
  -26.0520  -34.7500   23.3300 C   0  0  0  0  0  0  0  0  0  0  0  0
  -26.6720  -34.8010   22.2650 O   0  0  0  0  0  0  0  0  0  0  0  0
  -25.2650  -33.6310   24.8230 H   0  0  0  0  0  0  0  0  0  0  0  0
  -24.2080  -36.4580   23.2480 C   0  0  0  0  0  1  0  0  0  0  0  0
  -25.5090  -36.0490   23.9590 C   0  0  0  0  0  3  0  0  0  0  0  0
  -27.6280  -36.9660   24.7900 C   0  0  0  0  0  1  0  0  0  0  0  0
  -26.4730  -37.1700   23.9200 N   0  0  0  0  0  0  0  0  0  0  0  0
  -26.0230  -38.0420   24.1900 H   0  0  0  0  0  0  0  0  0  0  0  0
  -26.8760  -31.4260   24.6320 C   0  0  1  0  0  0  0  0  0  0  0  0
  -25.9000  -31.0050   25.7580 C   0  0  0  0  0  1  0  0  0  0  0  0
  -27.5100  -30.1390   24.0540 C   0  0  0  0  0  1  0  0  0  0  0  0
  -28.0280  -32.2340   25.2710 C   0  0  0  0  0  1  0  0  0  0  0  0
  1  2  1  0
  2 11  1  0
  2  6  2  0
  3 52  1  0
  3  4  2  0
  4 10  1  0
  5  1  2  0
  5  3  1  0
  6  4  1  0
 10  8  1  1
 10  7  1  0
 10  9  1  0
 12 11  1  0
 12 13  1  0
 14 22  1  0
 15 20  1  0
 16 17  1  0
 16 15  1  0
 18 17  1  0
 18 27  1  0
 18 19  1  0
 20 14  1  0
 20 19  1  0
 21 14  2  0
 22 23  1  0
 22 13  1  0
 24 25  2  0
 25 44  1  0
 26 25  1  0
 26 29  1  0
 27 28  1  0
 27 24  1  0
 28 26  2  0
 29 30  1  0
 30 31  2  0
 32 35  1  0
 32 31  1  0
 33 32  2  0
 34 33  1  0
 34 29  2  0
 35 36  1  0
 36 37  1  0
 37 38  2  0
 39 38  1  0
 39 43  1  0
 40 39  2  0
 41 36  2  0
 41 40  1  0
 42 41  1  0
 44 45  1  0
 45 48  1  0
 45 47  1  0
 46 44  2  0
 49 50  1  0
 49 24  1  0
 51 49  1  0
 53 55  1  0
 53 52  1  0
 54 65  2  0
 55 60  1  0
 56 64  1  0
 56 66  1  0
 57 63  1  0
 57 59  1  0
 58 64  1  0
 59 58  1  0
 60 59  2  0
 61 62  1  0
 61 55  2  0
 62 57  2  0
 63 56  1  0
 64 54  1  0
 66 68  2  0
 67 66  1  0
 69 67  1  0
 70 79  2  0
 70 75  1  0
 71 67  1  0
 71 75  1  0
 72 71  1  0
 73 74  1  0
 73 72  1  0
 74 70  1  0
 75 76  2  0
 76 77  1  0
 78 77  2  0
 79 78  1  0
 80 54  1  0
 80 81  1  0
 80 90  1  0
 81 84  1  0
 82 86  1  0
 82 81  1  0
 83 82  2  0
 86 85  1  0
 88 86  1  0
 88 89  1  0
 88 87  1  0
 90 93  1  1
 90 91  1  0
 92 90  1  0
M  ISO  4  14 100  22 100  52 101  53 101
M  END
>  <TORSDO>  (18) 
F 21

>  <SCORE>  (18) 
-8.801

>  <name>  (18) 
17

>  <ligand_id>  (18) 
17

>  <original_smiles>  (18) 
[H]c1nc(C([H])([H])Oc2c([H])c([H])c3c(c2[H])C([H])([H])N(C(=O)C([H])(N([H])C(=O)C([H])(N([H])C([H])([H])[H])C([H])([H])[H])C(C([H])([H])[H])(C([H])([H])[H])C([H])([H])[H])C([H])(C(=O)N([H])C2([H])c4c([H])c([H])c([H])c([H])c4C([H])([H])C([H])([H])C2([H])[H])C3([H])[H])c(C(C([H])([H])[H])(C([H])([H])[H])C([H])([H])[H])nc1C([H])([H])C([H])([H])C([H])([H])N([H])C(=O)N1C([H])([H])C([H])([H])C([H])([H])C([H])(n2nc(-c3c([H])c([H])c(Oc4c([H])c([H])c(F)c([H])c4F)c([H])c3[H])c(C(=O)N([H])[H])c2N([H])[H])C1([H])[H]

>  <smiles>  (18) 
[H]c1nc(C([H])([H])Oc2c([H])c([H])c3c(c2[H])C([H])([H])N(C(=O)C([H])(N([H])C(=O)C([H])(N([H])C([H])([H])[H])C([H])([H])[H])C(C([H])([H])[H])(C([H])([H])[H])C([H])([H])[H])C([H])(C(=O)N([H])C2([H])c4c([H])c([H])c([H])c([H])c4C([H])([H])C([H])([H])C2([H])[H])C3([H])[H])c(C(C([H])([H])[H])(C([H])([H])[H])C([H])([H])[H])nc1C([H])([H])C([H])([H])C([H])([H])N([H])C(=O)N1C([H])([H])C([H])([H])C([H])([H])C([H])(n2nc(-c3c([H])c([H])c(Oc4c([H])c([H])c(F)c([H])c4F)c([H])c3[H])c(C(=O)N([H])[H])c2N([H])[H])C1([H])[H]

$$$$
19:0:0
     RDKit          3D

 97105  0  0  1  0  0  0  0  0999 V2000
  -30.8430  -21.9810   19.6440 C   0  0  0  0  0  3  0  0  0  0  0  0
  -29.0310  -20.4940   20.2140 C   0  0  0  0  0  3  0  0  0  0  0  0
  -29.5010  -21.8200   20.0340 C   0  0  0  0  0  0  0  0  0  0  0  0
  -31.6410  -20.8440   19.4390 C   0  0  0  0  0  0  0  0  0  0  0  0
  -29.8990  -19.3990   19.9860 C   0  0  0  0  0  0  0  0  0  0  0  0
  -31.1800  -19.5830   19.5920 N   0  0  0  0  0  0  0  0  0  0  0  0
  -29.1960  -17.3950   18.6190 C   0  0  0  0  0  1  0  0  0  0  0  0
  -29.3970  -17.9410   20.0410 C   0  0  0  0  0  3  0  0  0  0  0  0
  -30.2790  -17.0050   20.9330 C   0  0  0  0  0  2  0  0  0  0  0  0
  -30.6100  -14.5380   20.4900 C   0  0  0  0  0  0  0  0  0  0  0  0
  -30.3200  -12.3890   19.3250 C   0  0  0  0  0  2  0  0  0  0  0  0
  -29.3660  -12.6050   18.1320 C   0  0  0  0  0  2  0  0  0  0  0  0
  -27.8960  -12.4610   18.5690 C   0  0  0  0  0  2  0  0  0  0  0  0
  -27.5650  -13.2710   19.8500 C   0  0  0  0  0  3  0  0  0  0  0  0
  -28.6320  -13.0400   20.9430 C   0  0  0  0  0  2  0  0  0  0  0  0
  -29.9470  -13.3580   20.3660 N   0  0  0  0  0  0  0  0  0  0  0  0
  -31.7560  -14.7080   20.0620 O   0  0  0  0  0  0  0  0  0  0  0  0
  -29.8760  -15.5770   20.9370 N   0  0  0  0  0  0  0  0  0  0  0  0
  -28.9430  -15.3620   21.2530 H   0  0  0  0  0  0  0  0  0  0  0  0
  -25.1630  -13.8530   20.5610 C   0  0  0  0  0  0  0  0  0  0  0  0
  -24.1040  -13.0690   20.9290 C   0  0  0  0  0  0  0  0  0  0  0  0
  -24.5770  -11.7230   20.8980 C   0  0  0  0  0  0  0  0  0  0  0  0
  -26.2180  -12.9830   20.3340 N   0  0  0  0  0  0  0  0  0  0  0  0
  -25.8680  -11.6970   20.5920 N   0  0  0  0  0  0  0  0  0  0  0  0
  -23.8620  -10.4550   21.0880 C   0  0  0  0  0  0  0  0  0  0  0  0
  -24.3070   -9.4890   22.0180 C   0  0  0  0  0  3  0  0  0  0  0  0
  -23.5920   -8.2850   22.1940 C   0  0  0  0  0  3  0  0  0  0  0  0
  -22.4200   -8.0390   21.4420 C   0  0  0  0  0  0  0  0  0  0  0  0
  -21.9960   -8.9920   20.4990 C   0  0  0  0  0  3  0  0  0  0  0  0
  -22.7100  -10.1880   20.3200 C   0  0  0  0  0  3  0  0  0  0  0  0
  -21.6760   -6.8870   21.5290 O   0  0  0  0  0  0  0  0  0  0  0  0
  -21.6390   -6.1390   22.6790 C   0  0  0  0  0  0  0  0  0  0  0  0
  -21.2090   -6.6820   23.9090 C   0  0  0  0  0  3  0  0  0  0  0  0
  -21.1200   -5.8600   25.0500 C   0  0  0  0  0  3  0  0  0  0  0  0
  -21.4540   -4.4940   24.9610 C   0  0  0  0  0  0  0  0  0  0  0  0
  -21.8790   -3.9520   23.7360 C   0  0  0  0  0  3  0  0  0  0  0  0
  -21.9690   -4.7720   22.5980 C   0  0  0  0  0  0  0  0  0  0  0  0
  -22.3560   -4.2390   21.4140 F   0  0  0  0  0  0  0  0  0  0  0  0
  -21.3640   -3.7010   26.0540 F   0  0  0  0  0  0  0  0  0  0  0  0
  -22.7010  -13.5310   21.2020 C   0  0  0  0  0  0  0  0  0  0  0  0
  -21.9840  -12.8260   22.0700 N   0  0  0  0  0  0  0  0  0  0  0  0
  -22.2500  -14.5530   20.6840 O   0  0  0  0  0  0  0  0  0  0  0  0
  -22.3590  -11.9990   22.5110 H   0  0  0  0  0  0  0  0  0  0  0  0
  -21.0430  -13.1190   22.2970 H   0  0  0  0  0  0  0  0  0  0  0  0
  -25.3100  -15.2260   20.3780 N   0  0  0  0  0  0  0  0  0  0  0  0
  -24.5350  -15.8710   20.4820 H   0  0  0  0  0  0  0  0  0  0  0  0
  -26.1430  -15.6730   20.0170 H   0  0  0  0  0  0  0  0  0  0  0  0
  -27.6330  -23.1200   18.9580 C   0  0  0  0  0  1  0  0  0  0  0  0
  -28.5570  -23.0220   20.1890 C   0  0  0  0  0  3  0  0  0  0  0  0
  -29.2690  -24.3880   20.4510 C   0  0  0  0  0  2  0  0  0  0  0  0
  -28.3420  -25.5050   20.9940 C   0  0  0  0  0  2  0  0  0  0  0  0
  -28.4630  -26.7460   20.2750 O   0  0  0  0  0  0  0  0  0  0  0  0
  -24.6180  -31.9360   23.2700 C   0  0  0  0  0  0  0  0  0  0  0  0
  -27.3080  -27.4930   20.2440 C   0  0  0  0  0  0  0  0  0  0  0  0
  -23.4320  -30.5170   21.6290 C   0  0  0  0  0  3  0  0  0  0  0  0
  -24.9080  -28.9850   20.2200 C   0  0  0  0  0  0  0  0  0  0  0  0
  -25.9580  -30.8900   21.4500 C   0  0  0  0  0  2  0  0  0  0  0  0
  -26.0580  -29.5190   20.8160 C   0  0  0  0  0  0  0  0  0  0  0  0
  -27.2630  -28.7820   20.8230 C   0  0  0  0  0  3  0  0  0  0  0  0
  -26.1440  -26.9760   19.6340 C   0  0  0  0  0  3  0  0  0  0  0  0
  -24.9460  -27.7130   19.6230 C   0  0  0  0  0  3  0  0  0  0  0  0
  -23.6560  -29.8320   20.2540 C   0  0  0  0  0  2  0  0  0  0  0  0
  -24.6860  -31.1290   22.1740 N   0  0  0  0  0  0  0  0  0  0  0  0
  -23.5290  -32.2060   23.7990 O   0  0  0  0  0  0  0  0  0  0  0  0
  -22.7800  -29.4960   22.5890 C   0  0  0  0  0  0  0  0  0  0  0  0
  -21.4610  -29.2930   22.4410 N   0  0  0  0  0  0  0  0  0  0  0  0
  -23.4590  -28.8890   23.4230 O   0  0  0  0  0  0  0  0  0  0  0  0
  -20.9770  -29.8290   21.7340 H   0  0  0  0  0  0  0  0  0  0  0  0
  -18.0930  -28.0680   22.8970 C   0  0  0  0  0  0  0  0  0  0  0  0
  -20.6440  -28.3540   23.2080 C   0  0  0  0  0  3  0  0  0  0  0  0
  -20.7740  -26.9210   22.6430 C   0  0  0  0  0  2  0  0  0  0  0  0
  -19.6910  -26.5780   21.6160 C   0  0  0  0  0  2  0  0  0  0  0  0
  -18.2960  -26.7140   22.2360 C   0  0  0  0  0  2  0  0  0  0  0  0
  -19.1970  -28.8440   23.3390 C   0  0  0  0  0  0  0  0  0  0  0  0
  -18.9570  -30.1100   23.9140 C   0  0  0  0  0  3  0  0  0  0  0  0
  -17.6470  -30.6040   24.0490 C   0  0  0  0  0  3  0  0  0  0  0  0
  -16.5560  -29.8230   23.6290 C   0  0  0  0  0  3  0  0  0  0  0  0
  -16.7810  -28.5560   23.0600 C   0  0  0  0  0  3  0  0  0  0  0  0
  -25.8970  -32.5780   23.8960 C   0  0  0  0  0  3  0  0  0  0  0  0
  -25.5820  -33.9780   24.2060 N   0  0  0  0  0  0  0  0  0  0  0  0
  -25.9140  -35.0200   23.4330 C   0  0  0  0  0  0  0  0  0  0  0  0
  -26.5920  -34.9050   22.4080 O   0  0  0  0  0  0  0  0  0  0  0  0
  -24.9830  -34.1410   25.0030 H   0  0  0  0  0  0  0  0  0  0  0  0
  -24.1820  -36.7980   23.0400 C   0  0  0  0  0  1  0  0  0  0  0  0
  -25.4170  -36.4130   23.8690 C   0  0  0  0  0  3  0  0  0  0  0  0
  -27.5410  -37.3160   24.7070 C   0  0  0  0  0  1  0  0  0  0  0  0
  -26.4480  -37.4670   23.7500 N   0  0  0  0  0  0  0  0  0  0  0  0
  -26.0370  -38.3870   23.8810 H   0  0  0  0  0  0  0  0  0  0  0  0
  -26.4030  -31.8220   25.1840 C   0  0  1  0  0  0  0  0  0  0  0  0
  -25.2980  -31.5920   26.2420 C   0  0  0  0  0  1  0  0  0  0  0  0
  -26.9950  -30.4420   24.8090 C   0  0  0  0  0  1  0  0  0  0  0  0
  -27.5460  -32.6240   25.8490 C   0  0  0  0  0  1  0  0  0  0  0  0
  -33.0700  -20.9940   18.9440 C   0  0  0  0  0  2  0  0  0  0  0  0
  -33.1610  -21.5870   17.5220 C   0  0  0  0  0  2  0  0  0  0  0  0
  -32.2900  -21.7000   15.1560 C   0  0  0  0  0  1  0  0  0  0  0  0
  -32.8640  -19.4410   16.1620 C   0  0  0  0  0  1  0  0  0  0  0  0
  -32.3340  -20.8590   16.4390 C   0  0  0  0  0  3  0  0  0  0  0  0
  1  3  1  0
  3 49  1  0
  3  2  2  0
  4  6  1  0
  4  1  2  0
  5  8  1  0
  5  2  1  0
  6  5  2  0
  8  7  1  0
  8  9  1  0
  9 18  1  0
 10 18  1  0
 11 16  1  0
 12 13  1  0
 12 11  1  0
 14 13  1  0
 14 23  1  0
 14 15  1  0
 16 10  1  0
 16 15  1  0
 17 10  2  0
 18 19  1  0
 20 21  2  0
 21 40  1  0
 22 21  1  0
 22 25  1  0
 23 20  1  0
 23 24  1  0
 24 22  2  0
 25 26  1  0
 26 27  2  0
 28 31  1  0
 28 27  1  0
 29 28  2  0
 30 29  1  0
 30 25  2  0
 31 32  1  0
 32 33  1  0
 33 34  2  0
 35 34  1  0
 35 39  1  0
 36 35  2  0
 37 32  2  0
 37 36  1  0
 38 37  1  0
 40 41  1  0
 41 44  1  0
 41 43  1  0
 42 40  2  0
 45 46  1  0
 45 20  1  0
 47 45  1  0
 49 48  1  0
 49 50  1  0
 50 51  1  0
 52 51  1  0
 53 64  2  0
 54 52  1  0
 54 59  1  0
 55 63  1  0
 55 65  1  0
 56 62  1  0
 56 58  1  0
 57 63  1  0
 58 59  2  0
 58 57  1  0
 60 54  2  0
 61 60  1  0
 61 56  2  0
 62 55  1  0
 63 53  1  0
 65 67  2  0
 66 65  1  0
 68 66  1  0
 69 78  2  0
 69 74  1  0
 70 66  1  0
 70 74  1  0
 71 70  1  0
 72 73  1  0
 72 71  1  0
 73 69  1  0
 74 75  2  0
 75 76  1  0
 77 76  2  0
 78 77  1  0
 79 53  1  0
 79 80  1  0
 79 89  1  0
 80 83  1  0
 81 85  1  0
 81 80  1  0
 82 81  2  0
 85 84  1  0
 87 85  1  0
 87 88  1  0
 87 86  1  0
 89 92  1  1
 89 90  1  0
 91 89  1  0
 93  4  1  0
 94 93  1  0
 95 97  1  0
 96 97  1  0
 97 94  1  0
M  ISO  4  10 100  18 100  51 101  52 101
M  END
>  <TORSDO>  (19) 
F 24

>  <SCORE>  (19) 
-12.693

>  <name>  (19) 
19

>  <ligand_id>  (19) 
19

>  <original_smiles>  (19) 
[H]c1c([H])c([H])c2c(c1[H])C([H])([H])C([H])([H])C([H])([H])C2([H])N([H])C(=O)C1([H])N(C(=O)C([H])(N([H])C(=O)C([H])(N([H])C([H])([H])[H])C([H])([H])[H])C(C([H])([H])[H])(C([H])([H])[H])C([H])([H])[H])C([H])([H])c2c([H])c(OC([H])([H])C([H])([H])C([H])(c3c([H])c(C([H])([H])C([H])([H])C([H])(C([H])([H])[H])C([H])([H])[H])nc(C([H])(C([H])([H])[H])C([H])([H])N([H])C(=O)N4C([H])([H])C([H])([H])C([H])([H])C([H])(n5nc(-c6c([H])c([H])c(Oc7c([H])c([H])c(F)c([H])c7F)c([H])c6[H])c(C(=O)N([H])[H])c5N([H])[H])C4([H])[H])c3[H])C([H])([H])[H])c([H])c([H])c2C1([H])[H]

>  <smiles>  (19) 
[H]c1c([H])c([H])c2c(c1[H])C([H])([H])C([H])([H])C([H])([H])C2([H])N([H])C(=O)C1([H])N(C(=O)C([H])(N([H])C(=O)C([H])(N([H])C([H])([H])[H])C([H])([H])[H])C(C([H])([H])[H])(C([H])([H])[H])C([H])([H])[H])C([H])([H])c2c([H])c(OC([H])([H])C([H])([H])C([H])(c3c([H])c(C([H])([H])C([H])([H])C([H])(C([H])([H])[H])C([H])([H])[H])nc(C([H])(C([H])([H])[H])C([H])([H])N([H])C(=O)N4C([H])([H])C([H])([H])C([H])([H])C([H])(n5nc(-c6c([H])c([H])c(Oc7c([H])c([H])c(F)c([H])c7F)c([H])c6[H])c(C(=O)N([H])[H])c5N([H])[H])C4([H])[H])c3[H])C([H])([H])[H])c([H])c([H])c2C1([H])[H]

$$$$
20:0:0
     RDKit          3D

 91 95  0  0  1  0  0  0  0  0999 V2000
  -29.5660  -19.4530   20.2130 C   0  0  0  0  0  2  0  0  0  0  0  0
  -30.1400  -16.0630   20.2060 C   0  0  0  0  0  0  0  0  0  0  0  0
  -30.3100  -13.4210   19.4190 C   0  0  0  0  0  2  0  0  0  0  0  0
  -29.4520  -12.8530   18.2410 C   0  0  0  0  0  2  0  0  0  0  0  0
  -28.0660  -12.4110   18.7220 C   0  0  0  0  0  2  0  0  0  0  0  0
  -27.5050  -13.4350   19.7280 C   0  0  0  0  0  3  0  0  0  0  0  0
  -28.5180  -13.9070   20.8140 C   0  0  0  0  0  2  0  0  0  0  0  0
  -29.6350  -14.6400   20.1280 N   0  0  0  0  0  0  0  0  0  0  0  0
  -31.3780  -15.9200   20.0580 O   0  0  0  0  0  0  0  0  0  0  0  0
  -29.4240  -17.5470   20.2670 N   0  0  0  0  0  0  0  0  0  0  0  0
  -28.4380  -17.3450   20.3570 H   0  0  0  0  0  0  0  0  0  0  0  0
  -25.1460  -13.9230   20.5050 C   0  0  0  0  0  0  0  0  0  0  0  0
  -24.0930  -13.1370   20.8730 C   0  0  0  0  0  0  0  0  0  0  0  0
  -24.5730  -11.7910   20.8410 C   0  0  0  0  0  0  0  0  0  0  0  0
  -26.1980  -13.0640   20.2610 N   0  0  0  0  0  0  0  0  0  0  0  0
  -25.8670  -11.7710   20.5280 N   0  0  0  0  0  0  0  0  0  0  0  0
  -23.8470  -10.5230   21.0310 C   0  0  0  0  0  0  0  0  0  0  0  0
  -24.2810   -9.5540   21.9620 C   0  0  0  0  0  3  0  0  0  0  0  0
  -23.5510   -8.3590   22.1440 C   0  0  0  0  0  3  0  0  0  0  0  0
  -22.3730   -8.1220   21.3950 C   0  0  0  0  0  0  0  0  0  0  0  0
  -21.9600   -9.0800   20.4540 C   0  0  0  0  0  3  0  0  0  0  0  0
  -22.6900  -10.2660   20.2700 C   0  0  0  0  0  3  0  0  0  0  0  0
  -21.6170   -6.9770   21.4870 O   0  0  0  0  0  0  0  0  0  0  0  0
  -21.5740   -6.2320   22.6390 C   0  0  0  0  0  0  0  0  0  0  0  0
  -21.1520   -6.7820   23.8680 C   0  0  0  0  0  3  0  0  0  0  0  0
  -21.0580   -5.9630   25.0120 C   0  0  0  0  0  3  0  0  0  0  0  0
  -21.3770   -4.5940   24.9250 C   0  0  0  0  0  0  0  0  0  0  0  0
  -21.7900   -4.0420   23.7010 C   0  0  0  0  0  3  0  0  0  0  0  0
  -21.8860   -4.8580   22.5600 C   0  0  0  0  0  0  0  0  0  0  0  0
  -22.2650   -4.3180   21.3780 F   0  0  0  0  0  0  0  0  0  0  0  0
  -21.2780   -3.8050   26.0200 F   0  0  0  0  0  0  0  0  0  0  0  0
  -22.6930  -13.6050   21.1330 C   0  0  0  0  0  0  0  0  0  0  0  0
  -21.9640  -12.9150   22.0040 N   0  0  0  0  0  0  0  0  0  0  0  0
  -22.2530  -14.6240   20.5990 O   0  0  0  0  0  0  0  0  0  0  0  0
  -22.3290  -12.0930   22.4620 H   0  0  0  0  0  0  0  0  0  0  0  0
  -21.0240  -13.2170   22.2160 H   0  0  0  0  0  0  0  0  0  0  0  0
  -25.3010  -15.2950   20.3180 N   0  0  0  0  0  0  0  0  0  0  0  0
  -24.5360  -15.9510   20.4210 H   0  0  0  0  0  0  0  0  0  0  0  0
  -26.1470  -15.7240   19.9680 H   0  0  0  0  0  0  0  0  0  0  0  0
  -28.5830  -21.3170   20.0530 C   0  0  0  0  0 15  0  0  0  0  0  0
  -28.5950  -23.4150   22.0420 C   0  0  0  0  0  1  0  0  0  0  0  0
  -28.2470  -23.3450   20.5480 C   0  0  0  0  0  1  0  0  0  0  0  0
  -28.2050  -25.2070   20.2020 O   0  0  0  0  0  1  0  0  0  0  0  0
  -24.6240  -31.8030   23.1160 C   0  0  0  0  0  0  0  0  0  0  0  0
  -27.2180  -26.5030   20.2430 C   0  0  0  0  0  0  0  0  0  0  0  0
  -23.4670  -30.3640   21.4980 C   0  0  0  0  0  3  0  0  0  0  0  0
  -24.9420  -28.6610   20.1380 C   0  0  0  0  0  0  0  0  0  0  0  0
  -26.0580  -30.4640   21.4100 C   0  0  0  0  0  2  0  0  0  0  0  0
  -26.1400  -28.9960   20.7800 C   0  0  0  0  0  0  0  0  0  0  0  0
  -27.2530  -27.9570   20.7840 C   0  0  0  0  0  3  0  0  0  0  0  0
  -25.9730  -26.4380   19.5460 C   0  0  0  0  0  3  0  0  0  0  0  0
  -24.9130  -27.4110   19.4940 C   0  0  0  0  0  3  0  0  0  0  0  0
  -23.7340  -29.6290   20.1480 C   0  0  0  0  0  2  0  0  0  0  0  0
  -24.7420  -30.9190   22.0580 N   0  0  0  0  0  0  0  0  0  0  0  0
  -23.5200  -32.1070   23.6040 O   0  0  0  0  0  0  0  0  0  0  0  0
  -22.7340  -29.4160   22.4850 C   0  0  0  0  0  0  0  0  0  0  0  0
  -21.3970  -29.2730   22.3710 N   0  0  0  0  0  0  0  0  0  0  0  0
  -23.3870  -28.7960   23.3280 O   0  0  0  0  0  0  0  0  0  0  0  0
  -20.9160  -29.8240   21.6710 H   0  0  0  0  0  0  0  0  0  0  0  0
  -18.0030  -28.0850   22.9370 C   0  0  0  0  0  0  0  0  0  0  0  0
  -20.5700  -28.3450   23.1570 C   0  0  0  0  0  3  0  0  0  0  0  0
  -20.6530  -26.9090   22.5850 C   0  0  0  0  0  2  0  0  0  0  0  0
  -19.5340  -26.5930   21.5860 C   0  0  0  0  0  2  0  0  0  0  0  0
  -18.1640  -26.7400   22.2490 C   0  0  0  0  0  2  0  0  0  0  0  0
  -19.1310  -28.8460   23.3480 C   0  0  0  0  0  0  0  0  0  0  0  0
  -18.9180  -30.1020   23.9570 C   0  0  0  0  0  3  0  0  0  0  0  0
  -17.6140  -30.5970   24.1540 C   0  0  0  0  0  3  0  0  0  0  0  0
  -16.5040  -29.8340   23.7540 C   0  0  0  0  0  3  0  0  0  0  0  0
  -16.7000  -28.5790   23.1520 C   0  0  0  0  0  3  0  0  0  0  0  0
  -25.8660  -32.4850   23.7630 C   0  0  0  0  0  3  0  0  0  0  0  0
  -26.3750  -31.7360   25.0590 C   0  0  1  0  0  0  0  0  0  0  0  0
  -25.2720  -31.4970   26.1170 C   0  0  0  0  0  1  0  0  0  0  0  0
  -26.9820  -30.3600   24.7080 C   0  0  0  0  0  1  0  0  0  0  0  0
  -27.5060  -32.5560   25.7230 C   0  0  0  0  0  1  0  0  0  0  0  0
  -25.5100  -33.8790   24.1100 N   0  0  0  0  0  0  0  0  0  0  0  0
  -25.8200  -34.9640   23.3840 C   0  0  0  0  0  0  0  0  0  0  0  0
  -26.4860  -34.8980   22.3480 O   0  0  0  0  0  0  0  0  0  0  0  0
  -24.9150  -34.0020   24.9150 H   0  0  0  0  0  0  0  0  0  0  0  0
  -24.0550  -36.7450   23.0980 C   0  0  0  0  0  1  0  0  0  0  0  0
  -25.3160  -36.3390   23.8790 C   0  0  0  0  0  3  0  0  0  0  0  0
  -27.4450  -37.2560   24.6990 C   0  0  0  0  0  1  0  0  0  0  0  0
  -26.3280  -37.4150   23.7720 N   0  0  0  0  0  0  0  0  0  0  0  0
  -25.9060  -38.3240   23.9400 H   0  0  0  0  0  0  0  0  0  0  0  0
  -31.0040  -19.7820   20.6830 C   0  0  0  0  0  2  0  0  0  0  0  0
  -32.5940  -21.5870   20.7390 C   0  0  0  0  0  1  0  0  0  0  0  0
  -31.5660  -20.9200   19.9410 N   0  0  0  0  0  0  0  0  0  0  0  0
  -32.1270  -20.4820   18.6460 C   0  0  0  0  0  2  0  0  0  0  0  0
  -32.3780  -21.6130   17.6170 C   0  0  1  0  0  0  0  0  0  0  0  0
  -32.5180  -21.0670   16.4090 F   0  0  0  0  0  0  0  0  0  0  0  0
  -31.3450  -22.4560   17.5760 F   0  0  0  0  0  0  0  0  0  0  0  0
  -33.4900  -22.2910   17.8970 F   0  0  0  0  0  0  0  0  0  0  0  0
  1 10  1  0
  1 84  1  0
  2 10  1  0
  3  8  1  0
  4  5  1  0
  4  3  1  0
  6  5  1  0
  6 15  1  0
  6  7  1  0
  8  2  1  0
  8  7  1  0
  9  2  2  0
 10 11  1  0
 12 13  2  0
 13 32  1  0
 14 13  1  0
 14 17  1  0
 15 12  1  0
 15 16  1  0
 16 14  2  0
 17 18  1  0
 18 19  2  0
 20 23  1  0
 20 19  1  0
 21 20  2  0
 22 21  1  0
 22 17  2  0
 23 24  1  0
 24 25  1  0
 25 26  2  0
 27 26  1  0
 27 31  1  0
 28 27  2  0
 29 24  2  0
 29 28  1  0
 30 29  1  0
 32 33  1  0
 33 36  1  0
 33 35  1  0
 34 32  2  0
 37 38  1  0
 37 12  1  0
 39 37  1  0
 42 41  1  0
 43 45  1  0
 44 55  2  0
 45 50  1  0
 46 54  1  0
 46 56  1  0
 47 53  1  0
 47 49  1  0
 48 54  1  0
 49 50  2  0
 49 48  1  0
 51 45  2  0
 52 51  1  0
 52 47  2  0
 53 46  1  0
 54 44  1  0
 56 58  2  0
 57 56  1  0
 59 57  1  0
 60 69  2  0
 60 65  1  0
 61 57  1  0
 61 65  1  0
 62 61  1  0
 63 64  1  0
 63 62  1  0
 64 60  1  0
 65 66  2  0
 66 67  1  0
 68 67  2  0
 69 68  1  0
 70 44  1  0
 70 75  1  0
 70 71  1  0
 71 74  1  1
 71 72  1  0
 73 71  1  0
 75 78  1  0
 76 80  1  0
 76 75  1  0
 77 76  2  0
 80 79  1  0
 82 80  1  0
 82 83  1  0
 82 81  1  0
 86 84  1  0
 86 85  1  0
 87 86  1  0
 88 91  1  1
 88 87  1  0
 89 88  1  0
 90 88  1  0
M  ISO  4   2 100  10 100  42 101  43 101
M  END
>  <TORSDO>  (20) 
F 22

>  <SCORE>  (20) 
-14.717

>  <name>  (20) 
20

>  <ligand_id>  (20) 
20

>  <original_smiles>  (20) 
[H]c1c([H])c([H])c2c(c1[H])C([H])([H])C([H])([H])C([H])([H])C2([H])N([H])C(=O)C1([H])N(C(=O)C([H])(N([H])C(=O)C([H])(N([H])C([H])([H])[H])C([H])([H])[H])C(C([H])([H])[H])(C([H])([H])[H])C([H])([H])[H])C([H])([H])c2c([H])c(OC([H])(C([H])([H])[H])C([H])([H])C([H])(N([H])C(=O)N3C([H])([H])C([H])([H])C([H])([H])C([H])(n4nc(-c5c([H])c([H])c(Oc6c([H])c([H])c(F)c([H])c6F)c([H])c5[H])c(C(=O)N([H])[H])c4N([H])[H])C3([H])[H])C([H])([H])N(C([H])([H])[H])C([H])([H])C(F)(F)F)c([H])c([H])c2C1([H])[H]

>  <smiles>  (20) 
[H]c1c([H])c([H])c2c(c1[H])C([H])([H])C([H])([H])C([H])([H])C2([H])N([H])C(=O)C1([H])N(C(=O)C([H])(N([H])C(=O)C([H])(N([H])C([H])([H])[H])C([H])([H])[H])C(C([H])([H])[H])(C([H])([H])[H])C([H])([H])[H])C([H])([H])c2c([H])c(OC([H])(C([H])([H])[H])C([H])([H])C([H])(N([H])C(=O)N3C([H])([H])C([H])([H])C([H])([H])C([H])(n4nc(-c5c([H])c([H])c(Oc6c([H])c([H])c(F)c([H])c6F)c([H])c5[H])c(C(=O)N([H])[H])c4N([H])[H])C3([H])[H])C([H])([H])N(C([H])([H])[H])C([H])([H])C(F)(F)F)c([H])c([H])c2C1([H])[H]

$$$$
21:0:0
     RDKit          3D

 95101  0  0  1  0  0  0  0  0999 V2000
  -24.0290  -25.6730   18.4920 C   0  0  0  0  0  3  0  0  0  0  0  0
  -25.3450  -25.6680   17.4300 C   0  0  0  0  0  2  0  0  0  0  0  0
  -23.9680  -25.7400   20.2140 C   0  0  0  0  0  0  0  0  0  0  0  0
  -26.9910  -25.4530   17.7040 C   0  0  0  0  0  2  0  0  0  0  0  0
  -25.3580  -26.0340   21.0270 C   0  0  2  0  0  0  0  0  0  0  0  0
  -25.1810  -24.4600   21.9150 C   0  0  0  0  0  1  0  0  0  0  0  0
  -27.1430  -26.4010   19.1230 N   0  0  0  0  0  0  0  0  0  0  0  0
  -27.8130  -23.4760   17.6630 C   0  0  0  0  0 15  0  0  0  0  0  0
  -27.8260  -21.2760   18.1790 C   0  0  0  0  0 15  0  0  0  0  0  0
  -28.7530  -19.2170   18.2010 C   0  0  0  0  0 15  0  0  0  0  0  0
  -29.8010  -15.8410   19.1800 C   0  0  0  0  0  0  0  0  0  0  0  0
  -30.0640  -13.0730   18.7770 C   0  0  0  0  0  2  0  0  0  0  0  0
  -29.1160  -12.3330   17.7820 C   0  0  0  0  0  2  0  0  0  0  0  0
  -27.8050  -11.9050   18.4610 C   0  0  0  0  0  2  0  0  0  0  0  0
  -27.3410  -12.9900   19.4520 C   0  0  0  0  0  3  0  0  0  0  0  0
  -28.4590  -13.6080   20.3210 C   0  0  0  0  0  2  0  0  0  0  0  0
  -29.3870  -14.3560   19.3820 N   0  0  0  0  0  0  0  0  0  0  0  0
  -31.0510  -15.6480   19.0260 O   0  0  0  0  0  0  0  0  0  0  0  0
  -29.0560  -17.3920   19.0360 N   0  0  0  0  0  2  0  0  0  0  0  0
  -29.2810  -17.7210   19.9930 H   0  0  0  0  0  0  0  0  0  0  0  0
  -25.1720  -13.5470   20.5800 C   0  0  0  0  0  0  0  0  0  0  0  0
  -24.1320  -12.7920   21.0300 C   0  0  0  0  0  0  0  0  0  0  0  0
  -24.5420  -11.4290   20.8900 C   0  0  0  0  0  0  0  0  0  0  0  0
  -26.1390  -12.6510   20.1800 N   0  0  0  0  0  0  0  0  0  0  0  0
  -25.7910  -11.3620   20.4300 N   0  0  0  0  0  0  0  0  0  0  0  0
  -23.7930  -10.1860   21.1100 C   0  0  0  0  0  0  0  0  0  0  0  0
  -24.2410   -9.2010   22.0160 C   0  0  0  0  0  3  0  0  0  0  0  0
  -23.4880   -8.0250   22.2280 C   0  0  0  0  0  3  0  0  0  0  0  0
  -22.2710   -7.8290   21.5300 C   0  0  0  0  0  0  0  0  0  0  0  0
  -21.8470   -8.7970   20.6020 C   0  0  0  0  0  3  0  0  0  0  0  0
  -22.6020   -9.9630   20.3920 C   0  0  0  0  0  3  0  0  0  0  0  0
  -21.4800   -6.7150   21.6590 O   0  0  0  0  0  0  0  0  0  0  0  0
  -21.4170   -6.0080   22.8320 C   0  0  0  0  0  0  0  0  0  0  0  0
  -20.9640   -6.5930   24.0340 C   0  0  0  0  0  3  0  0  0  0  0  0
  -20.8490   -5.8080   25.1990 C   0  0  0  0  0  3  0  0  0  0  0  0
  -21.1810   -4.4410   25.1620 C   0  0  0  0  0  0  0  0  0  0  0  0
  -21.6290   -3.8560   23.9660 C   0  0  0  0  0  3  0  0  0  0  0  0
  -21.7470   -4.6370   22.8030 C   0  0  0  0  0  0  0  0  0  0  0  0
  -22.1600   -4.0650   21.6470 F   0  0  0  0  0  0  0  0  0  0  0  0
  -21.0640   -3.6840   26.2790 F   0  0  0  0  0  0  0  0  0  0  0  0
  -22.7910  -13.3020   21.4630 C   0  0  0  0  0  0  0  0  0  0  0  0
  -22.1460  -12.5970   22.3830 N   0  0  0  0  0  0  0  0  0  0  0  0
  -22.3380  -14.3570   21.0220 O   0  0  0  0  0  0  0  0  0  0  0  0
  -22.5330  -11.7370   22.7450 H   0  0  0  0  0  0  0  0  0  0  0  0
  -21.2580  -12.9110   22.7430 H   0  0  0  0  0  0  0  0  0  0  0  0
  -25.3690  -14.9180   20.4240 N   0  0  0  0  0  0  0  0  0  0  0  0
  -24.6680  -15.6160   20.6510 H   0  0  0  0  0  0  0  0  0  0  0  0
  -26.2040  -15.3170   20.0150 H   0  0  0  0  0  0  0  0  0  0  0  0
  -22.9240  -25.7550   21.2920 C   0  0  0  0  0  3  0  0  0  0  0  0
  -20.7080  -26.9320   19.5490 C   0  0  0  0  0  1  0  0  0  0  0  0
  -21.1640  -24.3710   19.8490 C   0  0  0  0  0  1  0  0  0  0  0  0
  -21.6550  -25.8070   20.1960 C   0  0  0  0  0  3  0  0  0  0  0  0
  -23.6490  -26.6900   22.6890 C   0  0  0  0  0  2  0  0  0  0  0  0
  -25.2930  -27.6270   23.0030 C   0  0  0  0  0  2  0  0  0  0  0  0
  -26.9230  -27.3160   22.4770 O   0  0  0  0  0  0  0  0  0  0  0  0
  -24.5300  -32.0080   23.0050 C   0  0  0  0  0  0  0  0  0  0  0  0
  -27.5320  -27.2480   21.2000 C   0  0  0  0  0  3  0  0  0  0  0  0
  -23.4110  -30.3580   21.3130 C   0  0  0  0  0  3  0  0  0  0  0  0
  -25.0510  -28.3390   19.1450 C   0  0  0  0  0  2  0  0  0  0  0  0
  -25.7370  -30.8260   20.8830 C   0  0  0  0  0  2  0  0  0  0  0  0
  -25.9810  -29.3150   20.1590 C   0  0  0  0  0  3  0  0  0  0  0  0
  -27.1720  -28.7280   20.9090 C   0  0  0  0  0  2  0  0  0  0  0  0
  -27.1960  -25.7690   20.4940 C   0  0  1  0  0  0  0  0  0  0  0  0
  -25.8510  -25.5970   19.4330 C   0  0  0  0  0  3  0  0  0  0  0  0
  -23.7420  -29.3850   19.8290 C   0  0  0  0  0  2  0  0  0  0  0  0
  -24.5900  -31.1460   21.8450 N   0  0  0  0  0  0  0  0  0  0  0  0
  -23.4390  -32.3590   23.5040 O   0  0  0  0  0  0  0  0  0  0  0  0
  -22.4780  -29.9120   22.5660 C   0  0  0  0  0  0  0  0  0  0  0  0
  -21.2030  -29.4470   22.4170 N   0  0  0  0  0  0  0  0  0  0  0  0
  -23.0310  -29.6620   23.6460 O   0  0  0  0  0  0  0  0  0  0  0  0
  -20.6820  -29.8000   21.6310 H   0  0  0  0  0  0  0  0  0  0  0  0
  -17.8590  -28.2420   22.9260 C   0  0  0  0  0  0  0  0  0  0  0  0
  -20.4120  -28.5610   23.3310 C   0  0  0  0  0  3  0  0  0  0  0  0
  -20.3730  -26.9940   23.2290 C   0  0  0  0  0  2  0  0  0  0  0  0
  -19.4330  -26.4660   22.1620 C   0  0  0  0  0  2  0  0  0  0  0  0
  -18.0020  -26.9170   22.2210 C   0  0  0  0  0  2  0  0  0  0  0  0
  -18.9640  -29.0140   23.4040 C   0  0  0  0  0  0  0  0  0  0  0  0
  -18.7150  -30.2470   24.0290 C   0  0  0  0  0  3  0  0  0  0  0  0
  -17.4010  -30.7030   24.1950 C   0  0  0  0  0  3  0  0  0  0  0  0
  -16.3190  -29.9260   23.7480 C   0  0  0  0  0  3  0  0  0  0  0  0
  -16.5460  -28.7000   23.1100 C   0  0  0  0  0  3  0  0  0  0  0  0
  -25.7400  -32.6780   23.8110 C   0  0  0  0  0  3  0  0  0  0  0  0
  -25.4000  -34.0980   24.1170 N   0  0  0  0  0  0  0  0  0  0  0  0
  -25.8170  -35.1750   23.4330 C   0  0  0  0  0  0  0  0  0  0  0  0
  -26.5590  -35.0700   22.4560 O   0  0  0  0  0  0  0  0  0  0  0  0
  -24.7320  -34.2430   24.8580 H   0  0  0  0  0  0  0  0  0  0  0  0
  -24.1320  -37.0060   23.0360 C   0  0  0  0  0  1  0  0  0  0  0  0
  -25.3440  -36.5780   23.8770 C   0  0  0  0  0  3  0  0  0  0  0  0
  -27.4720  -37.4470   24.7570 C   0  0  0  0  0  1  0  0  0  0  0  0
  -26.3990  -37.6180   23.7800 N   0  0  0  0  0  0  0  0  0  0  0  0
  -26.0100  -38.5500   23.8900 H   0  0  0  0  0  0  0  0  0  0  0  0
  -26.1130  -32.0070   25.2110 C   0  0  1  0  0  0  0  0  0  0  0  0
  -24.9080  -31.7890   26.1710 C   0  0  0  0  0  1  0  0  0  0  0  0
  -26.7910  -30.6540   24.9780 C   0  0  0  0  0  1  0  0  0  0  0  0
  -27.1770  -32.8510   25.9550 C   0  0  0  0  0  1  0  0  0  0  0  0
  1  3  2  0
  2  4  1  0
  2  1  1  0
  3  5  1  0
  3 49  1  0
  5  6  1  6
  7  4  1  0
  7 64  1  0
  7 63  1  0
 11 17  1  0
 12 17  1  0
 13 14  1  0
 13 12  1  0
 15 14  1  0
 15 24  1  0
 15 16  1  0
 17 16  1  0
 18 11  2  0
 19 11  1  0
 19 20  1  0
 21 22  2  0
 22 41  1  0
 23 22  1  0
 23 26  1  0
 24 25  1  0
 24 21  1  0
 25 23  2  0
 26 27  1  0
 27 28  2  0
 29 32  1  0
 29 28  1  0
 30 29  2  0
 31 30  1  0
 31 26  2  0
 32 33  1  0
 33 34  1  0
 34 35  2  0
 36 35  1  0
 36 40  1  0
 37 36  2  0
 38 33  2  0
 38 37  1  0
 39 38  1  0
 41 42  1  0
 42 45  1  0
 42 44  1  0
 43 41  2  0
 46 21  1  0
 46 47  1  0
 48 46  1  0
 49 52  1  0
 49 53  1  0
 50 52  1  0
 51 52  1  0
 53 54  1  0
 55 54  1  0
 56 67  2  0
 56 82  1  0
 57 62  1  0
 57 55  1  0
 58 66  1  0
 58 68  1  0
 59 65  1  0
 59 61  1  0
 60 66  1  0
 61 60  1  0
 61 62  1  0
 63  5  1  0
 63 57  1  1
 64 63  1  0
 64  5  1  0
 65 58  1  0
 66 56  1  0
 68 70  2  0
 69 68  1  0
 69 73  1  0
 71 69  1  0
 72 81  2  0
 72 77  1  0
 73 77  1  0
 74 73  1  0
 75 76  1  0
 75 74  1  0
 76 72  1  0
 77 78  2  0
 78 79  1  0
 80 79  2  0
 81 80  1  0
 82 83  1  0
 82 92  1  0
 83 86  1  0
 84 88  1  0
 84 83  1  0
 85 84  2  0
 87 88  1  0
 90 88  1  0
 90 91  1  0
 90 89  1  0
 92 95  1  1
 92 93  1  0
 94 92  1  0
M  ISO  4  11 100  19 100  54 101  55 101
M  END
>  <TORSDO>  (21) 
F 23

>  <SCORE>  (21) 
-14.796

>  <name>  (21) 
21

>  <ligand_id>  (21) 
21

>  <original_smiles>  (21) 
[H]c1c(C([H])([H])C([H])([H])C([H])([H])N([H])C(=O)N2C([H])([H])C([H])([H])C([H])([H])C([H])(n3nc(-c4c([H])c([H])c(Oc5c([H])c([H])c(F)c([H])c5F)c([H])c4[H])c(C(=O)N([H])[H])c3N([H])[H])C2([H])[H])nc(C([H])([H])[H])c(C([H])(C([H])([H])C([H])([H])Oc2c([H])c([H])c3c(c2[H])C([H])([H])N(C(=O)C([H])(N([H])C(=O)C([H])(N([H])C([H])([H])[H])C([H])([H])[H])C(C([H])([H])[H])(C([H])([H])[H])C([H])([H])[H])C([H])(C(=O)N([H])C2([H])c4c([H])c([H])c([H])c([H])c4C([H])([H])C([H])([H])C2([H])[H])C3([H])[H])C([H])(C([H])([H])[H])C([H])([H])[H])c1[H]

>  <smiles>  (21) 
[H]c1c(C([H])([H])C([H])([H])C([H])([H])N([H])C(=O)N2C([H])([H])C([H])([H])C([H])([H])C([H])(n3nc(-c4c([H])c([H])c(Oc5c([H])c([H])c(F)c([H])c5F)c([H])c4[H])c(C(=O)N([H])[H])c3N([H])[H])C2([H])[H])nc(C([H])([H])[H])c(C([H])(C([H])([H])C([H])([H])Oc2c([H])c([H])c3c(c2[H])C([H])([H])N(C(=O)C([H])(N([H])C(=O)C([H])(N([H])C([H])([H])[H])C([H])([H])[H])C(C([H])([H])[H])(C([H])([H])[H])C([H])([H])[H])C([H])(C(=O)N([H])C2([H])c4c([H])c([H])c([H])c([H])c4C([H])([H])C([H])([H])C2([H])[H])C3([H])[H])C([H])(C([H])([H])[H])C([H])([H])[H])c1[H]

$$$$
22:0:0
     RDKit          3D

 98106  0  0  1  0  0  0  0  0999 V2000
  -29.5570  -19.9590   20.6950 C   0  0  0  0  0  3  0  0  0  0  0  0
  -30.2020  -21.1250   18.7100 C   0  0  0  0  0  3  0  0  0  0  0  0
  -29.6330  -21.2300   19.9910 C   0  0  0  0  0  0  0  0  0  0  0  0
  -29.9980  -18.7060   20.1080 C   0  0  0  0  0  0  0  0  0  0  0  0
  -30.6600  -19.8850   18.1890 C   0  0  0  0  0  0  0  0  0  0  0  0
  -30.5040  -18.7070   18.8550 N   0  0  0  0  0  0  0  0  0  0  0  0
  -29.5100  -22.6470   22.1400 C   0  0  0  0  0  1  0  0  0  0  0  0
  -29.4240  -22.7060   20.6040 C   0  0  0  0  0  3  0  0  0  0  0  0
  -28.2420  -23.7630   20.1770 C   0  0  0  0  0  3  0  0  0  0  0  0
  -27.3560  -23.1440   17.7810 C   0  0  0  0  0  1  0  0  0  0  0  0
  -27.1360  -23.1080   19.3090 C   0  0  0  0  0  2  0  0  0  0  0  0
  -28.6100  -25.2620   19.6440 C   0  0  0  0  0  2  0  0  0  0  0  0
  -28.4110  -26.5360   20.3870 O   0  0  0  0  0  0  0  0  0  0  0  0
  -24.6270  -31.9690   23.2500 C   0  0  0  0  0  0  0  0  0  0  0  0
  -27.2720  -27.3580   20.2750 C   0  0  0  0  0  0  0  0  0  0  0  0
  -23.4320  -30.5300   21.6420 C   0  0  0  0  0  3  0  0  0  0  0  0
  -24.8930  -28.9610   20.2350 C   0  0  0  0  0  0  0  0  0  0  0  0
  -25.9600  -30.8620   21.4460 C   0  0  0  0  0  2  0  0  0  0  0  0
  -26.0490  -29.4630   20.8400 C   0  0  0  0  0  0  0  0  0  0  0  0
  -27.2340  -28.6640   20.8690 C   0  0  0  0  0  3  0  0  0  0  0  0
  -26.0930  -26.9170   19.6370 C   0  0  0  0  0  3  0  0  0  0  0  0
  -24.9190  -27.7000   19.6190 C   0  0  0  0  0  3  0  0  0  0  0  0
  -23.6500  -29.8300   20.2750 C   0  0  0  0  0  2  0  0  0  0  0  0
  -24.6940  -31.1370   22.1710 N   0  0  0  0  0  0  0  0  0  0  0  0
  -23.5410  -32.2590   23.7720 O   0  0  0  0  0  0  0  0  0  0  0  0
  -22.7730  -29.5360   22.6240 C   0  0  0  0  0  0  0  0  0  0  0  0
  -21.4510  -29.3450   22.4900 N   0  0  0  0  0  0  0  0  0  0  0  0
  -23.4470  -28.9420   23.4710 O   0  0  0  0  0  0  0  0  0  0  0  0
  -20.9690  -29.8780   21.7790 H   0  0  0  0  0  0  0  0  0  0  0  0
  -18.0800  -28.1180   22.9800 C   0  0  0  0  0  0  0  0  0  0  0  0
  -20.6320  -28.4210   23.2750 C   0  0  0  0  0  3  0  0  0  0  0  0
  -20.7630  -26.9800   22.7380 C   0  0  0  0  0  2  0  0  0  0  0  0
  -19.6760  -26.6110   21.7210 C   0  0  0  0  0  2  0  0  0  0  0  0
  -18.2820  -26.7530   22.3430 C   0  0  0  0  0  2  0  0  0  0  0  0
  -19.1840  -28.9060   23.4000 C   0  0  0  0  0  0  0  0  0  0  0  0
  -18.9430  -30.1770   23.9630 C   0  0  0  0  0  3  0  0  0  0  0  0
  -17.6320  -30.6680   24.1080 C   0  0  0  0  0  3  0  0  0  0  0  0
  -16.5390  -29.8840   23.6970 C   0  0  0  0  0  3  0  0  0  0  0  0
  -16.7640  -28.6090   23.1400 C   0  0  0  0  0  3  0  0  0  0  0  0
  -25.9070  -32.6200   23.8650 C   0  0  0  0  0  3  0  0  0  0  0  0
  -25.5840  -34.0170   24.1850 N   0  0  0  0  0  0  0  0  0  0  0  0
  -25.9210  -35.0660   23.4250 C   0  0  0  0  0  0  0  0  0  0  0  0
  -26.6040  -34.9620   22.4010 O   0  0  0  0  0  0  0  0  0  0  0  0
  -24.9640  -34.1740   24.9660 H   0  0  0  0  0  0  0  0  0  0  0  0
  -24.1900  -36.8600   23.0530 C   0  0  0  0  0  1  0  0  0  0  0  0
  -25.4270  -36.4560   23.8710 C   0  0  0  0  0  3  0  0  0  0  0  0
  -27.5560  -37.3520   24.7120 C   0  0  0  0  0  1  0  0  0  0  0  0
  -26.4580  -37.5110   23.7610 N   0  0  0  0  0  0  0  0  0  0  0  0
  -26.0470  -38.4290   23.9080 H   0  0  0  0  0  0  0  0  0  0  0  0
  -26.4360  -31.8590   25.1440 C   0  0  1  0  0  0  0  0  0  0  0  0
  -25.3400  -31.6100   26.2090 C   0  0  0  0  0  1  0  0  0  0  0  0
  -27.0480  -30.4880   24.7600 C   0  0  0  0  0  1  0  0  0  0  0  0
  -27.5700  -32.6790   25.8060 C   0  0  0  0  0  1  0  0  0  0  0  0
  -32.2010  -18.5010   16.6690 C   0  0  0  0  0  1  0  0  0  0  0  0
  -31.3920  -19.8210   16.8170 C   0  0  1  0  0  0  0  0  0  0  0  0
  -29.1850  -18.9500   15.6640 C   0  0  0  0  0  1  0  0  0  0  0  0
  -30.3800  -19.9240   15.6370 C   0  0  0  0  0  2  0  0  0  0  0  0
  -33.5510  -21.0560   17.7040 C   0  0  0  0  0  1  0  0  0  0  0  0
  -32.4260  -20.9840   16.6490 C   0  0  0  0  0  2  0  0  0  0  0  0
  -30.2030  -17.3490   20.9280 C   0  0  0  0  0  2  0  0  0  0  0  0
  -30.6020  -14.8250   20.2240 C   0  0  0  0  0  0  0  0  0  0  0  0
  -30.3800  -12.5820   19.1380 C   0  0  0  0  0  2  0  0  0  0  0  0
  -29.4010  -12.6670   17.9480 C   0  0  0  0  0  2  0  0  0  0  0  0
  -27.9480  -12.4760   18.4230 C   0  0  0  0  0  2  0  0  0  0  0  0
  -27.6000  -13.3320   19.6690 C   0  0  0  0  0  3  0  0  0  0  0  0
  -28.6960  -13.2270   20.7510 C   0  0  0  0  0  2  0  0  0  0  0  0
  -29.9670  -13.6090   20.1190 N   0  0  0  0  0  0  0  0  0  0  0  0
  -31.8030  -14.9180   19.9550 O   0  0  0  0  0  0  0  0  0  0  0  0
  -29.8290  -15.9480   20.4510 N   0  0  0  0  0  0  0  0  0  0  0  0
  -28.8410  -15.7600   20.5130 H   0  0  0  0  0  0  0  0  0  0  0  0
  -25.2180  -13.8880   20.4420 C   0  0  0  0  0  0  0  0  0  0  0  0
  -24.1700  -13.1000   20.8260 C   0  0  0  0  0  0  0  0  0  0  0  0
  -24.6500  -11.7530   20.7830 C   0  0  0  0  0  0  0  0  0  0  0  0
  -26.2710  -13.0240   20.1860 N   0  0  0  0  0  0  0  0  0  0  0  0
  -25.9370  -11.7360   20.4560 N   0  0  0  0  0  0  0  0  0  0  0  0
  -23.9430  -10.4820   20.9750 C   0  0  0  0  0  0  0  0  0  0  0  0
  -24.3770   -9.5310   21.9260 C   0  0  0  0  0  3  0  0  0  0  0  0
  -23.6660   -8.3250   22.1080 C   0  0  0  0  0  3  0  0  0  0  0  0
  -22.5080   -8.0610   21.3380 C   0  0  0  0  0  0  0  0  0  0  0  0
  -22.0930   -9.0010   20.3770 C   0  0  0  0  0  3  0  0  0  0  0  0
  -22.8060  -10.1970   20.1930 C   0  0  0  0  0  3  0  0  0  0  0  0
  -21.7720   -6.9040   21.4280 O   0  0  0  0  0  0  0  0  0  0  0  0
  -21.6940   -6.1890   22.5960 C   0  0  0  0  0  0  0  0  0  0  0  0
  -21.2010   -6.7620   23.7890 C   0  0  0  0  0  3  0  0  0  0  0  0
  -21.0730   -5.9720   24.9500 C   0  0  0  0  0  3  0  0  0  0  0  0
  -21.4270   -4.6110   24.9170 C   0  0  0  0  0  0  0  0  0  0  0  0
  -21.9120   -4.0360   23.7280 C   0  0  0  0  0  3  0  0  0  0  0  0
  -22.0410   -4.8230   22.5710 C   0  0  0  0  0  0  0  0  0  0  0  0
  -22.4880   -4.2600   21.4230 F   0  0  0  0  0  0  0  0  0  0  0  0
  -21.2970   -3.8490   26.0280 F   0  0  0  0  0  0  0  0  0  0  0  0
  -22.7690  -13.5550   21.1160 C   0  0  0  0  0  0  0  0  0  0  0  0
  -22.0600  -12.8420   21.9830 N   0  0  0  0  0  0  0  0  0  0  0  0
  -22.3140  -14.5820   20.6120 O   0  0  0  0  0  0  0  0  0  0  0  0
  -22.4430  -12.0120   22.4100 H   0  0  0  0  0  0  0  0  0  0  0  0
  -21.1220  -13.1330   22.2250 H   0  0  0  0  0  0  0  0  0  0  0  0
  -25.3570  -15.2620   20.2670 N   0  0  0  0  0  0  0  0  0  0  0  0
  -24.5710  -15.8930   20.3810 H   0  0  0  0  0  0  0  0  0  0  0  0
  -26.1790  -15.7190   19.8950 H   0  0  0  0  0  0  0  0  0  0  0  0
  2  3  1  0
  3  8  1  0
  3  1  2  0
  4  1  1  0
  4 60  1  0
  5  2  2  0
  5  6  1  0
  6  4  2  0
  8  7  1  0
  9 11  1  0
  9  8  1  0
 10 11  1  0
 12  9  1  0
 12 13  1  0
 14 25  2  0
 15 13  1  0
 15 20  1  0
 16 24  1  0
 16 26  1  0
 17 23  1  0
 17 19  1  0
 18 24  1  0
 19 20  2  0
 19 18  1  0
 21 15  2  0
 22 21  1  0
 22 17  2  0
 23 16  1  0
 24 14  1  0
 26 28  2  0
 27 26  1  0
 29 27  1  0
 30 39  2  0
 30 35  1  0
 31 27  1  0
 31 35  1  0
 32 31  1  0
 33 34  1  0
 33 32  1  0
 34 30  1  0
 35 36  2  0
 36 37  1  0
 38 37  2  0
 39 38  1  0
 40 14  1  0
 40 41  1  0
 40 50  1  0
 41 44  1  0
 42 46  1  0
 42 41  1  0
 43 42  2  0
 46 45  1  0
 48 46  1  0
 48 49  1  0
 48 47  1  0
 50 53  1  1
 50 51  1  0
 52 50  1  0
 55 54  1  6
 55  5  1  0
 57 56  1  0
 57 55  1  0
 59 55  1  0
 59 58  1  0
 61 69  1  0
 62 67  1  0
 63 64  1  0
 63 62  1  0
 65 64  1  0
 65 74  1  0
 65 66  1  0
 67 61  1  0
 67 66  1  0
 68 61  2  0
 69 70  1  0
 69 60  1  0
 71 72  2  0
 72 91  1  0
 73 72  1  0
 73 76  1  0
 74 71  1  0
 74 75  1  0
 75 73  2  0
 76 77  1  0
 77 78  2  0
 79 82  1  0
 79 78  1  0
 80 79  2  0
 81 80  1  0
 81 76  2  0
 82 83  1  0
 83 84  1  0
 84 85  2  0
 86 85  1  0
 86 90  1  0
 87 86  2  0
 88 83  2  0
 88 87  1  0
 89 88  1  0
 91 92  1  0
 92 95  1  0
 92 94  1  0
 93 91  2  0
 96 97  1  0
 96 71  1  0
 98 96  1  0
M  ISO  4  12 101  13 101  61 100  69 100
M  END
>  <TORSDO>  (22) 
F 24

>  <SCORE>  (22) 
-12.802

>  <name>  (22) 
22

>  <ligand_id>  (22) 
22

>  <original_smiles>  (22) 
[H]c1c([H])c([H])c2c(c1[H])C([H])([H])C([H])([H])C([H])([H])C2([H])N([H])C(=O)C1([H])N(C(=O)C([H])(N([H])C(=O)C([H])(N([H])C([H])([H])[H])C([H])([H])[H])C(C([H])([H])[H])(C([H])([H])[H])C([H])([H])[H])C([H])([H])c2c([H])c(OC([H])([H])C([H])(C([H])([H])C([H])([H])[H])C([H])(c3c([H])c(C([H])([H])N([H])C(=O)N4C([H])([H])C([H])([H])C([H])([H])C([H])(n5nc(-c6c([H])c([H])c(Oc7c([H])c([H])c(F)c([H])c7F)c([H])c6[H])c(C(=O)N([H])[H])c5N([H])[H])C4([H])[H])nc(C(C([H])([H])[H])(C([H])([H])C([H])([H])[H])C([H])([H])C([H])([H])[H])c3[H])C([H])([H])[H])c([H])c([H])c2C1([H])[H]

>  <smiles>  (22) 
[H]c1c([H])c([H])c2c(c1[H])C([H])([H])C([H])([H])C([H])([H])C2([H])N([H])C(=O)C1([H])N(C(=O)C([H])(N([H])C(=O)C([H])(N([H])C([H])([H])[H])C([H])([H])[H])C(C([H])([H])[H])(C([H])([H])[H])C([H])([H])[H])C([H])([H])c2c([H])c(OC([H])([H])C([H])(C([H])([H])C([H])([H])[H])C([H])(c3c([H])c(C([H])([H])N([H])C(=O)N4C([H])([H])C([H])([H])C([H])([H])C([H])(n5nc(-c6c([H])c([H])c(Oc7c([H])c([H])c(F)c([H])c7F)c([H])c6[H])c(C(=O)N([H])[H])c5N([H])[H])C4([H])[H])nc(C(C([H])([H])[H])(C([H])([H])C([H])([H])[H])C([H])([H])C([H])([H])[H])c3[H])C([H])([H])[H])c([H])c([H])c2C1([H])[H]

$$$$
23:0:0
     RDKit          3D

 91 99  0  0  1  0  0  0  0  0999 V2000
  -28.9040  -19.2300   20.2970 C   0  0  0  0  0  3  0  0  0  0  0  0
  -29.3660  -17.9310   20.6070 C   0  0  0  0  0  3  0  0  0  0  0  0
  -29.5240  -20.3800   20.8440 C   0  0  0  0  0  0  0  0  0  0  0  0
  -30.4600  -17.7790   21.4710 C   0  0  0  0  0  0  0  0  0  0  0  0
  -30.6520  -20.1330   21.6860 C   0  0  0  0  0  0  0  0  0  0  0  0
  -31.5230  -21.2370   22.2670 C   0  0  0  0  0  1  0  0  0  0  0  0
  -31.0800  -18.8670   21.9930 N   0  0  0  0  0  0  0  0  0  0  0  0
  -28.9950  -21.7570   20.3300 C   0  0  0  0  0  2  0  0  0  0  0  0
  -28.9140  -23.0350   21.2360 C   0  0  0  0  0  2  0  0  0  0  0  0
  -28.8700  -24.3560   20.3830 C   0  0  0  0  0  2  0  0  0  0  0  0
  -28.8570  -25.7220   21.1360 C   0  0  0  0  0  2  0  0  0  0  0  0
  -28.6480  -26.8060   20.2060 O   0  0  0  0  0  0  0  0  0  0  0  0
  -24.6050  -31.8570   23.2240 C   0  0  0  0  0  0  0  0  0  0  0  0
  -27.4350  -27.4700   20.2510 C   0  0  0  0  0  0  0  0  0  0  0  0
  -23.4600  -30.4380   21.5510 C   0  0  0  0  0  3  0  0  0  0  0  0
  -24.9820  -28.9020   20.1880 C   0  0  0  0  0  0  0  0  0  0  0  0
  -25.9770  -30.8430   21.4040 C   0  0  0  0  0  2  0  0  0  0  0  0
  -26.1150  -29.4680   20.7880 C   0  0  0  0  0  0  0  0  0  0  0  0
  -27.3360  -28.7590   20.8220 C   0  0  0  0  0  3  0  0  0  0  0  0
  -26.2870  -26.9050   19.6560 C   0  0  0  0  0  3  0  0  0  0  0  0
  -25.0610  -27.6070   19.6340 C   0  0  0  0  0  3  0  0  0  0  0  0
  -23.7200  -29.7400   20.1880 C   0  0  0  0  0  2  0  0  0  0  0  0
  -24.6980  -31.0630   22.1180 N   0  0  0  0  0  0  0  0  0  0  0  0
  -23.5120  -32.1150   23.7460 O   0  0  0  0  0  0  0  0  0  0  0  0
  -22.7960  -29.4150   22.5030 C   0  0  0  0  0  0  0  0  0  0  0  0
  -21.4780  -29.2070   22.3450 N   0  0  0  0  0  0  0  0  0  0  0  0
  -23.4740  -28.8120   23.3430 O   0  0  0  0  0  0  0  0  0  0  0  0
  -20.9840  -29.7480   21.6490 H   0  0  0  0  0  0  0  0  0  0  0  0
  -18.1260  -27.9460   22.7560 C   0  0  0  0  0  0  0  0  0  0  0  0
  -20.6690  -28.2510   23.1000 C   0  0  0  0  0  3  0  0  0  0  0  0
  -20.8110  -26.8160   22.5330 C   0  0  0  0  0  2  0  0  0  0  0  0
  -19.7430  -26.4640   21.4920 C   0  0  0  0  0  2  0  0  0  0  0  0
  -18.3390  -26.5970   22.0910 C   0  0  0  0  0  2  0  0  0  0  0  0
  -19.2180  -28.7300   23.2140 C   0  0  0  0  0  0  0  0  0  0  0  0
  -18.9610  -30.0000   23.7740 C   0  0  0  0  0  3  0  0  0  0  0  0
  -17.6450  -30.4830   23.8970 C   0  0  0  0  0  3  0  0  0  0  0  0
  -16.5640  -29.6930   23.4720 C   0  0  0  0  0  3  0  0  0  0  0  0
  -16.8080  -28.4270   22.9070 C   0  0  0  0  0  3  0  0  0  0  0  0
  -25.8710  -32.5040   23.8710 C   0  0  0  0  0  3  0  0  0  0  0  0
  -25.5420  -33.9000   24.1950 N   0  0  0  0  0  0  0  0  0  0  0  0
  -25.8910  -34.9530   23.4410 C   0  0  0  0  0  0  0  0  0  0  0  0
  -26.5840  -34.8500   22.4240 O   0  0  0  0  0  0  0  0  0  0  0  0
  -24.9120  -34.0440   24.9700 H   0  0  0  0  0  0  0  0  0  0  0  0
  -24.1460  -36.7110   23.0380 C   0  0  0  0  0  1  0  0  0  0  0  0
  -25.3810  -36.3400   23.8750 C   0  0  0  0  0  3  0  0  0  0  0  0
  -27.4970  -37.2470   24.7280 C   0  0  0  0  0  1  0  0  0  0  0  0
  -26.4070  -37.3980   23.7670 N   0  0  0  0  0  0  0  0  0  0  0  0
  -25.9950  -38.3180   23.8890 H   0  0  0  0  0  0  0  0  0  0  0  0
  -26.3690  -31.7390   25.1560 C   0  0  1  0  0  0  0  0  0  0  0  0
  -25.2600  -31.4830   26.2050 C   0  0  0  0  0  1  0  0  0  0  0  0
  -26.9740  -30.3690   24.7680 C   0  0  0  0  0  1  0  0  0  0  0  0
  -27.5070  -32.5400   25.8330 C   0  0  0  0  0  1  0  0  0  0  0  0
  -30.9690  -16.3740   21.8920 C   0  0  0  0  0  2  0  0  0  0  0  0
  -30.7890  -14.4230   20.2550 C   0  0  0  0  0  0  0  0  0  0  0  0
  -30.3810  -12.3410   18.9410 C   0  0  0  0  0  2  0  0  0  0  0  0
  -29.3870  -12.5850   17.7840 C   0  0  0  0  0  2  0  0  0  0  0  0
  -27.9410  -12.4070   18.2760 C   0  0  0  0  0  2  0  0  0  0  0  0
  -27.6610  -13.2450   19.5520 C   0  0  0  0  0  3  0  0  0  0  0  0
  -28.7460  -12.9840   20.6190 C   0  0  0  0  0  2  0  0  0  0  0  0
  -30.0660  -13.2870   20.0280 N   0  0  0  0  0  0  0  0  0  0  0  0
  -31.7950  -14.7150   19.6020 O   0  0  0  0  0  0  0  0  0  0  0  0
  -30.3430  -15.1900   21.2690 N   0  0  0  0  0  0  0  0  0  0  0  0
  -29.5380  -14.8200   21.7560 H   0  0  0  0  0  0  0  0  0  0  0  0
  -25.3170  -13.9030   20.3770 C   0  0  0  0  0  0  0  0  0  0  0  0
  -24.2540  -13.1460   20.7990 C   0  0  0  0  0  0  0  0  0  0  0  0
  -24.6920  -11.7870   20.7370 C   0  0  0  0  0  0  0  0  0  0  0  0
  -26.3280  -13.0000   20.0880 N   0  0  0  0  0  0  0  0  0  0  0  0
  -25.9590  -11.7230   20.3600 N   0  0  0  0  0  0  0  0  0  0  0  0
  -23.9520  -10.5370   20.9570 C   0  0  0  0  0  0  0  0  0  0  0  0
  -24.4120   -9.5600   21.8630 C   0  0  0  0  0  3  0  0  0  0  0  0
  -23.6820   -8.3690   22.0620 C   0  0  0  0  0  3  0  0  0  0  0  0
  -22.4750   -8.1520   21.3580 C   0  0  0  0  0  0  0  0  0  0  0  0
  -22.0350   -9.1170   20.4350 C   0  0  0  0  0  3  0  0  0  0  0  0
  -22.7650  -10.3020   20.2370 C   0  0  0  0  0  3  0  0  0  0  0  0
  -21.7070   -7.0190   21.4780 O   0  0  0  0  0  0  0  0  0  0  0  0
  -21.6930   -6.2780   22.6300 C   0  0  0  0  0  0  0  0  0  0  0  0
  -21.3260   -6.8360   23.8750 C   0  0  0  0  0  3  0  0  0  0  0  0
  -21.2600   -6.0180   25.0210 C   0  0  0  0  0  3  0  0  0  0  0  0
  -21.5490   -4.6440   24.9240 C   0  0  0  0  0  0  0  0  0  0  0  0
  -21.9030   -4.0850   23.6830 C   0  0  0  0  0  3  0  0  0  0  0  0
  -21.9750   -4.8990   22.5410 C   0  0  0  0  0  0  0  0  0  0  0  0
  -22.3030   -4.3540   21.3440 F   0  0  0  0  0  0  0  0  0  0  0  0
  -21.4780   -3.8550   26.0220 F   0  0  0  0  0  0  0  0  0  0  0  0
  -22.8830  -13.6480   21.1410 C   0  0  0  0  0  0  0  0  0  0  0  0
  -22.1900  -12.9540   22.0390 N   0  0  0  0  0  0  0  0  0  0  0  0
  -22.4340  -14.6810   20.6470 O   0  0  0  0  0  0  0  0  0  0  0  0
  -22.5650  -12.1130   22.4500 H   0  0  0  0  0  0  0  0  0  0  0  0
  -21.2690  -13.2610   22.3160 H   0  0  0  0  0  0  0  0  0  0  0  0
  -25.4880  -15.2690   20.1900 N   0  0  0  0  0  0  0  0  0  0  0  0
  -24.6850  -15.8870   20.1910 H   0  0  0  0  0  0  0  0  0  0  0  0
  -26.3060  -15.6790   19.7470 H   0  0  0  0  0  0  0  0  0  0  0  0
  1  2  2  0
  1  3  1  0
  2  4  1  0
  3  5  2  0
  4 53  1  0
  4  7  2  0
  5  7  1  0
  5  6  1  0
  8  3  1  0
  8  9  1  0
 10 11  1  0
 10  9  1  0
 12 14  1  0
 12 11  1  0
 13 24  2  0
 14 19  1  0
 15 23  1  0
 15 25  1  0
 16 18  1  0
 17 23  1  0
 18 19  2  0
 18 17  1  0
 20 14  2  0
 21 20  1  0
 21 16  2  0
 22 16  1  0
 22 15  1  0
 23 13  1  0
 25 27  2  0
 26 25  1  0
 28 26  1  0
 29 38  2  0
 29 34  1  0
 30 26  1  0
 30 34  1  0
 31 30  1  0
 32 33  1  0
 32 31  1  0
 33 29  1  0
 34 35  2  0
 35 36  1  0
 37 36  2  0
 38 37  1  0
 39 13  1  0
 39 40  1  0
 39 49  1  0
 40 43  1  0
 41 45  1  0
 41 40  1  0
 42 41  2  0
 45 44  1  0
 47 45  1  0
 47 48  1  0
 47 46  1  0
 49 52  1  1
 49 50  1  0
 51 49  1  0
 54 62  1  0
 55 60  1  0
 56 57  1  0
 56 55  1  0
 58 57  1  0
 58 67  1  0
 58 59  1  0
 60 54  1  0
 60 59  1  0
 61 54  2  0
 62 63  1  0
 62 53  1  0
 64 65  2  0
 65 84  1  0
 66 65  1  0
 66 69  1  0
 67 68  1  0
 67 64  1  0
 68 66  2  0
 69 70  1  0
 70 71  2  0
 72 75  1  0
 72 71  1  0
 73 72  2  0
 74 73  1  0
 74 69  2  0
 75 76  1  0
 76 77  1  0
 77 78  2  0
 79 78  1  0
 79 83  1  0
 80 79  2  0
 81 76  2  0
 81 80  1  0
 82 81  1  0
 84 85  1  0
 85 88  1  0
 85 87  1  0
 86 84  2  0
 89 90  1  0
 89 64  1  0
 91 89  1  0
M  ISO  4  11 101  12 101  54 100  62 100
M  END
>  <TORSDO>  (23) 
F 21

>  <SCORE>  (23) 
-13.727

>  <name>  (23) 
23

>  <ligand_id>  (23) 
23

>  <original_smiles>  (23) 
[H]c1c(C([H])([H])N([H])C(=O)N2C([H])([H])C([H])([H])C([H])([H])C([H])(n3nc(-c4c([H])c([H])c(Oc5c([H])c([H])c(F)c([H])c5F)c([H])c4[H])c(C(=O)N([H])[H])c3N([H])[H])C2([H])[H])nc(C([H])([H])[H])c(C([H])([H])C([H])([H])C([H])([H])C([H])([H])Oc2c([H])c([H])c3c(c2[H])C([H])([H])N(C(=O)C([H])(N([H])C(=O)C([H])(N([H])C([H])([H])[H])C([H])([H])[H])C(C([H])([H])[H])(C([H])([H])[H])C([H])([H])[H])C([H])(C(=O)N([H])C2([H])c4c([H])c([H])c([H])c([H])c4C([H])([H])C([H])([H])C2([H])[H])C3([H])[H])c1[H]

>  <smiles>  (23) 
[H]c1c(C([H])([H])N([H])C(=O)N2C([H])([H])C([H])([H])C([H])([H])C([H])(n3nc(-c4c([H])c([H])c(Oc5c([H])c([H])c(F)c([H])c5F)c([H])c4[H])c(C(=O)N([H])[H])c3N([H])[H])C2([H])[H])nc(C([H])([H])[H])c(C([H])([H])C([H])([H])C([H])([H])C([H])([H])Oc2c([H])c([H])c3c(c2[H])C([H])([H])N(C(=O)C([H])(N([H])C(=O)C([H])(N([H])C([H])([H])[H])C([H])([H])[H])C(C([H])([H])[H])(C([H])([H])[H])C([H])([H])[H])C([H])(C(=O)N([H])C2([H])c4c([H])c([H])c([H])c([H])c4C([H])([H])C([H])([H])C2([H])[H])C3([H])[H])c1[H]

$$$$
24:0:0
     RDKit          3D

 91 99  0  0  1  0  0  0  0  0999 V2000
  -29.0570  -19.9340   19.5290 C   0  0  0  0  0  3  0  0  0  0  0  0
  -26.3480  -17.4260   19.6140 C   0  0  0  0  0  3  0  0  0  0  0  0
  -27.4290  -16.6380   20.0540 C   0  0  0  0  0  3  0  0  0  0  0  0
  -26.8230  -18.6720   19.3370 C   0  0  0  0  0  0  0  0  0  0  0  0
  -28.5720  -17.3880   19.9960 C   0  0  0  0  0  0  0  0  0  0  0  0
  -26.0120  -19.7750   18.7360 C   0  0  0  0  0  1  0  0  0  0  0  0
  -28.1930  -18.7220   19.6620 N   0  0  0  0  0  0  0  0  0  0  0  0
  -29.9660  -16.8010   20.2120 C   0  0  0  0  0  2  0  0  0  0  0  0
  -30.6740  -14.3070   20.0850 C   0  0  0  0  0  0  0  0  0  0  0  0
  -30.4560  -12.0050   19.2160 C   0  0  0  0  0  2  0  0  0  0  0  0
  -29.4630  -12.0210   18.0340 C   0  0  0  0  0  2  0  0  0  0  0  0
  -28.0060  -11.9110   18.5290 C   0  0  0  0  0  2  0  0  0  0  0  0
  -27.6830  -12.8860   19.6930 C   0  0  0  0  0  3  0  0  0  0  0  0
  -28.7770  -12.7990   20.7830 C   0  0  0  0  0  2  0  0  0  0  0  0
  -30.0720  -13.0870   20.1370 N   0  0  0  0  0  0  0  0  0  0  0  0
  -31.7960  -14.4860   19.6020 O   0  0  0  0  0  0  0  0  0  0  0  0
  -29.8600  -15.3360   20.4140 N   0  0  0  0  0  0  0  0  0  0  0  0
  -28.9660  -15.0480   20.7770 H   0  0  0  0  0  0  0  0  0  0  0  0
  -25.3420  -13.5710   20.5160 C   0  0  0  0  0  0  0  0  0  0  0  0
  -24.2650  -12.8330   20.9280 C   0  0  0  0  0  0  0  0  0  0  0  0
  -24.6760  -11.4660   20.8700 C   0  0  0  0  0  0  0  0  0  0  0  0
  -26.3440  -12.6540   20.2310 N   0  0  0  0  0  0  0  0  0  0  0  0
  -25.9490  -11.3840   20.5010 N   0  0  0  0  0  0  0  0  0  0  0  0
  -23.9160  -10.2290   21.0880 C   0  0  0  0  0  0  0  0  0  0  0  0
  -24.3760   -9.2250   21.9670 C   0  0  0  0  0  3  0  0  0  0  0  0
  -23.6220   -8.0490   22.1700 C   0  0  0  0  0  3  0  0  0  0  0  0
  -22.3920   -7.8700   21.4930 C   0  0  0  0  0  0  0  0  0  0  0  0
  -21.9470   -8.8640   20.6030 C   0  0  0  0  0  3  0  0  0  0  0  0
  -22.7020  -10.0310   20.3990 C   0  0  0  0  0  3  0  0  0  0  0  0
  -21.6050   -6.7510   21.6110 O   0  0  0  0  0  0  0  0  0  0  0  0
  -21.6180   -5.9760   22.7430 C   0  0  0  0  0  0  0  0  0  0  0  0
  -21.3190   -6.5110   24.0150 C   0  0  0  0  0  3  0  0  0  0  0  0
  -21.2800   -5.6660   25.1410 C   0  0  0  0  0  3  0  0  0  0  0  0
  -21.5250   -4.2880   24.9990 C   0  0  0  0  0  0  0  0  0  0  0  0
  -21.8150   -3.7530   23.7320 C   0  0  0  0  0  3  0  0  0  0  0  0
  -21.8600   -4.5940   22.6070 C   0  0  0  0  0  0  0  0  0  0  0  0
  -22.1210   -4.0700   21.3850 F   0  0  0  0  0  0  0  0  0  0  0  0
  -21.4770   -3.4740   26.0790 F   0  0  0  0  0  0  0  0  0  0  0  0
  -22.8980  -13.3600   21.2630 C   0  0  0  0  0  0  0  0  0  0  0  0
  -22.1850  -12.7000   22.1700 N   0  0  0  0  0  0  0  0  0  0  0  0
  -22.4680  -14.3940   20.7530 O   0  0  0  0  0  0  0  0  0  0  0  0
  -22.5400  -11.8670   22.6170 H   0  0  0  0  0  0  0  0  0  0  0  0
  -21.2660  -13.0370   22.4210 H   0  0  0  0  0  0  0  0  0  0  0  0
  -25.5450  -14.9360   20.3410 N   0  0  0  0  0  0  0  0  0  0  0  0
  -24.8260  -15.6180   20.5540 H   0  0  0  0  0  0  0  0  0  0  0  0
  -26.4190  -15.3640   20.0680 H   0  0  0  0  0  0  0  0  0  0  0  0
  -28.6210  -21.2240   20.3430 C   0  0  0  0  0  3  0  0  0  0  0  0
  -29.2440  -22.6030   19.9160 C   0  0  0  0  0  2  0  0  0  0  0  0
  -28.5600  -23.8730   20.5490 C   0  0  0  0  0  3  0  0  0  0  0  0
  -29.0380  -25.2680   20.0140 C   0  0  0  0  0  3  0  0  0  0  0  0
  -28.6900  -26.4190   20.8360 O   0  0  0  0  0  0  0  0  0  0  0  0
  -24.5640  -31.7020   23.3330 C   0  0  0  0  0  0  0  0  0  0  0  0
  -27.5040  -27.1290   20.6750 C   0  0  0  0  0  0  0  0  0  0  0  0
  -23.5220  -30.2240   21.6490 C   0  0  0  0  0  3  0  0  0  0  0  0
  -25.1080  -28.6440   20.4160 C   0  0  0  0  0  0  0  0  0  0  0  0
  -26.0560  -30.5900   21.6630 C   0  0  0  0  0  2  0  0  0  0  0  0
  -26.2050  -29.1900   21.0900 C   0  0  0  0  0  0  0  0  0  0  0  0
  -27.3990  -28.4380   21.2190 C   0  0  0  0  0  3  0  0  0  0  0  0
  -26.3800  -26.6080   19.9930 C   0  0  0  0  0  3  0  0  0  0  0  0
  -25.1930  -27.3550   19.8630 C   0  0  0  0  0  3  0  0  0  0  0  0
  -23.8590  -29.4970   20.3190 C   0  0  0  0  0  2  0  0  0  0  0  0
  -24.7270  -30.8560   22.2750 N   0  0  0  0  0  0  0  0  0  0  0  0
  -23.4350  -31.9830   23.7630 O   0  0  0  0  0  0  0  0  0  0  0  0
  -22.7920  -29.2340   22.5880 C   0  0  0  0  0  0  0  0  0  0  0  0
  -21.4780  -29.0610   22.3780 N   0  0  0  0  0  0  0  0  0  0  0  0
  -23.4090  -28.6210   23.4620 O   0  0  0  0  0  0  0  0  0  0  0  0
  -21.0430  -29.6070   21.6460 H   0  0  0  0  0  0  0  0  0  0  0  0
  -18.0520  -27.9640   22.7050 C   0  0  0  0  0  0  0  0  0  0  0  0
  -20.5990  -28.1490   23.1070 C   0  0  0  0  0  3  0  0  0  0  0  0
  -20.6880  -26.7160   22.5370 C   0  0  0  0  0  2  0  0  0  0  0  0
  -19.6310  -26.4220   21.4690 C   0  0  0  0  0  2  0  0  0  0  0  0
  -18.2220  -26.6050   22.0420 C   0  0  0  0  0  2  0  0  0  0  0  0
  -19.1680  -28.6950   23.1930 C   0  0  0  0  0  0  0  0  0  0  0  0
  -18.9530  -29.9640   23.7700 C   0  0  0  0  0  3  0  0  0  0  0  0
  -17.6550  -30.5020   23.8660 C   0  0  0  0  0  3  0  0  0  0  0  0
  -16.5540  -29.7670   23.3970 C   0  0  0  0  0  3  0  0  0  0  0  0
  -16.7530  -28.5010   22.8240 C   0  0  0  0  0  3  0  0  0  0  0  0
  -25.7820  -32.3730   24.0400 C   0  0  0  0  0  3  0  0  0  0  0  0
  -25.4570  -33.7930   24.2350 N   0  0  0  0  0  0  0  0  0  0  0  0
  -25.8740  -34.7860   23.4390 C   0  0  0  0  0  0  0  0  0  0  0  0
  -26.6420  -34.6020   22.4890 O   0  0  0  0  0  0  0  0  0  0  0  0
  -24.7890  -34.0080   24.9600 H   0  0  0  0  0  0  0  0  0  0  0  0
  -24.2040  -36.5490   22.7860 C   0  0  0  0  0  1  0  0  0  0  0  0
  -25.3590  -36.2050   23.7400 C   0  0  0  0  0  3  0  0  0  0  0  0
  -27.4140  -37.1430   24.7020 C   0  0  0  0  0  1  0  0  0  0  0  0
  -26.4070  -37.2440   23.6480 N   0  0  0  0  0  0  0  0  0  0  0  0
  -25.9980  -38.1740   23.6890 H   0  0  0  0  0  0  0  0  0  0  0  0
  -26.1520  -31.6940   25.4150 C   0  0  1  0  0  0  0  0  0  0  0  0
  -24.9480  -31.5180   26.3680 C   0  0  0  0  0  1  0  0  0  0  0  0
  -26.7760  -30.2990   25.1800 C   0  0  0  0  0  1  0  0  0  0  0  0
  -27.2210  -32.5400   26.1490 C   0  0  0  0  0  1  0  0  0  0  0  0
  1  7  1  0
  1 47  2  0
  2  3  1  0
  4  2  2  0
  4  7  1  0
  5  3  2  0
  5  8  1  0
  6  4  1  0
  7  5  1  0
  8 17  1  0
  9 15  1  0
  9 17  1  0
 10 15  1  0
 11 12  1  0
 11 10  1  0
 13 12  1  0
 13 22  1  0
 13 14  1  0
 15 14  1  0
 16  9  2  0
 17 18  1  0
 19 20  2  0
 20 39  1  0
 21 20  1  0
 21 24  1  0
 22 23  1  0
 22 19  1  0
 23 21  2  0
 24 25  1  0
 25 26  2  0
 27 30  1  0
 27 26  1  0
 28 27  2  0
 29 28  1  0
 29 24  2  0
 30 31  1  0
 31 32  1  0
 32 33  2  0
 34 33  1  0
 34 38  1  0
 35 34  2  0
 36 31  2  0
 36 35  1  0
 37 36  1  0
 39 40  1  0
 40 43  1  0
 40 42  1  0
 41 39  2  0
 44 19  1  0
 44 45  1  0
 46 44  1  0
 48 47  1  0
 48 49  1  0
 50 49  2  0
 50 51  1  0
 52 63  2  0
 53 51  1  0
 53 58  1  0
 54 62  1  0
 54 64  1  0
 55 57  1  0
 56 62  1  0
 57 58  2  0
 57 56  1  0
 59 53  2  0
 60 59  1  0
 60 55  2  0
 61 55  1  0
 61 54  1  0
 62 52  1  0
 64 66  2  0
 65 64  1  0
 67 65  1  0
 68 77  2  0
 68 73  1  0
 69 65  1  0
 69 73  1  0
 70 69  1  0
 71 72  1  0
 71 70  1  0
 72 68  1  0
 73 74  2  0
 74 75  1  0
 76 75  2  0
 77 76  1  0
 78 52  1  0
 78 79  1  0
 78 88  1  0
 79 82  1  0
 80 84  1  0
 80 79  1  0
 81 80  2  0
 84 83  1  0
 86 87  1  0
 86 84  1  0
 86 85  1  0
 88 91  1  1
 88 89  1  0
 90 88  1  0
M  ISO  4   9 100  17 100  50 101  51 101
M  END
>  <TORSDO>  (24) 
F 22

>  <SCORE>  (24) 
-12.170

>  <name>  (24) 
24

>  <ligand_id>  (24) 
24

>  <original_smiles>  (24) 
[H]c1c([H])c([H])c2c(c1[H])C([H])([H])C([H])([H])C([H])([H])C2([H])N([H])C(=O)C1([H])N(C(=O)C([H])(N([H])C(=O)C([H])(N([H])C([H])([H])[H])C([H])([H])[H])C(C([H])([H])[H])(C([H])([H])[H])C([H])([H])[H])C([H])([H])c2c([H])c(OC([H])([H])C([H])([H])C([H])([H])C([H])([H])C([H])([H])n3c(C([H])([H])[H])c([H])c([H])c3C([H])([H])N([H])C(=O)N3C([H])([H])C([H])([H])C([H])([H])C([H])(n4nc(-c5c([H])c([H])c(Oc6c([H])c([H])c(F)c([H])c6F)c([H])c5[H])c(C(=O)N([H])[H])c4N([H])[H])C3([H])[H])c([H])c([H])c2C1([H])[H]

>  <smiles>  (24) 
[H]c1c([H])c([H])c2c(c1[H])C([H])([H])C([H])([H])C([H])([H])C2([H])N([H])C(=O)C1([H])N(C(=O)C([H])(N([H])C(=O)C([H])(N([H])C([H])([H])[H])C([H])([H])[H])C(C([H])([H])[H])(C([H])([H])[H])C([H])([H])[H])C([H])([H])c2c([H])c(OC([H])([H])C([H])([H])C([H])([H])C([H])([H])C([H])([H])n3c(C([H])([H])[H])c([H])c([H])c3C([H])([H])N([H])C(=O)N3C([H])([H])C([H])([H])C([H])([H])C([H])(n4nc(-c5c([H])c([H])c(Oc6c([H])c([H])c(F)c([H])c6F)c([H])c5[H])c(C(=O)N([H])[H])c4N([H])[H])C3([H])[H])c([H])c([H])c2C1([H])[H]

$$$$
25:0:0
     RDKit          3D

 93101  0  0  1  0  0  0  0  0999 V2000
  -30.0230  -18.5510   19.6000 C   0  0  0  0  0  3  0  0  0  0  0  0
  -28.5060  -19.4910   21.2180 C   0  0  0  0  0  3  0  0  0  0  0  0
  -29.0930  -19.5530   19.9360 C   0  0  0  0  0  0  0  0  0  0  0  0
  -30.3190  -17.5830   20.5810 C   0  0  0  0  0  0  0  0  0  0  0  0
  -28.8300  -18.5290   22.1170 N   0  0  0  0  0  0  0  0  0  0  0  0
  -29.7360  -17.5940   21.8060 N   0  0  0  0  0  0  0  0  0  0  0  0
  -28.7970  -20.6910   18.9760 C   0  0  0  0  0  2  0  0  0  0  0  0
  -29.0450  -22.0510   19.6480 C   0  0  0  0  0  2  0  0  0  0  0  0
  -29.2720  -23.2150   18.6740 C   0  0  0  0  0  2  0  0  0  0  0  0
  -29.4030  -24.5400   19.4370 C   0  0  0  0  0  2  0  0  0  0  0  0
  -29.7380  -25.7410   18.5340 C   0  0  0  0  0  2  0  0  0  0  0  0
  -29.5320  -26.9650   19.2360 O   0  0  0  0  0  0  0  0  0  0  0  0
  -25.1020  -30.9430   23.1270 C   0  0  0  0  0  0  0  0  0  0  0  0
  -28.2510  -27.4610   19.3560 C   0  0  0  0  0  0  0  0  0  0  0  0
  -24.0640  -29.6770   21.2760 C   0  0  0  0  0  3  0  0  0  0  0  0
  -25.6750  -28.5970   19.6290 C   0  0  0  0  0  0  0  0  0  0  0  0
  -26.5200  -30.3870   21.1570 C   0  0  0  0  0  2  0  0  0  0  0  0
  -26.7650  -29.1650   20.3000 C   0  0  0  0  0  0  0  0  0  0  0  0
  -28.0520  -28.6000   20.1670 C   0  0  0  0  0  3  0  0  0  0  0  0
  -27.1320  -26.8990   18.6920 C   0  0  0  0  0  3  0  0  0  0  0  0
  -25.8510  -27.4580   18.8300 C   0  0  0  0  0  3  0  0  0  0  0  0
  -24.3350  -29.2700   19.8050 C   0  0  0  0  0  2  0  0  0  0  0  0
  -25.2450  -30.3440   21.9120 N   0  0  0  0  0  0  0  0  0  0  0  0
  -24.0020  -30.9830   23.6970 O   0  0  0  0  0  0  0  0  0  0  0  0
  -23.5700  -28.4340   22.0510 C   0  0  0  0  0  0  0  0  0  0  0  0
  -22.3110  -28.0390   21.8020 N   0  0  0  0  0  0  0  0  0  0  0  0
  -24.3140  -27.8380   22.8320 O   0  0  0  0  0  0  0  0  0  0  0  0
  -21.7620  -28.5890   21.1560 H   0  0  0  0  0  0  0  0  0  0  0  0
  -19.2160  -26.1720   21.8410 C   0  0  0  0  0  0  0  0  0  0  0  0
  -21.6420  -26.8790   22.3900 C   0  0  0  0  0  3  0  0  0  0  0  0
  -22.0740  -25.5720   21.6870 C   0  0  0  0  0  2  0  0  0  0  0  0
  -21.1420  -25.1660   20.5410 C   0  0  0  0  0  2  0  0  0  0  0  0
  -19.7120  -24.9690   21.0560 C   0  0  0  0  0  2  0  0  0  0  0  0
  -20.1230  -27.0770   22.4530 C   0  0  0  0  0  0  0  0  0  0  0  0
  -19.6100  -28.1990   23.1400 C   0  0  0  0  0  3  0  0  0  0  0  0
  -18.2220  -28.4200   23.2230 C   0  0  0  0  0  3  0  0  0  0  0  0
  -17.3290  -27.5110   22.6280 C   0  0  0  0  0  3  0  0  0  0  0  0
  -17.8270  -26.3880   21.9440 C   0  0  0  0  0  3  0  0  0  0  0  0
  -26.3060  -31.6290   23.8460 C   0  0  0  0  0  3  0  0  0  0  0  0
  -25.8280  -32.9110   24.3820 N   0  0  0  0  0  0  0  0  0  0  0  0
  -26.0430  -34.1020   23.8070 C   0  0  0  0  0  0  0  0  0  0  0  0
  -26.7360  -34.2430   22.7970 O   0  0  0  0  0  0  0  0  0  0  0  0
  -25.2140  -32.8660   25.1810 H   0  0  0  0  0  0  0  0  0  0  0  0
  -24.1240  -35.7200   23.6660 C   0  0  0  0  0  1  0  0  0  0  0  0
  -25.3840  -35.3330   24.4580 C   0  0  0  0  0  3  0  0  0  0  0  0
  -27.3780  -36.3040   25.5090 C   0  0  0  0  0  1  0  0  0  0  0  0
  -26.2870  -36.5000   24.5590 N   0  0  0  0  0  0  0  0  0  0  0  0
  -25.7720  -37.3330   24.8340 H   0  0  0  0  0  0  0  0  0  0  0  0
  -26.9340  -30.7450   24.9930 C   0  0  1  0  0  0  0  0  0  0  0  0
  -25.8920  -30.1800   25.9870 C   0  0  0  0  0  1  0  0  0  0  0  0
  -27.7100  -29.5480   24.3950 C   0  0  0  0  0  1  0  0  0  0  0  0
  -27.9580  -31.5790   25.7960 C   0  0  0  0  0  1  0  0  0  0  0  0
  -31.3230  -16.4770   20.2990 C   0  0  0  0  0  2  0  0  0  0  0  0
  -30.2990  -14.6610   21.7770 C   0  0  0  0  0  1  0  0  0  0  0  0
  -30.6870  -15.0710   20.3390 C   0  0  0  0  0  3  0  0  0  0  0  0
  -31.3950  -13.3610   18.6630 C   0  0  0  0  0  0  0  0  0  0  0  0
  -30.6230  -11.1470   17.8930 C   0  0  0  0  0  2  0  0  0  0  0  0
  -29.4730  -11.2210   16.8740 C   0  0  0  0  0  2  0  0  0  0  0  0
  -28.1070  -11.3220   17.5810 C   0  0  0  0  0  2  0  0  0  0  0  0
  -28.0940  -12.4200   18.6730 C   0  0  0  0  0  3  0  0  0  0  0  0
  -29.3130  -12.2550   19.5990 C   0  0  0  0  0  2  0  0  0  0  0  0
  -30.5440  -12.3090   18.7920 N   0  0  0  0  0  0  0  0  0  0  0  0
  -32.1910  -13.4730   17.7270 O   0  0  0  0  0  0  0  0  0  0  0  0
  -31.6070  -14.0740   19.7810 N   0  0  0  0  0  0  0  0  0  0  0  0
  -32.5630  -14.3930   19.8230 H   0  0  0  0  0  0  0  0  0  0  0  0
  -26.0600  -13.4830   19.8480 C   0  0  0  0  0  0  0  0  0  0  0  0
  -24.9690  -12.9310   20.4610 C   0  0  0  0  0  0  0  0  0  0  0  0
  -25.1460  -11.5150   20.3800 C   0  0  0  0  0  0  0  0  0  0  0  0
  -26.8440  -12.4170   19.4300 N   0  0  0  0  0  0  0  0  0  0  0  0
  -26.3060  -11.2280   19.8020 N   0  0  0  0  0  0  0  0  0  0  0  0
  -24.2540  -10.4150   20.7660 C   0  0  0  0  0  0  0  0  0  0  0  0
  -24.6060   -9.5000   21.7820 C   0  0  0  0  0  3  0  0  0  0  0  0
  -23.7240   -8.4610   22.1480 C   0  0  0  0  0  3  0  0  0  0  0  0
  -22.4740   -8.3300   21.4980 C   0  0  0  0  0  0  0  0  0  0  0  0
  -22.1360   -9.2300   20.4710 C   0  0  0  0  0  3  0  0  0  0  0  0
  -23.0180  -10.2610   20.1060 C   0  0  0  0  0  3  0  0  0  0  0  0
  -21.5650   -7.3360   21.7650 O   0  0  0  0  0  0  0  0  0  0  0  0
  -21.3590   -6.8750   23.0410 C   0  0  0  0  0  0  0  0  0  0  0  0
  -20.9550   -7.7340   24.0860 C   0  0  0  0  0  3  0  0  0  0  0  0
  -20.6850   -7.2040   25.3640 C   0  0  0  0  0  3  0  0  0  0  0  0
  -20.8090   -5.8210   25.5960 C   0  0  0  0  0  0  0  0  0  0  0  0
  -21.2090   -4.9660   24.5550 C   0  0  0  0  0  3  0  0  0  0  0  0
  -21.4790   -5.4910   23.2790 C   0  0  0  0  0  0  0  0  0  0  0  0
  -21.8420   -4.6580   22.2730 F   0  0  0  0  0  0  0  0  0  0  0  0
  -20.5440   -5.3140   26.8220 F   0  0  0  0  0  0  0  0  0  0  0  0
  -23.7800  -13.6660   21.0080 C   0  0  0  0  0  0  0  0  0  0  0  0
  -23.1740  -13.1480   22.0700 N   0  0  0  0  0  0  0  0  0  0  0  0
  -23.4120  -14.7360   20.5240 O   0  0  0  0  0  0  0  0  0  0  0  0
  -23.4860  -12.2800   22.4790 H   0  0  0  0  0  0  0  0  0  0  0  0
  -22.3830  -13.6250   22.4760 H   0  0  0  0  0  0  0  0  0  0  0  0
  -26.4470  -14.7980   19.6000 N   0  0  0  0  0  0  0  0  0  0  0  0
  -25.8930  -15.5920   19.9010 H   0  0  0  0  0  0  0  0  0  0  0  0
  -27.2980  -15.0660   19.1240 H   0  0  0  0  0  0  0  0  0  0  0  0
  1  3  2  0
  1  4  1  0
  2  5  2  0
  3  2  1  0
  4  6  2  0
  6  5  1  0
  7  8  1  0
  7  3  1  0
  9 10  1  0
  9  8  1  0
 11 12  1  0
 11 10  1  0
 12 14  1  0
 13 24  2  0
 14 19  1  0
 15 23  1  0
 15 25  1  0
 16 22  1  0
 16 18  1  0
 17 23  1  0
 18 17  1  0
 19 18  2  0
 20 21  1  0
 20 14  2  0
 21 16  2  0
 22 15  1  0
 23 13  1  0
 25 27  2  0
 26 25  1  0
 28 26  1  0
 29 38  2  0
 29 34  1  0
 30 26  1  0
 30 34  1  0
 31 30  1  0
 32 33  1  0
 32 31  1  0
 33 29  1  0
 34 35  2  0
 35 36  1  0
 37 36  2  0
 38 37  1  0
 39 13  1  0
 39 40  1  0
 39 49  1  0
 40 43  1  0
 41 40  1  0
 41 45  1  0
 42 41  2  0
 45 44  1  0
 45 47  1  0
 47 48  1  0
 47 46  1  0
 49 52  1  1
 49 50  1  0
 51 49  1  0
 53 55  1  0
 53  4  1  0
 55 54  1  0
 56 62  1  0
 56 64  1  0
 57 62  1  0
 58 59  1  0
 58 57  1  0
 60 59  1  0
 60 69  1  0
 60 61  1  0
 62 61  1  0
 63 56  2  0
 64 65  1  0
 64 55  1  0
 66 67  2  0
 67 86  1  0
 68 67  1  0
 68 71  1  0
 69 70  1  0
 69 66  1  0
 70 68  2  0
 71 72  1  0
 72 73  2  0
 74 77  1  0
 74 73  1  0
 75 74  2  0
 76 75  1  0
 76 71  2  0
 77 78  1  0
 78 83  2  0
 78 79  1  0
 79 80  2  0
 80 81  1  0
 81 85  1  0
 82 81  2  0
 83 82  1  0
 84 83  1  0
 86 87  1  0
 87 90  1  0
 87 89  1  0
 88 86  2  0
 91 66  1  0
 91 92  1  0
 93 91  1  0
M  ISO  4  11 101  12 101  56 100  64 100
M  END
>  <TORSDO>  (25) 
F 23

>  <SCORE>  (25) 
-1.904

>  <name>  (25) 
25

>  <ligand_id>  (25) 
25

>  <original_smiles>  (25) 
[H]c1nnc(C([H])([H])C([H])(N([H])C(=O)N2C([H])([H])C([H])([H])C([H])([H])C([H])(n3nc(-c4c([H])c([H])c(Oc5c([H])c([H])c(F)c([H])c5F)c([H])c4[H])c(C(=O)N([H])[H])c3N([H])[H])C2([H])[H])C([H])([H])[H])c([H])c1C([H])([H])C([H])([H])C([H])([H])C([H])([H])C([H])([H])Oc1c([H])c([H])c2c(c1[H])C([H])([H])N(C(=O)C([H])(N([H])C(=O)C([H])(N([H])C([H])([H])[H])C([H])([H])[H])C(C([H])([H])[H])(C([H])([H])[H])C([H])([H])[H])C([H])(C(=O)N([H])C1([H])c3c([H])c([H])c([H])c([H])c3C([H])([H])C([H])([H])C1([H])[H])C2([H])[H]

>  <smiles>  (25) 
[H]c1nnc(C([H])([H])C([H])(N([H])C(=O)N2C([H])([H])C([H])([H])C([H])([H])C([H])(n3nc(-c4c([H])c([H])c(Oc5c([H])c([H])c(F)c([H])c5F)c([H])c4[H])c(C(=O)N([H])[H])c3N([H])[H])C2([H])[H])C([H])([H])[H])c([H])c1C([H])([H])C([H])([H])C([H])([H])C([H])([H])C([H])([H])Oc1c([H])c([H])c2c(c1[H])C([H])([H])N(C(=O)C([H])(N([H])C(=O)C([H])(N([H])C([H])([H])[H])C([H])([H])[H])C(C([H])([H])[H])(C([H])([H])[H])C([H])([H])[H])C([H])(C(=O)N([H])C1([H])c3c([H])c([H])c([H])c([H])c3C([H])([H])C([H])([H])C1([H])[H])C2([H])[H]

$$$$
26:0:0
     RDKit          3D

 95103  0  0  1  0  0  0  0  0999 V2000
  -29.1950  -19.2280   21.5550 C   0  0  0  0  0  3  0  0  0  0  0  0
  -29.2000  -17.8710   22.0120 C   0  0  0  0  0  0  0  0  0  0  0  0
  -28.2610  -19.9160   22.3040 C   0  0  0  0  0  0  0  0  0  0  0  0
  -28.1840  -17.6800   22.8240 N   0  0  0  0  0  0  0  0  0  0  0  0
  -27.6250  -18.9090   23.0570 N   0  0  0  0  0  0  0  0  0  0  0  0
  -28.4060  -21.9900   23.8160 C   0  0  0  0  0  1  0  0  0  0  0  0
  -27.9390  -21.4490   22.4480 C   0  0  0  0  0  3  0  0  0  0  0  0
  -28.3600  -22.4880   21.3060 C   0  0  0  0  0  2  0  0  0  0  0  0
  -28.0860  -24.0460   21.5570 C   0  0  0  0  0  2  0  0  0  0  0  0
  -28.1200  -24.9450   20.2480 C   0  0  0  0  0  2  0  0  0  0  0  0
  -28.2710  -26.4230   20.3080 O   0  0  0  0  0  0  0  0  0  0  0  0
  -24.6320  -31.8610   23.2080 C   0  0  0  0  0  0  0  0  0  0  0  0
  -27.1760  -27.2830   20.1720 C   0  0  0  0  0  0  0  0  0  0  0  0
  -23.4250  -30.4900   21.5460 C   0  0  0  0  0  3  0  0  0  0  0  0
  -24.8610  -28.9480   20.1080 C   0  0  0  0  0  0  0  0  0  0  0  0
  -25.9640  -30.7880   21.3840 C   0  0  0  0  0  2  0  0  0  0  0  0
  -26.0300  -29.4180   20.7240 C   0  0  0  0  0  0  0  0  0  0  0  0
  -27.1880  -28.5910   20.7500 C   0  0  0  0  0  3  0  0  0  0  0  0
  -26.0070  -26.8940   19.4780 C   0  0  0  0  0  3  0  0  0  0  0  0
  -24.8540  -27.7040   19.4620 C   0  0  0  0  0  3  0  0  0  0  0  0
  -23.6410  -29.8380   20.1560 C   0  0  0  0  0  2  0  0  0  0  0  0
  -24.6920  -31.0640   22.1030 N   0  0  0  0  0  0  0  0  0  0  0  0
  -23.5470  -32.1440   23.7310 O   0  0  0  0  0  0  0  0  0  0  0  0
  -22.7500  -29.4630   22.4860 C   0  0  0  0  0  0  0  0  0  0  0  0
  -21.4220  -29.3070   22.3630 N   0  0  0  0  0  0  0  0  0  0  0  0
  -23.4160  -28.8180   23.2990 O   0  0  0  0  0  0  0  0  0  0  0  0
  -20.9340  -29.8750   21.6830 H   0  0  0  0  0  0  0  0  0  0  0  0
  -18.0310  -28.1390   22.8500 C   0  0  0  0  0  0  0  0  0  0  0  0
  -20.5930  -28.3710   23.1240 C   0  0  0  0  0  3  0  0  0  0  0  0
  -20.6780  -26.9420   22.5380 C   0  0  0  0  0  2  0  0  0  0  0  0
  -19.5730  -26.6400   21.5200 C   0  0  0  0  0  2  0  0  0  0  0  0
  -18.1930  -26.7950   22.1630 C   0  0  0  0  0  2  0  0  0  0  0  0
  -19.1570  -28.8860   23.2890 C   0  0  0  0  0  0  0  0  0  0  0  0
  -18.9480  -30.1470   23.8880 C   0  0  0  0  0  3  0  0  0  0  0  0
  -17.6450  -30.6580   24.0580 C   0  0  0  0  0  3  0  0  0  0  0  0
  -16.5350  -29.9070   23.6320 C   0  0  0  0  0  3  0  0  0  0  0  0
  -16.7290  -28.6500   23.0350 C   0  0  0  0  0  3  0  0  0  0  0  0
  -25.9150  -32.4800   23.8440 C   0  0  0  0  0  3  0  0  0  0  0  0
  -25.5950  -33.8600   24.2330 N   0  0  0  0  0  0  0  0  0  0  0  0
  -25.9040  -34.9460   23.5130 C   0  0  0  0  0  0  0  0  0  0  0  0
  -26.5560  -34.8880   22.4660 O   0  0  0  0  0  0  0  0  0  0  0  0
  -25.0160  -33.9790   25.0500 H   0  0  0  0  0  0  0  0  0  0  0  0
  -24.1490  -36.7280   23.2660 C   0  0  0  0  0  1  0  0  0  0  0  0
  -25.4100  -36.3080   24.0350 C   0  0  0  0  0  3  0  0  0  0  0  0
  -27.5540  -37.1800   24.8480 C   0  0  0  0  0  1  0  0  0  0  0  0
  -26.4270  -37.3760   23.9430 N   0  0  0  0  0  0  0  0  0  0  0  0
  -26.0140  -38.2830   24.1390 H   0  0  0  0  0  0  0  0  0  0  0  0
  -26.4510  -31.6600   25.0800 C   0  0  1  0  0  0  0  0  0  0  0  0
  -25.3760  -31.3700   26.1530 C   0  0  0  0  0  1  0  0  0  0  0  0
  -27.0360  -30.3030   24.6220 C   0  0  0  0  0  1  0  0  0  0  0  0
  -27.6060  -32.4350   25.7540 C   0  0  0  0  0  1  0  0  0  0  0  0
  -30.1990  -16.7010   21.8380 C   0  0  0  0  0  2  0  0  0  0  0  0
  -30.6830  -14.5940   20.5250 C   0  0  0  0  0  0  0  0  0  0  0  0
  -30.3880  -12.4050   19.3950 C   0  0  0  0  0  2  0  0  0  0  0  0
  -29.4680  -12.6150   18.1600 C   0  0  0  0  0  2  0  0  0  0  0  0
  -27.9940  -12.9360   18.5210 C   0  0  0  0  0  2  0  0  0  0  0  0
  -27.7070  -12.7380   19.9990 C   0  0  0  0  0  3  0  0  0  0  0  0
  -28.7630  -13.0950   21.0560 C   0  0  0  0  0  2  0  0  0  0  0  0
  -30.0170  -13.4160   20.3980 N   0  0  0  0  0  0  0  0  0  0  0  0
  -31.8430  -14.7210   20.1300 O   0  0  0  0  0  0  0  0  0  0  0  0
  -29.9280  -15.7010   20.7730 N   0  0  0  0  0  0  0  0  0  0  0  0
  -29.9260  -16.2400   19.9130 H   0  0  0  0  0  0  0  0  0  0  0  0
  -25.3150  -13.7530   20.5900 C   0  0  0  0  0  0  0  0  0  0  0  0
  -24.1910  -13.0470   20.9570 C   0  0  0  0  0  0  0  0  0  0  0  0
  -24.5800  -11.6760   20.9380 C   0  0  0  0  0  0  0  0  0  0  0  0
  -26.3120  -12.7920   20.4140 N   0  0  0  0  0  0  0  0  0  0  0  0
  -25.8430  -11.5590   20.6440 N   0  0  0  0  0  0  0  0  0  0  0  0
  -23.8430  -10.4350   21.0980 C   0  0  0  0  0  0  0  0  0  0  0  0
  -24.3210   -9.4240   21.9500 C   0  0  0  0  0  3  0  0  0  0  0  0
  -23.6210   -8.2040   22.0840 C   0  0  0  0  0  3  0  0  0  0  0  0
  -22.4300   -7.9980   21.3500 C   0  0  0  0  0  0  0  0  0  0  0  0
  -21.9840   -9.0040   20.4690 C   0  0  0  0  0  3  0  0  0  0  0  0
  -22.6860  -10.2100   20.3350 C   0  0  0  0  0  3  0  0  0  0  0  0
  -21.6610   -6.8570   21.4170 O   0  0  0  0  0  0  0  0  0  0  0  0
  -21.6720   -6.0720   22.5300 C   0  0  0  0  0  0  0  0  0  0  0  0
  -21.3710   -6.5660   23.8220 C   0  0  0  0  0  3  0  0  0  0  0  0
  -21.3470   -5.6830   24.9160 C   0  0  0  0  0  3  0  0  0  0  0  0
  -21.6060   -4.3090   24.7300 C   0  0  0  0  0  0  0  0  0  0  0  0
  -21.8960   -3.8170   23.4450 C   0  0  0  0  0  3  0  0  0  0  0  0
  -21.9260   -4.6960   22.3480 C   0  0  0  0  0  0  0  0  0  0  0  0
  -22.1870   -4.2180   21.1080 F   0  0  0  0  0  0  0  0  0  0  0  0
  -21.5710   -3.4600   25.7840 F   0  0  0  0  0  0  0  0  0  0  0  0
  -22.8020  -13.5610   21.2080 C   0  0  0  0  0  0  0  0  0  0  0  0
  -22.0520  -12.8680   22.0470 N   0  0  0  0  0  0  0  0  0  0  0  0
  -22.3780  -14.5960   20.6900 O   0  0  0  0  0  0  0  0  0  0  0  0
  -22.3990  -12.0190   22.4770 H   0  0  0  0  0  0  0  0  0  0  0  0
  -21.1120  -13.1740   22.2380 H   0  0  0  0  0  0  0  0  0  0  0  0
  -25.5260  -15.1080   20.3940 N   0  0  0  0  0  0  0  0  0  0  0  0
  -24.8190  -15.8130   20.5780 H   0  0  0  0  0  0  0  0  0  0  0  0
  -26.4180  -15.5020   20.1260 H   0  0  0  0  0  0  0  0  0  0  0  0
  -26.5640  -19.0210   24.0760 C   0  0  0  0  0  2  0  0  0  0  0  0
  -25.6590  -17.7770   24.3200 C   0  0  0  0  0  2  0  0  0  0  0  0
  -27.3600  -16.1390   25.3840 C   0  0  0  0  0  1  0  0  0  0  0  0
  -24.9460  -15.8500   25.8310 C   0  0  0  0  0  1  0  0  0  0  0  0
  -26.0280  -16.9040   25.5480 C   0  0  0  0  0  3  0  0  0  0  0  0
  1  2  1  0
  1  3  2  0
  2  4  2  0
  3  7  1  0
  3  5  1  0
  4  5  1  0
  5 91  1  0
  7  6  1  0
  8  9  1  0
  8  7  1  0
 10 11  1  0
 10  9  1  0
 12 23  2  0
 13 11  1  0
 13 18  1  0
 14 22  1  0
 14 24  1  0
 15 21  1  0
 15 17  1  0
 16 22  1  0
 17 18  2  0
 17 16  1  0
 19 13  2  0
 20 19  1  0
 20 15  2  0
 21 14  1  0
 22 12  1  0
 24 26  2  0
 25 24  1  0
 27 25  1  0
 28 37  2  0
 28 33  1  0
 29 25  1  0
 29 33  1  0
 30 29  1  0
 31 32  1  0
 31 30  1  0
 32 28  1  0
 33 34  2  0
 34 35  1  0
 36 35  2  0
 37 36  1  0
 38 12  1  0
 38 39  1  0
 38 48  1  0
 39 42  1  0
 40 44  1  0
 40 39  1  0
 41 40  2  0
 44 43  1  0
 46 44  1  0
 46 47  1  0
 46 45  1  0
 48 51  1  1
 48 49  1  0
 50 48  1  0
 52  2  1  0
 53 61  1  0
 54 59  1  0
 55 56  1  0
 55 54  1  0
 57 56  1  0
 57 66  1  0
 57 58  1  0
 59 53  1  0
 59 58  1  0
 60 53  2  0
 61 52  1  0
 62 61  1  0
 63 64  2  0
 64 83  1  0
 65 64  1  0
 65 68  1  0
 66 63  1  0
 66 67  1  0
 67 65  2  0
 68 69  1  0
 69 70  2  0
 71 74  1  0
 71 70  1  0
 72 71  2  0
 73 72  1  0
 73 68  2  0
 74 75  1  0
 75 76  1  0
 76 77  2  0
 78 77  1  0
 78 82  1  0
 79 78  2  0
 80 75  2  0
 80 79  1  0
 81 80  1  0
 83 84  1  0
 84 87  1  0
 84 86  1  0
 85 83  2  0
 88 89  1  0
 88 63  1  0
 90 88  1  0
 91 92  1  0
 92 95  1  0
 93 95  1  0
 95 94  1  0
M  ISO  4  10 101  11 101  53 100  61 100
M  END
>  <TORSDO>  (26) 
F 24

>  <SCORE>  (26) 
47.348

>  <name>  (26) 
26

>  <ligand_id>  (26) 
26

>  <original_smiles>  (26) 
[H]c1c([H])c([H])c2c(c1[H])C([H])([H])C([H])([H])C([H])([H])C2([H])N([H])C(=O)C1([H])N(C(=O)C([H])(N([H])C(=O)C([H])(N([H])C([H])([H])[H])C([H])([H])[H])C(C([H])([H])[H])(C([H])([H])[H])C([H])([H])[H])C([H])([H])c2c([H])c(OC([H])([H])C([H])([H])C([H])([H])C([H])(c3c([H])c(C([H])([H])N([H])C(=O)N4C([H])([H])C([H])([H])C([H])([H])C([H])(n5nc(-c6c([H])c([H])c(Oc7c([H])c([H])c(F)c([H])c7F)c([H])c6[H])c(C(=O)N([H])[H])c5N([H])[H])C4([H])[H])nn3C([H])([H])C([H])([H])C([H])(C([H])([H])[H])C([H])([H])[H])C([H])([H])[H])c([H])c([H])c2C1([H])[H]

>  <smiles>  (26) 
[H]c1c([H])c([H])c2c(c1[H])C([H])([H])C([H])([H])C([H])([H])C2([H])N([H])C(=O)C1([H])N(C(=O)C([H])(N([H])C(=O)C([H])(N([H])C([H])([H])[H])C([H])([H])[H])C(C([H])([H])[H])(C([H])([H])[H])C([H])([H])[H])C([H])([H])c2c([H])c(OC([H])([H])C([H])([H])C([H])([H])C([H])(c3c([H])c(C([H])([H])N([H])C(=O)N4C([H])([H])C([H])([H])C([H])([H])C([H])(n5nc(-c6c([H])c([H])c(Oc7c([H])c([H])c(F)c([H])c7F)c([H])c6[H])c(C(=O)N([H])[H])c5N([H])[H])C4([H])[H])nn3C([H])([H])C([H])([H])C([H])(C([H])([H])[H])C([H])([H])[H])C([H])([H])[H])c([H])c([H])c2C1([H])[H]

$$$$
27:0:0
     RDKit          3D

 98106  0  0  1  0  0  0  0  0999 V2000
  -30.8710  -20.1350   21.2830 C   0  0  0  0  0  3  0  0  0  0  0  0
  -30.2940  -18.9440   20.7830 C   0  0  0  0  0  0  0  0  0  0  0  0
  -28.9400  -19.0110   20.3590 C   0  0  0  0  0  0  0  0  0  0  0  0
  -28.2620  -20.2630   20.4380 C   0  0  0  0  0  0  0  0  0  0  0  0
  -28.9640  -21.4080   20.9140 C   0  0  0  0  0  0  0  0  0  0  0  0
  -28.1960  -17.7710   19.8530 C   0  0  0  0  0  1  0  0  0  0  0  0
  -30.2350  -21.3230   21.3510 N   0  0  0  0  0  0  0  0  0  0  0  0
  -32.6450  -17.9080   20.7240 C   0  0  0  0  0  1  0  0  0  0  0  0
  -31.1270  -17.6440   20.6950 C   0  0  0  0  0  3  0  0  0  0  0  0
  -30.7360  -16.5840   21.7730 C   0  0  0  0  0  2  0  0  0  0  0  0
  -30.6900  -14.3840   20.5500 C   0  0  0  0  0  0  0  0  0  0  0  0
  -30.3230  -12.2710   19.3230 C   0  0  0  0  0  2  0  0  0  0  0  0
  -29.3690  -12.4940   18.1340 C   0  0  0  0  0  2  0  0  0  0  0  0
  -27.9010  -12.3540   18.5810 C   0  0  0  0  0  2  0  0  0  0  0  0
  -27.5820  -13.1780   19.8560 C   0  0  0  0  0  3  0  0  0  0  0  0
  -28.6480  -12.9430   20.9490 C   0  0  0  0  0  2  0  0  0  0  0  0
  -29.9700  -13.2420   20.3710 N   0  0  0  0  0  0  0  0  0  0  0  0
  -31.7930  -14.5660   20.0280 O   0  0  0  0  0  0  0  0  0  0  0  0
  -30.1040  -15.3480   21.2790 N   0  0  0  0  0  0  0  0  0  0  0  0
  -29.1800  -15.1430   21.6290 H   0  0  0  0  0  0  0  0  0  0  0  0
  -25.1870  -13.7840   20.5820 C   0  0  0  0  0  0  0  0  0  0  0  0
  -24.1210  -13.0110   20.9580 C   0  0  0  0  0  0  0  0  0  0  0  0
  -24.5810  -11.6600   20.9230 C   0  0  0  0  0  0  0  0  0  0  0  0
  -26.2310  -12.9030   20.3450 N   0  0  0  0  0  0  0  0  0  0  0  0
  -25.8690  -11.6200   20.6050 N   0  0  0  0  0  0  0  0  0  0  0  0
  -23.8540  -10.3990   21.1160 C   0  0  0  0  0  0  0  0  0  0  0  0
  -24.3130   -9.4120   22.0160 C   0  0  0  0  0  3  0  0  0  0  0  0
  -23.5870   -8.2160   22.1970 C   0  0  0  0  0  3  0  0  0  0  0  0
  -22.3880   -7.9970   21.4790 C   0  0  0  0  0  0  0  0  0  0  0  0
  -21.9490   -8.9720   20.5660 C   0  0  0  0  0  3  0  0  0  0  0  0
  -22.6750  -10.1600   20.3820 C   0  0  0  0  0  3  0  0  0  0  0  0
  -21.6300   -6.8550   21.5710 O   0  0  0  0  0  0  0  0  0  0  0  0
  -21.6420   -6.0720   22.6980 C   0  0  0  0  0  0  0  0  0  0  0  0
  -21.3070   -6.5910   23.9690 C   0  0  0  0  0  3  0  0  0  0  0  0
  -21.2640   -5.7370   25.0890 C   0  0  0  0  0  3  0  0  0  0  0  0
  -21.5450   -4.3660   24.9410 C   0  0  0  0  0  0  0  0  0  0  0  0
  -21.8740   -3.8470   23.6760 C   0  0  0  0  0  3  0  0  0  0  0  0
  -21.9190   -4.6980   22.5580 C   0  0  0  0  0  0  0  0  0  0  0  0
  -22.2150   -4.1880   21.3380 F   0  0  0  0  0  0  0  0  0  0  0  0
  -21.4970   -3.5430   26.0150 F   0  0  0  0  0  0  0  0  0  0  0  0
  -22.7270  -13.4910   21.2410 C   0  0  0  0  0  0  0  0  0  0  0  0
  -22.0090  -12.8010   22.1200 N   0  0  0  0  0  0  0  0  0  0  0  0
  -22.2830  -14.5130   20.7180 O   0  0  0  0  0  0  0  0  0  0  0  0
  -22.3800  -11.9750   22.5640 H   0  0  0  0  0  0  0  0  0  0  0  0
  -21.0730  -13.1040   22.3510 H   0  0  0  0  0  0  0  0  0  0  0  0
  -25.3510  -15.1540   20.4050 N   0  0  0  0  0  0  0  0  0  0  0  0
  -24.5820  -15.8060   20.5170 H   0  0  0  0  0  0  0  0  0  0  0  0
  -26.1990  -15.5920   20.0710 H   0  0  0  0  0  0  0  0  0  0  0  0
  -26.7870  -20.3470   20.0320 C   0  0  0  0  0  2  0  0  0  0  0  0
  -26.6150  -20.5280   18.5150 C   0  0  0  0  0  2  0  0  0  0  0  0
  -25.1540  -20.3610   18.0650 C   0  0  0  0  0  2  0  0  0  0  0  0
  -23.4480  -20.4280   16.2020 C   0  0  0  0  0  1  0  0  0  0  0  0
  -25.6990  -19.3770   15.7610 C   0  0  0  0  0  1  0  0  0  0  0  0
  -24.9460  -20.4680   16.5410 C   0  0  0  0  0  3  0  0  0  0  0  0
  -28.2830  -22.7680   21.1500 C   0  0  0  0  0  2  0  0  0  0  0  0
  -29.0290  -24.0900   20.7910 C   0  0  0  0  0  2  0  0  0  0  0  0
  -27.9570  -25.1700   20.4930 C   0  0  0  0  0  2  0  0  0  0  0  0
  -28.2580  -26.5860   20.5540 O   0  0  0  0  0  0  0  0  0  0  0  0
  -24.5440  -32.0540   23.3170 C   0  0  0  0  0  0  0  0  0  0  0  0
  -27.1340  -27.4060   20.4580 C   0  0  0  0  0  0  0  0  0  0  0  0
  -23.3370  -30.6070   21.7230 C   0  0  0  0  0  3  0  0  0  0  0  0
  -24.7800  -28.9980   20.3770 C   0  0  0  0  0  0  0  0  0  0  0  0
  -25.8800  -30.9000   21.5520 C   0  0  0  0  0  2  0  0  0  0  0  0
  -25.9470  -29.5040   20.9650 C   0  0  0  0  0  0  0  0  0  0  0  0
  -27.1270  -28.7160   21.0040 C   0  0  0  0  0  3  0  0  0  0  0  0
  -25.9400  -26.9460   19.8410 C   0  0  0  0  0  3  0  0  0  0  0  0
  -24.7730  -27.7180   19.8140 C   0  0  0  0  0  3  0  0  0  0  0  0
  -23.5540  -29.8810   20.3730 C   0  0  0  0  0  2  0  0  0  0  0  0
  -24.6060  -31.2030   22.2530 N   0  0  0  0  0  0  0  0  0  0  0  0
  -23.4590  -32.3680   23.8270 O   0  0  0  0  0  0  0  0  0  0  0  0
  -22.6550  -29.6330   22.7120 C   0  0  0  0  0  0  0  0  0  0  0  0
  -21.3350  -29.4400   22.5490 N   0  0  0  0  0  0  0  0  0  0  0  0
  -23.3100  -29.0530   23.5810 O   0  0  0  0  0  0  0  0  0  0  0  0
  -20.8690  -29.9560   21.8170 H   0  0  0  0  0  0  0  0  0  0  0  0
  -17.9520  -28.2320   22.9670 C   0  0  0  0  0  0  0  0  0  0  0  0
  -20.4920  -28.5440   23.3410 C   0  0  0  0  0  3  0  0  0  0  0  0
  -20.6380  -27.0790   22.8710 C   0  0  0  0  0  2  0  0  0  0  0  0
  -19.5910  -26.6730   21.8300 C   0  0  0  0  0  2  0  0  0  0  0  0
  -18.1760  -26.8410   22.3960 C   0  0  0  0  0  2  0  0  0  0  0  0
  -19.0400  -29.0370   23.3950 C   0  0  0  0  0  0  0  0  0  0  0  0
  -18.7800  -30.3350   23.8880 C   0  0  0  0  0  3  0  0  0  0  0  0
  -17.4650  -30.8290   23.9550 C   0  0  0  0  0  3  0  0  0  0  0  0
  -16.3900  -30.0220   23.5440 C   0  0  0  0  0  3  0  0  0  0  0  0
  -16.6340  -28.7260   23.0560 C   0  0  0  0  0  3  0  0  0  0  0  0
  -25.8300  -32.6910   23.9270 C   0  0  0  0  0  3  0  0  0  0  0  0
  -26.3430  -31.9360   25.2140 C   0  0  1  0  0  0  0  0  0  0  0  0
  -25.2490  -31.7140   26.2820 C   0  0  0  0  0  1  0  0  0  0  0  0
  -26.9260  -30.5530   24.8400 C   0  0  0  0  0  1  0  0  0  0  0  0
  -27.4960  -32.7380   25.8640 C   0  0  0  0  0  1  0  0  0  0  0  0
  -25.5220  -34.0940   24.2320 N   0  0  0  0  0  0  0  0  0  0  0  0
  -25.8730  -35.1330   23.4620 C   0  0  0  0  0  0  0  0  0  0  0  0
  -26.5580  -35.0120   22.4430 O   0  0  0  0  0  0  0  0  0  0  0  0
  -24.9170  -34.2620   25.0210 H   0  0  0  0  0  0  0  0  0  0  0  0
  -24.1630  -36.9310   23.0510 C   0  0  0  0  0  1  0  0  0  0  0  0
  -25.3850  -36.5310   23.8920 C   0  0  0  0  0  3  0  0  0  0  0  0
  -27.5140  -37.4080   24.7430 C   0  0  0  0  0  1  0  0  0  0  0  0
  -26.4280  -37.5750   23.7830 N   0  0  0  0  0  0  0  0  0  0  0  0
  -26.0280  -38.5000   23.9120 H   0  0  0  0  0  0  0  0  0  0  0  0
  1  7  1  0
  2  1  2  0
  3  4  2  0
  3  2  1  0
  4  5  1  0
  5 55  1  0
  5  7  2  0
  6  3  1  0
  9  8  1  0
  9  2  1  0
  9 10  1  0
 11 19  1  0
 12 17  1  0
 13 14  1  0
 13 12  1  0
 15 14  1  0
 15 24  1  0
 15 16  1  0
 17 11  1  0
 17 16  1  0
 18 11  2  0
 19 20  1  0
 19 10  1  0
 21 22  2  0
 22 41  1  0
 23 22  1  0
 23 26  1  0
 24 21  1  0
 24 25  1  0
 25 23  2  0
 26 27  1  0
 27 28  2  0
 29 32  1  0
 29 28  1  0
 30 29  2  0
 31 30  1  0
 31 26  2  0
 32 33  1  0
 33 34  1  0
 34 35  2  0
 36 35  1  0
 36 40  1  0
 37 36  2  0
 38 33  2  0
 38 37  1  0
 39 38  1  0
 41 42  1  0
 42 45  1  0
 42 44  1  0
 43 41  2  0
 46 47  1  0
 46 21  1  0
 48 46  1  0
 49  4  1  0
 50 49  1  0
 51 50  1  0
 52 54  1  0
 53 54  1  0
 54 51  1  0
 56 55  1  0
 57 58  1  0
 57 56  1  0
 59 70  2  0
 60 58  1  0
 60 65  1  0
 61 69  1  0
 61 71  1  0
 62 64  1  0
 63 69  1  0
 64 65  2  0
 64 63  1  0
 66 60  2  0
 67 66  1  0
 67 62  2  0
 68 62  1  0
 68 61  1  0
 69 59  1  0
 71 73  2  0
 72 71  1  0
 74 72  1  0
 75 84  2  0
 75 80  1  0
 76 72  1  0
 76 80  1  0
 77 76  1  0
 78 79  1  0
 78 77  1  0
 79 75  1  0
 80 81  2  0
 81 82  1  0
 83 82  2  0
 84 83  1  0
 85 59  1  0
 85 90  1  0
 85 86  1  0
 86 89  1  1
 86 87  1  0
 88 86  1  0
 90 93  1  0
 91 95  1  0
 91 90  1  0
 92 91  2  0
 95 94  1  0
 97 95  1  0
 97 98  1  0
 97 96  1  0
M  ISO  4  11 100  19 100  57 101  58 101
M  END
>  <TORSDO>  (27) 
F 25

>  <SCORE>  (27) 
-10.370

>  <name>  (27) 
27

>  <ligand_id>  (27) 
27

>  <original_smiles>  (27) 
[H]c1nc(C([H])([H])C([H])([H])C([H])([H])Oc2c([H])c([H])c3c(c2[H])C([H])([H])N(C(=O)C([H])(N([H])C(=O)C([H])(N([H])C([H])([H])[H])C([H])([H])[H])C(C([H])([H])[H])(C([H])([H])[H])C([H])([H])[H])C([H])(C(=O)N([H])C2([H])c4c([H])c([H])c([H])c([H])c4C([H])([H])C([H])([H])C2([H])[H])C3([H])[H])c(C([H])([H])C([H])([H])C([H])([H])C([H])(C([H])([H])[H])C([H])([H])[H])c(C([H])([H])[H])c1C([H])(C([H])([H])[H])C([H])([H])N([H])C(=O)N1C([H])([H])C([H])([H])C([H])([H])C([H])(n2nc(-c3c([H])c([H])c(Oc4c([H])c([H])c(F)c([H])c4F)c([H])c3[H])c(C(=O)N([H])[H])c2N([H])[H])C1([H])[H]

>  <smiles>  (27) 
[H]c1nc(C([H])([H])C([H])([H])C([H])([H])Oc2c([H])c([H])c3c(c2[H])C([H])([H])N(C(=O)C([H])(N([H])C(=O)C([H])(N([H])C([H])([H])[H])C([H])([H])[H])C(C([H])([H])[H])(C([H])([H])[H])C([H])([H])[H])C([H])(C(=O)N([H])C2([H])c4c([H])c([H])c([H])c([H])c4C([H])([H])C([H])([H])C2([H])[H])C3([H])[H])c(C([H])([H])C([H])([H])C([H])([H])C([H])(C([H])([H])[H])C([H])([H])[H])c(C([H])([H])[H])c1C([H])(C([H])([H])[H])C([H])([H])N([H])C(=O)N1C([H])([H])C([H])([H])C([H])([H])C([H])(n2nc(-c3c([H])c([H])c(Oc4c([H])c([H])c(F)c([H])c4F)c([H])c3[H])c(C(=O)N([H])[H])c2N([H])[H])C1([H])[H]

$$$$
28:0:0
     RDKit          3D

 95103  0  0  1  0  0  0  0  0999 V2000
  -30.0440  -19.5360   20.7460 C   0  0  0  0  0  2  0  0  0  0  0  0
  -29.0190  -20.4980   20.4940 C   0  0  0  0  0  0  0  0  0  0  0  0
  -29.9960  -18.5030   19.8330 C   0  0  0  0  0  3  0  0  0  0  0  0
  -28.3100  -19.9880   19.4320 C   0  0  0  0  0  0  0  0  0  0  0  0
  -28.9970  -18.8700   18.9170 N   0  0  0  0  0  0  0  0  0  0  0  0
  -31.5160  -17.1990   18.2770 C   0  0  0  0  0  1  0  0  0  0  0  0
  -30.9450  -17.2910   19.7050 C   0  0  0  0  0  3  0  0  0  0  0  0
  -31.2330  -14.8100   20.3200 C   0  0  0  0  0  0  0  0  0  0  0  0
  -30.9350  -12.5610   19.3710 C   0  0  0  0  0  2  0  0  0  0  0  0
  -30.0370  -12.7200   18.1270 C   0  0  0  0  0  2  0  0  0  0  0  0
  -28.5430  -12.6790   18.5070 C   0  0  0  0  0  2  0  0  0  0  0  0
  -28.2000  -13.5500   19.7460 C   0  0  0  0  0  3  0  0  0  0  0  0
  -29.2230  -13.3740   20.8900 C   0  0  0  0  0  2  0  0  0  0  0  0
  -30.5550  -13.6290   20.3170 N   0  0  0  0  0  0  0  0  0  0  0  0
  -32.4580  -14.8510   20.1420 O   0  0  0  0  0  0  0  0  0  0  0  0
  -30.4790  -15.9530   20.2020 N   0  0  0  0  0  0  0  0  0  0  0  0
  -29.4820  -15.8440   20.2750 H   0  0  0  0  0  0  0  0  0  0  0  0
  -25.8310  -14.2640   20.4260 C   0  0  0  0  0  0  0  0  0  0  0  0
  -24.7060  -13.5610   20.7280 C   0  0  0  0  0  0  0  0  0  0  0  0
  -25.0800  -12.1800   20.6530 C   0  0  0  0  0  0  0  0  0  0  0  0
  -26.8270  -13.3310   20.1830 N   0  0  0  0  0  0  0  0  0  0  0  0
  -26.3740  -12.0700   20.3790 N   0  0  0  0  0  0  0  0  0  0  0  0
  -24.2700  -10.9690   20.7620 C   0  0  0  0  0  0  0  0  0  0  0  0
  -24.6590   -9.8960   21.5950 C   0  0  0  0  0  3  0  0  0  0  0  0
  -23.8470   -8.7470   21.7070 C   0  0  0  0  0  3  0  0  0  0  0  0
  -22.6370   -8.6600   20.9830 C   0  0  0  0  0  0  0  0  0  0  0  0
  -22.2610   -9.7220   20.1430 C   0  0  0  0  0  3  0  0  0  0  0  0
  -23.0700  -10.8650   20.0270 C   0  0  0  0  0  3  0  0  0  0  0  0
  -21.8020   -7.5660   21.0060 O   0  0  0  0  0  0  0  0  0  0  0  0
  -21.7810   -6.7000   22.0660 C   0  0  0  0  0  0  0  0  0  0  0  0
  -21.5380   -7.1410   23.3860 C   0  0  0  0  0  3  0  0  0  0  0  0
  -21.4580   -6.2080   24.4370 C   0  0  0  0  0  3  0  0  0  0  0  0
  -21.6100   -4.8330   24.1730 C   0  0  0  0  0  0  0  0  0  0  0  0
  -21.8440   -4.3910   22.8580 C   0  0  0  0  0  3  0  0  0  0  0  0
  -21.9250   -5.3220   21.8090 C   0  0  0  0  0  0  0  0  0  0  0  0
  -22.1320   -4.8880   20.5420 F   0  0  0  0  0  0  0  0  0  0  0  0
  -21.5220   -3.9340   25.1820 F   0  0  0  0  0  0  0  0  0  0  0  0
  -23.3400  -14.1210   20.9790 C   0  0  0  0  0  0  0  0  0  0  0  0
  -22.5510  -13.4590   21.8110 N   0  0  0  0  0  0  0  0  0  0  0  0
  -22.9830  -15.1890   20.4710 O   0  0  0  0  0  0  0  0  0  0  0  0
  -22.8510  -12.5920   22.2350 H   0  0  0  0  0  0  0  0  0  0  0  0
  -21.6350  -13.8140   22.0250 H   0  0  0  0  0  0  0  0  0  0  0  0
  -26.0970  -15.6250   20.3180 N   0  0  0  0  0  0  0  0  0  0  0  0
  -25.3780  -16.3320   20.4440 H   0  0  0  0  0  0  0  0  0  0  0  0
  -26.9870  -16.0030   20.0290 H   0  0  0  0  0  0  0  0  0  0  0  0
  -29.1680  -18.9020   16.3710 C   0  0  0  0  0  1  0  0  0  0  0  0
  -28.7010  -18.1750   17.6580 C   0  0  0  0  0  2  0  0  0  0  0  0
  -28.7360  -21.8160   21.2590 C   0  0  0  0  0  2  0  0  0  0  0  0
  -29.6980  -23.0490   21.0350 C   0  0  0  0  0  2  0  0  0  0  0  0
  -29.1990  -24.3420   20.2730 C   0  0  0  0  0  3  0  0  0  0  0  0
  -28.5810  -25.5500   21.0880 C   0  0  0  0  0  3  0  0  0  0  0  0
  -28.5150  -26.8140   20.3640 O   0  0  0  0  0  0  0  0  0  0  0  0
  -24.5680  -31.9850   23.3940 C   0  0  0  0  0  0  0  0  0  0  0  0
  -27.3410  -27.5530   20.3880 C   0  0  0  0  0  0  0  0  0  0  0  0
  -23.4090  -30.5660   21.7250 C   0  0  0  0  0  3  0  0  0  0  0  0
  -24.9200  -29.0420   20.3360 C   0  0  0  0  0  0  0  0  0  0  0  0
  -25.9310  -30.9700   21.5720 C   0  0  0  0  0  2  0  0  0  0  0  0
  -26.0630  -29.5920   20.9340 C   0  0  0  0  0  0  0  0  0  0  0  0
  -27.2780  -28.8570   20.9420 C   0  0  0  0  0  3  0  0  0  0  0  0
  -26.1820  -27.0240   19.7910 C   0  0  0  0  0  3  0  0  0  0  0  0
  -24.9760  -27.7590   19.7550 C   0  0  0  0  0  3  0  0  0  0  0  0
  -23.6580  -29.8790   20.3530 C   0  0  0  0  0  2  0  0  0  0  0  0
  -24.6490  -31.1900   22.2910 N   0  0  0  0  0  0  0  0  0  0  0  0
  -23.4760  -32.2360   23.9160 O   0  0  0  0  0  0  0  0  0  0  0  0
  -22.7460  -29.5480   22.6820 C   0  0  0  0  0  0  0  0  0  0  0  0
  -21.4280  -29.3480   22.5250 N   0  0  0  0  0  0  0  0  0  0  0  0
  -23.4150  -28.9460   23.5280 O   0  0  0  0  0  0  0  0  0  0  0  0
  -20.9570  -29.8490   21.7900 H   0  0  0  0  0  0  0  0  0  0  0  0
  -18.0850  -28.0510   22.9450 C   0  0  0  0  0  0  0  0  0  0  0  0
  -20.6230  -28.3930   23.2880 C   0  0  0  0  0  3  0  0  0  0  0  0
  -20.7980  -26.9660   22.7270 C   0  0  0  0  0  2  0  0  0  0  0  0
  -19.7330  -26.5920   21.6900 C   0  0  0  0  0  2  0  0  0  0  0  0
  -18.3240  -26.6990   22.2850 C   0  0  0  0  0  2  0  0  0  0  0  0
  -19.1700  -28.8500   23.3990 C   0  0  0  0  0  0  0  0  0  0  0  0
  -18.8950  -30.1110   23.9660 C   0  0  0  0  0  3  0  0  0  0  0  0
  -17.5720  -30.5740   24.0980 C   0  0  0  0  0  3  0  0  0  0  0  0
  -16.5020  -29.7670   23.6690 C   0  0  0  0  0  3  0  0  0  0  0  0
  -16.7610  -28.5080   23.0980 C   0  0  0  0  0  3  0  0  0  0  0  0
  -25.8330  -32.6350   24.0360 C   0  0  0  0  0  3  0  0  0  0  0  0
  -25.5270  -34.0500   24.2890 N   0  0  0  0  0  0  0  0  0  0  0  0
  -25.9070  -35.0600   23.4960 C   0  0  0  0  0  0  0  0  0  0  0  0
  -26.6180  -34.9000   22.5010 O   0  0  0  0  0  0  0  0  0  0  0  0
  -24.8960  -34.2450   25.0530 H   0  0  0  0  0  0  0  0  0  0  0  0
  -24.2170  -36.8500   22.9870 C   0  0  0  0  0  1  0  0  0  0  0  0
  -25.4220  -36.4760   23.8650 C   0  0  0  0  0  3  0  0  0  0  0  0
  -27.5350  -37.3760   24.7320 C   0  0  0  0  0  1  0  0  0  0  0  0
  -26.4730  -37.5090   23.7370 N   0  0  0  0  0  0  0  0  0  0  0  0
  -26.0770  -38.4410   23.8180 H   0  0  0  0  0  0  0  0  0  0  0  0
  -26.2930  -31.9150   25.3670 C   0  0  1  0  0  0  0  0  0  0  0  0
  -25.1630  -31.7420   26.4110 C   0  0  0  0  0  1  0  0  0  0  0  0
  -26.8690  -30.5120   25.0580 C   0  0  0  0  0  1  0  0  0  0  0  0
  -27.4340  -32.7240   26.0340 C   0  0  0  0  0  1  0  0  0  0  0  0
  -27.0430  -20.5650   18.8570 C   0  0  0  0  0  2  0  0  0  0  0  0
  -24.5800  -20.6140   18.1300 C   0  0  0  0  0  1  0  0  0  0  0  0
  -25.9530  -19.9360   17.9220 C   0  0  0  0  0  2  0  0  0  0  0  0
  2  1  1  0
  2 48  1  0
  3  7  1  0
  3  1  1  0
  4  2  2  0
  5  4  1  0
  5  3  1  0
  7  6  1  0
  7 16  1  0
  9 14  1  0
 10 11  1  0
 10  9  1  0
 12 11  1  0
 12 21  1  0
 12 13  1  0
 14  8  1  0
 14 13  1  0
 15  8  2  0
 16 17  1  0
 16  8  1  0
 18 19  2  0
 19 38  1  0
 20 19  1  0
 20 23  1  0
 21 22  1  0
 21 18  1  0
 22 20  2  0
 23 24  1  0
 24 25  2  0
 26 29  1  0
 26 25  1  0
 27 26  2  0
 28 27  1  0
 28 23  2  0
 29 30  1  0
 30 31  1  0
 31 32  2  0
 33 32  1  0
 33 37  1  0
 34 33  2  0
 35 30  2  0
 35 34  1  0
 36 35  1  0
 38 39  1  0
 39 42  1  0
 39 41  1  0
 40 38  2  0
 43 18  1  0
 43 44  1  0
 45 43  1  0
 46 47  1  0
 47  5  1  0
 49 48  1  0
 50 49  1  0
 50 51  2  0
 52 54  1  0
 52 51  1  0
 53 64  2  0
 54 59  1  0
 55 63  1  0
 55 65  1  0
 56 62  1  0
 56 58  1  0
 57 63  1  0
 58 59  2  0
 58 57  1  0
 60 54  2  0
 61 60  1  0
 61 56  2  0
 62 55  1  0
 63 53  1  0
 65 67  2  0
 66 65  1  0
 68 66  1  0
 69 78  2  0
 69 74  1  0
 70 66  1  0
 70 74  1  0
 71 70  1  0
 72 73  1  0
 72 71  1  0
 73 69  1  0
 74 75  2  0
 75 76  1  0
 77 76  2  0
 78 77  1  0
 79 53  1  0
 79 80  1  0
 79 89  1  0
 80 83  1  0
 81 85  1  0
 81 80  1  0
 82 81  2  0
 85 84  1  0
 87 88  1  0
 87 85  1  0
 87 86  1  0
 89 92  1  1
 89 90  1  0
 91 89  1  0
 93  4  1  0
 95 94  1  0
 95 93  1  0
M  ISO  4   8 100  16 100  51 101  52 101
M  END
>  <TORSDO>  (28) 
F 24

>  <SCORE>  (28) 
-11.707

>  <name>  (28) 
28

>  <ligand_id>  (28) 
28

>  <original_smiles>  (28) 
[H]c1c([H])c([H])c2c(c1[H])C([H])([H])C([H])([H])C([H])([H])C2([H])N([H])C(=O)C1([H])N(C(=O)C([H])(N([H])C(=O)C([H])(N([H])C([H])([H])[H])C([H])([H])[H])C(C([H])([H])[H])(C([H])([H])[H])C([H])([H])[H])C([H])([H])c2c([H])c(OC([H])([H])C([H])([H])C([H])([H])C([H])([H])c3c([H])c(C([H])(N([H])C(=O)N4C([H])([H])C([H])([H])C([H])([H])C([H])(n5nc(-c6c([H])c([H])c(Oc7c([H])c([H])c(F)c([H])c7F)c([H])c6[H])c(C(=O)N([H])[H])c5N([H])[H])C4([H])[H])C([H])([H])[H])n(C([H])([H])C([H])([H])[H])c3C([H])([H])C([H])([H])C([H])([H])[H])c([H])c([H])c2C1([H])[H]

>  <smiles>  (28) 
[H]c1c([H])c([H])c2c(c1[H])C([H])([H])C([H])([H])C([H])([H])C2([H])N([H])C(=O)C1([H])N(C(=O)C([H])(N([H])C(=O)C([H])(N([H])C([H])([H])[H])C([H])([H])[H])C(C([H])([H])[H])(C([H])([H])[H])C([H])([H])[H])C([H])([H])c2c([H])c(OC([H])([H])C([H])([H])C([H])([H])C([H])([H])c3c([H])c(C([H])(N([H])C(=O)N4C([H])([H])C([H])([H])C([H])([H])C([H])(n5nc(-c6c([H])c([H])c(Oc7c([H])c([H])c(F)c([H])c7F)c([H])c6[H])c(C(=O)N([H])[H])c5N([H])[H])C4([H])[H])C([H])([H])[H])n(C([H])([H])C([H])([H])[H])c3C([H])([H])C([H])([H])C([H])([H])[H])c([H])c([H])c2C1([H])[H]

$$$$
29:0:0
     RDKit          3D

 96104  0  0  1  0  0  0  0  0999 V2000
  -29.7530  -21.3960   20.7510 C   0  0  0  0  0  3  0  0  0  0  0  0
  -28.8470  -22.5170   20.4300 C   0  0  0  0  0  0  0  0  0  0  0  0
  -27.8240  -22.0830   19.5040 C   0  0  0  0  0  0  0  0  0  0  0  0
  -29.6570  -20.0650   20.1600 C   0  0  0  0  0  0  0  0  0  0  0  0
  -27.9680  -20.8600   18.7810 C   0  0  0  0  0  0  0  0  0  0  0  0
  -28.8180  -19.8820   19.1390 N   0  0  0  0  0  0  0  0  0  0  0  0
  -26.3520  -19.2800   17.5360 C   0  0  0  0  0  1  0  0  0  0  0  0
  -28.2120  -20.5120   16.2850 C   0  0  0  0  0  1  0  0  0  0  0  0
  -27.2260  -20.5480   17.4670 C   0  0  0  0  0  3  0  0  0  0  0  0
  -27.6100  -24.0160   22.2060 C   0  0  0  0  0  1  0  0  0  0  0  0
  -30.0230  -23.8810   22.2410 C   0  0  0  0  0  1  0  0  0  0  0  0
  -28.8240  -23.9600   21.2520 C   0  0  1  0  0  0  0  0  0  0  0  0
  -28.9900  -25.5430   20.6830 C   0  0  0  0  0  2  0  0  0  0  0  0
  -28.2850  -26.4980   19.7570 O   0  0  0  0  0  0  0  0  0  0  0  0
  -24.5820  -31.9160   23.1810 C   0  0  0  0  0  0  0  0  0  0  0  0
  -27.2300  -27.4220   19.9810 C   0  0  0  0  0  0  0  0  0  0  0  0
  -23.3940  -30.5560   21.5030 C   0  0  0  0  0  3  0  0  0  0  0  0
  -24.8650  -29.0780   20.0210 C   0  0  0  0  0  0  0  0  0  0  0  0
  -25.9350  -30.8920   21.3330 C   0  0  0  0  0  2  0  0  0  0  0  0
  -26.0330  -29.5210   20.6580 C   0  0  0  0  0  0  0  0  0  0  0  0
  -27.2200  -28.7000   20.6470 C   0  0  0  0  0  3  0  0  0  0  0  0
  -26.0590  -27.1070   19.2610 C   0  0  0  0  0  3  0  0  0  0  0  0
  -24.8860  -27.8740   19.3080 C   0  0  0  0  0  3  0  0  0  0  0  0
  -23.6190  -29.9380   20.0990 C   0  0  0  0  0  2  0  0  0  0  0  0
  -24.6560  -31.1400   22.0620 N   0  0  0  0  0  0  0  0  0  0  0  0
  -23.4980  -32.1570   23.7310 O   0  0  0  0  0  0  0  0  0  0  0  0
  -22.7500  -29.4930   22.4290 C   0  0  0  0  0  0  0  0  0  0  0  0
  -21.4270  -29.2940   22.3090 N   0  0  0  0  0  0  0  0  0  0  0  0
  -23.4450  -28.8520   23.2210 O   0  0  0  0  0  0  0  0  0  0  0  0
  -20.9190  -29.8690   21.6500 H   0  0  0  0  0  0  0  0  0  0  0  0
  -18.0700  -28.0440   22.8340 C   0  0  0  0  0  0  0  0  0  0  0  0
  -20.6330  -28.3120   23.0530 C   0  0  0  0  0  3  0  0  0  0  0  0
  -20.7290  -26.9100   22.4080 C   0  0  0  0  0  2  0  0  0  0  0  0
  -19.6040  -26.6280   21.4060 C   0  0  0  0  0  2  0  0  0  0  0  0
  -18.2380  -26.7310   22.0900 C   0  0  0  0  0  2  0  0  0  0  0  0
  -19.1920  -28.7940   23.2720 C   0  0  0  0  0  0  0  0  0  0  0  0
  -18.9760  -30.0280   23.9270 C   0  0  0  0  0  3  0  0  0  0  0  0
  -17.6710  -30.5070   24.1440 C   0  0  0  0  0  3  0  0  0  0  0  0
  -16.5640  -29.7510   23.7200 C   0  0  0  0  0  3  0  0  0  0  0  0
  -16.7640  -28.5210   23.0700 C   0  0  0  0  0  3  0  0  0  0  0  0
  -25.8560  -32.5540   23.8130 C   0  0  0  0  0  3  0  0  0  0  0  0
  -25.5410  -33.9530   24.1340 N   0  0  0  0  0  0  0  0  0  0  0  0
  -25.8860  -35.0040   23.3780 C   0  0  0  0  0  0  0  0  0  0  0  0
  -26.5700  -34.8980   22.3570 O   0  0  0  0  0  0  0  0  0  0  0  0
  -24.9330  -34.1080   24.9230 H   0  0  0  0  0  0  0  0  0  0  0  0
  -24.1700  -36.8050   22.9920 C   0  0  0  0  0  1  0  0  0  0  0  0
  -25.3950  -36.3940   23.8250 C   0  0  0  0  0  3  0  0  0  0  0  0
  -27.5160  -37.2780   24.6960 C   0  0  0  0  0  1  0  0  0  0  0  0
  -26.4330  -37.4450   23.7310 N   0  0  0  0  0  0  0  0  0  0  0  0
  -26.0260  -38.3670   23.8670 H   0  0  0  0  0  0  0  0  0  0  0  0
  -26.3550  -31.7870   25.1000 C   0  0  1  0  0  0  0  0  0  0  0  0
  -25.2510  -31.5540   26.1570 C   0  0  0  0  0  1  0  0  0  0  0  0
  -26.9350  -30.4040   24.7280 C   0  0  0  0  0  1  0  0  0  0  0  0
  -27.4910  -32.5880   25.7760 C   0  0  0  0  0  1  0  0  0  0  0  0
  -26.4920  -23.9260   18.3690 C   0  0  0  0  0  1  0  0  0  0  0  0
  -26.4660  -22.7690   19.3430 C   0  0  0  0  0  2  0  0  0  0  0  0
  -30.5570  -18.7540   20.3820 C   0  0  0  0  0  2  0  0  0  0  0  0
  -30.0210  -17.4610   21.2110 C   0  0  0  0  0  2  0  0  0  0  0  0
  -30.6920  -14.9540   20.4070 C   0  0  0  0  0  0  0  0  0  0  0  0
  -30.5480  -12.6770   19.3450 C   0  0  0  0  0  2  0  0  0  0  0  0
  -29.6050  -12.7320   18.1200 C   0  0  0  0  0  2  0  0  0  0  0  0
  -28.1370  -12.5340   18.5530 C   0  0  0  0  0  2  0  0  0  0  0  0
  -27.7440  -13.4160   19.7670 C   0  0  0  0  0  3  0  0  0  0  0  0
  -28.8000  -13.3410   20.8880 C   0  0  0  0  0  2  0  0  0  0  0  0
  -30.0930  -13.7180   20.2960 N   0  0  0  0  0  0  0  0  0  0  0  0
  -31.8840  -15.1050   20.1250 O   0  0  0  0  0  0  0  0  0  0  0  0
  -29.8590  -16.0340   20.6520 N   0  0  0  0  0  0  0  0  0  0  0  0
  -28.8950  -15.7380   20.6350 H   0  0  0  0  0  0  0  0  0  0  0  0
  -25.3460  -13.9860   20.4780 C   0  0  0  0  0  0  0  0  0  0  0  0
  -24.2830  -13.2080   20.8390 C   0  0  0  0  0  0  0  0  0  0  0  0
  -24.7570  -11.8580   20.8100 C   0  0  0  0  0  0  0  0  0  0  0  0
  -26.3990  -13.1140   20.2500 N   0  0  0  0  0  0  0  0  0  0  0  0
  -26.0500  -11.8270   20.5110 N   0  0  0  0  0  0  0  0  0  0  0  0
  -24.0410  -10.5900   20.9980 C   0  0  0  0  0  0  0  0  0  0  0  0
  -24.4710   -9.6260   21.9350 C   0  0  0  0  0  3  0  0  0  0  0  0
  -23.7540   -8.4220   22.1070 C   0  0  0  0  0  3  0  0  0  0  0  0
  -22.5890   -8.1730   21.3410 C   0  0  0  0  0  0  0  0  0  0  0  0
  -22.1760   -9.1280   20.3930 C   0  0  0  0  0  3  0  0  0  0  0  0
  -22.8950  -10.3230   20.2200 C   0  0  0  0  0  3  0  0  0  0  0  0
  -21.8430   -7.0210   21.4200 O   0  0  0  0  0  0  0  0  0  0  0  0
  -21.7940   -6.2770   22.5710 C   0  0  0  0  0  0  0  0  0  0  0  0
  -21.3400   -6.8210   23.7930 C   0  0  0  0  0  3  0  0  0  0  0  0
  -21.2360   -6.0010   24.9350 C   0  0  0  0  0  3  0  0  0  0  0  0
  -21.5770   -4.6390   24.8560 C   0  0  0  0  0  0  0  0  0  0  0  0
  -22.0240   -4.0920   23.6400 C   0  0  0  0  0  3  0  0  0  0  0  0
  -22.1280   -4.9090   22.5020 C   0  0  0  0  0  0  0  0  0  0  0  0
  -22.5390   -4.3730   21.3260 F   0  0  0  0  0  0  0  0  0  0  0  0
  -21.4710   -3.8500   25.9500 F   0  0  0  0  0  0  0  0  0  0  0  0
  -22.8790  -13.6720   21.1010 C   0  0  0  0  0  0  0  0  0  0  0  0
  -22.1530  -12.9790   21.9680 N   0  0  0  0  0  0  0  0  0  0  0  0
  -22.4370  -14.6920   20.5720 O   0  0  0  0  0  0  0  0  0  0  0  0
  -22.5220  -12.1580   22.4200 H   0  0  0  0  0  0  0  0  0  0  0  0
  -21.2110  -13.2760   22.1810 H   0  0  0  0  0  0  0  0  0  0  0  0
  -25.5030  -15.3570   20.3010 N   0  0  0  0  0  0  0  0  0  0  0  0
  -24.7230  -16.0030   20.3660 H   0  0  0  0  0  0  0  0  0  0  0  0
  -26.3530  -15.7930   19.9680 H   0  0  0  0  0  0  0  0  0  0  0  0
  2  1  1  0
  2 12  1  0
  3  2  2  0
  4 57  1  0
  4  1  2  0
  5  6  2  0
  5  3  1  0
  6  4  1  0
  8  9  1  0
  9  7  1  0
  9  5  1  0
 12 10  1  1
 12 11  1  0
 13 12  1  0
 14 16  1  0
 14 13  1  0
 15 26  2  0
 16 21  1  0
 17 25  1  0
 17 27  1  0
 18 24  1  0
 18 20  1  0
 19 25  1  0
 20 19  1  0
 21 20  2  0
 22 23  1  0
 22 16  2  0
 23 18  2  0
 24 17  1  0
 25 15  1  0
 27 29  2  0
 28 27  1  0
 30 28  1  0
 31 40  2  0
 31 36  1  0
 32 28  1  0
 32 36  1  0
 33 32  1  0
 34 35  1  0
 34 33  1  0
 35 31  1  0
 36 37  2  0
 37 38  1  0
 39 38  2  0
 40 39  1  0
 41 15  1  0
 41 42  1  0
 41 51  1  0
 42 45  1  0
 43 47  1  0
 43 42  1  0
 44 43  2  0
 47 46  1  0
 49 47  1  0
 49 50  1  0
 49 48  1  0
 51 54  1  1
 51 52  1  0
 53 51  1  0
 55 56  1  0
 56  3  1  0
 57 58  1  0
 59 67  1  0
 60 65  1  0
 61 62  1  0
 61 60  1  0
 63 62  1  0
 63 72  1  0
 63 64  1  0
 65 59  1  0
 65 64  1  0
 66 59  2  0
 67 58  1  0
 68 67  1  0
 69 70  2  0
 70 89  1  0
 71 70  1  0
 71 74  1  0
 72 69  1  0
 72 73  1  0
 73 71  2  0
 74 75  1  0
 75 76  2  0
 77 80  1  0
 77 76  1  0
 78 77  2  0
 79 78  1  0
 79 74  2  0
 80 81  1  0
 81 82  1  0
 82 83  2  0
 84 83  1  0
 84 88  1  0
 85 84  2  0
 86 81  2  0
 86 85  1  0
 87 86  1  0
 89 90  1  0
 90 93  1  0
 90 92  1  0
 91 89  2  0
 94 95  1  0
 94 69  1  0
 96 94  1  0
M  ISO  4  13 101  14 101  59 100  67 100
M  END
>  <TORSDO>  (29) 
F 22

>  <SCORE>  (29) 
-12.355

>  <name>  (29) 
29

>  <ligand_id>  (29) 
29

>  <original_smiles>  (29) 
[H]c1c([H])c([H])c2c(c1[H])C([H])([H])C([H])([H])C([H])([H])C2([H])N([H])C(=O)C1([H])N(C(=O)C([H])(N([H])C(=O)C([H])(N([H])C([H])([H])[H])C([H])([H])[H])C(C([H])([H])[H])(C([H])([H])[H])C([H])([H])[H])C([H])([H])c2c([H])c(OC([H])([H])C(c3c([H])c(C([H])([H])C([H])([H])N([H])C(=O)N4C([H])([H])C([H])([H])C([H])([H])C([H])(n5nc(-c6c([H])c([H])c(Oc7c([H])c([H])c(F)c([H])c7F)c([H])c6[H])c(C(=O)N([H])[H])c5N([H])[H])C4([H])[H])nc(C([H])(C([H])([H])[H])C([H])([H])[H])c3C([H])([H])C([H])([H])[H])(C([H])([H])[H])C([H])([H])[H])c([H])c([H])c2C1([H])[H]

>  <smiles>  (29) 
[H]c1c([H])c([H])c2c(c1[H])C([H])([H])C([H])([H])C([H])([H])C2([H])N([H])C(=O)C1([H])N(C(=O)C([H])(N([H])C(=O)C([H])(N([H])C([H])([H])[H])C([H])([H])[H])C(C([H])([H])[H])(C([H])([H])[H])C([H])([H])[H])C([H])([H])c2c([H])c(OC([H])([H])C(c3c([H])c(C([H])([H])C([H])([H])N([H])C(=O)N4C([H])([H])C([H])([H])C([H])([H])C([H])(n5nc(-c6c([H])c([H])c(Oc7c([H])c([H])c(F)c([H])c7F)c([H])c6[H])c(C(=O)N([H])[H])c5N([H])[H])C4([H])[H])nc(C([H])(C([H])([H])[H])C([H])([H])[H])c3C([H])([H])C([H])([H])[H])(C([H])([H])[H])C([H])([H])[H])c([H])c([H])c2C1([H])[H]

$$$$
30:0:0
     RDKit          3D

 98106  0  0  1  0  0  0  0  0999 V2000
  -31.7310  -20.1020   18.6380 C   0  0  0  0  0  3  0  0  0  0  0  0
  -29.8930  -22.0060   17.9350 C   0  0  0  0  0  3  0  0  0  0  0  0
  -30.5960  -20.2510   19.4640 C   0  0  0  0  0  0  0  0  0  0  0  0
  -29.6570  -21.2660   19.1120 C   0  0  0  0  0  0  0  0  0  0  0  0
  -31.8910  -20.9280   17.5100 C   0  0  0  0  0  0  0  0  0  0  0  0
  -30.9760  -21.8480   17.1530 N   0  0  0  0  0  0  0  0  0  0  0  0
  -28.3970  -21.6100   19.9110 C   0  0  0  0  0  2  0  0  0  0  0  0
  -28.5020  -22.9010   20.7650 C   0  0  0  0  0  2  0  0  0  0  0  0
  -28.5120  -24.2400   19.9830 C   0  0  0  0  0  2  0  0  0  0  0  0
  -28.3720  -25.4730   20.9040 C   0  0  0  0  0  2  0  0  0  0  0  0
  -28.4270  -26.7180   20.1940 O   0  0  0  0  0  0  0  0  0  0  0  0
  -24.6000  -31.8870   23.2490 C   0  0  0  0  0  0  0  0  0  0  0  0
  -27.2590  -27.4450   20.1960 C   0  0  0  0  0  0  0  0  0  0  0  0
  -23.4000  -30.4750   21.6100 C   0  0  0  0  0  3  0  0  0  0  0  0
  -24.8590  -28.9330   20.1960 C   0  0  0  0  0  0  0  0  0  0  0  0
  -25.9220  -30.8440   21.4110 C   0  0  0  0  0  2  0  0  0  0  0  0
  -26.0140  -29.4690   20.7800 C   0  0  0  0  0  0  0  0  0  0  0  0
  -27.2200  -28.7340   20.7710 C   0  0  0  0  0  3  0  0  0  0  0  0
  -26.0890  -26.9170   19.6100 C   0  0  0  0  0  3  0  0  0  0  0  0
  -24.8900  -27.6560   19.6080 C   0  0  0  0  0  3  0  0  0  0  0  0
  -23.6120  -29.7880   20.2350 C   0  0  0  0  0  2  0  0  0  0  0  0
  -24.6600  -31.0840   22.1490 N   0  0  0  0  0  0  0  0  0  0  0  0
  -23.5180  -32.1590   23.7850 O   0  0  0  0  0  0  0  0  0  0  0  0
  -22.7480  -29.4580   22.5740 C   0  0  0  0  0  0  0  0  0  0  0  0
  -21.4240  -29.2750   22.4430 N   0  0  0  0  0  0  0  0  0  0  0  0
  -23.4300  -28.8380   23.3950 O   0  0  0  0  0  0  0  0  0  0  0  0
  -20.9360  -29.8280   21.7540 H   0  0  0  0  0  0  0  0  0  0  0  0
  -18.0500  -28.0750   22.9260 C   0  0  0  0  0  0  0  0  0  0  0  0
  -20.6050  -28.3390   23.2130 C   0  0  0  0  0  3  0  0  0  0  0  0
  -20.7150  -26.9050   22.6450 C   0  0  0  0  0  2  0  0  0  0  0  0
  -19.6190  -26.5750   21.6260 C   0  0  0  0  0  2  0  0  0  0  0  0
  -18.2340  -26.7220   22.2610 C   0  0  0  0  0  2  0  0  0  0  0  0
  -19.1640  -28.8420   23.3590 C   0  0  0  0  0  0  0  0  0  0  0  0
  -18.9390  -30.1090   23.9400 C   0  0  0  0  0  3  0  0  0  0  0  0
  -17.6320  -30.6090   24.0930 C   0  0  0  0  0  3  0  0  0  0  0  0
  -16.5320  -29.8390   23.6750 C   0  0  0  0  0  3  0  0  0  0  0  0
  -16.7430  -28.5750   23.0980 C   0  0  0  0  0  3  0  0  0  0  0  0
  -25.8840  -32.5210   23.8710 C   0  0  0  0  0  3  0  0  0  0  0  0
  -26.3990  -31.7550   25.1510 C   0  0  1  0  0  0  0  0  0  0  0  0
  -25.3070  -31.5250   26.2210 C   0  0  0  0  0  1  0  0  0  0  0  0
  -26.9800  -30.3760   24.7620 C   0  0  0  0  0  1  0  0  0  0  0  0
  -27.5510  -32.5520   25.8090 C   0  0  0  0  0  1  0  0  0  0  0  0
  -25.5750  -33.9200   24.1910 N   0  0  0  0  0  0  0  0  0  0  0  0
  -25.9110  -34.9670   23.4250 C   0  0  0  0  0  0  0  0  0  0  0  0
  -26.5860  -34.8560   22.3970 O   0  0  0  0  0  0  0  0  0  0  0  0
  -24.9750  -34.0820   24.9870 H   0  0  0  0  0  0  0  0  0  0  0  0
  -24.1830  -36.7560   23.0500 C   0  0  0  0  0  1  0  0  0  0  0  0
  -25.4210  -36.3580   23.8690 C   0  0  0  0  0  3  0  0  0  0  0  0
  -27.5570  -37.2470   24.6950 C   0  0  0  0  0  1  0  0  0  0  0  0
  -26.4530  -37.4120   23.7520 N   0  0  0  0  0  0  0  0  0  0  0  0
  -26.0450  -38.3310   23.8990 H   0  0  0  0  0  0  0  0  0  0  0  0
  -33.1280  -20.8370   16.6320 C   0  0  0  0  0  2  0  0  0  0  0  0
  -34.1030  -22.0030   16.8760 C   0  0  0  0  0  2  0  0  0  0  0  0
  -36.3160  -23.1110   16.2430 C   0  0  0  0  0  1  0  0  0  0  0  0
  -35.3320  -21.9680   15.9530 C   0  0  0  0  0  2  0  0  0  0  0  0
  -30.4760  -19.3140   20.6710 C   0  0  0  0  0  2  0  0  0  0  0  0
  -30.1380  -17.9300   20.2560 N   0  0  0  0  0  4  0  0  0  0  0  0
  -30.6750  -17.7390   19.4260 H   0  0  0  0  0  0  0  0  0  0  0  0
  -29.1650  -17.9280   19.9990 H   0  0  0  0  0  0  0  0  0  0  0  0
  -30.4170  -16.8800   21.2780 C   0  0  0  0  0  2  0  0  0  0  0  0
  -30.6640  -14.4810   20.5180 C   0  0  0  0  0  0  0  0  0  0  0  0
  -30.3660  -12.3300   19.3500 C   0  0  0  0  0  2  0  0  0  0  0  0
  -29.4220  -12.5340   18.1480 C   0  0  0  0  0  2  0  0  0  0  0  0
  -27.9490  -12.3880   18.5780 C   0  0  0  0  0  2  0  0  0  0  0  0
  -27.6090  -13.2240   19.8390 C   0  0  0  0  0  3  0  0  0  0  0  0
  -28.6630  -13.0040   20.9470 C   0  0  0  0  0  2  0  0  0  0  0  0
  -29.9890  -13.3070   20.3820 N   0  0  0  0  0  0  0  0  0  0  0  0
  -31.7890  -14.6700   20.0490 O   0  0  0  0  0  0  0  0  0  0  0  0
  -29.9630  -15.4910   21.0640 N   0  0  0  0  0  0  0  0  0  0  0  0
  -29.0490  -15.2530   21.4150 H   0  0  0  0  0  0  0  0  0  0  0  0
  -25.2080  -13.8350   20.5390 C   0  0  0  0  0  0  0  0  0  0  0  0
  -24.1390  -13.0640   20.9060 C   0  0  0  0  0  0  0  0  0  0  0  0
  -24.6000  -11.7120   20.8820 C   0  0  0  0  0  0  0  0  0  0  0  0
  -26.2540  -12.9520   20.3140 N   0  0  0  0  0  0  0  0  0  0  0  0
  -25.8920  -11.6710   20.5780 N   0  0  0  0  0  0  0  0  0  0  0  0
  -23.8750  -10.4500   21.0740 C   0  0  0  0  0  0  0  0  0  0  0  0
  -24.3160   -9.4770   21.9980 C   0  0  0  0  0  3  0  0  0  0  0  0
  -23.5930   -8.2790   22.1760 C   0  0  0  0  0  3  0  0  0  0  0  0
  -22.4120   -8.0470   21.4320 C   0  0  0  0  0  0  0  0  0  0  0  0
  -21.9880   -9.0090   20.4980 C   0  0  0  0  0  3  0  0  0  0  0  0
  -22.7130  -10.1980   20.3170 C   0  0  0  0  0  3  0  0  0  0  0  0
  -21.6590   -6.9010   21.5200 O   0  0  0  0  0  0  0  0  0  0  0  0
  -21.6350   -6.1410   22.6610 C   0  0  0  0  0  0  0  0  0  0  0  0
  -21.2500   -6.6820   23.9080 C   0  0  0  0  0  3  0  0  0  0  0  0
  -21.1720   -5.8500   25.0430 C   0  0  0  0  0  3  0  0  0  0  0  0
  -21.4680   -4.4780   24.9320 C   0  0  0  0  0  0  0  0  0  0  0  0
  -21.8450   -3.9370   23.6920 C   0  0  0  0  0  3  0  0  0  0  0  0
  -21.9250   -4.7660   22.5580 C   0  0  0  0  0  0  0  0  0  0  0  0
  -22.2680   -4.2340   21.3600 F   0  0  0  0  0  0  0  0  0  0  0  0
  -21.3860   -3.6780   26.0220 F   0  0  0  0  0  0  0  0  0  0  0  0
  -22.7410  -13.5430   21.1720 C   0  0  0  0  0  0  0  0  0  0  0  0
  -22.0080  -12.8510   22.0380 N   0  0  0  0  0  0  0  0  0  0  0  0
  -22.3050  -14.5670   20.6480 O   0  0  0  0  0  0  0  0  0  0  0  0
  -22.3720  -12.0240   22.4880 H   0  0  0  0  0  0  0  0  0  0  0  0
  -21.0710  -13.1580   22.2570 H   0  0  0  0  0  0  0  0  0  0  0  0
  -25.3740  -15.2060   20.3570 N   0  0  0  0  0  0  0  0  0  0  0  0
  -24.6060  -15.8590   20.4610 H   0  0  0  0  0  0  0  0  0  0  0  0
  -26.2200  -15.6400   20.0100 H   0  0  0  0  0  0  0  0  0  0  0  0
  1  3  1  0
  2  4  1  0
  3 56  1  0
  4  3  2  0
  4  7  1  0
  5  1  2  0
  6  5  1  0
  6  2  2  0
  7  8  1  0
  9  8  1  0
  9 10  1  0
 11 13  1  0
 11 10  1  0
 12 23  2  0
 13 18  1  0
 14 22  1  0
 14 24  1  0
 15 21  1  0
 15 17  1  0
 16 22  1  0
 17 16  1  0
 18 17  2  0
 19 13  2  0
 20 19  1  0
 20 15  2  0
 21 14  1  0
 22 12  1  0
 24 26  2  0
 25 24  1  0
 27 25  1  0
 28 37  2  0
 28 33  1  0
 29 25  1  0
 29 33  1  0
 30 29  1  0
 31 32  1  0
 31 30  1  0
 32 28  1  0
 33 34  2  0
 34 35  1  0
 36 35  2  0
 37 36  1  0
 38 12  1  0
 38 43  1  0
 38 39  1  0
 39 42  1  1
 39 40  1  0
 41 39  1  0
 43 46  1  0
 44 48  1  0
 44 43  1  0
 45 44  2  0
 48 47  1  0
 50 48  1  0
 50 51  1  0
 50 49  1  0
 52 53  1  0
 52  5  1  0
 55 54  1  0
 55 53  1  0
 57 56  1  0
 57 60  1  0
 58 57  1  0
 59 57  1  0
 61 69  1  0
 62 67  1  0
 63 64  1  0
 63 62  1  0
 65 64  1  0
 65 74  1  0
 65 66  1  0
 67 61  1  0
 67 66  1  0
 68 61  2  0
 69 60  1  0
 69 70  1  0
 71 72  2  0
 72 91  1  0
 73 72  1  0
 73 76  1  0
 74 71  1  0
 74 75  1  0
 75 73  2  0
 76 77  1  0
 77 78  2  0
 79 82  1  0
 79 78  1  0
 80 79  2  0
 81 80  1  0
 81 76  2  0
 82 83  1  0
 83 84  1  0
 84 85  2  0
 86 85  1  0
 86 90  1  0
 87 86  2  0
 88 83  2  0
 88 87  1  0
 89 88  1  0
 91 92  1  0
 92 95  1  0
 92 94  1  0
 93 91  2  0
 96 97  1  0
 96 71  1  0
 98 96  1  0
M  ISO  4  10 101  11 101  61 100  69 100
M  END
>  <TORSDO>  (30) 
F 26

>  <SCORE>  (30) 
-11.953

>  <name>  (30) 
30

>  <ligand_id>  (30) 
30

>  <original_smiles>  (30) 
[H]c1nc(C([H])([H])C([H])([H])C([H])([H])C([H])([H])[H])c([H])c(C([H])([H])[N+]([H])([H])C([H])([H])N([H])C(=O)N2C([H])([H])C([H])([H])C([H])([H])C([H])(n3nc(-c4c([H])c([H])c(Oc5c([H])c([H])c(F)c([H])c5F)c([H])c4[H])c(C(=O)N([H])[H])c3N([H])[H])C2([H])[H])c1C([H])([H])C([H])([H])C([H])([H])C([H])([H])Oc1c([H])c([H])c2c(c1[H])C([H])([H])N(C(=O)C([H])(N([H])C(=O)C([H])(N([H])C([H])([H])[H])C([H])([H])[H])C(C([H])([H])[H])(C([H])([H])[H])C([H])([H])[H])C([H])(C(=O)N([H])C1([H])c3c([H])c([H])c([H])c([H])c3C([H])([H])C([H])([H])C1([H])[H])C2([H])[H]

>  <smiles>  (30) 
[H]c1nc(C([H])([H])C([H])([H])C([H])([H])C([H])([H])[H])c([H])c(C([H])([H])[N+]([H])([H])C([H])([H])N([H])C(=O)N2C([H])([H])C([H])([H])C([H])([H])C([H])(n3nc(-c4c([H])c([H])c(Oc5c([H])c([H])c(F)c([H])c5F)c([H])c4[H])c(C(=O)N([H])[H])c3N([H])[H])C2([H])[H])c1C([H])([H])C([H])([H])C([H])([H])C([H])([H])Oc1c([H])c([H])c2c(c1[H])C([H])([H])N(C(=O)C([H])(N([H])C(=O)C([H])(N([H])C([H])([H])[H])C([H])([H])[H])C(C([H])([H])[H])(C([H])([H])[H])C([H])([H])[H])C([H])(C(=O)N([H])C1([H])c3c([H])c([H])c([H])c([H])c3C([H])([H])C([H])([H])C1([H])[H])C2([H])[H]

$$$$
31:0:0
     RDKit          3D

 95103  0  0  1  0  0  0  0  0999 V2000
  -30.4600  -19.0770   20.7330 C   0  0  0  0  0  2  0  0  0  0  0  0
  -29.9090  -20.3960   20.5280 C   0  0  0  0  0  3  0  0  0  0  0  0
  -29.8940  -18.1830   19.8440 C   0  0  0  0  0  3  0  0  0  0  0  0
  -28.8850  -20.1770   19.6520 C   0  0  0  0  0  3  0  0  0  0  0  0
  -27.6810  -21.0070   19.3060 C   0  0  0  0  0  1  0  0  0  0  0  0
  -29.1940  -19.0200   18.9540 N   0  0  0  0  0  0  0  0  0  0  0  0
  -29.8870  -18.1580   16.6660 C   0  0  0  0  0  1  0  0  0  0  0  0
  -28.8320  -18.8720   17.5290 C   0  0  0  0  0  3  0  0  0  0  0  0
  -26.6400  -19.5140   16.3150 C   0  0  0  0  0  1  0  0  0  0  0  0
  -27.3710  -18.4890   17.2030 C   0  0  0  0  0  2  0  0  0  0  0  0
  -28.7040  -16.2700   20.7810 C   0  0  0  0  0  1  0  0  0  0  0  0
  -29.8170  -16.6380   19.7710 C   0  0  0  0  0  3  0  0  0  0  0  0
  -31.5360  -14.6430   19.6730 C   0  0  0  0  0  0  0  0  0  0  0  0
  -31.1540  -12.2860   18.9790 C   0  0  0  0  0  2  0  0  0  0  0  0
  -30.1820  -12.2180   17.7830 C   0  0  0  0  0  2  0  0  0  0  0  0
  -28.7180  -12.1960   18.2660 C   0  0  0  0  0  2  0  0  0  0  0  0
  -28.4310  -13.2870   19.3290 C   0  0  0  0  0  3  0  0  0  0  0  0
  -29.5180  -13.2710   20.4290 C   0  0  0  0  0  2  0  0  0  0  0  0
  -30.8060  -13.4840   19.7730 N   0  0  0  0  0  0  0  0  0  0  0  0
  -32.6840  -14.6040   19.2260 O   0  0  0  0  0  0  0  0  0  0  0  0
  -31.0540  -15.8580   20.0870 N   0  0  0  0  0  0  0  0  0  0  0  0
  -31.8300  -16.4950   20.1890 H   0  0  0  0  0  0  0  0  0  0  0  0
  -26.1840  -14.1800   20.1800 C   0  0  0  0  0  0  0  0  0  0  0  0
  -25.0370  -13.5630   20.5820 C   0  0  0  0  0  0  0  0  0  0  0  0
  -25.3130  -12.1670   20.5130 C   0  0  0  0  0  0  0  0  0  0  0  0
  -27.0860  -13.1780   19.8790 N   0  0  0  0  0  0  0  0  0  0  0  0
  -26.5700  -11.9550   20.1420 N   0  0  0  0  0  0  0  0  0  0  0  0
  -24.4340  -11.0150   20.7210 C   0  0  0  0  0  0  0  0  0  0  0  0
  -24.7870   -9.9730   21.6050 C   0  0  0  0  0  3  0  0  0  0  0  0
  -23.9160   -8.8830   21.8020 C   0  0  0  0  0  3  0  0  0  0  0  0
  -22.6790   -8.8300   21.1170 C   0  0  0  0  0  0  0  0  0  0  0  0
  -22.3430   -9.8610   20.2230 C   0  0  0  0  0  3  0  0  0  0  0  0
  -23.2130  -10.9450   20.0220 C   0  0  0  0  0  3  0  0  0  0  0  0
  -21.7830   -7.7960   21.2280 O   0  0  0  0  0  0  0  0  0  0  0  0
  -21.7090   -7.0290   22.3630 C   0  0  0  0  0  0  0  0  0  0  0  0
  -21.4310   -7.5950   23.6260 C   0  0  0  0  0  3  0  0  0  0  0  0
  -21.2970   -6.7630   24.7550 C   0  0  0  0  0  3  0  0  0  0  0  0
  -21.4280   -5.3670   24.6210 C   0  0  0  0  0  0  0  0  0  0  0  0
  -21.7000   -4.8020   23.3620 C   0  0  0  0  0  3  0  0  0  0  0  0
  -21.8380   -5.6310   22.2350 C   0  0  0  0  0  0  0  0  0  0  0  0
  -22.0790   -5.0810   21.0210 F   0  0  0  0  0  0  0  0  0  0  0  0
  -21.2910   -4.5660   25.7030 F   0  0  0  0  0  0  0  0  0  0  0  0
  -23.7340  -14.2290   20.9200 C   0  0  0  0  0  0  0  0  0  0  0  0
  -22.9620  -13.6350   21.8240 N   0  0  0  0  0  0  0  0  0  0  0  0
  -23.4130  -15.3050   20.4170 O   0  0  0  0  0  0  0  0  0  0  0  0
  -23.2350  -12.7620   22.2490 H   0  0  0  0  0  0  0  0  0  0  0  0
  -22.0880  -14.0610   22.0950 H   0  0  0  0  0  0  0  0  0  0  0  0
  -26.5230  -15.5050   20.0250 N   0  0  0  0  0  0  0  0  0  0  0  0
  -25.8690  -16.2490   20.2350 H   0  0  0  0  0  0  0  0  0  0  0  0
  -27.4140  -15.8330   19.6930 H   0  0  0  0  0  0  0  0  0  0  0  0
  -30.2910  -21.7600   21.1580 C   0  0  0  0  0  2  0  0  0  0  0  0
  -29.5680  -22.9850   20.4890 C   0  0  0  0  0  2  0  0  0  0  0  0
  -29.9020  -24.4690   20.8200 C   0  0  0  0  0  2  0  0  0  0  0  0
  -28.8170  -25.3990   20.1810 C   0  0  0  0  0  2  0  0  0  0  0  0
  -28.8600  -26.8170   20.4700 O   0  0  0  0  0  0  0  0  0  0  0  0
  -24.6520  -31.8410   23.3060 C   0  0  0  0  0  0  0  0  0  0  0  0
  -27.6610  -27.5170   20.3600 C   0  0  0  0  0  0  0  0  0  0  0  0
  -23.6050  -30.4120   21.5820 C   0  0  0  0  0  3  0  0  0  0  0  0
  -25.2010  -28.9470   20.2310 C   0  0  0  0  0  0  0  0  0  0  0  0
  -26.1240  -30.8630   21.5420 C   0  0  0  0  0  2  0  0  0  0  0  0
  -26.3020  -29.5040   20.8930 C   0  0  0  0  0  0  0  0  0  0  0  0
  -27.5310  -28.8010   20.9470 C   0  0  0  0  0  3  0  0  0  0  0  0
  -26.5330  -26.9840   19.6850 C   0  0  0  0  0  3  0  0  0  0  0  0
  -25.3160  -27.6890   19.6190 C   0  0  0  0  0  3  0  0  0  0  0  0
  -23.9180  -29.7500   20.2130 C   0  0  0  0  0  2  0  0  0  0  0  0
  -24.8070  -31.0550   22.2010 N   0  0  0  0  0  0  0  0  0  0  0  0
  -23.5290  -32.0690   23.7770 O   0  0  0  0  0  0  0  0  0  0  0  0
  -22.9310  -29.3620   22.4940 C   0  0  0  0  0  0  0  0  0  0  0  0
  -21.6120  -29.1760   22.3200 N   0  0  0  0  0  0  0  0  0  0  0  0
  -23.5940  -28.7190   23.3120 O   0  0  0  0  0  0  0  0  0  0  0  0
  -21.1420  -29.7470   21.6310 H   0  0  0  0  0  0  0  0  0  0  0  0
  -18.2170  -28.0170   22.7680 C   0  0  0  0  0  0  0  0  0  0  0  0
  -20.7790  -28.2110   23.0370 C   0  0  0  0  0  3  0  0  0  0  0  0
  -20.8500  -26.8140   22.3760 C   0  0  0  0  0  2  0  0  0  0  0  0
  -19.7430  -26.5720   21.3480 C   0  0  0  0  0  2  0  0  0  0  0  0
  -18.3640  -26.7080   22.0050 C   0  0  0  0  0  2  0  0  0  0  0  0
  -19.3510  -28.7300   23.2350 C   0  0  0  0  0  0  0  0  0  0  0  0
  -19.1620  -29.9600   23.9040 C   0  0  0  0  0  3  0  0  0  0  0  0
  -17.8690  -30.4750   24.1090 C   0  0  0  0  0  3  0  0  0  0  0  0
  -16.7470  -29.7550   23.6640 C   0  0  0  0  0  3  0  0  0  0  0  0
  -16.9230  -28.5270   23.0000 C   0  0  0  0  0  3  0  0  0  0  0  0
  -25.8730  -32.5110   24.0120 C   0  0  0  0  0  3  0  0  0  0  0  0
  -25.5160  -33.9110   24.2830 N   0  0  0  0  0  0  0  0  0  0  0  0
  -25.8750  -34.9480   23.5130 C   0  0  0  0  0  0  0  0  0  0  0  0
  -26.6090  -34.8290   22.5280 O   0  0  0  0  0  0  0  0  0  0  0  0
  -24.8630  -34.0740   25.0340 H   0  0  0  0  0  0  0  0  0  0  0  0
  -24.1220  -36.6800   23.0140 C   0  0  0  0  0  1  0  0  0  0  0  0
  -25.3310  -36.3380   23.8980 C   0  0  0  0  0  3  0  0  0  0  0  0
  -27.3950  -37.3080   24.8050 C   0  0  0  0  0  1  0  0  0  0  0  0
  -26.3440  -37.4110   23.7970 N   0  0  0  0  0  0  0  0  0  0  0  0
  -25.9090  -38.3270   23.8800 H   0  0  0  0  0  0  0  0  0  0  0  0
  -26.3010  -31.7810   25.3460 C   0  0  1  0  0  0  0  0  0  0  0  0
  -25.1250  -31.5280   26.3180 C   0  0  0  0  0  1  0  0  0  0  0  0
  -26.9580  -30.4150   25.0360 C   0  0  0  0  0  1  0  0  0  0  0  0
  -27.3690  -32.6210   26.0840 C   0  0  0  0  0  1  0  0  0  0  0  0
  2  1  1  0
  2 51  1  0
  3 12  1  0
  3  1  1  0
  4  5  1  0
  4  2  1  0
  6  4  1  0
  6  3  1  0
  8  7  1  0
  8  6  1  0
  9 10  1  0
 10  8  1  0
 12 21  1  0
 12 11  1  0
 13 19  1  0
 13 21  1  0
 14 19  1  0
 15 16  1  0
 15 14  1  0
 17 16  1  0
 17 26  1  0
 17 18  1  0
 19 18  1  0
 20 13  2  0
 21 22  1  0
 23 24  2  0
 24 43  1  0
 25 24  1  0
 25 28  1  0
 26 27  1  0
 26 23  1  0
 27 25  2  0
 28 29  1  0
 29 30  2  0
 31 34  1  0
 31 30  1  0
 32 31  2  0
 33 32  1  0
 33 28  2  0
 34 35  1  0
 35 36  1  0
 36 37  2  0
 38 37  1  0
 38 42  1  0
 39 38  2  0
 40 35  2  0
 40 39  1  0
 41 40  1  0
 43 44  1  0
 44 47  1  0
 44 46  1  0
 45 43  2  0
 48 23  1  0
 48 49  1  0
 50 48  1  0
 52 53  1  0
 52 51  1  0
 54 55  1  0
 54 53  1  0
 56 67  2  0
 57 55  1  0
 57 62  1  0
 58 66  1  0
 58 68  1  0
 59 61  1  0
 60 66  1  0
 61 62  2  0
 61 60  1  0
 63 57  2  0
 64 63  1  0
 64 59  2  0
 65 59  1  0
 65 58  1  0
 66 56  1  0
 68 70  2  0
 69 68  1  0
 71 69  1  0
 72 81  2  0
 72 77  1  0
 73 69  1  0
 73 77  1  0
 74 73  1  0
 75 76  1  0
 75 74  1  0
 76 72  1  0
 77 78  2  0
 78 79  1  0
 80 79  2  0
 81 80  1  0
 82 56  1  0
 82 83  1  0
 82 92  1  0
 83 86  1  0
 84 88  1  0
 84 83  1  0
 85 84  2  0
 88 87  1  0
 90 91  1  0
 90 88  1  0
 90 89  1  0
 92 95  1  1
 92 93  1  0
 94 92  1  0
M  ISO  4  13 100  21 100  54 101  55 101
M  END
>  <TORSDO>  (31) 
F 23

>  <SCORE>  (31) 
-11.378

>  <name>  (31) 
31

>  <ligand_id>  (31) 
31

>  <original_smiles>  (31) 
[H]c1c([H])c([H])c2c(c1[H])C([H])([H])C([H])([H])C([H])([H])C2([H])N([H])C(=O)C1([H])N(C(=O)C([H])(N([H])C(=O)C([H])(N([H])C([H])([H])[H])C([H])([H])[H])C(C([H])([H])[H])(C([H])([H])[H])C([H])([H])[H])C([H])([H])c2c([H])c(OC([H])([H])C([H])([H])C([H])([H])C([H])([H])c3c([H])c(C([H])(N([H])C(=O)N4C([H])([H])C([H])([H])C([H])([H])C([H])(n5nc(-c6c([H])c([H])c(Oc7c([H])c([H])c(F)c([H])c7F)c([H])c6[H])c(C(=O)N([H])[H])c5N([H])[H])C4([H])[H])C([H])([H])[H])n(C([H])(C([H])([H])[H])C([H])([H])C([H])([H])[H])c3C([H])([H])[H])c([H])c([H])c2C1([H])[H]

>  <smiles>  (31) 
[H]c1c([H])c([H])c2c(c1[H])C([H])([H])C([H])([H])C([H])([H])C2([H])N([H])C(=O)C1([H])N(C(=O)C([H])(N([H])C(=O)C([H])(N([H])C([H])([H])[H])C([H])([H])[H])C(C([H])([H])[H])(C([H])([H])[H])C([H])([H])[H])C([H])([H])c2c([H])c(OC([H])([H])C([H])([H])C([H])([H])C([H])([H])c3c([H])c(C([H])(N([H])C(=O)N4C([H])([H])C([H])([H])C([H])([H])C([H])(n5nc(-c6c([H])c([H])c(Oc7c([H])c([H])c(F)c([H])c7F)c([H])c6[H])c(C(=O)N([H])[H])c5N([H])[H])C4([H])[H])C([H])([H])[H])n(C([H])(C([H])([H])[H])C([H])([H])C([H])([H])[H])c3C([H])([H])[H])c([H])c([H])c2C1([H])[H]

$$$$
32:0:0
     RDKit          3D

 97105  0  0  1  0  0  0  0  0999 V2000
  -29.8180  -20.6830   19.5900 C   0  0  0  0  0  3  0  0  0  0  0  0
  -29.0240  -19.5040   19.6050 C   0  0  0  0  0  0  0  0  0  0  0  0
  -27.6130  -19.6660   19.6330 C   0  0  0  0  0  0  0  0  0  0  0  0
  -29.1940  -21.9560   19.5190 C   0  0  0  0  0  0  0  0  0  0  0  0
  -27.0760  -20.9810   19.6100 C   0  0  0  0  0  0  0  0  0  0  0  0
  -27.8540  -22.0740   19.4970 N   0  0  0  0  0  0  0  0  0  0  0  0
  -26.7670  -18.5550   19.5860 N   0  0  0  0  0  0  0  0  0  0  0  0
  -27.1220  -17.7300   19.1150 H   0  0  0  0  0  0  0  0  0  0  0  0
  -25.8030  -18.7300   19.3240 H   0  0  0  0  0  0  0  0  0  0  0  0
  -29.6390  -18.0960   19.4060 C   0  0  0  0  0  2  0  0  0  0  0  0
  -30.1390  -17.3250   20.6670 C   0  0  0  0  0  2  0  0  0  0  0  0
  -30.6170  -14.8970   19.9870 C   0  0  0  0  0  0  0  0  0  0  0  0
  -30.3490  -12.6740   18.9430 C   0  0  0  0  0  2  0  0  0  0  0  0
  -29.3660  -12.7960   17.7600 C   0  0  0  0  0  2  0  0  0  0  0  0
  -27.9030  -12.6700   18.2330 C   0  0  0  0  0  2  0  0  0  0  0  0
  -27.5920  -13.5640   19.4630 C   0  0  0  0  0  3  0  0  0  0  0  0
  -28.6750  -13.3920   20.5490 C   0  0  0  0  0  2  0  0  0  0  0  0
  -29.9820  -13.6950   19.9350 N   0  0  0  0  0  0  0  0  0  0  0  0
  -31.7070  -15.1150   19.4480 O   0  0  0  0  0  0  0  0  0  0  0  0
  -29.8900  -15.8720   20.5650 N   0  0  0  0  0  0  0  0  0  0  0  0
  -29.0000  -15.5550   20.9220 H   0  0  0  0  0  0  0  0  0  0  0  0
  -25.2350  -14.2210   20.2610 C   0  0  0  0  0  0  0  0  0  0  0  0
  -24.1670  -13.4750   20.6710 C   0  0  0  0  0  0  0  0  0  0  0  0
  -24.5910  -12.1100   20.6030 C   0  0  0  0  0  0  0  0  0  0  0  0
  -26.2500  -13.3180   19.9860 N   0  0  0  0  0  0  0  0  0  0  0  0
  -25.8650  -12.0420   20.2420 N   0  0  0  0  0  0  0  0  0  0  0  0
  -23.8420  -10.8650   20.8080 C   0  0  0  0  0  0  0  0  0  0  0  0
  -24.3180   -9.8470   21.6650 C   0  0  0  0  0  3  0  0  0  0  0  0
  -23.5700   -8.6660   21.8550 C   0  0  0  0  0  3  0  0  0  0  0  0
  -22.3330   -8.4920   21.1900 C   0  0  0  0  0  0  0  0  0  0  0  0
  -21.8780   -9.4970   20.3190 C   0  0  0  0  0  3  0  0  0  0  0  0
  -22.6250  -10.6700   20.1270 C   0  0  0  0  0  3  0  0  0  0  0  0
  -21.5520   -7.3670   21.2950 O   0  0  0  0  0  0  0  0  0  0  0  0
  -21.6030   -6.5580   22.4010 C   0  0  0  0  0  0  0  0  0  0  0  0
  -21.3640   -7.0560   23.7000 C   0  0  0  0  0  3  0  0  0  0  0  0
  -21.3560   -6.1760   24.8010 C   0  0  0  0  0  3  0  0  0  0  0  0
  -21.5770   -4.8000   24.6040 C   0  0  0  0  0  0  0  0  0  0  0  0
  -21.8100   -4.3010   23.3090 C   0  0  0  0  0  3  0  0  0  0  0  0
  -21.8180   -5.1790   22.2110 C   0  0  0  0  0  0  0  0  0  0  0  0
  -22.0230   -4.6900   20.9640 F   0  0  0  0  0  0  0  0  0  0  0  0
  -21.5600   -3.9520   25.6590 F   0  0  0  0  0  0  0  0  0  0  0  0
  -22.7950  -13.9830   21.0080 C   0  0  0  0  0  0  0  0  0  0  0  0
  -22.1100  -13.3310   21.9410 N   0  0  0  0  0  0  0  0  0  0  0  0
  -22.3420  -14.9940   20.4750 O   0  0  0  0  0  0  0  0  0  0  0  0
  -22.4920  -12.5110   22.3890 H   0  0  0  0  0  0  0  0  0  0  0  0
  -21.1930  -13.6580   22.2080 H   0  0  0  0  0  0  0  0  0  0  0  0
  -25.4240  -15.5870   20.0730 N   0  0  0  0  0  0  0  0  0  0  0  0
  -24.6340  -16.2230   20.0990 H   0  0  0  0  0  0  0  0  0  0  0  0
  -26.2030  -15.9550   19.5390 H   0  0  0  0  0  0  0  0  0  0  0  0
  -29.9800  -23.2630   19.2870 C   0  0  0  0  0  2  0  0  0  0  0  0
  -29.2920  -24.5910   19.7610 C   0  0  0  0  0  2  0  0  0  0  0  0
  -29.5880  -25.8350   18.8770 C   0  0  0  0  0  2  0  0  0  0  0  0
  -29.2180  -27.0980   19.4730 O   0  0  0  0  0  0  0  0  0  0  0  0
  -24.5940  -31.1360   23.0570 C   0  0  0  0  0  0  0  0  0  0  0  0
  -27.9200  -27.5880   19.4890 C   0  0  0  0  0  0  0  0  0  0  0  0
  -23.6220  -29.8030   21.2100 C   0  0  0  0  0  3  0  0  0  0  0  0
  -25.3070  -28.7040   19.6300 C   0  0  0  0  0  0  0  0  0  0  0  0
  -26.0650  -30.5590   21.1280 C   0  0  0  0  0  2  0  0  0  0  0  0
  -26.3640  -29.3150   20.3130 C   0  0  0  0  0  0  0  0  0  0  0  0
  -27.6650  -28.7650   20.2400 C   0  0  0  0  0  3  0  0  0  0  0  0
  -26.8370  -26.9850   18.8110 C   0  0  0  0  0  3  0  0  0  0  0  0
  -25.5410  -27.5390   18.8750 C   0  0  0  0  0  3  0  0  0  0  0  0
  -23.9440  -29.3510   19.7570 C   0  0  0  0  0  2  0  0  0  0  0  0
  -24.7750  -30.5090   21.8570 N   0  0  0  0  0  0  0  0  0  0  0  0
  -23.4820  -31.1670   23.6060 O   0  0  0  0  0  0  0  0  0  0  0  0
  -23.1280  -28.5780   22.0150 C   0  0  0  0  0  0  0  0  0  0  0  0
  -21.8590  -28.1890   21.8000 N   0  0  0  0  0  0  0  0  0  0  0  0
  -23.8820  -27.9870   22.7920 O   0  0  0  0  0  0  0  0  0  0  0  0
  -21.3030  -28.7240   21.1490 H   0  0  0  0  0  0  0  0  0  0  0  0
  -18.7550  -26.3400   21.9350 C   0  0  0  0  0  0  0  0  0  0  0  0
  -21.1990  -27.0340   22.4130 C   0  0  0  0  0  3  0  0  0  0  0  0
  -21.6040  -25.7220   21.7040 C   0  0  0  0  0  2  0  0  0  0  0  0
  -20.6360  -25.3150   20.5890 C   0  0  0  0  0  2  0  0  0  0  0  0
  -19.2220  -25.1310   21.1430 C   0  0  0  0  0  2  0  0  0  0  0  0
  -19.6830  -27.2420   22.5180 C   0  0  0  0  0  0  0  0  0  0  0  0
  -19.1970  -28.3690   23.2140 C   0  0  0  0  0  3  0  0  0  0  0  0
  -17.8130  -28.6020   23.3320 C   0  0  0  0  0  3  0  0  0  0  0  0
  -16.8990  -27.6970   22.7630 C   0  0  0  0  0  3  0  0  0  0  0  0
  -17.3700  -26.5690   22.0710 C   0  0  0  0  0  3  0  0  0  0  0  0
  -25.7710  -31.8630   23.7840 C   0  0  0  0  0  3  0  0  0  0  0  0
  -26.1820  -31.1760   25.1430 C   0  0  1  0  0  0  0  0  0  0  0  0
  -24.9930  -30.9350   26.1030 C   0  0  0  0  0  1  0  0  0  0  0  0
  -26.8670  -29.8120   24.8860 C   0  0  0  0  0  1  0  0  0  0  0  0
  -27.2180  -32.0540   25.8820 C   0  0  0  0  0  1  0  0  0  0  0  0
  -25.3590  -33.2530   24.0110 N   0  0  0  0  0  0  0  0  0  0  0  0
  -25.8140  -34.3030   23.3150 C   0  0  0  0  0  0  0  0  0  0  0  0
  -26.6900  -34.2060   22.4510 O   0  0  0  0  0  0  0  0  0  0  0  0
  -24.6060  -33.4010   24.6670 H   0  0  0  0  0  0  0  0  0  0  0  0
  -24.1970  -36.0600   22.5240 C   0  0  0  0  0  1  0  0  0  0  0  0
  -25.1980  -35.6790   23.6270 C   0  0  0  0  0  3  0  0  0  0  0  0
  -27.0590  -36.5860   24.9470 C   0  0  0  0  0  1  0  0  0  0  0  0
  -26.2010  -36.7550   23.7770 N   0  0  0  0  0  0  0  0  0  0  0  0
  -25.7490  -37.6620   23.8430 H   0  0  0  0  0  0  0  0  0  0  0  0
  -25.5680  -21.2430   19.5380 C   0  0  0  0  0  2  0  0  0  0  0  0
  -25.1200  -22.7240   19.6000 C   0  0  0  0  0  2  0  0  0  0  0  0
  -24.9960  -24.9290   20.8520 C   0  0  0  0  0  1  0  0  0  0  0  0
  -25.5600  -23.5010   20.8510 C   0  0  0  0  0  2  0  0  0  0  0  0
  1  2  1  0
  2  3  2  0
  4  1  2  0
  5  3  1  0
  6  4  1  0
  6  5  2  0
  7  3  1  0
  8  7  1  0
  9  7  1  0
 10  2  1  0
 10 11  1  0
 12 20  1  0
 13 18  1  0
 14 15  1  0
 14 13  1  0
 16 15  1  0
 16 25  1  0
 16 17  1  0
 18 12  1  0
 18 17  1  0
 19 12  2  0
 20 11  1  0
 20 21  1  0
 22 23  2  0
 23 42  1  0
 24 23  1  0
 24 27  1  0
 25 26  1  0
 25 22  1  0
 26 24  2  0
 27 28  1  0
 28 29  2  0
 30 33  1  0
 30 29  1  0
 31 30  2  0
 32 31  1  0
 32 27  2  0
 33 34  1  0
 34 35  1  0
 35 36  2  0
 37 36  1  0
 37 41  1  0
 38 37  2  0
 39 34  2  0
 39 38  1  0
 40 39  1  0
 42 43  1  0
 43 46  1  0
 43 45  1  0
 44 42  2  0
 47 48  1  0
 47 22  1  0
 49 47  1  0
 50  4  1  0
 50 51  1  0
 52 53  1  0
 52 51  1  0
 53 55  1  0
 54 65  2  0
 55 60  1  0
 56 64  1  0
 56 66  1  0
 57 63  1  0
 57 59  1  0
 58 64  1  0
 59 58  1  0
 60 59  2  0
 61 62  1  0
 61 55  2  0
 62 57  2  0
 63 56  1  0
 64 54  1  0
 66 68  2  0
 67 66  1  0
 69 67  1  0
 70 79  2  0
 70 75  1  0
 71 67  1  0
 71 75  1  0
 72 71  1  0
 73 74  1  0
 73 72  1  0
 74 70  1  0
 75 76  2  0
 76 77  1  0
 78 77  2  0
 79 78  1  0
 80 54  1  0
 80 85  1  0
 80 81  1  0
 81 84  1  1
 81 82  1  0
 83 81  1  0
 85 88  1  0
 86 90  1  0
 86 85  1  0
 87 86  2  0
 90 89  1  0
 90 92  1  0
 92 93  1  0
 92 91  1  0
 94 95  1  0
 94  5  1  0
 95 97  1  0
 97 96  1  0
M  ISO  4  12 100  20 100  52 101  53 101
M  END
>  <TORSDO>  (32) 
F 25

>  <SCORE>  (32) 
-9.146

>  <name>  (32) 
32

>  <ligand_id>  (32) 
32

>  <original_smiles>  (32) 
[H]c1c([H])c([H])c2c(c1[H])C([H])([H])C([H])([H])C([H])([H])C2([H])N([H])C(=O)C1([H])N(C(=O)C([H])(N([H])C(=O)C([H])(N([H])C([H])([H])[H])C([H])([H])[H])C(C([H])([H])[H])(C([H])([H])[H])C([H])([H])[H])C([H])([H])c2c([H])c(OC([H])([H])C([H])([H])C([H])([H])c3nc(C([H])([H])C([H])([H])C([H])([H])C([H])([H])[H])c(N([H])[H])c(C([H])([H])C([H])([H])N([H])C(=O)N4C([H])([H])C([H])([H])C([H])([H])C([H])(n5nc(-c6c([H])c([H])c(Oc7c([H])c([H])c(F)c([H])c7F)c([H])c6[H])c(C(=O)N([H])[H])c5N([H])[H])C4([H])[H])c3[H])c([H])c([H])c2C1([H])[H]

>  <smiles>  (32) 
[H]c1c([H])c([H])c2c(c1[H])C([H])([H])C([H])([H])C([H])([H])C2([H])N([H])C(=O)C1([H])N(C(=O)C([H])(N([H])C(=O)C([H])(N([H])C([H])([H])[H])C([H])([H])[H])C(C([H])([H])[H])(C([H])([H])[H])C([H])([H])[H])C([H])([H])c2c([H])c(OC([H])([H])C([H])([H])C([H])([H])c3nc(C([H])([H])C([H])([H])C([H])([H])C([H])([H])[H])c(N([H])[H])c(C([H])([H])C([H])([H])N([H])C(=O)N4C([H])([H])C([H])([H])C([H])([H])C([H])(n5nc(-c6c([H])c([H])c(Oc7c([H])c([H])c(F)c([H])c7F)c([H])c6[H])c(C(=O)N([H])[H])c5N([H])[H])C4([H])[H])c3[H])c([H])c([H])c2C1([H])[H]

$$$$
33:0:0
     RDKit          3D

 95103  0  0  1  0  0  0  0  0999 V2000
  -27.5800  -19.6470   19.5970 C   0  0  0  0  0  3  0  0  0  0  0  0
  -28.5140  -18.6410   19.3160 C   0  0  0  0  0  3  0  0  0  0  0  0
  -27.8800  -20.9770   19.2440 C   0  0  0  0  0  0  0  0  0  0  0  0
  -29.7170  -18.9880   18.6810 C   0  0  0  0  0  0  0  0  0  0  0  0
  -29.1180  -21.2530   18.6160 C   0  0  0  0  0  0  0  0  0  0  0  0
  -30.0150  -20.2720   18.3420 N   0  0  0  0  0  0  0  0  0  0  0  0
  -29.4440  -22.5870   18.3000 N   0  0  0  0  0  0  0  0  0  0  0  0
  -28.8110  -23.2760   18.6890 H   0  0  0  0  0  0  0  0  0  0  0  0
  -29.5940  -22.2220   15.8620 C   0  0  0  0  0  1  0  0  0  0  0  0
  -30.1360  -23.0050   17.0750 C   0  0  0  0  0  3  0  0  0  0  0  0
  -29.9830  -24.5470   16.8770 C   0  0  0  0  0  2  0  0  0  0  0  0
  -30.3220  -25.0960   15.4580 C   0  0  0  0  0  2  0  0  0  0  0  0
  -29.9120  -26.4610   15.2390 O   0  0  0  0  0  0  0  0  0  0  0  0
  -24.7610  -28.0580   19.8870 C   0  0  0  0  0  0  0  0  0  0  0  0
  -28.5870  -26.8270   15.3970 C   0  0  0  0  0  0  0  0  0  0  0  0
  -24.0310  -27.7060   17.5500 C   0  0  0  0  0  3  0  0  0  0  0  0
  -25.8890  -27.5880   15.8120 C   0  0  0  0  0  0  0  0  0  0  0  0
  -26.3900  -28.5520   18.0640 C   0  0  0  0  0  2  0  0  0  0  0  0
  -26.8480  -27.8590   16.7950 C   0  0  0  0  0  0  0  0  0  0  0  0
  -28.1950  -27.4820   16.5910 C   0  0  0  0  0  3  0  0  0  0  0  0
  -27.6000  -26.5750   14.4160 C   0  0  0  0  0  3  0  0  0  0  0  0
  -26.2590  -26.9440   14.6220 C   0  0  0  0  0  3  0  0  0  0  0  0
  -24.4710  -28.0210   16.0960 C   0  0  0  0  0  2  0  0  0  0  0  0
  -25.0710  -28.0900   18.5590 N   0  0  0  0  0  0  0  0  0  0  0  0
  -23.6210  -27.7630   20.2710 O   0  0  0  0  0  0  0  0  0  0  0  0
  -23.6140  -26.2190   17.6310 C   0  0  0  0  0  0  0  0  0  0  0  0
  -22.3670  -25.9220   17.2320 N   0  0  0  0  0  0  0  0  0  0  0  0
  -24.4120  -25.3600   18.0190 O   0  0  0  0  0  0  0  0  0  0  0  0
  -21.7690  -26.6830   16.9430 H   0  0  0  0  0  0  0  0  0  0  0  0
  -19.2930  -24.1190   16.6350 C   0  0  0  0  0  0  0  0  0  0  0  0
  -21.7750  -24.5840   17.1870 C   0  0  0  0  0  3  0  0  0  0  0  0
  -22.0980  -23.8790   15.8500 C   0  0  0  0  0  2  0  0  0  0  0  0
  -21.0170  -24.0810   14.7830 C   0  0  0  0  0  2  0  0  0  0  0  0
  -19.6690  -23.5490   15.2790 C   0  0  0  0  0  2  0  0  0  0  0  0
  -20.2790  -24.6190   17.5270 C   0  0  0  0  0  0  0  0  0  0  0  0
  -19.8730  -25.1700   18.7610 C   0  0  0  0  0  3  0  0  0  0  0  0
  -18.5110  -25.2220   19.1110 C   0  0  0  0  0  3  0  0  0  0  0  0
  -17.5390  -24.7130   18.2310 C   0  0  0  0  0  3  0  0  0  0  0  0
  -17.9310  -24.1590   17.0000 C   0  0  0  0  0  3  0  0  0  0  0  0
  -25.8140  -28.4190   20.9820 C   0  0  0  0  0  3  0  0  0  0  0  0
  -25.0850  -28.9770   22.1290 N   0  0  0  0  0  0  0  0  0  0  0  0
  -24.9690  -30.2860   22.3910 C   0  0  0  0  0  0  0  0  0  0  0  0
  -25.5340  -31.1560   21.7220 O   0  0  0  0  0  0  0  0  0  0  0  0
  -24.5540  -28.3270   22.6890 H   0  0  0  0  0  0  0  0  0  0  0  0
  -22.7080  -31.1440   23.0790 C   0  0  0  0  0  1  0  0  0  0  0  0
  -24.0880  -30.6950   23.5860 C   0  0  0  0  0  3  0  0  0  0  0  0
  -25.8380  -31.3160   25.1920 C   0  0  0  0  0  1  0  0  0  0  0  0
  -24.6820  -31.7640   24.4180 N   0  0  0  0  0  0  0  0  0  0  0  0
  -23.9960  -32.1420   25.0630 H   0  0  0  0  0  0  0  0  0  0  0  0
  -26.6970  -27.1890   21.4290 C   0  0  1  0  0  0  0  0  0  0  0  0
  -25.8720  -25.9390   21.8150 C   0  0  0  0  0  1  0  0  0  0  0  0
  -27.6730  -26.7800   20.3010 C   0  0  0  0  0  1  0  0  0  0  0  0
  -27.5670  -27.5820   22.6460 C   0  0  0  0  0  1  0  0  0  0  0  0
  -27.3960  -23.1640   20.4410 C   0  0  0  0  0  1  0  0  0  0  0  0
  -26.8390  -22.0490   19.5470 C   0  0  0  0  0  2  0  0  0  0  0  0
  -30.7360  -17.8950   18.3440 C   0  0  0  0  0  2  0  0  0  0  0  0
  -31.4530  -17.2410   19.5620 C   0  0  0  0  0  2  0  0  0  0  0  0
  -31.7710  -14.7310   19.4810 C   0  0  0  0  0  0  0  0  0  0  0  0
  -31.4830  -12.3410   18.9380 C   0  0  0  0  0  2  0  0  0  0  0  0
  -30.4860  -12.2120   17.7680 C   0  0  0  0  0  2  0  0  0  0  0  0
  -29.0350  -12.1770   18.2850 C   0  0  0  0  0  2  0  0  0  0  0  0
  -28.7320  -13.3120   19.3000 C   0  0  0  0  0  3  0  0  0  0  0  0
  -29.8340  -13.3900   20.3800 C   0  0  0  0  0  2  0  0  0  0  0  0
  -31.1270  -13.5520   19.6940 N   0  0  0  0  0  0  0  0  0  0  0  0
  -32.8570  -14.8070   18.9010 O   0  0  0  0  0  0  0  0  0  0  0  0
  -31.0790  -15.8340   19.8240 N   0  0  0  0  0  0  0  0  0  0  0  0
  -30.1960  -15.6730   20.2890 H   0  0  0  0  0  0  0  0  0  0  0  0
  -26.4880  -14.1360   20.2590 C   0  0  0  0  0  0  0  0  0  0  0  0
  -25.3810  -13.4660   20.7000 C   0  0  0  0  0  0  0  0  0  0  0  0
  -25.6800  -12.0760   20.5650 C   0  0  0  0  0  0  0  0  0  0  0  0
  -27.4050  -13.1600   19.8930 N   0  0  0  0  0  0  0  0  0  0  0  0
  -26.9240  -11.9120   20.1300 N   0  0  0  0  0  0  0  0  0  0  0  0
  -24.8360  -10.8920   20.7640 C   0  0  0  0  0  0  0  0  0  0  0  0
  -25.1230   -9.9420   21.7690 C   0  0  0  0  0  3  0  0  0  0  0  0
  -24.2840   -8.8210   21.9530 C   0  0  0  0  0  3  0  0  0  0  0  0
  -23.1440   -8.6450   21.1340 C   0  0  0  0  0  0  0  0  0  0  0  0
  -22.8770   -9.5810   20.1190 C   0  0  0  0  0  3  0  0  0  0  0  0
  -23.7160  -10.6930   19.9330 C   0  0  0  0  0  3  0  0  0  0  0  0
  -22.2880   -7.5740   21.2240 O   0  0  0  0  0  0  0  0  0  0  0  0
  -21.9690   -7.0090   22.4330 C   0  0  0  0  0  0  0  0  0  0  0  0
  -21.2630   -7.7240   23.4250 C   0  0  0  0  0  3  0  0  0  0  0  0
  -20.8930   -7.0830   24.6260 C   0  0  0  0  0  3  0  0  0  0  0  0
  -21.2180   -5.7280   24.8300 C   0  0  0  0  0  0  0  0  0  0  0  0
  -21.9170   -5.0140   23.8410 C   0  0  0  0  0  3  0  0  0  0  0  0
  -22.2860   -5.6520   22.6440 C   0  0  0  0  0  0  0  0  0  0  0  0
  -22.9410   -4.9530   21.6850 F   0  0  0  0  0  0  0  0  0  0  0  0
  -20.8560   -5.1100   25.9780 F   0  0  0  0  0  0  0  0  0  0  0  0
  -24.0780  -14.0780   21.1280 C   0  0  0  0  0  0  0  0  0  0  0  0
  -23.3650  -13.4220   22.0360 N   0  0  0  0  0  0  0  0  0  0  0  0
  -23.7110  -15.1680   20.6940 O   0  0  0  0  0  0  0  0  0  0  0  0
  -23.6760  -12.5370   22.4090 H   0  0  0  0  0  0  0  0  0  0  0  0
  -22.4930  -13.8120   22.3650 H   0  0  0  0  0  0  0  0  0  0  0  0
  -26.7810  -15.4860   20.1130 N   0  0  0  0  0  0  0  0  0  0  0  0
  -26.0860  -16.2030   20.2920 H   0  0  0  0  0  0  0  0  0  0  0  0
  -27.6100  -15.8450   19.6590 H   0  0  0  0  0  0  0  0  0  0  0  0
  2  1  1  0
  3 55  1  0
  3  1  2  0
  4  2  2  0
  5  3  1  0
  6  5  2  0
  6  4  1  0
  7  5  1  0
  7  8  1  0
 10  9  1  0
 10  7  1  0
 11 10  1  0
 12 11  1  0
 13 15  1  0
 13 12  1  0
 14 25  2  0
 15 20  1  0
 16 26  1  0
 16 24  1  0
 17 23  1  0
 17 19  1  0
 18 24  1  0
 19 18  1  0
 20 19  2  0
 21 22  1  0
 21 15  2  0
 22 17  2  0
 23 16  1  0
 24 14  1  0
 26 28  2  0
 27 26  1  0
 29 27  1  0
 30 39  2  0
 30 35  1  0
 31 27  1  0
 31 35  1  0
 32 31  1  0
 33 34  1  0
 33 32  1  0
 34 30  1  0
 35 36  2  0
 36 37  1  0
 38 37  2  0
 39 38  1  0
 40 14  1  0
 40 50  1  0
 40 41  1  0
 41 42  1  0
 41 44  1  0
 42 46  1  0
 43 42  2  0
 46 45  1  0
 46 48  1  0
 48 49  1  0
 48 47  1  0
 50 51  1  1
 50 53  1  0
 52 50  1  0
 55 54  1  0
 56  4  1  0
 56 57  1  0
 57 66  1  0
 58 64  1  0
 58 66  1  0
 59 64  1  0
 60 61  1  0
 60 59  1  0
 62 61  1  0
 62 71  1  0
 62 63  1  0
 64 63  1  0
 65 58  2  0
 66 67  1  0
 68 69  2  0
 69 88  1  0
 70 69  1  0
 70 73  1  0
 71 72  1  0
 71 68  1  0
 72 70  2  0
 73 74  1  0
 74 75  2  0
 76 79  1  0
 76 75  1  0
 77 76  2  0
 78 77  1  0
 78 73  2  0
 79 80  1  0
 80 85  2  0
 80 81  1  0
 81 82  2  0
 82 83  1  0
 83 87  1  0
 84 83  2  0
 85 84  1  0
 86 85  1  0
 88 89  1  0
 89 92  1  0
 89 91  1  0
 90 88  2  0
 93 68  1  0
 93 94  1  0
 95 93  1  0
M  ISO  4  12 101  13 101  58 100  66 100
M  END
>  <TORSDO>  (33) 
F 23

>  <SCORE>  (33) 
-8.263

>  <name>  (33) 
33

>  <ligand_id>  (33) 
33

>  <original_smiles>  (33) 
[H]c1c(C([H])([H])C([H])([H])N([H])C(=O)N2C([H])([H])C([H])([H])C([H])([H])C([H])(n3nc(-c4c([H])c([H])c(Oc5c([H])c([H])c(F)c([H])c5F)c([H])c4[H])c(C(=O)N([H])[H])c3N([H])[H])C2([H])[H])nc(N([H])C([H])(C([H])([H])[H])C([H])([H])C([H])([H])Oc2c([H])c([H])c3c(c2[H])C([H])([H])N(C(=O)C([H])(N([H])C(=O)C([H])(N([H])C([H])([H])[H])C([H])([H])[H])C(C([H])([H])[H])(C([H])([H])[H])C([H])([H])[H])C([H])(C(=O)N([H])C2([H])c4c([H])c([H])c([H])c([H])c4C([H])([H])C([H])([H])C2([H])[H])C3([H])[H])c(C([H])([H])C([H])([H])[H])c1[H]

>  <smiles>  (33) 
[H]c1c(C([H])([H])C([H])([H])N([H])C(=O)N2C([H])([H])C([H])([H])C([H])([H])C([H])(n3nc(-c4c([H])c([H])c(Oc5c([H])c([H])c(F)c([H])c5F)c([H])c4[H])c(C(=O)N([H])[H])c3N([H])[H])C2([H])[H])nc(N([H])C([H])(C([H])([H])[H])C([H])([H])C([H])([H])Oc2c([H])c([H])c3c(c2[H])C([H])([H])N(C(=O)C([H])(N([H])C(=O)C([H])(N([H])C([H])([H])[H])C([H])([H])[H])C(C([H])([H])[H])(C([H])([H])[H])C([H])([H])[H])C([H])(C(=O)N([H])C2([H])c4c([H])c([H])c([H])c([H])c4C([H])([H])C([H])([H])C2([H])[H])C3([H])[H])c(C([H])([H])C([H])([H])[H])c1[H]

$$$$
34:0:0
     RDKit          3D

 91 99  0  0  1  0  0  0  0  0999 V2000
  -30.7440  -18.5950   18.6690 C   0  0  0  0  0  3  0  0  0  0  0  0
  -30.8250  -19.6530   17.7460 C   0  0  0  0  0  0  0  0  0  0  0  0
  -29.9600  -18.9330   19.7320 C   0  0  0  0  0  0  0  0  0  0  0  0
  -30.0670  -20.6770   18.2320 C   0  0  0  0  0  0  0  0  0  0  0  0
  -31.5760  -19.6200   16.4400 C   0  0  0  0  0  1  0  0  0  0  0  0
  -29.7750  -21.9280   17.4600 C   0  0  0  0  0  1  0  0  0  0  0  0
  -29.5870  -20.3940   19.5320 N   0  0  0  0  0  0  0  0  0  0  0  0
  -29.7960  -17.7210   20.8040 C   0  0  0  0  0  2  0  0  0  0  0  0
  -30.4870  -15.0000   20.3520 C   0  0  0  0  0  0  0  0  0  0  0  0
  -30.3950  -12.6460   19.3910 C   0  0  0  0  0  2  0  0  0  0  0  0
  -29.4570  -12.5840   18.1630 C   0  0  0  0  0  2  0  0  0  0  0  0
  -27.9950  -12.3630   18.5970 C   0  0  0  0  0  2  0  0  0  0  0  0
  -27.5780  -13.2800   19.7760 C   0  0  0  0  0  3  0  0  0  0  0  0
  -28.6370  -13.3030   20.8970 C   0  0  0  0  0  2  0  0  0  0  0  0
  -29.9000  -13.7350   20.2790 N   0  0  0  0  0  0  0  0  0  0  0  0
  -31.7040  -15.0680   20.1450 O   0  0  0  0  0  0  0  0  0  0  0  0
  -29.6730  -16.1670   20.4550 N   0  0  0  0  0  0  0  0  0  0  0  0
  -28.7020  -15.8990   20.4480 H   0  0  0  0  0  0  0  0  0  0  0  0
  -25.1920  -13.8490   20.5040 C   0  0  0  0  0  0  0  0  0  0  0  0
  -24.1280  -13.0710   20.8740 C   0  0  0  0  0  0  0  0  0  0  0  0
  -24.5990  -11.7240   20.8510 C   0  0  0  0  0  0  0  0  0  0  0  0
  -26.2400  -12.9750   20.2740 N   0  0  0  0  0  0  0  0  0  0  0  0
  -25.8920  -11.6910   20.5460 N   0  0  0  0  0  0  0  0  0  0  0  0
  -23.8750  -10.4590   21.0450 C   0  0  0  0  0  0  0  0  0  0  0  0
  -24.3080   -9.4970   21.9810 C   0  0  0  0  0  3  0  0  0  0  0  0
  -23.5850   -8.2970   22.1620 C   0  0  0  0  0  3  0  0  0  0  0  0
  -22.4140   -8.0520   21.4070 C   0  0  0  0  0  0  0  0  0  0  0  0
  -22.0000   -9.0040   20.4600 C   0  0  0  0  0  3  0  0  0  0  0  0
  -22.7220  -10.1960   20.2770 C   0  0  0  0  0  3  0  0  0  0  0  0
  -21.6620   -6.9060   21.4990 O   0  0  0  0  0  0  0  0  0  0  0  0
  -21.6190   -6.1630   22.6510 C   0  0  0  0  0  0  0  0  0  0  0  0
  -21.1980   -6.7170   23.8790 C   0  0  0  0  0  3  0  0  0  0  0  0
  -21.1040   -5.9010   25.0240 C   0  0  0  0  0  3  0  0  0  0  0  0
  -21.4170   -4.5310   24.9410 C   0  0  0  0  0  0  0  0  0  0  0  0
  -21.8300   -3.9760   23.7160 C   0  0  0  0  0  3  0  0  0  0  0  0
  -21.9280   -4.7900   22.5750 C   0  0  0  0  0  0  0  0  0  0  0  0
  -22.3060   -4.2460   21.3930 F   0  0  0  0  0  0  0  0  0  0  0  0
  -21.3190   -3.7450   26.0380 F   0  0  0  0  0  0  0  0  0  0  0  0
  -22.7280  -13.5460   21.1320 C   0  0  0  0  0  0  0  0  0  0  0  0
  -21.9950  -12.8520   21.9960 N   0  0  0  0  0  0  0  0  0  0  0  0
  -22.2930  -14.5670   20.6020 O   0  0  0  0  0  0  0  0  0  0  0  0
  -22.3600  -12.0300   22.4520 H   0  0  0  0  0  0  0  0  0  0  0  0
  -21.0520  -13.1480   22.2060 H   0  0  0  0  0  0  0  0  0  0  0  0
  -25.3470  -15.2190   20.3150 N   0  0  0  0  0  0  0  0  0  0  0  0
  -24.5650  -15.8590   20.3950 H   0  0  0  0  0  0  0  0  0  0  0  0
  -26.1750  -15.6530   19.9280 H   0  0  0  0  0  0  0  0  0  0  0  0
  -28.7400  -21.5390   20.2660 C   0  0  0  0  0  2  0  0  0  0  0  0
  -29.0490  -23.2390   20.2460 C   0  0  0  0  0  2  0  0  0  0  0  0
  -27.1080  -24.2750   21.6230 C   0  0  0  0  0  1  0  0  0  0  0  0
  -27.9300  -24.5200   20.3440 C   0  0  0  0  0  3  0  0  0  0  0  0
  -28.2160  -26.0780   20.2860 O   0  0  0  0  0  0  0  0  0  0  0  0
  -24.6220  -31.8490   23.2340 C   0  0  0  0  0  0  0  0  0  0  0  0
  -27.1740  -27.0930   20.2150 C   0  0  0  0  0  0  0  0  0  0  0  0
  -23.4180  -30.4550   21.5950 C   0  0  0  0  0  3  0  0  0  0  0  0
  -24.8600  -28.8720   20.1720 C   0  0  0  0  0  0  0  0  0  0  0  0
  -25.9740  -30.7080   21.4260 C   0  0  0  0  0  2  0  0  0  0  0  0
  -26.0440  -29.3070   20.7820 C   0  0  0  0  0  0  0  0  0  0  0  0
  -27.2010  -28.4340   20.7850 C   0  0  0  0  0  3  0  0  0  0  0  0
  -25.9640  -26.7730   19.5590 C   0  0  0  0  0  3  0  0  0  0  0  0
  -24.8340  -27.6200   19.5430 C   0  0  0  0  0  3  0  0  0  0  0  0
  -23.6400  -29.7760   20.2160 C   0  0  0  0  0  2  0  0  0  0  0  0
  -24.6930  -31.0260   22.1420 N   0  0  0  0  0  0  0  0  0  0  0  0
  -23.5380  -32.1340   23.7630 O   0  0  0  0  0  0  0  0  0  0  0  0
  -22.7360  -29.4500   22.5580 C   0  0  0  0  0  0  0  0  0  0  0  0
  -21.4060  -29.2830   22.4370 N   0  0  0  0  0  0  0  0  0  0  0  0
  -23.4060  -28.8220   23.3820 O   0  0  0  0  0  0  0  0  0  0  0  0
  -20.9220  -29.8480   21.7540 H   0  0  0  0  0  0  0  0  0  0  0  0
  -18.0230  -28.0800   22.9360 C   0  0  0  0  0  0  0  0  0  0  0  0
  -20.5820  -28.3480   23.2110 C   0  0  0  0  0  3  0  0  0  0  0  0
  -20.6860  -26.9120   22.6440 C   0  0  0  0  0  2  0  0  0  0  0  0
  -19.5860  -26.5830   21.6280 C   0  0  0  0  0  2  0  0  0  0  0  0
  -18.2030  -26.7290   22.2670 C   0  0  0  0  0  2  0  0  0  0  0  0
  -19.1400  -28.8470   23.3660 C   0  0  0  0  0  0  0  0  0  0  0  0
  -18.9120  -30.1120   23.9520 C   0  0  0  0  0  3  0  0  0  0  0  0
  -17.6030  -30.6060   24.1150 C   0  0  0  0  0  3  0  0  0  0  0  0
  -16.5040  -29.8350   23.6990 C   0  0  0  0  0  3  0  0  0  0  0  0
  -16.7140  -28.5750   23.1140 C   0  0  0  0  0  3  0  0  0  0  0  0
  -25.9010  -32.4850   23.8610 C   0  0  0  0  0  3  0  0  0  0  0  0
  -26.4040  -31.7250   25.1490 C   0  0  1  0  0  0  0  0  0  0  0  0
  -25.3040  -31.5090   26.2160 C   0  0  0  0  0  1  0  0  0  0  0  0
  -26.9710  -30.3370   24.7720 C   0  0  0  0  0  1  0  0  0  0  0  0
  -27.5590  -32.5140   25.8090 C   0  0  0  0  0  1  0  0  0  0  0  0
  -25.5970  -33.8890   24.1860 N   0  0  0  0  0  0  0  0  0  0  0  0
  -25.9320  -34.9400   23.4260 C   0  0  0  0  0  0  0  0  0  0  0  0
  -26.5970  -34.8310   22.3920 O   0  0  0  0  0  0  0  0  0  0  0  0
  -25.0200  -34.0510   24.9980 H   0  0  0  0  0  0  0  0  0  0  0  0
  -24.2150  -36.7470   23.0770 C   0  0  0  0  0  1  0  0  0  0  0  0
  -25.4560  -36.3320   23.8850 C   0  0  0  0  0  3  0  0  0  0  0  0
  -27.5970  -37.2030   24.7140 C   0  0  0  0  0  1  0  0  0  0  0  0
  -26.4940  -37.3800   23.7720 N   0  0  0  0  0  0  0  0  0  0  0  0
  -26.0920  -38.3010   23.9260 H   0  0  0  0  0  0  0  0  0  0  0  0
  1  3  2  0
  2  4  2  0
  2  1  1  0
  3  8  1  0
  4  7  1  0
  5  2  1  0
  6  4  1  0
  7  3  1  0
  7 47  1  0
  9 17  1  0
 10 15  1  0
 11 12  1  0
 11 10  1  0
 13 12  1  0
 13 22  1  0
 13 14  1  0
 15  9  1  0
 15 14  1  0
 16  9  2  0
 17  8  1  0
 18 17  1  0
 19 20  2  0
 20 39  1  0
 21 20  1  0
 21 24  1  0
 22 19  1  0
 22 23  1  0
 23 21  2  0
 24 25  1  0
 25 26  2  0
 27 30  1  0
 27 26  1  0
 28 27  2  0
 29 28  1  0
 29 24  2  0
 30 31  1  0
 31 32  1  0
 32 33  2  0
 34 33  1  0
 34 38  1  0
 35 34  2  0
 36 31  2  0
 36 35  1  0
 37 36  1  0
 39 40  1  0
 40 43  1  0
 40 42  1  0
 41 39  2  0
 44 45  1  0
 44 19  1  0
 46 44  1  0
 48 47  1  0
 48 50  1  0
 50 49  1  0
 51 50  1  0
 52 63  2  0
 53 51  1  0
 53 58  1  0
 54 62  1  0
 54 64  1  0
 55 61  1  0
 55 57  1  0
 56 62  1  0
 57 58  2  0
 57 56  1  0
 59 53  2  0
 60 59  1  0
 60 55  2  0
 61 54  1  0
 62 52  1  0
 64 66  2  0
 65 64  1  0
 67 65  1  0
 68 77  2  0
 68 73  1  0
 69 65  1  0
 69 73  1  0
 70 69  1  0
 71 72  1  0
 71 70  1  0
 72 68  1  0
 73 74  2  0
 74 75  1  0
 76 75  2  0
 77 76  1  0
 78 52  1  0
 78 83  1  0
 78 79  1  0
 79 82  1  1
 79 80  1  0
 81 79  1  0
 83 86  1  0
 84 88  1  0
 84 83  1  0
 85 84  2  0
 88 87  1  0
 90 88  1  0
 90 91  1  0
 90 89  1  0
M  ISO  4   9 100  17 100  50 101  51 101
M  END
>  <TORSDO>  (34) 
F 20

>  <SCORE>  (34) 
-14.782

>  <name>  (34) 
34

>  <ligand_id>  (34) 
34

>  <original_smiles>  (34) 
[H]c1c([H])c([H])c2c(c1[H])C([H])([H])C([H])([H])C([H])([H])C2([H])N([H])C(=O)C1([H])N(C(=O)C([H])(N([H])C(=O)C([H])(N([H])C([H])([H])[H])C([H])([H])[H])C(C([H])([H])[H])(C([H])([H])[H])C([H])([H])[H])C([H])([H])c2c([H])c(OC([H])(C([H])([H])[H])C([H])([H])C([H])([H])n3c(C([H])([H])[H])c(C([H])([H])[H])c([H])c3C([H])([H])N([H])C(=O)N3C([H])([H])C([H])([H])C([H])([H])C([H])(n4nc(-c5c([H])c([H])c(Oc6c([H])c([H])c(F)c([H])c6F)c([H])c5[H])c(C(=O)N([H])[H])c4N([H])[H])C3([H])[H])c([H])c([H])c2C1([H])[H]

>  <smiles>  (34) 
[H]c1c([H])c([H])c2c(c1[H])C([H])([H])C([H])([H])C([H])([H])C2([H])N([H])C(=O)C1([H])N(C(=O)C([H])(N([H])C(=O)C([H])(N([H])C([H])([H])[H])C([H])([H])[H])C(C([H])([H])[H])(C([H])([H])[H])C([H])([H])[H])C([H])([H])c2c([H])c(OC([H])(C([H])([H])[H])C([H])([H])C([H])([H])n3c(C([H])([H])[H])c(C([H])([H])[H])c([H])c3C([H])([H])N([H])C(=O)N3C([H])([H])C([H])([H])C([H])([H])C([H])(n4nc(-c5c([H])c([H])c(Oc6c([H])c([H])c(F)c([H])c6F)c([H])c5[H])c(C(=O)N([H])[H])c4N([H])[H])C3([H])[H])c([H])c([H])c2C1([H])[H]

$$$$
35:0:0
     RDKit          3D

 97105  0  0  1  0  0  0  0  0999 V2000
  -29.8220  -20.7080   20.7020 C   0  0  0  0  0  3  0  0  0  0  0  0
  -29.9940  -19.3810   21.0090 C   0  0  0  0  0  0  0  0  0  0  0  0
  -30.5370  -20.5970   22.8020 C   0  0  0  0  0  3  0  0  0  0  0  0
  -30.1730  -21.4340   21.8130 N   0  0  0  0  0  0  0  0  0  0  0  0
  -30.4190  -19.3570   22.3120 N   0  0  0  0  0  0  0  0  0  0  0  0
  -30.6270  -18.5210   22.8450 H   0  0  0  0  0  0  0  0  0  0  0  0
  -32.5220  -21.1070   24.2580 C   0  0  0  0  0  1  0  0  0  0  0  0
  -30.5160  -19.8590   25.2000 C   0  0  0  0  0  1  0  0  0  0  0  0
  -30.9980  -20.9200   24.1970 C   0  0  0  0  0  3  0  0  0  0  0  0
  -29.8210  -18.1510   20.1760 C   0  0  0  0  0  2  0  0  0  0  0  0
  -31.1780  -17.5030   19.8440 C   0  0  0  0  0  2  0  0  0  0  0  0
  -31.6680  -16.4400   20.8510 C   0  0  0  0  0  2  0  0  0  0  0  0
  -31.5340  -14.1170   19.9520 C   0  0  0  0  0  0  0  0  0  0  0  0
  -31.0460  -11.9170   18.9540 C   0  0  0  0  0  2  0  0  0  0  0  0
  -30.0740  -12.0740   17.7690 C   0  0  0  0  0  2  0  0  0  0  0  0
  -28.6130  -12.0640   18.2550 C   0  0  0  0  0  2  0  0  0  0  0  0
  -28.3690  -13.0270   19.4480 C   0  0  0  0  0  3  0  0  0  0  0  0
  -29.4430  -12.8300   20.5390 C   0  0  0  0  0  2  0  0  0  0  0  0
  -30.7680  -12.9950   19.9140 N   0  0  0  0  0  0  0  0  0  0  0  0
  -32.5950  -14.2350   19.3310 O   0  0  0  0  0  0  0  0  0  0  0  0
  -31.0350  -15.1310   20.6720 N   0  0  0  0  0  0  0  0  0  0  0  0
  -30.1720  -14.9530   21.1630 H   0  0  0  0  0  0  0  0  0  0  0  0
  -26.0720  -13.8470   20.2710 C   0  0  0  0  0  0  0  0  0  0  0  0
  -24.9550  -13.1720   20.6880 C   0  0  0  0  0  0  0  0  0  0  0  0
  -25.2860  -11.7830   20.6210 C   0  0  0  0  0  0  0  0  0  0  0  0
  -27.0180  -12.8760   19.9840 N   0  0  0  0  0  0  0  0  0  0  0  0
  -26.5490  -11.6290   20.2480 N   0  0  0  0  0  0  0  0  0  0  0  0
  -24.4570  -10.5910   20.8350 C   0  0  0  0  0  0  0  0  0  0  0  0
  -24.7900   -9.6250   21.8090 C   0  0  0  0  0  3  0  0  0  0  0  0
  -23.9670   -8.4950   22.0070 C   0  0  0  0  0  3  0  0  0  0  0  0
  -22.7950   -8.3250   21.2320 C   0  0  0  0  0  0  0  0  0  0  0  0
  -22.4810   -9.2790   20.2480 C   0  0  0  0  0  3  0  0  0  0  0  0
  -23.3040  -10.3990   20.0470 C   0  0  0  0  0  3  0  0  0  0  0  0
  -21.9490   -7.2480   21.3380 O   0  0  0  0  0  0  0  0  0  0  0  0
  -21.7450   -6.6090   22.5350 C   0  0  0  0  0  0  0  0  0  0  0  0
  -21.2340   -7.2850   23.6630 C   0  0  0  0  0  3  0  0  0  0  0  0
  -20.9740   -6.5760   24.8530 C   0  0  0  0  0  3  0  0  0  0  0  0
  -21.2140   -5.1900   24.9120 C   0  0  0  0  0  0  0  0  0  0  0  0
  -21.7180   -4.5130   23.7870 C   0  0  0  0  0  3  0  0  0  0  0  0
  -21.9790   -5.2210   22.6010 C   0  0  0  0  0  0  0  0  0  0  0  0
  -22.4440   -4.5590   21.5140 F   0  0  0  0  0  0  0  0  0  0  0  0
  -20.9570   -4.5050   26.0510 F   0  0  0  0  0  0  0  0  0  0  0  0
  -23.6230  -13.7730   21.0320 C   0  0  0  0  0  0  0  0  0  0  0  0
  -22.8790  -13.1360   21.9290 N   0  0  0  0  0  0  0  0  0  0  0  0
  -23.2550  -14.8380   20.5380 O   0  0  0  0  0  0  0  0  0  0  0  0
  -23.1880  -12.2720   22.3460 H   0  0  0  0  0  0  0  0  0  0  0  0
  -21.9850  -13.5200   22.2030 H   0  0  0  0  0  0  0  0  0  0  0  0
  -26.3540  -15.1980   20.0920 N   0  0  0  0  0  0  0  0  0  0  0  0
  -25.6400  -15.9110   20.1970 H   0  0  0  0  0  0  0  0  0  0  0  0
  -27.1920  -15.5410   19.6400 H   0  0  0  0  0  0  0  0  0  0  0  0
  -30.1910  -22.9020   21.9110 C   0  0  0  0  0  2  0  0  0  0  0  0
  -28.8120  -23.5220   22.2050 C   0  0  0  0  0  2  0  0  0  0  0  0
  -26.4350  -23.9880   21.4760 C   0  0  0  0  0  1  0  0  0  0  0  0
  -27.8510  -23.6290   20.9960 C   0  0  0  0  0  3  0  0  0  0  0  0
  -28.3410  -24.5720   19.8630 C   0  0  0  0  0  2  0  0  0  0  0  0
  -28.7210  -26.0110   20.2870 C   0  0  0  0  0  2  0  0  0  0  0  0
  -28.5440  -26.9730   19.2410 O   0  0  0  0  0  0  0  0  0  0  0  0
  -24.5940  -31.5360   22.9760 C   0  0  0  0  0  0  0  0  0  0  0  0
  -27.3470  -27.6350   19.3390 C   0  0  0  0  0  0  0  0  0  0  0  0
  -23.3850  -30.1750   21.3000 C   0  0  0  0  0  3  0  0  0  0  0  0
  -24.8490  -28.9020   19.6440 C   0  0  0  0  0  0  0  0  0  0  0  0
  -25.8480  -30.7760   20.9630 C   0  0  0  0  0  2  0  0  0  0  0  0
  -25.9980  -29.4770   20.2020 C   0  0  0  0  0  0  0  0  0  0  0  0
  -27.2530  -28.8480   20.0530 C   0  0  0  0  0  3  0  0  0  0  0  0
  -26.1890  -27.0800   18.7600 C   0  0  0  0  0  3  0  0  0  0  0  0
  -24.9370  -27.6990   18.9230 C   0  0  0  0  0  3  0  0  0  0  0  0
  -23.5440  -29.6340   19.8540 C   0  0  0  0  0  2  0  0  0  0  0  0
  -24.6310  -30.8390   21.8050 N   0  0  0  0  0  0  0  0  0  0  0  0
  -23.5360  -31.6670   23.6090 O   0  0  0  0  0  0  0  0  0  0  0  0
  -22.8930  -29.0250   22.2050 C   0  0  0  0  0  0  0  0  0  0  0  0
  -21.6020  -28.6750   22.0760 N   0  0  0  0  0  0  0  0  0  0  0  0
  -23.6660  -28.4520   22.9780 O   0  0  0  0  0  0  0  0  0  0  0  0
  -21.0330  -29.2020   21.4290 H   0  0  0  0  0  0  0  0  0  0  0  0
  -18.4520  -26.9450   22.4370 C   0  0  0  0  0  0  0  0  0  0  0  0
  -20.9260  -27.5970   22.7960 C   0  0  0  0  0  3  0  0  0  0  0  0
  -21.2720  -26.2190   22.1870 C   0  0  0  0  0  2  0  0  0  0  0  0
  -20.2640  -25.7560   21.1320 C   0  0  0  0  0  2  0  0  0  0  0  0
  -18.8590  -25.6610   21.7340 C   0  0  0  0  0  2  0  0  0  0  0  0
  -19.4220  -27.8620   22.9200 C   0  0  0  0  0  0  0  0  0  0  0  0
  -18.9890  -29.0570   23.5360 C   0  0  0  0  0  3  0  0  0  0  0  0
  -17.6180  -29.3410   23.6700 C   0  0  0  0  0  3  0  0  0  0  0  0
  -16.6610  -28.4230   23.2030 C   0  0  0  0  0  3  0  0  0  0  0  0
  -17.0780  -27.2270   22.5930 C   0  0  0  0  0  3  0  0  0  0  0  0
  -25.8680  -32.2210   23.5630 C   0  0  0  0  0  3  0  0  0  0  0  0
  -26.5360  -31.3980   24.7320 C   0  0  1  0  0  0  0  0  0  0  0  0
  -25.5430  -30.9850   25.8440 C   0  0  0  0  0  1  0  0  0  0  0  0
  -27.1940  -30.1100   24.1830 C   0  0  0  0  0  1  0  0  0  0  0  0
  -27.6660  -32.2300   25.3810 C   0  0  0  0  0  1  0  0  0  0  0  0
  -25.4780  -33.5580   24.0250 N   0  0  0  0  0  0  0  0  0  0  0  0
  -25.7090  -34.6930   23.3510 C   0  0  0  0  0  0  0  0  0  0  0  0
  -26.3470  -34.7270   22.2950 O   0  0  0  0  0  0  0  0  0  0  0  0
  -24.9040  -33.6020   24.8550 H   0  0  0  0  0  0  0  0  0  0  0  0
  -23.8570  -36.3850   23.2010 C   0  0  0  0  0  1  0  0  0  0  0  0
  -25.1460  -35.9980   23.9440 C   0  0  0  0  0  3  0  0  0  0  0  0
  -27.2380  -36.9500   24.8060 C   0  0  0  0  0  1  0  0  0  0  0  0
  -26.1040  -37.1240   23.9020 N   0  0  0  0  0  0  0  0  0  0  0  0
  -25.6430  -37.9980   24.1390 H   0  0  0  0  0  0  0  0  0  0  0  0
  1  2  2  0
  1  4  1  0
  2  5  1  0
  3  9  1  0
  4 51  1  0
  4  3  1  0
  5  3  1  0
  5  6  1  0
  9  7  1  0
  9  8  1  0
 10  2  1  0
 11 10  1  0
 11 12  1  0
 13 21  1  0
 14 19  1  0
 15 16  1  0
 15 14  1  0
 17 16  1  0
 17 26  1  0
 17 18  1  0
 19 13  1  0
 19 18  1  0
 20 13  2  0
 21 12  1  0
 21 22  1  0
 23 24  2  0
 24 43  1  0
 25 24  1  0
 25 28  1  0
 26 27  1  0
 26 23  1  0
 27 25  2  0
 28 29  1  0
 29 30  2  0
 31 34  1  0
 31 30  1  0
 32 31  2  0
 33 32  1  0
 33 28  2  0
 34 35  1  0
 35 40  2  0
 35 36  1  0
 36 37  2  0
 37 38  1  0
 38 42  1  0
 39 38  2  0
 40 39  1  0
 41 40  1  0
 43 44  1  0
 44 47  1  0
 44 46  1  0
 45 43  2  0
 48 49  1  0
 48 23  1  0
 50 48  1  0
 51 52  1  0
 54 53  1  0
 54 52  1  0
 55 56  1  0
 55 54  1  0
 57 59  1  0
 57 56  1  0
 58 69  2  0
 59 64  1  0
 60 68  1  0
 60 70  1  0
 61 67  1  0
 61 63  1  0
 62 68  1  0
 63 62  1  0
 64 63  2  0
 65 66  1  0
 65 59  2  0
 66 61  2  0
 67 60  1  0
 68 58  1  0
 70 72  2  0
 71 70  1  0
 73 71  1  0
 74 83  2  0
 74 79  1  0
 75 71  1  0
 75 79  1  0
 76 75  1  0
 77 78  1  0
 77 76  1  0
 78 74  1  0
 79 80  2  0
 80 81  1  0
 82 81  2  0
 83 82  1  0
 84 58  1  0
 84 89  1  0
 84 85  1  0
 85 88  1  1
 85 86  1  0
 87 85  1  0
 89 92  1  0
 90 94  1  0
 90 89  1  0
 91 90  2  0
 94 93  1  0
 96 94  1  0
 96 97  1  0
 96 95  1  0
M  ISO  4  13 100  21 100  56 101  57 101
M  END
>  <TORSDO>  (35) 
F 25

>  <SCORE>  (35) 
-9.733

>  <name>  (35) 
35

>  <ligand_id>  (35) 
35

>  <original_smiles>  (35) 
[H]c1c([H])c([H])c2c(c1[H])C([H])([H])C([H])([H])C([H])([H])C2([H])N([H])C(=O)C1([H])N(C(=O)C([H])(N([H])C(=O)C([H])(N([H])C([H])([H])[H])C([H])([H])[H])C(C([H])([H])[H])(C([H])([H])[H])C([H])([H])[H])C([H])([H])c2c([H])c(OC([H])([H])C([H])([H])C([H])(C([H])([H])[H])C([H])([H])C([H])([H])n3c([H])c(C([H])([H])C([H])([H])C([H])([H])N([H])C(=O)N4C([H])([H])C([H])([H])C([H])([H])C([H])(n5nc(-c6c([H])c([H])c(Oc7c([H])c([H])c(F)c([H])c7F)c([H])c6[H])c(C(=O)N([H])[H])c5N([H])[H])C4([H])[H])[n+]([H])c3C([H])(C([H])([H])[H])C([H])([H])[H])c([H])c([H])c2C1([H])[H]

>  <smiles>  (35) 
[H]c1c([H])c([H])c2c(c1[H])C([H])([H])C([H])([H])C([H])([H])C2([H])N([H])C(=O)C1([H])N(C(=O)C([H])(N([H])C(=O)C([H])(N([H])C([H])([H])[H])C([H])([H])[H])C(C([H])([H])[H])(C([H])([H])[H])C([H])([H])[H])C([H])([H])c2c([H])c(OC([H])([H])C([H])([H])C([H])(C([H])([H])[H])C([H])([H])C([H])([H])n3c([H])c(C([H])([H])C([H])([H])C([H])([H])N([H])C(=O)N4C([H])([H])C([H])([H])C([H])([H])C([H])(n5nc(-c6c([H])c([H])c(Oc7c([H])c([H])c(F)c([H])c7F)c([H])c6[H])c(C(=O)N([H])[H])c5N([H])[H])C4([H])[H])[n+]([H])c3C([H])(C([H])([H])[H])C([H])([H])[H])c([H])c([H])c2C1([H])[H]

$$$$
36:0:0
     RDKit          3D

 89 96  0  0  1  0  0  0  0  0999 V2000
  -30.1120  -21.8560   21.0730 C   0  0  0  0  0  3  0  0  0  0  0  0
  -29.0290  -22.7850   20.4630 C   0  0  0  0  0  2  0  0  0  0  0  0
  -29.3190  -24.3120   20.6080 C   0  0  0  0  0  2  0  0  0  0  0  0
  -28.1660  -25.2010   20.0770 C   0  0  0  0  0  2  0  0  0  0  0  0
  -28.3420  -26.6270   20.2520 O   0  0  0  0  0  0  0  0  0  0  0  0
  -24.5680  -31.9060   23.2350 C   0  0  0  0  0  0  0  0  0  0  0  0
  -27.1930  -27.4050   20.1920 C   0  0  0  0  0  0  0  0  0  0  0  0
  -23.3640  -30.5040   21.5950 C   0  0  0  0  0  3  0  0  0  0  0  0
  -24.8140  -28.9580   20.1790 C   0  0  0  0  0  0  0  0  0  0  0  0
  -25.8960  -30.8390   21.4120 C   0  0  0  0  0  2  0  0  0  0  0  0
  -25.9760  -29.4650   20.7740 C   0  0  0  0  0  0  0  0  0  0  0  0
  -27.1690  -28.6970   20.7770 C   0  0  0  0  0  3  0  0  0  0  0  0
  -26.0090  -26.9330   19.5720 C   0  0  0  0  0  3  0  0  0  0  0  0
  -24.8280  -27.6930   19.5730 C   0  0  0  0  0  3  0  0  0  0  0  0
  -23.5760  -29.8250   20.2170 C   0  0  0  0  0  2  0  0  0  0  0  0
  -24.6280  -31.0990   22.1380 N   0  0  0  0  0  0  0  0  0  0  0  0
  -23.4850  -32.1880   23.7660 O   0  0  0  0  0  0  0  0  0  0  0  0
  -22.7020  -29.4880   22.5540 C   0  0  0  0  0  0  0  0  0  0  0  0
  -21.3770  -29.3110   22.4190 N   0  0  0  0  0  0  0  0  0  0  0  0
  -23.3770  -28.8630   23.3770 O   0  0  0  0  0  0  0  0  0  0  0  0
  -20.8950  -29.8660   21.7260 H   0  0  0  0  0  0  0  0  0  0  0  0
  -17.9940  -28.1300   22.8950 C   0  0  0  0  0  0  0  0  0  0  0  0
  -20.5500  -28.3810   23.1880 C   0  0  0  0  0  3  0  0  0  0  0  0
  -20.6530  -26.9460   22.6230 C   0  0  0  0  0  2  0  0  0  0  0  0
  -19.5590  -26.6200   21.6020 C   0  0  0  0  0  2  0  0  0  0  0  0
  -18.1720  -26.7740   22.2320 C   0  0  0  0  0  2  0  0  0  0  0  0
  -19.1120  -28.8910   23.3300 C   0  0  0  0  0  0  0  0  0  0  0  0
  -18.8930  -30.1610   23.9100 C   0  0  0  0  0  3  0  0  0  0  0  0
  -17.5880  -30.6680   24.0570 C   0  0  0  0  0  3  0  0  0  0  0  0
  -16.4850  -29.9040   23.6400 C   0  0  0  0  0  3  0  0  0  0  0  0
  -16.6890  -28.6370   23.0650 C   0  0  0  0  0  3  0  0  0  0  0  0
  -25.8540  -32.5340   23.8580 C   0  0  0  0  0  3  0  0  0  0  0  0
  -25.5480  -33.9320   24.1890 N   0  0  0  0  0  0  0  0  0  0  0  0
  -25.8930  -34.9840   23.4360 C   0  0  0  0  0  0  0  0  0  0  0  0
  -26.5740  -34.8810   22.4120 O   0  0  0  0  0  0  0  0  0  0  0  0
  -24.9470  -34.0860   24.9860 H   0  0  0  0  0  0  0  0  0  0  0  0
  -24.1840  -36.7890   23.0540 C   0  0  0  0  0  1  0  0  0  0  0  0
  -25.4050  -36.3730   23.8890 C   0  0  0  0  0  3  0  0  0  0  0  0
  -27.5280  -37.2370   24.7690 C   0  0  0  0  0  1  0  0  0  0  0  0
  -26.4470  -37.4190   23.8050 N   0  0  0  0  0  0  0  0  0  0  0  0
  -26.0450  -38.3420   23.9500 H   0  0  0  0  0  0  0  0  0  0  0  0
  -26.3690  -31.7570   25.1320 C   0  0  1  0  0  0  0  0  0  0  0  0
  -25.2740  -31.5180   26.1980 C   0  0  0  0  0  1  0  0  0  0  0  0
  -26.9510  -30.3800   24.7340 C   0  0  0  0  0  1  0  0  0  0  0  0
  -27.5200  -32.5490   25.7970 C   0  0  0  0  0  1  0  0  0  0  0  0
  -29.7960  -20.3220   21.0160 C   0  0  0  0  0  3  0  0  0  0  0  0
  -32.1990  -19.4760   20.8460 C   0  0  0  0  0  1  0  0  0  0  0  0
  -31.1580  -19.7870   23.0920 C   0  0  0  0  0  1  0  0  0  0  0  0
  -30.8760  -19.3620   21.6320 C   0  0  1  0  0  0  0  0  0  0  0  0
  -30.4080  -17.8600   21.6980 C   0  0  0  0  0  2  0  0  0  0  0  0
  -30.4560  -17.0030   20.4050 C   0  0  0  0  0  2  0  0  0  0  0  0
  -30.7920  -14.5190   20.1610 C   0  0  0  0  0  0  0  0  0  0  0  0
  -30.4250  -12.3650   19.0190 C   0  0  0  0  0  2  0  0  0  0  0  0
  -29.4530  -12.5970   17.8450 C   0  0  0  0  0  2  0  0  0  0  0  0
  -27.9910  -12.4720   18.3190 C   0  0  0  0  0  2  0  0  0  0  0  0
  -27.7040  -13.3000   19.6010 C   0  0  0  0  0  3  0  0  0  0  0  0
  -28.7920  -13.0650   20.6750 C   0  0  0  0  0  2  0  0  0  0  0  0
  -30.1000  -13.3500   20.0650 N   0  0  0  0  0  0  0  0  0  0  0  0
  -31.9170  -14.6620   19.6750 O   0  0  0  0  0  0  0  0  0  0  0  0
  -30.1010  -15.5810   20.6270 N   0  0  0  0  0  0  0  0  0  0  0  0
  -29.1800  -15.3870   20.9890 H   0  0  0  0  0  0  0  0  0  0  0  0
  -25.3300  -13.9240   20.3730 C   0  0  0  0  0  0  0  0  0  0  0  0
  -24.2680  -13.1600   20.7750 C   0  0  0  0  0  0  0  0  0  0  0  0
  -24.7180  -11.8060   20.7350 C   0  0  0  0  0  0  0  0  0  0  0  0
  -26.3630  -13.0350   20.1180 N   0  0  0  0  0  0  0  0  0  0  0  0
  -25.9990  -11.7560   20.3930 N   0  0  0  0  0  0  0  0  0  0  0  0
  -23.9890  -10.5480   20.9490 C   0  0  0  0  0  0  0  0  0  0  0  0
  -24.4340   -9.5850   21.8800 C   0  0  0  0  0  3  0  0  0  0  0  0
  -23.7060   -8.3940   22.0810 C   0  0  0  0  0  3  0  0  0  0  0  0
  -22.5170   -8.1560   21.3500 C   0  0  0  0  0  0  0  0  0  0  0  0
  -22.0910   -9.1080   20.4070 C   0  0  0  0  0  3  0  0  0  0  0  0
  -22.8190  -10.2910   20.2050 C   0  0  0  0  0  3  0  0  0  0  0  0
  -21.7590   -7.0160   21.4610 O   0  0  0  0  0  0  0  0  0  0  0  0
  -21.7190   -6.2880   22.6230 C   0  0  0  0  0  0  0  0  0  0  0  0
  -21.3060   -6.8610   23.8470 C   0  0  0  0  0  3  0  0  0  0  0  0
  -21.2130   -6.0590   25.0020 C   0  0  0  0  0  3  0  0  0  0  0  0
  -21.5200   -4.6870   24.9350 C   0  0  0  0  0  0  0  0  0  0  0  0
  -21.9240   -4.1140   23.7160 C   0  0  0  0  0  3  0  0  0  0  0  0
  -22.0190   -4.9120   22.5630 C   0  0  0  0  0  0  0  0  0  0  0  0
  -22.3890   -4.3510   21.3870 F   0  0  0  0  0  0  0  0  0  0  0  0
  -21.4220   -3.9160   26.0440 F   0  0  0  0  0  0  0  0  0  0  0  0
  -22.8810  -13.6480   21.0830 C   0  0  0  0  0  0  0  0  0  0  0  0
  -22.1730  -12.9600   21.9730 N   0  0  0  0  0  0  0  0  0  0  0  0
  -22.4350  -14.6740   20.5720 O   0  0  0  0  0  0  0  0  0  0  0  0
  -22.5480  -12.1300   22.4070 H   0  0  0  0  0  0  0  0  0  0  0  0
  -21.2440  -13.2680   22.2220 H   0  0  0  0  0  0  0  0  0  0  0  0
  -25.4990  -15.2920   20.1860 N   0  0  0  0  0  0  0  0  0  0  0  0
  -24.7390  -15.9520   20.3100 H   0  0  0  0  0  0  0  0  0  0  0  0
  -26.3420  -15.7250   19.8280 H   0  0  0  0  0  0  0  0  0  0  0  0
  2  3  1  0
  2  1  1  0
  4  5  1  0
  4  3  1  0
  6 17  2  0
  7  5  1  0
  7 12  1  0
  8 16  1  0
  8 18  1  0
  9 15  1  0
  9 11  1  0
 10 16  1  0
 11 12  2  0
 11 10  1  0
 13 14  1  0
 13  7  2  0
 14  9  2  0
 15  8  1  0
 16  6  1  0
 18 20  2  0
 19 18  1  0
 21 19  1  0
 22 31  2  0
 22 27  1  0
 23 19  1  0
 23 27  1  0
 24 23  1  0
 25 26  1  0
 25 24  1  0
 26 22  1  0
 27 28  2  0
 28 29  1  0
 30 29  2  0
 31 30  1  0
 32  6  1  0
 32 33  1  0
 32 42  1  0
 33 36  1  0
 34 38  1  0
 34 33  1  0
 35 34  2  0
 38 37  1  0
 40 38  1  0
 40 41  1  0
 40 39  1  0
 42 45  1  1
 42 43  1  0
 44 42  1  0
 46  1  2  0
 46 49  1  0
 49 47  1  6
 49 50  1  0
 49 48  1  0
 51 60  1  0
 51 50  1  0
 52 60  1  0
 53 58  1  0
 54 55  1  0
 54 53  1  0
 56 55  1  0
 56 65  1  0
 56 57  1  0
 58 52  1  0
 58 57  1  0
 59 52  2  0
 60 61  1  0
 62 63  2  0
 63 82  1  0
 64 63  1  0
 64 67  1  0
 65 62  1  0
 65 66  1  0
 66 64  2  0
 67 68  1  0
 68 69  2  0
 70 73  1  0
 70 69  1  0
 71 70  2  0
 72 71  1  0
 72 67  2  0
 73 74  1  0
 74 75  1  0
 75 76  2  0
 77 76  1  0
 77 81  1  0
 78 77  2  0
 79 74  2  0
 79 78  1  0
 80 79  1  0
 82 83  1  0
 83 86  1  0
 83 85  1  0
 84 82  2  0
 87 88  1  0
 87 62  1  0
 89 87  1  0
M  ISO  4   4 101   5 101  52 100  60 100
M  END
>  <TORSDO>  (36) 
F 23

>  <SCORE>  (36) 
-12.734

>  <name>  (36) 
36

>  <ligand_id>  (36) 
36

>  <original_smiles>  (36) 
[H]c1c([H])c([H])c2c(c1[H])C([H])([H])C([H])([H])C([H])([H])C2([H])N([H])C(=O)C1([H])N(C(=O)C([H])(N([H])C(=O)C([H])(N([H])C([H])([H])[H])C([H])([H])[H])C(C([H])([H])[H])(C([H])([H])[H])C([H])([H])[H])C([H])([H])c2c([H])c(OC([H])([H])C([H])([H])C([H])([H])C([H])([H])C([H])([H])C(C([H])([H])[H])(C([H])([H])[H])C([H])([H])C([H])([H])N([H])C(=O)N3C([H])([H])C([H])([H])C([H])([H])C([H])(n4nc(-c5c([H])c([H])c(Oc6c([H])c([H])c(F)c([H])c6F)c([H])c5[H])c(C(=O)N([H])[H])c4N([H])[H])C3([H])[H])c([H])c([H])c2C1([H])[H]

>  <smiles>  (36) 
[H]c1c([H])c([H])c2c(c1[H])C([H])([H])C([H])([H])C([H])([H])C2([H])N([H])C(=O)C1([H])N(C(=O)C([H])(N([H])C(=O)C([H])(N([H])C([H])([H])[H])C([H])([H])[H])C(C([H])([H])[H])(C([H])([H])[H])C([H])([H])[H])C([H])([H])c2c([H])c(OC([H])([H])C([H])([H])C([H])([H])C([H])([H])C([H])([H])C(C([H])([H])[H])(C([H])([H])[H])C([H])([H])C([H])([H])N([H])C(=O)N3C([H])([H])C([H])([H])C([H])([H])C([H])(n4nc(-c5c([H])c([H])c(Oc6c([H])c([H])c(F)c([H])c6F)c([H])c5[H])c(C(=O)N([H])[H])c4N([H])[H])C3([H])[H])c([H])c([H])c2C1([H])[H]

$$$$
37:0:0
     RDKit          3D

 94101  0  0  1  0  0  0  0  0999 V2000
  -27.4190  -24.0020   20.9610 C   0  0  1  0  0  0  0  0  0  0  0  0
  -25.7040  -24.0690   20.2390 C   0  0  0  0  0  3  0  0  0  0  0  0
  -26.3140  -25.3490   20.5480 C   0  0  0  0  0  2  0  0  0  0  0  0
  -27.5210  -22.3350   20.7940 C   0  0  0  0  0  2  0  0  0  0  0  0
  -26.5190  -22.8460   19.8880 N   0  0  2  0  0  4  0  0  0  0  0  0
  -26.3200  -29.7440   18.5650 C   0  0  0  0  0  1  0  0  0  0  0  0
  -26.2540  -28.1500   18.4130 C   0  0  0  0  0  2  0  0  0  0  0  0
  -26.6280  -27.4770   15.7490 C   0  0  0  0  0  1  0  0  0  0  0  0
  -27.1950  -28.1030   17.0410 C   0  0  0  0  0  2  0  0  0  0  0  0
  -28.6040  -20.3230   20.9040 C   0  0  0  0  0 15  0  0  0  0  0  0
  -29.7670  -16.6300   20.9910 C   0  0  0  0  0  0  0  0  0  0  0  0
  -30.4840  -13.8600   20.3960 C   0  0  0  0  0  2  0  0  0  0  0  0
  -29.9580  -12.8840   19.2530 C   0  0  0  0  0  2  0  0  0  0  0  0
  -28.6140  -12.2510   19.6120 C   0  0  0  0  0  2  0  0  0  0  0  0
  -27.7890  -13.2980   20.3670 C   0  0  0  0  0  3  0  0  0  0  0  0
  -28.5240  -14.0880   21.5050 C   0  0  0  0  0  2  0  0  0  0  0  0
  -29.5210  -15.0590   20.8930 N   0  0  0  0  0  0  0  0  0  0  0  0
  -31.0350  -16.5020   21.0240 O   0  0  0  0  0  0  0  0  0  0  0  0
  -28.8630  -18.1980   20.9210 N   0  0  0  0  0  2  0  0  0  0  0  0
  -27.9090  -17.8710   20.9810 H   0  0  0  0  0  0  0  0  0  0  0  0
  -25.3580  -13.6990   20.8190 C   0  0  0  0  0  0  0  0  0  0  0  0
  -24.2960  -12.8850   21.0580 C   0  0  0  0  0  0  0  0  0  0  0  0
  -24.8150  -11.5530   21.1200 C   0  0  0  0  0  0  0  0  0  0  0  0
  -26.4550  -12.8700   20.7390 N   0  0  0  0  0  0  0  0  0  0  0  0
  -26.1400  -11.5650   20.9720 N   0  0  0  0  0  0  0  0  0  0  0  0
  -24.1040  -10.2710   21.2470 C   0  0  0  0  0  0  0  0  0  0  0  0
  -24.4460   -9.3270   22.2390 C   0  0  0  0  0  3  0  0  0  0  0  0
  -23.7240   -8.1200   22.3560 C   0  0  0  0  0  3  0  0  0  0  0  0
  -22.6480   -7.8450   21.4770 C   0  0  0  0  0  0  0  0  0  0  0  0
  -22.3270   -8.7800   20.4760 C   0  0  0  0  0  3  0  0  0  0  0  0
  -23.0500   -9.9800   20.3580 C   0  0  0  0  0  3  0  0  0  0  0  0
  -21.9090   -6.6860   21.4980 O   0  0  0  0  0  0  0  0  0  0  0  0
  -21.7500   -5.9530   22.6470 C   0  0  0  0  0  0  0  0  0  0  0  0
  -21.1850   -6.5130   23.8150 C   0  0  0  0  0  3  0  0  0  0  0  0
  -20.9740   -5.7060   24.9510 C   0  0  0  0  0  3  0  0  0  0  0  0
  -21.3180   -4.3420   24.9210 C   0  0  0  0  0  0  0  0  0  0  0  0
  -21.8720   -3.7800   23.7560 C   0  0  0  0  0  3  0  0  0  0  0  0
  -22.0860   -4.5840   22.6230 C   0  0  0  0  0  0  0  0  0  0  0  0
  -22.6010   -4.0330   21.4980 F   0  0  0  0  0  0  0  0  0  0  0  0
  -21.1090   -3.5640   26.0100 F   0  0  0  0  0  0  0  0  0  0  0  0
  -22.8640  -13.3220   21.1210 C   0  0  0  0  0  0  0  0  0  0  0  0
  -22.0500  -12.6370   21.9140 N   0  0  0  0  0  0  0  0  0  0  0  0
  -22.4770  -14.3160   20.5080 O   0  0  0  0  0  0  0  0  0  0  0  0
  -22.3830  -11.8380   22.4320 H   0  0  0  0  0  0  0  0  0  0  0  0
  -21.0820  -12.9130   21.9980 H   0  0  0  0  0  0  0  0  0  0  0  0
  -25.4910  -15.0700   20.6240 N   0  0  0  0  0  0  0  0  0  0  0  0
  -24.6940  -15.6930   20.6110 H   0  0  0  0  0  0  0  0  0  0  0  0
  -26.3600  -15.5300   20.3840 H   0  0  0  0  0  0  0  0  0  0  0  0
  -26.4120  -22.2620   18.5630 C   0  0  0  0  0  2  0  0  0  0  0  0
  -27.0170  -23.1100   17.3810 C   0  0  0  0  0  2  0  0  0  0  0  0
  -28.3080  -24.0580   17.3390 C   0  0  0  0  0  2  0  0  0  0  0  0
  -30.3810  -25.3990   17.7090 C   0  0  0  0  0  1  0  0  0  0  0  0
  -29.1070  -24.8990   18.4350 C   0  0  0  0  0  3  0  0  0  0  0  0
  -28.8160  -26.1620   19.0980 O   0  0  0  0  0  0  0  0  0  0  0  0
  -24.4700  -31.4150   23.0040 C   0  0  0  0  0  0  0  0  0  0  0  0
  -27.5890  -26.6120   19.2760 C   0  0  0  0  0  0  0  0  0  0  0  0
  -23.2900  -29.8840   21.4110 C   0  0  0  0  0  3  0  0  0  0  0  0
  -24.6050  -27.7140   20.2550 C   0  0  0  0  0  0  0  0  0  0  0  0
  -25.7930  -29.6270   21.7430 C   0  0  0  0  0  2  0  0  0  0  0  0
  -25.8530  -28.1640   21.0180 C   0  0  0  0  0  0  0  0  0  0  0  0
  -27.2660  -27.5360   20.6350 C   0  0  0  0  0  3  0  0  0  0  0  0
  -26.1500  -26.1180   18.3380 C   0  0  0  0  0  3  0  0  0  0  0  0
  -24.6920  -26.6440   19.0570 C   0  0  0  0  0  3  0  0  0  0  0  0
  -23.4970  -28.8720   20.1990 C   0  0  0  0  0  2  0  0  0  0  0  0
  -24.5460  -30.4330   22.0150 N   0  0  0  0  0  0  0  0  0  0  0  0
  -23.3790  -31.8020   23.4580 O   0  0  0  0  0  0  0  0  0  0  0  0
  -22.5150  -29.0940   22.4680 C   0  0  0  0  0  0  0  0  0  0  0  0
  -21.1800  -29.0250   22.3470 N   0  0  0  0  0  0  0  0  0  0  0  0
  -23.1410  -28.4830   23.3330 O   0  0  0  0  0  0  0  0  0  0  0  0
  -20.7230  -29.5730   21.6290 H   0  0  0  0  0  0  0  0  0  0  0  0
  -17.7990  -27.8670   22.8880 C   0  0  0  0  0  0  0  0  0  0  0  0
  -20.3550  -28.1040   23.1210 C   0  0  0  0  0  3  0  0  0  0  0  0
  -20.4390  -26.6760   22.5330 C   0  0  0  0  0  2  0  0  0  0  0  0
  -19.3300  -26.3810   21.5200 C   0  0  0  0  0  2  0  0  0  0  0  0
  -17.9570  -26.5270   22.1860 C   0  0  0  0  0  2  0  0  0  0  0  0
  -18.9280  -28.6170   23.3090 C   0  0  0  0  0  0  0  0  0  0  0  0
  -18.7310  -29.8690   23.9270 C   0  0  0  0  0  3  0  0  0  0  0  0
  -17.4330  -30.3760   24.1240 C   0  0  0  0  0  3  0  0  0  0  0  0
  -16.3170  -29.6230   23.7230 C   0  0  0  0  0  3  0  0  0  0  0  0
  -16.5000  -28.3700   23.1110 C   0  0  0  0  0  3  0  0  0  0  0  0
  -25.7360  -32.1110   23.6410 C   0  0  0  0  0  3  0  0  0  0  0  0
  -25.3820  -33.5220   23.9830 N   0  0  0  0  0  0  0  0  0  0  0  0
  -25.7400  -34.6300   23.3190 C   0  0  0  0  0  0  0  0  0  0  0  0
  -26.4250  -34.5900   22.2960 O   0  0  0  0  0  0  0  0  0  0  0  0
  -24.7560  -33.6340   24.7660 H   0  0  0  0  0  0  0  0  0  0  0  0
  -23.9950  -36.4560   23.1260 C   0  0  0  0  0  1  0  0  0  0  0  0
  -25.2660  -36.0030   23.8650 C   0  0  0  0  0  3  0  0  0  0  0  0
  -27.4220  -36.8890   24.6620 C   0  0  0  0  0  1  0  0  0  0  0  0
  -26.2830  -37.0770   23.7680 N   0  0  0  0  0  0  0  0  0  0  0  0
  -25.8680  -37.9840   23.9690 H   0  0  0  0  0  0  0  0  0  0  0  0
  -26.3040  -31.4130   24.9550 C   0  0  1  0  0  0  0  0  0  0  0  0
  -25.2180  -31.1620   26.0240 C   0  0  0  0  0  1  0  0  0  0  0  0
  -26.9930  -30.0580   24.7040 C   0  0  0  0  0  1  0  0  0  0  0  0
  -27.4180  -32.2880   25.5790 C   0  0  0  0  0  1  0  0  0  0  0  0
  1  3  1  1
  2  3  1  0
  2  1  1  0
  4  1  1  0
  5 49  1  1
  5  2  1  0
  5  4  1  0
  5  1  1  0
  7  6  1  0
  8  9  1  0
  9  7  1  0
 11 18  2  0
 12 17  1  0
 13 14  1  0
 13 12  1  0
 15 14  1  0
 15 24  1  0
 15 16  1  0
 17 11  1  0
 17 16  1  0
 19 20  1  0
 19 11  1  0
 21 22  2  0
 22 23  1  0
 22 41  1  0
 23 26  1  0
 24 21  1  0
 24 25  1  0
 25 23  2  0
 26 27  1  0
 27 28  2  0
 29 32  1  0
 29 28  1  0
 30 29  2  0
 31 30  1  0
 31 26  2  0
 32 33  1  0
 33 34  1  0
 34 35  2  0
 36 35  1  0
 36 40  1  0
 37 36  2  0
 38 33  2  0
 38 37  1  0
 39 38  1  0
 41 42  1  0
 42 45  1  0
 42 44  1  0
 43 41  2  0
 46 21  1  0
 47 46  1  0
 48 46  1  0
 50 49  1  0
 51 50  1  0
 51 53  1  0
 53 52  1  0
 53 54  1  0
 54 56  1  0
 55 66  2  0
 56 61  1  0
 57 65  1  0
 57 67  1  0
 58 60  1  0
 59 65  1  0
 60 59  1  0
 61 60  2  0
 62 63  1  0
 62 56  2  0
 63 58  2  0
 64 58  1  0
 64 57  1  0
 65 55  1  0
 67 69  2  0
 68 67  1  0
 70 68  1  0
 71 80  2  0
 71 76  1  0
 72 68  1  0
 72 76  1  0
 73 72  1  0
 74 75  1  0
 74 73  1  0
 75 71  1  0
 76 77  2  0
 77 78  1  0
 79 78  2  0
 80 79  1  0
 81 55  1  0
 81 82  1  0
 81 91  1  0
 82 85  1  0
 83 87  1  0
 83 82  1  0
 84 83  2  0
 87 86  1  0
 89 87  1  0
 89 90  1  0
 89 88  1  0
 91 94  1  1
 91 92  1  0
 93 91  1  0
M  ISO  4  11 100  19 100  53 101  54 101
M  END
>  <TORSDO>  (37) 
F 23

>  <SCORE>  (37) 
-10.756

>  <name>  (37) 
37

>  <ligand_id>  (37) 
37

>  <original_smiles>  (37) 
[H]c1c([H])c([H])c2c(c1[H])C([H])([H])C([H])([H])C([H])([H])C2([H])N([H])C(=O)C1([H])N(C(=O)C([H])(N([H])C(=O)C([H])(N([H])C([H])([H])[H])C([H])([H])[H])C(C([H])([H])[H])(C([H])([H])[H])C([H])([H])[H])C([H])([H])c2c([H])c(OC([H])(C([H])([H])[H])C([H])([H])C([H])([H])C([H])([H])n3c([H])c(C([H])(C([H])([H])[H])C([H])([H])C([H])([H])[H])c([H])c3C([H])([H])N([H])C(=O)N3C([H])([H])C([H])([H])C([H])([H])C([H])(n4nc(-c5c([H])c([H])c(Oc6c([H])c([H])c(F)c([H])c6F)c([H])c5[H])c(C(=O)N([H])[H])c4N([H])[H])C3([H])[H])c([H])c([H])c2C1([H])[H]

>  <smiles>  (37) 
[H]c1c([H])c([H])c2c(c1[H])C([H])([H])C([H])([H])C([H])([H])C2([H])N([H])C(=O)C1([H])N(C(=O)C([H])(N([H])C(=O)C([H])(N([H])C([H])([H])[H])C([H])([H])[H])C(C([H])([H])[H])(C([H])([H])[H])C([H])([H])[H])C([H])([H])c2c([H])c(OC([H])(C([H])([H])[H])C([H])([H])C([H])([H])C([H])([H])n3c([H])c(C([H])(C([H])([H])[H])C([H])([H])C([H])([H])[H])c([H])c3C([H])([H])N([H])C(=O)N3C([H])([H])C([H])([H])C([H])([H])C([H])(n4nc(-c5c([H])c([H])c(Oc6c([H])c([H])c(F)c([H])c6F)c([H])c5[H])c(C(=O)N([H])[H])c4N([H])[H])C3([H])[H])c([H])c([H])c2C1([H])[H]

$$$$
38:0:0
     RDKit          3D

 92100  0  0  1  0  0  0  0  0999 V2000
  -30.0850  -20.1200   19.8930 C   0  0  0  0  0  3  0  0  0  0  0  0
  -27.5630  -19.2160   19.4870 C   0  0  0  0  0  3  0  0  0  0  0  0
  -29.1180  -21.1130   19.4790 C   0  0  0  0  0  0  0  0  0  0  0  0
  -27.8080  -20.5950   19.2620 C   0  0  0  0  0  0  0  0  0  0  0  0
  -29.7500  -18.7230   20.0470 C   0  0  0  0  0  0  0  0  0  0  0  0
  -28.4880  -18.3040   19.8540 N   0  0  0  0  0  0  0  0  0  0  0  0
  -25.4660  -21.5510   19.6390 C   0  0  0  0  0  1  0  0  0  0  0  0
  -26.2290  -20.8950   17.3140 C   0  0  0  0  0  1  0  0  0  0  0  0
  -26.6650  -21.4360   18.6820 C   0  0  0  0  0  3  0  0  0  0  0  0
  -29.5200  -22.5910   19.0390 C   0  0  0  0  0  2  0  0  0  0  0  0
  -29.1820  -23.9460   19.8570 C   0  0  0  0  0  3  0  0  0  0  0  0
  -28.9030  -25.2700   18.9720 C   0  0  0  0  0  3  0  0  0  0  0  0
  -28.7650  -26.6450   19.5560 O   0  0  0  0  0  0  0  0  0  0  0  0
  -24.6350  -31.5320   22.9480 C   0  0  0  0  0  0  0  0  0  0  0  0
  -27.5700  -27.4030   19.5380 C   0  0  0  0  0  0  0  0  0  0  0  0
  -23.5340  -30.1810   21.2000 C   0  0  0  0  0  3  0  0  0  0  0  0
  -25.0880  -28.8580   19.6540 C   0  0  0  0  0  0  0  0  0  0  0  0
  -26.0450  -30.6890   21.0500 C   0  0  0  0  0  2  0  0  0  0  0  0
  -26.2230  -29.3740   20.2930 C   0  0  0  0  0  0  0  0  0  0  0  0
  -27.4580  -28.6580   20.2290 C   0  0  0  0  0  3  0  0  0  0  0  0
  -26.4000  -26.9520   18.8800 C   0  0  0  0  0  3  0  0  0  0  0  0
  -25.1830  -27.6550   18.9420 C   0  0  0  0  0  3  0  0  0  0  0  0
  -23.7900  -29.6340   19.7720 C   0  0  0  0  0  2  0  0  0  0  0  0
  -24.7560  -30.8170   21.7890 N   0  0  0  0  0  0  0  0  0  0  0  0
  -23.5350  -31.6860   23.4970 O   0  0  0  0  0  0  0  0  0  0  0  0
  -22.9510  -29.0450   22.0760 C   0  0  0  0  0  0  0  0  0  0  0  0
  -21.6350  -28.8020   21.9540 N   0  0  0  0  0  0  0  0  0  0  0  0
  -23.6810  -28.3870   22.8210 O   0  0  0  0  0  0  0  0  0  0  0  0
  -21.0950  -29.4100   21.3520 H   0  0  0  0  0  0  0  0  0  0  0  0
  -18.3450  -27.3550   22.3780 C   0  0  0  0  0  0  0  0  0  0  0  0
  -20.8890  -27.7430   22.6340 C   0  0  0  0  0  3  0  0  0  0  0  0
  -21.0620  -26.3850   21.9120 C   0  0  0  0  0  2  0  0  0  0  0  0
  -19.9560  -26.0950   20.8930 C   0  0  0  0  0  2  0  0  0  0  0  0
  -18.5870  -26.0860   21.5780 C   0  0  0  0  0  2  0  0  0  0  0  0
  -19.4260  -28.1420   22.8600 C   0  0  0  0  0  0  0  0  0  0  0  0
  -19.1460  -29.3310   23.5650 C   0  0  0  0  0  3  0  0  0  0  0  0
  -17.8200  -29.7380   23.7940 C   0  0  0  0  0  3  0  0  0  0  0  0
  -16.7540  -28.9490   23.3300 C   0  0  0  0  0  3  0  0  0  0  0  0
  -17.0160  -27.7590   22.6280 C   0  0  0  0  0  3  0  0  0  0  0  0
  -25.8680  -32.2040   23.6250 C   0  0  0  0  0  3  0  0  0  0  0  0
  -25.4630  -33.5490   24.0560 N   0  0  0  0  0  0  0  0  0  0  0  0
  -25.7520  -34.6790   23.3970 C   0  0  0  0  0  0  0  0  0  0  0  0
  -26.4590  -34.7000   22.3860 O   0  0  0  0  0  0  0  0  0  0  0  0
  -24.8320  -33.6030   24.8430 H   0  0  0  0  0  0  0  0  0  0  0  0
  -23.9250  -36.3860   23.1260 C   0  0  0  0  0  1  0  0  0  0  0  0
  -25.1660  -35.9950   23.9440 C   0  0  0  0  0  3  0  0  0  0  0  0
  -27.2200  -36.9320   24.9100 C   0  0  0  0  0  1  0  0  0  0  0  0
  -26.1360  -37.1130   23.9470 N   0  0  0  0  0  0  0  0  0  0  0  0
  -25.6720  -37.9950   24.1550 H   0  0  0  0  0  0  0  0  0  0  0  0
  -26.4300  -31.3780   24.8490 C   0  0  1  0  0  0  0  0  0  0  0  0
  -25.3540  -30.9950   25.8910 C   0  0  0  0  0  1  0  0  0  0  0  0
  -27.1010  -30.0710   24.3660 C   0  0  0  0  0  1  0  0  0  0  0  0
  -27.5290  -32.1940   25.5700 C   0  0  0  0  0  1  0  0  0  0  0  0
  -30.7760  -17.5750   20.3860 C   0  0  0  0  0  2  0  0  0  0  0  0
  -31.0320  -15.0470   20.7830 C   0  0  0  0  0  0  0  0  0  0  0  0
  -30.9330  -12.6680   20.0650 C   0  0  0  0  0  2  0  0  0  0  0  0
  -30.1640  -12.5770   18.7300 C   0  0  0  0  0  2  0  0  0  0  0  0
  -28.6500  -12.4520   18.9860 C   0  0  0  0  0  2  0  0  0  0  0  0
  -28.1260  -13.4880   20.0170 C   0  0  0  0  0  3  0  0  0  0  0  0
  -29.0280  -13.5640   21.2680 C   0  0  0  0  0  2  0  0  0  0  0  0
  -30.3960  -13.8320   20.8080 N   0  0  0  0  0  0  0  0  0  0  0  0
  -32.2430  -15.1100   20.5610 O   0  0  0  0  0  0  0  0  0  0  0  0
  -30.2800  -16.1960   20.7730 N   0  0  0  0  0  0  0  0  0  0  0  0
  -29.2870  -16.1290   20.9370 H   0  0  0  0  0  0  0  0  0  0  0  0
  -25.6860  -14.1540   20.4570 C   0  0  0  0  0  0  0  0  0  0  0  0
  -24.5690  -13.4180   20.7360 C   0  0  0  0  0  0  0  0  0  0  0  0
  -24.9990  -12.0570   20.8060 C   0  0  0  0  0  0  0  0  0  0  0  0
  -26.7290  -13.2460   20.3680 N   0  0  0  0  0  0  0  0  0  0  0  0
  -26.3140  -11.9810   20.6410 N   0  0  0  0  0  0  0  0  0  0  0  0
  -24.2260  -10.8180   20.9620 C   0  0  0  0  0  0  0  0  0  0  0  0
  -24.5820   -9.8400   21.9150 C   0  0  0  0  0  3  0  0  0  0  0  0
  -23.8120   -8.6660   22.0580 C   0  0  0  0  0  3  0  0  0  0  0  0
  -22.6700   -8.4620   21.2480 C   0  0  0  0  0  0  0  0  0  0  0  0
  -22.3320   -9.4290   20.2840 C   0  0  0  0  0  3  0  0  0  0  0  0
  -23.1040  -10.5940   20.1390 C   0  0  0  0  0  3  0  0  0  0  0  0
  -21.8750   -7.3410   21.3010 O   0  0  0  0  0  0  0  0  0  0  0  0
  -21.8290   -6.5440   22.4160 C   0  0  0  0  0  0  0  0  0  0  0  0
  -21.4880   -7.0560   23.6860 C   0  0  0  0  0  3  0  0  0  0  0  0
  -21.3850   -6.1880   24.7920 C   0  0  0  0  0  3  0  0  0  0  0  0
  -21.6130   -4.8080   24.6300 C   0  0  0  0  0  0  0  0  0  0  0  0
  -21.9490   -4.2960   23.3650 C   0  0  0  0  0  3  0  0  0  0  0  0
  -22.0540   -5.1600   22.2610 C   0  0  0  0  0  0  0  0  0  0  0  0
  -22.3560   -4.6570   21.0400 F   0  0  0  0  0  0  0  0  0  0  0  0
  -21.5080   -3.9730   25.6890 F   0  0  0  0  0  0  0  0  0  0  0  0
  -23.1620  -13.9330   20.8380 C   0  0  0  0  0  0  0  0  0  0  0  0
  -22.3370  -13.3010   21.6620 N   0  0  0  0  0  0  0  0  0  0  0  0
  -22.8010  -14.9310   20.2160 O   0  0  0  0  0  0  0  0  0  0  0  0
  -22.6390  -12.4940   22.1900 H   0  0  0  0  0  0  0  0  0  0  0  0
  -21.3860  -13.6230   21.7690 H   0  0  0  0  0  0  0  0  0  0  0  0
  -25.9040  -15.5150   20.2500 N   0  0  0  0  0  0  0  0  0  0  0  0
  -25.1480  -16.1920   20.2460 H   0  0  0  0  0  0  0  0  0  0  0  0
  -26.8010  -15.9280   20.0290 H   0  0  0  0  0  0  0  0  0  0  0  0
  1  5  1  0
  2  6  1  0
  3  1  2  0
  4  3  1  0
  4  2  2  0
  5 54  1  0
  6  5  2  0
  8  9  1  0
  9  4  1  0
  9  7  1  0
 10  3  1  0
 10 11  1  0
 12 13  1  0
 12 11  2  0
 14 25  2  0
 15 13  1  0
 15 20  1  0
 16 24  1  0
 16 26  1  0
 17 23  1  0
 17 19  1  0
 18 24  1  0
 19 18  1  0
 20 19  2  0
 21 22  1  0
 21 15  2  0
 22 17  2  0
 23 16  1  0
 24 14  1  0
 26 28  2  0
 27 26  1  0
 29 27  1  0
 30 39  2  0
 30 35  1  0
 31 27  1  0
 31 35  1  0
 32 31  1  0
 33 34  1  0
 33 32  1  0
 34 30  1  0
 35 36  2  0
 36 37  1  0
 38 37  2  0
 39 38  1  0
 40 14  1  0
 40 41  1  0
 40 50  1  0
 41 44  1  0
 42 46  1  0
 42 41  1  0
 43 42  2  0
 46 45  1  0
 46 48  1  0
 48 49  1  0
 48 47  1  0
 50 53  1  1
 50 51  1  0
 52 50  1  0
 54 63  1  0
 55 61  1  0
 56 61  1  0
 57 58  1  0
 57 56  1  0
 59 58  1  0
 59 68  1  0
 59 60  1  0
 61 60  1  0
 62 55  2  0
 63 55  1  0
 63 64  1  0
 65 66  2  0
 66 67  1  0
 66 85  1  0
 67 70  1  0
 68 65  1  0
 68 69  1  0
 69 67  2  0
 70 71  1  0
 71 72  2  0
 73 76  1  0
 73 72  1  0
 74 73  2  0
 75 74  1  0
 75 70  2  0
 76 77  1  0
 77 78  1  0
 78 79  2  0
 80 79  1  0
 80 84  1  0
 81 80  2  0
 82 77  2  0
 82 81  1  0
 83 82  1  0
 85 86  1  0
 86 89  1  0
 86 88  1  0
 87 85  2  0
 90 65  1  0
 91 90  1  0
 92 90  1  0
M  ISO  4  12 101  13 101  55 100  63 100
M  END
>  <TORSDO>  (38) 
F 21

>  <SCORE>  (38) 
-11.092

>  <name>  (38) 
38

>  <ligand_id>  (38) 
38

>  <original_smiles>  (38) 
[H]c1nc(C([H])([H])N([H])C(=O)N2C([H])([H])C([H])([H])C([H])([H])C([H])(n3nc(-c4c([H])c([H])c(Oc5c([H])c([H])c(F)c([H])c5F)c([H])c4[H])c(C(=O)N([H])[H])c3N([H])[H])C2([H])[H])c([H])c(C([H])([H])C([H])([H])C([H])([H])Oc2c([H])c([H])c3c(c2[H])C([H])([H])N(C(=O)C([H])(N([H])C(=O)C([H])(N([H])C([H])([H])[H])C([H])([H])[H])C(C([H])([H])[H])(C([H])([H])[H])C([H])([H])[H])C([H])(C(=O)N([H])C2([H])c4c([H])c([H])c([H])c([H])c4C([H])([H])C([H])([H])C2([H])[H])C3([H])[H])c1C([H])(C([H])([H])[H])C([H])([H])[H]

>  <smiles>  (38) 
[H]c1nc(C([H])([H])N([H])C(=O)N2C([H])([H])C([H])([H])C([H])([H])C([H])(n3nc(-c4c([H])c([H])c(Oc5c([H])c([H])c(F)c([H])c5F)c([H])c4[H])c(C(=O)N([H])[H])c3N([H])[H])C2([H])[H])c([H])c(C([H])([H])C([H])([H])C([H])([H])Oc2c([H])c([H])c3c(c2[H])C([H])([H])N(C(=O)C([H])(N([H])C(=O)C([H])(N([H])C([H])([H])[H])C([H])([H])[H])C(C([H])([H])[H])(C([H])([H])[H])C([H])([H])[H])C([H])(C(=O)N([H])C2([H])c4c([H])c([H])c([H])c([H])c4C([H])([H])C([H])([H])C2([H])[H])C3([H])[H])c1C([H])(C([H])([H])[H])C([H])([H])[H]

$$$$
39:0:0
     RDKit          3D

 93101  0  0  1  0  0  0  0  0999 V2000
  -29.0450  -24.0550   19.2350 C   0  0  0  0  0  3  0  0  0  0  0  0
  -29.1290  -22.7030   18.8440 C   0  0  0  0  0  3  0  0  0  0  0  0
  -28.7880  -24.3620   20.5860 C   0  0  0  0  0  0  0  0  0  0  0  0
  -28.9510  -21.6930   19.8110 C   0  0  0  0  0  0  0  0  0  0  0  0
  -28.6610  -23.2810   21.4930 C   0  0  0  0  0  0  0  0  0  0  0  0
  -28.3940  -23.5080   22.9710 C   0  0  0  0  0  1  0  0  0  0  0  0
  -28.7480  -21.9820   21.1170 N   0  0  0  0  0  0  0  0  0  0  0  0
  -28.6760  -25.8150   21.0650 C   0  0  0  0  0  2  0  0  0  0  0  0
  -28.5850  -26.7910   20.0190 O   0  0  0  0  0  0  0  0  0  0  0  0
  -24.5830  -31.8130   23.1100 C   0  0  0  0  0  0  0  0  0  0  0  0
  -27.4090  -27.5020   20.0220 C   0  0  0  0  0  0  0  0  0  0  0  0
  -23.4440  -30.3940   21.4330 C   0  0  0  0  0  3  0  0  0  0  0  0
  -24.9670  -28.9160   20.0150 C   0  0  0  0  0  0  0  0  0  0  0  0
  -25.9580  -30.8370   21.2740 C   0  0  0  0  0  2  0  0  0  0  0  0
  -26.0970  -29.4760   20.6230 C   0  0  0  0  0  0  0  0  0  0  0  0
  -27.3250  -28.7770   20.6230 C   0  0  0  0  0  3  0  0  0  0  0  0
  -26.2650  -26.9460   19.4140 C   0  0  0  0  0  3  0  0  0  0  0  0
  -25.0440  -27.6490   19.4070 C   0  0  0  0  0  3  0  0  0  0  0  0
  -23.6950  -29.7340   20.0500 C   0  0  0  0  0  2  0  0  0  0  0  0
  -24.6790  -31.0290   21.9990 N   0  0  0  0  0  0  0  0  0  0  0  0
  -23.4870  -32.0460   23.6380 O   0  0  0  0  0  0  0  0  0  0  0  0
  -22.8090  -29.3430   22.3730 C   0  0  0  0  0  0  0  0  0  0  0  0
  -21.4870  -29.1450   22.2420 N   0  0  0  0  0  0  0  0  0  0  0  0
  -23.5020  -28.7090   23.1730 O   0  0  0  0  0  0  0  0  0  0  0  0
  -20.9900  -29.7110   21.5670 H   0  0  0  0  0  0  0  0  0  0  0  0
  -18.1210  -27.9340   22.7510 C   0  0  0  0  0  0  0  0  0  0  0  0
  -20.6830  -28.1810   22.9920 C   0  0  0  0  0  3  0  0  0  0  0  0
  -20.7750  -26.7700   22.3640 C   0  0  0  0  0  2  0  0  0  0  0  0
  -19.6560  -26.4860   21.3560 C   0  0  0  0  0  2  0  0  0  0  0  0
  -18.2850  -26.6080   22.0260 C   0  0  0  0  0  2  0  0  0  0  0  0
  -19.2470  -28.6790   23.1910 C   0  0  0  0  0  0  0  0  0  0  0  0
  -19.0390  -29.9220   23.8280 C   0  0  0  0  0  3  0  0  0  0  0  0
  -17.7380  -30.4190   24.0310 C   0  0  0  0  0  3  0  0  0  0  0  0
  -16.6270  -29.6690   23.6080 C   0  0  0  0  0  3  0  0  0  0  0  0
  -16.8180  -28.4280   22.9750 C   0  0  0  0  0  3  0  0  0  0  0  0
  -25.8420  -32.4730   23.7550 C   0  0  0  0  0  3  0  0  0  0  0  0
  -25.4890  -33.8550   24.1060 N   0  0  0  0  0  0  0  0  0  0  0  0
  -25.7910  -34.9260   23.3620 C   0  0  0  0  0  0  0  0  0  0  0  0
  -26.4680  -34.8590   22.3330 O   0  0  0  0  0  0  0  0  0  0  0  0
  -24.8890  -33.9780   24.9080 H   0  0  0  0  0  0  0  0  0  0  0  0
  -24.0140  -36.6690   23.0080 C   0  0  0  0  0  1  0  0  0  0  0  0
  -25.2540  -36.2910   23.8350 C   0  0  0  0  0  3  0  0  0  0  0  0
  -27.3430  -37.2280   24.7210 C   0  0  0  0  0  1  0  0  0  0  0  0
  -26.2560  -37.3760   23.7570 N   0  0  0  0  0  0  0  0  0  0  0  0
  -25.8200  -38.2810   23.9090 H   0  0  0  0  0  0  0  0  0  0  0  0
  -26.3720  -31.6930   25.0210 C   0  0  1  0  0  0  0  0  0  0  0  0
  -25.2770  -31.4000   26.0740 C   0  0  0  0  0  1  0  0  0  0  0  0
  -27.0030  -30.3430   24.6050 C   0  0  0  0  0  1  0  0  0  0  0  0
  -27.4910  -32.5100   25.7100 C   0  0  0  0  0  1  0  0  0  0  0  0
  -28.9260  -20.2130   19.4340 C   0  0  0  0  0  2  0  0  0  0  0  0
  -29.7820  -19.3970   20.3210 N   0  0  0  0  0  4  0  0  0  0  0  0
  -30.7390  -19.5750   20.0720 H   0  0  0  0  0  0  0  0  0  0  0  0
  -29.6280  -19.7680   21.2460 H   0  0  0  0  0  0  0  0  0  0  0  0
  -29.4860  -17.9380   20.2800 C   0  0  0  0  0  2  0  0  0  0  0  0
  -30.4760  -17.0580   21.0930 C   0  0  0  0  0  2  0  0  0  0  0  0
  -30.7460  -14.6110   20.4480 C   0  0  0  0  0  0  0  0  0  0  0  0
  -30.3970  -12.4380   19.3200 C   0  0  0  0  0  2  0  0  0  0  0  0
  -29.5060  -12.5950   18.0650 C   0  0  0  0  0  2  0  0  0  0  0  0
  -28.0210  -12.9020   18.3800 C   0  0  0  0  0  2  0  0  0  0  0  0
  -27.7030  -12.7990   19.8700 C   0  0  0  0  0  3  0  0  0  0  0  0
  -28.7100  -13.2390   20.9320 C   0  0  0  0  0  2  0  0  0  0  0  0
  -30.0260  -13.4690   20.3110 N   0  0  0  0  0  0  0  0  0  0  0  0
  -31.8610  -14.7670   19.9490 O   0  0  0  0  0  0  0  0  0  0  0  0
  -30.1020  -15.6340   21.0430 N   0  0  0  0  0  0  0  0  0  0  0  0
  -29.2010  -15.3930   21.4300 H   0  0  0  0  0  0  0  0  0  0  0  0
  -25.3000  -13.7940   20.4320 C   0  0  0  0  0  0  0  0  0  0  0  0
  -24.1830  -13.0790   20.8050 C   0  0  0  0  0  0  0  0  0  0  0  0
  -24.5840  -11.7110   20.8070 C   0  0  0  0  0  0  0  0  0  0  0  0
  -26.3010  -12.8310   20.2570 N   0  0  0  0  0  0  0  0  0  0  0  0
  -25.8460  -11.5990   20.5170 N   0  0  0  0  0  0  0  0  0  0  0  0
  -23.8680  -10.4610   21.0030 C   0  0  0  0  0  0  0  0  0  0  0  0
  -24.3160   -9.5130   21.9490 C   0  0  0  0  0  3  0  0  0  0  0  0
  -23.6230   -8.2990   22.1170 C   0  0  0  0  0  3  0  0  0  0  0  0
  -22.4740   -8.0350   21.3360 C   0  0  0  0  0  0  0  0  0  0  0  0
  -22.0550   -8.9710   20.3750 C   0  0  0  0  0  3  0  0  0  0  0  0
  -22.7500  -10.1770   20.2040 C   0  0  0  0  0  3  0  0  0  0  0  0
  -21.7380   -6.8810   21.4200 O   0  0  0  0  0  0  0  0  0  0  0  0
  -21.6550   -6.1730   22.5900 C   0  0  0  0  0  0  0  0  0  0  0  0
  -21.1420   -6.7430   23.7740 C   0  0  0  0  0  3  0  0  0  0  0  0
  -21.0110   -5.9520   24.9340 C   0  0  0  0  0  3  0  0  0  0  0  0
  -21.3860   -4.5950   24.9080 C   0  0  0  0  0  0  0  0  0  0  0  0
  -21.8940   -4.0270   23.7270 C   0  0  0  0  0  3  0  0  0  0  0  0
  -22.0260   -4.8150   22.5700 C   0  0  0  0  0  0  0  0  0  0  0  0
  -22.5000   -4.2600   21.4270 F   0  0  0  0  0  0  0  0  0  0  0  0
  -21.2500   -3.8340   26.0180 F   0  0  0  0  0  0  0  0  0  0  0  0
  -22.7930  -13.5830   21.0640 C   0  0  0  0  0  0  0  0  0  0  0  0
  -22.0480  -12.8920   21.9200 N   0  0  0  0  0  0  0  0  0  0  0  0
  -22.3690  -14.6090   20.5380 O   0  0  0  0  0  0  0  0  0  0  0  0
  -22.4010  -12.0610   22.3700 H   0  0  0  0  0  0  0  0  0  0  0  0
  -21.1140  -13.2100   22.1380 H   0  0  0  0  0  0  0  0  0  0  0  0
  -25.5340  -15.1510   20.2290 N   0  0  0  0  0  0  0  0  0  0  0  0
  -24.8010  -15.8490   20.2870 H   0  0  0  0  0  0  0  0  0  0  0  0
  -26.4040  -15.5110   19.8570 H   0  0  0  0  0  0  0  0  0  0  0  0
  1  3  1  0
  2  1  2  0
  2  4  1  0
  3  8  1  0
  3  5  2  0
  4  7  2  0
  5  6  1  0
  7  5  1  0
  9 11  1  0
  9  8  1  0
 10 21  2  0
 11 16  1  0
 12 20  1  0
 12 22  1  0
 13 19  1  0
 13 15  1  0
 14 20  1  0
 15 16  2  0
 15 14  1  0
 17 11  2  0
 18 17  1  0
 18 13  2  0
 19 12  1  0
 20 10  1  0
 22 24  2  0
 23 22  1  0
 25 23  1  0
 26 35  2  0
 26 31  1  0
 27 23  1  0
 27 31  1  0
 28 27  1  0
 29 30  1  0
 29 28  1  0
 30 26  1  0
 31 32  2  0
 32 33  1  0
 34 33  2  0
 35 34  1  0
 36 10  1  0
 36 37  1  0
 36 46  1  0
 37 40  1  0
 38 42  1  0
 38 37  1  0
 39 38  2  0
 42 41  1  0
 44 42  1  0
 44 45  1  0
 44 43  1  0
 46 49  1  1
 46 47  1  0
 48 46  1  0
 50  4  1  0
 50 51  1  0
 51 53  1  0
 52 51  1  0
 54 51  1  0
 54 55  1  0
 56 64  1  0
 57 62  1  0
 58 59  1  0
 58 57  1  0
 60 59  1  0
 60 69  1  0
 60 61  1  0
 62 56  1  0
 62 61  1  0
 63 56  2  0
 64 55  1  0
 64 65  1  0
 66 67  2  0
 67 68  1  0
 67 86  1  0
 68 71  1  0
 69 66  1  0
 69 70  1  0
 70 68  2  0
 71 72  1  0
 72 73  2  0
 74 77  1  0
 74 73  1  0
 75 74  2  0
 76 75  1  0
 76 71  2  0
 77 78  1  0
 78 79  1  0
 79 80  2  0
 81 80  1  0
 81 85  1  0
 82 81  2  0
 83 78  2  0
 83 82  1  0
 84 83  1  0
 86 87  1  0
 87 90  1  0
 87 89  1  0
 88 86  2  0
 91 92  1  0
 91 66  1  0
 93 91  1  0
M  ISO  4   8 101   9 101  56 100  64 100
M  END
>  <TORSDO>  (39) 
F 21

>  <SCORE>  (39) 
-12.841

>  <name>  (39) 
39

>  <ligand_id>  (39) 
39

>  <original_smiles>  (39) 
[H]c1c(C([H])([H])[N+]([H])([H])C([H])([H])C([H])([H])N([H])C(=O)N2C([H])([H])C([H])([H])C([H])([H])C([H])(n3nc(-c4c([H])c([H])c(Oc5c([H])c([H])c(F)c([H])c5F)c([H])c4[H])c(C(=O)N([H])[H])c3N([H])[H])C2([H])[H])nc(C([H])([H])[H])c(C([H])([H])Oc2c([H])c([H])c3c(c2[H])C([H])([H])N(C(=O)C([H])(N([H])C(=O)C([H])(N([H])C([H])([H])[H])C([H])([H])[H])C(C([H])([H])[H])(C([H])([H])[H])C([H])([H])[H])C([H])(C(=O)N([H])C2([H])c4c([H])c([H])c([H])c([H])c4C([H])([H])C([H])([H])C2([H])[H])C3([H])[H])c1[H]

>  <smiles>  (39) 
[H]c1c(C([H])([H])[N+]([H])([H])C([H])([H])C([H])([H])N([H])C(=O)N2C([H])([H])C([H])([H])C([H])([H])C([H])(n3nc(-c4c([H])c([H])c(Oc5c([H])c([H])c(F)c([H])c5F)c([H])c4[H])c(C(=O)N([H])[H])c3N([H])[H])C2([H])[H])nc(C([H])([H])[H])c(C([H])([H])Oc2c([H])c([H])c3c(c2[H])C([H])([H])N(C(=O)C([H])(N([H])C(=O)C([H])(N([H])C([H])([H])[H])C([H])([H])[H])C(C([H])([H])[H])(C([H])([H])[H])C([H])([H])[H])C([H])(C(=O)N([H])C2([H])c4c([H])c([H])c([H])c([H])c4C([H])([H])C([H])([H])C2([H])[H])C3([H])[H])c1[H]

$$$$
40:0:0
     RDKit          3D

101109  0  0  1  0  0  0  0  0999 V2000
  -31.1730  -21.5120   18.0640 C   0  0  0  0  0  3  0  0  0  0  0  0
  -30.2140  -24.6130   20.9970 C   0  0  0  0  0  3  0  0  0  0  0  0
  -31.2780  -23.7280   21.2560 C   0  0  0  0  0  3  0  0  0  0  0  0
  -29.8450  -23.5140   18.8600 C   0  0  0  0  0  3  0  0  0  0  0  0
  -29.4970  -24.5110   19.7900 C   0  0  0  0  0  0  0  0  0  0  0  0
  -31.6270  -22.7190   20.3310 C   0  0  0  0  0  0  0  0  0  0  0  0
  -30.9050  -22.6110   19.1060 C   0  0  0  0  0  0  0  0  0  0  0  0
  -34.1270  -22.2850   20.1840 C   0  0  0  0  0  1  0  0  0  0  0  0
  -32.7750  -21.7880   20.7080 C   0  0  0  0  0  2  0  0  0  0  0  0
  -28.2810  -25.3710   19.5170 C   0  0  0  0  0  2  0  0  0  0  0  0
  -28.3380  -26.6860   20.0740 O   0  0  0  0  0  0  0  0  0  0  0  0
  -24.5840  -31.8440   23.2110 C   0  0  0  0  0  0  0  0  0  0  0  0
  -27.1650  -27.4150   20.0620 C   0  0  0  0  0  0  0  0  0  0  0  0
  -23.3540  -30.4760   21.5570 C   0  0  0  0  0  3  0  0  0  0  0  0
  -24.7860  -28.9490   20.1060 C   0  0  0  0  0  0  0  0  0  0  0  0
  -25.8860  -30.8050   21.3620 C   0  0  0  0  0  2  0  0  0  0  0  0
  -25.9510  -29.4450   20.7030 C   0  0  0  0  0  0  0  0  0  0  0  0
  -27.1410  -28.6820   20.6850 C   0  0  0  0  0  3  0  0  0  0  0  0
  -25.9750  -26.9420   19.4510 C   0  0  0  0  0  3  0  0  0  0  0  0
  -24.7940  -27.6970   19.4760 C   0  0  0  0  0  3  0  0  0  0  0  0
  -23.5530  -29.8190   20.1660 C   0  0  0  0  0  2  0  0  0  0  0  0
  -24.6260  -31.0570   22.1000 N   0  0  0  0  0  0  0  0  0  0  0  0
  -23.5080  -32.1220   23.7570 O   0  0  0  0  0  0  0  0  0  0  0  0
  -22.6980  -29.4460   22.5050 C   0  0  0  0  0  0  0  0  0  0  0  0
  -21.3690  -29.2900   22.3870 N   0  0  0  0  0  0  0  0  0  0  0  0
  -23.3790  -28.7930   23.3000 O   0  0  0  0  0  0  0  0  0  0  0  0
  -20.8830  -29.8690   21.7160 H   0  0  0  0  0  0  0  0  0  0  0  0
  -17.9730  -28.1740   22.9170 C   0  0  0  0  0  0  0  0  0  0  0  0
  -20.5420  -28.3560   23.1490 C   0  0  0  0  0  3  0  0  0  0  0  0
  -20.5950  -26.9360   22.5380 C   0  0  0  0  0  2  0  0  0  0  0  0
  -19.4650  -26.6690   21.5370 C   0  0  0  0  0  2  0  0  0  0  0  0
  -18.0990  -26.8360   22.2070 C   0  0  0  0  0  2  0  0  0  0  0  0
  -19.1190  -28.8950   23.3440 C   0  0  0  0  0  0  0  0  0  0  0  0
  -18.9470  -30.1510   23.9670 C   0  0  0  0  0  3  0  0  0  0  0  0
  -17.6600  -30.6840   24.1670 C   0  0  0  0  0  3  0  0  0  0  0  0
  -16.5270  -29.9590   23.7580 C   0  0  0  0  0  3  0  0  0  0  0  0
  -16.6850  -28.7050   23.1380 C   0  0  0  0  0  3  0  0  0  0  0  0
  -25.8800  -32.4510   23.8320 C   0  0  0  0  0  3  0  0  0  0  0  0
  -26.3870  -31.6690   25.1050 C   0  0  1  0  0  0  0  0  0  0  0  0
  -25.2930  -31.4410   26.1730 C   0  0  0  0  0  1  0  0  0  0  0  0
  -26.9540  -30.2840   24.7120 C   0  0  0  0  0  1  0  0  0  0  0  0
  -27.5450  -32.4470   25.7730 C   0  0  0  0  0  1  0  0  0  0  0  0
  -25.5960  -33.8530   24.1620 N   0  0  0  0  0  0  0  0  0  0  0  0
  -25.9510  -34.8990   23.4060 C   0  0  0  0  0  0  0  0  0  0  0  0
  -26.6270  -34.7850   22.3800 O   0  0  0  0  0  0  0  0  0  0  0  0
  -25.0040  -34.0170   24.9640 H   0  0  0  0  0  0  0  0  0  0  0  0
  -24.2720  -36.7320   23.0160 C   0  0  0  0  0  1  0  0  0  0  0  0
  -25.4800  -36.2940   23.8600 C   0  0  0  0  0  3  0  0  0  0  0  0
  -27.6050  -37.1280   24.7620 C   0  0  0  0  0  1  0  0  0  0  0  0
  -26.5380  -37.3250   23.7850 N   0  0  0  0  0  0  0  0  0  0  0  0
  -26.1460  -38.2520   23.9270 H   0  0  0  0  0  0  0  0  0  0  0  0
  -32.2980  -21.0120   15.8000 C   0  0  0  0  0  1  0  0  0  0  0  0
  -32.3640  -23.3730   16.6680 C   0  0  0  0  0  1  0  0  0  0  0  0
  -31.5510  -22.0600   16.6500 C   0  0  0  0  0  3  0  0  0  0  0  0
  -29.9660  -20.5360   17.9960 C   0  0  0  0  0  2  0  0  0  0  0  0
  -29.4520  -20.1380   19.3300 N   0  0  0  0  0  4  0  0  0  0  0  0
  -28.5070  -19.7990   19.2390 H   0  0  0  0  0  0  0  0  0  0  0  0
  -29.4200  -20.9800   19.8870 H   0  0  0  0  0  0  0  0  0  0  0  0
  -30.2330  -19.1220   20.0680 C   0  0  0  0  0  2  0  0  0  0  0  0
  -28.1730  -17.6490   20.4030 C   0  0  0  0  0  1  0  0  0  0  0  0
  -29.7670  -17.1680   18.5170 C   0  0  0  0  0  1  0  0  0  0  0  0
  -29.6550  -17.6820   19.9720 C   0  0  1  0  0  0  0  0  0  0  0  0
  -30.4690  -16.7940   20.9560 C   0  0  0  0  0  2  0  0  0  0  0  0
  -30.6670  -14.3850   20.4140 C   0  0  0  0  0  0  0  0  0  0  0  0
  -30.3190  -12.2500   19.2570 C   0  0  0  0  0  2  0  0  0  0  0  0
  -29.3880  -12.5030   18.0560 C   0  0  0  0  0  2  0  0  0  0  0  0
  -27.9120  -12.3690   18.4720 C   0  0  0  0  0  2  0  0  0  0  0  0
  -27.5770  -13.1980   19.7420 C   0  0  0  0  0  3  0  0  0  0  0  0
  -28.6290  -12.9590   20.8520 C   0  0  0  0  0  2  0  0  0  0  0  0
  -29.9640  -13.2300   20.2940 N   0  0  0  0  0  0  0  0  0  0  0  0
  -31.7710  -14.5620   19.9010 O   0  0  0  0  0  0  0  0  0  0  0  0
  -30.0180  -15.3980   20.9920 N   0  0  0  0  0  0  0  0  0  0  0  0
  -29.1070  -15.2000   21.3810 H   0  0  0  0  0  0  0  0  0  0  0  0
  -25.1700  -13.8100   20.4340 C   0  0  0  0  0  0  0  0  0  0  0  0
  -24.1010  -13.0410   20.8040 C   0  0  0  0  0  0  0  0  0  0  0  0
  -24.5620  -11.6890   20.7800 C   0  0  0  0  0  0  0  0  0  0  0  0
  -26.2200  -12.9290   20.2150 N   0  0  0  0  0  0  0  0  0  0  0  0
  -25.8540  -11.6480   20.4790 N   0  0  0  0  0  0  0  0  0  0  0  0
  -23.8330  -10.4290   20.9770 C   0  0  0  0  0  0  0  0  0  0  0  0
  -24.2440   -9.4800   21.9370 C   0  0  0  0  0  3  0  0  0  0  0  0
  -23.5160   -8.2850   22.1210 C   0  0  0  0  0  3  0  0  0  0  0  0
  -22.3630   -8.0280   21.3420 C   0  0  0  0  0  0  0  0  0  0  0  0
  -21.9710   -8.9690   20.3720 C   0  0  0  0  0  3  0  0  0  0  0  0
  -22.6980  -10.1540   20.1880 C   0  0  0  0  0  3  0  0  0  0  0  0
  -21.6110   -6.8810   21.4310 O   0  0  0  0  0  0  0  0  0  0  0  0
  -21.5300   -6.1610   22.5960 C   0  0  0  0  0  0  0  0  0  0  0  0
  -21.0380   -6.7310   23.7890 C   0  0  0  0  0  3  0  0  0  0  0  0
  -20.9040   -5.9360   24.9450 C   0  0  0  0  0  3  0  0  0  0  0  0
  -21.2590   -4.5740   24.9070 C   0  0  0  0  0  0  0  0  0  0  0  0
  -21.7470   -4.0040   23.7170 C   0  0  0  0  0  3  0  0  0  0  0  0
  -21.8810   -4.7960   22.5640 C   0  0  0  0  0  0  0  0  0  0  0  0
  -22.3300   -4.2380   21.4130 F   0  0  0  0  0  0  0  0  0  0  0  0
  -21.1250   -3.8060   26.0150 F   0  0  0  0  0  0  0  0  0  0  0  0
  -22.7010  -13.5210   21.0630 C   0  0  0  0  0  0  0  0  0  0  0  0
  -21.9640  -12.8280   21.9220 N   0  0  0  0  0  0  0  0  0  0  0  0
  -22.2680  -14.5460   20.5350 O   0  0  0  0  0  0  0  0  0  0  0  0
  -22.3240  -11.9960   22.3640 H   0  0  0  0  0  0  0  0  0  0  0  0
  -21.0290  -13.1360   22.1380 H   0  0  0  0  0  0  0  0  0  0  0  0
  -25.3380  -15.1800   20.2460 N   0  0  0  0  0  0  0  0  0  0  0  0
  -24.5740  -15.8340   20.3660 H   0  0  0  0  0  0  0  0  0  0  0  0
  -26.1810  -15.6090   19.8900 H   0  0  0  0  0  0  0  0  0  0  0  0
  1 55  1  0
  1  7  1  0
  2  3  1  0
  4  7  2  0
  4  5  1  0
  5  2  2  0
  6  9  1  0
  6  3  2  0
  7  6  1  0
  8  9  1  0
 10  5  1  0
 10 11  1  0
 12 23  2  0
 13 11  1  0
 13 18  1  0
 14 22  1  0
 14 24  1  0
 15 21  1  0
 15 17  1  0
 16 22  1  0
 17 16  1  0
 18 17  2  0
 19 20  1  0
 19 13  2  0
 20 15  2  0
 21 14  1  0
 22 12  1  0
 24 26  2  0
 25 24  1  0
 27 25  1  0
 28 37  2  0
 28 33  1  0
 29 25  1  0
 29 33  1  0
 30 29  1  0
 31 32  1  0
 31 30  1  0
 32 28  1  0
 33 34  2  0
 34 35  1  0
 36 35  2  0
 37 36  1  0
 38 12  1  0
 38 43  1  0
 38 39  1  0
 39 42  1  1
 39 40  1  0
 41 39  1  0
 43 46  1  0
 44 48  1  0
 44 43  1  0
 45 44  2  0
 48 47  1  0
 50 48  1  0
 50 51  1  0
 50 49  1  0
 52 54  1  0
 54 53  1  0
 54  1  1  0
 55 56  1  0
 56 58  1  0
 56 59  1  0
 57 56  1  0
 62 61  1  6
 62 59  1  0
 62 60  1  0
 62 63  1  0
 63 72  1  0
 64 72  1  0
 65 70  1  0
 66 67  1  0
 66 65  1  0
 68 67  1  0
 68 77  1  0
 68 69  1  0
 70 64  1  0
 70 69  1  0
 71 64  2  0
 72 73  1  0
 74 75  2  0
 75 94  1  0
 76 75  1  0
 76 79  1  0
 77 74  1  0
 77 78  1  0
 78 76  2  0
 79 80  1  0
 80 81  2  0
 82 85  1  0
 82 81  1  0
 83 82  2  0
 84 83  1  0
 84 79  2  0
 85 86  1  0
 86 87  1  0
 87 88  2  0
 89 88  1  0
 89 93  1  0
 90 89  2  0
 91 86  2  0
 91 90  1  0
 92 91  1  0
 94 95  1  0
 95 98  1  0
 95 97  1  0
 96 94  2  0
 99100  1  0
 99 74  1  0
101 99  1  0
M  ISO  4  10 101  11 101  64 100  72 100
M  END
>  <TORSDO>  (40) 
F 25

>  <SCORE>  (40) 
-11.971

>  <name>  (40) 
40

>  <ligand_id>  (40) 
40

>  <original_smiles>  (40) 
[H]c1c([H])c([H])c2c(c1[H])C([H])([H])C([H])([H])C([H])([H])C2([H])N([H])C(=O)C1([H])N(C(=O)C([H])(N([H])C(=O)C([H])(N([H])C([H])([H])[H])C([H])([H])[H])C(C([H])([H])[H])(C([H])([H])[H])C([H])([H])[H])C([H])([H])c2c([H])c(OC([H])([H])c3c([H])c([H])c(C([H])([H])C([H])([H])[H])c(C([H])(C([H])(C([H])([H])[H])C([H])([H])[H])C([H])([H])[N+]([H])([H])C([H])([H])C(C([H])([H])[H])(C([H])([H])[H])C([H])([H])N([H])C(=O)N4C([H])([H])C([H])([H])C([H])([H])C([H])(n5nc(-c6c([H])c([H])c(Oc7c([H])c([H])c(F)c([H])c7F)c([H])c6[H])c(C(=O)N([H])[H])c5N([H])[H])C4([H])[H])c3[H])c([H])c([H])c2C1([H])[H]

>  <smiles>  (40) 
[H]c1c([H])c([H])c2c(c1[H])C([H])([H])C([H])([H])C([H])([H])C2([H])N([H])C(=O)C1([H])N(C(=O)C([H])(N([H])C(=O)C([H])(N([H])C([H])([H])[H])C([H])([H])[H])C(C([H])([H])[H])(C([H])([H])[H])C([H])([H])[H])C([H])([H])c2c([H])c(OC([H])([H])c3c([H])c([H])c(C([H])([H])C([H])([H])[H])c(C([H])(C([H])(C([H])([H])[H])C([H])([H])[H])C([H])([H])[N+]([H])([H])C([H])([H])C(C([H])([H])[H])(C([H])([H])[H])C([H])([H])N([H])C(=O)N4C([H])([H])C([H])([H])C([H])([H])C([H])(n5nc(-c6c([H])c([H])c(Oc7c([H])c([H])c(F)c([H])c7F)c([H])c6[H])c(C(=O)N([H])[H])c5N([H])[H])C4([H])[H])c3[H])c([H])c([H])c2C1([H])[H]

$$$$
41:0:0
     RDKit          3D

 93101  0  0  1  0  0  0  0  0999 V2000
  -29.3390  -20.9550   20.5830 C   0  0  0  0  0  3  0  0  0  0  0  0
  -30.2900  -22.6700   19.1840 C   0  0  0  0  0  3  0  0  0  0  0  0
  -29.6220  -22.3160   20.3700 C   0  0  0  0  0  0  0  0  0  0  0  0
  -29.7330  -19.9990   19.6230 C   0  0  0  0  0  0  0  0  0  0  0  0
  -30.3460  -20.4670   18.4350 C   0  0  0  0  0  0  0  0  0  0  0  0
  -30.6280  -21.7740   18.2380 N   0  0  0  0  0  0  0  0  0  0  0  0
  -29.9080  -19.8140   16.0190 C   0  0  0  0  0  1  0  0  0  0  0  0
  -30.7560  -19.5660   17.2760 C   0  0  0  0  0  2  0  0  0  0  0  0
  -29.2460  -23.3300   21.4480 C   0  0  0  0  0  2  0  0  0  0  0  0
  -29.4000  -24.8240   21.0980 C   0  0  0  0  0  2  0  0  0  0  0  0
  -28.3620  -25.3490   20.0980 C   0  0  0  0  0  2  0  0  0  0  0  0
  -28.4010  -26.7750   20.1410 O   0  0  0  0  0  0  0  0  0  0  0  0
  -24.5510  -31.8770   23.2400 C   0  0  0  0  0  0  0  0  0  0  0  0
  -27.2050  -27.4580   20.1460 C   0  0  0  0  0  0  0  0  0  0  0  0
  -23.3480  -30.4750   21.5960 C   0  0  0  0  0  3  0  0  0  0  0  0
  -24.8010  -28.9410   20.1730 C   0  0  0  0  0  0  0  0  0  0  0  0
  -25.8710  -30.8410   21.3970 C   0  0  0  0  0  2  0  0  0  0  0  0
  -25.9580  -29.4710   20.7590 C   0  0  0  0  0  0  0  0  0  0  0  0
  -27.1610  -28.7360   20.7420 C   0  0  0  0  0  3  0  0  0  0  0  0
  -26.0290  -26.9370   19.5560 C   0  0  0  0  0  3  0  0  0  0  0  0
  -24.8290  -27.6720   19.5730 C   0  0  0  0  0  3  0  0  0  0  0  0
  -23.5540  -29.7920   20.2180 C   0  0  0  0  0  2  0  0  0  0  0  0
  -24.6090  -31.0770   22.1370 N   0  0  0  0  0  0  0  0  0  0  0  0
  -23.4690  -32.1480   23.7770 O   0  0  0  0  0  0  0  0  0  0  0  0
  -22.6980  -29.4530   22.5550 C   0  0  0  0  0  0  0  0  0  0  0  0
  -21.3740  -29.2720   22.4260 N   0  0  0  0  0  0  0  0  0  0  0  0
  -23.3820  -28.8240   23.3670 O   0  0  0  0  0  0  0  0  0  0  0  0
  -20.8840  -29.8320   21.7420 H   0  0  0  0  0  0  0  0  0  0  0  0
  -17.9930  -28.1030   22.9260 C   0  0  0  0  0  0  0  0  0  0  0  0
  -20.5540  -28.3330   23.1910 C   0  0  0  0  0  3  0  0  0  0  0  0
  -20.6400  -26.9080   22.5970 C   0  0  0  0  0  2  0  0  0  0  0  0
  -19.5300  -26.6060   21.5860 C   0  0  0  0  0  2  0  0  0  0  0  0
  -18.1540  -26.7580   22.2370 C   0  0  0  0  0  2  0  0  0  0  0  0
  -19.1210  -28.8510   23.3590 C   0  0  0  0  0  0  0  0  0  0  0  0
  -18.9160  -30.1120   23.9580 C   0  0  0  0  0  3  0  0  0  0  0  0
  -17.6180  -30.6250   24.1320 C   0  0  0  0  0  3  0  0  0  0  0  0
  -16.5040  -29.8730   23.7170 C   0  0  0  0  0  3  0  0  0  0  0  0
  -16.6930  -28.6150   23.1190 C   0  0  0  0  0  3  0  0  0  0  0  0
  -25.8360  -32.5070   23.8630 C   0  0  0  0  0  3  0  0  0  0  0  0
  -25.5270  -33.9060   24.1830 N   0  0  0  0  0  0  0  0  0  0  0  0
  -25.8760  -34.9540   23.4260 C   0  0  0  0  0  0  0  0  0  0  0  0
  -26.5620  -34.8460   22.4060 O   0  0  0  0  0  0  0  0  0  0  0  0
  -24.9120  -34.0650   24.9680 H   0  0  0  0  0  0  0  0  0  0  0  0
  -24.1640  -36.7570   23.0420 C   0  0  0  0  0  1  0  0  0  0  0  0
  -25.3900  -36.3460   23.8740 C   0  0  0  0  0  3  0  0  0  0  0  0
  -27.5150  -37.2190   24.7410 C   0  0  0  0  0  1  0  0  0  0  0  0
  -26.4300  -37.3920   23.7780 N   0  0  0  0  0  0  0  0  0  0  0  0
  -26.0280  -38.3130   23.9170 H   0  0  0  0  0  0  0  0  0  0  0  0
  -26.3470  -31.7390   25.1440 C   0  0  1  0  0  0  0  0  0  0  0  0
  -25.2520  -31.5120   26.2100 C   0  0  0  0  0  1  0  0  0  0  0  0
  -26.9290  -30.3590   24.7560 C   0  0  0  0  0  1  0  0  0  0  0  0
  -27.4980  -32.5350   25.8060 C   0  0  0  0  0  1  0  0  0  0  0  0
  -29.5210  -18.5160   19.9440 C   0  0  0  0  0  2  0  0  0  0  0  0
  -30.8410  -17.7900   20.2940 C   0  0  0  0  0  2  0  0  0  0  0  0
  -30.7620  -16.7700   21.4560 C   0  0  0  0  0  2  0  0  0  0  0  0
  -30.7130  -14.4700   20.5180 C   0  0  0  0  0  0  0  0  0  0  0  0
  -30.3600  -12.3310   19.3590 C   0  0  0  0  0  2  0  0  0  0  0  0
  -29.4390  -12.5660   18.1460 C   0  0  0  0  0  2  0  0  0  0  0  0
  -27.9600  -12.4430   18.5560 C   0  0  0  0  0  2  0  0  0  0  0  0
  -27.6130  -13.2740   19.8210 C   0  0  0  0  0  3  0  0  0  0  0  0
  -28.6610  -13.0440   20.9360 C   0  0  0  0  0  2  0  0  0  0  0  0
  -29.9940  -13.3230   20.3790 N   0  0  0  0  0  0  0  0  0  0  0  0
  -31.8330  -14.6220   20.0290 O   0  0  0  0  0  0  0  0  0  0  0  0
  -30.1030  -15.4940   21.1340 N   0  0  0  0  0  0  0  0  0  0  0  0
  -29.1740  -15.3370   21.4940 H   0  0  0  0  0  0  0  0  0  0  0  0
  -25.2010  -13.8800   20.4990 C   0  0  0  0  0  0  0  0  0  0  0  0
  -24.1290  -13.1070   20.8590 C   0  0  0  0  0  0  0  0  0  0  0  0
  -24.5950  -11.7570   20.8440 C   0  0  0  0  0  0  0  0  0  0  0  0
  -26.2540  -13.0000   20.2890 N   0  0  0  0  0  0  0  0  0  0  0  0
  -25.8900  -11.7180   20.5530 N   0  0  0  0  0  0  0  0  0  0  0  0
  -23.8690  -10.4950   21.0310 C   0  0  0  0  0  0  0  0  0  0  0  0
  -24.2870   -9.5350   21.9790 C   0  0  0  0  0  3  0  0  0  0  0  0
  -23.5620   -8.3370   22.1540 C   0  0  0  0  0  3  0  0  0  0  0  0
  -22.4040   -8.0890   21.3800 C   0  0  0  0  0  0  0  0  0  0  0  0
  -22.0060   -9.0370   20.4210 C   0  0  0  0  0  3  0  0  0  0  0  0
  -22.7320  -10.2260   20.2450 C   0  0  0  0  0  3  0  0  0  0  0  0
  -21.6500   -6.9430   21.4660 O   0  0  0  0  0  0  0  0  0  0  0  0
  -21.5800   -6.2120   22.6230 C   0  0  0  0  0  0  0  0  0  0  0  0
  -21.1210   -6.7740   23.8350 C   0  0  0  0  0  3  0  0  0  0  0  0
  -20.9980   -5.9670   24.9830 C   0  0  0  0  0  3  0  0  0  0  0  0
  -21.3240   -4.5990   24.9230 C   0  0  0  0  0  0  0  0  0  0  0  0
  -21.7720   -4.0350   23.7160 C   0  0  0  0  0  3  0  0  0  0  0  0
  -21.8970   -4.8390   22.5690 C   0  0  0  0  0  0  0  0  0  0  0  0
  -22.3100   -4.2860   21.4040 F   0  0  0  0  0  0  0  0  0  0  0  0
  -21.1980   -3.8210   26.0230 F   0  0  0  0  0  0  0  0  0  0  0  0
  -22.7260  -13.5820   21.1050 C   0  0  0  0  0  0  0  0  0  0  0  0
  -21.9820  -12.8910   21.9630 N   0  0  0  0  0  0  0  0  0  0  0  0
  -22.2970  -14.6060   20.5720 O   0  0  0  0  0  0  0  0  0  0  0  0
  -22.3400  -12.0670   22.4240 H   0  0  0  0  0  0  0  0  0  0  0  0
  -21.0390  -13.1930   22.1630 H   0  0  0  0  0  0  0  0  0  0  0  0
  -25.3650  -15.2480   20.3090 N   0  0  0  0  0  0  0  0  0  0  0  0
  -24.5930  -15.9040   20.3870 H   0  0  0  0  0  0  0  0  0  0  0  0
  -26.2150  -15.6800   19.9680 H   0  0  0  0  0  0  0  0  0  0  0  0
  2  3  2  0
  3  1  1  0
  3  9  1  0
  4 53  1  0
  4  1  2  0
  5  4  1  0
  6  5  2  0
  6  2  1  0
  7  8  1  0
  8  5  1  0
 10  9  1  0
 11 12  1  0
 11 10  1  0
 12 14  1  0
 13 24  2  0
 14 19  1  0
 15 23  1  0
 15 25  1  0
 16 22  1  0
 16 18  1  0
 17 23  1  0
 18 17  1  0
 19 18  2  0
 20 21  1  0
 20 14  2  0
 21 16  2  0
 22 15  1  0
 23 13  1  0
 25 27  2  0
 26 25  1  0
 28 26  1  0
 29 38  2  0
 29 34  1  0
 30 26  1  0
 30 34  1  0
 31 30  1  0
 32 33  1  0
 32 31  1  0
 33 29  1  0
 34 35  2  0
 35 36  1  0
 37 36  2  0
 38 37  1  0
 39 13  1  0
 39 40  1  0
 39 49  1  0
 40 43  1  0
 41 45  1  0
 41 40  1  0
 42 41  2  0
 45 44  1  0
 47 45  1  0
 47 48  1  0
 47 46  1  0
 49 52  1  1
 49 50  1  0
 51 49  1  0
 53 54  1  0
 54 55  1  0
 56 64  1  0
 57 62  1  0
 58 59  1  0
 58 57  1  0
 60 59  1  0
 60 69  1  0
 60 61  1  0
 62 56  1  0
 62 61  1  0
 63 56  2  0
 64 55  1  0
 64 65  1  0
 66 67  2  0
 67 86  1  0
 68 67  1  0
 68 71  1  0
 69 66  1  0
 69 70  1  0
 70 68  2  0
 71 72  1  0
 72 73  2  0
 74 77  1  0
 74 73  1  0
 75 74  2  0
 76 75  1  0
 76 71  2  0
 77 78  1  0
 78 79  1  0
 79 80  2  0
 81 80  1  0
 81 85  1  0
 82 81  2  0
 83 78  2  0
 83 82  1  0
 84 83  1  0
 86 87  1  0
 87 90  1  0
 87 89  1  0
 88 86  2  0
 91 92  1  0
 91 66  1  0
 93 91  1  0
M  ISO  4  11 101  12 101  56 100  64 100
M  END
>  <TORSDO>  (41) 
F 23

>  <SCORE>  (41) 
-12.943

>  <name>  (41) 
41

>  <ligand_id>  (41) 
41

>  <original_smiles>  (41) 
[H]c1nc(C([H])([H])C([H])([H])[H])c(C([H])([H])C([H])([H])C([H])([H])N([H])C(=O)N2C([H])([H])C([H])([H])C([H])([H])C([H])(n3nc(-c4c([H])c([H])c(Oc5c([H])c([H])c(F)c([H])c5F)c([H])c4[H])c(C(=O)N([H])[H])c3N([H])[H])C2([H])[H])c([H])c1C([H])([H])C([H])([H])C([H])([H])Oc1c([H])c([H])c2c(c1[H])C([H])([H])N(C(=O)C([H])(N([H])C(=O)C([H])(N([H])C([H])([H])[H])C([H])([H])[H])C(C([H])([H])[H])(C([H])([H])[H])C([H])([H])[H])C([H])(C(=O)N([H])C1([H])c3c([H])c([H])c([H])c([H])c3C([H])([H])C([H])([H])C1([H])[H])C2([H])[H]

>  <smiles>  (41) 
[H]c1nc(C([H])([H])C([H])([H])[H])c(C([H])([H])C([H])([H])C([H])([H])N([H])C(=O)N2C([H])([H])C([H])([H])C([H])([H])C([H])(n3nc(-c4c([H])c([H])c(Oc5c([H])c([H])c(F)c([H])c5F)c([H])c4[H])c(C(=O)N([H])[H])c3N([H])[H])C2([H])[H])c([H])c1C([H])([H])C([H])([H])C([H])([H])Oc1c([H])c([H])c2c(c1[H])C([H])([H])N(C(=O)C([H])(N([H])C(=O)C([H])(N([H])C([H])([H])[H])C([H])([H])[H])C(C([H])([H])[H])(C([H])([H])[H])C([H])([H])[H])C([H])(C(=O)N([H])C1([H])c3c([H])c([H])c([H])c([H])c3C([H])([H])C([H])([H])C1([H])[H])C2([H])[H]

$$$$
42:0:0
     RDKit          3D

 96104  0  0  1  0  0  0  0  0999 V2000
  -28.9840  -22.6930   22.1100 C   0  0  0  0  0  3  0  0  0  0  0  0
  -29.6090  -21.6870   22.8810 C   0  0  0  0  0  0  0  0  0  0  0  0
  -28.8730  -22.1600   20.8550 C   0  0  0  0  0  0  0  0  0  0  0  0
  -29.9060  -20.6380   22.1450 N   0  0  0  0  0  0  0  0  0  0  0  0
  -29.4460  -20.8750   20.9010 N   0  0  0  0  0  0  0  0  0  0  0  0
  -29.9600  -21.6910   24.3440 C   0  0  0  0  0  2  0  0  0  0  0  0
  -29.8360  -20.2790   24.9520 C   0  0  0  0  0  2  0  0  0  0  0  0
  -32.1590  -19.5010   25.6050 C   0  0  0  0  0  1  0  0  0  0  0  0
  -30.6020  -17.9130   24.3370 C   0  0  0  0  0  1  0  0  0  0  0  0
  -31.0310  -19.3710   24.5730 C   0  0  0  0  0  3  0  0  0  0  0  0
  -28.2480  -22.8230   19.6510 C   0  0  0  0  0  2  0  0  0  0  0  0
  -28.4200  -24.3790   19.5720 C   0  0  0  0  0  2  0  0  0  0  0  0
  -27.1410  -25.2270   19.7990 C   0  0  0  0  0  2  0  0  0  0  0  0
  -27.3920  -26.6430   19.6380 O   0  0  0  0  0  0  0  0  0  0  0  0
  -24.6310  -32.1210   23.2800 C   0  0  0  0  0  0  0  0  0  0  0  0
  -26.3150  -27.5030   19.7910 C   0  0  0  0  0  0  0  0  0  0  0  0
  -23.0600  -30.8710   21.8440 C   0  0  0  0  0  3  0  0  0  0  0  0
  -24.1150  -29.2550   20.1820 C   0  0  0  0  0  0  0  0  0  0  0  0
  -25.5450  -31.0060   21.2380 C   0  0  0  0  0  2  0  0  0  0  0  0
  -25.4000  -29.6470   20.5790 C   0  0  0  0  0  0  0  0  0  0  0  0
  -26.5010  -28.7810   20.3720 C   0  0  0  0  0  3  0  0  0  0  0  0
  -25.0070  -27.1350   19.3920 C   0  0  0  0  0  3  0  0  0  0  0  0
  -23.9170  -28.0030   19.5820 C   0  0  0  0  0  3  0  0  0  0  0  0
  -22.9870  -30.2270   20.4350 C   0  0  0  0  0  2  0  0  0  0  0  0
  -24.4420  -31.3440   22.1770 N   0  0  0  0  0  0  0  0  0  0  0  0
  -23.6740  -32.4740   23.9850 O   0  0  0  0  0  0  0  0  0  0  0  0
  -22.4800  -29.8830   22.8820 C   0  0  0  0  0  0  0  0  0  0  0  0
  -21.1620  -29.6300   22.8040 N   0  0  0  0  0  0  0  0  0  0  0  0
  -23.2080  -29.3420   23.7180 O   0  0  0  0  0  0  0  0  0  0  0  0
  -20.6320  -30.1280   22.1020 H   0  0  0  0  0  0  0  0  0  0  0  0
  -17.9170  -28.1160   23.2880 C   0  0  0  0  0  0  0  0  0  0  0  0
  -20.4060  -28.7130   23.6560 C   0  0  0  0  0  3  0  0  0  0  0  0
  -20.7060  -27.2390   23.2910 C   0  0  0  0  0  2  0  0  0  0  0  0
  -19.7180  -26.6560   22.2770 C   0  0  0  0  0  2  0  0  0  0  0  0
  -18.2890  -26.7200   22.8220 C   0  0  0  0  0  2  0  0  0  0  0  0
  -18.9130  -29.0570   23.6660 C   0  0  0  0  0  0  0  0  0  0  0  0
  -18.5130  -30.3510   24.0590 C   0  0  0  0  0  3  0  0  0  0  0  0
  -17.1530  -30.7100   24.0850 C   0  0  0  0  0  3  0  0  0  0  0  0
  -16.1700  -29.7700   23.7270 C   0  0  0  0  0  3  0  0  0  0  0  0
  -16.5540  -28.4760   23.3320 C   0  0  0  0  0  3  0  0  0  0  0  0
  -26.0460  -32.6260   23.6930 C   0  0  0  0  0  3  0  0  0  0  0  0
  -26.6970  -31.7760   24.8530 C   0  0  1  0  0  0  0  0  0  0  0  0
  -25.7740  -31.5860   26.0790 C   0  0  0  0  0  1  0  0  0  0  0  0
  -27.0970  -30.3790   24.3290 C   0  0  0  0  0  1  0  0  0  0  0  0
  -28.0010  -32.4550   25.3310 C   0  0  0  0  0  1  0  0  0  0  0  0
  -25.9200  -34.0340   24.0910 N   0  0  0  0  0  0  0  0  0  0  0  0
  -26.2640  -35.0750   23.3250 C   0  0  0  0  0  0  0  0  0  0  0  0
  -26.7900  -34.9420   22.2170 O   0  0  0  0  0  0  0  0  0  0  0  0
  -25.4450  -34.2180   24.9620 H   0  0  0  0  0  0  0  0  0  0  0  0
  -24.6960  -37.0360   23.2150 C   0  0  0  0  0  1  0  0  0  0  0  0
  -25.9730  -36.4870   23.8710 C   0  0  0  0  0  3  0  0  0  0  0  0
  -28.2650  -37.1210   24.4730 C   0  0  0  0  0  1  0  0  0  0  0  0
  -27.0870  -37.4380   23.6680 N   0  0  0  0  0  0  0  0  0  0  0  0
  -26.8010  -38.3870   23.8920 H   0  0  0  0  0  0  0  0  0  0  0  0
  -29.5770  -19.7920   19.8930 C   0  0  0  0  0  2  0  0  0  0  0  0
  -31.5510  -18.4580   20.9080 C   0  0  0  0  0  1  0  0  0  0  0  0
  -30.0890  -18.3800   20.4220 C   0  0  0  0  0  3  0  0  0  0  0  0
  -29.9510  -17.2080   19.3930 C   0  0  0  0  0  2  0  0  0  0  0  0
  -30.5010  -14.7410   19.5260 C   0  0  0  0  0  0  0  0  0  0  0  0
  -30.1350  -12.4940   18.5620 C   0  0  0  0  0  2  0  0  0  0  0  0
  -29.0800  -12.6010   17.4400 C   0  0  0  0  0  2  0  0  0  0  0  0
  -27.6650  -12.4390   18.0220 C   0  0  0  0  0  2  0  0  0  0  0  0
  -27.4240  -13.3550   19.2530 C   0  0  0  0  0  3  0  0  0  0  0  0
  -28.5870  -13.2530   20.2690 C   0  0  0  0  0  2  0  0  0  0  0  0
  -29.8420  -13.5430   19.5600 N   0  0  0  0  0  0  0  0  0  0  0  0
  -31.5780  -14.8770   18.9430 O   0  0  0  0  0  0  0  0  0  0  0  0
  -29.8170  -15.8310   19.9590 N   0  0  0  0  0  0  0  0  0  0  0  0
  -28.9780  -15.6400   20.4840 H   0  0  0  0  0  0  0  0  0  0  0  0
  -25.1250  -13.9640   20.2320 C   0  0  0  0  0  0  0  0  0  0  0  0
  -24.0940  -13.1950   20.6980 C   0  0  0  0  0  0  0  0  0  0  0  0
  -24.5310  -11.8390   20.5850 C   0  0  0  0  0  0  0  0  0  0  0  0
  -26.1290  -13.0790   19.8730 N   0  0  0  0  0  0  0  0  0  0  0  0
  -25.7810  -11.7940   20.1420 N   0  0  0  0  0  0  0  0  0  0  0  0
  -23.8120  -10.5800   20.8220 C   0  0  0  0  0  0  0  0  0  0  0  0
  -24.3010   -9.6100   21.7260 C   0  0  0  0  0  3  0  0  0  0  0  0
  -23.5830   -8.4150   21.9520 C   0  0  0  0  0  3  0  0  0  0  0  0
  -22.3630   -8.1830   21.2740 C   0  0  0  0  0  0  0  0  0  0  0  0
  -21.8910   -9.1400   20.3600 C   0  0  0  0  0  3  0  0  0  0  0  0
  -22.6090  -10.3250   20.1320 C   0  0  0  0  0  3  0  0  0  0  0  0
  -21.6130   -7.0400   21.4090 O   0  0  0  0  0  0  0  0  0  0  0  0
  -21.5890   -6.3280   22.5820 C   0  0  0  0  0  0  0  0  0  0  0  0
  -21.1910   -6.9170   23.8010 C   0  0  0  0  0  3  0  0  0  0  0  0
  -21.1160   -6.1330   24.9690 C   0  0  0  0  0  3  0  0  0  0  0  0
  -21.4280   -4.7600   24.9180 C   0  0  0  0  0  0  0  0  0  0  0  0
  -21.8170   -4.1720   23.7020 C   0  0  0  0  0  3  0  0  0  0  0  0
  -21.8940   -4.9530   22.5370 C   0  0  0  0  0  0  0  0  0  0  0  0
  -22.2510   -4.3760   21.3640 F   0  0  0  0  0  0  0  0  0  0  0  0
  -21.3470   -4.0060   26.0380 F   0  0  0  0  0  0  0  0  0  0  0  0
  -22.7410  -13.6820   21.1320 C   0  0  0  0  0  0  0  0  0  0  0  0
  -22.1140  -12.9840   22.0740 N   0  0  0  0  0  0  0  0  0  0  0  0
  -22.2510  -14.7100   20.6680 O   0  0  0  0  0  0  0  0  0  0  0  0
  -22.5280  -12.1540   22.4680 H   0  0  0  0  0  0  0  0  0  0  0  0
  -21.2130  -13.2920   22.4080 H   0  0  0  0  0  0  0  0  0  0  0  0
  -25.2910  -15.3350   20.0660 N   0  0  0  0  0  0  0  0  0  0  0  0
  -24.5540  -16.0020   20.2630 H   0  0  0  0  0  0  0  0  0  0  0  0
  -26.1140  -15.7640   19.6590 H   0  0  0  0  0  0  0  0  0  0  0  0
  1  2  1  0
  2  6  1  0
  3  5  1  0
  3  1  2  0
  4  2  2  0
  5  4  1  0
  6  7  1  0
  9 10  1  0
 10  7  1  0
 10  8  1  0
 11  3  1  0
 12 11  1  0
 12 13  1  0
 14 16  1  0
 14 13  1  0
 15 26  2  0
 16 21  1  0
 17 25  1  0
 17 27  1  0
 18 24  1  0
 18 20  1  0
 19 25  1  0
 20 19  1  0
 21 20  2  0
 22 23  1  0
 22 16  2  0
 23 18  2  0
 24 17  1  0
 25 15  1  0
 27 29  2  0
 28 27  1  0
 30 28  1  0
 31 40  2  0
 31 36  1  0
 32 28  1  0
 32 36  1  0
 33 32  1  0
 34 35  1  0
 34 33  1  0
 35 31  1  0
 36 37  2  0
 37 38  1  0
 39 38  2  0
 40 39  1  0
 41 15  1  0
 41 46  1  0
 41 42  1  0
 42 45  1  1
 42 43  1  0
 44 42  1  0
 46 49  1  0
 47 51  1  0
 47 46  1  0
 48 47  2  0
 51 50  1  0
 53 51  1  0
 53 54  1  0
 53 52  1  0
 55 57  1  0
 55  5  1  0
 57 56  1  0
 58 67  1  0
 58 57  1  0
 59 65  1  0
 59 67  1  0
 60 65  1  0
 61 62  1  0
 61 60  1  0
 63 62  1  0
 63 72  1  0
 63 64  1  0
 65 64  1  0
 66 59  2  0
 67 68  1  0
 69 70  2  0
 70 89  1  0
 71 70  1  0
 71 74  1  0
 72 73  1  0
 72 69  1  0
 73 71  2  0
 74 75  1  0
 75 76  2  0
 77 80  1  0
 77 76  1  0
 78 77  2  0
 79 78  1  0
 79 74  2  0
 80 81  1  0
 81 82  1  0
 82 83  2  0
 84 83  1  0
 84 88  1  0
 85 84  2  0
 86 81  2  0
 86 85  1  0
 87 86  1  0
 89 90  1  0
 90 93  1  0
 90 92  1  0
 91 89  2  0
 94 69  1  0
 94 95  1  0
 96 94  1  0
M  ISO  4  13 101  14 101  59 100  67 100
M  END
>  <TORSDO>  (42) 
F 25

>  <SCORE>  (42) 
-3.512

>  <name>  (42) 
42

>  <ligand_id>  (42) 
42

>  <original_smiles>  (42) 
[H]c1c([H])c([H])c2c(c1[H])C([H])([H])C([H])([H])C([H])([H])C2([H])N([H])C(=O)C1([H])N(C(=O)C([H])(N([H])C(=O)C([H])(N([H])C([H])([H])[H])C([H])([H])[H])C(C([H])([H])[H])(C([H])([H])[H])C([H])([H])[H])C([H])([H])c2c([H])c(OC([H])([H])C([H])([H])C([H])([H])c3c([H])c(C([H])([H])C([H])([H])C([H])(C([H])([H])[H])C([H])([H])[H])nn3C([H])([H])C([H])(C([H])([H])[H])C([H])([H])N([H])C(=O)N3C([H])([H])C([H])([H])C([H])([H])C([H])(n4nc(-c5c([H])c([H])c(Oc6c([H])c([H])c(F)c([H])c6F)c([H])c5[H])c(C(=O)N([H])[H])c4N([H])[H])C3([H])[H])c([H])c([H])c2C1([H])[H]

>  <smiles>  (42) 
[H]c1c([H])c([H])c2c(c1[H])C([H])([H])C([H])([H])C([H])([H])C2([H])N([H])C(=O)C1([H])N(C(=O)C([H])(N([H])C(=O)C([H])(N([H])C([H])([H])[H])C([H])([H])[H])C(C([H])([H])[H])(C([H])([H])[H])C([H])([H])[H])C([H])([H])c2c([H])c(OC([H])([H])C([H])([H])C([H])([H])c3c([H])c(C([H])([H])C([H])([H])C([H])(C([H])([H])[H])C([H])([H])[H])nn3C([H])([H])C([H])(C([H])([H])[H])C([H])([H])N([H])C(=O)N3C([H])([H])C([H])([H])C([H])([H])C([H])(n4nc(-c5c([H])c([H])c(Oc6c([H])c([H])c(F)c([H])c6F)c([H])c5[H])c(C(=O)N([H])[H])c4N([H])[H])C3([H])[H])c([H])c([H])c2C1([H])[H]

$$$$
44:0:0
     RDKit          3D

 92100  0  0  1  0  0  0  0  0999 V2000
  -27.9360  -19.7020   19.3340 C   0  0  0  0  0  3  0  0  0  0  0  0
  -27.0380  -20.7530   19.0790 C   0  0  0  0  0  3  0  0  0  0  0  0
  -29.5320  -21.3410   20.1490 C   0  0  0  0  0  3  0  0  0  0  0  0
  -29.1880  -19.9430   19.9260 C   0  0  0  0  0  0  0  0  0  0  0  0
  -27.3350  -22.0940   19.4070 C   0  0  0  0  0  0  0  0  0  0  0  0
  -28.6310  -22.4550   19.8770 C   0  0  0  0  0  0  0  0  0  0  0  0
  -25.1110  -22.8040   20.4140 C   0  0  0  0  0  1  0  0  0  0  0  0
  -26.1690  -23.0780   19.3360 C   0  0  0  0  0  2  0  0  0  0  0  0
  -29.5090  -18.3620   21.8870 C   0  0  0  0  0  1  0  0  0  0  0  0
  -29.9990  -18.6800   20.4650 C   0  0  0  0  0  3  0  0  0  0  0  0
  -30.0800  -17.3220   19.5810 C   0  0  0  0  0  2  0  0  0  0  0  0
  -30.8350  -14.8420   20.0110 C   0  0  0  0  0  0  0  0  0  0  0  0
  -30.6540  -12.5100   19.1510 C   0  0  0  0  0  2  0  0  0  0  0  0
  -29.6870  -12.5210   17.9450 C   0  0  0  0  0  2  0  0  0  0  0  0
  -28.2290  -12.3600   18.4160 C   0  0  0  0  0  2  0  0  0  0  0  0
  -27.8740  -13.3060   19.5930 C   0  0  0  0  0  3  0  0  0  0  0  0
  -28.9570  -13.2760   20.6950 C   0  0  0  0  0  2  0  0  0  0  0  0
  -30.2430  -13.6020   20.0630 N   0  0  0  0  0  0  0  0  0  0  0  0
  -31.9810  -14.9690   19.5740 O   0  0  0  0  0  0  0  0  0  0  0  0
  -30.0310  -15.9420   20.2300 N   0  0  0  0  0  0  0  0  0  0  0  0
  -29.1420  -15.7150   20.6510 H   0  0  0  0  0  0  0  0  0  0  0  0
  -25.5260  -13.9260   20.4230 C   0  0  0  0  0  0  0  0  0  0  0  0
  -24.4620  -13.1620   20.8220 C   0  0  0  0  0  0  0  0  0  0  0  0
  -24.8990  -11.8040   20.7430 C   0  0  0  0  0  0  0  0  0  0  0  0
  -26.5430  -13.0330   20.1280 N   0  0  0  0  0  0  0  0  0  0  0  0
  -26.1750  -11.7500   20.3810 N   0  0  0  0  0  0  0  0  0  0  0  0
  -24.1580  -10.5510   20.9380 C   0  0  0  0  0  0  0  0  0  0  0  0
  -24.5630   -9.5930   21.8940 C   0  0  0  0  0  3  0  0  0  0  0  0
  -23.8240   -8.4040   22.0740 C   0  0  0  0  0  3  0  0  0  0  0  0
  -22.6650   -8.1640   21.2990 C   0  0  0  0  0  0  0  0  0  0  0  0
  -22.2780   -9.1110   20.3330 C   0  0  0  0  0  3  0  0  0  0  0  0
  -23.0180  -10.2910   20.1510 C   0  0  0  0  0  3  0  0  0  0  0  0
  -21.9000   -7.0270   21.3870 O   0  0  0  0  0  0  0  0  0  0  0  0
  -21.7620   -6.3420   22.5680 C   0  0  0  0  0  0  0  0  0  0  0  0
  -21.2120   -6.9460   23.7200 C   0  0  0  0  0  3  0  0  0  0  0  0
  -21.0260   -6.1850   24.8920 C   0  0  0  0  0  3  0  0  0  0  0  0
  -21.3780   -4.8220   24.9110 C   0  0  0  0  0  0  0  0  0  0  0  0
  -21.9200   -4.2180   23.7630 C   0  0  0  0  0  3  0  0  0  0  0  0
  -22.1080   -4.9750   22.5940 C   0  0  0  0  0  0  0  0  0  0  0  0
  -22.6110   -4.3830   21.4830 F   0  0  0  0  0  0  0  0  0  0  0  0
  -21.1920   -4.0890   26.0340 F   0  0  0  0  0  0  0  0  0  0  0  0
  -23.0860  -13.6580   21.1610 C   0  0  0  0  0  0  0  0  0  0  0  0
  -22.3890  -12.9660   22.0550 N   0  0  0  0  0  0  0  0  0  0  0  0
  -22.6400  -14.6940   20.6690 O   0  0  0  0  0  0  0  0  0  0  0  0
  -22.7620  -12.1260   22.4720 H   0  0  0  0  0  0  0  0  0  0  0  0
  -21.4670  -13.2780   22.3250 H   0  0  0  0  0  0  0  0  0  0  0  0
  -25.7090  -15.2970   20.2660 N   0  0  0  0  0  0  0  0  0  0  0  0
  -24.9580  -15.9620   20.4180 H   0  0  0  0  0  0  0  0  0  0  0  0
  -26.5440  -15.7240   19.8890 H   0  0  0  0  0  0  0  0  0  0  0  0
  -28.9430  -23.9760   20.2590 C   0  0  0  0  0  3  0  0  0  0  0  0
  -28.7830  -25.1910   19.2020 C   0  0  0  0  0  3  0  0  0  0  0  0
  -28.6850  -26.6190   19.6560 O   0  0  0  0  0  0  0  0  0  0  0  0
  -24.6710  -31.6330   22.9760 C   0  0  0  0  0  0  0  0  0  0  0  0
  -27.5020  -27.3890   19.6390 C   0  0  0  0  0  0  0  0  0  0  0  0
  -23.5330  -30.2790   21.2530 C   0  0  0  0  0  3  0  0  0  0  0  0
  -25.0540  -28.8910   19.7320 C   0  0  0  0  0  0  0  0  0  0  0  0
  -26.0540  -30.7320   21.0880 C   0  0  0  0  0  2  0  0  0  0  0  0
  -26.2000  -29.3980   20.3570 C   0  0  0  0  0  0  0  0  0  0  0  0
  -27.4210  -28.6590   20.3030 C   0  0  0  0  0  3  0  0  0  0  0  0
  -26.3260  -26.9430   18.9930 C   0  0  0  0  0  3  0  0  0  0  0  0
  -25.1210  -27.6710   19.0410 C   0  0  0  0  0  3  0  0  0  0  0  0
  -23.7750  -29.6980   19.8340 C   0  0  0  0  0  2  0  0  0  0  0  0
  -24.7700  -30.8970   21.8290 N   0  0  0  0  0  0  0  0  0  0  0  0
  -23.5760  -31.8220   23.5280 O   0  0  0  0  0  0  0  0  0  0  0  0
  -22.9270  -29.1730   22.1510 C   0  0  0  0  0  0  0  0  0  0  0  0
  -21.6010  -28.9730   22.0540 N   0  0  0  0  0  0  0  0  0  0  0  0
  -23.6480  -28.5020   22.8930 O   0  0  0  0  0  0  0  0  0  0  0  0
  -21.0780  -29.5720   21.4300 H   0  0  0  0  0  0  0  0  0  0  0  0
  -18.2680  -27.6770   22.5900 C   0  0  0  0  0  0  0  0  0  0  0  0
  -20.8310  -27.9570   22.7720 C   0  0  0  0  0  3  0  0  0  0  0  0
  -20.9270  -26.5830   22.0680 C   0  0  0  0  0  2  0  0  0  0  0  0
  -19.7870  -26.3330   21.0760 C   0  0  0  0  0  2  0  0  0  0  0  0
  -18.4320  -26.3970   21.7870 C   0  0  0  0  0  2  0  0  0  0  0  0
  -19.3940  -28.4180   23.0380 C   0  0  0  0  0  0  0  0  0  0  0  0
  -19.1860  -29.6190   23.7500 C   0  0  0  0  0  3  0  0  0  0  0  0
  -17.8840  -30.0810   24.0180 C   0  0  0  0  0  3  0  0  0  0  0  0
  -16.7720  -29.3360   23.5870 C   0  0  0  0  0  3  0  0  0  0  0  0
  -16.9660  -28.1360   22.8780 C   0  0  0  0  0  3  0  0  0  0  0  0
  -25.9220  -32.2910   23.6360 C   0  0  0  0  0  3  0  0  0  0  0  0
  -25.5410  -33.6470   24.0550 N   0  0  0  0  0  0  0  0  0  0  0  0
  -25.8230  -34.7640   23.3710 C   0  0  0  0  0  0  0  0  0  0  0  0
  -26.5000  -34.7630   22.3400 O   0  0  0  0  0  0  0  0  0  0  0  0
  -24.9380  -33.7180   24.8620 H   0  0  0  0  0  0  0  0  0  0  0  0
  -24.0130  -36.4940   23.1250 C   0  0  0  0  0  1  0  0  0  0  0  0
  -25.2670  -36.0930   23.9190 C   0  0  0  0  0  3  0  0  0  0  0  0
  -27.3440  -37.0240   24.8390 C   0  0  0  0  0  1  0  0  0  0  0  0
  -26.2490  -37.1980   23.8890 N   0  0  0  0  0  0  0  0  0  0  0  0
  -25.7960  -38.0870   24.0860 H   0  0  0  0  0  0  0  0  0  0  0  0
  -26.4830  -31.4700   24.8610 C   0  0  1  0  0  0  0  0  0  0  0  0
  -25.4110  -31.1180   25.9200 C   0  0  0  0  0  1  0  0  0  0  0  0
  -27.1230  -30.1450   24.3850 C   0  0  0  0  0  1  0  0  0  0  0  0
  -27.6040  -32.2730   25.5620 C   0  0  0  0  0  1  0  0  0  0  0  0
  1  4  1  0
  2  1  2  0
  2  5  1  0
  4  3  2  0
  4 10  1  0
  5  6  2  0
  6  3  1  0
  6 50  1  0
  8  5  1  0
  8  7  1  0
 10  9  1  0
 11 20  1  0
 11 10  1  0
 12 18  1  0
 12 20  1  0
 13 18  1  0
 14 15  1  0
 14 13  1  0
 16 15  1  0
 16 25  1  0
 16 17  1  0
 18 17  1  0
 19 12  2  0
 20 21  1  0
 22 23  2  0
 23 42  1  0
 24 23  1  0
 24 27  1  0
 25 26  1  0
 25 22  1  0
 26 24  2  0
 27 28  1  0
 28 29  2  0
 30 33  1  0
 30 29  1  0
 31 30  2  0
 32 31  1  0
 32 27  2  0
 33 34  1  0
 34 39  2  0
 34 35  1  0
 35 36  2  0
 36 37  1  0
 37 41  1  0
 38 37  2  0
 39 38  1  0
 40 39  1  0
 42 43  1  0
 43 46  1  0
 43 45  1  0
 44 42  2  0
 47 48  1  0
 47 22  1  0
 49 47  1  0
 51 52  1  0
 51 50  2  0
 53 64  2  0
 54 52  1  0
 54 59  1  0
 55 63  1  0
 55 65  1  0
 56 62  1  0
 56 58  1  0
 57 63  1  0
 58 57  1  0
 59 58  2  0
 60 61  1  0
 60 54  2  0
 61 56  2  0
 62 55  1  0
 63 53  1  0
 65 67  2  0
 66 65  1  0
 68 66  1  0
 69 78  2  0
 69 74  1  0
 70 66  1  0
 70 74  1  0
 71 70  1  0
 72 73  1  0
 72 71  1  0
 73 69  1  0
 74 75  2  0
 75 76  1  0
 77 76  2  0
 78 77  1  0
 79 53  1  0
 79 80  1  0
 79 89  1  0
 80 83  1  0
 81 85  1  0
 81 80  1  0
 82 81  2  0
 85 84  1  0
 87 85  1  0
 87 88  1  0
 87 86  1  0
 89 92  1  1
 89 90  1  0
 91 89  1  0
M  ISO  4  12 100  20 100  51 101  52 101
M  END
>  <TORSDO>  (43) 
F 21

>  <SCORE>  (43) 
-11.654

>  <name>  (43) 
44

>  <ligand_id>  (43) 
44

>  <original_smiles>  (43) 
[H]c1c([H])c([H])c2c(c1[H])C([H])([H])C([H])([H])C([H])([H])C2([H])N([H])C(=O)C1([H])N(C(=O)C([H])(N([H])C(=O)C([H])(N([H])C([H])([H])[H])C([H])([H])[H])C(C([H])([H])[H])(C([H])([H])[H])C([H])([H])[H])C([H])([H])c2c([H])c(OC([H])([H])C([H])([H])c3c([H])c(C([H])(C([H])([H])[H])C([H])([H])N([H])C(=O)N4C([H])([H])C([H])([H])C([H])([H])C([H])(n5nc(-c6c([H])c([H])c(Oc7c([H])c([H])c(F)c([H])c7F)c([H])c6[H])c(C(=O)N([H])[H])c5N([H])[H])C4([H])[H])c([H])c([H])c3C([H])([H])C([H])([H])[H])c([H])c([H])c2C1([H])[H]

>  <smiles>  (43) 
[H]c1c([H])c([H])c2c(c1[H])C([H])([H])C([H])([H])C([H])([H])C2([H])N([H])C(=O)C1([H])N(C(=O)C([H])(N([H])C(=O)C([H])(N([H])C([H])([H])[H])C([H])([H])[H])C(C([H])([H])[H])(C([H])([H])[H])C([H])([H])[H])C([H])([H])c2c([H])c(OC([H])([H])C([H])([H])c3c([H])c(C([H])(C([H])([H])[H])C([H])([H])N([H])C(=O)N4C([H])([H])C([H])([H])C([H])([H])C([H])(n5nc(-c6c([H])c([H])c(Oc7c([H])c([H])c(F)c([H])c7F)c([H])c6[H])c(C(=O)N([H])[H])c5N([H])[H])C4([H])[H])c([H])c([H])c3C([H])([H])C([H])([H])[H])c([H])c([H])c2C1([H])[H]

$$$$
45:0:0
     RDKit          3D

 91 99  0  0  1  0  0  0  0  0999 V2000
  -29.7670  -20.9860   19.6710 C   0  0  0  0  0  3  0  0  0  0  0  0
  -29.1850  -19.7610   19.4390 C   0  0  0  0  0  0  0  0  0  0  0  0
  -27.7800  -20.0140   19.3600 C   0  0  0  0  0  0  0  0  0  0  0  0
  -27.5750  -21.3670   19.5400 C   0  0  0  0  0  0  0  0  0  0  0  0
  -26.7220  -18.9750   19.0870 C   0  0  0  0  0  1  0  0  0  0  0  0
  -26.2970  -22.1530   19.5460 C   0  0  0  0  0  1  0  0  0  0  0  0
  -28.8070  -21.9880   19.7220 N   0  0  0  0  0  0  0  0  0  0  0  0
  -29.9500  -18.4480   19.1850 C   0  0  0  0  0  3  0  0  0  0  0  0
  -29.8620  -17.2050   20.1660 C   0  0  0  0  0  3  0  0  0  0  0  0
  -31.0860  -14.9770   20.3660 C   0  0  0  0  0  0  0  0  0  0  0  0
  -30.9300  -12.5970   19.7530 C   0  0  0  0  0  2  0  0  0  0  0  0
  -30.0750  -12.4460   18.4750 C   0  0  0  0  0  2  0  0  0  0  0  0
  -28.5780  -12.3720   18.8170 C   0  0  0  0  0  2  0  0  0  0  0  0
  -28.1200  -13.4550   19.8310 C   0  0  0  0  0  3  0  0  0  0  0  0
  -29.0950  -13.5790   21.0210 C   0  0  0  0  0  2  0  0  0  0  0  0
  -30.4390  -13.7820   20.4720 N   0  0  0  0  0  0  0  0  0  0  0  0
  -32.3180  -15.0370   20.3360 O   0  0  0  0  0  0  0  0  0  0  0  0
  -30.8400  -15.9810   18.2100 C   0  0  0  0  0  1  0  0  0  0  0  0
  -30.4100  -15.9100   19.6230 N   0  0  0  0  0  0  0  0  0  0  0  0
  -25.7250  -14.1420   20.4580 C   0  0  0  0  0  0  0  0  0  0  0  0
  -24.6150  -13.4070   20.7750 C   0  0  0  0  0  0  0  0  0  0  0  0
  -25.0300  -12.0400   20.7640 C   0  0  0  0  0  0  0  0  0  0  0  0
  -26.7460  -13.2250   20.2700 N   0  0  0  0  0  0  0  0  0  0  0  0
  -26.3310  -11.9570   20.5200 N   0  0  0  0  0  0  0  0  0  0  0  0
  -24.2510  -10.8030   20.9140 C   0  0  0  0  0  0  0  0  0  0  0  0
  -24.6110   -9.8150   21.8560 C   0  0  0  0  0  3  0  0  0  0  0  0
  -23.8390   -8.6430   21.9940 C   0  0  0  0  0  3  0  0  0  0  0  0
  -22.6910   -8.4500   21.1890 C   0  0  0  0  0  0  0  0  0  0  0  0
  -22.3500   -9.4260   20.2350 C   0  0  0  0  0  3  0  0  0  0  0  0
  -23.1240  -10.5900   20.0950 C   0  0  0  0  0  3  0  0  0  0  0  0
  -21.8950   -7.3310   21.2350 O   0  0  0  0  0  0  0  0  0  0  0  0
  -21.7710   -6.5820   22.3780 C   0  0  0  0  0  0  0  0  0  0  0  0
  -21.3070   -7.1440   23.5880 C   0  0  0  0  0  3  0  0  0  0  0  0
  -21.1290   -6.3240   24.7210 C   0  0  0  0  0  3  0  0  0  0  0  0
  -21.4030   -4.9450   24.6440 C   0  0  0  0  0  0  0  0  0  0  0  0
  -21.8590   -4.3850   23.4380 C   0  0  0  0  0  3  0  0  0  0  0  0
  -22.0400   -5.2010   22.3080 C   0  0  0  0  0  0  0  0  0  0  0  0
  -22.4600   -4.6520   21.1420 F   0  0  0  0  0  0  0  0  0  0  0  0
  -21.2260   -4.1570   25.7290 F   0  0  0  0  0  0  0  0  0  0  0  0
  -23.2240  -13.9330   20.9770 C   0  0  0  0  0  0  0  0  0  0  0  0
  -22.4370  -13.2730   21.8210 N   0  0  0  0  0  0  0  0  0  0  0  0
  -22.8410  -14.9610   20.4220 O   0  0  0  0  0  0  0  0  0  0  0  0
  -22.7590  -12.4410   22.2890 H   0  0  0  0  0  0  0  0  0  0  0  0
  -21.5000  -13.6080   21.9970 H   0  0  0  0  0  0  0  0  0  0  0  0
  -25.9480  -15.5040   20.2850 N   0  0  0  0  0  0  0  0  0  0  0  0
  -25.2000  -16.1860   20.3490 H   0  0  0  0  0  0  0  0  0  0  0  0
  -26.8290  -15.9000   19.9810 H   0  0  0  0  0  0  0  0  0  0  0  0
  -29.0870  -23.4230   19.9890 C   0  0  0  0  0  2  0  0  0  0  0  0
  -28.5350  -24.4490   18.9500 C   0  0  0  0  0  2  0  0  0  0  0  0
  -29.2690  -25.8360   18.8570 C   0  0  0  0  0  2  0  0  0  0  0  0
  -28.9520  -26.8760   19.8160 O   0  0  0  0  0  0  0  0  0  0  0  0
  -24.5890  -31.5380   23.0260 C   0  0  0  0  0  0  0  0  0  0  0  0
  -27.7280  -27.5310   19.7670 C   0  0  0  0  0  0  0  0  0  0  0  0
  -23.5830  -30.1700   21.2300 C   0  0  0  0  0  3  0  0  0  0  0  0
  -25.2220  -28.8700   19.7690 C   0  0  0  0  0  0  0  0  0  0  0  0
  -26.0800  -30.7360   21.1900 C   0  0  0  0  0  2  0  0  0  0  0  0
  -26.3060  -29.4240   20.4580 C   0  0  0  0  0  0  0  0  0  0  0  0
  -27.5580  -28.7590   20.4610 C   0  0  0  0  0  3  0  0  0  0  0  0
  -26.6190  -27.0060   19.0650 C   0  0  0  0  0  3  0  0  0  0  0  0
  -25.3750  -27.6630   19.0700 C   0  0  0  0  0  3  0  0  0  0  0  0
  -23.9100  -29.6220   19.8160 C   0  0  0  0  0  2  0  0  0  0  0  0
  -24.7650  -30.8270   21.8750 N   0  0  0  0  0  0  0  0  0  0  0  0
  -23.4640  -31.6810   23.5270 O   0  0  0  0  0  0  0  0  0  0  0  0
  -22.9790  -29.0280   22.0790 C   0  0  0  0  0  0  0  0  0  0  0  0
  -21.6670  -28.7910   21.9180 N   0  0  0  0  0  0  0  0  0  0  0  0
  -23.6890  -28.3650   22.8400 O   0  0  0  0  0  0  0  0  0  0  0  0
  -21.1560  -29.3840   21.2800 H   0  0  0  0  0  0  0  0  0  0  0  0
  -18.3400  -27.4390   22.3210 C   0  0  0  0  0  0  0  0  0  0  0  0
  -20.8940  -27.7420   22.5830 C   0  0  0  0  0  3  0  0  0  0  0  0
  -21.0290  -26.3950   21.8360 C   0  0  0  0  0  2  0  0  0  0  0  0
  -19.9170  -26.1620   20.8090 C   0  0  0  0  0  2  0  0  0  0  0  0
  -18.5430  -26.1850   21.4850 C   0  0  0  0  0  2  0  0  0  0  0  0
  -19.4440  -28.1780   22.8220 C   0  0  0  0  0  0  0  0  0  0  0  0
  -19.1980  -29.3550   23.5620 C   0  0  0  0  0  3  0  0  0  0  0  0
  -17.8830  -29.7910   23.8080 C   0  0  0  0  0  3  0  0  0  0  0  0
  -16.7950  -29.0460   23.3230 C   0  0  0  0  0  3  0  0  0  0  0  0
  -17.0240  -27.8720   22.5840 C   0  0  0  0  0  3  0  0  0  0  0  0
  -25.7860  -32.2230   23.7550 C   0  0  0  0  0  3  0  0  0  0  0  0
  -25.3770  -33.5950   24.0820 N   0  0  0  0  0  0  0  0  0  0  0  0
  -25.7060  -34.6790   23.3660 C   0  0  0  0  0  0  0  0  0  0  0  0
  -26.4560  -34.6330   22.3870 O   0  0  0  0  0  0  0  0  0  0  0  0
  -24.7160  -33.7030   24.8370 H   0  0  0  0  0  0  0  0  0  0  0  0
  -23.9030  -36.3760   22.9220 C   0  0  0  0  0  1  0  0  0  0  0  0
  -25.1090  -36.0290   23.8090 C   0  0  0  0  0  3  0  0  0  0  0  0
  -27.1250  -37.0230   24.7960 C   0  0  0  0  0  1  0  0  0  0  0  0
  -26.0840  -37.1420   23.7790 N   0  0  0  0  0  0  0  0  0  0  0  0
  -25.6150  -38.0350   23.9080 H   0  0  0  0  0  0  0  0  0  0  0  0
  -26.2460  -31.4550   25.0530 C   0  0  1  0  0  0  0  0  0  0  0  0
  -25.0890  -31.1450   26.0330 C   0  0  0  0  0  1  0  0  0  0  0  0
  -26.9260  -30.1170   24.6820 C   0  0  0  0  0  1  0  0  0  0  0  0
  -27.3030  -32.2940   25.8120 C   0  0  0  0  0  1  0  0  0  0  0  0
  1  7  1  0
  2  1  2  0
  3  2  1  0
  3  4  2  0
  4  6  1  0
  4  7  1  0
  5  3  1  0
  7 48  1  0
  8  2  1  0
  8  9  2  0
 10 16  1  0
 11 16  1  0
 12 13  1  0
 12 11  1  0
 14 13  1  0
 14 23  1  0
 14 15  1  0
 16 15  1  0
 17 10  2  0
 18 19  1  0
 19  9  1  0
 19 10  1  0
 20 21  2  0
 21 40  1  0
 22 21  1  0
 22 25  1  0
 23 20  1  0
 23 24  1  0
 24 22  2  0
 25 26  1  0
 26 27  2  0
 28 31  1  0
 28 27  1  0
 29 28  2  0
 30 29  1  0
 30 25  2  0
 31 32  1  0
 32 33  1  0
 33 34  2  0
 35 34  1  0
 35 39  1  0
 36 35  2  0
 37 32  2  0
 37 36  1  0
 38 37  1  0
 40 41  1  0
 41 44  1  0
 41 43  1  0
 42 40  2  0
 45 46  1  0
 45 20  1  0
 47 45  1  0
 49 48  1  0
 50 49  1  0
 50 51  1  0
 52 63  2  0
 53 51  1  0
 53 58  1  0
 54 62  1  0
 54 64  1  0
 55 61  1  0
 55 57  1  0
 56 62  1  0
 57 58  2  0
 57 56  1  0
 59 60  1  0
 59 53  2  0
 60 55  2  0
 61 54  1  0
 62 52  1  0
 64 66  2  0
 65 64  1  0
 67 65  1  0
 68 77  2  0
 68 73  1  0
 69 65  1  0
 69 73  1  0
 70 69  1  0
 71 72  1  0
 71 70  1  0
 72 68  1  0
 73 74  2  0
 74 75  1  0
 76 75  2  0
 77 76  1  0
 78 52  1  0
 78 79  1  0
 78 88  1  0
 79 82  1  0
 80 84  1  0
 80 79  1  0
 81 80  2  0
 84 83  1  0
 86 84  1  0
 86 87  1  0
 86 85  1  0
 88 91  1  1
 88 89  1  0
 90 88  1  0
M  ISO  4  10 100  19 100  50 101  51 101
M  END
>  <TORSDO>  (44) 
F 21

>  <SCORE>  (44) 
-11.633

>  <name>  (44) 
45

>  <ligand_id>  (44) 
45

>  <original_smiles>  (44) 
[H]c1c([H])c([H])c2c(c1[H])C([H])([H])C([H])([H])C([H])([H])C2([H])N([H])C(=O)C1([H])N(C(=O)C([H])(N([H])C(=O)C([H])(N([H])C([H])([H])[H])C([H])([H])[H])C(C([H])([H])[H])(C([H])([H])[H])C([H])([H])[H])C([H])([H])c2c([H])c(OC([H])([H])C([H])([H])C([H])([H])n3c([H])c(C([H])([H])C([H])([H])N(C(=O)N4C([H])([H])C([H])([H])C([H])([H])C([H])(n5nc(-c6c([H])c([H])c(Oc7c([H])c([H])c(F)c([H])c7F)c([H])c6[H])c(C(=O)N([H])[H])c5N([H])[H])C4([H])[H])C([H])([H])[H])c(C([H])([H])[H])c3C([H])([H])[H])c([H])c([H])c2C1([H])[H]

>  <smiles>  (44) 
[H]c1c([H])c([H])c2c(c1[H])C([H])([H])C([H])([H])C([H])([H])C2([H])N([H])C(=O)C1([H])N(C(=O)C([H])(N([H])C(=O)C([H])(N([H])C([H])([H])[H])C([H])([H])[H])C(C([H])([H])[H])(C([H])([H])[H])C([H])([H])[H])C([H])([H])c2c([H])c(OC([H])([H])C([H])([H])C([H])([H])n3c([H])c(C([H])([H])C([H])([H])N(C(=O)N4C([H])([H])C([H])([H])C([H])([H])C([H])(n5nc(-c6c([H])c([H])c(Oc7c([H])c([H])c(F)c([H])c7F)c([H])c6[H])c(C(=O)N([H])[H])c5N([H])[H])C4([H])[H])C([H])([H])[H])c(C([H])([H])[H])c3C([H])([H])[H])c([H])c([H])c2C1([H])[H]

$$$$
46:0:0
     RDKit          3D

 94102  0  0  1  0  0  0  0  0999 V2000
  -29.5950  -19.8360   19.6190 C   0  0  0  0  0  3  0  0  0  0  0  0
  -28.5640  -20.8190   19.3740 C   0  0  0  0  0  0  0  0  0  0  0  0
  -27.2600  -20.2820   19.1290 C   0  0  0  0  0  0  0  0  0  0  0  0
  -29.3580  -18.4130   19.6030 C   0  0  0  0  0  0  0  0  0  0  0  0
  -27.1100  -18.8630   19.0930 C   0  0  0  0  0  0  0  0  0  0  0  0
  -28.1130  -17.9770   19.3220 N   0  0  0  0  0  0  0  0  0  0  0  0
  -24.9370  -17.8670   20.0170 C   0  0  0  0  0  1  0  0  0  0  0  0
  -25.7650  -18.2040   18.7690 C   0  0  0  0  0  2  0  0  0  0  0  0
  -28.9370  -22.3560   19.2030 C   0  0  0  0  0  2  0  0  0  0  0  0
  -28.3220  -23.5600   20.0800 C   0  0  0  0  0  3  0  0  0  0  0  0
  -28.3940  -25.0350   19.4490 C   0  0  0  0  0  3  0  0  0  0  0  0
  -28.1900  -26.2350   20.3050 O   0  0  0  0  0  0  0  0  0  0  0  0
  -24.5060  -31.7090   23.2650 C   0  0  0  0  0  0  0  0  0  0  0  0
  -27.0610  -27.0750   20.2300 C   0  0  0  0  0  0  0  0  0  0  0  0
  -23.2970  -30.3440   21.6200 C   0  0  0  0  0  3  0  0  0  0  0  0
  -24.7290  -28.7670   20.1920 C   0  0  0  0  0  0  0  0  0  0  0  0
  -25.8520  -30.5850   21.4670 C   0  0  0  0  0  2  0  0  0  0  0  0
  -25.9080  -29.2160   20.8000 C   0  0  0  0  0  0  0  0  0  0  0  0
  -27.0760  -28.3890   20.7970 C   0  0  0  0  0  3  0  0  0  0  0  0
  -25.8470  -26.6580   19.6350 C   0  0  0  0  0  3  0  0  0  0  0  0
  -24.7080  -27.4930   19.5980 C   0  0  0  0  0  3  0  0  0  0  0  0
  -23.5080  -29.6880   20.2370 C   0  0  0  0  0  2  0  0  0  0  0  0
  -24.5740  -30.8880   22.1790 N   0  0  0  0  0  0  0  0  0  0  0  0
  -23.4170  -32.0180   23.7760 O   0  0  0  0  0  0  0  0  0  0  0  0
  -22.5960  -29.3270   22.5510 C   0  0  0  0  0  0  0  0  0  0  0  0
  -21.2660  -29.1940   22.4080 N   0  0  0  0  0  0  0  0  0  0  0  0
  -23.2430  -28.6650   23.3660 O   0  0  0  0  0  0  0  0  0  0  0  0
  -20.7960  -29.7680   21.7220 H   0  0  0  0  0  0  0  0  0  0  0  0
  -17.8460  -28.1330   22.9030 C   0  0  0  0  0  0  0  0  0  0  0  0
  -20.4150  -28.2770   23.1630 C   0  0  0  0  0  3  0  0  0  0  0  0
  -20.4580  -26.8540   22.5630 C   0  0  0  0  0  2  0  0  0  0  0  0
  -19.3400  -26.5970   21.5470 C   0  0  0  0  0  2  0  0  0  0  0  0
  -17.9630  -26.7870   22.1980 C   0  0  0  0  0  2  0  0  0  0  0  0
  -19.0000  -28.8370   23.3390 C   0  0  0  0  0  0  0  0  0  0  0  0
  -18.8480  -30.0970   23.9560 C   0  0  0  0  0  3  0  0  0  0  0  0
  -17.5710  -30.6570   24.1410 C   0  0  0  0  0  3  0  0  0  0  0  0
  -16.4300  -29.9540   23.7200 C   0  0  0  0  0  3  0  0  0  0  0  0
  -16.5660  -28.6930   23.1080 C   0  0  0  0  0  3  0  0  0  0  0  0
  -25.7860  -32.3220   23.9030 C   0  0  0  0  0  3  0  0  0  0  0  0
  -25.5010  -33.7320   24.2050 N   0  0  0  0  0  0  0  0  0  0  0  0
  -25.8650  -34.7670   23.4370 C   0  0  0  0  0  0  0  0  0  0  0  0
  -26.5520  -34.6350   22.4200 O   0  0  0  0  0  0  0  0  0  0  0  0
  -24.9010  -33.9160   24.9970 H   0  0  0  0  0  0  0  0  0  0  0  0
  -24.1690  -36.5860   23.0360 C   0  0  0  0  0  1  0  0  0  0  0  0
  -25.3950  -36.1710   23.8630 C   0  0  0  0  0  3  0  0  0  0  0  0
  -27.5330  -37.0400   24.6980 C   0  0  0  0  0  1  0  0  0  0  0  0
  -26.4440  -37.2070   23.7410 N   0  0  0  0  0  0  0  0  0  0  0  0
  -26.0480  -38.1350   23.8730 H   0  0  0  0  0  0  0  0  0  0  0  0
  -26.2420  -31.5560   25.2060 C   0  0  1  0  0  0  0  0  0  0  0  0
  -25.1100  -31.3560   26.2430 C   0  0  0  0  0  1  0  0  0  0  0  0
  -26.8070  -30.1600   24.8540 C   0  0  0  0  0  1  0  0  0  0  0  0
  -27.3890  -32.3360   25.8930 C   0  0  0  0  0  1  0  0  0  0  0  0
  -26.0140  -21.1610   18.8880 C   0  0  0  0  0  2  0  0  0  0  0  0
  -24.4650  -22.1830   17.0860 C   0  0  0  0  0  1  0  0  0  0  0  0
  -25.8810  -21.6940   17.4560 C   0  0  0  0  0  2  0  0  0  0  0  0
  -30.5060  -17.3090   19.7580 C   0  0  0  0  0  2  0  0  0  0  0  0
  -31.0750  -14.8190   20.2190 C   0  0  0  0  0  0  0  0  0  0  0  0
  -30.8770  -12.4940   19.2840 C   0  0  0  0  0  2  0  0  0  0  0  0
  -29.9240  -12.5010   18.0660 C   0  0  0  0  0  2  0  0  0  0  0  0
  -28.4540  -12.3600   18.5060 C   0  0  0  0  0  2  0  0  0  0  0  0
  -28.1090  -13.3010   19.6900 C   0  0  0  0  0  3  0  0  0  0  0  0
  -29.1650  -13.2180   20.8060 C   0  0  0  0  0  2  0  0  0  0  0  0
  -30.4500  -13.5840   20.1990 N   0  0  0  0  0  0  0  0  0  0  0  0
  -32.2150  -14.9030   19.7490 O   0  0  0  0  0  0  0  0  0  0  0  0
  -29.9330  -16.2090   21.9100 C   0  0  0  0  0  1  0  0  0  0  0  0
  -30.3340  -15.9760   20.5110 N   0  0  0  0  0  0  0  0  0  0  0  0
  -25.7790  -13.9850   20.5010 C   0  0  0  0  0  0  0  0  0  0  0  0
  -24.6830  -13.2620   20.8650 C   0  0  0  0  0  0  0  0  0  0  0  0
  -25.0660  -11.8870   20.7630 C   0  0  0  0  0  0  0  0  0  0  0  0
  -26.7650  -13.0650   20.1990 N   0  0  0  0  0  0  0  0  0  0  0  0
  -26.3440  -11.7910   20.4190 N   0  0  0  0  0  0  0  0  0  0  0  0
  -24.2740  -10.6620   20.9180 C   0  0  0  0  0  0  0  0  0  0  0  0
  -24.6820   -9.6210   21.7820 C   0  0  0  0  0  3  0  0  0  0  0  0
  -23.8910   -8.4630   21.9260 C   0  0  0  0  0  3  0  0  0  0  0  0
  -22.6780   -8.3350   21.2050 C   0  0  0  0  0  0  0  0  0  0  0  0
  -22.2910   -9.3640   20.3290 C   0  0  0  0  0  3  0  0  0  0  0  0
  -23.0820  -10.5140   20.1810 C   0  0  0  0  0  3  0  0  0  0  0  0
  -21.8630   -7.2330   21.2600 O   0  0  0  0  0  0  0  0  0  0  0  0
  -21.8100   -6.4330   22.3740 C   0  0  0  0  0  0  0  0  0  0  0  0
  -21.4650   -6.9470   23.6420 C   0  0  0  0  0  3  0  0  0  0  0  0
  -21.3520   -6.0800   24.7470 C   0  0  0  0  0  3  0  0  0  0  0  0
  -21.5740   -4.6990   24.5840 C   0  0  0  0  0  0  0  0  0  0  0  0
  -21.9150   -4.1850   23.3210 C   0  0  0  0  0  3  0  0  0  0  0  0
  -22.0260   -5.0500   22.2170 C   0  0  0  0  0  0  0  0  0  0  0  0
  -22.3330   -4.5460   20.9980 F   0  0  0  0  0  0  0  0  0  0  0  0
  -21.4590   -3.8640   25.6420 F   0  0  0  0  0  0  0  0  0  0  0  0
  -23.3240  -13.8020   21.2020 C   0  0  0  0  0  0  0  0  0  0  0  0
  -22.5980  -13.1200   22.0770 N   0  0  0  0  0  0  0  0  0  0  0  0
  -22.9230  -14.8670   20.7310 O   0  0  0  0  0  0  0  0  0  0  0  0
  -22.9440  -12.2580   22.4740 H   0  0  0  0  0  0  0  0  0  0  0  0
  -21.6870  -13.4590   22.3510 H   0  0  0  0  0  0  0  0  0  0  0  0
  -26.0170  -15.3500   20.3760 N   0  0  0  0  0  0  0  0  0  0  0  0
  -25.2980  -16.0370   20.5570 H   0  0  0  0  0  0  0  0  0  0  0  0
  -26.9070  -15.7580   20.1200 H   0  0  0  0  0  0  0  0  0  0  0  0
  2  1  2  0
  3  2  1  0
  4  1  1  0
  4 56  1  0
  5  3  2  0
  5  6  1  0
  6  4  2  0
  8  5  1  0
  8  7  1  0
  9  2  1  0
  9 10  1  0
 11 10  2  0
 11 12  1  0
 13 24  2  0
 14 12  1  0
 14 19  1  0
 15 23  1  0
 15 25  1  0
 16 22  1  0
 16 18  1  0
 17 23  1  0
 18 17  1  0
 19 18  2  0
 20 14  2  0
 21 20  1  0
 21 16  2  0
 22 15  1  0
 23 13  1  0
 25 27  2  0
 26 25  1  0
 28 26  1  0
 29 38  2  0
 29 34  1  0
 30 26  1  0
 30 34  1  0
 31 30  1  0
 32 33  1  0
 32 31  1  0
 33 29  1  0
 34 35  2  0
 35 36  1  0
 37 36  2  0
 38 37  1  0
 39 13  1  0
 39 40  1  0
 39 49  1  0
 40 43  1  0
 41 45  1  0
 41 40  1  0
 42 41  2  0
 45 44  1  0
 47 45  1  0
 47 48  1  0
 47 46  1  0
 49 52  1  1
 49 50  1  0
 51 49  1  0
 53  3  1  0
 54 55  1  0
 55 53  1  0
 56 66  1  0
 57 66  1  0
 58 63  1  0
 59 60  1  0
 59 58  1  0
 61 60  1  0
 61 70  1  0
 61 62  1  0
 63 57  1  0
 63 62  1  0
 64 57  2  0
 66 65  1  0
 67 68  2  0
 68 87  1  0
 69 68  1  0
 69 72  1  0
 70 71  1  0
 70 67  1  0
 71 69  2  0
 72 73  1  0
 73 74  2  0
 75 78  1  0
 75 74  1  0
 76 75  2  0
 77 76  1  0
 77 72  2  0
 78 79  1  0
 79 80  1  0
 80 81  2  0
 82 81  1  0
 82 86  1  0
 83 82  2  0
 84 79  2  0
 84 83  1  0
 85 84  1  0
 87 88  1  0
 88 91  1  0
 88 90  1  0
 89 87  2  0
 92 67  1  0
 92 93  1  0
 94 92  1  0
M  ISO  4  11 101  12 101  57 100  66 100
M  END
>  <TORSDO>  (45) 
F 23

>  <SCORE>  (45) 
-10.791

>  <name>  (45) 
46

>  <ligand_id>  (45) 
46

>  <original_smiles>  (45) 
[H]c1c([H])c([H])c2c(c1[H])C([H])([H])C([H])([H])C([H])([H])C2([H])N([H])C(=O)C1([H])N(C(=O)C([H])(N([H])C(=O)C([H])(N([H])C([H])([H])[H])C([H])([H])[H])C(C([H])([H])[H])(C([H])([H])[H])C([H])([H])[H])C([H])([H])c2c([H])c(OC([H])([H])C([H])([H])C([H])([H])c3c([H])c(C([H])([H])N(C(=O)N4C([H])([H])C([H])([H])C([H])([H])C([H])(n5nc(-c6c([H])c([H])c(Oc7c([H])c([H])c(F)c([H])c7F)c([H])c6[H])c(C(=O)N([H])[H])c5N([H])[H])C4([H])[H])C([H])([H])[H])nc(C([H])([H])C([H])([H])[H])c3C([H])([H])C([H])([H])C([H])([H])[H])c([H])c([H])c2C1([H])[H]

>  <smiles>  (45) 
[H]c1c([H])c([H])c2c(c1[H])C([H])([H])C([H])([H])C([H])([H])C2([H])N([H])C(=O)C1([H])N(C(=O)C([H])(N([H])C(=O)C([H])(N([H])C([H])([H])[H])C([H])([H])[H])C(C([H])([H])[H])(C([H])([H])[H])C([H])([H])[H])C([H])([H])c2c([H])c(OC([H])([H])C([H])([H])C([H])([H])c3c([H])c(C([H])([H])N(C(=O)N4C([H])([H])C([H])([H])C([H])([H])C([H])(n5nc(-c6c([H])c([H])c(Oc7c([H])c([H])c(F)c([H])c7F)c([H])c6[H])c(C(=O)N([H])[H])c5N([H])[H])C4([H])[H])C([H])([H])[H])nc(C([H])([H])C([H])([H])[H])c3C([H])([H])C([H])([H])C([H])([H])[H])c([H])c([H])c2C1([H])[H]

$$$$
47:0:0
     RDKit          3D

 98106  0  0  1  0  0  0  0  0999 V2000
  -31.8410  -20.9790   18.6880 C   0  0  0  0  0  2  0  0  0  0  0  0
  -32.7930  -21.5940   17.6370 C   0  0  0  0  0  2  0  0  0  0  0  0
  -33.1650  -23.2420   15.8540 C   0  0  0  0  0  1  0  0  0  0  0  0
  -32.3190  -22.8620   17.0100 N   0  0  2  0  0  4  0  0  0  0  0  0
  -31.4160  -22.6670   16.6060 H   0  0  0  0  0  0  0  0  0  0  0  0
  -32.1220  -23.9900   17.9620 C   0  0  0  0  0  2  0  0  0  0  0  0
  -30.6260  -24.3190   18.1160 C   0  0  0  0  0  2  0  0  0  0  0  0
  -30.3150  -25.3700   19.1970 C   0  0  0  0  0  2  0  0  0  0  0  0
  -28.8130  -25.6920   19.2740 C   0  0  0  0  0  2  0  0  0  0  0  0
  -28.6060  -26.7600   20.1940 O   0  0  0  0  0  0  0  0  0  0  0  0
  -24.5460  -31.7250   23.2680 C   0  0  0  0  0  0  0  0  0  0  0  0
  -27.3870  -27.4070   20.1820 C   0  0  0  0  0  0  0  0  0  0  0  0
  -23.4290  -30.3540   21.5410 C   0  0  0  0  0  3  0  0  0  0  0  0
  -24.9600  -28.8670   20.1490 C   0  0  0  0  0  0  0  0  0  0  0  0
  -25.9540  -30.7420   21.4660 C   0  0  0  0  0  2  0  0  0  0  0  0
  -26.0820  -29.3880   20.8030 C   0  0  0  0  0  0  0  0  0  0  0  0
  -27.2910  -28.6600   20.8260 C   0  0  0  0  0  3  0  0  0  0  0  0
  -26.2360  -26.8840   19.5430 C   0  0  0  0  0  3  0  0  0  0  0  0
  -25.0310  -27.6100   19.5230 C   0  0  0  0  0  3  0  0  0  0  0  0
  -23.7070  -29.7110   20.1590 C   0  0  0  0  0  2  0  0  0  0  0  0
  -24.6580  -30.9530   22.1530 N   0  0  0  0  0  0  0  0  0  0  0  0
  -23.4380  -31.9710   23.7660 O   0  0  0  0  0  0  0  0  0  0  0  0
  -22.7490  -29.2990   22.4430 C   0  0  0  0  0  0  0  0  0  0  0  0
  -21.4270  -29.1270   22.2700 N   0  0  0  0  0  0  0  0  0  0  0  0
  -23.4060  -28.6390   23.2520 O   0  0  0  0  0  0  0  0  0  0  0  0
  -20.9590  -29.7100   21.5910 H   0  0  0  0  0  0  0  0  0  0  0  0
  -18.0310  -27.9670   22.6550 C   0  0  0  0  0  0  0  0  0  0  0  0
  -20.5870  -28.1660   22.9810 C   0  0  0  0  0  3  0  0  0  0  0  0
  -20.6770  -26.7630   22.3370 C   0  0  0  0  0  2  0  0  0  0  0  0
  -19.5890  -26.5070   21.2920 C   0  0  0  0  0  2  0  0  0  0  0  0
  -18.1990  -26.6460   21.9200 C   0  0  0  0  0  2  0  0  0  0  0  0
  -19.1540  -28.6880   23.1390 C   0  0  0  0  0  0  0  0  0  0  0  0
  -18.9460  -29.9300   23.7810 C   0  0  0  0  0  3  0  0  0  0  0  0
  -17.6470  -30.4450   23.9490 C   0  0  0  0  0  3  0  0  0  0  0  0
  -16.5380  -29.7180   23.4840 C   0  0  0  0  0  3  0  0  0  0  0  0
  -16.7300  -28.4820   22.8390 C   0  0  0  0  0  3  0  0  0  0  0  0
  -25.7960  -32.3520   23.9590 C   0  0  0  0  0  3  0  0  0  0  0  0
  -26.2570  -31.5630   25.2460 C   0  0  1  0  0  0  0  0  0  0  0  0
  -25.1140  -31.2990   26.2530 C   0  0  0  0  0  1  0  0  0  0  0  0
  -26.8700  -30.1990   24.8570 C   0  0  0  0  0  1  0  0  0  0  0  0
  -27.3650  -32.3550   25.9800 C   0  0  0  0  0  1  0  0  0  0  0  0
  -25.4660  -33.7420   24.2930 N   0  0  0  0  0  0  0  0  0  0  0  0
  -25.8300  -34.8070   23.5630 C   0  0  0  0  0  0  0  0  0  0  0  0
  -26.5480  -34.7210   22.5650 O   0  0  0  0  0  0  0  0  0  0  0  0
  -24.8390  -33.8850   25.0700 H   0  0  0  0  0  0  0  0  0  0  0  0
  -24.1150  -36.5910   23.1460 C   0  0  0  0  0  1  0  0  0  0  0  0
  -25.3130  -36.1830   24.0160 C   0  0  0  0  0  3  0  0  0  0  0  0
  -27.3930  -37.0670   24.9750 C   0  0  0  0  0  1  0  0  0  0  0  0
  -26.3450  -37.2410   23.9740 N   0  0  0  0  0  0  0  0  0  0  0  0
  -25.9250  -38.1570   24.1120 H   0  0  0  0  0  0  0  0  0  0  0  0
  -30.5720  -20.3210   18.1150 C   0  0  0  0  0  2  0  0  0  0  0  0
  -29.9930  -18.1220   19.2340 C   0  0  0  0  0  3  0  0  0  0  0  0
  -29.8190  -19.5220   19.1740 C   0  0  0  0  0  0  0  0  0  0  0  0
  -29.2650  -17.4070   20.2070 C   0  0  0  0  0  0  0  0  0  0  0  0
  -28.9250  -20.0980   20.1190 C   0  0  0  0  0  0  0  0  0  0  0  0
  -28.4580  -18.0240   21.1010 N   0  0  0  0  0  0  0  0  0  0  0  0
  -28.2970  -19.3490   21.0580 N   0  0  0  0  0  0  0  0  0  0  0  0
  -29.2240  -22.3670   21.2730 C   0  0  0  0  0  1  0  0  0  0  0  0
  -28.5460  -21.5720   20.1470 C   0  0  0  0  0  2  0  0  0  0  0  0
  -29.2190  -15.8880   20.2240 C   0  0  0  0  0  2  0  0  0  0  0  0
  -30.8620  -14.1510   19.6630 C   0  0  0  0  0  0  0  0  0  0  0  0
  -30.4640  -11.8510   18.8450 C   0  0  0  0  0  2  0  0  0  0  0  0
  -29.4470  -11.8290   17.6890 C   0  0  0  0  0  2  0  0  0  0  0  0
  -28.0090  -11.7200   18.2340 C   0  0  0  0  0  2  0  0  0  0  0  0
  -27.7270  -12.7710   19.3340 C   0  0  0  0  0  3  0  0  0  0  0  0
  -28.8500  -12.7790   20.3990 C   0  0  0  0  0  2  0  0  0  0  0  0
  -30.1400  -12.9920   19.7180 N   0  0  0  0  0  0  0  0  0  0  0  0
  -31.8980  -14.2490   18.9990 O   0  0  0  0  0  0  0  0  0  0  0  0
  -31.4980  -15.9220   21.2080 C   0  0  0  0  0  1  0  0  0  0  0  0
  -30.4790  -15.1640   20.4740 N   0  0  0  0  0  0  0  0  0  0  0  0
  -25.4780  -13.5460   20.3130 C   0  0  0  0  0  0  0  0  0  0  0  0
  -24.3890  -12.8450   20.7600 C   0  0  0  0  0  0  0  0  0  0  0  0
  -24.7320  -11.4650   20.6330 C   0  0  0  0  0  0  0  0  0  0  0  0
  -26.4130  -12.5930   19.9410 N   0  0  0  0  0  0  0  0  0  0  0  0
  -25.9750  -11.3350   20.1930 N   0  0  0  0  0  0  0  0  0  0  0  0
  -23.9290  -10.2560   20.8440 C   0  0  0  0  0  0  0  0  0  0  0  0
  -24.3270   -9.2610   21.7630 C   0  0  0  0  0  3  0  0  0  0  0  0
  -23.5300   -8.1130   21.9630 C   0  0  0  0  0  3  0  0  0  0  0  0
  -22.3220   -7.9530   21.2420 C   0  0  0  0  0  0  0  0  0  0  0  0
  -21.9430   -8.9360   20.3100 C   0  0  0  0  0  3  0  0  0  0  0  0
  -22.7400  -10.0750   20.1090 C   0  0  0  0  0  3  0  0  0  0  0  0
  -21.4960   -6.8600   21.3510 O   0  0  0  0  0  0  0  0  0  0  0  0
  -21.3910   -6.1540   22.5230 C   0  0  0  0  0  0  0  0  0  0  0  0
  -20.9510   -6.7590   23.7200 C   0  0  0  0  0  3  0  0  0  0  0  0
  -20.7870   -5.9790   24.8820 C   0  0  0  0  0  3  0  0  0  0  0  0
  -21.0550   -4.5970   24.8470 C   0  0  0  0  0  0  0  0  0  0  0  0
  -21.4880   -3.9930   23.6540 C   0  0  0  0  0  3  0  0  0  0  0  0
  -21.6530   -4.7700   22.4950 C   0  0  0  0  0  0  0  0  0  0  0  0
  -22.0500   -4.1800   21.3410 F   0  0  0  0  0  0  0  0  0  0  0  0
  -20.8910   -3.8450   25.9610 F   0  0  0  0  0  0  0  0  0  0  0  0
  -23.0690  -13.4160   21.1890 C   0  0  0  0  0  0  0  0  0  0  0  0
  -22.3750  -12.7390   22.0960 N   0  0  0  0  0  0  0  0  0  0  0  0
  -22.6660  -14.4950   20.7550 O   0  0  0  0  0  0  0  0  0  0  0  0
  -22.7160  -11.8640   22.4660 H   0  0  0  0  0  0  0  0  0  0  0  0
  -21.4900  -13.1000   22.4260 H   0  0  0  0  0  0  0  0  0  0  0  0
  -25.7420  -14.9050   20.1690 N   0  0  0  0  0  0  0  0  0  0  0  0
  -25.0380  -15.6130   20.3490 H   0  0  0  0  0  0  0  0  0  0  0  0
  -26.5750  -15.2800   19.7370 H   0  0  0  0  0  0  0  0  0  0  0  0
  2  1  1  0
  3  4  1  0
  4  2  1  0
  4  6  1  0
  4  5  1  6
  6  7  1  0
  7  8  1  0
  8  9  1  0
  9 10  1  0
 11 22  2  0
 12 10  1  0
 12 17  1  0
 13 21  1  0
 13 23  1  0
 14 20  1  0
 14 16  1  0
 15 21  1  0
 16 17  2  0
 16 15  1  0
 18 12  2  0
 19 18  1  0
 19 14  2  0
 20 13  1  0
 21 11  1  0
 23 25  2  0
 24 23  1  0
 26 24  1  0
 27 36  2  0
 27 32  1  0
 28 24  1  0
 28 32  1  0
 29 28  1  0
 30 31  1  0
 30 29  1  0
 31 27  1  0
 32 33  2  0
 33 34  1  0
 35 34  2  0
 36 35  1  0
 37 11  1  0
 37 42  1  0
 37 38  1  0
 38 41  1  1
 38 39  1  0
 40 38  1  0
 42 45  1  0
 43 47  1  0
 43 42  1  0
 44 43  2  0
 47 46  1  0
 49 47  1  0
 49 50  1  0
 49 48  1  0
 51  1  1  0
 51 53  1  0
 52 54  1  0
 53 52  2  0
 53 55  1  0
 54 60  1  0
 54 56  2  0
 55 59  1  0
 55 57  2  0
 57 56  1  0
 59 58  1  0
 60 70  1  0
 61 67  1  0
 61 70  1  0
 62 67  1  0
 63 64  1  0
 63 62  1  0
 65 64  1  0
 65 74  1  0
 65 66  1  0
 67 66  1  0
 68 61  2  0
 70 69  1  0
 71 72  2  0
 72 91  1  0
 73 72  1  0
 73 76  1  0
 74 75  1  0
 74 71  1  0
 75 73  2  0
 76 77  1  0
 77 78  2  0
 79 82  1  0
 79 78  1  0
 80 79  2  0
 81 80  1  0
 81 76  2  0
 82 83  1  0
 83 84  1  0
 84 85  2  0
 86 85  1  0
 86 90  1  0
 87 86  2  0
 88 83  2  0
 88 87  1  0
 89 88  1  0
 91 92  1  0
 92 95  1  0
 92 94  1  0
 93 91  2  0
 96 71  1  0
 96 97  1  0
 98 96  1  0
M  ISO  4   9 101  10 101  61 100  70 100
M  END
>  <TORSDO>  (46) 
F 26

>  <SCORE>  (46) 
-10.813

>  <name>  (46) 
47

>  <ligand_id>  (46) 
47

>  <original_smiles>  (46) 
[H]c1c([H])c([H])c2c(c1[H])C([H])([H])C([H])([H])C([H])([H])C2([H])N([H])C(=O)C1([H])N(C(=O)C([H])(N([H])C(=O)C([H])(N([H])C([H])([H])[H])C([H])([H])[H])C(C([H])([H])[H])(C([H])([H])[H])C([H])([H])[H])C([H])([H])c2c([H])c(OC([H])([H])C([H])([H])C([H])([H])C([H])([H])[N+]([H])(C([H])([H])[H])C([H])([H])C([H])([H])C([H])([H])c3c(C([H])([H])C([H])([H])[H])nnc(C([H])([H])N(C(=O)N4C([H])([H])C([H])([H])C([H])([H])C([H])(n5nc(-c6c([H])c([H])c(Oc7c([H])c([H])c(F)c([H])c7F)c([H])c6[H])c(C(=O)N([H])[H])c5N([H])[H])C4([H])[H])C([H])([H])[H])c3[H])c([H])c([H])c2C1([H])[H]

>  <smiles>  (46) 
[H]c1c([H])c([H])c2c(c1[H])C([H])([H])C([H])([H])C([H])([H])C2([H])N([H])C(=O)C1([H])N(C(=O)C([H])(N([H])C(=O)C([H])(N([H])C([H])([H])[H])C([H])([H])[H])C(C([H])([H])[H])(C([H])([H])[H])C([H])([H])[H])C([H])([H])c2c([H])c(OC([H])([H])C([H])([H])C([H])([H])C([H])([H])[N+]([H])(C([H])([H])[H])C([H])([H])C([H])([H])C([H])([H])c3c(C([H])([H])C([H])([H])[H])nnc(C([H])([H])N(C(=O)N4C([H])([H])C([H])([H])C([H])([H])C([H])(n5nc(-c6c([H])c([H])c(Oc7c([H])c([H])c(F)c([H])c7F)c([H])c6[H])c(C(=O)N([H])[H])c5N([H])[H])C4([H])[H])C([H])([H])[H])c3[H])c([H])c([H])c2C1([H])[H]

$$$$
48:0:0
     RDKit          3D

 96104  0  0  1  0  0  0  0  0999 V2000
  -29.5150  -17.8910   19.5360 C   0  0  0  0  0  3  0  0  0  0  0  0
  -29.2590  -18.9780   18.6780 C   0  0  0  0  0  0  0  0  0  0  0  0
  -29.6140  -20.2840   19.1190 C   0  0  0  0  0  0  0  0  0  0  0  0
  -30.1250  -18.1090   20.7800 C   0  0  0  0  0  0  0  0  0  0  0  0
  -30.1380  -20.4440   20.4330 C   0  0  0  0  0  0  0  0  0  0  0  0
  -30.3850  -19.3670   21.2330 N   0  0  0  0  0  0  0  0  0  0  0  0
  -27.0940  -18.9100   17.3810 C   0  0  0  0  0  1  0  0  0  0  0  0
  -28.9630  -17.3380   16.7060 C   0  0  0  0  0  1  0  0  0  0  0  0
  -28.6160  -18.7140   17.3070 C   0  0  0  0  0  3  0  0  0  0  0  0
  -29.4930  -21.4780   18.1670 C   0  0  0  0  0  2  0  0  0  0  0  0
  -30.6010  -22.7490   16.2540 C   0  0  0  0  0  1  0  0  0  0  0  0
  -30.7600  -21.6560   17.3140 C   0  0  0  0  0  2  0  0  0  0  0  0
  -30.5540  -21.8340   20.9900 C   0  0  0  0  0  2  0  0  0  0  0  0
  -29.4080  -22.8370   21.3670 C   0  0  0  0  0  2  0  0  0  0  0  0
  -29.7510  -24.3670   21.2350 C   0  0  0  0  0  2  0  0  0  0  0  0
  -28.5360  -25.2530   20.8190 C   0  0  0  0  0  2  0  0  0  0  0  0
  -28.7010  -26.7020   20.8370 O   0  0  0  0  0  0  0  0  0  0  0  0
  -24.5940  -32.0040   23.3970 C   0  0  0  0  0  0  0  0  0  0  0  0
  -27.5360  -27.4590   20.6970 C   0  0  0  0  0  0  0  0  0  0  0  0
  -23.5340  -30.4960   21.7540 C   0  0  0  0  0  3  0  0  0  0  0  0
  -25.1140  -28.9440   20.4880 C   0  0  0  0  0  0  0  0  0  0  0  0
  -26.0650  -30.9080   21.6990 C   0  0  0  0  0  2  0  0  0  0  0  0
  -26.2270  -29.5100   21.1240 C   0  0  0  0  0  0  0  0  0  0  0  0
  -27.4420  -28.7790   21.2190 C   0  0  0  0  0  3  0  0  0  0  0  0
  -26.3950  -26.9310   20.0430 C   0  0  0  0  0  3  0  0  0  0  0  0
  -25.1980  -27.6570   19.9430 C   0  0  0  0  0  3  0  0  0  0  0  0
  -23.8480  -29.7700   20.4210 C   0  0  0  0  0  2  0  0  0  0  0  0
  -24.7460  -31.1540   22.3410 N   0  0  0  0  0  0  0  0  0  0  0  0
  -23.4730  -32.2680   23.8540 O   0  0  0  0  0  0  0  0  0  0  0  0
  -22.8510  -29.4970   22.7170 C   0  0  0  0  0  0  0  0  0  0  0  0
  -21.5540  -29.2320   22.4870 N   0  0  0  0  0  0  0  0  0  0  0  0
  -23.4880  -28.9620   23.6280 O   0  0  0  0  0  0  0  0  0  0  0  0
  -21.1000  -29.7160   21.7250 H   0  0  0  0  0  0  0  0  0  0  0  0
  -18.2110  -27.8850   22.7770 C   0  0  0  0  0  0  0  0  0  0  0  0
  -20.7210  -28.2960   23.2440 C   0  0  0  0  0  3  0  0  0  0  0  0
  -20.9430  -26.8420   22.7680 C   0  0  0  0  0  2  0  0  0  0  0  0
  -19.9480  -26.4020   21.6890 C   0  0  0  0  0  2  0  0  0  0  0  0
  -18.5110  -26.5100   22.2060 C   0  0  0  0  0  2  0  0  0  0  0  0
  -19.2500  -28.7300   23.2510 C   0  0  0  0  0  0  0  0  0  0  0  0
  -18.9200  -30.0120   23.7420 C   0  0  0  0  0  3  0  0  0  0  0  0
  -17.5830  -30.4510   23.7670 C   0  0  0  0  0  3  0  0  0  0  0  0
  -16.5570  -29.6050   23.3110 C   0  0  0  0  0  3  0  0  0  0  0  0
  -16.8710  -28.3240   22.8220 C   0  0  0  0  0  3  0  0  0  0  0  0
  -25.8190  -32.7030   24.0630 C   0  0  0  0  0  3  0  0  0  0  0  0
  -25.4400  -34.0970   24.3310 N   0  0  0  0  0  0  0  0  0  0  0  0
  -25.7550  -35.1350   23.5440 C   0  0  0  0  0  0  0  0  0  0  0  0
  -26.4630  -35.0250   22.5400 O   0  0  0  0  0  0  0  0  0  0  0  0
  -24.8120  -34.2540   25.1060 H   0  0  0  0  0  0  0  0  0  0  0  0
  -23.9630  -36.8350   23.0690 C   0  0  0  0  0  1  0  0  0  0  0  0
  -25.1950  -36.5170   23.9330 C   0  0  0  0  0  3  0  0  0  0  0  0
  -27.2610  -37.5280   24.7900 C   0  0  0  0  0  1  0  0  0  0  0  0
  -26.1830  -37.6100   23.8080 N   0  0  0  0  0  0  0  0  0  0  0  0
  -25.7320  -38.5160   23.9080 H   0  0  0  0  0  0  0  0  0  0  0  0
  -26.2950  -31.9910   25.3870 C   0  0  1  0  0  0  0  0  0  0  0  0
  -25.1480  -31.6940   26.3820 C   0  0  0  0  0  1  0  0  0  0  0  0
  -26.9970  -30.6500   25.0640 C   0  0  0  0  0  1  0  0  0  0  0  0
  -27.3380  -32.8740   26.1110 C   0  0  0  0  0  1  0  0  0  0  0  0
  -30.5500  -16.9210   21.6670 C   0  0  0  0  0  2  0  0  0  0  0  0
  -30.7000  -14.6990   20.4460 C   0  0  0  0  0  0  0  0  0  0  0  0
  -30.2960  -12.8060   18.9020 C   0  0  0  0  0  2  0  0  0  0  0  0
  -29.3130  -13.2430   17.7960 C   0  0  0  0  0  2  0  0  0  0  0  0
  -27.8520  -13.0570   18.2540 C   0  0  0  0  0  2  0  0  0  0  0  0
  -27.5900  -13.6510   19.6630 C   0  0  0  0  0  3  0  0  0  0  0  0
  -28.6750  -13.2020   20.6660 C   0  0  0  0  0  2  0  0  0  0  0  0
  -29.9860  -13.5880   20.1130 N   0  0  0  0  0  0  0  0  0  0  0  0
  -31.8060  -14.9470   19.9570 O   0  0  0  0  0  0  0  0  0  0  0  0
  -30.0770  -15.5800   21.2540 N   0  0  0  0  0  0  0  0  0  0  0  0
  -29.1620  -15.3180   21.5870 H   0  0  0  0  0  0  0  0  0  0  0  0
  -25.1650  -14.1730   20.3450 C   0  0  0  0  0  0  0  0  0  0  0  0
  -24.1270  -13.3660   20.7260 C   0  0  0  0  0  0  0  0  0  0  0  0
  -24.6430  -12.0340   20.7250 C   0  0  0  0  0  0  0  0  0  0  0  0
  -26.2460  -13.3310   20.1390 N   0  0  0  0  0  0  0  0  0  0  0  0
  -25.9350  -12.0400   20.4240 N   0  0  0  0  0  0  0  0  0  0  0  0
  -23.9660  -10.7470   20.9360 C   0  0  0  0  0  0  0  0  0  0  0  0
  -24.4120   -9.8290   21.9130 C   0  0  0  0  0  3  0  0  0  0  0  0
  -23.7340   -8.6080   22.1100 C   0  0  0  0  0  3  0  0  0  0  0  0
  -22.5960   -8.2930   21.3310 C   0  0  0  0  0  0  0  0  0  0  0  0
  -22.1690   -9.2000   20.3440 C   0  0  0  0  0  3  0  0  0  0  0  0
  -22.8490  -10.4130   20.1460 C   0  0  0  0  0  3  0  0  0  0  0  0
  -21.8910   -7.1190   21.4350 O   0  0  0  0  0  0  0  0  0  0  0  0
  -21.8390   -6.4120   22.6090 C   0  0  0  0  0  0  0  0  0  0  0  0
  -21.3640   -6.9900   23.8070 C   0  0  0  0  0  3  0  0  0  0  0  0
  -21.2590   -6.2080   24.9740 C   0  0  0  0  0  3  0  0  0  0  0  0
  -21.6210   -4.8470   24.9450 C   0  0  0  0  0  0  0  0  0  0  0  0
  -22.0930   -4.2690   23.7540 C   0  0  0  0  0  3  0  0  0  0  0  0
  -22.1970   -5.0490   22.5890 C   0  0  0  0  0  0  0  0  0  0  0  0
  -22.6310   -4.4810   21.4370 F   0  0  0  0  0  0  0  0  0  0  0  0
  -21.5140   -4.0940   26.0640 F   0  0  0  0  0  0  0  0  0  0  0  0
  -22.7100  -13.7940   20.9830 C   0  0  0  0  0  0  0  0  0  0  0  0
  -22.0120  -13.1000   21.8740 N   0  0  0  0  0  0  0  0  0  0  0  0
  -22.2280  -14.7800   20.4250 O   0  0  0  0  0  0  0  0  0  0  0  0
  -22.4150  -12.3050   22.3490 H   0  0  0  0  0  0  0  0  0  0  0  0
  -21.0630  -13.3700   22.0870 H   0  0  0  0  0  0  0  0  0  0  0  0
  -25.2750  -15.5450   20.1390 N   0  0  0  0  0  0  0  0  0  0  0  0
  -24.4740  -16.1630   20.2130 H   0  0  0  0  0  0  0  0  0  0  0  0
  -26.0980  -16.0060   19.7770 H   0  0  0  0  0  0  0  0  0  0  0  0
  1  4  1  0
  2  3  1  0
  2  1  2  0
  3  5  2  0
  4  6  2  0
  4 58  1  0
  5 13  1  0
  5  6  1  0
  8  9  1  0
  9  7  1  0
  9  2  1  0
 10  3  1  0
 11 12  1  0
 12 10  1  0
 13 14  1  0
 15 14  1  0
 16 17  1  0
 16 15  1  0
 18 29  2  0
 19 17  1  0
 19 24  1  0
 20 28  1  0
 20 30  1  0
 21 23  1  0
 22 28  1  0
 23 24  2  0
 23 22  1  0
 25 19  2  0
 26 25  1  0
 26 21  2  0
 27 21  1  0
 27 20  1  0
 28 18  1  0
 30 32  2  0
 31 30  1  0
 33 31  1  0
 34 43  2  0
 34 39  1  0
 35 31  1  0
 35 39  1  0
 36 35  1  0
 37 38  1  0
 37 36  1  0
 38 34  1  0
 39 40  2  0
 40 41  1  0
 42 41  2  0
 43 42  1  0
 44 18  1  0
 44 45  1  0
 44 54  1  0
 45 48  1  0
 46 50  1  0
 46 45  1  0
 47 46  2  0
 50 49  1  0
 52 53  1  0
 52 50  1  0
 52 51  1  0
 54 57  1  1
 54 55  1  0
 56 54  1  0
 59 67  1  0
 60 65  1  0
 61 62  1  0
 61 60  1  0
 63 62  1  0
 63 72  1  0
 63 64  1  0
 65 59  1  0
 65 64  1  0
 66 59  2  0
 67 68  1  0
 67 58  1  0
 69 70  2  0
 70 89  1  0
 71 70  1  0
 71 74  1  0
 72 69  1  0
 72 73  1  0
 73 71  2  0
 74 75  1  0
 75 76  2  0
 77 80  1  0
 77 76  1  0
 78 77  2  0
 79 78  1  0
 79 74  2  0
 80 81  1  0
 81 82  1  0
 82 83  2  0
 84 83  1  0
 84 88  1  0
 85 84  2  0
 86 81  2  0
 86 85  1  0
 87 86  1  0
 89 90  1  0
 90 93  1  0
 90 92  1  0
 91 89  2  0
 94 95  1  0
 94 69  1  0
 96 94  1  0
M  ISO  4  16 101  17 101  59 100  67 100
M  END
>  <TORSDO>  (47) 
F 24

>  <SCORE>  (47) 
-10.387

>  <name>  (47) 
48

>  <ligand_id>  (47) 
48

>  <original_smiles>  (47) 
[H]c1c([H])c([H])c2c(c1[H])C([H])([H])C([H])([H])C([H])([H])C2([H])N([H])C(=O)C1([H])N(C(=O)C([H])(N([H])C(=O)C([H])(N([H])C([H])([H])[H])C([H])([H])[H])C(C([H])([H])[H])(C([H])([H])[H])C([H])([H])[H])C([H])([H])c2c([H])c(OC([H])([H])C([H])([H])C([H])([H])C([H])([H])c3nc(C([H])([H])N([H])C(=O)N4C([H])([H])C([H])([H])C([H])([H])C([H])(n5nc(-c6c([H])c([H])c(Oc7c([H])c([H])c(F)c([H])c7F)c([H])c6[H])c(C(=O)N([H])[H])c5N([H])[H])C4([H])[H])c([H])c(C([H])(C([H])([H])[H])C([H])([H])[H])c3C([H])([H])C([H])([H])C([H])([H])[H])c([H])c([H])c2C1([H])[H]

>  <smiles>  (47) 
[H]c1c([H])c([H])c2c(c1[H])C([H])([H])C([H])([H])C([H])([H])C2([H])N([H])C(=O)C1([H])N(C(=O)C([H])(N([H])C(=O)C([H])(N([H])C([H])([H])[H])C([H])([H])[H])C(C([H])([H])[H])(C([H])([H])[H])C([H])([H])[H])C([H])([H])c2c([H])c(OC([H])([H])C([H])([H])C([H])([H])C([H])([H])c3nc(C([H])([H])N([H])C(=O)N4C([H])([H])C([H])([H])C([H])([H])C([H])(n5nc(-c6c([H])c([H])c(Oc7c([H])c([H])c(F)c([H])c7F)c([H])c6[H])c(C(=O)N([H])[H])c5N([H])[H])C4([H])[H])c([H])c(C([H])(C([H])([H])[H])C([H])([H])[H])c3C([H])([H])C([H])([H])C([H])([H])[H])c([H])c([H])c2C1([H])[H]

$$$$
49:0:0
     RDKit          3D

 93101  0  0  1  0  0  0  0  0999 V2000
  -27.8390  -20.0100   19.7280 C   0  0  0  0  0  2  0  0  0  0  0  0
  -28.2200  -18.6430   19.8440 C   0  0  0  0  0  2  0  0  0  0  0  0
  -28.9020  -20.8200   20.0270 C   0  0  0  0  0  3  0  0  0  0  0  0
  -29.5310  -18.5700   20.2220 C   0  0  0  0  0  3  0  0  0  0  0  0
  -29.9010  -19.9250   20.5540 N   0  0  0  0  0  0  0  0  0  0  0  0
  -31.0820  -21.7420   21.8590 C   0  0  0  0  0  1  0  0  0  0  0  0
  -32.3820  -20.2420   20.3440 C   0  0  0  0  0  1  0  0  0  0  0  0
  -31.3530  -19.4300   22.5300 C   0  0  0  0  0  1  0  0  0  0  0  0
  -31.1540  -20.3170   21.2700 C   0  0  2  0  0  0  0  0  0  0  0  0
  -30.9610  -17.3310   18.6120 C   0  0  0  0  0  1  0  0  0  0  0  0
  -30.4660  -17.3130   20.0780 C   0  0  0  0  0  3  0  0  0  0  0  0
  -30.6800  -14.7470   20.3530 C   0  0  0  0  0  0  0  0  0  0  0  0
  -30.4260  -12.4950   19.3500 C   0  0  0  0  0  2  0  0  0  0  0  0
  -29.4900  -12.6000   18.1280 C   0  0  0  0  0  2  0  0  0  0  0  0
  -28.0240  -12.4330   18.5640 C   0  0  0  0  0  2  0  0  0  0  0  0
  -27.6540  -13.3120   19.7900 C   0  0  0  0  0  3  0  0  0  0  0  0
  -28.7190  -13.2270   20.9050 C   0  0  0  0  0  2  0  0  0  0  0  0
  -30.0140  -13.5500   20.2980 N   0  0  0  0  0  0  0  0  0  0  0  0
  -31.8880  -14.7860   20.1100 O   0  0  0  0  0  0  0  0  0  0  0  0
  -29.9500  -15.9190   20.4030 N   0  0  0  0  0  0  0  0  0  0  0  0
  -28.9590  -15.8320   20.5650 H   0  0  0  0  0  0  0  0  0  0  0  0
  -25.2650  -13.8850   20.5250 C   0  0  0  0  0  0  0  0  0  0  0  0
  -24.2040  -13.1030   20.8920 C   0  0  0  0  0  0  0  0  0  0  0  0
  -24.6760  -11.7560   20.8580 C   0  0  0  0  0  0  0  0  0  0  0  0
  -26.3140  -13.0130   20.2850 N   0  0  0  0  0  0  0  0  0  0  0  0
  -25.9670  -11.7260   20.5500 N   0  0  0  0  0  0  0  0  0  0  0  0
  -23.9560  -10.4870   21.0430 C   0  0  0  0  0  0  0  0  0  0  0  0
  -24.3870   -9.5210   21.9790 C   0  0  0  0  0  3  0  0  0  0  0  0
  -23.6670   -8.3210   22.1520 C   0  0  0  0  0  3  0  0  0  0  0  0
  -22.5020   -8.0750   21.3880 C   0  0  0  0  0  0  0  0  0  0  0  0
  -22.0890   -9.0300   20.4410 C   0  0  0  0  0  3  0  0  0  0  0  0
  -22.8110  -10.2220   20.2660 C   0  0  0  0  0  3  0  0  0  0  0  0
  -21.7530   -6.9260   21.4700 O   0  0  0  0  0  0  0  0  0  0  0  0
  -21.6890   -6.1900   22.6260 C   0  0  0  0  0  0  0  0  0  0  0  0
  -21.2220   -6.7450   23.8370 C   0  0  0  0  0  3  0  0  0  0  0  0
  -21.1070   -5.9340   24.9840 C   0  0  0  0  0  3  0  0  0  0  0  0
  -21.4490   -4.5710   24.9210 C   0  0  0  0  0  0  0  0  0  0  0  0
  -21.9100   -4.0140   23.7140 C   0  0  0  0  0  3  0  0  0  0  0  0
  -22.0260   -4.8220   22.5700 C   0  0  0  0  0  0  0  0  0  0  0  0
  -22.4500   -4.2780   21.4040 F   0  0  0  0  0  0  0  0  0  0  0  0
  -21.3310   -3.7890   26.0200 F   0  0  0  0  0  0  0  0  0  0  0  0
  -22.8040  -13.5710   21.1630 C   0  0  0  0  0  0  0  0  0  0  0  0
  -22.0780  -12.8650   22.0240 N   0  0  0  0  0  0  0  0  0  0  0  0
  -22.3620  -14.5970   20.6500 O   0  0  0  0  0  0  0  0  0  0  0  0
  -22.4500  -12.0350   22.4600 H   0  0  0  0  0  0  0  0  0  0  0  0
  -21.1400  -13.1610   22.2520 H   0  0  0  0  0  0  0  0  0  0  0  0
  -25.4200  -15.2570   20.3500 N   0  0  0  0  0  0  0  0  0  0  0  0
  -24.6480  -15.9070   20.4520 H   0  0  0  0  0  0  0  0  0  0  0  0
  -26.2620  -15.6960   20.0030 H   0  0  0  0  0  0  0  0  0  0  0  0
  -28.9880  -22.3520   19.6490 C   0  0  0  0  0  3  0  0  0  0  0  0
  -28.4030  -23.5470   20.5470 C   0  0  0  0  0  3  0  0  0  0  0  0
  -28.2140  -25.0300   19.9010 C   0  0  0  0  0  2  0  0  0  0  0  0
  -28.3140  -26.4820   20.2620 O   0  0  0  0  0  0  0  0  0  0  0  0
  -24.5930  -31.9320   23.2340 C   0  0  0  0  0  0  0  0  0  0  0  0
  -27.2000  -27.3430   20.1910 C   0  0  0  0  0  0  0  0  0  0  0  0
  -23.3950  -30.5310   21.5930 C   0  0  0  0  0  3  0  0  0  0  0  0
  -24.8460  -28.9740   20.1690 C   0  0  0  0  0  0  0  0  0  0  0  0
  -25.9370  -30.8390   21.4220 C   0  0  0  0  0  2  0  0  0  0  0  0
  -26.0140  -29.4570   20.7720 C   0  0  0  0  0  0  0  0  0  0  0  0
  -27.1940  -28.6540   20.7710 C   0  0  0  0  0  3  0  0  0  0  0  0
  -26.0110  -26.9150   19.5640 C   0  0  0  0  0  3  0  0  0  0  0  0
  -24.8480  -27.7110   19.5550 C   0  0  0  0  0  3  0  0  0  0  0  0
  -23.6170  -29.8600   20.2110 C   0  0  0  0  0  2  0  0  0  0  0  0
  -24.6620  -31.1170   22.1390 N   0  0  0  0  0  0  0  0  0  0  0  0
  -23.5080  -32.2160   23.7600 O   0  0  0  0  0  0  0  0  0  0  0  0
  -22.7260  -29.5160   22.5510 C   0  0  0  0  0  0  0  0  0  0  0  0
  -21.3980  -29.3520   22.4250 N   0  0  0  0  0  0  0  0  0  0  0  0
  -23.4000  -28.8820   23.3650 O   0  0  0  0  0  0  0  0  0  0  0  0
  -20.9150  -29.9180   21.7400 H   0  0  0  0  0  0  0  0  0  0  0  0
  -18.0030  -28.1990   22.9270 C   0  0  0  0  0  0  0  0  0  0  0  0
  -20.5670  -28.4210   23.1870 C   0  0  0  0  0  3  0  0  0  0  0  0
  -20.6480  -26.9930   22.6000 C   0  0  0  0  0  2  0  0  0  0  0  0
  -19.5370  -26.6930   21.5890 C   0  0  0  0  0  2  0  0  0  0  0  0
  -18.1580  -26.8520   22.2390 C   0  0  0  0  0  2  0  0  0  0  0  0
  -19.1350  -28.9430   23.3560 C   0  0  0  0  0  0  0  0  0  0  0  0
  -18.9350  -30.2050   23.9590 C   0  0  0  0  0  3  0  0  0  0  0  0
  -17.6400  -30.7220   24.1370 C   0  0  0  0  0  3  0  0  0  0  0  0
  -16.5230  -29.9750   23.7250 C   0  0  0  0  0  3  0  0  0  0  0  0
  -16.7050  -28.7170   23.1250 C   0  0  0  0  0  3  0  0  0  0  0  0
  -25.8750  -32.5610   23.8640 C   0  0  0  0  0  3  0  0  0  0  0  0
  -25.5660  -33.9610   24.1920 N   0  0  0  0  0  0  0  0  0  0  0  0
  -25.8980  -35.0130   23.4320 C   0  0  0  0  0  0  0  0  0  0  0  0
  -26.5660  -34.9090   22.4010 O   0  0  0  0  0  0  0  0  0  0  0  0
  -24.9700  -34.1160   24.9910 H   0  0  0  0  0  0  0  0  0  0  0  0
  -24.1760  -36.8120   23.0760 C   0  0  0  0  0  1  0  0  0  0  0  0
  -25.4130  -36.4030   23.8910 C   0  0  0  0  0  3  0  0  0  0  0  0
  -27.5420  -37.2850   24.7350 C   0  0  0  0  0  1  0  0  0  0  0  0
  -26.4470  -37.4540   23.7840 N   0  0  0  0  0  0  0  0  0  0  0  0
  -26.0400  -38.3740   23.9320 H   0  0  0  0  0  0  0  0  0  0  0  0
  -26.3800  -31.7920   25.1440 C   0  0  1  0  0  0  0  0  0  0  0  0
  -25.2800  -31.5540   26.2050 C   0  0  0  0  0  1  0  0  0  0  0  0
  -26.9630  -30.4150   24.7550 C   0  0  0  0  0  1  0  0  0  0  0  0
  -27.5280  -32.5840   25.8130 C   0  0  0  0  0  1  0  0  0  0  0  0
  1  2  1  0
  1  3  1  0
  2  4  1  0
  3 50  1  0
  3  5  1  0
  4 11  1  0
  4  5  1  0
  5  9  1  0
  9  7  1  6
  9  6  1  0
  9  8  1  0
 11 10  1  0
 11 20  1  0
 12 20  1  0
 13 18  1  0
 14 15  1  0
 14 13  1  0
 16 15  1  0
 16 25  1  0
 16 17  1  0
 18 12  1  0
 18 17  1  0
 19 12  2  0
 20 21  1  0
 22 23  2  0
 23 42  1  0
 24 23  1  0
 24 27  1  0
 25 22  1  0
 25 26  1  0
 26 24  2  0
 27 28  1  0
 28 29  2  0
 30 33  1  0
 30 29  1  0
 31 30  2  0
 32 31  1  0
 32 27  2  0
 33 34  1  0
 34 35  1  0
 35 36  2  0
 37 36  1  0
 37 41  1  0
 38 37  2  0
 39 34  2  0
 39 38  1  0
 40 39  1  0
 42 43  1  0
 43 46  1  0
 43 45  1  0
 44 42  2  0
 47 48  1  0
 47 22  1  0
 49 47  1  0
 50 51  2  0
 52 53  1  0
 52 51  1  0
 54 65  2  0
 55 53  1  0
 55 60  1  0
 56 64  1  0
 56 66  1  0
 57 63  1  0
 57 59  1  0
 58 64  1  0
 59 58  1  0
 60 59  2  0
 61 55  2  0
 62 61  1  0
 62 57  2  0
 63 56  1  0
 64 54  1  0
 66 68  2  0
 67 66  1  0
 69 67  1  0
 70 79  2  0
 70 75  1  0
 71 67  1  0
 71 75  1  0
 72 71  1  0
 73 74  1  0
 73 72  1  0
 74 70  1  0
 75 76  2  0
 76 77  1  0
 78 77  2  0
 79 78  1  0
 80 54  1  0
 80 81  1  0
 80 90  1  0
 81 84  1  0
 82 86  1  0
 82 81  1  0
 83 82  2  0
 86 85  1  0
 88 86  1  0
 88 89  1  0
 88 87  1  0
 90 93  1  1
 90 91  1  0
 92 90  1  0
M  ISO  4  12 100  20 100  52 101  53 101
M  END
>  <TORSDO>  (48) 
F 21

>  <SCORE>  (48) 
-13.868

>  <name>  (48) 
49

>  <ligand_id>  (48) 
49

>  <original_smiles>  (48) 
[H]c1c([H])c([H])c2c(c1[H])C([H])([H])C([H])([H])C([H])([H])C2([H])N([H])C(=O)C1([H])N(C(=O)C([H])(N([H])C(=O)C([H])(N([H])C([H])([H])[H])C([H])([H])[H])C(C([H])([H])[H])(C([H])([H])[H])C([H])([H])[H])C([H])([H])c2c([H])c(OC([H])([H])C([H])([H])C([H])([H])c3c([H])c([H])c(C([H])(N([H])C(=O)N4C([H])([H])C([H])([H])C([H])([H])C([H])(n5nc(-c6c([H])c([H])c(Oc7c([H])c([H])c(F)c([H])c7F)c([H])c6[H])c(C(=O)N([H])[H])c5N([H])[H])C4([H])[H])C([H])([H])[H])n3C(C([H])([H])[H])(C([H])([H])[H])C([H])([H])[H])c([H])c([H])c2C1([H])[H]

>  <smiles>  (48) 
[H]c1c([H])c([H])c2c(c1[H])C([H])([H])C([H])([H])C([H])([H])C2([H])N([H])C(=O)C1([H])N(C(=O)C([H])(N([H])C(=O)C([H])(N([H])C([H])([H])[H])C([H])([H])[H])C(C([H])([H])[H])(C([H])([H])[H])C([H])([H])[H])C([H])([H])c2c([H])c(OC([H])([H])C([H])([H])C([H])([H])c3c([H])c([H])c(C([H])(N([H])C(=O)N4C([H])([H])C([H])([H])C([H])([H])C([H])(n5nc(-c6c([H])c([H])c(Oc7c([H])c([H])c(F)c([H])c7F)c([H])c6[H])c(C(=O)N([H])[H])c5N([H])[H])C4([H])[H])C([H])([H])[H])n3C(C([H])([H])[H])(C([H])([H])[H])C([H])([H])[H])c([H])c([H])c2C1([H])[H]

$$$$
50:0:0
     RDKit          3D

 94101  0  0  1  0  0  0  0  0999 V2000
  -27.1860  -24.7170   21.7790 C   0  0  0  0  0  3  0  0  0  0  0  0
  -26.1010  -24.2160   20.5790 C   0  0  0  0  0  0  0  0  0  0  0  0
  -26.9790  -23.3200   19.3560 C   0  0  0  0  0  0  0  0  0  0  0  0
  -28.5280  -22.9850   19.6920 C   0  0  0  0  0  3  0  0  0  0  0  0
  -26.2090  -22.7050   18.2020 C   0  0  0  0  0  1  0  0  0  0  0  0
  -28.7690  -23.9290   21.1870 N   0  0  0  0  0  0  0  0  0  0  0  0
  -24.6010  -24.2140   20.3810 C   0  0  0  0  0  2  0  0  0  0  0  0
  -23.9160  -25.7080   22.2510 C   0  0  0  0  0  1  0  0  0  0  0  0
  -22.2610  -24.2070   20.8950 C   0  0  0  0  0  1  0  0  0  0  0  0
  -23.6620  -24.3700   21.5450 C   0  0  0  0  0  3  0  0  0  0  0  0
  -29.1310  -21.1830   19.2320 C   0  0  0  0  0  1  0  0  0  0  0  0
  -29.9820  -19.4620   19.8690 C   0  0  0  0  0  1  0  0  0  0  0  0
  -30.6530  -16.2060   19.7290 C   0  0  0  0  0  0  0  0  0  0  0  0
  -30.7890  -13.5880   19.0390 C   0  0  0  0  0  2  0  0  0  0  0  0
  -29.8770  -13.0350   17.9060 C   0  0  0  0  0  2  0  0  0  0  0  0
  -28.4930  -12.6530   18.4500 C   0  0  0  0  0  2  0  0  0  0  0  0
  -27.9760  -13.7320   19.4250 C   0  0  0  0  0  3  0  0  0  0  0  0
  -29.0260  -14.1690   20.4740 C   0  0  0  0  0  2  0  0  0  0  0  0
  -30.1430  -14.8130   19.7240 N   0  0  0  0  0  0  0  0  0  0  0  0
  -31.8950  -16.0970   19.6190 O   0  0  0  0  0  0  0  0  0  0  0  0
  -29.9050  -17.6190   19.6940 N   0  0  0  0  0  0  0  0  0  0  0  0
  -28.9220  -17.3640   19.6880 H   0  0  0  0  0  0  0  0  0  0  0  0
  -25.6690  -14.3140   20.3050 C   0  0  0  0  0  0  0  0  0  0  0  0
  -24.6000  -13.5650   20.7030 C   0  0  0  0  0  0  0  0  0  0  0  0
  -25.0260  -12.2010   20.6280 C   0  0  0  0  0  0  0  0  0  0  0  0
  -26.6750  -13.4190   20.0020 N   0  0  0  0  0  0  0  0  0  0  0  0
  -26.3020  -12.1360   20.2540 N   0  0  0  0  0  0  0  0  0  0  0  0
  -24.2650  -10.9590   20.8240 C   0  0  0  0  0  0  0  0  0  0  0  0
  -24.6390  -10.0030   21.7970 C   0  0  0  0  0  3  0  0  0  0  0  0
  -23.8740   -8.8290   21.9780 C   0  0  0  0  0  3  0  0  0  0  0  0
  -22.7220   -8.6020   21.1890 C   0  0  0  0  0  0  0  0  0  0  0  0
  -22.3670   -9.5450   20.2080 C   0  0  0  0  0  3  0  0  0  0  0  0
  -23.1320  -10.7100   20.0230 C   0  0  0  0  0  3  0  0  0  0  0  0
  -21.9350   -7.4790   21.2800 O   0  0  0  0  0  0  0  0  0  0  0  0
  -21.7380   -6.8320   22.4740 C   0  0  0  0  0  0  0  0  0  0  0  0
  -21.1810   -7.4870   23.5930 C   0  0  0  0  0  3  0  0  0  0  0  0
  -20.9280   -6.7690   24.7780 C   0  0  0  0  0  3  0  0  0  0  0  0
  -21.2290   -5.3950   24.8490 C   0  0  0  0  0  0  0  0  0  0  0  0
  -21.7800   -4.7380   23.7340 C   0  0  0  0  0  3  0  0  0  0  0  0
  -22.0320   -5.4560   22.5500 C   0  0  0  0  0  0  0  0  0  0  0  0
  -22.5430   -4.8120   21.4710 F   0  0  0  0  0  0  0  0  0  0  0  0
  -20.9840   -4.7010   25.9850 F   0  0  0  0  0  0  0  0  0  0  0  0
  -23.2300  -14.0800   21.0370 C   0  0  0  0  0  0  0  0  0  0  0  0
  -22.5160  -13.4070   21.9300 N   0  0  0  0  0  0  0  0  0  0  0  0
  -22.8050  -15.1220   20.5370 O   0  0  0  0  0  0  0  0  0  0  0  0
  -22.8730  -12.5670   22.3640 H   0  0  0  0  0  0  0  0  0  0  0  0
  -21.5950  -13.7350   22.1840 H   0  0  0  0  0  0  0  0  0  0  0  0
  -25.8670  -15.6830   20.1470 N   0  0  0  0  0  0  0  0  0  0  0  0
  -25.1380  -16.3660   20.3240 H   0  0  0  0  0  0  0  0  0  0  0  0
  -26.7190  -16.0980   19.7960 H   0  0  0  0  0  0  0  0  0  0  0  0
  -29.5240  -23.2830   22.1970 C   0  0  0  0  0  2  0  0  0  0  0  0
  -28.3910  -22.3510   22.6280 C   0  0  0  0  0  2  0  0  0  0  0  0
  -27.0750  -22.8720   21.8870 C   0  0  0  0  0  2  0  0  0  0  0  0
  -27.8030  -25.4670   20.0590 O   0  0  0  0  0  1  0  0  0  0  0  0
  -24.6860  -32.0510   23.3640 C   0  0  0  0  0  0  0  0  0  0  0  0
  -27.1130  -26.9740   20.0590 C   0  0  0  0  0  0  0  0  0  0  0  0
  -23.4670  -30.7190   21.6950 C   0  0  0  0  0  3  0  0  0  0  0  0
  -24.9190  -29.1580   20.1350 C   0  0  0  0  0  0  0  0  0  0  0  0
  -26.0550  -30.8040   21.5720 C   0  0  0  0  0  2  0  0  0  0  0  0
  -26.1030  -29.3960   20.8410 C   0  0  0  0  0  0  0  0  0  0  0  0
  -27.1670  -28.3160   20.8180 C   0  0  0  0  0  3  0  0  0  0  0  0
  -26.0160  -27.1310   19.1700 C   0  0  0  0  0  3  0  0  0  0  0  0
  -24.9290  -28.0580   19.2660 C   0  0  0  0  0  3  0  0  0  0  0  0
  -23.6940  -30.0850   20.2850 C   0  0  0  0  0  2  0  0  0  0  0  0
  -24.7610  -31.2270   22.2590 N   0  0  0  0  0  0  0  0  0  0  0  0
  -23.6040  -32.3390   23.9010 O   0  0  0  0  0  0  0  0  0  0  0  0
  -22.7420  -29.7260   22.6510 C   0  0  0  0  0  0  0  0  0  0  0  0
  -21.4130  -29.5320   22.5100 N   0  0  0  0  0  0  0  0  0  0  0  0
  -23.4010  -29.1390   23.5130 O   0  0  0  0  0  0  0  0  0  0  0  0
  -20.9310  -30.0790   21.8090 H   0  0  0  0  0  0  0  0  0  0  0  0
  -18.0310  -28.2430   22.9990 C   0  0  0  0  0  0  0  0  0  0  0  0
  -20.5800  -28.5890   23.2860 C   0  0  0  0  0  3  0  0  0  0  0  0
  -20.6740  -27.1440   22.7520 C   0  0  0  0  0  2  0  0  0  0  0  0
  -19.5970  -26.7670   21.7250 C   0  0  0  0  0  2  0  0  0  0  0  0
  -18.2230  -26.8990   22.3400 C   0  0  0  0  0  2  0  0  0  0  0  0
  -19.1260  -29.0410   23.4310 C   0  0  0  0  0  0  0  0  0  0  0  0
  -18.8600  -30.2830   24.0400 C   0  0  0  0  0  3  0  0  0  0  0  0
  -17.5360  -30.7310   24.2030 C   0  0  0  0  0  3  0  0  0  0  0  0
  -16.4610  -29.9310   23.7800 C   0  0  0  0  0  3  0  0  0  0  0  0
  -16.7090  -28.6840   23.1850 C   0  0  0  0  0  3  0  0  0  0  0  0
  -25.9580  -32.6880   23.9990 C   0  0  0  0  0  3  0  0  0  0  0  0
  -25.6490  -34.0880   24.3590 N   0  0  0  0  0  0  0  0  0  0  0  0
  -25.9850  -35.1680   23.6380 C   0  0  0  0  0  0  0  0  0  0  0  0
  -26.6420  -35.0900   22.5990 O   0  0  0  0  0  0  0  0  0  0  0  0
  -25.0590  -34.2210   25.1670 H   0  0  0  0  0  0  0  0  0  0  0  0
  -24.2700  -37.0010   23.3800 C   0  0  0  0  0  1  0  0  0  0  0  0
  -25.5230  -36.5530   24.1500 C   0  0  0  0  0  3  0  0  0  0  0  0
  -27.6830  -37.4080   24.9620 C   0  0  0  0  0  1  0  0  0  0  0  0
  -26.5630  -37.6020   24.0430 N   0  0  0  0  0  0  0  0  0  0  0  0
  -26.1700  -38.5220   24.2140 H   0  0  0  0  0  0  0  0  0  0  0  0
  -26.4550  -31.9100   25.2820 C   0  0  1  0  0  0  0  0  0  0  0  0
  -25.3500  -31.6690   26.3380 C   0  0  0  0  0  1  0  0  0  0  0  0
  -27.0420  -30.5290   24.9150 C   0  0  0  0  0  1  0  0  0  0  0  0
  -27.5980  -32.7000   25.9610 C   0  0  0  0  0  1  0  0  0  0  0  0
  1 53  1  0
  2  1  1  0
  3  4  1  0
  3  2  2  0
  4 11  1  0
  4  6  1  0
  5  3  1  0
  6  1  1  0
  6 51  1  0
  7  2  1  0
  7 10  1  0
  9 10  1  0
 10  8  1  0
 14 19  1  0
 15 16  1  0
 15 14  1  0
 17 16  1  0
 17 26  1  0
 17 18  1  0
 19 13  1  0
 19 18  1  0
 20 13  2  0
 21 13  1  0
 21 12  1  0
 22 21  1  0
 23 24  2  0
 24 43  1  0
 25 24  1  0
 25 28  1  0
 26 27  1  0
 26 23  1  0
 27 25  2  0
 28 29  1  0
 29 30  2  0
 31 34  1  0
 31 30  1  0
 32 31  2  0
 33 32  1  0
 33 28  2  0
 34 35  1  0
 35 40  2  0
 35 36  1  0
 36 37  2  0
 37 38  1  0
 38 42  1  0
 39 38  2  0
 40 39  1  0
 41 40  1  0
 43 44  1  0
 44 47  1  0
 44 46  1  0
 45 43  2  0
 48 23  1  0
 48 49  1  0
 50 48  1  0
 51 52  1  0
 53 52  1  0
 55 66  2  0
 56 54  1  0
 56 61  1  0
 57 65  1  0
 57 67  1  0
 58 64  1  0
 58 60  1  0
 59 65  1  0
 60 59  1  0
 61 60  2  0
 62 63  1  0
 62 56  2  0
 63 58  2  0
 64 57  1  0
 65 55  1  0
 67 69  2  0
 68 67  1  0
 70 68  1  0
 71 80  2  0
 71 76  1  0
 72 68  1  0
 72 76  1  0
 73 72  1  0
 74 75  1  0
 74 73  1  0
 75 71  1  0
 76 77  2  0
 77 78  1  0
 79 78  2  0
 80 79  1  0
 81 55  1  0
 81 82  1  0
 81 91  1  0
 82 85  1  0
 83 87  1  0
 83 82  1  0
 84 83  2  0
 87 86  1  0
 89 87  1  0
 89 90  1  0
 89 88  1  0
 91 94  1  1
 91 92  1  0
 93 91  1  0
M  ISO  4  13 100  21 100  53 101  54 101
M  END
>  <TORSDO>  (49) 
F 23

>  <SCORE>  (49) 
-13.833

>  <name>  (49) 
50

>  <ligand_id>  (49) 
50

>  <original_smiles>  (49) 
[H]c1c([H])c([H])c2c(c1[H])C([H])([H])C([H])([H])C([H])([H])C2([H])N([H])C(=O)C1([H])N(C(=O)C([H])(N([H])C(=O)C([H])(N([H])C([H])([H])[H])C([H])([H])[H])C(C([H])([H])[H])(C([H])([H])[H])C([H])([H])[H])C([H])([H])c2c([H])c(OC([H])([H])C([H])([H])C([H])([H])n3c([H])c(C([H])([H])C([H])(C([H])([H])[H])C([H])([H])[H])c(C([H])([H])[H])c3C([H])([H])C([H])([H])N([H])C(=O)N3C([H])([H])C([H])([H])C([H])([H])C([H])(n4nc(-c5c([H])c([H])c(Oc6c([H])c([H])c(F)c([H])c6F)c([H])c5[H])c(C(=O)N([H])[H])c4N([H])[H])C3([H])[H])c([H])c([H])c2C1([H])[H]

>  <smiles>  (49) 
[H]c1c([H])c([H])c2c(c1[H])C([H])([H])C([H])([H])C([H])([H])C2([H])N([H])C(=O)C1([H])N(C(=O)C([H])(N([H])C(=O)C([H])(N([H])C([H])([H])[H])C([H])([H])[H])C(C([H])([H])[H])(C([H])([H])[H])C([H])([H])[H])C([H])([H])c2c([H])c(OC([H])([H])C([H])([H])C([H])([H])n3c([H])c(C([H])([H])C([H])(C([H])([H])[H])C([H])([H])[H])c(C([H])([H])[H])c3C([H])([H])C([H])([H])N([H])C(=O)N3C([H])([H])C([H])([H])C([H])([H])C([H])(n4nc(-c5c([H])c([H])c(Oc6c([H])c([H])c(F)c([H])c6F)c([H])c5[H])c(C(=O)N([H])[H])c4N([H])[H])C3([H])[H])c([H])c([H])c2C1([H])[H]

$$$$
51:0:0
     RDKit          3D

 91 99  0  0  1  0  0  0  0  0999 V2000
  -29.3910  -19.6890   20.7580 C   0  0  0  0  0  3  0  0  0  0  0  0
  -31.8780  -19.9580   19.7420 C   0  0  0  0  0  3  0  0  0  0  0  0
  -29.8070  -21.0490   20.4620 C   0  0  0  0  0  0  0  0  0  0  0  0
  -31.1670  -21.1480   20.0370 C   0  0  0  0  0  0  0  0  0  0  0  0
  -30.2400  -18.5370   20.5520 C   0  0  0  0  0  0  0  0  0  0  0  0
  -31.4430  -18.7040   19.9770 N   0  0  0  0  0  0  0  0  0  0  0  0
  -33.4300  -22.4190   20.2180 C   0  0  0  0  0  1  0  0  0  0  0  0
  -31.9230  -22.4740   19.8990 C   0  0  0  0  0  2  0  0  0  0  0  0
  -28.7900  -22.2820   20.6120 C   0  0  0  0  0  2  0  0  0  0  0  0
  -29.1500  -23.8590   20.4660 C   0  0  0  0  0  3  0  0  0  0  0  0
  -27.9910  -24.9340   20.2070 C   0  0  0  0  0  3  0  0  0  0  0  0
  -28.2690  -26.4030   20.2730 O   0  0  0  0  0  0  0  0  0  0  0  0
  -24.5980  -31.8870   23.2410 C   0  0  0  0  0  0  0  0  0  0  0  0
  -27.1740  -27.2900   20.2020 C   0  0  0  0  0  0  0  0  0  0  0  0
  -23.3840  -30.4930   21.6040 C   0  0  0  0  0  3  0  0  0  0  0  0
  -24.8240  -28.9370   20.1720 C   0  0  0  0  0  0  0  0  0  0  0  0
  -25.9240  -30.7980   21.4130 C   0  0  0  0  0  2  0  0  0  0  0  0
  -25.9970  -29.4130   20.7730 C   0  0  0  0  0  0  0  0  0  0  0  0
  -27.1740  -28.6040   20.7770 C   0  0  0  0  0  3  0  0  0  0  0  0
  -25.9780  -26.8800   19.5710 C   0  0  0  0  0  3  0  0  0  0  0  0
  -24.8200  -27.6770   19.5570 C   0  0  0  0  0  3  0  0  0  0  0  0
  -23.5980  -29.8240   20.2190 C   0  0  0  0  0  2  0  0  0  0  0  0
  -24.6560  -31.0760   22.1450 N   0  0  0  0  0  0  0  0  0  0  0  0
  -23.5160  -32.1670   23.7770 O   0  0  0  0  0  0  0  0  0  0  0  0
  -22.7220  -29.4740   22.5630 C   0  0  0  0  0  0  0  0  0  0  0  0
  -21.3940  -29.2950   22.4400 N   0  0  0  0  0  0  0  0  0  0  0  0
  -23.3990  -28.8550   23.3890 O   0  0  0  0  0  0  0  0  0  0  0  0
  -20.9040  -29.8690   21.7680 H   0  0  0  0  0  0  0  0  0  0  0  0
  -18.0170  -28.0890   22.9310 C   0  0  0  0  0  0  0  0  0  0  0  0
  -20.5750  -28.3560   23.2080 C   0  0  0  0  0  3  0  0  0  0  0  0
  -20.6780  -26.9190   22.6410 C   0  0  0  0  0  2  0  0  0  0  0  0
  -19.5790  -26.5890   21.6260 C   0  0  0  0  0  2  0  0  0  0  0  0
  -18.1960  -26.7370   22.2660 C   0  0  0  0  0  2  0  0  0  0  0  0
  -19.1330  -28.8570   23.3610 C   0  0  0  0  0  0  0  0  0  0  0  0
  -18.9110  -30.1250   23.9430 C   0  0  0  0  0  3  0  0  0  0  0  0
  -17.6050  -30.6240   24.1000 C   0  0  0  0  0  3  0  0  0  0  0  0
  -16.5030  -29.8530   23.6870 C   0  0  0  0  0  3  0  0  0  0  0  0
  -16.7110  -28.5890   23.1070 C   0  0  0  0  0  3  0  0  0  0  0  0
  -25.8830  -32.5180   23.8600 C   0  0  0  0  0  3  0  0  0  0  0  0
  -25.5810  -33.9190   24.1930 N   0  0  0  0  0  0  0  0  0  0  0  0
  -25.9050  -34.9670   23.4260 C   0  0  0  0  0  0  0  0  0  0  0  0
  -26.5590  -34.8570   22.3850 O   0  0  0  0  0  0  0  0  0  0  0  0
  -25.0060  -34.0800   25.0070 H   0  0  0  0  0  0  0  0  0  0  0  0
  -24.1820  -36.7640   23.0850 C   0  0  0  0  0  1  0  0  0  0  0  0
  -25.4280  -36.3580   23.8860 C   0  0  0  0  0  3  0  0  0  0  0  0
  -27.5730  -37.2340   24.6960 C   0  0  0  0  0  1  0  0  0  0  0  0
  -26.4630  -37.4080   23.7620 N   0  0  0  0  0  0  0  0  0  0  0  0
  -26.0640  -38.3310   23.9110 H   0  0  0  0  0  0  0  0  0  0  0  0
  -26.3940  -31.7480   25.1410 C   0  0  1  0  0  0  0  0  0  0  0  0
  -25.3000  -31.5240   26.2100 C   0  0  0  0  0  1  0  0  0  0  0  0
  -26.9730  -30.3710   24.7490 C   0  0  0  0  0  1  0  0  0  0  0  0
  -27.5520  -32.5360   25.7970 C   0  0  0  0  0  1  0  0  0  0  0  0
  -30.0710  -17.1240   21.2440 C   0  0  0  0  0  2  0  0  0  0  0  0
  -30.6250  -14.7170   20.3120 C   0  0  0  0  0  0  0  0  0  0  0  0
  -30.4320  -12.4560   19.2500 C   0  0  0  0  0  2  0  0  0  0  0  0
  -29.4730  -12.5150   18.0400 C   0  0  0  0  0  2  0  0  0  0  0  0
  -28.0030  -12.3500   18.4800 C   0  0  0  0  0  2  0  0  0  0  0  0
  -27.6420  -13.2320   19.7050 C   0  0  0  0  0  3  0  0  0  0  0  0
  -28.7130  -13.1320   20.8140 C   0  0  0  0  0  2  0  0  0  0  0  0
  -30.0020  -13.4950   20.2060 N   0  0  0  0  0  0  0  0  0  0  0  0
  -31.8200  -14.8400   20.0370 O   0  0  0  0  0  0  0  0  0  0  0  0
  -29.8150  -15.8050   20.5470 N   0  0  0  0  0  0  0  0  0  0  0  0
  -28.8360  -15.5730   20.5310 H   0  0  0  0  0  0  0  0  0  0  0  0
  -25.2510  -13.8380   20.4320 C   0  0  0  0  0  0  0  0  0  0  0  0
  -24.1870  -13.0680   20.8150 C   0  0  0  0  0  0  0  0  0  0  0  0
  -24.6490  -11.7160   20.7950 C   0  0  0  0  0  0  0  0  0  0  0  0
  -26.2970  -12.9560   20.2030 N   0  0  0  0  0  0  0  0  0  0  0  0
  -25.9400  -11.6770   20.4850 N   0  0  0  0  0  0  0  0  0  0  0  0
  -23.9250  -10.4560   20.9970 C   0  0  0  0  0  0  0  0  0  0  0  0
  -24.3490   -9.5020   21.9470 C   0  0  0  0  0  3  0  0  0  0  0  0
  -23.6220   -8.3070   22.1360 C   0  0  0  0  0  3  0  0  0  0  0  0
  -22.4560   -8.0570   21.3730 C   0  0  0  0  0  0  0  0  0  0  0  0
  -22.0530   -9.0000   20.4110 C   0  0  0  0  0  3  0  0  0  0  0  0
  -22.7800  -10.1860   20.2220 C   0  0  0  0  0  3  0  0  0  0  0  0
  -21.7020   -6.9120   21.4670 O   0  0  0  0  0  0  0  0  0  0  0  0
  -21.6310   -6.1920   22.6320 C   0  0  0  0  0  0  0  0  0  0  0  0
  -21.1610   -6.7650   23.8350 C   0  0  0  0  0  3  0  0  0  0  0  0
  -21.0410   -5.9690   24.9910 C   0  0  0  0  0  3  0  0  0  0  0  0
  -21.3790   -4.6030   24.9470 C   0  0  0  0  0  0  0  0  0  0  0  0
  -21.8420   -4.0300   23.7490 C   0  0  0  0  0  3  0  0  0  0  0  0
  -21.9640   -4.8230   22.5940 C   0  0  0  0  0  0  0  0  0  0  0  0
  -22.3890   -4.2610   21.4370 F   0  0  0  0  0  0  0  0  0  0  0  0
  -21.2560   -3.8380   26.0560 F   0  0  0  0  0  0  0  0  0  0  0  0
  -22.7900  -13.5480   21.0810 C   0  0  0  0  0  0  0  0  0  0  0  0
  -22.0560  -12.8590   21.9470 N   0  0  0  0  0  0  0  0  0  0  0  0
  -22.3550  -14.5730   20.5560 O   0  0  0  0  0  0  0  0  0  0  0  0
  -22.4160  -12.0310   22.4010 H   0  0  0  0  0  0  0  0  0  0  0  0
  -21.1210  -13.1710   22.1680 H   0  0  0  0  0  0  0  0  0  0  0  0
  -25.4080  -15.2090   20.2400 N   0  0  0  0  0  0  0  0  0  0  0  0
  -24.6280  -15.8490   20.3490 H   0  0  0  0  0  0  0  0  0  0  0  0
  -26.2320  -15.6560   19.8590 H   0  0  0  0  0  0  0  0  0  0  0  0
  2  6  1  0
  2  4  2  0
  3  9  1  0
  3  1  2  0
  4  3  1  0
  5  1  1  0
  5 53  1  0
  6  5  2  0
  8  4  1  0
  8  7  1  0
 10  9  1  0
 11 12  1  0
 11 10  2  0
 13 24  2  0
 14 12  1  0
 14 19  1  0
 15 23  1  0
 15 25  1  0
 16 22  1  0
 16 18  1  0
 17 23  1  0
 18 19  2  0
 18 17  1  0
 20 14  2  0
 21 20  1  0
 21 16  2  0
 22 15  1  0
 23 13  1  0
 25 27  2  0
 26 25  1  0
 28 26  1  0
 29 38  2  0
 29 34  1  0
 30 26  1  0
 30 34  1  0
 31 30  1  0
 32 33  1  0
 32 31  1  0
 33 29  1  0
 34 35  2  0
 35 36  1  0
 37 36  2  0
 38 37  1  0
 39 13  1  0
 39 40  1  0
 39 49  1  0
 40 43  1  0
 41 45  1  0
 41 40  1  0
 42 41  2  0
 45 44  1  0
 47 45  1  0
 47 48  1  0
 47 46  1  0
 49 52  1  1
 49 50  1  0
 51 49  1  0
 54 62  1  0
 55 60  1  0
 56 57  1  0
 56 55  1  0
 58 57  1  0
 58 67  1  0
 58 59  1  0
 60 54  1  0
 60 59  1  0
 61 54  2  0
 62 53  1  0
 63 62  1  0
 64 65  2  0
 65 84  1  0
 66 65  1  0
 66 69  1  0
 67 64  1  0
 67 68  1  0
 68 66  2  0
 69 70  1  0
 70 71  2  0
 72 75  1  0
 72 71  1  0
 73 72  2  0
 74 73  1  0
 74 69  2  0
 75 76  1  0
 76 77  1  0
 77 78  2  0
 79 78  1  0
 79 83  1  0
 80 79  2  0
 81 76  2  0
 81 80  1  0
 82 81  1  0
 84 85  1  0
 85 88  1  0
 85 87  1  0
 86 84  2  0
 89 90  1  0
 89 64  1  0
 91 89  1  0
M  ISO  4  11 101  12 101  54 100  62 100
M  END
>  <TORSDO>  (50) 
F 21

>  <SCORE>  (50) 
-13.438

>  <name>  (50) 
51

>  <ligand_id>  (50) 
51

>  <original_smiles>  (50) 
[H]c1nc(C([H])([H])N([H])C(=O)N2C([H])([H])C([H])([H])C([H])([H])C([H])(n3nc(-c4c([H])c([H])c(Oc5c([H])c([H])c(F)c([H])c5F)c([H])c4[H])c(C(=O)N([H])[H])c3N([H])[H])C2([H])[H])c([H])c(C([H])([H])C([H])([H])C([H])([H])Oc2c([H])c([H])c3c(c2[H])C([H])([H])N(C(=O)C([H])(N([H])C(=O)C([H])(N([H])C([H])([H])[H])C([H])([H])[H])C(C([H])([H])[H])(C([H])([H])[H])C([H])([H])[H])C([H])(C(=O)N([H])C2([H])c4c([H])c([H])c([H])c([H])c4C([H])([H])C([H])([H])C2([H])[H])C3([H])[H])c1C([H])([H])C([H])([H])[H]

>  <smiles>  (50) 
[H]c1nc(C([H])([H])N([H])C(=O)N2C([H])([H])C([H])([H])C([H])([H])C([H])(n3nc(-c4c([H])c([H])c(Oc5c([H])c([H])c(F)c([H])c5F)c([H])c4[H])c(C(=O)N([H])[H])c3N([H])[H])C2([H])[H])c([H])c(C([H])([H])C([H])([H])C([H])([H])Oc2c([H])c([H])c3c(c2[H])C([H])([H])N(C(=O)C([H])(N([H])C(=O)C([H])(N([H])C([H])([H])[H])C([H])([H])[H])C(C([H])([H])[H])(C([H])([H])[H])C([H])([H])[H])C([H])(C(=O)N([H])C2([H])c4c([H])c([H])c([H])c([H])c4C([H])([H])C([H])([H])C2([H])[H])C3([H])[H])c1C([H])([H])C([H])([H])[H]

$$$$
52:0:0
     RDKit          3D

 96104  0  0  1  0  0  0  0  0999 V2000
  -29.3380  -20.0260   21.8630 C   0  0  0  0  0  3  0  0  0  0  0  0
  -29.8240  -19.4180   20.7310 C   0  0  0  0  0  0  0  0  0  0  0  0
  -29.8590  -21.6810   20.4500 C   0  0  0  0  0  3  0  0  0  0  0  0
  -30.1050  -20.4760   19.8600 N   0  0  0  0  0  0  0  0  0  0  0  0
  -29.3960  -21.3840   21.6720 N   0  0  0  0  0  0  0  0  0  0  0  0
  -29.1260  -22.0690   22.3690 H   0  0  0  0  0  0  0  0  0  0  0  0
  -31.5700  -23.3660   19.6340 C   0  0  0  0  0  1  0  0  0  0  0  0
  -30.0680  -23.1000   19.8890 C   0  0  0  0  0  3  0  0  0  0  0  0
  -29.3910  -24.3170   20.6250 C   0  0  0  0  0  2  0  0  0  0  0  0
  -28.9150  -25.4810   19.6690 C   0  0  0  0  0  2  0  0  0  0  0  0
  -28.6460  -26.7540   20.3260 O   0  0  0  0  0  0  0  0  0  0  0  0
  -24.6600  -31.9090   23.2460 C   0  0  0  0  0  0  0  0  0  0  0  0
  -27.4360  -27.4460   20.2380 C   0  0  0  0  0  0  0  0  0  0  0  0
  -23.5030  -30.4830   21.5890 C   0  0  0  0  0  3  0  0  0  0  0  0
  -25.0060  -28.9500   20.2020 C   0  0  0  0  0  0  0  0  0  0  0  0
  -26.0290  -30.8660   21.4380 C   0  0  0  0  0  2  0  0  0  0  0  0
  -26.1470  -29.4870   20.8060 C   0  0  0  0  0  0  0  0  0  0  0  0
  -27.3530  -28.7420   20.8220 C   0  0  0  0  0  3  0  0  0  0  0  0
  -26.2630  -26.9340   19.6320 C   0  0  0  0  0  3  0  0  0  0  0  0
  -25.0590  -27.6720   19.6150 C   0  0  0  0  0  3  0  0  0  0  0  0
  -23.7490  -29.7970   20.2170 C   0  0  0  0  0  2  0  0  0  0  0  0
  -24.7480  -31.1020   22.1510 N   0  0  0  0  0  0  0  0  0  0  0  0
  -23.5640  -32.1710   23.7660 O   0  0  0  0  0  0  0  0  0  0  0  0
  -22.8450  -29.4620   22.5440 C   0  0  0  0  0  0  0  0  0  0  0  0
  -21.5210  -29.2810   22.4160 N   0  0  0  0  0  0  0  0  0  0  0  0
  -23.5260  -28.8320   23.3600 O   0  0  0  0  0  0  0  0  0  0  0  0
  -21.0290  -29.8400   21.7320 H   0  0  0  0  0  0  0  0  0  0  0  0
  -18.1430  -28.1050   22.9270 C   0  0  0  0  0  0  0  0  0  0  0  0
  -20.7040  -28.3400   23.1830 C   0  0  0  0  0  3  0  0  0  0  0  0
  -20.7900  -26.9170   22.5880 C   0  0  0  0  0  2  0  0  0  0  0  0
  -19.6810  -26.6150   21.5770 C   0  0  0  0  0  2  0  0  0  0  0  0
  -18.3040  -26.7630   22.2320 C   0  0  0  0  0  2  0  0  0  0  0  0
  -19.2690  -28.8520   23.3590 C   0  0  0  0  0  0  0  0  0  0  0  0
  -19.0660  -30.1100   23.9660 C   0  0  0  0  0  3  0  0  0  0  0  0
  -17.7670  -30.6220   24.1460 C   0  0  0  0  0  3  0  0  0  0  0  0
  -16.6540  -29.8710   23.7300 C   0  0  0  0  0  3  0  0  0  0  0  0
  -16.8420  -28.6140   23.1270 C   0  0  0  0  0  3  0  0  0  0  0  0
  -25.9260  -32.5640   23.8830 C   0  0  0  0  0  3  0  0  0  0  0  0
  -25.5940  -33.9600   24.1970 N   0  0  0  0  0  0  0  0  0  0  0  0
  -25.9250  -35.0100   23.4340 C   0  0  0  0  0  0  0  0  0  0  0  0
  -26.6150  -34.9090   22.4160 O   0  0  0  0  0  0  0  0  0  0  0  0
  -24.9800  -34.1130   24.9830 H   0  0  0  0  0  0  0  0  0  0  0  0
  -24.1790  -36.7750   23.0380 C   0  0  0  0  0  1  0  0  0  0  0  0
  -25.4120  -36.3950   23.8730 C   0  0  0  0  0  3  0  0  0  0  0  0
  -27.5200  -37.3150   24.7340 C   0  0  0  0  0  1  0  0  0  0  0  0
  -26.4310  -37.4620   23.7700 N   0  0  0  0  0  0  0  0  0  0  0  0
  -26.0090  -38.3770   23.9090 H   0  0  0  0  0  0  0  0  0  0  0  0
  -26.4330  -31.8080   25.1720 C   0  0  1  0  0  0  0  0  0  0  0  0
  -25.3260  -31.5630   26.2230 C   0  0  0  0  0  1  0  0  0  0  0  0
  -27.0380  -30.4350   24.7980 C   0  0  0  0  0  1  0  0  0  0  0  0
  -27.5620  -32.6200   25.8480 C   0  0  0  0  0  1  0  0  0  0  0  0
  -29.9590  -17.9260   20.3750 C   0  0  0  0  0  2  0  0  0  0  0  0
  -30.4140  -16.9340   21.4950 C   0  0  0  0  0  2  0  0  0  0  0  0
  -30.8130  -14.5920   20.4910 C   0  0  0  0  0  0  0  0  0  0  0  0
  -30.5380  -12.4730   19.2170 C   0  0  0  0  0  2  0  0  0  0  0  0
  -29.5870  -12.7090   18.0230 C   0  0  0  0  0  2  0  0  0  0  0  0
  -28.1130  -12.5480   18.4520 C   0  0  0  0  0  2  0  0  0  0  0  0
  -27.7860  -13.3520   19.7400 C   0  0  0  0  0  3  0  0  0  0  0  0
  -28.8330  -13.0610   20.8350 C   0  0  0  0  0  2  0  0  0  0  0  0
  -30.1610  -13.4060   20.2950 N   0  0  0  0  0  0  0  0  0  0  0  0
  -31.9030  -14.8520   19.9780 O   0  0  0  0  0  0  0  0  0  0  0  0
  -30.1200  -15.5060   21.2080 N   0  0  0  0  0  0  0  0  0  0  0  0
  -29.2750  -15.1470   21.6240 H   0  0  0  0  0  0  0  0  0  0  0  0
  -25.3840  -13.9680   20.4290 C   0  0  0  0  0  0  0  0  0  0  0  0
  -24.3110  -13.2010   20.7990 C   0  0  0  0  0  0  0  0  0  0  0  0
  -24.7690  -11.8480   20.7770 C   0  0  0  0  0  0  0  0  0  0  0  0
  -26.4280  -13.0830   20.2130 N   0  0  0  0  0  0  0  0  0  0  0  0
  -26.0620  -11.8030   20.4760 N   0  0  0  0  0  0  0  0  0  0  0  0
  -24.0400  -10.5910   20.9780 C   0  0  0  0  0  0  0  0  0  0  0  0
  -24.4740   -9.6320   21.9190 C   0  0  0  0  0  3  0  0  0  0  0  0
  -23.7530   -8.4310   22.1000 C   0  0  0  0  0  3  0  0  0  0  0  0
  -22.5790   -8.1890   21.3470 C   0  0  0  0  0  0  0  0  0  0  0  0
  -22.1650   -9.1370   20.3950 C   0  0  0  0  0  3  0  0  0  0  0  0
  -22.8860  -10.3270   20.2100 C   0  0  0  0  0  3  0  0  0  0  0  0
  -21.8180   -7.0500   21.4480 O   0  0  0  0  0  0  0  0  0  0  0  0
  -21.7710   -6.3160   22.6050 C   0  0  0  0  0  0  0  0  0  0  0  0
  -21.3560   -6.8790   23.8320 C   0  0  0  0  0  3  0  0  0  0  0  0
  -21.2540   -6.0660   24.9800 C   0  0  0  0  0  3  0  0  0  0  0  0
  -21.5550   -4.6930   24.9010 C   0  0  0  0  0  0  0  0  0  0  0  0
  -21.9650   -4.1330   23.6780 C   0  0  0  0  0  3  0  0  0  0  0  0
  -22.0690   -4.9410   22.5340 C   0  0  0  0  0  0  0  0  0  0  0  0
  -22.4430   -4.3890   21.3550 F   0  0  0  0  0  0  0  0  0  0  0  0
  -21.4510   -3.9090   26.0000 F   0  0  0  0  0  0  0  0  0  0  0  0
  -22.9120  -13.6830   21.0590 C   0  0  0  0  0  0  0  0  0  0  0  0
  -22.1780  -12.9960   21.9260 N   0  0  0  0  0  0  0  0  0  0  0  0
  -22.4760  -14.7020   20.5260 O   0  0  0  0  0  0  0  0  0  0  0  0
  -22.5420  -12.1700   22.3790 H   0  0  0  0  0  0  0  0  0  0  0  0
  -21.2360  -13.2990   22.1340 H   0  0  0  0  0  0  0  0  0  0  0  0
  -25.5560  -15.3360   20.2420 N   0  0  0  0  0  0  0  0  0  0  0  0
  -24.7860  -15.9900   20.3220 H   0  0  0  0  0  0  0  0  0  0  0  0
  -26.4040  -15.7640   19.8920 H   0  0  0  0  0  0  0  0  0  0  0  0
  -30.6880  -20.3100   18.4980 C   0  0  0  0  0  2  0  0  0  0  0  0
  -28.4660  -20.8660   17.2920 C   0  0  0  0  0  1  0  0  0  0  0  0
  -30.0020  -21.0020   17.2910 C   0  0  0  0  0  3  0  0  0  0  0  0
  -30.4890  -21.3710   14.7720 C   0  0  0  0  0  1  0  0  0  0  0  0
  -30.6100  -20.4430   15.9900 C   0  0  0  0  0  2  0  0  0  0  0  0
  2  1  2  0
  3  8  1  0
  3  5  1  0
  4  3  1  0
  4  2  1  0
  5  1  1  0
  5  6  1  0
  8  7  1  0
  8  9  1  0
 10 11  1  0
 10  9  1  0
 12 23  2  0
 13 11  1  0
 13 18  1  0
 14 22  1  0
 14 24  1  0
 15 21  1  0
 15 17  1  0
 16 22  1  0
 17 18  2  0
 17 16  1  0
 19 13  2  0
 20 19  1  0
 20 15  2  0
 21 14  1  0
 22 12  1  0
 24 26  2  0
 25 24  1  0
 27 25  1  0
 28 37  2  0
 28 33  1  0
 29 25  1  0
 29 33  1  0
 30 29  1  0
 31 32  1  0
 31 30  1  0
 32 28  1  0
 33 34  2  0
 34 35  1  0
 36 35  2  0
 37 36  1  0
 38 12  1  0
 38 39  1  0
 38 48  1  0
 39 42  1  0
 40 44  1  0
 40 39  1  0
 41 40  2  0
 44 43  1  0
 46 44  1  0
 46 47  1  0
 46 45  1  0
 48 51  1  1
 48 49  1  0
 50 48  1  0
 52  2  1  0
 52 53  1  0
 54 62  1  0
 55 60  1  0
 56 57  1  0
 56 55  1  0
 58 57  1  0
 58 67  1  0
 58 59  1  0
 60 54  1  0
 60 59  1  0
 61 54  2  0
 62 53  1  0
 62 63  1  0
 64 65  2  0
 65 84  1  0
 66 65  1  0
 66 69  1  0
 67 64  1  0
 67 68  1  0
 68 66  2  0
 69 70  1  0
 70 71  2  0
 72 75  1  0
 72 71  1  0
 73 72  2  0
 74 73  1  0
 74 69  2  0
 75 76  1  0
 76 77  1  0
 77 78  2  0
 79 78  1  0
 79 83  1  0
 80 79  2  0
 81 76  2  0
 81 80  1  0
 82 81  1  0
 84 85  1  0
 85 88  1  0
 85 87  1  0
 86 84  2  0
 89 90  1  0
 89 64  1  0
 91 89  1  0
 92  4  1  0
 94 93  1  0
 94 92  1  0
 95 96  1  0
 96 94  1  0
M  ISO  4  10 101  11 101  54 100  62 100
M  END
>  <TORSDO>  (51) 
F 24

>  <SCORE>  (51) 
-12.262

>  <name>  (51) 
52

>  <ligand_id>  (51) 
52

>  <original_smiles>  (51) 
[H]c1c([H])c([H])c2c(c1[H])C([H])([H])C([H])([H])C([H])([H])C2([H])N([H])C(=O)C1([H])N(C(=O)C([H])(N([H])C(=O)C([H])(N([H])C([H])([H])[H])C([H])([H])[H])C(C([H])([H])[H])(C([H])([H])[H])C([H])([H])[H])C([H])([H])c2c([H])c(OC([H])([H])C([H])([H])C([H])(c3n(C([H])([H])C([H])(C([H])([H])[H])C([H])([H])C([H])([H])[H])c(C([H])([H])C([H])([H])N([H])C(=O)N4C([H])([H])C([H])([H])C([H])([H])C([H])(n5nc(-c6c([H])c([H])c(Oc7c([H])c([H])c(F)c([H])c7F)c([H])c6[H])c(C(=O)N([H])[H])c5N([H])[H])C4([H])[H])c([H])[n+]3[H])C([H])([H])[H])c([H])c([H])c2C1([H])[H]

>  <smiles>  (51) 
[H]c1c([H])c([H])c2c(c1[H])C([H])([H])C([H])([H])C([H])([H])C2([H])N([H])C(=O)C1([H])N(C(=O)C([H])(N([H])C(=O)C([H])(N([H])C([H])([H])[H])C([H])([H])[H])C(C([H])([H])[H])(C([H])([H])[H])C([H])([H])[H])C([H])([H])c2c([H])c(OC([H])([H])C([H])([H])C([H])(c3n(C([H])([H])C([H])(C([H])([H])[H])C([H])([H])C([H])([H])[H])c(C([H])([H])C([H])([H])N([H])C(=O)N4C([H])([H])C([H])([H])C([H])([H])C([H])(n5nc(-c6c([H])c([H])c(Oc7c([H])c([H])c(F)c([H])c7F)c([H])c6[H])c(C(=O)N([H])[H])c5N([H])[H])C4([H])[H])c([H])[n+]3[H])C([H])([H])[H])c([H])c([H])c2C1([H])[H]

$$$$
53:0:0
     RDKit          3D

 95103  0  0  1  0  0  0  0  0999 V2000
  -29.5420  -21.3680   20.7250 C   0  0  0  0  0  3  0  0  0  0  0  0
  -30.0260  -20.0750   21.0030 C   0  0  0  0  0  3  0  0  0  0  0  0
  -28.7260  -21.6080   19.5970 C   0  0  0  0  0  0  0  0  0  0  0  0
  -29.7240  -18.9810   20.1640 C   0  0  0  0  0  0  0  0  0  0  0  0
  -28.3610  -20.5000   18.7730 C   0  0  0  0  0  0  0  0  0  0  0  0
  -28.8710  -19.1910   19.0440 C   0  0  0  0  0  0  0  0  0  0  0  0
  -29.4930  -17.8900   16.9320 C   0  0  0  0  0  1  0  0  0  0  0  0
  -28.5290  -18.0150   18.1210 C   0  0  0  0  0  2  0  0  0  0  0  0
  -28.2770  -23.0380   19.2210 C   0  0  0  0  0  2  0  0  0  0  0  0
  -28.4990  -24.2170   20.2080 C   0  0  0  0  0  2  0  0  0  0  0  0
  -28.4450  -25.5810   19.4700 C   0  0  0  0  0  2  0  0  0  0  0  0
  -28.2690  -26.7170   20.3350 O   0  0  0  0  0  0  0  0  0  0  0  0
  -24.5360  -31.9880   23.3460 C   0  0  0  0  0  0  0  0  0  0  0  0
  -27.0830  -27.4320   20.3250 C   0  0  0  0  0  0  0  0  0  0  0  0
  -23.2940  -30.5800   21.7350 C   0  0  0  0  0  3  0  0  0  0  0  0
  -24.7100  -28.9870   20.3350 C   0  0  0  0  0  0  0  0  0  0  0  0
  -25.8270  -30.8830   21.5200 C   0  0  0  0  0  2  0  0  0  0  0  0
  -25.8820  -29.4980   20.9060 C   0  0  0  0  0  0  0  0  0  0  0  0
  -27.0660  -28.7240   20.9020 C   0  0  0  0  0  3  0  0  0  0  0  0
  -25.8800  -26.9270   19.7770 C   0  0  0  0  0  3  0  0  0  0  0  0
  -24.7030  -27.7000   19.7750 C   0  0  0  0  0  3  0  0  0  0  0  0
  -23.4850  -29.8720   20.3680 C   0  0  0  0  0  2  0  0  0  0  0  0
  -24.5720  -31.1660   22.2580 N   0  0  0  0  0  0  0  0  0  0  0  0
  -23.4630  -32.2920   23.8860 O   0  0  0  0  0  0  0  0  0  0  0  0
  -22.6300  -29.5890   22.7180 C   0  0  0  0  0  0  0  0  0  0  0  0
  -21.3170  -29.3640   22.5460 N   0  0  0  0  0  0  0  0  0  0  0  0
  -23.2930  -29.0220   23.5900 O   0  0  0  0  0  0  0  0  0  0  0  0
  -20.8400  -29.8750   21.8150 H   0  0  0  0  0  0  0  0  0  0  0  0
  -17.9750  -28.0370   22.9030 C   0  0  0  0  0  0  0  0  0  0  0  0
  -20.4930  -28.4420   23.3280 C   0  0  0  0  0  3  0  0  0  0  0  0
  -20.7010  -26.9810   22.8660 C   0  0  0  0  0  2  0  0  0  0  0  0
  -19.6890  -26.5330   21.8060 C   0  0  0  0  0  2  0  0  0  0  0  0
  -18.2590  -26.6540   22.3430 C   0  0  0  0  0  2  0  0  0  0  0  0
  -19.0240  -28.8830   23.3520 C   0  0  0  0  0  0  0  0  0  0  0  0
  -18.7090  -30.1730   23.8300 C   0  0  0  0  0  3  0  0  0  0  0  0
  -17.3740  -30.6190   23.8690 C   0  0  0  0  0  3  0  0  0  0  0  0
  -16.3380  -29.7720   23.4400 C   0  0  0  0  0  3  0  0  0  0  0  0
  -16.6380  -28.4840   22.9630 C   0  0  0  0  0  3  0  0  0  0  0  0
  -25.8370  -32.6060   23.9470 C   0  0  0  0  0  3  0  0  0  0  0  0
  -25.5520  -34.0120   24.2650 N   0  0  0  0  0  0  0  0  0  0  0  0
  -25.8810  -35.0500   23.4860 C   0  0  0  0  0  0  0  0  0  0  0  0
  -26.5290  -34.9260   22.4430 O   0  0  0  0  0  0  0  0  0  0  0  0
  -24.9770  -34.1830   25.0780 H   0  0  0  0  0  0  0  0  0  0  0  0
  -24.1610  -36.8530   23.1480 C   0  0  0  0  0  1  0  0  0  0  0  0
  -25.4180  -36.4490   23.9340 C   0  0  0  0  0  3  0  0  0  0  0  0
  -27.5790  -37.3280   24.7010 C   0  0  0  0  0  1  0  0  0  0  0  0
  -26.4570  -37.4910   23.7810 N   0  0  0  0  0  0  0  0  0  0  0  0
  -26.0620  -38.4170   23.9230 H   0  0  0  0  0  0  0  0  0  0  0  0
  -26.3580  -31.8390   25.2230 C   0  0  1  0  0  0  0  0  0  0  0  0
  -25.2700  -31.6100   26.2990 C   0  0  0  0  0  1  0  0  0  0  0  0
  -26.9340  -30.4580   24.8330 C   0  0  0  0  0  1  0  0  0  0  0  0
  -27.5160  -32.6310   25.8750 C   0  0  0  0  0  1  0  0  0  0  0  0
  -30.3880  -17.6240   20.4620 C   0  0  0  0  0  2  0  0  0  0  0  0
  -29.4250  -16.5130   20.9610 C   0  0  0  0  0  2  0  0  0  0  0  0
  -30.5490  -14.4140   20.2180 C   0  0  0  0  0  0  0  0  0  0  0  0
  -30.1190  -12.4390   18.7910 C   0  0  0  0  0  2  0  0  0  0  0  0
  -29.0580  -12.7660   17.7210 C   0  0  0  0  0  2  0  0  0  0  0  0
  -27.6370  -12.5500   18.2740 C   0  0  0  0  0  2  0  0  0  0  0  0
  -27.4250  -13.2310   19.6510 C   0  0  0  0  0  3  0  0  0  0  0  0
  -28.5790  -12.8840   20.6170 C   0  0  0  0  0  2  0  0  0  0  0  0
  -29.8490  -13.2710   19.9730 N   0  0  0  0  0  0  0  0  0  0  0  0
  -31.5340  -14.7500   19.5530 O   0  0  0  0  0  0  0  0  0  0  0  0
  -30.5960  -15.0270   22.5610 C   0  0  0  0  0  1  0  0  0  0  0  0
  -30.0690  -15.2040   21.2080 N   0  0  0  0  0  0  0  0  0  0  0  0
  -25.0710  -13.7280   20.5690 C   0  0  0  0  0  0  0  0  0  0  0  0
  -24.0610  -12.9050   20.9870 C   0  0  0  0  0  0  0  0  0  0  0  0
  -24.5610  -11.5720   20.8610 C   0  0  0  0  0  0  0  0  0  0  0  0
  -26.1220  -12.8930   20.2200 N   0  0  0  0  0  0  0  0  0  0  0  0
  -25.8220  -11.5900   20.4510 N   0  0  0  0  0  0  0  0  0  0  0  0
  -23.8930  -10.2780   21.0540 C   0  0  0  0  0  0  0  0  0  0  0  0
  -24.3640   -9.3380   21.9970 C   0  0  0  0  0  3  0  0  0  0  0  0
  -23.6960   -8.1080   22.1760 C   0  0  0  0  0  3  0  0  0  0  0  0
  -22.5420   -7.8100   21.4130 C   0  0  0  0  0  0  0  0  0  0  0  0
  -22.0900   -8.7400   20.4600 C   0  0  0  0  0  3  0  0  0  0  0  0
  -22.7600   -9.9610   20.2790 C   0  0  0  0  0  3  0  0  0  0  0  0
  -21.8430   -6.6310   21.5020 O   0  0  0  0  0  0  0  0  0  0  0  0
  -21.7170   -5.9550   22.6900 C   0  0  0  0  0  0  0  0  0  0  0  0
  -21.1340   -6.5520   23.8280 C   0  0  0  0  0  3  0  0  0  0  0  0
  -20.9620   -5.8000   25.0070 C   0  0  0  0  0  3  0  0  0  0  0  0
  -21.3630   -4.4500   25.0470 C   0  0  0  0  0  0  0  0  0  0  0  0
  -21.9370   -3.8530   23.9130 C   0  0  0  0  0  3  0  0  0  0  0  0
  -22.1120   -4.6020   22.7360 C   0  0  0  0  0  0  0  0  0  0  0  0
  -22.6470   -4.0160   21.6390 F   0  0  0  0  0  0  0  0  0  0  0  0
  -21.1890   -3.7250   26.1770 F   0  0  0  0  0  0  0  0  0  0  0  0
  -22.6760  -13.3200   21.3910 C   0  0  0  0  0  0  0  0  0  0  0  0
  -22.0540  -12.5780   22.3010 N   0  0  0  0  0  0  0  0  0  0  0  0
  -22.1550  -14.3370   20.9350 O   0  0  0  0  0  0  0  0  0  0  0  0
  -22.4900  -11.7560   22.6900 H   0  0  0  0  0  0  0  0  0  0  0  0
  -21.1290  -12.8380   22.6130 H   0  0  0  0  0  0  0  0  0  0  0  0
  -25.1790  -15.1090   20.4380 N   0  0  0  0  0  0  0  0  0  0  0  0
  -24.4070  -15.7350   20.6410 H   0  0  0  0  0  0  0  0  0  0  0  0
  -25.9930  -15.5910   20.0790 H   0  0  0  0  0  0  0  0  0  0  0  0
  -27.3970  -20.7210   17.6000 C   0  0  0  0  0  2  0  0  0  0  0  0
  -24.9530  -20.6080   16.8410 C   0  0  0  0  0  1  0  0  0  0  0  0
  -25.9350  -20.4640   18.0100 C   0  0  0  0  0  2  0  0  0  0  0  0
  1  2  1  0
  3  1  2  0
  4 53  1  0
  4  2  2  0
  5  6  2  0
  5  3  1  0
  6  4  1  0
  7  8  1  0
  8  6  1  0
  9  3  1  0
  9 10  1  0
 11 10  1  0
 11 12  1  0
 13 24  2  0
 14 12  1  0
 14 19  1  0
 15 23  1  0
 15 25  1  0
 16 22  1  0
 16 18  1  0
 17 23  1  0
 18 17  1  0
 19 18  2  0
 20 14  2  0
 21 20  1  0
 21 16  2  0
 22 15  1  0
 23 13  1  0
 25 27  2  0
 26 25  1  0
 28 26  1  0
 29 38  2  0
 29 34  1  0
 30 26  1  0
 30 34  1  0
 31 30  1  0
 32 33  1  0
 32 31  1  0
 33 29  1  0
 34 35  2  0
 35 36  1  0
 37 36  2  0
 38 37  1  0
 39 13  1  0
 39 40  1  0
 39 49  1  0
 40 43  1  0
 41 45  1  0
 41 40  1  0
 42 41  2  0
 45 44  1  0
 47 48  1  0
 47 45  1  0
 47 46  1  0
 49 52  1  1
 49 50  1  0
 51 49  1  0
 53 54  1  0
 54 64  1  0
 55 64  1  0
 56 61  1  0
 57 58  1  0
 57 56  1  0
 59 58  1  0
 59 68  1  0
 59 60  1  0
 61 55  1  0
 61 60  1  0
 62 55  2  0
 64 63  1  0
 65 66  2  0
 66 85  1  0
 67 66  1  0
 67 70  1  0
 68 69  1  0
 68 65  1  0
 69 67  2  0
 70 71  1  0
 71 72  2  0
 73 76  1  0
 73 72  1  0
 74 73  2  0
 75 74  1  0
 75 70  2  0
 76 77  1  0
 77 82  2  0
 77 78  1  0
 78 79  2  0
 79 80  1  0
 80 84  1  0
 81 80  2  0
 82 81  1  0
 83 82  1  0
 85 86  1  0
 86 89  1  0
 86 88  1  0
 87 85  2  0
 90 65  1  0
 90 91  1  0
 92 90  1  0
 93 95  1  0
 93  5  1  0
 94 95  1  0
M  ISO  4  11 101  12 101  55 100  64 100
M  END
>  <TORSDO>  (52) 
F 24

>  <SCORE>  (52) 
-10.990

>  <name>  (52) 
53

>  <ligand_id>  (52) 
53

>  <original_smiles>  (52) 
[H]c1c([H])c([H])c2c(c1[H])C([H])([H])C([H])([H])C([H])([H])C2([H])N([H])C(=O)C1([H])N(C(=O)C([H])(N([H])C(=O)C([H])(N([H])C([H])([H])[H])C([H])([H])[H])C(C([H])([H])[H])(C([H])([H])[H])C([H])([H])[H])C([H])([H])c2c([H])c(OC([H])([H])C([H])([H])C([H])([H])c3c([H])c([H])c(C([H])([H])C([H])([H])N(C(=O)N4C([H])([H])C([H])([H])C([H])([H])C([H])(n5nc(-c6c([H])c([H])c(Oc7c([H])c([H])c(F)c([H])c7F)c([H])c6[H])c(C(=O)N([H])[H])c5N([H])[H])C4([H])[H])C([H])([H])[H])c(C([H])([H])C([H])([H])[H])c3C([H])([H])C([H])([H])C([H])([H])[H])c([H])c([H])c2C1([H])[H]

>  <smiles>  (52) 
[H]c1c([H])c([H])c2c(c1[H])C([H])([H])C([H])([H])C([H])([H])C2([H])N([H])C(=O)C1([H])N(C(=O)C([H])(N([H])C(=O)C([H])(N([H])C([H])([H])[H])C([H])([H])[H])C(C([H])([H])[H])(C([H])([H])[H])C([H])([H])[H])C([H])([H])c2c([H])c(OC([H])([H])C([H])([H])C([H])([H])c3c([H])c([H])c(C([H])([H])C([H])([H])N(C(=O)N4C([H])([H])C([H])([H])C([H])([H])C([H])(n5nc(-c6c([H])c([H])c(Oc7c([H])c([H])c(F)c([H])c7F)c([H])c6[H])c(C(=O)N([H])[H])c5N([H])[H])C4([H])[H])C([H])([H])[H])c(C([H])([H])C([H])([H])[H])c3C([H])([H])C([H])([H])C([H])([H])[H])c([H])c([H])c2C1([H])[H]

$$$$
54:0:0
     RDKit          3D

 95103  0  0  1  0  0  0  0  0999 V2000
  -27.8280  -22.7120   20.1220 C   0  0  0  0  0  3  0  0  0  0  0  0
  -29.8660  -21.4050   20.0370 C   0  0  0  0  0  3  0  0  0  0  0  0
  -29.2060  -22.6620   19.8420 C   0  0  0  0  0  0  0  0  0  0  0  0
  -27.1690  -21.5820   20.6240 C   0  0  0  0  0  0  0  0  0  0  0  0
  -29.1200  -20.2810   20.5060 C   0  0  0  0  0  0  0  0  0  0  0  0
  -27.8060  -20.4090   20.8190 N   0  0  0  0  0  0  0  0  0  0  0  0
  -30.5840  -18.8450   22.0320 C   0  0  0  0  0  1  0  0  0  0  0  0
  -29.6610  -18.8470   20.8030 C   0  0  0  0  0  3  0  0  0  0  0  0
  -30.2200  -17.9360   19.6560 C   0  0  0  0  0  2  0  0  0  0  0  0
  -31.1400  -15.5170   19.7430 C   0  0  0  0  0  0  0  0  0  0  0  0
  -31.1010  -13.1550   19.0010 C   0  0  0  0  0  2  0  0  0  0  0  0
  -30.1090  -13.0260   17.8240 C   0  0  0  0  0  2  0  0  0  0  0  0
  -28.6680  -12.8140   18.3250 C   0  0  0  0  0  2  0  0  0  0  0  0
  -28.2710  -13.8300   19.4260 C   0  0  0  0  0  3  0  0  0  0  0  0
  -29.3580  -13.9080   20.5220 C   0  0  0  0  0  2  0  0  0  0  0  0
  -30.6340  -14.2540   19.8670 N   0  0  0  0  0  0  0  0  0  0  0  0
  -32.2220  -15.7530   19.2000 O   0  0  0  0  0  0  0  0  0  0  0  0
  -30.2840  -16.5070   20.0870 N   0  0  0  0  0  0  0  0  0  0  0  0
  -29.4560  -16.1790   20.5590 H   0  0  0  0  0  0  0  0  0  0  0  0
  -25.9230  -14.3910   20.3190 C   0  0  0  0  0  0  0  0  0  0  0  0
  -24.8920  -13.5960   20.7380 C   0  0  0  0  0  0  0  0  0  0  0  0
  -25.3630  -12.2500   20.6300 C   0  0  0  0  0  0  0  0  0  0  0  0
  -26.9570  -13.5290   19.9850 N   0  0  0  0  0  0  0  0  0  0  0  0
  -26.6270  -12.2350   20.2280 N   0  0  0  0  0  0  0  0  0  0  0  0
  -24.6650  -10.9740   20.8230 C   0  0  0  0  0  0  0  0  0  0  0  0
  -25.1120  -10.0250   21.7690 C   0  0  0  0  0  3  0  0  0  0  0  0
  -24.4130   -8.8130   21.9510 C   0  0  0  0  0  3  0  0  0  0  0  0
  -23.2520   -8.5430   21.1890 C   0  0  0  0  0  0  0  0  0  0  0  0
  -22.8260   -9.4810   20.2300 C   0  0  0  0  0  3  0  0  0  0  0  0
  -23.5260  -10.6830   20.0460 C   0  0  0  0  0  3  0  0  0  0  0  0
  -22.5230   -7.3810   21.2800 O   0  0  0  0  0  0  0  0  0  0  0  0
  -22.3220   -6.7500   22.4820 C   0  0  0  0  0  0  0  0  0  0  0  0
  -21.6980   -7.3980   23.5700 C   0  0  0  0  0  3  0  0  0  0  0  0
  -21.4450   -6.6880   24.7620 C   0  0  0  0  0  3  0  0  0  0  0  0
  -21.8100   -5.3330   24.8650 C   0  0  0  0  0  0  0  0  0  0  0  0
  -22.4310   -4.6850   23.7820 C   0  0  0  0  0  3  0  0  0  0  0  0
  -22.6800   -5.3910   22.5920 C   0  0  0  0  0  0  0  0  0  0  0  0
  -23.2570   -4.7560   21.5430 F   0  0  0  0  0  0  0  0  0  0  0  0
  -21.5650   -4.6500   26.0070 F   0  0  0  0  0  0  0  0  0  0  0  0
  -23.5110  -14.0450   21.1250 C   0  0  0  0  0  0  0  0  0  0  0  0
  -22.8650  -13.3210   22.0320 N   0  0  0  0  0  0  0  0  0  0  0  0
  -23.0200  -15.0720   20.6590 O   0  0  0  0  0  0  0  0  0  0  0  0
  -23.2780  -12.4900   22.4300 H   0  0  0  0  0  0  0  0  0  0  0  0
  -21.9410  -13.5990   22.3320 H   0  0  0  0  0  0  0  0  0  0  0  0
  -26.0640  -15.7680   20.1730 N   0  0  0  0  0  0  0  0  0  0  0  0
  -25.3000  -16.4080   20.3630 H   0  0  0  0  0  0  0  0  0  0  0  0
  -26.8790  -16.2290   19.7910 H   0  0  0  0  0  0  0  0  0  0  0  0
  -29.8920  -23.9150   19.2480 C   0  0  0  0  0  2  0  0  0  0  0  0
  -29.4630  -25.3280   19.8050 C   0  0  0  0  0  2  0  0  0  0  0  0
  -29.7690  -26.5300   18.8550 C   0  0  0  0  0  2  0  0  0  0  0  0
  -29.4930  -27.8530   19.3790 O   0  0  0  0  0  0  0  0  0  0  0  0
  -25.1210  -31.4590   23.6830 C   0  0  0  0  0  0  0  0  0  0  0  0
  -28.2100  -28.3660   19.5240 C   0  0  0  0  0  0  0  0  0  0  0  0
  -24.0420  -30.3660   21.7410 C   0  0  0  0  0  3  0  0  0  0  0  0
  -25.6230  -29.4770   19.9440 C   0  0  0  0  0  0  0  0  0  0  0  0
  -26.4780  -31.1310   21.6130 C   0  0  0  0  0  2  0  0  0  0  0  0
  -26.7240  -29.9930   20.6370 C   0  0  0  0  0  0  0  0  0  0  0  0
  -28.0130  -29.4490   20.4200 C   0  0  0  0  0  3  0  0  0  0  0  0
  -27.0830  -27.8680   18.8300 C   0  0  0  0  0  3  0  0  0  0  0  0
  -25.8010  -28.4200   19.0320 C   0  0  0  0  0  3  0  0  0  0  0  0
  -24.2730  -30.0990   20.2290 C   0  0  0  0  0  2  0  0  0  0  0  0
  -25.2320  -30.9870   22.4070 N   0  0  0  0  0  0  0  0  0  0  0  0
  -24.0390  -31.4240   24.2850 O   0  0  0  0  0  0  0  0  0  0  0  0
  -23.5820  -29.0520   22.4130 C   0  0  0  0  0  0  0  0  0  0  0  0
  -22.3400  -28.6330   22.1210 N   0  0  0  0  0  0  0  0  0  0  0  0
  -24.3400  -28.4210   23.1520 O   0  0  0  0  0  0  0  0  0  0  0  0
  -21.7780  -29.2050   21.5060 H   0  0  0  0  0  0  0  0  0  0  0  0
  -19.3710  -26.5920   21.8800 C   0  0  0  0  0  0  0  0  0  0  0  0
  -21.7170  -27.4010   22.6000 C   0  0  0  0  0  3  0  0  0  0  0  0
  -22.2610  -26.1680   21.8440 C   0  0  0  0  0  2  0  0  0  0  0  0
  -21.4130  -25.7850   20.6280 C   0  0  0  0  0  2  0  0  0  0  0  0
  -19.9760  -25.4720   21.0510 C   0  0  0  0  0  2  0  0  0  0  0  0
  -20.1880  -27.5060   22.5930 C   0  0  0  0  0  0  0  0  0  0  0  0
  -19.5720  -28.5490   23.3210 C   0  0  0  0  0  3  0  0  0  0  0  0
  -18.1710  -28.6830   23.3410 C   0  0  0  0  0  3  0  0  0  0  0  0
  -17.3670  -27.7660   22.6410 C   0  0  0  0  0  3  0  0  0  0  0  0
  -17.9680  -26.7220   21.9180 C   0  0  0  0  0  3  0  0  0  0  0  0
  -26.3360  -32.0880   24.4350 C   0  0  0  0  0  3  0  0  0  0  0  0
  -25.9550  -33.4520   24.8330 N   0  0  0  0  0  0  0  0  0  0  0  0
  -26.3440  -34.5650   24.2000 C   0  0  0  0  0  0  0  0  0  0  0  0
  -27.1290  -34.5550   23.2480 O   0  0  0  0  0  0  0  0  0  0  0  0
  -25.2680  -33.5350   25.5680 H   0  0  0  0  0  0  0  0  0  0  0  0
  -24.6150  -36.3440   23.7890 C   0  0  0  0  0  1  0  0  0  0  0  0
  -25.7710  -35.9070   24.7010 C   0  0  0  0  0  3  0  0  0  0  0  0
  -27.7840  -36.7580   25.8200 C   0  0  0  0  0  1  0  0  0  0  0  0
  -26.7810  -36.9830   24.7830 N   0  0  0  0  0  0  0  0  0  0  0  0
  -26.3380  -37.8810   24.9590 H   0  0  0  0  0  0  0  0  0  0  0  0
  -26.7920  -31.2520   25.6930 C   0  0  1  0  0  0  0  0  0  0  0  0
  -25.6350  -30.9030   26.6580 C   0  0  0  0  0  1  0  0  0  0  0  0
  -27.4510  -29.9240   25.2510 C   0  0  0  0  0  1  0  0  0  0  0  0
  -27.8670  -32.0320   26.4860 C   0  0  0  0  0  1  0  0  0  0  0  0
  -25.6820  -21.6380   20.9720 C   0  0  0  0  0  2  0  0  0  0  0  0
  -24.6290  -23.5530   19.6250 C   0  0  0  0  0  1  0  0  0  0  0  0
  -23.9190  -23.1870   22.0100 C   0  0  0  0  0  1  0  0  0  0  0  0
  -25.0890  -23.0710   21.0140 C   0  0  0  0  0  3  0  0  0  0  0  0
  1  4  1  0
  2  5  2  0
  3  2  1  0
  3  1  2  0
  4  6  2  0
  4 92  1  0
  5  8  1  0
  5  6  1  0
  8  7  1  0
  9 18  1  0
  9  8  1  0
 10 16  1  0
 10 18  1  0
 11 16  1  0
 12 13  1  0
 12 11  1  0
 14 13  1  0
 14 23  1  0
 14 15  1  0
 16 15  1  0
 17 10  2  0
 18 19  1  0
 20 21  2  0
 21 40  1  0
 22 21  1  0
 22 25  1  0
 23 24  1  0
 23 20  1  0
 24 22  2  0
 25 26  1  0
 26 27  2  0
 28 31  1  0
 28 27  1  0
 29 28  2  0
 30 29  1  0
 30 25  2  0
 31 32  1  0
 32 37  2  0
 32 33  1  0
 33 34  2  0
 34 35  1  0
 35 39  1  0
 36 35  2  0
 37 36  1  0
 38 37  1  0
 40 41  1  0
 41 44  1  0
 41 43  1  0
 42 40  2  0
 45 20  1  0
 45 46  1  0
 47 45  1  0
 48 49  1  0
 48  3  1  0
 50 51  1  0
 50 49  1  0
 51 53  1  0
 52 63  2  0
 53 58  1  0
 54 62  1  0
 54 64  1  0
 55 61  1  0
 55 57  1  0
 56 62  1  0
 57 56  1  0
 58 57  2  0
 59 60  1  0
 59 53  2  0
 60 55  2  0
 61 54  1  0
 62 52  1  0
 64 66  2  0
 65 64  1  0
 67 65  1  0
 68 77  2  0
 68 73  1  0
 69 65  1  0
 70 69  1  0
 71 72  1  0
 71 70  1  0
 72 68  1  0
 73 69  1  0
 73 74  2  0
 74 75  1  0
 76 75  2  0
 77 76  1  0
 78 52  1  0
 78 79  1  0
 78 88  1  0
 79 82  1  0
 80 84  1  0
 80 79  1  0
 81 80  2  0
 84 83  1  0
 84 86  1  0
 86 87  1  0
 86 85  1  0
 88 91  1  1
 88 89  1  0
 90 88  1  0
 92 95  1  0
 93 95  1  0
 95 94  1  0
M  ISO  4  10 100  18 100  50 101  51 101
M  END
>  <TORSDO>  (53) 
F 23

>  <SCORE>  (53) 
-3.827

>  <name>  (53) 
54

>  <ligand_id>  (53) 
54

>  <original_smiles>  (53) 
[H]c1c([H])c([H])c2c(c1[H])C([H])([H])C([H])([H])C([H])([H])C2([H])N([H])C(=O)C1([H])N(C(=O)C([H])(N([H])C(=O)C([H])(N([H])C([H])([H])[H])C([H])([H])[H])C(C([H])([H])[H])(C([H])([H])[H])C([H])([H])[H])C([H])([H])c2c([H])c(OC([H])([H])C([H])([H])C([H])([H])c3c([H])c(C([H])([H])C([H])(C([H])([H])[H])C([H])([H])[H])nc(C([H])(C([H])([H])[H])C([H])([H])N([H])C(=O)N4C([H])([H])C([H])([H])C([H])([H])C([H])(n5nc(-c6c([H])c([H])c(Oc7c([H])c([H])c(F)c([H])c7F)c([H])c6[H])c(C(=O)N([H])[H])c5N([H])[H])C4([H])[H])c3[H])c([H])c([H])c2C1([H])[H]

>  <smiles>  (53) 
[H]c1c([H])c([H])c2c(c1[H])C([H])([H])C([H])([H])C([H])([H])C2([H])N([H])C(=O)C1([H])N(C(=O)C([H])(N([H])C(=O)C([H])(N([H])C([H])([H])[H])C([H])([H])[H])C(C([H])([H])[H])(C([H])([H])[H])C([H])([H])[H])C([H])([H])c2c([H])c(OC([H])([H])C([H])([H])C([H])([H])c3c([H])c(C([H])([H])C([H])(C([H])([H])[H])C([H])([H])[H])nc(C([H])(C([H])([H])[H])C([H])([H])N([H])C(=O)N4C([H])([H])C([H])([H])C([H])([H])C([H])(n5nc(-c6c([H])c([H])c(Oc7c([H])c([H])c(F)c([H])c7F)c([H])c6[H])c(C(=O)N([H])[H])c5N([H])[H])C4([H])[H])c3[H])c([H])c([H])c2C1([H])[H]

$$$$
55:0:0
     RDKit          3D

 95103  0  0  1  0  0  0  0  0999 V2000
  -27.9240  -19.1700   20.7090 C   0  0  0  0  0  3  0  0  0  0  0  0
  -28.5640  -20.3610   20.3560 C   0  0  0  0  0  3  0  0  0  0  0  0
  -27.0920  -18.5140   19.7940 C   0  0  0  0  0  0  0  0  0  0  0  0
  -28.3790  -20.9740   19.0930 C   0  0  0  0  0  0  0  0  0  0  0  0
  -26.8420  -19.1060   18.5300 C   0  0  0  0  0  0  0  0  0  0  0  0
  -27.3770  -20.3970   18.2140 C   0  0  0  0  0  0  0  0  0  0  0  0
  -26.0390  -18.2920   17.5140 C   0  0  0  0  0  1  0  0  0  0  0  0
  -26.4780  -17.1800   20.2200 C   0  0  0  0  0  2  0  0  0  0  0  0
  -24.5880  -17.9460   21.7880 C   0  0  0  0  0  1  0  0  0  0  0  0
  -24.9600  -17.2570   20.4670 C   0  0  0  0  0  2  0  0  0  0  0  0
  -29.3010  -22.2030   18.7830 C   0  0  0  0  0  2  0  0  0  0  0  0
  -30.8310  -21.8640   18.5000 C   0  0  0  0  0  2  0  0  0  0  0  0
  -31.9800  -22.8890   18.8340 C   0  0  0  0  0  2  0  0  0  0  0  0
  -33.3390  -22.5470   18.1110 C   0  0  0  0  0  2  0  0  0  0  0  0
  -34.5980  -22.9630   18.7220 O   0  0  0  0  0  0  0  0  0  0  0  0
  -41.0630  -21.7890   15.8330 C   0  0  0  0  0  0  0  0  0  0  0  0
  -35.6630  -22.0930   18.5240 C   0  0  0  0  0  0  0  0  0  0  0  0
  -39.8030  -19.7910   16.5620 C   0  0  0  0  0  3  0  0  0  0  0  0
  -37.7550  -20.2380   18.0230 C   0  0  0  0  0  0  0  0  0  0  0  0
  -39.4560  -22.0460   17.7290 C   0  0  0  0  0  2  0  0  0  0  0  0
  -38.0300  -21.6130   18.0270 C   0  0  0  0  0  0  0  0  0  0  0  0
  -36.9910  -22.5440   18.2920 C   0  0  0  0  0  3  0  0  0  0  0  0
  -35.4210  -20.7030   18.5370 C   0  0  0  0  0  3  0  0  0  0  0  0
  -36.4530  -19.7800   18.2840 C   0  0  0  0  0  3  0  0  0  0  0  0
  -38.9070  -19.3000   17.7300 C   0  0  0  0  0  2  0  0  0  0  0  0
  -40.1260  -21.2520   16.6660 N   0  0  0  0  0  0  0  0  0  0  0  0
  -41.6780  -21.0860   15.0190 O   0  0  0  0  0  0  0  0  0  0  0  0
  -39.1330  -19.4050   15.2240 C   0  0  0  0  0  0  0  0  0  0  0  0
  -39.2960  -18.1370   14.8120 N   0  0  0  0  0  0  0  0  0  0  0  0
  -38.4620  -20.2280   14.5940 O   0  0  0  0  0  0  0  0  0  0  0  0
  -39.8680  -17.5270   15.3810 H   0  0  0  0  0  0  0  0  0  0  0  0
  -39.1810  -15.1220   12.8180 C   0  0  0  0  0  0  0  0  0  0  0  0
  -38.7210  -17.5420   13.6060 C   0  0  0  0  0  3  0  0  0  0  0  0
  -37.2690  -17.0740   13.8550 C   0  0  0  0  0  2  0  0  0  0  0  0
  -37.1690  -15.6050   14.2760 C   0  0  0  0  0  2  0  0  0  0  0  0
  -37.7740  -14.6970   13.2020 C   0  0  0  0  0  2  0  0  0  0  0  0
  -39.6310  -16.4550   13.0240 C   0  0  0  0  0  0  0  0  0  0  0  0
  -40.9600  -16.7880   12.6820 C   0  0  0  0  0  3  0  0  0  0  0  0
  -41.8300  -15.8210   12.1440 C   0  0  0  0  0  3  0  0  0  0  0  0
  -41.3740  -14.5090   11.9270 C   0  0  0  0  0  3  0  0  0  0  0  0
  -40.0530  -14.1630   12.2600 C   0  0  0  0  0  3  0  0  0  0  0  0
  -41.4240  -23.3070   15.8780 C   0  0  0  0  0  3  0  0  0  0  0  0
  -42.8250  -23.4160   16.3050 N   0  0  0  0  0  0  0  0  0  0  0  0
  -43.2230  -23.6480   17.5630 C   0  0  0  0  0  0  0  0  0  0  0  0
  -42.4310  -23.8610   18.4850 O   0  0  0  0  0  0  0  0  0  0  0  0
  -43.5260  -23.1970   15.6120 H   0  0  0  0  0  0  0  0  0  0  0  0
  -45.1410  -22.2900   18.4580 C   0  0  0  0  0  1  0  0  0  0  0  0
  -44.7370  -23.6390   17.8430 C   0  0  0  0  0  3  0  0  0  0  0  0
  -45.1260  -26.0520   18.0840 C   0  0  0  0  0  1  0  0  0  0  0  0
  -45.1780  -24.7410   18.7250 N   0  0  0  0  0  0  0  0  0  0  0  0
  -46.1290  -24.5840   19.0480 H   0  0  0  0  0  0  0  0  0  0  0  0
  -41.2020  -24.0400   14.4980 C   0  0  1  0  0  0  0  0  0  0  0  0
  -41.9590  -23.3900   13.3180 C   0  0  0  0  0  1  0  0  0  0  0  0
  -39.7000  -24.0740   14.1330 C   0  0  0  0  0  1  0  0  0  0  0  0
  -41.6640  -25.5130   14.6090 C   0  0  0  0  0  1  0  0  0  0  0  0
  -26.8660  -21.0990   16.9300 C   0  0  0  0  0  2  0  0  0  0  0  0
  -26.6780  -22.6710   16.9530 C   0  0  0  0  0  2  0  0  0  0  0  0
  -27.1490  -24.4220   18.7440 C   0  0  0  0  0  0  0  0  0  0  0  0
  -27.1030  -26.8620   19.1160 C   0  0  0  0  0  2  0  0  0  0  0  0
  -26.7610  -27.5380   17.7690 C   0  0  0  0  0  2  0  0  0  0  0  0
  -28.0420  -27.7910   16.9520 C   0  0  0  0  0  2  0  0  0  0  0  0
  -28.9530  -26.5380   16.8650 C   0  0  0  0  0  3  0  0  0  0  0  0
  -29.1500  -25.8880   18.2540 C   0  0  0  0  0  2  0  0  0  0  0  0
  -27.8200  -25.6090   18.8160 N   0  0  0  0  0  0  0  0  0  0  0  0
  -26.0850  -24.2370   19.3420 O   0  0  0  0  0  0  0  0  0  0  0  0
  -27.5580  -23.5610   17.7740 N   0  0  0  0  0  0  0  0  0  0  0  0
  -28.4540  -23.7760   17.3640 H   0  0  0  0  0  0  0  0  0  0  0  0
  -30.5850  -26.7150   14.8860 C   0  0  0  0  0  0  0  0  0  0  0  0
  -31.8580  -27.2090   14.7900 C   0  0  0  0  0  0  0  0  0  0  0  0
  -32.2160  -27.6330   16.1060 C   0  0  0  0  0  0  0  0  0  0  0  0
  -30.2260  -26.8460   16.2190 N   0  0  0  0  0  0  0  0  0  0  0  0
  -31.2430  -27.3510   16.9630 N   0  0  0  0  0  0  0  0  0  0  0  0
  -33.4070  -28.3440   16.5910 C   0  0  0  0  0  0  0  0  0  0  0  0
  -34.2740  -27.7700   17.5470 C   0  0  0  0  0  3  0  0  0  0  0  0
  -35.4220  -28.4650   17.9820 C   0  0  0  0  0  3  0  0  0  0  0  0
  -35.7150  -29.7480   17.4590 C   0  0  0  0  0  0  0  0  0  0  0  0
  -34.8370  -30.3250   16.5250 C   0  0  0  0  0  3  0  0  0  0  0  0
  -33.6920  -29.6330   16.0970 C   0  0  0  0  0  3  0  0  0  0  0  0
  -36.7940  -30.5080   17.8410 O   0  0  0  0  0  0  0  0  0  0  0  0
  -38.0140  -29.9410   18.1130 C   0  0  0  0  0  0  0  0  0  0  0  0
  -38.6670  -29.1010   17.1850 C   0  0  0  0  0  3  0  0  0  0  0  0
  -39.9500  -28.5960   17.4750 C   0  0  0  0  0  3  0  0  0  0  0  0
  -40.5850  -28.9350   18.6850 C   0  0  0  0  0  0  0  0  0  0  0  0
  -39.9380  -29.7770   19.6080 C   0  0  0  0  0  3  0  0  0  0  0  0
  -38.6570  -30.2800   19.3200 C   0  0  0  0  0  0  0  0  0  0  0  0
  -38.0470  -31.1070   20.2030 F   0  0  0  0  0  0  0  0  0  0  0  0
  -41.8210  -28.4570   18.9610 F   0  0  0  0  0  0  0  0  0  0  0  0
  -32.6620  -27.3680   13.5330 C   0  0  0  0  0  0  0  0  0  0  0  0
  -33.9830  -27.2840   13.6370 N   0  0  0  0  0  0  0  0  0  0  0  0
  -32.1170  -27.5230   12.4410 O   0  0  0  0  0  0  0  0  0  0  0  0
  -34.4270  -27.1370   14.5320 H   0  0  0  0  0  0  0  0  0  0  0  0
  -34.5590  -27.3650   12.8120 H   0  0  0  0  0  0  0  0  0  0  0  0
  -29.6950  -26.1940   13.9540 N   0  0  0  0  0  0  0  0  0  0  0  0
  -29.9380  -26.1110   12.9740 H   0  0  0  0  0  0  0  0  0  0  0  0
  -28.7560  -25.8790   14.1570 H   0  0  0  0  0  0  0  0  0  0  0  0
  2  1  1  0
  3  8  1  0
  3  1  2  0
  4  2  2  0
  5  3  1  0
  6  5  2  0
  6  4  1  0
  7  5  1  0
  8 10  1  0
 10  9  1  0
 11  4  1  0
 12 11  1  0
 12 13  1  0
 14 15  1  0
 14 13  1  0
 16 26  1  0
 17 23  1  0
 17 15  1  0
 18 28  1  0
 18 26  1  0
 18 25  1  0
 19 21  2  0
 19 24  1  0
 20 21  1  0
 21 22  1  0
 22 17  2  0
 24 23  2  0
 25 19  1  0
 26 20  1  0
 27 16  2  0
 29 28  1  0
 29 31  1  0
 30 28  2  0
 32 37  1  0
 32 36  1  0
 33 34  1  0
 33 29  1  0
 34 35  1  0
 36 35  1  0
 37 33  1  0
 38 37  2  0
 39 38  1  0
 40 39  2  0
 40 41  1  0
 41 32  2  0
 42 16  1  0
 42 43  1  0
 43 44  1  0
 44 48  1  0
 44 45  2  0
 46 43  1  0
 48 47  1  0
 48 50  1  0
 49 50  1  0
 50 51  1  0
 52 55  1  1
 52 42  1  0
 53 52  1  0
 54 52  1  0
 56 57  1  0
 56  6  1  0
 57 66  1  0
 58 64  1  0
 58 65  2  0
 60 59  1  0
 61 60  1  0
 62 71  1  0
 62 61  1  0
 62 63  1  0
 63 64  1  0
 64 59  1  0
 66 58  1  0
 67 66  1  0
 68 71  1  0
 69 68  2  0
 69 70  1  0
 70 73  1  0
 70 72  2  0
 71 72  1  0
 73 74  1  0
 74 75  2  0
 76 79  1  0
 76 75  1  0
 77 76  2  0
 78 77  1  0
 78 73  2  0
 79 80  1  0
 80 85  1  0
 81 82  1  0
 81 80  2  0
 82 83  2  0
 83 87  1  0
 83 84  1  0
 85 84  2  0
 85 86  1  0
 88 89  1  0
 88 69  1  0
 89 91  1  0
 90 88  2  0
 92 89  1  0
 93 95  1  0
 93 68  1  0
 94 93  1  0
M  ISO  4  14 101  15 101  58 100  66 100
M  END
>  <TORSDO>  (54) 
F 24

>  <SCORE>  (54) 
7.262

>  <name>  (54) 
55

>  <ligand_id>  (54) 
55

>  <original_smiles>  (54) 
[H]c1c([H])c([H])c2c(c1[H])C([H])([H])C([H])([H])C([H])([H])C2([H])N([H])C(=O)C1([H])N(C(=O)C([H])(N([H])C(=O)C([H])(N([H])C([H])([H])[H])C([H])([H])[H])C(C([H])([H])[H])(C([H])([H])[H])C([H])([H])[H])C([H])([H])c2c([H])c(OC([H])([H])C([H])([H])C([H])([H])C([H])([H])c3c([H])c([H])c(C([H])([H])C([H])([H])C([H])([H])[H])c(C([H])([H])[H])c3C([H])([H])C([H])([H])N([H])C(=O)N3C([H])([H])C([H])([H])C([H])([H])C([H])(n4nc(-c5c([H])c([H])c(Oc6c([H])c([H])c(F)c([H])c6F)c([H])c5[H])c(C(=O)N([H])[H])c4N([H])[H])C3([H])[H])c([H])c([H])c2C1([H])[H]

>  <smiles>  (54) 
[H]c1c([H])c([H])c2c(c1[H])C([H])([H])C([H])([H])C([H])([H])C2([H])N([H])C(=O)C1([H])N(C(=O)C([H])(N([H])C(=O)C([H])(N([H])C([H])([H])[H])C([H])([H])[H])C(C([H])([H])[H])(C([H])([H])[H])C([H])([H])[H])C([H])([H])c2c([H])c(OC([H])([H])C([H])([H])C([H])([H])C([H])([H])c3c([H])c([H])c(C([H])([H])C([H])([H])C([H])([H])[H])c(C([H])([H])[H])c3C([H])([H])C([H])([H])N([H])C(=O)N3C([H])([H])C([H])([H])C([H])([H])C([H])(n4nc(-c5c([H])c([H])c(Oc6c([H])c([H])c(F)c([H])c6F)c([H])c5[H])c(C(=O)N([H])[H])c4N([H])[H])C3([H])[H])c([H])c([H])c2C1([H])[H]

$$$$
56:0:0
     RDKit          3D

 91 99  0  0  1  0  0  0  0  0999 V2000
  -31.8170  -20.0430   20.9870 C   0  0  0  0  0  3  0  0  0  0  0  0
  -31.3740  -19.2090   22.0230 C   0  0  0  0  0  3  0  0  0  0  0  0
  -31.0070  -20.1720   19.8430 C   0  0  0  0  0  0  0  0  0  0  0  0
  -29.6700  -19.7380   19.9930 C   0  0  0  0  0  0  0  0  0  0  0  0
  -29.7110  -18.3410   20.6540 C   0  0  0  0  0  0  0  0  0  0  0  0
  -30.3910  -18.2980   21.8250 N   0  0  0  0  0  0  0  0  0  0  0  0
  -32.5540  -19.4150   18.0710 C   0  0  0  0  0  1  0  0  0  0  0  0
  -32.5010  -21.8460   18.6610 C   0  0  0  0  0  1  0  0  0  0  0  0
  -30.5790  -20.7830   17.3850 C   0  0  0  0  0  1  0  0  0  0  0  0
  -31.6320  -20.5800   18.4990 C   0  0  2  0  0  0  0  0  0  0  0  0
  -28.6380  -21.1100   20.2080 C   0  0  0  0  0  2  0  0  0  0  0  0
  -28.9600  -22.8700   20.1740 C   0  0  0  0  0  3  0  0  0  0  0  0
  -27.9110  -24.3140   20.2910 C   0  0  0  0  0  3  0  0  0  0  0  0
  -28.1740  -25.9330   20.3230 O   0  0  0  0  0  0  0  0  0  0  0  0
  -24.6200  -31.9280   23.2520 C   0  0  0  0  0  0  0  0  0  0  0  0
  -27.1560  -27.0160   20.2800 C   0  0  0  0  0  0  0  0  0  0  0  0
  -23.4250  -30.5220   21.6270 C   0  0  0  0  0  3  0  0  0  0  0  0
  -24.8670  -28.8970   20.2250 C   0  0  0  0  0  0  0  0  0  0  0  0
  -25.9930  -30.7150   21.4840 C   0  0  0  0  0  2  0  0  0  0  0  0
  -26.0560  -29.3000   20.8450 C   0  0  0  0  0  0  0  0  0  0  0  0
  -27.1980  -28.3810   20.8470 C   0  0  0  0  0  3  0  0  0  0  0  0
  -25.9330  -26.7550   19.6220 C   0  0  0  0  0  3  0  0  0  0  0  0
  -24.8270  -27.6450   19.5950 C   0  0  0  0  0  3  0  0  0  0  0  0
  -23.6550  -29.8290   20.2580 C   0  0  0  0  0  2  0  0  0  0  0  0
  -24.7030  -31.0790   22.1750 N   0  0  0  0  0  0  0  0  0  0  0  0
  -23.5280  -32.2260   23.7630 O   0  0  0  0  0  0  0  0  0  0  0  0
  -22.7240  -29.5330   22.5960 C   0  0  0  0  0  0  0  0  0  0  0  0
  -21.3940  -29.3730   22.4660 N   0  0  0  0  0  0  0  0  0  0  0  0
  -23.3830  -28.9120   23.4350 O   0  0  0  0  0  0  0  0  0  0  0  0
  -20.9160  -29.9270   21.7700 H   0  0  0  0  0  0  0  0  0  0  0  0
  -18.0000  -28.1880   22.9750 C   0  0  0  0  0  0  0  0  0  0  0  0
  -20.5620  -28.4460   23.2420 C   0  0  0  0  0  3  0  0  0  0  0  0
  -20.6580  -27.0080   22.6820 C   0  0  0  0  0  2  0  0  0  0  0  0
  -19.5560  -26.6780   21.6690 C   0  0  0  0  0  2  0  0  0  0  0  0
  -18.1740  -26.8330   22.3080 C   0  0  0  0  0  2  0  0  0  0  0  0
  -19.1220  -28.9530   23.3990 C   0  0  0  0  0  0  0  0  0  0  0  0
  -18.9030  -30.2180   23.9830 C   0  0  0  0  0  3  0  0  0  0  0  0
  -17.5990  -30.7220   24.1460 C   0  0  0  0  0  3  0  0  0  0  0  0
  -16.4940  -29.9560   23.7350 C   0  0  0  0  0  3  0  0  0  0  0  0
  -16.6950  -28.6910   23.1560 C   0  0  0  0  0  3  0  0  0  0  0  0
  -25.8890  -32.5720   23.8830 C   0  0  0  0  0  3  0  0  0  0  0  0
  -25.5710  -33.9720   24.2120 N   0  0  0  0  0  0  0  0  0  0  0  0
  -25.8840  -35.0290   23.4500 C   0  0  0  0  0  0  0  0  0  0  0  0
  -26.5380  -34.9300   22.4090 O   0  0  0  0  0  0  0  0  0  0  0  0
  -24.9910  -34.1240   25.0240 H   0  0  0  0  0  0  0  0  0  0  0  0
  -24.1360  -36.8180   23.1360 C   0  0  0  0  0  1  0  0  0  0  0  0
  -25.3990  -36.4200   23.9160 C   0  0  0  0  0  3  0  0  0  0  0  0
  -27.5510  -37.3220   24.6870 C   0  0  0  0  0  1  0  0  0  0  0  0
  -26.4230  -37.4810   23.7730 N   0  0  0  0  0  0  0  0  0  0  0  0
  -26.0140  -38.3990   23.9290 H   0  0  0  0  0  0  0  0  0  0  0  0
  -26.3900  -31.8120   25.1740 C   0  0  1  0  0  0  0  0  0  0  0  0
  -25.2890  -31.5860   26.2360 C   0  0  0  0  0  1  0  0  0  0  0  0
  -26.9730  -30.4300   24.8060 C   0  0  0  0  0  1  0  0  0  0  0  0
  -27.5390  -32.6070   25.8350 C   0  0  0  0  0  1  0  0  0  0  0  0
  -29.4760  -16.7310   20.0920 C   0  0  0  0  0  2  0  0  0  0  0  0
  -30.3810  -15.2440   20.1780 C   0  0  0  0  0  0  0  0  0  0  0  0
  -30.3560  -12.8150   19.3010 C   0  0  0  0  0  2  0  0  0  0  0  0
  -29.4100  -12.6850   18.0800 C   0  0  0  0  0  2  0  0  0  0  0  0
  -27.9610  -12.4280   18.5360 C   0  0  0  0  0  2  0  0  0  0  0  0
  -27.5410  -13.3650   19.6970 C   0  0  0  0  0  3  0  0  0  0  0  0
  -28.6060  -13.4670   20.8030 C   0  0  0  0  0  2  0  0  0  0  0  0
  -29.8530  -13.9290   20.1760 N   0  0  0  0  0  0  0  0  0  0  0  0
  -31.6070  -15.2600   19.9770 O   0  0  0  0  0  0  0  0  0  0  0  0
  -25.1870  -13.9230   20.5070 C   0  0  0  0  0  0  0  0  0  0  0  0
  -24.1310  -13.1430   20.8890 C   0  0  0  0  0  0  0  0  0  0  0  0
  -24.5950  -11.7930   20.8410 C   0  0  0  0  0  0  0  0  0  0  0  0
  -26.2230  -13.0450   20.2290 N   0  0  0  0  0  0  0  0  0  0  0  0
  -25.8800  -11.7590   20.5010 N   0  0  0  0  0  0  0  0  0  0  0  0
  -23.8720  -10.5290   21.0380 C   0  0  0  0  0  0  0  0  0  0  0  0
  -24.3240   -9.5530   21.9520 C   0  0  0  0  0  3  0  0  0  0  0  0
  -23.5990   -8.3560   22.1390 C   0  0  0  0  0  3  0  0  0  0  0  0
  -22.4070   -8.1280   21.4100 C   0  0  0  0  0  0  0  0  0  0  0  0
  -21.9750   -9.0930   20.4820 C   0  0  0  0  0  3  0  0  0  0  0  0
  -22.7000  -10.2810   20.2960 C   0  0  0  0  0  3  0  0  0  0  0  0
  -21.6520   -6.9830   21.5020 O   0  0  0  0  0  0  0  0  0  0  0  0
  -21.6330   -6.2240   22.6450 C   0  0  0  0  0  0  0  0  0  0  0  0
  -21.2360   -6.7600   23.8890 C   0  0  0  0  0  3  0  0  0  0  0  0
  -21.1630   -5.9300   25.0260 C   0  0  0  0  0  3  0  0  0  0  0  0
  -21.4790   -4.5620   24.9200 C   0  0  0  0  0  0  0  0  0  0  0  0
  -21.8720   -4.0240   23.6810 C   0  0  0  0  0  3  0  0  0  0  0  0
  -21.9470   -4.8520   22.5480 C   0  0  0  0  0  0  0  0  0  0  0  0
  -22.3040   -4.3250   21.3520 F   0  0  0  0  0  0  0  0  0  0  0  0
  -21.4040   -3.7620   26.0090 F   0  0  0  0  0  0  0  0  0  0  0  0
  -22.7390  -13.6170   21.1840 C   0  0  0  0  0  0  0  0  0  0  0  0
  -22.0260  -12.9190   22.0620 N   0  0  0  0  0  0  0  0  0  0  0  0
  -22.2940  -14.6420   20.6730 O   0  0  0  0  0  0  0  0  0  0  0  0
  -22.4030  -12.0940   22.5030 H   0  0  0  0  0  0  0  0  0  0  0  0
  -21.0900  -13.2180   22.2950 H   0  0  0  0  0  0  0  0  0  0  0  0
  -25.3420  -15.2970   20.3440 N   0  0  0  0  0  0  0  0  0  0  0  0
  -24.5750  -15.9420   20.4970 H   0  0  0  0  0  0  0  0  0  0  0  0
  -26.1700  -15.7530   19.9830 H   0  0  0  0  0  0  0  0  0  0  0  0
  1  2  1  0
  3  4  1  0
  3  1  2  0
  4 11  1  0
  4  5  2  3
  5  6  1  0
  6  2  2  0
 10  7  1  6
  9 10  1  0
 10  8  1  0
 10  3  1  0
 12 11  1  0
 12 13  2  0
 13 14  1  0
 15 26  2  0
 16 14  1  0
 16 21  1  0
 17 25  1  0
 17 27  1  0
 18 24  1  0
 18 20  1  0
 19 25  1  0
 20 21  2  0
 20 19  1  0
 22 16  2  0
 23 22  1  0
 23 18  2  0
 24 17  1  0
 25 15  1  0
 27 29  2  0
 28 27  1  0
 30 28  1  0
 31 40  2  0
 31 36  1  0
 32 28  1  0
 32 36  1  0
 33 32  1  0
 34 35  1  0
 34 33  1  0
 35 31  1  0
 36 37  2  0
 37 38  1  0
 39 38  2  0
 40 39  1  0
 41 15  1  0
 41 42  1  0
 41 51  1  0
 42 45  1  0
 43 47  1  0
 43 42  1  0
 44 43  2  0
 47 46  1  0
 49 47  1  0
 49 50  1  0
 49 48  1  0
 51 54  1  1
 51 52  1  0
 53 51  1  0
 55 56  1  0
 55  5  1  0
 57 62  1  0
 58 59  1  0
 58 57  1  0
 60 59  1  0
 60 67  1  0
 60 61  1  0
 62 56  1  0
 62 61  1  0
 63 56  2  0
 64 65  2  0
 65 84  1  0
 66 65  1  0
 66 69  1  0
 67 68  1  0
 67 64  1  0
 68 66  2  0
 69 70  1  0
 70 71  2  0
 72 75  1  0
 72 71  1  0
 73 72  2  0
 74 73  1  0
 74 69  2  0
 75 76  1  0
 76 77  1  0
 77 78  2  0
 79 78  1  0
 79 83  1  0
 80 79  2  0
 81 76  2  0
 81 80  1  0
 82 81  1  0
 84 85  1  0
 85 88  1  0
 85 87  1  0
 86 84  2  0
 89 90  1  0
 89 64  1  0
 91 89  1  0
M  ISO  4  13 101  14 101  55 100  56 100
M  END
>  <TORSDO>  (55) 
F 21

>  <SCORE>  (55) 
-15.809

>  <name>  (55) 
56

>  <ligand_id>  (55) 
56

>  <original_smiles>  (55) 
[H]c1nc(C([H])([H])C(=O)N2C([H])([H])C([H])([H])C([H])([H])C([H])(n3nc(-c4c([H])c([H])c(Oc5c([H])c([H])c(F)c([H])c5F)c([H])c4[H])c(C(=O)N([H])[H])c3N([H])[H])C2([H])[H])c(C([H])([H])C([H])([H])C([H])([H])Oc2c([H])c([H])c3c(c2[H])C([H])([H])N(C(=O)C([H])(N([H])C(=O)C([H])(N([H])C([H])([H])[H])C([H])([H])[H])C(C([H])([H])[H])(C([H])([H])[H])C([H])([H])[H])C([H])(C(=O)N([H])C2([H])c4c([H])c([H])c([H])c([H])c4C([H])([H])C([H])([H])C2([H])[H])C3([H])[H])c(C(C([H])([H])[H])(C([H])([H])[H])C([H])([H])[H])c1[H]

>  <smiles>  (55) 
[H]c1nc(C([H])([H])C(=O)N2C([H])([H])C([H])([H])C([H])([H])C([H])(n3nc(-c4c([H])c([H])c(Oc5c([H])c([H])c(F)c([H])c5F)c([H])c4[H])c(C(=O)N([H])[H])c3N([H])[H])C2([H])[H])c(C([H])([H])C([H])([H])C([H])([H])Oc2c([H])c([H])c3c(c2[H])C([H])([H])N(C(=O)C([H])(N([H])C(=O)C([H])(N([H])C([H])([H])[H])C([H])([H])[H])C(C([H])([H])[H])(C([H])([H])[H])C([H])([H])[H])C([H])(C(=O)N([H])C2([H])c4c([H])c([H])c([H])c([H])c4C([H])([H])C([H])([H])C2([H])[H])C3([H])[H])c(C(C([H])([H])[H])(C([H])([H])[H])C([H])([H])[H])c1[H]

$$$$
57:0:0
     RDKit          3D

 96104  0  0  1  0  0  0  0  0999 V2000
  -28.8240  -20.3490   20.2670 C   0  0  0  0  0  3  0  0  0  0  0  0
  -29.7420  -19.3230   20.2110 C   0  0  0  0  0  0  0  0  0  0  0  0
  -30.7830  -21.2760   19.8080 C   0  0  0  0  0  0  0  0  0  0  0  0
  -29.4700  -21.5270   19.9590 N   0  0  0  0  0  0  0  0  0  0  0  0
  -30.9470  -19.9510   19.9910 N   0  0  0  0  0  0  0  0  0  0  0  0
  -31.8370  -19.4760   19.8970 H   0  0  0  0  0  0  0  0  0  0  0  0
  -29.5310  -17.8150   20.1850 C   0  0  0  0  0  2  0  0  0  0  0  0
  -30.3120  -16.9530   21.2160 C   0  0  0  0  0  2  0  0  0  0  0  0
  -30.6720  -14.5230   20.5320 C   0  0  0  0  0  0  0  0  0  0  0  0
  -30.3980  -12.3700   19.3440 C   0  0  0  0  0  2  0  0  0  0  0  0
  -29.4600  -12.5820   18.1370 C   0  0  0  0  0  2  0  0  0  0  0  0
  -27.9840  -12.4280   18.5520 C   0  0  0  0  0  2  0  0  0  0  0  0
  -27.6400  -13.2340   19.8320 C   0  0  0  0  0  3  0  0  0  0  0  0
  -28.6920  -13.0080   20.9430 C   0  0  0  0  0  2  0  0  0  0  0  0
  -30.0170  -13.3370   20.3870 N   0  0  0  0  0  0  0  0  0  0  0  0
  -31.7810  -14.7410   20.0350 O   0  0  0  0  0  0  0  0  0  0  0  0
  -29.9710  -15.5120   21.1290 N   0  0  0  0  0  0  0  0  0  0  0  0
  -29.0750  -15.2370   21.5080 H   0  0  0  0  0  0  0  0  0  0  0  0
  -25.2320  -13.8240   20.5200 C   0  0  0  0  0  0  0  0  0  0  0  0
  -24.1690  -13.0450   20.8890 C   0  0  0  0  0  0  0  0  0  0  0  0
  -24.6410  -11.6970   20.8630 C   0  0  0  0  0  0  0  0  0  0  0  0
  -26.2860  -12.9490   20.3000 N   0  0  0  0  0  0  0  0  0  0  0  0
  -25.9330  -11.6650   20.5610 N   0  0  0  0  0  0  0  0  0  0  0  0
  -23.9230  -10.4310   21.0560 C   0  0  0  0  0  0  0  0  0  0  0  0
  -24.3660   -9.4660   21.9870 C   0  0  0  0  0  3  0  0  0  0  0  0
  -23.6520   -8.2630   22.1670 C   0  0  0  0  0  3  0  0  0  0  0  0
  -22.4810   -8.0130   21.4110 C   0  0  0  0  0  0  0  0  0  0  0  0
  -22.0580   -8.9670   20.4680 C   0  0  0  0  0  3  0  0  0  0  0  0
  -22.7720  -10.1620   20.2880 C   0  0  0  0  0  3  0  0  0  0  0  0
  -21.7360   -6.8630   21.4970 O   0  0  0  0  0  0  0  0  0  0  0  0
  -21.6960   -6.1160   22.6470 C   0  0  0  0  0  0  0  0  0  0  0  0
  -21.2610   -6.6620   23.8750 C   0  0  0  0  0  3  0  0  0  0  0  0
  -21.1710   -5.8430   25.0170 C   0  0  0  0  0  3  0  0  0  0  0  0
  -21.5030   -4.4760   24.9330 C   0  0  0  0  0  0  0  0  0  0  0  0
  -21.9300   -3.9300   23.7090 C   0  0  0  0  0  3  0  0  0  0  0  0
  -22.0220   -4.7480   22.5700 C   0  0  0  0  0  0  0  0  0  0  0  0
  -22.4130   -4.2110   21.3890 F   0  0  0  0  0  0  0  0  0  0  0  0
  -21.4100   -3.6840   26.0260 F   0  0  0  0  0  0  0  0  0  0  0  0
  -22.7680  -13.5120   21.1540 C   0  0  0  0  0  0  0  0  0  0  0  0
  -22.0430  -12.8090   22.0170 N   0  0  0  0  0  0  0  0  0  0  0  0
  -22.3220  -14.5330   20.6320 O   0  0  0  0  0  0  0  0  0  0  0  0
  -22.4180  -11.9850   22.4610 H   0  0  0  0  0  0  0  0  0  0  0  0
  -21.1020  -13.1020   22.2410 H   0  0  0  0  0  0  0  0  0  0  0  0
  -25.3890  -15.1950   20.3350 N   0  0  0  0  0  0  0  0  0  0  0  0
  -24.6110  -15.8390   20.4200 H   0  0  0  0  0  0  0  0  0  0  0  0
  -26.2330  -15.6310   19.9870 H   0  0  0  0  0  0  0  0  0  0  0  0
  -31.8460  -22.2730   19.4450 C   0  0  0  0  0  3  0  0  0  0  0  0
  -33.1740  -21.6840   18.9430 C   0  0  0  0  0  2  0  0  0  0  0  0
  -34.0930  -22.7840   18.3770 C   0  0  0  0  0  2  0  0  0  0  0  0
  -36.2900  -23.4510   17.3410 C   0  0  0  0  0  1  0  0  0  0  0  0
  -35.6850  -21.0100   17.4030 C   0  0  0  0  0  1  0  0  0  0  0  0
  -35.5540  -22.3590   18.1300 C   0  0  0  0  0  3  0  0  0  0  0  0
  -28.7810  -22.8020   19.6100 C   0  0  0  0  0  2  0  0  0  0  0  0
  -29.2120  -24.1630   20.2510 C   0  0  0  0  0  2  0  0  0  0  0  0
  -28.1570  -25.2320   19.8540 C   0  0  0  0  0  2  0  0  0  0  0  0
  -28.3410  -26.6170   20.2330 O   0  0  0  0  0  0  0  0  0  0  0  0
  -24.5860  -31.9230   23.2330 C   0  0  0  0  0  0  0  0  0  0  0  0
  -27.1970  -27.4120   20.1800 C   0  0  0  0  0  0  0  0  0  0  0  0
  -23.3760  -30.5180   21.6030 C   0  0  0  0  0  3  0  0  0  0  0  0
  -24.8190  -28.9710   20.1830 C   0  0  0  0  0  0  0  0  0  0  0  0
  -25.9100  -30.8510   21.4070 C   0  0  0  0  0  2  0  0  0  0  0  0
  -25.9860  -29.4740   20.7730 C   0  0  0  0  0  0  0  0  0  0  0  0
  -27.1760  -28.7010   20.7700 C   0  0  0  0  0  3  0  0  0  0  0  0
  -26.0040  -26.9530   19.5620 C   0  0  0  0  0  3  0  0  0  0  0  0
  -24.8250  -27.7120   19.5740 C   0  0  0  0  0  3  0  0  0  0  0  0
  -23.5820  -29.8380   20.2260 C   0  0  0  0  0  2  0  0  0  0  0  0
  -24.6430  -31.1120   22.1380 N   0  0  0  0  0  0  0  0  0  0  0  0
  -23.5050  -32.2040   23.7680 O   0  0  0  0  0  0  0  0  0  0  0  0
  -22.7180  -29.5020   22.5660 C   0  0  0  0  0  0  0  0  0  0  0  0
  -21.3920  -29.3290   22.4440 N   0  0  0  0  0  0  0  0  0  0  0  0
  -23.3990  -28.8750   23.3830 O   0  0  0  0  0  0  0  0  0  0  0  0
  -20.9040  -29.8940   21.7620 H   0  0  0  0  0  0  0  0  0  0  0  0
  -18.0040  -28.1730   22.9640 C   0  0  0  0  0  0  0  0  0  0  0  0
  -20.5660  -28.4000   23.2190 C   0  0  0  0  0  3  0  0  0  0  0  0
  -20.6460  -26.9670   22.6450 C   0  0  0  0  0  2  0  0  0  0  0  0
  -19.5340  -26.6570   21.6370 C   0  0  0  0  0  2  0  0  0  0  0  0
  -18.1600  -26.8200   22.2900 C   0  0  0  0  0  2  0  0  0  0  0  0
  -19.1360  -28.9230   23.3860 C   0  0  0  0  0  0  0  0  0  0  0  0
  -18.9350  -30.1890   23.9750 C   0  0  0  0  0  3  0  0  0  0  0  0
  -17.6380  -30.7070   24.1480 C   0  0  0  0  0  3  0  0  0  0  0  0
  -16.5220  -29.9550   23.7410 C   0  0  0  0  0  3  0  0  0  0  0  0
  -16.7060  -28.6890   23.1570 C   0  0  0  0  0  3  0  0  0  0  0  0
  -25.8740  -32.5540   23.8490 C   0  0  0  0  0  3  0  0  0  0  0  0
  -26.3960  -31.7790   25.1220 C   0  0  1  0  0  0  0  0  0  0  0  0
  -25.3090  -31.5380   26.1940 C   0  0  0  0  0  1  0  0  0  0  0  0
  -26.9780  -30.4040   24.7210 C   0  0  0  0  0  1  0  0  0  0  0  0
  -27.5480  -32.5740   25.7810 C   0  0  0  0  0  1  0  0  0  0  0  0
  -25.5660  -33.9510   24.1810 N   0  0  0  0  0  0  0  0  0  0  0  0
  -25.8970  -35.0030   23.4210 C   0  0  0  0  0  0  0  0  0  0  0  0
  -26.5640  -34.8990   22.3880 O   0  0  0  0  0  0  0  0  0  0  0  0
  -24.9710  -34.1060   24.9820 H   0  0  0  0  0  0  0  0  0  0  0  0
  -24.1750  -36.8020   23.0620 C   0  0  0  0  0  1  0  0  0  0  0  0
  -25.4110  -36.3930   23.8790 C   0  0  0  0  0  3  0  0  0  0  0  0
  -27.5430  -37.2690   24.7230 C   0  0  0  0  0  1  0  0  0  0  0  0
  -26.4460  -37.4430   23.7730 N   0  0  0  0  0  0  0  0  0  0  0  0
  -26.0410  -38.3640   23.9230 H   0  0  0  0  0  0  0  0  0  0  0  0
  2  1  2  0
  3  4  1  0
  3  5  1  0
  4  1  1  0
  5  2  1  0
  6  5  1  0
  7  2  1  0
  7  8  1  0
  9 17  1  0
 10 15  1  0
 11 12  1  0
 11 10  1  0
 13 12  1  0
 13 22  1  0
 13 14  1  0
 15  9  1  0
 15 14  1  0
 16  9  2  0
 17  8  1  0
 17 18  1  0
 19 20  2  0
 20 39  1  0
 21 20  1  0
 21 24  1  0
 22 19  1  0
 22 23  1  0
 23 21  2  0
 24 25  1  0
 25 26  2  0
 27 30  1  0
 27 26  1  0
 28 27  2  0
 29 28  1  0
 29 24  2  0
 30 31  1  0
 31 32  1  0
 32 33  2  0
 34 33  1  0
 34 38  1  0
 35 34  2  0
 36 31  2  0
 36 35  1  0
 37 36  1  0
 39 40  1  0
 40 43  1  0
 40 42  1  0
 41 39  2  0
 44 45  1  0
 44 19  1  0
 46 44  1  0
 47  3  2  0
 48 47  1  0
 49 48  1  0
 50 52  1  0
 51 52  1  0
 52 49  1  0
 53  4  1  0
 53 54  1  0
 55 56  1  0
 55 54  1  0
 57 68  2  0
 58 56  1  0
 58 63  1  0
 59 67  1  0
 59 69  1  0
 60 66  1  0
 60 62  1  0
 61 67  1  0
 62 61  1  0
 63 62  2  0
 64 65  1  0
 64 58  2  0
 65 60  2  0
 66 59  1  0
 67 57  1  0
 69 71  2  0
 70 69  1  0
 72 70  1  0
 73 82  2  0
 73 78  1  0
 74 70  1  0
 74 78  1  0
 75 74  1  0
 76 77  1  0
 76 75  1  0
 77 73  1  0
 78 79  2  0
 79 80  1  0
 81 80  2  0
 82 81  1  0
 83 57  1  0
 83 88  1  0
 83 84  1  0
 84 87  1  1
 84 85  1  0
 86 84  1  0
 88 91  1  0
 89 93  1  0
 89 88  1  0
 90 89  2  0
 93 92  1  0
 95 93  1  0
 95 96  1  0
 95 94  1  0
M  ISO  4   9 100  17 100  55 101  56 101
M  END
>  <TORSDO>  (56) 
F 25

>  <SCORE>  (56) 
-12.319

>  <name>  (56) 
57

>  <ligand_id>  (56) 
57

>  <original_smiles>  (56) 
[H]c1c([H])c([H])c2c(c1[H])C([H])([H])C([H])([H])C([H])([H])C2([H])N([H])C(=O)C1([H])N(C(=O)C([H])(N([H])C(=O)C([H])(N([H])C([H])([H])[H])C([H])([H])[H])C(C([H])([H])[H])(C([H])([H])[H])C([H])([H])[H])C([H])([H])c2c([H])c(OC([H])([H])C([H])([H])C([H])([H])n3c([H])c(C([H])([H])C([H])([H])N([H])C(=O)N4C([H])([H])C([H])([H])C([H])([H])C([H])(n5nc(-c6c([H])c([H])c(Oc7c([H])c([H])c(F)c([H])c7F)c([H])c6[H])c(C(=O)N([H])[H])c5N([H])[H])C4([H])[H])[n+]([H])c3C([H])([H])C([H])([H])C([H])([H])C([H])(C([H])([H])[H])C([H])([H])[H])c([H])c([H])c2C1([H])[H]

>  <smiles>  (56) 
[H]c1c([H])c([H])c2c(c1[H])C([H])([H])C([H])([H])C([H])([H])C2([H])N([H])C(=O)C1([H])N(C(=O)C([H])(N([H])C(=O)C([H])(N([H])C([H])([H])[H])C([H])([H])[H])C(C([H])([H])[H])(C([H])([H])[H])C([H])([H])[H])C([H])([H])c2c([H])c(OC([H])([H])C([H])([H])C([H])([H])n3c([H])c(C([H])([H])C([H])([H])N([H])C(=O)N4C([H])([H])C([H])([H])C([H])([H])C([H])(n5nc(-c6c([H])c([H])c(Oc7c([H])c([H])c(F)c([H])c7F)c([H])c6[H])c(C(=O)N([H])[H])c5N([H])[H])C4([H])[H])[n+]([H])c3C([H])([H])C([H])([H])C([H])([H])C([H])(C([H])([H])[H])C([H])([H])[H])c([H])c([H])c2C1([H])[H]

$$$$
58:0:0
     RDKit          3D

 97105  0  0  1  0  0  0  0  0999 V2000
  -28.1880  -22.3610   20.0520 C   0  0  0  0  0  3  0  0  0  0  0  0
  -30.0460  -20.8240   20.3580 C   0  0  0  0  0  3  0  0  0  0  0  0
  -29.5560  -22.1560   20.3320 C   0  0  0  0  0  0  0  0  0  0  0  0
  -27.3050  -21.2670   19.8560 C   0  0  0  0  0  0  0  0  0  0  0  0
  -29.1890  -19.7160   20.1340 C   0  0  0  0  0  0  0  0  0  0  0  0
  -27.8080  -19.9460   19.9190 C   0  0  0  0  0  0  0  0  0  0  0  0
  -26.7310  -18.6070   19.6750 Cl  0  0  0  0  0  0  0  0  0  0  0  0
  -30.5480  -23.3270   20.5030 C   0  0  0  0  0  2  0  0  0  0  0  0
  -30.0930  -24.6560   21.1940 C   0  0  0  0  0  2  0  0  0  0  0  0
  -29.6400  -25.7690   20.2040 C   0  0  0  0  0  2  0  0  0  0  0  0
  -29.4010  -27.0750   20.8040 O   0  0  0  0  0  0  0  0  0  0  0  0
  -24.6760  -31.7590   23.4450 C   0  0  0  0  0  0  0  0  0  0  0  0
  -28.1860  -27.7230   20.6070 C   0  0  0  0  0  0  0  0  0  0  0  0
  -23.8790  -30.3210   21.6010 C   0  0  0  0  0  3  0  0  0  0  0  0
  -25.6720  -29.0290   20.3360 C   0  0  0  0  0  0  0  0  0  0  0  0
  -26.3580  -30.9370   21.7910 C   0  0  0  0  0  2  0  0  0  0  0  0
  -26.6790  -29.6160   21.1120 C   0  0  0  0  0  0  0  0  0  0  0  0
  -27.9340  -28.9650   21.2510 C   0  0  0  0  0  3  0  0  0  0  0  0
  -27.1560  -27.1850   19.7940 C   0  0  0  0  0  3  0  0  0  0  0  0
  -25.9070  -27.8130   19.6800 C   0  0  0  0  0  3  0  0  0  0  0  0
  -24.3500  -29.7530   20.2370 C   0  0  0  0  0  2  0  0  0  0  0  0
  -24.9800  -31.0190   22.3410 N   0  0  0  0  0  0  0  0  0  0  0  0
  -23.5050  -31.8940   23.8240 O   0  0  0  0  0  0  0  0  0  0  0  0
  -23.2150  -29.1880   22.4160 C   0  0  0  0  0  0  0  0  0  0  0  0
  -21.9170  -28.9470   22.1670 N   0  0  0  0  0  0  0  0  0  0  0  0
  -23.8660  -28.5330   23.2340 O   0  0  0  0  0  0  0  0  0  0  0  0
  -21.4480  -29.5270   21.4860 H   0  0  0  0  0  0  0  0  0  0  0  0
  -18.5640  -27.6220   22.3790 C   0  0  0  0  0  0  0  0  0  0  0  0
  -21.1000  -27.9050   22.7880 C   0  0  0  0  0  3  0  0  0  0  0  0
  -21.2690  -26.5580   22.0470 C   0  0  0  0  0  2  0  0  0  0  0  0
  -20.2150  -26.3380   20.9560 C   0  0  0  0  0  2  0  0  0  0  0  0
  -18.8070  -26.3700   21.5550 C   0  0  0  0  0  2  0  0  0  0  0  0
  -19.6420  -28.3540   22.9430 C   0  0  0  0  0  0  0  0  0  0  0  0
  -19.3630  -29.5340   23.6670 C   0  0  0  0  0  3  0  0  0  0  0  0
  -18.0390  -29.9780   23.8390 C   0  0  0  0  0  3  0  0  0  0  0  0
  -16.9740  -29.2400   23.2940 C   0  0  0  0  0  3  0  0  0  0  0  0
  -17.2370  -28.0640   22.5680 C   0  0  0  0  0  3  0  0  0  0  0  0
  -25.7840  -32.4870   24.2700 C   0  0  0  0  0  3  0  0  0  0  0  0
  -26.0620  -31.8160   25.6710 C   0  0  1  0  0  0  0  0  0  0  0  0
  -24.7810  -31.5330   26.4890 C   0  0  0  0  0  1  0  0  0  0  0  0
  -26.8100  -30.4750   25.4970 C   0  0  0  0  0  1  0  0  0  0  0  0
  -26.9850  -32.7270   26.5140 C   0  0  0  0  0  1  0  0  0  0  0  0
  -25.3670  -33.8860   24.4360 N   0  0  0  0  0  0  0  0  0  0  0  0
  -25.8180  -34.9040   23.6920 C   0  0  0  0  0  0  0  0  0  0  0  0
  -26.6930  -34.7730   22.8310 O   0  0  0  0  0  0  0  0  0  0  0  0
  -24.6110  -34.0640   25.0810 H   0  0  0  0  0  0  0  0  0  0  0  0
  -24.1390  -36.5800   22.8680 C   0  0  0  0  0  1  0  0  0  0  0  0
  -25.1980  -36.2910   23.9430 C   0  0  0  0  0  3  0  0  0  0  0  0
  -27.0910  -37.3140   25.1240 C   0  0  0  0  0  1  0  0  0  0  0  0
  -26.1950  -37.3840   23.9720 N   0  0  0  0  0  0  0  0  0  0  0  0
  -25.7350  -38.2900   23.9850 H   0  0  0  0  0  0  0  0  0  0  0  0
  -25.8220  -21.4710   19.5210 C   0  0  0  0  0  2  0  0  0  0  0  0
  -25.5020  -22.3030   18.2700 C   0  0  0  0  0  2  0  0  0  0  0  0
  -26.2330  -23.6560   18.2590 C   0  0  0  0  0  2  0  0  0  0  0  0
  -27.4320  -25.4180   16.8960 C   0  0  0  0  0  1  0  0  0  0  0  0
  -25.2800  -24.4110   16.0250 C   0  0  0  0  0  1  0  0  0  0  0  0
  -26.5560  -24.1590   16.8420 C   0  0  0  0  0  3  0  0  0  0  0  0
  -29.7570  -18.2980   19.9660 C   0  0  0  0  0  2  0  0  0  0  0  0
  -30.1140  -17.5320   21.2740 C   0  0  0  0  0  2  0  0  0  0  0  0
  -30.6760  -15.1450   20.5840 C   0  0  0  0  0  0  0  0  0  0  0  0
  -30.5170  -12.9640   19.4340 C   0  0  0  0  0  2  0  0  0  0  0  0
  -29.6000  -13.1190   18.2010 C   0  0  0  0  0  2  0  0  0  0  0  0
  -28.1210  -12.9120   18.5900 C   0  0  0  0  0  2  0  0  0  0  0  0
  -27.7120  -13.7670   19.8190 C   0  0  0  0  0  3  0  0  0  0  0  0
  -28.7390  -13.5720   20.9590 C   0  0  0  0  0  2  0  0  0  0  0  0
  -30.0710  -13.9350   20.4400 N   0  0  0  0  0  0  0  0  0  0  0  0
  -31.7880  -15.4100   20.1190 O   0  0  0  0  0  0  0  0  0  0  0  0
  -29.9010  -16.0800   21.1570 N   0  0  0  0  0  0  0  0  0  0  0  0
  -29.0250  -15.7330   21.5170 H   0  0  0  0  0  0  0  0  0  0  0  0
  -25.2680  -14.2950   20.4390 C   0  0  0  0  0  0  0  0  0  0  0  0
  -24.2250  -13.4850   20.8050 C   0  0  0  0  0  0  0  0  0  0  0  0
  -24.7530  -12.1580   20.8460 C   0  0  0  0  0  0  0  0  0  0  0  0
  -26.3580  -13.4530   20.2700 N   0  0  0  0  0  0  0  0  0  0  0  0
  -26.0500  -12.1680   20.5740 N   0  0  0  0  0  0  0  0  0  0  0  0
  -24.0840  -10.8690   21.0670 C   0  0  0  0  0  0  0  0  0  0  0  0
  -24.5100   -9.9710   22.0690 C   0  0  0  0  0  3  0  0  0  0  0  0
  -23.8350   -8.7470   22.2660 C   0  0  0  0  0  3  0  0  0  0  0  0
  -22.7210   -8.4140   21.4610 C   0  0  0  0  0  0  0  0  0  0  0  0
  -22.3170   -9.3000   20.4480 C   0  0  0  0  0  3  0  0  0  0  0  0
  -22.9930  -10.5150   20.2490 C   0  0  0  0  0  3  0  0  0  0  0  0
  -22.0190   -7.2370   21.5670 O   0  0  0  0  0  0  0  0  0  0  0  0
  -21.8670   -6.5960   22.7710 C   0  0  0  0  0  0  0  0  0  0  0  0
  -21.2970   -7.2410   23.8900 C   0  0  0  0  0  3  0  0  0  0  0  0
  -21.0970   -6.5260   25.0880 C   0  0  0  0  0  3  0  0  0  0  0  0
  -21.4540   -5.1670   25.1650 C   0  0  0  0  0  0  0  0  0  0  0  0
  -22.0170   -4.5220   24.0500 C   0  0  0  0  0  3  0  0  0  0  0  0
  -22.2210   -5.2350   22.8560 C   0  0  0  0  0  0  0  0  0  0  0  0
  -22.7440   -4.6040   21.7770 F   0  0  0  0  0  0  0  0  0  0  0  0
  -21.2540   -4.4760   26.3120 F   0  0  0  0  0  0  0  0  0  0  0  0
  -22.7990  -13.9040   21.0140 C   0  0  0  0  0  0  0  0  0  0  0  0
  -22.0830  -13.2250   21.9050 N   0  0  0  0  0  0  0  0  0  0  0  0
  -22.3220  -14.8690   20.4220 O   0  0  0  0  0  0  0  0  0  0  0  0
  -22.4740  -12.4400   22.4040 H   0  0  0  0  0  0  0  0  0  0  0  0
  -21.1270  -13.4940   22.0890 H   0  0  0  0  0  0  0  0  0  0  0  0
  -25.3720  -15.6630   20.2170 N   0  0  0  0  0  0  0  0  0  0  0  0
  -24.5770  -16.2910   20.3130 H   0  0  0  0  0  0  0  0  0  0  0  0
  -26.2250  -16.1470   19.9720 H   0  0  0  0  0  0  0  0  0  0  0  0
  1  3  1  0
  3  2  2  0
  3  8  1  0
  4  6  1  0
  4  1  2  0
  5  2  1  0
  6  5  2  0
  7  6  1  0
  8  9  1  0
 10 11  1  0
 10  9  1  0
 12 23  2  0
 13 11  1  0
 13 18  1  0
 14 22  1  0
 14 24  1  0
 15 17  1  0
 16 22  1  0
 17 18  2  0
 17 16  1  0
 19 13  2  0
 20 19  1  0
 20 15  2  0
 21 15  1  0
 21 14  1  0
 22 12  1  0
 24 26  2  0
 25 24  1  0
 27 25  1  0
 28 37  2  0
 28 33  1  0
 29 25  1  0
 29 33  1  0
 30 29  1  0
 31 32  1  0
 31 30  1  0
 32 28  1  0
 33 34  2  0
 34 35  1  0
 36 35  2  0
 37 36  1  0
 38 12  1  0
 38 43  1  0
 38 39  1  0
 39 40  1  1
 39 42  1  0
 41 39  1  0
 43 46  1  0
 44 48  1  0
 44 43  1  0
 45 44  2  0
 48 47  1  0
 48 50  1  0
 50 51  1  0
 50 49  1  0
 52  4  1  0
 53 52  1  0
 54 53  1  0
 56 57  1  0
 57 55  1  0
 57 54  1  0
 58  5  1  0
 58 59  1  0
 60 68  1  0
 61 66  1  0
 62 63  1  0
 62 61  1  0
 64 63  1  0
 64 73  1  0
 64 65  1  0
 66 60  1  0
 66 65  1  0
 67 60  2  0
 68 59  1  0
 68 69  1  0
 70 71  2  0
 71 72  1  0
 71 90  1  0
 72 75  1  0
 73 70  1  0
 73 74  1  0
 74 72  2  0
 75 76  1  0
 76 77  2  0
 78 81  1  0
 78 77  1  0
 79 78  2  0
 80 79  1  0
 80 75  2  0
 81 82  1  0
 82 87  2  0
 82 83  1  0
 83 84  2  0
 84 85  1  0
 85 89  1  0
 86 85  2  0
 87 86  1  0
 88 87  1  0
 90 91  1  0
 91 94  1  0
 91 93  1  0
 92 90  2  0
 95 96  1  0
 95 70  1  0
 97 95  1  0
M  ISO  4  10 101  11 101  60 100  68 100
M  END
>  <TORSDO>  (57) 
F 25

>  <SCORE>  (57) 
-10.002

>  <name>  (57) 
58

>  <ligand_id>  (57) 
58

>  <original_smiles>  (57) 
[H]c1c([H])c([H])c2c(c1[H])C([H])([H])C([H])([H])C([H])([H])C2([H])N([H])C(=O)C1([H])N(C(=O)C([H])(N([H])C(=O)C([H])(N([H])C([H])([H])[H])C([H])([H])[H])C(C([H])([H])[H])(C([H])([H])[H])C([H])([H])[H])C([H])([H])c2c([H])c(OC([H])([H])C([H])([H])C([H])([H])c3c([H])c(C([H])([H])C([H])([H])N([H])C(=O)N4C([H])([H])C([H])([H])C([H])([H])C([H])(n5nc(-c6c([H])c([H])c(Oc7c([H])c([H])c(F)c([H])c7F)c([H])c6[H])c(C(=O)N([H])[H])c5N([H])[H])C4([H])[H])c(Cl)c(C([H])([H])C([H])([H])C([H])([H])C([H])(C([H])([H])[H])C([H])([H])[H])c3[H])c([H])c([H])c2C1([H])[H]

>  <smiles>  (57) 
[H]c1c([H])c([H])c2c(c1[H])C([H])([H])C([H])([H])C([H])([H])C2([H])N([H])C(=O)C1([H])N(C(=O)C([H])(N([H])C(=O)C([H])(N([H])C([H])([H])[H])C([H])([H])[H])C(C([H])([H])[H])(C([H])([H])[H])C([H])([H])[H])C([H])([H])c2c([H])c(OC([H])([H])C([H])([H])C([H])([H])c3c([H])c(C([H])([H])C([H])([H])N([H])C(=O)N4C([H])([H])C([H])([H])C([H])([H])C([H])(n5nc(-c6c([H])c([H])c(Oc7c([H])c([H])c(F)c([H])c7F)c([H])c6[H])c(C(=O)N([H])[H])c5N([H])[H])C4([H])[H])c(Cl)c(C([H])([H])C([H])([H])C([H])([H])C([H])(C([H])([H])[H])C([H])([H])[H])c3[H])c([H])c([H])c2C1([H])[H]

$$$$
59:0:0
     RDKit          3D

 91 99  0  0  1  0  0  0  0  0999 V2000
  -28.8600  -20.3610   20.3260 C   0  0  0  0  0  3  0  0  0  0  0  0
  -31.5330  -18.0420   22.1910 C   0  0  0  0  0  2  0  0  0  0  0  0
  -32.4300  -18.4250   21.0170 C   0  0  0  0  0  2  0  0  0  0  0  0
  -30.2050  -18.8200   22.1010 C   0  0  0  0  0  2  0  0  0  0  0  0
  -31.7550  -18.1390   19.6520 C   0  0  0  0  0  2  0  0  0  0  0  0
  -29.5390  -18.8370   20.6910 C   0  0  0  0  0  3  0  0  0  0  0  0
  -30.2630  -17.7000   19.7230 C   0  0  0  0  0  3  0  0  0  0  0  0
  -30.6880  -14.9540   19.6000 C   0  0  0  0  0  0  0  0  0  0  0  0
  -30.3670  -12.6290   18.6320 C   0  0  0  0  0  2  0  0  0  0  0  0
  -29.3220  -12.6340   17.4920 C   0  0  0  0  0  2  0  0  0  0  0  0
  -27.9070  -12.4290   18.0630 C   0  0  0  0  0  2  0  0  0  0  0  0
  -27.6310  -13.3450   19.2800 C   0  0  0  0  0  3  0  0  0  0  0  0
  -28.7940  -13.3420   20.3040 C   0  0  0  0  0  2  0  0  0  0  0  0
  -30.0240  -13.7220   19.5940 N   0  0  0  0  0  0  0  0  0  0  0  0
  -31.8050  -14.9890   19.0810 O   0  0  0  0  0  0  0  0  0  0  0  0
  -30.0500  -16.1520   20.0140 N   0  0  0  0  0  0  0  0  0  0  0  0
  -29.2180  -15.9670   20.5530 H   0  0  0  0  0  0  0  0  0  0  0  0
  -25.3330  -13.9310   20.2490 C   0  0  0  0  0  0  0  0  0  0  0  0
  -24.2950  -13.1570   20.7030 C   0  0  0  0  0  0  0  0  0  0  0  0
  -24.7360  -11.8040   20.5970 C   0  0  0  0  0  0  0  0  0  0  0  0
  -26.3400  -13.0480   19.8950 N   0  0  0  0  0  0  0  0  0  0  0  0
  -25.9940  -11.7610   20.1660 N   0  0  0  0  0  0  0  0  0  0  0  0
  -24.0110  -10.5460   20.8280 C   0  0  0  0  0  0  0  0  0  0  0  0
  -24.4780   -9.5820   21.7520 C   0  0  0  0  0  3  0  0  0  0  0  0
  -23.7500   -8.3930   21.9730 C   0  0  0  0  0  3  0  0  0  0  0  0
  -22.5430   -8.1570   21.2730 C   0  0  0  0  0  0  0  0  0  0  0  0
  -22.0950   -9.1100   20.3400 C   0  0  0  0  0  3  0  0  0  0  0  0
  -22.8220  -10.2910   20.1160 C   0  0  0  0  0  3  0  0  0  0  0  0
  -21.7850   -7.0200   21.4050 O   0  0  0  0  0  0  0  0  0  0  0  0
  -21.7370   -6.3180   22.5820 C   0  0  0  0  0  0  0  0  0  0  0  0
  -21.2900   -6.9110   23.7840 C   0  0  0  0  0  3  0  0  0  0  0  0
  -21.1900   -6.1350   24.9570 C   0  0  0  0  0  3  0  0  0  0  0  0
  -21.5280   -4.7680   24.9280 C   0  0  0  0  0  0  0  0  0  0  0  0
  -21.9650   -4.1760   23.7320 C   0  0  0  0  0  3  0  0  0  0  0  0
  -22.0670   -4.9480   22.5610 C   0  0  0  0  0  0  0  0  0  0  0  0
  -22.4700   -4.3670   21.4060 F   0  0  0  0  0  0  0  0  0  0  0  0
  -21.4240   -4.0210   26.0520 F   0  0  0  0  0  0  0  0  0  0  0  0
  -22.9390  -13.6470   21.1150 C   0  0  0  0  0  0  0  0  0  0  0  0
  -22.2870  -12.9430   22.0360 N   0  0  0  0  0  0  0  0  0  0  0  0
  -22.4690  -14.6870   20.6590 O   0  0  0  0  0  0  0  0  0  0  0  0
  -22.6790  -12.0970   22.4210 H   0  0  0  0  0  0  0  0  0  0  0  0
  -21.3820  -13.2560   22.3550 H   0  0  0  0  0  0  0  0  0  0  0  0
  -25.4900  -15.3030   20.0850 N   0  0  0  0  0  0  0  0  0  0  0  0
  -24.7410  -15.9560   20.2870 H   0  0  0  0  0  0  0  0  0  0  0  0
  -26.3030  -15.7490   19.6830 H   0  0  0  0  0  0  0  0  0  0  0  0
  -26.5020  -20.8380   19.4210 C   0  0  0  0  0  1  0  0  0  0  0  0
  -27.8370  -20.1260   19.1880 C   0  0  0  0  0  2  0  0  0  0  0  0
  -29.4700  -21.9250   20.1750 C   0  0  0  0  0  2  0  0  0  0  0  0
  -28.7170  -23.3680   20.6640 C   0  0  0  0  0  2  0  0  0  0  0  0
  -28.4700  -24.8060   19.8030 C   0  0  0  0  0  2  0  0  0  0  0  0
  -28.4160  -26.2750   20.3370 O   0  0  0  0  0  0  0  0  0  0  0  0
  -24.7820  -31.9320   23.2860 C   0  0  0  0  0  0  0  0  0  0  0  0
  -27.3430  -27.2340   20.2210 C   0  0  0  0  0  0  0  0  0  0  0  0
  -23.5790  -30.5660   21.6220 C   0  0  0  0  0  3  0  0  0  0  0  0
  -25.0240  -28.9970   20.1850 C   0  0  0  0  0  0  0  0  0  0  0  0
  -26.1310  -30.8170   21.4730 C   0  0  0  0  0  2  0  0  0  0  0  0
  -26.1980  -29.4290   20.8090 C   0  0  0  0  0  0  0  0  0  0  0  0
  -27.3570  -28.5640   20.8080 C   0  0  0  0  0  3  0  0  0  0  0  0
  -26.1420  -26.9020   19.5560 C   0  0  0  0  0  3  0  0  0  0  0  0
  -25.0080  -27.7460   19.5460 C   0  0  0  0  0  3  0  0  0  0  0  0
  -23.8020  -29.9010   20.2360 C   0  0  0  0  0  2  0  0  0  0  0  0
  -24.8500  -31.1250   22.1840 N   0  0  0  0  0  0  0  0  0  0  0  0
  -23.6940  -32.2190   23.8110 O   0  0  0  0  0  0  0  0  0  0  0  0
  -22.8860  -29.5530   22.5670 C   0  0  0  0  0  0  0  0  0  0  0  0
  -21.5590  -29.3970   22.4290 N   0  0  0  0  0  0  0  0  0  0  0  0
  -23.5480  -28.9170   23.3910 O   0  0  0  0  0  0  0  0  0  0  0  0
  -21.0850  -29.9620   21.7390 H   0  0  0  0  0  0  0  0  0  0  0  0
  -18.1680  -28.2130   22.8940 C   0  0  0  0  0  0  0  0  0  0  0  0
  -20.7240  -28.4590   23.1830 C   0  0  0  0  0  3  0  0  0  0  0  0
  -20.8240  -27.0300   22.5960 C   0  0  0  0  0  2  0  0  0  0  0  0
  -19.7280  -26.7230   21.5700 C   0  0  0  0  0  2  0  0  0  0  0  0
  -18.3410  -26.8710   22.2030 C   0  0  0  0  0  2  0  0  0  0  0  0
  -19.2870  -28.9650   23.3410 C   0  0  0  0  0  0  0  0  0  0  0  0
  -19.0710  -30.2200   23.9490 C   0  0  0  0  0  3  0  0  0  0  0  0
  -17.7680  -30.7270   24.1080 C   0  0  0  0  0  3  0  0  0  0  0  0
  -16.6610  -29.9730   23.6790 C   0  0  0  0  0  3  0  0  0  0  0  0
  -16.8630  -28.7180   23.0790 C   0  0  0  0  0  3  0  0  0  0  0  0
  -26.0640  -32.5500   23.9250 C   0  0  0  0  0  3  0  0  0  0  0  0
  -25.7690  -33.9550   24.2460 N   0  0  0  0  0  0  0  0  0  0  0  0
  -26.1260  -35.0020   23.4890 C   0  0  0  0  0  0  0  0  0  0  0  0
  -26.8000  -34.8850   22.4630 O   0  0  0  0  0  0  0  0  0  0  0  0
  -25.1600  -34.1150   25.0350 H   0  0  0  0  0  0  0  0  0  0  0  0
  -24.4250  -36.8260   23.1300 C   0  0  0  0  0  1  0  0  0  0  0  0
  -25.6600  -36.4020   23.9400 C   0  0  0  0  0  3  0  0  0  0  0  0
  -27.8100  -37.2640   24.7670 C   0  0  0  0  0  1  0  0  0  0  0  0
  -26.7100  -37.4380   23.8220 N   0  0  0  0  0  0  0  0  0  0  0  0
  -26.3150  -38.3630   23.9660 H   0  0  0  0  0  0  0  0  0  0  0  0
  -26.5440  -31.7790   25.2180 C   0  0  1  0  0  0  0  0  0  0  0  0
  -25.4270  -31.5560   26.2640 C   0  0  0  0  0  1  0  0  0  0  0  0
  -27.1180  -30.3920   24.8510 C   0  0  0  0  0  1  0  0  0  0  0  0
  -27.6920  -32.5620   25.8960 C   0  0  0  0  0  1  0  0  0  0  0  0
  1 47  1  0
  3  2  1  0
  4  2  1  0
  5  7  1  0
  5  3  1  0
  6  1  1  0
  6  4  1  0
  7 16  1  0
  7  6  1  0
  8 16  1  0
  9 14  1  0
 10 11  1  0
 10  9  1  0
 12 11  1  0
 12 21  1  0
 12 13  1  0
 14  8  1  0
 14 13  1  0
 15  8  2  0
 16 17  1  0
 18 19  2  0
 19 38  1  0
 20 19  1  0
 20 23  1  0
 21 22  1  0
 21 18  1  0
 22 20  2  0
 23 24  1  0
 24 25  2  0
 26 29  1  0
 26 25  1  0
 27 26  2  0
 28 27  1  0
 28 23  2  0
 29 30  1  0
 30 31  1  0
 31 32  2  0
 33 32  1  0
 33 37  1  0
 34 33  2  0
 35 30  2  0
 35 34  1  0
 36 35  1  0
 38 39  1  0
 39 42  1  0
 39 41  1  0
 40 38  2  0
 43 18  1  0
 43 44  1  0
 45 43  1  0
 47 46  1  0
 48  1  1  0
 48 49  1  0
 50 51  1  0
 50 49  1  0
 52 63  2  0
 53 51  1  0
 53 58  1  0
 54 62  1  0
 54 64  1  0
 55 61  1  0
 55 57  1  0
 56 62  1  0
 57 56  1  0
 58 57  2  0
 59 53  2  0
 60 59  1  0
 60 55  2  0
 61 54  1  0
 62 52  1  0
 64 66  2  0
 65 64  1  0
 67 65  1  0
 68 77  2  0
 68 73  1  0
 69 65  1  0
 69 73  1  0
 70 69  1  0
 71 72  1  0
 71 70  1  0
 72 68  1  0
 73 74  2  0
 74 75  1  0
 76 75  2  0
 77 76  1  0
 78 52  1  0
 78 79  1  0
 78 88  1  0
 79 82  1  0
 80 84  1  0
 80 79  1  0
 81 80  2  0
 84 83  1  0
 86 84  1  0
 86 87  1  0
 86 85  1  0
 88 91  1  1
 88 89  1  0
 90 88  1  0
M  ISO  4   8 100  16 100  50 101  51 101
M  END
>  <TORSDO>  (58) 
F 21

>  <SCORE>  (58) 
-12.985

>  <name>  (58) 
59

>  <ligand_id>  (58) 
59

>  <original_smiles>  (58) 
[H]c1c([H])c([H])c2c(c1[H])C([H])([H])C([H])([H])C([H])([H])C2([H])N([H])C(=O)C1([H])N(C(=O)C([H])(N([H])C(=O)C([H])(N([H])C([H])([H])[H])C([H])([H])[H])C(C([H])([H])[H])(C([H])([H])[H])C([H])([H])[H])C([H])([H])c2c([H])c(OC([H])([H])C([H])([H])C([H])([H])C([H])(C([H])([H])C([H])([H])[H])C3([H])C([H])([H])C([H])([H])C([H])([H])C([H])([H])C3([H])N([H])C(=O)N3C([H])([H])C([H])([H])C([H])([H])C([H])(n4nc(-c5c([H])c([H])c(Oc6c([H])c([H])c(F)c([H])c6F)c([H])c5[H])c(C(=O)N([H])[H])c4N([H])[H])C3([H])[H])c([H])c([H])c2C1([H])[H]

>  <smiles>  (58) 
[H]c1c([H])c([H])c2c(c1[H])C([H])([H])C([H])([H])C([H])([H])C2([H])N([H])C(=O)C1([H])N(C(=O)C([H])(N([H])C(=O)C([H])(N([H])C([H])([H])[H])C([H])([H])[H])C(C([H])([H])[H])(C([H])([H])[H])C([H])([H])[H])C([H])([H])c2c([H])c(OC([H])([H])C([H])([H])C([H])([H])C([H])(C([H])([H])C([H])([H])[H])C3([H])C([H])([H])C([H])([H])C([H])([H])C([H])([H])C3([H])N([H])C(=O)N3C([H])([H])C([H])([H])C([H])([H])C([H])(n4nc(-c5c([H])c([H])c(Oc6c([H])c([H])c(F)c([H])c6F)c([H])c5[H])c(C(=O)N([H])[H])c4N([H])[H])C3([H])[H])c([H])c([H])c2C1([H])[H]

$$$$
60:0:0
     RDKit          3D

 96104  0  0  1  0  0  0  0  0999 V2000
  -31.6840  -18.8210   20.0650 C   0  0  0  0  0  3  0  0  0  0  0  0
  -31.0330  -21.3540   19.2770 C   0  0  0  0  0  3  0  0  0  0  0  0
  -30.4020  -19.2880   20.4260 C   0  0  0  0  0  0  0  0  0  0  0  0
  -30.0810  -20.6430   20.0430 C   0  0  0  0  0  0  0  0  0  0  0  0
  -32.5610  -19.6250   19.3280 C   0  0  0  0  0  0  0  0  0  0  0  0
  -32.2390  -20.8670   18.9240 N   0  0  0  0  0  0  0  0  0  0  0  0
  -29.4700  -18.3110   21.1940 C   0  0  0  0  0  2  0  0  0  0  0  0
  -29.9510  -16.8070   21.4590 C   0  0  0  0  0  2  0  0  0  0  0  0
  -30.6010  -14.6260   20.3560 C   0  0  0  0  0  0  0  0  0  0  0  0
  -30.3440  -12.4140   19.2770 C   0  0  0  0  0  2  0  0  0  0  0  0
  -29.3780  -12.5340   18.0800 C   0  0  0  0  0  2  0  0  0  0  0  0
  -27.9110  -12.3940   18.5360 C   0  0  0  0  0  2  0  0  0  0  0  0
  -27.5700  -13.2640   19.7760 C   0  0  0  0  0  3  0  0  0  0  0  0
  -28.6440  -13.1140   20.8730 C   0  0  0  0  0  2  0  0  0  0  0  0
  -29.9440  -13.4290   20.2660 N   0  0  0  0  0  0  0  0  0  0  0  0
  -31.8020  -14.7240   20.0960 O   0  0  0  0  0  0  0  0  0  0  0  0
  -29.3760  -16.2990   19.1060 C   0  0  0  0  0  1  0  0  0  0  0  0
  -29.8140  -15.7550   20.3980 N   0  0  0  0  0  0  0  0  0  0  0  0
  -25.1870  -13.8760   20.5080 C   0  0  0  0  0  0  0  0  0  0  0  0
  -24.1160  -13.1040   20.8740 C   0  0  0  0  0  0  0  0  0  0  0  0
  -24.5720  -11.7530   20.8460 C   0  0  0  0  0  0  0  0  0  0  0  0
  -26.2250  -12.9890   20.2730 N   0  0  0  0  0  0  0  0  0  0  0  0
  -25.8620  -11.7080   20.5360 N   0  0  0  0  0  0  0  0  0  0  0  0
  -23.8410  -10.4910   21.0340 C   0  0  0  0  0  0  0  0  0  0  0  0
  -24.2720   -9.5220   21.9680 C   0  0  0  0  0  3  0  0  0  0  0  0
  -23.5430   -8.3270   22.1480 C   0  0  0  0  0  3  0  0  0  0  0  0
  -22.3660   -8.0960   21.3960 C   0  0  0  0  0  0  0  0  0  0  0  0
  -21.9500   -9.0540   20.4550 C   0  0  0  0  0  3  0  0  0  0  0  0
  -22.6810  -10.2410   20.2710 C   0  0  0  0  0  3  0  0  0  0  0  0
  -21.6080   -6.9540   21.4880 O   0  0  0  0  0  0  0  0  0  0  0  0
  -21.5660   -6.2080   22.6370 C   0  0  0  0  0  0  0  0  0  0  0  0
  -21.1550   -6.7610   23.8700 C   0  0  0  0  0  3  0  0  0  0  0  0
  -21.0580   -5.9420   25.0130 C   0  0  0  0  0  3  0  0  0  0  0  0
  -21.3610   -4.5700   24.9250 C   0  0  0  0  0  0  0  0  0  0  0  0
  -21.7660   -4.0150   23.6980 C   0  0  0  0  0  3  0  0  0  0  0  0
  -21.8650   -4.8310   22.5570 C   0  0  0  0  0  0  0  0  0  0  0  0
  -22.2330   -4.2870   21.3710 F   0  0  0  0  0  0  0  0  0  0  0  0
  -21.2620   -3.7840   26.0210 F   0  0  0  0  0  0  0  0  0  0  0  0
  -22.7220  -13.5900   21.1470 C   0  0  0  0  0  0  0  0  0  0  0  0
  -21.9890  -12.8970   22.0130 N   0  0  0  0  0  0  0  0  0  0  0  0
  -22.2870  -14.6160   20.6270 O   0  0  0  0  0  0  0  0  0  0  0  0
  -22.3490  -12.0680   22.4590 H   0  0  0  0  0  0  0  0  0  0  0  0
  -21.0550  -13.2100   22.2360 H   0  0  0  0  0  0  0  0  0  0  0  0
  -25.3550  -15.2480   20.3320 N   0  0  0  0  0  0  0  0  0  0  0  0
  -24.6060  -15.9170   20.4740 H   0  0  0  0  0  0  0  0  0  0  0  0
  -26.2270  -15.6840   20.0560 H   0  0  0  0  0  0  0  0  0  0  0  0
  -28.7610  -21.3820   20.3500 C   0  0  0  0  0  2  0  0  0  0  0  0
  -28.8630  -22.8300   20.9680 C   0  0  0  0  0  2  0  0  0  0  0  0
  -28.7270  -24.1100   20.0620 C   0  0  0  0  0  2  0  0  0  0  0  0
  -28.4530  -25.4170   20.8870 C   0  0  0  0  0  2  0  0  0  0  0  0
  -28.4600  -26.6740   20.1650 O   0  0  0  0  0  0  0  0  0  0  0  0
  -24.6030  -31.8890   23.2300 C   0  0  0  0  0  0  0  0  0  0  0  0
  -27.2950  -27.4220   20.1990 C   0  0  0  0  0  0  0  0  0  0  0  0
  -23.4180  -30.4790   21.5790 C   0  0  0  0  0  3  0  0  0  0  0  0
  -24.8930  -28.9330   20.1760 C   0  0  0  0  0  0  0  0  0  0  0  0
  -25.9440  -30.8420   21.4020 C   0  0  0  0  0  2  0  0  0  0  0  0
  -26.0460  -29.4640   20.7700 C   0  0  0  0  0  0  0  0  0  0  0  0
  -27.2520  -28.7170   20.7750 C   0  0  0  0  0  3  0  0  0  0  0  0
  -26.1240  -26.9090   19.6060 C   0  0  0  0  0  3  0  0  0  0  0  0
  -24.9280  -27.6550   19.5900 C   0  0  0  0  0  3  0  0  0  0  0  0
  -23.6440  -29.7890   20.2070 C   0  0  0  0  0  2  0  0  0  0  0  0
  -24.6720  -31.0860   22.1300 N   0  0  0  0  0  0  0  0  0  0  0  0
  -23.5170  -32.1600   23.7600 O   0  0  0  0  0  0  0  0  0  0  0  0
  -22.7580  -29.4610   22.5370 C   0  0  0  0  0  0  0  0  0  0  0  0
  -21.4330  -29.2830   22.4040 N   0  0  0  0  0  0  0  0  0  0  0  0
  -23.4340  -28.8350   23.3570 O   0  0  0  0  0  0  0  0  0  0  0  0
  -20.9450  -29.8390   21.7160 H   0  0  0  0  0  0  0  0  0  0  0  0
  -18.0520  -28.1020   22.8900 C   0  0  0  0  0  0  0  0  0  0  0  0
  -20.6100  -28.3450   23.1690 C   0  0  0  0  0  3  0  0  0  0  0  0
  -20.7070  -26.9160   22.5860 C   0  0  0  0  0  2  0  0  0  0  0  0
  -19.6060  -26.6040   21.5670 C   0  0  0  0  0  2  0  0  0  0  0  0
  -18.2240  -26.7550   22.2090 C   0  0  0  0  0  2  0  0  0  0  0  0
  -19.1740  -28.8560   23.3260 C   0  0  0  0  0  0  0  0  0  0  0  0
  -18.9590  -30.1190   23.9220 C   0  0  0  0  0  3  0  0  0  0  0  0
  -17.6580  -30.6260   24.0850 C   0  0  0  0  0  3  0  0  0  0  0  0
  -16.5510  -29.8680   23.6650 C   0  0  0  0  0  3  0  0  0  0  0  0
  -16.7490  -28.6080   23.0730 C   0  0  0  0  0  3  0  0  0  0  0  0
  -25.8800  -32.5260   23.8630 C   0  0  0  0  0  3  0  0  0  0  0  0
  -26.3880  -31.7590   25.1450 C   0  0  1  0  0  0  0  0  0  0  0  0
  -25.2860  -31.5240   26.2040 C   0  0  0  0  0  1  0  0  0  0  0  0
  -26.9730  -30.3810   24.7570 C   0  0  0  0  0  1  0  0  0  0  0  0
  -27.5330  -32.5560   25.8140 C   0  0  0  0  0  1  0  0  0  0  0  0
  -25.5660  -33.9240   24.1830 N   0  0  0  0  0  0  0  0  0  0  0  0
  -25.9080  -34.9740   23.4240 C   0  0  0  0  0  0  0  0  0  0  0  0
  -26.5910  -34.8670   22.4010 O   0  0  0  0  0  0  0  0  0  0  0  0
  -24.9670  -34.0820   24.9800 H   0  0  0  0  0  0  0  0  0  0  0  0
  -24.1850  -36.7640   23.0340 C   0  0  0  0  0  1  0  0  0  0  0  0
  -25.4120  -36.3620   23.8700 C   0  0  0  0  0  3  0  0  0  0  0  0
  -27.5340  -37.2490   24.7310 C   0  0  0  0  0  1  0  0  0  0  0  0
  -26.4470  -37.4160   23.7710 N   0  0  0  0  0  0  0  0  0  0  0  0
  -26.0380  -38.3360   23.9140 H   0  0  0  0  0  0  0  0  0  0  0  0
  -33.9250  -19.0930   18.9250 C   0  0  0  0  0  2  0  0  0  0  0  0
  -33.8980  -18.3610   17.5700 C   0  0  0  0  0  2  0  0  0  0  0  0
  -33.0470  -16.3590   16.2560 C   0  0  0  0  0  1  0  0  0  0  0  0
  -34.5400  -15.9830   18.2570 C   0  0  0  0  0  1  0  0  0  0  0  0
  -33.4530  -16.8830   17.6420 C   0  0  0  0  0  3  0  0  0  0  0  0
  1  3  1  0
  2  4  1  0
  3  7  1  0
  4 47  1  0
  4  3  2  0
  5  1  2  0
  6  2  2  0
  6  5  1  0
  7  8  1  0
  9 18  1  0
 10 15  1  0
 11 12  1  0
 11 10  1  0
 13 12  1  0
 13 22  1  0
 13 14  1  0
 15  9  1  0
 15 14  1  0
 16  9  2  0
 17 18  1  0
 18  8  1  0
 19 20  2  0
 20 39  1  0
 21 20  1  0
 21 24  1  0
 22 19  1  0
 22 23  1  0
 23 21  2  0
 24 25  1  0
 25 26  2  0
 27 30  1  0
 27 26  1  0
 28 27  2  0
 29 28  1  0
 29 24  2  0
 30 31  1  0
 31 32  1  0
 32 33  2  0
 34 33  1  0
 34 38  1  0
 35 34  2  0
 36 31  2  0
 36 35  1  0
 37 36  1  0
 39 40  1  0
 40 43  1  0
 40 42  1  0
 41 39  2  0
 44 45  1  0
 44 19  1  0
 46 44  1  0
 47 48  1  0
 49 50  1  0
 49 48  1  0
 51 53  1  0
 51 50  1  0
 52 63  2  0
 53 58  1  0
 54 62  1  0
 54 64  1  0
 55 61  1  0
 55 57  1  0
 56 62  1  0
 57 58  2  0
 57 56  1  0
 59 53  2  0
 60 59  1  0
 60 55  2  0
 61 54  1  0
 62 52  1  0
 64 66  2  0
 65 64  1  0
 67 65  1  0
 68 77  2  0
 68 73  1  0
 69 65  1  0
 69 73  1  0
 70 69  1  0
 71 72  1  0
 71 70  1  0
 72 68  1  0
 73 74  2  0
 74 75  1  0
 76 75  2  0
 77 76  1  0
 78 52  1  0
 78 83  1  0
 78 79  1  0
 79 82  1  1
 79 80  1  0
 81 79  1  0
 83 86  1  0
 84 88  1  0
 84 83  1  0
 85 84  2  0
 88 87  1  0
 90 88  1  0
 90 91  1  0
 90 89  1  0
 92  5  1  0
 93 96  1  0
 93 92  1  0
 94 96  1  0
 96 95  1  0
M  ISO  4   9 100  18 100  50 101  51 101
M  END
>  <TORSDO>  (59) 
F 25

>  <SCORE>  (59) 
-12.235

>  <name>  (59) 
60

>  <ligand_id>  (59) 
60

>  <original_smiles>  (59) 
[H]c1nc(C([H])([H])C([H])([H])C([H])(C([H])([H])[H])C([H])([H])[H])c([H])c(C([H])([H])C([H])([H])N(C(=O)N2C([H])([H])C([H])([H])C([H])([H])C([H])(n3nc(-c4c([H])c([H])c(Oc5c([H])c([H])c(F)c([H])c5F)c([H])c4[H])c(C(=O)N([H])[H])c3N([H])[H])C2([H])[H])C([H])([H])[H])c1C([H])([H])C([H])([H])C([H])([H])C([H])([H])Oc1c([H])c([H])c2c(c1[H])C([H])([H])N(C(=O)C([H])(N([H])C(=O)C([H])(N([H])C([H])([H])[H])C([H])([H])[H])C(C([H])([H])[H])(C([H])([H])[H])C([H])([H])[H])C([H])(C(=O)N([H])C1([H])c3c([H])c([H])c([H])c([H])c3C([H])([H])C([H])([H])C1([H])[H])C2([H])[H]

>  <smiles>  (59) 
[H]c1nc(C([H])([H])C([H])([H])C([H])(C([H])([H])[H])C([H])([H])[H])c([H])c(C([H])([H])C([H])([H])N(C(=O)N2C([H])([H])C([H])([H])C([H])([H])C([H])(n3nc(-c4c([H])c([H])c(Oc5c([H])c([H])c(F)c([H])c5F)c([H])c4[H])c(C(=O)N([H])[H])c3N([H])[H])C2([H])[H])C([H])([H])[H])c1C([H])([H])C([H])([H])C([H])([H])C([H])([H])Oc1c([H])c([H])c2c(c1[H])C([H])([H])N(C(=O)C([H])(N([H])C(=O)C([H])(N([H])C([H])([H])[H])C([H])([H])[H])C(C([H])([H])[H])(C([H])([H])[H])C([H])([H])[H])C([H])(C(=O)N([H])C1([H])c3c([H])c([H])c([H])c([H])c3C([H])([H])C([H])([H])C1([H])[H])C2([H])[H]

$$$$
61:0:0
     RDKit          3D

 98 97  0  0  1  0  0  0  0  0999 V2000
  -22.0240  -28.5610   21.9380 C   0  0  0  0  0 15  0  0  0  0  0  0
  -23.7460  -25.6660   21.0510 C   0  0  0  0  0  2  0  0  0  0  0  0
  -22.6100  -27.1000   20.5620 C   0  0  0  0  0  2  0  0  0  0  0  0
  -23.0420  -28.3320   23.9240 C   0  0  0  0  0  1  0  0  0  0  0  0
  -24.6580  -25.1720   22.5130 C   0  0  0  0  0  1  0  0  0  0  0  0
  -24.3110  -26.5430   24.0200 C   0  0  0  0  0  1  0  0  0  0  0  0
  -22.9020  -29.3670   25.0230 C   0  0  0  0  0  1  0  0  0  0  0  0
  -22.8650  -26.8550   19.0400 C   0  0  0  0  0  3  0  0  0  0  0  0
  -24.3480  -26.1270   18.5070 C   0  0  0  0  0  3  0  0  0  0  0  0
  -25.9180  -25.8100   19.2310 C   0  0  0  0  0  2  0  0  0  0  0  0
  -27.2460  -26.6010   19.3960 O   0  0  0  0  0  0  0  0  0  0  0  0
  -24.6540  -31.9770   22.8660 C   0  0  0  0  0  0  0  0  0  0  0  0
  -27.0300  -27.9170   19.2650 C   0  0  0  0  0  3  0  0  0  0  0  0
  -23.9600  -29.8150   21.5410 C   0  0  0  0  0  3  0  0  0  0  0  0
  -24.9760  -29.6410   19.4880 C   0  0  0  0  0  0  0  0  0  0  0  0
  -26.0890  -31.0400   21.1640 C   0  0  0  0  0  2  0  0  0  0  0  0
  -26.1480  -29.8910   20.2200 C   0  0  0  0  0  3  0  0  0  0  0  0
  -27.1740  -28.9290   20.2310 C   0  0  0  0  0  2  0  0  0  0  0  0
  -26.2170  -28.1290   18.1820 C   0  0  0  0  0  2  0  0  0  0  0  0
  -25.0460  -28.8350   18.3890 C   0  0  0  0  0  3  0  0  0  0  0  0
  -23.6950  -30.1330   20.0380 C   0  0  0  0  0  2  0  0  0  0  0  0
  -24.8900  -30.9360   21.9900 N   0  0  0  0  0  0  0  0  0  0  0  0
  -23.5340  -32.2670   23.3190 O   0  0  0  0  0  0  0  0  0  0  0  0
  -24.1160  -27.9950   21.9290 C   0  0  0  0  0  2  0  0  0  0  0  0
  -22.3130  -26.6330   22.5090 N   0  0  0  0  0  2  0  0  0  0  0  0
  -25.1630  -28.1590   22.5250 O   0  0  0  0  0  1  0  0  0  0  0  0
  -22.6400  -25.7480   22.8420 H   0  0  0  0  0  0  0  0  0  0  0  0
  -18.1430  -27.9910   22.7940 C   0  0  0  0  0  0  0  0  0  0  0  0
  -20.6950  -27.0470   23.1610 C   0  0  0  0  0  3  0  0  0  0  0  0
  -20.1140  -25.9540   22.3980 C   0  0  0  0  0  2  0  0  0  0  0  0
  -19.2770  -26.4220   21.2550 C   0  0  0  0  0  2  0  0  0  0  0  0
  -17.9620  -26.8030   21.9030 C   0  0  0  0  0  2  0  0  0  0  0  0
  -19.4770  -28.3500   23.2100 C   0  0  0  0  0  0  0  0  0  0  0  0
  -19.4090  -29.7130   23.7570 C   0  0  0  0  0  3  0  0  0  0  0  0
  -18.2000  -30.4910   23.9470 C   0  0  0  0  0  3  0  0  0  0  0  0
  -16.9380  -29.9520   23.6590 C   0  0  0  0  0  3  0  0  0  0  0  0
  -16.9340  -28.6840   23.0840 C   0  0  0  0  0  3  0  0  0  0  0  0
  -25.8800  -32.7680   23.4340 C   0  0  0  0  0  3  0  0  0  0  0  0
  -25.4680  -34.1020   23.9170 N   0  0  0  0  0  0  0  0  0  0  0  0
  -25.7600  -35.2650   23.3160 C   0  0  0  0  0  0  0  0  0  0  0  0
  -26.4190  -35.3340   22.2760 O   0  0  0  0  0  0  0  0  0  0  0  0
  -24.8700  -34.1330   24.7310 H   0  0  0  0  0  0  0  0  0  0  0  0
  -23.9590  -37.0330   23.2530 C   0  0  0  0  0  1  0  0  0  0  0  0
  -25.2290  -36.5600   23.9740 C   0  0  0  0  0  3  0  0  0  0  0  0
  -27.3370  -37.4200   24.8900 C   0  0  0  0  0  1  0  0  0  0  0  0
  -26.2090  -37.6660   24.0010 N   0  0  0  0  0  0  0  0  0  0  0  0
  -25.7600  -38.5320   24.2910 H   0  0  0  0  0  0  0  0  0  0  0  0
  -26.5900  -31.9560   24.5860 C   0  0  1  0  0  0  0  0  0  0  0  0
  -25.6300  -31.6010   25.7420 C   0  0  0  0  0  1  0  0  0  0  0  0
  -27.2110  -30.6240   24.0960 C   0  0  0  0  0  1  0  0  0  0  0  0
  -27.7640  -32.7780   25.1680 C   0  0  0  0  0  1  0  0  0  0  0  0
  -25.8150  -23.0090   22.2180 C   0  0  0  0  0 15  0  0  0  0  0  0
  -27.1560  -20.9760   21.1520 C   0  0  0  0  0 15  0  0  0  0  0  0
  -29.1460  -17.2840   20.2530 C   0  0  0  0  0  2  0  0  0  0  0  0
  -30.1060  -14.6110   19.0420 C   0  0  0  0  0  2  0  0  0  0  0  0
  -29.5240  -13.5820   17.9260 C   0  0  0  0  0  2  0  0  0  0  0  0
  -28.3240  -12.7830   18.4150 C   0  0  0  0  0  2  0  0  0  0  0  0
  -27.6250  -13.7370   19.3830 C   0  0  0  0  0  3  0  0  0  0  0  0
  -28.4750  -14.4260   20.5010 C   0  0  0  0  0  2  0  0  0  0  0  0
  -29.1300  -15.6560   19.9100 N   0  0  0  0  0  0  0  0  0  0  0  0
  -30.4000  -17.2230   19.8850 O   0  0  0  0  0  1  0  0  0  0  0  0
  -28.0740  -18.8320   20.7780 N   0  0  0  0  0  1  0  0  0  0  0  0
  -28.9870  -19.2720   20.8480 H   0  0  0  0  0  0  0  0  0  0  0  0
  -25.4220  -14.1400   20.3850 C   0  0  0  0  0  0  0  0  0  0  0  0
  -24.4250  -13.3330   20.8190 C   0  0  0  0  0  0  0  0  0  0  0  0
  -24.8720  -11.9900   20.6040 C   0  0  0  0  0  0  0  0  0  0  0  0
  -26.3990  -13.2880   19.9370 N   0  0  0  0  0  0  0  0  0  0  0  0
  -26.1080  -11.9790   20.1140 N   0  0  0  0  0  0  0  0  0  0  0  0
  -24.1580  -10.7270   20.7750 C   0  0  0  0  0  0  0  0  0  0  0  0
  -24.6340   -9.7130   21.6330 C   0  0  0  0  0  3  0  0  0  0  0  0
  -23.8990   -8.5200   21.7970 C   0  0  0  0  0  3  0  0  0  0  0  0
  -22.6800   -8.3370   21.1030 C   0  0  0  0  0  0  0  0  0  0  0  0
  -22.2260   -9.3410   20.2300 C   0  0  0  0  0  3  0  0  0  0  0  0
  -22.9610  -10.5250   20.0620 C   0  0  0  0  0  3  0  0  0  0  0  0
  -21.9100   -7.2030   21.1790 O   0  0  0  0  0  0  0  0  0  0  0  0
  -21.8470   -6.4560   22.3260 C   0  0  0  0  0  0  0  0  0  0  0  0
  -21.4470   -7.0130   23.5600 C   0  0  0  0  0  3  0  0  0  0  0  0
  -21.3310   -6.1930   24.6990 C   0  0  0  0  0  3  0  0  0  0  0  0
  -21.6030   -4.8130   24.6040 C   0  0  0  0  0  0  0  0  0  0  0  0
  -21.9980   -4.2570   23.3750 C   0  0  0  0  0  3  0  0  0  0  0  0
  -22.1150   -5.0760   22.2380 C   0  0  0  0  0  0  0  0  0  0  0  0
  -22.4750   -4.5310   21.0520 F   0  0  0  0  0  0  0  0  0  0  0  0
  -21.4830   -4.0200   25.6950 F   0  0  0  0  0  0  0  0  0  0  0  0
  -23.0980  -13.8070   21.3100 C   0  0  0  0  0  0  0  0  0  0  0  0
  -22.4870  -13.0650   22.2210 N   0  0  0  0  0  0  0  0  0  0  0  0
  -22.6250  -14.8750   20.9220 O   0  0  0  0  0  0  0  0  0  0  0  0
  -22.8990  -12.2060   22.5580 H   0  0  0  0  0  0  0  0  0  0  0  0
  -21.5920  -13.3580   22.5920 H   0  0  0  0  0  0  0  0  0  0  0  0
  -25.5740  -15.5270   20.3200 N   0  0  0  0  0  0  0  0  0  0  0  0
  -24.8200  -16.1540   20.5860 H   0  0  0  0  0  0  0  0  0  0  0  0
  -26.3620  -15.9990   19.8970 H   0  0  0  0  0  0  0  0  0  0  0  0
  -24.9330  -26.1960   25.3890 C   0  0  0  0  0  2  0  0  0  0  0  0
  -26.2510  -28.1440   26.1790 C   0  0  0  0  0  1  0  0  0  0  0  0
  -24.9910  -27.3740   26.3110 N   0  0  2  0  0  4  0  0  0  0  0  0
  -24.2730  -27.9730   25.9320 H   0  0  0  0  0  0  0  0  0  0  0  0
  -23.8340  -28.4440   28.2470 C   0  0  0  0  0  1  0  0  0  0  0  0
  -25.6830  -26.7940   28.7040 C   0  0  0  0  0  1  0  0  0  0  0  0
  -24.5480  -27.1760   27.7300 C   0  0  0  0  0  3  0  0  0  0  0  0
  2  5  1  0
  3  2  1  0
  4  7  1  0
  6 92  1  0
  8  3  1  0
  9  8  2  0
  9 10  1  0
 10 11  1  0
 12 23  2  0
 13 11  1  0
 13 18  1  0
 14 24  1  0
 14 22  1  0
 15 21  1  0
 15 17  1  0
 16 22  1  0
 17 18  1  0
 17 16  1  0
 19 20  1  0
 19 13  1  0
 20 15  2  0
 21 14  1  0
 22 12  1  0
 24 26  1  0
 25 27  1  0
 28 37  2  0
 28 33  1  0
 29 25  1  0
 29 33  1  0
 30 29  1  0
 31 32  1  0
 31 30  1  0
 32 28  1  0
 33 34  2  0
 34 35  1  0
 36 35  2  0
 37 36  1  0
 38 12  1  0
 38 39  1  0
 38 48  1  0
 39 42  1  0
 40 39  1  0
 40 44  1  0
 41 40  2  0
 44 43  1  0
 44 46  1  0
 46 47  1  0
 46 45  1  0
 48 51  1  1
 48 49  1  0
 50 48  1  0
 55 60  1  0
 56 57  1  0
 56 55  1  0
 58 57  1  0
 58 67  1  0
 58 59  1  0
 60 54  1  0
 60 59  1  0
 61 54  1  0
 62 63  1  0
 64 65  2  0
 65 84  1  0
 66 69  1  0
 66 65  1  0
 67 68  1  0
 67 64  1  0
 68 66  2  0
 69 70  1  0
 70 71  2  0
 72 75  1  0
 72 71  1  0
 73 72  2  0
 74 73  1  0
 74 69  2  0
 75 76  1  0
 76 77  1  0
 77 78  2  0
 79 78  1  0
 79 83  1  0
 80 79  2  0
 81 76  2  0
 81 80  1  0
 82 81  1  0
 84 85  1  0
 85 87  1  0
 85 88  1  0
 86 84  2  0
 89 64  1  0
 89 90  1  0
 91 89  1  0
 92 94  1  0
 93 94  1  0
 94 98  1  0
 94 95  1  6
 98 96  1  0
 98 97  1  0
M  ISO  4  10 101  11 101  54 100  62 100
M  END
>  <TORSDO>  (60) 
F 24

>  <SCORE>  (60) 
-12.335

>  <name>  (60) 
61

>  <ligand_id>  (60) 
61

>  <original_smiles>  (60) 
[H]c1c([H])c([H])c2c(c1[H])C([H])([H])C([H])([H])C([H])([H])C2([H])N([H])C(=O)C1([H])N(C(=O)C([H])(N([H])C(=O)C([H])(N([H])C([H])([H])[H])C([H])([H])[H])C(C([H])([H])[H])(C([H])([H])[H])C([H])([H])[H])C([H])([H])c2c([H])c(OC([H])([H])C([H])([H])C([H])([H])c3c([H])c(C([H])([H])[H])c(C([H])([H])[N+]([H])(C([H])([H])[H])C([H])(C([H])([H])[H])C([H])([H])[H])c(C([H])([H])C([H])([H])N([H])C(=O)N4C([H])([H])C([H])([H])C([H])([H])C([H])(n5nc(-c6c([H])c([H])c(Oc7c([H])c([H])c(F)c([H])c7F)c([H])c6[H])c(C(=O)N([H])[H])c5N([H])[H])C4([H])[H])c3[H])c([H])c([H])c2C1([H])[H]

>  <smiles>  (60) 
[H]c1c([H])c([H])c2c(c1[H])C([H])([H])C([H])([H])C([H])([H])C2([H])N([H])C(=O)C1([H])N(C(=O)C([H])(N([H])C(=O)C([H])(N([H])C([H])([H])[H])C([H])([H])[H])C(C([H])([H])[H])(C([H])([H])[H])C([H])([H])[H])C([H])([H])c2c([H])c(OC([H])([H])C([H])([H])C([H])([H])c3c([H])c(C([H])([H])[H])c(C([H])([H])[N+]([H])(C([H])([H])[H])C([H])(C([H])([H])[H])C([H])([H])[H])c(C([H])([H])C([H])([H])N([H])C(=O)N4C([H])([H])C([H])([H])C([H])([H])C([H])(n5nc(-c6c([H])c([H])c(Oc7c([H])c([H])c(F)c([H])c7F)c([H])c6[H])c(C(=O)N([H])[H])c5N([H])[H])C4([H])[H])c3[H])c([H])c([H])c2C1([H])[H]

$$$$
62:0:0
     RDKit          3D

 96104  0  0  1  0  0  0  0  0999 V2000
  -29.1650  -20.0950   21.2100 C   0  0  0  0  0  3  0  0  0  0  0  0
  -29.0940  -19.2760   20.1000 C   0  0  0  0  0  0  0  0  0  0  0  0
  -28.3590  -21.3410   19.5520 C   0  0  0  0  0  3  0  0  0  0  0  0
  -28.6680  -21.3360   20.8650 N   0  0  0  0  0  0  0  0  0  0  0  0
  -28.6200  -20.1030   19.1030 N   0  0  0  0  0  0  0  0  0  0  0  0
  -28.4660  -19.8320   18.1410 H   0  0  0  0  0  0  0  0  0  0  0  0
  -29.3430  -17.7810   19.8960 C   0  0  0  0  0  2  0  0  0  0  0  0
  -30.1480  -17.0730   21.0220 C   0  0  0  0  0  2  0  0  0  0  0  0
  -30.6820  -14.6510   20.3650 C   0  0  0  0  0  0  0  0  0  0  0  0
  -30.4180  -12.5030   19.1510 C   0  0  0  0  0  2  0  0  0  0  0  0
  -29.4390  -12.7000   17.9740 C   0  0  0  0  0  2  0  0  0  0  0  0
  -27.9820  -12.5320   18.4470 C   0  0  0  0  0  2  0  0  0  0  0  0
  -27.6690  -13.3380   19.7390 C   0  0  0  0  0  3  0  0  0  0  0  0
  -28.7540  -13.0600   20.7990 C   0  0  0  0  0  2  0  0  0  0  0  0
  -30.0510  -13.4440   20.2180 N   0  0  0  0  0  0  0  0  0  0  0  0
  -31.7610  -14.9110   19.8320 O   0  0  0  0  0  0  0  0  0  0  0  0
  -29.9660  -15.5960   21.0130 N   0  0  0  0  0  0  0  0  0  0  0  0
  -29.1360  -15.2590   21.4800 H   0  0  0  0  0  0  0  0  0  0  0  0
  -25.2810  -13.9190   20.4700 C   0  0  0  0  0  0  0  0  0  0  0  0
  -24.2170  -13.1350   20.8470 C   0  0  0  0  0  0  0  0  0  0  0  0
  -24.6900  -11.7890   20.8070 C   0  0  0  0  0  0  0  0  0  0  0  0
  -26.3280  -13.0460   20.2270 N   0  0  0  0  0  0  0  0  0  0  0  0
  -25.9740  -11.7620   20.4790 N   0  0  0  0  0  0  0  0  0  0  0  0
  -23.9770  -10.5200   21.0090 C   0  0  0  0  0  0  0  0  0  0  0  0
  -24.4210   -9.5610   21.9460 C   0  0  0  0  0  3  0  0  0  0  0  0
  -23.7070   -8.3580   22.1350 C   0  0  0  0  0  3  0  0  0  0  0  0
  -22.5340   -8.1030   21.3820 C   0  0  0  0  0  0  0  0  0  0  0  0
  -22.1110   -9.0490   20.4310 C   0  0  0  0  0  3  0  0  0  0  0  0
  -22.8280  -10.2440   20.2440 C   0  0  0  0  0  3  0  0  0  0  0  0
  -21.7990   -6.9470   21.4670 O   0  0  0  0  0  0  0  0  0  0  0  0
  -21.7510   -6.2170   22.6270 C   0  0  0  0  0  0  0  0  0  0  0  0
  -21.2920   -6.7740   23.8430 C   0  0  0  0  0  3  0  0  0  0  0  0
  -21.1930   -5.9670   24.9940 C   0  0  0  0  0  3  0  0  0  0  0  0
  -21.5440   -4.6060   24.9310 C   0  0  0  0  0  0  0  0  0  0  0  0
  -21.9970   -4.0480   23.7230 C   0  0  0  0  0  3  0  0  0  0  0  0
  -22.0980   -4.8520   22.5750 C   0  0  0  0  0  0  0  0  0  0  0  0
  -22.5140   -4.3090   21.4070 F   0  0  0  0  0  0  0  0  0  0  0  0
  -21.4410   -3.8270   26.0340 F   0  0  0  0  0  0  0  0  0  0  0  0
  -22.8260  -13.6080   21.1430 C   0  0  0  0  0  0  0  0  0  0  0  0
  -22.1100  -12.8970   22.0100 N   0  0  0  0  0  0  0  0  0  0  0  0
  -22.3760  -14.6350   20.6400 O   0  0  0  0  0  0  0  0  0  0  0  0
  -22.4940  -12.0740   22.4480 H   0  0  0  0  0  0  0  0  0  0  0  0
  -21.1740  -13.1950   22.2480 H   0  0  0  0  0  0  0  0  0  0  0  0
  -25.4310  -15.2920   20.3080 N   0  0  0  0  0  0  0  0  0  0  0  0
  -24.6510  -15.9240   20.4500 H   0  0  0  0  0  0  0  0  0  0  0  0
  -26.2690  -15.7460   19.9640 H   0  0  0  0  0  0  0  0  0  0  0  0
  -27.8350  -22.4770   18.6980 C   0  0  0  0  0  2  0  0  0  0  0  0
  -26.6450  -22.1260   17.7720 C   0  0  0  0  0  2  0  0  0  0  0  0
  -24.6150  -23.0040   19.1360 C   0  0  0  0  0  1  0  0  0  0  0  0
  -25.3010  -21.8050   18.4610 C   0  0  0  0  0  2  0  0  0  0  0  0
  -28.3700  -22.4480   21.8060 C   0  0  0  0  0  2  0  0  0  0  0  0
  -29.0940  -23.8030   21.5790 C   0  0  0  0  0  2  0  0  0  0  0  0
  -27.2920  -25.2330   22.8460 C   0  0  0  0  0  1  0  0  0  0  0  0
  -28.1700  -25.0530   21.5850 C   0  0  0  0  0  3  0  0  0  0  0  0
  -28.9560  -26.3550   21.2560 C   0  0  0  0  0  2  0  0  0  0  0  0
  -28.5160  -26.8790   20.0060 O   0  0  0  0  0  0  0  0  0  0  0  0
  -24.6110  -31.9090   23.2030 C   0  0  0  0  0  0  0  0  0  0  0  0
  -27.3450  -27.5880   20.0680 C   0  0  0  0  0  0  0  0  0  0  0  0
  -23.4290  -30.5140   21.5300 C   0  0  0  0  0  3  0  0  0  0  0  0
  -24.9190  -29.0200   20.0910 C   0  0  0  0  0  0  0  0  0  0  0  0
  -25.9430  -30.9220   21.3530 C   0  0  0  0  0  2  0  0  0  0  0  0
  -26.0570  -29.5630   20.7020 C   0  0  0  0  0  0  0  0  0  0  0  0
  -27.2720  -28.8490   20.7010 C   0  0  0  0  0  3  0  0  0  0  0  0
  -26.1980  -27.0560   19.4500 C   0  0  0  0  0  3  0  0  0  0  0  0
  -24.9820  -27.7640   19.4630 C   0  0  0  0  0  3  0  0  0  0  0  0
  -23.6590  -29.8560   20.1410 C   0  0  0  0  0  2  0  0  0  0  0  0
  -24.6770  -31.1300   22.0880 N   0  0  0  0  0  0  0  0  0  0  0  0
  -23.5250  -32.1670   23.7410 O   0  0  0  0  0  0  0  0  0  0  0  0
  -22.7830  -29.4740   22.4720 C   0  0  0  0  0  0  0  0  0  0  0  0
  -21.4570  -29.3110   22.3530 N   0  0  0  0  0  0  0  0  0  0  0  0
  -23.4690  -28.8200   23.2600 O   0  0  0  0  0  0  0  0  0  0  0  0
  -20.9730  -29.8980   21.6850 H   0  0  0  0  0  0  0  0  0  0  0  0
  -18.0740  -28.1360   22.8490 C   0  0  0  0  0  0  0  0  0  0  0  0
  -20.6390  -28.3530   23.0970 C   0  0  0  0  0  3  0  0  0  0  0  0
  -20.7190  -26.9450   22.4620 C   0  0  0  0  0  2  0  0  0  0  0  0
  -19.5990  -26.6710   21.4550 C   0  0  0  0  0  2  0  0  0  0  0  0
  -18.2280  -26.8080   22.1210 C   0  0  0  0  0  2  0  0  0  0  0  0
  -19.2080  -28.8650   23.2930 C   0  0  0  0  0  0  0  0  0  0  0  0
  -19.0150  -30.1110   23.9290 C   0  0  0  0  0  3  0  0  0  0  0  0
  -17.7210  -30.6320   24.1200 C   0  0  0  0  0  3  0  0  0  0  0  0
  -16.6020  -29.8960   23.6920 C   0  0  0  0  0  3  0  0  0  0  0  0
  -16.7790  -28.6480   23.0650 C   0  0  0  0  0  3  0  0  0  0  0  0
  -25.8890  -32.5410   23.8380 C   0  0  0  0  0  3  0  0  0  0  0  0
  -26.4050  -31.7570   25.1080 C   0  0  1  0  0  0  0  0  0  0  0  0
  -25.3050  -31.5020   26.1610 C   0  0  0  0  0  1  0  0  0  0  0  0
  -26.9970  -30.3870   24.7030 C   0  0  0  0  0  1  0  0  0  0  0  0
  -27.5460  -32.5510   25.7880 C   0  0  0  0  0  1  0  0  0  0  0  0
  -25.5750  -33.9360   24.1760 N   0  0  0  0  0  0  0  0  0  0  0  0
  -25.9120  -34.9930   23.4240 C   0  0  0  0  0  0  0  0  0  0  0  0
  -26.5920  -34.8960   22.3980 O   0  0  0  0  0  0  0  0  0  0  0  0
  -24.9740  -34.0860   24.9750 H   0  0  0  0  0  0  0  0  0  0  0  0
  -24.1820  -36.7800   23.0540 C   0  0  0  0  0  1  0  0  0  0  0  0
  -25.4130  -36.3740   23.8820 C   0  0  0  0  0  3  0  0  0  0  0  0
  -27.5260  -37.2600   24.7630 C   0  0  0  0  0  1  0  0  0  0  0  0
  -26.4440  -37.4300   23.7960 N   0  0  0  0  0  0  0  0  0  0  0  0
  -26.0330  -38.3470   23.9400 H   0  0  0  0  0  0  0  0  0  0  0  0
  2  1  2  0
  3 47  1  0
  3  4  1  0
  4  1  1  0
  4 51  1  0
  5  3  1  0
  5  2  1  0
  6  5  1  0
  7  2  1  0
  7  8  1  0
  9 17  1  0
 10 15  1  0
 11 12  1  0
 11 10  1  0
 13 12  1  0
 13 22  1  0
 13 14  1  0
 15  9  1  0
 15 14  1  0
 16  9  2  0
 17  8  1  0
 17 18  1  0
 19 20  2  0
 20 39  1  0
 21 20  1  0
 21 24  1  0
 22 19  1  0
 22 23  1  0
 23 21  2  0
 24 25  1  0
 25 26  2  0
 27 30  1  0
 27 26  1  0
 28 27  2  0
 29 28  1  0
 29 24  2  0
 30 31  1  0
 31 32  1  0
 32 33  2  0
 34 33  1  0
 34 38  1  0
 35 34  2  0
 36 31  2  0
 36 35  1  0
 37 36  1  0
 39 40  1  0
 40 43  1  0
 40 42  1  0
 41 39  2  0
 44 45  1  0
 44 19  1  0
 46 44  1  0
 48 50  1  0
 48 47  1  0
 50 49  1  0
 52 54  1  0
 52 51  1  0
 54 53  1  0
 55 54  1  0
 56 58  1  0
 56 55  1  0
 57 68  2  0
 58 63  1  0
 59 67  1  0
 59 69  1  0
 60 66  1  0
 60 62  1  0
 61 67  1  0
 62 61  1  0
 63 62  2  0
 64 65  1  0
 64 58  2  0
 65 60  2  0
 66 59  1  0
 67 57  1  0
 69 71  2  0
 70 69  1  0
 72 70  1  0
 73 82  2  0
 73 78  1  0
 74 70  1  0
 74 78  1  0
 75 74  1  0
 76 77  1  0
 76 75  1  0
 77 73  1  0
 78 79  2  0
 79 80  1  0
 81 80  2  0
 82 81  1  0
 83 57  1  0
 83 88  1  0
 83 84  1  0
 84 87  1  1
 84 85  1  0
 86 84  1  0
 88 91  1  0
 89 93  1  0
 89 88  1  0
 90 89  2  0
 93 92  1  0
 95 93  1  0
 95 96  1  0
 95 94  1  0
M  ISO  4   9 100  17 100  55 101  56 101
M  END
>  <TORSDO>  (61) 
F 25

>  <SCORE>  (61) 
-12.388

>  <name>  (61) 
62

>  <ligand_id>  (61) 
62

>  <original_smiles>  (61) 
[H]c1c([H])c([H])c2c(c1[H])C([H])([H])C([H])([H])C([H])([H])C2([H])N([H])C(=O)C1([H])N(C(=O)C([H])(N([H])C(=O)C([H])(N([H])C([H])([H])[H])C([H])([H])[H])C(C([H])([H])[H])(C([H])([H])[H])C([H])([H])[H])C([H])([H])c2c([H])c(OC([H])([H])C([H])(C([H])([H])[H])C([H])([H])C([H])([H])n3c([H])c(C([H])([H])C([H])([H])N([H])C(=O)N4C([H])([H])C([H])([H])C([H])([H])C([H])(n5nc(-c6c([H])c([H])c(Oc7c([H])c([H])c(F)c([H])c7F)c([H])c6[H])c(C(=O)N([H])[H])c5N([H])[H])C4([H])[H])[n+]([H])c3C([H])([H])C([H])([H])C([H])([H])C([H])([H])[H])c([H])c([H])c2C1([H])[H]

>  <smiles>  (61) 
[H]c1c([H])c([H])c2c(c1[H])C([H])([H])C([H])([H])C([H])([H])C2([H])N([H])C(=O)C1([H])N(C(=O)C([H])(N([H])C(=O)C([H])(N([H])C([H])([H])[H])C([H])([H])[H])C(C([H])([H])[H])(C([H])([H])[H])C([H])([H])[H])C([H])([H])c2c([H])c(OC([H])([H])C([H])(C([H])([H])[H])C([H])([H])C([H])([H])n3c([H])c(C([H])([H])C([H])([H])N([H])C(=O)N4C([H])([H])C([H])([H])C([H])([H])C([H])(n5nc(-c6c([H])c([H])c(Oc7c([H])c([H])c(F)c([H])c7F)c([H])c6[H])c(C(=O)N([H])[H])c5N([H])[H])C4([H])[H])[n+]([H])c3C([H])([H])C([H])([H])C([H])([H])C([H])([H])[H])c([H])c([H])c2C1([H])[H]

$$$$
63:0:0
     RDKit          3D

 97106  0  0  1  0  0  0  0  0999 V2000
  -29.0070  -14.8910   19.7420 C   0  0  0  0  0  2  0  0  0  0  0  0
  -28.7950  -12.6690   19.7910 C   0  0  0  0  0  3  0  0  0  0  0  0
  -27.7540  -12.2120   18.5560 C   0  0  0  0  0  0  0  0  0  0  0  0
  -28.1830  -15.8360   18.6710 C   0  0  0  0  0  3  0  0  0  0  0  0
  -27.1400  -13.4240   17.6170 C   0  0  2  0  0  0  0  0  0  0  0  0
  -27.3740  -14.9680   17.7100 N   0  0  0  0  0  0  0  0  0  0  0  0
  -26.5410  -10.1320   19.4510 C   0  0  0  0  0  1  0  0  0  0  0  0
  -28.5500   -9.8610   17.8460 C   0  0  0  0  0  1  0  0  0  0  0  0
  -27.3690  -10.7470   18.3000 C   0  0  0  0  0  3  0  0  0  0  0  0
  -29.4790  -11.4500   20.6760 C   0  0  0  0  0  2  0  0  0  0  0  0
  -31.0020  -11.3530   21.3410 C   0  0  0  0  0  2  0  0  0  0  0  0
  -31.5880  -13.7530   22.1240 C   0  0  0  0  0  0  0  0  0  0  0  0
  -31.4710  -13.9040   19.8810 C   0  0  0  0  0  2  0  0  0  0  0  0
  -30.5860  -14.3630   18.3400 C   0  0  0  0  0  1  0  0  0  0  0  0
  -27.4970  -14.1360   19.1190 C   0  0  2  0  0  0  0  0  0  0  0  0
  -27.5760  -13.7770   20.9320 C   0  0  0  0  0  3  0  0  0  0  0  0
  -29.0530  -13.6060   21.9350 C   0  0  0  0  0  2  0  0  0  0  0  0
  -30.6380  -13.8340   21.3730 N   0  0  0  0  0  0  0  0  0  0  0  0
  -32.4330  -14.6560   22.1580 O   0  0  0  0  0  0  0  0  0  0  0  0
  -32.6280  -11.8270   23.2390 C   0  0  0  0  0  1  0  0  0  0  0  0
  -31.6850  -12.3940   22.2770 N   0  0  0  0  0  0  0  0  0  0  0  0
  -25.2860  -13.8460   21.3070 C   0  0  0  0  0  0  0  0  0  0  0  0
  -24.3220  -12.9450   21.5110 C   0  0  0  0  0  0  0  0  0  0  0  0
  -24.9340  -11.6500   21.4520 C   0  0  0  0  0  0  0  0  0  0  0  0
  -26.4180  -13.1030   21.2360 N   0  0  0  0  0  0  0  0  0  0  0  0
  -26.2510  -11.7590   21.2720 N   0  0  0  0  0  0  0  0  0  0  0  0
  -24.3000  -10.3380   21.5470 C   0  0  0  0  0  0  0  0  0  0  0  0
  -24.6820   -9.3940   22.5230 C   0  0  0  0  0  3  0  0  0  0  0  0
  -23.9840   -8.1750   22.6440 C   0  0  0  0  0  3  0  0  0  0  0  0
  -22.8940   -7.8970   21.7840 C   0  0  0  0  0  0  0  0  0  0  0  0
  -22.5360   -8.8290   20.7970 C   0  0  0  0  0  3  0  0  0  0  0  0
  -23.2380  -10.0370   20.6730 C   0  0  0  0  0  3  0  0  0  0  0  0
  -22.1700   -6.7300   21.8110 O   0  0  0  0  0  0  0  0  0  0  0  0
  -21.9900   -6.0220   22.9720 C   0  0  0  0  0  0  0  0  0  0  0  0
  -21.3890   -6.5980   24.1110 C   0  0  0  0  0  3  0  0  0  0  0  0
  -21.1600   -5.8130   25.2580 C   0  0  0  0  0  3  0  0  0  0  0  0
  -21.5280   -4.4550   25.2660 C   0  0  0  0  0  0  0  0  0  0  0  0
  -22.1250   -3.8780   24.1310 C   0  0  0  0  0  3  0  0  0  0  0  0
  -22.3550   -4.6610   22.9850 C   0  0  0  0  0  0  0  0  0  0  0  0
  -22.9110   -4.0990   21.8850 F   0  0  0  0  0  0  0  0  0  0  0  0
  -21.3020   -3.6960   26.3640 F   0  0  0  0  0  0  0  0  0  0  0  0
  -22.9030  -13.3340   21.6860 C   0  0  0  0  0  0  0  0  0  0  0  0
  -22.1880  -12.6050   22.5270 N   0  0  0  0  0  0  0  0  0  0  0  0
  -22.4570  -14.3500   21.1540 O   0  0  0  0  0  0  0  0  0  0  0  0
  -22.5870  -11.7970   22.9840 H   0  0  0  0  0  0  0  0  0  0  0  0
  -21.2290  -12.8570   22.7220 H   0  0  0  0  0  0  0  0  0  0  0  0
  -25.2770  -15.2420   21.1870 N   0  0  0  0  0  0  0  0  0  0  0  0
  -24.4110  -15.7660   21.1660 H   0  0  0  0  0  0  0  0  0  0  0  0
  -26.0980  -15.7890   20.9650 H   0  0  0  0  0  0  0  0  0  0  0  0
  -28.3550  -17.7010   18.4000 C   0  0  0  0  0  3  0  0  0  0  0  0
  -27.4910  -19.4580   18.4650 C   0  0  0  0  0  3  0  0  0  0  0  0
  -27.9350  -21.3730   18.4390 C   0  0  0  0  0  3  0  0  0  0  0  0
  -27.1880  -23.1740   18.6410 C   0  0  0  0  0  3  0  0  0  0  0  0
  -27.6050  -24.8880   18.8430 O   0  0  0  0  0  0  0  0  0  0  0  0
  -24.5350  -31.0460   22.7140 C   0  0  0  0  0  0  0  0  0  0  0  0
  -26.7480  -26.1620   19.0830 C   0  0  0  0  0  0  0  0  0  0  0  0
  -23.2460  -29.7710   21.0700 C   0  0  0  0  0  3  0  0  0  0  0  0
  -24.5640  -28.2300   19.4470 C   0  0  0  0  0  0  0  0  0  0  0  0
  -25.8220  -29.8790   20.8060 C   0  0  0  0  0  2  0  0  0  0  0  0
  -25.8130  -28.5050   20.0170 C   0  0  0  0  0  0  0  0  0  0  0  0
  -26.9000  -27.4910   19.8140 C   0  0  0  0  0  3  0  0  0  0  0  0
  -25.4640  -26.1110   18.5190 C   0  0  0  0  0  3  0  0  0  0  0  0
  -24.4260  -27.0590   18.6910 C   0  0  0  0  0  3  0  0  0  0  0  0
  -23.3880  -29.1900   19.6410 C   0  0  0  0  0  2  0  0  0  0  0  0
  -24.5650  -30.2620   21.5810 N   0  0  0  0  0  0  0  0  0  0  0  0
  -23.4720  -31.3160   23.3010 O   0  0  0  0  0  0  0  0  0  0  0  0
  -22.5850  -28.7220   22.0070 C   0  0  0  0  0  0  0  0  0  0  0  0
  -21.2460  -28.5820   21.9550 N   0  0  0  0  0  0  0  0  0  0  0  0
  -23.2870  -28.0340   22.7520 O   0  0  0  0  0  0  0  0  0  0  0  0
  -20.7270  -29.1900   21.3370 H   0  0  0  0  0  0  0  0  0  0  0  0
  -17.8920  -27.3300   22.5730 C   0  0  0  0  0  0  0  0  0  0  0  0
  -20.4630  -27.5950   22.7090 C   0  0  0  0  0  3  0  0  0  0  0  0
  -20.5330  -26.2010   22.0420 C   0  0  0  0  0  2  0  0  0  0  0  0
  -19.3770  -25.9380   21.0720 C   0  0  0  0  0  2  0  0  0  0  0  0
  -18.0340  -26.0310   21.7980 C   0  0  0  0  0  2  0  0  0  0  0  0
  -19.0310  -28.0730   22.9870 C   0  0  0  0  0  0  0  0  0  0  0  0
  -18.8400  -29.2880   23.6800 C   0  0  0  0  0  3  0  0  0  0  0  0
  -17.5440  -29.7640   23.9570 C   0  0  0  0  0  3  0  0  0  0  0  0
  -16.4220  -29.0210   23.5530 C   0  0  0  0  0  3  0  0  0  0  0  0
  -16.5970  -27.8050   22.8700 C   0  0  0  0  0  3  0  0  0  0  0  0
  -25.8300  -31.6570   23.3250 C   0  0  0  0  0  3  0  0  0  0  0  0
  -26.4720  -30.7460   24.4440 C   0  0  1  0  0  0  0  0  0  0  0  0
  -25.4820  -30.3330   25.5590 C   0  0  0  0  0  1  0  0  0  0  0  0
  -27.0570  -29.4500   23.8400 C   0  0  0  0  0  1  0  0  0  0  0  0
  -27.6530  -31.4900   25.1110 C   0  0  0  0  0  1  0  0  0  0  0  0
  -25.4940  -32.9790   23.8930 N   0  0  0  0  0  0  0  0  0  0  0  0
  -25.7800  -34.1600   23.3280 C   0  0  0  0  0  0  0  0  0  0  0  0
  -26.4130  -34.2540   22.2750 O   0  0  0  0  0  0  0  0  0  0  0  0
  -24.9220  -32.9760   24.7260 H   0  0  0  0  0  0  0  0  0  0  0  0
  -24.0310  -35.9770   23.3460 C   0  0  0  0  0  1  0  0  0  0  0  0
  -25.2930  -35.4390   24.0430 C   0  0  0  0  0  3  0  0  0  0  0  0
  -27.4330  -36.1950   24.9820 C   0  0  0  0  0  1  0  0  0  0  0  0
  -26.3130  -36.5100   24.1010 N   0  0  0  0  0  0  0  0  0  0  0  0
  -25.9010  -37.3850   24.4130 H   0  0  0  0  0  0  0  0  0  0  0  0
  -26.3040  -13.1200   16.3770 C   0  0  0  0  0  2  0  0  0  0  0  0
  -27.1880  -11.5370   14.5440 C   0  0  0  0  0  1  0  0  0  0  0  0
  -27.1360  -12.9700   15.0810 C   0  0  0  0  0  2  0  0  0  0  0  0
  2 10  1  0
  3  2  2  0
  4 50  1  0
  4  1  1  0
  5 95  1  1
  5  6  1  0
  5  3  1  0
  5 15  1  0
  6  4  1  0
  6 15  1  0
  8  9  1  0
  9  3  1  0
  9  7  1  0
 10 11  1  0
 11 21  1  0
 12 19  2  0
 12 21  1  0
 13 18  1  0
 14 13  1  0
 15  1  1  6
 15 16  1  0
 16 25  1  0
 16 17  1  0
 18 17  1  0
 18 12  1  0
 21 20  1  0
 22 23  2  0
 23 42  1  0
 24 23  1  0
 24 27  1  0
 25 26  1  0
 25 22  1  0
 26 24  2  0
 27 28  1  0
 28 29  2  0
 30 33  1  0
 30 29  1  0
 31 30  2  0
 32 31  1  0
 32 27  2  0
 33 34  1  0
 34 39  2  0
 34 35  1  0
 35 36  2  0
 36 37  1  0
 37 41  1  0
 38 37  2  0
 39 38  1  0
 40 39  1  0
 42 43  1  0
 43 46  1  0
 43 45  1  0
 44 42  2  0
 47 22  1  0
 48 47  1  0
 49 47  1  0
 50 51  2  0
 52 51  1  0
 52 53  2  0
 53 54  1  0
 54 56  1  0
 55 66  2  0
 55 81  1  0
 56 61  1  0
 57 65  1  0
 57 67  1  0
 58 64  1  0
 58 60  1  0
 59 65  1  0
 60 59  1  0
 61 60  2  0
 62 63  1  0
 62 56  2  0
 63 58  2  0
 64 57  1  0
 65 55  1  0
 67 69  2  0
 68 67  1  0
 68 72  1  0
 70 68  1  0
 71 80  2  0
 71 76  1  0
 72 76  1  0
 73 72  1  0
 74 75  1  0
 74 73  1  0
 75 71  1  0
 76 77  2  0
 77 78  1  0
 79 78  2  0
 80 79  1  0
 81 86  1  0
 81 82  1  0
 82 85  1  1
 82 83  1  0
 84 82  1  0
 86 89  1  0
 87 86  1  0
 87 91  1  0
 88 87  2  0
 90 91  1  0
 91 93  1  0
 93 94  1  0
 93 92  1  0
 96 97  1  0
 97 95  1  0
M  ISO  4  12 100  21 100  53 101  54 101
M  END
>  <TORSDO>  (62) 
F 25

>  <SCORE>  (62) 
12.499

>  <name>  (62) 
63

>  <ligand_id>  (62) 
63

>  <original_smiles>  (62) 
[H]c1c([H])c([H])c2c(c1[H])C([H])([H])C([H])([H])C([H])([H])C2([H])N([H])C(=O)C1([H])N(C(=O)C([H])(N([H])C(=O)C([H])(N([H])C([H])([H])[H])C([H])([H])[H])C(C([H])([H])[H])(C([H])([H])[H])C([H])([H])[H])C([H])([H])c2c([H])c(OC([H])([H])C([H])([H])C([H])([H])C([H])([H])c3nc(C([H])([H])C([H])([H])C([H])([H])[H])c(C([H])(C([H])([H])[H])C([H])([H])[H])c(C([H])([H])C([H])([H])N(C(=O)N4C([H])([H])C([H])([H])C([H])([H])C([H])(n5nc(-c6c([H])c([H])c(Oc7c([H])c([H])c(F)c([H])c7F)c([H])c6[H])c(C(=O)N([H])[H])c5N([H])[H])C4([H])[H])C([H])([H])[H])c3[H])c([H])c([H])c2C1([H])[H]

>  <smiles>  (62) 
[H]c1c([H])c([H])c2c(c1[H])C([H])([H])C([H])([H])C([H])([H])C2([H])N([H])C(=O)C1([H])N(C(=O)C([H])(N([H])C(=O)C([H])(N([H])C([H])([H])[H])C([H])([H])[H])C(C([H])([H])[H])(C([H])([H])[H])C([H])([H])[H])C([H])([H])c2c([H])c(OC([H])([H])C([H])([H])C([H])([H])C([H])([H])c3nc(C([H])([H])C([H])([H])C([H])([H])[H])c(C([H])(C([H])([H])[H])C([H])([H])[H])c(C([H])([H])C([H])([H])N(C(=O)N4C([H])([H])C([H])([H])C([H])([H])C([H])(n5nc(-c6c([H])c([H])c(Oc7c([H])c([H])c(F)c([H])c7F)c([H])c6[H])c(C(=O)N([H])[H])c5N([H])[H])C4([H])[H])C([H])([H])[H])c3[H])c([H])c([H])c2C1([H])[H]

$$$$
64:0:0
     RDKit          3D

 90 97  0  0  1  0  0  0  0  0999 V2000
  -28.6470  -21.9230   19.8330 C   0  0  0  0  0  2  0  0  0  0  0  0
  -27.5860  -19.9410   18.7300 C   0  0  0  0  0  1  0  0  0  0  0  0
  -28.9230  -20.4540   19.3110 C   0  0  0  0  0  3  0  0  0  0  0  0
  -29.6100  -19.4350   20.3080 C   0  0  0  0  0  2  0  0  0  0  0  0
  -28.0980  -17.3980   20.7090 C   0  0  0  0  0  1  0  0  0  0  0  0
  -29.4180  -17.8820   20.0730 C   0  0  0  0  0  3  0  0  0  0  0  0
  -30.5800  -16.9590   20.5800 C   0  0  0  0  0  2  0  0  0  0  0  0
  -30.8750  -14.4750   20.0640 C   0  0  0  0  0  0  0  0  0  0  0  0
  -30.5290  -12.2760   18.9970 C   0  0  0  0  0  2  0  0  0  0  0  0
  -29.5500  -12.4350   17.8150 C   0  0  0  0  0  2  0  0  0  0  0  0
  -28.0850  -12.3270   18.2880 C   0  0  0  0  0  2  0  0  0  0  0  0
  -27.7900  -13.2000   19.5380 C   0  0  0  0  0  3  0  0  0  0  0  0
  -28.8810  -13.0170   20.6180 C   0  0  0  0  0  2  0  0  0  0  0  0
  -30.1880  -13.2980   19.9990 N   0  0  0  0  0  0  0  0  0  0  0  0
  -31.9830  -14.6270   19.5460 O   0  0  0  0  0  0  0  0  0  0  0  0
  -30.2080  -15.5210   20.5990 N   0  0  0  0  0  0  0  0  0  0  0  0
  -29.3150  -15.3010   21.0110 H   0  0  0  0  0  0  0  0  0  0  0  0
  -25.4260  -13.8460   20.3260 C   0  0  0  0  0  0  0  0  0  0  0  0
  -24.3590  -13.0950   20.7410 C   0  0  0  0  0  0  0  0  0  0  0  0
  -24.7960  -11.7350   20.7040 C   0  0  0  0  0  0  0  0  0  0  0  0
  -26.4480  -12.9450   20.0670 N   0  0  0  0  0  0  0  0  0  0  0  0
  -26.0740  -11.6710   20.3500 N   0  0  0  0  0  0  0  0  0  0  0  0
  -24.0520  -10.4870   20.9270 C   0  0  0  0  0  0  0  0  0  0  0  0
  -24.4880   -9.5250   21.8640 C   0  0  0  0  0  3  0  0  0  0  0  0
  -23.7460   -8.3420   22.0750 C   0  0  0  0  0  3  0  0  0  0  0  0
  -22.5550   -8.1140   21.3460 C   0  0  0  0  0  0  0  0  0  0  0  0
  -22.1360   -9.0640   20.3980 C   0  0  0  0  0  3  0  0  0  0  0  0
  -22.8790  -10.2380   20.1880 C   0  0  0  0  0  3  0  0  0  0  0  0
  -21.7830   -6.9850   21.4660 O   0  0  0  0  0  0  0  0  0  0  0  0
  -21.7350   -6.2660   22.6330 C   0  0  0  0  0  0  0  0  0  0  0  0
  -21.3290   -6.8480   23.8540 C   0  0  0  0  0  3  0  0  0  0  0  0
  -21.2310   -6.0560   25.0150 C   0  0  0  0  0  3  0  0  0  0  0  0
  -21.5280   -4.6810   24.9560 C   0  0  0  0  0  0  0  0  0  0  0  0
  -21.9250   -4.0970   23.7410 C   0  0  0  0  0  3  0  0  0  0  0  0
  -22.0270   -4.8880   22.5840 C   0  0  0  0  0  0  0  0  0  0  0  0
  -22.3910   -4.3160   21.4090 F   0  0  0  0  0  0  0  0  0  0  0  0
  -21.4240   -3.9180   26.0690 F   0  0  0  0  0  0  0  0  0  0  0  0
  -22.9820  -13.6020   21.0570 C   0  0  0  0  0  0  0  0  0  0  0  0
  -22.2720  -12.9280   21.9560 N   0  0  0  0  0  0  0  0  0  0  0  0
  -22.5440  -14.6290   20.5420 O   0  0  0  0  0  0  0  0  0  0  0  0
  -22.6340  -12.0920   22.3890 H   0  0  0  0  0  0  0  0  0  0  0  0
  -21.3480  -13.2510   22.2080 H   0  0  0  0  0  0  0  0  0  0  0  0
  -25.6050  -15.2110   20.1240 N   0  0  0  0  0  0  0  0  0  0  0  0
  -24.8740  -15.8910   20.2920 H   0  0  0  0  0  0  0  0  0  0  0  0
  -26.4400  -15.6220   19.7230 H   0  0  0  0  0  0  0  0  0  0  0  0
  -31.1140  -22.5320   19.4250 C   0  0  0  0  0  1  0  0  0  0  0  0
  -29.8030  -22.9340   20.1330 C   0  0  0  0  0  3  0  0  0  0  0  0
  -29.4880  -24.4350   19.7600 C   0  0  0  0  0  2  0  0  0  0  0  0
  -28.3540  -25.2130   20.4960 C   0  0  0  0  0  2  0  0  0  0  0  0
  -28.4250  -26.6430   20.2220 O   0  0  0  0  0  0  0  0  0  0  0  0
  -24.6050  -31.8900   23.2560 C   0  0  0  0  0  0  0  0  0  0  0  0
  -27.2530  -27.3880   20.2240 C   0  0  0  0  0  0  0  0  0  0  0  0
  -23.4050  -30.4810   21.6190 C   0  0  0  0  0  3  0  0  0  0  0  0
  -24.8630  -28.9260   20.2130 C   0  0  0  0  0  0  0  0  0  0  0  0
  -25.9370  -30.8270   21.4300 C   0  0  0  0  0  2  0  0  0  0  0  0
  -26.0230  -29.4480   20.7980 C   0  0  0  0  0  0  0  0  0  0  0  0
  -27.2210  -28.6880   20.7920 C   0  0  0  0  0  3  0  0  0  0  0  0
  -26.0740  -26.8950   19.6240 C   0  0  0  0  0  3  0  0  0  0  0  0
  -24.8840  -27.6510   19.6230 C   0  0  0  0  0  3  0  0  0  0  0  0
  -23.6200  -29.7900   20.2460 C   0  0  0  0  0  2  0  0  0  0  0  0
  -24.6680  -31.0820   22.1600 N   0  0  0  0  0  0  0  0  0  0  0  0
  -23.5210  -32.1660   23.7890 O   0  0  0  0  0  0  0  0  0  0  0  0
  -22.7470  -29.4670   22.5830 C   0  0  0  0  0  0  0  0  0  0  0  0
  -21.4230  -29.2870   22.4540 N   0  0  0  0  0  0  0  0  0  0  0  0
  -23.4270  -28.8430   23.4040 O   0  0  0  0  0  0  0  0  0  0  0  0
  -20.9360  -29.8420   21.7640 H   0  0  0  0  0  0  0  0  0  0  0  0
  -18.0430  -28.1070   22.9590 C   0  0  0  0  0  0  0  0  0  0  0  0
  -20.6020  -28.3540   23.2270 C   0  0  0  0  0  3  0  0  0  0  0  0
  -20.6980  -26.9220   22.6540 C   0  0  0  0  0  2  0  0  0  0  0  0
  -19.5930  -26.6010   21.6410 C   0  0  0  0  0  2  0  0  0  0  0  0
  -18.2130  -26.7540   22.2860 C   0  0  0  0  0  2  0  0  0  0  0  0
  -19.1670  -28.8640   23.3860 C   0  0  0  0  0  0  0  0  0  0  0  0
  -18.9530  -30.1290   23.9770 C   0  0  0  0  0  3  0  0  0  0  0  0
  -17.6510  -30.6370   24.1420 C   0  0  0  0  0  3  0  0  0  0  0  0
  -16.5430  -29.8780   23.7290 C   0  0  0  0  0  3  0  0  0  0  0  0
  -16.7400  -28.6140   23.1440 C   0  0  0  0  0  3  0  0  0  0  0  0
  -25.8880  -32.5240   23.8790 C   0  0  0  0  0  3  0  0  0  0  0  0
  -25.5790  -33.9240   24.1950 N   0  0  0  0  0  0  0  0  0  0  0  0
  -25.9210  -34.9710   23.4310 C   0  0  0  0  0  0  0  0  0  0  0  0
  -26.5970  -34.8580   22.4060 O   0  0  0  0  0  0  0  0  0  0  0  0
  -24.9800  -34.0870   24.9910 H   0  0  0  0  0  0  0  0  0  0  0  0
  -24.1970  -36.7610   23.0490 C   0  0  0  0  0  1  0  0  0  0  0  0
  -25.4300  -36.3630   23.8740 C   0  0  0  0  0  3  0  0  0  0  0  0
  -27.5580  -37.2490   24.7170 C   0  0  0  0  0  1  0  0  0  0  0  0
  -26.4650  -37.4140   23.7630 N   0  0  0  0  0  0  0  0  0  0  0  0
  -26.0590  -38.3350   23.9020 H   0  0  0  0  0  0  0  0  0  0  0  0
  -26.3990  -31.7630   25.1630 C   0  0  1  0  0  0  0  0  0  0  0  0
  -25.3000  -31.5350   26.2270 C   0  0  0  0  0  1  0  0  0  0  0  0
  -26.9840  -30.3820   24.7830 C   0  0  0  0  0  1  0  0  0  0  0  0
  -27.5450  -32.5640   25.8240 C   0  0  0  0  0  1  0  0  0  0  0  0
  1 47  1  0
  3  2  1  0
  3  1  1  0
  3  4  1  0
  6  4  1  0
  6  7  1  0
  6  5  1  0
  7 16  1  0
  8 16  1  0
  9 14  1  0
 10 11  1  0
 10  9  1  0
 12 11  1  0
 12 21  1  0
 12 13  1  0
 14  8  1  0
 14 13  1  0
 15  8  2  0
 16 17  1  0
 18 19  2  0
 19 38  1  0
 20 19  1  0
 20 23  1  0
 21 18  1  0
 21 22  1  0
 22 20  2  0
 23 24  1  0
 24 25  2  0
 26 29  1  0
 26 25  1  0
 27 26  2  0
 28 27  1  0
 28 23  2  0
 29 30  1  0
 30 31  1  0
 31 32  2  0
 33 32  1  0
 33 37  1  0
 34 33  2  0
 35 30  2  0
 35 34  1  0
 36 35  1  0
 38 39  1  0
 39 42  1  0
 39 41  1  0
 40 38  2  0
 43 44  1  0
 43 18  1  0
 45 43  1  0
 47 46  1  0
 48 47  1  0
 48 49  1  0
 50 52  1  0
 50 49  1  0
 51 62  2  0
 52 57  1  0
 53 61  1  0
 53 63  1  0
 54 60  1  0
 54 56  1  0
 55 61  1  0
 56 55  1  0
 57 56  2  0
 58 52  2  0
 59 58  1  0
 59 54  2  0
 60 53  1  0
 61 51  1  0
 63 65  2  0
 64 63  1  0
 66 64  1  0
 67 76  2  0
 67 72  1  0
 68 64  1  0
 68 72  1  0
 69 68  1  0
 70 71  1  0
 70 69  1  0
 71 67  1  0
 72 73  2  0
 73 74  1  0
 75 74  2  0
 76 75  1  0
 77 51  1  0
 77 78  1  0
 77 87  1  0
 78 81  1  0
 79 83  1  0
 79 78  1  0
 80 79  2  0
 83 82  1  0
 85 83  1  0
 85 86  1  0
 85 84  1  0
 87 90  1  1
 87 88  1  0
 89 87  1  0
M  ISO  4   8 100  16 100  49 101  50 101
M  END
>  <TORSDO>  (63) 
F 23

>  <SCORE>  (63) 
-12.543

>  <name>  (63) 
64

>  <ligand_id>  (63) 
64

>  <original_smiles>  (63) 
[H]c1c([H])c([H])c2c(c1[H])C([H])([H])C([H])([H])C([H])([H])C2([H])N([H])C(=O)C1([H])N(C(=O)C([H])(N([H])C(=O)C([H])(N([H])C([H])([H])[H])C([H])([H])[H])C(C([H])([H])[H])(C([H])([H])[H])C([H])([H])[H])C([H])([H])c2c([H])c(OC([H])([H])C([H])([H])C([H])(C([H])([H])[H])C([H])([H])C([H])(C([H])([H])[H])C([H])([H])C([H])(C([H])([H])[H])C([H])([H])N([H])C(=O)N3C([H])([H])C([H])([H])C([H])([H])C([H])(n4nc(-c5c([H])c([H])c(Oc6c([H])c([H])c(F)c([H])c6F)c([H])c5[H])c(C(=O)N([H])[H])c4N([H])[H])C3([H])[H])c([H])c([H])c2C1([H])[H]

>  <smiles>  (63) 
[H]c1c([H])c([H])c2c(c1[H])C([H])([H])C([H])([H])C([H])([H])C2([H])N([H])C(=O)C1([H])N(C(=O)C([H])(N([H])C(=O)C([H])(N([H])C([H])([H])[H])C([H])([H])[H])C(C([H])([H])[H])(C([H])([H])[H])C([H])([H])[H])C([H])([H])c2c([H])c(OC([H])([H])C([H])([H])C([H])(C([H])([H])[H])C([H])([H])C([H])(C([H])([H])[H])C([H])([H])C([H])(C([H])([H])[H])C([H])([H])N([H])C(=O)N3C([H])([H])C([H])([H])C([H])([H])C([H])(n4nc(-c5c([H])c([H])c(Oc6c([H])c([H])c(F)c([H])c6F)c([H])c5[H])c(C(=O)N([H])[H])c4N([H])[H])C3([H])[H])c([H])c([H])c2C1([H])[H]

$$$$
65:0:0
     RDKit          3D

 93 96  0  0  1  0  0  0  0  0999 V2000
  -27.4330  -14.8690   21.5710 C   0  0  0  0  0  3  0  0  0  0  0  0
  -27.4950  -12.9820   21.4980 C   0  0  0  0  0  0  0  0  0  0  0  0
  -27.7970  -12.2170   19.7790 C   0  0  0  0  0  2  0  0  0  0  0  0
  -27.5560  -16.0700   20.2170 C   0  0  0  0  0  2  0  0  0  0  0  0
  -27.9440  -13.6150   18.3500 C   0  0  0  0  0  2  0  0  0  0  0  0
  -27.7350  -15.2760   18.7690 N   0  0  0  0  0  2  0  0  0  0  0  0
  -27.8250  -10.3170   19.4620 Br  0  0  0  0  0  0  0  0  0  0  0  0
  -26.1660  -12.5300   23.6540 C   0  0  0  0  0  1  0  0  0  0  0  0
  -27.3380  -12.1260   22.7500 C   0  0  0  0  0  2  0  0  0  0  0  0
  -27.2260  -18.1670   20.2090 C   0  0  0  0  0 15  0  0  0  0  0  0
  -27.7810  -20.3270   20.0300 C   0  0  0  0  0 15  0  0  0  0  0  0
  -27.2750  -22.5130   20.0350 C   0  0  0  0  0 15  0  0  0  0  0  0
  -27.7170  -24.4740   20.0570 O   0  0  0  0  0  1  0  0  0  0  0  0
  -24.6290  -31.4730   22.9190 C   0  0  0  0  0  0  0  0  0  0  0  0
  -27.0210  -25.9940   20.0110 C   0  0  0  0  0  0  0  0  0  0  0  0
  -23.5210  -30.0660   21.2560 C   0  0  0  0  0  3  0  0  0  0  0  0
  -24.9880  -28.3940   19.8570 C   0  0  0  0  0  0  0  0  0  0  0  0
  -26.1110  -30.0880   21.2550 C   0  0  0  0  0  2  0  0  0  0  0  0
  -26.1600  -28.6160   20.5810 C   0  0  0  0  0  0  0  0  0  0  0  0
  -27.1670  -27.4500   20.6150 C   0  0  0  0  0  3  0  0  0  0  0  0
  -25.8870  -26.1410   19.1740 C   0  0  0  0  0  3  0  0  0  0  0  0
  -24.9290  -27.2040   19.1170 C   0  0  0  0  0  3  0  0  0  0  0  0
  -23.8150  -29.3990   19.8800 C   0  0  0  0  0  2  0  0  0  0  0  0
  -24.7850  -30.5930   21.8590 N   0  0  0  0  0  0  0  0  0  0  0  0
  -23.5090  -31.7600   23.3830 O   0  0  0  0  0  0  0  0  0  0  0  0
  -22.7880  -29.0730   22.2000 C   0  0  0  0  0  0  0  0  0  0  0  0
  -21.4490  -28.9500   22.0970 N   0  0  0  0  0  0  0  0  0  0  0  0
  -23.4400  -28.4110   23.0120 O   0  0  0  0  0  0  0  0  0  0  0  0
  -20.9660  -29.5350   21.4300 H   0  0  0  0  0  0  0  0  0  0  0  0
  -18.0500  -27.7950   22.6880 C   0  0  0  0  0  0  0  0  0  0  0  0
  -20.6250  -27.9950   22.8520 C   0  0  0  0  0  3  0  0  0  0  0  0
  -20.6650  -26.5930   22.2000 C   0  0  0  0  0  2  0  0  0  0  0  0
  -19.5170  -26.3550   21.2130 C   0  0  0  0  0  2  0  0  0  0  0  0
  -18.1660  -26.4890   21.9210 C   0  0  0  0  0  2  0  0  0  0  0  0
  -19.2030  -28.5110   23.1100 C   0  0  0  0  0  0  0  0  0  0  0  0
  -19.0340  -29.7320   23.7970 C   0  0  0  0  0  3  0  0  0  0  0  0
  -17.7480  -30.2410   24.0600 C   0  0  0  0  0  3  0  0  0  0  0  0
  -16.6100  -29.5240   23.6470 C   0  0  0  0  0  3  0  0  0  0  0  0
  -16.7630  -28.3020   22.9680 C   0  0  0  0  0  3  0  0  0  0  0  0
  -25.8390  -32.1770   23.6040 C   0  0  0  0  0  3  0  0  0  0  0  0
  -25.4250  -33.5420   24.0080 N   0  0  0  0  0  0  0  0  0  0  0  0
  -25.7150  -34.6750   23.3560 C   0  0  0  0  0  0  0  0  0  0  0  0
  -26.4110  -34.6900   22.3370 O   0  0  0  0  0  0  0  0  0  0  0  0
  -24.8010  -33.5990   24.8000 H   0  0  0  0  0  0  0  0  0  0  0  0
  -23.8940  -36.4110   23.1300 C   0  0  0  0  0  1  0  0  0  0  0  0
  -25.1540  -36.0040   23.9130 C   0  0  0  0  0  3  0  0  0  0  0  0
  -27.2320  -36.9530   24.8240 C   0  0  0  0  0  1  0  0  0  0  0  0
  -26.1260  -37.1210   23.8850 N   0  0  0  0  0  0  0  0  0  0  0  0
  -25.6670  -38.0040   24.0910 H   0  0  0  0  0  0  0  0  0  0  0  0
  -26.3640  -31.4000   24.8760 C   0  0  1  0  0  0  0  0  0  0  0  0
  -25.2610  -31.0770   25.9130 C   0  0  0  0  0  1  0  0  0  0  0  0
  -27.0270  -30.0630   24.4850 C   0  0  0  0  0  1  0  0  0  0  0  0
  -27.4580  -32.2330   25.5850 C   0  0  0  0  0  1  0  0  0  0  0  0
  -29.2250  -14.0670   17.4350 C   0  0  0  0  0  2  0  0  0  0  0  0
  -30.5320  -14.9830   18.0650 C   0  0  0  0  0  2  0  0  0  0  0  0
  -31.8450  -14.4720   20.5860 C   0  0  0  0  0  0  0  0  0  0  0  0
  -31.7500  -12.1160   20.6000 C   0  0  0  0  0  2  0  0  0  0  0  0
  -31.2620  -12.0290   19.1770 C   0  0  0  0  0  2  0  0  0  0  0  0
  -29.8990  -12.4740   19.3650 C   0  0  0  0  0  2  0  0  0  0  0  0
  -29.1190  -13.9560   20.2910 C   0  0  0  0  0  2  0  0  0  0  0  0
  -29.9240  -13.4680   21.5840 C   0  0  0  0  0  2  0  0  0  0  0  0
  -31.2710  -13.3940   21.1320 N   0  0  0  0  0  0  0  0  0  0  0  0
  -32.8240  -14.8900   21.1590 O   0  0  0  0  0  0  0  0  0  0  0  0
  -31.6190  -14.8190   19.2250 N   0  0  0  0  0  0  0  0  0  0  0  0
  -32.4220  -15.3720   18.9610 H   0  0  0  0  0  0  0  0  0  0  0  0
  -25.2060  -14.6850   20.5620 C   0  0  0  0  0  3  0  0  0  0  0  0
  -24.2920  -13.7030   20.9020 C   0  0  1  0  0  0  0  0  0  0  0  0
  -24.7750  -12.3960   20.6920 C   0  0  0  0  0  3  0  0  0  0  0  0
  -26.2490  -14.1420   19.9850 N   0  0  0  0  0  2  0  0  0  0  0  0
  -25.3590  -12.9490   19.6440 N   0  0  0  0  0  0  0  0  0  0  0  0
  -24.1500  -10.9850   20.7650 C   0  0  0  0  0  0  0  0  0  0  0  0
  -24.4710   -9.9800   21.7390 C   0  0  0  0  0  3  0  0  0  0  0  0
  -23.7160   -8.7740   21.8810 C   0  0  0  0  0  3  0  0  0  0  0  0
  -22.5910   -8.5320   21.0560 C   0  0  0  0  0  0  0  0  0  0  0  0
  -22.3060   -9.4840   20.0590 C   0  0  0  0  0  3  0  0  0  0  0  0
  -23.0700  -10.6650   19.9120 C   0  0  0  0  0  3  0  0  0  0  0  0
  -21.7750   -7.4140   21.1030 O   0  0  0  0  0  0  0  0  0  0  0  0
  -21.6140   -6.6310   22.2270 C   0  0  0  0  0  0  0  0  0  0  0  0
  -21.2190   -7.1700   23.4710 C   0  0  0  0  0  3  0  0  0  0  0  0
  -21.0030   -6.3190   24.5760 C   0  0  0  0  0  3  0  0  0  0  0  0
  -21.1700   -4.9290   24.4430 C   0  0  0  0  0  0  0  0  0  0  0  0
  -21.5430   -4.3850   23.2020 C   0  0  0  0  0  3  0  0  0  0  0  0
  -21.7550   -5.2310   22.0980 C   0  0  0  0  0  0  0  0  0  0  0  0
  -22.0860   -4.6890   20.9010 F   0  0  0  0  0  0  0  0  0  0  0  0
  -20.9710   -4.1120   25.5060 F   0  0  0  0  0  0  0  0  0  0  0  0
  -22.8830  -14.0110   20.7540 C   0  0  0  0  0  0  0  0  0  0  0  0
  -22.0470  -13.2970   21.4770 N   0  0  0  0  0  0  0  0  0  0  0  0
  -22.5520  -14.8930   19.9650 O   0  0  0  0  0  0  0  0  0  0  0  0
  -22.3810  -12.5830   22.1080 H   0  0  0  0  0  0  0  0  0  0  0  0
  -21.0530  -13.4680   21.4120 H   0  0  0  0  0  0  0  0  0  0  0  0
  -25.1680  -16.0320   20.3980 N   0  0  0  0  0  0  0  0  0  0  0  0
  -24.2210  -16.3700   20.2710 H   0  0  0  0  0  0  0  0  0  0  0  0
  -25.7610  -16.2830   19.6150 H   0  0  0  0  0  0  0  0  0  0  0  0
  2  1  2  0
  2  9  1  0
  3  2  1  0
  4  1  1  0
  5  6  1  0
  6  4  1  0
  7  3  1  0
  9  8  1  0
 14 25  2  0
 15 13  1  0
 15 20  1  0
 16 24  1  0
 16 26  1  0
 17 23  1  0
 17 19  1  0
 18 24  1  0
 19 20  2  0
 19 18  1  0
 21 15  2  0
 22 21  1  0
 22 17  2  0
 23 16  1  0
 24 14  1  0
 26 28  2  0
 27 26  1  0
 29 27  1  0
 30 39  2  0
 30 35  1  0
 31 27  1  0
 31 35  1  0
 32 31  1  0
 33 34  1  0
 33 32  1  0
 34 30  1  0
 35 36  2  0
 36 37  1  0
 38 37  2  0
 39 38  1  0
 40 14  1  0
 40 41  1  0
 40 50  1  0
 41 44  1  0
 42 46  1  0
 42 41  1  0
 43 42  2  0
 46 45  1  0
 48 46  1  0
 48 49  1  0
 48 47  1  0
 50 53  1  1
 50 51  1  0
 52 50  1  0
 54 55  1  0
 54  5  1  0
 55 64  1  0
 56 62  1  0
 56 63  2  0
 57 62  1  0
 58 59  1  0
 58 57  1  0
 59 60  1  0
 60 61  1  0
 62 61  1  0
 64 56  1  0
 65 64  1  0
 66 91  1  0
 66 67  1  0
 67 86  1  1
 68 71  1  0
 68 67  1  0
 69 66  1  0
 70 69  1  0
 70 68  1  0
 70 67  1  0
 71 72  1  0
 72 73  2  0
 74 77  1  0
 74 73  1  0
 75 74  2  0
 76 75  1  0
 76 71  2  0
 77 78  1  0
 78 79  1  0
 79 80  2  0
 81 80  1  0
 81 85  1  0
 82 81  2  0
 83 78  2  0
 83 82  1  0
 84 83  1  0
 86 87  1  0
 87 89  1  0
 88 86  2  0
 90 87  1  0
 92 91  1  0
 93 91  1  0
M  ISO  4  12 101  13 101  56 100  64 100
M  END
>  <TORSDO>  (64) 
F 22

>  <SCORE>  (64) 
-3.354

>  <name>  (64) 
65

>  <ligand_id>  (64) 
65

>  <original_smiles>  (64) 
[H]c1c([H])c([H])c2c(c1[H])C([H])([H])C([H])([H])C([H])([H])C2([H])N([H])C(=O)C1([H])N(C(=O)C([H])(N([H])C(=O)C([H])(N([H])C([H])([H])[H])C([H])([H])[H])C(C([H])([H])[H])(C([H])([H])[H])C([H])([H])[H])C([H])([H])c2c([H])c(OC([H])([H])C([H])([H])C([H])([H])c3nc(C([H])([H])C([H])([H])N([H])C(=O)N4C([H])([H])C([H])([H])C([H])([H])C([H])(n5nc(-c6c([H])c([H])c(Oc7c([H])c([H])c(F)c([H])c7F)c([H])c6[H])c(C(=O)N([H])[H])c5N([H])[H])C4([H])[H])c(Br)c(C([H])([H])C([H])([H])[H])c3[H])c([H])c([H])c2C1([H])[H]

>  <smiles>  (64) 
[H]c1c([H])c([H])c2c(c1[H])C([H])([H])C([H])([H])C([H])([H])C2([H])N([H])C(=O)C1([H])N(C(=O)C([H])(N([H])C(=O)C([H])(N([H])C([H])([H])[H])C([H])([H])[H])C(C([H])([H])[H])(C([H])([H])[H])C([H])([H])[H])C([H])([H])c2c([H])c(OC([H])([H])C([H])([H])C([H])([H])c3nc(C([H])([H])C([H])([H])N([H])C(=O)N4C([H])([H])C([H])([H])C([H])([H])C([H])(n5nc(-c6c([H])c([H])c(Oc7c([H])c([H])c(F)c([H])c7F)c([H])c6[H])c(C(=O)N([H])[H])c5N([H])[H])C4([H])[H])c(Br)c(C([H])([H])C([H])([H])[H])c3[H])c([H])c([H])c2C1([H])[H]

$$$$
66:0:0
     RDKit          3D

 97105  0  0  1  0  0  0  0  0999 V2000
  -30.6150  -22.8450   21.0720 C   0  0  0  0  0  3  0  0  0  0  0  0
  -29.5620  -22.0600   20.5660 C   0  0  0  0  0  0  0  0  0  0  0  0
  -29.9500  -20.6320   20.1860 C   0  0  0  0  0  0  0  0  0  0  0  0
  -31.3140  -20.5590   19.7610 C   0  0  0  0  0  0  0  0  0  0  0  0
  -32.2710  -21.4600   20.2980 C   0  0  0  0  0  0  0  0  0  0  0  0
  -31.9070  -22.5070   21.0540 N   0  0  0  0  0  0  0  0  0  0  0  0
  -31.9540  -20.3100   17.3060 C   0  0  0  0  0  1  0  0  0  0  0  0
  -31.7360  -19.5880   18.6440 C   0  0  0  0  0  2  0  0  0  0  0  0
  -28.2510  -23.0230   20.3580 C   0  0  0  0  0  2  0  0  0  0  0  0
  -28.0020  -24.6230   20.9410 C   0  0  0  0  0  2  0  0  0  0  0  0
  -28.2930  -26.0830   20.4420 O   0  0  0  0  0  0  0  0  0  0  0  0
  -24.6020  -31.8780   23.2330 C   0  0  0  0  0  0  0  0  0  0  0  0
  -27.2500  -27.0870   20.3730 C   0  0  0  0  0  0  0  0  0  0  0  0
  -23.4440  -30.4460   21.5960 C   0  0  0  0  0  3  0  0  0  0  0  0
  -24.9290  -28.8440   20.2370 C   0  0  0  0  0  0  0  0  0  0  0  0
  -26.0020  -30.7080   21.4880 C   0  0  0  0  0  2  0  0  0  0  0  0
  -26.0940  -29.3000   20.8680 C   0  0  0  0  0  0  0  0  0  0  0  0
  -27.2580  -28.4390   20.9160 C   0  0  0  0  0  3  0  0  0  0  0  0
  -26.0630  -26.7420   19.6910 C   0  0  0  0  0  3  0  0  0  0  0  0
  -24.9300  -27.5790   19.6290 C   0  0  0  0  0  3  0  0  0  0  0  0
  -23.7010  -29.7440   20.2360 C   0  0  0  0  0  2  0  0  0  0  0  0
  -24.7010  -31.0340   22.1610 N   0  0  0  0  0  0  0  0  0  0  0  0
  -23.5030  -32.1740   23.7280 O   0  0  0  0  0  0  0  0  0  0  0  0
  -22.7420  -29.4580   22.5610 C   0  0  0  0  0  0  0  0  0  0  0  0
  -21.4210  -29.2710   22.3940 N   0  0  0  0  0  0  0  0  0  0  0  0
  -23.3890  -28.8630   23.4260 O   0  0  0  0  0  0  0  0  0  0  0  0
  -20.9550  -29.8050   21.6730 H   0  0  0  0  0  0  0  0  0  0  0  0
  -18.0390  -28.0350   22.8020 C   0  0  0  0  0  0  0  0  0  0  0  0
  -20.5810  -28.3470   23.1610 C   0  0  0  0  0  3  0  0  0  0  0  0
  -20.7270  -26.8970   22.6390 C   0  0  0  0  0  2  0  0  0  0  0  0
  -19.6700  -26.5260   21.5930 C   0  0  0  0  0  2  0  0  0  0  0  0
  -18.2620  -26.6690   22.1770 C   0  0  0  0  0  2  0  0  0  0  0  0
  -19.1280  -28.8300   23.2500 C   0  0  0  0  0  0  0  0  0  0  0  0
  -18.8660  -30.1060   23.7940 C   0  0  0  0  0  3  0  0  0  0  0  0
  -17.5480  -30.5890   23.8950 C   0  0  0  0  0  3  0  0  0  0  0  0
  -16.4730  -29.7920   23.4640 C   0  0  0  0  0  3  0  0  0  0  0  0
  -16.7190  -28.5180   22.9230 C   0  0  0  0  0  3  0  0  0  0  0  0
  -25.8630  -32.5290   23.8780 C   0  0  0  0  0  3  0  0  0  0  0  0
  -25.5380  -33.9300   24.1860 N   0  0  0  0  0  0  0  0  0  0  0  0
  -25.8800  -34.9800   23.4260 C   0  0  0  0  0  0  0  0  0  0  0  0
  -26.5700  -34.8700   22.4100 O   0  0  0  0  0  0  0  0  0  0  0  0
  -24.9230  -34.0870   24.9690 H   0  0  0  0  0  0  0  0  0  0  0  0
  -24.1570  -36.7720   23.0240 C   0  0  0  0  0  1  0  0  0  0  0  0
  -25.3800  -36.3720   23.8640 C   0  0  0  0  0  3  0  0  0  0  0  0
  -27.4930  -37.2720   24.7390 C   0  0  0  0  0  1  0  0  0  0  0  0
  -26.4130  -37.4260   23.7670 N   0  0  0  0  0  0  0  0  0  0  0  0
  -26.0020  -38.3470   23.8960 H   0  0  0  0  0  0  0  0  0  0  0  0
  -26.3490  -31.7800   25.1810 C   0  0  1  0  0  0  0  0  0  0  0  0
  -25.2300  -31.5500   26.2230 C   0  0  0  0  0  1  0  0  0  0  0  0
  -26.9530  -30.4000   24.8300 C   0  0  0  0  0  1  0  0  0  0  0  0
  -27.4760  -32.5920   25.8630 C   0  0  0  0  0  1  0  0  0  0  0  0
  -29.2090  -19.1390   20.1700 C   0  0  0  0  0  3  0  0  0  0  0  0
  -30.0220  -17.6880   20.6460 C   0  0  0  0  0  3  0  0  0  0  0  0
  -30.3890  -14.9600   20.2530 C   0  0  0  0  0  0  0  0  0  0  0  0
  -30.2680  -12.6220   19.2570 C   0  0  0  0  0  2  0  0  0  0  0  0
  -29.3080  -12.5780   18.0470 C   0  0  0  0  0  2  0  0  0  0  0  0
  -27.8610  -12.3310   18.5120 C   0  0  0  0  0  2  0  0  0  0  0  0
  -27.4660  -13.2350   19.7080 C   0  0  0  0  0  3  0  0  0  0  0  0
  -28.5440  -13.2560   20.8110 C   0  0  0  0  0  2  0  0  0  0  0  0
  -29.7900  -13.7000   20.1740 N   0  0  0  0  0  0  0  0  0  0  0  0
  -31.5940  -15.0160   19.9920 O   0  0  0  0  0  0  0  0  0  0  0  0
  -29.6220  -16.1580   20.4280 N   0  0  0  0  0  0  0  0  0  0  0  0
  -28.6350  -15.9770   20.5330 H   0  0  0  0  0  0  0  0  0  0  0  0
  -25.0920  -13.7700   20.4930 C   0  0  0  0  0  0  0  0  0  0  0  0
  -24.0460  -12.9770   20.8750 C   0  0  0  0  0  0  0  0  0  0  0  0
  -24.5310  -11.6340   20.8280 C   0  0  0  0  0  0  0  0  0  0  0  0
  -26.1440  -12.9110   20.2290 N   0  0  0  0  0  0  0  0  0  0  0  0
  -25.8190  -11.6200   20.4990 N   0  0  0  0  0  0  0  0  0  0  0  0
  -23.8270  -10.3600   21.0220 C   0  0  0  0  0  0  0  0  0  0  0  0
  -24.2600   -9.4110   21.9740 C   0  0  0  0  0  3  0  0  0  0  0  0
  -23.5520   -8.2020   22.1540 C   0  0  0  0  0  3  0  0  0  0  0  0
  -22.3960   -7.9350   21.3810 C   0  0  0  0  0  0  0  0  0  0  0  0
  -21.9840   -8.8730   20.4190 C   0  0  0  0  0  3  0  0  0  0  0  0
  -22.6930  -10.0720   20.2370 C   0  0  0  0  0  3  0  0  0  0  0  0
  -21.6610   -6.7780   21.4710 O   0  0  0  0  0  0  0  0  0  0  0  0
  -21.5930   -6.0550   22.6340 C   0  0  0  0  0  0  0  0  0  0  0  0
  -21.0940   -6.6160   23.8310 C   0  0  0  0  0  3  0  0  0  0  0  0
  -20.9770   -5.8180   24.9870 C   0  0  0  0  0  3  0  0  0  0  0  0
  -21.3470   -4.4610   24.9480 C   0  0  0  0  0  0  0  0  0  0  0  0
  -21.8390   -3.8990   23.7560 C   0  0  0  0  0  3  0  0  0  0  0  0
  -21.9600   -4.6950   22.6020 C   0  0  0  0  0  0  0  0  0  0  0  0
  -22.4130   -4.1430   21.4500 F   0  0  0  0  0  0  0  0  0  0  0  0
  -21.2270   -3.6910   26.0550 F   0  0  0  0  0  0  0  0  0  0  0  0
  -22.6460  -13.4310   21.1660 C   0  0  0  0  0  0  0  0  0  0  0  0
  -21.9380  -12.7180   22.0350 N   0  0  0  0  0  0  0  0  0  0  0  0
  -22.1890  -14.4550   20.6600 O   0  0  0  0  0  0  0  0  0  0  0  0
  -22.3210  -11.8890   22.4650 H   0  0  0  0  0  0  0  0  0  0  0  0
  -21.0000  -13.0050   22.2720 H   0  0  0  0  0  0  0  0  0  0  0  0
  -25.2280  -15.1440   20.3190 N   0  0  0  0  0  0  0  0  0  0  0  0
  -24.4450  -15.7790   20.4390 H   0  0  0  0  0  0  0  0  0  0  0  0
  -26.0510  -15.6020   19.9510 H   0  0  0  0  0  0  0  0  0  0  0  0
  -33.7970  -21.2770   20.1470 C   0  0  0  0  0  3  0  0  0  0  0  0
  -34.5730  -20.9090   22.6110 C   0  0  0  0  0  1  0  0  0  0  0  0
  -35.6610  -19.6020   20.7350 C   0  0  0  0  0  1  0  0  0  0  0  0
  -34.3700  -20.2960   21.2130 C   0  0  0  0  0  3  0  0  0  0  0  0
  -34.2350  -23.4360   18.7700 C   0  0  0  0  0  1  0  0  0  0  0  0
  -34.5810  -22.6120   20.0210 C   0  0  0  0  0  2  0  0  0  0  0  0
  2  1  2  0
  3  2  1  0
  4  3  2  0
  4  5  1  0
  5  6  2  0
  6  1  1  0
  7  8  1  0
  8  4  1  0
  9  2  1  0
  9 10  1  0
 11 10  1  0
 12 23  2  0
 13 11  1  0
 13 18  1  0
 14 22  1  0
 14 24  1  0
 15 17  1  0
 16 22  1  0
 17 18  2  0
 17 16  1  0
 19 13  2  0
 20 19  1  0
 20 15  2  0
 21 15  1  0
 21 14  1  0
 22 12  1  0
 24 26  2  0
 25 24  1  0
 27 25  1  0
 28 37  2  0
 28 33  1  0
 29 25  1  0
 29 33  1  0
 30 29  1  0
 31 32  1  0
 31 30  1  0
 32 28  1  0
 33 34  2  0
 34 35  1  0
 36 35  2  0
 37 36  1  0
 38 12  1  0
 38 39  1  0
 38 48  1  0
 39 42  1  0
 40 44  1  0
 40 39  1  0
 41 40  2  0
 44 43  1  0
 46 44  1  0
 46 47  1  0
 46 45  1  0
 48 51  1  1
 48 49  1  0
 50 48  1  0
 52  3  1  0
 52 53  2  0
 54 62  1  0
 55 60  1  0
 56 57  1  0
 56 55  1  0
 58 57  1  0
 58 67  1  0
 58 59  1  0
 60 54  1  0
 60 59  1  0
 61 54  2  0
 62 63  1  0
 62 53  1  0
 64 65  2  0
 65 84  1  0
 66 65  1  0
 66 69  1  0
 67 64  1  0
 67 68  1  0
 68 66  2  0
 69 70  1  0
 70 71  2  0
 72 75  1  0
 72 71  1  0
 73 72  2  0
 74 73  1  0
 74 69  2  0
 75 76  1  0
 76 77  1  0
 77 78  2  0
 79 78  1  0
 79 83  1  0
 80 79  2  0
 81 76  2  0
 81 80  1  0
 82 81  1  0
 84 85  1  0
 85 88  1  0
 85 87  1  0
 86 84  2  0
 89 90  1  0
 89 64  1  0
 91 89  1  0
 92 97  1  0
 92  5  1  0
 92 95  1  0
 94 95  1  0
 95 93  1  0
 96 97  1  0
M  ISO  4  10 101  11 101  54 100  62 100
M  END
>  <TORSDO>  (65) 
F 24

>  <SCORE>  (65) 
-14.008

>  <name>  (65) 
66

>  <ligand_id>  (65) 
66

>  <original_smiles>  (65) 
[H]c1nc(C([H])(C([H])([H])C([H])([H])[H])C([H])(C([H])([H])[H])C([H])([H])[H])c(C([H])([H])C([H])([H])[H])c(C([H])([H])C([H])([H])N([H])C(=O)N2C([H])([H])C([H])([H])C([H])([H])C([H])(n3nc(-c4c([H])c([H])c(Oc5c([H])c([H])c(F)c([H])c5F)c([H])c4[H])c(C(=O)N([H])[H])c3N([H])[H])C2([H])[H])c1C([H])([H])C([H])([H])Oc1c([H])c([H])c2c(c1[H])C([H])([H])N(C(=O)C([H])(N([H])C(=O)C([H])(N([H])C([H])([H])[H])C([H])([H])[H])C(C([H])([H])[H])(C([H])([H])[H])C([H])([H])[H])C([H])(C(=O)N([H])C1([H])c3c([H])c([H])c([H])c([H])c3C([H])([H])C([H])([H])C1([H])[H])C2([H])[H]

>  <smiles>  (65) 
[H]c1nc(C([H])(C([H])([H])C([H])([H])[H])C([H])(C([H])([H])[H])C([H])([H])[H])c(C([H])([H])C([H])([H])[H])c(C([H])([H])C([H])([H])N([H])C(=O)N2C([H])([H])C([H])([H])C([H])([H])C([H])(n3nc(-c4c([H])c([H])c(Oc5c([H])c([H])c(F)c([H])c5F)c([H])c4[H])c(C(=O)N([H])[H])c3N([H])[H])C2([H])[H])c1C([H])([H])C([H])([H])Oc1c([H])c([H])c2c(c1[H])C([H])([H])N(C(=O)C([H])(N([H])C(=O)C([H])(N([H])C([H])([H])[H])C([H])([H])[H])C(C([H])([H])[H])(C([H])([H])[H])C([H])([H])[H])C([H])(C(=O)N([H])C1([H])c3c([H])c([H])c([H])c([H])c3C([H])([H])C([H])([H])C1([H])[H])C2([H])[H]

$$$$
67:0:0
     RDKit          3D

 90 98  0  0  1  0  0  0  0  0999 V2000
  -30.1340  -20.4370   19.6380 C   0  0  0  0  0  3  0  0  0  0  0  0
  -29.4600  -19.0850   20.0460 C   0  0  0  0  0  3  0  0  0  0  0  0
  -30.2930  -17.7680   19.8960 C   0  0  0  0  0  0  0  0  0  0  0  0
  -31.3530  -17.7730   19.2670 O   0  0  0  0  0  0  0  0  0  0  0  0
  -30.9120  -14.4450   19.5460 C   0  0  0  0  0  0  0  0  0  0  0  0
  -30.4510  -12.2830   18.3810 C   0  0  0  0  0  2  0  0  0  0  0  0
  -29.3350  -12.4450   17.3280 C   0  0  0  0  0  2  0  0  0  0  0  0
  -27.9550  -12.2490   17.9820 C   0  0  0  0  0  2  0  0  0  0  0  0
  -27.7930  -13.1140   19.2590 C   0  0  0  0  0  3  0  0  0  0  0  0
  -28.9970  -12.9380   20.2030 C   0  0  0  0  0  2  0  0  0  0  0  0
  -30.2280  -13.2630   19.4630 N   0  0  0  0  0  0  0  0  0  0  0  0
  -31.8060  -14.7390   18.7450 O   0  0  0  0  0  0  0  0  0  0  0  0
  -30.6270  -16.0700   22.8700 C   0  0  0  0  0  2  0  0  0  0  0  0
  -29.4990  -16.7690   22.1140 C   0  0  0  0  0  2  0  0  0  0  0  0
  -31.1320  -14.9720   21.9320 C   0  0  0  0  0  2  0  0  0  0  0  0
  -29.7340  -16.4850   20.6040 C   0  0  0  0  0  3  0  0  0  0  0  0
  -30.5880  -15.2540   20.5940 N   0  0  0  0  0  0  0  0  0  0  0  0
  -25.5910  -13.7070   20.4490 C   0  0  0  0  0  0  0  0  0  0  0  0
  -24.5880  -12.9230   20.9610 C   0  0  0  0  0  0  0  0  0  0  0  0
  -24.9950  -11.5720   20.7480 C   0  0  0  0  0  0  0  0  0  0  0  0
  -26.5420  -12.8280   19.9550 N   0  0  0  0  0  0  0  0  0  0  0  0
  -26.1980  -11.5350   20.1880 N   0  0  0  0  0  0  0  0  0  0  0  0
  -24.2820  -10.3110   20.9790 C   0  0  0  0  0  0  0  0  0  0  0  0
  -24.7380   -9.3680   21.9270 C   0  0  0  0  0  3  0  0  0  0  0  0
  -24.0200   -8.1730   22.1480 C   0  0  0  0  0  3  0  0  0  0  0  0
  -22.8340   -7.9140   21.4220 C   0  0  0  0  0  0  0  0  0  0  0  0
  -22.3990   -8.8460   20.4640 C   0  0  0  0  0  3  0  0  0  0  0  0
  -23.1170  -10.0320   20.2400 C   0  0  0  0  0  3  0  0  0  0  0  0
  -22.0850   -6.7710   21.5510 O   0  0  0  0  0  0  0  0  0  0  0  0
  -21.9340   -6.1460   22.7630 C   0  0  0  0  0  0  0  0  0  0  0  0
  -21.3940   -6.8130   23.8840 C   0  0  0  0  0  3  0  0  0  0  0  0
  -21.1850   -6.1110   25.0880 C   0  0  0  0  0  3  0  0  0  0  0  0
  -21.5080   -4.7430   25.1700 C   0  0  0  0  0  0  0  0  0  0  0  0
  -22.0420   -4.0760   24.0530 C   0  0  0  0  0  3  0  0  0  0  0  0
  -22.2510   -4.7760   22.8530 C   0  0  0  0  0  0  0  0  0  0  0  0
  -22.7460   -4.1220   21.7750 F   0  0  0  0  0  0  0  0  0  0  0  0
  -21.3010   -4.0670   26.3240 F   0  0  0  0  0  0  0  0  0  0  0  0
  -23.2800  -13.4050   21.5170 C   0  0  0  0  0  0  0  0  0  0  0  0
  -22.7350  -12.7020   22.5060 N   0  0  0  0  0  0  0  0  0  0  0  0
  -22.7560  -14.4430   21.1130 O   0  0  0  0  0  0  0  0  0  0  0  0
  -23.1690  -11.8640   22.8610 H   0  0  0  0  0  0  0  0  0  0  0  0
  -21.8650  -13.0120   22.9140 H   0  0  0  0  0  0  0  0  0  0  0  0
  -25.7470  -15.0840   20.3460 N   0  0  0  0  0  0  0  0  0  0  0  0
  -25.0010  -15.7060   20.6390 H   0  0  0  0  0  0  0  0  0  0  0  0
  -26.4860  -15.5610   19.8470 H   0  0  0  0  0  0  0  0  0  0  0  0
  -29.3910  -21.7390   20.1030 C   0  0  0  0  0  2  0  0  0  0  0  0
  -30.0600  -23.0500   19.5860 C   0  0  0  0  0  2  0  0  0  0  0  0
  -29.6230  -24.4060   20.2370 C   0  0  0  0  0  2  0  0  0  0  0  0
  -28.5400  -25.2350   19.4950 C   0  0  0  0  0  2  0  0  0  0  0  0
  -28.5180  -26.6250   19.9080 O   0  0  0  0  0  0  0  0  0  0  0  0
  -24.5530  -31.6660   23.0580 C   0  0  0  0  0  0  0  0  0  0  0  0
  -27.3270  -27.3370   19.8770 C   0  0  0  0  0  0  0  0  0  0  0  0
  -23.3840  -30.2460   21.4050 C   0  0  0  0  0  3  0  0  0  0  0  0
  -24.8810  -28.7840   19.9430 C   0  0  0  0  0  0  0  0  0  0  0  0
  -25.9010  -30.6870   21.2010 C   0  0  0  0  0  2  0  0  0  0  0  0
  -26.0300  -29.3310   20.5300 C   0  0  0  0  0  0  0  0  0  0  0  0
  -27.2530  -28.6150   20.4920 C   0  0  0  0  0  3  0  0  0  0  0  0
  -26.1600  -26.8270   19.2620 C   0  0  0  0  0  3  0  0  0  0  0  0
  -24.9440  -27.5330   19.3070 C   0  0  0  0  0  3  0  0  0  0  0  0
  -23.6110  -29.6020   20.0110 C   0  0  0  0  0  2  0  0  0  0  0  0
  -24.6310  -30.8810   21.9460 N   0  0  0  0  0  0  0  0  0  0  0  0
  -23.4670  -31.8900   23.6130 O   0  0  0  0  0  0  0  0  0  0  0  0
  -22.7810  -29.1830   22.3540 C   0  0  0  0  0  0  0  0  0  0  0  0
  -21.4760  -28.9070   22.1950 N   0  0  0  0  0  0  0  0  0  0  0  0
  -23.4850  -28.6070   23.1880 O   0  0  0  0  0  0  0  0  0  0  0  0
  -20.9670  -29.4220   21.4910 H   0  0  0  0  0  0  0  0  0  0  0  0
  -18.1850  -27.4780   22.6130 C   0  0  0  0  0  0  0  0  0  0  0  0
  -20.7090  -27.9190   22.9540 C   0  0  0  0  0  3  0  0  0  0  0  0
  -20.9280  -26.4960   22.3900 C   0  0  0  0  0  2  0  0  0  0  0  0
  -19.8810  -26.0880   21.3500 C   0  0  0  0  0  2  0  0  0  0  0  0
  -18.4760  -26.1390   21.9560 C   0  0  0  0  0  2  0  0  0  0  0  0
  -19.2330  -28.3200   23.0680 C   0  0  0  0  0  0  0  0  0  0  0  0
  -18.9070  -29.5700   23.6410 C   0  0  0  0  0  3  0  0  0  0  0  0
  -17.5650  -29.9770   23.7660 C   0  0  0  0  0  3  0  0  0  0  0  0
  -16.5320  -29.1330   23.3300 C   0  0  0  0  0  3  0  0  0  0  0  0
  -16.8410  -27.8850   22.7590 C   0  0  0  0  0  3  0  0  0  0  0  0
  -25.8230  -32.3370   23.6700 C   0  0  0  0  0  3  0  0  0  0  0  0
  -26.4190  -31.5390   24.8950 C   0  0  1  0  0  0  0  0  0  0  0  0
  -25.3630  -31.1520   25.9560 C   0  0  0  0  0  1  0  0  0  0  0  0
  -27.1070  -30.2380   24.4230 C   0  0  0  0  0  1  0  0  0  0  0  0
  -27.5140  -32.3830   25.5910 C   0  0  0  0  0  1  0  0  0  0  0  0
  -25.4540  -33.6990   24.0720 N   0  0  0  0  0  0  0  0  0  0  0  0
  -25.7180  -34.7990   23.3540 C   0  0  0  0  0  0  0  0  0  0  0  0
  -26.3680  -34.7770   22.3060 O   0  0  0  0  0  0  0  0  0  0  0  0
  -24.8850  -33.7890   24.9000 H   0  0  0  0  0  0  0  0  0  0  0  0
  -23.9050  -36.5220   23.0910 C   0  0  0  0  0  1  0  0  0  0  0  0
  -25.1660  -36.1370   23.8800 C   0  0  0  0  0  3  0  0  0  0  0  0
  -27.2570  -37.0790   24.7640 C   0  0  0  0  0  1  0  0  0  0  0  0
  -26.1510  -37.2410   23.8240 N   0  0  0  0  0  0  0  0  0  0  0  0
  -25.7010  -38.1320   24.0170 H   0  0  0  0  0  0  0  0  0  0  0  0
  1  2  2  0
  1 46  1  0
  3  2  1  0
  4  3  2  0
  5 17  1  0
  6 11  1  0
  7  8  1  0
  7  6  1  0
  9  8  1  0
  9 21  1  0
  9 10  1  0
 11  5  1  0
 11 10  1  0
 12  5  2  0
 14 13  1  0
 15 13  1  0
 16  3  1  0
 16 14  1  0
 17 16  1  0
 17 15  1  0
 18 19  2  0
 19 38  1  0
 20 19  1  0
 20 23  1  0
 21 22  1  0
 21 18  1  0
 22 20  2  0
 23 24  1  0
 24 25  2  0
 26 29  1  0
 26 25  1  0
 27 26  2  0
 28 27  1  0
 28 23  2  0
 29 30  1  0
 30 35  2  0
 30 31  1  0
 31 32  2  0
 32 33  1  0
 33 37  1  0
 34 33  2  0
 35 34  1  0
 36 35  1  0
 38 39  1  0
 39 41  1  0
 39 42  1  0
 40 38  2  0
 43 18  1  0
 43 44  1  0
 45 43  1  0
 47 46  1  0
 47 48  1  0
 49 50  1  0
 49 48  1  0
 51 62  2  0
 52 50  1  0
 52 57  1  0
 53 61  1  0
 53 63  1  0
 54 60  1  0
 54 56  1  0
 55 61  1  0
 56 55  1  0
 57 56  2  0
 58 59  1  0
 58 52  2  0
 59 54  2  0
 60 53  1  0
 61 51  1  0
 63 65  2  0
 64 63  1  0
 66 64  1  0
 67 76  2  0
 67 72  1  0
 68 64  1  0
 68 72  1  0
 69 68  1  0
 70 71  1  0
 70 69  1  0
 71 67  1  0
 72 73  2  0
 73 74  1  0
 75 74  2  0
 76 75  1  0
 77 51  1  0
 77 82  1  0
 77 78  1  0
 78 81  1  1
 78 79  1  0
 80 78  1  0
 82 85  1  0
 83 87  1  0
 83 82  1  0
 84 83  2  0
 87 86  1  0
 89 87  1  0
 89 90  1  0
 89 88  1  0
M  ISO  4   5 100  17 100  49 101  50 101
M  END
>  <TORSDO>  (66) 
F 22

>  <SCORE>  (66) 
-9.751

>  <name>  (66) 
67

>  <ligand_id>  (66) 
67

>  <original_smiles>  (66) 
[H]c1c([H])c([H])c2c(c1[H])C([H])([H])C([H])([H])C([H])([H])C2([H])N([H])C(=O)C1([H])N(C(=O)C([H])(N([H])C(=O)C([H])(N([H])C([H])([H])[H])C([H])([H])[H])C(C([H])([H])[H])(C([H])([H])[H])C([H])([H])[H])C([H])([H])c2c([H])c(OC([H])([H])C([H])([H])C([H])([H])C([H])([H])C([H])([H])C([H])([H])C(=O)C3([H])N(C(=O)N4C([H])([H])C([H])([H])C([H])([H])C([H])(n5nc(-c6c([H])c([H])c(Oc7c([H])c([H])c(F)c([H])c7F)c([H])c6[H])c(C(=O)N([H])[H])c5N([H])[H])C4([H])[H])C([H])([H])C([H])([H])C3([H])[H])c([H])c([H])c2C1([H])[H]

>  <smiles>  (66) 
[H]c1c([H])c([H])c2c(c1[H])C([H])([H])C([H])([H])C([H])([H])C2([H])N([H])C(=O)C1([H])N(C(=O)C([H])(N([H])C(=O)C([H])(N([H])C([H])([H])[H])C([H])([H])[H])C(C([H])([H])[H])(C([H])([H])[H])C([H])([H])[H])C([H])([H])c2c([H])c(OC([H])([H])C([H])([H])C([H])([H])C([H])([H])C([H])([H])C([H])([H])C(=O)C3([H])N(C(=O)N4C([H])([H])C([H])([H])C([H])([H])C([H])(n5nc(-c6c([H])c([H])c(Oc7c([H])c([H])c(F)c([H])c7F)c([H])c6[H])c(C(=O)N([H])[H])c5N([H])[H])C4([H])[H])C([H])([H])C([H])([H])C3([H])[H])c([H])c([H])c2C1([H])[H]

$$$$
68:0:0
     RDKit          3D

 96103  0  0  1  0  0  0  0  0999 V2000
  -28.6760  -14.3800   18.1770 C   0  0  0  0  0  3  0  0  0  0  0  0
  -28.8100  -13.6180   19.4690 C   0  0  0  0  0  3  0  0  0  0  0  0
  -27.0380  -15.1020   18.9220 C   0  0  0  0  0  3  0  0  0  0  0  0
  -28.1500  -15.7240   18.4180 N   0  0  0  0  0  0  0  0  0  0  0  0
  -27.4160  -13.8680   19.4600 N   0  0  1  0  0  4  0  0  0  0  0  0
  -26.7810  -13.3210   20.0220 H   0  0  0  0  0  0  0  0  0  0  0  0
  -30.7380  -13.8950   21.4400 C   0  0  0  0  0  1  0  0  0  0  0  0
  -32.1950  -12.8000   20.9430 C   0  0  0  0  0  0  0  0  0  0  0  0
  -31.6820  -13.6060   19.1110 C   0  0  0  0  0  2  0  0  0  0  0  0
  -30.9410  -15.3250   19.6690 C   0  0  0  0  0  1  0  0  0  0  0  0
  -29.0390  -15.2130   20.8130 C   0  0  0  0  0 15  0  0  0  0  0  0
  -28.5000  -13.3050   21.2650 C   0  0  0  0  0  3  0  0  0  0  0  0
  -29.6580  -11.9420   20.6580 C   0  0  0  0  0  2  0  0  0  0  0  0
  -31.2730  -12.3190   20.0070 N   0  0  0  0  0  0  0  0  0  0  0  0
  -33.2530  -13.4900   20.8790 O   0  0  0  0  0  0  0  0  0  0  0  0
  -31.5660  -12.8770   22.0220 N   0  0  0  0  0  0  0  0  0  0  0  0
  -32.1250  -13.1540   22.8180 H   0  0  0  0  0  0  0  0  0  0  0  0
  -26.1680  -13.7260   21.7870 C   0  0  0  0  0  0  0  0  0  0  0  0
  -25.1550  -12.8730   22.0310 C   0  0  0  0  0  0  0  0  0  0  0  0
  -25.5760  -11.5760   21.6070 C   0  0  0  0  0  0  0  0  0  0  0  0
  -27.1530  -12.9380   21.2870 N   0  0  0  0  0  0  0  0  0  0  0  0
  -26.8200  -11.6300   21.1570 N   0  0  0  0  0  0  0  0  0  0  0  0
  -24.8500  -10.3120   21.5710 C   0  0  0  0  0  0  0  0  0  0  0  0
  -25.2200   -9.1980   22.3550 C   0  0  0  0  0  3  0  0  0  0  0  0
  -24.4440   -8.0210   22.3110 C   0  0  0  0  0  3  0  0  0  0  0  0
  -23.2940   -7.9560   21.4910 C   0  0  0  0  0  0  0  0  0  0  0  0
  -22.9570   -9.0560   20.6830 C   0  0  0  0  0  3  0  0  0  0  0  0
  -23.7260  -10.2260   20.7260 C   0  0  0  0  0  3  0  0  0  0  0  0
  -22.4950   -6.8460   21.3680 O   0  0  0  0  0  0  0  0  0  0  0  0
  -22.1760   -6.0590   22.4470 C   0  0  0  0  0  0  0  0  0  0  0  0
  -21.5060   -6.5820   23.5750 C   0  0  0  0  0  3  0  0  0  0  0  0
  -21.1480   -5.7270   24.6360 C   0  0  0  0  0  3  0  0  0  0  0  0
  -21.4420   -4.3510   24.5640 C   0  0  0  0  0  0  0  0  0  0  0  0
  -22.1000   -3.8290   23.4340 C   0  0  0  0  0  3  0  0  0  0  0  0
  -22.4660   -4.6820   22.3790 C   0  0  0  0  0  0  0  0  0  0  0  0
  -23.0870   -4.1740   21.2860 F   0  0  0  0  0  0  0  0  0  0  0  0
  -21.0760   -3.5260   25.5710 F   0  0  0  0  0  0  0  0  0  0  0  0
  -23.8530  -13.2800   22.6160 C   0  0  0  0  0  0  0  0  0  0  0  0
  -23.1950  -12.3650   23.3080 N   0  0  0  0  0  0  0  0  0  0  0  0
  -23.4640  -14.4440   22.5290 O   0  0  0  0  0  0  0  0  0  0  0  0
  -23.5580  -11.4270   23.4130 H   0  0  0  0  0  0  0  0  0  0  0  0
  -22.3200  -12.6030   23.7600 H   0  0  0  0  0  0  0  0  0  0  0  0
  -26.3440  -15.0780   22.0180 N   0  0  0  0  0  0  0  0  0  0  0  0
  -25.5980  -15.6270   22.4300 H   0  0  0  0  0  0  0  0  0  0  0  0
  -27.2300  -15.5690   21.9570 H   0  0  0  0  0  0  0  0  0  0  0  0
  -25.6160  -15.5660   18.8730 C   0  0  0  0  0  2  0  0  0  0  0  0
  -24.6080  -14.6650   19.6540 C   0  0  0  0  0  2  0  0  0  0  0  0
  -25.1730  -12.2620   18.7310 C   0  0  0  0  0  1  0  0  0  0  0  0
  -22.8330  -12.7920   19.4840 C   0  0  0  0  0  1  0  0  0  0  0  0
  -24.1310  -13.3910   18.8920 C   0  0  0  0  0  3  0  0  0  0  0  0
  -28.4380  -17.4420   18.1460 C   0  0  0  0  0  2  0  0  0  0  0  0
  -29.2450  -18.8560   19.0340 C   0  0  0  0  0  3  0  0  0  0  0  0
  -28.9570  -20.6850   19.1970 C   0  0  0  0  0  3  0  0  0  0  0  0
  -29.8490  -22.1970   19.8230 C   0  0  0  0  0  3  0  0  0  0  0  0
  -29.4130  -23.9600   20.2480 C   0  0  0  0  0  3  0  0  0  0  0  0
  -30.1290  -25.4670   20.6220 O   0  0  0  0  0  0  0  0  0  0  0  0
  -27.7780  -31.5110   24.9240 C   0  0  0  0  0  0  0  0  0  0  0  0
  -29.4130  -26.7500   20.9810 C   0  0  0  0  0  0  0  0  0  0  0  0
  -26.3400  -30.4830   23.2310 C   0  0  0  0  0  3  0  0  0  0  0  0
  -27.4760  -28.9370   21.5090 C   0  0  0  0  0  0  0  0  0  0  0  0
  -28.9120  -30.3720   22.9270 C   0  0  0  0  0  2  0  0  0  0  0  0
  -28.7540  -29.0640   22.0660 C   0  0  0  0  0  0  0  0  0  0  0  0
  -29.7300  -27.9800   21.7890 C   0  0  0  0  0  3  0  0  0  0  0  0
  -28.1200  -26.8210   20.4530 C   0  0  0  0  0  3  0  0  0  0  0  0
  -27.1920  -27.8410   20.7010 C   0  0  0  0  0  3  0  0  0  0  0  0
  -26.4070  -29.9910   21.7660 C   0  0  0  0  0  2  0  0  0  0  0  0
  -27.7090  -30.8070   23.7460 N   0  0  0  0  0  0  0  0  0  0  0  0
  -26.7550  -31.8580   25.5390 O   0  0  0  0  0  0  0  0  0  0  0  0
  -25.5880  -29.4410   24.1040 C   0  0  0  0  0  0  0  0  0  0  0  0
  -24.5360  -28.8080   23.5510 N   0  0  0  0  0  0  0  0  0  0  0  0
  -25.9630  -29.2080   25.2540 O   0  0  0  0  0  0  0  0  0  0  0  0
  -24.2780  -29.0580   22.6060 H   0  0  0  0  0  0  0  0  0  0  0  0
  -22.2050  -26.0930   22.9270 C   0  0  0  0  0  0  0  0  0  0  0  0
  -23.7310  -27.7620   24.1890 C   0  0  0  0  0  3  0  0  0  0  0  0
  -24.5980  -26.5310   24.5460 C   0  0  0  0  0  2  0  0  0  0  0  0
  -24.5940  -25.4540   23.4560 C   0  0  0  0  0  2  0  0  0  0  0  0
  -23.1700  -24.9530   23.2020 C   0  0  0  0  0  2  0  0  0  0  0  0
  -22.4740  -27.4150   23.3770 C   0  0  0  0  0  0  0  0  0  0  0  0
  -21.5550  -28.4420   23.0680 C   0  0  0  0  0  3  0  0  0  0  0  0
  -20.3890  -28.1680   22.3290 C   0  0  0  0  0  3  0  0  0  0  0  0
  -20.1220  -26.8570   21.8970 C   0  0  0  0  0  3  0  0  0  0  0  0
  -21.0270  -25.8230   22.1980 C   0  0  0  0  0  3  0  0  0  0  0  0
  -29.1430  -31.9380   25.5480 C   0  0  0  0  0  3  0  0  0  0  0  0
  -29.4160  -31.2500   26.9420 C   0  0  1  0  0  0  0  0  0  0  0  0
  -28.2620  -31.4120   27.9600 C   0  0  0  0  0  1  0  0  0  0  0  0
  -29.6730  -29.7340   26.7720 C   0  0  0  0  0  1  0  0  0  0  0  0
  -30.6970  -31.8430   27.5750 C   0  0  0  0  0  1  0  0  0  0  0  0
  -29.1360  -33.4050   25.7010 N   0  0  0  0  0  0  0  0  0  0  0  0
  -29.8100  -34.2620   24.9230 C   0  0  0  0  0  0  0  0  0  0  0  0
  -30.5640  -33.8880   24.0220 O   0  0  0  0  0  0  0  0  0  0  0  0
  -28.4960  -33.7810   26.3850 H   0  0  0  0  0  0  0  0  0  0  0  0
  -28.7250  -36.3800   24.1020 C   0  0  0  0  0  1  0  0  0  0  0  0
  -29.6240  -35.7690   25.1880 C   0  0  0  0  0  3  0  0  0  0  0  0
  -31.7000  -36.1990   26.4270 C   0  0  0  0  0  1  0  0  0  0  0  0
  -30.8970  -36.5190   25.2520 N   0  0  0  0  0  0  0  0  0  0  0  0
  -30.7210  -37.5200   25.2500 H   0  0  0  0  0  0  0  0  0  0  0  0
  1  4  1  0
  1  5  1  0
  1  2  1  0
  2 12  1  0
  3 46  1  0
  3  5  1  0
  4  3  1  0
  5  2  1  0
  5  6  1  6
  7 16  1  0
  8 16  1  0
  9 10  1  0
  9 14  1  0
 12 13  1  0
 12 21  1  0
 14 13  1  0
 14  8  1  0
 15  8  2  0
 16 17  1  0
 18 43  1  0
 18 19  2  0
 19 38  1  0
 20 19  1  0
 21 18  1  0
 22 21  1  0
 22 20  2  0
 23 20  1  0
 23 24  1  0
 25 24  2  0
 26 25  1  0
 27 28  1  0
 27 26  2  0
 28 23  2  0
 29 26  1  0
 29 30  1  0
 30 31  1  0
 31 32  2  0
 33 32  1  0
 33 37  1  0
 34 33  2  0
 35 30  2  0
 35 34  1  0
 36 35  1  0
 38 39  1  0
 39 41  1  0
 39 42  1  0
 40 38  2  0
 43 44  1  0
 45 43  1  0
 46 47  1  0
 48 50  1  0
 50 49  1  0
 50 47  1  0
 51  4  1  0
 51 52  1  0
 52 53  2  0
 53 54  1  0
 54 55  2  0
 55 56  1  0
 56 58  1  0
 57 68  2  0
 58 63  1  0
 59 67  1  0
 59 69  1  0
 60 66  1  0
 60 62  1  0
 61 67  1  0
 62 61  1  0
 63 62  2  0
 64 65  1  0
 64 58  2  0
 65 60  2  0
 66 59  1  0
 67 57  1  0
 69 71  2  0
 70 69  1  0
 72 70  1  0
 73 77  1  0
 73 78  1  0
 74 70  1  0
 74 75  1  0
 76 75  1  0
 77 76  1  0
 78 74  1  0
 79 78  2  0
 80 79  1  0
 81 82  1  0
 81 80  2  0
 82 73  2  0
 83 57  1  0
 83 88  1  0
 83 84  1  0
 84 87  1  1
 84 85  1  0
 86 84  1  0
 88 91  1  0
 89 93  1  0
 89 88  1  0
 90 89  2  0
 93 92  1  0
 93 95  1  0
 95 94  1  0
 96 95  1  0
M  ISO  4   8 100  16 100  55 101  56 101
M  END
>  <TORSDO>  (67) 
F 25

>  <SCORE>  (67) 
4.445

>  <name>  (67) 
68

>  <ligand_id>  (67) 
68

>  <original_smiles>  (67) 
[H]c1c([H])c([H])c2c(c1[H])C([H])([H])C([H])([H])C([H])([H])C2([H])N([H])C(=O)C1([H])N(C(=O)C([H])(N([H])C(=O)C([H])(N([H])C([H])([H])[H])C([H])([H])[H])C(C([H])([H])[H])(C([H])([H])[H])C([H])([H])[H])C([H])([H])c2c([H])c(OC([H])([H])C([H])([H])C([H])([H])C([H])([H])C([H])([H])n3c([H])c(C([H])([H])N([H])C(=O)N4C([H])([H])C([H])([H])C([H])([H])C([H])(n5nc(-c6c([H])c([H])c(Oc7c([H])c([H])c(F)c([H])c7F)c([H])c6[H])c(C(=O)N([H])[H])c5N([H])[H])C4([H])[H])[n+]([H])c3C([H])([H])C([H])([H])C([H])(C([H])([H])[H])C([H])([H])[H])c([H])c([H])c2C1([H])[H]

>  <smiles>  (67) 
[H]c1c([H])c([H])c2c(c1[H])C([H])([H])C([H])([H])C([H])([H])C2([H])N([H])C(=O)C1([H])N(C(=O)C([H])(N([H])C(=O)C([H])(N([H])C([H])([H])[H])C([H])([H])[H])C(C([H])([H])[H])(C([H])([H])[H])C([H])([H])[H])C([H])([H])c2c([H])c(OC([H])([H])C([H])([H])C([H])([H])C([H])([H])C([H])([H])n3c([H])c(C([H])([H])N([H])C(=O)N4C([H])([H])C([H])([H])C([H])([H])C([H])(n5nc(-c6c([H])c([H])c(Oc7c([H])c([H])c(F)c([H])c7F)c([H])c6[H])c(C(=O)N([H])[H])c5N([H])[H])C4([H])[H])[n+]([H])c3C([H])([H])C([H])([H])C([H])(C([H])([H])[H])C([H])([H])[H])c([H])c([H])c2C1([H])[H]

$$$$
69:0:0
     RDKit          3D

 93101  0  0  1  0  0  0  0  0999 V2000
  -30.6290  -19.8200   20.0230 C   0  0  0  0  0  3  0  0  0  0  0  0
  -29.2580  -17.9620   20.7350 C   0  0  0  0  0  3  0  0  0  0  0  0
  -29.4110  -19.3620   20.5480 C   0  0  0  0  0  0  0  0  0  0  0  0
  -31.6170  -18.8860   19.6820 C   0  0  0  0  0  0  0  0  0  0  0  0
  -30.3040  -17.0660   20.3860 C   0  0  0  0  0  0  0  0  0  0  0  0
  -31.4510  -17.5570   19.8630 N   0  0  0  0  0  0  0  0  0  0  0  0
  -30.8020  -14.6060   20.1260 C   0  0  0  0  0  0  0  0  0  0  0  0
  -30.4480  -12.4500   18.9870 C   0  0  0  0  0  2  0  0  0  0  0  0
  -29.4620  -12.6880   17.8240 C   0  0  0  0  0  2  0  0  0  0  0  0
  -28.0070  -12.5490   18.3140 C   0  0  0  0  0  2  0  0  0  0  0  0
  -27.7290  -13.3620   19.6080 C   0  0  0  0  0  3  0  0  0  0  0  0
  -28.8290  -13.1260   20.6660 C   0  0  0  0  0  2  0  0  0  0  0  0
  -30.1260  -13.4270   20.0410 N   0  0  0  0  0  0  0  0  0  0  0  0
  -31.9470  -14.7170   19.6760 O   0  0  0  0  0  0  0  0  0  0  0  0
  -30.0790  -15.6610   20.5820 N   0  0  0  0  0  0  0  0  0  0  0  0
  -29.1830  -15.4170   20.9690 H   0  0  0  0  0  0  0  0  0  0  0  0
  -25.3680  -13.9650   20.4270 C   0  0  0  0  0  0  0  0  0  0  0  0
  -24.3140  -13.1910   20.8310 C   0  0  0  0  0  0  0  0  0  0  0  0
  -24.7680  -11.8390   20.7620 C   0  0  0  0  0  0  0  0  0  0  0  0
  -26.3980  -13.0840   20.1400 N   0  0  0  0  0  0  0  0  0  0  0  0
  -26.0440  -11.7990   20.3990 N   0  0  0  0  0  0  0  0  0  0  0  0
  -24.0460  -10.5760   20.9630 C   0  0  0  0  0  0  0  0  0  0  0  0
  -24.4870   -9.6140   21.8990 C   0  0  0  0  0  3  0  0  0  0  0  0
  -23.7650   -8.4160   22.0880 C   0  0  0  0  0  3  0  0  0  0  0  0
  -22.5880   -8.1720   21.3410 C   0  0  0  0  0  0  0  0  0  0  0  0
  -22.1660   -9.1220   20.3940 C   0  0  0  0  0  3  0  0  0  0  0  0
  -22.8890  -10.3110   20.2030 C   0  0  0  0  0  3  0  0  0  0  0  0
  -21.8370   -7.0260   21.4400 O   0  0  0  0  0  0  0  0  0  0  0  0
  -21.7750   -6.3030   22.6030 C   0  0  0  0  0  0  0  0  0  0  0  0
  -21.2920   -6.8650   23.8060 C   0  0  0  0  0  3  0  0  0  0  0  0
  -21.1810   -6.0680   24.9620 C   0  0  0  0  0  3  0  0  0  0  0  0
  -21.5420   -4.7080   24.9170 C   0  0  0  0  0  0  0  0  0  0  0  0
  -22.0170   -4.1450   23.7200 C   0  0  0  0  0  3  0  0  0  0  0  0
  -22.1310   -4.9390   22.5660 C   0  0  0  0  0  0  0  0  0  0  0  0
  -22.5700   -4.3870   21.4100 F   0  0  0  0  0  0  0  0  0  0  0  0
  -21.4280   -3.9400   26.0250 F   0  0  0  0  0  0  0  0  0  0  0  0
  -22.9320  -13.6700   21.1700 C   0  0  0  0  0  0  0  0  0  0  0  0
  -22.2390  -12.9620   22.0570 N   0  0  0  0  0  0  0  0  0  0  0  0
  -22.4750  -14.7030   20.6850 O   0  0  0  0  0  0  0  0  0  0  0  0
  -22.6220  -12.1240   22.4710 H   0  0  0  0  0  0  0  0  0  0  0  0
  -21.3130  -13.2620   22.3270 H   0  0  0  0  0  0  0  0  0  0  0  0
  -25.5300  -15.3380   20.2610 N   0  0  0  0  0  0  0  0  0  0  0  0
  -24.7660  -15.9910   20.4020 H   0  0  0  0  0  0  0  0  0  0  0  0
  -26.3560  -15.7770   19.8740 H   0  0  0  0  0  0  0  0  0  0  0  0
  -33.0970  -18.8070   17.6300 C   0  0  0  0  0  1  0  0  0  0  0  0
  -34.1350  -18.9900   19.9570 C   0  0  0  0  0  1  0  0  0  0  0  0
  -32.9340  -19.3380   19.0630 C   0  0  0  0  0  3  0  0  0  0  0  0
  -28.3080  -20.3590   20.9300 C   0  0  0  0  0  2  0  0  0  0  0  0
  -28.2210  -21.6730   20.0910 C   0  0  0  0  0  2  0  0  0  0  0  0
  -28.5590  -22.9810   20.8610 C   0  0  0  0  0  2  0  0  0  0  0  0
  -28.3330  -24.2950   20.0550 C   0  0  0  0  0  2  0  0  0  0  0  0
  -28.4860  -25.5850   20.9080 C   0  0  0  0  0  2  0  0  0  0  0  0
  -28.4940  -26.8200   20.1660 O   0  0  0  0  0  0  0  0  0  0  0  0
  -24.5550  -31.9050   23.2730 C   0  0  0  0  0  0  0  0  0  0  0  0
  -27.3210  -27.5420   20.1810 C   0  0  0  0  0  0  0  0  0  0  0  0
  -23.4050  -30.5200   21.5770 C   0  0  0  0  0  3  0  0  0  0  0  0
  -24.9100  -29.0190   20.1640 C   0  0  0  0  0  0  0  0  0  0  0  0
  -25.9310  -30.9090   21.4450 C   0  0  0  0  0  2  0  0  0  0  0  0
  -26.0480  -29.5490   20.7860 C   0  0  0  0  0  0  0  0  0  0  0  0
  -27.2590  -28.8200   20.7860 C   0  0  0  0  0  3  0  0  0  0  0  0
  -26.1700  -27.0270   19.5540 C   0  0  0  0  0  3  0  0  0  0  0  0
  -24.9650  -27.7570   19.5450 C   0  0  0  0  0  3  0  0  0  0  0  0
  -23.6560  -29.8630   20.1930 C   0  0  0  0  0  2  0  0  0  0  0  0
  -24.6480  -31.1260   22.1570 N   0  0  0  0  0  0  0  0  0  0  0  0
  -23.4580  -32.1540   23.7930 O   0  0  0  0  0  0  0  0  0  0  0  0
  -22.7450  -29.4740   22.5040 C   0  0  0  0  0  0  0  0  0  0  0  0
  -21.4210  -29.2990   22.3640 N   0  0  0  0  0  0  0  0  0  0  0  0
  -23.4230  -28.8240   23.3060 O   0  0  0  0  0  0  0  0  0  0  0  0
  -20.9380  -29.8800   21.6920 H   0  0  0  0  0  0  0  0  0  0  0  0
  -18.0340  -28.1350   22.8390 C   0  0  0  0  0  0  0  0  0  0  0  0
  -20.5960  -28.3420   23.1010 C   0  0  0  0  0  3  0  0  0  0  0  0
  -20.6720  -26.9360   22.4620 C   0  0  0  0  0  2  0  0  0  0  0  0
  -19.5570  -26.6730   21.4440 C   0  0  0  0  0  2  0  0  0  0  0  0
  -18.1830  -26.8120   22.1070 C   0  0  0  0  0  2  0  0  0  0  0  0
  -19.1670  -28.8600   23.2920 C   0  0  0  0  0  0  0  0  0  0  0  0
  -18.9740  -30.1000   23.9380 C   0  0  0  0  0  3  0  0  0  0  0  0
  -17.6800  -30.6160   24.1350 C   0  0  0  0  0  3  0  0  0  0  0  0
  -16.5600  -29.8870   23.6990 C   0  0  0  0  0  3  0  0  0  0  0  0
  -16.7380  -28.6470   23.0580 C   0  0  0  0  0  3  0  0  0  0  0  0
  -25.8180  -32.5390   23.9350 C   0  0  0  0  0  3  0  0  0  0  0  0
  -25.5080  -33.9460   24.2220 N   0  0  0  0  0  0  0  0  0  0  0  0
  -25.8760  -34.9790   23.4510 C   0  0  0  0  0  0  0  0  0  0  0  0
  -26.5840  -34.8480   22.4490 O   0  0  0  0  0  0  0  0  0  0  0  0
  -24.8850  -34.1240   24.9960 H   0  0  0  0  0  0  0  0  0  0  0  0
  -24.1800  -36.7760   22.9840 C   0  0  0  0  0  1  0  0  0  0  0  0
  -25.3820  -36.3800   23.8580 C   0  0  0  0  0  3  0  0  0  0  0  0
  -27.4790  -37.2720   24.7720 C   0  0  0  0  0  1  0  0  0  0  0  0
  -26.4280  -37.4220   23.7690 N   0  0  0  0  0  0  0  0  0  0  0  0
  -26.0230  -38.3500   23.8700 H   0  0  0  0  0  0  0  0  0  0  0  0
  -26.2770  -31.7900   25.2460 C   0  0  1  0  0  0  0  0  0  0  0  0
  -25.1400  -31.5740   26.2720 C   0  0  0  0  0  1  0  0  0  0  0  0
  -26.8710  -30.4050   24.9010 C   0  0  0  0  0  1  0  0  0  0  0  0
  -27.4020  -32.5920   25.9400 C   0  0  0  0  0  1  0  0  0  0  0  0
  1  3  1  0
  3  2  2  0
  3 48  1  0
  4  6  1  0
  4  1  2  0
  5 15  1  0
  5  2  1  0
  6  5  2  0
  7 15  1  0
  8 13  1  0
  9 10  1  0
  9  8  1  0
 11 10  1  0
 11 20  1  0
 11 12  1  0
 13  7  1  0
 13 12  1  0
 14  7  2  0
 15 16  1  0
 17 18  2  0
 18 37  1  0
 19 18  1  0
 19 22  1  0
 20 21  1  0
 20 17  1  0
 21 19  2  0
 22 23  1  0
 23 24  2  0
 25 28  1  0
 25 24  1  0
 26 25  2  0
 27 26  1  0
 27 22  2  0
 28 29  1  0
 29 30  1  0
 30 31  2  0
 32 31  1  0
 32 36  1  0
 33 32  2  0
 34 29  2  0
 34 33  1  0
 35 34  1  0
 37 38  1  0
 38 41  1  0
 38 40  1  0
 39 37  2  0
 42 43  1  0
 42 17  1  0
 44 42  1  0
 45 47  1  0
 47  4  1  0
 47 46  1  0
 49 50  1  0
 49 48  1  0
 51 50  1  0
 51 52  1  0
 53 55  1  0
 53 52  1  0
 54 65  2  0
 55 60  1  0
 56 64  1  0
 56 66  1  0
 57 63  1  0
 57 59  1  0
 58 64  1  0
 59 58  1  0
 60 59  2  0
 61 55  2  0
 62 61  1  0
 62 57  2  0
 63 56  1  0
 64 54  1  0
 66 68  2  0
 67 66  1  0
 69 67  1  0
 70 79  2  0
 70 75  1  0
 71 67  1  0
 71 75  1  0
 72 71  1  0
 73 74  1  0
 73 72  1  0
 74 70  1  0
 75 76  2  0
 76 77  1  0
 78 77  2  0
 79 78  1  0
 80 54  1  0
 80 81  1  0
 80 90  1  0
 81 84  1  0
 82 86  1  0
 82 81  1  0
 83 82  2  0
 86 85  1  0
 88 86  1  0
 88 89  1  0
 88 87  1  0
 90 93  1  1
 90 91  1  0
 92 90  1  0
M  ISO  4   7 100  15 100  52 101  53 101
M  END
>  <TORSDO>  (68) 
F 22

>  <SCORE>  (68) 
-13.081

>  <name>  (68) 
69

>  <ligand_id>  (68) 
69

>  <original_smiles>  (68) 
[H]c1c([H])c([H])c2c(c1[H])C([H])([H])C([H])([H])C([H])([H])C2([H])N([H])C(=O)C1([H])N(C(=O)C([H])(N([H])C(=O)C([H])(N([H])C([H])([H])[H])C([H])([H])[H])C(C([H])([H])[H])(C([H])([H])[H])C([H])([H])[H])C([H])([H])c2c([H])c(OC([H])([H])C([H])([H])C([H])([H])C([H])([H])C([H])([H])c3c([H])c(N([H])C(=O)N4C([H])([H])C([H])([H])C([H])([H])C([H])(n5nc(-c6c([H])c([H])c(Oc7c([H])c([H])c(F)c([H])c7F)c([H])c6[H])c(C(=O)N([H])[H])c5N([H])[H])C4([H])[H])nc(C([H])(C([H])([H])[H])C([H])([H])[H])c3[H])c([H])c([H])c2C1([H])[H]

>  <smiles>  (68) 
[H]c1c([H])c([H])c2c(c1[H])C([H])([H])C([H])([H])C([H])([H])C2([H])N([H])C(=O)C1([H])N(C(=O)C([H])(N([H])C(=O)C([H])(N([H])C([H])([H])[H])C([H])([H])[H])C(C([H])([H])[H])(C([H])([H])[H])C([H])([H])[H])C([H])([H])c2c([H])c(OC([H])([H])C([H])([H])C([H])([H])C([H])([H])C([H])([H])c3c([H])c(N([H])C(=O)N4C([H])([H])C([H])([H])C([H])([H])C([H])(n5nc(-c6c([H])c([H])c(Oc7c([H])c([H])c(F)c([H])c7F)c([H])c6[H])c(C(=O)N([H])[H])c5N([H])[H])C4([H])[H])nc(C([H])(C([H])([H])[H])C([H])([H])[H])c3[H])c([H])c([H])c2C1([H])[H]

$$$$
70:0:0
     RDKit          3D

 93101  0  0  1  0  0  0  0  0999 V2000
  -28.4980  -17.9900   19.7050 C   0  0  0  0  0  2  0  0  0  0  0  0
  -27.4890  -18.9590   19.4880 C   0  0  0  0  0  3  0  0  0  0  0  0
  -29.5800  -18.5500   20.3270 C   0  0  0  0  0  3  0  0  0  0  0  0
  -27.9350  -20.0900   20.1060 C   0  0  0  0  0  3  0  0  0  0  0  0
  -27.0820  -21.2730   20.4640 C   0  0  0  0  0  1  0  0  0  0  0  0
  -29.3280  -19.9870   20.3110 N   0  0  0  0  0  0  0  0  0  0  0  0
  -25.0070  -18.2910   19.6410 C   0  0  0  0  0  1  0  0  0  0  0  0
  -26.3290  -17.9260   17.4740 C   0  0  0  0  0  1  0  0  0  0  0  0
  -26.1670  -18.7720   18.7490 C   0  0  0  0  0  3  0  0  0  0  0  0
  -30.7610  -17.6450   20.8310 C   0  0  0  0  0  2  0  0  0  0  0  0
  -31.2220  -15.0150   20.6520 C   0  0  0  0  0  0  0  0  0  0  0  0
  -30.9950  -12.7490   19.6140 C   0  0  0  0  0  2  0  0  0  0  0  0
  -30.1000  -12.8660   18.3580 C   0  0  0  0  0  2  0  0  0  0  0  0
  -28.6080  -12.7520   18.7350 C   0  0  0  0  0  2  0  0  0  0  0  0
  -28.2290  -13.6370   19.9510 C   0  0  0  0  0  3  0  0  0  0  0  0
  -29.2440  -13.4890   21.1060 C   0  0  0  0  0  2  0  0  0  0  0  0
  -30.5720  -13.8030   20.5640 N   0  0  0  0  0  0  0  0  0  0  0  0
  -32.4080  -15.1050   20.3200 O   0  0  0  0  0  0  0  0  0  0  0  0
  -30.4620  -16.1410   20.9240 N   0  0  0  0  0  0  0  0  0  0  0  0
  -29.5170  -15.9280   21.2030 H   0  0  0  0  0  0  0  0  0  0  0  0
  -25.8830  -14.3240   20.7150 C   0  0  0  0  0  0  0  0  0  0  0  0
  -24.7510  -13.6100   20.9830 C   0  0  0  0  0  0  0  0  0  0  0  0
  -25.1100  -12.2380   20.8140 C   0  0  0  0  0  0  0  0  0  0  0  0
  -26.8600  -13.4000   20.3950 N   0  0  0  0  0  0  0  0  0  0  0  0
  -26.4000  -12.1280   20.5160 N   0  0  0  0  0  0  0  0  0  0  0  0
  -24.2850  -11.0270   20.8630 C   0  0  0  0  0  0  0  0  0  0  0  0
  -24.5890   -9.9640   21.7400 C   0  0  0  0  0  3  0  0  0  0  0  0
  -23.7670   -8.8160   21.7820 C   0  0  0  0  0  3  0  0  0  0  0  0
  -22.6290   -8.7290   20.9450 C   0  0  0  0  0  0  0  0  0  0  0  0
  -22.3440   -9.7830   20.0580 C   0  0  0  0  0  3  0  0  0  0  0  0
  -23.1660  -10.9210   20.0140 C   0  0  0  0  0  3  0  0  0  0  0  0
  -21.7890   -7.6430   20.9020 O   0  0  0  0  0  0  0  0  0  0  0  0
  -21.5590   -6.8690   22.0100 C   0  0  0  0  0  0  0  0  0  0  0  0
  -20.9790   -7.3990   23.1850 C   0  0  0  0  0  3  0  0  0  0  0  0
  -20.6910   -6.5510   24.2730 C   0  0  0  0  0  3  0  0  0  0  0  0
  -20.9750   -5.1750   24.1880 C   0  0  0  0  0  0  0  0  0  0  0  0
  -21.5510   -4.6450   23.0210 C   0  0  0  0  0  3  0  0  0  0  0  0
  -21.8380   -5.4900   21.9340 C   0  0  0  0  0  0  0  0  0  0  0  0
  -22.3720   -4.9700   20.8030 F   0  0  0  0  0  0  0  0  0  0  0  0
  -20.6950   -4.3570   25.2320 F   0  0  0  0  0  0  0  0  0  0  0  0
  -23.3920  -14.1730   21.2860 C   0  0  0  0  0  0  0  0  0  0  0  0
  -22.5990  -13.4640   22.0820 N   0  0  0  0  0  0  0  0  0  0  0  0
  -23.0430  -15.2740   20.8590 O   0  0  0  0  0  0  0  0  0  0  0  0
  -22.8920  -12.5710   22.4500 H   0  0  0  0  0  0  0  0  0  0  0  0
  -21.6880  -13.8220   22.3280 H   0  0  0  0  0  0  0  0  0  0  0  0
  -26.1550  -15.6790   20.6950 N   0  0  0  0  0  0  0  0  0  0  0  0
  -25.4120  -16.3570   20.8090 H   0  0  0  0  0  0  0  0  0  0  0  0
  -27.0320  -16.1060   20.4270 H   0  0  0  0  0  0  0  0  0  0  0  0
  -30.2210  -21.2250   20.4970 C   0  0  0  0  0  3  0  0  0  0  0  0
  -29.5550  -22.6810   20.1560 C   0  0  0  0  0  3  0  0  0  0  0  0
  -30.0740  -24.1520   20.5450 C   0  0  0  0  0  2  0  0  0  0  0  0
  -29.0650  -25.3440   20.1320 C   0  0  0  0  0  2  0  0  0  0  0  0
  -29.0900  -26.7230   20.7050 O   0  0  0  0  0  0  0  0  0  0  0  0
  -24.7420  -31.7090   23.6340 C   0  0  0  0  0  0  0  0  0  0  0  0
  -27.9370  -27.5300   20.5680 C   0  0  0  0  0  0  0  0  0  0  0  0
  -23.7970  -30.3660   21.7900 C   0  0  0  0  0  3  0  0  0  0  0  0
  -25.4800  -29.0110   20.4170 C   0  0  0  0  0  0  0  0  0  0  0  0
  -26.3180  -30.8390   21.8890 C   0  0  0  0  0  2  0  0  0  0  0  0
  -26.5510  -29.5180   21.1640 C   0  0  0  0  0  0  0  0  0  0  0  0
  -27.7820  -28.7920   21.2280 C   0  0  0  0  0  3  0  0  0  0  0  0
  -26.8440  -27.0940   19.7800 C   0  0  0  0  0  3  0  0  0  0  0  0
  -25.6330  -27.8090   19.7120 C   0  0  0  0  0  3  0  0  0  0  0  0
  -24.1870  -29.8050   20.3970 C   0  0  0  0  0  2  0  0  0  0  0  0
  -24.9650  -30.9860   22.4970 N   0  0  0  0  0  0  0  0  0  0  0  0
  -23.5950  -31.8880   24.0700 O   0  0  0  0  0  0  0  0  0  0  0  0
  -23.1050  -29.2490   22.6080 C   0  0  0  0  0  0  0  0  0  0  0  0
  -21.7940  -29.0530   22.3790 N   0  0  0  0  0  0  0  0  0  0  0  0
  -23.7480  -28.5670   23.4090 O   0  0  0  0  0  0  0  0  0  0  0  0
  -21.3340  -29.6590   21.7130 H   0  0  0  0  0  0  0  0  0  0  0  0
  -18.4140  -27.7870   22.6020 C   0  0  0  0  0  0  0  0  0  0  0  0
  -20.9560  -28.0290   23.0040 C   0  0  0  0  0  3  0  0  0  0  0  0
  -21.0970  -26.6730   22.2730 C   0  0  0  0  0  2  0  0  0  0  0  0
  -20.0390  -26.4620   21.1860 C   0  0  0  0  0  2  0  0  0  0  0  0
  -18.6300  -26.5240   21.7860 C   0  0  0  0  0  2  0  0  0  0  0  0
  -19.5060  -28.5020   23.1610 C   0  0  0  0  0  0  0  0  0  0  0  0
  -19.2480  -29.6880   23.8830 C   0  0  0  0  0  3  0  0  0  0  0  0
  -17.9320  -30.1570   24.0520 C   0  0  0  0  0  3  0  0  0  0  0  0
  -16.8550  -29.4360   23.5110 C   0  0  0  0  0  3  0  0  0  0  0  0
  -17.0950  -28.2530   22.7910 C   0  0  0  0  0  3  0  0  0  0  0  0
  -25.9130  -32.3640   24.4260 C   0  0  0  0  0  3  0  0  0  0  0  0
  -25.5920  -33.7880   24.6020 N   0  0  0  0  0  0  0  0  0  0  0  0
  -26.0410  -34.7740   23.8130 C   0  0  0  0  0  0  0  0  0  0  0  0
  -26.8350  -34.5810   22.8880 O   0  0  0  0  0  0  0  0  0  0  0  0
  -24.9010  -34.0110   25.3020 H   0  0  0  0  0  0  0  0  0  0  0  0
  -24.3940  -36.5430   23.1150 C   0  0  0  0  0  1  0  0  0  0  0  0
  -25.5280  -36.1990   24.0940 C   0  0  0  0  0  3  0  0  0  0  0  0
  -27.5570  -37.1500   25.0990 C   0  0  0  0  0  1  0  0  0  0  0  0
  -26.5830  -37.2320   24.0130 N   0  0  0  0  0  0  0  0  0  0  0  0
  -26.1770  -38.1640   24.0210 H   0  0  0  0  0  0  0  0  0  0  0  0
  -26.1780  -31.6780   25.8220 C   0  0  1  0  0  0  0  0  0  0  0  0
  -24.9120  -31.5470   26.6990 C   0  0  0  0  0  1  0  0  0  0  0  0
  -26.7680  -30.2610   25.6320 C   0  0  0  0  0  1  0  0  0  0  0  0
  -27.2290  -32.4920   26.6140 C   0  0  0  0  0  1  0  0  0  0  0  0
  1  3  1  0
  2  9  1  0
  2  1  1  0
  2  4  1  0
  3 10  1  0
  4  6  1  0
  4  5  1  0
  6  3  1  0
  6 49  1  0
  8  9  1  0
  9  7  1  0
 10 19  1  0
 11 19  1  0
 12 17  1  0
 13 14  1  0
 13 12  1  0
 15 14  1  0
 15 24  1  0
 15 16  1  0
 17 11  1  0
 17 16  1  0
 18 11  2  0
 19 20  1  0
 21 22  2  0
 22 41  1  0
 23 26  1  0
 23 22  1  0
 24 25  1  0
 24 21  1  0
 25 23  2  0
 26 27  1  0
 27 28  2  0
 29 28  1  0
 30 29  2  0
 31 30  1  0
 31 26  2  0
 32 29  1  0
 32 33  1  0
 33 34  1  0
 34 35  2  0
 36 35  1  0
 36 40  1  0
 37 36  2  0
 38 33  2  0
 38 37  1  0
 39 38  1  0
 41 42  1  0
 42 45  1  0
 42 44  1  0
 43 41  2  0
 46 21  1  0
 46 47  1  0
 48 46  1  0
 50 49  2  0
 50 51  1  0
 52 51  1  0
 52 53  1  0
 54 65  2  0
 55 53  1  0
 55 60  1  0
 56 64  1  0
 56 66  1  0
 57 59  1  0
 58 64  1  0
 59 60  2  0
 59 58  1  0
 61 55  2  0
 62 61  1  0
 62 57  2  0
 63 57  1  0
 63 56  1  0
 64 54  1  0
 66 68  2  0
 67 66  1  0
 69 67  1  0
 70 79  2  0
 70 75  1  0
 71 67  1  0
 71 75  1  0
 72 71  1  0
 73 74  1  0
 73 72  1  0
 74 70  1  0
 75 76  2  0
 76 77  1  0
 78 77  2  0
 79 78  1  0
 80 54  1  0
 80 81  1  0
 80 90  1  0
 81 84  1  0
 82 86  1  0
 82 81  1  0
 83 82  2  0
 86 85  1  0
 88 89  1  0
 88 86  1  0
 88 87  1  0
 90 93  1  1
 90 91  1  0
 92 90  1  0
M  ISO  4  11 100  19 100  52 101  53 101
M  END
>  <TORSDO>  (69) 
F 22

>  <SCORE>  (69) 
-7.378

>  <name>  (69) 
70

>  <ligand_id>  (69) 
70

>  <original_smiles>  (69) 
[H]c1c([H])c([H])c2c(c1[H])C([H])([H])C([H])([H])C([H])([H])C2([H])N([H])C(=O)C1([H])N(C(=O)C([H])(N([H])C(=O)C([H])(N([H])C([H])([H])[H])C([H])([H])[H])C(C([H])([H])[H])(C([H])([H])[H])C([H])([H])[H])C([H])([H])c2c([H])c(OC([H])([H])C([H])([H])C([H])([H])C([H])([H])n3c(C([H])([H])[H])c(C([H])(C([H])([H])[H])C([H])([H])[H])c([H])c3C([H])([H])N([H])C(=O)N3C([H])([H])C([H])([H])C([H])([H])C([H])(n4nc(-c5c([H])c([H])c(Oc6c([H])c([H])c(F)c([H])c6F)c([H])c5[H])c(C(=O)N([H])[H])c4N([H])[H])C3([H])[H])c([H])c([H])c2C1([H])[H]

>  <smiles>  (69) 
[H]c1c([H])c([H])c2c(c1[H])C([H])([H])C([H])([H])C([H])([H])C2([H])N([H])C(=O)C1([H])N(C(=O)C([H])(N([H])C(=O)C([H])(N([H])C([H])([H])[H])C([H])([H])[H])C(C([H])([H])[H])(C([H])([H])[H])C([H])([H])[H])C([H])([H])c2c([H])c(OC([H])([H])C([H])([H])C([H])([H])C([H])([H])n3c(C([H])([H])[H])c(C([H])(C([H])([H])[H])C([H])([H])[H])c([H])c3C([H])([H])N([H])C(=O)N3C([H])([H])C([H])([H])C([H])([H])C([H])(n4nc(-c5c([H])c([H])c(Oc6c([H])c([H])c(F)c([H])c6F)c([H])c5[H])c(C(=O)N([H])[H])c4N([H])[H])C3([H])[H])c([H])c([H])c2C1([H])[H]

$$$$
71:0:0
     RDKit          3D

 94102  0  0  1  0  0  0  0  0999 V2000
  -30.1300  -21.1380   22.2890 C   0  0  0  0  0  2  0  0  0  0  0  0
  -29.5680  -18.7480   21.7200 C   0  0  0  0  0  3  0  0  0  0  0  0
  -30.7460  -19.8380   20.1740 C   0  0  0  0  0  3  0  0  0  0  0  0
  -29.8140  -17.8520   20.7110 C   0  0  0  0  0  0  0  0  0  0  0  0
  -30.5630  -18.5570   19.7180 C   0  0  0  0  0  0  0  0  0  0  0  0
  -30.1320  -19.9720   21.4050 N   0  0  0  0  0  0  0  0  0  0  0  0
  -32.5940  -18.0750   18.3080 C   0  0  0  0  0  1  0  0  0  0  0  0
  -30.3910  -18.7090   17.2170 C   0  0  0  0  0  1  0  0  0  0  0  0
  -31.0640  -18.0050   18.4000 C   0  0  0  0  0  3  0  0  0  0  0  0
  -29.3710  -16.3940   20.6710 C   0  0  0  0  0  2  0  0  0  0  0  0
  -30.8450  -14.5010   20.1310 C   0  0  0  0  0  0  0  0  0  0  0  0
  -30.4300  -12.3770   18.9350 C   0  0  0  0  0  2  0  0  0  0  0  0
  -29.4440  -12.5810   17.7690 C   0  0  0  0  0  2  0  0  0  0  0  0
  -27.9920  -12.4410   18.2580 C   0  0  0  0  0  2  0  0  0  0  0  0
  -27.7080  -13.3050   19.5130 C   0  0  0  0  0  3  0  0  0  0  0  0
  -28.7960  -13.0890   20.5880 C   0  0  0  0  0  2  0  0  0  0  0  0
  -30.1080  -13.3660   19.9770 N   0  0  0  0  0  0  0  0  0  0  0  0
  -31.9180  -14.6760   19.5430 O   0  0  0  0  0  0  0  0  0  0  0  0
  -31.3070  -15.8230   22.1060 C   0  0  0  0  0  1  0  0  0  0  0  0
  -30.3990  -15.3980   21.0380 N   0  0  0  0  0  0  0  0  0  0  0  0
  -25.3500  -13.9670   20.3030 C   0  0  0  0  0  0  0  0  0  0  0  0
  -24.2820  -13.2160   20.7100 C   0  0  0  0  0  0  0  0  0  0  0  0
  -24.7180  -11.8550   20.6730 C   0  0  0  0  0  0  0  0  0  0  0  0
  -26.3700  -13.0630   20.0400 N   0  0  0  0  0  0  0  0  0  0  0  0
  -25.9940  -11.7900   20.3220 N   0  0  0  0  0  0  0  0  0  0  0  0
  -23.9770  -10.6070   20.8930 C   0  0  0  0  0  0  0  0  0  0  0  0
  -24.4160   -9.6450   21.8270 C   0  0  0  0  0  3  0  0  0  0  0  0
  -23.6770   -8.4600   22.0330 C   0  0  0  0  0  3  0  0  0  0  0  0
  -22.4870   -8.2290   21.3020 C   0  0  0  0  0  0  0  0  0  0  0  0
  -22.0690   -9.1810   20.3560 C   0  0  0  0  0  3  0  0  0  0  0  0
  -22.8070  -10.3570   20.1490 C   0  0  0  0  0  3  0  0  0  0  0  0
  -21.7180   -7.0970   21.4190 O   0  0  0  0  0  0  0  0  0  0  0  0
  -21.6660   -6.3790   22.5860 C   0  0  0  0  0  0  0  0  0  0  0  0
  -21.2740   -6.9690   23.8070 C   0  0  0  0  0  3  0  0  0  0  0  0
  -21.1680   -6.1800   24.9700 C   0  0  0  0  0  3  0  0  0  0  0  0
  -21.4430   -4.8000   24.9120 C   0  0  0  0  0  0  0  0  0  0  0  0
  -21.8280   -4.2090   23.6950 C   0  0  0  0  0  3  0  0  0  0  0  0
  -21.9360   -4.9970   22.5350 C   0  0  0  0  0  0  0  0  0  0  0  0
  -22.2880   -4.4190   21.3610 F   0  0  0  0  0  0  0  0  0  0  0  0
  -21.3330   -4.0390   26.0240 F   0  0  0  0  0  0  0  0  0  0  0  0
  -22.9030  -13.7180   21.0280 C   0  0  0  0  0  0  0  0  0  0  0  0
  -22.1930  -13.0390   21.9220 N   0  0  0  0  0  0  0  0  0  0  0  0
  -22.4660  -14.7480   20.5160 O   0  0  0  0  0  0  0  0  0  0  0  0
  -22.5610  -12.2060   22.3550 H   0  0  0  0  0  0  0  0  0  0  0  0
  -21.2700  -13.3590   22.1780 H   0  0  0  0  0  0  0  0  0  0  0  0
  -25.5350  -15.3320   20.1090 N   0  0  0  0  0  0  0  0  0  0  0  0
  -24.7810  -16.0000   20.2330 H   0  0  0  0  0  0  0  0  0  0  0  0
  -26.3790  -15.7520   19.7420 H   0  0  0  0  0  0  0  0  0  0  0  0
  -30.3920  -22.5210   21.6380 C   0  0  0  0  0  2  0  0  0  0  0  0
  -29.2890  -23.0370   20.6850 C   0  0  0  0  0  2  0  0  0  0  0  0
  -29.4490  -24.5290   20.2730 C   0  0  0  0  0  2  0  0  0  0  0  0
  -28.4460  -25.6650   22.3470 C   0  0  0  0  0  1  0  0  0  0  0  0
  -28.3520  -25.4760   20.8220 C   0  0  0  0  0  3  0  0  0  0  0  0
  -28.4460  -26.7750   20.2050 O   0  0  0  0  0  0  0  0  0  0  0  0
  -24.5710  -31.9320   23.2320 C   0  0  0  0  0  0  0  0  0  0  0  0
  -27.2780  -27.5110   20.1810 C   0  0  0  0  0  0  0  0  0  0  0  0
  -23.3890  -30.5150   21.5850 C   0  0  0  0  0  3  0  0  0  0  0  0
  -24.8710  -28.9970   20.1670 C   0  0  0  0  0  0  0  0  0  0  0  0
  -25.9130  -30.9010   21.4030 C   0  0  0  0  0  2  0  0  0  0  0  0
  -26.0210  -29.5330   20.7640 C   0  0  0  0  0  0  0  0  0  0  0  0
  -27.2310  -28.7980   20.7660 C   0  0  0  0  0  3  0  0  0  0  0  0
  -26.1160  -26.9930   19.5720 C   0  0  0  0  0  3  0  0  0  0  0  0
  -24.9140  -27.7280   19.5670 C   0  0  0  0  0  3  0  0  0  0  0  0
  -23.6140  -29.8370   20.2080 C   0  0  0  0  0  2  0  0  0  0  0  0
  -24.6420  -31.1310   22.1310 N   0  0  0  0  0  0  0  0  0  0  0  0
  -23.4830  -32.1950   23.7650 O   0  0  0  0  0  0  0  0  0  0  0  0
  -22.7440  -29.4870   22.5420 C   0  0  0  0  0  0  0  0  0  0  0  0
  -21.4220  -29.2950   22.4120 N   0  0  0  0  0  0  0  0  0  0  0  0
  -23.4310  -28.8670   23.3560 O   0  0  0  0  0  0  0  0  0  0  0  0
  -20.9280  -29.8500   21.7260 H   0  0  0  0  0  0  0  0  0  0  0  0
  -18.0530  -28.0810   22.9040 C   0  0  0  0  0  0  0  0  0  0  0  0
  -20.6090  -28.3510   23.1800 C   0  0  0  0  0  3  0  0  0  0  0  0
  -20.7190  -26.9210   22.5990 C   0  0  0  0  0  2  0  0  0  0  0  0
  -19.6200  -26.5970   21.5830 C   0  0  0  0  0  2  0  0  0  0  0  0
  -18.2370  -26.7340   22.2250 C   0  0  0  0  0  2  0  0  0  0  0  0
  -19.1690  -28.8470   23.3370 C   0  0  0  0  0  0  0  0  0  0  0  0
  -18.9420  -30.1090   23.9290 C   0  0  0  0  0  3  0  0  0  0  0  0
  -17.6350  -30.6050   24.0910 C   0  0  0  0  0  3  0  0  0  0  0  0
  -16.5350  -29.8360   23.6740 C   0  0  0  0  0  3  0  0  0  0  0  0
  -16.7460  -28.5760   23.0870 C   0  0  0  0  0  3  0  0  0  0  0  0
  -25.8480  -32.5760   23.8580 C   0  0  0  0  0  3  0  0  0  0  0  0
  -25.5250  -33.9720   24.1800 N   0  0  0  0  0  0  0  0  0  0  0  0
  -25.8600  -35.0230   23.4210 C   0  0  0  0  0  0  0  0  0  0  0  0
  -26.5440  -34.9220   22.3980 O   0  0  0  0  0  0  0  0  0  0  0  0
  -24.9150  -34.1240   24.9690 H   0  0  0  0  0  0  0  0  0  0  0  0
  -24.1190  -36.7990   23.0420 C   0  0  0  0  0  1  0  0  0  0  0  0
  -25.3560  -36.4080   23.8680 C   0  0  0  0  0  3  0  0  0  0  0  0
  -27.4770  -37.3080   24.7170 C   0  0  0  0  0  1  0  0  0  0  0  0
  -26.3800  -37.4710   23.7660 N   0  0  0  0  0  0  0  0  0  0  0  0
  -25.9640  -38.3860   23.9150 H   0  0  0  0  0  0  0  0  0  0  0  0
  -26.3700  -31.8120   25.1370 C   0  0  1  0  0  0  0  0  0  0  0  0
  -25.2740  -31.5600   26.1990 C   0  0  0  0  0  1  0  0  0  0  0  0
  -26.9730  -30.4420   24.7460 C   0  0  0  0  0  1  0  0  0  0  0  0
  -27.5070  -32.6220   25.8030 C   0  0  0  0  0  1  0  0  0  0  0  0
  3  6  1  0
  4  2  2  0
  5  3  2  0
  5  4  1  0
  6  2  1  0
  6  1  1  0
  7  9  1  0
  8  9  1  0
  9  5  1  0
 10  4  1  0
 10 20  1  0
 11 20  1  0
 12 17  1  0
 13 14  1  0
 13 12  1  0
 15 14  1  0
 15 24  1  0
 15 16  1  0
 17 11  1  0
 17 16  1  0
 18 11  2  0
 20 19  1  0
 21 22  2  0
 22 41  1  0
 23 22  1  0
 23 26  1  0
 24 21  1  0
 24 25  1  0
 25 23  2  0
 26 27  1  0
 27 28  2  0
 29 32  1  0
 29 28  1  0
 30 29  2  0
 31 30  1  0
 31 26  2  0
 32 33  1  0
 33 34  1  0
 34 35  2  0
 36 35  1  0
 36 40  1  0
 37 36  2  0
 38 33  2  0
 38 37  1  0
 39 38  1  0
 41 42  1  0
 42 45  1  0
 42 44  1  0
 43 41  2  0
 46 47  1  0
 46 21  1  0
 48 46  1  0
 49  1  1  0
 50 49  1  0
 51 50  1  0
 51 53  1  0
 53 52  1  0
 54 53  1  0
 55 66  2  0
 56 54  1  0
 56 61  1  0
 57 65  1  0
 57 67  1  0
 58 64  1  0
 58 60  1  0
 59 65  1  0
 60 61  2  0
 60 59  1  0
 62 56  2  0
 63 62  1  0
 63 58  2  0
 64 57  1  0
 65 55  1  0
 67 69  2  0
 68 67  1  0
 70 68  1  0
 71 80  2  0
 71 76  1  0
 72 68  1  0
 72 76  1  0
 73 72  1  0
 74 75  1  0
 74 73  1  0
 75 71  1  0
 76 77  2  0
 77 78  1  0
 79 78  2  0
 80 79  1  0
 81 55  1  0
 81 82  1  0
 81 91  1  0
 82 85  1  0
 83 87  1  0
 83 82  1  0
 84 83  2  0
 87 86  1  0
 89 87  1  0
 89 90  1  0
 89 88  1  0
 91 94  1  1
 91 92  1  0
 93 91  1  0
M  ISO  4  11 100  20 100  53 101  54 101
M  END
>  <TORSDO>  (70) 
F 23

>  <SCORE>  (70) 
-12.224

>  <name>  (70) 
71

>  <ligand_id>  (70) 
71

>  <original_smiles>  (70) 
[H]c1c([H])c([H])c2c(c1[H])C([H])([H])C([H])([H])C([H])([H])C2([H])N([H])C(=O)C1([H])N(C(=O)C([H])(N([H])C(=O)C([H])(N([H])C([H])([H])[H])C([H])([H])[H])C(C([H])([H])[H])(C([H])([H])[H])C([H])([H])[H])C([H])([H])c2c([H])c(OC([H])(C([H])([H])[H])C([H])([H])C([H])([H])C([H])([H])C([H])([H])n3c([H])c(C([H])([H])N(C(=O)N4C([H])([H])C([H])([H])C([H])([H])C([H])(n5nc(-c6c([H])c([H])c(Oc7c([H])c([H])c(F)c([H])c7F)c([H])c6[H])c(C(=O)N([H])[H])c5N([H])[H])C4([H])[H])C([H])([H])[H])c(C([H])(C([H])([H])[H])C([H])([H])[H])c3[H])c([H])c([H])c2C1([H])[H]

>  <smiles>  (70) 
[H]c1c([H])c([H])c2c(c1[H])C([H])([H])C([H])([H])C([H])([H])C2([H])N([H])C(=O)C1([H])N(C(=O)C([H])(N([H])C(=O)C([H])(N([H])C([H])([H])[H])C([H])([H])[H])C(C([H])([H])[H])(C([H])([H])[H])C([H])([H])[H])C([H])([H])c2c([H])c(OC([H])(C([H])([H])[H])C([H])([H])C([H])([H])C([H])([H])C([H])([H])n3c([H])c(C([H])([H])N(C(=O)N4C([H])([H])C([H])([H])C([H])([H])C([H])(n5nc(-c6c([H])c([H])c(Oc7c([H])c([H])c(F)c([H])c7F)c([H])c6[H])c(C(=O)N([H])[H])c5N([H])[H])C4([H])[H])C([H])([H])[H])c(C([H])(C([H])([H])[H])C([H])([H])[H])c3[H])c([H])c([H])c2C1([H])[H]

$$$$
72:0:0
     RDKit          3D

 98106  0  0  1  0  0  0  0  0999 V2000
  -33.9730  -21.0530    9.4470 C   0  0  0  0  0  3  0  0  0  0  0  0
  -33.6860  -21.2030   10.8580 C   0  0  0  0  0  0  0  0  0  0  0  0
  -32.5890  -20.4060   11.3130 C   0  0  0  0  0  0  0  0  0  0  0  0
  -33.1820  -20.2190    8.5730 C   0  0  0  0  0  0  0  0  0  0  0  0
  -31.6860  -19.8460   10.3340 C   0  0  0  0  0  0  0  0  0  0  0  0
  -32.0380  -19.6980    9.0340 N   0  0  0  0  0  0  0  0  0  0  0  0
  -29.5140  -20.0840   11.7170 C   0  0  0  0  0  1  0  0  0  0  0  0
  -30.3540  -17.8700   11.3100 C   0  0  0  0  0  1  0  0  0  0  0  0
  -30.2700  -19.2700   10.6300 C   0  0  2  0  0  0  0  0  0  0  0  0
  -28.5280  -18.1660    9.0160 C   0  0  0  0  0  1  0  0  0  0  0  0
  -29.3790  -19.3840    9.3620 C   0  0  0  0  0  2  0  0  0  0  0  0
  -34.6600  -21.9860   11.8690 C   0  0  0  0  0  2  0  0  0  0  0  0
  -36.2410  -22.2530   11.6350 C   0  0  0  0  0  2  0  0  0  0  0  0
  -36.7660  -23.4910   10.7330 C   0  0  0  0  0  2  0  0  0  0  0  0
  -38.1050  -24.1390   10.8340 O   0  0  0  0  0  0  0  0  0  0  0  0
  -41.5360  -18.2630    8.3070 C   0  0  0  0  0  0  0  0  0  0  0  0
  -39.2730  -23.3710   10.6930 C   0  0  0  0  0  0  0  0  0  0  0  0
  -42.7030  -19.5840   10.0380 C   0  0  0  0  0  3  0  0  0  0  0  0
  -41.7180  -21.8930   10.5340 C   0  0  0  0  0  0  0  0  0  0  0  0
  -41.0500  -20.7170    8.4360 C   0  0  0  0  0  2  0  0  0  0  0  0
  -40.7470  -21.7290    9.5380 C   0  0  0  0  0  0  0  0  0  0  0  0
  -39.5340  -22.4840    9.5980 C   0  0  0  0  0  3  0  0  0  0  0  0
  -40.2820  -23.5150   11.6620 C   0  0  0  0  0  3  0  0  0  0  0  0
  -41.4910  -22.7940   11.5890 C   0  0  0  0  0  3  0  0  0  0  0  0
  -42.9830  -21.0610   10.4290 C   0  0  0  0  0  2  0  0  0  0  0  0
  -41.7270  -19.4760    8.9060 N   0  0  0  0  0  0  0  0  0  0  0  0
  -42.1750  -17.2610    8.6600 O   0  0  0  0  0  0  0  0  0  0  0  0
  -42.2630  -18.8020   11.2990 C   0  0  0  0  0  0  0  0  0  0  0  0
  -42.8350  -17.6040   11.4970 N   0  0  0  0  0  0  0  0  0  0  0  0
  -41.4430  -19.2870   12.0840 O   0  0  0  0  0  0  0  0  0  0  0  0
  -43.4910  -17.2690   10.8050 H   0  0  0  0  0  0  0  0  0  0  0  0
  -42.3290  -14.1530   12.4500 C   0  0  0  0  0  0  0  0  0  0  0  0
  -42.5960  -16.7190   12.6370 C   0  0  0  0  0  3  0  0  0  0  0  0
  -43.9110  -16.4250   13.3940 C   0  0  0  0  0  2  0  0  0  0  0  0
  -44.6080  -15.1480   12.9150 C   0  0  0  0  0  2  0  0  0  0  0  0
  -43.6910  -13.9340   13.0860 C   0  0  0  0  0  2  0  0  0  0  0  0
  -41.8210  -15.4610   12.2250 C   0  0  0  0  0  0  0  0  0  0  0  0
  -40.5640  -15.6070   11.5990 C   0  0  0  0  0  3  0  0  0  0  0  0
  -39.8180  -14.4800   11.2080 C   0  0  0  0  0  3  0  0  0  0  0  0
  -40.3190  -13.1880   11.4450 C   0  0  0  0  0  3  0  0  0  0  0  0
  -41.5700  -13.0280   12.0670 C   0  0  0  0  0  3  0  0  0  0  0  0
  -40.5240  -18.0830    7.1340 C   0  0  0  0  0  3  0  0  0  0  0  0
  -41.0750  -18.6010    5.7490 C   0  0  1  0  0  0  0  0  0  0  0  0
  -42.5930  -18.9010    5.7580 C   0  0  0  0  0  1  0  0  0  0  0  0
  -40.8090  -17.5690    4.6280 C   0  0  0  0  0  1  0  0  0  0  0  0
  -40.3330  -19.8950    5.3430 C   0  0  0  0  0  1  0  0  0  0  0  0
  -39.2890  -18.7900    7.5000 N   0  0  0  0  0  0  0  0  0  0  0  0
  -38.2810  -18.2510    8.1990 C   0  0  0  0  0  0  0  0  0  0  0  0
  -38.2680  -17.0690    8.5520 O   0  0  0  0  0  0  0  0  0  0  0  0
  -39.2530  -19.7770    7.2890 H   0  0  0  0  0  0  0  0  0  0  0  0
  -37.0400  -20.3470    7.5760 C   0  0  0  0  0  1  0  0  0  0  0  0
  -37.0970  -19.1690    8.5630 C   0  0  0  0  0  3  0  0  0  0  0  0
  -36.4530  -18.8330   10.9100 C   0  0  0  0  0  1  0  0  0  0  0  0
  -37.1560  -19.6810    9.9500 N   0  0  0  0  0  0  0  0  0  0  0  0
  -36.7600  -20.6150   10.0050 H   0  0  0  0  0  0  0  0  0  0  0  0
  -32.5270  -20.0340   12.8120 C   0  0  0  0  0  2  0  0  0  0  0  0
  -32.6720  -21.2280   13.7940 C   0  0  0  0  0  2  0  0  0  0  0  0
  -30.3090  -22.1000   14.1900 C   0  0  0  0  0  1  0  0  0  0  0  0
  -31.5470  -21.4460   14.8130 C   0  0  0  0  0  2  0  0  0  0  0  0
  -33.5740  -19.7930    7.0940 C   0  0  0  0  0  2  0  0  0  0  0  0
  -33.8650  -20.6350    4.6430 C   0  0  0  0  0  0  0  0  0  0  0  0
  -35.4780  -20.9360    2.7690 C   0  0  0  0  0  2  0  0  0  0  0  0
  -36.9100  -20.7350    3.3130 C   0  0  0  0  0  2  0  0  0  0  0  0
  -37.4660  -22.0590    3.8670 C   0  0  0  0  0  2  0  0  0  0  0  0
  -36.4640  -22.7760    4.8100 C   0  0  0  0  0  3  0  0  0  0  0  0
  -35.0460  -22.8380    4.2080 C   0  0  0  0  0  2  0  0  0  0  0  0
  -34.6490  -21.4650    3.8760 N   0  0  0  0  0  0  0  0  0  0  0  0
  -33.3790  -19.6120    4.1540 O   0  0  0  0  0  0  0  0  0  0  0  0
  -33.8650  -20.8240    6.0100 N   0  0  0  0  0  0  0  0  0  0  0  0
  -34.3080  -21.6650    6.3430 H   0  0  0  0  0  0  0  0  0  0  0  0
  -36.2330  -25.2720    5.3430 C   0  0  0  0  0  0  0  0  0  0  0  0
  -37.1170  -26.1910    5.8300 C   0  0  0  0  0  0  0  0  0  0  0  0
  -38.3630  -25.5040    5.9720 C   0  0  0  0  0  0  0  0  0  0  0  0
  -36.9440  -24.0930    5.2110 N   0  0  0  0  0  0  0  0  0  0  0  0
  -38.2510  -24.2580    5.5320 N   0  0  0  0  0  0  0  0  0  0  0  0
  -39.6370  -25.9490    6.5500 C   0  0  0  0  0  0  0  0  0  0  0  0
  -40.4660  -26.8760    5.8800 C   0  0  0  0  0  3  0  0  0  0  0  0
  -41.6810  -27.2990    6.4580 C   0  0  0  0  0  3  0  0  0  0  0  0
  -42.0780  -26.7970    7.7220 C   0  0  0  0  0  0  0  0  0  0  0  0
  -41.2620  -25.8560    8.3720 C   0  0  0  0  0  3  0  0  0  0  0  0
  -40.0550  -25.4330    7.7930 C   0  0  0  0  0  3  0  0  0  0  0  0
  -43.2530  -27.1310    8.3500 O   0  0  0  0  0  0  0  0  0  0  0  0
  -43.2710  -27.9350    9.4610 C   0  0  0  0  0  0  0  0  0  0  0  0
  -42.3570  -27.7610   10.5240 C   0  0  0  0  0  3  0  0  0  0  0  0
  -42.4590  -28.5650   11.6760 C   0  0  0  0  0  3  0  0  0  0  0  0
  -43.4730  -29.5360   11.7710 C   0  0  0  0  0  0  0  0  0  0  0  0
  -44.3850  -29.7080   10.7180 C   0  0  0  0  0  3  0  0  0  0  0  0
  -44.2850  -28.9080    9.5650 C   0  0  0  0  0  0  0  0  0  0  0  0
  -45.1800  -29.0620    8.5600 F   0  0  0  0  0  0  0  0  0  0  0  0
  -43.5740  -30.3040   12.8820 F   0  0  0  0  0  0  0  0  0  0  0  0
  -36.8100  -27.6020    6.2410 C   0  0  0  0  0  0  0  0  0  0  0  0
  -37.5590  -28.1340    7.1980 N   0  0  0  0  0  0  0  0  0  0  0  0
  -35.9280  -28.2540    5.6800 O   0  0  0  0  0  0  0  0  0  0  0  0
  -38.3000  -27.6000    7.6310 H   0  0  0  0  0  0  0  0  0  0  0  0
  -37.3910  -29.0820    7.5020 H   0  0  0  0  0  0  0  0  0  0  0  0
  -34.8780  -25.3300    5.0220 N   0  0  0  0  0  0  0  0  0  0  0  0
  -34.3310  -26.1690    5.1570 H   0  0  0  0  0  0  0  0  0  0  0  0
  -34.3200  -24.5410    4.7270 H   0  0  0  0  0  0  0  0  0  0  0  0
  1  2  1  0
  2  3  2  0
  2 12  1  0
  3 56  1  0
  4  6  1  0
  4  1  2  0
  5  9  1  0
  5  3  1  0
  6  5  2  0
  9  8  1  1
  9  7  1  0
 10 11  1  0
 11  9  1  0
 13 12  1  0
 14 15  1  0
 14 13  1  0
 16 27  2  0
 16 26  1  0
 17 15  1  0
 17 23  1  0
 18 25  1  0
 18 28  1  0
 19 24  1  0
 20 26  1  0
 20 21  1  0
 21 22  1  0
 21 19  2  0
 22 17  2  0
 24 23  2  0
 25 19  1  0
 26 18  1  0
 28 29  1  0
 28 30  2  0
 31 29  1  0
 32 36  1  0
 33 29  1  0
 33 34  1  0
 35 36  1  0
 35 34  1  0
 37 32  1  0
 37 33  1  0
 38 37  2  0
 39 40  2  0
 39 38  1  0
 40 41  1  0
 41 32  2  0
 42 47  1  0
 42 16  1  0
 43 44  1  1
 43 42  1  0
 45 43  1  0
 46 43  1  0
 47 48  1  0
 48 49  2  0
 48 52  1  0
 50 47  1  0
 52 51  1  0
 52 54  1  0
 54 55  1  0
 54 53  1  0
 56 57  1  0
 57 59  1  0
 58 59  1  0
 60  4  1  0
 61 69  1  0
 62 63  1  0
 62 67  1  0
 63 64  1  0
 65 64  1  0
 65 74  1  0
 66 65  1  0
 67 66  1  0
 67 61  1  0
 68 61  2  0
 69 70  1  0
 69 60  1  0
 71 72  2  0
 72 73  1  0
 72 91  1  0
 73 76  1  0
 74 71  1  0
 74 75  1  0
 75 73  2  0
 76 81  1  0
 77 78  1  0
 77 76  2  0
 78 79  2  0
 79 82  1  0
 79 80  1  0
 81 80  2  0
 82 83  1  0
 83 88  2  0
 83 84  1  0
 84 85  2  0
 85 86  1  0
 86 90  1  0
 87 86  2  0
 88 87  1  0
 89 88  1  0
 91 92  1  0
 92 95  1  0
 92 94  1  0
 93 91  2  0
 96 97  1  0
 96 71  1  0
 98 96  1  0
M  ISO  4  14 101  15 101  61 100  69 100
M  END
>  <TORSDO>  (71) 
F 25

>  <SCORE>  (71) 
-0.490

>  <name>  (71) 
72

>  <ligand_id>  (71) 
72

>  <original_smiles>  (71) 
[H]c1c([H])c([H])c2c(c1[H])C([H])([H])C([H])([H])C([H])([H])C2([H])N([H])C(=O)C1([H])N(C(=O)C([H])(N([H])C(=O)C([H])(N([H])C([H])([H])[H])C([H])([H])[H])C(C([H])([H])[H])(C([H])([H])[H])C([H])([H])[H])C([H])([H])c2c([H])c(OC([H])([H])C([H])([H])C([H])([H])c3c([H])c(C([H])([H])N([H])C(=O)N4C([H])([H])C([H])([H])C([H])([H])C([H])(n5nc(-c6c([H])c([H])c(Oc7c([H])c([H])c(F)c([H])c7F)c([H])c6[H])c(C(=O)N([H])[H])c5N([H])[H])C4([H])[H])nc(C(C([H])([H])[H])(C([H])([H])[H])C([H])([H])C([H])([H])[H])c3C([H])([H])C([H])([H])C([H])([H])C([H])([H])[H])c([H])c([H])c2C1([H])[H]

>  <smiles>  (71) 
[H]c1c([H])c([H])c2c(c1[H])C([H])([H])C([H])([H])C([H])([H])C2([H])N([H])C(=O)C1([H])N(C(=O)C([H])(N([H])C(=O)C([H])(N([H])C([H])([H])[H])C([H])([H])[H])C(C([H])([H])[H])(C([H])([H])[H])C([H])([H])[H])C([H])([H])c2c([H])c(OC([H])([H])C([H])([H])C([H])([H])c3c([H])c(C([H])([H])N([H])C(=O)N4C([H])([H])C([H])([H])C([H])([H])C([H])(n5nc(-c6c([H])c([H])c(Oc7c([H])c([H])c(F)c([H])c7F)c([H])c6[H])c(C(=O)N([H])[H])c5N([H])[H])C4([H])[H])nc(C(C([H])([H])[H])(C([H])([H])[H])C([H])([H])C([H])([H])[H])c3C([H])([H])C([H])([H])C([H])([H])C([H])([H])[H])c([H])c([H])c2C1([H])[H]

$$$$
73:0:0
     RDKit          3D

 89 97  0  0  1  0  0  0  0  0999 V2000
  -29.7400  -20.7150   21.1130 C   0  0  0  0  0  3  0  0  0  0  0  0
  -30.1290  -17.9120   21.2490 C   0  0  0  0  0  3  0  0  0  0  0  0
  -30.1350  -16.5840   20.5890 C   0  0  0  0  0  0  0  0  0  0  0  0
  -29.7100  -16.7090   19.2240 C   0  0  0  0  0  0  0  0  0  0  0  0
  -29.6240  -19.1580   20.6240 C   0  0  0  0  0  0  0  0  0  0  0  0
  -29.1250  -17.9050   18.7310 C   0  0  0  0  0  0  0  0  0  0  0  0
  -30.0210  -15.6370   18.1900 C   0  0  0  0  0  1  0  0  0  0  0  0
  -28.5540  -18.0020   17.3250 C   0  0  0  0  0  1  0  0  0  0  0  0
  -29.0860  -19.0670   19.4010 N   0  0  0  0  0  0  0  0  0  0  0  0
  -30.8280  -15.2100   21.0920 C   0  0  0  0  0  0  0  0  0  0  0  0
  -30.8370  -12.7740   20.3850 C   0  0  0  0  0  2  0  0  0  0  0  0
  -30.0640  -12.4600   19.0800 C   0  0  0  0  0  2  0  0  0  0  0  0
  -28.5360  -12.4150   19.2860 C   0  0  0  0  0  2  0  0  0  0  0  0
  -27.9830  -13.4370   20.3180 C   0  0  0  0  0  3  0  0  0  0  0  0
  -28.8930  -13.5780   21.5490 C   0  0  0  0  0  2  0  0  0  0  0  0
  -30.2250  -13.9520   21.0620 N   0  0  0  0  0  0  0  0  0  0  0  0
  -32.0600  -15.2250   21.1700 O   0  0  0  0  0  0  0  0  0  0  0  0
  -25.5370  -14.0350   20.7790 C   0  0  0  0  0  0  0  0  0  0  0  0
  -24.4320  -13.2650   21.0170 C   0  0  0  0  0  0  0  0  0  0  0  0
  -24.8910  -11.9140   21.0530 C   0  0  0  0  0  0  0  0  0  0  0  0
  -26.5980  -13.1520   20.6740 N   0  0  0  0  0  0  0  0  0  0  0  0
  -26.2100  -11.8730   20.9130 N   0  0  0  0  0  0  0  0  0  0  0  0
  -24.1430  -10.6540   21.1550 C   0  0  0  0  0  0  0  0  0  0  0  0
  -24.4860   -9.6650   22.1030 C   0  0  0  0  0  3  0  0  0  0  0  0
  -23.7370   -8.4720   22.1950 C   0  0  0  0  0  3  0  0  0  0  0  0
  -22.6340   -8.2580   21.3350 C   0  0  0  0  0  0  0  0  0  0  0  0
  -22.3110   -9.2350   20.3770 C   0  0  0  0  0  3  0  0  0  0  0  0
  -23.0600  -10.4200   20.2830 C   0  0  0  0  0  3  0  0  0  0  0  0
  -21.8650   -7.1190   21.3360 O   0  0  0  0  0  0  0  0  0  0  0  0
  -21.7420   -6.3330   22.4540 C   0  0  0  0  0  0  0  0  0  0  0  0
  -21.2380   -6.8430   23.6710 C   0  0  0  0  0  3  0  0  0  0  0  0
  -21.0650   -5.9860   24.7760 C   0  0  0  0  0  3  0  0  0  0  0  0
  -21.3840   -4.6190   24.6640 C   0  0  0  0  0  0  0  0  0  0  0  0
  -21.8790   -4.1080   23.4510 C   0  0  0  0  0  3  0  0  0  0  0  0
  -22.0550   -4.9630   22.3490 C   0  0  0  0  0  0  0  0  0  0  0  0
  -22.5130   -4.4610   21.1760 F   0  0  0  0  0  0  0  0  0  0  0  0
  -21.2080   -3.7920   25.7210 F   0  0  0  0  0  0  0  0  0  0  0  0
  -23.0140  -13.7480   21.1050 C   0  0  0  0  0  0  0  0  0  0  0  0
  -22.1860  -13.0710   21.8950 N   0  0  0  0  0  0  0  0  0  0  0  0
  -22.6440  -14.7600   20.5120 O   0  0  0  0  0  0  0  0  0  0  0  0
  -22.4960  -12.2530   22.3970 H   0  0  0  0  0  0  0  0  0  0  0  0
  -21.2290  -13.3780   22.0000 H   0  0  0  0  0  0  0  0  0  0  0  0
  -25.7260  -15.4050   20.6140 N   0  0  0  0  0  0  0  0  0  0  0  0
  -24.9530  -16.0600   20.6300 H   0  0  0  0  0  0  0  0  0  0  0  0
  -26.6140  -15.8450   20.4130 H   0  0  0  0  0  0  0  0  0  0  0  0
  -28.8670  -21.9880   20.4520 C   0  0  0  0  0  3  0  0  0  0  0  0
  -29.1640  -23.6270   20.6730 C   0  0  0  0  0  3  0  0  0  0  0  0
  -28.1830  -24.8640   20.1180 C   0  0  0  0  0  3  0  0  0  0  0  0
  -28.4360  -26.3890   20.2070 O   0  0  0  0  0  0  0  0  0  0  0  0
  -24.6390  -31.9260   23.1770 C   0  0  0  0  0  0  0  0  0  0  0  0
  -27.3610  -27.3400   20.1150 C   0  0  0  0  0  0  0  0  0  0  0  0
  -23.4980  -30.5470   21.4800 C   0  0  0  0  0  3  0  0  0  0  0  0
  -25.0030  -29.0310   20.0530 C   0  0  0  0  0  0  0  0  0  0  0  0
  -26.0480  -30.8630   21.3790 C   0  0  0  0  0  2  0  0  0  0  0  0
  -26.1580  -29.4890   20.7000 C   0  0  0  0  0  0  0  0  0  0  0  0
  -27.3380  -28.6590   20.7140 C   0  0  0  0  0  3  0  0  0  0  0  0
  -26.1810  -26.9780   19.4270 C   0  0  0  0  0  3  0  0  0  0  0  0
  -25.0250  -27.7880   19.4030 C   0  0  0  0  0  3  0  0  0  0  0  0
  -23.7600  -29.9050   20.0920 C   0  0  0  0  0  2  0  0  0  0  0  0
  -24.7470  -31.1330   22.0680 N   0  0  0  0  0  0  0  0  0  0  0  0
  -23.5380  -32.1820   23.6860 O   0  0  0  0  0  0  0  0  0  0  0  0
  -22.8150  -29.5080   22.4050 C   0  0  0  0  0  0  0  0  0  0  0  0
  -21.4830  -29.3690   22.2930 N   0  0  0  0  0  0  0  0  0  0  0  0
  -23.4880  -28.8310   23.1880 O   0  0  0  0  0  0  0  0  0  0  0  0
  -20.9980  -29.9670   21.6380 H   0  0  0  0  0  0  0  0  0  0  0  0
  -18.0780  -28.2590   22.8410 C   0  0  0  0  0  0  0  0  0  0  0  0
  -20.6530  -28.4130   23.0330 C   0  0  0  0  0  3  0  0  0  0  0  0
  -20.6820  -27.0180   22.3670 C   0  0  0  0  0  2  0  0  0  0  0  0
  -19.5350  -26.7980   21.3740 C   0  0  0  0  0  2  0  0  0  0  0  0
  -18.1830  -26.9500   22.0760 C   0  0  0  0  0  2  0  0  0  0  0  0
  -19.2390  -28.9540   23.2760 C   0  0  0  0  0  0  0  0  0  0  0  0
  -19.0860  -30.1830   23.9540 C   0  0  0  0  0  3  0  0  0  0  0  0
  -17.8060  -30.7160   24.1980 C   0  0  0  0  0  3  0  0  0  0  0  0
  -16.6610  -30.0160   23.7780 C   0  0  0  0  0  3  0  0  0  0  0  0
  -16.7990  -28.7890   23.1060 C   0  0  0  0  0  3  0  0  0  0  0  0
  -25.8950  -32.5640   23.8460 C   0  0  0  0  0  3  0  0  0  0  0  0
  -26.4160  -31.7510   25.0950 C   0  0  1  0  0  0  0  0  0  0  0  0
  -25.3180  -31.4390   26.1400 C   0  0  0  0  0  1  0  0  0  0  0  0
  -27.0380  -30.4080   24.6540 C   0  0  0  0  0  1  0  0  0  0  0  0
  -27.5390  -32.5440   25.8030 C   0  0  0  0  0  1  0  0  0  0  0  0
  -25.5410  -33.9370   24.2410 N   0  0  0  0  0  0  0  0  0  0  0  0
  -25.9100  -35.0420   23.5790 C   0  0  0  0  0  0  0  0  0  0  0  0
  -26.6510  -35.0130   22.5930 O   0  0  0  0  0  0  0  0  0  0  0  0
  -24.8930  -34.0330   25.0090 H   0  0  0  0  0  0  0  0  0  0  0  0
  -24.2070  -36.8570   23.2060 C   0  0  0  0  0  1  0  0  0  0  0  0
  -25.3730  -36.3930   24.0930 C   0  0  0  0  0  3  0  0  0  0  0  0
  -27.4140  -37.2180   25.1820 C   0  0  0  0  0  1  0  0  0  0  0  0
  -26.4040  -37.4520   24.1530 N   0  0  0  0  0  0  0  0  0  0  0  0
  -25.9790  -38.3580   24.3280 H   0  0  0  0  0  0  0  0  0  0  0  0
  3 10  1  0
  3  2  2  0
  4  3  1  0
  5  1  1  0
  5  2  1  0
  6  4  2  0
  6  9  1  0
  7  4  1  0
  8  6  1  0
  9  5  2  0
 10 17  2  0
 11 16  1  0
 12 13  1  0
 12 11  1  0
 14 13  1  0
 14 21  1  0
 14 15  1  0
 16 10  1  0
 16 15  1  0
 18 19  2  0
 19 20  1  0
 19 38  1  0
 20 23  1  0
 21 18  1  0
 21 22  1  0
 22 20  2  0
 23 24  1  0
 24 25  2  0
 26 29  1  0
 26 25  1  0
 27 26  2  0
 28 27  1  0
 28 23  2  0
 29 30  1  0
 30 31  1  0
 31 32  2  0
 33 32  1  0
 33 37  1  0
 34 33  2  0
 35 30  2  0
 35 34  1  0
 36 35  1  0
 38 39  1  0
 39 42  1  0
 39 41  1  0
 40 38  2  0
 43 44  1  0
 43 18  1  0
 45 43  1  0
 46 47  1  0
 46  1  2  0
 48 49  1  0
 48 47  2  0
 50 61  2  0
 51 49  1  0
 51 56  1  0
 52 60  1  0
 52 62  1  0
 53 59  1  0
 53 55  1  0
 54 60  1  0
 55 56  2  0
 55 54  1  0
 57 51  2  0
 58 57  1  0
 58 53  2  0
 59 52  1  0
 60 50  1  0
 62 64  2  0
 63 62  1  0
 65 63  1  0
 66 75  2  0
 66 71  1  0
 67 63  1  0
 67 71  1  0
 68 67  1  0
 69 70  1  0
 69 68  1  0
 70 66  1  0
 71 72  2  0
 72 73  1  0
 74 73  2  0
 75 74  1  0
 76 50  1  0
 76 81  1  0
 76 77  1  0
 77 80  1  1
 77 78  1  0
 79 77  1  0
 81 84  1  0
 82 86  1  0
 82 81  1  0
 83 82  2  0
 86 85  1  0
 86 88  1  0
 88 89  1  0
 88 87  1  0
M  ISO  4   3 100  10 100  48 101  49 101
M  END
>  <TORSDO>  (72) 
F 20

>  <SCORE>  (72) 
-12.403

>  <name>  (72) 
73

>  <ligand_id>  (72) 
73

>  <original_smiles>  (72) 
[H]c1c([H])c([H])c2c(c1[H])C([H])([H])C([H])([H])C([H])([H])C2([H])N([H])C(=O)C1([H])N(C(=O)C([H])(N([H])C(=O)C([H])(N([H])C([H])([H])[H])C([H])([H])[H])C(C([H])([H])[H])(C([H])([H])[H])C([H])([H])[H])C([H])([H])c2c([H])c(OC([H])([H])C([H])([H])C([H])([H])C([H])([H])c3nc(C([H])([H])[H])c(C([H])([H])[H])c(C(=O)N4C([H])([H])C([H])([H])C([H])([H])C([H])(n5nc(-c6c([H])c([H])c(Oc7c([H])c([H])c(F)c([H])c7F)c([H])c6[H])c(C(=O)N([H])[H])c5N([H])[H])C4([H])[H])c3[H])c([H])c([H])c2C1([H])[H]

>  <smiles>  (72) 
[H]c1c([H])c([H])c2c(c1[H])C([H])([H])C([H])([H])C([H])([H])C2([H])N([H])C(=O)C1([H])N(C(=O)C([H])(N([H])C(=O)C([H])(N([H])C([H])([H])[H])C([H])([H])[H])C(C([H])([H])[H])(C([H])([H])[H])C([H])([H])[H])C([H])([H])c2c([H])c(OC([H])([H])C([H])([H])C([H])([H])C([H])([H])c3nc(C([H])([H])[H])c(C([H])([H])[H])c(C(=O)N4C([H])([H])C([H])([H])C([H])([H])C([H])(n5nc(-c6c([H])c([H])c(Oc7c([H])c([H])c(F)c([H])c7F)c([H])c6[H])c(C(=O)N([H])[H])c5N([H])[H])C4([H])[H])c3[H])c([H])c([H])c2C1([H])[H]

$$$$
74:0:0
     RDKit          3D

 93103  0  0  1  0  0  0  0  0999 V2000
  -25.6390  -25.2770   20.8450 C   0  0  1  0  0  0  0  0  0  0  0  0
  -28.5940  -24.4880   21.3160 C   0  0  0  0  0  2  0  0  0  0  0  0
  -27.1080  -25.3320   21.8520 C   0  0  0  0  0  3  0  0  0  0  0  0
  -25.7420  -24.3020   19.4040 C   0  0  1  0  0  0  0  0  0  0  0  0
  -28.5180  -23.4530   19.9100 C   0  0  0  0  0  3  0  0  0  0  0  0
  -24.4640  -23.8890   18.6740 C   0  0  0  0  0  1  0  0  0  0  0  0
  -27.1390  -23.4880   19.0130 N   0  0  0  0  0  2  0  0  0  0  0  0
  -30.6900  -22.5180   19.3630 C   0  0  0  0  0  1  0  0  0  0  0  0
  -29.3460  -22.1060   19.7970 N   0  0  0  0  0  0  0  0  0  0  0  0
  -29.2870  -20.5200   20.3780 C   0  0  0  0  0  3  0  0  0  0  0  0
  -30.1610  -18.9210   19.9550 C   0  0  0  0  0  3  0  0  0  0  0  0
  -30.6900  -15.9190   20.2660 C   0  0  0  0  0  0  0  0  0  0  0  0
  -30.7640  -13.3870   19.5590 C   0  0  0  0  0  2  0  0  0  0  0  0
  -29.9360  -13.0440   18.2960 C   0  0  0  0  0  2  0  0  0  0  0  0
  -28.4750  -12.7240   18.6490 C   0  0  0  0  0  2  0  0  0  0  0  0
  -27.9200  -13.7060   19.7130 C   0  0  0  0  0  3  0  0  0  0  0  0
  -28.8990  -14.0530   20.8660 C   0  0  0  0  0  2  0  0  0  0  0  0
  -30.1360  -14.5810   20.2590 N   0  0  0  0  0  0  0  0  0  0  0  0
  -31.9130  -15.8840   20.0780 O   0  0  0  0  0  0  0  0  0  0  0  0
  -29.9420  -17.2420   20.3050 N   0  0  0  0  0  0  0  0  0  0  0  0
  -28.9650  -17.0550   20.4880 H   0  0  0  0  0  0  0  0  0  0  0  0
  -25.5300  -14.1880   20.4330 C   0  0  0  0  0  0  0  0  0  0  0  0
  -24.4770  -13.3900   20.7670 C   0  0  0  0  0  0  0  0  0  0  0  0
  -24.9700  -12.0450   20.7270 C   0  0  0  0  0  0  0  0  0  0  0  0
  -26.5930  -13.3370   20.1970 N   0  0  0  0  0  0  0  0  0  0  0  0
  -26.2700  -12.0380   20.4430 N   0  0  0  0  0  0  0  0  0  0  0  0
  -24.2510  -10.7700   20.8870 C   0  0  0  0  0  0  0  0  0  0  0  0
  -24.5960   -9.8500   21.9040 C   0  0  0  0  0  3  0  0  0  0  0  0
  -23.8730   -8.6460   22.0530 C   0  0  0  0  0  3  0  0  0  0  0  0
  -22.7890   -8.3560   21.1930 C   0  0  0  0  0  0  0  0  0  0  0  0
  -22.4660   -9.2630   20.1700 C   0  0  0  0  0  3  0  0  0  0  0  0
  -23.1890  -10.4590   20.0130 C   0  0  0  0  0  3  0  0  0  0  0  0
  -22.0480   -7.1980   21.2470 O   0  0  0  0  0  0  0  0  0  0  0  0
  -21.7990   -6.5530   22.4330 C   0  0  0  0  0  0  0  0  0  0  0  0
  -21.1220   -7.1910   23.4940 C   0  0  0  0  0  3  0  0  0  0  0  0
  -20.8260   -6.4760   24.6690 C   0  0  0  0  0  3  0  0  0  0  0  0
  -21.1980   -5.1240   24.7830 C   0  0  0  0  0  0  0  0  0  0  0  0
  -21.8650   -4.4840   23.7230 C   0  0  0  0  0  3  0  0  0  0  0  0
  -22.1650   -5.1970   22.5490 C   0  0  0  0  0  0  0  0  0  0  0  0
  -22.7930   -4.5690   21.5230 F   0  0  0  0  0  0  0  0  0  0  0  0
  -20.9050   -4.4300   25.9090 F   0  0  0  0  0  0  0  0  0  0  0  0
  -23.0650  -13.8410   20.9980 C   0  0  0  0  0  0  0  0  0  0  0  0
  -22.3210  -13.1390   21.8430 N   0  0  0  0  0  0  0  0  0  0  0  0
  -22.6280  -14.8560   20.4530 O   0  0  0  0  0  0  0  0  0  0  0  0
  -22.6820  -12.3180   22.3020 H   0  0  0  0  0  0  0  0  0  0  0  0
  -21.3740  -13.4340   22.0260 H   0  0  0  0  0  0  0  0  0  0  0  0
  -25.6800  -15.5630   20.2750 N   0  0  0  0  0  0  0  0  0  0  0  0
  -24.9200  -16.2310   20.3440 H   0  0  0  0  0  0  0  0  0  0  0  0
  -26.5420  -16.0060   19.9890 H   0  0  0  0  0  0  0  0  0  0  0  0
  -26.7040  -24.9310   23.2240 C   0  0  0  0  0  2  0  0  0  0  0  0
  -25.9400  -23.6900   22.7700 C   0  0  0  0  0  2  0  0  0  0  0  0
  -26.0140  -23.5840   21.1790 C   0  0  0  0  0  3  0  0  0  0  0  0
  -26.9000  -25.9440   19.7420 O   0  0  0  0  0  0  0  0  0  0  0  0
  -24.7190  -32.3330   23.4960 C   0  0  0  0  0  0  0  0  0  0  0  0
  -26.4390  -27.4760   19.7290 C   0  0  0  0  0  0  0  0  0  0  0  0
  -23.2530  -31.1650   21.9010 C   0  0  0  0  0  3  0  0  0  0  0  0
  -24.4140  -29.6580   20.1240 C   0  0  0  0  0  0  0  0  0  0  0  0
  -25.7990  -31.1530   21.5100 C   0  0  0  0  0  2  0  0  0  0  0  0
  -25.6710  -29.8020   20.7290 C   0  0  0  0  0  0  0  0  0  0  0  0
  -26.6540  -28.6980   20.5780 C   0  0  0  0  0  3  0  0  0  0  0  0
  -25.3310  -27.7420   18.8850 C   0  0  0  0  0  3  0  0  0  0  0  0
  -24.2860  -28.6570   19.1620 C   0  0  0  0  0  3  0  0  0  0  0  0
  -23.2880  -30.6480   20.4360 C   0  0  0  0  0  2  0  0  0  0  0  0
  -24.6190  -31.5830   22.3510 N   0  0  0  0  0  0  0  0  0  0  0  0
  -23.7160  -32.6350   24.1660 O   0  0  0  0  0  0  0  0  0  0  0  0
  -22.6080  -30.1180   22.8490 C   0  0  0  0  0  0  0  0  0  0  0  0
  -21.2830  -29.9000   22.7370 N   0  0  0  0  0  0  0  0  0  0  0  0
  -23.2980  -29.5220   23.6780 O   0  0  0  0  0  0  0  0  0  0  0  0
  -20.7720  -30.4350   22.0500 H   0  0  0  0  0  0  0  0  0  0  0  0
  -18.0210  -28.3440   23.0890 C   0  0  0  0  0  0  0  0  0  0  0  0
  -20.5090  -28.9190   23.5040 C   0  0  0  0  0  3  0  0  0  0  0  0
  -20.8090  -27.4810   23.0180 C   0  0  0  0  0  2  0  0  0  0  0  0
  -19.8240  -26.9860   21.9550 C   0  0  0  0  0  2  0  0  0  0  0  0
  -18.3930  -26.9990   22.4940 C   0  0  0  0  0  2  0  0  0  0  0  0
  -19.0100  -29.2540   23.5480 C   0  0  0  0  0  0  0  0  0  0  0  0
  -18.5990  -30.5000   24.0680 C   0  0  0  0  0  3  0  0  0  0  0  0
  -17.2350  -30.8440   24.1250 C   0  0  0  0  0  3  0  0  0  0  0  0
  -16.2610  -29.9380   23.6730 C   0  0  0  0  0  3  0  0  0  0  0  0
  -16.6550  -28.6870   23.1640 C   0  0  0  0  0  3  0  0  0  0  0  0
  -26.0930  -32.8520   24.0170 C   0  0  0  0  0  3  0  0  0  0  0  0
  -25.9220  -34.2490   24.4590 N   0  0  0  0  0  0  0  0  0  0  0  0
  -26.2480  -35.3300   23.7310 C   0  0  0  0  0  0  0  0  0  0  0  0
  -26.7800  -35.2450   22.6220 O   0  0  0  0  0  0  0  0  0  0  0  0
  -25.4450  -34.3890   25.3390 H   0  0  0  0  0  0  0  0  0  0  0  0
  -24.6270  -37.2610   23.7100 C   0  0  0  0  0  1  0  0  0  0  0  0
  -25.9340  -36.7220   24.3210 C   0  0  0  0  0  3  0  0  0  0  0  0
  -28.2180  -37.4170   24.9120 C   0  0  0  0  0  1  0  0  0  0  0  0
  -27.0230  -37.7080   24.1180 N   0  0  0  0  0  0  0  0  0  0  0  0
  -26.7120  -38.6480   24.3450 H   0  0  0  0  0  0  0  0  0  0  0  0
  -26.6670  -31.9810   25.2050 C   0  0  1  0  0  0  0  0  0  0  0  0
  -25.6610  -31.7550   26.3600 C   0  0  0  0  0  1  0  0  0  0  0  0
  -27.1150  -30.5890   24.7110 C   0  0  0  0  0  1  0  0  0  0  0  0
  -27.9380  -32.6540   25.7800 C   0  0  0  0  0  1  0  0  0  0  0  0
  1 53  1  6
  1 52  1  0
  1  3  1  0
  3  2  1  0
  3 50  1  0
  4  6  1  6
  4  1  1  0
  4 52  1  0
  5  9  1  0
  5  2  1  0
  7  4  1  0
  7  5  1  0
  8  9  1  0
  9 10  1  0
 11 20  1  0
 11 10  2  0
 12 20  1  0
 13 18  1  0
 14 15  1  0
 14 13  1  0
 16 15  1  0
 16 25  1  0
 16 17  1  0
 18 12  1  0
 18 17  1  0
 19 12  2  0
 20 21  1  0
 22 23  2  0
 23 42  1  0
 24 23  1  0
 24 27  1  0
 25 22  1  0
 25 26  1  0
 26 24  2  0
 27 28  1  0
 28 29  2  0
 30 33  1  0
 30 29  1  0
 31 30  2  0
 32 31  1  0
 32 27  2  0
 33 34  1  0
 34 39  2  0
 34 35  1  0
 35 36  2  0
 36 37  1  0
 37 41  1  0
 38 37  2  0
 39 38  1  0
 40 39  1  0
 42 43  1  0
 43 46  1  0
 43 45  1  0
 44 42  2  0
 47 48  1  0
 47 22  1  0
 49 47  1  0
 51 50  1  0
 52 51  1  0
 54 65  2  0
 55 53  1  0
 55 60  1  0
 56 64  1  0
 56 66  1  0
 57 63  1  0
 57 59  1  0
 58 64  1  0
 59 58  1  0
 60 59  2  0
 61 62  1  0
 61 55  2  0
 62 57  2  0
 63 56  1  0
 64 54  1  0
 66 68  2  0
 67 66  1  0
 69 67  1  0
 70 79  2  0
 70 75  1  0
 71 67  1  0
 71 75  1  0
 72 71  1  0
 73 74  1  0
 73 72  1  0
 74 70  1  0
 75 76  2  0
 76 77  1  0
 78 77  2  0
 79 78  1  0
 80 54  1  0
 80 81  1  0
 80 90  1  0
 81 84  1  0
 82 86  1  0
 82 81  1  0
 83 82  2  0
 86 85  1  0
 88 86  1  0
 88 89  1  0
 88 87  1  0
 90 93  1  1
 90 91  1  0
 92 90  1  0
M  ISO  4  12 100  20 100  52 101  53 101
M  END
>  <TORSDO>  (73) 
F 22

>  <SCORE>  (73) 
-12.805

>  <name>  (73) 
74

>  <ligand_id>  (73) 
74

>  <original_smiles>  (73) 
[H]c1c([H])c([H])c2c(c1[H])C([H])([H])C([H])([H])C([H])([H])C2([H])N([H])C(=O)C1([H])N(C(=O)C([H])(N([H])C(=O)C([H])(N([H])C([H])([H])[H])C([H])([H])[H])C(C([H])([H])[H])(C([H])([H])[H])C([H])([H])[H])C([H])([H])c2c([H])c(OC([H])([H])C([H])([H])C([H])([H])c3c([H])c(N(C([H])([H])[H])C([H])([H])C([H])([H])N([H])C(=O)N4C([H])([H])C([H])([H])C([H])([H])C([H])(n5nc(-c6c([H])c([H])c(Oc7c([H])c([H])c(F)c([H])c7F)c([H])c6[H])c(C(=O)N([H])[H])c5N([H])[H])C4([H])[H])nc(C([H])([H])[H])c3[H])c([H])c([H])c2C1([H])[H]

>  <smiles>  (73) 
[H]c1c([H])c([H])c2c(c1[H])C([H])([H])C([H])([H])C([H])([H])C2([H])N([H])C(=O)C1([H])N(C(=O)C([H])(N([H])C(=O)C([H])(N([H])C([H])([H])[H])C([H])([H])[H])C(C([H])([H])[H])(C([H])([H])[H])C([H])([H])[H])C([H])([H])c2c([H])c(OC([H])([H])C([H])([H])C([H])([H])c3c([H])c(N(C([H])([H])[H])C([H])([H])C([H])([H])N([H])C(=O)N4C([H])([H])C([H])([H])C([H])([H])C([H])(n5nc(-c6c([H])c([H])c(Oc7c([H])c([H])c(F)c([H])c7F)c([H])c6[H])c(C(=O)N([H])[H])c5N([H])[H])C4([H])[H])nc(C([H])([H])[H])c3[H])c([H])c([H])c2C1([H])[H]

$$$$
75:0:0
     RDKit          3D

 94102  0  0  1  0  0  0  0  0999 V2000
  -28.6420  -22.1560   18.2480 C   0  0  0  0  0  3  0  0  0  0  0  0
  -29.0110  -21.9320   19.6030 C   0  0  0  0  0  0  0  0  0  0  0  0
  -28.4940  -20.9630   17.6160 C   0  0  0  0  0  0  0  0  0  0  0  0
  -29.1660  -20.5480   19.7490 C   0  0  0  0  0  0  0  0  0  0  0  0
  -28.1370  -20.6930   16.1860 C   0  0  0  0  0  1  0  0  0  0  0  0
  -28.7240  -19.9640   18.5500 N   0  0  0  0  0  0  0  0  0  0  0  0
  -29.2010  -23.0970   20.5910 C   0  0  0  0  0  2  0  0  0  0  0  0
  -28.2400  -24.3590   20.4850 C   0  0  0  0  0  2  0  0  0  0  0  0
  -28.5710  -25.5100   19.4660 C   0  0  0  0  0  2  0  0  0  0  0  0
  -28.4600  -26.8910   19.9350 O   0  0  0  0  0  0  0  0  0  0  0  0
  -24.6160  -31.9870   23.1620 C   0  0  0  0  0  0  0  0  0  0  0  0
  -27.2670  -27.6090   19.9300 C   0  0  0  0  0  0  0  0  0  0  0  0
  -23.4050  -30.6050   21.5090 C   0  0  0  0  0  3  0  0  0  0  0  0
  -24.8550  -29.1180   20.0200 C   0  0  0  0  0  0  0  0  0  0  0  0
  -25.9230  -30.9980   21.2700 C   0  0  0  0  0  2  0  0  0  0  0  0
  -26.0180  -29.6370   20.5990 C   0  0  0  0  0  0  0  0  0  0  0  0
  -27.2230  -28.8890   20.5500 C   0  0  0  0  0  3  0  0  0  0  0  0
  -26.0800  -27.1160   19.3460 C   0  0  0  0  0  3  0  0  0  0  0  0
  -24.8840  -27.8620   19.3910 C   0  0  0  0  0  3  0  0  0  0  0  0
  -23.5980  -29.9590   20.1110 C   0  0  0  0  0  2  0  0  0  0  0  0
  -24.6680  -31.2130   22.0380 N   0  0  0  0  0  0  0  0  0  0  0  0
  -23.5430  -32.2270   23.7300 O   0  0  0  0  0  0  0  0  0  0  0  0
  -22.7870  -29.5540   22.4610 C   0  0  0  0  0  0  0  0  0  0  0  0
  -21.4670  -29.3390   22.3420 N   0  0  0  0  0  0  0  0  0  0  0  0
  -23.4930  -28.9350   23.2610 O   0  0  0  0  0  0  0  0  0  0  0  0
  -20.9560  -29.8890   21.6660 H   0  0  0  0  0  0  0  0  0  0  0  0
  -18.1380  -28.0180   22.8170 C   0  0  0  0  0  0  0  0  0  0  0  0
  -20.6830  -28.3670   23.1040 C   0  0  0  0  0  3  0  0  0  0  0  0
  -20.8440  -26.9460   22.5160 C   0  0  0  0  0  2  0  0  0  0  0  0
  -19.7580  -26.5920   21.4940 C   0  0  0  0  0  2  0  0  0  0  0  0
  -18.3680  -26.6800   22.1320 C   0  0  0  0  0  2  0  0  0  0  0  0
  -19.2260  -28.8150   23.2600 C   0  0  0  0  0  0  0  0  0  0  0  0
  -18.9600  -30.0650   23.8610 C   0  0  0  0  0  3  0  0  0  0  0  0
  -17.6380  -30.5170   24.0280 C   0  0  0  0  0  3  0  0  0  0  0  0
  -16.5640  -29.7170   23.6020 C   0  0  0  0  0  3  0  0  0  0  0  0
  -16.8140  -28.4700   23.0010 C   0  0  0  0  0  3  0  0  0  0  0  0
  -25.9020  -32.6270   23.7730 C   0  0  0  0  0  3  0  0  0  0  0  0
  -25.5770  -34.0180   24.1200 N   0  0  0  0  0  0  0  0  0  0  0  0
  -25.9190  -35.0860   23.3890 C   0  0  0  0  0  0  0  0  0  0  0  0
  -26.6050  -35.0060   22.3660 O   0  0  0  0  0  0  0  0  0  0  0  0
  -24.9530  -34.1510   24.9020 H   0  0  0  0  0  0  0  0  0  0  0  0
  -24.1890  -36.8850   23.0420 C   0  0  0  0  0  1  0  0  0  0  0  0
  -25.4180  -36.4640   23.8640 C   0  0  0  0  0  3  0  0  0  0  0  0
  -27.5370  -37.3390   24.7410 C   0  0  0  0  0  1  0  0  0  0  0  0
  -26.4470  -37.5240   23.7900 N   0  0  0  0  0  0  0  0  0  0  0  0
  -26.0340  -38.4380   23.9550 H   0  0  0  0  0  0  0  0  0  0  0  0
  -26.4440  -31.8470   25.0340 C   0  0  1  0  0  0  0  0  0  0  0  0
  -25.3700  -31.5900   26.1180 C   0  0  0  0  0  1  0  0  0  0  0  0
  -27.0280  -30.4760   24.6170 C   0  0  0  0  0  1  0  0  0  0  0  0
  -27.5940  -32.6460   25.6920 C   0  0  0  0  0  1  0  0  0  0  0  0
  -29.5980  -19.6400   20.9210 C   0  0  0  0  0  3  0  0  0  0  0  0
  -30.8030  -18.6330   20.7080 C   0  0  0  0  0  3  0  0  0  0  0  0
  -30.9430  -17.4320   21.7240 C   0  0  0  0  0  2  0  0  0  0  0  0
  -31.2820  -15.0110   20.9090 C   0  0  0  0  0  0  0  0  0  0  0  0
  -31.0650  -12.8410   19.7260 C   0  0  0  0  0  2  0  0  0  0  0  0
  -30.1670  -13.0300   18.4830 C   0  0  0  0  0  2  0  0  0  0  0  0
  -28.6770  -12.8830   18.8520 C   0  0  0  0  0  2  0  0  0  0  0  0
  -28.2830  -13.7050   20.1090 C   0  0  0  0  0  3  0  0  0  0  0  0
  -29.2960  -13.4900   21.2550 C   0  0  0  0  0  2  0  0  0  0  0  0
  -30.6300  -13.8230   20.7340 N   0  0  0  0  0  0  0  0  0  0  0  0
  -32.4620  -15.1640   20.5880 O   0  0  0  0  0  0  0  0  0  0  0  0
  -30.5150  -16.0660   21.3020 N   0  0  0  0  0  0  0  0  0  0  0  0
  -29.5440  -15.8410   21.4610 H   0  0  0  0  0  0  0  0  0  0  0  0
  -25.8850  -14.3070   20.8110 C   0  0  0  0  0  0  0  0  0  0  0  0
  -24.7870  -13.5360   21.0800 C   0  0  0  0  0  0  0  0  0  0  0  0
  -25.2140  -12.1790   20.9420 C   0  0  0  0  0  0  0  0  0  0  0  0
  -26.9140  -13.4220   20.5310 N   0  0  0  0  0  0  0  0  0  0  0  0
  -26.5130  -12.1320   20.6710 N   0  0  0  0  0  0  0  0  0  0  0  0
  -24.4510  -10.9270   21.0000 C   0  0  0  0  0  0  0  0  0  0  0  0
  -24.8330   -9.8670   21.8530 C   0  0  0  0  0  3  0  0  0  0  0  0
  -24.0720   -8.6800   21.9050 C   0  0  0  0  0  3  0  0  0  0  0  0
  -22.9130   -8.5430   21.1030 C   0  0  0  0  0  0  0  0  0  0  0  0
  -22.5500   -9.5930   20.2410 C   0  0  0  0  0  3  0  0  0  0  0  0
  -23.3120  -10.7720   20.1860 C   0  0  0  0  0  3  0  0  0  0  0  0
  -22.1270   -7.4180   21.0680 O   0  0  0  0  0  0  0  0  0  0  0  0
  -22.0040   -6.5910   22.1560 C   0  0  0  0  0  0  0  0  0  0  0  0
  -21.5450   -7.0670   23.4040 C   0  0  0  0  0  3  0  0  0  0  0  0
  -21.3690   -6.1700   24.4770 C   0  0  0  0  0  3  0  0  0  0  0  0
  -21.6390   -4.7990   24.3010 C   0  0  0  0  0  0  0  0  0  0  0  0
  -22.0900   -4.3230   23.0580 C   0  0  0  0  0  3  0  0  0  0  0  0
  -22.2700   -5.2170   21.9890 C   0  0  0  0  0  0  0  0  0  0  0  0
  -22.6840   -4.7510   20.7850 F   0  0  0  0  0  0  0  0  0  0  0  0
  -21.4610   -3.9360   25.3290 F   0  0  0  0  0  0  0  0  0  0  0  0
  -23.3940  -14.0260   21.3500 C   0  0  0  0  0  0  0  0  0  0  0  0
  -22.6270  -13.2830   22.1390 N   0  0  0  0  0  0  0  0  0  0  0  0
  -22.9950  -15.1000   20.9010 O   0  0  0  0  0  0  0  0  0  0  0  0
  -22.9610  -12.4110   22.5220 H   0  0  0  0  0  0  0  0  0  0  0  0
  -21.6900  -13.5890   22.3620 H   0  0  0  0  0  0  0  0  0  0  0  0
  -26.0900  -15.6830   20.7650 N   0  0  0  0  0  0  0  0  0  0  0  0
  -25.3350  -16.3440   20.9090 H   0  0  0  0  0  0  0  0  0  0  0  0
  -26.9580  -16.1290   20.4950 H   0  0  0  0  0  0  0  0  0  0  0  0
  -28.5080  -18.5400   18.2720 C   0  0  0  0  0  2  0  0  0  0  0  0
  -26.8980  -16.5730   18.4940 C   0  0  0  0  0  1  0  0  0  0  0  0
  -27.0940  -18.0840   18.6720 C   0  0  0  0  0  2  0  0  0  0  0  0
  1  2  1  0
  2  4  2  0
  2  7  1  0
  3  1  2  0
  3  6  1  0
  4 51  1  0
  5  3  1  0
  6  4  1  0
  8  7  1  0
  9 10  1  0
  9  8  1  0
 11 22  2  0
 12 10  1  0
 12 17  1  0
 13 21  1  0
 13 23  1  0
 14 20  1  0
 14 16  1  0
 15 21  1  0
 16 15  1  0
 17 16  2  0
 18 19  1  0
 18 12  2  0
 19 14  2  0
 20 13  1  0
 21 11  1  0
 23 25  2  0
 24 23  1  0
 26 24  1  0
 27 36  2  0
 27 32  1  0
 28 24  1  0
 28 32  1  0
 29 28  1  0
 30 31  1  0
 30 29  1  0
 31 27  1  0
 32 33  2  0
 33 34  1  0
 35 34  2  0
 36 35  1  0
 37 11  1  0
 37 38  1  0
 37 47  1  0
 38 41  1  0
 39 43  1  0
 39 38  1  0
 40 39  2  0
 43 42  1  0
 45 43  1  0
 45 46  1  0
 45 44  1  0
 47 50  1  1
 47 48  1  0
 49 47  1  0
 52 51  2  0
 52 53  1  0
 54 62  1  0
 55 60  1  0
 56 57  1  0
 56 55  1  0
 58 57  1  0
 58 67  1  0
 58 59  1  0
 60 54  1  0
 60 59  1  0
 61 54  2  0
 62 63  1  0
 62 53  1  0
 64 65  2  0
 65 84  1  0
 66 69  1  0
 66 65  1  0
 67 68  1  0
 67 64  1  0
 68 66  2  0
 69 70  1  0
 70 71  2  0
 72 71  1  0
 73 72  2  0
 74 73  1  0
 74 69  2  0
 75 72  1  0
 75 76  1  0
 76 77  1  0
 77 78  2  0
 79 78  1  0
 79 83  1  0
 80 79  2  0
 81 76  2  0
 81 80  1  0
 82 81  1  0
 84 85  1  0
 85 88  1  0
 85 87  1  0
 86 84  2  0
 89 64  1  0
 89 90  1  0
 91 89  1  0
 92  6  1  0
 92 94  1  0
 93 94  1  0
M  ISO  4   9 101  10 101  54 100  62 100
M  END
>  <TORSDO>  (74) 
F 24

>  <SCORE>  (74) 
-9.780

>  <name>  (74) 
75

>  <ligand_id>  (74) 
75

>  <original_smiles>  (74) 
[H]c1c([H])c([H])c2c(c1[H])C([H])([H])C([H])([H])C([H])([H])C2([H])N([H])C(=O)C1([H])N(C(=O)C([H])(N([H])C(=O)C([H])(N([H])C([H])([H])[H])C([H])([H])[H])C(C([H])([H])[H])(C([H])([H])[H])C([H])([H])[H])C([H])([H])c2c([H])c(OC([H])([H])C([H])([H])C([H])([H])c3c([H])c(C([H])([H])[H])n(C([H])([H])C([H])([H])C([H])([H])[H])c3C([H])([H])C([H])([H])C([H])([H])N([H])C(=O)N3C([H])([H])C([H])([H])C([H])([H])C([H])(n4nc(-c5c([H])c([H])c(Oc6c([H])c([H])c(F)c([H])c6F)c([H])c5[H])c(C(=O)N([H])[H])c4N([H])[H])C3([H])[H])c([H])c([H])c2C1([H])[H]

>  <smiles>  (74) 
[H]c1c([H])c([H])c2c(c1[H])C([H])([H])C([H])([H])C([H])([H])C2([H])N([H])C(=O)C1([H])N(C(=O)C([H])(N([H])C(=O)C([H])(N([H])C([H])([H])[H])C([H])([H])[H])C(C([H])([H])[H])(C([H])([H])[H])C([H])([H])[H])C([H])([H])c2c([H])c(OC([H])([H])C([H])([H])C([H])([H])c3c([H])c(C([H])([H])[H])n(C([H])([H])C([H])([H])C([H])([H])[H])c3C([H])([H])C([H])([H])C([H])([H])N([H])C(=O)N3C([H])([H])C([H])([H])C([H])([H])C([H])(n4nc(-c5c([H])c([H])c(Oc6c([H])c([H])c(F)c([H])c6F)c([H])c5[H])c(C(=O)N([H])[H])c4N([H])[H])C3([H])[H])c([H])c([H])c2C1([H])[H]

$$$$
76:0:0
     RDKit          3D

 91 99  0  0  1  0  0  0  0  0999 V2000
  -29.1490  -19.6720   19.0930 C   0  0  0  0  0  3  0  0  0  0  0  0
  -29.3240  -20.4720   21.1550 C   0  0  0  0  0  3  0  0  0  0  0  0
  -29.2520  -19.2880   20.4610 C   0  0  0  0  0  0  0  0  0  0  0  0
  -29.1880  -21.0400   18.9950 C   0  0  0  0  0  0  0  0  0  0  0  0
  -29.1340  -21.8950   17.7720 C   0  0  0  0  0  1  0  0  0  0  0  0
  -29.2990  -21.5600   20.2820 N   0  0  0  0  0  0  0  0  0  0  0  0
  -29.2500  -17.8660   21.0370 C   0  0  0  0  0  3  0  0  0  0  0  0
  -30.3280  -16.9040   20.4470 C   0  0  0  0  0  3  0  0  0  0  0  0
  -30.7650  -14.4930   20.0860 C   0  0  0  0  0  0  0  0  0  0  0  0
  -30.3270  -12.4370   18.7770 C   0  0  0  0  0  2  0  0  0  0  0  0
  -29.2940  -12.7330   17.6680 C   0  0  0  0  0  2  0  0  0  0  0  0
  -27.8530  -12.5910   18.2010 C   0  0  0  0  0  2  0  0  0  0  0  0
  -27.6390  -13.3420   19.5390 C   0  0  0  0  0  3  0  0  0  0  0  0
  -28.7610  -12.9940   20.5360 C   0  0  0  0  0  2  0  0  0  0  0  0
  -30.0500  -13.3410   19.9090 N   0  0  0  0  0  0  0  0  0  0  0  0
  -31.7870  -14.7250   19.4290 O   0  0  0  0  0  0  0  0  0  0  0  0
  -30.1260  -15.2920   22.3040 C   0  0  0  0  0  1  0  0  0  0  0  0
  -30.1960  -15.4750   20.8470 N   0  0  0  0  0  0  0  0  0  0  0  0
  -25.3080  -13.9550   20.4380 C   0  0  0  0  0  0  0  0  0  0  0  0
  -24.2580  -13.1820   20.8570 C   0  0  0  0  0  0  0  0  0  0  0  0
  -24.6940  -11.8270   20.7400 C   0  0  0  0  0  0  0  0  0  0  0  0
  -26.3180  -13.0690   20.0980 N   0  0  0  0  0  0  0  0  0  0  0  0
  -25.9560  -11.7810   20.3330 N   0  0  0  0  0  0  0  0  0  0  0  0
  -23.9640  -10.5690   20.9350 C   0  0  0  0  0  0  0  0  0  0  0  0
  -24.4400   -9.5660   21.8060 C   0  0  0  0  0  3  0  0  0  0  0  0
  -23.7100   -8.3720   21.9890 C   0  0  0  0  0  3  0  0  0  0  0  0
  -22.4890   -8.1740   21.3010 C   0  0  0  0  0  0  0  0  0  0  0  0
  -22.0310   -9.1670   20.4170 C   0  0  0  0  0  3  0  0  0  0  0  0
  -22.7620  -10.3520   20.2320 C   0  0  0  0  0  3  0  0  0  0  0  0
  -21.7230   -7.0350   21.4000 O   0  0  0  0  0  0  0  0  0  0  0  0
  -21.7210   -6.2650   22.5350 C   0  0  0  0  0  0  0  0  0  0  0  0
  -21.3830   -6.7990   23.7980 C   0  0  0  0  0  3  0  0  0  0  0  0
  -21.3270   -5.9570   24.9250 C   0  0  0  0  0  3  0  0  0  0  0  0
  -21.5980   -4.5820   24.7930 C   0  0  0  0  0  0  0  0  0  0  0  0
  -21.9320   -4.0480   23.5360 C   0  0  0  0  0  3  0  0  0  0  0  0
  -21.9910   -4.8880   22.4090 C   0  0  0  0  0  0  0  0  0  0  0  0
  -22.2910   -4.3650   21.1960 F   0  0  0  0  0  0  0  0  0  0  0  0
  -21.5370   -3.7710   25.8750 F   0  0  0  0  0  0  0  0  0  0  0  0
  -22.8950  -13.6710   21.2540 C   0  0  0  0  0  0  0  0  0  0  0  0
  -22.2280  -12.9590   22.1580 N   0  0  0  0  0  0  0  0  0  0  0  0
  -22.4330  -14.7160   20.7990 O   0  0  0  0  0  0  0  0  0  0  0  0
  -22.6100  -12.1090   22.5420 H   0  0  0  0  0  0  0  0  0  0  0  0
  -21.3230  -13.2770   22.4750 H   0  0  0  0  0  0  0  0  0  0  0  0
  -25.4830  -15.3280   20.3020 N   0  0  0  0  0  0  0  0  0  0  0  0
  -24.7420  -15.9900   20.5080 H   0  0  0  0  0  0  0  0  0  0  0  0
  -26.3150  -15.7670   19.9280 H   0  0  0  0  0  0  0  0  0  0  0  0
  -29.4890  -22.9670   20.7090 C   0  0  0  0  0  2  0  0  0  0  0  0
  -28.6510  -24.1100   20.0290 C   0  0  0  0  0  2  0  0  0  0  0  0
  -27.7340  -25.3820   22.0800 C   0  0  0  0  0  1  0  0  0  0  0  0
  -28.6520  -25.4520   20.8390 C   0  0  0  0  0  3  0  0  0  0  0  0
  -28.4940  -26.6770   20.0670 O   0  0  0  0  0  0  0  0  0  0  0  0
  -24.6060  -31.8330   23.1800 C   0  0  0  0  0  0  0  0  0  0  0  0
  -27.3060  -27.3890   20.1130 C   0  0  0  0  0  0  0  0  0  0  0  0
  -23.4130  -30.3980   21.5550 C   0  0  0  0  0  3  0  0  0  0  0  0
  -24.8850  -28.8640   20.1370 C   0  0  0  0  0  0  0  0  0  0  0  0
  -25.9350  -30.7920   21.3380 C   0  0  0  0  0  2  0  0  0  0  0  0
  -26.0390  -29.4150   20.7070 C   0  0  0  0  0  0  0  0  0  0  0  0
  -27.2530  -28.6850   20.6890 C   0  0  0  0  0  3  0  0  0  0  0  0
  -26.1360  -26.8570   19.5340 C   0  0  0  0  0  3  0  0  0  0  0  0
  -24.9280  -27.5850   19.5490 C   0  0  0  0  0  3  0  0  0  0  0  0
  -23.6260  -29.7030   20.1830 C   0  0  0  0  0  2  0  0  0  0  0  0
  -24.6700  -31.0270   22.0810 N   0  0  0  0  0  0  0  0  0  0  0  0
  -23.5230  -32.0910   23.7270 O   0  0  0  0  0  0  0  0  0  0  0  0
  -22.7870  -29.3780   22.5300 C   0  0  0  0  0  0  0  0  0  0  0  0
  -21.4650  -29.1720   22.4160 N   0  0  0  0  0  0  0  0  0  0  0  0
  -23.4880  -28.7710   23.3450 O   0  0  0  0  0  0  0  0  0  0  0  0
  -20.9660  -29.7000   21.7120 H   0  0  0  0  0  0  0  0  0  0  0  0
  -18.1190  -27.9180   22.9420 C   0  0  0  0  0  0  0  0  0  0  0  0
  -20.6720  -28.2270   23.1990 C   0  0  0  0  0  3  0  0  0  0  0  0
  -20.8020  -26.7950   22.6310 C   0  0  0  0  0  2  0  0  0  0  0  0
  -19.7010  -26.4430   21.6270 C   0  0  0  0  0  2  0  0  0  0  0  0
  -18.3190  -26.5670   22.2750 C   0  0  0  0  0  2  0  0  0  0  0  0
  -19.2240  -28.7030   23.3610 C   0  0  0  0  0  0  0  0  0  0  0  0
  -18.9870  -29.9670   23.9440 C   0  0  0  0  0  3  0  0  0  0  0  0
  -17.6740  -30.4450   24.1160 C   0  0  0  0  0  3  0  0  0  0  0  0
  -16.5820  -29.6570   23.7140 C   0  0  0  0  0  3  0  0  0  0  0  0
  -16.8040  -28.3960   23.1300 C   0  0  0  0  0  3  0  0  0  0  0  0
  -25.8850  -32.4890   23.7890 C   0  0  0  0  0  3  0  0  0  0  0  0
  -25.5490  -33.8770   24.1360 N   0  0  0  0  0  0  0  0  0  0  0  0
  -25.8410  -34.9440   23.3790 C   0  0  0  0  0  0  0  0  0  0  0  0
  -26.4940  -34.8620   22.3340 O   0  0  0  0  0  0  0  0  0  0  0  0
  -24.9690  -34.0100   24.9510 H   0  0  0  0  0  0  0  0  0  0  0  0
  -24.0580  -36.6890   23.0690 C   0  0  0  0  0  1  0  0  0  0  0  0
  -25.3270  -36.3170   23.8530 C   0  0  0  0  0  3  0  0  0  0  0  0
  -27.4580  -37.2530   24.6380 C   0  0  0  0  0  1  0  0  0  0  0  0
  -26.3290  -37.3970   23.7210 N   0  0  0  0  0  0  0  0  0  0  0  0
  -25.9060  -38.3060   23.8780 H   0  0  0  0  0  0  0  0  0  0  0  0
  -26.4390  -31.7200   25.0510 C   0  0  1  0  0  0  0  0  0  0  0  0
  -25.3660  -31.4510   26.1310 C   0  0  0  0  0  1  0  0  0  0  0  0
  -27.0490  -30.3600   24.6370 C   0  0  0  0  0  1  0  0  0  0  0  0
  -27.5810  -32.5350   25.7010 C   0  0  0  0  0  1  0  0  0  0  0  0
  1  3  1  0
  3  7  1  0
  3  2  2  0
  4  1  2  0
  4  6  1  0
  5  4  1  0
  6 47  1  0
  6  2  1  0
  8 18  1  0
  8  7  2  0
  9 18  1  0
 10 15  1  0
 11 12  1  0
 11 10  1  0
 13 12  1  0
 13 22  1  0
 13 14  1  0
 15  9  1  0
 15 14  1  0
 16  9  2  0
 18 17  1  0
 19 20  2  0
 20 39  1  0
 21 20  1  0
 21 24  1  0
 22 23  1  0
 22 19  1  0
 23 21  2  0
 24 25  1  0
 25 26  2  0
 27 30  1  0
 27 26  1  0
 28 27  2  0
 29 28  1  0
 29 24  2  0
 30 31  1  0
 31 32  1  0
 32 33  2  0
 34 33  1  0
 34 38  1  0
 35 34  2  0
 36 31  2  0
 36 35  1  0
 37 36  1  0
 39 40  1  0
 40 43  1  0
 40 42  1  0
 41 39  2  0
 44 19  1  0
 44 45  1  0
 46 44  1  0
 48 47  1  0
 48 50  1  0
 50 49  1  0
 51 53  1  0
 51 50  1  0
 52 63  2  0
 53 58  1  0
 54 62  1  0
 54 64  1  0
 55 61  1  0
 55 57  1  0
 56 62  1  0
 57 56  1  0
 58 57  2  0
 59 60  1  0
 59 53  2  0
 60 55  2  0
 61 54  1  0
 62 52  1  0
 64 66  2  0
 65 64  1  0
 67 65  1  0
 68 77  2  0
 68 73  1  0
 69 65  1  0
 69 73  1  0
 70 69  1  0
 71 72  1  0
 71 70  1  0
 72 68  1  0
 73 74  2  0
 74 75  1  0
 76 75  2  0
 77 76  1  0
 78 52  1  0
 78 79  1  0
 78 88  1  0
 79 82  1  0
 80 84  1  0
 80 79  1  0
 81 80  2  0
 84 83  1  0
 86 84  1  0
 86 87  1  0
 86 85  1  0
 88 91  1  1
 88 89  1  0
 90 88  1  0
M  ISO  4   9 100  18 100  50 101  51 101
M  END
>  <TORSDO>  (75) 
F 21

>  <SCORE>  (75) 
-12.156

>  <name>  (75) 
76

>  <ligand_id>  (75) 
76

>  <original_smiles>  (75) 
[H]c1c([H])c([H])c2c(c1[H])C([H])([H])C([H])([H])C([H])([H])C2([H])N([H])C(=O)C1([H])N(C(=O)C([H])(N([H])C(=O)C([H])(N([H])C([H])([H])[H])C([H])([H])[H])C(C([H])([H])[H])(C([H])([H])[H])C([H])([H])[H])C([H])([H])c2c([H])c(OC([H])(C([H])([H])[H])C([H])([H])C([H])([H])n3c([H])c(C([H])([H])C([H])([H])N(C(=O)N4C([H])([H])C([H])([H])C([H])([H])C([H])(n5nc(-c6c([H])c([H])c(Oc7c([H])c([H])c(F)c([H])c7F)c([H])c6[H])c(C(=O)N([H])[H])c5N([H])[H])C4([H])[H])C([H])([H])[H])c([H])c3C([H])([H])[H])c([H])c([H])c2C1([H])[H]

>  <smiles>  (75) 
[H]c1c([H])c([H])c2c(c1[H])C([H])([H])C([H])([H])C([H])([H])C2([H])N([H])C(=O)C1([H])N(C(=O)C([H])(N([H])C(=O)C([H])(N([H])C([H])([H])[H])C([H])([H])[H])C(C([H])([H])[H])(C([H])([H])[H])C([H])([H])[H])C([H])([H])c2c([H])c(OC([H])(C([H])([H])[H])C([H])([H])C([H])([H])n3c([H])c(C([H])([H])C([H])([H])N(C(=O)N4C([H])([H])C([H])([H])C([H])([H])C([H])(n5nc(-c6c([H])c([H])c(Oc7c([H])c([H])c(F)c([H])c7F)c([H])c6[H])c(C(=O)N([H])[H])c5N([H])[H])C4([H])[H])C([H])([H])[H])c([H])c3C([H])([H])[H])c([H])c([H])c2C1([H])[H]

$$$$
77:0:0
     RDKit          3D

 97105  0  0  1  0  0  0  0  0999 V2000
  -31.7580  -21.5380   21.4570 C   0  0  0  0  0  2  0  0  0  0  0  0
  -32.8110  -20.7810   20.8670 C   0  0  0  0  0  0  0  0  0  0  0  0
  -30.5660  -20.8880   21.2850 C   0  0  0  0  0  3  0  0  0  0  0  0
  -32.2170  -19.6920   20.2810 C   0  0  0  0  0  0  0  0  0  0  0  0
  -30.8690  -19.6420   20.6760 N   0  0  0  0  0  0  0  0  0  0  0  0
  -29.9570  -18.5080   20.3540 C   0  0  0  0  0  2  0  0  0  0  0  0
  -30.2500  -17.1190   21.0940 C   0  0  0  0  0  2  0  0  0  0  0  0
  -30.8270  -14.7140   20.5500 C   0  0  0  0  0  0  0  0  0  0  0  0
  -30.7010  -12.4000   19.6860 C   0  0  0  0  0  2  0  0  0  0  0  0
  -29.8110  -12.3360   18.4270 C   0  0  0  0  0  2  0  0  0  0  0  0
  -28.3120  -12.2380   18.7850 C   0  0  0  0  0  2  0  0  0  0  0  0
  -27.8680  -13.1750   19.9460 C   0  0  0  0  0  3  0  0  0  0  0  0
  -28.8900  -13.1790   21.1060 C   0  0  0  0  0  2  0  0  0  0  0  0
  -30.2030  -13.4980   20.5330 N   0  0  0  0  0  0  0  0  0  0  0  0
  -32.0520  -14.8140   20.4540 O   0  0  0  0  0  0  0  0  0  0  0  0
  -29.5600  -16.0440   18.9770 C   0  0  0  0  0  1  0  0  0  0  0  0
  -30.0450  -15.8270   20.3500 N   0  0  0  0  0  0  0  0  0  0  0  0
  -25.4410  -13.7560   20.5580 C   0  0  0  0  0  0  0  0  0  0  0  0
  -24.3680  -12.9700   20.8840 C   0  0  0  0  0  0  0  0  0  0  0  0
  -24.8570  -11.6300   20.9080 C   0  0  0  0  0  0  0  0  0  0  0  0
  -26.5080  -12.8870   20.3920 N   0  0  0  0  0  0  0  0  0  0  0  0
  -26.1600  -11.6050   20.6660 N   0  0  0  0  0  0  0  0  0  0  0  0
  -24.1450  -10.3600   21.0900 C   0  0  0  0  0  0  0  0  0  0  0  0
  -24.5120   -9.4500   22.1050 C   0  0  0  0  0  3  0  0  0  0  0  0
  -23.8050   -8.2400   22.2740 C   0  0  0  0  0  3  0  0  0  0  0  0
  -22.7140   -7.9340   21.4240 C   0  0  0  0  0  0  0  0  0  0  0  0
  -22.3660   -8.8350   20.4010 C   0  0  0  0  0  3  0  0  0  0  0  0
  -23.0750  -10.0360   20.2320 C   0  0  0  0  0  3  0  0  0  0  0  0
  -21.9840   -6.7720   21.4960 O   0  0  0  0  0  0  0  0  0  0  0  0
  -21.7970   -6.1160   22.6840 C   0  0  0  0  0  0  0  0  0  0  0  0
  -21.1790   -6.7380   23.7920 C   0  0  0  0  0  3  0  0  0  0  0  0
  -20.9410   -5.9990   24.9690 C   0  0  0  0  0  3  0  0  0  0  0  0
  -21.3120   -4.6410   25.0380 C   0  0  0  0  0  0  0  0  0  0  0  0
  -21.9210   -4.0230   23.9320 C   0  0  0  0  0  3  0  0  0  0  0  0
  -22.1560   -4.7560   22.7570 C   0  0  0  0  0  0  0  0  0  0  0  0
  -22.7220   -4.1480   21.6860 F   0  0  0  0  0  0  0  0  0  0  0  0
  -21.0820   -3.9270   26.1650 F   0  0  0  0  0  0  0  0  0  0  0  0
  -22.9510  -13.4260   21.0770 C   0  0  0  0  0  0  0  0  0  0  0  0
  -22.1980  -12.7340   21.9260 N   0  0  0  0  0  0  0  0  0  0  0  0
  -22.5150  -14.4270   20.5120 O   0  0  0  0  0  0  0  0  0  0  0  0
  -22.5520  -11.9110   22.3910 H   0  0  0  0  0  0  0  0  0  0  0  0
  -21.2490  -13.0270   22.0980 H   0  0  0  0  0  0  0  0  0  0  0  0
  -25.5940  -15.1250   20.3650 N   0  0  0  0  0  0  0  0  0  0  0  0
  -24.8200  -15.7760   20.4310 H   0  0  0  0  0  0  0  0  0  0  0  0
  -26.4820  -15.5820   20.1850 H   0  0  0  0  0  0  0  0  0  0  0  0
  -32.8270  -18.6790   19.3350 C   0  0  0  0  0  2  0  0  0  0  0  0
  -33.7230  -18.2310   16.9730 C   0  0  0  0  0  1  0  0  0  0  0  0
  -33.2800  -19.2870   17.9920 C   0  0  0  0  0  2  0  0  0  0  0  0
  -29.2010  -21.4010   21.7430 C   0  0  0  0  0  2  0  0  0  0  0  0
  -28.4380  -22.4530   20.8490 C   0  0  0  0  0  2  0  0  0  0  0  0
  -28.8300  -23.9840   20.8530 C   0  0  0  0  0  2  0  0  0  0  0  0
  -27.6210  -24.9620   20.6190 C   0  0  0  0  0  2  0  0  0  0  0  0
  -27.9000  -26.3930   20.5200 O   0  0  0  0  0  0  0  0  0  0  0  0
  -24.6450  -32.0490   23.4760 C   0  0  0  0  0  0  0  0  0  0  0  0
  -26.8110  -27.2630   20.4780 C   0  0  0  0  0  0  0  0  0  0  0  0
  -23.2760  -30.6920   21.9340 C   0  0  0  0  0  3  0  0  0  0  0  0
  -24.5530  -29.0030   20.5050 C   0  0  0  0  0  0  0  0  0  0  0  0
  -25.8170  -30.8350   21.6330 C   0  0  0  0  0  2  0  0  0  0  0  0
  -25.7710  -29.4370   21.0370 C   0  0  0  0  0  0  0  0  0  0  0  0
  -26.8990  -28.5720   21.0230 C   0  0  0  0  0  3  0  0  0  0  0  0
  -25.5730  -26.8730   19.9140 C   0  0  0  0  0  3  0  0  0  0  0  0
  -24.4540  -27.7250   19.9340 C   0  0  0  0  0  3  0  0  0  0  0  0
  -23.3800  -29.9570   20.5730 C   0  0  0  0  0  2  0  0  0  0  0  0
  -24.6010  -31.2090   22.4020 N   0  0  0  0  0  0  0  0  0  0  0  0
  -23.6060  -32.4210   24.0400 O   0  0  0  0  0  0  0  0  0  0  0  0
  -22.5850  -29.7560   22.9540 C   0  0  0  0  0  0  0  0  0  0  0  0
  -21.2790  -29.5090   22.7620 N   0  0  0  0  0  0  0  0  0  0  0  0
  -23.2280  -29.2460   23.8780 O   0  0  0  0  0  0  0  0  0  0  0  0
  -20.8230  -29.9600   21.9800 H   0  0  0  0  0  0  0  0  0  0  0  0
  -17.9640  -28.0940   23.0510 C   0  0  0  0  0  0  0  0  0  0  0  0
  -20.4400  -28.6290   23.5770 C   0  0  0  0  0  3  0  0  0  0  0  0
  -20.7230  -27.1430   23.2610 C   0  0  0  0  0  2  0  0  0  0  0  0
  -19.7880  -26.5640   22.1940 C   0  0  0  0  0  2  0  0  0  0  0  0
  -18.3270  -26.6800   22.6350 C   0  0  0  0  0  2  0  0  0  0  0  0
  -18.9580  -29.0150   23.4820 C   0  0  0  0  0  0  0  0  0  0  0  0
  -18.5700  -30.3270   23.8270 C   0  0  0  0  0  3  0  0  0  0  0  0
  -17.2220  -30.7230   23.7530 C   0  0  0  0  0  3  0  0  0  0  0  0
  -16.2420  -29.8010   23.3440 C   0  0  0  0  0  3  0  0  0  0  0  0
  -16.6140  -28.4910   23.0000 C   0  0  0  0  0  3  0  0  0  0  0  0
  -25.9970  -32.6060   24.0200 C   0  0  0  0  0  3  0  0  0  0  0  0
  -26.5380  -31.8030   25.2660 C   0  0  1  0  0  0  0  0  0  0  0  0
  -25.4800  -31.5900   26.3730 C   0  0  0  0  0  1  0  0  0  0  0  0
  -27.0580  -30.4130   24.8330 C   0  0  0  0  0  1  0  0  0  0  0  0
  -27.7430  -32.5500   25.8860 C   0  0  0  0  0  1  0  0  0  0  0  0
  -25.7870  -34.0190   24.3670 N   0  0  0  0  0  0  0  0  0  0  0  0
  -26.1600  -35.0510   23.6010 C   0  0  0  0  0  0  0  0  0  0  0  0
  -26.7840  -34.9100   22.5440 O   0  0  0  0  0  0  0  0  0  0  0  0
  -25.2440  -34.2090   25.1960 H   0  0  0  0  0  0  0  0  0  0  0  0
  -24.5330  -36.9480   23.3140 C   0  0  0  0  0  1  0  0  0  0  0  0
  -25.7770  -36.4640   24.0780 C   0  0  0  0  0  3  0  0  0  0  0  0
  -27.9920  -37.2070   24.8290 C   0  0  0  0  0  1  0  0  0  0  0  0
  -26.8670  -37.4520   23.9310 N   0  0  0  0  0  0  0  0  0  0  0  0
  -26.5240  -38.3950   24.0920 H   0  0  0  0  0  0  0  0  0  0  0  0
  -34.2820  -21.1890   20.8340 C   0  0  0  0  0  2  0  0  0  0  0  0
  -34.9580  -19.5850   22.7110 C   0  0  0  0  0  1  0  0  0  0  0  0
  -36.5610  -21.3780   21.9610 C   0  0  0  0  0  1  0  0  0  0  0  0
  -35.0750  -21.0120   22.1530 C   0  0  0  0  0  3  0  0  0  0  0  0
  2  1  1  0
  3  1  1  0
  3 49  1  0
  4  5  1  0
  4  2  2  0
  5  3  1  0
  6  5  1  0
  6  7  1  0
  9 14  1  0
 10 11  1  0
 10  9  1  0
 12 11  1  0
 12 21  1  0
 12 13  1  0
 14  8  1  0
 14 13  1  0
 15  8  2  0
 16 17  1  0
 17  8  1  0
 17  7  1  0
 18 19  2  0
 19 20  1  0
 19 38  1  0
 20 23  1  0
 21 18  1  0
 21 22  1  0
 22 20  2  0
 23 24  1  0
 24 25  2  0
 26 29  1  0
 26 25  1  0
 27 26  2  0
 28 27  1  0
 28 23  2  0
 29 30  1  0
 30 35  2  0
 30 31  1  0
 31 32  2  0
 32 33  1  0
 33 37  1  0
 34 33  2  0
 35 34  1  0
 36 35  1  0
 38 39  1  0
 39 42  1  0
 39 41  1  0
 40 38  2  0
 43 44  1  0
 43 18  1  0
 45 43  1  0
 46  4  1  0
 47 48  1  0
 48 46  1  0
 50 51  1  0
 50 49  1  0
 52 51  1  0
 53 52  1  0
 54 65  2  0
 55 53  1  0
 55 60  1  0
 56 64  1  0
 56 66  1  0
 57 63  1  0
 57 59  1  0
 58 64  1  0
 59 58  1  0
 60 59  2  0
 61 62  1  0
 61 55  2  0
 62 57  2  0
 63 56  1  0
 64 54  1  0
 66 68  2  0
 67 66  1  0
 69 67  1  0
 70 75  1  0
 71 67  1  0
 72 71  1  0
 73 74  1  0
 73 72  1  0
 74 70  1  0
 75 71  1  0
 75 76  2  0
 77 76  1  0
 78 77  2  0
 79 70  2  0
 79 78  1  0
 80 54  1  0
 80 85  1  0
 80 81  1  0
 81 84  1  1
 81 82  1  0
 83 81  1  0
 85 88  1  0
 86 90  1  0
 86 85  1  0
 87 86  2  0
 90 89  1  0
 92 90  1  0
 92 93  1  0
 92 91  1  0
 94  2  1  0
 94 97  1  0
 96 97  1  0
 97 95  1  0
M  ISO  4   8 100  17 100  52 101  53 101
M  END
>  <TORSDO>  (76) 
F 26

>  <SCORE>  (76) 
-11.289

>  <name>  (76) 
77

>  <ligand_id>  (76) 
77

>  <original_smiles>  (76) 
[H]c1c([H])c([H])c2c(c1[H])C([H])([H])C([H])([H])C([H])([H])C2([H])N([H])C(=O)C1([H])N(C(=O)C([H])(N([H])C(=O)C([H])(N([H])C([H])([H])[H])C([H])([H])[H])C(C([H])([H])[H])(C([H])([H])[H])C([H])([H])[H])C([H])([H])c2c([H])c(OC([H])([H])C([H])([H])C([H])([H])C([H])([H])c3c([H])c(C([H])([H])C([H])(C([H])([H])[H])C([H])([H])[H])c(C([H])([H])C([H])([H])C([H])([H])[H])n3C([H])([H])C([H])([H])N(C(=O)N3C([H])([H])C([H])([H])C([H])([H])C([H])(n4nc(-c5c([H])c([H])c(Oc6c([H])c([H])c(F)c([H])c6F)c([H])c5[H])c(C(=O)N([H])[H])c4N([H])[H])C3([H])[H])C([H])([H])[H])c([H])c([H])c2C1([H])[H]

>  <smiles>  (76) 
[H]c1c([H])c([H])c2c(c1[H])C([H])([H])C([H])([H])C([H])([H])C2([H])N([H])C(=O)C1([H])N(C(=O)C([H])(N([H])C(=O)C([H])(N([H])C([H])([H])[H])C([H])([H])[H])C(C([H])([H])[H])(C([H])([H])[H])C([H])([H])[H])C([H])([H])c2c([H])c(OC([H])([H])C([H])([H])C([H])([H])C([H])([H])c3c([H])c(C([H])([H])C([H])(C([H])([H])[H])C([H])([H])[H])c(C([H])([H])C([H])([H])C([H])([H])[H])n3C([H])([H])C([H])([H])N(C(=O)N3C([H])([H])C([H])([H])C([H])([H])C([H])(n4nc(-c5c([H])c([H])c(Oc6c([H])c([H])c(F)c([H])c6F)c([H])c5[H])c(C(=O)N([H])[H])c4N([H])[H])C3([H])[H])C([H])([H])[H])c([H])c([H])c2C1([H])[H]

$$$$
78:0:0
     RDKit          3D

 90 98  0  0  1  0  0  0  0  0999 V2000
  -29.6550  -20.8590   18.4620 C   0  0  0  0  0  3  0  0  0  0  0  0
  -28.9120  -23.2950   17.5400 C   0  0  0  0  0  3  0  0  0  0  0  0
  -30.6160  -21.5040   17.6510 C   0  0  0  0  0  0  0  0  0  0  0  0
  -30.1700  -22.8470   17.0580 C   0  0  0  0  0  0  0  0  0  0  0  0
  -28.4210  -21.4250   18.7780 C   0  0  0  0  0  0  0  0  0  0  0  0
  -27.4210  -20.6800   19.6370 C   0  0  0  0  0  1  0  0  0  0  0  0
  -28.0660  -22.6380   18.3500 N   0  0  0  0  0  0  0  0  0  0  0  0
  -31.9060  -20.4920   17.6110 C   0  0  0  0  0  2  0  0  0  0  0  0
  -32.3090  -19.3820   18.8550 C   0  0  0  0  0  2  0  0  0  0  0  0
  -32.7330  -16.6860   19.3450 C   0  0  0  0  0  0  0  0  0  0  0  0
  -32.7040  -14.1560   19.1220 C   0  0  0  0  0  2  0  0  0  0  0  0
  -31.8310  -13.7080   17.9290 C   0  0  0  0  0  2  0  0  0  0  0  0
  -30.3550  -13.5810   18.3510 C   0  0  0  0  0  2  0  0  0  0  0  0
  -29.8690  -14.7930   19.1900 C   0  0  0  0  0  3  0  0  0  0  0  0
  -30.8740  -15.1850   20.2920 C   0  0  0  0  0  2  0  0  0  0  0  0
  -32.1530  -15.4480   19.6220 N   0  0  0  0  0  0  0  0  0  0  0  0
  -33.9560  -16.7030   19.1760 O   0  0  0  0  0  0  0  0  0  0  0  0
  -31.9420  -17.8450   19.0610 N   0  0  0  0  0  0  0  0  0  0  0  0
  -30.9520  -17.6640   19.1070 H   0  0  0  0  0  0  0  0  0  0  0  0
  -27.5600  -15.5620   19.9710 C   0  0  0  0  0  0  0  0  0  0  0  0
  -26.4380  -14.8760   20.3470 C   0  0  0  0  0  0  0  0  0  0  0  0
  -26.7850  -13.4910   20.2980 C   0  0  0  0  0  0  0  0  0  0  0  0
  -28.5210  -14.6000   19.7080 N   0  0  0  0  0  0  0  0  0  0  0  0
  -28.0650  -13.3480   19.9710 N   0  0  0  0  0  0  0  0  0  0  0  0
  -25.9540  -12.2930   20.4830 C   0  0  0  0  0  0  0  0  0  0  0  0
  -26.1570  -11.4140   21.5700 C   0  0  0  0  0  3  0  0  0  0  0  0
  -25.3310  -10.2820   21.7380 C   0  0  0  0  0  3  0  0  0  0  0  0
  -24.2890  -10.0200   20.8170 C   0  0  0  0  0  0  0  0  0  0  0  0
  -24.1060  -10.8850   19.7250 C   0  0  0  0  0  3  0  0  0  0  0  0
  -24.9310  -12.0090   19.5570 C   0  0  0  0  0  3  0  0  0  0  0  0
  -23.4540   -8.9310   20.8870 O   0  0  0  0  0  0  0  0  0  0  0  0
  -22.9450   -8.4890   22.0820 C   0  0  0  0  0  0  0  0  0  0  0  0
  -22.0680   -9.2790   22.8580 C   0  0  0  0  0  3  0  0  0  0  0  0
  -21.5150   -8.7590   24.0440 C   0  0  0  0  0  3  0  0  0  0  0  0
  -21.8280   -7.4490   24.4530 C   0  0  0  0  0  0  0  0  0  0  0  0
  -22.6970   -6.6580   23.6800 C   0  0  0  0  0  3  0  0  0  0  0  0
  -23.2520   -7.1770   22.4970 C   0  0  0  0  0  0  0  0  0  0  0  0
  -24.0720   -6.4040   21.7440 F   0  0  0  0  0  0  0  0  0  0  0  0
  -21.2920   -6.9450   25.5890 F   0  0  0  0  0  0  0  0  0  0  0  0
  -25.0890  -15.4670   20.6350 C   0  0  0  0  0  0  0  0  0  0  0  0
  -24.3100  -14.8260   21.4990 N   0  0  0  0  0  0  0  0  0  0  0  0
  -24.7370  -16.5320   20.1290 O   0  0  0  0  0  0  0  0  0  0  0  0
  -24.6090  -13.9630   21.9280 H   0  0  0  0  0  0  0  0  0  0  0  0
  -23.4040  -15.2040   21.7350 H   0  0  0  0  0  0  0  0  0  0  0  0
  -27.8350  -16.9150   19.8040 N   0  0  0  0  0  0  0  0  0  0  0  0
  -27.1210  -17.6260   19.9280 H   0  0  0  0  0  0  0  0  0  0  0  0
  -28.6920  -17.2830   19.4130 H   0  0  0  0  0  0  0  0  0  0  0  0
  -30.7590  -24.0310   16.0560 C   0  0  0  0  0  2  0  0  0  0  0  0
  -29.7820  -25.1740   15.2160 C   0  0  0  0  0  2  0  0  0  0  0  0
  -29.4750  -26.6970   15.4610 O   0  0  0  0  0  0  0  0  0  0  0  0
  -25.0130  -28.2250   21.1710 C   0  0  0  0  0  0  0  0  0  0  0  0
  -28.1960  -27.1400   15.9840 C   0  0  0  0  0  0  0  0  0  0  0  0
  -23.9730  -27.6300   19.0210 C   0  0  0  0  0  3  0  0  0  0  0  0
  -25.5050  -27.7040   16.9600 C   0  0  0  0  0  0  0  0  0  0  0  0
  -26.2630  -28.8080   19.0540 C   0  0  0  0  0  2  0  0  0  0  0  0
  -26.6070  -28.1210   17.7180 C   0  0  0  0  0  0  0  0  0  0  0  0
  -27.9450  -27.8650   17.2230 C   0  0  0  0  0  3  0  0  0  0  0  0
  -27.0260  -26.8180   15.2590 C   0  0  0  0  0  3  0  0  0  0  0  0
  -25.7220  -27.0750   15.7270 C   0  0  0  0  0  3  0  0  0  0  0  0
  -24.1050  -27.9410   17.5080 C   0  0  0  0  0  2  0  0  0  0  0  0
  -25.1090  -28.2150   19.8060 N   0  0  0  0  0  0  0  0  0  0  0  0
  -24.0160  -27.7780   21.7570 O   0  0  0  0  0  0  0  0  0  0  0  0
  -23.8150  -26.1010   19.2190 C   0  0  0  0  0  0  0  0  0  0  0  0
  -22.6110  -25.5670   18.9470 N   0  0  0  0  0  0  0  0  0  0  0  0
  -24.7720  -25.4170   19.5920 O   0  0  0  0  0  0  0  0  0  0  0  0
  -21.8700  -26.1920   18.6620 H   0  0  0  0  0  0  0  0  0  0  0  0
  -19.8740  -23.1970   18.7140 C   0  0  0  0  0  0  0  0  0  0  0  0
  -22.2630  -24.1440   19.0180 C   0  0  0  0  0  3  0  0  0  0  0  0
  -22.6040  -23.4180   17.6950 C   0  0  0  0  0  2  0  0  0  0  0  0
  -21.4240  -23.3530   16.7200 C   0  0  0  0  0  2  0  0  0  0  0  0
  -20.2400  -22.6190   17.3570 C   0  0  0  0  0  2  0  0  0  0  0  0
  -20.8180  -23.9270   19.4850 C   0  0  0  0  0  0  0  0  0  0  0  0
  -20.4170  -24.4690   20.7250 C   0  0  0  0  0  3  0  0  0  0  0  0
  -19.1010  -24.2930   21.1960 C   0  0  0  0  0  3  0  0  0  0  0  0
  -18.1740  -23.5600   20.4350 C   0  0  0  0  0  3  0  0  0  0  0  0
  -18.5620  -23.0110   19.2000 C   0  0  0  0  0  3  0  0  0  0  0  0
  -26.1480  -28.8180   22.0610 C   0  0  0  0  0  3  0  0  0  0  0  0
  -27.0020  -27.7100   22.7900 C   0  0  1  0  0  0  0  0  0  0  0  0
  -26.1500  -26.6760   23.5670 C   0  0  0  0  0  1  0  0  0  0  0  0
  -27.8760  -26.9340   21.7770 C   0  0  0  0  0  1  0  0  0  0  0  0
  -27.9740  -28.3780   23.7920 C   0  0  0  0  0  1  0  0  0  0  0  0
  -25.5210  -29.7120   23.0480 N   0  0  0  0  0  0  0  0  0  0  0  0
  -25.4920  -31.0480   22.9620 C   0  0  0  0  0  0  0  0  0  0  0  0
  -26.0560  -31.6700   22.0580 O   0  0  0  0  0  0  0  0  0  0  0  0
  -24.9910  -29.2680   23.7840 H   0  0  0  0  0  0  0  0  0  0  0  0
  -23.3440  -32.2430   23.5110 C   0  0  0  0  0  1  0  0  0  0  0  0
  -24.7180  -31.8180   24.0520 C   0  0  0  0  0  3  0  0  0  0  0  0
  -26.6090  -32.6740   25.3660 C   0  0  0  0  0  1  0  0  0  0  0  0
  -25.4400  -33.0070   24.5580 N   0  0  0  0  0  0  0  0  0  0  0  0
  -24.8240  -33.5890   25.1180 H   0  0  0  0  0  0  0  0  0  0  0  0
  1  5  1  0
  2  7  1  0
  3  1  2  0
  4  2  2  0
  4  3  1  0
  5  6  1  0
  7  5  2  0
  8  3  1  0
  8  9  1  0
  9 18  1  0
 10 16  1  0
 11 16  1  0
 12 13  1  0
 12 11  1  0
 14 13  1  0
 14 23  1  0
 14 15  1  0
 16 15  1  0
 17 10  2  0
 18 19  1  0
 18 10  1  0
 20 21  2  0
 21 40  1  0
 22 21  1  0
 22 25  1  0
 23 24  1  0
 23 20  1  0
 24 22  2  0
 25 26  1  0
 26 27  2  0
 28 31  1  0
 28 27  1  0
 29 28  2  0
 30 29  1  0
 30 25  2  0
 31 32  1  0
 32 37  2  0
 32 33  1  0
 33 34  2  0
 34 35  1  0
 35 39  1  0
 36 35  2  0
 37 36  1  0
 38 37  1  0
 40 41  1  0
 41 44  1  0
 41 43  1  0
 42 40  2  0
 45 46  1  0
 45 20  1  0
 47 45  1  0
 48  4  1  0
 49 50  1  0
 49 48  1  0
 50 52  1  0
 51 62  2  0
 52 57  1  0
 53 63  1  0
 53 61  1  0
 54 60  1  0
 54 56  1  0
 55 61  1  0
 56 55  1  0
 57 56  2  0
 58 59  1  0
 58 52  2  0
 59 54  2  0
 60 53  1  0
 61 51  1  0
 63 65  2  0
 64 63  1  0
 66 64  1  0
 67 76  2  0
 67 72  1  0
 68 64  1  0
 68 72  1  0
 69 68  1  0
 70 71  1  0
 70 69  1  0
 71 67  1  0
 72 73  2  0
 73 74  1  0
 75 74  2  0
 76 75  1  0
 77 51  1  0
 77 78  1  0
 77 82  1  0
 78 79  1  1
 78 81  1  0
 80 78  1  0
 82 85  1  0
 83 82  1  0
 83 87  1  0
 84 83  2  0
 87 86  1  0
 87 89  1  0
 89 90  1  0
 89 88  1  0
M  ISO  4  10 100  18 100  49 101  50 101
M  END
>  <TORSDO>  (77) 
F 20

>  <SCORE>  (77) 
-6.467

>  <name>  (77) 
78

>  <ligand_id>  (77) 
78

>  <original_smiles>  (77) 
[H]c1nc(C([H])([H])[H])c([H])c(C([H])([H])C([H])([H])N([H])C(=O)N2C([H])([H])C([H])([H])C([H])([H])C([H])(n3nc(-c4c([H])c([H])c(Oc5c([H])c([H])c(F)c([H])c5F)c([H])c4[H])c(C(=O)N([H])[H])c3N([H])[H])C2([H])[H])c1C([H])([H])C([H])([H])Oc1c([H])c([H])c2c(c1[H])C([H])([H])N(C(=O)C([H])(N([H])C(=O)C([H])(N([H])C([H])([H])[H])C([H])([H])[H])C(C([H])([H])[H])(C([H])([H])[H])C([H])([H])[H])C([H])(C(=O)N([H])C1([H])c3c([H])c([H])c([H])c([H])c3C([H])([H])C([H])([H])C1([H])[H])C2([H])[H]

>  <smiles>  (77) 
[H]c1nc(C([H])([H])[H])c([H])c(C([H])([H])C([H])([H])N([H])C(=O)N2C([H])([H])C([H])([H])C([H])([H])C([H])(n3nc(-c4c([H])c([H])c(Oc5c([H])c([H])c(F)c([H])c5F)c([H])c4[H])c(C(=O)N([H])[H])c3N([H])[H])C2([H])[H])c1C([H])([H])C([H])([H])Oc1c([H])c([H])c2c(c1[H])C([H])([H])N(C(=O)C([H])(N([H])C(=O)C([H])(N([H])C([H])([H])[H])C([H])([H])[H])C(C([H])([H])[H])(C([H])([H])[H])C([H])([H])[H])C([H])(C(=O)N([H])C1([H])c3c([H])c([H])c([H])c([H])c3C([H])([H])C([H])([H])C1([H])[H])C2([H])[H]

$$$$
79:0:0
     RDKit          3D

 92100  0  0  1  0  0  0  0  0999 V2000
  -30.5650  -19.9660   21.9060 C   0  0  0  0  0  3  0  0  0  0  0  0
  -30.4430  -19.4150   20.6510 C   0  0  0  0  0  0  0  0  0  0  0  0
  -30.0490  -20.4260   19.6890 C   0  0  0  0  0  0  0  0  0  0  0  0
  -29.7770  -21.6660   20.2510 C   0  0  0  0  0  0  0  0  0  0  0  0
  -29.9300  -20.1740   18.2100 C   0  0  0  0  0  1  0  0  0  0  0  0
  -30.1240  -21.6510   21.9570 S   0  0  0  0  0  0  0  0  0  0  0  0
  -32.2200  -17.8830   19.8630 C   0  0  0  0  0  1  0  0  0  0  0  0
  -30.7520  -17.9430   20.3230 C   0  0  0  0  0  3  0  0  0  0  0  0
  -30.4350  -16.9230   21.4780 C   0  0  0  0  0  2  0  0  0  0  0  0
  -30.7000  -14.5320   20.5120 C   0  0  0  0  0  0  0  0  0  0  0  0
  -30.3770  -12.4020   19.2960 C   0  0  0  0  0  2  0  0  0  0  0  0
  -29.4390  -12.6130   18.0890 C   0  0  0  0  0  2  0  0  0  0  0  0
  -27.9620  -12.4750   18.5090 C   0  0  0  0  0  2  0  0  0  0  0  0
  -27.6220  -13.3070   19.7740 C   0  0  0  0  0  3  0  0  0  0  0  0
  -28.6680  -13.0730   20.8860 C   0  0  0  0  0  2  0  0  0  0  0  0
  -29.9980  -13.3760   20.3310 N   0  0  0  0  0  0  0  0  0  0  0  0
  -31.8360  -14.6760   20.0640 O   0  0  0  0  0  0  0  0  0  0  0  0
  -30.0270  -15.5380   21.1100 N   0  0  0  0  0  0  0  0  0  0  0  0
  -29.1060  -15.2730   21.4250 H   0  0  0  0  0  0  0  0  0  0  0  0
  -25.2230  -13.9240   20.4660 C   0  0  0  0  0  0  0  0  0  0  0  0
  -24.1520  -13.1560   20.8390 C   0  0  0  0  0  0  0  0  0  0  0  0
  -24.6110  -11.8020   20.8250 C   0  0  0  0  0  0  0  0  0  0  0  0
  -26.2670  -13.0370   20.2470 N   0  0  0  0  0  0  0  0  0  0  0  0
  -25.9030  -11.7570   20.5220 N   0  0  0  0  0  0  0  0  0  0  0  0
  -23.8820  -10.5420   21.0210 C   0  0  0  0  0  0  0  0  0  0  0  0
  -24.3120   -9.5780   21.9580 C   0  0  0  0  0  3  0  0  0  0  0  0
  -23.5820   -8.3830   22.1430 C   0  0  0  0  0  3  0  0  0  0  0  0
  -22.4080   -8.1450   21.3890 C   0  0  0  0  0  0  0  0  0  0  0  0
  -21.9990   -9.0990   20.4390 C   0  0  0  0  0  3  0  0  0  0  0  0
  -22.7310  -10.2840   20.2530 C   0  0  0  0  0  3  0  0  0  0  0  0
  -21.6500   -7.0030   21.4820 O   0  0  0  0  0  0  0  0  0  0  0  0
  -21.6050   -6.2610   22.6350 C   0  0  0  0  0  0  0  0  0  0  0  0
  -21.1950   -6.8200   23.8660 C   0  0  0  0  0  3  0  0  0  0  0  0
  -21.0960   -6.0040   25.0100 C   0  0  0  0  0  3  0  0  0  0  0  0
  -21.3970   -4.6310   24.9260 C   0  0  0  0  0  0  0  0  0  0  0  0
  -21.8010   -4.0730   23.7000 C   0  0  0  0  0  3  0  0  0  0  0  0
  -21.9010   -4.8860   22.5580 C   0  0  0  0  0  0  0  0  0  0  0  0
  -22.2700   -4.3370   21.3750 F   0  0  0  0  0  0  0  0  0  0  0  0
  -21.2940   -3.8470   26.0230 F   0  0  0  0  0  0  0  0  0  0  0  0
  -22.7530  -13.6370   21.0990 C   0  0  0  0  0  0  0  0  0  0  0  0
  -22.0180  -12.9490   21.9650 N   0  0  0  0  0  0  0  0  0  0  0  0
  -22.3190  -14.6580   20.5650 O   0  0  0  0  0  0  0  0  0  0  0  0
  -22.3830  -12.1260   22.4210 H   0  0  0  0  0  0  0  0  0  0  0  0
  -21.0770  -13.2470   22.1750 H   0  0  0  0  0  0  0  0  0  0  0  0
  -25.3940  -15.2910   20.2720 N   0  0  0  0  0  0  0  0  0  0  0  0
  -24.6310  -15.9540   20.3520 H   0  0  0  0  0  0  0  0  0  0  0  0
  -26.2450  -15.7090   19.9200 H   0  0  0  0  0  0  0  0  0  0  0  0
  -29.1230  -22.8700   19.5810 C   0  0  0  0  0  2  0  0  0  0  0  0
  -29.4920  -24.3410   19.9990 C   0  0  0  0  0  2  0  0  0  0  0  0
  -27.9130  -24.9960   21.8810 C   0  0  0  0  0  1  0  0  0  0  0  0
  -28.2560  -25.2130   20.3980 C   0  0  0  0  0  3  0  0  0  0  0  0
  -28.4040  -26.6480   20.1790 O   0  0  0  0  0  0  0  0  0  0  0  0
  -24.6010  -31.9130   23.2400 C   0  0  0  0  0  0  0  0  0  0  0  0
  -27.2420  -27.4180   20.1650 C   0  0  0  0  0  0  0  0  0  0  0  0
  -23.3960  -30.5070   21.6060 C   0  0  0  0  0  3  0  0  0  0  0  0
  -24.8490  -28.9620   20.1910 C   0  0  0  0  0  0  0  0  0  0  0  0
  -25.9290  -30.8430   21.4150 C   0  0  0  0  0  2  0  0  0  0  0  0
  -26.0130  -29.4710   20.7750 C   0  0  0  0  0  0  0  0  0  0  0  0
  -27.2120  -28.7110   20.7590 C   0  0  0  0  0  3  0  0  0  0  0  0
  -26.0540  -26.9490   19.5540 C   0  0  0  0  0  3  0  0  0  0  0  0
  -24.8660  -27.6990   19.5800 C   0  0  0  0  0  3  0  0  0  0  0  0
  -23.6050  -29.8240   20.2320 C   0  0  0  0  0  2  0  0  0  0  0  0
  -24.6620  -31.1020   22.1450 N   0  0  0  0  0  0  0  0  0  0  0  0
  -23.5180  -32.1930   23.7740 O   0  0  0  0  0  0  0  0  0  0  0  0
  -22.7420  -29.4890   22.5690 C   0  0  0  0  0  0  0  0  0  0  0  0
  -21.4170  -29.3060   22.4430 N   0  0  0  0  0  0  0  0  0  0  0  0
  -23.4250  -28.8640   23.3880 O   0  0  0  0  0  0  0  0  0  0  0  0
  -20.9270  -29.8560   21.7520 H   0  0  0  0  0  0  0  0  0  0  0  0
  -18.0450  -28.1200   22.9590 C   0  0  0  0  0  0  0  0  0  0  0  0
  -20.6030  -28.3730   23.2220 C   0  0  0  0  0  3  0  0  0  0  0  0
  -20.7010  -26.9400   22.6490 C   0  0  0  0  0  2  0  0  0  0  0  0
  -19.5950  -26.6200   21.6400 C   0  0  0  0  0  2  0  0  0  0  0  0
  -18.2140  -26.7700   22.2850 C   0  0  0  0  0  2  0  0  0  0  0  0
  -19.1670  -28.8790   23.3860 C   0  0  0  0  0  0  0  0  0  0  0  0
  -18.9540  -30.1430   23.9770 C   0  0  0  0  0  3  0  0  0  0  0  0
  -17.6530  -30.6480   24.1480 C   0  0  0  0  0  3  0  0  0  0  0  0
  -16.5430  -29.8860   23.7390 C   0  0  0  0  0  3  0  0  0  0  0  0
  -16.7420  -28.6250   23.1500 C   0  0  0  0  0  3  0  0  0  0  0  0
  -25.8850  -32.5460   23.8560 C   0  0  0  0  0  3  0  0  0  0  0  0
  -25.5740  -33.9440   24.1870 N   0  0  0  0  0  0  0  0  0  0  0  0
  -25.9050  -34.9980   23.4290 C   0  0  0  0  0  0  0  0  0  0  0  0
  -26.5800  -34.8930   22.4000 O   0  0  0  0  0  0  0  0  0  0  0  0
  -24.9730  -34.0980   24.9840 H   0  0  0  0  0  0  0  0  0  0  0  0
  -24.1770  -36.7890   23.0660 C   0  0  0  0  0  1  0  0  0  0  0  0
  -25.4150  -36.3860   23.8820 C   0  0  0  0  0  3  0  0  0  0  0  0
  -27.5470  -37.2690   24.7190 C   0  0  0  0  0  1  0  0  0  0  0  0
  -26.4480  -37.4400   23.7710 N   0  0  0  0  0  0  0  0  0  0  0  0
  -26.0420  -38.3600   23.9200 H   0  0  0  0  0  0  0  0  0  0  0  0
  -26.4050  -31.7760   25.1310 C   0  0  1  0  0  0  0  0  0  0  0  0
  -25.3100  -31.5380   26.1980 C   0  0  0  0  0  1  0  0  0  0  0  0
  -26.9910  -30.3990   24.7410 C   0  0  0  0  0  1  0  0  0  0  0  0
  -27.5580  -32.5730   25.7850 C   0  0  0  0  0  1  0  0  0  0  0  0
  1  6  1  0
  2  1  2  0
  3  4  2  0
  3  2  1  0
  4  6  1  0
  5  3  1  0
  8  7  1  0
  8  2  1  0
  8  9  1  0
 10 18  1  0
 11 16  1  0
 12 13  1  0
 12 11  1  0
 14 13  1  0
 14 23  1  0
 14 15  1  0
 16 10  1  0
 16 15  1  0
 17 10  2  0
 18 19  1  0
 18  9  1  0
 20 21  2  0
 21 40  1  0
 22 21  1  0
 22 25  1  0
 23 20  1  0
 23 24  1  0
 24 22  2  0
 25 26  1  0
 26 27  2  0
 28 31  1  0
 28 27  1  0
 29 28  2  0
 30 29  1  0
 30 25  2  0
 31 32  1  0
 32 33  1  0
 33 34  2  0
 35 34  1  0
 35 39  1  0
 36 35  2  0
 37 32  2  0
 37 36  1  0
 38 37  1  0
 40 41  1  0
 41 44  1  0
 41 43  1  0
 42 40  2  0
 45 46  1  0
 45 20  1  0
 47 45  1  0
 48 49  1  0
 48  4  1  0
 49 51  1  0
 51 50  1  0
 52 51  1  0
 53 64  2  0
 54 52  1  0
 54 59  1  0
 55 63  1  0
 55 65  1  0
 56 62  1  0
 56 58  1  0
 57 63  1  0
 58 57  1  0
 59 58  2  0
 60 61  1  0
 60 54  2  0
 61 56  2  0
 62 55  1  0
 63 53  1  0
 65 67  2  0
 66 65  1  0
 68 66  1  0
 69 78  2  0
 69 74  1  0
 70 66  1  0
 70 74  1  0
 71 70  1  0
 72 73  1  0
 72 71  1  0
 73 69  1  0
 74 75  2  0
 75 76  1  0
 77 76  2  0
 78 77  1  0
 79 53  1  0
 79 80  1  0
 79 89  1  0
 80 83  1  0
 81 85  1  0
 81 80  1  0
 82 81  2  0
 85 84  1  0
 87 85  1  0
 87 88  1  0
 87 86  1  0
 89 92  1  1
 89 90  1  0
 91 89  1  0
M  ISO  4  10 100  18 100  51 101  52 101
M  END
>  <TORSDO>  (78) 
F 21

>  <SCORE>  (78) 
-13.700

>  <name>  (78) 
79

>  <ligand_id>  (78) 
79

>  <original_smiles>  (78) 
[H]c1sc(C([H])([H])C([H])([H])C([H])(Oc2c([H])c([H])c3c(c2[H])C([H])([H])N(C(=O)C([H])(N([H])C(=O)C([H])(N([H])C([H])([H])[H])C([H])([H])[H])C(C([H])([H])[H])(C([H])([H])[H])C([H])([H])[H])C([H])(C(=O)N([H])C2([H])c4c([H])c([H])c([H])c([H])c4C([H])([H])C([H])([H])C2([H])[H])C3([H])[H])C([H])([H])[H])c(C([H])([H])[H])c1C([H])(C([H])([H])[H])C([H])([H])N([H])C(=O)N1C([H])([H])C([H])([H])C([H])([H])C([H])(n2nc(-c3c([H])c([H])c(Oc4c([H])c([H])c(F)c([H])c4F)c([H])c3[H])c(C(=O)N([H])[H])c2N([H])[H])C1([H])[H]

>  <smiles>  (78) 
[H]c1sc(C([H])([H])C([H])([H])C([H])(Oc2c([H])c([H])c3c(c2[H])C([H])([H])N(C(=O)C([H])(N([H])C(=O)C([H])(N([H])C([H])([H])[H])C([H])([H])[H])C(C([H])([H])[H])(C([H])([H])[H])C([H])([H])[H])C([H])(C(=O)N([H])C2([H])c4c([H])c([H])c([H])c([H])c4C([H])([H])C([H])([H])C2([H])[H])C3([H])[H])C([H])([H])[H])c(C([H])([H])[H])c1C([H])(C([H])([H])[H])C([H])([H])N([H])C(=O)N1C([H])([H])C([H])([H])C([H])([H])C([H])(n2nc(-c3c([H])c([H])c(Oc4c([H])c([H])c(F)c([H])c4F)c([H])c3[H])c(C(=O)N([H])[H])c2N([H])[H])C1([H])[H]

$$$$
80:0:0
     RDKit          3D

 91 99  0  0  1  0  0  0  0  0999 V2000
  -28.5930  -21.6630   21.1300 C   0  0  0  0  0  2  0  0  0  0  0  0
  -31.1780  -18.9920   20.7960 C   0  0  0  0  0  3  0  0  0  0  0  0
  -28.9720  -19.1990   20.7260 C   0  0  0  0  0  3  0  0  0  0  0  0
  -29.9710  -18.2830   20.5090 C   0  0  0  0  0  0  0  0  0  0  0  0
  -30.8840  -20.3080   21.0850 C   0  0  0  0  0  0  0  0  0  0  0  0
  -31.8640  -21.3990   21.3820 C   0  0  0  0  0  1  0  0  0  0  0  0
  -29.4910  -20.4690   20.9970 N   0  0  0  0  0  0  0  0  0  0  0  0
  -29.8030  -16.8650   19.9200 C   0  0  0  0  0  2  0  0  0  0  0  0
  -30.6410  -14.5720   20.3720 C   0  0  0  0  0  0  0  0  0  0  0  0
  -30.3580  -12.3810   19.2840 C   0  0  0  0  0  2  0  0  0  0  0  0
  -29.4240  -12.5730   18.0690 C   0  0  0  0  0  2  0  0  0  0  0  0
  -27.9430  -12.4360   18.4830 C   0  0  0  0  0  2  0  0  0  0  0  0
  -27.5980  -13.2800   19.7490 C   0  0  0  0  0  3  0  0  0  0  0  0
  -28.6520  -13.0850   20.8610 C   0  0  0  0  0  2  0  0  0  0  0  0
  -29.9810  -13.3810   20.2970 N   0  0  0  0  0  0  0  0  0  0  0  0
  -31.7760  -14.7260   19.9130 O   0  0  0  0  0  0  0  0  0  0  0  0
  -29.9010  -15.6400   20.7520 N   0  0  0  0  0  0  0  0  0  0  0  0
  -29.0560  -15.3880   21.2430 H   0  0  0  0  0  0  0  0  0  0  0  0
  -25.2010  -13.8840   20.4670 C   0  0  0  0  0  0  0  0  0  0  0  0
  -24.1320  -13.1150   20.8380 C   0  0  0  0  0  0  0  0  0  0  0  0
  -24.5880  -11.7640   20.8050 C   0  0  0  0  0  0  0  0  0  0  0  0
  -26.2430  -13.0010   20.2280 N   0  0  0  0  0  0  0  0  0  0  0  0
  -25.8800  -11.7220   20.4930 N   0  0  0  0  0  0  0  0  0  0  0  0
  -23.8570  -10.5040   21.0020 C   0  0  0  0  0  0  0  0  0  0  0  0
  -24.2900   -9.5400   21.9380 C   0  0  0  0  0  3  0  0  0  0  0  0
  -23.5610   -8.3460   22.1300 C   0  0  0  0  0  3  0  0  0  0  0  0
  -22.3840   -8.1070   21.3840 C   0  0  0  0  0  0  0  0  0  0  0  0
  -21.9690   -9.0590   20.4350 C   0  0  0  0  0  3  0  0  0  0  0  0
  -22.6990  -10.2440   20.2420 C   0  0  0  0  0  3  0  0  0  0  0  0
  -21.6280   -6.9650   21.4780 O   0  0  0  0  0  0  0  0  0  0  0  0
  -21.5850   -6.2240   22.6310 C   0  0  0  0  0  0  0  0  0  0  0  0
  -21.1660   -6.7810   23.8590 C   0  0  0  0  0  3  0  0  0  0  0  0
  -21.0690   -5.9630   25.0040 C   0  0  0  0  0  3  0  0  0  0  0  0
  -21.3770   -4.5940   24.9210 C   0  0  0  0  0  0  0  0  0  0  0  0
  -21.7860   -4.0360   23.6970 C   0  0  0  0  0  3  0  0  0  0  0  0
  -21.8860   -4.8490   22.5540 C   0  0  0  0  0  0  0  0  0  0  0  0
  -22.2580   -4.3020   21.3710 F   0  0  0  0  0  0  0  0  0  0  0  0
  -21.2740   -3.8100   26.0200 F   0  0  0  0  0  0  0  0  0  0  0  0
  -22.7280  -13.6030   21.1010 C   0  0  0  0  0  0  0  0  0  0  0  0
  -21.9990  -12.9200   21.9750 N   0  0  0  0  0  0  0  0  0  0  0  0
  -22.2990  -14.6270   20.5760 O   0  0  0  0  0  0  0  0  0  0  0  0
  -22.3710  -12.1050   22.4390 H   0  0  0  0  0  0  0  0  0  0  0  0
  -21.0590  -13.2230   22.1880 H   0  0  0  0  0  0  0  0  0  0  0  0
  -25.3680  -15.2500   20.2730 N   0  0  0  0  0  0  0  0  0  0  0  0
  -24.5860  -15.8920   20.3710 H   0  0  0  0  0  0  0  0  0  0  0  0
  -26.2050  -15.7010   19.9250 H   0  0  0  0  0  0  0  0  0  0  0  0
  -29.1610  -23.1200   21.3050 C   0  0  0  0  0  2  0  0  0  0  0  0
  -26.7730  -24.1460   21.7800 C   0  0  0  0  0  1  0  0  0  0  0  0
  -28.1120  -24.2750   20.9900 C   0  0  0  0  0  3  0  0  0  0  0  0
  -28.7080  -25.7160   21.1770 C   0  0  0  0  0  2  0  0  0  0  0  0
  -28.4200  -26.6800   20.1340 O   0  0  0  0  0  0  0  0  0  0  0  0
  -24.5850  -31.8750   23.2360 C   0  0  0  0  0  0  0  0  0  0  0  0
  -27.2540  -27.4160   20.2080 C   0  0  0  0  0  0  0  0  0  0  0  0
  -23.3920  -30.4800   21.5710 C   0  0  0  0  0  3  0  0  0  0  0  0
  -24.8630  -28.9370   20.1690 C   0  0  0  0  0  0  0  0  0  0  0  0
  -25.9180  -30.8380   21.3980 C   0  0  0  0  0  2  0  0  0  0  0  0
  -26.0110  -29.4590   20.7740 C   0  0  0  0  0  0  0  0  0  0  0  0
  -27.2130  -28.7070   20.7900 C   0  0  0  0  0  3  0  0  0  0  0  0
  -26.0950  -26.9130   19.5890 C   0  0  0  0  0  3  0  0  0  0  0  0
  -24.8990  -27.6640   19.5690 C   0  0  0  0  0  3  0  0  0  0  0  0
  -23.6180  -29.7990   20.1940 C   0  0  0  0  0  2  0  0  0  0  0  0
  -24.6500  -31.0810   22.1260 N   0  0  0  0  0  0  0  0  0  0  0  0
  -23.5040  -32.1440   23.7740 O   0  0  0  0  0  0  0  0  0  0  0  0
  -22.7310  -29.4610   22.5270 C   0  0  0  0  0  0  0  0  0  0  0  0
  -21.4070  -29.2830   22.3970 N   0  0  0  0  0  0  0  0  0  0  0  0
  -23.4080  -28.8320   23.3450 O   0  0  0  0  0  0  0  0  0  0  0  0
  -20.9170  -29.8430   21.7130 H   0  0  0  0  0  0  0  0  0  0  0  0
  -18.0320  -28.0840   22.8800 C   0  0  0  0  0  0  0  0  0  0  0  0
  -20.5890  -28.3410   23.1640 C   0  0  0  0  0  3  0  0  0  0  0  0
  -20.6910  -26.9100   22.5830 C   0  0  0  0  0  2  0  0  0  0  0  0
  -19.5950  -26.5940   21.5610 C   0  0  0  0  0  2  0  0  0  0  0  0
  -18.2110  -26.7380   22.1990 C   0  0  0  0  0  2  0  0  0  0  0  0
  -19.1490  -28.8430   23.3220 C   0  0  0  0  0  0  0  0  0  0  0  0
  -18.9280  -30.1030   23.9170 C   0  0  0  0  0  3  0  0  0  0  0  0
  -17.6230  -30.6070   24.0770 C   0  0  0  0  0  3  0  0  0  0  0  0
  -16.5200  -29.8430   23.6570 C   0  0  0  0  0  3  0  0  0  0  0  0
  -16.7260  -28.5840   23.0630 C   0  0  0  0  0  3  0  0  0  0  0  0
  -25.8690  -32.5040   23.8660 C   0  0  0  0  0  3  0  0  0  0  0  0
  -25.5630  -33.9040   24.1880 N   0  0  0  0  0  0  0  0  0  0  0  0
  -25.9070  -34.9520   23.4290 C   0  0  0  0  0  0  0  0  0  0  0  0
  -26.5850  -34.8410   22.4030 O   0  0  0  0  0  0  0  0  0  0  0  0
  -24.9630  -34.0650   24.9830 H   0  0  0  0  0  0  0  0  0  0  0  0
  -24.1910  -36.7520   23.0570 C   0  0  0  0  0  1  0  0  0  0  0  0
  -25.4230  -36.3430   23.8790 C   0  0  0  0  0  3  0  0  0  0  0  0
  -27.5580  -37.2190   24.7230 C   0  0  0  0  0  1  0  0  0  0  0  0
  -26.4590  -37.3910   23.7760 N   0  0  0  0  0  0  0  0  0  0  0  0
  -26.0550  -38.3110   23.9240 H   0  0  0  0  0  0  0  0  0  0  0  0
  -26.3820  -31.7340   25.1460 C   0  0  1  0  0  0  0  0  0  0  0  0
  -25.2910  -31.5060   26.2140 C   0  0  0  0  0  1  0  0  0  0  0  0
  -26.9530  -30.3500   24.7590 C   0  0  0  0  0  1  0  0  0  0  0  0
  -27.5280  -32.5300   25.8150 C   0  0  0  0  0  1  0  0  0  0  0  0
  1 47  1  0
  2  5  2  0
  3  7  1  0
  4  3  2  0
  4  2  1  0
  5  6  1  0
  7  5  1  0
  7  1  1  0
  8  4  1  0
  8 17  1  0
  9 17  1  0
 10 15  1  0
 11 12  1  0
 11 10  1  0
 13 12  1  0
 13 22  1  0
 13 14  1  0
 15  9  1  0
 15 14  1  0
 16  9  2  0
 17 18  1  0
 19 20  2  0
 20 39  1  0
 21 20  1  0
 21 24  1  0
 22 19  1  0
 22 23  1  0
 23 21  2  0
 24 25  1  0
 25 26  2  0
 27 30  1  0
 27 26  1  0
 28 27  2  0
 29 28  1  0
 29 24  2  0
 30 31  1  0
 31 32  1  0
 32 33  2  0
 34 33  1  0
 34 38  1  0
 35 34  2  0
 36 31  2  0
 36 35  1  0
 37 36  1  0
 39 40  1  0
 40 43  1  0
 40 42  1  0
 41 39  2  0
 44 45  1  0
 44 19  1  0
 46 44  1  0
 49 50  1  0
 49 47  1  0
 49 48  1  0
 51 53  1  0
 51 50  1  0
 52 63  2  0
 53 58  1  0
 54 62  1  0
 54 64  1  0
 55 61  1  0
 55 57  1  0
 56 62  1  0
 57 58  2  0
 57 56  1  0
 59 53  2  0
 60 59  1  0
 60 55  2  0
 61 54  1  0
 62 52  1  0
 64 66  2  0
 65 64  1  0
 67 65  1  0
 68 77  2  0
 68 73  1  0
 69 65  1  0
 69 73  1  0
 70 69  1  0
 71 72  1  0
 71 70  1  0
 72 68  1  0
 73 74  2  0
 74 75  1  0
 76 75  2  0
 77 76  1  0
 78 52  1  0
 78 79  1  0
 78 88  1  0
 79 82  1  0
 80 84  1  0
 80 79  1  0
 81 80  2  0
 84 83  1  0
 86 84  1  0
 86 87  1  0
 86 85  1  0
 88 91  1  1
 88 89  1  0
 90 88  1  0
M  ISO  4   9 100  17 100  50 101  51 101
M  END
>  <TORSDO>  (79) 
F 21

>  <SCORE>  (79) 
-13.641

>  <name>  (79) 
80

>  <ligand_id>  (79) 
80

>  <original_smiles>  (79) 
[H]c1c([H])c([H])c2c(c1[H])C([H])([H])C([H])([H])C([H])([H])C2([H])N([H])C(=O)C1([H])N(C(=O)C([H])(N([H])C(=O)C([H])(N([H])C([H])([H])[H])C([H])([H])[H])C(C([H])([H])[H])(C([H])([H])[H])C([H])([H])[H])C([H])([H])c2c([H])c(OC([H])([H])C([H])(C([H])([H])[H])C([H])([H])C([H])([H])n3c([H])c(C([H])([H])N([H])C(=O)N4C([H])([H])C([H])([H])C([H])([H])C([H])(n5nc(-c6c([H])c([H])c(Oc7c([H])c([H])c(F)c([H])c7F)c([H])c6[H])c(C(=O)N([H])[H])c5N([H])[H])C4([H])[H])c([H])c3C([H])([H])[H])c([H])c([H])c2C1([H])[H]

>  <smiles>  (79) 
[H]c1c([H])c([H])c2c(c1[H])C([H])([H])C([H])([H])C([H])([H])C2([H])N([H])C(=O)C1([H])N(C(=O)C([H])(N([H])C(=O)C([H])(N([H])C([H])([H])[H])C([H])([H])[H])C(C([H])([H])[H])(C([H])([H])[H])C([H])([H])[H])C([H])([H])c2c([H])c(OC([H])([H])C([H])(C([H])([H])[H])C([H])([H])C([H])([H])n3c([H])c(C([H])([H])N([H])C(=O)N4C([H])([H])C([H])([H])C([H])([H])C([H])(n5nc(-c6c([H])c([H])c(Oc7c([H])c([H])c(F)c([H])c7F)c([H])c6[H])c(C(=O)N([H])[H])c5N([H])[H])C4([H])[H])c([H])c3C([H])([H])[H])c([H])c([H])c2C1([H])[H]

$$$$
81:0:0
     RDKit          3D

 98106  0  0  1  0  0  0  0  0999 V2000
  -30.3580  -20.4670   22.3390 C   0  0  0  0  0  3  0  0  0  0  0  0
  -29.6130  -21.5010   21.7420 C   0  0  0  0  0  0  0  0  0  0  0  0
  -30.5620  -19.2300   21.6960 C   0  0  0  0  0  0  0  0  0  0  0  0
  -29.0600  -21.2990   20.4570 C   0  0  0  0  0  0  0  0  0  0  0  0
  -29.8950  -18.9710   20.4690 C   0  0  0  0  0  0  0  0  0  0  0  0
  -29.1980  -20.0340   19.8750 N   0  0  0  0  0  0  0  0  0  0  0  0
  -32.9360  -18.3220   21.6300 C   0  0  0  0  0  1  0  0  0  0  0  0
  -31.5770  -18.2860   22.3380 C   0  0  0  0  0  2  0  0  0  0  0  0
  -29.2180  -17.5390   18.4110 C   0  0  0  0  0  1  0  0  0  0  0  0
  -30.0800  -17.5650   19.6890 C   0  0  0  0  0  3  0  0  0  0  0  0
  -30.6230  -15.0110   20.0390 C   0  0  0  0  0  0  0  0  0  0  0  0
  -30.3950  -12.7680   18.9210 C   0  0  0  0  0  2  0  0  0  0  0  0
  -29.3800  -12.8490   17.7560 C   0  0  0  0  0  2  0  0  0  0  0  0
  -27.9310  -12.6650   18.2540 C   0  0  0  0  0  2  0  0  0  0  0  0
  -27.6330  -13.4930   19.5310 C   0  0  0  0  0  3  0  0  0  0  0  0
  -28.7540  -13.2930   20.5720 C   0  0  0  0  0  2  0  0  0  0  0  0
  -29.9990  -13.7700   19.9470 N   0  0  0  0  0  0  0  0  0  0  0  0
  -31.7600  -15.1130   19.5620 O   0  0  0  0  0  0  0  0  0  0  0  0
  -28.9150  -16.2180   21.4450 C   0  0  0  0  0  1  0  0  0  0  0  0
  -29.8930  -16.1770   20.3490 N   0  0  0  0  0  0  0  0  0  0  0  0
  -25.2770  -14.0780   20.3670 C   0  0  0  0  0  0  0  0  0  0  0  0
  -24.2330  -13.2990   20.7840 C   0  0  0  0  0  0  0  0  0  0  0  0
  -24.6960  -11.9500   20.7140 C   0  0  0  0  0  0  0  0  0  0  0  0
  -26.3120  -13.2020   20.0780 N   0  0  0  0  0  0  0  0  0  0  0  0
  -25.9700  -11.9160   20.3430 N   0  0  0  0  0  0  0  0  0  0  0  0
  -23.9800  -10.6850   20.9230 C   0  0  0  0  0  0  0  0  0  0  0  0
  -24.4460   -9.7150   21.8370 C   0  0  0  0  0  3  0  0  0  0  0  0
  -23.7290   -8.5160   22.0340 C   0  0  0  0  0  3  0  0  0  0  0  0
  -22.5320   -8.2780   21.3160 C   0  0  0  0  0  0  0  0  0  0  0  0
  -22.0850   -9.2380   20.3900 C   0  0  0  0  0  3  0  0  0  0  0  0
  -22.8030  -10.4280   20.1910 C   0  0  0  0  0  3  0  0  0  0  0  0
  -21.7840   -7.1320   21.4230 O   0  0  0  0  0  0  0  0  0  0  0  0
  -21.7440   -6.4040   22.5860 C   0  0  0  0  0  0  0  0  0  0  0  0
  -21.3270   -6.9740   23.8080 C   0  0  0  0  0  3  0  0  0  0  0  0
  -21.2360   -6.1720   24.9650 C   0  0  0  0  0  3  0  0  0  0  0  0
  -21.5510   -4.8030   24.8980 C   0  0  0  0  0  0  0  0  0  0  0  0
  -21.9610   -4.2320   23.6800 C   0  0  0  0  0  3  0  0  0  0  0  0
  -22.0550   -5.0300   22.5270 C   0  0  0  0  0  0  0  0  0  0  0  0
  -22.4300   -4.4710   21.3520 F   0  0  0  0  0  0  0  0  0  0  0  0
  -21.4550   -4.0300   26.0050 F   0  0  0  0  0  0  0  0  0  0  0  0
  -22.8510  -13.7730   21.1310 C   0  0  0  0  0  0  0  0  0  0  0  0
  -22.1730  -13.0720   22.0330 N   0  0  0  0  0  0  0  0  0  0  0  0
  -22.3840  -14.7990   20.6400 O   0  0  0  0  0  0  0  0  0  0  0  0
  -22.5670  -12.2410   22.4500 H   0  0  0  0  0  0  0  0  0  0  0  0
  -21.2480  -13.3700   22.3080 H   0  0  0  0  0  0  0  0  0  0  0  0
  -25.4200  -15.4500   20.1870 N   0  0  0  0  0  0  0  0  0  0  0  0
  -24.6500  -16.0940   20.3310 H   0  0  0  0  0  0  0  0  0  0  0  0
  -26.2410  -15.8960   19.7990 H   0  0  0  0  0  0  0  0  0  0  0  0
  -29.5080  -22.8210   22.4970 C   0  0  0  0  0  2  0  0  0  0  0  0
  -30.4520  -23.9100   21.9560 C   0  0  0  0  0  2  0  0  0  0  0  0
  -30.1160  -25.3080   22.5060 C   0  0  0  0  0  2  0  0  0  0  0  0
  -30.7360  -27.7660   22.6100 C   0  0  0  0  0  1  0  0  0  0  0  0
  -30.4650  -26.6550   20.3640 C   0  0  0  0  0  1  0  0  0  0  0  0
  -30.8970  -26.4540   21.8270 C   0  0  0  0  0  3  0  0  0  0  0  0
  -28.5360  -22.5500   19.5980 C   0  0  0  0  0  2  0  0  0  0  0  0
  -27.3810  -23.6230   20.0190 C   0  0  0  0  0  2  0  0  0  0  0  0
  -27.6550  -25.1260   20.5780 C   0  0  0  0  0  2  0  0  0  0  0  0
  -27.5560  -26.4170   19.8220 O   0  0  0  0  0  0  0  0  0  0  0  0
  -24.3460  -32.0320   23.1950 C   0  0  0  0  0  0  0  0  0  0  0  0
  -26.4770  -27.3110   19.9800 C   0  0  0  0  0  0  0  0  0  0  0  0
  -22.9530  -30.7040   21.6470 C   0  0  0  0  0  3  0  0  0  0  0  0
  -24.2110  -29.0660   20.1310 C   0  0  0  0  0  0  0  0  0  0  0  0
  -25.4880  -30.8770   21.2810 C   0  0  0  0  0  2  0  0  0  0  0  0
  -25.4470  -29.4890   20.6380 C   0  0  0  0  0  0  0  0  0  0  0  0
  -26.5850  -28.6270   20.5440 C   0  0  0  0  0  3  0  0  0  0  0  0
  -25.2200  -26.9400   19.4640 C   0  0  0  0  0  3  0  0  0  0  0  0
  -24.1020  -27.7990   19.5330 C   0  0  0  0  0  3  0  0  0  0  0  0
  -23.0340  -30.0130   20.2590 C   0  0  0  0  0  2  0  0  0  0  0  0
  -24.2870  -31.2220   22.0960 N   0  0  0  0  0  0  0  0  0  0  0  0
  -23.3200  -32.3670   23.8050 O   0  0  0  0  0  0  0  0  0  0  0  0
  -22.3030  -29.7280   22.6560 C   0  0  0  0  0  0  0  0  0  0  0  0
  -20.9720  -29.5610   22.5700 N   0  0  0  0  0  0  0  0  0  0  0  0
  -22.9970  -29.1180   23.4750 O   0  0  0  0  0  0  0  0  0  0  0  0
  -20.4720  -30.1050   21.8810 H   0  0  0  0  0  0  0  0  0  0  0  0
  -17.6160  -28.3240   23.1120 C   0  0  0  0  0  0  0  0  0  0  0  0
  -20.1650  -28.6550   23.3880 C   0  0  0  0  0  3  0  0  0  0  0  0
  -20.3020  -27.1940   22.9000 C   0  0  0  0  0  2  0  0  0  0  0  0
  -19.2180  -26.7880   21.8970 C   0  0  0  0  0  2  0  0  0  0  0  0
  -17.8270  -26.9410   22.5190 C   0  0  0  0  0  2  0  0  0  0  0  0
  -18.7140  -29.1350   23.5040 C   0  0  0  0  0  0  0  0  0  0  0  0
  -18.4620  -30.4260   24.0190 C   0  0  0  0  0  3  0  0  0  0  0  0
  -17.1450  -30.9070   24.1430 C   0  0  0  0  0  3  0  0  0  0  0  0
  -16.0620  -30.0960   23.7660 C   0  0  0  0  0  3  0  0  0  0  0  0
  -16.2970  -28.8060   23.2570 C   0  0  0  0  0  3  0  0  0  0  0  0
  -25.7020  -32.5920   23.7250 C   0  0  0  0  0  3  0  0  0  0  0  0
  -26.2700  -31.7830   24.9560 C   0  0  1  0  0  0  0  0  0  0  0  0
  -25.2490  -31.6000   26.1050 C   0  0  0  0  0  1  0  0  0  0  0  0
  -26.7390  -30.3760   24.5160 C   0  0  0  0  0  1  0  0  0  0  0  0
  -27.5130  -32.5040   25.5280 C   0  0  0  0  0  1  0  0  0  0  0  0
  -25.4910  -34.0010   24.0880 N   0  0  0  0  0  0  0  0  0  0  0  0
  -25.8410  -35.0460   23.3250 C   0  0  0  0  0  0  0  0  0  0  0  0
  -26.4450  -34.9200   22.2560 O   0  0  0  0  0  0  0  0  0  0  0  0
  -24.9510  -34.1780   24.9230 H   0  0  0  0  0  0  0  0  0  0  0  0
  -24.1990  -36.9370   23.0960 C   0  0  0  0  0  1  0  0  0  0  0  0
  -25.4620  -36.4530   23.8250 C   0  0  0  0  0  3  0  0  0  0  0  0
  -27.6890  -37.2070   24.5340 C   0  0  0  0  0  1  0  0  0  0  0  0
  -26.5440  -37.4490   23.6600 N   0  0  0  0  0  0  0  0  0  0  0  0
  -26.2000  -38.3880   23.8420 H   0  0  0  0  0  0  0  0  0  0  0  0
  2  1  1  0
  2 49  1  0
  3  8  1  0
  3  1  2  0
  4  2  2  0
  5  3  1  0
  6  4  1  0
  6  5  2  0
  7  8  1  0
 10  9  1  0
 10 20  1  0
 10  5  1  0
 11 20  1  0
 12 17  1  0
 13 14  1  0
 13 12  1  0
 15 14  1  0
 15 24  1  0
 15 16  1  0
 17 11  1  0
 17 16  1  0
 18 11  2  0
 20 19  1  0
 21 22  2  0
 22 41  1  0
 23 22  1  0
 23 26  1  0
 24 25  1  0
 24 21  1  0
 25 23  2  0
 26 27  1  0
 27 28  2  0
 29 32  1  0
 29 28  1  0
 30 29  2  0
 31 30  1  0
 31 26  2  0
 32 33  1  0
 33 34  1  0
 34 35  2  0
 36 35  1  0
 36 40  1  0
 37 36  2  0
 38 33  2  0
 38 37  1  0
 39 38  1  0
 41 42  1  0
 42 45  1  0
 42 44  1  0
 43 41  2  0
 46 47  1  0
 46 21  1  0
 48 46  1  0
 50 49  1  0
 50 51  1  0
 53 54  1  0
 54 51  1  0
 54 52  1  0
 55 56  1  0
 55  4  1  0
 56 57  1  0
 58 60  1  0
 58 57  1  0
 59 70  2  0
 60 65  1  0
 61 69  1  0
 61 71  1  0
 62 68  1  0
 62 64  1  0
 63 69  1  0
 64 63  1  0
 65 64  2  0
 66 67  1  0
 66 60  2  0
 67 62  2  0
 68 61  1  0
 69 59  1  0
 71 73  2  0
 72 71  1  0
 74 72  1  0
 75 84  2  0
 75 80  1  0
 76 72  1  0
 76 80  1  0
 77 76  1  0
 78 79  1  0
 78 77  1  0
 79 75  1  0
 80 81  2  0
 81 82  1  0
 83 82  2  0
 84 83  1  0
 85 59  1  0
 85 90  1  0
 85 86  1  0
 86 89  1  1
 86 87  1  0
 88 86  1  0
 90 93  1  0
 91 95  1  0
 91 90  1  0
 92 91  2  0
 95 94  1  0
 97 95  1  0
 97 98  1  0
 97 96  1  0
M  ISO  4  11 100  20 100  57 101  58 101
M  END
>  <TORSDO>  (80) 
F 25

>  <SCORE>  (80) 
-10.488

>  <name>  (80) 
81

>  <ligand_id>  (80) 
81

>  <original_smiles>  (80) 
[H]c1c([H])c([H])c2c(c1[H])C([H])([H])C([H])([H])C([H])([H])C2([H])N([H])C(=O)C1([H])N(C(=O)C([H])(N([H])C(=O)C([H])(N([H])C([H])([H])[H])C([H])([H])[H])C(C([H])([H])[H])(C([H])([H])[H])C([H])([H])[H])C([H])([H])c2c([H])c(OC([H])([H])C([H])([H])C([H])([H])c3nc(C([H])(N(C(=O)N4C([H])([H])C([H])([H])C([H])([H])C([H])(n5nc(-c6c([H])c([H])c(Oc7c([H])c([H])c(F)c([H])c7F)c([H])c6[H])c(C(=O)N([H])[H])c5N([H])[H])C4([H])[H])C([H])([H])[H])C([H])([H])[H])c(C([H])([H])C([H])([H])[H])c([H])c3C([H])([H])C([H])([H])C([H])([H])C([H])(C([H])([H])[H])C([H])([H])[H])c([H])c([H])c2C1([H])[H]

>  <smiles>  (80) 
[H]c1c([H])c([H])c2c(c1[H])C([H])([H])C([H])([H])C([H])([H])C2([H])N([H])C(=O)C1([H])N(C(=O)C([H])(N([H])C(=O)C([H])(N([H])C([H])([H])[H])C([H])([H])[H])C(C([H])([H])[H])(C([H])([H])[H])C([H])([H])[H])C([H])([H])c2c([H])c(OC([H])([H])C([H])([H])C([H])([H])c3nc(C([H])(N(C(=O)N4C([H])([H])C([H])([H])C([H])([H])C([H])(n5nc(-c6c([H])c([H])c(Oc7c([H])c([H])c(F)c([H])c7F)c([H])c6[H])c(C(=O)N([H])[H])c5N([H])[H])C4([H])[H])C([H])([H])[H])C([H])([H])[H])c(C([H])([H])C([H])([H])[H])c([H])c3C([H])([H])C([H])([H])C([H])([H])C([H])(C([H])([H])[H])C([H])([H])[H])c([H])c([H])c2C1([H])[H]

$$$$
82:0:0
     RDKit          3D

 96104  0  0  1  0  0  0  0  0999 V2000
  -30.1190  -20.9600   21.9930 C   0  0  0  0  0  3  0  0  0  0  0  0
  -30.9430  -20.1690   22.8130 C   0  0  0  0  0  0  0  0  0  0  0  0
  -30.0210  -20.7090   20.6000 C   0  0  0  0  0  0  0  0  0  0  0  0
  -31.6570  -19.1150   22.2190 C   0  0  0  0  0  0  0  0  0  0  0  0
  -30.7130  -19.5360   20.1270 C   0  0  0  0  0  0  0  0  0  0  0  0
  -32.6390  -18.2440   22.9810 C   0  0  0  0  0  1  0  0  0  0  0  0
  -31.5210  -18.8090   20.9240 N   0  0  0  0  0  0  0  0  0  0  0  0
  -31.0750  -20.4820   24.2950 C   0  0  0  0  0  2  0  0  0  0  0  0
  -29.8100  -20.1200   25.0970 C   0  0  0  0  0  2  0  0  0  0  0  0
  -28.7810  -18.4960   26.7790 C   0  0  0  0  0  1  0  0  0  0  0  0
  -30.0630  -18.9780   26.0950 C   0  0  0  0  0  2  0  0  0  0  0  0
  -29.2450  -21.7310   19.7080 C   0  0  0  0  0  2  0  0  0  0  0  0
  -28.9150  -23.1260   20.3800 C   0  0  0  0  0  2  0  0  0  0  0  0
  -28.6920  -24.4280   19.5310 C   0  0  0  0  0  2  0  0  0  0  0  0
  -28.2970  -25.6570   20.4270 C   0  0  0  0  0  2  0  0  0  0  0  0
  -28.4450  -26.9970   19.8740 O   0  0  0  0  0  0  0  0  0  0  0  0
  -24.7380  -32.0650   23.3490 C   0  0  0  0  0  0  0  0  0  0  0  0
  -27.3050  -27.7880   19.9440 C   0  0  0  0  0  0  0  0  0  0  0  0
  -23.4890  -30.7380   21.6780 C   0  0  0  0  0  3  0  0  0  0  0  0
  -24.9060  -29.2970   20.1170 C   0  0  0  0  0  0  0  0  0  0  0  0
  -26.0050  -31.1310   21.4080 C   0  0  0  0  0  2  0  0  0  0  0  0
  -26.0850  -29.7930   20.6910 C   0  0  0  0  0  0  0  0  0  0  0  0
  -27.2910  -29.0510   20.5970 C   0  0  0  0  0  3  0  0  0  0  0  0
  -26.1090  -27.3270   19.3540 C   0  0  0  0  0  3  0  0  0  0  0  0
  -24.9140  -28.0660   19.4420 C   0  0  0  0  0  3  0  0  0  0  0  0
  -23.6570  -30.1390   20.2570 C   0  0  0  0  0  2  0  0  0  0  0  0
  -24.7660  -31.3230   22.2040 N   0  0  0  0  0  0  0  0  0  0  0  0
  -23.6740  -32.2930   23.9440 O   0  0  0  0  0  0  0  0  0  0  0  0
  -22.8830  -29.6580   22.6040 C   0  0  0  0  0  0  0  0  0  0  0  0
  -21.6040  -29.3210   22.3780 N   0  0  0  0  0  0  0  0  0  0  0  0
  -23.5670  -29.1260   23.4840 O   0  0  0  0  0  0  0  0  0  0  0  0
  -21.1080  -29.7990   21.6410 H   0  0  0  0  0  0  0  0  0  0  0  0
  -18.4240  -27.6130   22.5150 C   0  0  0  0  0  0  0  0  0  0  0  0
  -20.8450  -28.3010   23.1030 C   0  0  0  0  0  3  0  0  0  0  0  0
  -21.2530  -26.8790   22.6510 C   0  0  0  0  0  2  0  0  0  0  0  0
  -20.3700  -26.3300   21.5280 C   0  0  0  0  0  2  0  0  0  0  0  0
  -18.9040  -26.2790   21.9700 C   0  0  0  0  0  2  0  0  0  0  0  0
  -19.3370  -28.5700   23.0340 C   0  0  0  0  0  0  0  0  0  0  0  0
  -18.8400  -29.8100   23.4940 C   0  0  0  0  0  3  0  0  0  0  0  0
  -17.4630  -30.0960   23.4490 C   0  0  0  0  0  3  0  0  0  0  0  0
  -16.5630  -29.1370   22.9520 C   0  0  0  0  0  3  0  0  0  0  0  0
  -17.0440  -27.9000   22.4880 C   0  0  0  0  0  3  0  0  0  0  0  0
  -26.0380  -32.6800   23.9550 C   0  0  0  0  0  3  0  0  0  0  0  0
  -26.6210  -31.8420   25.1570 C   0  0  1  0  0  0  0  0  0  0  0  0
  -25.5690  -31.4910   26.2350 C   0  0  0  0  0  1  0  0  0  0  0  0
  -27.2400  -30.5170   24.6500 C   0  0  0  0  0  1  0  0  0  0  0  0
  -27.7600  -32.6310   25.8440 C   0  0  0  0  0  1  0  0  0  0  0  0
  -25.7220  -34.0500   24.3810 N   0  0  0  0  0  0  0  0  0  0  0  0
  -26.0010  -35.1500   23.6680 C   0  0  0  0  0  0  0  0  0  0  0  0
  -26.6160  -35.1170   22.5980 O   0  0  0  0  0  0  0  0  0  0  0  0
  -25.1710  -34.1500   25.2200 H   0  0  0  0  0  0  0  0  0  0  0  0
  -24.2140  -36.9150   23.5160 C   0  0  0  0  0  1  0  0  0  0  0  0
  -25.5140  -36.5000   24.2270 C   0  0  0  0  0  3  0  0  0  0  0  0
  -27.6700  -37.4040   24.9830 C   0  0  0  0  0  1  0  0  0  0  0  0
  -26.5140  -37.5810   24.1050 N   0  0  0  0  0  0  0  0  0  0  0  0
  -26.0960  -38.4810   24.3160 H   0  0  0  0  0  0  0  0  0  0  0  0
  -30.7460  -18.9820   18.6960 C   0  0  0  0  0  2  0  0  0  0  0  0
  -29.9780  -17.6300   18.4250 C   0  0  0  0  0  2  0  0  0  0  0  0
  -30.9030  -15.3890   19.1920 C   0  0  0  0  0  0  0  0  0  0  0  0
  -30.6370  -13.0410   18.4920 C   0  0  0  0  0  2  0  0  0  0  0  0
  -29.5760  -13.0130   17.3690 C   0  0  0  0  0  2  0  0  0  0  0  0
  -28.1550  -12.8960   17.9590 C   0  0  0  0  0  2  0  0  0  0  0  0
  -27.8990  -13.8960   19.1200 C   0  0  0  0  0  3  0  0  0  0  0  0
  -29.0740  -13.9100   20.1290 C   0  0  0  0  0  2  0  0  0  0  0  0
  -30.3150  -14.1710   19.3820 N   0  0  0  0  0  0  0  0  0  0  0  0
  -31.9980  -15.5150   18.6420 O   0  0  0  0  0  0  0  0  0  0  0  0
  -30.0930  -16.4640   19.3590 N   0  0  0  0  0  0  0  0  0  0  0  0
  -29.2720  -16.2880   19.9190 H   0  0  0  0  0  0  0  0  0  0  0  0
  -25.6420  -14.5430   20.1730 C   0  0  0  0  0  0  0  0  0  0  0  0
  -24.6130  -13.7880   20.6680 C   0  0  0  0  0  0  0  0  0  0  0  0
  -25.0230  -12.4260   20.5390 C   0  0  0  0  0  0  0  0  0  0  0  0
  -26.6200  -13.6400   19.7780 N   0  0  0  0  0  0  0  0  0  0  0  0
  -26.2580  -12.3620   20.0560 N   0  0  0  0  0  0  0  0  0  0  0  0
  -24.2900  -11.1800   20.7960 C   0  0  0  0  0  0  0  0  0  0  0  0
  -24.7350  -10.2440   21.7550 C   0  0  0  0  0  3  0  0  0  0  0  0
  -24.0040   -9.0610   21.9950 C   0  0  0  0  0  3  0  0  0  0  0  0
  -22.8110   -8.8040   21.2780 C   0  0  0  0  0  0  0  0  0  0  0  0
  -22.3850   -9.7280   20.3050 C   0  0  0  0  0  3  0  0  0  0  0  0
  -23.1180  -10.9020   20.0640 C   0  0  0  0  0  3  0  0  0  0  0  0
  -22.0490   -7.6720   21.4250 O   0  0  0  0  0  0  0  0  0  0  0  0
  -21.8550   -7.0920   22.6530 C   0  0  0  0  0  0  0  0  0  0  0  0
  -21.2380   -7.7860   23.7170 C   0  0  0  0  0  3  0  0  0  0  0  0
  -20.9950   -7.1300   24.9390 C   0  0  0  0  0  3  0  0  0  0  0  0
  -21.3560   -5.7790   25.0990 C   0  0  0  0  0  0  0  0  0  0  0  0
  -21.9650   -5.0840   24.0390 C   0  0  0  0  0  3  0  0  0  0  0  0
  -22.2100   -5.7380   22.8180 C   0  0  0  0  0  0  0  0  0  0  0  0
  -22.7770   -5.0570   21.7930 F   0  0  0  0  0  0  0  0  0  0  0  0
  -21.1160   -5.1440   26.2700 F   0  0  0  0  0  0  0  0  0  0  0  0
  -23.2800  -14.2950   21.1420 C   0  0  0  0  0  0  0  0  0  0  0  0
  -22.6740  -13.6170   22.1080 N   0  0  0  0  0  0  0  0  0  0  0  0
  -22.7880  -15.3270   20.6840 O   0  0  0  0  0  0  0  0  0  0  0  0
  -23.0880  -12.7820   22.5000 H   0  0  0  0  0  0  0  0  0  0  0  0
  -21.7830  -13.9320   22.4630 H   0  0  0  0  0  0  0  0  0  0  0  0
  -25.8230  -15.9120   20.0050 N   0  0  0  0  0  0  0  0  0  0  0  0
  -25.0960  -16.5840   20.2270 H   0  0  0  0  0  0  0  0  0  0  0  0
  -26.6280  -16.3340   19.5600 H   0  0  0  0  0  0  0  0  0  0  0  0
  1  2  1  0
  2  8  1  0
  3  1  2  0
  4  2  2  0
  4  6  1  0
  5  3  1  0
  5  7  2  0
  7  4  1  0
  8  9  1  0
  9 11  1  0
 11 10  1  0
 12 13  1  0
 12  3  1  0
 14 13  1  0
 14 15  1  0
 16 18  1  0
 16 15  1  0
 17 28  2  0
 18 23  1  0
 19 27  1  0
 19 29  1  0
 20 26  1  0
 20 22  1  0
 21 27  1  0
 22 21  1  0
 23 22  2  0
 24 25  1  0
 24 18  2  0
 25 20  2  0
 26 19  1  0
 27 17  1  0
 29 31  2  0
 30 29  1  0
 32 30  1  0
 33 38  1  0
 34 30  1  0
 35 34  1  0
 36 37  1  0
 36 35  1  0
 37 33  1  0
 38 34  1  0
 38 39  2  0
 40 39  1  0
 41 40  2  0
 42 33  2  0
 42 41  1  0
 43 17  1  0
 43 48  1  0
 43 44  1  0
 44 47  1  1
 44 45  1  0
 46 44  1  0
 48 51  1  0
 49 53  1  0
 49 48  1  0
 50 49  2  0
 53 52  1  0
 55 53  1  0
 55 56  1  0
 55 54  1  0
 57  5  1  0
 58 57  1  0
 58 67  1  0
 59 67  1  0
 59 65  1  0
 60 65  1  0
 61 62  1  0
 61 60  1  0
 63 62  1  0
 63 72  1  0
 63 64  1  0
 65 64  1  0
 66 59  2  0
 67 68  1  0
 69 70  2  0
 70 89  1  0
 71 70  1  0
 71 74  1  0
 72 73  1  0
 72 69  1  0
 73 71  2  0
 74 75  1  0
 75 76  2  0
 77 80  1  0
 77 76  1  0
 78 77  2  0
 79 78  1  0
 79 74  2  0
 80 81  1  0
 81 86  2  0
 81 82  1  0
 82 83  2  0
 83 84  1  0
 84 88  1  0
 85 84  2  0
 86 85  1  0
 87 86  1  0
 89 90  1  0
 90 93  1  0
 90 92  1  0
 91 89  2  0
 94 69  1  0
 94 95  1  0
 96 94  1  0
M  ISO  4  15 101  16 101  59 100  67 100
M  END
>  <TORSDO>  (81) 
F 25

>  <SCORE>  (81) 
-3.042

>  <name>  (81) 
82

>  <ligand_id>  (81) 
82

>  <original_smiles>  (81) 
[H]c1c([H])c([H])c2c(c1[H])C([H])([H])C([H])([H])C([H])([H])C2([H])N([H])C(=O)C1([H])N(C(=O)C([H])(N([H])C(=O)C([H])(N([H])C([H])([H])[H])C([H])([H])[H])C(C([H])([H])[H])(C([H])([H])[H])C([H])([H])[H])C([H])([H])c2c([H])c(OC([H])([H])C([H])([H])C([H])([H])C([H])([H])c3c(C([H])([H])C([H])([H])N([H])C(=O)N4C([H])([H])C([H])([H])C([H])([H])C([H])(n5nc(-c6c([H])c([H])c(Oc7c([H])c([H])c(F)c([H])c7F)c([H])c6[H])c(C(=O)N([H])[H])c5N([H])[H])C4([H])[H])nc(C([H])([H])[H])c(C([H])([H])C([H])([H])C([H])([H])C([H])([H])[H])c3[H])c([H])c([H])c2C1([H])[H]

>  <smiles>  (81) 
[H]c1c([H])c([H])c2c(c1[H])C([H])([H])C([H])([H])C([H])([H])C2([H])N([H])C(=O)C1([H])N(C(=O)C([H])(N([H])C(=O)C([H])(N([H])C([H])([H])[H])C([H])([H])[H])C(C([H])([H])[H])(C([H])([H])[H])C([H])([H])[H])C([H])([H])c2c([H])c(OC([H])([H])C([H])([H])C([H])([H])C([H])([H])c3c(C([H])([H])C([H])([H])N([H])C(=O)N4C([H])([H])C([H])([H])C([H])([H])C([H])(n5nc(-c6c([H])c([H])c(Oc7c([H])c([H])c(F)c([H])c7F)c([H])c6[H])c(C(=O)N([H])[H])c5N([H])[H])C4([H])[H])nc(C([H])([H])[H])c(C([H])([H])C([H])([H])C([H])([H])C([H])([H])[H])c3[H])c([H])c([H])c2C1([H])[H]

$$$$
83:0:0
     RDKit          3D

 96 99  0  0  1  0  0  0  0  0999 V2000
  -23.6820  -27.8310   17.0850 C   0  0  0  0  0  3  0  0  0  0  0  0
  -24.2600  -28.9920   17.6270 C   0  0  0  0  0  3  0  0  0  0  0  0
  -24.0940  -26.5460   17.5190 C   0  0  0  0  0  2  0  0  0  0  0  0
  -25.0750  -28.8910   18.7650 C   0  0  0  0  0  3  0  0  0  0  0  0
  -24.8240  -26.2730   18.7140 C   0  0  0  0  0  2  0  0  0  0  0  0
  -24.7030  -27.8510   19.6900 C   0  0  0  0  0  2  0  0  0  0  0  0
  -25.4580  -26.7740   23.7130 C   0  0  0  0  0  2  0  0  0  0  0  0
  -24.6890  -27.8250   22.6970 C   0  0  0  0  0  3  0  0  0  0  0  0
  -26.5810  -29.2470   18.4370 C   0  0  0  0  0  2  0  0  0  0  0  0
  -27.5380  -28.0510   18.0380 C   0  0  0  0  0  2  0  0  0  0  0  0
  -28.9870  -27.9490   18.6670 C   0  0  0  0  0  2  0  0  0  0  0  0
  -29.1770  -27.1210   19.8450 O   0  0  0  0  0  0  0  0  0  0  0  0
  -24.7430  -32.0190   23.2360 C   0  0  0  0  0  0  0  0  0  0  0  0
  -28.2480  -27.3640   20.7360 C   0  0  0  0  0  0  0  0  0  0  0  0
  -23.5040  -29.9090   21.8900 C   0  0  0  0  0  2  0  0  0  0  0  0
  -25.8900  -27.4480   21.9640 C   0  0  1  0  0  0  0  0  0  0  0  0
  -26.3290  -30.5880   21.6300 C   0  0  0  0  0  3  0  0  0  0  0  0
  -26.9350  -28.8260   21.7020 C   0  0  0  0  0  0  0  0  0  0  0  0
  -28.1690  -28.6070   21.3140 C   0  0  0  0  0  2  0  0  0  0  0  0
  -27.4250  -26.2810   20.9350 C   0  0  0  0  0  3  0  0  0  0  0  0
  -26.3290  -26.2640   21.7780 C   0  0  0  0  0  2  0  0  0  0  0  0
  -23.8340  -27.9320   21.9900 C   0  0  0  0  0  1  0  0  0  0  0  0
  -24.7770  -31.1090   22.0840 N   0  0  0  0  0  0  0  0  0  0  0  0
  -23.6790  -32.3690   23.7690 O   0  0  0  0  0  0  0  0  0  0  0  0
  -22.5250  -29.8420   23.0640 C   0  0  0  0  0  0  0  0  0  0  0  0
  -21.3160  -29.4560   22.7480 N   0  0  0  0  0  0  0  0  0  0  0  0
  -22.9000  -29.7380   24.2290 O   0  0  0  0  0  0  0  0  0  0  0  0
  -21.0450  -29.4760   21.7740 H   0  0  0  0  0  0  0  0  0  0  0  0
  -18.1010  -28.3190   23.1060 C   0  0  0  0  0  0  0  0  0  0  0  0
  -20.5550  -28.6130   23.6550 C   0  0  0  0  0  3  0  0  0  0  0  0
  -20.7300  -27.1330   23.2480 C   0  0  0  0  0  2  0  0  0  0  0  0
  -19.8210  -26.7450   22.0990 C   0  0  0  0  0  2  0  0  0  0  0  0
  -18.3720  -26.9460   22.5210 C   0  0  0  0  0  2  0  0  0  0  0  0
  -19.1360  -29.1180   23.6310 C   0  0  0  0  0  0  0  0  0  0  0  0
  -18.8630  -30.4230   24.0960 C   0  0  0  0  0  3  0  0  0  0  0  0
  -17.5480  -30.9110   24.0800 C   0  0  0  0  0  3  0  0  0  0  0  0
  -16.5070  -30.0910   23.6120 C   0  0  0  0  0  3  0  0  0  0  0  0
  -16.7820  -28.8010   23.1240 C   0  0  0  0  0  3  0  0  0  0  0  0
  -26.0040  -32.6710   24.0410 C   0  0  0  0  0  3  0  0  0  0  0  0
  -25.6950  -34.0960   24.3140 N   0  0  0  0  0  0  0  0  0  0  0  0
  -26.1780  -35.1410   23.6350 C   0  0  0  0  0  0  0  0  0  0  0  0
  -26.9360  -34.9980   22.6780 O   0  0  0  0  0  0  0  0  0  0  0  0
  -24.9880  -34.2830   25.0050 H   0  0  0  0  0  0  0  0  0  0  0  0
  -24.4860  -36.9670   23.2410 C   0  0  0  0  0  1  0  0  0  0  0  0
  -25.7300  -36.5620   24.0470 C   0  0  0  0  0  3  0  0  0  0  0  0
  -27.8910  -37.4560   24.8190 C   0  0  0  0  0  1  0  0  0  0  0  0
  -26.7840  -37.5930   23.8760 N   0  0  0  0  0  0  0  0  0  0  0  0
  -26.3960  -38.5260   23.9830 H   0  0  0  0  0  0  0  0  0  0  0  0
  -26.4800  -32.0810   25.4710 C   0  0  1  0  0  0  0  0  0  0  0  0
  -25.3160  -31.7540   26.4400 C   0  0  0  0  0  1  0  0  0  0  0  0
  -27.4030  -30.8500   25.3570 C   0  0  0  0  0  1  0  0  0  0  0  0
  -27.3900  -33.0900   26.2420 C   0  0  0  0  0  1  0  0  0  0  0  0
  -25.2830  -24.1470   18.5850 C   0  0  0  0  0 15  0  0  0  0  0  0
  -26.6920  -22.4030   18.7510 C   0  0  0  0  0 15  0  0  0  0  0  0
  -25.8940  -19.8930   17.9980 C   0  0  0  0  0  1  0  0  0  0  0  0
  -26.9420  -20.4480   18.8770 N   0  0  0  0  0  2  0  0  0  0  0  0
  -26.5100  -20.3350   19.7820 H   0  0  0  0  0  0  0  0  0  0  0  0
  -28.2590  -18.9800   19.1200 C   0  0  0  0  0 15  0  0  0  0  0  0
  -29.6830  -15.6690   19.6560 C   0  0  0  0  0  0  0  0  0  0  0  0
  -30.3190  -12.9710   19.2150 C   0  0  0  0  0  2  0  0  0  0  0  0
  -29.5460  -12.1140   18.1600 C   0  0  0  0  0  2  0  0  0  0  0  0
  -28.1940  -11.6390   18.7090 C   0  0  0  0  0  2  0  0  0  0  0  0
  -27.5640  -12.7430   19.5760 C   0  0  0  0  0  3  0  0  0  0  0  0
  -28.5150  -13.3860   20.5960 C   0  0  0  0  0  2  0  0  0  0  0  0
  -29.4630  -14.1690   19.7660 N   0  0  0  0  0  0  0  0  0  0  0  0
  -30.9480  -15.6580   19.6300 O   0  0  0  0  0  0  0  0  0  0  0  0
  -28.6510  -17.0330   19.4370 N   0  0  0  0  0  2  0  0  0  0  0  0
  -27.7370  -16.6140   19.4830 H   0  0  0  0  0  0  0  0  0  0  0  0
  -25.2870  -13.3100   20.4470 C   0  0  0  0  0  0  0  0  0  0  0  0
  -24.2310  -12.5480   20.8440 C   0  0  0  0  0  0  0  0  0  0  0  0
  -24.6780  -11.1900   20.7930 C   0  0  0  0  0  0  0  0  0  0  0  0
  -26.2940  -12.4140   20.1610 N   0  0  0  0  0  0  0  0  0  0  0  0
  -25.9560  -11.1300   20.4370 N   0  0  0  0  0  0  0  0  0  0  0  0
  -23.9370   -9.9420   20.9920 C   0  0  0  0  0  0  0  0  0  0  0  0
  -24.2880   -9.0280   22.0070 C   0  0  0  0  0  3  0  0  0  0  0  0
  -23.5400   -7.8450   22.1910 C   0  0  0  0  0  3  0  0  0  0  0  0
  -22.4300   -7.5710   21.3560 C   0  0  0  0  0  0  0  0  0  0  0  0
  -22.1020   -8.4760   20.3290 C   0  0  0  0  0  3  0  0  0  0  0  0
  -22.8500   -9.6490   20.1470 C   0  0  0  0  0  3  0  0  0  0  0  0
  -21.6560   -6.4390   21.4460 O   0  0  0  0  0  0  0  0  0  0  0  0
  -21.4280   -5.8200   22.6480 C   0  0  0  0  0  0  0  0  0  0  0  0
  -20.7830   -6.4790   23.7160 C   0  0  0  0  0  3  0  0  0  0  0  0
  -20.5040   -5.7810   24.9080 C   0  0  0  0  0  3  0  0  0  0  0  0
  -20.8620   -4.4260   25.0310 C   0  0  0  0  0  0  0  0  0  0  0  0
  -21.5010   -3.7660   23.9660 C   0  0  0  0  0  3  0  0  0  0  0  0
  -21.7800   -4.4610   22.7770 C   0  0  0  0  0  0  0  0  0  0  0  0
  -22.3760   -3.8150   21.7450 F   0  0  0  0  0  0  0  0  0  0  0  0
  -20.5890   -3.7540   26.1740 F   0  0  0  0  0  0  0  0  0  0  0  0
  -22.8520  -13.0520   21.1400 C   0  0  0  0  0  0  0  0  0  0  0  0
  -22.1270  -12.3650   22.0150 N   0  0  0  0  0  0  0  0  0  0  0  0
  -22.4280  -14.0880   20.6270 O   0  0  0  0  0  0  0  0  0  0  0  0
  -22.4850  -11.5290   22.4500 H   0  0  0  0  0  0  0  0  0  0  0  0
  -21.2000  -12.6800   22.2580 H   0  0  0  0  0  0  0  0  0  0  0  0
  -25.4620  -14.6780   20.2560 N   0  0  0  0  0  0  0  0  0  0  0  0
  -24.6720  -15.3120   20.3250 H   0  0  0  0  0  0  0  0  0  0  0  0
  -26.2260  -15.0550   19.7150 H   0  0  0  0  0  0  0  0  0  0  0  0
  1  3  1  0
  1  2  2  0
  2  4  1  0
  3  5  1  0
  4  9  1  0
  4  6  1  0
  5  6  1  0
  8 22  1  0
  8  7  1  0
 10  9  1  0
 10 11  1  0
 11 12  1  0
 12 14  1  0
 13 24  2  0
 14 20  2  0
 14 19  1  0
 15 23  1  0
 15 25  1  0
 16 21  1  6
 16  8  1  0
 16  7  1  0
 17 18  2  0
 17 23  1  0
 18 16  1  0
 19 18  1  0
 20 21  1  0
 23 13  1  0
 25 27  2  0
 26 25  1  0
 28 26  1  0
 29 38  2  0
 29 34  1  0
 30 26  1  0
 31 30  1  0
 32 33  1  0
 32 31  1  0
 33 29  1  0
 34 30  1  0
 34 35  2  0
 36 35  1  0
 37 36  2  0
 38 37  1  0
 39 13  1  0
 39 40  1  0
 39 49  1  0
 40 43  1  0
 41 45  1  0
 41 40  1  0
 42 41  2  0
 45 44  1  0
 47 48  1  0
 47 45  1  0
 47 46  1  0
 49 52  1  1
 49 50  1  0
 51 49  1  0
 55 56  1  0
 56 57  1  0
 59 65  1  0
 60 65  1  0
 61 62  1  0
 61 60  1  0
 63 62  1  0
 63 72  1  0
 63 64  1  0
 65 64  1  0
 66 59  2  0
 67 68  1  0
 67 59  1  0
 69 70  2  0
 70 89  1  0
 71 70  1  0
 71 74  1  0
 72 73  1  0
 72 69  1  0
 73 71  2  0
 74 75  1  0
 75 76  2  0
 77 80  1  0
 77 76  1  0
 78 77  2  0
 79 78  1  0
 79 74  2  0
 80 81  1  0
 81 86  2  0
 81 82  1  0
 82 83  2  0
 83 84  1  0
 84 88  1  0
 85 84  2  0
 86 85  1  0
 87 86  1  0
 89 90  1  0
 90 93  1  0
 90 92  1  0
 91 89  2  0
 94 95  1  0
 94 69  1  0
 96 94  1  0
M  ISO  4  11 101  12 101  59 100  67 100
M  END
>  <TORSDO>  (82) 
F 24

>  <SCORE>  (82) 
-12.009

>  <name>  (82) 
83

>  <ligand_id>  (82) 
83

>  <original_smiles>  (82) 
[H]c1c([H])c([H])c2c(c1[H])C([H])([H])C([H])([H])C([H])([H])C2([H])N([H])C(=O)C1([H])N(C(=O)C([H])(N([H])C(=O)C([H])(N([H])C([H])([H])[H])C([H])([H])[H])C(C([H])([H])[H])(C([H])([H])[H])C([H])([H])[H])C([H])([H])c2c([H])c(OC([H])([H])C([H])([H])C([H])([H])c3c([H])c([H])c([H])c(C([H])([H])C([H])([H])[N+]([H])(C([H])([H])[H])C([H])([H])N([H])C(=O)N4C([H])([H])C([H])([H])C([H])([H])C([H])(n5nc(-c6c([H])c([H])c(Oc7c([H])c([H])c(F)c([H])c7F)c([H])c6[H])c(C(=O)N([H])[H])c5N([H])[H])C4([H])[H])c3C([H])([H])C([H])([H])[H])c([H])c([H])c2C1([H])[H]

>  <smiles>  (82) 
[H]c1c([H])c([H])c2c(c1[H])C([H])([H])C([H])([H])C([H])([H])C2([H])N([H])C(=O)C1([H])N(C(=O)C([H])(N([H])C(=O)C([H])(N([H])C([H])([H])[H])C([H])([H])[H])C(C([H])([H])[H])(C([H])([H])[H])C([H])([H])[H])C([H])([H])c2c([H])c(OC([H])([H])C([H])([H])C([H])([H])c3c([H])c([H])c([H])c(C([H])([H])C([H])([H])[N+]([H])(C([H])([H])[H])C([H])([H])N([H])C(=O)N4C([H])([H])C([H])([H])C([H])([H])C([H])(n5nc(-c6c([H])c([H])c(Oc7c([H])c([H])c(F)c([H])c7F)c([H])c6[H])c(C(=O)N([H])[H])c5N([H])[H])C4([H])[H])c3C([H])([H])C([H])([H])[H])c([H])c([H])c2C1([H])[H]

$$$$
84:0:0
     RDKit          3D

 93101  0  0  1  0  0  0  0  0999 V2000
  -28.4830  -21.2500   20.7240 C   0  0  0  0  0  3  0  0  0  0  0  0
  -29.3650  -20.1490   20.2640 C   0  0  0  0  0  0  0  0  0  0  0  0
  -29.7580  -22.3410   19.3480 C   0  0  0  0  0  3  0  0  0  0  0  0
  -28.6990  -22.6330   20.1710 N   0  0  0  0  0  0  0  0  0  0  0  0
  -30.0990  -20.9940   19.4310 N   0  0  0  0  0  0  0  0  0  0  0  0
  -30.8940  -20.6420   18.9100 H   0  0  0  0  0  0  0  0  0  0  0  0
  -32.0470  -23.0590   18.6230 C   0  0  0  0  0  1  0  0  0  0  0  0
  -30.2650  -24.7460   18.5860 C   0  0  0  0  0  1  0  0  0  0  0  0
  -30.5310  -23.2440   18.3840 C   0  0  2  0  0  0  0  0  0  0  0  0
  -30.1710  -22.9370   16.8990 C   0  0  0  0  0  2  0  0  0  0  0  0
  -30.3340  -21.5030   14.7960 C   0  0  0  0  0  1  0  0  0  0  0  0
  -30.5900  -21.5750   16.3070 C   0  0  0  0  0  2  0  0  0  0  0  0
  -29.9250  -18.4670   20.6320 C   0  0  0  0  0  2  0  0  0  0  0  0
  -30.3800  -15.4960   20.2460 C   0  0  0  0  0  0  0  0  0  0  0  0
  -30.3910  -13.0210   19.3530 C   0  0  0  0  0  2  0  0  0  0  0  0
  -29.4580  -12.7160   18.1520 C   0  0  0  0  0  2  0  0  0  0  0  0
  -28.0330  -12.4000   18.6350 C   0  0  0  0  0  2  0  0  0  0  0  0
  -27.5690  -13.3840   19.7340 C   0  0  0  0  0  3  0  0  0  0  0  0
  -28.6320  -13.6130   20.8310 C   0  0  0  0  0  2  0  0  0  0  0  0
  -29.8170  -14.1750   20.1550 N   0  0  0  0  0  0  0  0  0  0  0  0
  -31.6110  -15.4540   20.0920 O   0  0  0  0  0  0  0  0  0  0  0  0
  -29.6350  -16.8130   20.3070 N   0  0  0  0  0  0  0  0  0  0  0  0
  -28.6410  -16.6430   20.2720 H   0  0  0  0  0  0  0  0  0  0  0  0
  -25.2170  -13.9170   20.5440 C   0  0  0  0  0  0  0  0  0  0  0  0
  -24.1650  -13.1320   20.9200 C   0  0  0  0  0  0  0  0  0  0  0  0
  -24.6390  -11.7840   20.8680 C   0  0  0  0  0  0  0  0  0  0  0  0
  -26.2590  -13.0510   20.2730 N   0  0  0  0  0  0  0  0  0  0  0  0
  -25.9250  -11.7600   20.5370 N   0  0  0  0  0  0  0  0  0  0  0  0
  -23.9200  -10.5170   21.0560 C   0  0  0  0  0  0  0  0  0  0  0  0
  -24.3650   -9.5430   21.9760 C   0  0  0  0  0  3  0  0  0  0  0  0
  -23.6420   -8.3430   22.1540 C   0  0  0  0  0  3  0  0  0  0  0  0
  -22.4620   -8.1090   21.4110 C   0  0  0  0  0  0  0  0  0  0  0  0
  -22.0350   -9.0720   20.4790 C   0  0  0  0  0  3  0  0  0  0  0  0
  -22.7580  -10.2630   20.3010 C   0  0  0  0  0  3  0  0  0  0  0  0
  -21.7080   -6.9630   21.4990 O   0  0  0  0  0  0  0  0  0  0  0  0
  -21.6680   -6.2160   22.6480 C   0  0  0  0  0  0  0  0  0  0  0  0
  -21.2240   -6.7580   23.8750 C   0  0  0  0  0  3  0  0  0  0  0  0
  -21.1320   -5.9360   25.0160 C   0  0  0  0  0  3  0  0  0  0  0  0
  -21.4720   -4.5730   24.9320 C   0  0  0  0  0  0  0  0  0  0  0  0
  -21.9080   -4.0300   23.7100 C   0  0  0  0  0  3  0  0  0  0  0  0
  -22.0020   -4.8480   22.5720 C   0  0  0  0  0  0  0  0  0  0  0  0
  -22.4040   -4.3150   21.3920 F   0  0  0  0  0  0  0  0  0  0  0  0
  -21.3760   -3.7800   26.0250 F   0  0  0  0  0  0  0  0  0  0  0  0
  -22.7690  -13.6000   21.2100 C   0  0  0  0  0  0  0  0  0  0  0  0
  -22.0560  -12.8960   22.0800 N   0  0  0  0  0  0  0  0  0  0  0  0
  -22.3220  -14.6270   20.7000 O   0  0  0  0  0  0  0  0  0  0  0  0
  -22.4320  -12.0630   22.5110 H   0  0  0  0  0  0  0  0  0  0  0  0
  -21.1210  -13.1920   22.3210 H   0  0  0  0  0  0  0  0  0  0  0  0
  -25.3680  -15.2910   20.3800 N   0  0  0  0  0  0  0  0  0  0  0  0
  -24.5990  -15.9380   20.5180 H   0  0  0  0  0  0  0  0  0  0  0  0
  -26.2060  -15.7390   20.0320 H   0  0  0  0  0  0  0  0  0  0  0  0
  -27.7760  -24.1390   20.2700 C   0  0  0  0  0  2  0  0  0  0  0  0
  -28.1670  -25.7510   20.3730 O   0  0  0  0  0  0  0  0  0  0  0  0
  -24.6150  -31.8810   23.2710 C   0  0  0  0  0  0  0  0  0  0  0  0
  -27.1800  -26.9050   20.3160 C   0  0  0  0  0  0  0  0  0  0  0  0
  -23.4370  -30.4780   21.6300 C   0  0  0  0  0  3  0  0  0  0  0  0
  -24.8970  -28.8520   20.2340 C   0  0  0  0  0  0  0  0  0  0  0  0
  -26.0110  -30.6630   21.5130 C   0  0  0  0  0  2  0  0  0  0  0  0
  -26.0840  -29.2390   20.8670 C   0  0  0  0  0  0  0  0  0  0  0  0
  -27.2180  -28.2910   20.8780 C   0  0  0  0  0  3  0  0  0  0  0  0
  -25.9590  -26.7000   19.6290 C   0  0  0  0  0  3  0  0  0  0  0  0
  -24.8650  -27.6040   19.5910 C   0  0  0  0  0  3  0  0  0  0  0  0
  -23.6820  -29.7850   20.2610 C   0  0  0  0  0  2  0  0  0  0  0  0
  -24.7100  -31.0370   22.1910 N   0  0  0  0  0  0  0  0  0  0  0  0
  -23.5210  -32.1730   23.7820 O   0  0  0  0  0  0  0  0  0  0  0  0
  -22.7290  -29.4910   22.5960 C   0  0  0  0  0  0  0  0  0  0  0  0
  -21.4000  -29.3240   22.4610 N   0  0  0  0  0  0  0  0  0  0  0  0
  -23.3840  -28.8760   23.4420 O   0  0  0  0  0  0  0  0  0  0  0  0
  -20.9230  -29.8720   21.7570 H   0  0  0  0  0  0  0  0  0  0  0  0
  -18.0120  -28.1170   22.9560 C   0  0  0  0  0  0  0  0  0  0  0  0
  -20.5700  -28.3910   23.2330 C   0  0  0  0  0  3  0  0  0  0  0  0
  -20.6770  -26.9560   22.6660 C   0  0  0  0  0  2  0  0  0  0  0  0
  -19.5800  -26.6280   21.6480 C   0  0  0  0  0  2  0  0  0  0  0  0
  -18.1940  -26.7680   22.2830 C   0  0  0  0  0  2  0  0  0  0  0  0
  -19.1260  -28.8860   23.3880 C   0  0  0  0  0  0  0  0  0  0  0  0
  -18.8960  -30.1460   23.9800 C   0  0  0  0  0  3  0  0  0  0  0  0
  -17.5870  -30.6380   24.1450 C   0  0  0  0  0  3  0  0  0  0  0  0
  -16.4900  -29.8670   23.7260 C   0  0  0  0  0  3  0  0  0  0  0  0
  -16.7020  -28.6090   23.1380 C   0  0  0  0  0  3  0  0  0  0  0  0
  -25.8790  -32.5320   23.9120 C   0  0  0  0  0  3  0  0  0  0  0  0
  -25.5630  -33.9390   24.2160 N   0  0  0  0  0  0  0  0  0  0  0  0
  -25.9020  -34.9840   23.4510 C   0  0  0  0  0  0  0  0  0  0  0  0
  -26.5750  -34.8660   22.4230 O   0  0  0  0  0  0  0  0  0  0  0  0
  -24.9650  -34.1030   25.0130 H   0  0  0  0  0  0  0  0  0  0  0  0
  -24.1830  -36.7880   23.0750 C   0  0  0  0  0  1  0  0  0  0  0  0
  -25.4220  -36.3830   23.8910 C   0  0  0  0  0  3  0  0  0  0  0  0
  -27.5550  -37.2770   24.7170 C   0  0  0  0  0  1  0  0  0  0  0  0
  -26.4570  -37.4330   23.7670 N   0  0  0  0  0  0  0  0  0  0  0  0
  -26.0510  -38.3560   23.8980 H   0  0  0  0  0  0  0  0  0  0  0  0
  -26.3530  -31.7920   25.2240 C   0  0  1  0  0  0  0  0  0  0  0  0
  -25.2310  -31.5980   26.2720 C   0  0  0  0  0  1  0  0  0  0  0  0
  -26.9330  -30.3980   24.8980 C   0  0  0  0  0  1  0  0  0  0  0  0
  -27.4930  -32.5950   25.8930 C   0  0  0  0  0  1  0  0  0  0  0  0
  2 13  1  0
  2  1  2  0
  3  9  1  0
  3  5  1  0
  3  4  1  0
  4 52  1  0
  4  1  1  0
  5  2  1  0
  6  5  1  0
  9  8  1  1
  9  7  1  0
 10  9  1  0
 11 12  1  0
 12 10  1  0
 14 22  1  0
 15 20  1  0
 16 17  1  0
 16 15  1  0
 18 17  1  0
 18 27  1  0
 18 19  1  0
 20 14  1  0
 20 19  1  0
 21 14  2  0
 22 13  1  0
 23 22  1  0
 24 25  2  0
 25 44  1  0
 26 25  1  0
 26 29  1  0
 27 28  1  0
 27 24  1  0
 28 26  2  0
 29 30  1  0
 30 31  2  0
 32 35  1  0
 32 31  1  0
 33 32  2  0
 34 33  1  0
 34 29  2  0
 35 36  1  0
 36 37  1  0
 37 38  2  0
 39 38  1  0
 39 43  1  0
 40 39  2  0
 41 36  2  0
 41 40  1  0
 42 41  1  0
 44 45  1  0
 45 48  1  0
 45 47  1  0
 46 44  2  0
 49 50  1  0
 49 24  1  0
 51 49  1  0
 52 53  1  0
 54 65  2  0
 55 53  1  0
 55 60  1  0
 56 64  1  0
 56 66  1  0
 57 63  1  0
 57 59  1  0
 58 64  1  0
 59 60  2  0
 59 58  1  0
 61 55  2  0
 62 61  1  0
 62 57  2  0
 63 56  1  0
 64 54  1  0
 66 68  2  0
 67 66  1  0
 69 67  1  0
 70 79  2  0
 70 75  1  0
 71 67  1  0
 71 75  1  0
 72 71  1  0
 73 74  1  0
 73 72  1  0
 74 70  1  0
 75 76  2  0
 76 77  1  0
 78 77  2  0
 79 78  1  0
 80 54  1  0
 80 81  1  0
 80 90  1  0
 81 84  1  0
 82 86  1  0
 82 81  1  0
 83 82  2  0
 86 85  1  0
 88 86  1  0
 88 89  1  0
 88 87  1  0
 90 93  1  1
 90 91  1  0
 92 90  1  0
M  ISO  4  14 100  22 100  52 101  53 101
M  END
>  <TORSDO>  (83) 
F 21

>  <SCORE>  (83) 
-15.248

>  <name>  (83) 
84

>  <ligand_id>  (83) 
84

>  <original_smiles>  (83) 
[H]c1c([H])c([H])c2c(c1[H])C([H])([H])C([H])([H])C([H])([H])C2([H])N([H])C(=O)C1([H])N(C(=O)C([H])(N([H])C(=O)C([H])(N([H])C([H])([H])[H])C([H])([H])[H])C(C([H])([H])[H])(C([H])([H])[H])C([H])([H])[H])C([H])([H])c2c([H])c(OC([H])([H])n3c([H])c(C([H])([H])N([H])C(=O)N4C([H])([H])C([H])([H])C([H])([H])C([H])(n5nc(-c6c([H])c([H])c(Oc7c([H])c([H])c(F)c([H])c7F)c([H])c6[H])c(C(=O)N([H])[H])c5N([H])[H])C4([H])[H])[n+]([H])c3C(C([H])([H])[H])(C([H])([H])[H])C([H])([H])C([H])([H])C([H])([H])[H])c([H])c([H])c2C1([H])[H]

>  <smiles>  (83) 
[H]c1c([H])c([H])c2c(c1[H])C([H])([H])C([H])([H])C([H])([H])C2([H])N([H])C(=O)C1([H])N(C(=O)C([H])(N([H])C(=O)C([H])(N([H])C([H])([H])[H])C([H])([H])[H])C(C([H])([H])[H])(C([H])([H])[H])C([H])([H])[H])C([H])([H])c2c([H])c(OC([H])([H])n3c([H])c(C([H])([H])N([H])C(=O)N4C([H])([H])C([H])([H])C([H])([H])C([H])(n5nc(-c6c([H])c([H])c(Oc7c([H])c([H])c(F)c([H])c7F)c([H])c6[H])c(C(=O)N([H])[H])c5N([H])[H])C4([H])[H])[n+]([H])c3C(C([H])([H])[H])(C([H])([H])[H])C([H])([H])C([H])([H])C([H])([H])[H])c([H])c([H])c2C1([H])[H]

$$$$
85:0:0
     RDKit          3D

 93101  0  0  1  0  0  0  0  0999 V2000
  -30.6870  -14.7210   20.4890 C   0  0  0  0  0  0  0  0  0  0  0  0
  -30.4080  -12.4520   19.4710 C   0  0  0  0  0  2  0  0  0  0  0  0
  -29.4970  -12.4830   18.2270 C   0  0  0  0  0  2  0  0  0  0  0  0
  -28.0250  -12.3100   18.6490 C   0  0  0  0  0  2  0  0  0  0  0  0
  -27.6330  -13.2260   19.8380 C   0  0  0  0  0  3  0  0  0  0  0  0
  -28.6770  -13.2090   20.9740 C   0  0  0  0  0  2  0  0  0  0  0  0
  -29.9760  -13.5430   20.3830 N   0  0  0  0  0  0  0  0  0  0  0  0
  -31.8500  -14.7480   20.0750 O   0  0  0  0  0  0  0  0  0  0  0  0
  -29.6930  -18.3740   20.7880 C   0  0  0  0  0  3  0  0  0  0  0  0
  -27.2900  -17.7310   19.7850 C   0  0  0  0  0  3  0  0  0  0  0  0
  -28.7780  -19.4850   20.5840 C   0  0  0  0  0  0  0  0  0  0  0  0
  -27.4610  -19.0650   20.2230 C   0  0  0  0  0  0  0  0  0  0  0  0
  -29.3570  -16.9820   20.5390 C   0  0  0  0  0  0  0  0  0  0  0  0
  -28.1780  -16.7240   19.9430 N   0  0  0  0  0  0  0  0  0  0  0  0
  -30.1900  -15.8800   21.0510 N   0  0  0  0  0  0  0  0  0  0  0  0
  -30.9540  -16.2920   21.5650 H   0  0  0  0  0  0  0  0  0  0  0  0
  -25.2470  -13.8100   20.5730 C   0  0  0  0  0  0  0  0  0  0  0  0
  -24.1770  -13.0340   20.9160 C   0  0  0  0  0  0  0  0  0  0  0  0
  -24.6360  -11.6840   20.8700 C   0  0  0  0  0  0  0  0  0  0  0  0
  -26.2880  -12.9340   20.3240 N   0  0  0  0  0  0  0  0  0  0  0  0
  -25.9300  -11.6480   20.5750 N   0  0  0  0  0  0  0  0  0  0  0  0
  -23.9030  -10.4230   21.0400 C   0  0  0  0  0  0  0  0  0  0  0  0
  -24.3590   -9.4160   21.9180 C   0  0  0  0  0  3  0  0  0  0  0  0
  -23.6280   -8.2180   22.0750 C   0  0  0  0  0  3  0  0  0  0  0  0
  -22.4250   -8.0230   21.3550 C   0  0  0  0  0  0  0  0  0  0  0  0
  -21.9880   -9.0170   20.4640 C   0  0  0  0  0  3  0  0  0  0  0  0
  -22.7200  -10.2060   20.3050 C   0  0  0  0  0  3  0  0  0  0  0  0
  -21.6630   -6.8820   21.4230 O   0  0  0  0  0  0  0  0  0  0  0  0
  -21.6830   -6.0700   22.5270 C   0  0  0  0  0  0  0  0  0  0  0  0
  -21.3980   -6.5630   23.8200 C   0  0  0  0  0  3  0  0  0  0  0  0
  -21.3660   -5.6780   24.9160 C   0  0  0  0  0  3  0  0  0  0  0  0
  -21.6060   -4.3050   24.7220 C   0  0  0  0  0  0  0  0  0  0  0  0
  -21.8820   -3.8130   23.4350 C   0  0  0  0  0  3  0  0  0  0  0  0
  -21.9190   -4.6940   22.3400 C   0  0  0  0  0  0  0  0  0  0  0  0
  -22.1670   -4.2130   21.0980 F   0  0  0  0  0  0  0  0  0  0  0  0
  -21.5650   -3.4530   25.7740 F   0  0  0  0  0  0  0  0  0  0  0  0
  -22.7800  -13.5120   21.1840 C   0  0  0  0  0  0  0  0  0  0  0  0
  -22.0440  -12.8130   22.0410 N   0  0  0  0  0  0  0  0  0  0  0  0
  -22.3500  -14.5420   20.6670 O   0  0  0  0  0  0  0  0  0  0  0  0
  -22.4110  -11.9830   22.4830 H   0  0  0  0  0  0  0  0  0  0  0  0
  -21.1040  -13.1110   22.2560 H   0  0  0  0  0  0  0  0  0  0  0  0
  -25.4250  -15.1780   20.4350 N   0  0  0  0  0  0  0  0  0  0  0  0
  -24.6890  -15.8550   20.5980 H   0  0  0  0  0  0  0  0  0  0  0  0
  -26.3370  -15.5860   20.2350 H   0  0  0  0  0  0  0  0  0  0  0  0
  -26.1050  -20.7910   21.6770 C   0  0  0  0  0  1  0  0  0  0  0  0
  -26.1350  -19.8160   20.4710 C   0  0  0  0  0  3  0  0  0  0  0  0
  -24.5150  -21.5790   19.0310 C   0  0  0  0  0  1  0  0  0  0  0  0
  -25.4040  -20.3020   19.1770 C   0  0  0  0  0  2  0  0  0  0  0  0
  -29.1870  -20.9950   20.9270 C   0  0  0  0  0  3  0  0  0  0  0  0
  -28.7680  -22.2690   20.0130 C   0  0  0  0  0  3  0  0  0  0  0  0
  -28.9910  -23.7880   20.5240 C   0  0  0  0  0  3  0  0  0  0  0  0
  -28.1550  -24.9650   19.8240 C   0  0  0  0  0  3  0  0  0  0  0  0
  -28.3210  -26.4070   20.1900 O   0  0  0  0  0  0  0  0  0  0  0  0
  -24.6280  -31.8580   23.2020 C   0  0  0  0  0  0  0  0  0  0  0  0
  -27.2180  -27.2890   20.1140 C   0  0  0  0  0  0  0  0  0  0  0  0
  -23.4220  -30.4840   21.5460 C   0  0  0  0  0  3  0  0  0  0  0  0
  -24.8680  -28.9380   20.1090 C   0  0  0  0  0  0  0  0  0  0  0  0
  -25.9680  -30.7750   21.3830 C   0  0  0  0  0  2  0  0  0  0  0  0
  -26.0380  -29.4010   20.7210 C   0  0  0  0  0  0  0  0  0  0  0  0
  -27.2150  -28.5900   20.7180 C   0  0  0  0  0  3  0  0  0  0  0  0
  -26.0300  -26.9030   19.4500 C   0  0  0  0  0  3  0  0  0  0  0  0
  -24.8670  -27.6940   19.4640 C   0  0  0  0  0  3  0  0  0  0  0  0
  -23.6360  -29.8200   20.1620 C   0  0  0  0  0  2  0  0  0  0  0  0
  -24.6910  -31.0570   22.0970 N   0  0  0  0  0  0  0  0  0  0  0  0
  -23.5460  -32.1390   23.7360 O   0  0  0  0  0  0  0  0  0  0  0  0
  -22.7500  -29.4620   22.4940 C   0  0  0  0  0  0  0  0  0  0  0  0
  -21.4230  -29.3020   22.3640 N   0  0  0  0  0  0  0  0  0  0  0  0
  -23.4230  -28.8170   23.3030 O   0  0  0  0  0  0  0  0  0  0  0  0
  -20.9460  -29.8800   21.6880 H   0  0  0  0  0  0  0  0  0  0  0  0
  -18.0320  -28.1430   22.8520 C   0  0  0  0  0  0  0  0  0  0  0  0
  -20.5900  -28.3670   23.1260 C   0  0  0  0  0  3  0  0  0  0  0  0
  -20.6770  -26.9420   22.5340 C   0  0  0  0  0  2  0  0  0  0  0  0
  -19.5750  -26.6470   21.5150 C   0  0  0  0  0  2  0  0  0  0  0  0
  -18.1940  -26.7990   22.1600 C   0  0  0  0  0  2  0  0  0  0  0  0
  -19.1580  -28.8840   23.2910 C   0  0  0  0  0  0  0  0  0  0  0  0
  -18.9550  -30.1440   23.8950 C   0  0  0  0  0  3  0  0  0  0  0  0
  -17.6570  -30.6630   24.0610 C   0  0  0  0  0  3  0  0  0  0  0  0
  -16.5430  -29.9160   23.6390 C   0  0  0  0  0  3  0  0  0  0  0  0
  -16.7320  -28.6560   23.0410 C   0  0  0  0  0  3  0  0  0  0  0  0
  -25.9130  -32.4770   23.8330 C   0  0  0  0  0  3  0  0  0  0  0  0
  -25.5930  -33.8560   24.2250 N   0  0  0  0  0  0  0  0  0  0  0  0
  -25.9060  -34.9440   23.5080 C   0  0  0  0  0  0  0  0  0  0  0  0
  -26.5650  -34.8920   22.4680 O   0  0  0  0  0  0  0  0  0  0  0  0
  -25.0070  -33.9690   25.0390 H   0  0  0  0  0  0  0  0  0  0  0  0
  -24.1500  -36.7280   23.2640 C   0  0  0  0  0  1  0  0  0  0  0  0
  -25.4130  -36.3080   24.0320 C   0  0  0  0  0  3  0  0  0  0  0  0
  -27.5590  -37.1810   24.8470 C   0  0  0  0  0  1  0  0  0  0  0  0
  -26.4300  -37.3790   23.9390 N   0  0  0  0  0  0  0  0  0  0  0  0
  -26.0190  -38.2860   24.1370 H   0  0  0  0  0  0  0  0  0  0  0  0
  -26.4490  -31.6600   25.0730 C   0  0  1  0  0  0  0  0  0  0  0  0
  -25.3710  -31.3730   26.1440 C   0  0  0  0  0  1  0  0  0  0  0  0
  -27.0330  -30.3010   24.6240 C   0  0  0  0  0  1  0  0  0  0  0  0
  -27.6030  -32.4360   25.7500 C   0  0  0  0  0  1  0  0  0  0  0  0
  1 15  1  0
  2  7  1  0
  3  4  1  0
  3  2  1  0
  5  4  1  0
  5 20  1  0
  5  6  1  0
  7  1  1  0
  7  6  1  0
  8  1  2  0
 10 14  2  0
 10 12  1  0
 11  9  1  0
 11 49  1  0
 12 46  1  0
 12 11  2  0
 13  9  2  0
 13 15  1  0
 14 13  1  0
 15 16  1  0
 17 18  2  0
 18 37  1  0
 19 18  1  0
 19 22  1  0
 20 17  1  0
 20 21  1  0
 21 19  2  0
 22 23  1  0
 23 24  2  0
 25 28  1  0
 25 24  1  0
 26 25  2  0
 27 26  1  0
 27 22  2  0
 28 29  1  0
 29 30  1  0
 30 31  2  0
 32 31  1  0
 32 36  1  0
 33 32  2  0
 34 29  2  0
 34 33  1  0
 35 34  1  0
 37 38  1  0
 38 41  1  0
 38 40  1  0
 39 37  2  0
 42 17  1  0
 42 43  1  0
 44 42  1  0
 46 45  1  0
 47 48  1  0
 48 46  1  0
 50 51  1  0
 50 49  2  0
 52 53  1  0
 52 51  2  0
 54 65  2  0
 55 53  1  0
 55 60  1  0
 56 64  1  0
 56 66  1  0
 57 63  1  0
 57 59  1  0
 58 64  1  0
 59 58  1  0
 60 59  2  0
 61 62  1  0
 61 55  2  0
 62 57  2  0
 63 56  1  0
 64 54  1  0
 66 68  2  0
 67 66  1  0
 69 67  1  0
 70 79  2  0
 70 75  1  0
 71 67  1  0
 71 75  1  0
 72 71  1  0
 73 74  1  0
 73 72  1  0
 74 70  1  0
 75 76  2  0
 76 77  1  0
 78 77  2  0
 79 78  1  0
 80 54  1  0
 80 81  1  0
 80 90  1  0
 81 84  1  0
 82 86  1  0
 82 81  1  0
 83 82  2  0
 86 85  1  0
 88 86  1  0
 88 89  1  0
 88 87  1  0
 90 93  1  1
 90 91  1  0
 92 90  1  0
M  ISO  4   1 100  15 100  52 101  53 101
M  END
>  <TORSDO>  (84) 
F 21

>  <SCORE>  (84) 
-4.906

>  <name>  (84) 
85

>  <ligand_id>  (84) 
85

>  <original_smiles>  (84) 
[H]c1nc(N([H])C(=O)N2C([H])([H])C([H])([H])C([H])([H])C([H])(n3nc(-c4c([H])c([H])c(Oc5c([H])c([H])c(F)c([H])c5F)c([H])c4[H])c(C(=O)N([H])[H])c3N([H])[H])C2([H])[H])c([H])c(C([H])([H])C([H])([H])C([H])([H])C([H])([H])Oc2c([H])c([H])c3c(c2[H])C([H])([H])N(C(=O)C([H])(N([H])C(=O)C([H])(N([H])C([H])([H])[H])C([H])([H])[H])C(C([H])([H])[H])(C([H])([H])[H])C([H])([H])[H])C([H])(C(=O)N([H])C2([H])c4c([H])c([H])c([H])c([H])c4C([H])([H])C([H])([H])C2([H])[H])C3([H])[H])c1C([H])(C([H])([H])[H])C([H])([H])C([H])([H])[H]

>  <smiles>  (84) 
[H]c1nc(N([H])C(=O)N2C([H])([H])C([H])([H])C([H])([H])C([H])(n3nc(-c4c([H])c([H])c(Oc5c([H])c([H])c(F)c([H])c5F)c([H])c4[H])c(C(=O)N([H])[H])c3N([H])[H])C2([H])[H])c([H])c(C([H])([H])C([H])([H])C([H])([H])C([H])([H])Oc2c([H])c([H])c3c(c2[H])C([H])([H])N(C(=O)C([H])(N([H])C(=O)C([H])(N([H])C([H])([H])[H])C([H])([H])[H])C(C([H])([H])[H])(C([H])([H])[H])C([H])([H])[H])C([H])(C(=O)N([H])C2([H])c4c([H])c([H])c([H])c([H])c4C([H])([H])C([H])([H])C2([H])[H])C3([H])[H])c1C([H])(C([H])([H])[H])C([H])([H])C([H])([H])[H]

$$$$
86:0:0
     RDKit          3D

 94102  0  0  1  0  0  0  0  0999 V2000
  -30.1160  -19.7790   19.6860 C   0  0  0  0  0  3  0  0  0  0  0  0
  -29.2850  -20.9700   19.8090 C   0  0  0  0  0  0  0  0  0  0  0  0
  -27.8980  -20.6960   19.9660 C   0  0  0  0  0  0  0  0  0  0  0  0
  -29.5940  -18.4270   19.7330 C   0  0  0  0  0  0  0  0  0  0  0  0
  -27.4510  -19.3450   20.0040 C   0  0  0  0  0  0  0  0  0  0  0  0
  -26.9100  -21.8500   20.1600 C   0  0  0  0  0  1  0  0  0  0  0  0
  -28.2610  -18.2740   19.8690 N   0  0  0  0  0  0  0  0  0  0  0  0
  -30.4130  -17.0950   19.6970 C   0  0  0  0  0  3  0  0  0  0  0  0
  -30.0580  -15.8920   20.1230 N   0  0  0  0  0  0  0  0  0  0  0  0
  -30.9480  -14.7670   20.0530 C   0  0  0  0  0  0  0  0  0  0  0  0
  -30.9290  -12.2950   19.6420 C   0  0  0  0  0  2  0  0  0  0  0  0
  -30.0510  -12.0170   18.3990 C   0  0  0  0  0  2  0  0  0  0  0  0
  -28.5690  -11.8650   18.7990 C   0  0  0  0  0  2  0  0  0  0  0  0
  -28.0940  -13.0050   19.7390 C   0  0  0  0  0  3  0  0  0  0  0  0
  -29.0940  -13.2460   20.8900 C   0  0  0  0  0  2  0  0  0  0  0  0
  -30.4080  -13.5210   20.2920 N   0  0  0  0  0  0  0  0  0  0  0  0
  -32.1210  -14.8290   19.6720 O   0  0  0  0  0  0  0  0  0  0  0  0
  -25.7410  -13.7050   20.4830 C   0  0  0  0  0  0  0  0  0  0  0  0
  -24.6400  -12.9800   20.8500 C   0  0  0  0  0  0  0  0  0  0  0  0
  -25.0370  -11.6090   20.8090 C   0  0  0  0  0  0  0  0  0  0  0  0
  -26.7400  -12.7780   20.2330 N   0  0  0  0  0  0  0  0  0  0  0  0
  -26.3220  -11.5100   20.4910 N   0  0  0  0  0  0  0  0  0  0  0  0
  -24.2530  -10.3810   20.9970 C   0  0  0  0  0  0  0  0  0  0  0  0
  -24.6400   -9.3920   21.9270 C   0  0  0  0  0  3  0  0  0  0  0  0
  -23.8600   -8.2290   22.1030 C   0  0  0  0  0  3  0  0  0  0  0  0
  -22.6780   -8.0460   21.3470 C   0  0  0  0  0  0  0  0  0  0  0  0
  -22.3090   -9.0220   20.4030 C   0  0  0  0  0  3  0  0  0  0  0  0
  -23.0890  -10.1780   20.2280 C   0  0  0  0  0  3  0  0  0  0  0  0
  -21.8720   -6.9360   21.4300 O   0  0  0  0  0  0  0  0  0  0  0  0
  -21.7440   -6.2260   22.5960 C   0  0  0  0  0  0  0  0  0  0  0  0
  -21.2990   -6.8310   23.7910 C   0  0  0  0  0  3  0  0  0  0  0  0
  -21.1160   -6.0500   24.9500 C   0  0  0  0  0  3  0  0  0  0  0  0
  -21.3660   -4.6650   24.9130 C   0  0  0  0  0  0  0  0  0  0  0  0
  -21.8040   -4.0590   23.7220 C   0  0  0  0  0  3  0  0  0  0  0  0
  -21.9890   -4.8380   22.5670 C   0  0  0  0  0  0  0  0  0  0  0  0
  -22.3900   -4.2450   21.4160 F   0  0  0  0  0  0  0  0  0  0  0  0
  -21.1820   -3.9130   26.0240 F   0  0  0  0  0  0  0  0  0  0  0  0
  -23.2690  -13.5210   21.1340 C   0  0  0  0  0  0  0  0  0  0  0  0
  -22.5240  -12.8670   22.0160 N   0  0  0  0  0  0  0  0  0  0  0  0
  -22.8680  -14.5590   20.6060 O   0  0  0  0  0  0  0  0  0  0  0  0
  -22.8620  -12.0290   22.4670 H   0  0  0  0  0  0  0  0  0  0  0  0
  -21.6020  -13.2090   22.2480 H   0  0  0  0  0  0  0  0  0  0  0  0
  -25.9740  -15.0670   20.3210 N   0  0  0  0  0  0  0  0  0  0  0  0
  -25.2610  -15.7700   20.4810 H   0  0  0  0  0  0  0  0  0  0  0  0
  -26.8810  -15.4620   20.0990 H   0  0  0  0  0  0  0  0  0  0  0  0
  -25.9990  -18.9640   20.2590 C   0  0  0  0  0  2  0  0  0  0  0  0
  -23.8860  -17.9100   19.3150 C   0  0  0  0  0  1  0  0  0  0  0  0
  -25.2690  -18.4900   18.9940 C   0  0  0  0  0  2  0  0  0  0  0  0
  -29.8350  -22.4690   20.0280 C   0  0  0  0  0  3  0  0  0  0  0  0
  -32.0510  -23.7640   20.4280 C   0  0  0  0  0  1  0  0  0  0  0  0
  -31.3750  -22.4940   19.8960 C   0  0  0  0  0  2  0  0  0  0  0  0
  -29.1860  -23.8000   19.3330 C   0  0  0  0  0  2  0  0  0  0  0  0
  -28.7570  -25.0800   20.2420 C   0  0  0  0  0  2  0  0  0  0  0  0
  -28.8030  -26.5120   19.8000 O   0  0  0  0  0  0  0  0  0  0  0  0
  -24.7750  -31.5630   23.1390 C   0  0  0  0  0  0  0  0  0  0  0  0
  -27.6480  -27.3170   19.8550 C   0  0  0  0  0  0  0  0  0  0  0  0
  -23.6700  -30.2400   21.3700 C   0  0  0  0  0  3  0  0  0  0  0  0
  -25.2210  -28.8420   19.8840 C   0  0  0  0  0  0  0  0  0  0  0  0
  -26.2000  -30.6660   21.2800 C   0  0  0  0  0  2  0  0  0  0  0  0
  -26.3550  -29.3360   20.5430 C   0  0  0  0  0  0  0  0  0  0  0  0
  -27.5720  -28.5890   20.5140 C   0  0  0  0  0  3  0  0  0  0  0  0
  -26.4920  -26.8750   19.1830 C   0  0  0  0  0  3  0  0  0  0  0  0
  -25.2930  -27.6180   19.1960 C   0  0  0  0  0  3  0  0  0  0  0  0
  -23.9470  -29.6650   19.9560 C   0  0  0  0  0  2  0  0  0  0  0  0
  -24.8980  -30.8390   21.9870 N   0  0  0  0  0  0  0  0  0  0  0  0
  -23.6690  -31.7600   23.6630 O   0  0  0  0  0  0  0  0  0  0  0  0
  -23.0240  -29.1360   22.2400 C   0  0  0  0  0  0  0  0  0  0  0  0
  -21.7000  -28.9520   22.1020 N   0  0  0  0  0  0  0  0  0  0  0  0
  -23.7150  -28.4520   23.0000 O   0  0  0  0  0  0  0  0  0  0  0  0
  -21.2010  -29.5570   21.4660 H   0  0  0  0  0  0  0  0  0  0  0  0
  -18.3370  -27.7040   22.5600 C   0  0  0  0  0  0  0  0  0  0  0  0
  -20.9010  -27.9360   22.7900 C   0  0  0  0  0  3  0  0  0  0  0  0
  -20.9870  -26.5750   22.0610 C   0  0  0  0  0  2  0  0  0  0  0  0
  -19.8570  -26.3610   21.0480 C   0  0  0  0  0  2  0  0  0  0  0  0
  -18.4930  -26.4360   21.7380 C   0  0  0  0  0  2  0  0  0  0  0  0
  -19.4670  -28.4160   23.0410 C   0  0  0  0  0  0  0  0  0  0  0  0
  -19.2670  -29.6080   23.7710 C   0  0  0  0  0  3  0  0  0  0  0  0
  -17.9670  -30.0860   24.0280 C   0  0  0  0  0  3  0  0  0  0  0  0
  -16.8520  -29.3680   23.5620 C   0  0  0  0  0  3  0  0  0  0  0  0
  -17.0370  -28.1800   22.8350 C   0  0  0  0  0  3  0  0  0  0  0  0
  -26.0160  -32.1990   23.8400 C   0  0  0  0  0  3  0  0  0  0  0  0
  -25.6620  -33.5810   24.1980 N   0  0  0  0  0  0  0  0  0  0  0  0
  -26.0010  -34.6630   23.4850 C   0  0  0  0  0  0  0  0  0  0  0  0
  -26.7100  -34.6060   22.4770 O   0  0  0  0  0  0  0  0  0  0  0  0
  -25.0330  -33.6980   24.9780 H   0  0  0  0  0  0  0  0  0  0  0  0
  -24.2460  -36.4320   23.1250 C   0  0  0  0  0  1  0  0  0  0  0  0
  -25.4680  -36.0280   23.9640 C   0  0  0  0  0  3  0  0  0  0  0  0
  -27.5510  -36.9400   24.8930 C   0  0  0  0  0  1  0  0  0  0  0  0
  -26.4800  -37.1060   23.9130 N   0  0  0  0  0  0  0  0  0  0  0  0
  -26.0470  -38.0130   24.0660 H   0  0  0  0  0  0  0  0  0  0  0  0
  -26.4890  -31.3980   25.1160 C   0  0  1  0  0  0  0  0  0  0  0  0
  -25.3530  -31.1170   26.1270 C   0  0  0  0  0  1  0  0  0  0  0  0
  -27.1080  -30.0370   24.7170 C   0  0  0  0  0  1  0  0  0  0  0  0
  -27.5980  -32.1880   25.8500 C   0  0  0  0  0  1  0  0  0  0  0  0
  1  4  2  0
  1  2  1  0
  2  3  2  0
  2 49  1  0
  3  5  1  0
  3  6  1  0
  4  7  1  0
  5 46  1  0
  7  5  2  0
  8  4  1  0
  8  9  2  0
 10  9  1  0
 10 16  1  0
 11 16  1  0
 12 13  1  0
 12 11  1  0
 14 13  1  0
 14 21  1  0
 14 15  1  0
 16 15  1  0
 17 10  2  0
 18 19  2  0
 19 38  1  0
 20 19  1  0
 20 23  1  0
 21 18  1  0
 21 22  1  0
 22 20  2  0
 23 24  1  0
 24 25  2  0
 26 29  1  0
 26 25  1  0
 27 26  2  0
 28 27  1  0
 28 23  2  0
 29 30  1  0
 30 31  1  0
 31 32  2  0
 33 32  1  0
 33 37  1  0
 34 33  2  0
 35 30  2  0
 35 34  1  0
 36 35  1  0
 38 39  1  0
 39 42  1  0
 39 41  1  0
 40 38  2  0
 43 44  1  0
 43 18  1  0
 45 43  1  0
 48 47  1  0
 48 46  1  0
 49 52  1  0
 51 49  1  0
 51 50  1  0
 52 53  1  0
 54 56  1  0
 54 53  1  0
 55 66  2  0
 56 61  1  0
 57 65  1  0
 57 67  1  0
 58 64  1  0
 58 60  1  0
 59 65  1  0
 60 59  1  0
 61 60  2  0
 62 63  1  0
 62 56  2  0
 63 58  2  0
 64 57  1  0
 65 55  1  0
 67 69  2  0
 68 67  1  0
 70 68  1  0
 71 80  2  0
 71 76  1  0
 72 68  1  0
 72 76  1  0
 73 72  1  0
 74 75  1  0
 74 73  1  0
 75 71  1  0
 76 77  2  0
 77 78  1  0
 79 78  2  0
 80 79  1  0
 81 55  1  0
 81 82  1  0
 81 91  1  0
 82 85  1  0
 83 87  1  0
 83 82  1  0
 84 83  2  0
 87 86  1  0
 89 87  1  0
 89 90  1  0
 89 88  1  0
 91 94  1  1
 91 92  1  0
 93 91  1  0
M  ISO  4   9 100  10 100  53 101  54 101
M  END
>  <TORSDO>  (85) 
F 23

>  <SCORE>  (85) 
-8.473

>  <name>  (85) 
86

>  <ligand_id>  (85) 
86

>  <original_smiles>  (85) 
[H]C(=NC(=O)N1C([H])([H])C([H])([H])C([H])([H])C([H])(n2nc(-c3c([H])c([H])c(Oc4c([H])c([H])c(F)c([H])c4F)c([H])c3[H])c(C(=O)N([H])[H])c2N([H])[H])C1([H])[H])c1nc(C([H])([H])C([H])([H])C([H])([H])[H])c(C([H])([H])[H])c(C([H])(C([H])([H])C([H])([H])[H])C([H])([H])C([H])([H])Oc2c([H])c([H])c3c(c2[H])C([H])([H])N(C(=O)C([H])(N([H])C(=O)C([H])(N([H])C([H])([H])[H])C([H])([H])[H])C(C([H])([H])[H])(C([H])([H])[H])C([H])([H])[H])C([H])(C(=O)N([H])C2([H])c4c([H])c([H])c([H])c([H])c4C([H])([H])C([H])([H])C2([H])[H])C3([H])[H])c1[H]

>  <smiles>  (85) 
[H]C(=NC(=O)N1C([H])([H])C([H])([H])C([H])([H])C([H])(n2nc(-c3c([H])c([H])c(Oc4c([H])c([H])c(F)c([H])c4F)c([H])c3[H])c(C(=O)N([H])[H])c2N([H])[H])C1([H])[H])c1nc(C([H])([H])C([H])([H])C([H])([H])[H])c(C([H])([H])[H])c(C([H])(C([H])([H])C([H])([H])[H])C([H])([H])C([H])([H])Oc2c([H])c([H])c3c(c2[H])C([H])([H])N(C(=O)C([H])(N([H])C(=O)C([H])(N([H])C([H])([H])[H])C([H])([H])[H])C(C([H])([H])[H])(C([H])([H])[H])C([H])([H])[H])C([H])(C(=O)N([H])C2([H])c4c([H])c([H])c([H])c([H])c4C([H])([H])C([H])([H])C2([H])[H])C3([H])[H])c1[H]

$$$$
87:0:0
     RDKit          3D

100108  0  0  1  0  0  0  0  0999 V2000
  -28.9090  -22.1640   19.8140 C   0  0  0  0  0  3  0  0  0  0  0  0
  -31.6830  -18.7790   20.1280 C   0  0  0  0  0  3  0  0  0  0  0  0
  -30.3520  -18.5820   20.5400 C   0  0  0  0  0  0  0  0  0  0  0  0
  -31.3180  -21.0570   19.7880 C   0  0  0  0  0  0  0  0  0  0  0  0
  -29.9350  -20.9520   20.1380 C   0  0  0  0  0  0  0  0  0  0  0  0
  -32.1610  -19.9950   19.7850 N   0  0  0  0  0  0  0  0  0  0  0  0
  -29.4810  -19.6830   20.5430 N   0  0  0  0  0  0  0  0  0  0  0  0
  -32.0030  -22.3490   19.3720 C   0  0  0  0  0  2  0  0  0  0  0  0
  -32.3520  -22.3980   17.8800 C   0  0  0  0  0  2  0  0  0  0  0  0
  -33.3910  -23.7880   16.0210 C   0  0  0  0  0  1  0  0  0  0  0  0
  -32.9640  -23.7480   17.4890 C   0  0  0  0  0  2  0  0  0  0  0  0
  -30.0280  -17.2020   21.2580 C   0  0  0  0  0  2  0  0  0  0  0  0
  -30.7800  -14.7540   20.4450 C   0  0  0  0  0  0  0  0  0  0  0  0
  -30.6240  -12.4930   19.3710 C   0  0  0  0  0  2  0  0  0  0  0  0
  -29.6880  -12.5810   18.1450 C   0  0  0  0  0  2  0  0  0  0  0  0
  -28.2090  -12.4040   18.5590 C   0  0  0  0  0  2  0  0  0  0  0  0
  -27.8250  -13.2810   19.7790 C   0  0  0  0  0  3  0  0  0  0  0  0
  -28.8720  -13.1540   20.9030 C   0  0  0  0  0  2  0  0  0  0  0  0
  -30.1750  -13.5230   20.3290 N   0  0  0  0  0  0  0  0  0  0  0  0
  -31.9810  -14.9010   20.2150 O   0  0  0  0  0  0  0  0  0  0  0  0
  -29.9260  -15.8280   20.6050 N   0  0  0  0  0  0  0  0  0  0  0  0
  -28.9700  -15.5270   20.5200 H   0  0  0  0  0  0  0  0  0  0  0  0
  -25.4320  -13.8900   20.4870 C   0  0  0  0  0  0  0  0  0  0  0  0
  -24.3580  -13.1240   20.8510 C   0  0  0  0  0  0  0  0  0  0  0  0
  -24.8160  -11.7730   20.8290 C   0  0  0  0  0  0  0  0  0  0  0  0
  -26.4730  -13.0050   20.2570 N   0  0  0  0  0  0  0  0  0  0  0  0
  -26.1070  -11.7260   20.5250 N   0  0  0  0  0  0  0  0  0  0  0  0
  -24.0830  -10.5140   21.0170 C   0  0  0  0  0  0  0  0  0  0  0  0
  -24.5030   -9.5470   21.9590 C   0  0  0  0  0  3  0  0  0  0  0  0
  -23.7680   -8.3560   22.1360 C   0  0  0  0  0  3  0  0  0  0  0  0
  -22.6000   -8.1190   21.3720 C   0  0  0  0  0  0  0  0  0  0  0  0
  -22.2020   -9.0730   20.4170 C   0  0  0  0  0  3  0  0  0  0  0  0
  -22.9380  -10.2570   20.2380 C   0  0  0  0  0  3  0  0  0  0  0  0
  -21.8430   -6.9750   21.4510 O   0  0  0  0  0  0  0  0  0  0  0  0
  -21.7720   -6.2410   22.6090 C   0  0  0  0  0  0  0  0  0  0  0  0
  -21.3110   -6.8010   23.8210 C   0  0  0  0  0  3  0  0  0  0  0  0
  -21.1870   -5.9910   24.9680 C   0  0  0  0  0  3  0  0  0  0  0  0
  -21.5160   -4.6250   24.9050 C   0  0  0  0  0  0  0  0  0  0  0  0
  -21.9750   -4.0650   23.6990 C   0  0  0  0  0  3  0  0  0  0  0  0
  -22.1010   -4.8720   22.5530 C   0  0  0  0  0  0  0  0  0  0  0  0
  -22.5220   -4.3240   21.3890 F   0  0  0  0  0  0  0  0  0  0  0  0
  -21.3920   -3.8450   26.0060 F   0  0  0  0  0  0  0  0  0  0  0  0
  -22.9610  -13.6120   21.1020 C   0  0  0  0  0  0  0  0  0  0  0  0
  -22.2170  -12.9300   21.9630 N   0  0  0  0  0  0  0  0  0  0  0  0
  -22.5370  -14.6350   20.5660 O   0  0  0  0  0  0  0  0  0  0  0  0
  -22.5730  -12.1110   22.4280 H   0  0  0  0  0  0  0  0  0  0  0  0
  -21.2750  -13.2400   22.1640 H   0  0  0  0  0  0  0  0  0  0  0  0
  -25.5980  -15.2610   20.3090 N   0  0  0  0  0  0  0  0  0  0  0  0
  -24.8120  -15.8940   20.3930 H   0  0  0  0  0  0  0  0  0  0  0  0
  -26.4240  -15.7040   19.9300 H   0  0  0  0  0  0  0  0  0  0  0  0
  -27.5280  -21.6080   19.7890 N   0  0  0  0  0  4  0  0  0  0  0  0
  -27.5170  -20.9000   20.5070 H   0  0  0  0  0  0  0  0  0  0  0  0
  -26.8490  -22.3060   20.0330 H   0  0  0  0  0  0  0  0  0  0  0  0
  -27.1180  -20.9400   18.5220 C   0  0  0  0  0  2  0  0  0  0  0  0
  -24.5400  -21.0770   18.5400 C   0  0  0  0  0  1  0  0  0  0  0  0
  -25.9070  -23.0560   17.6660 C   0  0  0  0  0  1  0  0  0  0  0  0
  -25.8470  -21.5300   17.8640 C   0  0  0  0  0  3  0  0  0  0  0  0
  -28.9410  -23.6400   20.5450 C   0  0  0  0  0  3  0  0  0  0  0  0
  -28.2890  -24.9360   19.7940 C   0  0  0  0  0  3  0  0  0  0  0  0
  -28.3150  -26.3580   20.3300 O   0  0  0  0  0  0  0  0  0  0  0  0
  -24.6220  -31.9270   23.2500 C   0  0  0  0  0  0  0  0  0  0  0  0
  -27.2100  -27.2520   20.2410 C   0  0  0  0  0  0  0  0  0  0  0  0
  -23.4140  -30.5020   21.6390 C   0  0  0  0  0  3  0  0  0  0  0  0
  -24.8570  -28.9260   20.2300 C   0  0  0  0  0  0  0  0  0  0  0  0
  -25.9630  -30.7920   21.4540 C   0  0  0  0  0  2  0  0  0  0  0  0
  -26.0340  -29.3980   20.8220 C   0  0  0  0  0  0  0  0  0  0  0  0
  -27.2080  -28.5710   20.8240 C   0  0  0  0  0  3  0  0  0  0  0  0
  -26.0070  -26.8690   19.6030 C   0  0  0  0  0  3  0  0  0  0  0  0
  -24.8520  -27.6690   19.6120 C   0  0  0  0  0  3  0  0  0  0  0  0
  -23.6250  -29.8050   20.2700 C   0  0  0  0  0  2  0  0  0  0  0  0
  -24.6860  -31.0940   22.1680 N   0  0  0  0  0  0  0  0  0  0  0  0
  -23.5390  -32.2150   23.7800 O   0  0  0  0  0  0  0  0  0  0  0  0
  -22.7520  -29.5010   22.6190 C   0  0  0  0  0  0  0  0  0  0  0  0
  -21.4300  -29.3010   22.4780 N   0  0  0  0  0  0  0  0  0  0  0  0
  -23.4260  -28.9070   23.4630 O   0  0  0  0  0  0  0  0  0  0  0  0
  -20.9440  -29.8280   21.7680 H   0  0  0  0  0  0  0  0  0  0  0  0
  -18.0710  -28.0350   22.9360 C   0  0  0  0  0  0  0  0  0  0  0  0
  -20.6130  -28.3720   23.2630 C   0  0  0  0  0  3  0  0  0  0  0  0
  -20.7680  -26.9230   22.7450 C   0  0  0  0  0  2  0  0  0  0  0  0
  -19.7020  -26.5330   21.7170 C   0  0  0  0  0  2  0  0  0  0  0  0
  -18.3000  -26.6660   22.3170 C   0  0  0  0  0  2  0  0  0  0  0  0
  -19.1590  -28.8420   23.3650 C   0  0  0  0  0  0  0  0  0  0  0  0
  -18.8900  -30.1200   23.9020 C   0  0  0  0  0  3  0  0  0  0  0  0
  -17.5700  -30.5910   24.0150 C   0  0  0  0  0  3  0  0  0  0  0  0
  -16.4970  -29.7820   23.6050 C   0  0  0  0  0  3  0  0  0  0  0  0
  -16.7480  -28.5050   23.0700 C   0  0  0  0  0  3  0  0  0  0  0  0
  -25.9050  -32.5700   23.8580 C   0  0  0  0  0  3  0  0  0  0  0  0
  -26.4470  -31.7970   25.1230 C   0  0  1  0  0  0  0  0  0  0  0  0
  -25.3680  -31.5390   26.2000 C   0  0  0  0  0  1  0  0  0  0  0  0
  -27.0440  -30.4300   24.7180 C   0  0  0  0  0  1  0  0  0  0  0  0
  -27.5890  -32.6060   25.7800 C   0  0  0  0  0  1  0  0  0  0  0  0
  -25.5800  -33.9620   24.2050 N   0  0  0  0  0  0  0  0  0  0  0  0
  -25.8760  -35.0260   23.4460 C   0  0  0  0  0  0  0  0  0  0  0  0
  -26.5180  -34.9420   22.3970 O   0  0  0  0  0  0  0  0  0  0  0  0
  -25.0030  -34.1020   25.0210 H   0  0  0  0  0  0  0  0  0  0  0  0
  -24.1130  -36.8000   23.1580 C   0  0  0  0  0  1  0  0  0  0  0  0
  -25.3810  -36.4030   23.9300 C   0  0  0  0  0  3  0  0  0  0  0  0
  -27.5190  -37.3190   24.7180 C   0  0  0  0  0  1  0  0  0  0  0  0
  -26.3940  -37.4730   23.7990 N   0  0  0  0  0  0  0  0  0  0  0  0
  -25.9760  -38.3850   23.9600 H   0  0  0  0  0  0  0  0  0  0  0  0
  1  5  1  0
  1 58  1  0
  2  3  1  0
  3  7  2  0
  3 12  1  0
  4  5  2  0
  5  7  1  0
  6  4  1  0
  6  2  2  0
  8  4  1  0
  9  8  1  0
 10 11  1  0
 11  9  1  0
 13 21  1  0
 14 19  1  0
 15 16  1  0
 15 14  1  0
 17 16  1  0
 17 26  1  0
 17 18  1  0
 19 13  1  0
 19 18  1  0
 20 13  2  0
 21 12  1  0
 22 21  1  0
 23 24  2  0
 24 43  1  0
 25 24  1  0
 25 28  1  0
 26 23  1  0
 26 27  1  0
 27 25  2  0
 28 29  1  0
 29 30  2  0
 31 34  1  0
 31 30  1  0
 32 31  2  0
 33 32  1  0
 33 28  2  0
 34 35  1  0
 35 36  1  0
 36 37  2  0
 38 37  1  0
 38 42  1  0
 39 38  2  0
 40 35  2  0
 40 39  1  0
 41 40  1  0
 43 44  1  0
 44 47  1  0
 44 46  1  0
 45 43  2  0
 48 49  1  0
 48 23  1  0
 50 48  1  0
 51  1  1  0
 51 53  1  0
 51 52  1  0
 54 51  1  0
 56 57  1  0
 57 54  1  0
 57 55  1  0
 59 60  1  0
 59 58  2  0
 61 72  2  0
 62 60  1  0
 62 67  1  0
 63 71  1  0
 63 73  1  0
 64 70  1  0
 64 66  1  0
 65 71  1  0
 66 67  2  0
 66 65  1  0
 68 69  1  0
 68 62  2  0
 69 64  2  0
 70 63  1  0
 71 61  1  0
 73 75  2  0
 74 73  1  0
 76 74  1  0
 77 86  2  0
 77 82  1  0
 78 74  1  0
 78 82  1  0
 79 78  1  0
 80 81  1  0
 80 79  1  0
 81 77  1  0
 82 83  2  0
 83 84  1  0
 85 84  2  0
 86 85  1  0
 87 61  1  0
 87 92  1  0
 87 88  1  0
 88 91  1  1
 88 89  1  0
 90 88  1  0
 92 95  1  0
 93 97  1  0
 93 92  1  0
 94 93  2  0
 97 96  1  0
 99 97  1  0
 99100  1  0
 99 98  1  0
M  ISO  4  13 100  21 100  59 101  60 101
M  END
>  <TORSDO>  (86) 
F 26

>  <SCORE>  (86) 
-11.956

>  <name>  (86) 
87

>  <ligand_id>  (86) 
87

>  <original_smiles>  (86) 
[H]c1nc(C([H])([H])C([H])([H])C([H])([H])C([H])([H])[H])c(C([H])(C([H])([H])C([H])([H])Oc2c([H])c([H])c3c(c2[H])C([H])([H])N(C(=O)C([H])(N([H])C(=O)C([H])(N([H])C([H])([H])[H])C([H])([H])[H])C(C([H])([H])[H])(C([H])([H])[H])C([H])([H])[H])C([H])(C(=O)N([H])C2([H])c4c([H])c([H])c([H])c([H])c4C([H])([H])C([H])([H])C2([H])[H])C3([H])[H])[N+]([H])([H])C([H])([H])C([H])(C([H])([H])[H])C([H])([H])[H])nc1C([H])([H])N([H])C(=O)N1C([H])([H])C([H])([H])C([H])([H])C([H])(n2nc(-c3c([H])c([H])c(Oc4c([H])c([H])c(F)c([H])c4F)c([H])c3[H])c(C(=O)N([H])[H])c2N([H])[H])C1([H])[H]

>  <smiles>  (86) 
[H]c1nc(C([H])([H])C([H])([H])C([H])([H])C([H])([H])[H])c(C([H])(C([H])([H])C([H])([H])Oc2c([H])c([H])c3c(c2[H])C([H])([H])N(C(=O)C([H])(N([H])C(=O)C([H])(N([H])C([H])([H])[H])C([H])([H])[H])C(C([H])([H])[H])(C([H])([H])[H])C([H])([H])[H])C([H])(C(=O)N([H])C2([H])c4c([H])c([H])c([H])c([H])c4C([H])([H])C([H])([H])C2([H])[H])C3([H])[H])[N+]([H])([H])C([H])([H])C([H])(C([H])([H])[H])C([H])([H])[H])nc1C([H])([H])N([H])C(=O)N1C([H])([H])C([H])([H])C([H])([H])C([H])(n2nc(-c3c([H])c([H])c(Oc4c([H])c([H])c(F)c([H])c4F)c([H])c3[H])c(C(=O)N([H])[H])c2N([H])[H])C1([H])[H]

$$$$
88:0:0
     RDKit          3D

 89 97  0  0  1  0  0  0  0  0999 V2000
  -29.0030  -19.2080   21.2420 C   0  0  0  0  0  2  0  0  0  0  0  0
  -30.0320  -18.5450   20.5240 C   0  0  0  0  0  0  0  0  0  0  0  0
  -29.3710  -21.1580   20.0340 C   0  0  0  0  0  0  0  0  0  0  0  0
  -28.6730  -20.5140   20.9890 N   0  0  0  0  0  0  0  0  0  0  0  0
  -30.7040  -19.2740   19.5860 N   0  0  0  0  0  0  0  0  0  0  0  0
  -30.3720  -20.5680   19.3400 N   0  0  0  0  0  2  0  0  0  0  0  0
  -30.6190  -17.1420   20.9300 C   0  0  0  0  0  2  0  0  0  0  0  0
  -30.6770  -14.7380   20.0510 C   0  0  0  0  0  0  0  0  0  0  0  0
  -30.3340  -12.5480   18.9250 C   0  0  0  0  0  2  0  0  0  0  0  0
  -29.3070  -12.6680   17.7790 C   0  0  0  0  0  2  0  0  0  0  0  0
  -27.8810  -12.4810   18.3270 C   0  0  0  0  0  2  0  0  0  0  0  0
  -27.5950  -13.3720   19.5650 C   0  0  0  0  0  3  0  0  0  0  0  0
  -28.7210  -13.2340   20.6130 C   0  0  0  0  0  2  0  0  0  0  0  0
  -29.9890  -13.5610   19.9440 N   0  0  0  0  0  0  0  0  0  0  0  0
  -31.8240  -14.8510   19.6090 O   0  0  0  0  0  0  0  0  0  0  0  0
  -30.0040  -15.8310   20.5250 N   0  0  0  0  0  0  0  0  0  0  0  0
  -29.0470  -15.6770   20.7970 H   0  0  0  0  0  0  0  0  0  0  0  0
  -25.2600  -13.9750   20.4590 C   0  0  0  0  0  0  0  0  0  0  0  0
  -24.2120  -13.1990   20.8760 C   0  0  0  0  0  0  0  0  0  0  0  0
  -24.6620  -11.8460   20.7870 C   0  0  0  0  0  0  0  0  0  0  0  0
  -26.2790  -13.0920   20.1350 N   0  0  0  0  0  0  0  0  0  0  0  0
  -25.9300  -11.8080   20.4000 N   0  0  0  0  0  0  0  0  0  0  0  0
  -23.9440  -10.5820   20.9930 C   0  0  0  0  0  0  0  0  0  0  0  0
  -24.4120   -9.6040   21.8980 C   0  0  0  0  0  3  0  0  0  0  0  0
  -23.6910   -8.4060   22.0950 C   0  0  0  0  0  3  0  0  0  0  0  0
  -22.4880   -8.1790   21.3860 C   0  0  0  0  0  0  0  0  0  0  0  0
  -22.0380   -9.1460   20.4690 C   0  0  0  0  0  3  0  0  0  0  0  0
  -22.7600  -10.3350   20.2710 C   0  0  0  0  0  3  0  0  0  0  0  0
  -21.7360   -7.0330   21.4910 O   0  0  0  0  0  0  0  0  0  0  0  0
  -21.7090   -6.2970   22.6460 C   0  0  0  0  0  0  0  0  0  0  0  0
  -21.2570   -6.8410   23.8680 C   0  0  0  0  0  3  0  0  0  0  0  0
  -21.1810   -6.0270   25.0150 C   0  0  0  0  0  3  0  0  0  0  0  0
  -21.5460   -4.6700   24.9420 C   0  0  0  0  0  0  0  0  0  0  0  0
  -21.9920   -4.1240   23.7240 C   0  0  0  0  0  3  0  0  0  0  0  0
  -22.0710   -4.9360   22.5780 C   0  0  0  0  0  0  0  0  0  0  0  0
  -22.4800   -4.4010   21.4040 F   0  0  0  0  0  0  0  0  0  0  0  0
  -21.4660   -3.8850   26.0410 F   0  0  0  0  0  0  0  0  0  0  0  0
  -22.8370  -13.6790   21.2420 C   0  0  0  0  0  0  0  0  0  0  0  0
  -22.1550  -12.9700   22.1340 N   0  0  0  0  0  0  0  0  0  0  0  0
  -22.3770  -14.7190   20.7730 O   0  0  0  0  0  0  0  0  0  0  0  0
  -22.5430  -12.1330   22.5420 H   0  0  0  0  0  0  0  0  0  0  0  0
  -21.2380  -13.2790   22.4230 H   0  0  0  0  0  0  0  0  0  0  0  0
  -25.4190  -15.3480   20.3060 N   0  0  0  0  0  0  0  0  0  0  0  0
  -24.6580  -15.9940   20.4810 H   0  0  0  0  0  0  0  0  0  0  0  0
  -26.2340  -15.7970   19.9080 H   0  0  0  0  0  0  0  0  0  0  0  0
  -28.8350  -22.5470   19.5240 C   0  0  0  0  0  2  0  0  0  0  0  0
  -29.2020  -23.9530   20.1880 C   0  0  0  0  0  2  0  0  0  0  0  0
  -28.2370  -25.1440   19.7460 C   0  0  0  0  0  2  0  0  0  0  0  0
  -28.4090  -26.5530   20.1850 O   0  0  0  0  0  0  0  0  0  0  0  0
  -24.6170  -31.8870   23.2530 C   0  0  0  0  0  0  0  0  0  0  0  0
  -27.2920  -27.4080   20.1210 C   0  0  0  0  0  0  0  0  0  0  0  0
  -23.4380  -30.5070   21.5800 C   0  0  0  0  0  3  0  0  0  0  0  0
  -24.9140  -29.0040   20.1340 C   0  0  0  0  0  0  0  0  0  0  0  0
  -25.9790  -30.8490   21.4270 C   0  0  0  0  0  2  0  0  0  0  0  0
  -26.0740  -29.4850   20.7490 C   0  0  0  0  0  0  0  0  0  0  0  0
  -27.2650  -28.6970   20.7410 C   0  0  0  0  0  3  0  0  0  0  0  0
  -26.1050  -26.9960   19.4630 C   0  0  0  0  0  3  0  0  0  0  0  0
  -24.9300  -27.7620   19.4860 C   0  0  0  0  0  3  0  0  0  0  0  0
  -23.6690  -29.8630   20.1900 C   0  0  0  0  0  2  0  0  0  0  0  0
  -24.6950  -31.0990   22.1420 N   0  0  0  0  0  0  0  0  0  0  0  0
  -23.5290  -32.1480   23.7850 O   0  0  0  0  0  0  0  0  0  0  0  0
  -22.7810  -29.4660   22.5170 C   0  0  0  0  0  0  0  0  0  0  0  0
  -21.4570  -29.2800   22.3820 N   0  0  0  0  0  0  0  0  0  0  0  0
  -23.4620  -28.8300   23.3270 O   0  0  0  0  0  0  0  0  0  0  0  0
  -20.9690  -29.8420   21.6980 H   0  0  0  0  0  0  0  0  0  0  0  0
  -18.0800  -28.0730   22.8650 C   0  0  0  0  0  0  0  0  0  0  0  0
  -20.6400  -28.3220   23.1290 C   0  0  0  0  0  3  0  0  0  0  0  0
  -20.7390  -26.9090   22.5100 C   0  0  0  0  0  2  0  0  0  0  0  0
  -19.6280  -26.6160   21.4960 C   0  0  0  0  0  2  0  0  0  0  0  0
  -18.2510  -26.7440   22.1510 C   0  0  0  0  0  2  0  0  0  0  0  0
  -19.2020  -28.8220   23.3100 C   0  0  0  0  0  0  0  0  0  0  0  0
  -18.9890  -30.0690   23.9380 C   0  0  0  0  0  3  0  0  0  0  0  0
  -17.6840  -30.5660   24.1240 C   0  0  0  0  0  3  0  0  0  0  0  0
  -16.5780  -29.8150   23.6920 C   0  0  0  0  0  3  0  0  0  0  0  0
  -16.7750  -28.5690   23.0710 C   0  0  0  0  0  3  0  0  0  0  0  0
  -25.8910  -32.5180   23.8970 C   0  0  0  0  0  3  0  0  0  0  0  0
  -26.3790  -31.7510   25.1880 C   0  0  1  0  0  0  0  0  0  0  0  0
  -25.2640  -31.5260   26.2360 C   0  0  0  0  0  1  0  0  0  0  0  0
  -26.9680  -30.3680   24.8190 C   0  0  0  0  0  1  0  0  0  0  0  0
  -27.5160  -32.5500   25.8670 C   0  0  0  0  0  1  0  0  0  0  0  0
  -25.5810  -33.9190   24.2110 N   0  0  0  0  0  0  0  0  0  0  0  0
  -25.9210  -34.9650   23.4480 C   0  0  0  0  0  0  0  0  0  0  0  0
  -26.5980  -34.8520   22.4230 O   0  0  0  0  0  0  0  0  0  0  0  0
  -24.9770  -34.0850   25.0040 H   0  0  0  0  0  0  0  0  0  0  0  0
  -24.1980  -36.7560   23.0640 C   0  0  0  0  0  1  0  0  0  0  0  0
  -25.4320  -36.3580   23.8890 C   0  0  0  0  0  3  0  0  0  0  0  0
  -27.5530  -37.2520   24.7420 C   0  0  0  0  0  1  0  0  0  0  0  0
  -26.4660  -37.4080   23.7770 N   0  0  0  0  0  0  0  0  0  0  0  0
  -26.0580  -38.3300   23.9030 H   0  0  0  0  0  0  0  0  0  0  0  0
  2  7  1  0
  2  1  1  0
  3  4  2  0
  4  1  1  0
  5  2  2  0
  6  5  1  0
  6  3  1  0
  8 16  1  0
  9 14  1  0
 10 11  1  0
 10  9  1  0
 12 11  1  0
 12 21  1  0
 12 13  1  0
 14  8  1  0
 14 13  1  0
 15  8  2  0
 16 17  1  0
 16  7  1  0
 18 19  2  0
 19 38  1  0
 20 19  1  0
 20 23  1  0
 21 22  1  0
 21 18  1  0
 22 20  2  0
 23 24  1  0
 24 25  2  0
 26 29  1  0
 26 25  1  0
 27 26  2  0
 28 27  1  0
 28 23  2  0
 29 30  1  0
 30 31  1  0
 31 32  2  0
 33 32  1  0
 33 37  1  0
 34 33  2  0
 35 30  2  0
 35 34  1  0
 36 35  1  0
 38 39  1  0
 39 42  1  0
 39 41  1  0
 40 38  2  0
 43 18  1  0
 43 44  1  0
 45 43  1  0
 46  3  1  0
 46 47  1  0
 48 49  1  0
 48 47  1  0
 50 61  2  0
 51 49  1  0
 51 56  1  0
 52 60  1  0
 52 62  1  0
 53 59  1  0
 53 55  1  0
 54 60  1  0
 55 54  1  0
 56 55  2  0
 57 58  1  0
 57 51  2  0
 58 53  2  0
 59 52  1  0
 60 50  1  0
 62 64  2  0
 63 62  1  0
 65 63  1  0
 66 75  2  0
 66 71  1  0
 67 63  1  0
 67 71  1  0
 68 67  1  0
 69 70  1  0
 69 68  1  0
 70 66  1  0
 71 72  2  0
 72 73  1  0
 74 73  2  0
 75 74  1  0
 76 50  1  0
 76 81  1  0
 76 77  1  0
 77 80  1  1
 77 78  1  0
 79 77  1  0
 81 84  1  0
 82 86  1  0
 82 81  1  0
 83 82  2  0
 86 85  1  0
 88 86  1  0
 88 89  1  0
 88 87  1  0
M  ISO  4   8 100  16 100  48 101  49 101
M  END
>  <TORSDO>  (87) 
F 20

>  <SCORE>  (87) 
-13.235

>  <name>  (87) 
88

>  <ligand_id>  (87) 
88

>  <original_smiles>  (87) 
[H]c1nc(C([H])([H])C([H])([H])C([H])([H])Oc2c([H])c([H])c3c(c2[H])C([H])([H])N(C(=O)C([H])(N([H])C(=O)C([H])(N([H])C([H])([H])[H])C([H])([H])[H])C(C([H])([H])[H])(C([H])([H])[H])C([H])([H])[H])C([H])(C(=O)N([H])C2([H])c4c([H])c([H])c([H])c([H])c4C([H])([H])C([H])([H])C2([H])[H])C3([H])[H])nnc1C([H])([H])N([H])C(=O)N1C([H])([H])C([H])([H])C([H])([H])C([H])(n2nc(-c3c([H])c([H])c(Oc4c([H])c([H])c(F)c([H])c4F)c([H])c3[H])c(C(=O)N([H])[H])c2N([H])[H])C1([H])[H]

>  <smiles>  (87) 
[H]c1nc(C([H])([H])C([H])([H])C([H])([H])Oc2c([H])c([H])c3c(c2[H])C([H])([H])N(C(=O)C([H])(N([H])C(=O)C([H])(N([H])C([H])([H])[H])C([H])([H])[H])C(C([H])([H])[H])(C([H])([H])[H])C([H])([H])[H])C([H])(C(=O)N([H])C2([H])c4c([H])c([H])c([H])c([H])c4C([H])([H])C([H])([H])C2([H])[H])C3([H])[H])nnc1C([H])([H])N([H])C(=O)N1C([H])([H])C([H])([H])C([H])([H])C([H])(n2nc(-c3c([H])c([H])c(Oc4c([H])c([H])c(F)c([H])c4F)c([H])c3[H])c(C(=O)N([H])[H])c2N([H])[H])C1([H])[H]

$$$$
89:0:0
     RDKit          3D

 94102  0  0  1  0  0  0  0  0999 V2000
  -30.2250  -19.8240   21.6750 C   0  0  0  0  0  3  0  0  0  0  0  0
  -30.1730  -21.2150   21.8660 C   0  0  0  0  0  3  0  0  0  0  0  0
  -29.9400  -19.2820   20.4010 C   0  0  0  0  0  0  0  0  0  0  0  0
  -29.8390  -22.0480   20.7840 C   0  0  0  0  0  0  0  0  0  0  0  0
  -29.5980  -20.2030   19.3700 C   0  0  0  0  0  0  0  0  0  0  0  0
  -29.5470  -21.5410   19.5700 N   0  0  0  0  0  0  0  0  0  0  0  0
  -29.9730  -17.7620   20.1510 C   0  0  0  0  0  2  0  0  0  0  0  0
  -30.4190  -16.8440   21.3240 C   0  0  0  0  0  2  0  0  0  0  0  0
  -30.7540  -14.4950   20.4630 C   0  0  0  0  0  0  0  0  0  0  0  0
  -30.4530  -12.3920   19.2060 C   0  0  0  0  0  2  0  0  0  0  0  0
  -29.4960  -12.6290   18.0180 C   0  0  0  0  0  2  0  0  0  0  0  0
  -28.0270  -12.4770   18.4580 C   0  0  0  0  0  2  0  0  0  0  0  0
  -27.7030  -13.2850   19.7420 C   0  0  0  0  0  3  0  0  0  0  0  0
  -28.7570  -13.0060   20.8350 C   0  0  0  0  0  2  0  0  0  0  0  0
  -30.0830  -13.3270   20.2760 N   0  0  0  0  0  0  0  0  0  0  0  0
  -31.8720  -14.7240   19.9910 O   0  0  0  0  0  0  0  0  0  0  0  0
  -30.0470  -15.4450   21.0930 N   0  0  0  0  0  0  0  0  0  0  0  0
  -29.1240  -15.1690   21.3950 H   0  0  0  0  0  0  0  0  0  0  0  0
  -25.3010  -13.9030   20.4390 C   0  0  0  0  0  0  0  0  0  0  0  0
  -24.2310  -13.1320   20.8100 C   0  0  0  0  0  0  0  0  0  0  0  0
  -24.6930  -11.7800   20.7910 C   0  0  0  0  0  0  0  0  0  0  0  0
  -26.3480  -13.0180   20.2220 N   0  0  0  0  0  0  0  0  0  0  0  0
  -25.9860  -11.7380   20.4910 N   0  0  0  0  0  0  0  0  0  0  0  0
  -23.9690  -10.5200   20.9890 C   0  0  0  0  0  0  0  0  0  0  0  0
  -24.4020   -9.5630   21.9330 C   0  0  0  0  0  3  0  0  0  0  0  0
  -23.6830   -8.3630   22.1150 C   0  0  0  0  0  3  0  0  0  0  0  0
  -22.5160   -8.1110   21.3580 C   0  0  0  0  0  0  0  0  0  0  0  0
  -22.1020   -9.0580   20.4030 C   0  0  0  0  0  3  0  0  0  0  0  0
  -22.8210  -10.2510   20.2170 C   0  0  0  0  0  3  0  0  0  0  0  0
  -21.7610   -6.9680   21.4560 O   0  0  0  0  0  0  0  0  0  0  0  0
  -21.7100   -6.2360   22.6150 C   0  0  0  0  0  0  0  0  0  0  0  0
  -21.2800   -6.7990   23.8360 C   0  0  0  0  0  3  0  0  0  0  0  0
  -21.1770   -5.9900   24.9850 C   0  0  0  0  0  3  0  0  0  0  0  0
  -21.4920   -4.6200   24.9130 C   0  0  0  0  0  0  0  0  0  0  0  0
  -21.9140   -4.0570   23.6970 C   0  0  0  0  0  3  0  0  0  0  0  0
  -22.0200   -4.8630   22.5500 C   0  0  0  0  0  0  0  0  0  0  0  0
  -22.4060   -4.3080   21.3760 F   0  0  0  0  0  0  0  0  0  0  0  0
  -21.3850   -3.8410   26.0160 F   0  0  0  0  0  0  0  0  0  0  0  0
  -22.8290  -13.6050   21.0670 C   0  0  0  0  0  0  0  0  0  0  0  0
  -22.0990  -12.9130   21.9360 N   0  0  0  0  0  0  0  0  0  0  0  0
  -22.3880  -14.6210   20.5320 O   0  0  0  0  0  0  0  0  0  0  0  0
  -22.4640  -12.0900   22.3920 H   0  0  0  0  0  0  0  0  0  0  0  0
  -21.1560  -13.2070   22.1470 H   0  0  0  0  0  0  0  0  0  0  0  0
  -25.4710  -15.2730   20.2510 N   0  0  0  0  0  0  0  0  0  0  0  0
  -24.7130  -15.9400   20.3410 H   0  0  0  0  0  0  0  0  0  0  0  0
  -26.3250  -15.7000   19.9160 H   0  0  0  0  0  0  0  0  0  0  0  0
  -29.8820  -23.5710   20.9120 C   0  0  0  0  0  2  0  0  0  0  0  0
  -28.5190  -24.2830   20.7330 C   0  0  0  0  0  2  0  0  0  0  0  0
  -28.4970  -25.7370   21.2640 C   0  0  0  0  0  2  0  0  0  0  0  0
  -28.4890  -26.7290   20.2260 O   0  0  0  0  0  0  0  0  0  0  0  0
  -24.6280  -31.8920   23.2340 C   0  0  0  0  0  0  0  0  0  0  0  0
  -27.3370  -27.4770   20.1970 C   0  0  0  0  0  0  0  0  0  0  0  0
  -23.4500  -30.4770   21.5810 C   0  0  0  0  0  3  0  0  0  0  0  0
  -24.9340  -28.9510   20.1750 C   0  0  0  0  0  0  0  0  0  0  0  0
  -25.9720  -30.8660   21.4030 C   0  0  0  0  0  2  0  0  0  0  0  0
  -26.0790  -29.4920   20.7720 C   0  0  0  0  0  0  0  0  0  0  0  0
  -27.2870  -28.7610   20.7860 C   0  0  0  0  0  3  0  0  0  0  0  0
  -26.1830  -26.9460   19.5910 C   0  0  0  0  0  3  0  0  0  0  0  0
  -24.9800  -27.6770   19.5810 C   0  0  0  0  0  3  0  0  0  0  0  0
  -23.6800  -29.7950   20.2050 C   0  0  0  0  0  2  0  0  0  0  0  0
  -24.7000  -31.0930   22.1320 N   0  0  0  0  0  0  0  0  0  0  0  0
  -23.5390  -32.1520   23.7650 O   0  0  0  0  0  0  0  0  0  0  0  0
  -22.7990  -29.4500   22.5370 C   0  0  0  0  0  0  0  0  0  0  0  0
  -21.4760  -29.2700   22.4090 N   0  0  0  0  0  0  0  0  0  0  0  0
  -23.4840  -28.8220   23.3480 O   0  0  0  0  0  0  0  0  0  0  0  0
  -20.9870  -29.8230   21.7190 H   0  0  0  0  0  0  0  0  0  0  0  0
  -18.0990  -28.0950   22.9140 C   0  0  0  0  0  0  0  0  0  0  0  0
  -20.6580  -28.3310   23.1780 C   0  0  0  0  0  3  0  0  0  0  0  0
  -20.7500  -26.9050   22.5860 C   0  0  0  0  0  2  0  0  0  0  0  0
  -19.6420  -26.6020   21.5750 C   0  0  0  0  0  2  0  0  0  0  0  0
  -18.2630  -26.7530   22.2240 C   0  0  0  0  0  2  0  0  0  0  0  0
  -19.2240  -28.8450   23.3480 C   0  0  0  0  0  0  0  0  0  0  0  0
  -19.0150  -30.1050   23.9480 C   0  0  0  0  0  3  0  0  0  0  0  0
  -17.7140  -30.6130   24.1250 C   0  0  0  0  0  3  0  0  0  0  0  0
  -16.6030  -29.8600   23.7080 C   0  0  0  0  0  3  0  0  0  0  0  0
  -16.7980  -28.6040   23.1070 C   0  0  0  0  0  3  0  0  0  0  0  0
  -25.9020  -32.5350   23.8660 C   0  0  0  0  0  3  0  0  0  0  0  0
  -25.5830  -33.9310   24.1860 N   0  0  0  0  0  0  0  0  0  0  0  0
  -25.9170  -34.9810   23.4240 C   0  0  0  0  0  0  0  0  0  0  0  0
  -26.5960  -34.8760   22.3990 O   0  0  0  0  0  0  0  0  0  0  0  0
  -24.9810  -34.0870   24.9820 H   0  0  0  0  0  0  0  0  0  0  0  0
  -24.1820  -36.7580   23.0370 C   0  0  0  0  0  1  0  0  0  0  0  0
  -25.4140  -36.3670   23.8680 C   0  0  0  0  0  3  0  0  0  0  0  0
  -27.5330  -37.2710   24.7190 C   0  0  0  0  0  1  0  0  0  0  0  0
  -26.4410  -37.4260   23.7610 N   0  0  0  0  0  0  0  0  0  0  0  0
  -26.0270  -38.3430   23.8990 H   0  0  0  0  0  0  0  0  0  0  0  0
  -26.4170  -31.7700   25.1470 C   0  0  1  0  0  0  0  0  0  0  0  0
  -25.3140  -31.5280   26.2050 C   0  0  0  0  0  1  0  0  0  0  0  0
  -27.0150  -30.3980   24.7610 C   0  0  0  0  0  1  0  0  0  0  0  0
  -27.5570  -32.5730   25.8160 C   0  0  0  0  0  1  0  0  0  0  0  0
  -29.2410  -19.7790   17.9430 C   0  0  0  0  0  2  0  0  0  0  0  0
  -30.6520  -19.1060   15.9180 C   0  0  0  0  0  1  0  0  0  0  0  0
  -29.8200  -21.4960   16.1320 C   0  0  0  0  0  1  0  0  0  0  0  0
  -30.2890  -20.2390   16.8940 C   0  0  0  0  0  3  0  0  0  0  0  0
  1  2  1  0
  3  1  2  0
  4 47  1  0
  4  2  2  0
  5  6  2  0
  5  3  1  0
  6  4  1  0
  7  3  1  0
  7  8  1  0
  9 17  1  0
 10 15  1  0
 11 12  1  0
 11 10  1  0
 13 12  1  0
 13 22  1  0
 13 14  1  0
 15  9  1  0
 15 14  1  0
 16  9  2  0
 17  8  1  0
 17 18  1  0
 19 20  2  0
 20 39  1  0
 21 20  1  0
 21 24  1  0
 22 19  1  0
 22 23  1  0
 23 21  2  0
 24 25  1  0
 25 26  2  0
 27 30  1  0
 27 26  1  0
 28 27  2  0
 29 28  1  0
 29 24  2  0
 30 31  1  0
 31 32  1  0
 32 33  2  0
 34 33  1  0
 34 38  1  0
 35 34  2  0
 36 31  2  0
 36 35  1  0
 37 36  1  0
 39 40  1  0
 40 43  1  0
 40 42  1  0
 41 39  2  0
 44 45  1  0
 44 19  1  0
 46 44  1  0
 48 47  1  0
 48 49  1  0
 50 49  1  0
 51 62  2  0
 52 50  1  0
 52 57  1  0
 53 61  1  0
 53 63  1  0
 54 60  1  0
 54 56  1  0
 55 61  1  0
 56 57  2  0
 56 55  1  0
 58 52  2  0
 59 58  1  0
 59 54  2  0
 60 53  1  0
 61 51  1  0
 63 65  2  0
 64 63  1  0
 66 64  1  0
 67 76  2  0
 67 72  1  0
 68 64  1  0
 68 72  1  0
 69 68  1  0
 70 71  1  0
 70 69  1  0
 71 67  1  0
 72 73  2  0
 73 74  1  0
 75 74  2  0
 76 75  1  0
 77 51  1  0
 77 78  1  0
 77 87  1  0
 78 81  1  0
 79 83  1  0
 79 78  1  0
 80 79  2  0
 83 82  1  0
 85 83  1  0
 85 86  1  0
 85 84  1  0
 87 90  1  1
 87 88  1  0
 89 87  1  0
 91  5  1  0
 92 94  1  0
 93 94  1  0
 94 91  1  0
M  ISO  4   9 100  17 100  49 101  50 101
M  END
>  <TORSDO>  (88) 
F 23

>  <SCORE>  (88) 
-13.015

>  <name>  (88) 
89

>  <ligand_id>  (88) 
89

>  <original_smiles>  (88) 
[H]c1c(C([H])([H])C([H])([H])C([H])([H])Oc2c([H])c([H])c3c(c2[H])C([H])([H])N(C(=O)C([H])(N([H])C(=O)C([H])(N([H])C([H])([H])[H])C([H])([H])[H])C(C([H])([H])[H])(C([H])([H])[H])C([H])([H])[H])C([H])(C(=O)N([H])C2([H])c4c([H])c([H])c([H])c([H])c4C([H])([H])C([H])([H])C2([H])[H])C3([H])[H])nc(C([H])([H])C([H])(C([H])([H])[H])C([H])([H])[H])c(C([H])([H])C([H])([H])N([H])C(=O)N2C([H])([H])C([H])([H])C([H])([H])C([H])(n3nc(-c4c([H])c([H])c(Oc5c([H])c([H])c(F)c([H])c5F)c([H])c4[H])c(C(=O)N([H])[H])c3N([H])[H])C2([H])[H])c1[H]

>  <smiles>  (88) 
[H]c1c(C([H])([H])C([H])([H])C([H])([H])Oc2c([H])c([H])c3c(c2[H])C([H])([H])N(C(=O)C([H])(N([H])C(=O)C([H])(N([H])C([H])([H])[H])C([H])([H])[H])C(C([H])([H])[H])(C([H])([H])[H])C([H])([H])[H])C([H])(C(=O)N([H])C2([H])c4c([H])c([H])c([H])c([H])c4C([H])([H])C([H])([H])C2([H])[H])C3([H])[H])nc(C([H])([H])C([H])(C([H])([H])[H])C([H])([H])[H])c(C([H])([H])C([H])([H])N([H])C(=O)N2C([H])([H])C([H])([H])C([H])([H])C([H])(n3nc(-c4c([H])c([H])c(Oc5c([H])c([H])c(F)c([H])c5F)c([H])c4[H])c(C(=O)N([H])[H])c3N([H])[H])C2([H])[H])c1[H]

$$$$
90:0:0
     RDKit          3D

 97106  0  0  1  0  0  0  0  0999 V2000
  -30.1710  -19.7970   19.5990 C   0  0  0  0  0  3  0  0  0  0  0  0
  -29.4770  -18.8260   20.2900 C   0  0  0  0  0  0  0  0  0  0  0  0
  -28.0200  -20.2060   19.2480 C   0  0  0  0  0  3  0  0  0  0  0  0
  -29.2680  -20.6070   18.9490 N   0  0  0  0  0  0  0  0  0  0  0  0
  -28.1490  -19.1370   20.0690 N   0  0  0  0  0  0  0  0  0  0  0  0
  -27.3660  -18.6490   20.4880 H   0  0  0  0  0  0  0  0  0  0  0  0
  -30.0270  -17.7320   21.2080 C   0  0  0  0  0  2  0  0  0  0  0  0
  -30.3550  -15.3200   20.6210 C   0  0  0  0  0  0  0  0  0  0  0  0
  -30.2660  -13.1510   19.4420 C   0  0  0  0  0  2  0  0  0  0  0  0
  -29.3670  -13.3410   18.2060 C   0  0  0  0  0  2  0  0  0  0  0  0
  -27.8970  -13.0690   18.5800 C   0  0  0  0  0  2  0  0  0  0  0  0
  -27.4470  -13.8420   19.8520 C   0  0  0  0  0  3  0  0  0  0  0  0
  -28.4730  -13.6850   21.0000 C   0  0  0  0  0  2  0  0  0  0  0  0
  -29.7850  -14.0910   20.4740 N   0  0  0  0  0  0  0  0  0  0  0  0
  -31.4930  -15.5560   20.2010 O   0  0  0  0  0  0  0  0  0  0  0  0
  -29.5660  -16.3180   21.1000 N   0  0  0  0  0  0  0  0  0  0  0  0
  -28.6520  -16.0690   21.4510 H   0  0  0  0  0  0  0  0  0  0  0  0
  -25.0010  -14.2550   20.5180 C   0  0  0  0  0  0  0  0  0  0  0  0
  -23.9810  -13.4010   20.8350 C   0  0  0  0  0  0  0  0  0  0  0  0
  -24.5290  -12.0830   20.7600 C   0  0  0  0  0  0  0  0  0  0  0  0
  -26.1040  -13.4540   20.2760 N   0  0  0  0  0  0  0  0  0  0  0  0
  -25.8240  -12.1400   20.4770 N   0  0  0  0  0  0  0  0  0  0  0  0
  -23.8830  -10.7710   20.8830 C   0  0  0  0  0  0  0  0  0  0  0  0
  -24.3930   -9.7720   21.7430 C   0  0  0  0  0  3  0  0  0  0  0  0
  -23.7410   -8.5250   21.8560 C   0  0  0  0  0  3  0  0  0  0  0  0
  -22.5670   -8.2680   21.1100 C   0  0  0  0  0  0  0  0  0  0  0  0
  -22.0770   -9.2570   20.2390 C   0  0  0  0  0  3  0  0  0  0  0  0
  -22.7290  -10.4950   20.1230 C   0  0  0  0  0  3  0  0  0  0  0  0
  -21.8800   -7.0770   21.1390 O   0  0  0  0  0  0  0  0  0  0  0  0
  -21.9430   -6.2350   22.2220 C   0  0  0  0  0  0  0  0  0  0  0  0
  -21.6170   -6.6710   23.5240 C   0  0  0  0  0  3  0  0  0  0  0  0
  -21.6270   -5.7560   24.5970 C   0  0  0  0  0  3  0  0  0  0  0  0
  -21.9510   -4.4040   24.3680 C   0  0  0  0  0  0  0  0  0  0  0  0
  -22.2700   -3.9690   23.0700 C   0  0  0  0  0  3  0  0  0  0  0  0
  -22.2630   -4.8810   22.0010 C   0  0  0  0  0  0  0  0  0  0  0  0
  -22.5500   -4.4490   20.7500 F   0  0  0  0  0  0  0  0  0  0  0  0
  -21.9550   -3.5250   25.3960 F   0  0  0  0  0  0  0  0  0  0  0  0
  -22.5490  -13.7750   21.0940 C   0  0  0  0  0  0  0  0  0  0  0  0
  -21.8680  -13.0420   21.9670 N   0  0  0  0  0  0  0  0  0  0  0  0
  -22.0400  -14.7580   20.5570 O   0  0  0  0  0  0  0  0  0  0  0  0
  -22.2910  -12.2460   22.4240 H   0  0  0  0  0  0  0  0  0  0  0  0
  -20.9100  -13.2770   22.1790 H   0  0  0  0  0  0  0  0  0  0  0  0
  -25.0780  -15.6400   20.3950 N   0  0  0  0  0  0  0  0  0  0  0  0
  -24.2500  -16.2210   20.4700 H   0  0  0  0  0  0  0  0  0  0  0  0
  -25.8720  -16.1290   20.0000 H   0  0  0  0  0  0  0  0  0  0  0  0
  -26.7390  -20.8090   18.7120 C   0  0  0  0  0  2  0  0  0  0  0  0
  -24.8970  -24.5640   20.1360 C   0  0  0  0  0  2  0  0  0  0  0  0
  -26.2590  -24.1510   20.7140 C   0  0  0  0  0  2  0  0  0  0  0  0
  -24.0080  -23.3270   19.9410 C   0  0  0  0  0  2  0  0  0  0  0  0
  -26.9400  -23.1250   19.8000 C   0  0  0  0  0  2  0  0  0  0  0  0
  -24.6890  -22.2870   19.0370 C   0  0  0  0  0  2  0  0  0  0  0  0
  -26.0640  -21.8670   19.6090 C   0  0  0  0  0  3  0  0  0  0  0  0
  -29.5950  -21.7000   17.9900 C   0  0  0  0  0  2  0  0  0  0  0  0
  -29.6470  -23.1340   18.5840 C   0  0  0  0  0  2  0  0  0  0  0  0
  -29.1800  -24.2510   17.6110 C   0  0  0  0  0  2  0  0  0  0  0  0
  -29.1000  -25.6640   18.2580 C   0  0  0  0  0  2  0  0  0  0  0  0
  -28.4650  -26.6900   17.4670 O   0  0  0  0  0  0  0  0  0  0  0  0
  -24.7510  -30.1510   22.5040 C   0  0  0  0  0  0  0  0  0  0  0  0
  -27.2450  -27.1690   17.8980 C   0  0  0  0  0  0  0  0  0  0  0  0
  -23.4230  -29.0680   20.7200 C   0  0  0  0  0  3  0  0  0  0  0  0
  -24.7460  -28.2160   18.7100 C   0  0  0  0  0  0  0  0  0  0  0  0
  -25.8090  -29.8670   20.2600 C   0  0  0  0  0  2  0  0  0  0  0  0
  -25.9290  -28.7460   19.2400 C   0  0  0  0  0  0  0  0  0  0  0  0
  -27.1820  -28.2350   18.8290 C   0  0  0  0  0  3  0  0  0  0  0  0
  -26.0460  -26.6430   17.3770 C   0  0  0  0  0  3  0  0  0  0  0  0
  -24.7990  -27.1640   17.7790 C   0  0  0  0  0  3  0  0  0  0  0  0
  -23.4450  -28.8230   19.1870 C   0  0  0  0  0  2  0  0  0  0  0  0
  -24.6880  -29.6960   21.2180 N   0  0  0  0  0  0  0  0  0  0  0  0
  -23.7650  -30.0890   23.2560 O   0  0  0  0  0  0  0  0  0  0  0  0
  -23.0810  -27.7360   21.4270 C   0  0  0  0  0  0  0  0  0  0  0  0
  -21.8080  -27.3190   21.3340 N   0  0  0  0  0  0  0  0  0  0  0  0
  -23.9520  -27.0940   22.0180 O   0  0  0  0  0  0  0  0  0  0  0  0
  -21.1560  -27.9070   20.8330 H   0  0  0  0  0  0  0  0  0  0  0  0
  -18.8340  -25.2750   21.5420 C   0  0  0  0  0  0  0  0  0  0  0  0
  -21.2660  -26.0760   21.8870 C   0  0  0  0  0  3  0  0  0  0  0  0
  -21.6810  -24.8600   21.0250 C   0  0  0  0  0  2  0  0  0  0  0  0
  -20.6460  -24.5020   19.9530 C   0  0  0  0  0  2  0  0  0  0  0  0
  -19.2980  -24.1720   20.6050 C   0  0  0  0  0  2  0  0  0  0  0  0
  -19.7570  -26.1780   22.1300 C   0  0  0  0  0  0  0  0  0  0  0  0
  -19.2710  -27.2080   22.9650 C   0  0  0  0  0  3  0  0  0  0  0  0
  -17.8950  -27.3380   23.2180 C   0  0  0  0  0  3  0  0  0  0  0  0
  -16.9840  -26.4290   22.6490 C   0  0  0  0  0  3  0  0  0  0  0  0
  -17.4550  -25.4000   21.8160 C   0  0  0  0  0  3  0  0  0  0  0  0
  -26.0540  -30.7840   23.0850 C   0  0  0  0  0  3  0  0  0  0  0  0
  -25.6750  -32.0270   23.7700 N   0  0  0  0  0  0  0  0  0  0  0  0
  -26.0430  -33.2530   23.3740 C   0  0  0  0  0  0  0  0  0  0  0  0
  -26.8060  -33.4500   22.4240 O   0  0  0  0  0  0  0  0  0  0  0  0
  -25.0150  -31.9480   24.5300 H   0  0  0  0  0  0  0  0  0  0  0  0
  -24.4570  -35.2010   23.2820 C   0  0  0  0  0  1  0  0  0  0  0  0
  -25.4740  -34.4500   24.1570 C   0  0  0  0  0  3  0  0  0  0  0  0
  -27.3610  -34.8320   25.6840 C   0  0  0  0  0  1  0  0  0  0  0  0
  -26.5150  -35.3910   24.6300 N   0  0  0  0  0  0  0  0  0  0  0  0
  -26.0960  -36.2480   24.9820 H   0  0  0  0  0  0  0  0  0  0  0  0
  -26.8310  -29.8220   24.0680 C   0  0  1  0  0  0  0  0  0  0  0  0
  -25.9410  -29.2210   25.1810 C   0  0  0  0  0  1  0  0  0  0  0  0
  -27.4710  -28.6510   23.2870 C   0  0  0  0  0  1  0  0  0  0  0  0
  -27.9940  -30.5880   24.7410 C   0  0  0  0  0  1  0  0  0  0  0  0
  1  2  2  0
  2  7  1  0
  3 46  1  0
  3  5  1  0
  4  3  1  0
  4  1  1  0
  5  2  1  0
  5  6  1  0
  8 16  1  0
  9 14  1  0
 10 11  1  0
 10  9  1  0
 12 11  1  0
 12 21  1  0
 12 13  1  0
 14  8  1  0
 14 13  1  0
 15  8  2  0
 16  7  1  0
 16 17  1  0
 18 19  2  0
 19 38  1  0
 20 19  1  0
 20 23  1  0
 21 22  1  0
 21 18  1  0
 22 20  2  0
 23 24  1  0
 24 25  2  0
 26 29  1  0
 26 25  1  0
 27 26  2  0
 28 27  1  0
 28 23  2  0
 29 30  1  0
 30 31  1  0
 31 32  2  0
 33 32  1  0
 33 37  1  0
 34 33  2  0
 35 30  2  0
 35 34  1  0
 36 35  1  0
 38 39  1  0
 39 42  1  0
 39 41  1  0
 40 38  2  0
 43 44  1  0
 43 18  1  0
 45 43  1  0
 46 52  1  0
 47 48  1  0
 49 47  1  0
 50 48  1  0
 51 52  1  0
 51 49  1  0
 52 50  1  0
 53 54  1  0
 53  4  1  0
 55 56  1  0
 55 54  1  0
 57 59  1  0
 57 56  1  0
 58 69  2  0
 59 64  1  0
 60 68  1  0
 60 70  1  0
 61 67  1  0
 61 63  1  0
 62 68  1  0
 63 62  1  0
 64 63  2  0
 65 66  1  0
 65 59  2  0
 66 61  2  0
 67 60  1  0
 68 58  1  0
 70 72  2  0
 71 70  1  0
 73 71  1  0
 74 83  2  0
 74 79  1  0
 75 71  1  0
 75 79  1  0
 76 75  1  0
 77 78  1  0
 77 76  1  0
 78 74  1  0
 79 80  2  0
 80 81  1  0
 82 81  2  0
 83 82  1  0
 84 58  1  0
 84 85  1  0
 84 94  1  0
 85 88  1  0
 86 85  1  0
 86 90  1  0
 87 86  2  0
 90 89  1  0
 90 92  1  0
 92 93  1  0
 92 91  1  0
 94 97  1  1
 94 95  1  0
 96 94  1  0
M  ISO  4   8 100  16 100  56 101  57 101
M  END
>  <TORSDO>  (89) 
F 23

>  <SCORE>  (89) 
-9.586

>  <name>  (89) 
90

>  <ligand_id>  (89) 
90

>  <original_smiles>  (89) 
[H]c1c([H])c([H])c2c(c1[H])C([H])([H])C([H])([H])C([H])([H])C2([H])N([H])C(=O)C1([H])N(C(=O)C([H])(N([H])C(=O)C([H])(N([H])C([H])([H])[H])C([H])([H])[H])C(C([H])([H])[H])(C([H])([H])[H])C([H])([H])[H])C([H])([H])c2c([H])c(OC([H])([H])C([H])([H])C([H])([H])C([H])([H])n3c([H])c(C([H])([H])N([H])C(=O)N4C([H])([H])C([H])([H])C([H])([H])C([H])(n5nc(-c6c([H])c([H])c(Oc7c([H])c([H])c(F)c([H])c7F)c([H])c6[H])c(C(=O)N([H])[H])c5N([H])[H])C4([H])[H])[n+]([H])c3C([H])([H])C3([H])C([H])([H])C([H])([H])C([H])([H])C([H])([H])C3([H])[H])c([H])c([H])c2C1([H])[H]

>  <smiles>  (89) 
[H]c1c([H])c([H])c2c(c1[H])C([H])([H])C([H])([H])C([H])([H])C2([H])N([H])C(=O)C1([H])N(C(=O)C([H])(N([H])C(=O)C([H])(N([H])C([H])([H])[H])C([H])([H])[H])C(C([H])([H])[H])(C([H])([H])[H])C([H])([H])[H])C([H])([H])c2c([H])c(OC([H])([H])C([H])([H])C([H])([H])C([H])([H])n3c([H])c(C([H])([H])N([H])C(=O)N4C([H])([H])C([H])([H])C([H])([H])C([H])(n5nc(-c6c([H])c([H])c(Oc7c([H])c([H])c(F)c([H])c7F)c([H])c6[H])c(C(=O)N([H])[H])c5N([H])[H])C4([H])[H])[n+]([H])c3C([H])([H])C3([H])C([H])([H])C([H])([H])C([H])([H])C([H])([H])C3([H])[H])c([H])c([H])c2C1([H])[H]

$$$$
91:0:0
     RDKit          3D

 89 96  0  0  1  0  0  0  0  0999 V2000
  -30.5550  -20.6400   18.4950 C   0  0  0  0  0  1  0  0  0  0  0  0
  -29.6230  -20.4850   19.7040 C   0  0  0  0  0  3  0  0  0  0  0  0
  -28.5530  -21.7840   19.6850 C   0  0  0  0  0  2  0  0  0  0  0  0
  -28.9360  -23.4090   19.8110 C   0  0  0  0  0  3  0  0  0  0  0  0
  -27.8550  -24.6620   19.6060 C   0  0  0  0  0  3  0  0  0  0  0  0
  -28.1250  -26.1690   19.8020 O   0  0  0  0  0  0  0  0  0  0  0  0
  -24.4550  -31.6310   23.0390 C   0  0  0  0  0  0  0  0  0  0  0  0
  -27.0500  -27.1210   19.7830 C   0  0  0  0  0  0  0  0  0  0  0  0
  -23.2550  -30.3060   21.3410 C   0  0  0  0  0  3  0  0  0  0  0  0
  -24.7080  -28.8240   19.8300 C   0  0  0  0  0  0  0  0  0  0  0  0
  -25.8020  -30.6180   21.1640 C   0  0  0  0  0  2  0  0  0  0  0  0
  -25.8860  -29.2600   20.4500 C   0  0  0  0  0  0  0  0  0  0  0  0
  -27.0580  -28.4230   20.4140 C   0  0  0  0  0  3  0  0  0  0  0  0
  -25.8440  -26.7770   19.1270 C   0  0  0  0  0  3  0  0  0  0  0  0
  -24.6950  -27.5970   19.1520 C   0  0  0  0  0  3  0  0  0  0  0  0
  -23.4710  -29.7000   19.9280 C   0  0  0  0  0  2  0  0  0  0  0  0
  -24.5250  -30.8710   21.9050 N   0  0  0  0  0  0  0  0  0  0  0  0
  -23.3710  -31.8790   23.5900 O   0  0  0  0  0  0  0  0  0  0  0  0
  -22.5930  -29.2460   22.2570 C   0  0  0  0  0  0  0  0  0  0  0  0
  -21.2620  -29.0950   22.1520 N   0  0  0  0  0  0  0  0  0  0  0  0
  -23.2800  -28.5650   23.0230 O   0  0  0  0  0  0  0  0  0  0  0  0
  -20.7690  -29.7050   21.5170 H   0  0  0  0  0  0  0  0  0  0  0  0
  -17.8710  -27.9310   22.6870 C   0  0  0  0  0  0  0  0  0  0  0  0
  -20.4440  -28.1210   22.8810 C   0  0  0  0  0  3  0  0  0  0  0  0
  -20.4920  -26.7310   22.2040 C   0  0  0  0  0  2  0  0  0  0  0  0
  -19.3490  -26.5060   21.2100 C   0  0  0  0  0  2  0  0  0  0  0  0
  -17.9920  -26.6310   21.9120 C   0  0  0  0  0  2  0  0  0  0  0  0
  -19.0220  -28.6390   23.1280 C   0  0  0  0  0  0  0  0  0  0  0  0
  -18.8520  -29.8570   23.8180 C   0  0  0  0  0  3  0  0  0  0  0  0
  -17.5650  -30.3680   24.0730 C   0  0  0  0  0  3  0  0  0  0  0  0
  -16.4290  -29.6570   23.6480 C   0  0  0  0  0  3  0  0  0  0  0  0
  -16.5850  -28.4430   22.9580 C   0  0  0  0  0  3  0  0  0  0  0  0
  -25.7320  -32.2470   23.6890 C   0  0  0  0  0  3  0  0  0  0  0  0
  -25.4130  -33.6270   24.0810 N   0  0  0  0  0  0  0  0  0  0  0  0
  -25.7300  -34.7180   23.3700 C   0  0  0  0  0  0  0  0  0  0  0  0
  -26.3930  -34.6690   22.3320 O   0  0  0  0  0  0  0  0  0  0  0  0
  -24.8170  -33.7390   24.8890 H   0  0  0  0  0  0  0  0  0  0  0  0
  -23.9920  -36.5240   23.1250 C   0  0  0  0  0  1  0  0  0  0  0  0
  -25.2440  -36.0820   23.9000 C   0  0  0  0  0  3  0  0  0  0  0  0
  -27.3780  -36.9500   24.7570 C   0  0  0  0  0  1  0  0  0  0  0  0
  -26.2710  -37.1440   23.8240 N   0  0  0  0  0  0  0  0  0  0  0  0
  -25.8590  -38.0560   24.0090 H   0  0  0  0  0  0  0  0  0  0  0  0
  -26.2490  -31.4240   24.9320 C   0  0  1  0  0  0  0  0  0  0  0  0
  -25.1610  -31.1560   26.0000 C   0  0  0  0  0  1  0  0  0  0  0  0
  -26.8100  -30.0550   24.4830 C   0  0  0  0  0  1  0  0  0  0  0  0
  -27.4150  -32.1810   25.6130 C   0  0  0  0  0  1  0  0  0  0  0  0
  -29.2050  -18.8540   19.8740 C   0  0  0  0  0  3  0  0  0  0  0  0
  -26.6490  -18.8570   20.0310 C   0  0  0  0  0  1  0  0  0  0  0  0
  -27.7000  -17.2470   18.4420 C   0  0  0  0  0  1  0  0  0  0  0  0
  -27.8680  -18.6050   19.1170 C   0  0  0  0  0  3  0  0  0  0  0  0
  -30.3280  -17.5940   19.8340 C   0  0  0  0  0  2  0  0  0  0  0  0
  -30.8800  -14.9530   20.2580 C   0  0  0  0  0  0  0  0  0  0  0  0
  -30.7530  -12.5430   19.5190 C   0  0  0  0  0  2  0  0  0  0  0  0
  -29.8400  -12.4220   18.2760 C   0  0  0  0  0  2  0  0  0  0  0  0
  -28.3760  -12.2260   18.7110 C   0  0  0  0  0  2  0  0  0  0  0  0
  -27.9430  -13.2360   19.8040 C   0  0  0  0  0  3  0  0  0  0  0  0
  -28.9870  -13.3620   20.9410 C   0  0  0  0  0  2  0  0  0  0  0  0
  -30.2760  -13.7020   20.3260 N   0  0  0  0  0  0  0  0  0  0  0  0
  -32.0600  -15.0070   19.9030 O   0  0  0  0  0  0  0  0  0  0  0  0
  -30.1140  -16.1310   20.3760 N   0  0  0  0  0  0  0  0  0  0  0  0
  -29.1790  -15.9550   20.7070 H   0  0  0  0  0  0  0  0  0  0  0  0
  -25.5610  -13.8300   20.5380 C   0  0  0  0  0  0  0  0  0  0  0  0
  -24.4910  -13.0740   20.9160 C   0  0  0  0  0  0  0  0  0  0  0  0
  -24.9360  -11.7200   20.8610 C   0  0  0  0  0  0  0  0  0  0  0  0
  -26.6000  -12.9490   20.3000 N   0  0  0  0  0  0  0  0  0  0  0  0
  -26.2280  -11.6660   20.5530 N   0  0  0  0  0  0  0  0  0  0  0  0
  -24.1860  -10.4710   21.0250 C   0  0  0  0  0  0  0  0  0  0  0  0
  -24.5790   -9.4890   21.9600 C   0  0  0  0  0  3  0  0  0  0  0  0
  -23.8230   -8.3070   22.1140 C   0  0  0  0  0  3  0  0  0  0  0  0
  -22.6610   -8.1000   21.3340 C   0  0  0  0  0  0  0  0  0  0  0  0
  -22.2870   -9.0720   20.3900 C   0  0  0  0  0  3  0  0  0  0  0  0
  -23.0440  -10.2450   20.2330 C   0  0  0  0  0  3  0  0  0  0  0  0
  -21.8820   -6.9720   21.3980 O   0  0  0  0  0  0  0  0  0  0  0  0
  -21.7640   -6.2440   22.5550 C   0  0  0  0  0  0  0  0  0  0  0  0
  -21.2610   -6.8130   23.7460 C   0  0  0  0  0  3  0  0  0  0  0  0
  -21.0930   -6.0110   24.8930 C   0  0  0  0  0  3  0  0  0  0  0  0
  -21.4180   -4.6430   24.8480 C   0  0  0  0  0  0  0  0  0  0  0  0
  -21.9140   -4.0740   23.6620 C   0  0  0  0  0  3  0  0  0  0  0  0
  -22.0830   -4.8710   22.5180 C   0  0  0  0  0  0  0  0  0  0  0  0
  -22.5420   -4.3140   21.3720 F   0  0  0  0  0  0  0  0  0  0  0  0
  -21.2490   -3.8690   25.9470 F   0  0  0  0  0  0  0  0  0  0  0  0
  -23.1070  -13.5770   21.2070 C   0  0  0  0  0  0  0  0  0  0  0  0
  -22.3850  -12.8990   22.0920 N   0  0  0  0  0  0  0  0  0  0  0  0
  -22.6790  -14.6090   20.6940 O   0  0  0  0  0  0  0  0  0  0  0  0
  -22.7470  -12.0600   22.5210 H   0  0  0  0  0  0  0  0  0  0  0  0
  -21.4640  -13.2230   22.3460 H   0  0  0  0  0  0  0  0  0  0  0  0
  -25.7180  -15.1910   20.3490 N   0  0  0  0  0  0  0  0  0  0  0  0
  -24.9390  -15.8330   20.4390 H   0  0  0  0  0  0  0  0  0  0  0  0
  -26.5700  -15.6400   20.0400 H   0  0  0  0  0  0  0  0  0  0  0  0
  2  1  1  0
  2 47  1  0
  3  2  1  0
  3  4  1  0
  5  6  1  0
  5  4  2  0
  7 18  2  0
  8  6  1  0
  8 13  1  0
  9 17  1  0
  9 19  1  0
 10 16  1  0
 10 12  1  0
 11 17  1  0
 12 11  1  0
 13 12  2  0
 14 15  1  0
 14  8  2  0
 15 10  2  0
 16  9  1  0
 17  7  1  0
 19 21  2  0
 20 19  1  0
 22 20  1  0
 23 32  2  0
 23 28  1  0
 24 20  1  0
 24 28  1  0
 25 24  1  0
 26 27  1  0
 26 25  1  0
 27 23  1  0
 28 29  2  0
 29 30  1  0
 31 30  2  0
 32 31  1  0
 33  7  1  0
 33 34  1  0
 33 43  1  0
 34 37  1  0
 35 39  1  0
 35 34  1  0
 36 35  2  0
 39 38  1  0
 41 39  1  0
 41 42  1  0
 41 40  1  0
 43 46  1  1
 43 44  1  0
 45 43  1  0
 47 51  1  0
 49 50  1  0
 50 47  1  0
 50 48  1  0
 51 60  1  0
 52 58  1  0
 52 60  1  0
 53 58  1  0
 54 55  1  0
 54 53  1  0
 56 55  1  0
 56 65  1  0
 56 57  1  0
 58 57  1  0
 59 52  2  0
 60 61  1  0
 62 63  2  0
 63 82  1  0
 64 63  1  0
 64 67  1  0
 65 62  1  0
 65 66  1  0
 66 64  2  0
 67 68  1  0
 68 69  2  0
 70 73  1  0
 70 69  1  0
 71 70  2  0
 72 71  1  0
 72 67  2  0
 73 74  1  0
 74 75  1  0
 75 76  2  0
 77 76  1  0
 77 81  1  0
 78 77  2  0
 79 74  2  0
 79 78  1  0
 80 79  1  0
 82 83  1  0
 83 86  1  0
 83 85  1  0
 84 82  2  0
 87 88  1  0
 87 62  1  0
 89 87  1  0
M  ISO  4   5 101   6 101  52 100  60 100
M  END
>  <TORSDO>  (90) 
F 22

>  <SCORE>  (90) 
-12.051

>  <name>  (90) 
91

>  <ligand_id>  (90) 
91

>  <original_smiles>  (90) 
[H]c1c([H])c([H])c2c(c1[H])C([H])([H])C([H])([H])C([H])([H])C2([H])N([H])C(=O)C1([H])N(C(=O)C([H])(N([H])C(=O)C([H])(N([H])C([H])([H])[H])C([H])([H])[H])C(C([H])([H])[H])(C([H])([H])[H])C([H])([H])[H])C([H])([H])c2c([H])c(OC([H])([H])C([H])([H])C([H])([H])C([H])(C([H])([H])[H])C([H])(C([H])([H])N([H])C(=O)N3C([H])([H])C([H])([H])C([H])([H])C([H])(n4nc(-c5c([H])c([H])c(Oc6c([H])c([H])c(F)c([H])c6F)c([H])c5[H])c(C(=O)N([H])[H])c4N([H])[H])C3([H])[H])C([H])(C([H])([H])[H])C([H])([H])[H])c([H])c([H])c2C1([H])[H]

>  <smiles>  (90) 
[H]c1c([H])c([H])c2c(c1[H])C([H])([H])C([H])([H])C([H])([H])C2([H])N([H])C(=O)C1([H])N(C(=O)C([H])(N([H])C(=O)C([H])(N([H])C([H])([H])[H])C([H])([H])[H])C(C([H])([H])[H])(C([H])([H])[H])C([H])([H])[H])C([H])([H])c2c([H])c(OC([H])([H])C([H])([H])C([H])([H])C([H])(C([H])([H])[H])C([H])(C([H])([H])N([H])C(=O)N3C([H])([H])C([H])([H])C([H])([H])C([H])(n4nc(-c5c([H])c([H])c(Oc6c([H])c([H])c(F)c([H])c6F)c([H])c5[H])c(C(=O)N([H])[H])c4N([H])[H])C3([H])[H])C([H])(C([H])([H])[H])C([H])([H])[H])c([H])c([H])c2C1([H])[H]

$$$$
92:0:0
     RDKit          3D

 92100  0  0  1  0  0  0  0  0999 V2000
  -28.0160  -21.6320   20.5010 C   0  0  0  0  0  3  0  0  0  0  0  0
  -27.0480  -20.6260   20.4040 C   0  0  0  0  0  3  0  0  0  0  0  0
  -29.3860  -21.3700   20.2540 C   0  0  0  0  0  0  0  0  0  0  0  0
  -27.4600  -19.3430   20.0500 C   0  0  0  0  0  0  0  0  0  0  0  0
  -29.7280  -19.9670   19.9160 C   0  0  0  0  0  0  0  0  0  0  0  0
  -26.4610  -18.2180   19.8660 C   0  0  0  0  0  1  0  0  0  0  0  0
  -28.7450  -19.0420   19.8180 N   0  0  0  0  0  0  0  0  0  0  0  0
  -32.1110  -20.2010   18.8960 C   0  0  0  0  0  1  0  0  0  0  0  0
  -31.0510  -19.2270   19.4230 C   0  0  0  0  0  3  0  0  0  0  0  0
  -31.7400  -18.1340   20.4250 C   0  0  0  0  0  2  0  0  0  0  0  0
  -32.1260  -15.5150   20.5020 C   0  0  0  0  0  0  0  0  0  0  0  0
  -32.0160  -13.1080   19.8490 C   0  0  0  0  0  2  0  0  0  0  0  0
  -31.2280  -12.9760   18.5280 C   0  0  0  0  0  2  0  0  0  0  0  0
  -29.7150  -12.8710   18.8030 C   0  0  0  0  0  2  0  0  0  0  0  0
  -29.2130  -13.9470   19.8020 C   0  0  0  0  0  3  0  0  0  0  0  0
  -30.1290  -14.0470   21.0400 C   0  0  0  0  0  2  0  0  0  0  0  0
  -31.4910  -14.2970   20.5550 N   0  0  0  0  0  0  0  0  0  0  0  0
  -33.3480  -15.5730   20.3450 O   0  0  0  0  0  0  0  0  0  0  0  0
  -31.3440  -16.6540   20.4250 N   0  0  0  0  0  0  0  0  0  0  0  0
  -30.3530  -16.4840   20.4880 H   0  0  0  0  0  0  0  0  0  0  0  0
  -26.7970  -14.6720   20.2700 C   0  0  0  0  0  0  0  0  0  0  0  0
  -25.6650  -13.9600   20.5580 C   0  0  0  0  0  0  0  0  0  0  0  0
  -26.0650  -12.5910   20.6230 C   0  0  0  0  0  0  0  0  0  0  0  0
  -27.8160  -13.7400   20.1700 N   0  0  0  0  0  0  0  0  0  0  0  0
  -27.3760  -12.4850   20.4470 N   0  0  0  0  0  0  0  0  0  0  0  0
  -25.2640  -11.3700   20.7830 C   0  0  0  0  0  0  0  0  0  0  0  0
  -25.4890  -10.4750   21.8510 C   0  0  0  0  0  3  0  0  0  0  0  0
  -24.6930   -9.3170   21.9950 C   0  0  0  0  0  3  0  0  0  0  0  0
  -23.6580   -9.0490   21.0680 C   0  0  0  0  0  0  0  0  0  0  0  0
  -23.4540   -9.9310   19.9930 C   0  0  0  0  0  3  0  0  0  0  0  0
  -24.2500  -11.0790   19.8480 C   0  0  0  0  0  3  0  0  0  0  0  0
  -22.8510   -7.9380   21.1140 O   0  0  0  0  0  0  0  0  0  0  0  0
  -22.4690   -7.3740   22.3040 C   0  0  0  0  0  0  0  0  0  0  0  0
  -21.7700   -8.1090   23.2880 C   0  0  0  0  0  3  0  0  0  0  0  0
  -21.3360   -7.4720   24.4670 C   0  0  0  0  0  3  0  0  0  0  0  0
  -21.5910   -6.1010   24.6620 C   0  0  0  0  0  0  0  0  0  0  0  0
  -22.2810   -5.3660   23.6820 C   0  0  0  0  0  3  0  0  0  0  0  0
  -22.7150   -6.0010   22.5060 C   0  0  0  0  0  0  0  0  0  0  0  0
  -23.3620   -5.2830   21.5550 F   0  0  0  0  0  0  0  0  0  0  0  0
  -21.1670   -5.4860   25.7910 F   0  0  0  0  0  0  0  0  0  0  0  0
  -24.2720  -14.5080   20.6680 C   0  0  0  0  0  0  0  0  0  0  0  0
  -23.4390  -13.9000   21.5050 N   0  0  0  0  0  0  0  0  0  0  0  0
  -23.9280  -15.5110   20.0440 O   0  0  0  0  0  0  0  0  0  0  0  0
  -23.7310  -13.0900   22.0330 H   0  0  0  0  0  0  0  0  0  0  0  0
  -22.4990  -14.2490   21.6220 H   0  0  0  0  0  0  0  0  0  0  0  0
  -27.0400  -16.0270   20.0600 N   0  0  0  0  0  0  0  0  0  0  0  0
  -26.2920  -16.7110   20.0660 H   0  0  0  0  0  0  0  0  0  0  0  0
  -27.9320  -16.4250   19.7970 H   0  0  0  0  0  0  0  0  0  0  0  0
  -30.2690  -22.6860   20.3180 C   0  0  0  0  0  2  0  0  0  0  0  0
  -29.7660  -24.0310   21.1110 C   0  0  0  0  0  2  0  0  0  0  0  0
  -28.9280  -25.2390   20.4330 C   0  0  0  0  0  2  0  0  0  0  0  0
  -28.9930  -26.6510   20.9600 O   0  0  0  0  0  0  0  0  0  0  0  0
  -24.9150  -32.0680   23.6040 C   0  0  0  0  0  0  0  0  0  0  0  0
  -27.8710  -27.5050   20.8140 C   0  0  0  0  0  0  0  0  0  0  0  0
  -23.8690  -30.5870   21.9330 C   0  0  0  0  0  3  0  0  0  0  0  0
  -25.4610  -29.0630   20.6300 C   0  0  0  0  0  0  0  0  0  0  0  0
  -26.4080  -30.9850   21.9010 C   0  0  0  0  0  2  0  0  0  0  0  0
  -26.5770  -29.5940   21.2880 C   0  0  0  0  0  0  0  0  0  0  0  0
  -27.7850  -28.8270   21.3710 C   0  0  0  0  0  3  0  0  0  0  0  0
  -26.7300  -27.0460   20.1180 C   0  0  0  0  0  3  0  0  0  0  0  0
  -25.5430  -27.7960   20.0360 C   0  0  0  0  0  3  0  0  0  0  0  0
  -24.1930  -29.8930   20.5850 C   0  0  0  0  0  2  0  0  0  0  0  0
  -25.0790  -31.2340   22.5360 N   0  0  0  0  0  0  0  0  0  0  0  0
  -23.7900  -32.3170   24.0610 O   0  0  0  0  0  0  0  0  0  0  0  0
  -23.1870  -29.5660   22.8760 C   0  0  0  0  0  0  0  0  0  0  0  0
  -21.8870  -29.3080   22.6520 N   0  0  0  0  0  0  0  0  0  0  0  0
  -23.8290  -29.0080   23.7690 O   0  0  0  0  0  0  0  0  0  0  0  0
  -21.4250  -29.8120   21.9070 H   0  0  0  0  0  0  0  0  0  0  0  0
  -18.5410  -27.9640   22.9610 C   0  0  0  0  0  0  0  0  0  0  0  0
  -21.0610  -28.3510   23.3920 C   0  0  0  0  0  3  0  0  0  0  0  0
  -21.2660  -26.9130   22.8640 C   0  0  0  0  0  2  0  0  0  0  0  0
  -20.2510  -26.5140   21.7880 C   0  0  0  0  0  2  0  0  0  0  0  0
  -18.8240  -26.6080   22.3340 C   0  0  0  0  0  2  0  0  0  0  0  0
  -19.5920  -28.7880   23.4420 C   0  0  0  0  0  0  0  0  0  0  0  0
  -19.2760  -30.0530   23.9830 C   0  0  0  0  0  3  0  0  0  0  0  0
  -17.9410  -30.4950   24.0520 C   0  0  0  0  0  3  0  0  0  0  0  0
  -16.9030  -29.6680   23.5870 C   0  0  0  0  0  3  0  0  0  0  0  0
  -17.2040  -28.4050   23.0470 C   0  0  0  0  0  3  0  0  0  0  0  0
  -26.1310  -32.7660   24.2870 C   0  0  0  0  0  3  0  0  0  0  0  0
  -25.7780  -34.1800   24.4820 N   0  0  0  0  0  0  0  0  0  0  0  0
  -26.1580  -35.1800   23.6750 C   0  0  0  0  0  0  0  0  0  0  0  0
  -26.9110  -35.0110   22.7130 O   0  0  0  0  0  0  0  0  0  0  0  0
  -25.1130  -34.3830   25.2170 H   0  0  0  0  0  0  0  0  0  0  0  0
  -24.4440  -36.9130   23.0500 C   0  0  0  0  0  1  0  0  0  0  0  0
  -25.6210  -36.5900   23.9850 C   0  0  0  0  0  3  0  0  0  0  0  0
  -27.6780  -37.5670   24.9080 C   0  0  0  0  0  1  0  0  0  0  0  0
  -26.6480  -37.6490   23.8740 N   0  0  0  0  0  0  0  0  0  0  0  0
  -26.2230  -38.5720   23.9240 H   0  0  0  0  0  0  0  0  0  0  0  0
  -26.5370  -32.1010   25.6600 C   0  0  1  0  0  0  0  0  0  0  0  0
  -25.3420  -31.8780   26.6190 C   0  0  0  0  0  1  0  0  0  0  0  0
  -27.2140  -30.7310   25.4300 C   0  0  0  0  0  1  0  0  0  0  0  0
  -27.5760  -32.9910   26.3810 C   0  0  0  0  0  1  0  0  0  0  0  0
  2  1  1  0
  3 49  1  0
  3  1  2  0
  4  2  2  0
  5  3  1  0
  6  4  1  0
  7  5  2  0
  7  4  1  0
  9  8  1  0
  9  5  1  0
  9 10  1  0
 11 17  1  0
 12 17  1  0
 13 14  1  0
 13 12  1  0
 15 14  1  0
 15 24  1  0
 15 16  1  0
 17 16  1  0
 18 11  2  0
 19 10  1  0
 19 20  1  0
 19 11  1  0
 21 22  2  0
 22 23  1  0
 22 41  1  0
 23 26  1  0
 24 21  1  0
 24 25  1  0
 25 23  2  0
 26 27  1  0
 27 28  2  0
 29 32  1  0
 29 28  1  0
 30 29  2  0
 31 30  1  0
 31 26  2  0
 32 33  1  0
 33 38  2  0
 33 34  1  0
 34 35  2  0
 35 36  1  0
 36 40  1  0
 37 36  2  0
 38 37  1  0
 39 38  1  0
 41 42  1  0
 42 45  1  0
 42 44  1  0
 43 41  2  0
 46 47  1  0
 46 21  1  0
 48 46  1  0
 49 50  1  0
 51 52  1  0
 51 50  1  0
 53 64  2  0
 54 52  1  0
 54 59  1  0
 55 63  1  0
 55 65  1  0
 56 58  1  0
 57 63  1  0
 58 59  2  0
 58 57  1  0
 60 54  2  0
 61 60  1  0
 61 56  2  0
 62 56  1  0
 62 55  1  0
 63 53  1  0
 65 67  2  0
 66 65  1  0
 68 66  1  0
 69 78  2  0
 69 74  1  0
 70 66  1  0
 70 74  1  0
 71 70  1  0
 72 73  1  0
 72 71  1  0
 73 69  1  0
 74 75  2  0
 75 76  1  0
 77 76  2  0
 78 77  1  0
 79 53  1  0
 79 80  1  0
 79 89  1  0
 80 83  1  0
 81 85  1  0
 81 80  1  0
 82 81  2  0
 85 84  1  0
 87 88  1  0
 87 85  1  0
 87 86  1  0
 89 92  1  1
 89 90  1  0
 91 89  1  0
M  ISO  4  11 100  19 100  51 101  52 101
M  END
>  <TORSDO>  (91) 
F 21

>  <SCORE>  (91) 
-9.232

>  <name>  (91) 
92

>  <ligand_id>  (91) 
92

>  <original_smiles>  (91) 
[H]c1c(C([H])([H])[H])nc(C([H])(C([H])([H])[H])C([H])([H])N([H])C(=O)N2C([H])([H])C([H])([H])C([H])([H])C([H])(n3nc(-c4c([H])c([H])c(Oc5c([H])c([H])c(F)c([H])c5F)c([H])c4[H])c(C(=O)N([H])[H])c3N([H])[H])C2([H])[H])c(C([H])([H])C([H])([H])C([H])([H])Oc2c([H])c([H])c3c(c2[H])C([H])([H])N(C(=O)C([H])(N([H])C(=O)C([H])(N([H])C([H])([H])[H])C([H])([H])[H])C(C([H])([H])[H])(C([H])([H])[H])C([H])([H])[H])C([H])(C(=O)N([H])C2([H])c4c([H])c([H])c([H])c([H])c4C([H])([H])C([H])([H])C2([H])[H])C3([H])[H])c1[H]

>  <smiles>  (91) 
[H]c1c(C([H])([H])[H])nc(C([H])(C([H])([H])[H])C([H])([H])N([H])C(=O)N2C([H])([H])C([H])([H])C([H])([H])C([H])(n3nc(-c4c([H])c([H])c(Oc5c([H])c([H])c(F)c([H])c5F)c([H])c4[H])c(C(=O)N([H])[H])c3N([H])[H])C2([H])[H])c(C([H])([H])C([H])([H])C([H])([H])Oc2c([H])c([H])c3c(c2[H])C([H])([H])N(C(=O)C([H])(N([H])C(=O)C([H])(N([H])C([H])([H])[H])C([H])([H])[H])C(C([H])([H])[H])(C([H])([H])[H])C([H])([H])[H])C([H])(C(=O)N([H])C2([H])c4c([H])c([H])c([H])c([H])c4C([H])([H])C([H])([H])C2([H])[H])C3([H])[H])c1[H]

$$$$
93:0:0
     RDKit          3D

 96104  0  0  1  0  0  0  0  0999 V2000
  -29.1100  -19.9640   20.0800 C   0  0  0  0  0  0  0  0  0  0  0  0
  -29.1980  -21.3820   19.8660 C   0  0  0  0  0  0  0  0  0  0  0  0
  -27.0590  -20.3950   19.1100 C   0  0  0  0  0  0  0  0  0  0  0  0
  -27.8500  -19.4890   19.6810 N   0  0  0  0  0  0  0  0  0  0  0  0
  -27.8340  -21.9440   18.9310 S   0  0  0  0  0  0  0  0  0  0  0  0
  -29.4840  -18.6080   22.2230 C   0  0  0  0  0  1  0  0  0  0  0  0
  -29.9610  -18.8260   20.7780 C   0  0  0  0  0  3  0  0  0  0  0  0
  -30.1970  -17.4000   20.0190 C   0  0  0  0  0  2  0  0  0  0  0  0
  -30.9010  -14.8820   20.3850 C   0  0  0  0  0  0  0  0  0  0  0  0
  -30.6550  -12.6090   19.3750 C   0  0  0  0  0  2  0  0  0  0  0  0
  -29.7110  -12.7150   18.1560 C   0  0  0  0  0  2  0  0  0  0  0  0
  -28.2410  -12.5630   18.5930 C   0  0  0  0  0  2  0  0  0  0  0  0
  -27.8910  -13.4460   19.8190 C   0  0  0  0  0  3  0  0  0  0  0  0
  -28.9550  -13.3330   20.9370 C   0  0  0  0  0  2  0  0  0  0  0  0
  -30.2610  -13.6610   20.3460 N   0  0  0  0  0  0  0  0  0  0  0  0
  -32.0550  -14.9800   19.9560 O   0  0  0  0  0  0  0  0  0  0  0  0
  -30.1600  -16.0150   20.6850 N   0  0  0  0  0  0  0  0  0  0  0  0
  -29.2820  -15.8110   21.1410 H   0  0  0  0  0  0  0  0  0  0  0  0
  -25.5180  -14.0760   20.5640 C   0  0  0  0  0  0  0  0  0  0  0  0
  -24.4380  -13.3170   20.9300 C   0  0  0  0  0  0  0  0  0  0  0  0
  -24.8750  -11.9580   20.8780 C   0  0  0  0  0  0  0  0  0  0  0  0
  -26.5430  -13.1780   20.3100 N   0  0  0  0  0  0  0  0  0  0  0  0
  -26.1620  -11.8980   20.5610 N   0  0  0  0  0  0  0  0  0  0  0  0
  -24.1220  -10.7080   21.0540 C   0  0  0  0  0  0  0  0  0  0  0  0
  -24.5750   -9.6890   21.9210 C   0  0  0  0  0  3  0  0  0  0  0  0
  -23.8220   -8.5060   22.0900 C   0  0  0  0  0  3  0  0  0  0  0  0
  -22.6030   -8.3340   21.3910 C   0  0  0  0  0  0  0  0  0  0  0  0
  -22.1700   -9.3420   20.5120 C   0  0  0  0  0  3  0  0  0  0  0  0
  -22.9220  -10.5170   20.3410 C   0  0  0  0  0  3  0  0  0  0  0  0
  -21.8170   -7.2090   21.4740 O   0  0  0  0  0  0  0  0  0  0  0  0
  -21.8370   -6.3990   22.5810 C   0  0  0  0  0  0  0  0  0  0  0  0
  -21.5490   -6.8940   23.8720 C   0  0  0  0  0  3  0  0  0  0  0  0
  -21.5100   -6.0150   24.9720 C   0  0  0  0  0  3  0  0  0  0  0  0
  -21.7460   -4.6400   24.7820 C   0  0  0  0  0  0  0  0  0  0  0  0
  -22.0250   -4.1420   23.4970 C   0  0  0  0  0  3  0  0  0  0  0  0
  -22.0670   -5.0200   22.4000 C   0  0  0  0  0  0  0  0  0  0  0  0
  -22.3140   -4.5330   21.1600 F   0  0  0  0  0  0  0  0  0  0  0  0
  -21.7010   -3.7920   25.8360 F   0  0  0  0  0  0  0  0  0  0  0  0
  -23.0530  -13.8190   21.2180 C   0  0  0  0  0  0  0  0  0  0  0  0
  -22.3280  -13.1420   22.1030 N   0  0  0  0  0  0  0  0  0  0  0  0
  -22.6230  -14.8450   20.6940 O   0  0  0  0  0  0  0  0  0  0  0  0
  -22.6900  -12.3100   22.5470 H   0  0  0  0  0  0  0  0  0  0  0  0
  -21.4000  -13.4600   22.3390 H   0  0  0  0  0  0  0  0  0  0  0  0
  -25.7070  -15.4450   20.4070 N   0  0  0  0  0  0  0  0  0  0  0  0
  -24.9580  -16.1140   20.5380 H   0  0  0  0  0  0  0  0  0  0  0  0
  -26.5640  -15.8750   20.0810 H   0  0  0  0  0  0  0  0  0  0  0  0
  -30.1990  -22.5420   20.1560 C   0  0  0  0  0  2  0  0  0  0  0  0
  -29.7220  -24.0000   20.7260 C   0  0  0  0  0  3  0  0  0  0  0  0
  -28.8820  -25.1040   19.8950 C   0  0  0  0  0  3  0  0  0  0  0  0
  -28.8160  -26.5330   20.3650 O   0  0  0  0  0  0  0  0  0  0  0  0
  -24.3850  -31.5760   23.1210 C   0  0  0  0  0  0  0  0  0  0  0  0
  -27.6260  -27.2910   20.2270 C   0  0  0  0  0  0  0  0  0  0  0  0
  -23.4310  -30.0800   21.4030 C   0  0  0  0  0  3  0  0  0  0  0  0
  -25.1160  -28.6870   20.0670 C   0  0  0  0  0  0  0  0  0  0  0  0
  -25.9360  -30.6370   21.3850 C   0  0  0  0  0  2  0  0  0  0  0  0
  -26.1920  -29.2750   20.7440 C   0  0  0  0  0  0  0  0  0  0  0  0
  -27.4440  -28.5870   20.8170 C   0  0  0  0  0  3  0  0  0  0  0  0
  -26.5220  -26.7700   19.5120 C   0  0  0  0  0  3  0  0  0  0  0  0
  -25.2860  -27.4430   19.4400 C   0  0  0  0  0  3  0  0  0  0  0  0
  -23.7990  -29.4400   20.0380 C   0  0  0  0  0  2  0  0  0  0  0  0
  -24.5990  -30.7850   22.0270 N   0  0  0  0  0  0  0  0  0  0  0  0
  -23.2480  -31.7430   23.5850 O   0  0  0  0  0  0  0  0  0  0  0  0
  -22.8120  -28.9980   22.3180 C   0  0  0  0  0  0  0  0  0  0  0  0
  -21.5210  -28.6880   22.1030 N   0  0  0  0  0  0  0  0  0  0  0  0
  -23.4920  -28.4390   23.1820 O   0  0  0  0  0  0  0  0  0  0  0  0
  -21.0260  -29.1990   21.3860 H   0  0  0  0  0  0  0  0  0  0  0  0
  -18.2520  -27.1640   22.3950 C   0  0  0  0  0  0  0  0  0  0  0  0
  -20.7510  -27.6670   22.8180 C   0  0  0  0  0  3  0  0  0  0  0  0
  -21.0260  -26.2580   22.2430 C   0  0  0  0  0  2  0  0  0  0  0  0
  -20.0240  -25.8410   21.1630 C   0  0  0  0  0  2  0  0  0  0  0  0
  -18.5980  -25.8450   21.7230 C   0  0  0  0  0  2  0  0  0  0  0  0
  -19.2630  -28.0260   22.8950 C   0  0  0  0  0  0  0  0  0  0  0  0
  -18.8860  -29.2540   23.4810 C   0  0  0  0  0  3  0  0  0  0  0  0
  -17.5320  -29.6240   23.5700 C   0  0  0  0  0  3  0  0  0  0  0  0
  -16.5330  -28.7620   23.0860 C   0  0  0  0  0  3  0  0  0  0  0  0
  -16.8940  -27.5320   22.5040 C   0  0  0  0  0  3  0  0  0  0  0  0
  -25.5590  -32.3270   23.8260 C   0  0  0  0  0  3  0  0  0  0  0  0
  -25.9080  -31.7320   25.2450 C   0  0  1  0  0  0  0  0  0  0  0  0
  -24.6850  -31.5950   26.1800 C   0  0  0  0  0  1  0  0  0  0  0  0
  -26.5570  -30.3340   25.1110 C   0  0  0  0  0  1  0  0  0  0  0  0
  -26.9500  -32.6350   25.9490 C   0  0  0  0  0  1  0  0  0  0  0  0
  -25.1810  -33.7450   23.9350 N   0  0  0  0  0  0  0  0  0  0  0  0
  -25.6310  -34.7170   23.1300 C   0  0  0  0  0  0  0  0  0  0  0  0
  -26.4730  -34.5180   22.2510 O   0  0  0  0  0  0  0  0  0  0  0  0
  -24.4610  -33.9710   24.6050 H   0  0  0  0  0  0  0  0  0  0  0  0
  -24.0010  -36.4170   22.2490 C   0  0  0  0  0  1  0  0  0  0  0  0
  -25.0570  -36.1330   23.3300 C   0  0  0  0  0  3  0  0  0  0  0  0
  -26.9850  -37.1520   24.4600 C   0  0  0  0  0  1  0  0  0  0  0  0
  -26.0870  -37.1950   23.3090 N   0  0  0  0  0  0  0  0  0  0  0  0
  -25.6570  -38.1160   23.2760 H   0  0  0  0  0  0  0  0  0  0  0  0
  -25.6340  -20.1550   18.7250 C   0  0  0  0  0  2  0  0  0  0  0  0
  -24.7320  -21.3920   18.9050 C   0  0  0  0  0  2  0  0  0  0  0  0
  -24.9000  -22.4810   17.8220 C   0  0  0  0  0  2  0  0  0  0  0  0
  -23.7930  -24.2100   16.3430 C   0  0  0  0  0  1  0  0  0  0  0  0
  -23.2810  -24.1690   18.8300 C   0  0  0  0  0  1  0  0  0  0  0  0
  -23.6370  -23.3290   17.5930 C   0  0  0  0  0  3  0  0  0  0  0  0
  1  7  1  0
  2  1  2  0
  2 47  1  0
  3  4  2  0
  4  1  1  0
  5  3  1  0
  5  2  1  0
  7  6  1  0
  8 17  1  0
  8  7  1  0
  9 17  1  0
 10 15  1  0
 11 12  1  0
 11 10  1  0
 13 12  1  0
 13 22  1  0
 13 14  1  0
 15  9  1  0
 15 14  1  0
 16  9  2  0
 17 18  1  0
 19 20  2  0
 20 39  1  0
 21 20  1  0
 21 24  1  0
 22 23  1  0
 22 19  1  0
 23 21  2  0
 24 25  1  0
 25 26  2  0
 27 30  1  0
 27 26  1  0
 28 27  2  0
 29 28  1  0
 29 24  2  0
 30 31  1  0
 31 32  1  0
 32 33  2  0
 34 33  1  0
 34 38  1  0
 35 34  2  0
 36 31  2  0
 36 35  1  0
 37 36  1  0
 39 40  1  0
 40 43  1  0
 40 42  1  0
 41 39  2  0
 44 45  1  0
 44 19  1  0
 46 44  1  0
 47 48  1  0
 49 50  1  0
 49 48  2  0
 51 62  2  0
 52 50  1  0
 52 57  1  0
 53 61  1  0
 53 63  1  0
 54 56  1  0
 55 61  1  0
 56 57  2  0
 56 55  1  0
 58 52  2  0
 59 58  1  0
 59 54  2  0
 60 54  1  0
 60 53  1  0
 61 51  1  0
 63 65  2  0
 64 63  1  0
 66 64  1  0
 67 76  2  0
 67 72  1  0
 68 64  1  0
 68 72  1  0
 69 68  1  0
 70 71  1  0
 70 69  1  0
 71 67  1  0
 72 73  2  0
 73 74  1  0
 75 74  2  0
 76 75  1  0
 77 51  1  0
 77 82  1  0
 77 78  1  0
 78 81  1  1
 78 79  1  0
 80 78  1  0
 82 85  1  0
 83 87  1  0
 83 82  1  0
 84 83  2  0
 87 86  1  0
 89 87  1  0
 89 88  1  0
 90 89  1  0
 91 92  1  0
 91  3  1  0
 93 92  1  0
 94 96  1  0
 96 93  1  0
 96 95  1  0
M  ISO  4   9 100  17 100  49 101  50 101
M  END
>  <TORSDO>  (92) 
F 25

>  <SCORE>  (92) 
-9.373

>  <name>  (92) 
93

>  <ligand_id>  (92) 
93

>  <original_smiles>  (92) 
[H]c1c([H])c([H])c2c(c1[H])C([H])([H])C([H])([H])C([H])([H])C2([H])N([H])C(=O)C1([H])N(C(=O)C([H])(N([H])C(=O)C([H])(N([H])C([H])([H])[H])C([H])([H])[H])C(C([H])([H])[H])(C([H])([H])[H])C([H])([H])[H])C([H])([H])c2c([H])c(OC([H])([H])C([H])([H])C([H])([H])c3sc(C([H])([H])C([H])([H])C([H])([H])C([H])(C([H])([H])[H])C([H])([H])[H])nc3C([H])(C([H])([H])[H])C([H])([H])N([H])C(=O)N3C([H])([H])C([H])([H])C([H])([H])C([H])(n4nc(-c5c([H])c([H])c(Oc6c([H])c([H])c(F)c([H])c6F)c([H])c5[H])c(C(=O)N([H])[H])c4N([H])[H])C3([H])[H])c([H])c([H])c2C1([H])[H]

>  <smiles>  (92) 
[H]c1c([H])c([H])c2c(c1[H])C([H])([H])C([H])([H])C([H])([H])C2([H])N([H])C(=O)C1([H])N(C(=O)C([H])(N([H])C(=O)C([H])(N([H])C([H])([H])[H])C([H])([H])[H])C(C([H])([H])[H])(C([H])([H])[H])C([H])([H])[H])C([H])([H])c2c([H])c(OC([H])([H])C([H])([H])C([H])([H])c3sc(C([H])([H])C([H])([H])C([H])([H])C([H])(C([H])([H])[H])C([H])([H])[H])nc3C([H])(C([H])([H])[H])C([H])([H])N([H])C(=O)N3C([H])([H])C([H])([H])C([H])([H])C([H])(n4nc(-c5c([H])c([H])c(Oc6c([H])c([H])c(F)c([H])c6F)c([H])c5[H])c(C(=O)N([H])[H])c4N([H])[H])C3([H])[H])c([H])c([H])c2C1([H])[H]

$$$$
94:0:0
     RDKit          3D

 93100  0  0  1  0  0  0  0  0999 V2000
  -28.3100  -24.8580   20.2240 C   0  0  0  0  0  3  0  0  0  0  0  0
  -28.5540  -23.5480   20.6710 C   0  0  0  0  0  0  0  0  0  0  0  0
  -30.9430  -23.1380   19.8770 C   0  0  0  0  0  1  0  0  0  0  0  0
  -29.7470  -22.5050   20.4980 N   0  0  2  0  0  4  0  0  0  0  0  0
  -30.0790  -22.2970   21.4300 H   0  0  0  0  0  0  0  0  0  0  0  0
  -29.5380  -21.0680   19.9140 C   0  0  0  0  0  2  0  0  0  0  0  0
  -29.6830  -19.7150   20.8290 C   0  0  0  0  0  3  0  0  0  0  0  0
  -30.1850  -18.3090   20.1440 C   0  0  0  0  0  3  0  0  0  0  0  0
  -30.8150  -15.7970   20.6650 C   0  0  0  0  0  0  0  0  0  0  0  0
  -30.8190  -13.4340   19.8240 C   0  0  0  0  0  2  0  0  0  0  0  0
  -30.0040  -13.3780   18.5120 C   0  0  0  0  0  2  0  0  0  0  0  0
  -28.5090  -13.1480   18.8090 C   0  0  0  0  0  2  0  0  0  0  0  0
  -27.9810  -14.0870   19.9260 C   0  0  0  0  0  3  0  0  0  0  0  0
  -28.9310  -14.1530   21.1450 C   0  0  0  0  0  2  0  0  0  0  0  0
  -30.2580  -14.5320   20.6480 N   0  0  0  0  0  0  0  0  0  0  0  0
  -32.0080  -15.9370   20.3860 O   0  0  0  0  0  0  0  0  0  0  0  0
  -29.9780  -16.9070   20.7570 N   0  0  0  0  0  0  0  0  0  0  0  0
  -29.0150  -16.6690   20.9580 H   0  0  0  0  0  0  0  0  0  0  0  0
  -25.5380  -14.6000   20.5020 C   0  0  0  0  0  0  0  0  0  0  0  0
  -24.4690  -13.7920   20.7790 C   0  0  0  0  0  0  0  0  0  0  0  0
  -24.9680  -12.4530   20.7550 C   0  0  0  0  0  0  0  0  0  0  0  0
  -26.6180  -13.7510   20.3200 N   0  0  0  0  0  0  0  0  0  0  0  0
  -26.2780  -12.4530   20.5390 N   0  0  0  0  0  0  0  0  0  0  0  0
  -24.2640  -11.1690   20.8800 C   0  0  0  0  0  0  0  0  0  0  0  0
  -24.6450  -10.2150   21.8470 C   0  0  0  0  0  3  0  0  0  0  0  0
  -23.9450   -8.9950   21.9630 C   0  0  0  0  0  3  0  0  0  0  0  0
  -22.8520   -8.7200   21.1070 C   0  0  0  0  0  0  0  0  0  0  0  0
  -22.4880   -9.6640   20.1330 C   0  0  0  0  0  3  0  0  0  0  0  0
  -23.1870  -10.8770   20.0170 C   0  0  0  0  0  3  0  0  0  0  0  0
  -22.1310   -7.5530   21.1240 O   0  0  0  0  0  0  0  0  0  0  0  0
  -21.9750   -6.8210   22.2730 C   0  0  0  0  0  0  0  0  0  0  0  0
  -21.3820   -7.3680   23.4300 C   0  0  0  0  0  3  0  0  0  0  0  0
  -21.1780   -6.5600   24.5660 C   0  0  0  0  0  3  0  0  0  0  0  0
  -21.5600   -5.2050   24.5420 C   0  0  0  0  0  0  0  0  0  0  0  0
  -22.1460   -4.6560   23.3870 C   0  0  0  0  0  3  0  0  0  0  0  0
  -22.3490   -5.4620   22.2550 C   0  0  0  0  0  0  0  0  0  0  0  0
  -22.8960   -4.9270   21.1370 F   0  0  0  0  0  0  0  0  0  0  0  0
  -21.3560   -4.4240   25.6290 F   0  0  0  0  0  0  0  0  0  0  0  0
  -23.0460  -14.2280   20.9590 C   0  0  0  0  0  0  0  0  0  0  0  0
  -22.2930  -13.5150   21.7870 N   0  0  0  0  0  0  0  0  0  0  0  0
  -22.6100  -15.2370   20.4060 O   0  0  0  0  0  0  0  0  0  0  0  0
  -22.6640  -12.7000   22.2560 H   0  0  0  0  0  0  0  0  0  0  0  0
  -21.3340  -13.7810   21.9560 H   0  0  0  0  0  0  0  0  0  0  0  0
  -25.6700  -15.9770   20.3640 N   0  0  0  0  0  0  0  0  0  0  0  0
  -24.8600  -16.5870   20.4120 H   0  0  0  0  0  0  0  0  0  0  0  0
  -26.5160  -16.4530   20.0790 H   0  0  0  0  0  0  0  0  0  0  0  0
  -29.0990  -26.0340   19.5040 C   0  0  0  0  0  2  0  0  0  0  0  0
  -28.4550  -27.2000   18.7970 O   0  0  0  0  0  0  0  0  0  0  0  0
  -24.8550  -31.8480   23.1610 C   0  0  0  0  0  0  0  0  0  0  0  0
  -27.3070  -27.9170   19.1890 C   0  0  0  0  0  0  0  0  0  0  0  0
  -23.5470  -30.6820   21.4200 C   0  0  0  0  0  3  0  0  0  0  0  0
  -24.9060  -29.4410   19.6440 C   0  0  0  0  0  0  0  0  0  0  0  0
  -26.0540  -31.1280   21.0680 C   0  0  0  0  0  2  0  0  0  0  0  0
  -26.1140  -29.8670   20.2090 C   0  0  0  0  0  0  0  0  0  0  0  0
  -27.3140  -29.1250   19.9690 C   0  0  0  0  0  3  0  0  0  0  0  0
  -26.0690  -27.5480   18.6180 C   0  0  0  0  0  3  0  0  0  0  0  0
  -24.8880  -28.2850   18.8400 C   0  0  0  0  0  3  0  0  0  0  0  0
  -23.6580  -30.2550   19.9320 C   0  0  0  0  0  2  0  0  0  0  0  0
  -24.8430  -31.2360   21.9350 N   0  0  0  0  0  0  0  0  0  0  0  0
  -23.8190  -31.9760   23.8270 O   0  0  0  0  0  0  0  0  0  0  0  0
  -23.0140  -29.4950   22.2590 C   0  0  0  0  0  0  0  0  0  0  0  0
  -21.7030  -29.2190   22.1570 N   0  0  0  0  0  0  0  0  0  0  0  0
  -23.7780  -28.8280   22.9660 O   0  0  0  0  0  0  0  0  0  0  0  0
  -21.1320  -29.8130   21.5720 H   0  0  0  0  0  0  0  0  0  0  0  0
  -18.4770  -27.6290   22.5250 C   0  0  0  0  0  0  0  0  0  0  0  0
  -21.0000  -28.1140   22.8140 C   0  0  0  0  0  3  0  0  0  0  0  0
  -21.2440  -26.7830   22.0670 C   0  0  0  0  0  2  0  0  0  0  0  0
  -20.1650  -26.4720   21.0280 C   0  0  0  0  0  2  0  0  0  0  0  0
  -18.7840  -26.3980   21.6890 C   0  0  0  0  0  2  0  0  0  0  0  0
  -19.5200  -28.4480   23.0390 C   0  0  0  0  0  0  0  0  0  0  0  0
  -19.1770  -29.6060   23.7710 C   0  0  0  0  0  3  0  0  0  0  0  0
  -17.8310  -29.9430   24.0070 C   0  0  0  0  0  3  0  0  0  0  0  0
  -16.8060  -29.1170   23.5110 C   0  0  0  0  0  3  0  0  0  0  0  0
  -17.1290  -27.9670   22.7700 C   0  0  0  0  0  3  0  0  0  0  0  0
  -26.1660  -32.4290   23.7710 C   0  0  0  0  0  3  0  0  0  0  0  0
  -25.8530  -33.7410   24.3630 N   0  0  0  0  0  0  0  0  0  0  0  0
  -26.0770  -34.9190   23.7690 C   0  0  0  0  0  0  0  0  0  0  0  0
  -26.6360  -35.0220   22.6730 O   0  0  0  0  0  0  0  0  0  0  0  0
  -25.3670  -33.7400   25.2470 H   0  0  0  0  0  0  0  0  0  0  0  0
  -24.2570  -36.6440   23.9090 C   0  0  0  0  0  1  0  0  0  0  0  0
  -25.5980  -36.1840   24.5050 C   0  0  0  0  0  3  0  0  0  0  0  0
  -27.7790  -37.0360   25.2480 C   0  0  0  0  0  1  0  0  0  0  0  0
  -26.5730  -37.2980   24.4660 N   0  0  0  0  0  0  0  0  0  0  0  0
  -26.1510  -38.1530   24.8180 H   0  0  0  0  0  0  0  0  0  0  0  0
  -26.8290  -31.4810   24.8440 C   0  0  1  0  0  0  0  0  0  0  0  0
  -25.8610  -31.0200   25.9570 C   0  0  0  0  0  1  0  0  0  0  0  0
  -27.4060  -30.2200   24.1620 C   0  0  0  0  0  1  0  0  0  0  0  0
  -28.0130  -32.2110   25.5260 C   0  0  0  0  0  1  0  0  0  0  0  0
  -27.5360  -22.9460   21.6580 C   0  0  0  0  0  2  0  0  0  0  0  0
  -27.2230  -24.7190   23.4980 C   0  0  0  0  0  1  0  0  0  0  0  0
  -26.5990  -24.0410   22.2510 C   0  0  0  0  0  3  0  0  0  0  0  0
  -24.0590  -24.5080   22.3560 C   0  0  0  0  0  1  0  0  0  0  0  0
  -25.1880  -23.4820   22.5540 C   0  0  0  0  0  2  0  0  0  0  0  0
  1  2  2  0
  2 89  1  0
  3  4  1  0
  4  2  1  0
  4  5  1  1
  6  4  1  0
  6  7  1  0
  8 17  1  0
  8  7  2  0
  9 17  1  0
 10 15  1  0
 11 12  1  0
 11 10  1  0
 13 12  1  0
 13 22  1  0
 13 14  1  0
 15  9  1  0
 15 14  1  0
 16  9  2  0
 17 18  1  0
 19 20  2  0
 20 39  1  0
 21 20  1  0
 21 24  1  0
 22 19  1  0
 22 23  1  0
 23 21  2  0
 24 25  1  0
 25 26  2  0
 27 30  1  0
 27 26  1  0
 28 27  2  0
 29 28  1  0
 29 24  2  0
 30 31  1  0
 31 32  1  0
 32 33  2  0
 34 33  1  0
 34 38  1  0
 35 34  2  0
 36 31  2  0
 36 35  1  0
 37 36  1  0
 39 40  1  0
 40 43  1  0
 40 42  1  0
 41 39  2  0
 44 45  1  0
 44 19  1  0
 46 44  1  0
 47  1  1  0
 48 50  1  0
 48 47  1  0
 49 60  2  0
 50 55  1  0
 51 59  1  0
 51 61  1  0
 52 58  1  0
 52 54  1  0
 53 59  1  0
 54 53  1  0
 55 54  2  0
 56 57  1  0
 56 50  2  0
 57 52  2  0
 58 51  1  0
 59 49  1  0
 61 63  2  0
 62 61  1  0
 64 62  1  0
 65 74  2  0
 65 70  1  0
 66 62  1  0
 66 70  1  0
 67 66  1  0
 68 69  1  0
 68 67  1  0
 69 65  1  0
 70 71  2  0
 71 72  1  0
 73 72  2  0
 74 73  1  0
 75 49  1  0
 75 76  1  0
 75 85  1  0
 76 79  1  0
 77 76  1  0
 77 81  1  0
 78 77  2  0
 81 80  1  0
 83 81  1  0
 83 84  1  0
 83 82  1  0
 85 88  1  1
 85 86  1  0
 87 85  1  0
 89 91  1  0
 91 93  1  0
 91 90  1  0
 92 93  1  0
M  ISO  4   9 100  17 100  47 101  48 101
M  END
>  <TORSDO>  (93) 
F 24

>  <SCORE>  (93) 
-8.799

>  <name>  (93) 
94

>  <ligand_id>  (93) 
94

>  <original_smiles>  (93) 
[H]C(=C(C([H])([H])C([H])(C([H])([H])[H])C([H])([H])C([H])([H])[H])[N+]([H])(C([H])([H])[H])C([H])([H])C([H])([H])C([H])([H])N([H])C(=O)N1C([H])([H])C([H])([H])C([H])([H])C([H])(n2nc(-c3c([H])c([H])c(Oc4c([H])c([H])c(F)c([H])c4F)c([H])c3[H])c(C(=O)N([H])[H])c2N([H])[H])C1([H])[H])C([H])([H])Oc1c([H])c([H])c2c(c1[H])C([H])([H])N(C(=O)C([H])(N([H])C(=O)C([H])(N([H])C([H])([H])[H])C([H])([H])[H])C(C([H])([H])[H])(C([H])([H])[H])C([H])([H])[H])C([H])(C(=O)N([H])C1([H])c3c([H])c([H])c([H])c([H])c3C([H])([H])C([H])([H])C1([H])[H])C2([H])[H]

>  <smiles>  (93) 
[H]C(=C(C([H])([H])C([H])(C([H])([H])[H])C([H])([H])C([H])([H])[H])[N+]([H])(C([H])([H])[H])C([H])([H])C([H])([H])C([H])([H])N([H])C(=O)N1C([H])([H])C([H])([H])C([H])([H])C([H])(n2nc(-c3c([H])c([H])c(Oc4c([H])c([H])c(F)c([H])c4F)c([H])c3[H])c(C(=O)N([H])[H])c2N([H])[H])C1([H])[H])C([H])([H])Oc1c([H])c([H])c2c(c1[H])C([H])([H])N(C(=O)C([H])(N([H])C(=O)C([H])(N([H])C([H])([H])[H])C([H])([H])[H])C(C([H])([H])[H])(C([H])([H])[H])C([H])([H])[H])C([H])(C(=O)N([H])C1([H])c3c([H])c([H])c([H])c([H])c3C([H])([H])C([H])([H])C1([H])[H])C2([H])[H]

$$$$
95:0:0
     RDKit          3D

 90 98  0  0  1  0  0  0  0  0999 V2000
  -28.8850  -20.7240   22.7270 C   0  0  0  0  0  3  0  0  0  0  0  0
  -29.6050  -19.7150   22.0570 C   0  0  0  0  0  3  0  0  0  0  0  0
  -28.8390  -21.8180   21.9190 C   0  0  0  0  0  0  0  0  0  0  0  0
  -30.0090  -20.1790   20.8360 C   0  0  0  0  0  0  0  0  0  0  0  0
  -28.0430  -23.0600   22.1880 C   0  0  0  0  0  1  0  0  0  0  0  0
  -29.6170  -21.5880   20.7710 N   0  0  0  0  0  0  0  0  0  0  0  0
  -30.6720  -19.2030   19.8100 C   0  0  0  0  0  2  0  0  0  0  0  0
  -31.4520  -17.8710   20.3440 C   0  0  0  0  0  2  0  0  0  0  0  0
  -31.5590  -15.2690   20.1220 C   0  0  0  0  0  0  0  0  0  0  0  0
  -31.2540  -12.9830   19.1600 C   0  0  0  0  0  2  0  0  0  0  0  0
  -30.3250  -13.0550   17.9330 C   0  0  0  0  0  2  0  0  0  0  0  0
  -28.8470  -12.9570   18.3610 C   0  0  0  0  0  2  0  0  0  0  0  0
  -28.5050  -13.8890   19.5550 C   0  0  0  0  0  3  0  0  0  0  0  0
  -29.5590  -13.7990   20.6790 C   0  0  0  0  0  2  0  0  0  0  0  0
  -30.8650  -14.0820   20.0740 N   0  0  0  0  0  0  0  0  0  0  0  0
  -32.7530  -15.2910   19.8120 O   0  0  0  0  0  0  0  0  0  0  0  0
  -30.8690  -16.4550   20.3150 N   0  0  0  0  0  0  0  0  0  0  0  0
  -29.8800  -16.3700   20.4980 H   0  0  0  0  0  0  0  0  0  0  0  0
  -26.1590  -14.5880   20.3220 C   0  0  0  0  0  0  0  0  0  0  0  0
  -25.0560  -13.8620   20.6830 C   0  0  0  0  0  0  0  0  0  0  0  0
  -25.4460  -12.4890   20.6140 C   0  0  0  0  0  0  0  0  0  0  0  0
  -27.1520  -13.6610   20.0530 N   0  0  0  0  0  0  0  0  0  0  0  0
  -26.7310  -12.3920   20.2950 N   0  0  0  0  0  0  0  0  0  0  0  0
  -24.6530  -11.2640   20.7780 C   0  0  0  0  0  0  0  0  0  0  0  0
  -25.0060  -10.2770   21.7260 C   0  0  0  0  0  3  0  0  0  0  0  0
  -24.2150   -9.1170   21.8790 C   0  0  0  0  0  3  0  0  0  0  0  0
  -23.0590   -8.9360   21.0840 C   0  0  0  0  0  0  0  0  0  0  0  0
  -22.7260   -9.9100   20.1260 C   0  0  0  0  0  3  0  0  0  0  0  0
  -23.5160  -11.0610   19.9700 C   0  0  0  0  0  3  0  0  0  0  0  0
  -22.2460   -7.8300   21.1450 O   0  0  0  0  0  0  0  0  0  0  0  0
  -22.0490   -7.1460   22.3170 C   0  0  0  0  0  0  0  0  0  0  0  0
  -21.5320   -7.7750   23.4700 C   0  0  0  0  0  3  0  0  0  0  0  0
  -21.2790   -7.0190   24.6320 C   0  0  0  0  0  3  0  0  0  0  0  0
  -21.5350   -5.6340   24.6410 C   0  0  0  0  0  0  0  0  0  0  0  0
  -22.0450   -5.0050   23.4920 C   0  0  0  0  0  3  0  0  0  0  0  0
  -22.2980   -5.7590   22.3320 C   0  0  0  0  0  0  0  0  0  0  0  0
  -22.7690   -5.1430   21.2200 F   0  0  0  0  0  0  0  0  0  0  0  0
  -21.2850   -4.9050   25.7540 F   0  0  0  0  0  0  0  0  0  0  0  0
  -23.6880  -14.4070   20.9760 C   0  0  0  0  0  0  0  0  0  0  0  0
  -22.9340  -13.7380   21.8410 N   0  0  0  0  0  0  0  0  0  0  0  0
  -23.2980  -15.4590   20.4710 O   0  0  0  0  0  0  0  0  0  0  0  0
  -23.2640  -12.8860   22.2720 H   0  0  0  0  0  0  0  0  0  0  0  0
  -22.0130  -14.0810   22.0760 H   0  0  0  0  0  0  0  0  0  0  0  0
  -26.3910  -15.9520   20.1760 N   0  0  0  0  0  0  0  0  0  0  0  0
  -25.6580  -16.6390   20.3130 H   0  0  0  0  0  0  0  0  0  0  0  0
  -27.2510  -16.3590   19.8320 H   0  0  0  0  0  0  0  0  0  0  0  0
  -29.7720  -22.6700   19.7020 C   0  0  0  0  0  2  0  0  0  0  0  0
  -29.9820  -24.2470   20.1000 C   0  0  0  0  0  3  0  0  0  0  0  0
  -28.9190  -25.3790   19.6330 C   0  0  0  0  0  3  0  0  0  0  0  0
  -29.0400  -26.8450   19.9720 O   0  0  0  0  0  0  0  0  0  0  0  0
  -24.7790  -31.7300   23.2550 C   0  0  0  0  0  0  0  0  0  0  0  0
  -27.8750  -27.6540   19.9300 C   0  0  0  0  0  0  0  0  0  0  0  0
  -23.7570  -30.3740   21.4650 C   0  0  0  0  0  3  0  0  0  0  0  0
  -25.3830  -29.0890   19.9620 C   0  0  0  0  0  0  0  0  0  0  0  0
  -26.2670  -30.9190   21.4040 C   0  0  0  0  0  2  0  0  0  0  0  0
  -26.4890  -29.6110   20.6450 C   0  0  0  0  0  0  0  0  0  0  0  0
  -27.7380  -28.9070   20.6200 C   0  0  0  0  0  3  0  0  0  0  0  0
  -26.7420  -27.2100   19.2100 C   0  0  0  0  0  3  0  0  0  0  0  0
  -25.5150  -27.8990   19.2340 C   0  0  0  0  0  3  0  0  0  0  0  0
  -24.0720  -29.8470   20.0400 C   0  0  0  0  0  2  0  0  0  0  0  0
  -24.9500  -31.0220   22.0990 N   0  0  0  0  0  0  0  0  0  0  0  0
  -23.6590  -31.8640   23.7700 O   0  0  0  0  0  0  0  0  0  0  0  0
  -23.1630  -29.2230   22.3150 C   0  0  0  0  0  0  0  0  0  0  0  0
  -21.8640  -28.9380   22.1260 N   0  0  0  0  0  0  0  0  0  0  0  0
  -23.8730  -28.5960   23.1050 O   0  0  0  0  0  0  0  0  0  0  0  0
  -21.3450  -29.5020   21.4670 H   0  0  0  0  0  0  0  0  0  0  0  0
  -18.6030  -27.3920   22.3990 C   0  0  0  0  0  0  0  0  0  0  0  0
  -21.1150  -27.8690   22.7900 C   0  0  0  0  0  3  0  0  0  0  0  0
  -21.3740  -26.5040   22.1110 C   0  0  0  0  0  2  0  0  0  0  0  0
  -20.3420  -26.1620   21.0320 C   0  0  0  0  0  2  0  0  0  0  0  0
  -18.9320  -26.1240   21.6280 C   0  0  0  0  0  2  0  0  0  0  0  0
  -19.6280  -28.2180   22.9320 C   0  0  0  0  0  0  0  0  0  0  0  0
  -19.2680  -29.4020   23.6110 C   0  0  0  0  0  3  0  0  0  0  0  0
  -17.9160  -29.7620   23.7640 C   0  0  0  0  0  3  0  0  0  0  0  0
  -16.9050  -28.9320   23.2480 C   0  0  0  0  0  3  0  0  0  0  0  0
  -17.2500  -27.7480   22.5720 C   0  0  0  0  0  3  0  0  0  0  0  0
  -25.9780  -32.4230   23.9720 C   0  0  0  0  0  3  0  0  0  0  0  0
  -25.5630  -33.7910   24.3140 N   0  0  0  0  0  0  0  0  0  0  0  0
  -25.8640  -34.8810   23.5950 C   0  0  0  0  0  0  0  0  0  0  0  0
  -26.5880  -34.8440   22.5980 O   0  0  0  0  0  0  0  0  0  0  0  0
  -24.9220  -33.8890   25.0870 H   0  0  0  0  0  0  0  0  0  0  0  0
  -24.0370  -36.5660   23.1990 C   0  0  0  0  0  1  0  0  0  0  0  0
  -25.2680  -36.2260   24.0560 C   0  0  0  0  0  3  0  0  0  0  0  0
  -27.3010  -37.2330   24.9970 C   0  0  0  0  0  1  0  0  0  0  0  0
  -26.2330  -37.3460   24.0060 N   0  0  0  0  0  0  0  0  0  0  0  0
  -25.7620  -38.2350   24.1470 H   0  0  0  0  0  0  0  0  0  0  0  0
  -26.4600  -31.6510   25.2620 C   0  0  1  0  0  0  0  0  0  0  0  0
  -25.3180  -31.3240   26.2540 C   0  0  0  0  0  1  0  0  0  0  0  0
  -27.1470  -30.3200   24.8820 C   0  0  0  0  0  1  0  0  0  0  0  0
  -27.5180  -32.4930   26.0120 C   0  0  0  0  0  1  0  0  0  0  0  0
  2  1  1  0
  3  5  1  0
  3  1  2  0
  4  2  2  0
  6  4  1  0
  6  3  1  0
  7  8  1  0
  7  4  1  0
  9 17  1  0
 10 15  1  0
 11 12  1  0
 11 10  1  0
 13 12  1  0
 13 22  1  0
 13 14  1  0
 15  9  1  0
 15 14  1  0
 16  9  2  0
 17  8  1  0
 17 18  1  0
 19 20  2  0
 20 39  1  0
 21 20  1  0
 21 24  1  0
 22 23  1  0
 22 19  1  0
 23 21  2  0
 24 25  1  0
 25 26  2  0
 27 30  1  0
 27 26  1  0
 28 27  2  0
 29 28  1  0
 29 24  2  0
 30 31  1  0
 31 36  2  0
 31 32  1  0
 32 33  2  0
 33 34  1  0
 34 38  1  0
 35 34  2  0
 36 35  1  0
 37 36  1  0
 39 40  1  0
 40 43  1  0
 40 42  1  0
 41 39  2  0
 44 45  1  0
 44 19  1  0
 46 44  1  0
 47 48  1  0
 47  6  1  0
 49 50  1  0
 49 48  2  0
 51 62  2  0
 52 50  1  0
 52 57  1  0
 53 61  1  0
 53 63  1  0
 54 60  1  0
 54 56  1  0
 55 61  1  0
 56 55  1  0
 57 56  2  0
 58 59  1  0
 58 52  2  0
 59 54  2  0
 60 53  1  0
 61 51  1  0
 63 65  2  0
 64 63  1  0
 66 64  1  0
 67 76  2  0
 67 72  1  0
 68 64  1  0
 68 72  1  0
 69 68  1  0
 70 71  1  0
 70 69  1  0
 71 67  1  0
 72 73  2  0
 73 74  1  0
 75 74  2  0
 76 75  1  0
 77 51  1  0
 77 78  1  0
 77 87  1  0
 78 81  1  0
 79 83  1  0
 79 78  1  0
 80 79  2  0
 83 82  1  0
 85 83  1  0
 85 86  1  0
 85 84  1  0
 87 90  1  1
 87 88  1  0
 89 87  1  0
M  ISO  4   9 100  17 100  49 101  50 101
M  END
>  <TORSDO>  (94) 
F 21

>  <SCORE>  (94) 
-8.966

>  <name>  (94) 
95

>  <ligand_id>  (94) 
95

>  <original_smiles>  (94) 
[H]c1c([H])c([H])c2c(c1[H])C([H])([H])C([H])([H])C([H])([H])C2([H])N([H])C(=O)C1([H])N(C(=O)C([H])(N([H])C(=O)C([H])(N([H])C([H])([H])[H])C([H])([H])[H])C(C([H])([H])[H])(C([H])([H])[H])C([H])([H])[H])C([H])([H])c2c([H])c(OC([H])([H])C([H])([H])C([H])([H])n3c(C([H])([H])[H])c([H])c([H])c3C([H])([H])C([H])([H])N([H])C(=O)N3C([H])([H])C([H])([H])C([H])([H])C([H])(n4nc(-c5c([H])c([H])c(Oc6c([H])c([H])c(F)c([H])c6F)c([H])c5[H])c(C(=O)N([H])[H])c4N([H])[H])C3([H])[H])c([H])c([H])c2C1([H])[H]

>  <smiles>  (94) 
[H]c1c([H])c([H])c2c(c1[H])C([H])([H])C([H])([H])C([H])([H])C2([H])N([H])C(=O)C1([H])N(C(=O)C([H])(N([H])C(=O)C([H])(N([H])C([H])([H])[H])C([H])([H])[H])C(C([H])([H])[H])(C([H])([H])[H])C([H])([H])[H])C([H])([H])c2c([H])c(OC([H])([H])C([H])([H])C([H])([H])n3c(C([H])([H])[H])c([H])c([H])c3C([H])([H])C([H])([H])N([H])C(=O)N3C([H])([H])C([H])([H])C([H])([H])C([H])(n4nc(-c5c([H])c([H])c(Oc6c([H])c([H])c(F)c([H])c6F)c([H])c5[H])c(C(=O)N([H])[H])c4N([H])[H])C3([H])[H])c([H])c([H])c2C1([H])[H]

$$$$
