0:0:0
     RDKit          3D

 91 99  0  0  1  0  0  0  0  0999 V2000
  -30.8340  -20.5980   20.3820 C   0  0  0  0  0  3  0  0  0  0  0  0
  -29.0930  -18.9440   20.3820 C   0  0  0  0  0  3  0  0  0  0  0  0
  -29.4450  -20.3950   20.3630 C   0  0  0  0  0  0  0  0  0  0  0  0
  -31.7310  -19.5050   20.4090 C   0  0  0  0  0  0  0  0  0  0  0  0
  -30.0630  -17.8100   20.4100 C   0  0  0  0  0  0  0  0  0  0  0  0
  -31.3580  -18.1980   20.4250 N   0  0  0  0  0  0  0  0  0  0  0  0
  -30.5300  -15.1060   20.3120 C   0  0  0  0  0  0  0  0  0  0  0  0
  -30.4110  -12.7460   19.3730 C   0  0  0  0  0  2  0  0  0  0  0  0
  -29.4690  -12.6850   18.1490 C   0  0  0  0  0  2  0  0  0  0  0  0
  -28.0130  -12.4560   18.5950 C   0  0  0  0  0  2  0  0  0  0  0  0
  -27.6060  -13.3780   19.7760 C   0  0  0  0  0  3  0  0  0  0  0  0
  -28.6730  -13.4150   20.8900 C   0  0  0  0  0  2  0  0  0  0  0  0
  -29.9300  -13.8440   20.2630 N   0  0  0  0  0  0  0  0  0  0  0  0
  -31.7370  -15.1320   20.0410 O   0  0  0  0  0  0  0  0  0  0  0  0
  -29.7480  -16.3020   20.4390 N   0  0  0  0  0  0  0  0  0  0  0  0
  -28.7680  -16.1040   20.5590 H   0  0  0  0  0  0  0  0  0  0  0  0
  -25.2310  -13.9250   20.5510 C   0  0  0  0  0  0  0  0  0  0  0  0
  -24.1780  -13.1360   20.9230 C   0  0  0  0  0  0  0  0  0  0  0  0
  -24.6550  -11.7900   20.8740 C   0  0  0  0  0  0  0  0  0  0  0  0
  -26.2790  -13.0590   20.2880 N   0  0  0  0  0  0  0  0  0  0  0  0
  -25.9430  -11.7690   20.5500 N   0  0  0  0  0  0  0  0  0  0  0  0
  -23.9410  -10.5190   21.0570 C   0  0  0  0  0  0  0  0  0  0  0  0
  -24.3820   -9.5500   21.9830 C   0  0  0  0  0  3  0  0  0  0  0  0
  -23.6660   -8.3460   22.1560 C   0  0  0  0  0  3  0  0  0  0  0  0
  -22.4940   -8.1020   21.4010 C   0  0  0  0  0  0  0  0  0  0  0  0
  -22.0720   -9.0600   20.4620 C   0  0  0  0  0  3  0  0  0  0  0  0
  -22.7890  -10.2560   20.2880 C   0  0  0  0  0  3  0  0  0  0  0  0
  -21.7480   -6.9510   21.4840 O   0  0  0  0  0  0  0  0  0  0  0  0
  -21.6920   -6.2120   22.6380 C   0  0  0  0  0  0  0  0  0  0  0  0
  -21.2230   -6.7590   23.8520 C   0  0  0  0  0  3  0  0  0  0  0  0
  -21.1170   -5.9440   24.9960 C   0  0  0  0  0  3  0  0  0  0  0  0
  -21.4680   -4.5820   24.9280 C   0  0  0  0  0  0  0  0  0  0  0  0
  -21.9280   -4.0350   23.7180 C   0  0  0  0  0  3  0  0  0  0  0  0
  -22.0370   -4.8470   22.5760 C   0  0  0  0  0  0  0  0  0  0  0  0
  -22.4610   -4.3080   21.4070 F   0  0  0  0  0  0  0  0  0  0  0  0
  -21.3570   -3.7980   26.0250 F   0  0  0  0  0  0  0  0  0  0  0  0
  -22.7800  -13.5980   21.2090 C   0  0  0  0  0  0  0  0  0  0  0  0
  -22.0640  -12.8880   22.0740 N   0  0  0  0  0  0  0  0  0  0  0  0
  -22.3300  -14.6260   20.7030 O   0  0  0  0  0  0  0  0  0  0  0  0
  -22.4410  -12.0560   22.5050 H   0  0  0  0  0  0  0  0  0  0  0  0
  -21.1250  -13.1780   22.3080 H   0  0  0  0  0  0  0  0  0  0  0  0
  -25.3780  -15.2990   20.3850 N   0  0  0  0  0  0  0  0  0  0  0  0
  -24.6000  -15.9380   20.5110 H   0  0  0  0  0  0  0  0  0  0  0  0
  -26.2000  -15.7500   20.0060 H   0  0  0  0  0  0  0  0  0  0  0  0
  -33.9440  -19.0610   19.2530 C   0  0  0  0  0  1  0  0  0  0  0  0
  -33.8610  -19.4170   21.7800 C   0  0  0  0  0  1  0  0  0  0  0  0
  -33.2340  -19.7640   20.4210 C   0  0  0  0  0  3  0  0  0  0  0  0
  -28.4620  -21.7280   20.2920 C   0  0  0  0  0  2  0  0  0  0  0  0
  -28.9160  -23.3640   20.3950 C   0  0  0  0  0  3  0  0  0  0  0  0
  -27.8940  -24.7030   20.1730 C   0  0  0  0  0  3  0  0  0  0  0  0
  -28.1880  -26.2380   20.3150 O   0  0  0  0  0  0  0  0  0  0  0  0
  -24.5820  -31.9700   23.2750 C   0  0  0  0  0  0  0  0  0  0  0  0
  -27.1410  -27.2360   20.2470 C   0  0  0  0  0  0  0  0  0  0  0  0
  -23.3780  -30.5790   21.6360 C   0  0  0  0  0  3  0  0  0  0  0  0
  -24.8210  -28.9990   20.2110 C   0  0  0  0  0  0  0  0  0  0  0  0
  -25.9340  -30.8330   21.4720 C   0  0  0  0  0  2  0  0  0  0  0  0
  -26.0030  -29.4400   20.8200 C   0  0  0  0  0  0  0  0  0  0  0  0
  -27.1640  -28.5750   20.8170 C   0  0  0  0  0  3  0  0  0  0  0  0
  -25.9300  -26.9030   19.5990 C   0  0  0  0  0  3  0  0  0  0  0  0
  -24.7990  -27.7450   19.5840 C   0  0  0  0  0  3  0  0  0  0  0  0
  -23.5970  -29.9020   20.2570 C   0  0  0  0  0  2  0  0  0  0  0  0
  -24.6520  -31.1500   22.1830 N   0  0  0  0  0  0  0  0  0  0  0  0
  -23.4950  -32.2580   23.8030 O   0  0  0  0  0  0  0  0  0  0  0  0
  -22.6950  -29.5740   22.5970 C   0  0  0  0  0  0  0  0  0  0  0  0
  -21.3710  -29.3870   22.4520 N   0  0  0  0  0  0  0  0  0  0  0  0
  -23.3600  -28.9640   23.4390 O   0  0  0  0  0  0  0  0  0  0  0  0
  -20.8900  -29.9310   21.7480 H   0  0  0  0  0  0  0  0  0  0  0  0
  -17.9990  -28.1420   22.9020 C   0  0  0  0  0  0  0  0  0  0  0  0
  -20.5470  -28.4500   23.2200 C   0  0  0  0  0  3  0  0  0  0  0  0
  -20.6830  -27.0100   22.6710 C   0  0  0  0  0  2  0  0  0  0  0  0
  -19.6070  -26.6530   21.6390 C   0  0  0  0  0  2  0  0  0  0  0  0
  -18.2110  -26.7860   22.2510 C   0  0  0  0  0  2  0  0  0  0  0  0
  -19.0950  -28.9300   23.3430 C   0  0  0  0  0  0  0  0  0  0  0  0
  -18.8420  -30.1960   23.9140 C   0  0  0  0  0  3  0  0  0  0  0  0
  -17.5260  -30.6760   24.0470 C   0  0  0  0  0  3  0  0  0  0  0  0
  -16.4440  -29.8870   23.6220 C   0  0  0  0  0  3  0  0  0  0  0  0
  -16.6800  -28.6220   23.0550 C   0  0  0  0  0  3  0  0  0  0  0  0
  -25.8600  -32.6020   23.9030 C   0  0  0  0  0  3  0  0  0  0  0  0
  -26.3590  -31.8410   25.1930 C   0  0  1  0  0  0  0  0  0  0  0  0
  -25.2540  -31.6170   26.2520 C   0  0  0  0  0  1  0  0  0  0  0  0
  -26.9400  -30.4560   24.8240 C   0  0  0  0  0  1  0  0  0  0  0  0
  -27.5060  -32.6360   25.8590 C   0  0  0  0  0  1  0  0  0  0  0  0
  -25.5550  -34.0060   24.2250 N   0  0  0  0  0  0  0  0  0  0  0  0
  -25.8810  -35.0550   23.4580 C   0  0  0  0  0  0  0  0  0  0  0  0
  -26.5370  -34.9430   22.4180 O   0  0  0  0  0  0  0  0  0  0  0  0
  -24.9700  -34.1660   25.0320 H   0  0  0  0  0  0  0  0  0  0  0  0
  -24.1480  -36.8510   23.1270 C   0  0  0  0  0  1  0  0  0  0  0  0
  -25.4050  -36.4490   23.9140 C   0  0  0  0  0  3  0  0  0  0  0  0
  -27.5550  -37.3440   24.6950 C   0  0  0  0  0  1  0  0  0  0  0  0
  -26.4370  -37.5000   23.7700 N   0  0  0  0  0  0  0  0  0  0  0  0
  -26.0340  -38.4230   23.9110 H   0  0  0  0  0  0  0  0  0  0  0  0
  1  4  1  0
  2  5  2  0
  3  1  2  0
  3  2  1  0
  4 47  1  0
  4  6  2  0
  5  6  1  0
  5 15  1  0
  7 15  1  0
  8 13  1  0
  9 10  1  0
  9  8  1  0
 11 10  1  0
 11 20  1  0
 11 12  1  0
 13  7  1  0
 13 12  1  0
 14  7  2  0
 15 16  1  0
 17 18  2  0
 18 37  1  0
 19 18  1  0
 19 22  1  0
 20 21  1  0
 20 17  1  0
 21 19  2  0
 22 23  1  0
 23 24  2  0
 25 28  1  0
 25 24  1  0
 26 25  2  0
 27 26  1  0
 27 22  2  0
 28 29  1  0
 29 30  1  0
 30 31  2  0
 32 31  1  0
 32 36  1  0
 33 32  2  0
 34 29  2  0
 34 33  1  0
 35 34  1  0
 37 38  1  0
 38 41  1  0
 38 40  1  0
 39 37  2  0
 42 43  1  0
 42 17  1  0
 44 42  1  0
 45 47  1  0
 47 46  1  0
 48  3  1  0
 48 49  1  0
 50 51  1  0
 50 49  2  0
 52 63  2  0
 53 51  1  0
 53 58  1  0
 54 62  1  0
 54 64  1  0
 55 61  1  0
 55 57  1  0
 56 62  1  0
 57 56  1  0
 58 57  2  0
 59 53  2  0
 60 59  1  0
 60 55  2  0
 61 54  1  0
 62 52  1  0
 64 66  2  0
 65 64  1  0
 67 65  1  0
 68 77  2  0
 68 73  1  0
 69 65  1  0
 69 73  1  0
 70 69  1  0
 71 72  1  0
 71 70  1  0
 72 68  1  0
 73 74  2  0
 74 75  1  0
 76 75  2  0
 77 76  1  0
 78 52  1  0
 78 83  1  0
 78 79  1  0
 79 82  1  1
 79 80  1  0
 81 79  1  0
 83 86  1  0
 84 88  1  0
 84 83  1  0
 85 84  2  0
 88 87  1  0
 90 91  1  0
 90 88  1  0
 90 89  1  0
M  ISO  4   7 100  15 100  50 101  51 101
M  END
>  <TORSDO>  (1) 
F 20

>  <SCORE>  (1) 
-15.160

>  <name>  (1) 
0

>  <ligand_id>  (1) 
0

>  <original_smiles>  (1) 
[H]c1c([H])c([H])c2c(c1[H])C([H])([H])C([H])([H])C([H])([H])C2([H])N([H])C(=O)C1([H])N(C(=O)C([H])(N([H])C(=O)C([H])(N([H])C([H])([H])[H])C([H])([H])[H])C(C([H])([H])[H])(C([H])([H])[H])C([H])([H])[H])C([H])([H])c2c([H])c(OC([H])([H])C([H])([H])C([H])([H])c3c([H])c(N([H])C(=O)N4C([H])([H])C([H])([H])C([H])([H])C([H])(n5nc(-c6c([H])c([H])c(Oc7c([H])c([H])c(F)c([H])c7F)c([H])c6[H])c(C(=O)N([H])[H])c5N([H])[H])C4([H])[H])nc(C([H])(C([H])([H])[H])C([H])([H])[H])c3[H])c([H])c([H])c2C1([H])[H]

>  <smiles>  (1) 
[H]c1c([H])c([H])c2c(c1[H])C([H])([H])C([H])([H])C([H])([H])C2([H])N([H])C(=O)C1([H])N(C(=O)C([H])(N([H])C(=O)C([H])(N([H])C([H])([H])[H])C([H])([H])[H])C(C([H])([H])[H])(C([H])([H])[H])C([H])([H])[H])C([H])([H])c2c([H])c(OC([H])([H])C([H])([H])C([H])([H])c3c([H])c(N([H])C(=O)N4C([H])([H])C([H])([H])C([H])([H])C([H])(n5nc(-c6c([H])c([H])c(Oc7c([H])c([H])c(F)c([H])c7F)c([H])c6[H])c(C(=O)N([H])[H])c5N([H])[H])C4([H])[H])nc(C([H])(C([H])([H])[H])C([H])([H])[H])c3[H])c([H])c([H])c2C1([H])[H]

$$$$
1:0:0
     RDKit          3D

 90 88  0  0  1  0  0  0  0  0999 V2000
  -27.4610  -14.7510   20.8440 C   0  0  0  0  0 15  0  0  0  0  0  0
  -24.4210  -14.2110   18.8210 C   0  0  0  0  0 15  0  0  0  0  0  0
  -26.3100  -15.4080   19.1830 C   0  0  0  0  0 15  0  0  0  0  0  0
  -26.7240  -13.1930   22.0770 C   0  0  0  0  0  1  0  0  0  0  0  0
  -23.4920  -12.6740   20.0680 N   0  0  0  0  0  1  0  0  0  0  0  0
  -24.7760  -12.1670   22.0530 N   0  0  0  0  0  1  0  0  0  0  0  0
  -26.6970  -17.3260   18.9320 C   0  0  0  0  0 15  0  0  0  0  0  0
  -26.8530  -19.1970   19.8040 C   0  0  0  0  0 15  0  0  0  0  0  0
  -27.5120  -21.1590   19.6370 C   0  0  0  0  0 15  0  0  0  0  0  0
  -27.1890  -23.1760   20.0060 C   0  0  0  0  0 15  0  0  0  0  0  0
  -27.8540  -24.9230   20.1450 O   0  0  0  0  0  1  0  0  0  0  0  0
  -24.8500  -31.7070   23.0330 C   0  0  0  0  0  0  0  0  0  0  0  0
  -27.1970  -26.3680   20.1380 C   0  0  0  0  0  0  0  0  0  0  0  0
  -23.7230  -30.2790   21.4050 C   0  0  0  0  0  3  0  0  0  0  0  0
  -25.1700  -28.6290   20.0160 C   0  0  0  0  0  0  0  0  0  0  0  0
  -26.3110  -30.3430   21.3780 C   0  0  0  0  0  2  0  0  0  0  0  0
  -26.3520  -28.8900   20.7130 C   0  0  0  0  0  0  0  0  0  0  0  0
  -27.3750  -27.7760   20.7510 C   0  0  0  0  0  3  0  0  0  0  0  0
  -26.0480  -26.4060   19.3490 C   0  0  0  0  0  3  0  0  0  0  0  0
  -25.0770  -27.4310   19.3040 C   0  0  0  0  0  3  0  0  0  0  0  0
  -23.9990  -29.6170   20.0320 C   0  0  0  0  0  2  0  0  0  0  0  0
  -24.9900  -30.8190   21.9870 N   0  0  0  0  0  0  0  0  0  0  0  0
  -23.7350  -32.0060   23.4980 O   0  0  0  0  0  0  0  0  0  0  0  0
  -23.0050  -29.2840   22.3600 C   0  0  0  0  0  0  0  0  0  0  0  0
  -21.6690  -29.1580   22.2570 N   0  0  0  0  0  0  0  0  0  0  0  0
  -23.6620  -28.6350   23.1770 O   0  0  0  0  0  0  0  0  0  0  0  0
  -21.1840  -29.7360   21.5850 H   0  0  0  0  0  0  0  0  0  0  0  0
  -18.2590  -28.0770   22.8960 C   0  0  0  0  0  0  0  0  0  0  0  0
  -20.8380  -28.2270   23.0350 C   0  0  0  0  0  3  0  0  0  0  0  0
  -20.8470  -26.8140   22.4040 C   0  0  0  0  0  2  0  0  0  0  0  0
  -19.6850  -26.5810   21.4350 C   0  0  0  0  0  2  0  0  0  0  0  0
  -18.3430  -26.7540   22.1540 C   0  0  0  0  0  2  0  0  0  0  0  0
  -19.4290  -28.7760   23.2960 C   0  0  0  0  0  0  0  0  0  0  0  0
  -19.2910  -30.0150   23.9590 C   0  0  0  0  0  3  0  0  0  0  0  0
  -18.0180  -30.5560   24.2200 C   0  0  0  0  0  3  0  0  0  0  0  0
  -16.8630  -29.8540   23.8320 C   0  0  0  0  0  3  0  0  0  0  0  0
  -16.9850  -28.6150   23.1760 C   0  0  0  0  0  3  0  0  0  0  0  0
  -26.0760  -32.4060   23.6920 C   0  0  0  0  0  3  0  0  0  0  0  0
  -25.6780  -33.7840   24.0570 N   0  0  0  0  0  0  0  0  0  0  0  0
  -25.9470  -34.8870   23.3470 C   0  0  0  0  0  0  0  0  0  0  0  0
  -26.6150  -34.8590   22.3110 O   0  0  0  0  0  0  0  0  0  0  0  0
  -25.0770  -33.8740   24.8620 H   0  0  0  0  0  0  0  0  0  0  0  0
  -24.1200  -36.6110   23.0900 C   0  0  0  0  0  1  0  0  0  0  0  0
  -25.3930  -36.2330   23.8650 C   0  0  0  0  0  3  0  0  0  0  0  0
  -27.4830  -37.2130   24.7130 C   0  0  0  0  0  1  0  0  0  0  0  0
  -26.3630  -37.3480   23.7860 N   0  0  0  0  0  0  0  0  0  0  0  0
  -25.9030  -38.2350   23.9730 H   0  0  0  0  0  0  0  0  0  0  0  0
  -26.5940  -31.6520   24.9800 C   0  0  1  0  0  0  0  0  0  0  0  0
  -25.4870  -31.3510   26.0180 C   0  0  0  0  0  1  0  0  0  0  0  0
  -27.2630  -30.3090   24.6130 C   0  0  0  0  0  1  0  0  0  0  0  0
  -27.6810  -32.5020   25.6820 C   0  0  0  0  0  1  0  0  0  0  0  0
  -28.2410  -12.9560   22.6850 C   0  0  0  0  0  2  0  0  0  0  0  0
  -30.4570  -13.0940   20.7350 C   0  0  0  0  0  0  0  0  0  0  0  0
  -30.7150  -11.2820   18.9820 C   0  0  0  0  0  2  0  0  0  0  0  0
  -29.7900  -11.3880   17.7260 C   0  0  0  0  0  2  0  0  0  0  0  0
  -28.2540  -11.3310   17.9740 C   0  0  0  0  0  2  0  0  0  0  0  0
  -27.8940  -12.1800   19.2270 C   0  0  0  0  0  3  0  0  0  0  0  0
  -28.7680  -11.4590   20.2800 C   0  0  0  0  0  2  0  0  0  0  0  0
  -30.1060  -11.9450   20.1460 N   0  0  0  0  0  0  0  0  0  0  0  0
  -31.4660  -13.6900   20.2530 O   0  0  0  0  0  0  0  0  0  0  0  0
  -29.6160  -13.4110   21.8810 N   0  0  0  0  0  0  0  0  0  0  0  0
  -29.9780  -14.2650   22.2840 H   0  0  0  0  0  0  0  0  0  0  0  0
  -25.3350  -14.0530   20.7160 C   0  0  0  0  0  2  0  0  0  0  0  0
  -24.7510  -13.6010   20.9300 C   0  0  1  0  0  0  0  0  0  0  0  0
  -25.6350  -11.6380   20.1390 C   0  0  0  0  0  3  0  0  0  0  0  0
  -26.3520  -12.4720   19.7480 N   0  0  0  0  0  0  0  0  0  0  0  0
  -26.0530  -11.4050   19.1290 N   0  0  0  0  0  2  0  0  0  0  0  0
  -24.7440   -9.9900   20.4070 C   0  0  0  0  0  0  0  0  0  0  0  0
  -24.9250   -8.9870   21.4710 C   0  0  0  0  0  3  0  0  0  0  0  0
  -23.9890   -7.9500   21.9160 C   0  0  0  0  0  3  0  0  0  0  0  0
  -22.6720   -7.8110   21.3990 C   0  0  0  0  0  0  0  0  0  0  0  0
  -22.3850   -8.7560   20.4000 C   0  0  0  0  0  3  0  0  0  0  0  0
  -23.3820   -9.6710   19.9010 C   0  0  0  0  0  3  0  0  0  0  0  0
  -21.7100   -6.8210   21.6770 O   0  0  0  0  0  0  0  0  0  0  0  0
  -21.7340   -5.9330   22.7480 C   0  0  0  0  0  0  0  0  0  0  0  0
  -21.5030   -6.3800   24.0670 C   0  0  0  0  0  3  0  0  0  0  0  0
  -21.4640   -5.4670   25.1440 C   0  0  0  0  0  3  0  0  0  0  0  0
  -21.6520   -4.0900   24.9180 C   0  0  0  0  0  0  0  0  0  0  0  0
  -21.8430   -3.6250   23.6060 C   0  0  0  0  0  3  0  0  0  0  0  0
  -21.8670   -4.5340   22.5270 C   0  0  0  0  0  0  0  0  0  0  0  0
  -22.0080   -4.0450   21.2710 F   0  0  0  0  0  0  0  0  0  0  0  0
  -21.6470   -3.2210   25.9560 F   0  0  0  0  0  0  0  0  0  0  0  0
  -23.2510  -14.0880   21.4430 C   0  0  0  0  0  0  0  0  0  0  0  0
  -22.4510  -13.2310   22.1190 N   0  0  0  0  0  0  0  0  0  0  0  0
  -22.6770  -14.9290   20.7540 O   0  0  0  0  0  0  0  0  0  0  0  0
  -22.8650  -12.3420   22.3770 H   0  0  0  0  0  0  0  0  0  0  0  0
  -21.4650  -13.3990   22.2400 H   0  0  0  0  0  0  0  0  0  0  0  0
  -25.4460  -15.4610   21.0480 N   0  0  0  0  0  0  0  0  0  0  0  0
  -24.7650  -16.0180   21.5530 H   0  0  0  0  0  0  0  0  0  0  0  0
  -26.2420  -15.9880   20.7170 H   0  0  0  0  0  0  0  0  0  0  0  0
  4 52  1  0
 64  5  1  6
 12 23  2  0
 13 11  1  0
 13 18  1  0
 14 22  1  0
 14 24  1  0
 15 21  1  0
 15 17  1  0
 16 22  1  0
 17 18  2  0
 17 16  1  0
 19 13  2  0
 20 19  1  0
 20 15  2  0
 21 14  1  0
 22 12  1  0
 24 26  2  0
 25 24  1  0
 27 25  1  0
 28 37  2  0
 28 33  1  0
 29 25  1  0
 29 33  1  0
 30 29  1  0
 31 32  1  0
 31 30  1  0
 32 28  1  0
 33 34  2  0
 34 35  1  0
 36 35  2  0
 37 36  1  0
 38 12  1  0
 38 39  1  0
 38 48  1  0
 39 42  1  0
 40 44  1  0
 40 39  1  0
 41 40  2  0
 44 43  1  0
 46 44  1  0
 46 47  1  0
 46 45  1  0
 48 51  1  1
 48 49  1  0
 50 48  1  0
 53 61  1  0
 54 59  1  0
 55 56  1  0
 55 54  1  0
 57 56  1  0
 57 66  1  0
 57 58  1  0
 59 58  1  0
 59 53  1  0
 60 53  2  0
 61 62  1  0
 61 52  1  0
 63 64  1  0
 63 88  1  0
 64 83  1  0
 64  6  1  0
 65 68  1  0
 66 67  1  0
 66 65  1  0
 67 65  1  0
 68 69  1  0
 69 70  2  0
 71 74  1  0
 71 70  1  0
 72 71  2  0
 73 72  1  0
 73 68  2  0
 74 75  1  0
 75 76  1  0
 76 77  2  0
 78 77  1  0
 78 82  1  0
 79 78  2  0
 80 75  2  0
 80 79  1  0
 81 80  1  0
 83 84  1  0
 84 87  1  0
 84 86  1  0
 85 83  2  0
 88 89  1  0
 90 88  1  0
M  ISO  4  10 101  11 101  53 100  61 100
M  END
>  <TORSDO>  (2) 
F 21

>  <SCORE>  (2) 
-6.270

>  <name>  (2) 
1

>  <ligand_id>  (2) 
1

>  <original_smiles>  (2) 
[H]c1nnc(C([H])([H])N([H])C(=O)N2C([H])([H])C([H])([H])C([H])([H])C([H])(n3nc(-c4c([H])c([H])c(Oc5c([H])c([H])c(F)c([H])c5F)c([H])c4[H])c(C(=O)N([H])[H])c3N([H])[H])C2([H])[H])c([H])c1C([H])([H])C([H])([H])C([H])([H])C([H])([H])Oc1c([H])c([H])c2c(c1[H])C([H])([H])N(C(=O)C([H])(N([H])C(=O)C([H])(N([H])C([H])([H])[H])C([H])([H])[H])C(C([H])([H])[H])(C([H])([H])[H])C([H])([H])[H])C([H])(C(=O)N([H])C1([H])c3c([H])c([H])c([H])c([H])c3C([H])([H])C([H])([H])C1([H])[H])C2([H])[H]

>  <smiles>  (2) 
[H]c1nnc(C([H])([H])N([H])C(=O)N2C([H])([H])C([H])([H])C([H])([H])C([H])(n3nc(-c4c([H])c([H])c(Oc5c([H])c([H])c(F)c([H])c5F)c([H])c4[H])c(C(=O)N([H])[H])c3N([H])[H])C2([H])[H])c([H])c1C([H])([H])C([H])([H])C([H])([H])C([H])([H])Oc1c([H])c([H])c2c(c1[H])C([H])([H])N(C(=O)C([H])(N([H])C(=O)C([H])(N([H])C([H])([H])[H])C([H])([H])[H])C(C([H])([H])[H])(C([H])([H])[H])C([H])([H])[H])C([H])(C(=O)N([H])C1([H])c3c([H])c([H])c([H])c([H])c3C([H])([H])C([H])([H])C1([H])[H])C2([H])[H]

$$$$
2:0:0
     RDKit          3D

 95103  0  0  1  0  0  0  0  0999 V2000
  -29.5090  -19.6620   20.3050 C   0  0  0  0  0  3  0  0  0  0  0  0
  -29.8470  -20.9790   19.7970 C   0  0  0  0  0  0  0  0  0  0  0  0
  -31.1940  -21.1050   19.3590 C   0  0  0  0  0  0  0  0  0  0  0  0
  -30.4590  -18.5680   20.3510 C   0  0  0  0  0  0  0  0  0  0  0  0
  -32.1060  -20.0430   19.5930 C   0  0  0  0  0  0  0  0  0  0  0  0
  -31.6980  -22.3660   18.6690 C   0  0  0  0  0  1  0  0  0  0  0  0
  -31.7350  -18.8090   19.9970 N   0  0  0  0  0  0  0  0  0  0  0  0
  -28.7900  -22.1850   19.7020 C   0  0  0  0  0  2  0  0  0  0  0  0
  -29.1190  -23.7410   20.0600 C   0  0  0  0  0  3  0  0  0  0  0  0
  -27.9750  -24.8520   19.8760 C   0  0  0  0  0  3  0  0  0  0  0  0
  -28.2260  -26.2940   20.2070 O   0  0  0  0  0  0  0  0  0  0  0  0
  -24.6340  -31.8300   23.2920 C   0  0  0  0  0  0  0  0  0  0  0  0
  -27.1410  -27.1980   20.1850 C   0  0  0  0  0  0  0  0  0  0  0  0
  -23.4130  -30.4610   21.6510 C   0  0  0  0  0  3  0  0  0  0  0  0
  -24.8280  -28.9020   20.2030 C   0  0  0  0  0  0  0  0  0  0  0  0
  -25.9650  -30.7050   21.4880 C   0  0  0  0  0  2  0  0  0  0  0  0
  -26.0110  -29.3320   20.8220 C   0  0  0  0  0  0  0  0  0  0  0  0
  -27.1660  -28.4920   20.8140 C   0  0  0  0  0  3  0  0  0  0  0  0
  -25.9350  -26.8390   19.5390 C   0  0  0  0  0  3  0  0  0  0  0  0
  -24.7960  -27.6620   19.5550 C   0  0  0  0  0  3  0  0  0  0  0  0
  -23.6210  -29.8120   20.2600 C   0  0  0  0  0  2  0  0  0  0  0  0
  -24.6890  -31.0190   22.1980 N   0  0  0  0  0  0  0  0  0  0  0  0
  -23.5520  -32.1360   23.8150 O   0  0  0  0  0  0  0  0  0  0  0  0
  -22.7300  -29.4460   22.6000 C   0  0  0  0  0  0  0  0  0  0  0  0
  -21.4030  -29.2840   22.4620 N   0  0  0  0  0  0  0  0  0  0  0  0
  -23.3930  -28.8040   23.4190 O   0  0  0  0  0  0  0  0  0  0  0  0
  -20.9250  -29.8480   21.7740 H   0  0  0  0  0  0  0  0  0  0  0  0
  -18.0010  -28.1290   22.9270 C   0  0  0  0  0  0  0  0  0  0  0  0
  -20.5630  -28.3570   23.2260 C   0  0  0  0  0  3  0  0  0  0  0  0
  -20.6580  -26.9240   22.6550 C   0  0  0  0  0  2  0  0  0  0  0  0
  -19.5600  -26.6110   21.6330 C   0  0  0  0  0  2  0  0  0  0  0  0
  -18.1710  -26.7760   22.2570 C   0  0  0  0  0  2  0  0  0  0  0  0
  -19.1250  -28.8800   23.3660 C   0  0  0  0  0  0  0  0  0  0  0  0
  -18.9120  -30.1470   23.9490 C   0  0  0  0  0  3  0  0  0  0  0  0
  -17.6120  -30.6620   24.1050 C   0  0  0  0  0  3  0  0  0  0  0  0
  -16.5040  -29.9080   23.6830 C   0  0  0  0  0  3  0  0  0  0  0  0
  -16.7000  -28.6460   23.0950 C   0  0  0  0  0  3  0  0  0  0  0  0
  -25.9260  -32.4390   23.9160 C   0  0  0  0  0  3  0  0  0  0  0  0
  -25.6410  -33.8420   24.2520 N   0  0  0  0  0  0  0  0  0  0  0  0
  -25.9650  -34.8890   23.4810 C   0  0  0  0  0  0  0  0  0  0  0  0
  -26.6050  -34.7770   22.4320 O   0  0  0  0  0  0  0  0  0  0  0  0
  -25.0810  -34.0120   25.0740 H   0  0  0  0  0  0  0  0  0  0  0  0
  -24.2430  -36.6960   23.1840 C   0  0  0  0  0  1  0  0  0  0  0  0
  -25.5100  -36.2840   23.9500 C   0  0  0  0  0  3  0  0  0  0  0  0
  -27.6840  -37.1490   24.7010 C   0  0  0  0  0  1  0  0  0  0  0  0
  -26.5490  -37.3260   23.7960 N   0  0  0  0  0  0  0  0  0  0  0  0
  -26.1590  -38.2510   23.9530 H   0  0  0  0  0  0  0  0  0  0  0  0
  -26.4270  -31.6550   25.1900 C   0  0  1  0  0  0  0  0  0  0  0  0
  -25.3210  -31.4290   26.2490 C   0  0  0  0  0  1  0  0  0  0  0  0
  -26.9940  -30.2710   24.7990 C   0  0  0  0  0  1  0  0  0  0  0  0
  -27.5890  -32.4290   25.8520 C   0  0  0  0  0  1  0  0  0  0  0  0
  -33.6060  -20.3080   19.7030 C   0  0  0  0  0  2  0  0  0  0  0  0
  -33.9660  -20.8240   21.1270 C   0  0  0  0  0  2  0  0  0  0  0  0
  -35.5360  -22.7710   20.7280 C   0  0  0  0  0  1  0  0  0  0  0  0
  -35.9110  -21.3310   22.7540 C   0  0  0  0  0  1  0  0  0  0  0  0
  -35.4160  -21.3480   21.2900 C   0  0  0  0  0  3  0  0  0  0  0  0
  -30.3010  -17.2130   21.1690 C   0  0  0  0  0  2  0  0  0  0  0  0
  -30.8160  -14.6770   20.4750 C   0  0  0  0  0  0  0  0  0  0  0  0
  -30.6160  -12.3590   19.5210 C   0  0  0  0  0  2  0  0  0  0  0  0
  -29.6930  -12.3880   18.2820 C   0  0  0  0  0  2  0  0  0  0  0  0
  -28.2050  -12.2600   18.6770 C   0  0  0  0  0  2  0  0  0  0  0  0
  -27.8250  -13.1720   19.8730 C   0  0  0  0  0  3  0  0  0  0  0  0
  -28.8740  -13.1090   21.0060 C   0  0  0  0  0  2  0  0  0  0  0  0
  -30.1760  -13.4530   20.4160 N   0  0  0  0  0  0  0  0  0  0  0  0
  -32.0170  -14.7580   20.2200 O   0  0  0  0  0  0  0  0  0  0  0  0
  -30.0340  -15.8100   20.6280 N   0  0  0  0  0  0  0  0  0  0  0  0
  -29.0490  -15.6090   20.5880 H   0  0  0  0  0  0  0  0  0  0  0  0
  -25.4400  -13.8130   20.5640 C   0  0  0  0  0  0  0  0  0  0  0  0
  -24.3470  -13.0650   20.9150 C   0  0  0  0  0  0  0  0  0  0  0  0
  -24.7790  -11.7050   20.8900 C   0  0  0  0  0  0  0  0  0  0  0  0
  -26.4680  -12.9090   20.3480 N   0  0  0  0  0  0  0  0  0  0  0  0
  -26.0750  -11.6340   20.6070 N   0  0  0  0  0  0  0  0  0  0  0  0
  -24.0140  -10.4620   21.0720 C   0  0  0  0  0  0  0  0  0  0  0  0
  -24.4050   -9.4780   22.0090 C   0  0  0  0  0  3  0  0  0  0  0  0
  -23.6370   -8.3040   22.1790 C   0  0  0  0  0  3  0  0  0  0  0  0
  -22.4640   -8.1060   21.4100 C   0  0  0  0  0  0  0  0  0  0  0  0
  -22.0950   -9.0740   20.4620 C   0  0  0  0  0  3  0  0  0  0  0  0
  -22.8620  -10.2400   20.2910 C   0  0  0  0  0  3  0  0  0  0  0  0
  -21.6700   -6.9880   21.4890 O   0  0  0  0  0  0  0  0  0  0  0  0
  -21.5900   -6.2420   22.6390 C   0  0  0  0  0  0  0  0  0  0  0  0
  -21.1640   -6.8040   23.8620 C   0  0  0  0  0  3  0  0  0  0  0  0
  -21.0260   -5.9850   25.0010 C   0  0  0  0  0  3  0  0  0  0  0  0
  -21.3050   -4.6090   24.9200 C   0  0  0  0  0  0  0  0  0  0  0  0
  -21.7250   -4.0470   23.7010 C   0  0  0  0  0  3  0  0  0  0  0  0
  -21.8650   -4.8620   22.5630 C   0  0  0  0  0  0  0  0  0  0  0  0
  -22.2480   -4.3090   21.3870 F   0  0  0  0  0  0  0  0  0  0  0  0
  -21.1680   -3.8240   26.0130 F   0  0  0  0  0  0  0  0  0  0  0  0
  -22.9590  -13.5830   21.1560 C   0  0  0  0  0  0  0  0  0  0  0  0
  -22.2020  -12.9150   22.0210 N   0  0  0  0  0  0  0  0  0  0  0  0
  -22.5540  -14.6120   20.6170 O   0  0  0  0  0  0  0  0  0  0  0  0
  -22.5410  -12.0820   22.4750 H   0  0  0  0  0  0  0  0  0  0  0  0
  -21.2700  -13.2410   22.2330 H   0  0  0  0  0  0  0  0  0  0  0  0
  -25.6280  -15.1780   20.3860 N   0  0  0  0  0  0  0  0  0  0  0  0
  -24.8530  -15.8280   20.4700 H   0  0  0  0  0  0  0  0  0  0  0  0
  -26.4780  -15.6150   20.0510 H   0  0  0  0  0  0  0  0  0  0  0  0
  1  4  1  0
  2  1  2  0
  3  5  2  0
  3  2  1  0
  4 57  1  0
  5 52  1  0
  5  7  1  0
  6  3  1  0
  7  4  2  0
  8  2  1  0
  8  9  1  0
 10  9  2  0
 10 11  1  0
 12 23  2  0
 13 11  1  0
 13 18  1  0
 14 22  1  0
 14 24  1  0
 15 21  1  0
 15 17  1  0
 16 22  1  0
 17 16  1  0
 18 17  2  0
 19 20  1  0
 19 13  2  0
 20 15  2  0
 21 14  1  0
 22 12  1  0
 24 26  2  0
 25 24  1  0
 27 25  1  0
 28 37  2  0
 28 33  1  0
 29 25  1  0
 29 33  1  0
 30 29  1  0
 31 32  1  0
 31 30  1  0
 32 28  1  0
 33 34  2  0
 34 35  1  0
 36 35  2  0
 37 36  1  0
 38 12  1  0
 38 39  1  0
 38 48  1  0
 39 42  1  0
 40 44  1  0
 40 39  1  0
 41 40  2  0
 44 43  1  0
 46 44  1  0
 46 47  1  0
 46 45  1  0
 48 51  1  1
 48 49  1  0
 50 48  1  0
 52 53  1  0
 53 56  1  0
 54 56  1  0
 56 55  1  0
 58 66  1  0
 59 64  1  0
 60 61  1  0
 60 59  1  0
 62 61  1  0
 62 71  1  0
 62 63  1  0
 64 58  1  0
 64 63  1  0
 65 58  2  0
 66 57  1  0
 67 66  1  0
 68 69  2  0
 69 88  1  0
 70 69  1  0
 70 73  1  0
 71 68  1  0
 71 72  1  0
 72 70  2  0
 73 74  1  0
 74 75  2  0
 76 79  1  0
 76 75  1  0
 77 76  2  0
 78 77  1  0
 78 73  2  0
 79 80  1  0
 80 81  1  0
 81 82  2  0
 83 82  1  0
 83 87  1  0
 84 83  2  0
 85 80  2  0
 85 84  1  0
 86 85  1  0
 88 89  1  0
 89 92  1  0
 89 91  1  0
 90 88  2  0
 93 94  1  0
 93 68  1  0
 95 93  1  0
M  ISO  4  10 101  11 101  58 100  66 100
M  END
>  <TORSDO>  (3) 
F 23

>  <SCORE>  (3) 
-12.839

>  <name>  (3) 
2

>  <ligand_id>  (3) 
2

>  <original_smiles>  (3) 
[H]c1c([H])c([H])c2c(c1[H])C([H])([H])C([H])([H])C([H])([H])C2([H])N([H])C(=O)C1([H])N(C(=O)C([H])(N([H])C(=O)C([H])(N([H])C([H])([H])[H])C([H])([H])[H])C(C([H])([H])[H])(C([H])([H])[H])C([H])([H])[H])C([H])([H])c2c([H])c(OC([H])([H])C([H])([H])C([H])([H])c3c([H])c(C([H])([H])N([H])C(=O)N4C([H])([H])C([H])([H])C([H])([H])C([H])(n5nc(-c6c([H])c([H])c(Oc7c([H])c([H])c(F)c([H])c7F)c([H])c6[H])c(C(=O)N([H])[H])c5N([H])[H])C4([H])[H])nc(C([H])([H])C([H])([H])C([H])(C([H])([H])[H])C([H])([H])[H])c3C([H])([H])[H])c([H])c([H])c2C1([H])[H]

>  <smiles>  (3) 
[H]c1c([H])c([H])c2c(c1[H])C([H])([H])C([H])([H])C([H])([H])C2([H])N([H])C(=O)C1([H])N(C(=O)C([H])(N([H])C(=O)C([H])(N([H])C([H])([H])[H])C([H])([H])[H])C(C([H])([H])[H])(C([H])([H])[H])C([H])([H])[H])C([H])([H])c2c([H])c(OC([H])([H])C([H])([H])C([H])([H])c3c([H])c(C([H])([H])N([H])C(=O)N4C([H])([H])C([H])([H])C([H])([H])C([H])(n5nc(-c6c([H])c([H])c(Oc7c([H])c([H])c(F)c([H])c7F)c([H])c6[H])c(C(=O)N([H])[H])c5N([H])[H])C4([H])[H])nc(C([H])([H])C([H])([H])C([H])(C([H])([H])[H])C([H])([H])[H])c3C([H])([H])[H])c([H])c([H])c2C1([H])[H]

$$$$
3:0:0
     RDKit          3D

 97105  0  0  1  0  0  0  0  0999 V2000
  -32.2310  -20.9070   21.4150 C   0  0  0  0  0  2  0  0  0  0  0  0
  -33.0750  -19.8790   20.9130 C   0  0  0  0  0  0  0  0  0  0  0  0
  -30.9180  -20.5410   21.2840 C   0  0  0  0  0  0  0  0  0  0  0  0
  -32.2410  -18.8660   20.5240 C   0  0  0  0  0  0  0  0  0  0  0  0
  -32.6010  -17.6040   19.7830 C   0  0  0  0  0  1  0  0  0  0  0  0
  -30.9320  -19.1680   20.9230 N   0  0  0  0  0  0  0  0  0  0  0  0
  -34.5920  -19.8700   20.7720 C   0  0  0  0  0  2  0  0  0  0  0  0
  -35.3940  -20.5510   21.9070 C   0  0  0  0  0  2  0  0  0  0  0  0
  -36.5520  -22.5540   22.9380 C   0  0  0  0  0  1  0  0  0  0  0  0
  -36.9620  -21.9650   20.5090 C   0  0  0  0  0  1  0  0  0  0  0  0
  -35.9360  -21.9710   21.6500 C   0  0  0  0  0  3  0  0  0  0  0  0
  -29.6770  -21.4190   21.4890 C   0  0  0  0  0  3  0  0  0  0  0  0
  -29.8580  -22.9640   21.8080 C   0  0  0  0  0  2  0  0  0  0  0  0
  -31.1880  -24.7890   20.4590 C   0  0  0  0  0  1  0  0  0  0  0  0
  -29.8510  -24.0430   20.6340 C   0  0  0  0  0  3  0  0  0  0  0  0
  -28.6060  -25.0250   20.5960 C   0  0  0  0  0  2  0  0  0  0  0  0
  -28.7810  -26.4840   20.5340 O   0  0  0  0  0  0  0  0  0  0  0  0
  -24.7190  -31.8180   23.1430 C   0  0  0  0  0  0  0  0  0  0  0  0
  -27.6170  -27.2580   20.4030 C   0  0  0  0  0  0  0  0  0  0  0  0
  -23.6310  -30.3100   21.5200 C   0  0  0  0  0  3  0  0  0  0  0  0
  -25.1930  -28.7630   20.2250 C   0  0  0  0  0  0  0  0  0  0  0  0
  -26.1590  -30.7250   21.4150 C   0  0  0  0  0  2  0  0  0  0  0  0
  -26.3170  -29.3230   20.8440 C   0  0  0  0  0  0  0  0  0  0  0  0
  -27.5310  -28.5840   20.9210 C   0  0  0  0  0  3  0  0  0  0  0  0
  -26.4600  -26.7380   19.7730 C   0  0  0  0  0  3  0  0  0  0  0  0
  -25.2700  -27.4750   19.6810 C   0  0  0  0  0  3  0  0  0  0  0  0
  -23.9270  -29.5920   20.1790 C   0  0  0  0  0  2  0  0  0  0  0  0
  -24.8530  -30.9670   22.0870 N   0  0  0  0  0  0  0  0  0  0  0  0
  -23.6070  -32.0790   23.6240 O   0  0  0  0  0  0  0  0  0  0  0  0
  -22.9620  -29.3080   22.4910 C   0  0  0  0  0  0  0  0  0  0  0  0
  -21.6370  -29.1210   22.3560 N   0  0  0  0  0  0  0  0  0  0  0  0
  -23.6360  -28.7050   23.3300 O   0  0  0  0  0  0  0  0  0  0  0  0
  -21.1530  -29.6560   21.6500 H   0  0  0  0  0  0  0  0  0  0  0  0
  -18.2420  -28.0140   22.9310 C   0  0  0  0  0  0  0  0  0  0  0  0
  -20.8140  -28.1980   23.1400 C   0  0  0  0  0  3  0  0  0  0  0  0
  -20.8640  -26.7680   22.5530 C   0  0  0  0  0  2  0  0  0  0  0  0
  -19.7280  -26.4830   21.5640 C   0  0  0  0  0  2  0  0  0  0  0  0
  -18.3650  -26.6640   22.2420 C   0  0  0  0  0  2  0  0  0  0  0  0
  -19.3930  -28.7390   23.3400 C   0  0  0  0  0  0  0  0  0  0  0  0
  -19.2260  -30.0030   23.9460 C   0  0  0  0  0  3  0  0  0  0  0  0
  -17.9420  -30.5440   24.1400 C   0  0  0  0  0  3  0  0  0  0  0  0
  -16.8050  -29.8140   23.7520 C   0  0  0  0  0  3  0  0  0  0  0  0
  -16.9550  -28.5490   23.1550 C   0  0  0  0  0  3  0  0  0  0  0  0
  -25.9520  -32.5220   23.7870 C   0  0  0  0  0  3  0  0  0  0  0  0
  -26.5130  -31.7580   25.0460 C   0  0  1  0  0  0  0  0  0  0  0  0
  -25.4270  -31.3690   26.0750 C   0  0  0  0  0  1  0  0  0  0  0  0
  -27.2370  -30.4610   24.6140 C   0  0  0  0  0  1  0  0  0  0  0  0
  -27.5680  -32.6320   25.7650 C   0  0  0  0  0  1  0  0  0  0  0  0
  -25.5510  -33.8880   24.1470 N   0  0  0  0  0  0  0  0  0  0  0  0
  -25.8060  -34.9750   23.4030 C   0  0  0  0  0  0  0  0  0  0  0  0
  -26.4720  -34.9340   22.3640 O   0  0  0  0  0  0  0  0  0  0  0  0
  -24.9570  -33.9920   24.9570 H   0  0  0  0  0  0  0  0  0  0  0  0
  -23.9550  -36.6460   23.0920 C   0  0  0  0  0  1  0  0  0  0  0  0
  -25.2290  -36.3180   23.8880 C   0  0  0  0  0  3  0  0  0  0  0  0
  -27.3070  -37.3310   24.7120 C   0  0  0  0  0  1  0  0  0  0  0  0
  -26.1860  -37.4410   23.7820 N   0  0  0  0  0  0  0  0  0  0  0  0
  -25.7220  -38.3290   23.9580 H   0  0  0  0  0  0  0  0  0  0  0  0
  -29.8120  -18.1870   20.8630 C   0  0  0  0  0  2  0  0  0  0  0  0
  -30.0900  -16.8780   21.7100 C   0  0  0  0  0  2  0  0  0  0  0  0
  -30.4230  -14.5700   20.6430 C   0  0  0  0  0  0  0  0  0  0  0  0
  -30.2090  -12.4590   19.3650 C   0  0  0  0  0  2  0  0  0  0  0  0
  -29.2490  -12.6980   18.1780 C   0  0  0  0  0  2  0  0  0  0  0  0
  -27.7850  -12.4880   18.6170 C   0  0  0  0  0  2  0  0  0  0  0  0
  -27.4390  -13.2270   19.9350 C   0  0  0  0  0  3  0  0  0  0  0  0
  -28.5100  -12.9640   21.0180 C   0  0  0  0  0  2  0  0  0  0  0  0
  -29.8050  -13.3690   20.4510 N   0  0  0  0  0  0  0  0  0  0  0  0
  -31.5660  -14.7930   20.2290 O   0  0  0  0  0  0  0  0  0  0  0  0
  -29.6610  -15.5450   21.2020 N   0  0  0  0  0  0  0  0  0  0  0  0
  -28.7460  -15.2460   21.5040 H   0  0  0  0  0  0  0  0  0  0  0  0
  -25.0210  -13.7520   20.6260 C   0  0  0  0  0  0  0  0  0  0  0  0
  -23.9670  -12.9420   20.9690 C   0  0  0  0  0  0  0  0  0  0  0  0
  -24.4610  -11.6060   20.9120 C   0  0  0  0  0  0  0  0  0  0  0  0
  -26.0920  -12.9010   20.3960 N   0  0  0  0  0  0  0  0  0  0  0  0
  -25.7560  -11.6010   20.6180 N   0  0  0  0  0  0  0  0  0  0  0  0
  -23.7600  -10.3240   21.0760 C   0  0  0  0  0  0  0  0  0  0  0  0
  -24.1790   -9.3700   22.0310 C   0  0  0  0  0  3  0  0  0  0  0  0
  -23.4810   -8.1510   22.1760 C   0  0  0  0  0  3  0  0  0  0  0  0
  -22.3520   -7.8760   21.3650 C   0  0  0  0  0  0  0  0  0  0  0  0
  -21.9570   -8.8210   20.4000 C   0  0  0  0  0  3  0  0  0  0  0  0
  -22.6530  -10.0320   20.2520 C   0  0  0  0  0  3  0  0  0  0  0  0
  -21.6290   -6.7070   21.4170 O   0  0  0  0  0  0  0  0  0  0  0  0
  -21.5210   -5.9800   22.5750 C   0  0  0  0  0  0  0  0  0  0  0  0
  -20.9730   -6.5370   23.7520 C   0  0  0  0  0  3  0  0  0  0  0  0
  -20.8120   -5.7340   24.9010 C   0  0  0  0  0  3  0  0  0  0  0  0
  -21.1950   -4.3810   24.8740 C   0  0  0  0  0  0  0  0  0  0  0  0
  -21.7380   -3.8240   23.7040 C   0  0  0  0  0  3  0  0  0  0  0  0
  -21.8980   -4.6210   22.5570 C   0  0  0  0  0  0  0  0  0  0  0  0
  -22.4050   -4.0770   21.4230 F   0  0  0  0  0  0  0  0  0  0  0  0
  -21.0330   -3.6080   25.9750 F   0  0  0  0  0  0  0  0  0  0  0  0
  -22.5570  -13.3850   21.2390 C   0  0  0  0  0  0  0  0  0  0  0  0
  -21.8430  -12.6540   22.0890 N   0  0  0  0  0  0  0  0  0  0  0  0
  -22.0940  -14.4050   20.7340 O   0  0  0  0  0  0  0  0  0  0  0  0
  -22.2350  -11.8310   22.5180 H   0  0  0  0  0  0  0  0  0  0  0  0
  -20.8980  -12.9200   22.3190 H   0  0  0  0  0  0  0  0  0  0  0  0
  -25.1500  -15.1290   20.4800 N   0  0  0  0  0  0  0  0  0  0  0  0
  -24.3580  -15.7580   20.5540 H   0  0  0  0  0  0  0  0  0  0  0  0
  -25.9940  -15.5960   20.1700 H   0  0  0  0  0  0  0  0  0  0  0  0
  2  1  1  0
  3  1  1  0
  3 12  2  0
  4  2  2  0
  4  6  1  0
  5  4  1  0
  6  3  1  0
  7  2  1  0
  7  8  1  0
 10 11  1  0
 11  8  1  0
 11  9  1  0
 12 13  1  0
 15 14  1  0
 15 13  1  0
 16 15  1  0
 17 16  1  0
 18 29  2  0
 19 17  1  0
 19 24  1  0
 20 28  1  0
 20 30  1  0
 21 23  1  0
 22 28  1  0
 23 24  2  0
 23 22  1  0
 25 19  2  0
 26 25  1  0
 26 21  2  0
 27 21  1  0
 27 20  1  0
 28 18  1  0
 30 32  2  0
 31 30  1  0
 33 31  1  0
 34 43  2  0
 34 39  1  0
 35 31  1  0
 35 39  1  0
 36 35  1  0
 37 38  1  0
 37 36  1  0
 38 34  1  0
 39 40  2  0
 40 41  1  0
 42 41  2  0
 43 42  1  0
 44 18  1  0
 44 49  1  0
 44 45  1  0
 45 48  1  1
 45 46  1  0
 47 45  1  0
 49 52  1  0
 50 54  1  0
 50 49  1  0
 51 50  2  0
 54 53  1  0
 56 54  1  0
 56 57  1  0
 56 55  1  0
 58  6  1  0
 58 59  1  0
 60 68  1  0
 61 66  1  0
 62 63  1  0
 62 61  1  0
 64 63  1  0
 64 73  1  0
 64 65  1  0
 66 60  1  0
 66 65  1  0
 67 60  2  0
 68 69  1  0
 68 59  1  0
 70 71  2  0
 71 90  1  0
 72 71  1  0
 72 75  1  0
 73 74  1  0
 73 70  1  0
 74 72  2  0
 75 76  1  0
 76 77  2  0
 78 81  1  0
 78 77  1  0
 79 78  2  0
 80 79  1  0
 80 75  2  0
 81 82  1  0
 82 83  1  0
 83 84  2  0
 85 84  1  0
 85 89  1  0
 86 85  2  0
 87 82  2  0
 87 86  1  0
 88 87  1  0
 90 91  1  0
 91 94  1  0
 91 93  1  0
 92 90  2  0
 95 96  1  0
 95 70  1  0
 97 95  1  0
M  ISO  4  16 101  17 101  60 100  68 100
M  END
>  <TORSDO>  (4) 
F 25

>  <SCORE>  (4) 
-12.538

>  <name>  (4) 
3

>  <ligand_id>  (4) 
3

>  <original_smiles>  (4) 
[H]c1c([H])c([H])c2c(c1[H])C([H])([H])C([H])([H])C([H])([H])C2([H])N([H])C(=O)C1([H])N(C(=O)C([H])(N([H])C(=O)C([H])(N([H])C([H])([H])[H])C([H])([H])[H])C(C([H])([H])[H])(C([H])([H])[H])C([H])([H])[H])C([H])([H])c2c([H])c(OC([H])([H])C([H])(C([H])([H])[H])C([H])([H])C([H])([H])c3c([H])c(C([H])([H])C([H])([H])C([H])(C([H])([H])[H])C([H])([H])[H])c(C([H])([H])[H])n3C([H])([H])C([H])([H])N([H])C(=O)N3C([H])([H])C([H])([H])C([H])([H])C([H])(n4nc(-c5c([H])c([H])c(Oc6c([H])c([H])c(F)c([H])c6F)c([H])c5[H])c(C(=O)N([H])[H])c4N([H])[H])C3([H])[H])c([H])c([H])c2C1([H])[H]

>  <smiles>  (4) 
[H]c1c([H])c([H])c2c(c1[H])C([H])([H])C([H])([H])C([H])([H])C2([H])N([H])C(=O)C1([H])N(C(=O)C([H])(N([H])C(=O)C([H])(N([H])C([H])([H])[H])C([H])([H])[H])C(C([H])([H])[H])(C([H])([H])[H])C([H])([H])[H])C([H])([H])c2c([H])c(OC([H])([H])C([H])(C([H])([H])[H])C([H])([H])C([H])([H])c3c([H])c(C([H])([H])C([H])([H])C([H])(C([H])([H])[H])C([H])([H])[H])c(C([H])([H])[H])n3C([H])([H])C([H])([H])N([H])C(=O)N3C([H])([H])C([H])([H])C([H])([H])C([H])(n4nc(-c5c([H])c([H])c(Oc6c([H])c([H])c(F)c([H])c6F)c([H])c5[H])c(C(=O)N([H])[H])c4N([H])[H])C3([H])[H])c([H])c([H])c2C1([H])[H]

$$$$
4:0:0
     RDKit          3D

 95103  0  0  1  0  0  0  0  0999 V2000
  -27.5480  -20.5300   18.9320 C   0  0  0  0  0  2  0  0  0  0  0  0
  -27.4450  -19.3030   18.2330 C   0  0  0  0  0  0  0  0  0  0  0  0
  -28.5540  -20.4640   19.8550 C   0  0  0  0  0  3  0  0  0  0  0  0
  -28.3970  -18.4780   18.7600 C   0  0  0  0  0  0  0  0  0  0  0  0
  -28.7690  -17.1070   18.2650 C   0  0  0  0  0  1  0  0  0  0  0  0
  -28.9830  -19.1020   19.8720 N   0  0  0  0  0  0  0  0  0  0  0  0
  -25.1590  -19.7630   17.3110 C   0  0  0  0  0  1  0  0  0  0  0  0
  -26.4720  -18.9930   17.1110 C   0  0  0  0  0  3  0  0  0  0  0  0
  -28.3420  -18.4400   15.4350 C   0  0  0  0  0  1  0  0  0  0  0  0
  -27.0760  -19.2610   15.7170 C   0  0  0  0  0  2  0  0  0  0  0  0
  -29.0110  -21.6700   20.6910 C   0  0  0  0  0  2  0  0  0  0  0  0
  -29.0380  -23.0550   19.9020 C   0  0  0  0  0  2  0  0  0  0  0  0
  -28.8180  -24.4310   20.6500 C   0  0  0  0  0  2  0  0  0  0  0  0
  -28.8920  -25.7080   19.7220 C   0  0  0  0  0  2  0  0  0  0  0  0
  -28.7250  -27.0360   20.3250 O   0  0  0  0  0  0  0  0  0  0  0  0
  -24.6330  -32.0840   23.3800 C   0  0  0  0  0  0  0  0  0  0  0  0
  -27.5230  -27.7460   20.2770 C   0  0  0  0  0  0  0  0  0  0  0  0
  -23.5250  -30.6610   21.6920 C   0  0  0  0  0  3  0  0  0  0  0  0
  -25.0700  -29.2090   20.2680 C   0  0  0  0  0  0  0  0  0  0  0  0
  -26.0440  -31.1110   21.5580 C   0  0  0  0  0  2  0  0  0  0  0  0
  -26.2000  -29.7530   20.8910 C   0  0  0  0  0  0  0  0  0  0  0  0
  -27.4240  -29.0310   20.8880 C   0  0  0  0  0  3  0  0  0  0  0  0
  -26.3610  -27.2320   19.6560 C   0  0  0  0  0  3  0  0  0  0  0  0
  -25.1500  -27.9500   19.6500 C   0  0  0  0  0  3  0  0  0  0  0  0
  -23.7940  -30.0220   20.3050 C   0  0  0  0  0  2  0  0  0  0  0  0
  -24.7510  -31.3020   22.2690 N   0  0  0  0  0  0  0  0  0  0  0  0
  -23.5290  -32.3010   23.9000 O   0  0  0  0  0  0  0  0  0  0  0  0
  -22.8970  -29.5960   22.6200 C   0  0  0  0  0  0  0  0  0  0  0  0
  -21.5930  -29.3290   22.4360 N   0  0  0  0  0  0  0  0  0  0  0  0
  -23.5810  -29.0120   23.4650 O   0  0  0  0  0  0  0  0  0  0  0  0
  -21.0960  -29.8600   21.7330 H   0  0  0  0  0  0  0  0  0  0  0  0
  -18.2910  -27.8910   22.7630 C   0  0  0  0  0  0  0  0  0  0  0  0
  -20.8060  -28.3360   23.1670 C   0  0  0  0  0  3  0  0  0  0  0  0
  -21.0410  -26.9140   22.6040 C   0  0  0  0  0  2  0  0  0  0  0  0
  -20.0210  -26.5130   21.5350 C   0  0  0  0  0  2  0  0  0  0  0  0
  -18.6000  -26.5570   22.1040 C   0  0  0  0  0  2  0  0  0  0  0  0
  -19.3280  -28.7340   23.2470 C   0  0  0  0  0  0  0  0  0  0  0  0
  -18.9880  -29.9780   23.8210 C   0  0  0  0  0  3  0  0  0  0  0  0
  -17.6450  -30.3830   23.9180 C   0  0  0  0  0  3  0  0  0  0  0  0
  -16.6210  -29.5400   23.4510 C   0  0  0  0  0  3  0  0  0  0  0  0
  -16.9450  -28.2970   22.8780 C   0  0  0  0  0  3  0  0  0  0  0  0
  -25.8750  -32.7620   24.0390 C   0  0  0  0  0  3  0  0  0  0  0  0
  -25.5140  -34.1560   24.3320 N   0  0  0  0  0  0  0  0  0  0  0  0
  -25.8620  -35.2080   23.5770 C   0  0  0  0  0  0  0  0  0  0  0  0
  -26.5890  -35.1080   22.5860 O   0  0  0  0  0  0  0  0  0  0  0  0
  -24.8740  -34.3060   25.0970 H   0  0  0  0  0  0  0  0  0  0  0  0
  -24.1160  -36.9560   23.1050 C   0  0  0  0  0  1  0  0  0  0  0  0
  -25.3170  -36.5890   23.9890 C   0  0  0  0  0  3  0  0  0  0  0  0
  -27.3790  -37.5350   24.9310 C   0  0  0  0  0  1  0  0  0  0  0  0
  -26.3290  -37.6660   23.9230 N   0  0  0  0  0  0  0  0  0  0  0  0
  -25.8940  -38.5770   24.0360 H   0  0  0  0  0  0  0  0  0  0  0  0
  -26.3630  -32.0270   25.3470 C   0  0  1  0  0  0  0  0  0  0  0  0
  -25.2340  -31.7640   26.3720 C   0  0  0  0  0  1  0  0  0  0  0  0
  -27.0120  -30.6660   25.0000 C   0  0  0  0  0  1  0  0  0  0  0  0
  -27.4560  -32.8700   26.0440 C   0  0  0  0  0  1  0  0  0  0  0  0
  -29.9200  -18.3780   20.7810 C   0  0  0  0  0  2  0  0  0  0  0  0
  -29.3760  -16.9700   21.2770 C   0  0  0  0  0  2  0  0  0  0  0  0
  -30.8740  -14.9810   20.6930 C   0  0  0  0  0  0  0  0  0  0  0  0
  -30.5550  -12.9230   19.3390 C   0  0  0  0  0  2  0  0  0  0  0  0
  -29.6150  -13.2010   18.1490 C   0  0  0  0  0  2  0  0  0  0  0  0
  -28.1470  -12.9990   18.5660 C   0  0  0  0  0  2  0  0  0  0  0  0
  -27.8000  -13.7330   19.8880 C   0  0  0  0  0  3  0  0  0  0  0  0
  -28.8580  -13.4660   20.9820 C   0  0  0  0  0  2  0  0  0  0  0  0
  -30.1740  -13.8320   20.4400 N   0  0  0  0  0  0  0  0  0  0  0  0
  -31.9870  -15.1730   20.1920 O   0  0  0  0  0  0  0  0  0  0  0  0
  -31.1830  -16.2050   22.7540 C   0  0  0  0  0  1  0  0  0  0  0  0
  -30.3650  -15.8880   21.5850 N   0  0  0  0  0  0  0  0  0  0  0  0
  -25.3940  -14.2720   20.6080 C   0  0  0  0  0  0  0  0  0  0  0  0
  -24.3350  -13.4690   20.9320 C   0  0  0  0  0  0  0  0  0  0  0  0
  -24.8170  -12.1270   20.8480 C   0  0  0  0  0  0  0  0  0  0  0  0
  -26.4530  -13.4160   20.3470 N   0  0  0  0  0  0  0  0  0  0  0  0
  -26.1110  -12.1180   20.5520 N   0  0  0  0  0  0  0  0  0  0  0  0
  -24.1090  -10.8470   20.9750 C   0  0  0  0  0  0  0  0  0  0  0  0
  -24.5200   -9.8640   21.9000 C   0  0  0  0  0  3  0  0  0  0  0  0
  -23.8110   -8.6490   22.0150 C   0  0  0  0  0  3  0  0  0  0  0  0
  -22.6770   -8.4100   21.2040 C   0  0  0  0  0  0  0  0  0  0  0  0
  -22.2850   -9.3830   20.2680 C   0  0  0  0  0  3  0  0  0  0  0  0
  -22.9940  -10.5900   20.1520 C   0  0  0  0  0  3  0  0  0  0  0  0
  -21.9410   -7.2500   21.2300 O   0  0  0  0  0  0  0  0  0  0  0  0
  -21.8090   -6.5070   22.3760 C   0  0  0  0  0  0  0  0  0  0  0  0
  -21.2460   -7.0450   23.5530 C   0  0  0  0  0  3  0  0  0  0  0  0
  -21.0660   -6.2260   24.6850 C   0  0  0  0  0  3  0  0  0  0  0  0
  -21.4360   -4.8690   24.6400 C   0  0  0  0  0  0  0  0  0  0  0  0
  -21.9920   -4.3300   23.4670 C   0  0  0  0  0  3  0  0  0  0  0  0
  -22.1750   -5.1460   22.3370 C   0  0  0  0  0  0  0  0  0  0  0  0
  -22.6910   -4.6160   21.2010 F   0  0  0  0  0  0  0  0  0  0  0  0
  -21.2560   -4.0800   25.7250 F   0  0  0  0  0  0  0  0  0  0  0  0
  -22.9290  -13.9150   21.2110 C   0  0  0  0  0  0  0  0  0  0  0  0
  -22.2030  -13.1730   22.0390 N   0  0  0  0  0  0  0  0  0  0  0  0
  -22.4810  -14.9540   20.7290 O   0  0  0  0  0  0  0  0  0  0  0  0
  -22.5780  -12.3310   22.4530 H   0  0  0  0  0  0  0  0  0  0  0  0
  -21.2590  -13.4510   22.2660 H   0  0  0  0  0  0  0  0  0  0  0  0
  -25.5380  -15.6520   20.4930 N   0  0  0  0  0  0  0  0  0  0  0  0
  -24.7520  -16.2800   20.6200 H   0  0  0  0  0  0  0  0  0  0  0  0
  -26.3780  -16.1290   20.1940 H   0  0  0  0  0  0  0  0  0  0  0  0
  1  3  1  0
  2  4  2  0
  2  1  1  0
  3  6  1  0
  3 11  1  0
  4  6  1  0
  5  4  1  0
  6 56  1  0
  8  7  1  0
  8  2  1  0
  9 10  1  0
 10  8  1  0
 12 13  1  0
 12 11  1  0
 14 15  1  0
 14 13  1  0
 16 27  2  0
 17 15  1  0
 17 22  1  0
 18 26  1  0
 18 28  1  0
 19 25  1  0
 19 21  1  0
 20 26  1  0
 21 20  1  0
 22 21  2  0
 23 17  2  0
 24 23  1  0
 24 19  2  0
 25 18  1  0
 26 16  1  0
 28 30  2  0
 29 28  1  0
 31 29  1  0
 32 41  2  0
 32 37  1  0
 33 29  1  0
 33 37  1  0
 34 33  1  0
 35 36  1  0
 35 34  1  0
 36 32  1  0
 37 38  2  0
 38 39  1  0
 40 39  2  0
 41 40  1  0
 42 16  1  0
 42 43  1  0
 42 52  1  0
 43 46  1  0
 44 48  1  0
 44 43  1  0
 45 44  2  0
 48 47  1  0
 50 48  1  0
 50 51  1  0
 50 49  1  0
 52 55  1  1
 52 53  1  0
 54 52  1  0
 56 57  1  0
 57 67  1  0
 58 67  1  0
 59 64  1  0
 60 61  1  0
 60 59  1  0
 62 61  1  0
 62 71  1  0
 62 63  1  0
 64 58  1  0
 64 63  1  0
 65 58  2  0
 67 66  1  0
 68 69  2  0
 69 88  1  0
 70 69  1  0
 70 73  1  0
 71 72  1  0
 71 68  1  0
 72 70  2  0
 73 74  1  0
 74 75  2  0
 76 79  1  0
 76 75  1  0
 77 76  2  0
 78 77  1  0
 78 73  2  0
 79 80  1  0
 80 81  1  0
 81 82  2  0
 83 82  1  0
 83 87  1  0
 84 83  2  0
 85 80  2  0
 85 84  1  0
 86 85  1  0
 88 89  1  0
 89 92  1  0
 89 91  1  0
 90 88  2  0
 93 68  1  0
 93 94  1  0
 95 93  1  0
M  ISO  4  14 101  15 101  58 100  67 100
M  END
>  <TORSDO>  (5) 
F 24

>  <SCORE>  (5) 
-9.681

>  <name>  (5) 
4

>  <ligand_id>  (5) 
4

>  <original_smiles>  (5) 
[H]c1c([H])c([H])c2c(c1[H])C([H])([H])C([H])([H])C([H])([H])C2([H])N([H])C(=O)C1([H])N(C(=O)C([H])(N([H])C(=O)C([H])(N([H])C([H])([H])[H])C([H])([H])[H])C(C([H])([H])[H])(C([H])([H])[H])C([H])([H])[H])C([H])([H])c2c([H])c(OC([H])([H])C([H])([H])C([H])([H])C([H])([H])c3c([H])c(C([H])(C([H])([H])[H])C([H])([H])C([H])([H])[H])c(C([H])([H])[H])n3C([H])([H])C([H])([H])N(C(=O)N3C([H])([H])C([H])([H])C([H])([H])C([H])(n4nc(-c5c([H])c([H])c(Oc6c([H])c([H])c(F)c([H])c6F)c([H])c5[H])c(C(=O)N([H])[H])c4N([H])[H])C3([H])[H])C([H])([H])[H])c([H])c([H])c2C1([H])[H]

>  <smiles>  (5) 
[H]c1c([H])c([H])c2c(c1[H])C([H])([H])C([H])([H])C([H])([H])C2([H])N([H])C(=O)C1([H])N(C(=O)C([H])(N([H])C(=O)C([H])(N([H])C([H])([H])[H])C([H])([H])[H])C(C([H])([H])[H])(C([H])([H])[H])C([H])([H])[H])C([H])([H])c2c([H])c(OC([H])([H])C([H])([H])C([H])([H])C([H])([H])c3c([H])c(C([H])(C([H])([H])[H])C([H])([H])C([H])([H])[H])c(C([H])([H])[H])n3C([H])([H])C([H])([H])N(C(=O)N3C([H])([H])C([H])([H])C([H])([H])C([H])(n4nc(-c5c([H])c([H])c(Oc6c([H])c([H])c(F)c([H])c6F)c([H])c5[H])c(C(=O)N([H])[H])c4N([H])[H])C3([H])[H])C([H])([H])[H])c([H])c([H])c2C1([H])[H]

$$$$
5:0:0
     RDKit          3D

 99107  0  0  1  0  0  0  0  0999 V2000
  -29.9060  -22.5480   22.2790 C   0  0  0  0  0  3  0  0  0  0  0  0
  -30.8390  -21.5090   22.4500 C   0  0  0  0  0  3  0  0  0  0  0  0
  -29.0530  -22.5280   21.1600 C   0  0  0  0  0  0  0  0  0  0  0  0
  -30.8950  -20.4860   21.4880 C   0  0  0  0  0  0  0  0  0  0  0  0
  -29.1220  -21.4110   20.2900 C   0  0  0  0  0  0  0  0  0  0  0  0
  -30.0260  -20.4200   20.4550 N   0  0  0  0  0  0  0  0  0  0  0  0
  -28.0840  -23.6880   20.9510 C   0  0  0  0  0  2  0  0  0  0  0  0
  -28.7040  -24.8790   20.1860 C   0  0  0  0  0  2  0  0  0  0  0  0
  -28.9370  -26.1390   21.0480 C   0  0  0  0  0  2  0  0  0  0  0  0
  -28.9570  -27.3300   20.2540 O   0  0  0  0  0  0  0  0  0  0  0  0
  -24.5590  -31.9820   23.3360 C   0  0  0  0  0  0  0  0  0  0  0  0
  -27.7440  -27.9690   20.2090 C   0  0  0  0  0  0  0  0  0  0  0  0
  -23.5690  -30.5650   21.5690 C   0  0  0  0  0  3  0  0  0  0  0  0
  -25.2250  -29.2360   20.1590 C   0  0  0  0  0  0  0  0  0  0  0  0
  -26.0570  -31.1570   21.5290 C   0  0  0  0  0  2  0  0  0  0  0  0
  -26.2980  -29.8370   20.8300 C   0  0  0  0  0  0  0  0  0  0  0  0
  -27.5610  -29.2050   20.8610 C   0  0  0  0  0  3  0  0  0  0  0  0
  -26.6620  -27.3810   19.5220 C   0  0  0  0  0  3  0  0  0  0  0  0
  -25.3980  -28.0000   19.5130 C   0  0  0  0  0  3  0  0  0  0  0  0
  -23.9060  -29.9740   20.1740 C   0  0  0  0  0  2  0  0  0  0  0  0
  -24.7410  -31.2490   22.2040 N   0  0  0  0  0  0  0  0  0  0  0  0
  -23.4330  -32.1340   23.8300 O   0  0  0  0  0  0  0  0  0  0  0  0
  -22.9630  -29.4450   22.4450 C   0  0  0  0  0  0  0  0  0  0  0  0
  -21.6620  -29.1740   22.2540 N   0  0  0  0  0  0  0  0  0  0  0  0
  -23.6610  -28.8240   23.2500 O   0  0  0  0  0  0  0  0  0  0  0  0
  -21.1600  -29.7350   21.5780 H   0  0  0  0  0  0  0  0  0  0  0  0
  -18.3560  -27.7530   22.5890 C   0  0  0  0  0  0  0  0  0  0  0  0
  -20.8890  -28.1360   22.9370 C   0  0  0  0  0  3  0  0  0  0  0  0
  -21.0860  -26.7580   22.2620 C   0  0  0  0  0  2  0  0  0  0  0  0
  -20.0240  -26.4490   21.2030 C   0  0  0  0  0  2  0  0  0  0  0  0
  -18.6210  -26.4690   21.8220 C   0  0  0  0  0  2  0  0  0  0  0  0
  -19.4200  -28.5440   23.0980 C   0  0  0  0  0  0  0  0  0  0  0  0
  -19.1170  -29.7470   23.7710 C   0  0  0  0  0  3  0  0  0  0  0  0
  -17.7830  -30.1610   23.9380 C   0  0  0  0  0  3  0  0  0  0  0  0
  -16.7330  -29.3660   23.4490 C   0  0  0  0  0  3  0  0  0  0  0  0
  -17.0210  -28.1620   22.7800 C   0  0  0  0  0  3  0  0  0  0  0  0
  -25.7520  -32.6860   24.0530 C   0  0  0  0  0  3  0  0  0  0  0  0
  -26.1730  -31.9800   25.3990 C   0  0  1  0  0  0  0  0  0  0  0  0
  -24.9880  -31.7110   26.3570 C   0  0  0  0  0  1  0  0  0  0  0  0
  -26.8600  -30.6250   25.1120 C   0  0  0  0  0  1  0  0  0  0  0  0
  -27.2130  -32.8500   26.1430 C   0  0  0  0  0  1  0  0  0  0  0  0
  -25.3590  -34.0800   24.2950 N   0  0  0  0  0  0  0  0  0  0  0  0
  -25.7110  -35.1140   23.5190 C   0  0  0  0  0  0  0  0  0  0  0  0
  -26.4690  -35.0000   22.5520 O   0  0  0  0  0  0  0  0  0  0  0  0
  -24.6820  -34.2370   25.0290 H   0  0  0  0  0  0  0  0  0  0  0  0
  -23.9270  -36.7990   22.9610 C   0  0  0  0  0  1  0  0  0  0  0  0
  -25.1260  -36.4950   23.8710 C   0  0  0  0  0  3  0  0  0  0  0  0
  -27.1590  -37.5160   24.7910 C   0  0  0  0  0  1  0  0  0  0  0  0
  -26.1120  -37.5930   23.7780 N   0  0  0  0  0  0  0  0  0  0  0  0
  -25.6550  -38.4970   23.8620 H   0  0  0  0  0  0  0  0  0  0  0  0
  -31.9500  -19.3880   21.5450 C   0  0  0  0  0  2  0  0  0  0  0  0
  -31.3380  -18.0770   21.2550 N   0  0  0  0  0  4  0  0  0  0  0  0
  -30.7270  -18.2320   20.4690 H   0  0  0  0  0  0  0  0  0  0  0  0
  -30.7520  -17.8660   22.0420 H   0  0  0  0  0  0  0  0  0  0  0  0
  -32.2990  -16.9780   21.0090 C   0  0  0  0  0  2  0  0  0  0  0  0
  -31.8280  -15.6100   21.5570 C   0  0  0  0  0  2  0  0  0  0  0  0
  -30.8890  -14.2250   19.7100 C   0  0  0  0  0  0  0  0  0  0  0  0
  -30.3410  -12.0780   18.6160 C   0  0  0  0  0  2  0  0  0  0  0  0
  -29.2870  -12.1830   17.5020 C   0  0  0  0  0  2  0  0  0  0  0  0
  -27.8670  -12.0820   18.0840 C   0  0  0  0  0  2  0  0  0  0  0  0
  -27.6540  -13.0470   19.2800 C   0  0  0  0  0  3  0  0  0  0  0  0
  -28.8030  -12.9290   20.3060 C   0  0  0  0  0  2  0  0  0  0  0  0
  -30.0860  -13.1340   19.6090 N   0  0  0  0  0  0  0  0  0  0  0  0
  -31.8070  -14.4670   18.9230 O   0  0  0  0  0  0  0  0  0  0  0  0
  -30.7370  -14.9380   20.8380 N   0  0  0  0  0  0  0  0  0  0  0  0
  -29.9390  -14.6770   21.3990 H   0  0  0  0  0  0  0  0  0  0  0  0
  -25.4000  -13.7760   20.2860 C   0  0  0  0  0  0  0  0  0  0  0  0
  -24.3340  -13.0610   20.7590 C   0  0  0  0  0  0  0  0  0  0  0  0
  -24.6930  -11.6850   20.6270 C   0  0  0  0  0  0  0  0  0  0  0  0
  -26.3500  -12.8400   19.9060 N   0  0  0  0  0  0  0  0  0  0  0  0
  -25.9330  -11.5740   20.1650 N   0  0  0  0  0  0  0  0  0  0  0  0
  -23.9090  -10.4660   20.8570 C   0  0  0  0  0  0  0  0  0  0  0  0
  -24.3580   -9.4520   21.7320 C   0  0  0  0  0  3  0  0  0  0  0  0
  -23.5780   -8.2960   21.9520 C   0  0  0  0  0  3  0  0  0  0  0  0
  -22.3330   -8.1470   21.2970 C   0  0  0  0  0  0  0  0  0  0  0  0
  -21.9000   -9.1480   20.4080 C   0  0  0  0  0  3  0  0  0  0  0  0
  -22.6810  -10.2940   20.1880 C   0  0  0  0  0  3  0  0  0  0  0  0
  -21.5180   -7.0470   21.4290 O   0  0  0  0  0  0  0  0  0  0  0  0
  -21.4840   -6.3130   22.5880 C   0  0  0  0  0  0  0  0  0  0  0  0
  -21.1750   -6.9020   23.8340 C   0  0  0  0  0  3  0  0  0  0  0  0
  -21.0820   -6.0980   24.9870 C   0  0  0  0  0  3  0  0  0  0  0  0
  -21.2880   -4.7090   24.8980 C   0  0  0  0  0  0  0  0  0  0  0  0
  -21.5890   -4.1210   23.6550 C   0  0  0  0  0  3  0  0  0  0  0  0
  -21.6840   -4.9210   22.5040 C   0  0  0  0  0  0  0  0  0  0  0  0
  -21.9540   -4.3470   21.3070 F   0  0  0  0  0  0  0  0  0  0  0  0
  -21.1900   -3.9340   26.0030 F   0  0  0  0  0  0  0  0  0  0  0  0
  -23.0150  -13.6150   21.2140 C   0  0  0  0  0  0  0  0  0  0  0  0
  -22.3610  -12.9450   22.1570 N   0  0  0  0  0  0  0  0  0  0  0  0
  -22.5770  -14.6750   20.7680 O   0  0  0  0  0  0  0  0  0  0  0  0
  -22.7310  -12.0870   22.5400 H   0  0  0  0  0  0  0  0  0  0  0  0
  -21.4790  -13.2940   22.5020 H   0  0  0  0  0  0  0  0  0  0  0  0
  -25.6380  -15.1360   20.1260 N   0  0  0  0  0  0  0  0  0  0  0  0
  -24.9440  -15.8420   20.3490 H   0  0  0  0  0  0  0  0  0  0  0  0
  -26.4810  -15.5230   19.7230 H   0  0  0  0  0  0  0  0  0  0  0  0
  -28.1320  -21.1670   19.1590 C   0  0  0  0  0  2  0  0  0  0  0  0
  -27.0560  -20.1400   19.5700 C   0  0  0  0  0  2  0  0  0  0  0  0
  -27.4540  -18.4620   17.7090 C   0  0  0  0  0  1  0  0  0  0  0  0
  -25.2210  -18.5440   18.8780 C   0  0  0  0  0  1  0  0  0  0  0  0
  -26.4200  -19.3700   18.3970 C   0  0  0  0  0  3  0  0  0  0  0  0
  1  2  1  0
  3  1  2  0
  4 51  1  0
  4  2  2  0
  5  6  2  0
  5  3  1  0
  6  4  1  0
  7  3  1  0
  8  7  1  0
  8  9  1  0
 10  9  1  0
 11 22  2  0
 12 10  1  0
 12 17  1  0
 13 21  1  0
 13 23  1  0
 14 20  1  0
 14 16  1  0
 15 21  1  0
 16 17  2  0
 16 15  1  0
 18 12  2  0
 19 18  1  0
 19 14  2  0
 20 13  1  0
 21 11  1  0
 23 25  2  0
 24 23  1  0
 26 24  1  0
 27 36  2  0
 27 32  1  0
 28 24  1  0
 28 32  1  0
 29 28  1  0
 30 31  1  0
 30 29  1  0
 31 27  1  0
 32 33  2  0
 33 34  1  0
 35 34  2  0
 36 35  1  0
 37 11  1  0
 37 42  1  0
 37 38  1  0
 38 41  1  1
 38 39  1  0
 40 38  1  0
 42 45  1  0
 43 47  1  0
 43 42  1  0
 44 43  2  0
 47 46  1  0
 49 50  1  0
 49 47  1  0
 49 48  1  0
 52 51  1  0
 52 54  1  0
 53 52  1  0
 55 52  1  0
 55 56  1  0
 57 65  1  0
 58 63  1  0
 59 60  1  0
 59 58  1  0
 61 60  1  0
 61 70  1  0
 61 62  1  0
 63 57  1  0
 63 62  1  0
 64 57  2  0
 65 66  1  0
 65 56  1  0
 67 68  2  0
 68 87  1  0
 69 68  1  0
 69 72  1  0
 70 71  1  0
 70 67  1  0
 71 69  2  0
 72 73  1  0
 73 74  2  0
 75 78  1  0
 75 74  1  0
 76 75  2  0
 77 76  1  0
 77 72  2  0
 78 79  1  0
 79 80  1  0
 80 81  2  0
 82 81  1  0
 82 86  1  0
 83 82  2  0
 84 79  2  0
 84 83  1  0
 85 84  1  0
 87 88  1  0
 88 91  1  0
 88 90  1  0
 89 87  2  0
 92 67  1  0
 92 93  1  0
 94 92  1  0
 95 96  1  0
 95  5  1  0
 97 99  1  0
 99 98  1  0
 99 96  1  0
M  ISO  4   9 101  10 101  57 100  65 100
M  END
>  <TORSDO>  (6) 
F 26

>  <SCORE>  (6) 
-9.324

>  <name>  (6) 
5

>  <ligand_id>  (6) 
5

>  <original_smiles>  (6) 
[H]c1c(C([H])([H])[N+]([H])([H])C([H])([H])C([H])([H])N([H])C(=O)N2C([H])([H])C([H])([H])C([H])([H])C([H])(n3nc(-c4c([H])c([H])c(Oc5c([H])c([H])c(F)c([H])c5F)c([H])c4[H])c(C(=O)N([H])[H])c3N([H])[H])C2([H])[H])nc(C([H])([H])C([H])([H])C([H])(C([H])([H])[H])C([H])([H])[H])c(C([H])([H])C([H])([H])C([H])([H])Oc2c([H])c([H])c3c(c2[H])C([H])([H])N(C(=O)C([H])(N([H])C(=O)C([H])(N([H])C([H])([H])[H])C([H])([H])[H])C(C([H])([H])[H])(C([H])([H])[H])C([H])([H])[H])C([H])(C(=O)N([H])C2([H])c4c([H])c([H])c([H])c([H])c4C([H])([H])C([H])([H])C2([H])[H])C3([H])[H])c1[H]

>  <smiles>  (6) 
[H]c1c(C([H])([H])[N+]([H])([H])C([H])([H])C([H])([H])N([H])C(=O)N2C([H])([H])C([H])([H])C([H])([H])C([H])(n3nc(-c4c([H])c([H])c(Oc5c([H])c([H])c(F)c([H])c5F)c([H])c4[H])c(C(=O)N([H])[H])c3N([H])[H])C2([H])[H])nc(C([H])([H])C([H])([H])C([H])(C([H])([H])[H])C([H])([H])[H])c(C([H])([H])C([H])([H])C([H])([H])Oc2c([H])c([H])c3c(c2[H])C([H])([H])N(C(=O)C([H])(N([H])C(=O)C([H])(N([H])C([H])([H])[H])C([H])([H])[H])C(C([H])([H])[H])(C([H])([H])[H])C([H])([H])[H])C([H])(C(=O)N([H])C2([H])c4c([H])c([H])c([H])c([H])c4C([H])([H])C([H])([H])C2([H])[H])C3([H])[H])c1[H]

$$$$
6:0:0
     RDKit          3D

 89 97  0  0  1  0  0  0  0  0999 V2000
  -28.7180  -22.6430   21.3700 C   0  0  0  0  0  2  0  0  0  0  0  0
  -28.8210  -22.5520   18.8980 C   0  0  0  0  0  2  0  0  0  0  0  0
  -29.5080  -21.2450   21.4510 C   0  0  0  0  0  2  0  0  0  0  0  0
  -28.6040  -21.0000   19.1780 C   0  0  0  0  0  2  0  0  0  0  0  0
  -28.9200  -23.5660   20.1090 C   0  0  0  0  0  3  0  0  0  0  0  0
  -29.5740  -20.2850   20.1840 C   0  0  1  0  0  0  0  0  0  0  0  0
  -30.9950  -20.3480   19.5880 C   0  0  0  0  0  1  0  0  0  0  0  0
  -27.9650  -24.8970   19.9380 C   0  0  0  0  0  2  0  0  0  0  0  0
  -28.2550  -26.3530   20.2570 O   0  0  0  0  0  0  0  0  0  0  0  0
  -24.6280  -31.9160   23.2870 C   0  0  0  0  0  0  0  0  0  0  0  0
  -27.1800  -27.2880   20.1980 C   0  0  0  0  0  0  0  0  0  0  0  0
  -23.4080  -30.5300   21.6540 C   0  0  0  0  0  3  0  0  0  0  0  0
  -24.8390  -28.9780   20.2070 C   0  0  0  0  0  0  0  0  0  0  0  0
  -25.9550  -30.8150   21.4600 C   0  0  0  0  0  2  0  0  0  0  0  0
  -26.0220  -29.4350   20.8020 C   0  0  0  0  0  0  0  0  0  0  0  0
  -27.1940  -28.6040   20.7870 C   0  0  0  0  0  3  0  0  0  0  0  0
  -25.9680  -26.9180   19.5640 C   0  0  0  0  0  3  0  0  0  0  0  0
  -24.8200  -27.7290   19.5750 C   0  0  0  0  0  3  0  0  0  0  0  0
  -23.6100  -29.8640   20.2690 C   0  0  0  0  0  2  0  0  0  0  0  0
  -24.6830  -31.1060   22.1880 N   0  0  0  0  0  0  0  0  0  0  0  0
  -23.5480  -32.1990   23.8280 O   0  0  0  0  0  0  0  0  0  0  0  0
  -22.7430  -29.5130   22.6140 C   0  0  0  0  0  0  0  0  0  0  0  0
  -21.4180  -29.3240   22.4810 N   0  0  0  0  0  0  0  0  0  0  0  0
  -23.4210  -28.8980   23.4420 O   0  0  0  0  0  0  0  0  0  0  0  0
  -20.9300  -29.8720   21.7860 H   0  0  0  0  0  0  0  0  0  0  0  0
  -18.0500  -28.0910   22.9650 C   0  0  0  0  0  0  0  0  0  0  0  0
  -20.6030  -28.3850   23.2530 C   0  0  0  0  0  3  0  0  0  0  0  0
  -20.7270  -26.9480   22.6930 C   0  0  0  0  0  2  0  0  0  0  0  0
  -19.6380  -26.6030   21.6730 C   0  0  0  0  0  2  0  0  0  0  0  0
  -18.2490  -26.7370   22.3030 C   0  0  0  0  0  2  0  0  0  0  0  0
  -19.1560  -28.8710   23.3970 C   0  0  0  0  0  0  0  0  0  0  0  0
  -18.9160  -30.1360   23.9760 C   0  0  0  0  0  3  0  0  0  0  0  0
  -17.6040  -30.6210   24.1280 C   0  0  0  0  0  3  0  0  0  0  0  0
  -16.5120  -29.8390   23.7110 C   0  0  0  0  0  3  0  0  0  0  0  0
  -16.7360  -28.5750   23.1360 C   0  0  0  0  0  3  0  0  0  0  0  0
  -25.9150  -32.5430   23.9010 C   0  0  0  0  0  3  0  0  0  0  0  0
  -26.4320  -31.7730   25.1790 C   0  0  1  0  0  0  0  0  0  0  0  0
  -25.3400  -31.5410   26.2490 C   0  0  0  0  0  1  0  0  0  0  0  0
  -27.0100  -30.3910   24.7900 C   0  0  0  0  0  1  0  0  0  0  0  0
  -27.5870  -32.5640   25.8360 C   0  0  0  0  0  1  0  0  0  0  0  0
  -25.6140  -33.9440   24.2320 N   0  0  0  0  0  0  0  0  0  0  0  0
  -25.9260  -34.9940   23.4620 C   0  0  0  0  0  0  0  0  0  0  0  0
  -26.5670  -34.8870   22.4130 O   0  0  0  0  0  0  0  0  0  0  0  0
  -25.0400  -34.1010   25.0480 H   0  0  0  0  0  0  0  0  0  0  0  0
  -24.1840  -36.7860   23.1560 C   0  0  0  0  0  1  0  0  0  0  0  0
  -25.4520  -36.3860   23.9280 C   0  0  0  0  0  3  0  0  0  0  0  0
  -27.6090  -37.2820   24.6880 C   0  0  0  0  0  1  0  0  0  0  0  0
  -26.4800  -37.4390   23.7740 N   0  0  0  0  0  0  0  0  0  0  0  0
  -26.0770  -38.3600   23.9230 H   0  0  0  0  0  0  0  0  0  0  0  0
  -29.1970  -18.6880   20.4180 C   0  0  0  0  0  3  0  0  0  0  0  0
  -30.2830  -17.4620   20.4310 C   0  0  0  0  0  3  0  0  0  0  0  0
  -30.5920  -14.8340   20.3160 C   0  0  0  0  0  0  0  0  0  0  0  0
  -30.3790  -12.5540   19.3030 C   0  0  0  0  0  2  0  0  0  0  0  0
  -29.4250  -12.6190   18.0910 C   0  0  0  0  0  2  0  0  0  0  0  0
  -27.9630  -12.4340   18.5420 C   0  0  0  0  0  2  0  0  0  0  0  0
  -27.6010  -13.3160   19.7680 C   0  0  0  0  0  3  0  0  0  0  0  0
  -28.6770  -13.2420   20.8720 C   0  0  0  0  0  2  0  0  0  0  0  0
  -29.9590  -13.6100   20.2570 N   0  0  0  0  0  0  0  0  0  0  0  0
  -31.7740  -14.9210   19.9730 O   0  0  0  0  0  0  0  0  0  0  0  0
  -29.8460  -15.9880   20.5470 N   0  0  0  0  0  0  0  0  0  0  0  0
  -28.8770  -15.8280   20.7800 H   0  0  0  0  0  0  0  0  0  0  0  0
  -25.2250  -13.8890   20.5460 C   0  0  0  0  0  0  0  0  0  0  0  0
  -24.1670  -13.1080   20.9230 C   0  0  0  0  0  0  0  0  0  0  0  0
  -24.6330  -11.7580   20.8660 C   0  0  0  0  0  0  0  0  0  0  0  0
  -26.2670  -13.0160   20.2790 N   0  0  0  0  0  0  0  0  0  0  0  0
  -25.9190  -11.7290   20.5350 N   0  0  0  0  0  0  0  0  0  0  0  0
  -23.9120  -10.4920   21.0500 C   0  0  0  0  0  0  0  0  0  0  0  0
  -24.3500   -9.5200   21.9760 C   0  0  0  0  0  3  0  0  0  0  0  0
  -23.6270   -8.3200   22.1490 C   0  0  0  0  0  3  0  0  0  0  0  0
  -22.4530   -8.0820   21.3950 C   0  0  0  0  0  0  0  0  0  0  0  0
  -22.0350   -9.0430   20.4570 C   0  0  0  0  0  3  0  0  0  0  0  0
  -22.7580  -10.2350   20.2830 C   0  0  0  0  0  3  0  0  0  0  0  0
  -21.7010   -6.9340   21.4780 O   0  0  0  0  0  0  0  0  0  0  0  0
  -21.6390   -6.1970   22.6330 C   0  0  0  0  0  0  0  0  0  0  0  0
  -21.1680   -6.7470   23.8450 C   0  0  0  0  0  3  0  0  0  0  0  0
  -21.0550   -5.9330   24.9900 C   0  0  0  0  0  3  0  0  0  0  0  0
  -21.4040   -4.5710   24.9250 C   0  0  0  0  0  0  0  0  0  0  0  0
  -21.8700   -4.0200   23.7180 C   0  0  0  0  0  3  0  0  0  0  0  0
  -21.9840   -4.8310   22.5750 C   0  0  0  0  0  0  0  0  0  0  0  0
  -22.4120   -4.2900   21.4090 F   0  0  0  0  0  0  0  0  0  0  0  0
  -21.2900   -3.7870   26.0230 F   0  0  0  0  0  0  0  0  0  0  0  0
  -22.7740  -13.5790   21.2220 C   0  0  0  0  0  0  0  0  0  0  0  0
  -22.0590  -12.8700   22.0890 N   0  0  0  0  0  0  0  0  0  0  0  0
  -22.3280  -14.6110   20.7240 O   0  0  0  0  0  0  0  0  0  0  0  0
  -22.4330  -12.0350   22.5160 H   0  0  0  0  0  0  0  0  0  0  0  0
  -21.1250  -13.1680   22.3320 H   0  0  0  0  0  0  0  0  0  0  0  0
  -25.3820  -15.2630   20.3820 N   0  0  0  0  0  0  0  0  0  0  0  0
  -24.6130  -15.9110   20.5130 H   0  0  0  0  0  0  0  0  0  0  0  0
  -26.2150  -15.7070   20.0190 H   0  0  0  0  0  0  0  0  0  0  0  0
  1  3  1  0
  2  4  1  0
  2  5  1  0
  4  6  1  0
  5  8  1  0
  5  1  1  0
  6  7  1  6
  6 50  1  0
  6  3  1  0
  8  9  1  0
 10 21  2  0
 11  9  1  0
 11 16  1  0
 12 20  1  0
 12 22  1  0
 13 19  1  0
 13 15  1  0
 14 20  1  0
 15 14  1  0
 16 15  2  0
 17 18  1  0
 17 11  2  0
 18 13  2  0
 19 12  1  0
 20 10  1  0
 22 24  2  0
 23 22  1  0
 25 23  1  0
 26 35  2  0
 26 31  1  0
 27 23  1  0
 27 31  1  0
 28 27  1  0
 29 30  1  0
 29 28  1  0
 30 26  1  0
 31 32  2  0
 32 33  1  0
 34 33  2  0
 35 34  1  0
 36 10  1  0
 36 41  1  0
 36 37  1  0
 37 40  1  1
 37 38  1  0
 39 37  1  0
 41 44  1  0
 42 46  1  0
 42 41  1  0
 43 42  2  0
 46 45  1  0
 48 49  1  0
 48 46  1  0
 48 47  1  0
 50 51  2  0
 51 60  1  0
 52 60  1  0
 53 58  1  0
 54 55  1  0
 54 53  1  0
 56 55  1  0
 56 65  1  0
 56 57  1  0
 58 52  1  0
 58 57  1  0
 59 52  2  0
 60 61  1  0
 62 63  2  0
 63 82  1  0
 64 63  1  0
 64 67  1  0
 65 66  1  0
 65 62  1  0
 66 64  2  0
 67 68  1  0
 68 69  2  0
 70 73  1  0
 70 69  1  0
 71 70  2  0
 72 71  1  0
 72 67  2  0
 73 74  1  0
 74 75  1  0
 75 76  2  0
 77 76  1  0
 77 81  1  0
 78 77  2  0
 79 74  2  0
 79 78  1  0
 80 79  1  0
 82 83  1  0
 83 86  1  0
 83 85  1  0
 84 82  2  0
 87 88  1  0
 87 62  1  0
 89 87  1  0
M  ISO  4   8 101   9 101  52 100  60 100
M  END
>  <TORSDO>  (7) 
F 19

>  <SCORE>  (7) 
-14.245

>  <name>  (7) 
6

>  <ligand_id>  (7) 
6

>  <original_smiles>  (7) 
[H]c1c([H])c([H])c2c(c1[H])C([H])([H])C([H])([H])C([H])([H])C2([H])N([H])C(=O)C1([H])N(C(=O)C([H])(N([H])C(=O)C([H])(N([H])C([H])([H])[H])C([H])([H])[H])C(C([H])([H])[H])(C([H])([H])[H])C([H])([H])[H])C([H])([H])c2c([H])c(OC([H])([H])C3([H])C([H])([H])C([H])([H])C(C([H])([H])[H])(C([H])([H])C([H])([H])N([H])C(=O)N4C([H])([H])C([H])([H])C([H])([H])C([H])(n5nc(-c6c([H])c([H])c(Oc7c([H])c([H])c(F)c([H])c7F)c([H])c6[H])c(C(=O)N([H])[H])c5N([H])[H])C4([H])[H])C([H])([H])C3([H])[H])c([H])c([H])c2C1([H])[H]

>  <smiles>  (7) 
[H]c1c([H])c([H])c2c(c1[H])C([H])([H])C([H])([H])C([H])([H])C2([H])N([H])C(=O)C1([H])N(C(=O)C([H])(N([H])C(=O)C([H])(N([H])C([H])([H])[H])C([H])([H])[H])C(C([H])([H])[H])(C([H])([H])[H])C([H])([H])[H])C([H])([H])c2c([H])c(OC([H])([H])C3([H])C([H])([H])C([H])([H])C(C([H])([H])[H])(C([H])([H])C([H])([H])N([H])C(=O)N4C([H])([H])C([H])([H])C([H])([H])C([H])(n5nc(-c6c([H])c([H])c(Oc7c([H])c([H])c(F)c([H])c7F)c([H])c6[H])c(C(=O)N([H])[H])c5N([H])[H])C4([H])[H])C([H])([H])C3([H])[H])c([H])c([H])c2C1([H])[H]

$$$$
7:0:0
     RDKit          3D

 97105  0  0  1  0  0  0  0  0999 V2000
  -27.4880  -21.9370   18.8250 C   0  0  0  0  0  0  0  0  0  0  0  0
  -27.8330  -20.8070   18.0440 C   0  0  0  0  0  0  0  0  0  0  0  0
  -28.2830  -22.1150   19.9800 C   0  0  0  0  0  0  0  0  0  0  0  0
  -29.2900  -20.1070   19.6490 C   0  0  0  0  0  0  0  0  0  0  0  0
  -31.5570  -19.4120   19.6110 C   0  0  0  0  0  1  0  0  0  0  0  0
  -28.7180  -19.8910   18.4780 N   0  0  0  0  0  0  0  0  0  0  0  0
  -29.1660  -21.1880   20.3970 N   0  0  0  0  0  0  0  0  0  0  0  0
  -30.1970  -19.1590   20.0900 N   0  0  0  0  0  0  0  0  0  0  0  0
  -26.5690  -24.1450   17.7910 C   0  0  0  0  0  1  0  0  0  0  0  0
  -25.2270  -22.9010   19.6240 C   0  0  0  0  0  1  0  0  0  0  0  0
  -26.2600  -22.8060   18.4830 C   0  0  0  0  0  3  0  0  0  0  0  0
  -25.8630  -19.7060   16.9140 C   0  0  0  0  0  1  0  0  0  0  0  0
  -27.1750  -20.4800   16.7150 C   0  0  0  0  0  2  0  0  0  0  0  0
  -29.7550  -17.7570   20.1360 C   0  0  0  0  0  2  0  0  0  0  0  0
  -30.4590  -16.9230   21.2380 C   0  0  0  0  0  2  0  0  0  0  0  0
  -30.7130  -14.5010   20.6020 C   0  0  0  0  0  0  0  0  0  0  0  0
  -30.3760  -12.3850   19.3730 C   0  0  0  0  0  2  0  0  0  0  0  0
  -29.4270  -12.6220   18.1790 C   0  0  0  0  0  2  0  0  0  0  0  0
  -27.9540  -12.4960   18.6150 C   0  0  0  0  0  2  0  0  0  0  0  0
  -27.6340  -13.2900   19.9110 C   0  0  0  0  0  3  0  0  0  0  0  0
  -28.7000  -13.0180   20.9980 C   0  0  0  0  0  2  0  0  0  0  0  0
  -30.0220  -13.3370   20.4360 N   0  0  0  0  0  0  0  0  0  0  0  0
  -31.8220  -14.6930   20.1020 O   0  0  0  0  0  0  0  0  0  0  0  0
  -30.0580  -15.5030   21.2200 N   0  0  0  0  0  0  0  0  0  0  0  0
  -29.1810  -15.2750   21.6630 H   0  0  0  0  0  0  0  0  0  0  0  0
  -25.2280  -13.8740   20.6320 C   0  0  0  0  0  0  0  0  0  0  0  0
  -24.1640  -13.0900   20.9820 C   0  0  0  0  0  0  0  0  0  0  0  0
  -24.6310  -11.7400   20.9290 C   0  0  0  0  0  0  0  0  0  0  0  0
  -26.2820  -13.0030   20.3870 N   0  0  0  0  0  0  0  0  0  0  0  0
  -25.9230  -11.7140   20.6250 N   0  0  0  0  0  0  0  0  0  0  0  0
  -23.9090  -10.4730   21.0880 C   0  0  0  0  0  0  0  0  0  0  0  0
  -24.3100   -9.5070   22.0380 C   0  0  0  0  0  3  0  0  0  0  0  0
  -23.5860   -8.3030   22.1870 C   0  0  0  0  0  3  0  0  0  0  0  0
  -22.4450   -8.0580   21.3840 C   0  0  0  0  0  0  0  0  0  0  0  0
  -22.0620   -9.0130   20.4260 C   0  0  0  0  0  3  0  0  0  0  0  0
  -22.7870  -10.2060   20.2760 C   0  0  0  0  0  3  0  0  0  0  0  0
  -21.6940   -6.9070   21.4450 O   0  0  0  0  0  0  0  0  0  0  0  0
  -21.5720   -6.1850   22.6070 C   0  0  0  0  0  0  0  0  0  0  0  0
  -20.9750   -6.7310   23.7650 C   0  0  0  0  0  3  0  0  0  0  0  0
  -20.8090   -5.9320   24.9140 C   0  0  0  0  0  3  0  0  0  0  0  0
  -21.2310   -4.5890   24.9050 C   0  0  0  0  0  0  0  0  0  0  0  0
  -21.8230   -4.0430   23.7530 C   0  0  0  0  0  3  0  0  0  0  0  0
  -21.9890   -4.8390   22.6050 C   0  0  0  0  0  0  0  0  0  0  0  0
  -22.5390   -4.3010   21.4890 F   0  0  0  0  0  0  0  0  0  0  0  0
  -21.0670   -3.8200   26.0070 F   0  0  0  0  0  0  0  0  0  0  0  0
  -22.7590  -13.5530   21.2540 C   0  0  0  0  0  0  0  0  0  0  0  0
  -22.0280  -12.8390   22.1030 N   0  0  0  0  0  0  0  0  0  0  0  0
  -22.3200  -14.5850   20.7510 O   0  0  0  0  0  0  0  0  0  0  0  0
  -22.3930  -12.0020   22.5300 H   0  0  0  0  0  0  0  0  0  0  0  0
  -21.0880  -13.1330   22.3250 H   0  0  0  0  0  0  0  0  0  0  0  0
  -25.3880  -15.2490   20.4810 N   0  0  0  0  0  0  0  0  0  0  0  0
  -24.6080  -15.8930   20.5700 H   0  0  0  0  0  0  0  0  0  0  0  0
  -26.2360  -15.6970   20.1620 H   0  0  0  0  0  0  0  0  0  0  0  0
  -28.1730  -23.2000   20.8070 O   0  0  0  0  0  0  0  0  0  0  0  0
  -28.9540  -24.3300   20.4200 C   0  0  0  0  0  2  0  0  0  0  0  0
  -28.5520  -25.5100   21.3200 C   0  0  0  0  0  2  0  0  0  0  0  0
  -28.6010  -26.7690   20.6350 O   0  0  0  0  0  0  0  0  0  0  0  0
  -24.5680  -31.9610   23.3620 C   0  0  0  0  0  0  0  0  0  0  0  0
  -27.4120  -27.4600   20.5770 C   0  0  0  0  0  0  0  0  0  0  0  0
  -23.4560  -30.4780   21.7260 C   0  0  0  0  0  3  0  0  0  0  0  0
  -24.9930  -28.9110   20.4240 C   0  0  0  0  0  0  0  0  0  0  0  0
  -25.9800  -30.8780   21.6110 C   0  0  0  0  0  2  0  0  0  0  0  0
  -26.1160  -29.4850   21.0340 C   0  0  0  0  0  0  0  0  0  0  0  0
  -27.3330  -28.7670   21.1000 C   0  0  0  0  0  3  0  0  0  0  0  0
  -26.2690  -26.8890   19.9770 C   0  0  0  0  0  3  0  0  0  0  0  0
  -25.0630  -27.6100   19.8970 C   0  0  0  0  0  3  0  0  0  0  0  0
  -23.7320  -29.7490   20.3840 C   0  0  0  0  0  2  0  0  0  0  0  0
  -24.6860  -31.1200   22.2930 N   0  0  0  0  0  0  0  0  0  0  0  0
  -23.4590  -32.2380   23.8390 O   0  0  0  0  0  0  0  0  0  0  0  0
  -22.7730  -29.4850   22.6940 C   0  0  0  0  0  0  0  0  0  0  0  0
  -21.4580  -29.2810   22.5100 N   0  0  0  0  0  0  0  0  0  0  0  0
  -23.4240  -28.8990   23.5630 O   0  0  0  0  0  0  0  0  0  0  0  0
  -20.9980  -29.8050   21.7810 H   0  0  0  0  0  0  0  0  0  0  0  0
  -18.0590  -28.1240   22.9260 C   0  0  0  0  0  0  0  0  0  0  0  0
  -20.6120  -28.3610   23.2670 C   0  0  0  0  0  3  0  0  0  0  0  0
  -20.7200  -26.9230   22.7090 C   0  0  0  0  0  2  0  0  0  0  0  0
  -19.6420  -26.5980   21.6720 C   0  0  0  0  0  2  0  0  0  0  0  0
  -18.2420  -26.7630   22.2730 C   0  0  0  0  0  2  0  0  0  0  0  0
  -19.1740  -28.8820   23.3740 C   0  0  0  0  0  0  0  0  0  0  0  0
  -18.9490  -30.1550   23.9400 C   0  0  0  0  0  3  0  0  0  0  0  0
  -17.6460  -30.6740   24.0610 C   0  0  0  0  0  3  0  0  0  0  0  0
  -16.5460  -29.9100   23.6350 C   0  0  0  0  0  3  0  0  0  0  0  0
  -16.7520  -28.6390   23.0710 C   0  0  0  0  0  3  0  0  0  0  0  0
  -25.8130  -32.6340   24.0180 C   0  0  0  0  0  3  0  0  0  0  0  0
  -25.4840  -34.0460   24.2550 N   0  0  0  0  0  0  0  0  0  0  0  0
  -25.8680  -35.0610   23.4690 C   0  0  0  0  0  0  0  0  0  0  0  0
  -26.6080  -34.9080   22.4920 O   0  0  0  0  0  0  0  0  0  0  0  0
  -24.8360  -34.2410   25.0070 H   0  0  0  0  0  0  0  0  0  0  0  0
  -24.1930  -36.8430   22.8830 C   0  0  0  0  0  1  0  0  0  0  0  0
  -25.3520  -36.4680   23.8220 C   0  0  0  0  0  3  0  0  0  0  0  0
  -27.3970  -37.3850   24.8210 C   0  0  0  0  0  1  0  0  0  0  0  0
  -26.3970  -37.5140   23.7640 N   0  0  0  0  0  0  0  0  0  0  0  0
  -25.9840  -38.4390   23.8370 H   0  0  0  0  0  0  0  0  0  0  0  0
  -26.2630  -31.9320   25.3580 C   0  0  1  0  0  0  0  0  0  0  0  0
  -25.1080  -31.7060   26.3620 C   0  0  0  0  0  1  0  0  0  0  0  0
  -26.9020  -30.5600   25.0510 C   0  0  0  0  0  1  0  0  0  0  0  0
  -27.3490  -32.7850   26.0570 C   0  0  0  0  0  1  0  0  0  0  0  0
  1  3  1  0
  2  6  1  0
  2  1  2  0
  3  7  2  0
  3 54  1  0
  4  8  1  0
  4  7  1  0
  5  8  1  0
  6  4  2  0
  8 14  1  0
  9 11  1  0
 11  1  1  0
 11 10  1  0
 13 12  1  0
 13  2  1  0
 14 15  1  0
 16 24  1  0
 17 22  1  0
 18 19  1  0
 18 17  1  0
 20 19  1  0
 20 29  1  0
 20 21  1  0
 22 16  1  0
 22 21  1  0
 23 16  2  0
 24 15  1  0
 24 25  1  0
 26 27  2  0
 27 46  1  0
 28 27  1  0
 28 31  1  0
 29 30  1  0
 29 26  1  0
 30 28  2  0
 31 32  1  0
 32 33  2  0
 34 37  1  0
 34 33  1  0
 35 34  2  0
 36 35  1  0
 36 31  2  0
 37 38  1  0
 38 39  1  0
 39 40  2  0
 41 40  1  0
 41 45  1  0
 42 41  2  0
 43 38  2  0
 43 42  1  0
 44 43  1  0
 46 47  1  0
 47 50  1  0
 47 49  1  0
 48 46  2  0
 51 52  1  0
 51 26  1  0
 53 51  1  0
 55 54  1  0
 55 56  1  0
 57 56  1  0
 58 69  2  0
 59 57  1  0
 59 64  1  0
 60 68  1  0
 60 70  1  0
 61 63  1  0
 62 68  1  0
 63 64  2  0
 63 62  1  0
 65 59  2  0
 66 65  1  0
 66 61  2  0
 67 61  1  0
 67 60  1  0
 68 58  1  0
 70 72  2  0
 71 70  1  0
 73 71  1  0
 74 83  2  0
 74 79  1  0
 75 71  1  0
 75 79  1  0
 76 75  1  0
 77 78  1  0
 77 76  1  0
 78 74  1  0
 79 80  2  0
 80 81  1  0
 82 81  2  0
 83 82  1  0
 84 58  1  0
 84 85  1  0
 84 94  1  0
 85 88  1  0
 86 90  1  0
 86 85  1  0
 87 86  2  0
 90 89  1  0
 92 90  1  0
 92 93  1  0
 92 91  1  0
 94 97  1  1
 94 95  1  0
 96 94  1  0
M  ISO  4  16 100  24 100  56 101  57 101
M  END
>  <TORSDO>  (8) 
F 23

>  <SCORE>  (8) 
-12.225

>  <name>  (8) 
7

>  <ligand_id>  (8) 
7

>  <original_smiles>  (8) 
[H]c1c([H])c([H])c2c(c1[H])C([H])([H])C([H])([H])C([H])([H])C2([H])N([H])C(=O)C1([H])N(C(=O)C([H])(N([H])C(=O)C([H])(N([H])C([H])([H])[H])C([H])([H])[H])C(C([H])([H])[H])(C([H])([H])[H])C([H])([H])[H])C([H])([H])c2c([H])c(OC([H])([H])C([H])([H])Oc3nc(N(C([H])([H])[H])C([H])([H])C([H])([H])N([H])C(=O)N4C([H])([H])C([H])([H])C([H])([H])C([H])(n5nc(-c6c([H])c([H])c(Oc7c([H])c([H])c(F)c([H])c7F)c([H])c6[H])c(C(=O)N([H])[H])c5N([H])[H])C4([H])[H])nc(C([H])([H])C([H])([H])[H])c3C([H])(C([H])([H])[H])C([H])([H])[H])c([H])c([H])c2C1([H])[H]

>  <smiles>  (8) 
[H]c1c([H])c([H])c2c(c1[H])C([H])([H])C([H])([H])C([H])([H])C2([H])N([H])C(=O)C1([H])N(C(=O)C([H])(N([H])C(=O)C([H])(N([H])C([H])([H])[H])C([H])([H])[H])C(C([H])([H])[H])(C([H])([H])[H])C([H])([H])[H])C([H])([H])c2c([H])c(OC([H])([H])C([H])([H])Oc3nc(N(C([H])([H])[H])C([H])([H])C([H])([H])N([H])C(=O)N4C([H])([H])C([H])([H])C([H])([H])C([H])(n5nc(-c6c([H])c([H])c(Oc7c([H])c([H])c(F)c([H])c7F)c([H])c6[H])c(C(=O)N([H])[H])c5N([H])[H])C4([H])[H])nc(C([H])([H])C([H])([H])[H])c3C([H])(C([H])([H])[H])C([H])([H])[H])c([H])c([H])c2C1([H])[H]

$$$$
8:0:0
     RDKit          3D

 91 98  0  0  1  0  0  0  0  0999 V2000
  -27.4460  -22.4030   22.2070 C   0  0  0  0  0  1  0  0  0  0  0  0
  -26.4730  -23.0250   20.0000 C   0  0  0  0  0  1  0  0  0  0  0  0
  -27.7920  -22.9510   20.8000 C   0  0  1  0  0  0  0  0  0  0  0  0
  -28.3010  -24.4250   21.0240 C   0  0  0  0  0  2  0  0  0  0  0  0
  -28.5830  -25.3810   19.8220 C   0  0  0  0  0  2  0  0  0  0  0  0
  -28.5240  -26.7870   20.1950 O   0  0  0  0  0  0  0  0  0  0  0  0
  -24.6250  -31.9410   23.2700 C   0  0  0  0  0  0  0  0  0  0  0  0
  -27.3250  -27.4920   20.1890 C   0  0  0  0  0  0  0  0  0  0  0  0
  -23.4380  -30.5230   21.6290 C   0  0  0  0  0  3  0  0  0  0  0  0
  -24.9070  -28.9970   20.2040 C   0  0  0  0  0  0  0  0  0  0  0  0
  -25.9600  -30.9030   21.4320 C   0  0  0  0  0  2  0  0  0  0  0  0
  -26.0630  -29.5290   20.7900 C   0  0  0  0  0  0  0  0  0  0  0  0
  -27.2710  -28.7840   20.7760 C   0  0  0  0  0  3  0  0  0  0  0  0
  -26.1410  -26.9830   19.6060 C   0  0  0  0  0  3  0  0  0  0  0  0
  -24.9450  -27.7240   19.6120 C   0  0  0  0  0  3  0  0  0  0  0  0
  -23.6520  -29.8430   20.2500 C   0  0  0  0  0  2  0  0  0  0  0  0
  -24.6920  -31.1420   22.1670 N   0  0  0  0  0  0  0  0  0  0  0  0
  -23.5380  -32.2020   23.8050 O   0  0  0  0  0  0  0  0  0  0  0  0
  -22.7970  -29.4960   22.5900 C   0  0  0  0  0  0  0  0  0  0  0  0
  -21.4770  -29.2930   22.4530 N   0  0  0  0  0  0  0  0  0  0  0  0
  -23.4860  -28.8870   23.4150 O   0  0  0  0  0  0  0  0  0  0  0  0
  -20.9870  -29.8270   21.7510 H   0  0  0  0  0  0  0  0  0  0  0  0
  -18.1170  -28.0630   22.9310 C   0  0  0  0  0  0  0  0  0  0  0  0
  -20.6680  -28.3440   23.2190 C   0  0  0  0  0  3  0  0  0  0  0  0
  -20.7890  -26.9140   22.6390 C   0  0  0  0  0  2  0  0  0  0  0  0
  -19.6950  -26.5720   21.6210 C   0  0  0  0  0  2  0  0  0  0  0  0
  -18.3070  -26.7140   22.2550 C   0  0  0  0  0  2  0  0  0  0  0  0
  -19.2260  -28.8340   23.3690 C   0  0  0  0  0  0  0  0  0  0  0  0
  -18.9900  -30.0950   23.9610 C   0  0  0  0  0  3  0  0  0  0  0  0
  -17.6780  -30.5820   24.1190 C   0  0  0  0  0  3  0  0  0  0  0  0
  -16.5840  -29.8050   23.7040 C   0  0  0  0  0  3  0  0  0  0  0  0
  -16.8050  -28.5460   23.1160 C   0  0  0  0  0  3  0  0  0  0  0  0
  -25.9020  -32.5820   23.9020 C   0  0  0  0  0  3  0  0  0  0  0  0
  -25.5860  -33.9810   24.2160 N   0  0  0  0  0  0  0  0  0  0  0  0
  -25.9220  -35.0270   23.4510 C   0  0  0  0  0  0  0  0  0  0  0  0
  -26.6000  -34.9150   22.4260 O   0  0  0  0  0  0  0  0  0  0  0  0
  -24.9750  -34.1410   25.0040 H   0  0  0  0  0  0  0  0  0  0  0  0
  -24.1860  -36.8020   23.0610 C   0  0  0  0  0  1  0  0  0  0  0  0
  -25.4210  -36.4150   23.8880 C   0  0  0  0  0  3  0  0  0  0  0  0
  -27.5460  -37.3140   24.7270 C   0  0  0  0  0  1  0  0  0  0  0  0
  -26.4500  -37.4720   23.7740 N   0  0  0  0  0  0  0  0  0  0  0  0
  -26.0380  -38.3940   23.9030 H   0  0  0  0  0  0  0  0  0  0  0  0
  -26.4140  -31.8240   25.1890 C   0  0  1  0  0  0  0  0  0  0  0  0
  -25.3140  -31.5880   26.2520 C   0  0  0  0  0  1  0  0  0  0  0  0
  -27.0060  -30.4480   24.8080 C   0  0  0  0  0  1  0  0  0  0  0  0
  -27.5610  -32.6270   25.8450 C   0  0  0  0  0  1  0  0  0  0  0  0
  -28.8640  -22.0000   20.1300 C   0  0  0  0  0  2  0  0  0  0  0  0
  -27.9730  -20.1330   18.7890 C   0  0  0  0  0  1  0  0  0  0  0  0
  -28.5210  -20.5230   20.1110 N   0  0  1  0  0  4  0  0  0  0  0  0
  -27.7820  -20.4100   20.7920 H   0  0  0  0  0  0  0  0  0  0  0  0
  -29.6290  -19.5860   20.5430 C   0  0  0  0  0  3  0  0  0  0  0  0
  -29.2410  -18.0570   20.6440 C   0  0  0  0  0  3  0  0  0  0  0  0
  -30.3330  -17.0710   21.1760 C   0  0  0  0  0  2  0  0  0  0  0  0
  -30.6810  -14.6340   20.4840 C   0  0  0  0  0  0  0  0  0  0  0  0
  -30.4180  -12.4650   19.3050 C   0  0  0  0  0  2  0  0  0  0  0  0
  -29.5000  -12.6360   18.0750 C   0  0  0  0  0  2  0  0  0  0  0  0
  -28.0260  -12.4700   18.4870 C   0  0  0  0  0  2  0  0  0  0  0  0
  -27.6620  -13.3340   19.7230 C   0  0  0  0  0  3  0  0  0  0  0  0
  -28.6920  -13.1350   20.8580 C   0  0  0  0  0  2  0  0  0  0  0  0
  -30.0210  -13.4520   20.3210 N   0  0  0  0  0  0  0  0  0  0  0  0
  -31.8170  -14.8230   20.0410 O   0  0  0  0  0  0  0  0  0  0  0  0
  -29.9530  -15.6400   21.0310 N   0  0  0  0  0  0  0  0  0  0  0  0
  -29.0270  -15.3840   21.3460 H   0  0  0  0  0  0  0  0  0  0  0  0
  -25.2700  -13.9590   20.4070 C   0  0  0  0  0  0  0  0  0  0  0  0
  -24.1980  -13.1930   20.7850 C   0  0  0  0  0  0  0  0  0  0  0  0
  -24.6580  -11.8420   20.7800 C   0  0  0  0  0  0  0  0  0  0  0  0
  -26.3100  -13.0700   20.1960 N   0  0  0  0  0  0  0  0  0  0  0  0
  -25.9480  -11.7930   20.4800 N   0  0  0  0  0  0  0  0  0  0  0  0
  -23.9280  -10.5830   20.9810 C   0  0  0  0  0  0  0  0  0  0  0  0
  -24.3510   -9.6290   21.9320 C   0  0  0  0  0  3  0  0  0  0  0  0
  -23.6250   -8.4340   22.1170 C   0  0  0  0  0  3  0  0  0  0  0  0
  -22.4590   -8.1880   21.3500 C   0  0  0  0  0  0  0  0  0  0  0  0
  -22.0570   -9.1320   20.3890 C   0  0  0  0  0  3  0  0  0  0  0  0
  -22.7860  -10.3180   20.2030 C   0  0  0  0  0  3  0  0  0  0  0  0
  -21.7000   -7.0470   21.4460 O   0  0  0  0  0  0  0  0  0  0  0  0
  -21.6390   -6.3180   22.6080 C   0  0  0  0  0  0  0  0  0  0  0  0
  -21.2010   -6.8880   23.8240 C   0  0  0  0  0  3  0  0  0  0  0  0
  -21.0890   -6.0830   24.9770 C   0  0  0  0  0  3  0  0  0  0  0  0
  -21.4040   -4.7120   24.9120 C   0  0  0  0  0  0  0  0  0  0  0  0
  -21.8350   -4.1440   23.7000 C   0  0  0  0  0  3  0  0  0  0  0  0
  -21.9480   -4.9450   22.5510 C   0  0  0  0  0  0  0  0  0  0  0  0
  -22.3430   -4.3880   21.3800 F   0  0  0  0  0  0  0  0  0  0  0  0
  -21.2880   -3.9370   26.0160 F   0  0  0  0  0  0  0  0  0  0  0  0
  -22.7990  -13.6800   21.0340 C   0  0  0  0  0  0  0  0  0  0  0  0
  -22.0640  -12.9940   21.9040 N   0  0  0  0  0  0  0  0  0  0  0  0
  -22.3690  -14.6960   20.4970 O   0  0  0  0  0  0  0  0  0  0  0  0
  -22.4240  -12.1710   22.3610 H   0  0  0  0  0  0  0  0  0  0  0  0
  -21.1250  -13.3020   22.1110 H   0  0  0  0  0  0  0  0  0  0  0  0
  -25.4450  -15.3240   20.1970 N   0  0  0  0  0  0  0  0  0  0  0  0
  -24.6610  -15.9670   20.1960 H   0  0  0  0  0  0  0  0  0  0  0  0
  -26.2880  -15.7190   19.8060 H   0  0  0  0  0  0  0  0  0  0  0  0
  3  2  1  6
  3  4  1  0
  3  1  1  0
  5  6  1  0
  5  4  1  0
  7 18  2  0
  8  6  1  0
  8 13  1  0
  9 17  1  0
  9 19  1  0
 10 16  1  0
 10 12  1  0
 11 17  1  0
 12 11  1  0
 13 12  2  0
 14 15  1  0
 14  8  2  0
 15 10  2  0
 16  9  1  0
 17  7  1  0
 19 21  2  0
 20 19  1  0
 22 20  1  0
 23 32  2  0
 23 28  1  0
 24 20  1  0
 24 28  1  0
 25 24  1  0
 26 27  1  0
 26 25  1  0
 27 23  1  0
 28 29  2  0
 29 30  1  0
 31 30  2  0
 32 31  1  0
 33  7  1  0
 33 34  1  0
 33 43  1  0
 34 37  1  0
 35 39  1  0
 35 34  1  0
 36 35  2  0
 39 38  1  0
 41 39  1  0
 41 42  1  0
 41 40  1  0
 43 46  1  1
 43 44  1  0
 45 43  1  0
 47  3  1  0
 48 49  1  0
 49 47  1  0
 49 51  1  0
 49 50  1  1
 51 52  2  0
 52 53  1  0
 54 62  1  0
 55 60  1  0
 56 57  1  0
 56 55  1  0
 58 57  1  0
 58 67  1  0
 58 59  1  0
 60 54  1  0
 60 59  1  0
 61 54  2  0
 62 53  1  0
 62 63  1  0
 64 65  2  0
 65 84  1  0
 66 65  1  0
 66 69  1  0
 67 64  1  0
 67 68  1  0
 68 66  2  0
 69 70  1  0
 70 71  2  0
 72 75  1  0
 72 71  1  0
 73 72  2  0
 74 73  1  0
 74 69  2  0
 75 76  1  0
 76 77  1  0
 77 78  2  0
 79 78  1  0
 79 83  1  0
 80 79  2  0
 81 76  2  0
 81 80  1  0
 82 81  1  0
 84 85  1  0
 85 88  1  0
 85 87  1  0
 86 84  2  0
 89 64  1  0
 90 89  1  0
 91 89  1  0
M  ISO  4   5 101   6 101  54 100  62 100
M  END
>  <TORSDO>  (9) 
F 23

>  <SCORE>  (9) 
-12.388

>  <name>  (9) 
8

>  <ligand_id>  (9) 
8

>  <original_smiles>  (9) 
[H]c1c([H])c([H])c2c(c1[H])C([H])([H])C([H])([H])C([H])([H])C2([H])N([H])C(=O)C1([H])N(C(=O)C([H])(N([H])C(=O)C([H])(N([H])C([H])([H])[H])C([H])([H])[H])C(C([H])([H])[H])(C([H])([H])[H])C([H])([H])[H])C([H])([H])c2c([H])c(OC([H])([H])C([H])([H])C(C([H])([H])[H])(C([H])([H])[H])C([H])([H])[N+]([H])(C([H])([H])[H])C([H])([H])C([H])([H])C([H])([H])N([H])C(=O)N3C([H])([H])C([H])([H])C([H])([H])C([H])(n4nc(-c5c([H])c([H])c(Oc6c([H])c([H])c(F)c([H])c6F)c([H])c5[H])c(C(=O)N([H])[H])c4N([H])[H])C3([H])[H])c([H])c([H])c2C1([H])[H]

>  <smiles>  (9) 
[H]c1c([H])c([H])c2c(c1[H])C([H])([H])C([H])([H])C([H])([H])C2([H])N([H])C(=O)C1([H])N(C(=O)C([H])(N([H])C(=O)C([H])(N([H])C([H])([H])[H])C([H])([H])[H])C(C([H])([H])[H])(C([H])([H])[H])C([H])([H])[H])C([H])([H])c2c([H])c(OC([H])([H])C([H])([H])C(C([H])([H])[H])(C([H])([H])[H])C([H])([H])[N+]([H])(C([H])([H])[H])C([H])([H])C([H])([H])C([H])([H])N([H])C(=O)N3C([H])([H])C([H])([H])C([H])([H])C([H])(n4nc(-c5c([H])c([H])c(Oc6c([H])c([H])c(F)c([H])c6F)c([H])c5[H])c(C(=O)N([H])[H])c4N([H])[H])C3([H])[H])c([H])c([H])c2C1([H])[H]

$$$$
9:0:0
     RDKit          3D

 83 87  0  0  1  0  0  0  0  0999 V2000
  -28.4490  -23.3580   21.9660 C   0  0  0  0  0  1  0  0  0  0  0  0
  -28.2200  -23.3530   20.4530 C   0  0  0  0  0  1  0  0  0  0  0  0
  -28.2180  -25.2350   20.2090 O   0  0  0  0  0  1  0  0  0  0  0  0
  -24.6900  -31.8550   23.1320 C   0  0  0  0  0  0  0  0  0  0  0  0
  -27.2430  -26.5410   20.2450 C   0  0  0  0  0  0  0  0  0  0  0  0
  -23.5190  -30.4160   21.5240 C   0  0  0  0  0  3  0  0  0  0  0  0
  -24.9780  -28.7100   20.1550 C   0  0  0  0  0  0  0  0  0  0  0  0
  -26.1080  -30.5110   21.4200 C   0  0  0  0  0  2  0  0  0  0  0  0
  -26.1810  -29.0400   20.7890 C   0  0  0  0  0  0  0  0  0  0  0  0
  -27.2870  -27.9940   20.7870 C   0  0  0  0  0  3  0  0  0  0  0  0
  -25.9950  -26.4830   19.5530 C   0  0  0  0  0  3  0  0  0  0  0  0
  -24.9390  -27.4600   19.5100 C   0  0  0  0  0  3  0  0  0  0  0  0
  -23.7750  -29.6810   20.1740 C   0  0  0  0  0  2  0  0  0  0  0  0
  -24.8000  -30.9680   22.0770 N   0  0  0  0  0  0  0  0  0  0  0  0
  -23.5900  -32.1610   23.6290 O   0  0  0  0  0  0  0  0  0  0  0  0
  -22.7920  -29.4670   22.5180 C   0  0  0  0  0  0  0  0  0  0  0  0
  -21.4570  -29.3140   22.4020 N   0  0  0  0  0  0  0  0  0  0  0  0
  -23.4460  -28.8640   23.3710 O   0  0  0  0  0  0  0  0  0  0  0  0
  -20.9750  -29.8500   21.6950 H   0  0  0  0  0  0  0  0  0  0  0  0
  -18.0760  -28.0860   22.9590 C   0  0  0  0  0  0  0  0  0  0  0  0
  -20.6370  -28.3840   23.1930 C   0  0  0  0  0  3  0  0  0  0  0  0
  -20.7440  -26.9440   22.6390 C   0  0  0  0  0  2  0  0  0  0  0  0
  -19.6380  -26.5990   21.6370 C   0  0  0  0  0  2  0  0  0  0  0  0
  -18.2600  -26.7340   22.2900 C   0  0  0  0  0  2  0  0  0  0  0  0
  -19.1910  -28.8670   23.3670 C   0  0  0  0  0  0  0  0  0  0  0  0
  -18.9590  -30.1270   23.9610 C   0  0  0  0  0  3  0  0  0  0  0  0
  -17.6490  -30.6080   24.1450 C   0  0  0  0  0  3  0  0  0  0  0  0
  -16.5490  -29.8260   23.7470 C   0  0  0  0  0  3  0  0  0  0  0  0
  -16.7640  -28.5660   23.1610 C   0  0  0  0  0  3  0  0  0  0  0  0
  -25.9370  -32.5390   23.7690 C   0  0  0  0  0  3  0  0  0  0  0  0
  -25.5870  -33.9370   24.1030 N   0  0  0  0  0  0  0  0  0  0  0  0
  -25.9110  -35.0160   23.3780 C   0  0  0  0  0  0  0  0  0  0  0  0
  -26.5880  -34.9400   22.3500 O   0  0  0  0  0  0  0  0  0  0  0  0
  -24.9810  -34.0660   24.9010 H   0  0  0  0  0  0  0  0  0  0  0  0
  -24.1750  -36.8170   23.0520 C   0  0  0  0  0  1  0  0  0  0  0  0
  -25.4130  -36.3960   23.8620 C   0  0  0  0  0  3  0  0  0  0  0  0
  -27.5290  -37.2900   24.7350 C   0  0  0  0  0  1  0  0  0  0  0  0
  -26.4380  -37.4600   23.7790 N   0  0  0  0  0  0  0  0  0  0  0  0
  -26.0210  -38.3750   23.9320 H   0  0  0  0  0  0  0  0  0  0  0  0
  -26.4470  -31.8010   25.0700 C   0  0  1  0  0  0  0  0  0  0  0  0
  -25.3440  -31.5700   26.1320 C   0  0  0  0  0  1  0  0  0  0  0  0
  -27.0550  -30.4240   24.7280 C   0  0  0  0  0  1  0  0  0  0  0  0
  -27.5790  -32.6240   25.7300 C   0  0  0  0  0  1  0  0  0  0  0  0
  -28.8670  -21.4210   19.9000 C   0  0  0  0  0 15  0  0  0  0  0  0
  -29.4460  -19.4780   20.4720 C   0  0  0  0  0  1  0  0  0  0  0  0
  -30.2560  -16.1340   20.1100 C   0  0  0  0  0  0  0  0  0  0  0  0
  -30.4650  -13.5090   19.2880 C   0  0  0  0  0  2  0  0  0  0  0  0
  -29.5950  -12.8960   18.1420 C   0  0  0  0  0  2  0  0  0  0  0  0
  -28.2190  -12.4500   18.6530 C   0  0  0  0  0  2  0  0  0  0  0  0
  -27.6670  -13.4730   19.6630 C   0  0  0  0  0  3  0  0  0  0  0  0
  -28.6960  -13.9590   20.7200 C   0  0  0  0  0  2  0  0  0  0  0  0
  -29.7700  -14.7110   19.9940 N   0  0  0  0  0  0  0  0  0  0  0  0
  -31.5020  -16.0040   20.0460 O   0  0  0  0  0  0  0  0  0  0  0  0
  -29.5000  -17.5990   20.1120 N   0  0  0  0  0  0  0  0  0  0  0  0
  -28.5360  -17.3440   19.9440 H   0  0  0  0  0  0  0  0  0  0  0  0
  -25.3350  -13.9530   20.5210 C   0  0  0  0  0  0  0  0  0  0  0  0
  -24.2910  -13.1580   20.8960 C   0  0  0  0  0  0  0  0  0  0  0  0
  -24.7670  -11.8130   20.8190 C   0  0  0  0  0  0  0  0  0  0  0  0
  -26.3780  -13.0970   20.2280 N   0  0  0  0  0  0  0  0  0  0  0  0
  -26.0530  -11.7980   20.4700 N   0  0  0  0  0  0  0  0  0  0  0  0
  -24.0470  -10.5430   20.9970 C   0  0  0  0  0  0  0  0  0  0  0  0
  -24.4740   -9.5730   21.9290 C   0  0  0  0  0  3  0  0  0  0  0  0
  -23.7470   -8.3740   22.1000 C   0  0  0  0  0  3  0  0  0  0  0  0
  -22.5770   -8.1370   21.3390 C   0  0  0  0  0  0  0  0  0  0  0  0
  -22.1680   -9.0970   20.3970 C   0  0  0  0  0  3  0  0  0  0  0  0
  -22.8960  -10.2870   20.2240 C   0  0  0  0  0  3  0  0  0  0  0  0
  -21.8240   -6.9910   21.4190 O   0  0  0  0  0  0  0  0  0  0  0  0
  -21.7350   -6.2660   22.5810 C   0  0  0  0  0  0  0  0  0  0  0  0
  -21.2390   -6.8310   23.7750 C   0  0  0  0  0  3  0  0  0  0  0  0
  -21.1010   -6.0320   24.9280 C   0  0  0  0  0  3  0  0  0  0  0  0
  -21.4480   -4.6680   24.8860 C   0  0  0  0  0  0  0  0  0  0  0  0
  -21.9370   -4.1020   23.6950 C   0  0  0  0  0  3  0  0  0  0  0  0
  -22.0770   -4.8980   22.5460 C   0  0  0  0  0  0  0  0  0  0  0  0
  -22.5280   -4.3420   21.3950 F   0  0  0  0  0  0  0  0  0  0  0  0
  -21.3090   -3.8980   25.9900 F   0  0  0  0  0  0  0  0  0  0  0  0
  -22.8980  -13.6240   21.2050 C   0  0  0  0  0  0  0  0  0  0  0  0
  -22.1880  -12.9020   22.0630 N   0  0  0  0  0  0  0  0  0  0  0  0
  -22.4520  -14.6640   20.7220 O   0  0  0  0  0  0  0  0  0  0  0  0
  -22.5640  -12.0610   22.4750 H   0  0  0  0  0  0  0  0  0  0  0  0
  -21.2540  -13.1960   22.3130 H   0  0  0  0  0  0  0  0  0  0  0  0
  -25.4800  -15.3290   20.3690 N   0  0  0  0  0  0  0  0  0  0  0  0
  -24.7100  -15.9730   20.5130 H   0  0  0  0  0  0  0  0  0  0  0  0
  -26.3140  -15.7800   20.0180 H   0  0  0  0  0  0  0  0  0  0  0  0
  2  1  1  0
  3  5  1  0
  4 15  2  0
  5 10  1  0
  6 14  1  0
  6 16  1  0
  7 13  1  0
  7  9  1  0
  8 14  1  0
  9  8  1  0
 10  9  2  0
 11  5  2  0
 12 11  1  0
 12  7  2  0
 13  6  1  0
 14  4  1  0
 16 18  2  0
 17 16  1  0
 19 17  1  0
 20 29  2  0
 20 25  1  0
 21 17  1  0
 21 25  1  0
 22 21  1  0
 23 24  1  0
 23 22  1  0
 24 20  1  0
 25 26  2  0
 26 27  1  0
 28 27  2  0
 29 28  1  0
 30  4  1  0
 30 31  1  0
 30 40  1  0
 31 34  1  0
 32 36  1  0
 32 31  1  0
 33 32  2  0
 36 35  1  0
 38 36  1  0
 38 39  1  0
 38 37  1  0
 40 43  1  1
 40 41  1  0
 42 40  1  0
 46 54  1  0
 47 52  1  0
 48 49  1  0
 48 47  1  0
 50 49  1  0
 50 59  1  0
 50 51  1  0
 52 46  1  0
 52 51  1  0
 53 46  2  0
 54 45  1  0
 55 54  1  0
 56 57  2  0
 57 76  1  0
 58 57  1  0
 58 61  1  0
 59 60  1  0
 59 56  1  0
 60 58  2  0
 61 62  1  0
 62 63  2  0
 64 67  1  0
 64 63  1  0
 65 64  2  0
 66 65  1  0
 66 61  2  0
 67 68  1  0
 68 69  1  0
 69 70  2  0
 71 70  1  0
 71 75  1  0
 72 71  2  0
 73 68  2  0
 73 72  1  0
 74 73  1  0
 76 77  1  0
 77 80  1  0
 77 79  1  0
 78 76  2  0
 81 82  1  0
 81 56  1  0
 83 81  1  0
M  ISO  4   2 101   3 101  46 100  54 100
M  END
>  <TORSDO>  (10) 
F 18

>  <SCORE>  (10) 
-16.120

>  <name>  (10) 
9

>  <ligand_id>  (10) 
9

>  <original_smiles>  (10) 
[H]c1c([H])c([H])c2c(c1[H])C([H])([H])C([H])([H])C([H])([H])C2([H])N([H])C(=O)C1([H])N(C(=O)C([H])(N([H])C(=O)C([H])(N([H])C([H])([H])[H])C([H])([H])[H])C(C([H])([H])[H])(C([H])([H])[H])C([H])([H])[H])C([H])([H])c2c([H])c(OC([H])(C([H])([H])[H])C([H])([H])C([H])([H])N([H])C(=O)N3C([H])([H])C([H])([H])C([H])([H])C([H])(n4nc(-c5c([H])c([H])c(Oc6c([H])c([H])c(F)c([H])c6F)c([H])c5[H])c(C(=O)N([H])[H])c4N([H])[H])C3([H])[H])c([H])c([H])c2C1([H])[H]

>  <smiles>  (10) 
[H]c1c([H])c([H])c2c(c1[H])C([H])([H])C([H])([H])C([H])([H])C2([H])N([H])C(=O)C1([H])N(C(=O)C([H])(N([H])C(=O)C([H])(N([H])C([H])([H])[H])C([H])([H])[H])C(C([H])([H])[H])(C([H])([H])[H])C([H])([H])[H])C([H])([H])c2c([H])c(OC([H])(C([H])([H])[H])C([H])([H])C([H])([H])N([H])C(=O)N3C([H])([H])C([H])([H])C([H])([H])C([H])(n4nc(-c5c([H])c([H])c(Oc6c([H])c([H])c(F)c([H])c6F)c([H])c5[H])c(C(=O)N([H])[H])c4N([H])[H])C3([H])[H])c([H])c([H])c2C1([H])[H]

$$$$
10:0:0
     RDKit          3D

 98106  0  0  1  0  0  0  0  0999 V2000
  -30.2650  -15.0880   20.2480 C   0  0  0  0  0  0  0  0  0  0  0  0
  -30.4330  -12.5760   19.8330 C   0  0  0  0  0  2  0  0  0  0  0  0
  -29.5720  -12.1400   18.6240 C   0  0  0  0  0  2  0  0  0  0  0  0
  -28.1300  -11.8430   19.0750 C   0  0  0  0  0  2  0  0  0  0  0  0
  -27.5640  -12.9580   19.9900 C   0  0  0  0  0  3  0  0  0  0  0  0
  -28.5530  -13.3590   21.1060 C   0  0  0  0  0  2  0  0  0  0  0  0
  -29.7950  -13.7830   20.4480 N   0  0  0  0  0  0  0  0  0  0  0  0
  -31.4780  -15.1720   20.0190 O   0  0  0  0  0  0  0  0  0  0  0  0
  -28.4940  -18.7800   19.6190 C   0  0  0  0  0  3  0  0  0  0  0  0
  -28.7290  -20.2220   19.2840 C   0  0  0  0  0  0  0  0  0  0  0  0
  -30.1120  -20.5070   19.1120 C   0  0  0  0  0  0  0  0  0  0  0  0
  -31.0670  -19.4400   19.1220 C   0  0  0  0  0  0  0  0  0  0  0  0
  -29.5360  -17.7060   19.7070 C   0  0  0  0  0  0  0  0  0  0  0  0
  -30.7690  -18.1420   19.3900 N   0  0  0  0  0  0  0  0  0  0  0  0
  -29.3750  -16.2180   20.1210 N   0  0  0  0  0  0  0  0  0  0  0  0
  -28.4210  -15.9700   20.3290 H   0  0  0  0  0  0  0  0  0  0  0  0
  -25.2020  -13.4840   20.8200 C   0  0  0  0  0  0  0  0  0  0  0  0
  -24.1530  -12.6830   21.1750 C   0  0  0  0  0  0  0  0  0  0  0  0
  -24.6240  -11.3380   21.0670 C   0  0  0  0  0  0  0  0  0  0  0  0
  -26.2430  -12.6250   20.5120 N   0  0  0  0  0  0  0  0  0  0  0  0
  -25.9080  -11.3260   20.7290 N   0  0  0  0  0  0  0  0  0  0  0  0
  -23.9090  -10.0630   21.2110 C   0  0  0  0  0  0  0  0  0  0  0  0
  -24.3750   -9.0420   22.0680 C   0  0  0  0  0  3  0  0  0  0  0  0
  -23.6550   -7.8350   22.2060 C   0  0  0  0  0  3  0  0  0  0  0  0
  -22.4540   -7.6400   21.4820 C   0  0  0  0  0  0  0  0  0  0  0  0
  -22.0060   -8.6500   20.6120 C   0  0  0  0  0  3  0  0  0  0  0  0
  -22.7260   -9.8470   20.4720 C   0  0  0  0  0  3  0  0  0  0  0  0
  -21.7050   -6.4900   21.5280 O   0  0  0  0  0  0  0  0  0  0  0  0
  -21.6910   -5.6850   22.6400 C   0  0  0  0  0  0  0  0  0  0  0  0
  -21.2730   -6.1660   23.9000 C   0  0  0  0  0  3  0  0  0  0  0  0
  -21.2050   -5.2890   25.0010 C   0  0  0  0  0  3  0  0  0  0  0  0
  -21.5480   -3.9320   24.8440 C   0  0  0  0  0  0  0  0  0  0  0  0
  -21.9610   -3.4510   23.5880 C   0  0  0  0  0  3  0  0  0  0  0  0
  -22.0290   -4.3260   22.4910 C   0  0  0  0  0  0  0  0  0  0  0  0
  -22.4050   -3.8520   21.2780 F   0  0  0  0  0  0  0  0  0  0  0  0
  -21.4780   -3.0880   25.9000 F   0  0  0  0  0  0  0  0  0  0  0  0
  -22.7580  -13.1370   21.4970 C   0  0  0  0  0  0  0  0  0  0  0  0
  -22.0470  -12.3910   22.3360 N   0  0  0  0  0  0  0  0  0  0  0  0
  -22.3090  -14.1890   21.0450 O   0  0  0  0  0  0  0  0  0  0  0  0
  -22.4190  -11.5340   22.7190 H   0  0  0  0  0  0  0  0  0  0  0  0
  -21.1150  -12.6810   22.5960 H   0  0  0  0  0  0  0  0  0  0  0  0
  -25.3550  -14.8630   20.7040 N   0  0  0  0  0  0  0  0  0  0  0  0
  -24.5870  -15.5060   20.8600 H   0  0  0  0  0  0  0  0  0  0  0  0
  -26.1840  -15.3220   20.3500 H   0  0  0  0  0  0  0  0  0  0  0  0
  -33.0360  -18.8570   17.6250 C   0  0  0  0  0  1  0  0  0  0  0  0
  -33.4260  -19.3050   20.1000 C   0  0  0  0  0  1  0  0  0  0  0  0
  -32.5710  -19.6400   18.8640 C   0  0  0  0  0  3  0  0  0  0  0  0
  -27.6690  -21.5130   19.3880 C   0  0  0  0  0  2  0  0  0  0  0  0
  -27.3230  -22.8570   18.3790 C   0  0  0  0  0  2  0  0  0  0  0  0
  -27.8760  -24.4620   18.1630 C   0  0  0  0  0  2  0  0  0  0  0  0
  -27.8420  -25.8430   18.9100 O   0  0  0  0  0  0  0  0  0  0  0  0
  -24.7850  -31.2140   22.8600 C   0  0  0  0  0  0  0  0  0  0  0  0
  -26.8480  -26.8900   18.9570 C   0  0  0  0  0  0  0  0  0  0  0  0
  -23.4030  -30.1870   21.0920 C   0  0  0  0  0  3  0  0  0  0  0  0
  -24.6570  -28.7780   19.3330 C   0  0  0  0  0  0  0  0  0  0  0  0
  -25.9570  -30.3070   20.8130 C   0  0  0  0  0  2  0  0  0  0  0  0
  -25.8890  -29.0380   19.9400 C   0  0  0  0  0  0  0  0  0  0  0  0
  -26.9760  -28.1090   19.7420 C   0  0  0  0  0  3  0  0  0  0  0  0
  -25.6040  -26.7410   18.3130 C   0  0  0  0  0  3  0  0  0  0  0  0
  -24.5300  -27.6470   18.5020 C   0  0  0  0  0  3  0  0  0  0  0  0
  -23.4980  -29.7290   19.6090 C   0  0  0  0  0  2  0  0  0  0  0  0
  -24.7400  -30.5820   21.6450 N   0  0  0  0  0  0  0  0  0  0  0  0
  -23.7520  -31.4790   23.4920 O   0  0  0  0  0  0  0  0  0  0  0  0
  -22.7010  -29.0850   21.9250 C   0  0  0  0  0  0  0  0  0  0  0  0
  -21.3580  -29.0510   21.8910 N   0  0  0  0  0  0  0  0  0  0  0  0
  -23.3660  -28.2690   22.5690 O   0  0  0  0  0  0  0  0  0  0  0  0
  -20.8770  -29.7640   21.3600 H   0  0  0  0  0  0  0  0  0  0  0  0
  -17.9190  -28.0490   22.4530 C   0  0  0  0  0  0  0  0  0  0  0  0
  -20.5040  -28.0570   22.5530 C   0  0  0  0  0  3  0  0  0  0  0  0
  -20.4350  -26.7460   21.7350 C   0  0  0  0  0  2  0  0  0  0  0  0
  -19.2430  -26.6950   20.7750 C   0  0  0  0  0  2  0  0  0  0  0  0
  -17.9250  -26.8320   21.5430 C   0  0  0  0  0  2  0  0  0  0  0  0
  -19.1290  -28.6320   22.9140 C   0  0  0  0  0  0  0  0  0  0  0  0
  -19.0680  -29.7810   23.7320 C   0  0  0  0  0  3  0  0  0  0  0  0
  -17.8280  -30.3430   24.0930 C   0  0  0  0  0  3  0  0  0  0  0  0
  -16.6330  -29.7510   23.6480 C   0  0  0  0  0  3  0  0  0  0  0  0
  -16.6800  -28.6050   22.8340 C   0  0  0  0  0  3  0  0  0  0  0  0
  -26.1370  -31.6550   23.5040 C   0  0  0  0  0  3  0  0  0  0  0  0
  -25.9350  -32.9780   24.1190 N   0  0  0  0  0  0  0  0  0  0  0  0
  -26.3580  -34.1390   23.6020 C   0  0  0  0  0  0  0  0  0  0  0  0
  -27.0300  -34.2010   22.5700 O   0  0  0  0  0  0  0  0  0  0  0  0
  -25.3510  -33.0110   24.9420 H   0  0  0  0  0  0  0  0  0  0  0  0
  -24.8190  -36.1300   23.6250 C   0  0  0  0  0  1  0  0  0  0  0  0
  -25.9810  -35.4320   24.3500 C   0  0  0  0  0  3  0  0  0  0  0  0
  -28.1490  -35.9010   25.4030 C   0  0  0  0  0  1  0  0  0  0  0  0
  -27.1060  -36.3790   24.4980 N   0  0  0  0  0  0  0  0  0  0  0  0
  -26.7780  -37.2770   24.8450 H   0  0  0  0  0  0  0  0  0  0  0  0
  -26.6780  -30.6310   24.5770 C   0  0  1  0  0  0  0  0  0  0  0  0
  -25.6380  -30.2510   25.6560 C   0  0  0  0  0  1  0  0  0  0  0  0
  -27.1530  -29.3280   23.8970 C   0  0  0  0  0  1  0  0  0  0  0  0
  -27.9150  -31.2260   25.2920 C   0  0  0  0  0  1  0  0  0  0  0  0
  -30.5730  -21.9730   19.0870 C   0  0  0  0  0  2  0  0  0  0  0  0
  -30.4450  -22.6100   20.4930 C   0  0  0  0  0  2  0  0  0  0  0  0
  -30.4830  -24.1520   20.5030 C   0  0  0  0  0  2  0  0  0  0  0  0
  -30.5390  -26.0960   22.0310 C   0  0  0  0  0  1  0  0  0  0  0  0
  -28.5730  -24.6460   22.0090 C   0  0  0  0  0  1  0  0  0  0  0  0
  -30.0390  -24.7220   21.8040 N   0  0  1  0  0  4  0  0  0  0  0  0
  -30.4590  -24.1620   22.5310 H   0  0  0  0  0  0  0  0  0  0  0  0
  1  7  1  0
  2  7  1  0
  3  4  1  0
  3  2  1  0
  5  4  1  0
  5 20  1  0
  5  6  1  0
  7  6  1  0
  8  1  2  0
  9 13  1  0
 10 48  1  0
 10  9  2  0
 11 12  2  0
 11 10  1  0
 12 14  1  0
 13 15  1  0
 14 13  2  0
 15  1  1  0
 15 16  1  0
 17 18  2  0
 18 37  1  0
 19 18  1  0
 19 22  1  0
 20 21  1  0
 20 17  1  0
 21 19  2  0
 22 23  1  0
 23 24  2  0
 25 28  1  0
 25 24  1  0
 26 25  2  0
 27 26  1  0
 27 22  2  0
 28 29  1  0
 29 30  1  0
 30 31  2  0
 32 31  1  0
 32 36  1  0
 33 32  2  0
 34 29  2  0
 34 33  1  0
 35 34  1  0
 37 38  1  0
 38 41  1  0
 38 40  1  0
 39 37  2  0
 42 17  1  0
 42 43  1  0
 44 42  1  0
 45 47  1  0
 47 12  1  0
 47 46  1  0
 49 48  1  0
 50 49  1  0
 50 51  1  0
 51 53  1  0
 52 63  2  0
 53 58  1  0
 54 62  1  0
 54 64  1  0
 55 61  1  0
 55 57  1  0
 56 62  1  0
 57 56  1  0
 58 57  2  0
 59 60  1  0
 59 53  2  0
 60 55  2  0
 61 54  1  0
 62 52  1  0
 64 66  2  0
 65 64  1  0
 67 65  1  0
 68 77  2  0
 68 73  1  0
 69 65  1  0
 69 73  1  0
 70 69  1  0
 71 72  1  0
 71 70  1  0
 72 68  1  0
 73 74  2  0
 74 75  1  0
 76 75  2  0
 77 76  1  0
 78 52  1  0
 78 79  1  0
 78 88  1  0
 79 82  1  0
 80 79  1  0
 80 84  1  0
 81 80  2  0
 84 83  1  0
 84 86  1  0
 86 87  1  0
 86 85  1  0
 88 91  1  1
 88 89  1  0
 90 88  1  0
 92 11  1  0
 92 93  1  0
 93 94  1  0
 94 97  1  0
 97 96  1  0
 97 95  1  0
 97 98  1  1
M  ISO  4   1 100  15 100  50 101  51 101
M  END
>  <TORSDO>  (11) 
F 23

>  <SCORE>  (11) 
-12.058

>  <name>  (11) 
10

>  <ligand_id>  (11) 
10

>  <original_smiles>  (11) 
[H]c1c([H])c([H])c2c(c1[H])C([H])([H])C([H])([H])C([H])([H])C2([H])N([H])C(=O)C1([H])N(C(=O)C([H])(N([H])C(=O)C([H])(N([H])C([H])([H])[H])C([H])([H])[H])C(C([H])([H])[H])(C([H])([H])[H])C([H])([H])[H])C([H])([H])c2c([H])c(OC([H])([H])C([H])([H])C([H])([H])c3c([H])c(N([H])C(=O)N4C([H])([H])C([H])([H])C([H])([H])C([H])(n5nc(-c6c([H])c([H])c(Oc7c([H])c([H])c(F)c([H])c7F)c([H])c6[H])c(C(=O)N([H])[H])c5N([H])[H])C4([H])[H])nc(C([H])(C([H])([H])[H])C([H])([H])[H])c3C([H])([H])C([H])([H])C([H])([H])[N+]([H])(C([H])([H])[H])C([H])([H])[H])c([H])c([H])c2C1([H])[H]

>  <smiles>  (11) 
[H]c1c([H])c([H])c2c(c1[H])C([H])([H])C([H])([H])C([H])([H])C2([H])N([H])C(=O)C1([H])N(C(=O)C([H])(N([H])C(=O)C([H])(N([H])C([H])([H])[H])C([H])([H])[H])C(C([H])([H])[H])(C([H])([H])[H])C([H])([H])[H])C([H])([H])c2c([H])c(OC([H])([H])C([H])([H])C([H])([H])c3c([H])c(N([H])C(=O)N4C([H])([H])C([H])([H])C([H])([H])C([H])(n5nc(-c6c([H])c([H])c(Oc7c([H])c([H])c(F)c([H])c7F)c([H])c6[H])c(C(=O)N([H])[H])c5N([H])[H])C4([H])[H])nc(C([H])(C([H])([H])[H])C([H])([H])[H])c3C([H])([H])C([H])([H])C([H])([H])[N+]([H])(C([H])([H])[H])C([H])([H])[H])c([H])c([H])c2C1([H])[H]

$$$$
11:0:0
     RDKit          3D

 96104  0  0  1  0  0  0  0  0999 V2000
  -30.5780  -18.9780   21.8570 C   0  0  0  0  0  3  0  0  0  0  0  0
  -29.3020  -19.9560   20.3470 C   0  0  0  0  0  3  0  0  0  0  0  0
  -29.8670  -18.7040   20.6690 C   0  0  0  0  0  0  0  0  0  0  0  0
  -30.5610  -20.3220   22.1460 C   0  0  0  0  0  0  0  0  0  0  0  0
  -29.6900  -20.9920   21.2550 N   0  0  0  0  0  0  0  0  0  0  0  0
  -29.8790  -17.2980   19.9190 C   0  0  0  0  0  2  0  0  0  0  0  0
  -30.6090  -14.8100   20.3520 C   0  0  0  0  0  0  0  0  0  0  0  0
  -30.4240  -12.5290   19.3570 C   0  0  0  0  0  2  0  0  0  0  0  0
  -29.5050  -12.6280   18.1190 C   0  0  0  0  0  2  0  0  0  0  0  0
  -28.0290  -12.4450   18.5280 C   0  0  0  0  0  2  0  0  0  0  0  0
  -27.6440  -13.3190   19.7540 C   0  0  0  0  0  3  0  0  0  0  0  0
  -28.6880  -13.2230   20.8890 C   0  0  0  0  0  2  0  0  0  0  0  0
  -29.9970  -13.5720   20.3220 N   0  0  0  0  0  0  0  0  0  0  0  0
  -31.7710  -14.9220   19.9530 O   0  0  0  0  0  0  0  0  0  0  0  0
  -29.8270  -15.9290   20.6020 N   0  0  0  0  0  0  0  0  0  0  0  0
  -28.9280  -15.7080   21.0050 H   0  0  0  0  0  0  0  0  0  0  0  0
  -25.2450  -13.9120   20.4470 C   0  0  0  0  0  0  0  0  0  0  0  0
  -24.1780  -13.1410   20.8200 C   0  0  0  0  0  0  0  0  0  0  0  0
  -24.6450  -11.7910   20.8070 C   0  0  0  0  0  0  0  0  0  0  0  0
  -26.2950  -13.0320   20.2290 N   0  0  0  0  0  0  0  0  0  0  0  0
  -25.9400  -11.7520   20.5070 N   0  0  0  0  0  0  0  0  0  0  0  0
  -23.9180  -10.5310   21.0070 C   0  0  0  0  0  0  0  0  0  0  0  0
  -24.3540   -9.5670   21.9440 C   0  0  0  0  0  3  0  0  0  0  0  0
  -23.6270   -8.3720   22.1310 C   0  0  0  0  0  3  0  0  0  0  0  0
  -22.4520   -8.1290   21.3820 C   0  0  0  0  0  0  0  0  0  0  0  0
  -22.0360   -9.0810   20.4320 C   0  0  0  0  0  3  0  0  0  0  0  0
  -22.7630  -10.2680   20.2430 C   0  0  0  0  0  3  0  0  0  0  0  0
  -21.6960   -6.9860   21.4770 O   0  0  0  0  0  0  0  0  0  0  0  0
  -21.6490   -6.2460   22.6310 C   0  0  0  0  0  0  0  0  0  0  0  0
  -21.2430   -6.8120   23.8600 C   0  0  0  0  0  3  0  0  0  0  0  0
  -21.1450   -6.0010   25.0090 C   0  0  0  0  0  3  0  0  0  0  0  0
  -21.4400   -4.6270   24.9280 C   0  0  0  0  0  0  0  0  0  0  0  0
  -21.8420   -4.0640   23.7040 C   0  0  0  0  0  3  0  0  0  0  0  0
  -21.9420   -4.8710   22.5590 C   0  0  0  0  0  0  0  0  0  0  0  0
  -22.3080   -4.3180   21.3760 F   0  0  0  0  0  0  0  0  0  0  0  0
  -21.3370   -3.8450   26.0290 F   0  0  0  0  0  0  0  0  0  0  0  0
  -22.7790  -13.6160   21.0810 C   0  0  0  0  0  0  0  0  0  0  0  0
  -22.0500  -12.9260   21.9500 N   0  0  0  0  0  0  0  0  0  0  0  0
  -22.3430  -14.6390   20.5490 O   0  0  0  0  0  0  0  0  0  0  0  0
  -22.4210  -12.1050   22.4050 H   0  0  0  0  0  0  0  0  0  0  0  0
  -21.1080  -13.2210   22.1660 H   0  0  0  0  0  0  0  0  0  0  0  0
  -25.4100  -15.2800   20.2530 N   0  0  0  0  0  0  0  0  0  0  0  0
  -24.6310  -15.9260   20.3070 H   0  0  0  0  0  0  0  0  0  0  0  0
  -26.2580  -15.7150   19.9120 H   0  0  0  0  0  0  0  0  0  0  0  0
  -31.3280  -20.9470   23.2950 C   0  0  0  0  0  2  0  0  0  0  0  0
  -32.8280  -21.2790   23.0190 C   0  0  0  0  0  3  0  0  0  0  0  0
  -33.6510  -20.1850   22.2900 C   0  0  0  0  0  3  0  0  0  0  0  0
  -35.1760  -20.4410   22.1890 C   0  0  0  0  0  2  0  0  0  0  0  0
  -37.4790  -19.4740   21.6160 C   0  0  0  0  0  1  0  0  0  0  0  0
  -35.5560  -19.0570   20.0410 C   0  0  0  0  0  1  0  0  0  0  0  0
  -35.9550  -19.2830   21.5110 C   0  0  0  0  0  3  0  0  0  0  0  0
  -29.2580  -22.4750   21.4740 C   0  0  0  0  0  3  0  0  0  0  0  0
  -28.6920  -23.6000   20.4360 C   0  0  0  0  0  3  0  0  0  0  0  0
  -27.3320  -25.0680   22.1440 C   0  0  0  0  0  1  0  0  0  0  0  0
  -28.4190  -25.1140   21.0500 C   0  0  0  0  0  3  0  0  0  0  0  0
  -28.3390  -26.4060   20.2500 O   0  0  0  0  0  0  0  0  0  0  0  0
  -24.6240  -31.9050   23.2790 C   0  0  0  0  0  0  0  0  0  0  0  0
  -27.2250  -27.2890   20.2680 C   0  0  0  0  0  0  0  0  0  0  0  0
  -23.4210  -30.5110   21.6380 C   0  0  0  0  0  3  0  0  0  0  0  0
  -24.8720  -28.9440   20.2220 C   0  0  0  0  0  0  0  0  0  0  0  0
  -25.9640  -30.8210   21.4520 C   0  0  0  0  0  2  0  0  0  0  0  0
  -26.0450  -29.4300   20.8140 C   0  0  0  0  0  0  0  0  0  0  0  0
  -27.2270  -28.6200   20.8140 C   0  0  0  0  0  3  0  0  0  0  0  0
  -26.0270  -26.8620   19.6580 C   0  0  0  0  0  3  0  0  0  0  0  0
  -24.8670  -27.6640   19.6330 C   0  0  0  0  0  3  0  0  0  0  0  0
  -23.6440  -29.8370   20.2580 C   0  0  0  0  0  2  0  0  0  0  0  0
  -24.6890  -31.0960   22.1820 N   0  0  0  0  0  0  0  0  0  0  0  0
  -23.5400  -32.1870   23.8130 O   0  0  0  0  0  0  0  0  0  0  0  0
  -22.7510  -29.4970   22.5980 C   0  0  0  0  0  0  0  0  0  0  0  0
  -21.4240  -29.3240   22.4700 N   0  0  0  0  0  0  0  0  0  0  0  0
  -23.4280  -28.8630   23.4130 O   0  0  0  0  0  0  0  0  0  0  0  0
  -20.9400  -29.8900   21.7880 H   0  0  0  0  0  0  0  0  0  0  0  0
  -18.0460  -28.1140   22.9570 C   0  0  0  0  0  0  0  0  0  0  0  0
  -20.6000  -28.3860   23.2390 C   0  0  0  0  0  3  0  0  0  0  0  0
  -20.7120  -26.9500   22.6780 C   0  0  0  0  0  2  0  0  0  0  0  0
  -19.6200  -26.6160   21.6570 C   0  0  0  0  0  2  0  0  0  0  0  0
  -18.2340  -26.7610   22.2900 C   0  0  0  0  0  2  0  0  0  0  0  0
  -19.1580  -28.8810   23.3880 C   0  0  0  0  0  0  0  0  0  0  0  0
  -18.9290  -30.1460   23.9720 C   0  0  0  0  0  3  0  0  0  0  0  0
  -17.6210  -30.6400   24.1310 C   0  0  0  0  0  3  0  0  0  0  0  0
  -16.5220  -29.8690   23.7130 C   0  0  0  0  0  3  0  0  0  0  0  0
  -16.7350  -28.6080   23.1280 C   0  0  0  0  0  3  0  0  0  0  0  0
  -25.9050  -32.5340   23.9090 C   0  0  0  0  0  3  0  0  0  0  0  0
  -26.4180  -31.7610   25.1860 C   0  0  1  0  0  0  0  0  0  0  0  0
  -25.3240  -31.5340   26.2560 C   0  0  0  0  0  1  0  0  0  0  0  0
  -27.0000  -30.3800   24.7970 C   0  0  0  0  0  1  0  0  0  0  0  0
  -27.5740  -32.5550   25.8460 C   0  0  0  0  0  1  0  0  0  0  0  0
  -25.5940  -33.9310   24.2410 N   0  0  0  0  0  0  0  0  0  0  0  0
  -25.9270  -34.9850   23.4860 C   0  0  0  0  0  0  0  0  0  0  0  0
  -26.5940  -34.8830   22.4530 O   0  0  0  0  0  0  0  0  0  0  0  0
  -24.9820  -34.0870   25.0300 H   0  0  0  0  0  0  0  0  0  0  0  0
  -24.2000  -36.7860   23.1530 C   0  0  0  0  0  1  0  0  0  0  0  0
  -25.4460  -36.3730   23.9500 C   0  0  0  0  0  3  0  0  0  0  0  0
  -27.5920  -37.2550   24.7570 C   0  0  0  0  0  1  0  0  0  0  0  0
  -26.4770  -37.4250   23.8290 N   0  0  0  0  0  0  0  0  0  0  0  0
  -26.0700  -38.3430   23.9810 H   0  0  0  0  0  0  0  0  0  0  0  0
  1  4  2  0
  2  3  2  0
  2  5  1  0
  3  1  1  0
  4 45  1  0
  5 52  1  0
  5  4  1  0
  6 15  1  0
  6  3  1  0
  7 15  1  0
  8 13  1  0
  9 10  1  0
  9  8  1  0
 11 10  1  0
 11 20  1  0
 11 12  1  0
 13  7  1  0
 13 12  1  0
 14  7  2  0
 15 16  1  0
 17 18  2  0
 18 37  1  0
 19 18  1  0
 19 22  1  0
 20 17  1  0
 20 21  1  0
 21 19  2  0
 22 23  1  0
 23 24  2  0
 25 28  1  0
 25 24  1  0
 26 25  2  0
 27 26  1  0
 27 22  2  0
 28 29  1  0
 29 30  1  0
 30 31  2  0
 32 31  1  0
 32 36  1  0
 33 32  2  0
 34 29  2  0
 34 33  1  0
 35 34  1  0
 37 38  1  0
 38 41  1  0
 38 40  1  0
 39 37  2  0
 42 43  1  0
 42 17  1  0
 44 42  1  0
 46 45  1  0
 47 46  2  0
 48 47  1  0
 50 51  1  0
 51 49  1  0
 51 48  1  0
 53 55  1  0
 53 52  2  0
 55 54  1  0
 56 58  1  0
 56 55  1  0
 57 68  2  0
 58 63  1  0
 59 67  1  0
 59 69  1  0
 60 66  1  0
 60 62  1  0
 61 67  1  0
 62 63  2  0
 62 61  1  0
 64 58  2  0
 65 64  1  0
 65 60  2  0
 66 59  1  0
 67 57  1  0
 69 71  2  0
 70 69  1  0
 72 70  1  0
 73 82  2  0
 73 78  1  0
 74 70  1  0
 74 78  1  0
 75 74  1  0
 76 77  1  0
 76 75  1  0
 77 73  1  0
 78 79  2  0
 79 80  1  0
 81 80  2  0
 82 81  1  0
 83 57  1  0
 83 88  1  0
 83 84  1  0
 84 87  1  1
 84 85  1  0
 86 84  1  0
 88 91  1  0
 89 93  1  0
 89 88  1  0
 90 89  2  0
 93 92  1  0
 95 93  1  0
 95 96  1  0
 95 94  1  0
M  ISO  4   7 100  15 100  55 101  56 101
M  END
>  <TORSDO>  (12) 
F 25

>  <SCORE>  (12) 
-12.486

>  <name>  (12) 
11

>  <ligand_id>  (12) 
11

>  <original_smiles>  (12) 
[H]c1c([H])c([H])c2c(c1[H])C([H])([H])C([H])([H])C([H])([H])C2([H])N([H])C(=O)C1([H])N(C(=O)C([H])(N([H])C(=O)C([H])(N([H])C([H])([H])[H])C([H])([H])[H])C(C([H])([H])[H])(C([H])([H])[H])C([H])([H])[H])C([H])([H])c2c([H])c(OC([H])(C([H])([H])[H])C([H])([H])C([H])([H])n3c([H])c(C([H])([H])N([H])C(=O)N4C([H])([H])C([H])([H])C([H])([H])C([H])(n5nc(-c6c([H])c([H])c(Oc7c([H])c([H])c(F)c([H])c7F)c([H])c6[H])c(C(=O)N([H])[H])c5N([H])[H])C4([H])[H])c([H])c3C([H])([H])C([H])([H])C([H])([H])C([H])([H])C([H])(C([H])([H])[H])C([H])([H])[H])c([H])c([H])c2C1([H])[H]

>  <smiles>  (12) 
[H]c1c([H])c([H])c2c(c1[H])C([H])([H])C([H])([H])C([H])([H])C2([H])N([H])C(=O)C1([H])N(C(=O)C([H])(N([H])C(=O)C([H])(N([H])C([H])([H])[H])C([H])([H])[H])C(C([H])([H])[H])(C([H])([H])[H])C([H])([H])[H])C([H])([H])c2c([H])c(OC([H])(C([H])([H])[H])C([H])([H])C([H])([H])n3c([H])c(C([H])([H])N([H])C(=O)N4C([H])([H])C([H])([H])C([H])([H])C([H])(n5nc(-c6c([H])c([H])c(Oc7c([H])c([H])c(F)c([H])c7F)c([H])c6[H])c(C(=O)N([H])[H])c5N([H])[H])C4([H])[H])c([H])c3C([H])([H])C([H])([H])C([H])([H])C([H])([H])C([H])(C([H])([H])[H])C([H])([H])[H])c([H])c([H])c2C1([H])[H]

$$$$
12:0:0
     RDKit          3D

 96104  0  0  1  0  0  0  0  0999 V2000
  -28.9970  -20.2540   20.8630 C   0  0  0  0  0  3  0  0  0  0  0  0
  -29.6330  -19.2540   20.1820 C   0  0  0  0  0  0  0  0  0  0  0  0
  -30.4610  -19.8990   19.2080 C   0  0  0  0  0  0  0  0  0  0  0  0
  -30.2300  -21.2540   19.2820 C   0  0  0  0  0  0  0  0  0  0  0  0
  -29.3130  -21.4810   20.3050 N   0  0  0  0  0  0  0  0  0  0  0  0
  -30.6010  -18.7650   16.9540 C   0  0  0  0  0  1  0  0  0  0  0  0
  -31.3640  -19.2210   18.2030 C   0  0  0  0  0  2  0  0  0  0  0  0
  -29.3710  -17.7630   20.3640 C   0  0  0  0  0  2  0  0  0  0  0  0
  -30.4620  -16.9310   21.0700 C   0  0  0  0  0  2  0  0  0  0  0  0
  -30.7060  -14.5360   20.3400 C   0  0  0  0  0  0  0  0  0  0  0  0
  -30.3350  -12.4350   19.1050 C   0  0  0  0  0  2  0  0  0  0  0  0
  -29.3620  -12.6920   17.9340 C   0  0  0  0  0  2  0  0  0  0  0  0
  -27.9030  -12.5350   18.3990 C   0  0  0  0  0  2  0  0  0  0  0  0
  -27.6040  -13.3280   19.6980 C   0  0  0  0  0  3  0  0  0  0  0  0
  -28.6880  -13.0730   20.7700 C   0  0  0  0  0  2  0  0  0  0  0  0
  -30.0040  -13.3800   20.1810 N   0  0  0  0  0  0  0  0  0  0  0  0
  -31.7810  -14.7510   19.7780 O   0  0  0  0  0  0  0  0  0  0  0  0
  -30.0980  -15.5000   21.0530 N   0  0  0  0  0  0  0  0  0  0  0  0
  -29.2320  -15.2390   21.5010 H   0  0  0  0  0  0  0  0  0  0  0  0
  -25.2130  -13.9020   20.4510 C   0  0  0  0  0  0  0  0  0  0  0  0
  -24.1590  -13.1130   20.8330 C   0  0  0  0  0  0  0  0  0  0  0  0
  -24.6350  -11.7670   20.7850 C   0  0  0  0  0  0  0  0  0  0  0  0
  -26.2630  -13.0330   20.1970 N   0  0  0  0  0  0  0  0  0  0  0  0
  -25.9210  -11.7450   20.4560 N   0  0  0  0  0  0  0  0  0  0  0  0
  -23.9270  -10.4940   20.9790 C   0  0  0  0  0  0  0  0  0  0  0  0
  -24.3690   -9.5410   21.9210 C   0  0  0  0  0  3  0  0  0  0  0  0
  -23.6610   -8.3330   22.1050 C   0  0  0  0  0  3  0  0  0  0  0  0
  -22.4970   -8.0710   21.3450 C   0  0  0  0  0  0  0  0  0  0  0  0
  -22.0740   -9.0150   20.3910 C   0  0  0  0  0  3  0  0  0  0  0  0
  -22.7830  -10.2140   20.2060 C   0  0  0  0  0  3  0  0  0  0  0  0
  -21.7600   -6.9140   21.4370 O   0  0  0  0  0  0  0  0  0  0  0  0
  -21.6990   -6.1900   22.6010 C   0  0  0  0  0  0  0  0  0  0  0  0
  -21.2130   -6.7510   23.8020 C   0  0  0  0  0  3  0  0  0  0  0  0
  -21.1010   -5.9520   24.9580 C   0  0  0  0  0  3  0  0  0  0  0  0
  -21.4640   -4.5940   24.9130 C   0  0  0  0  0  0  0  0  0  0  0  0
  -21.9440   -4.0310   23.7160 C   0  0  0  0  0  3  0  0  0  0  0  0
  -22.0570   -4.8270   22.5630 C   0  0  0  0  0  0  0  0  0  0  0  0
  -22.4980   -4.2760   21.4060 F   0  0  0  0  0  0  0  0  0  0  0  0
  -21.3490   -3.8230   26.0200 F   0  0  0  0  0  0  0  0  0  0  0  0
  -22.7640  -13.5720   21.1370 C   0  0  0  0  0  0  0  0  0  0  0  0
  -22.0600  -12.8530   22.0060 N   0  0  0  0  0  0  0  0  0  0  0  0
  -22.3030  -14.5970   20.6390 O   0  0  0  0  0  0  0  0  0  0  0  0
  -22.4540  -12.0230   22.4260 H   0  0  0  0  0  0  0  0  0  0  0  0
  -21.1240  -13.1360   22.2580 H   0  0  0  0  0  0  0  0  0  0  0  0
  -25.3620  -15.2740   20.2820 N   0  0  0  0  0  0  0  0  0  0  0  0
  -24.5910  -15.9240   20.3910 H   0  0  0  0  0  0  0  0  0  0  0  0
  -26.2040  -15.7110   19.9270 H   0  0  0  0  0  0  0  0  0  0  0  0
  -30.7730  -22.3450   18.3980 C   0  0  0  0  0  2  0  0  0  0  0  0
  -32.6520  -24.0370   17.9620 C   0  0  0  0  0  1  0  0  0  0  0  0
  -32.1330  -22.9030   18.8570 C   0  0  0  0  0  2  0  0  0  0  0  0
  -28.6310  -22.7230   20.6910 C   0  0  0  0  0  2  0  0  0  0  0  0
  -29.5130  -23.9590   20.9780 C   0  0  0  0  0  2  0  0  0  0  0  0
  -28.9800  -24.8160   23.3040 C   0  0  0  0  0  1  0  0  0  0  0  0
  -28.7610  -25.0370   21.7980 C   0  0  0  0  0  3  0  0  0  0  0  0
  -29.1200  -26.4810   21.3800 C   0  0  0  0  0  2  0  0  0  0  0  0
  -28.5040  -26.7820   20.1260 O   0  0  0  0  0  0  0  0  0  0  0  0
  -24.6120  -31.8900   23.2370 C   0  0  0  0  0  0  0  0  0  0  0  0
  -27.3340  -27.5050   20.1770 C   0  0  0  0  0  0  0  0  0  0  0  0
  -23.4260  -30.4770   21.5850 C   0  0  0  0  0  3  0  0  0  0  0  0
  -24.9080  -28.9540   20.1690 C   0  0  0  0  0  0  0  0  0  0  0  0
  -25.9420  -30.8740   21.3930 C   0  0  0  0  0  2  0  0  0  0  0  0
  -26.0510  -29.5010   20.7660 C   0  0  0  0  0  0  0  0  0  0  0  0
  -27.2650  -28.7830   20.7730 C   0  0  0  0  0  3  0  0  0  0  0  0
  -26.1830  -26.9680   19.5650 C   0  0  0  0  0  3  0  0  0  0  0  0
  -24.9680  -27.6810   19.5650 C   0  0  0  0  0  3  0  0  0  0  0  0
  -23.6490  -29.7920   20.2070 C   0  0  0  0  0  2  0  0  0  0  0  0
  -24.6780  -31.0940   22.1320 N   0  0  0  0  0  0  0  0  0  0  0  0
  -23.5260  -32.1510   23.7740 O   0  0  0  0  0  0  0  0  0  0  0  0
  -22.7790  -29.4520   22.5430 C   0  0  0  0  0  0  0  0  0  0  0  0
  -21.4560  -29.2700   22.4180 N   0  0  0  0  0  0  0  0  0  0  0  0
  -23.4660  -28.8240   23.3540 O   0  0  0  0  0  0  0  0  0  0  0  0
  -20.9640  -29.8290   21.7350 H   0  0  0  0  0  0  0  0  0  0  0  0
  -18.0800  -28.0880   22.9290 C   0  0  0  0  0  0  0  0  0  0  0  0
  -20.6410  -28.3270   23.1820 C   0  0  0  0  0  3  0  0  0  0  0  0
  -20.7300  -26.9030   22.5860 C   0  0  0  0  0  2  0  0  0  0  0  0
  -19.6180  -26.6000   21.5770 C   0  0  0  0  0  2  0  0  0  0  0  0
  -18.2430  -26.7470   22.2350 C   0  0  0  0  0  2  0  0  0  0  0  0
  -19.2080  -28.8370   23.3590 C   0  0  0  0  0  0  0  0  0  0  0  0
  -19.0020  -30.0960   23.9670 C   0  0  0  0  0  3  0  0  0  0  0  0
  -17.7020  -30.6040   24.1470 C   0  0  0  0  0  3  0  0  0  0  0  0
  -16.5900  -29.8520   23.7340 C   0  0  0  0  0  3  0  0  0  0  0  0
  -16.7790  -28.5960   23.1310 C   0  0  0  0  0  3  0  0  0  0  0  0
  -25.8910  -32.5300   23.8630 C   0  0  0  0  0  3  0  0  0  0  0  0
  -26.4060  -31.7630   25.1430 C   0  0  1  0  0  0  0  0  0  0  0  0
  -25.3100  -31.5210   26.2060 C   0  0  0  0  0  1  0  0  0  0  0  0
  -26.9980  -30.3900   24.7510 C   0  0  0  0  0  1  0  0  0  0  0  0
  -27.5480  -32.5640   25.8090 C   0  0  0  0  0  1  0  0  0  0  0  0
  -25.5740  -33.9280   24.1830 N   0  0  0  0  0  0  0  0  0  0  0  0
  -25.9110  -34.9780   23.4220 C   0  0  0  0  0  0  0  0  0  0  0  0
  -26.5900  -34.8710   22.3980 O   0  0  0  0  0  0  0  0  0  0  0  0
  -24.9700  -34.0850   24.9770 H   0  0  0  0  0  0  0  0  0  0  0  0
  -24.1870  -36.7650   23.0300 C   0  0  0  0  0  1  0  0  0  0  0  0
  -25.4130  -36.3650   23.8660 C   0  0  0  0  0  3  0  0  0  0  0  0
  -27.5280  -37.2580   24.7370 C   0  0  0  0  0  1  0  0  0  0  0  0
  -26.4460  -37.4190   23.7700 N   0  0  0  0  0  0  0  0  0  0  0  0
  -26.0350  -38.3390   23.9030 H   0  0  0  0  0  0  0  0  0  0  0  0
  2  8  1  0
  2  1  2  0
  3  4  2  0
  3  2  1  0
  4  5  1  0
  5 51  1  0
  5  1  1  0
  6  7  1  0
  7  3  1  0
  8  9  1  0
 10 18  1  0
 11 16  1  0
 12 13  1  0
 12 11  1  0
 14 13  1  0
 14 23  1  0
 14 15  1  0
 16 10  1  0
 16 15  1  0
 17 10  2  0
 18  9  1  0
 18 19  1  0
 20 21  2  0
 21 40  1  0
 22 21  1  0
 22 25  1  0
 23 20  1  0
 23 24  1  0
 24 22  2  0
 25 26  1  0
 26 27  2  0
 28 31  1  0
 28 27  1  0
 29 28  2  0
 30 29  1  0
 30 25  2  0
 31 32  1  0
 32 33  1  0
 33 34  2  0
 35 34  1  0
 35 39  1  0
 36 35  2  0
 37 32  2  0
 37 36  1  0
 38 37  1  0
 40 41  1  0
 41 44  1  0
 41 43  1  0
 42 40  2  0
 45 46  1  0
 45 20  1  0
 47 45  1  0
 48 50  1  0
 48  4  1  0
 49 50  1  0
 51 52  1  0
 52 54  1  0
 54 53  1  0
 55 54  1  0
 56 58  1  0
 56 55  1  0
 57 68  2  0
 58 63  1  0
 59 67  1  0
 59 69  1  0
 60 66  1  0
 60 62  1  0
 61 67  1  0
 62 63  2  0
 62 61  1  0
 64 58  2  0
 65 64  1  0
 65 60  2  0
 66 59  1  0
 67 57  1  0
 69 71  2  0
 70 69  1  0
 72 70  1  0
 73 82  2  0
 73 78  1  0
 74 70  1  0
 74 78  1  0
 75 74  1  0
 76 77  1  0
 76 75  1  0
 77 73  1  0
 78 79  2  0
 79 80  1  0
 81 80  2  0
 82 81  1  0
 83 57  1  0
 83 88  1  0
 83 84  1  0
 84 87  1  1
 84 85  1  0
 86 84  1  0
 88 91  1  0
 89 93  1  0
 89 88  1  0
 90 89  2  0
 93 92  1  0
 95 93  1  0
 95 96  1  0
 95 94  1  0
M  ISO  4  10 100  18 100  55 101  56 101
M  END
>  <TORSDO>  (13) 
F 25

>  <SCORE>  (13) 
-12.427

>  <name>  (13) 
12

>  <ligand_id>  (13) 
12

>  <original_smiles>  (13) 
[H]c1c([H])c([H])c2c(c1[H])C([H])([H])C([H])([H])C([H])([H])C2([H])N([H])C(=O)C1([H])N(C(=O)C([H])(N([H])C(=O)C([H])(N([H])C([H])([H])[H])C([H])([H])[H])C(C([H])([H])[H])(C([H])([H])[H])C([H])([H])[H])C([H])([H])c2c([H])c(OC([H])([H])C([H])(C([H])([H])[H])C([H])([H])C([H])([H])n3c([H])c(C([H])([H])C([H])([H])N([H])C(=O)N4C([H])([H])C([H])([H])C([H])([H])C([H])(n5nc(-c6c([H])c([H])c(Oc7c([H])c([H])c(F)c([H])c7F)c([H])c6[H])c(C(=O)N([H])[H])c5N([H])[H])C4([H])[H])c(C([H])([H])C([H])([H])[H])c3C([H])([H])C([H])([H])C([H])([H])[H])c([H])c([H])c2C1([H])[H]

>  <smiles>  (13) 
[H]c1c([H])c([H])c2c(c1[H])C([H])([H])C([H])([H])C([H])([H])C2([H])N([H])C(=O)C1([H])N(C(=O)C([H])(N([H])C(=O)C([H])(N([H])C([H])([H])[H])C([H])([H])[H])C(C([H])([H])[H])(C([H])([H])[H])C([H])([H])[H])C([H])([H])c2c([H])c(OC([H])([H])C([H])(C([H])([H])[H])C([H])([H])C([H])([H])n3c([H])c(C([H])([H])C([H])([H])N([H])C(=O)N4C([H])([H])C([H])([H])C([H])([H])C([H])(n5nc(-c6c([H])c([H])c(Oc7c([H])c([H])c(F)c([H])c7F)c([H])c6[H])c(C(=O)N([H])[H])c5N([H])[H])C4([H])[H])c(C([H])([H])C([H])([H])[H])c3C([H])([H])C([H])([H])C([H])([H])[H])c([H])c([H])c2C1([H])[H]

$$$$
13:0:0
     RDKit          3D

 94102  0  0  1  0  0  0  0  0999 V2000
  -29.9600  -21.8840   20.6420 C   0  0  0  0  0  3  0  0  0  0  0  0
  -30.0880  -20.3160   19.0810 C   0  0  0  0  0  3  0  0  0  0  0  0
  -29.6760  -21.6280   19.2820 C   0  0  0  0  0  0  0  0  0  0  0  0
  -30.5150  -20.7800   21.2290 C   0  0  0  0  0  0  0  0  0  0  0  0
  -30.6090  -19.7480   20.2630 N   0  0  0  0  0  0  0  0  0  0  0  0
  -30.0850  -21.6330   23.5700 C   0  0  0  0  0  1  0  0  0  0  0  0
  -32.4320  -21.1410   22.8170 C   0  0  0  0  0  1  0  0  0  0  0  0
  -30.9580  -20.7370   22.6750 C   0  0  0  0  0  3  0  0  0  0  0  0
  -32.5250  -18.3890   21.1600 C   0  0  0  0  0  1  0  0  0  0  0  0
  -30.0930  -17.6170   21.4070 C   0  0  0  0  0  1  0  0  0  0  0  0
  -31.1200  -18.3310   20.4990 C   0  0  1  0  0  0  0  0  0  0  0  0
  -31.3130  -17.3510   19.2590 C   0  0  0  0  0  2  0  0  0  0  0  0
  -31.9150  -14.8020   19.3850 C   0  0  0  0  0  0  0  0  0  0  0  0
  -31.6310  -12.3940   18.8280 C   0  0  0  0  0  2  0  0  0  0  0  0
  -30.6040  -12.2620   17.6810 C   0  0  0  0  0  2  0  0  0  0  0  0
  -29.1620  -12.2290   18.2290 C   0  0  0  0  0  2  0  0  0  0  0  0
  -28.8870  -13.3520   19.2630 C   0  0  0  0  0  3  0  0  0  0  0  0
  -30.0170  -13.4150   20.3190 C   0  0  0  0  0  2  0  0  0  0  0  0
  -31.2920  -13.6030   19.6030 N   0  0  0  0  0  0  0  0  0  0  0  0
  -33.0140  -14.8830   18.8290 O   0  0  0  0  0  0  0  0  0  0  0  0
  -31.1650  -15.9040   19.6480 N   0  0  0  0  0  0  0  0  0  0  0  0
  -30.2890  -15.6970   20.1030 H   0  0  0  0  0  0  0  0  0  0  0  0
  -26.6720  -14.1840   20.2820 C   0  0  0  0  0  0  0  0  0  0  0  0
  -25.5630  -13.5220   20.7270 C   0  0  0  0  0  0  0  0  0  0  0  0
  -25.8320  -12.1330   20.5410 C   0  0  0  0  0  0  0  0  0  0  0  0
  -27.5670  -13.2050   19.8760 N   0  0  0  0  0  0  0  0  0  0  0  0
  -27.0650  -11.9600   20.0810 N   0  0  0  0  0  0  0  0  0  0  0  0
  -24.9630  -10.9630   20.7170 C   0  0  0  0  0  0  0  0  0  0  0  0
  -25.2190   -9.9990   21.7180 C   0  0  0  0  0  3  0  0  0  0  0  0
  -24.3590   -8.8920   21.8820 C   0  0  0  0  0  3  0  0  0  0  0  0
  -23.2310   -8.7410   21.0410 C   0  0  0  0  0  0  0  0  0  0  0  0
  -22.9940   -9.6910   20.0320 C   0  0  0  0  0  3  0  0  0  0  0  0
  -23.8540  -10.7900   19.8680 C   0  0  0  0  0  3  0  0  0  0  0  0
  -22.3570   -7.6840   21.1100 O   0  0  0  0  0  0  0  0  0  0  0  0
  -21.9370   -7.1730   22.3120 C   0  0  0  0  0  0  0  0  0  0  0  0
  -21.2930   -7.9780   23.2780 C   0  0  0  0  0  3  0  0  0  0  0  0
  -20.8150   -7.4000   24.4700 C   0  0  0  0  0  3  0  0  0  0  0  0
  -20.9720   -6.0190   24.6960 C   0  0  0  0  0  0  0  0  0  0  0  0
  -21.6060   -5.2130   23.7330 C   0  0  0  0  0  3  0  0  0  0  0  0
  -22.0840   -5.7900   22.5430 C   0  0  0  0  0  0  0  0  0  0  0  0
  -22.6790   -5.0070   21.6100 F   0  0  0  0  0  0  0  0  0  0  0  0
  -20.5030   -5.4620   25.8360 F   0  0  0  0  0  0  0  0  0  0  0  0
  -24.2830  -14.1460   21.2020 C   0  0  0  0  0  0  0  0  0  0  0  0
  -23.5960  -13.5010   22.1370 N   0  0  0  0  0  0  0  0  0  0  0  0
  -23.9090  -15.2380   20.7760 O   0  0  0  0  0  0  0  0  0  0  0  0
  -23.9190  -12.6180   22.5040 H   0  0  0  0  0  0  0  0  0  0  0  0
  -22.7360  -13.8970   22.4910 H   0  0  0  0  0  0  0  0  0  0  0  0
  -26.9770  -15.5340   20.1670 N   0  0  0  0  0  0  0  0  0  0  0  0
  -26.2970  -16.2510   20.3950 H   0  0  0  0  0  0  0  0  0  0  0  0
  -27.8230  -15.9060   19.7590 H   0  0  0  0  0  0  0  0  0  0  0  0
  -29.0830  -22.6670   18.2990 C   0  0  0  0  0  2  0  0  0  0  0  0
  -28.0770  -23.7670   18.8500 C   0  0  0  0  0  2  0  0  0  0  0  0
  -28.6480  -25.1670   19.3020 C   0  0  0  0  0  2  0  0  0  0  0  0
  -28.2820  -26.3400   18.5140 O   0  0  0  0  0  0  0  0  0  0  0  0
  -25.7870  -30.8000   23.5560 C   0  0  0  0  0  0  0  0  0  0  0  0
  -27.2620  -27.1670   18.9660 C   0  0  0  0  0  0  0  0  0  0  0  0
  -24.1750  -30.1130   21.8120 C   0  0  0  0  0  3  0  0  0  0  0  0
  -25.1710  -28.9060   19.7910 C   0  0  0  0  0  0  0  0  0  0  0  0
  -26.6820  -30.2060   21.2990 C   0  0  0  0  0  2  0  0  0  0  0  0
  -26.4640  -29.0830   20.2990 C   0  0  0  0  0  0  0  0  0  0  0  0
  -27.5140  -28.2250   19.8800 C   0  0  0  0  0  3  0  0  0  0  0  0
  -25.9560  -27.0160   18.4590 C   0  0  0  0  0  3  0  0  0  0  0  0
  -24.9130  -27.8780   18.8650 C   0  0  0  0  0  3  0  0  0  0  0  0
  -24.1000  -29.8590   20.2820 C   0  0  0  0  0  2  0  0  0  0  0  0
  -25.5780  -30.3700   22.2790 N   0  0  0  0  0  0  0  0  0  0  0  0
  -24.8400  -31.0190   24.3240 O   0  0  0  0  0  0  0  0  0  0  0  0
  -23.4920  -28.9350   22.5430 C   0  0  0  0  0  0  0  0  0  0  0  0
  -22.1580  -28.8400   22.4160 N   0  0  0  0  0  0  0  0  0  0  0  0
  -24.1590  -28.1180   23.1820 O   0  0  0  0  0  0  0  0  0  0  0  0
  -21.6810  -29.5510   21.8800 H   0  0  0  0  0  0  0  0  0  0  0  0
  -18.7850  -27.5460   22.5040 C   0  0  0  0  0  0  0  0  0  0  0  0
  -21.3150  -27.7880   22.9820 C   0  0  0  0  0  3  0  0  0  0  0  0
  -21.4850  -26.4610   22.2080 C   0  0  0  0  0  2  0  0  0  0  0  0
  -20.4570  -26.2820   21.0850 C   0  0  0  0  0  2  0  0  0  0  0  0
  -19.0340  -26.3160   21.6480 C   0  0  0  0  0  2  0  0  0  0  0  0
  -19.8570  -28.2460   23.1170 C   0  0  0  0  0  0  0  0  0  0  0  0
  -19.5750  -29.4050   23.8740 C   0  0  0  0  0  3  0  0  0  0  0  0
  -18.2520  -29.8610   24.0240 C   0  0  0  0  0  3  0  0  0  0  0  0
  -17.1930  -29.1550   23.4280 C   0  0  0  0  0  3  0  0  0  0  0  0
  -17.4600  -27.9980   22.6750 C   0  0  0  0  0  3  0  0  0  0  0  0
  -27.2250  -31.0600   24.1060 C   0  0  0  0  0  3  0  0  0  0  0  0
  -27.2230  -32.3790   24.7530 N   0  0  0  0  0  0  0  0  0  0  0  0
  -27.7510  -33.4890   24.2170 C   0  0  0  0  0  0  0  0  0  0  0  0
  -28.3610  -33.4900   23.1440 O   0  0  0  0  0  0  0  0  0  0  0  0
  -26.7000  -32.4640   25.6110 H   0  0  0  0  0  0  0  0  0  0  0  0
  -26.4470  -35.6340   24.3610 C   0  0  0  0  0  1  0  0  0  0  0  0
  -27.5740  -34.8060   24.9970 C   0  0  0  0  0  3  0  0  0  0  0  0
  -29.8510  -35.0140   25.8930 C   0  0  0  0  0  1  0  0  0  0  0  0
  -28.8080  -35.6180   25.0680 N   0  0  0  0  0  0  0  0  0  0  0  0
  -28.6080  -36.5460   25.4360 H   0  0  0  0  0  0  0  0  0  0  0  0
  -27.7160  -29.9480   25.1150 C   0  0  1  0  0  0  0  0  0  0  0  0
  -26.6990  -29.6320   26.2330 C   0  0  0  0  0  1  0  0  0  0  0  0
  -28.0210  -28.6290   24.3660 C   0  0  0  0  0  1  0  0  0  0  0  0
  -29.0370  -30.3920   25.7890 C   0  0  0  0  0  1  0  0  0  0  0  0
  1  4  2  0
  2  3  2  0
  2  5  1  0
  3  1  1  0
  4  8  1  0
  5 11  1  0
  5  4  1  0
  8  7  1  0
  8  6  1  0
 11  9  1  1
 11 10  1  0
 12 21  1  0
 12 11  1  0
 13 19  1  0
 13 21  1  0
 14 19  1  0
 15 16  1  0
 15 14  1  0
 17 16  1  0
 17 26  1  0
 17 18  1  0
 19 18  1  0
 20 13  2  0
 21 22  1  0
 23 24  2  0
 24 43  1  0
 25 28  1  0
 25 24  1  0
 26 27  1  0
 26 23  1  0
 27 25  2  0
 28 29  1  0
 29 30  2  0
 31 34  1  0
 31 30  1  0
 32 31  2  0
 33 32  1  0
 33 28  2  0
 34 35  1  0
 35 40  2  0
 35 36  1  0
 36 37  2  0
 37 38  1  0
 38 42  1  0
 39 38  2  0
 40 39  1  0
 41 40  1  0
 43 44  1  0
 44 47  1  0
 44 46  1  0
 45 43  2  0
 48 23  1  0
 48 49  1  0
 50 48  1  0
 51 52  1  0
 51  3  1  0
 52 53  1  0
 54 56  1  0
 54 53  1  0
 55 66  2  0
 56 61  1  0
 57 65  1  0
 57 67  1  0
 58 64  1  0
 58 60  1  0
 59 65  1  0
 60 59  1  0
 61 60  2  0
 62 63  1  0
 62 56  2  0
 63 58  2  0
 64 57  1  0
 65 55  1  0
 67 69  2  0
 68 67  1  0
 70 68  1  0
 71 80  2  0
 71 76  1  0
 72 68  1  0
 72 76  1  0
 73 72  1  0
 74 75  1  0
 74 73  1  0
 75 71  1  0
 76 77  2  0
 77 78  1  0
 79 78  2  0
 80 79  1  0
 81 55  1  0
 81 82  1  0
 81 91  1  0
 82 85  1  0
 83 82  1  0
 83 87  1  0
 84 83  2  0
 87 86  1  0
 87 89  1  0
 89 90  1  0
 89 88  1  0
 91 94  1  1
 91 92  1  0
 93 91  1  0
M  ISO  4  13 100  21 100  53 101  54 101
M  END
>  <TORSDO>  (14) 
F 22

>  <SCORE>  (14) 
-9.207

>  <name>  (14) 
13

>  <ligand_id>  (14) 
13

>  <original_smiles>  (14) 
[H]c1c([H])c([H])c2c(c1[H])C([H])([H])C([H])([H])C([H])([H])C2([H])N([H])C(=O)C1([H])N(C(=O)C([H])(N([H])C(=O)C([H])(N([H])C([H])([H])[H])C([H])([H])[H])C(C([H])([H])[H])(C([H])([H])[H])C([H])([H])[H])C([H])([H])c2c([H])c(OC([H])([H])C([H])([H])C([H])([H])c3c([H])c(C([H])(C([H])([H])[H])C([H])([H])[H])n(C(C([H])([H])[H])(C([H])([H])[H])C([H])([H])N([H])C(=O)N4C([H])([H])C([H])([H])C([H])([H])C([H])(n5nc(-c6c([H])c([H])c(Oc7c([H])c([H])c(F)c([H])c7F)c([H])c6[H])c(C(=O)N([H])[H])c5N([H])[H])C4([H])[H])c3[H])c([H])c([H])c2C1([H])[H]

>  <smiles>  (14) 
[H]c1c([H])c([H])c2c(c1[H])C([H])([H])C([H])([H])C([H])([H])C2([H])N([H])C(=O)C1([H])N(C(=O)C([H])(N([H])C(=O)C([H])(N([H])C([H])([H])[H])C([H])([H])[H])C(C([H])([H])[H])(C([H])([H])[H])C([H])([H])[H])C([H])([H])c2c([H])c(OC([H])([H])C([H])([H])C([H])([H])c3c([H])c(C([H])(C([H])([H])[H])C([H])([H])[H])n(C(C([H])([H])[H])(C([H])([H])[H])C([H])([H])N([H])C(=O)N4C([H])([H])C([H])([H])C([H])([H])C([H])(n5nc(-c6c([H])c([H])c(Oc7c([H])c([H])c(F)c([H])c7F)c([H])c6[H])c(C(=O)N([H])[H])c5N([H])[H])C4([H])[H])c3[H])c([H])c([H])c2C1([H])[H]

$$$$
14:0:0
     RDKit          3D

 96104  0  0  1  0  0  0  0  0999 V2000
  -27.8940  -20.4870   20.2460 C   0  0  0  0  0  3  0  0  0  0  0  0
  -27.4460  -19.1730   20.0020 C   0  0  0  0  0  0  0  0  0  0  0  0
  -28.2590  -18.0700   20.3870 C   0  0  0  0  0  0  0  0  0  0  0  0
  -29.1670  -20.7190   20.7900 C   0  0  0  0  0  0  0  0  0  0  0  0
  -29.6020  -18.3140   20.7830 C   0  0  0  0  0  0  0  0  0  0  0  0
  -27.6690  -16.6590   20.4230 C   0  0  0  0  0  1  0  0  0  0  0  0
  -30.0130  -19.6280   20.9770 N   0  0  0  0  0  0  0  0  0  0  0  0
  -30.3240  -22.1820   22.5070 C   0  0  0  0  0  1  0  0  0  0  0  0
  -29.6550  -22.2090   21.1220 C   0  0  0  0  0  3  0  0  0  0  0  0
  -28.6240  -23.4810   21.1000 C   0  0  0  0  0  2  0  0  0  0  0  0
  -29.1300  -24.9650   20.6560 C   0  0  0  0  0  2  0  0  0  0  0  0
  -28.7670  -26.2470   21.3540 O   0  0  0  0  0  0  0  0  0  0  0  0
  -24.5940  -31.8200   23.3630 C   0  0  0  0  0  0  0  0  0  0  0  0
  -27.6330  -27.0380   21.0720 C   0  0  0  0  0  0  0  0  0  0  0  0
  -23.6100  -30.2180   21.7630 C   0  0  0  0  0  3  0  0  0  0  0  0
  -25.2440  -28.5790   20.6540 C   0  0  0  0  0  0  0  0  0  0  0  0
  -26.1440  -30.6000   21.8010 C   0  0  0  0  0  2  0  0  0  0  0  0
  -26.3270  -29.1590   21.3240 C   0  0  0  0  0  0  0  0  0  0  0  0
  -27.5200  -28.3960   21.5260 C   0  0  0  0  0  3  0  0  0  0  0  0
  -26.5270  -26.5140   20.3700 C   0  0  0  0  0  3  0  0  0  0  0  0
  -25.3480  -27.2650   20.1670 C   0  0  0  0  0  3  0  0  0  0  0  0
  -23.9890  -29.4140   20.4860 C   0  0  0  0  0  2  0  0  0  0  0  0
  -24.7970  -30.9050   22.3670 N   0  0  0  0  0  0  0  0  0  0  0  0
  -23.4520  -32.1090   23.7480 O   0  0  0  0  0  0  0  0  0  0  0  0
  -22.8780  -29.2770   22.7480 C   0  0  0  0  0  0  0  0  0  0  0  0
  -21.5760  -29.0540   22.5110 N   0  0  0  0  0  0  0  0  0  0  0  0
  -23.4830  -28.7460   23.6830 O   0  0  0  0  0  0  0  0  0  0  0  0
  -21.1500  -29.5400   21.7350 H   0  0  0  0  0  0  0  0  0  0  0  0
  -18.1680  -27.8820   22.8450 C   0  0  0  0  0  0  0  0  0  0  0  0
  -20.7020  -28.1690   23.2830 C   0  0  0  0  0  3  0  0  0  0  0  0
  -20.8420  -26.7010   22.8160 C   0  0  0  0  0  2  0  0  0  0  0  0
  -19.8180  -26.3060   21.7480 C   0  0  0  0  0  2  0  0  0  0  0  0
  -18.3940  -26.4890   22.2780 C   0  0  0  0  0  2  0  0  0  0  0  0
  -19.2550  -28.6760   23.3000 C   0  0  0  0  0  0  0  0  0  0  0  0
  -18.9940  -29.9750   23.7850 C   0  0  0  0  0  3  0  0  0  0  0  0
  -17.6810  -30.4800   23.8240 C   0  0  0  0  0  3  0  0  0  0  0  0
  -16.6100  -29.6860   23.3830 C   0  0  0  0  0  3  0  0  0  0  0  0
  -16.8540  -28.3890   22.9000 C   0  0  0  0  0  3  0  0  0  0  0  0
  -25.7820  -32.5600   24.0490 C   0  0  0  0  0  3  0  0  0  0  0  0
  -25.3700  -33.9540   24.2700 N   0  0  0  0  0  0  0  0  0  0  0  0
  -25.6860  -34.9770   23.4630 C   0  0  0  0  0  0  0  0  0  0  0  0
  -26.4260  -34.8510   22.4830 O   0  0  0  0  0  0  0  0  0  0  0  0
  -24.7160  -34.1200   25.0200 H   0  0  0  0  0  0  0  0  0  0  0  0
  -23.8640  -36.6270   22.9110 C   0  0  0  0  0  1  0  0  0  0  0  0
  -25.0920  -36.3610   23.7960 C   0  0  0  0  0  3  0  0  0  0  0  0
  -27.1330  -37.4390   24.6400 C   0  0  0  0  0  1  0  0  0  0  0  0
  -26.0590  -37.4700   23.6500 N   0  0  0  0  0  0  0  0  0  0  0  0
  -25.5880  -38.3680   23.7210 H   0  0  0  0  0  0  0  0  0  0  0  0
  -26.2280  -31.8920   25.4080 C   0  0  1  0  0  0  0  0  0  0  0  0
  -25.0540  -31.6040   26.3740 C   0  0  0  0  0  1  0  0  0  0  0  0
  -26.9590  -30.5560   25.1390 C   0  0  0  0  0  1  0  0  0  0  0  0
  -27.2370  -32.8120   26.1390 C   0  0  0  0  0  1  0  0  0  0  0  0
  -26.1270  -18.9970   19.2490 C   0  0  0  0  0  2  0  0  0  0  0  0
  -26.3720  -18.5550   17.7880 C   0  0  0  0  0  2  0  0  0  0  0  0
  -27.4800  -19.2830   15.6190 C   0  0  0  0  0  1  0  0  0  0  0  0
  -25.2610  -20.2820   16.2940 C   0  0  0  0  0  1  0  0  0  0  0  0
  -26.5970  -19.7160   16.8000 C   0  0  0  0  0  3  0  0  0  0  0  0
  -30.6290  -17.1260   21.0780 C   0  0  0  0  0  2  0  0  0  0  0  0
  -30.9870  -14.5380   20.8370 C   0  0  0  0  0  0  0  0  0  0  0  0
  -30.8350  -12.2640   19.8200 C   0  0  0  0  0  2  0  0  0  0  0  0
  -29.9580  -12.3000   18.5500 C   0  0  0  0  0  2  0  0  0  0  0  0
  -28.4720  -12.1280   18.9140 C   0  0  0  0  0  2  0  0  0  0  0  0
  -28.0300  -13.0640   20.0680 C   0  0  0  0  0  3  0  0  0  0  0  0
  -29.0180  -12.9960   21.2520 C   0  0  0  0  0  2  0  0  0  0  0  0
  -30.3510  -13.3230   20.7320 N   0  0  0  0  0  0  0  0  0  0  0  0
  -32.1890  -14.6340   20.5790 O   0  0  0  0  0  0  0  0  0  0  0  0
  -30.2110  -15.6620   21.0380 N   0  0  0  0  0  0  0  0  0  0  0  0
  -29.2240  -15.5020   21.1540 H   0  0  0  0  0  0  0  0  0  0  0  0
  -25.6050  -13.6810   20.6410 C   0  0  0  0  0  0  0  0  0  0  0  0
  -24.5190  -12.9240   20.9760 C   0  0  0  0  0  0  0  0  0  0  0  0
  -24.9750  -11.5710   20.9910 C   0  0  0  0  0  0  0  0  0  0  0  0
  -26.6590  -12.7960   20.4870 N   0  0  0  0  0  0  0  0  0  0  0  0
  -26.2800  -11.5200   20.7590 N   0  0  0  0  0  0  0  0  0  0  0  0
  -24.2300  -10.3160   21.1500 C   0  0  0  0  0  0  0  0  0  0  0  0
  -24.6140   -9.3460   22.1010 C   0  0  0  0  0  3  0  0  0  0  0  0
  -23.8710   -8.1550   22.2460 C   0  0  0  0  0  3  0  0  0  0  0  0
  -22.7310   -7.9280   21.4400 C   0  0  0  0  0  0  0  0  0  0  0  0
  -22.3670   -8.8870   20.4780 C   0  0  0  0  0  3  0  0  0  0  0  0
  -23.1100  -10.0700   20.3310 C   0  0  0  0  0  3  0  0  0  0  0  0
  -21.9610   -6.7910   21.4960 O   0  0  0  0  0  0  0  0  0  0  0  0
  -21.8400   -6.0610   22.6500 C   0  0  0  0  0  0  0  0  0  0  0  0
  -21.3580   -6.6340   23.8490 C   0  0  0  0  0  3  0  0  0  0  0  0
  -21.1870   -5.8300   24.9940 C   0  0  0  0  0  3  0  0  0  0  0  0
  -21.4840   -4.4550   24.9410 C   0  0  0  0  0  0  0  0  0  0  0  0
  -21.9580   -3.8820   23.7470 C   0  0  0  0  0  3  0  0  0  0  0  0
  -22.1330   -4.6820   22.6060 C   0  0  0  0  0  0  0  0  0  0  0  0
  -22.5700   -4.1220   21.4530 F   0  0  0  0  0  0  0  0  0  0  0  0
  -21.3120   -3.6810   26.0380 F   0  0  0  0  0  0  0  0  0  0  0  0
  -23.1130  -13.4150   21.1640 C   0  0  0  0  0  0  0  0  0  0  0  0
  -22.3350  -12.7450   22.0050 N   0  0  0  0  0  0  0  0  0  0  0  0
  -22.7110  -14.4330   20.5990 O   0  0  0  0  0  0  0  0  0  0  0  0
  -22.6730  -11.9230   22.4850 H   0  0  0  0  0  0  0  0  0  0  0  0
  -21.3900  -13.0580   22.1760 H   0  0  0  0  0  0  0  0  0  0  0  0
  -25.7710  -15.0430   20.4280 N   0  0  0  0  0  0  0  0  0  0  0  0
  -24.9860  -15.6810   20.4810 H   0  0  0  0  0  0  0  0  0  0  0  0
  -26.6210  -15.4830   20.1030 H   0  0  0  0  0  0  0  0  0  0  0  0
  1  4  1  0
  2  1  2  0
  2  3  1  0
  3  6  1  0
  3  5  2  0
  4  7  2  0
  4  9  1  0
  5  7  1  0
  5 58  1  0
  9  8  1  0
 10  9  1  0
 11 10  1  0
 11 12  1  0
 13 24  2  0
 14 12  1  0
 14 19  1  0
 15 23  1  0
 15 25  1  0
 16 18  1  0
 17 23  1  0
 18 19  2  0
 18 17  1  0
 20 14  2  0
 21 20  1  0
 21 16  2  0
 22 16  1  0
 22 15  1  0
 23 13  1  0
 25 27  2  0
 26 25  1  0
 28 26  1  0
 29 38  2  0
 29 34  1  0
 30 26  1  0
 30 34  1  0
 31 30  1  0
 32 33  1  0
 32 31  1  0
 33 29  1  0
 34 35  2  0
 35 36  1  0
 37 36  2  0
 38 37  1  0
 39 13  1  0
 39 40  1  0
 39 49  1  0
 40 43  1  0
 41 45  1  0
 41 40  1  0
 42 41  2  0
 45 44  1  0
 47 48  1  0
 47 45  1  0
 47 46  1  0
 49 52  1  1
 49 50  1  0
 51 49  1  0
 53  2  1  0
 54 53  1  0
 55 57  1  0
 56 57  1  0
 57 54  1  0
 59 67  1  0
 60 65  1  0
 61 62  1  0
 61 60  1  0
 63 62  1  0
 63 72  1  0
 63 64  1  0
 65 59  1  0
 65 64  1  0
 66 59  2  0
 67 58  1  0
 67 68  1  0
 69 70  2  0
 70 71  1  0
 70 89  1  0
 71 74  1  0
 72 69  1  0
 72 73  1  0
 73 71  2  0
 74 75  1  0
 75 76  2  0
 77 80  1  0
 77 76  1  0
 78 77  2  0
 79 78  1  0
 79 74  2  0
 80 81  1  0
 81 82  1  0
 82 83  2  0
 84 83  1  0
 84 88  1  0
 85 84  2  0
 86 81  2  0
 86 85  1  0
 87 86  1  0
 89 90  1  0
 90 93  1  0
 90 92  1  0
 91 89  2  0
 94 95  1  0
 94 69  1  0
 96 94  1  0
M  ISO  4  11 101  12 101  59 100  67 100
M  END
>  <TORSDO>  (15) 
F 23

>  <SCORE>  (15) 
-9.532

>  <name>  (15) 
14

>  <ligand_id>  (15) 
14

>  <original_smiles>  (15) 
[H]c1c([H])c([H])c2c(c1[H])C([H])([H])C([H])([H])C([H])([H])C2([H])N([H])C(=O)C1([H])N(C(=O)C([H])(N([H])C(=O)C([H])(N([H])C([H])([H])[H])C([H])([H])[H])C(C([H])([H])[H])(C([H])([H])[H])C([H])([H])[H])C([H])([H])c2c([H])c(OC([H])([H])C([H])([H])C([H])(c3nc(C([H])([H])N([H])C(=O)N4C([H])([H])C([H])([H])C([H])([H])C([H])(n5nc(-c6c([H])c([H])c(Oc7c([H])c([H])c(F)c([H])c7F)c([H])c6[H])c(C(=O)N([H])[H])c5N([H])[H])C4([H])[H])c(C([H])([H])[H])c(C([H])([H])C([H])([H])C([H])(C([H])([H])[H])C([H])([H])[H])c3[H])C([H])([H])[H])c([H])c([H])c2C1([H])[H]

>  <smiles>  (15) 
[H]c1c([H])c([H])c2c(c1[H])C([H])([H])C([H])([H])C([H])([H])C2([H])N([H])C(=O)C1([H])N(C(=O)C([H])(N([H])C(=O)C([H])(N([H])C([H])([H])[H])C([H])([H])[H])C(C([H])([H])[H])(C([H])([H])[H])C([H])([H])[H])C([H])([H])c2c([H])c(OC([H])([H])C([H])([H])C([H])(c3nc(C([H])([H])N([H])C(=O)N4C([H])([H])C([H])([H])C([H])([H])C([H])(n5nc(-c6c([H])c([H])c(Oc7c([H])c([H])c(F)c([H])c7F)c([H])c6[H])c(C(=O)N([H])[H])c5N([H])[H])C4([H])[H])c(C([H])([H])[H])c(C([H])([H])C([H])([H])C([H])(C([H])([H])[H])C([H])([H])[H])c3[H])C([H])([H])[H])c([H])c([H])c2C1([H])[H]

$$$$
15:0:0
     RDKit          3D

 87 94  0  0  1  0  0  0  0  0999 V2000
  -28.8980  -20.5820   19.9360 C   0  0  2  0  0  0  0  0  0  0  0  0
  -27.5090  -20.0670   17.7930 C   0  0  0  0  0  1  0  0  0  0  0  0
  -27.5300  -20.1920   19.3240 C   0  0  0  0  0  2  0  0  0  0  0  0
  -29.8450  -21.2170   22.2720 C   0  0  0  0  0  1  0  0  0  0  0  0
  -28.6990  -20.5790   21.4700 C   0  0  0  0  0  2  0  0  0  0  0  0
  -29.0300  -22.4660   19.5320 C   0  0  0  0  0  3  0  0  0  0  0  0
  -28.0150  -24.0980   19.6470 C   0  0  0  0  0  3  0  0  0  0  0  0
  -28.1930  -25.8350   19.5910 O   0  0  0  0  0  0  0  0  0  0  0  0
  -24.7280  -31.8450   23.0310 C   0  0  0  0  0  0  0  0  0  0  0  0
  -27.1920  -27.0100   19.6610 C   0  0  0  0  0  0  0  0  0  0  0  0
  -23.4880  -30.5110   21.3820 C   0  0  0  0  0  3  0  0  0  0  0  0
  -24.8910  -28.9770   19.8150 C   0  0  0  0  0  0  0  0  0  0  0  0
  -26.0520  -30.7190   21.1460 C   0  0  0  0  0  2  0  0  0  0  0  0
  -26.1070  -29.3290   20.4100 C   0  0  0  0  0  0  0  0  0  0  0  0
  -27.2440  -28.3750   20.3040 C   0  0  0  0  0  3  0  0  0  0  0  0
  -25.9320  -26.8570   19.0300 C   0  0  0  0  0  3  0  0  0  0  0  0
  -24.8360  -27.7680   19.1000 C   0  0  0  0  0  3  0  0  0  0  0  0
  -23.6730  -29.8990   19.9630 C   0  0  0  0  0  2  0  0  0  0  0  0
  -24.7810  -31.0560   21.9060 N   0  0  0  0  0  0  0  0  0  0  0  0
  -23.6540  -32.0960   23.6070 O   0  0  0  0  0  0  0  0  0  0  0  0
  -22.8360  -29.4680   22.3290 C   0  0  0  0  0  0  0  0  0  0  0  0
  -21.5080  -29.2660   22.2310 N   0  0  0  0  0  0  0  0  0  0  0  0
  -23.5360  -28.8390   23.1270 O   0  0  0  0  0  0  0  0  0  0  0  0
  -20.9920  -29.8290   21.5700 H   0  0  0  0  0  0  0  0  0  0  0  0
  -18.1880  -27.8810   22.7440 C   0  0  0  0  0  0  0  0  0  0  0  0
  -20.7370  -28.2700   22.9850 C   0  0  0  0  0  3  0  0  0  0  0  0
  -20.9000  -26.8590   22.3720 C   0  0  0  0  0  2  0  0  0  0  0  0
  -19.8030  -26.5090   21.3620 C   0  0  0  0  0  2  0  0  0  0  0  0
  -18.4230  -26.5650   22.0240 C   0  0  0  0  0  2  0  0  0  0  0  0
  -19.2730  -28.6900   23.1810 C   0  0  0  0  0  0  0  0  0  0  0  0
  -18.9960  -29.9180   23.8180 C   0  0  0  0  0  3  0  0  0  0  0  0
  -17.6690  -30.3410   24.0230 C   0  0  0  0  0  3  0  0  0  0  0  0
  -16.6000  -29.5310   23.6000 C   0  0  0  0  0  3  0  0  0  0  0  0
  -16.8610  -28.3040   22.9660 C   0  0  0  0  0  3  0  0  0  0  0  0
  -26.0090  -32.4840   23.6470 C   0  0  0  0  0  3  0  0  0  0  0  0
  -25.6820  -33.8600   24.0660 N   0  0  0  0  0  0  0  0  0  0  0  0
  -25.9450  -34.9680   23.3610 C   0  0  0  0  0  0  0  0  0  0  0  0
  -26.5510  -34.9410   22.2870 O   0  0  0  0  0  0  0  0  0  0  0  0
  -25.1360  -33.9520   24.9100 H   0  0  0  0  0  0  0  0  0  0  0  0
  -24.1560  -36.7390   23.2510 C   0  0  0  0  0  1  0  0  0  0  0  0
  -25.4680  -36.3190   23.9340 C   0  0  0  0  0  3  0  0  0  0  0  0
  -27.6360  -37.2290   24.6440 C   0  0  0  0  0  1  0  0  0  0  0  0
  -26.4620  -37.4060   23.7940 N   0  0  0  0  0  0  0  0  0  0  0  0
  -26.0450  -38.3070   24.0160 H   0  0  0  0  0  0  0  0  0  0  0  0
  -26.5730  -31.6710   24.8780 C   0  0  1  0  0  0  0  0  0  0  0  0
  -25.5180  -31.3830   25.9730 C   0  0  0  0  0  1  0  0  0  0  0  0
  -27.1560  -30.3140   24.4280 C   0  0  0  0  0  1  0  0  0  0  0  0
  -27.7360  -32.4550   25.5310 C   0  0  0  0  0  1  0  0  0  0  0  0
  -29.9530  -18.9930   19.6760 C   0  0  0  0  0  2  0  0  0  0  0  0
  -30.5460  -15.9080   19.7050 C   0  0  0  0  0  0  0  0  0  0  0  0
  -30.6110  -13.3700   18.9250 C   0  0  0  0  0  2  0  0  0  0  0  0
  -29.6400  -12.9750   17.7780 C   0  0  0  0  0  2  0  0  0  0  0  0
  -28.2540  -12.6190   18.3360 C   0  0  0  0  0  2  0  0  0  0  0  0
  -27.8110  -13.6200   19.4280 C   0  0  0  0  0  3  0  0  0  0  0  0
  -28.9140  -13.9390   20.4630 C   0  0  0  0  0  2  0  0  0  0  0  0
  -30.0360  -14.5460   19.7140 N   0  0  0  0  0  0  0  0  0  0  0  0
  -31.7600  -15.8740   19.4370 O   0  0  0  0  0  0  0  0  0  0  0  0
  -29.7700  -17.2430   19.8010 N   0  0  0  0  0  0  0  0  0  0  0  0
  -28.8020  -17.0250   19.9820 H   0  0  0  0  0  0  0  0  0  0  0  0
  -25.5270  -14.1330   20.4150 C   0  0  0  0  0  0  0  0  0  0  0  0
  -24.4980  -13.3420   20.8380 C   0  0  0  0  0  0  0  0  0  0  0  0
  -24.9540  -11.9930   20.7070 C   0  0  0  0  0  0  0  0  0  0  0  0
  -26.5400  -13.2690   20.0430 N   0  0  0  0  0  0  0  0  0  0  0  0
  -26.2150  -11.9710   20.2840 N   0  0  0  0  0  0  0  0  0  0  0  0
  -24.2340  -10.7260   20.9000 C   0  0  0  0  0  0  0  0  0  0  0  0
  -24.6780   -9.7580   21.8270 C   0  0  0  0  0  3  0  0  0  0  0  0
  -23.9560   -8.5590   22.0130 C   0  0  0  0  0  3  0  0  0  0  0  0
  -22.7750   -8.3200   21.2700 C   0  0  0  0  0  0  0  0  0  0  0  0
  -22.3500   -9.2770   20.3320 C   0  0  0  0  0  3  0  0  0  0  0  0
  -23.0730  -10.4660   20.1450 C   0  0  0  0  0  3  0  0  0  0  0  0
  -22.0240   -7.1730   21.3650 O   0  0  0  0  0  0  0  0  0  0  0  0
  -21.9020   -6.4870   22.5470 C   0  0  0  0  0  0  0  0  0  0  0  0
  -21.3540   -7.0870   23.7020 C   0  0  0  0  0  3  0  0  0  0  0  0
  -21.1810   -6.3260   24.8750 C   0  0  0  0  0  3  0  0  0  0  0  0
  -21.5470   -4.9660   24.8940 C   0  0  0  0  0  0  0  0  0  0  0  0
  -22.0880   -4.3670   23.7440 C   0  0  0  0  0  3  0  0  0  0  0  0
  -22.2620   -5.1250   22.5740 C   0  0  0  0  0  0  0  0  0  0  0  0
  -22.7650   -4.5360   21.4610 F   0  0  0  0  0  0  0  0  0  0  0  0
  -21.3740   -4.2330   26.0190 F   0  0  0  0  0  0  0  0  0  0  0  0
  -23.1310  -13.8120   21.2390 C   0  0  0  0  0  0  0  0  0  0  0  0
  -22.4760  -13.0940   22.1430 N   0  0  0  0  0  0  0  0  0  0  0  0
  -22.6580  -14.8540   20.7860 O   0  0  0  0  0  0  0  0  0  0  0  0
  -22.8760  -12.2520   22.5300 H   0  0  0  0  0  0  0  0  0  0  0  0
  -21.5620  -13.3910   22.4530 H   0  0  0  0  0  0  0  0  0  0  0  0
  -25.6780  -15.5090   20.2820 N   0  0  0  0  0  0  0  0  0  0  0  0
  -24.9170  -16.1520   20.4730 H   0  0  0  0  0  0  0  0  0  0  0  0
  -26.4790  -15.9600   19.8610 H   0  0  0  0  0  0  0  0  0  0  0  0
  1  5  1  1
  2  3  1  0
  3  1  1  0
  5  4  1  0
  6  7  2  0
  6  1  1  0
  8  7  1  0
  8 10  1  0
  9 20  2  0
 10 15  1  0
 11 19  1  0
 11 21  1  0
 12 18  1  0
 12 14  1  0
 13 19  1  0
 14 13  1  0
 15 14  2  0
 16 17  1  0
 16 10  2  0
 17 12  2  0
 18 11  1  0
 19  9  1  0
 21 23  2  0
 22 21  1  0
 24 22  1  0
 25 34  2  0
 25 30  1  0
 26 22  1  0
 26 30  1  0
 27 26  1  0
 28 29  1  0
 28 27  1  0
 29 25  1  0
 30 31  2  0
 31 32  1  0
 33 32  2  0
 34 33  1  0
 35  9  1  0
 35 36  1  0
 35 45  1  0
 36 39  1  0
 37 41  1  0
 37 36  1  0
 38 37  2  0
 41 40  1  0
 43 41  1  0
 43 44  1  0
 43 42  1  0
 45 48  1  1
 45 46  1  0
 47 45  1  0
 49 58  1  0
 49  1  1  0
 50 56  1  0
 50 58  1  0
 51 56  1  0
 52 53  1  0
 52 51  1  0
 54 53  1  0
 54 63  1  0
 54 55  1  0
 56 55  1  0
 57 50  2  0
 58 59  1  0
 60 61  2  0
 61 80  1  0
 62 61  1  0
 62 65  1  0
 63 64  1  0
 63 60  1  0
 64 62  2  0
 65 66  1  0
 66 67  2  0
 68 71  1  0
 68 67  1  0
 69 68  2  0
 70 69  1  0
 70 65  2  0
 71 72  1  0
 72 77  2  0
 72 73  1  0
 73 74  2  0
 74 75  1  0
 75 79  1  0
 76 75  2  0
 77 76  1  0
 78 77  1  0
 80 81  1  0
 81 84  1  0
 81 83  1  0
 82 80  2  0
 85 60  1  0
 85 86  1  0
 87 85  1  0
M  ISO  4   7 101   8 101  50 100  58 100
M  END
>  <TORSDO>  (16) 
F 21

>  <SCORE>  (16) 
-14.548

>  <name>  (16) 
15

>  <ligand_id>  (16) 
15

>  <original_smiles>  (16) 
[H]c1c([H])c([H])c2c(c1[H])C([H])([H])C([H])([H])C([H])([H])C2([H])N([H])C(=O)C1([H])N(C(=O)C([H])(N([H])C(=O)C([H])(N([H])C([H])([H])[H])C([H])([H])[H])C(C([H])([H])[H])(C([H])([H])[H])C([H])([H])[H])C([H])([H])c2c([H])c(OC([H])([H])C([H])([H])C(C([H])([H])N([H])C(=O)N3C([H])([H])C([H])([H])C([H])([H])C([H])(n4nc(-c5c([H])c([H])c(Oc6c([H])c([H])c(F)c([H])c6F)c([H])c5[H])c(C(=O)N([H])[H])c4N([H])[H])C3([H])[H])(C([H])([H])C([H])([H])[H])C([H])([H])C([H])([H])[H])c([H])c([H])c2C1([H])[H]

>  <smiles>  (16) 
[H]c1c([H])c([H])c2c(c1[H])C([H])([H])C([H])([H])C([H])([H])C2([H])N([H])C(=O)C1([H])N(C(=O)C([H])(N([H])C(=O)C([H])(N([H])C([H])([H])[H])C([H])([H])[H])C(C([H])([H])[H])(C([H])([H])[H])C([H])([H])[H])C([H])([H])c2c([H])c(OC([H])([H])C([H])([H])C(C([H])([H])N([H])C(=O)N3C([H])([H])C([H])([H])C([H])([H])C([H])(n4nc(-c5c([H])c([H])c(Oc6c([H])c([H])c(F)c([H])c6F)c([H])c5[H])c(C(=O)N([H])[H])c4N([H])[H])C3([H])[H])(C([H])([H])C([H])([H])[H])C([H])([H])C([H])([H])[H])c([H])c([H])c2C1([H])[H]

$$$$
16:0:0
     RDKit          3D

 94101  0  0  1  0  0  0  0  0999 V2000
  -29.1460  -20.4170   19.9690 C   0  0  0  0  0  2  0  0  0  0  0  0
  -27.0720  -21.8950   20.6990 C   0  0  0  0  0  1  0  0  0  0  0  0
  -28.6660  -20.9660   22.3840 C   0  0  0  0  0  1  0  0  0  0  0  0
  -28.5550  -21.5290   20.9460 C   0  0  1  0  0  0  0  0  0  0  0  0
  -29.3970  -22.8660   20.9160 C   0  0  0  0  0  2  0  0  0  0  0  0
  -28.9840  -24.1170   20.0440 C   0  0  0  0  0  3  0  0  0  0  0  0
  -28.6640  -25.4250   20.8580 C   0  0  0  0  0  3  0  0  0  0  0  0
  -28.6400  -26.6620   20.1000 O   0  0  0  0  0  0  0  0  0  0  0  0
  -24.7420  -31.8450   23.1620 C   0  0  0  0  0  0  0  0  0  0  0  0
  -27.4700  -27.4000   20.1290 C   0  0  0  0  0  0  0  0  0  0  0  0
  -23.5740  -30.4250   21.5130 C   0  0  0  0  0  3  0  0  0  0  0  0
  -25.0620  -28.8890   20.1150 C   0  0  0  0  0  0  0  0  0  0  0  0
  -26.1020  -30.8040   21.3410 C   0  0  0  0  0  2  0  0  0  0  0  0
  -26.2110  -29.4290   20.7030 C   0  0  0  0  0  0  0  0  0  0  0  0
  -27.4240  -28.6940   20.7040 C   0  0  0  0  0  3  0  0  0  0  0  0
  -26.3020  -26.8780   19.5360 C   0  0  0  0  0  3  0  0  0  0  0  0
  -25.1000  -27.6120   19.5270 C   0  0  0  0  0  3  0  0  0  0  0  0
  -23.8100  -29.7400   20.1430 C   0  0  0  0  0  2  0  0  0  0  0  0
  -24.8250  -31.0380   22.0650 N   0  0  0  0  0  0  0  0  0  0  0  0
  -23.6500  -32.1020   23.6870 O   0  0  0  0  0  0  0  0  0  0  0  0
  -22.9170  -29.4030   22.4700 C   0  0  0  0  0  0  0  0  0  0  0  0
  -21.5970  -29.2030   22.3190 N   0  0  0  0  0  0  0  0  0  0  0  0
  -23.5930  -28.7920   23.3030 O   0  0  0  0  0  0  0  0  0  0  0  0
  -21.1130  -29.7470   21.6180 H   0  0  0  0  0  0  0  0  0  0  0  0
  -18.2300  -27.9570   22.7560 C   0  0  0  0  0  0  0  0  0  0  0  0
  -20.7780  -28.2590   23.0800 C   0  0  0  0  0  3  0  0  0  0  0  0
  -20.9170  -26.8260   22.5150 C   0  0  0  0  0  2  0  0  0  0  0  0
  -19.8420  -26.4780   21.4800 C   0  0  0  0  0  2  0  0  0  0  0  0
  -18.4430  -26.6070   22.0950 C   0  0  0  0  0  2  0  0  0  0  0  0
  -19.3280  -28.7380   23.2050 C   0  0  0  0  0  0  0  0  0  0  0  0
  -19.0790  -30.0010   23.7870 C   0  0  0  0  0  3  0  0  0  0  0  0
  -17.7630  -30.4830   23.9230 C   0  0  0  0  0  3  0  0  0  0  0  0
  -16.6780  -29.6980   23.4940 C   0  0  0  0  0  3  0  0  0  0  0  0
  -16.9130  -28.4360   22.9170 C   0  0  0  0  0  3  0  0  0  0  0  0
  -26.0110  -32.4910   23.7970 C   0  0  0  0  0  3  0  0  0  0  0  0
  -26.5260  -31.7270   25.0780 C   0  0  1  0  0  0  0  0  0  0  0  0
  -25.4240  -31.4710   26.1310 C   0  0  0  0  0  1  0  0  0  0  0  0
  -27.1360  -30.3610   24.6880 C   0  0  0  0  0  1  0  0  0  0  0  0
  -27.6550  -32.5390   25.7560 C   0  0  0  0  0  1  0  0  0  0  0  0
  -25.6830  -33.8850   24.1220 N   0  0  0  0  0  0  0  0  0  0  0  0
  -26.0130  -34.9420   23.3650 C   0  0  0  0  0  0  0  0  0  0  0  0
  -26.6940  -34.8450   22.3420 O   0  0  0  0  0  0  0  0  0  0  0  0
  -25.0820  -34.0360   24.9200 H   0  0  0  0  0  0  0  0  0  0  0  0
  -24.2680  -36.7150   22.9910 C   0  0  0  0  0  1  0  0  0  0  0  0
  -25.5050  -36.3260   23.8160 C   0  0  0  0  0  3  0  0  0  0  0  0
  -27.6240  -37.2340   24.6640 C   0  0  0  0  0  1  0  0  0  0  0  0
  -26.5250  -37.3930   23.7110 N   0  0  0  0  0  0  0  0  0  0  0  0
  -26.1060  -38.3070   23.8590 H   0  0  0  0  0  0  0  0  0  0  0  0
  -28.5200  -19.0400   20.0150 N   0  0  2  0  0  4  0  0  0  0  0  0
  -28.2170  -18.9340   20.9710 H   0  0  0  0  0  0  0  0  0  0  0  0
  -29.4660  -17.8730   19.7550 C   0  0  0  0  0  2  0  0  0  0  0  0
  -29.9630  -17.0750   21.0210 C   0  0  0  0  0  2  0  0  0  0  0  0
  -30.8070  -14.6440   20.5070 C   0  0  0  0  0  0  0  0  0  0  0  0
  -30.7060  -12.4130   19.4290 C   0  0  0  0  0  2  0  0  0  0  0  0
  -29.7620  -12.5220   18.2100 C   0  0  0  0  0  2  0  0  0  0  0  0
  -28.2830  -12.3450   18.6210 C   0  0  0  0  0  2  0  0  0  0  0  0
  -27.9000  -13.2050   19.8520 C   0  0  0  0  0  3  0  0  0  0  0  0
  -28.9470  -13.0230   20.9790 C   0  0  0  0  0  2  0  0  0  0  0  0
  -30.2580  -13.3990   20.4220 N   0  0  0  0  0  0  0  0  0  0  0  0
  -31.9480  -14.9020   20.1150 O   0  0  0  0  0  0  0  0  0  0  0  0
  -29.9140  -15.5930   20.8880 N   0  0  0  0  0  0  0  0  0  0  0  0
  -29.0240  -15.1900   21.1540 H   0  0  0  0  0  0  0  0  0  0  0  0
  -25.5230  -13.8020   20.6200 C   0  0  0  0  0  0  0  0  0  0  0  0
  -24.4450  -13.0270   20.9440 C   0  0  0  0  0  0  0  0  0  0  0  0
  -24.8850  -11.6730   20.8180 C   0  0  0  0  0  0  0  0  0  0  0  0
  -26.5480  -12.9230   20.3190 N   0  0  0  0  0  0  0  0  0  0  0  0
  -26.1690  -11.6340   20.4950 N   0  0  0  0  0  0  0  0  0  0  0  0
  -24.1470  -10.4150   20.9280 C   0  0  0  0  0  0  0  0  0  0  0  0
  -24.6080   -9.3590   21.7410 C   0  0  0  0  0  3  0  0  0  0  0  0
  -23.8730   -8.1580   21.8330 C   0  0  0  0  0  3  0  0  0  0  0  0
  -22.6610   -8.0080   21.1190 C   0  0  0  0  0  0  0  0  0  0  0  0
  -22.2180   -9.0610   20.2980 C   0  0  0  0  0  3  0  0  0  0  0  0
  -22.9520  -10.2530   20.2020 C   0  0  0  0  0  3  0  0  0  0  0  0
  -21.8950   -6.8670   21.1280 O   0  0  0  0  0  0  0  0  0  0  0  0
  -21.8970   -6.0130   22.2000 C   0  0  0  0  0  0  0  0  0  0  0  0
  -21.5630   -6.4510   23.5010 C   0  0  0  0  0  3  0  0  0  0  0  0
  -21.5130   -5.5260   24.5640 C   0  0  0  0  0  3  0  0  0  0  0  0
  -21.7810   -4.1650   24.3250 C   0  0  0  0  0  0  0  0  0  0  0  0
  -22.1050   -3.7270   23.0300 C   0  0  0  0  0  3  0  0  0  0  0  0
  -22.1620   -4.6490   21.9680 C   0  0  0  0  0  0  0  0  0  0  0  0
  -22.4500   -4.2200   20.7160 F   0  0  0  0  0  0  0  0  0  0  0  0
  -21.7240   -3.2710   25.3410 F   0  0  0  0  0  0  0  0  0  0  0  0
  -23.0590  -13.5070   21.2600 C   0  0  0  0  0  0  0  0  0  0  0  0
  -22.3390  -12.7800   22.1080 N   0  0  0  0  0  0  0  0  0  0  0  0
  -22.6210  -14.5540   20.7920 O   0  0  0  0  0  0  0  0  0  0  0  0
  -22.6970  -11.9170   22.4910 H   0  0  0  0  0  0  0  0  0  0  0  0
  -21.4220  -13.1020   22.3840 H   0  0  0  0  0  0  0  0  0  0  0  0
  -25.7130  -15.1740   20.5350 N   0  0  0  0  0  0  0  0  0  0  0  0
  -26.5640  -15.5900   20.1870 H   0  0  0  0  0  0  0  0  0  0  0  0
  -24.9670  -15.8360   20.7080 H   0  0  0  0  0  0  0  0  0  0  0  0
  -27.2640  -18.9430   19.1990 C   0  0  0  0  0  2  0  0  0  0  0  0
  -26.1100  -18.2670   19.9730 C   0  0  0  0  0  2  0  0  0  0  0  0
  -23.7260  -17.3610   19.9490 C   0  0  0  0  0  1  0  0  0  0  0  0
  -24.7570  -18.2480   19.2310 C   0  0  0  0  0  2  0  0  0  0  0  0
  1 49  1  0
  1  4  1  0
  4  2  1  6
  4  3  1  0
  5  4  1  0
  6  7  2  0
  6  5  1  0
  8 10  1  0
  8  7  1  0
  9 20  2  0
 10 15  1  0
 11 19  1  0
 11 21  1  0
 12 18  1  0
 12 14  1  0
 13 19  1  0
 14 15  2  0
 14 13  1  0
 16 10  2  0
 17 16  1  0
 17 12  2  0
 18 11  1  0
 19  9  1  0
 21 23  2  0
 22 21  1  0
 24 22  1  0
 25 34  2  0
 25 30  1  0
 26 22  1  0
 26 30  1  0
 27 26  1  0
 28 29  1  0
 28 27  1  0
 29 25  1  0
 30 31  2  0
 31 32  1  0
 33 32  2  0
 34 33  1  0
 35  9  1  0
 35 40  1  0
 35 36  1  0
 36 39  1  1
 36 37  1  0
 38 36  1  0
 40 43  1  0
 41 45  1  0
 41 40  1  0
 42 41  2  0
 45 44  1  0
 47 45  1  0
 47 48  1  0
 47 46  1  0
 49 50  1  1
 51 49  1  0
 51 52  1  0
 53 61  1  0
 54 59  1  0
 55 56  1  0
 55 54  1  0
 57 56  1  0
 57 66  1  0
 57 58  1  0
 59 53  1  0
 59 58  1  0
 60 53  2  0
 61 52  1  0
 61 62  1  0
 63 64  2  0
 64 83  1  0
 65 68  1  0
 65 64  1  0
 66 67  1  0
 66 63  1  0
 67 65  2  0
 68 69  1  0
 69 70  2  0
 71 74  1  0
 71 70  1  0
 72 71  2  0
 73 72  1  0
 73 68  2  0
 74 75  1  0
 75 76  1  0
 76 77  2  0
 78 77  1  0
 78 82  1  0
 79 78  2  0
 80 75  2  0
 80 79  1  0
 81 80  1  0
 83 84  1  0
 84 87  1  0
 84 86  1  0
 85 83  2  0
 88 63  1  0
 88 90  1  0
 89 88  1  0
 91 92  1  0
 91 49  1  0
 94 93  1  0
 94 92  1  0
M  ISO  4   7 101   8 101  53 100  61 100
M  END
>  <TORSDO>  (17) 
F 26

>  <SCORE>  (17) 
-8.812

>  <name>  (17) 
16

>  <ligand_id>  (17) 
16

>  <original_smiles>  (17) 
[H]c1c([H])c([H])c2c(c1[H])C([H])([H])C([H])([H])C([H])([H])C2([H])N([H])C(=O)C1([H])N(C(=O)C([H])(N([H])C(=O)C([H])(N([H])C([H])([H])[H])C([H])([H])[H])C(C([H])([H])[H])(C([H])([H])[H])C([H])([H])[H])C([H])([H])c2c([H])c(OC([H])([H])C([H])([H])C([H])([H])C(C([H])([H])[H])(C([H])([H])[H])C([H])([H])[N+]([H])(C([H])([H])C([H])([H])N([H])C(=O)N3C([H])([H])C([H])([H])C([H])([H])C([H])(n4nc(-c5c([H])c([H])c(Oc6c([H])c([H])c(F)c([H])c6F)c([H])c5[H])c(C(=O)N([H])[H])c4N([H])[H])C3([H])[H])C([H])([H])C([H])([H])C([H])([H])C([H])([H])[H])c([H])c([H])c2C1([H])[H]

>  <smiles>  (17) 
[H]c1c([H])c([H])c2c(c1[H])C([H])([H])C([H])([H])C([H])([H])C2([H])N([H])C(=O)C1([H])N(C(=O)C([H])(N([H])C(=O)C([H])(N([H])C([H])([H])[H])C([H])([H])[H])C(C([H])([H])[H])(C([H])([H])[H])C([H])([H])[H])C([H])([H])c2c([H])c(OC([H])([H])C([H])([H])C([H])([H])C(C([H])([H])[H])(C([H])([H])[H])C([H])([H])[N+]([H])(C([H])([H])C([H])([H])N([H])C(=O)N3C([H])([H])C([H])([H])C([H])([H])C([H])(n4nc(-c5c([H])c([H])c(Oc6c([H])c([H])c(F)c([H])c6F)c([H])c5[H])c(C(=O)N([H])[H])c4N([H])[H])C3([H])[H])C([H])([H])C([H])([H])C([H])([H])C([H])([H])[H])c([H])c([H])c2C1([H])[H]

$$$$
17:0:0
     RDKit          3D

 91 99  0  0  1  0  0  0  0  0999 V2000
  -28.4860  -21.4080   20.3060 C   0  0  0  0  0  3  0  0  0  0  0  0
  -30.8580  -18.5810   19.9020 C   0  0  0  0  0  3  0  0  0  0  0  0
  -30.5900  -19.9350   19.8430 C   0  0  0  0  0  3  0  0  0  0  0  0
  -28.7110  -18.8740   20.3590 C   0  0  0  0  0  3  0  0  0  0  0  0
  -29.6600  -17.8770   20.2540 C   0  0  0  0  0  0  0  0  0  0  0  0
  -29.2570  -20.1410   20.1560 N   0  0  0  0  0  0  0  0  0  0  0  0
  -28.5430  -16.2300   21.7960 C   0  0  0  0  0  1  0  0  0  0  0  0
  -29.3710  -16.3630   20.4960 C   0  0  0  0  0  3  0  0  0  0  0  0
  -30.9060  -14.4480   19.6540 C   0  0  0  0  0  0  0  0  0  0  0  0
  -30.5510  -12.2040   18.6320 C   0  0  0  0  0  2  0  0  0  0  0  0
  -29.5080  -12.2550   17.4960 C   0  0  0  0  0  2  0  0  0  0  0  0
  -28.0860  -12.0930   18.0630 C   0  0  0  0  0  2  0  0  0  0  0  0
  -27.8240  -13.0250   19.2710 C   0  0  0  0  0  3  0  0  0  0  0  0
  -28.9630  -12.9540   20.3090 C   0  0  0  0  0  2  0  0  0  0  0  0
  -30.2220  -13.2620   19.6160 N   0  0  0  0  0  0  0  0  0  0  0  0
  -31.9500  -14.5970   19.0100 O   0  0  0  0  0  0  0  0  0  0  0  0
  -30.5230  -15.4100   20.5410 N   0  0  0  0  0  0  0  0  0  0  0  0
  -31.3250  -15.8320   20.9870 H   0  0  0  0  0  0  0  0  0  0  0  0
  -25.5240  -13.6570   20.2140 C   0  0  0  0  0  0  0  0  0  0  0  0
  -24.4910  -12.8960   20.6980 C   0  0  0  0  0  0  0  0  0  0  0  0
  -24.9370  -11.5400   20.6340 C   0  0  0  0  0  0  0  0  0  0  0  0
  -26.5280  -12.7610   19.8840 N   0  0  0  0  0  0  0  0  0  0  0  0
  -26.1880  -11.4850   20.1970 N   0  0  0  0  0  0  0  0  0  0  0  0
  -24.2230  -10.2840   20.9090 C   0  0  0  0  0  0  0  0  0  0  0  0
  -24.6760   -9.3730   21.8890 C   0  0  0  0  0  3  0  0  0  0  0  0
  -23.9580   -8.1860   22.1460 C   0  0  0  0  0  3  0  0  0  0  0  0
  -22.7760   -7.8990   21.4240 C   0  0  0  0  0  0  0  0  0  0  0  0
  -22.3440   -8.7980   20.4320 C   0  0  0  0  0  3  0  0  0  0  0  0
  -23.0620   -9.9760   20.1720 C   0  0  0  0  0  3  0  0  0  0  0  0
  -22.0300   -6.7570   21.5900 O   0  0  0  0  0  0  0  0  0  0  0  0
  -21.9330   -6.1310   22.8080 C   0  0  0  0  0  0  0  0  0  0  0  0
  -21.4340   -6.7960   23.9500 C   0  0  0  0  0  3  0  0  0  0  0  0
  -21.2860   -6.0940   25.1640 C   0  0  0  0  0  3  0  0  0  0  0  0
  -21.6260   -4.7310   25.2360 C   0  0  0  0  0  0  0  0  0  0  0  0
  -22.1170   -4.0660   24.0980 C   0  0  0  0  0  3  0  0  0  0  0  0
  -22.2670   -4.7640   22.8870 C   0  0  0  0  0  0  0  0  0  0  0  0
  -22.7210   -4.1130   21.7890 F   0  0  0  0  0  0  0  0  0  0  0  0
  -21.4770   -4.0540   26.3980 F   0  0  0  0  0  0  0  0  0  0  0  0
  -23.1330  -13.3920   21.0980 C   0  0  0  0  0  0  0  0  0  0  0  0
  -22.4930  -12.7260   22.0540 N   0  0  0  0  0  0  0  0  0  0  0  0
  -22.6460  -14.4040   20.5980 O   0  0  0  0  0  0  0  0  0  0  0  0
  -22.8940  -11.9050   22.4830 H   0  0  0  0  0  0  0  0  0  0  0  0
  -21.5860  -13.0490   22.3630 H   0  0  0  0  0  0  0  0  0  0  0  0
  -25.6830  -15.0210   20.0100 N   0  0  0  0  0  0  0  0  0  0  0  0
  -24.9480  -15.6910   20.2130 H   0  0  0  0  0  0  0  0  0  0  0  0
  -26.4920  -15.4460   19.5790 H   0  0  0  0  0  0  0  0  0  0  0  0
  -29.1330  -22.7850   19.8970 C   0  0  0  0  0  3  0  0  0  0  0  0
  -28.2170  -24.2010   21.8070 C   0  0  0  0  0  1  0  0  0  0  0  0
  -28.2810  -24.0660   20.2760 C   0  0  0  0  0  3  0  0  0  0  0  0
  -28.7180  -25.4150   19.5790 C   0  0  0  0  0  2  0  0  0  0  0  0
  -28.4980  -26.6770   20.2650 O   0  0  0  0  0  0  0  0  0  0  0  0
  -24.7210  -31.8910   23.3030 C   0  0  0  0  0  0  0  0  0  0  0  0
  -27.3240  -27.4160   20.1870 C   0  0  0  0  0  0  0  0  0  0  0  0
  -23.5170  -30.5490   21.6140 C   0  0  0  0  0  3  0  0  0  0  0  0
  -24.9550  -28.9960   20.1790 C   0  0  0  0  0  0  0  0  0  0  0  0
  -26.0460  -30.8520   21.4520 C   0  0  0  0  0  2  0  0  0  0  0  0
  -26.1130  -29.4790   20.8010 C   0  0  0  0  0  0  0  0  0  0  0  0
  -27.2920  -28.6960   20.8000 C   0  0  0  0  0  3  0  0  0  0  0  0
  -26.1510  -26.9580   19.5450 C   0  0  0  0  0  3  0  0  0  0  0  0
  -24.9740  -27.7420   19.5390 C   0  0  0  0  0  3  0  0  0  0  0  0
  -23.7370  -29.8940   20.2200 C   0  0  0  0  0  2  0  0  0  0  0  0
  -24.7820  -31.1110   22.1850 N   0  0  0  0  0  0  0  0  0  0  0  0
  -23.6380  -32.1780   23.8290 O   0  0  0  0  0  0  0  0  0  0  0  0
  -22.8230  -29.5260   22.5430 C   0  0  0  0  0  0  0  0  0  0  0  0
  -21.4990  -29.3720   22.3790 N   0  0  0  0  0  0  0  0  0  0  0  0
  -23.4730  -28.8820   23.3700 O   0  0  0  0  0  0  0  0  0  0  0  0
  -21.0440  -29.9600   21.6970 H   0  0  0  0  0  0  0  0  0  0  0  0
  -18.1030  -28.1630   22.7240 C   0  0  0  0  0  0  0  0  0  0  0  0
  -20.6470  -28.4260   23.1020 C   0  0  0  0  0  3  0  0  0  0  0  0
  -20.7770  -26.9990   22.5190 C   0  0  0  0  0  2  0  0  0  0  0  0
  -19.7200  -26.6880   21.4500 C   0  0  0  0  0  2  0  0  0  0  0  0
  -18.3120  -26.8240   22.0370 C   0  0  0  0  0  2  0  0  0  0  0  0
  -19.2020  -28.9230   23.2060 C   0  0  0  0  0  0  0  0  0  0  0  0
  -18.9570  -30.1840   23.7900 C   0  0  0  0  0  3  0  0  0  0  0  0
  -17.6470  -30.6790   23.9120 C   0  0  0  0  0  3  0  0  0  0  0  0
  -16.5610  -29.9080   23.4620 C   0  0  0  0  0  3  0  0  0  0  0  0
  -16.7900  -28.6550   22.8720 C   0  0  0  0  0  3  0  0  0  0  0  0
  -26.0050  -32.4840   23.9590 C   0  0  0  0  0  3  0  0  0  0  0  0
  -25.7260  -33.8850   24.3090 N   0  0  0  0  0  0  0  0  0  0  0  0
  -26.1160  -34.9410   23.5850 C   0  0  0  0  0  0  0  0  0  0  0  0
  -26.8210  -34.8380   22.5770 O   0  0  0  0  0  0  0  0  0  0  0  0
  -25.1060  -34.0380   25.0910 H   0  0  0  0  0  0  0  0  0  0  0  0
  -24.4640  -36.7970   23.1930 C   0  0  0  0  0  1  0  0  0  0  0  0
  -25.6530  -36.3370   24.0510 C   0  0  0  0  0  3  0  0  0  0  0  0
  -27.7800  -37.1270   24.9950 C   0  0  0  0  0  1  0  0  0  0  0  0
  -26.7270  -37.3560   24.0080 N   0  0  0  0  0  0  0  0  0  0  0  0
  -26.3460  -38.2860   24.1590 H   0  0  0  0  0  0  0  0  0  0  0  0
  -26.4940  -31.6740   25.2220 C   0  0  1  0  0  0  0  0  0  0  0  0
  -25.3840  -31.4170   26.2680 C   0  0  0  0  0  1  0  0  0  0  0  0
  -27.0600  -30.3030   24.7890 C   0  0  0  0  0  1  0  0  0  0  0  0
  -27.6540  -32.4310   25.9120 C   0  0  0  0  0  1  0  0  0  0  0  0
  2  5  1  0
  3  2  2  0
  3  6  1  0
  5  4  2  0
  5  8  1  0
  6  1  1  0
  6  4  1  0
  8 17  1  0
  8  7  1  0
  9 17  1  0
 10 15  1  0
 11 12  1  0
 11 10  1  0
 13 12  1  0
 13 22  1  0
 13 14  1  0
 15  9  1  0
 15 14  1  0
 16  9  2  0
 17 18  1  0
 19 20  2  0
 20 39  1  0
 21 20  1  0
 21 24  1  0
 22 23  1  0
 22 19  1  0
 23 21  2  0
 24 25  1  0
 25 26  2  0
 27 30  1  0
 27 26  1  0
 28 27  2  0
 29 28  1  0
 29 24  2  0
 30 31  1  0
 31 36  2  0
 31 32  1  0
 32 33  2  0
 33 34  1  0
 34 38  1  0
 35 34  2  0
 36 35  1  0
 37 36  1  0
 39 40  1  0
 40 43  1  0
 40 42  1  0
 41 39  2  0
 44 45  1  0
 44 19  1  0
 46 44  1  0
 47 49  1  0
 47  1  2  0
 49 48  1  0
 50 51  1  0
 50 49  1  0
 52 63  2  0
 53 51  1  0
 53 58  1  0
 54 62  1  0
 54 64  1  0
 55 61  1  0
 55 57  1  0
 56 62  1  0
 57 56  1  0
 58 57  2  0
 59 53  2  0
 60 59  1  0
 60 55  2  0
 61 54  1  0
 62 52  1  0
 64 66  2  0
 65 64  1  0
 67 65  1  0
 68 77  2  0
 68 73  1  0
 69 65  1  0
 69 73  1  0
 70 69  1  0
 71 72  1  0
 71 70  1  0
 72 68  1  0
 73 74  2  0
 74 75  1  0
 76 75  2  0
 77 76  1  0
 78 52  1  0
 78 79  1  0
 78 88  1  0
 79 82  1  0
 80 84  1  0
 80 79  1  0
 81 80  2  0
 84 83  1  0
 86 84  1  0
 86 87  1  0
 86 85  1  0
 88 91  1  1
 88 89  1  0
 90 88  1  0
M  ISO  4   9 100  17 100  50 101  51 101
M  END
>  <TORSDO>  (18) 
F 21

>  <SCORE>  (18) 
-11.176

>  <name>  (18) 
17

>  <ligand_id>  (18) 
17

>  <original_smiles>  (18) 
[H]c1c([H])c([H])c2c(c1[H])C([H])([H])C([H])([H])C([H])([H])C2([H])N([H])C(=O)C1([H])N(C(=O)C([H])(N([H])C(=O)C([H])(N([H])C([H])([H])[H])C([H])([H])[H])C(C([H])([H])[H])(C([H])([H])[H])C([H])([H])[H])C([H])([H])c2c([H])c(OC([H])([H])C([H])(C([H])([H])[H])C([H])([H])C([H])([H])n3c([H])c([H])c(C([H])(N([H])C(=O)N4C([H])([H])C([H])([H])C([H])([H])C([H])(n5nc(-c6c([H])c([H])c(Oc7c([H])c([H])c(F)c([H])c7F)c([H])c6[H])c(C(=O)N([H])[H])c5N([H])[H])C4([H])[H])C([H])([H])[H])c3[H])c([H])c([H])c2C1([H])[H]

>  <smiles>  (18) 
[H]c1c([H])c([H])c2c(c1[H])C([H])([H])C([H])([H])C([H])([H])C2([H])N([H])C(=O)C1([H])N(C(=O)C([H])(N([H])C(=O)C([H])(N([H])C([H])([H])[H])C([H])([H])[H])C(C([H])([H])[H])(C([H])([H])[H])C([H])([H])[H])C([H])([H])c2c([H])c(OC([H])([H])C([H])(C([H])([H])[H])C([H])([H])C([H])([H])n3c([H])c([H])c(C([H])(N([H])C(=O)N4C([H])([H])C([H])([H])C([H])([H])C([H])(n5nc(-c6c([H])c([H])c(Oc7c([H])c([H])c(F)c([H])c7F)c([H])c6[H])c(C(=O)N([H])[H])c5N([H])[H])C4([H])[H])C([H])([H])[H])c3[H])c([H])c([H])c2C1([H])[H]

$$$$
18:0:0
     RDKit          3D

 99107  0  0  1  0  0  0  0  0999 V2000
  -30.5920  -22.6140   22.5600 C   0  0  0  0  0  2  0  0  0  0  0  0
  -30.4000  -24.0010   21.9390 C   0  0  0  0  0  2  0  0  0  0  0  0
  -31.7610  -24.6570   21.6360 C   0  0  0  0  0  2  0  0  0  0  0  0
  -33.0950  -26.3830   20.5360 C   0  0  0  0  0  1  0  0  0  0  0  0
  -31.7550  -25.7570   20.6320 N   0  0  2  0  0  4  0  0  0  0  0  0
  -31.5990  -25.3340   19.7300 H   0  0  0  0  0  0  0  0  0  0  0  0
  -30.6890  -26.7760   20.7970 C   0  0  0  0  0  2  0  0  0  0  0  0
  -29.5580  -26.6170   19.7540 C   0  0  0  0  0  2  0  0  0  0  0  0
  -28.5180  -27.7040   19.9170 C   0  0  0  0  0  2  0  0  0  0  0  0
  -27.3520  -27.4400   19.1340 O   0  0  0  0  0  0  0  0  0  0  0  0
  -24.4520  -31.9260   23.7720 C   0  0  0  0  0  0  0  0  0  0  0  0
  -26.2790  -28.2450   19.4430 C   0  0  0  0  0  0  0  0  0  0  0  0
  -22.9230  -31.0740   22.0120 C   0  0  0  0  0  3  0  0  0  0  0  0
  -24.0360  -29.8300   20.0860 C   0  0  0  0  0  0  0  0  0  0  0  0
  -25.4150  -31.3160   21.5620 C   0  0  0  0  0  2  0  0  0  0  0  0
  -25.2860  -30.1360   20.6280 C   0  0  0  0  0  0  0  0  0  0  0  0
  -26.3980  -29.3560   20.3110 C   0  0  0  0  0  3  0  0  0  0  0  0
  -25.0140  -27.9470   18.8900 C   0  0  0  0  0  3  0  0  0  0  0  0
  -23.8860  -28.7310   19.2170 C   0  0  0  0  0  3  0  0  0  0  0  0
  -22.9030  -30.7370   20.4930 C   0  0  0  0  0  2  0  0  0  0  0  0
  -24.2920  -31.4340   22.5110 N   0  0  0  0  0  0  0  0  0  0  0  0
  -23.4760  -32.1350   24.5050 O   0  0  0  0  0  0  0  0  0  0  0  0
  -22.2790  -29.9030   22.7860 C   0  0  0  0  0  0  0  0  0  0  0  0
  -20.9490  -29.7660   22.6570 N   0  0  0  0  0  0  0  0  0  0  0  0
  -22.9660  -29.1270   23.4540 O   0  0  0  0  0  0  0  0  0  0  0  0
  -20.4610  -30.4490   22.0970 H   0  0  0  0  0  0  0  0  0  0  0  0
  -17.5970  -28.4380   22.7840 C   0  0  0  0  0  0  0  0  0  0  0  0
  -20.1240  -28.7160   23.2500 C   0  0  0  0  0  3  0  0  0  0  0  0
  -20.3080  -27.3750   22.5020 C   0  0  0  0  0  2  0  0  0  0  0  0
  -19.2790  -27.1580   21.3900 C   0  0  0  0  0  2  0  0  0  0  0  0
  -17.8570  -27.1860   21.9600 C   0  0  0  0  0  2  0  0  0  0  0  0
  -18.6640  -29.1620   23.3760 C   0  0  0  0  0  0  0  0  0  0  0  0
  -18.3760  -30.3360   24.1030 C   0  0  0  0  0  3  0  0  0  0  0  0
  -17.0500  -30.7860   24.2500 C   0  0  0  0  0  3  0  0  0  0  0  0
  -15.9930  -30.0530   23.6840 C   0  0  0  0  0  3  0  0  0  0  0  0
  -16.2660  -28.8820   22.9550 C   0  0  0  0  0  3  0  0  0  0  0  0
  -25.8640  -32.2740   24.3450 C   0  0  0  0  0  3  0  0  0  0  0  0
  -26.4260  -31.1720   25.3220 C   0  0  1  0  0  0  0  0  0  0  0  0
  -25.4320  -30.7600   26.4340 C   0  0  0  0  0  1  0  0  0  0  0  0
  -26.8100  -29.9030   24.5270 C   0  0  0  0  0  1  0  0  0  0  0  0
  -27.7170  -31.6800   26.0090 C   0  0  0  0  0  1  0  0  0  0  0  0
  -25.7600  -33.5700   25.0260 N   0  0  0  0  0  0  0  0  0  0  0  0
  -26.2350  -34.7240   24.5410 C   0  0  0  0  0  0  0  0  0  0  0  0
  -26.8780  -34.7960   23.4890 O   0  0  0  0  0  0  0  0  0  0  0  0
  -25.1970  -33.5920   25.8630 H   0  0  0  0  0  0  0  0  0  0  0  0
  -24.7850  -36.7750   24.6970 C   0  0  0  0  0  1  0  0  0  0  0  0
  -25.9450  -36.0060   25.3490 C   0  0  0  0  0  3  0  0  0  0  0  0
  -28.1790  -36.3370   26.3110 C   0  0  0  0  0  1  0  0  0  0  0  0
  -27.1200  -36.8960   25.4770 N   0  0  0  0  0  0  0  0  0  0  0  0
  -26.8510  -37.7960   25.8690 H   0  0  0  0  0  0  0  0  0  0  0  0
  -29.5230  -21.5800   22.1490 C   0  0  0  0  0  2  0  0  0  0  0  0
  -30.8220  -19.4370   22.6010 C   0  0  0  0  0  3  0  0  0  0  0  0
  -30.9640  -19.0880   19.8830 C   0  0  0  0  0  3  0  0  0  0  0  0
  -31.5460  -18.3270   22.1200 C   0  0  0  0  0  0  0  0  0  0  0  0
  -31.6190  -18.1550   20.7120 C   0  0  0  0  0  0  0  0  0  0  0  0
  -30.2050  -20.3060   21.6910 C   0  0  0  0  0  0  0  0  0  0  0  0
  -30.2710  -20.1380   20.3570 N   0  0  0  0  0  0  0  0  0  0  0  0
  -31.1370  -16.5050   23.8140 C   0  0  0  0  0  1  0  0  0  0  0  0
  -33.0600  -18.1320   24.1520 C   0  0  0  0  0  1  0  0  0  0  0  0
  -32.1990  -17.3750   23.1240 C   0  0  0  0  0  3  0  0  0  0  0  0
  -32.3680  -17.0100   20.0470 C   0  0  0  0  0  2  0  0  0  0  0  0
  -31.5860  -15.0000   18.8080 C   0  0  0  0  0  0  0  0  0  0  0  0
  -31.1670  -12.6540   18.1860 C   0  0  0  0  0  2  0  0  0  0  0  0
  -30.0560  -12.4860   17.1380 C   0  0  0  0  0  2  0  0  0  0  0  0
  -28.6810  -12.4010   17.8180 C   0  0  0  0  0  2  0  0  0  0  0  0
  -28.4490  -13.5580   18.8230 C   0  0  0  0  0  3  0  0  0  0  0  0
  -29.6500  -13.7220   19.7810 C   0  0  0  0  0  2  0  0  0  0  0  0
  -30.8860  -13.8540   18.9870 N   0  0  0  0  0  0  0  0  0  0  0  0
  -32.3580  -15.1910   17.8620 O   0  0  0  0  0  0  0  0  0  0  0  0
  -31.5200  -15.8420   19.8440 N   0  0  0  0  0  0  0  0  0  0  0  0
  -30.9010  -15.5820   20.5950 H   0  0  0  0  0  0  0  0  0  0  0  0
  -26.3190  -14.3290   20.0470 C   0  0  0  0  0  0  0  0  0  0  0  0
  -25.2700  -13.6290   20.5820 C   0  0  0  0  0  0  0  0  0  0  0  0
  -25.5680  -12.2480   20.3740 C   0  0  0  0  0  0  0  0  0  0  0  0
  -27.1990  -13.3750   19.5550 N   0  0  0  0  0  0  0  0  0  0  0  0
  -26.7590  -12.1140   19.8040 N   0  0  0  0  0  0  0  0  0  0  0  0
  -24.7610  -11.0460   20.6330 C   0  0  0  0  0  0  0  0  0  0  0  0
  -25.2020  -10.0370   21.5180 C   0  0  0  0  0  3  0  0  0  0  0  0
  -24.4010   -8.9010   21.7640 C   0  0  0  0  0  3  0  0  0  0  0  0
  -23.1460   -8.7670   21.1270 C   0  0  0  0  0  0  0  0  0  0  0  0
  -22.7220   -9.7630   20.2290 C   0  0  0  0  0  3  0  0  0  0  0  0
  -23.5220  -10.8900   19.9800 C   0  0  0  0  0  3  0  0  0  0  0  0
  -22.3100   -7.6880   21.2870 O   0  0  0  0  0  0  0  0  0  0  0  0
  -22.1960   -7.0380   22.4880 C   0  0  0  0  0  0  0  0  0  0  0  0
  -21.8050   -7.7130   23.6650 C   0  0  0  0  0  3  0  0  0  0  0  0
  -21.6330   -6.9950   24.8650 C   0  0  0  0  0  3  0  0  0  0  0  0
  -21.8390   -5.6020   24.8900 C   0  0  0  0  0  0  0  0  0  0  0  0
  -22.2240   -4.9270   23.7170 C   0  0  0  0  0  3  0  0  0  0  0  0
  -22.3980   -5.6420   22.5200 C   0  0  0  0  0  0  0  0  0  0  0  0
  -22.7470   -4.9850   21.3880 F   0  0  0  0  0  0  0  0  0  0  0  0
  -21.6660   -4.9100   26.0400 F   0  0  0  0  0  0  0  0  0  0  0  0
  -24.0150  -14.2100   21.1660 C   0  0  0  0  0  0  0  0  0  0  0  0
  -23.4160  -13.5300   22.1380 N   0  0  0  0  0  0  0  0  0  0  0  0
  -23.5820  -15.3000   20.7960 O   0  0  0  0  0  0  0  0  0  0  0  0
  -23.7800  -12.6440   22.4610 H   0  0  0  0  0  0  0  0  0  0  0  0
  -22.5800  -13.8980   22.5700 H   0  0  0  0  0  0  0  0  0  0  0  0
  -26.5870  -15.6870   19.9240 N   0  0  0  0  0  0  0  0  0  0  0  0
  -25.9370  -16.3980   20.2420 H   0  0  0  0  0  0  0  0  0  0  0  0
  -27.4030  -16.0770   19.4680 H   0  0  0  0  0  0  0  0  0  0  0  0
  2  1  1  0
  3  2  1  0
  4  5  1  0
  5  7  1  0
  5  3  1  0
  5  6  1  6
  8  9  1  0
  8  7  1  0
 10 12  1  0
 10  9  1  0
 11 22  2  0
 12 17  1  0
 13 21  1  0
 13 23  1  0
 14 20  1  0
 14 16  1  0
 15 21  1  0
 16 15  1  0
 17 16  2  0
 18 19  1  0
 18 12  2  0
 19 14  2  0
 20 13  1  0
 21 11  1  0
 23 25  2  0
 24 23  1  0
 26 24  1  0
 27 36  2  0
 27 32  1  0
 28 24  1  0
 28 32  1  0
 29 28  1  0
 30 31  1  0
 30 29  1  0
 31 27  1  0
 32 33  2  0
 33 34  1  0
 35 34  2  0
 36 35  1  0
 37 11  1  0
 37 42  1  0
 37 38  1  0
 38 41  1  1
 38 39  1  0
 40 38  1  0
 42 45  1  0
 43 42  1  0
 43 47  1  0
 44 43  2  0
 47 46  1  0
 47 49  1  0
 49 50  1  0
 49 48  1  0
 51  1  1  0
 53 57  2  0
 53 55  1  0
 54 52  1  0
 54 60  1  0
 55 54  2  0
 56 51  1  0
 56 52  2  0
 57 56  1  0
 60 58  1  0
 60 59  1  0
 61 55  1  0
 62 68  1  0
 62 70  1  0
 63 68  1  0
 64 65  1  0
 64 63  1  0
 66 65  1  0
 66 75  1  0
 66 67  1  0
 68 67  1  0
 69 62  2  0
 70 61  1  0
 70 71  1  0
 72 73  2  0
 73 92  1  0
 74 73  1  0
 74 77  1  0
 75 76  1  0
 75 72  1  0
 76 74  2  0
 77 78  1  0
 78 79  2  0
 80 83  1  0
 80 79  1  0
 81 80  2  0
 82 81  1  0
 82 77  2  0
 83 84  1  0
 84 89  2  0
 84 85  1  0
 85 86  2  0
 86 87  1  0
 87 91  1  0
 88 87  2  0
 89 88  1  0
 90 89  1  0
 92 93  1  0
 93 95  1  0
 93 96  1  0
 94 92  2  0
 97 72  1  0
 97 98  1  0
 99 97  1  0
M  ISO  4   9 101  10 101  62 100  70 100
M  END
>  <TORSDO>  (19) 
F 26

>  <SCORE>  (19) 
2.654

>  <name>  (19) 
18

>  <ligand_id>  (19) 
18

>  <original_smiles>  (19) 
[H]c1nc(C([H])([H])C([H])([H])C([H])([H])C([H])([H])[N+]([H])(C([H])([H])[H])C([H])([H])C([H])([H])C([H])([H])Oc2c([H])c([H])c3c(c2[H])C([H])([H])N(C(=O)C([H])(N([H])C(=O)C([H])(N([H])C([H])([H])[H])C([H])([H])[H])C(C([H])([H])[H])(C([H])([H])[H])C([H])([H])[H])C([H])(C(=O)N([H])C2([H])c4c([H])c([H])c([H])c([H])c4C([H])([H])C([H])([H])C2([H])[H])C3([H])[H])c([H])c(C([H])(C([H])([H])[H])C([H])([H])[H])c1C([H])([H])N([H])C(=O)N1C([H])([H])C([H])([H])C([H])([H])C([H])(n2nc(-c3c([H])c([H])c(Oc4c([H])c([H])c(F)c([H])c4F)c([H])c3[H])c(C(=O)N([H])[H])c2N([H])[H])C1([H])[H]

>  <smiles>  (19) 
[H]c1nc(C([H])([H])C([H])([H])C([H])([H])C([H])([H])[N+]([H])(C([H])([H])[H])C([H])([H])C([H])([H])C([H])([H])Oc2c([H])c([H])c3c(c2[H])C([H])([H])N(C(=O)C([H])(N([H])C(=O)C([H])(N([H])C([H])([H])[H])C([H])([H])[H])C(C([H])([H])[H])(C([H])([H])[H])C([H])([H])[H])C([H])(C(=O)N([H])C2([H])c4c([H])c([H])c([H])c([H])c4C([H])([H])C([H])([H])C2([H])[H])C3([H])[H])c([H])c(C([H])(C([H])([H])[H])C([H])([H])[H])c1C([H])([H])N([H])C(=O)N1C([H])([H])C([H])([H])C([H])([H])C([H])(n2nc(-c3c([H])c([H])c(Oc4c([H])c([H])c(F)c([H])c4F)c([H])c3[H])c(C(=O)N([H])[H])c2N([H])[H])C1([H])[H]

$$$$
19:0:0
     RDKit          3D

 91 99  0  0  1  0  0  0  0  0999 V2000
  -30.6840  -18.7890   21.9790 C   0  0  0  0  0  3  0  0  0  0  0  0
  -30.7320  -19.9900   22.7060 C   0  0  0  0  0  0  0  0  0  0  0  0
  -30.1830  -21.1780   22.1500 C   0  0  0  0  0  0  0  0  0  0  0  0
  -30.1360  -18.7700   20.6940 C   0  0  0  0  0  0  0  0  0  0  0  0
  -29.6770  -21.1630   20.8190 C   0  0  0  0  0  0  0  0  0  0  0  0
  -31.3720  -19.9620   24.0840 C   0  0  0  0  0  1  0  0  0  0  0  0
  -30.1060  -22.4290   23.0170 C   0  0  0  0  0  1  0  0  0  0  0  0
  -29.6620  -19.9510   20.1320 N   0  0  0  0  0  0  0  0  0  0  0  0
  -28.9660  -22.4420   20.1630 C   0  0  0  0  0  2  0  0  0  0  0  0
  -29.4110  -23.9940   20.3800 C   0  0  0  0  0  3  0  0  0  0  0  0
  -28.3800  -25.1550   19.9420 C   0  0  0  0  0  3  0  0  0  0  0  0
  -28.5990  -26.6120   20.2390 O   0  0  0  0  0  0  0  0  0  0  0  0
  -24.7110  -31.8680   23.3780 C   0  0  0  0  0  0  0  0  0  0  0  0
  -27.4910  -27.4890   20.1730 C   0  0  0  0  0  0  0  0  0  0  0  0
  -23.5850  -30.5280   21.6420 C   0  0  0  0  0  3  0  0  0  0  0  0
  -25.1050  -29.0890   20.1700 C   0  0  0  0  0  0  0  0  0  0  0  0
  -26.1240  -30.9000   21.5440 C   0  0  0  0  0  2  0  0  0  0  0  0
  -26.2490  -29.5550   20.8290 C   0  0  0  0  0  0  0  0  0  0  0  0
  -27.4460  -28.7690   20.8210 C   0  0  0  0  0  3  0  0  0  0  0  0
  -26.3240  -27.0990   19.4730 C   0  0  0  0  0  3  0  0  0  0  0  0
  -25.1470  -27.8710   19.4790 C   0  0  0  0  0  3  0  0  0  0  0  0
  -23.8500  -29.9390   20.2330 C   0  0  0  0  0  2  0  0  0  0  0  0
  -24.8250  -31.1130   22.2460 N   0  0  0  0  0  0  0  0  0  0  0  0
  -23.6080  -32.0960   23.8940 O   0  0  0  0  0  0  0  0  0  0  0  0
  -22.9210  -29.4480   22.5300 C   0  0  0  0  0  0  0  0  0  0  0  0
  -21.6090  -29.2260   22.3380 N   0  0  0  0  0  0  0  0  0  0  0  0
  -23.5870  -28.8150   23.3530 O   0  0  0  0  0  0  0  0  0  0  0  0
  -21.1300  -29.7910   21.6520 H   0  0  0  0  0  0  0  0  0  0  0  0
  -18.2600  -27.8840   22.6380 C   0  0  0  0  0  0  0  0  0  0  0  0
  -20.7930  -28.2300   23.0350 C   0  0  0  0  0  3  0  0  0  0  0  0
  -20.9780  -26.8270   22.4120 C   0  0  0  0  0  2  0  0  0  0  0  0
  -19.9350  -26.5010   21.3380 C   0  0  0  0  0  2  0  0  0  0  0  0
  -18.5190  -26.5690   21.9210 C   0  0  0  0  0  2  0  0  0  0  0  0
  -19.3280  -28.6710   23.1450 C   0  0  0  0  0  0  0  0  0  0  0  0
  -19.0340  -29.9000   23.7740 C   0  0  0  0  0  3  0  0  0  0  0  0
  -17.7040  -30.3460   23.8980 C   0  0  0  0  0  3  0  0  0  0  0  0
  -16.6500  -29.5560   23.4070 C   0  0  0  0  0  3  0  0  0  0  0  0
  -16.9290  -28.3270   22.7820 C   0  0  0  0  0  3  0  0  0  0  0  0
  -25.9610  -32.5000   24.0640 C   0  0  0  0  0  3  0  0  0  0  0  0
  -26.3850  -31.7500   25.3860 C   0  0  1  0  0  0  0  0  0  0  0  0
  -25.2210  -31.5440   26.3850 C   0  0  0  0  0  1  0  0  0  0  0  0
  -26.9760  -30.3590   25.0580 C   0  0  0  0  0  1  0  0  0  0  0  0
  -27.5000  -32.5450   26.1040 C   0  0  0  0  0  1  0  0  0  0  0  0
  -25.6500  -33.9090   24.3470 N   0  0  0  0  0  0  0  0  0  0  0  0
  -26.0200  -34.9410   23.5760 C   0  0  0  0  0  0  0  0  0  0  0  0
  -26.7270  -34.8070   22.5740 O   0  0  0  0  0  0  0  0  0  0  0  0
  -25.0280  -34.0870   25.1210 H   0  0  0  0  0  0  0  0  0  0  0  0
  -24.3130  -36.7340   23.1240 C   0  0  0  0  0  1  0  0  0  0  0  0
  -25.5280  -36.3440   23.9810 C   0  0  0  0  0  3  0  0  0  0  0  0
  -27.6350  -37.2500   24.8570 C   0  0  0  0  0  1  0  0  0  0  0  0
  -26.5700  -37.3890   23.8670 N   0  0  0  0  0  0  0  0  0  0  0  0
  -26.1650  -38.3160   23.9640 H   0  0  0  0  0  0  0  0  0  0  0  0
  -30.1760  -17.4120   19.8880 C   0  0  0  0  0  2  0  0  0  0  0  0
  -30.7870  -14.9420   20.4380 C   0  0  0  0  0  0  0  0  0  0  0  0
  -30.6710  -12.5980   19.6050 C   0  0  0  0  0  2  0  0  0  0  0  0
  -29.7840  -12.5790   18.3410 C   0  0  0  0  0  2  0  0  0  0  0  0
  -28.3040  -12.3940   18.7270 C   0  0  0  0  0  2  0  0  0  0  0  0
  -27.8610  -13.3500   19.8680 C   0  0  0  0  0  3  0  0  0  0  0  0
  -28.8770  -13.3710   21.0320 C   0  0  0  0  0  2  0  0  0  0  0  0
  -30.1930  -13.7020   20.4710 N   0  0  0  0  0  0  0  0  0  0  0  0
  -31.9630  -15.0560   20.0810 O   0  0  0  0  0  0  0  0  0  0  0  0
  -29.9870  -16.0580   20.5630 N   0  0  0  0  0  0  0  0  0  0  0  0
  -29.0560  -15.8920   20.9150 H   0  0  0  0  0  0  0  0  0  0  0  0
  -25.4550  -13.9290   20.5350 C   0  0  0  0  0  0  0  0  0  0  0  0
  -24.3860  -13.1500   20.8880 C   0  0  0  0  0  0  0  0  0  0  0  0
  -24.8570  -11.8020   20.8740 C   0  0  0  0  0  0  0  0  0  0  0  0
  -26.5090  -13.0550   20.3280 N   0  0  0  0  0  0  0  0  0  0  0  0
  -26.1550  -11.7710   20.5940 N   0  0  0  0  0  0  0  0  0  0  0  0
  -24.1350  -10.5350   21.0580 C   0  0  0  0  0  0  0  0  0  0  0  0
  -24.5420   -9.5850   22.0200 C   0  0  0  0  0  3  0  0  0  0  0  0
  -23.8190   -8.3840   22.1900 C   0  0  0  0  0  3  0  0  0  0  0  0
  -22.6770   -8.1250   21.3980 C   0  0  0  0  0  0  0  0  0  0  0  0
  -22.2900   -9.0640   20.4250 C   0  0  0  0  0  3  0  0  0  0  0  0
  -23.0120  -10.2560   20.2530 C   0  0  0  0  0  3  0  0  0  0  0  0
  -21.9290   -6.9740   21.4760 O   0  0  0  0  0  0  0  0  0  0  0  0
  -21.8460   -6.2470   22.6350 C   0  0  0  0  0  0  0  0  0  0  0  0
  -21.3250   -6.7990   23.8260 C   0  0  0  0  0  3  0  0  0  0  0  0
  -21.1920   -5.9960   24.9760 C   0  0  0  0  0  3  0  0  0  0  0  0
  -21.5710   -4.6410   24.9360 C   0  0  0  0  0  0  0  0  0  0  0  0
  -22.0840   -4.0870   23.7500 C   0  0  0  0  0  3  0  0  0  0  0  0
  -22.2180   -4.8880   22.6020 C   0  0  0  0  0  0  0  0  0  0  0  0
  -22.6940   -4.3440   21.4560 F   0  0  0  0  0  0  0  0  0  0  0  0
  -21.4370   -3.8670   26.0380 F   0  0  0  0  0  0  0  0  0  0  0  0
  -22.9800  -13.6200   21.1290 C   0  0  0  0  0  0  0  0  0  0  0  0
  -22.2370  -12.9210   21.9810 N   0  0  0  0  0  0  0  0  0  0  0  0
  -22.5480  -14.6400   20.5970 O   0  0  0  0  0  0  0  0  0  0  0  0
  -22.6000  -12.0960   22.4350 H   0  0  0  0  0  0  0  0  0  0  0  0
  -21.2930  -13.2170   22.1840 H   0  0  0  0  0  0  0  0  0  0  0  0
  -25.6130  -15.2980   20.3490 N   0  0  0  0  0  0  0  0  0  0  0  0
  -24.8360  -15.9470   20.4170 H   0  0  0  0  0  0  0  0  0  0  0  0
  -26.4640  -15.7370   20.0230 H   0  0  0  0  0  0  0  0  0  0  0  0
  1  2  1  0
  2  6  1  0
  3  2  2  0
  3  7  1  0
  4  1  2  0
  5  3  1  0
  8  4  1  0
  8  5  2  0
  9 10  1  0
  9  5  1  0
 11 12  1  0
 11 10  2  0
 13 24  2  0
 14 12  1  0
 14 19  1  0
 15 23  1  0
 15 25  1  0
 16 22  1  0
 16 18  1  0
 17 23  1  0
 18 17  1  0
 19 18  2  0
 20 21  1  0
 20 14  2  0
 21 16  2  0
 22 15  1  0
 23 13  1  0
 25 27  2  0
 26 25  1  0
 28 26  1  0
 29 38  2  0
 29 34  1  0
 30 26  1  0
 30 34  1  0
 31 30  1  0
 32 33  1  0
 32 31  1  0
 33 29  1  0
 34 35  2  0
 35 36  1  0
 37 36  2  0
 38 37  1  0
 39 13  1  0
 39 44  1  0
 39 40  1  0
 40 43  1  1
 40 41  1  0
 42 40  1  0
 44 47  1  0
 45 49  1  0
 45 44  1  0
 46 45  2  0
 49 48  1  0
 51 52  1  0
 51 49  1  0
 51 50  1  0
 53 62  1  0
 53  4  1  0
 54 60  1  0
 54 62  1  0
 55 60  1  0
 56 57  1  0
 56 55  1  0
 58 57  1  0
 58 67  1  0
 58 59  1  0
 60 59  1  0
 61 54  2  0
 62 63  1  0
 64 65  2  0
 65 84  1  0
 66 65  1  0
 66 69  1  0
 67 64  1  0
 67 68  1  0
 68 66  2  0
 69 70  1  0
 70 71  2  0
 72 75  1  0
 72 71  1  0
 73 72  2  0
 74 73  1  0
 74 69  2  0
 75 76  1  0
 76 77  1  0
 77 78  2  0
 79 78  1  0
 79 83  1  0
 80 79  2  0
 81 76  2  0
 81 80  1  0
 82 81  1  0
 84 85  1  0
 85 88  1  0
 85 87  1  0
 86 84  2  0
 89 90  1  0
 89 64  1  0
 91 89  1  0
M  ISO  4  11 101  12 101  54 100  62 100
M  END
>  <TORSDO>  (20) 
F 20

>  <SCORE>  (20) 
-13.531

>  <name>  (20) 
19

>  <ligand_id>  (20) 
19

>  <original_smiles>  (20) 
[H]c1c([H])c([H])c2c(c1[H])C([H])([H])C([H])([H])C([H])([H])C2([H])N([H])C(=O)C1([H])N(C(=O)C([H])(N([H])C(=O)C([H])(N([H])C([H])([H])[H])C([H])([H])[H])C(C([H])([H])[H])(C([H])([H])[H])C([H])([H])[H])C([H])([H])c2c([H])c(OC([H])([H])C([H])([H])C([H])([H])c3nc(C([H])([H])N([H])C(=O)N4C([H])([H])C([H])([H])C([H])([H])C([H])(n5nc(-c6c([H])c([H])c(Oc7c([H])c([H])c(F)c([H])c7F)c([H])c6[H])c(C(=O)N([H])[H])c5N([H])[H])C4([H])[H])c([H])c(C([H])([H])[H])c3C([H])([H])[H])c([H])c([H])c2C1([H])[H]

>  <smiles>  (20) 
[H]c1c([H])c([H])c2c(c1[H])C([H])([H])C([H])([H])C([H])([H])C2([H])N([H])C(=O)C1([H])N(C(=O)C([H])(N([H])C(=O)C([H])(N([H])C([H])([H])[H])C([H])([H])[H])C(C([H])([H])[H])(C([H])([H])[H])C([H])([H])[H])C([H])([H])c2c([H])c(OC([H])([H])C([H])([H])C([H])([H])c3nc(C([H])([H])N([H])C(=O)N4C([H])([H])C([H])([H])C([H])([H])C([H])(n5nc(-c6c([H])c([H])c(Oc7c([H])c([H])c(F)c([H])c7F)c([H])c6[H])c(C(=O)N([H])[H])c5N([H])[H])C4([H])[H])c([H])c(C([H])([H])[H])c3C([H])([H])[H])c([H])c([H])c2C1([H])[H]

$$$$
20:0:0
     RDKit          3D

 95103  0  0  1  0  0  0  0  0999 V2000
  -30.1820  -19.6550   18.9310 C   0  0  0  0  0  3  0  0  0  0  0  0
  -30.6380  -18.6220   19.7100 C   0  0  0  0  0  0  0  0  0  0  0  0
  -31.2000  -19.2400   20.8810 C   0  0  0  0  0  0  0  0  0  0  0  0
  -31.1140  -20.6080   20.7140 C   0  0  0  0  0  0  0  0  0  0  0  0
  -31.6200  -21.7110   21.5990 C   0  0  0  0  0  1  0  0  0  0  0  0
  -30.4650  -20.8760   19.5140 N   0  0  0  0  0  0  0  0  0  0  0  0
  -31.8150  -18.5770   22.0980 C   0  0  0  0  0  2  0  0  0  0  0  0
  -30.0960  -16.9520   23.0160 C   0  0  0  0  0  1  0  0  0  0  0  0
  -31.4080  -18.4250   24.6050 C   0  0  0  0  0  1  0  0  0  0  0  0
  -30.7780  -18.3090   23.2100 C   0  0  0  0  0  3  0  0  0  0  0  0
  -30.5040  -17.1540   19.2770 C   0  0  0  0  0  2  0  0  0  0  0  0
  -31.3300  -15.0160   20.2150 C   0  0  0  0  0  0  0  0  0  0  0  0
  -31.1430  -12.7000   19.4220 C   0  0  0  0  0  2  0  0  0  0  0  0
  -30.2490  -12.7400   18.1650 C   0  0  0  0  0  2  0  0  0  0  0  0
  -28.7600  -12.6300   18.5490 C   0  0  0  0  0  2  0  0  0  0  0  0
  -28.3600  -13.5930   19.6980 C   0  0  0  0  0  3  0  0  0  0  0  0
  -29.3820  -13.5520   20.8600 C   0  0  0  0  0  2  0  0  0  0  0  0
  -30.7190  -13.8040   20.2980 N   0  0  0  0  0  0  0  0  0  0  0  0
  -32.4930  -15.1540   19.8280 O   0  0  0  0  0  0  0  0  0  0  0  0
  -30.4900  -16.0710   20.2780 N   0  0  0  0  0  0  0  0  0  0  0  0
  -29.5880  -15.8700   20.6810 H   0  0  0  0  0  0  0  0  0  0  0  0
  -25.9520  -14.2380   20.3300 C   0  0  0  0  0  0  0  0  0  0  0  0
  -24.8730  -13.4840   20.7110 C   0  0  0  0  0  0  0  0  0  0  0  0
  -25.3250  -12.1320   20.7410 C   0  0  0  0  0  0  0  0  0  0  0  0
  -26.9970  -13.3420   20.1600 N   0  0  0  0  0  0  0  0  0  0  0  0
  -26.6220  -12.0730   20.4630 N   0  0  0  0  0  0  0  0  0  0  0  0
  -24.5890  -10.8810   20.9680 C   0  0  0  0  0  0  0  0  0  0  0  0
  -24.9650   -9.9780   21.9870 C   0  0  0  0  0  3  0  0  0  0  0  0
  -24.2300   -8.7920   22.1960 C   0  0  0  0  0  3  0  0  0  0  0  0
  -23.1070   -8.4990   21.3860 C   0  0  0  0  0  0  0  0  0  0  0  0
  -22.7530   -9.3900   20.3590 C   0  0  0  0  0  3  0  0  0  0  0  0
  -23.4890  -10.5680   20.1470 C   0  0  0  0  0  3  0  0  0  0  0  0
  -22.3490   -7.3600   21.5000 O   0  0  0  0  0  0  0  0  0  0  0  0
  -22.1380   -6.7520   22.7120 C   0  0  0  0  0  0  0  0  0  0  0  0
  -21.5010   -7.4210   23.7790 C   0  0  0  0  0  3  0  0  0  0  0  0
  -21.2420   -6.7380   24.9830 C   0  0  0  0  0  3  0  0  0  0  0  0
  -21.6120   -5.3870   25.1200 C   0  0  0  0  0  0  0  0  0  0  0  0
  -22.2410   -4.7170   24.0560 C   0  0  0  0  0  3  0  0  0  0  0  0
  -22.5010   -5.3980   22.8540 C   0  0  0  0  0  0  0  0  0  0  0  0
  -23.0890   -4.7410   21.8250 F   0  0  0  0  0  0  0  0  0  0  0  0
  -21.3560   -4.7280   26.2740 F   0  0  0  0  0  0  0  0  0  0  0  0
  -23.4740  -13.9800   20.9380 C   0  0  0  0  0  0  0  0  0  0  0  0
  -22.7520  -13.3620   21.8660 N   0  0  0  0  0  0  0  0  0  0  0  0
  -23.0300  -14.9510   20.3260 O   0  0  0  0  0  0  0  0  0  0  0  0
  -23.1260  -12.5800   22.3830 H   0  0  0  0  0  0  0  0  0  0  0  0
  -21.8140  -13.6780   22.0640 H   0  0  0  0  0  0  0  0  0  0  0  0
  -26.1210  -15.5960   20.0910 N   0  0  0  0  0  0  0  0  0  0  0  0
  -25.3540  -16.2530   20.1640 H   0  0  0  0  0  0  0  0  0  0  0  0
  -26.9730  -16.0210   19.7480 H   0  0  0  0  0  0  0  0  0  0  0  0
  -30.2180  -22.1860   18.8800 C   0  0  0  0  0  2  0  0  0  0  0  0
  -29.1450  -23.0830   19.5530 C   0  0  0  0  0  2  0  0  0  0  0  0
  -28.3450  -24.5590   17.6250 C   0  0  0  0  0  1  0  0  0  0  0  0
  -29.0610  -24.5380   18.9870 C   0  0  0  0  0  3  0  0  0  0  0  0
  -28.3730  -25.5040   19.9930 C   0  0  0  0  0  2  0  0  0  0  0  0
  -28.5310  -26.9150   19.7100 O   0  0  0  0  0  0  0  0  0  0  0  0
  -24.7940  -31.8050   23.3590 C   0  0  0  0  0  0  0  0  0  0  0  0
  -27.3840  -27.6850   19.7960 C   0  0  0  0  0  0  0  0  0  0  0  0
  -23.5770  -30.6270   21.5550 C   0  0  0  0  0  3  0  0  0  0  0  0
  -25.0160  -29.2320   19.9750 C   0  0  0  0  0  0  0  0  0  0  0  0
  -26.1110  -30.9560   21.4170 C   0  0  0  0  0  2  0  0  0  0  0  0
  -26.1800  -29.6620   20.6250 C   0  0  0  0  0  0  0  0  0  0  0  0
  -27.3690  -28.8980   20.5320 C   0  0  0  0  0  3  0  0  0  0  0  0
  -26.2060  -27.2880   19.1280 C   0  0  0  0  0  3  0  0  0  0  0  0
  -25.0240  -28.0440   19.2220 C   0  0  0  0  0  3  0  0  0  0  0  0
  -23.7880  -30.1040   20.1080 C   0  0  0  0  0  2  0  0  0  0  0  0
  -24.8450  -31.1370   22.1700 N   0  0  0  0  0  0  0  0  0  0  0  0
  -23.7140  -32.0310   23.9200 O   0  0  0  0  0  0  0  0  0  0  0  0
  -22.8930  -29.5200   22.3880 C   0  0  0  0  0  0  0  0  0  0  0  0
  -21.5660  -29.3790   22.2300 N   0  0  0  0  0  0  0  0  0  0  0  0
  -23.5560  -28.7890   23.1290 O   0  0  0  0  0  0  0  0  0  0  0  0
  -21.0910  -30.0200   21.6100 H   0  0  0  0  0  0  0  0  0  0  0  0
  -18.1640  -28.2030   22.5650 C   0  0  0  0  0  0  0  0  0  0  0  0
  -20.7250  -28.3760   22.8830 C   0  0  0  0  0  3  0  0  0  0  0  0
  -20.8040  -27.0190   22.1450 C   0  0  0  0  0  2  0  0  0  0  0  0
  -19.7040  -26.8400   21.0920 C   0  0  0  0  0  2  0  0  0  0  0  0
  -18.3200  -26.9380   21.7400 C   0  0  0  0  0  2  0  0  0  0  0  0
  -19.2940  -28.8860   23.0890 C   0  0  0  0  0  0  0  0  0  0  0  0
  -19.0960  -30.0760   23.8210 C   0  0  0  0  0  3  0  0  0  0  0  0
  -17.8000  -30.5830   24.0330 C   0  0  0  0  0  3  0  0  0  0  0  0
  -16.6850  -29.8960   23.5260 C   0  0  0  0  0  3  0  0  0  0  0  0
  -16.8680  -28.7080   22.7960 C   0  0  0  0  0  3  0  0  0  0  0  0
  -26.0860  -32.3340   24.0550 C   0  0  0  0  0  3  0  0  0  0  0  0
  -25.7640  -33.6340   24.6620 N   0  0  0  0  0  0  0  0  0  0  0  0
  -26.0630  -34.8200   24.1170 C   0  0  0  0  0  0  0  0  0  0  0  0
  -26.7110  -34.9330   23.0730 O   0  0  0  0  0  0  0  0  0  0  0  0
  -25.1890  -33.6160   25.4920 H   0  0  0  0  0  0  0  0  0  0  0  0
  -24.3100  -36.6200   24.1400 C   0  0  0  0  0  1  0  0  0  0  0  0
  -25.5640  -36.0830   24.8460 C   0  0  0  0  0  3  0  0  0  0  0  0
  -27.6940  -36.8140   25.8240 C   0  0  0  0  0  1  0  0  0  0  0  0
  -26.5840  -37.1500   24.9360 N   0  0  0  0  0  0  0  0  0  0  0  0
  -26.1700  -38.0190   25.2590 H   0  0  0  0  0  0  0  0  0  0  0  0
  -26.6570  -31.3390   25.1390 C   0  0  1  0  0  0  0  0  0  0  0  0
  -25.6020  -30.8650   26.1630 C   0  0  0  0  0  1  0  0  0  0  0  0
  -27.2570  -30.0830   24.4650 C   0  0  0  0  0  1  0  0  0  0  0  0
  -27.8130  -32.0150   25.9130 C   0  0  0  0  0  1  0  0  0  0  0  0
  1  6  1  0
  1  2  2  0
  2  3  1  0
  3  7  1  0
  4  3  2  0
  4  5  1  0
  6  4  1  0
  7 10  1  0
  8 10  1  0
 10  9  1  0
 11  2  1  0
 11 20  1  0
 12 20  1  0
 12 18  1  0
 13 18  1  0
 14 15  1  0
 14 13  1  0
 16 15  1  0
 16 25  1  0
 16 17  1  0
 18 17  1  0
 19 12  2  0
 20 21  1  0
 22 23  2  0
 23 24  1  0
 23 42  1  0
 24 27  1  0
 25 22  1  0
 25 26  1  0
 26 24  2  0
 27 28  1  0
 28 29  2  0
 30 33  1  0
 30 29  1  0
 31 30  2  0
 32 31  1  0
 32 27  2  0
 33 34  1  0
 34 39  2  0
 34 35  1  0
 35 36  2  0
 36 37  1  0
 37 41  1  0
 38 37  2  0
 39 38  1  0
 40 39  1  0
 42 43  1  0
 43 46  1  0
 43 45  1  0
 44 42  2  0
 47 48  1  0
 47 22  1  0
 49 47  1  0
 50  6  1  0
 50 51  1  0
 53 52  1  0
 53 51  1  0
 53 54  1  0
 55 57  1  0
 55 54  1  0
 56 67  2  0
 57 62  1  0
 58 66  1  0
 58 68  1  0
 59 65  1  0
 59 61  1  0
 60 66  1  0
 61 60  1  0
 62 61  2  0
 63 64  1  0
 63 57  2  0
 64 59  2  0
 65 58  1  0
 66 56  1  0
 68 70  2  0
 69 68  1  0
 71 69  1  0
 72 81  2  0
 72 77  1  0
 73 69  1  0
 73 77  1  0
 74 73  1  0
 75 76  1  0
 75 74  1  0
 76 72  1  0
 77 78  2  0
 78 79  1  0
 80 79  2  0
 81 80  1  0
 82 56  1  0
 82 83  1  0
 82 92  1  0
 83 86  1  0
 84 83  1  0
 84 88  1  0
 85 84  2  0
 88 87  1  0
 88 90  1  0
 90 91  1  0
 90 89  1  0
 92 95  1  1
 92 93  1  0
 94 92  1  0
M  ISO  4  12 100  20 100  54 101  55 101
M  END
>  <TORSDO>  (21) 
F 23

>  <SCORE>  (21) 
-7.943

>  <name>  (21) 
20

>  <ligand_id>  (21) 
20

>  <original_smiles>  (21) 
[H]c1c([H])c([H])c2c(c1[H])C([H])([H])C([H])([H])C([H])([H])C2([H])N([H])C(=O)C1([H])N(C(=O)C([H])(N([H])C(=O)C([H])(N([H])C([H])([H])[H])C([H])([H])[H])C(C([H])([H])[H])(C([H])([H])[H])C([H])([H])[H])C([H])([H])c2c([H])c(OC([H])([H])C([H])(C([H])([H])[H])C([H])([H])C([H])([H])n3c([H])c(C([H])([H])N([H])C(=O)N4C([H])([H])C([H])([H])C([H])([H])C([H])(n5nc(-c6c([H])c([H])c(Oc7c([H])c([H])c(F)c([H])c7F)c([H])c6[H])c(C(=O)N([H])[H])c5N([H])[H])C4([H])[H])c(C([H])([H])C([H])(C([H])([H])[H])C([H])([H])[H])c3C([H])([H])[H])c([H])c([H])c2C1([H])[H]

>  <smiles>  (21) 
[H]c1c([H])c([H])c2c(c1[H])C([H])([H])C([H])([H])C([H])([H])C2([H])N([H])C(=O)C1([H])N(C(=O)C([H])(N([H])C(=O)C([H])(N([H])C([H])([H])[H])C([H])([H])[H])C(C([H])([H])[H])(C([H])([H])[H])C([H])([H])[H])C([H])([H])c2c([H])c(OC([H])([H])C([H])(C([H])([H])[H])C([H])([H])C([H])([H])n3c([H])c(C([H])([H])N([H])C(=O)N4C([H])([H])C([H])([H])C([H])([H])C([H])(n5nc(-c6c([H])c([H])c(Oc7c([H])c([H])c(F)c([H])c7F)c([H])c6[H])c(C(=O)N([H])[H])c5N([H])[H])C4([H])[H])c(C([H])([H])C([H])(C([H])([H])[H])C([H])([H])[H])c3C([H])([H])[H])c([H])c([H])c2C1([H])[H]

$$$$
21:0:0
     RDKit          3D

 92100  0  0  1  0  0  0  0  0999 V2000
  -29.5850  -20.4720   20.9200 C   0  0  0  0  0  3  0  0  0  0  0  0
  -28.3170  -21.4970   19.4030 C   0  0  0  0  0  3  0  0  0  0  0  0
  -28.9680  -19.4650   20.2010 C   0  0  0  0  0  0  0  0  0  0  0  0
  -28.1520  -20.1480   19.2310 C   0  0  0  0  0  0  0  0  0  0  0  0
  -29.1680  -21.7290   20.4560 N   0  0  0  0  0  0  0  0  0  0  0  0
  -28.0210  -19.4110   16.8490 C   0  0  0  0  0  1  0  0  0  0  0  0
  -25.9450  -20.3110   18.0030 C   0  0  0  0  0  1  0  0  0  0  0  0
  -27.2590  -19.5310   18.1740 C   0  0  0  0  0  3  0  0  0  0  0  0
  -28.9990  -17.9190   20.3830 C   0  0  0  0  0  2  0  0  0  0  0  0
  -30.3270  -17.1210   20.6100 C   0  0  0  0  0  2  0  0  0  0  0  0
  -30.7900  -14.6070   20.3250 C   0  0  0  0  0  0  0  0  0  0  0  0
  -30.5000  -12.4050   19.2300 C   0  0  0  0  0  2  0  0  0  0  0  0
  -29.5490  -12.5810   18.0270 C   0  0  0  0  0  2  0  0  0  0  0  0
  -28.0790  -12.4520   18.4670 C   0  0  0  0  0  2  0  0  0  0  0  0
  -27.7530  -13.3110   19.7180 C   0  0  0  0  0  3  0  0  0  0  0  0
  -28.8160  -13.1100   20.8240 C   0  0  0  0  0  2  0  0  0  0  0  0
  -30.1320  -13.4130   20.2410 N   0  0  0  0  0  0  0  0  0  0  0  0
  -31.9240  -14.7700   19.8710 O   0  0  0  0  0  0  0  0  0  0  0  0
  -30.0500  -15.6590   20.7570 N   0  0  0  0  0  0  0  0  0  0  0  0
  -29.1400  -15.4180   21.1170 H   0  0  0  0  0  0  0  0  0  0  0  0
  -25.3710  -13.9500   20.4490 C   0  0  0  0  0  0  0  0  0  0  0  0
  -24.2950  -13.1950   20.8290 C   0  0  0  0  0  0  0  0  0  0  0  0
  -24.7360  -11.8370   20.7950 C   0  0  0  0  0  0  0  0  0  0  0  0
  -26.4000  -13.0530   20.2100 N   0  0  0  0  0  0  0  0  0  0  0  0
  -26.0220  -11.7770   20.4750 N   0  0  0  0  0  0  0  0  0  0  0  0
  -23.9920  -10.5850   20.9920 C   0  0  0  0  0  0  0  0  0  0  0  0
  -24.4190   -9.6120   21.9210 C   0  0  0  0  0  3  0  0  0  0  0  0
  -23.6800   -8.4250   22.1050 C   0  0  0  0  0  3  0  0  0  0  0  0
  -22.4970   -8.2030   21.3590 C   0  0  0  0  0  0  0  0  0  0  0  0
  -22.0900   -9.1630   20.4180 C   0  0  0  0  0  3  0  0  0  0  0  0
  -22.8300  -10.3430   20.2330 C   0  0  0  0  0  3  0  0  0  0  0  0
  -21.7290   -7.0680   21.4530 O   0  0  0  0  0  0  0  0  0  0  0  0
  -21.6800   -6.3240   22.6040 C   0  0  0  0  0  0  0  0  0  0  0  0
  -21.2660   -6.8790   23.8350 C   0  0  0  0  0  3  0  0  0  0  0  0
  -21.1660   -6.0610   24.9780 C   0  0  0  0  0  3  0  0  0  0  0  0
  -21.4700   -4.6900   24.8920 C   0  0  0  0  0  0  0  0  0  0  0  0
  -21.8770   -4.1340   23.6670 C   0  0  0  0  0  3  0  0  0  0  0  0
  -21.9790   -4.9490   22.5260 C   0  0  0  0  0  0  0  0  0  0  0  0
  -22.3520   -4.4040   21.3430 F   0  0  0  0  0  0  0  0  0  0  0  0
  -21.3670   -3.9020   25.9890 F   0  0  0  0  0  0  0  0  0  0  0  0
  -22.9060  -13.6920   21.1130 C   0  0  0  0  0  0  0  0  0  0  0  0
  -22.1790  -13.0110   21.9900 N   0  0  0  0  0  0  0  0  0  0  0  0
  -22.4760  -14.7190   20.5910 O   0  0  0  0  0  0  0  0  0  0  0  0
  -22.5400  -12.1810   22.4360 H   0  0  0  0  0  0  0  0  0  0  0  0
  -21.2470  -13.3250   22.2220 H   0  0  0  0  0  0  0  0  0  0  0  0
  -25.5570  -15.3180   20.2730 N   0  0  0  0  0  0  0  0  0  0  0  0
  -24.8020  -15.9840   20.3950 H   0  0  0  0  0  0  0  0  0  0  0  0
  -26.4070  -15.7430   19.9260 H   0  0  0  0  0  0  0  0  0  0  0  0
  -29.6060  -23.0690   20.9150 C   0  0  0  0  0  2  0  0  0  0  0  0
  -28.5420  -24.2370   20.9030 C   0  0  0  0  0  2  0  0  0  0  0  0
  -28.7410  -25.3820   19.8480 C   0  0  0  0  0  2  0  0  0  0  0  0
  -28.5470  -26.7380   20.3320 O   0  0  0  0  0  0  0  0  0  0  0  0
  -24.6050  -31.9120   23.2340 C   0  0  0  0  0  0  0  0  0  0  0  0
  -27.3380  -27.4220   20.2630 C   0  0  0  0  0  0  0  0  0  0  0  0
  -23.4320  -30.4730   21.5960 C   0  0  0  0  0  3  0  0  0  0  0  0
  -24.9200  -28.9230   20.2100 C   0  0  0  0  0  0  0  0  0  0  0  0
  -25.9560  -30.8510   21.4230 C   0  0  0  0  0  2  0  0  0  0  0  0
  -26.0640  -29.4670   20.8040 C   0  0  0  0  0  0  0  0  0  0  0  0
  -27.2690  -28.7240   20.8230 C   0  0  0  0  0  3  0  0  0  0  0  0
  -26.1700  -26.8970   19.6630 C   0  0  0  0  0  3  0  0  0  0  0  0
  -24.9700  -27.6400   19.6360 C   0  0  0  0  0  3  0  0  0  0  0  0
  -23.6650  -29.7700   20.2300 C   0  0  0  0  0  2  0  0  0  0  0  0
  -24.6810  -31.0970   22.1420 N   0  0  0  0  0  0  0  0  0  0  0  0
  -23.5150  -32.1800   23.7590 O   0  0  0  0  0  0  0  0  0  0  0  0
  -22.7770  -29.4640   22.5670 C   0  0  0  0  0  0  0  0  0  0  0  0
  -21.4520  -29.2820   22.4390 N   0  0  0  0  0  0  0  0  0  0  0  0
  -23.4590  -28.8470   23.3890 O   0  0  0  0  0  0  0  0  0  0  0  0
  -20.9650  -29.8310   21.7460 H   0  0  0  0  0  0  0  0  0  0  0  0
  -18.0720  -28.1100   22.9590 C   0  0  0  0  0  0  0  0  0  0  0  0
  -20.6340  -28.3490   23.2140 C   0  0  0  0  0  3  0  0  0  0  0  0
  -20.7220  -26.9190   22.6320 C   0  0  0  0  0  2  0  0  0  0  0  0
  -19.6100  -26.6080   21.6240 C   0  0  0  0  0  2  0  0  0  0  0  0
  -18.2340  -26.7620   22.2770 C   0  0  0  0  0  2  0  0  0  0  0  0
  -19.2000  -28.8640   23.3830 C   0  0  0  0  0  0  0  0  0  0  0  0
  -18.9940  -30.1280   23.9770 C   0  0  0  0  0  3  0  0  0  0  0  0
  -17.6940  -30.6380   24.1540 C   0  0  0  0  0  3  0  0  0  0  0  0
  -16.5820  -29.8820   23.7450 C   0  0  0  0  0  3  0  0  0  0  0  0
  -16.7710  -28.6200   23.1540 C   0  0  0  0  0  3  0  0  0  0  0  0
  -25.8780  -32.5630   23.8610 C   0  0  0  0  0  3  0  0  0  0  0  0
  -25.5500  -33.9590   24.1790 N   0  0  0  0  0  0  0  0  0  0  0  0
  -25.8860  -35.0110   23.4190 C   0  0  0  0  0  0  0  0  0  0  0  0
  -26.5740  -34.9080   22.4010 O   0  0  0  0  0  0  0  0  0  0  0  0
  -24.9430  -34.1130   24.9690 H   0  0  0  0  0  0  0  0  0  0  0  0
  -24.1540  -36.7900   23.0180 C   0  0  0  0  0  1  0  0  0  0  0  0
  -25.3780  -36.3970   23.8610 C   0  0  0  0  0  3  0  0  0  0  0  0
  -27.4840  -37.3000   24.7430 C   0  0  0  0  0  1  0  0  0  0  0  0
  -26.4050  -37.4570   23.7720 N   0  0  0  0  0  0  0  0  0  0  0  0
  -25.9890  -38.3740   23.9060 H   0  0  0  0  0  0  0  0  0  0  0  0
  -26.3950  -31.8070   25.1460 C   0  0  1  0  0  0  0  0  0  0  0  0
  -25.2960  -31.5580   26.2060 C   0  0  0  0  0  1  0  0  0  0  0  0
  -27.0020  -30.4370   24.7640 C   0  0  0  0  0  1  0  0  0  0  0  0
  -27.5290  -32.6200   25.8120 C   0  0  0  0  0  1  0  0  0  0  0  0
  2  5  1  0
  3  9  1  0
  3  1  2  0
  4  2  2  0
  4  3  1  0
  5 49  1  0
  5  1  1  0
  6  8  1  0
  7  8  1  0
  8  4  1  0
  9 10  1  0
 10 19  1  0
 11 19  1  0
 12 17  1  0
 13 14  1  0
 13 12  1  0
 15 14  1  0
 15 24  1  0
 15 16  1  0
 17 11  1  0
 17 16  1  0
 18 11  2  0
 19 20  1  0
 21 22  2  0
 22 41  1  0
 23 22  1  0
 23 26  1  0
 24 21  1  0
 24 25  1  0
 25 23  2  0
 26 27  1  0
 27 28  2  0
 29 32  1  0
 29 28  1  0
 30 29  2  0
 31 30  1  0
 31 26  2  0
 32 33  1  0
 33 34  1  0
 34 35  2  0
 36 35  1  0
 36 40  1  0
 37 36  2  0
 38 33  2  0
 38 37  1  0
 39 38  1  0
 41 42  1  0
 42 45  1  0
 42 44  1  0
 43 41  2  0
 46 47  1  0
 46 21  1  0
 48 46  1  0
 50 49  1  0
 51 52  1  0
 51 50  1  0
 53 64  2  0
 54 52  1  0
 54 59  1  0
 55 63  1  0
 55 65  1  0
 56 62  1  0
 56 58  1  0
 57 63  1  0
 58 59  2  0
 58 57  1  0
 60 54  2  0
 61 60  1  0
 61 56  2  0
 62 55  1  0
 63 53  1  0
 65 67  2  0
 66 65  1  0
 68 66  1  0
 69 78  2  0
 69 74  1  0
 70 66  1  0
 70 74  1  0
 71 70  1  0
 72 73  1  0
 72 71  1  0
 73 69  1  0
 74 75  2  0
 75 76  1  0
 77 76  2  0
 78 77  1  0
 79 53  1  0
 79 80  1  0
 79 89  1  0
 80 83  1  0
 81 85  1  0
 81 80  1  0
 82 81  2  0
 85 84  1  0
 87 85  1  0
 87 88  1  0
 87 86  1  0
 89 92  1  1
 89 90  1  0
 91 89  1  0
M  ISO  4  11 100  19 100  51 101  52 101
M  END
>  <TORSDO>  (22) 
F 22

>  <SCORE>  (22) 
-13.527

>  <name>  (22) 
21

>  <ligand_id>  (22) 
21

>  <original_smiles>  (22) 
[H]c1c([H])c([H])c2c(c1[H])C([H])([H])C([H])([H])C([H])([H])C2([H])N([H])C(=O)C1([H])N(C(=O)C([H])(N([H])C(=O)C([H])(N([H])C([H])([H])[H])C([H])([H])[H])C(C([H])([H])[H])(C([H])([H])[H])C([H])([H])[H])C([H])([H])c2c([H])c(OC([H])([H])C([H])([H])C([H])([H])n3c([H])c(C([H])([H])C([H])([H])N([H])C(=O)N4C([H])([H])C([H])([H])C([H])([H])C([H])(n5nc(-c6c([H])c([H])c(Oc7c([H])c([H])c(F)c([H])c7F)c([H])c6[H])c(C(=O)N([H])[H])c5N([H])[H])C4([H])[H])c(C([H])(C([H])([H])[H])C([H])([H])[H])c3[H])c([H])c([H])c2C1([H])[H]

>  <smiles>  (22) 
[H]c1c([H])c([H])c2c(c1[H])C([H])([H])C([H])([H])C([H])([H])C2([H])N([H])C(=O)C1([H])N(C(=O)C([H])(N([H])C(=O)C([H])(N([H])C([H])([H])[H])C([H])([H])[H])C(C([H])([H])[H])(C([H])([H])[H])C([H])([H])[H])C([H])([H])c2c([H])c(OC([H])([H])C([H])([H])C([H])([H])n3c([H])c(C([H])([H])C([H])([H])N([H])C(=O)N4C([H])([H])C([H])([H])C([H])([H])C([H])(n5nc(-c6c([H])c([H])c(Oc7c([H])c([H])c(F)c([H])c7F)c([H])c6[H])c(C(=O)N([H])[H])c5N([H])[H])C4([H])[H])c(C([H])(C([H])([H])[H])C([H])([H])[H])c3[H])c([H])c([H])c2C1([H])[H]

$$$$
22:0:0
     RDKit          3D

 96104  0  0  1  0  0  0  0  0999 V2000
  -31.2470  -21.5230   21.1440 C   0  0  0  0  0  3  0  0  0  0  0  0
  -29.3270  -20.8460   20.2750 C   0  0  0  0  0  3  0  0  0  0  0  0
  -30.0850  -21.9870   20.4630 C   0  0  0  0  0  0  0  0  0  0  0  0
  -31.1530  -20.1830   21.4150 C   0  0  0  0  0  0  0  0  0  0  0  0
  -29.9620  -19.7280   20.8580 N   0  0  0  0  0  0  0  0  0  0  0  0
  -31.6530  -19.3290   23.7170 C   0  0  0  0  0  1  0  0  0  0  0  0
  -33.5520  -19.7300   22.1080 C   0  0  0  0  0  1  0  0  0  0  0  0
  -32.0760  -19.3210   22.2420 C   0  0  0  0  0  3  0  0  0  0  0  0
  -29.4360  -18.3360   20.9710 C   0  0  0  0  0  3  0  0  0  0  0  0
  -30.1230  -17.2510   20.0590 C   0  0  0  0  0  3  0  0  0  0  0  0
  -30.6330  -14.7480   20.0810 C   0  0  0  0  0  0  0  0  0  0  0  0
  -30.3630  -12.5320   19.0270 C   0  0  0  0  0  2  0  0  0  0  0  0
  -29.3730  -12.6870   17.8500 C   0  0  0  0  0  2  0  0  0  0  0  0
  -27.9190  -12.5260   18.3350 C   0  0  0  0  0  2  0  0  0  0  0  0
  -27.6110  -13.3660   19.6060 C   0  0  0  0  0  3  0  0  0  0  0  0
  -28.7190  -13.2060   20.6740 C   0  0  0  0  0  2  0  0  0  0  0  0
  -30.0040  -13.5360   20.0420 N   0  0  0  0  0  0  0  0  0  0  0  0
  -31.7650  -14.9070   19.6220 O   0  0  0  0  0  0  0  0  0  0  0  0
  -29.8620  -15.8180   20.4180 N   0  0  0  0  0  0  0  0  0  0  0  0
  -28.9390  -15.5880   20.7470 H   0  0  0  0  0  0  0  0  0  0  0  0
  -25.2390  -13.9290   20.4320 C   0  0  0  0  0  0  0  0  0  0  0  0
  -24.1980  -13.1400   20.8350 C   0  0  0  0  0  0  0  0  0  0  0  0
  -24.6750  -11.7920   20.7700 C   0  0  0  0  0  0  0  0  0  0  0  0
  -26.2850  -13.0660   20.1450 N   0  0  0  0  0  0  0  0  0  0  0  0
  -25.9510  -11.7750   20.4070 N   0  0  0  0  0  0  0  0  0  0  0  0
  -23.9730  -10.5190   20.9730 C   0  0  0  0  0  0  0  0  0  0  0  0
  -24.4280   -9.5620   21.9080 C   0  0  0  0  0  3  0  0  0  0  0  0
  -23.7190   -8.3550   22.0960 C   0  0  0  0  0  3  0  0  0  0  0  0
  -22.5440   -8.0960   21.3500 C   0  0  0  0  0  0  0  0  0  0  0  0
  -22.1120   -9.0420   20.4030 C   0  0  0  0  0  3  0  0  0  0  0  0
  -22.8220  -10.2390   20.2120 C   0  0  0  0  0  3  0  0  0  0  0  0
  -21.8090   -6.9400   21.4480 O   0  0  0  0  0  0  0  0  0  0  0  0
  -21.7470   -6.2220   22.6150 C   0  0  0  0  0  0  0  0  0  0  0  0
  -21.2710   -6.7920   23.8160 C   0  0  0  0  0  3  0  0  0  0  0  0
  -21.1560   -5.9990   24.9760 C   0  0  0  0  0  3  0  0  0  0  0  0
  -21.5090   -4.6370   24.9350 C   0  0  0  0  0  0  0  0  0  0  0  0
  -21.9810   -4.0660   23.7410 C   0  0  0  0  0  3  0  0  0  0  0  0
  -22.0940   -4.8550   22.5830 C   0  0  0  0  0  0  0  0  0  0  0  0
  -22.5270   -4.2940   21.4280 F   0  0  0  0  0  0  0  0  0  0  0  0
  -21.3930   -3.8750   26.0480 F   0  0  0  0  0  0  0  0  0  0  0  0
  -22.8060  -13.5950   21.1700 C   0  0  0  0  0  0  0  0  0  0  0  0
  -22.1240  -12.8780   22.0540 N   0  0  0  0  0  0  0  0  0  0  0  0
  -22.3390  -14.6280   20.6900 O   0  0  0  0  0  0  0  0  0  0  0  0
  -22.5160  -12.0470   22.4710 H   0  0  0  0  0  0  0  0  0  0  0  0
  -21.1920  -13.1660   22.3200 H   0  0  0  0  0  0  0  0  0  0  0  0
  -25.3740  -15.3040   20.2630 N   0  0  0  0  0  0  0  0  0  0  0  0
  -24.5930  -15.9360   20.4130 H   0  0  0  0  0  0  0  0  0  0  0  0
  -26.1890  -15.7660   19.8850 H   0  0  0  0  0  0  0  0  0  0  0  0
  -29.8900  -23.4880   20.0880 C   0  0  0  0  0  3  0  0  0  0  0  0
  -28.4550  -24.1180   20.2170 C   0  0  0  0  0  2  0  0  0  0  0  0
  -28.3240  -25.5650   20.8490 C   0  0  0  0  0  2  0  0  0  0  0  0
  -28.3460  -26.7620   20.0150 O   0  0  0  0  0  0  0  0  0  0  0  0
  -24.5740  -31.9580   23.2410 C   0  0  0  0  0  0  0  0  0  0  0  0
  -27.2040  -27.5500   20.0570 C   0  0  0  0  0  0  0  0  0  0  0  0
  -23.3550  -30.5790   21.5880 C   0  0  0  0  0  3  0  0  0  0  0  0
  -24.8040  -29.0680   20.1190 C   0  0  0  0  0  0  0  0  0  0  0  0
  -25.8780  -30.9480   21.3650 C   0  0  0  0  0  2  0  0  0  0  0  0
  -25.9680  -29.5840   20.7010 C   0  0  0  0  0  0  0  0  0  0  0  0
  -27.1750  -28.8340   20.6660 C   0  0  0  0  0  3  0  0  0  0  0  0
  -26.0210  -27.0590   19.4690 C   0  0  0  0  0  3  0  0  0  0  0  0
  -24.8250  -27.8040   19.5020 C   0  0  0  0  0  3  0  0  0  0  0  0
  -23.5540  -29.9220   20.1960 C   0  0  0  0  0  2  0  0  0  0  0  0
  -24.6210  -31.1770   22.1230 N   0  0  0  0  0  0  0  0  0  0  0  0
  -23.4990  -32.2140   23.8010 O   0  0  0  0  0  0  0  0  0  0  0  0
  -22.7220  -29.5390   22.5410 C   0  0  0  0  0  0  0  0  0  0  0  0
  -21.4000  -29.3380   22.4200 N   0  0  0  0  0  0  0  0  0  0  0  0
  -23.4200  -28.9160   23.3450 O   0  0  0  0  0  0  0  0  0  0  0  0
  -20.8960  -29.8940   21.7420 H   0  0  0  0  0  0  0  0  0  0  0  0
  -18.0510  -28.0740   22.9300 C   0  0  0  0  0  0  0  0  0  0  0  0
  -20.6060  -28.3750   23.1840 C   0  0  0  0  0  3  0  0  0  0  0  0
  -20.7270  -26.9540   22.5880 C   0  0  0  0  0  2  0  0  0  0  0  0
  -19.6240  -26.6260   21.5760 C   0  0  0  0  0  2  0  0  0  0  0  0
  -18.2450  -26.7380   22.2320 C   0  0  0  0  0  2  0  0  0  0  0  0
  -19.1600  -28.8490   23.3630 C   0  0  0  0  0  0  0  0  0  0  0  0
  -18.9260  -30.0990   23.9760 C   0  0  0  0  0  3  0  0  0  0  0  0
  -17.6160  -30.5790   24.1550 C   0  0  0  0  0  3  0  0  0  0  0  0
  -16.5200  -29.8030   23.7360 C   0  0  0  0  0  3  0  0  0  0  0  0
  -16.7390  -28.5500   23.1340 C   0  0  0  0  0  3  0  0  0  0  0  0
  -25.8650  -32.5870   23.8530 C   0  0  0  0  0  3  0  0  0  0  0  0
  -25.5630  -33.9870   24.1810 N   0  0  0  0  0  0  0  0  0  0  0  0
  -25.9030  -35.0360   23.4210 C   0  0  0  0  0  0  0  0  0  0  0  0
  -26.5750  -34.9270   22.3930 O   0  0  0  0  0  0  0  0  0  0  0  0
  -24.9660  -34.1460   24.9790 H   0  0  0  0  0  0  0  0  0  0  0  0
  -24.1880  -36.8370   23.0500 C   0  0  0  0  0  1  0  0  0  0  0  0
  -25.4190  -36.4260   23.8740 C   0  0  0  0  0  3  0  0  0  0  0  0
  -27.5510  -37.2980   24.7270 C   0  0  0  0  0  1  0  0  0  0  0  0
  -26.4600  -37.4730   23.7700 N   0  0  0  0  0  0  0  0  0  0  0  0
  -26.0570  -38.3950   23.9130 H   0  0  0  0  0  0  0  0  0  0  0  0
  -26.3850  -31.8190   25.1310 C   0  0  1  0  0  0  0  0  0  0  0  0
  -25.2950  -31.5920   26.2030 C   0  0  0  0  0  1  0  0  0  0  0  0
  -26.9650  -30.4390   24.7420 C   0  0  0  0  0  1  0  0  0  0  0  0
  -27.5390  -32.6150   25.7860 C   0  0  0  0  0  1  0  0  0  0  0  0
  -30.5560  -23.8100   18.7290 C   0  0  0  0  0  2  0  0  0  0  0  0
  -32.6970  -25.2060   18.6050 C   0  0  0  0  0  1  0  0  0  0  0  0
  -30.5960  -26.0330   17.4700 C   0  0  0  0  0  1  0  0  0  0  0  0
  -31.1620  -25.2330   18.6490 C   0  0  0  0  0  3  0  0  0  0  0  0
  1  4  2  0
  2  3  2  0
  2  5  1  0
  3  1  1  0
  4  8  1  0
  5  9  1  0
  5  4  1  0
  7  8  1  0
  8  6  1  0
 10 19  1  0
 10  9  2  0
 11 19  1  0
 12 17  1  0
 13 14  1  0
 13 12  1  0
 15 14  1  0
 15 24  1  0
 15 16  1  0
 17 11  1  0
 17 16  1  0
 18 11  2  0
 19 20  1  0
 21 22  2  0
 22 41  1  0
 23 22  1  0
 23 26  1  0
 24 25  1  0
 24 21  1  0
 25 23  2  0
 26 27  1  0
 27 28  2  0
 29 32  1  0
 29 28  1  0
 30 29  2  0
 31 30  1  0
 31 26  2  0
 32 33  1  0
 33 34  1  0
 34 35  2  0
 36 35  1  0
 36 40  1  0
 37 36  2  0
 38 33  2  0
 38 37  1  0
 39 38  1  0
 41 42  1  0
 42 45  1  0
 42 44  1  0
 43 41  2  0
 46 47  1  0
 46 21  1  0
 48 46  1  0
 49 93  1  0
 49 50  1  0
 49  3  1  0
 50 51  1  0
 52 54  1  0
 52 51  1  0
 53 64  2  0
 54 59  1  0
 55 63  1  0
 55 65  1  0
 56 62  1  0
 56 58  1  0
 57 63  1  0
 58 57  1  0
 59 58  2  0
 60 61  1  0
 60 54  2  0
 61 56  2  0
 62 55  1  0
 63 53  1  0
 65 67  2  0
 66 65  1  0
 68 66  1  0
 69 78  2  0
 69 74  1  0
 70 66  1  0
 70 74  1  0
 71 70  1  0
 72 73  1  0
 72 71  1  0
 73 69  1  0
 74 75  2  0
 75 76  1  0
 77 76  2  0
 78 77  1  0
 79 53  1  0
 79 80  1  0
 79 89  1  0
 80 83  1  0
 81 85  1  0
 81 80  1  0
 82 81  2  0
 85 84  1  0
 87 85  1  0
 87 88  1  0
 87 86  1  0
 89 92  1  1
 89 90  1  0
 91 89  1  0
 94 96  1  0
 95 96  1  0
 96 93  1  0
M  ISO  4  11 100  19 100  51 101  52 101
M  END
>  <TORSDO>  (23) 
F 24

>  <SCORE>  (23) 
-12.222

>  <name>  (23) 
22

>  <ligand_id>  (23) 
22

>  <original_smiles>  (23) 
[H]c1c([H])c([H])c2c(c1[H])C([H])([H])C([H])([H])C([H])([H])C2([H])N([H])C(=O)C1([H])N(C(=O)C([H])(N([H])C(=O)C([H])(N([H])C([H])([H])[H])C([H])([H])[H])C(C([H])([H])[H])(C([H])([H])[H])C([H])([H])[H])C([H])([H])c2c([H])c(OC([H])([H])C([H])([H])C([H])(c3c([H])c(C([H])(C([H])([H])[H])C([H])([H])[H])n(C([H])([H])C([H])([H])N([H])C(=O)N4C([H])([H])C([H])([H])C([H])([H])C([H])(n5nc(-c6c([H])c([H])c(Oc7c([H])c([H])c(F)c([H])c7F)c([H])c6[H])c(C(=O)N([H])[H])c5N([H])[H])C4([H])[H])c3[H])C([H])([H])C([H])(C([H])([H])[H])C([H])([H])[H])c([H])c([H])c2C1([H])[H]

>  <smiles>  (23) 
[H]c1c([H])c([H])c2c(c1[H])C([H])([H])C([H])([H])C([H])([H])C2([H])N([H])C(=O)C1([H])N(C(=O)C([H])(N([H])C(=O)C([H])(N([H])C([H])([H])[H])C([H])([H])[H])C(C([H])([H])[H])(C([H])([H])[H])C([H])([H])[H])C([H])([H])c2c([H])c(OC([H])([H])C([H])([H])C([H])(c3c([H])c(C([H])(C([H])([H])[H])C([H])([H])[H])n(C([H])([H])C([H])([H])N([H])C(=O)N4C([H])([H])C([H])([H])C([H])([H])C([H])(n5nc(-c6c([H])c([H])c(Oc7c([H])c([H])c(F)c([H])c7F)c([H])c6[H])c(C(=O)N([H])[H])c5N([H])[H])C4([H])[H])c3[H])C([H])([H])C([H])(C([H])([H])[H])C([H])([H])[H])c([H])c([H])c2C1([H])[H]

$$$$
23:0:0
     RDKit          3D

 94102  0  0  1  0  0  0  0  0999 V2000
  -29.4070  -20.9000   19.2810 C   0  0  0  0  0  3  0  0  0  0  0  0
  -28.3660  -21.4350   21.3680 C   0  0  0  0  0  3  0  0  0  0  0  0
  -28.6690  -21.8620   20.0570 C   0  0  0  0  0  0  0  0  0  0  0  0
  -29.7190  -19.5740   19.7450 C   0  0  0  0  0  0  0  0  0  0  0  0
  -29.1040  -19.2310   20.9630 C   0  0  0  0  0  0  0  0  0  0  0  0
  -28.5380  -20.1520   21.7770 N   0  0  0  0  0  0  0  0  0  0  0  0
  -26.6290  -22.5950   18.9890 C   0  0  0  0  0  1  0  0  0  0  0  0
  -28.7690  -23.7070   18.2260 C   0  0  0  0  0  1  0  0  0  0  0  0
  -28.0160  -23.1870   19.4370 C   0  0  2  0  0  0  0  0  0  0  0  0
  -27.9820  -24.5390   20.3760 C   0  0  0  0  0  2  0  0  0  0  0  0
  -28.3540  -26.0030   20.0320 O   0  0  0  0  0  0  0  0  0  0  0  0
  -24.6960  -31.6300   22.9990 C   0  0  0  0  0  0  0  0  0  0  0  0
  -27.3260  -26.9830   19.9800 C   0  0  0  0  0  0  0  0  0  0  0  0
  -23.5390  -30.2080   21.3560 C   0  0  0  0  0  3  0  0  0  0  0  0
  -25.0000  -28.6740   19.9140 C   0  0  0  0  0  0  0  0  0  0  0  0
  -26.0750  -30.5210   21.2140 C   0  0  0  0  0  2  0  0  0  0  0  0
  -26.1590  -29.1320   20.5590 C   0  0  0  0  0  0  0  0  0  0  0  0
  -27.3290  -28.2970   20.5680 C   0  0  0  0  0  3  0  0  0  0  0  0
  -26.1550  -26.6220   19.2830 C   0  0  0  0  0  3  0  0  0  0  0  0
  -25.0090  -27.4350   19.2540 C   0  0  0  0  0  3  0  0  0  0  0  0
  -23.7770  -29.5620   19.9650 C   0  0  0  0  0  2  0  0  0  0  0  0
  -24.7920  -30.8190   21.9110 N   0  0  0  0  0  0  0  0  0  0  0  0
  -23.6020  -31.8900   23.5200 O   0  0  0  0  0  0  0  0  0  0  0  0
  -22.9060  -29.1740   22.3130 C   0  0  0  0  0  0  0  0  0  0  0  0
  -21.5810  -28.9780   22.1940 N   0  0  0  0  0  0  0  0  0  0  0  0
  -23.5990  -28.5570   23.1280 O   0  0  0  0  0  0  0  0  0  0  0  0
  -21.0790  -29.5580   21.5360 H   0  0  0  0  0  0  0  0  0  0  0  0
  -18.2380  -27.6990   22.7310 C   0  0  0  0  0  0  0  0  0  0  0  0
  -20.7930  -28.0090   22.9550 C   0  0  0  0  0  3  0  0  0  0  0  0
  -20.9030  -26.5940   22.3550 C   0  0  0  0  0  2  0  0  0  0  0  0
  -19.7910  -26.2600   21.3480 C   0  0  0  0  0  2  0  0  0  0  0  0
  -18.4290  -26.3570   22.0390 C   0  0  0  0  0  2  0  0  0  0  0  0
  -19.3490  -28.4790   23.1490 C   0  0  0  0  0  0  0  0  0  0  0  0
  -19.1170  -29.7290   23.7630 C   0  0  0  0  0  3  0  0  0  0  0  0
  -17.8070  -30.2060   23.9550 C   0  0  0  0  0  3  0  0  0  0  0  0
  -16.7100  -29.4250   23.5450 C   0  0  0  0  0  3  0  0  0  0  0  0
  -16.9270  -28.1720   22.9500 C   0  0  0  0  0  3  0  0  0  0  0  0
  -25.9550  -32.3040   23.6460 C   0  0  0  0  0  3  0  0  0  0  0  0
  -25.5770  -33.6680   24.0300 N   0  0  0  0  0  0  0  0  0  0  0  0
  -25.8550  -34.7740   23.3230 C   0  0  0  0  0  0  0  0  0  0  0  0
  -26.5390  -34.7430   22.2940 O   0  0  0  0  0  0  0  0  0  0  0  0
  -24.9790  -33.7680   24.8370 H   0  0  0  0  0  0  0  0  0  0  0  0
  -24.0460  -36.4990   23.0200 C   0  0  0  0  0  1  0  0  0  0  0  0
  -25.2990  -36.1150   23.8280 C   0  0  0  0  0  3  0  0  0  0  0  0
  -27.3870  -37.0580   24.7220 C   0  0  0  0  0  1  0  0  0  0  0  0
  -26.2830  -37.2210   23.7770 N   0  0  0  0  0  0  0  0  0  0  0  0
  -25.8410  -38.1170   23.9570 H   0  0  0  0  0  0  0  0  0  0  0  0
  -26.5120  -31.5110   24.8990 C   0  0  1  0  0  0  0  0  0  0  0  0
  -25.4310  -31.1740   25.9570 C   0  0  0  0  0  1  0  0  0  0  0  0
  -27.1790  -30.1820   24.4640 C   0  0  0  0  0  1  0  0  0  0  0  0
  -27.6140  -32.3490   25.5930 C   0  0  0  0  0  1  0  0  0  0  0  0
  -30.8150  -18.6410   19.0650 C   0  0  0  0  0  2  0  0  0  0  0  0
  -30.6510  -17.1110   18.6030 C   0  0  0  0  0  2  0  0  0  0  0  0
  -31.4530  -14.8780   19.6570 C   0  0  0  0  0  0  0  0  0  0  0  0
  -31.2510  -12.5290   18.9550 C   0  0  0  0  0  2  0  0  0  0  0  0
  -30.2770  -12.4850   17.7530 C   0  0  0  0  0  2  0  0  0  0  0  0
  -28.8020  -12.4180   18.2030 C   0  0  0  0  0  2  0  0  0  0  0  0
  -28.4850  -13.4240   19.3390 C   0  0  0  0  0  3  0  0  0  0  0  0
  -29.5590  -13.3710   20.4410 C   0  0  0  0  0  2  0  0  0  0  0  0
  -30.8570  -13.6600   19.8080 N   0  0  0  0  0  0  0  0  0  0  0  0
  -32.6450  -14.9780   19.3250 O   0  0  0  0  0  0  0  0  0  0  0  0
  -30.6050  -15.9570   19.5820 N   0  0  0  0  0  0  0  0  0  0  0  0
  -29.6730  -15.7340   19.9010 H   0  0  0  0  0  0  0  0  0  0  0  0
  -26.1880  -14.1720   20.2030 C   0  0  0  0  0  0  0  0  0  0  0  0
  -25.0930  -13.4710   20.6230 C   0  0  0  0  0  0  0  0  0  0  0  0
  -25.4610  -12.0950   20.5510 C   0  0  0  0  0  0  0  0  0  0  0  0
  -27.1490  -13.2310   19.8960 N   0  0  0  0  0  0  0  0  0  0  0  0
  -26.7250  -11.9730   20.1670 N   0  0  0  0  0  0  0  0  0  0  0  0
  -24.6640  -10.8810   20.7650 C   0  0  0  0  0  0  0  0  0  0  0  0
  -25.0350   -9.9110   21.7280 C   0  0  0  0  0  3  0  0  0  0  0  0
  -24.2440   -8.7560   21.9280 C   0  0  0  0  0  3  0  0  0  0  0  0
  -23.0680   -8.5590   21.1650 C   0  0  0  0  0  0  0  0  0  0  0  0
  -22.7170   -9.5130   20.1930 C   0  0  0  0  0  3  0  0  0  0  0  0
  -23.5080  -10.6580   19.9920 C   0  0  0  0  0  3  0  0  0  0  0  0
  -22.2620   -7.4560   21.2650 O   0  0  0  0  0  0  0  0  0  0  0  0
  -22.0750   -6.8020   22.4630 C   0  0  0  0  0  0  0  0  0  0  0  0
  -21.5960   -7.4800   23.6040 C   0  0  0  0  0  3  0  0  0  0  0  0
  -21.3650   -6.7650   24.7990 C   0  0  0  0  0  3  0  0  0  0  0  0
  -21.5880   -5.3770   24.8400 C   0  0  0  0  0  0  0  0  0  0  0  0
  -22.0590   -4.7040   23.7050 C   0  0  0  0  0  3  0  0  0  0  0  0
  -22.3010   -5.4130   22.5160 C   0  0  0  0  0  0  0  0  0  0  0  0
  -22.7360   -4.7620   21.4120 F   0  0  0  0  0  0  0  0  0  0  0  0
  -21.3540   -4.6910   25.9830 F   0  0  0  0  0  0  0  0  0  0  0  0
  -23.7500  -14.0360   20.9730 C   0  0  0  0  0  0  0  0  0  0  0  0
  -23.0530  -13.4030   21.9020 N   0  0  0  0  0  0  0  0  0  0  0  0
  -23.3360  -15.0770   20.4560 O   0  0  0  0  0  0  0  0  0  0  0  0
  -23.4060  -12.5630   22.3370 H   0  0  0  0  0  0  0  0  0  0  0  0
  -22.1500  -13.7610   22.1900 H   0  0  0  0  0  0  0  0  0  0  0  0
  -26.4370  -15.5340   20.0150 N   0  0  0  0  0  0  0  0  0  0  0  0
  -25.6870  -16.2180   20.0750 H   0  0  0  0  0  0  0  0  0  0  0  0
  -27.2290  -15.8730   19.4890 H   0  0  0  0  0  0  0  0  0  0  0  0
  -28.7440  -17.7860   21.3000 C   0  0  0  0  0  2  0  0  0  0  0  0
  -29.7660  -15.4600   21.5940 C   0  0  0  0  0  1  0  0  0  0  0  0
  -29.7800  -16.9260   22.0230 C   0  0  0  0  0  2  0  0  0  0  0  0
  1  4  2  0
  1  3  1  0
  2  6  1  0
  3  2  2  0
  4  5  1  0
  5 92  1  0
  5  6  2  0
  9  7  1  6
  8  9  1  0
  9  3  1  0
  9 10  1  0
 11 10  1  0
 12 23  2  0
 13 11  1  0
 13 18  1  0
 14 22  1  0
 14 24  1  0
 15 21  1  0
 15 17  1  0
 16 22  1  0
 17 18  2  0
 17 16  1  0
 19 13  2  0
 20 19  1  0
 20 15  2  0
 21 14  1  0
 22 12  1  0
 24 26  2  0
 25 24  1  0
 27 25  1  0
 28 37  2  0
 28 33  1  0
 29 25  1  0
 29 33  1  0
 30 29  1  0
 31 32  1  0
 31 30  1  0
 32 28  1  0
 33 34  2  0
 34 35  1  0
 36 35  2  0
 37 36  1  0
 38 12  1  0
 38 39  1  0
 38 48  1  0
 39 42  1  0
 40 44  1  0
 40 39  1  0
 41 40  2  0
 44 43  1  0
 46 44  1  0
 46 47  1  0
 46 45  1  0
 48 51  1  1
 48 49  1  0
 50 48  1  0
 52  4  1  0
 53 52  1  0
 53 62  1  0
 54 60  1  0
 55 60  1  0
 56 57  1  0
 56 55  1  0
 58 57  1  0
 58 67  1  0
 58 59  1  0
 60 59  1  0
 61 54  2  0
 62 54  1  0
 62 63  1  0
 64 65  2  0
 65 84  1  0
 66 65  1  0
 66 69  1  0
 67 68  1  0
 67 64  1  0
 68 66  2  0
 69 70  1  0
 70 71  2  0
 72 75  1  0
 72 71  1  0
 73 72  2  0
 74 73  1  0
 74 69  2  0
 75 76  1  0
 76 81  2  0
 76 77  1  0
 77 78  2  0
 78 79  1  0
 79 83  1  0
 80 79  2  0
 81 80  1  0
 82 81  1  0
 84 85  1  0
 85 88  1  0
 85 87  1  0
 86 84  2  0
 89 90  1  0
 89 64  1  0
 91 89  1  0
 92 94  1  0
 93 94  1  0
M  ISO  4  10 101  11 101  54 100  62 100
M  END
>  <TORSDO>  (24) 
F 22

>  <SCORE>  (24) 
-10.152

>  <name>  (24) 
23

>  <ligand_id>  (24) 
23

>  <original_smiles>  (24) 
[H]c1nc(C([H])([H])C([H])([H])C([H])([H])[H])c(C([H])([H])C([H])([H])N([H])C(=O)N2C([H])([H])C([H])([H])C([H])([H])C([H])(n3nc(-c4c([H])c([H])c(Oc5c([H])c([H])c(F)c([H])c5F)c([H])c4[H])c(C(=O)N([H])[H])c3N([H])[H])C2([H])[H])c([H])c1C(C([H])([H])[H])(C([H])([H])[H])C([H])([H])Oc1c([H])c([H])c2c(c1[H])C([H])([H])N(C(=O)C([H])(N([H])C(=O)C([H])(N([H])C([H])([H])[H])C([H])([H])[H])C(C([H])([H])[H])(C([H])([H])[H])C([H])([H])[H])C([H])(C(=O)N([H])C1([H])c3c([H])c([H])c([H])c([H])c3C([H])([H])C([H])([H])C1([H])[H])C2([H])[H]

>  <smiles>  (24) 
[H]c1nc(C([H])([H])C([H])([H])C([H])([H])[H])c(C([H])([H])C([H])([H])N([H])C(=O)N2C([H])([H])C([H])([H])C([H])([H])C([H])(n3nc(-c4c([H])c([H])c(Oc5c([H])c([H])c(F)c([H])c5F)c([H])c4[H])c(C(=O)N([H])[H])c3N([H])[H])C2([H])[H])c([H])c1C(C([H])([H])[H])(C([H])([H])[H])C([H])([H])Oc1c([H])c([H])c2c(c1[H])C([H])([H])N(C(=O)C([H])(N([H])C(=O)C([H])(N([H])C([H])([H])[H])C([H])([H])[H])C(C([H])([H])[H])(C([H])([H])[H])C([H])([H])[H])C([H])(C(=O)N([H])C1([H])c3c([H])c([H])c([H])c([H])c3C([H])([H])C([H])([H])C1([H])[H])C2([H])[H]

$$$$
24:0:0
     RDKit          3D

 95103  0  0  1  0  0  0  0  0999 V2000
  -30.3640  -19.9730   20.6940 C   0  0  0  0  0  3  0  0  0  0  0  0
  -30.1850  -18.9040   21.5310 C   0  0  0  0  0  0  0  0  0  0  0  0
  -30.5120  -20.7270   22.7830 C   0  0  0  0  0  3  0  0  0  0  0  0
  -30.5490  -21.0790   21.4830 N   0  0  0  0  0  0  0  0  0  0  0  0
  -30.2830  -19.4090   22.8020 N   0  0  0  0  0  0  0  0  0  0  0  0
  -30.1900  -18.8730   23.6560 H   0  0  0  0  0  0  0  0  0  0  0  0
  -32.1800  -21.4670   24.5130 C   0  0  0  0  0  1  0  0  0  0  0  0
  -29.7400  -21.2030   25.1460 C   0  0  0  0  0  1  0  0  0  0  0  0
  -30.7290  -21.5620   24.0210 C   0  0  0  0  0  3  0  0  0  0  0  0
  -29.9510  -17.4590   21.2620 C   0  0  0  0  0  2  0  0  0  0  0  0
  -31.0770  -16.5990   21.8650 C   0  0  0  0  0  2  0  0  0  0  0  0
  -31.3490  -14.4180   20.6820 C   0  0  0  0  0  0  0  0  0  0  0  0
  -30.9810  -12.3580   19.3660 C   0  0  0  0  0  2  0  0  0  0  0  0
  -30.0650  -12.6500   18.1630 C   0  0  0  0  0  2  0  0  0  0  0  0
  -28.5760  -12.5640   18.5560 C   0  0  0  0  0  2  0  0  0  0  0  0
  -28.2590  -13.3780   19.8380 C   0  0  0  0  0  3  0  0  0  0  0  0
  -29.2700  -13.0270   20.9510 C   0  0  0  0  0  2  0  0  0  0  0  0
  -30.6330  -13.2920   20.4430 N   0  0  0  0  0  0  0  0  0  0  0  0
  -32.3800  -14.7280   20.0760 O   0  0  0  0  0  0  0  0  0  0  0  0
  -30.8100  -15.1920   21.6250 N   0  0  0  0  0  0  0  0  0  0  0  0
  -30.0000  -14.8030   22.0870 H   0  0  0  0  0  0  0  0  0  0  0  0
  -25.8650  -14.0880   20.4760 C   0  0  0  0  0  0  0  0  0  0  0  0
  -24.7590  -13.3590   20.8230 C   0  0  0  0  0  0  0  0  0  0  0  0
  -25.1690  -11.9910   20.8110 C   0  0  0  0  0  0  0  0  0  0  0  0
  -26.8810  -13.1660   20.2770 N   0  0  0  0  0  0  0  0  0  0  0  0
  -26.4610  -11.9000   20.5310 N   0  0  0  0  0  0  0  0  0  0  0  0
  -24.3920  -10.7570   20.9900 C   0  0  0  0  0  0  0  0  0  0  0  0
  -24.7450   -9.7970   21.9650 C   0  0  0  0  0  3  0  0  0  0  0  0
  -23.9720   -8.6270   22.1280 C   0  0  0  0  0  3  0  0  0  0  0  0
  -22.8340   -8.4090   21.3160 C   0  0  0  0  0  0  0  0  0  0  0  0
  -22.5010   -9.3570   20.3320 C   0  0  0  0  0  3  0  0  0  0  0  0
  -23.2740  -10.5180   20.1660 C   0  0  0  0  0  3  0  0  0  0  0  0
  -22.0410   -7.2890   21.3870 O   0  0  0  0  0  0  0  0  0  0  0  0
  -21.8440   -6.6200   22.5670 C   0  0  0  0  0  0  0  0  0  0  0  0
  -21.3090   -7.2590   23.7070 C   0  0  0  0  0  3  0  0  0  0  0  0
  -21.0560   -6.5170   24.8770 C   0  0  0  0  0  3  0  0  0  0  0  0
  -21.3340   -5.1370   24.9090 C   0  0  0  0  0  0  0  0  0  0  0  0
  -21.8650   -4.4970   23.7760 C   0  0  0  0  0  3  0  0  0  0  0  0
  -22.1160   -5.2380   22.6070 C   0  0  0  0  0  0  0  0  0  0  0  0
  -22.6070   -4.6120   21.5100 F   0  0  0  0  0  0  0  0  0  0  0  0
  -21.0860   -4.4220   26.0320 F   0  0  0  0  0  0  0  0  0  0  0  0
  -23.3730  -13.8870   21.0590 C   0  0  0  0  0  0  0  0  0  0  0  0
  -22.6110  -13.2380   21.9310 N   0  0  0  0  0  0  0  0  0  0  0  0
  -22.9760  -14.9130   20.5040 O   0  0  0  0  0  0  0  0  0  0  0  0
  -22.9450  -12.4090   22.4000 H   0  0  0  0  0  0  0  0  0  0  0  0
  -21.6800  -13.5750   22.1300 H   0  0  0  0  0  0  0  0  0  0  0  0
  -26.0870  -15.4500   20.2950 N   0  0  0  0  0  0  0  0  0  0  0  0
  -25.3440  -16.1350   20.3770 H   0  0  0  0  0  0  0  0  0  0  0  0
  -26.9520  -15.8410   19.9440 H   0  0  0  0  0  0  0  0  0  0  0  0
  -30.7600  -22.4370   20.9690 C   0  0  0  0  0  2  0  0  0  0  0  0
  -29.5230  -23.3330   21.1490 C   0  0  0  0  0  2  0  0  0  0  0  0
  -28.5770  -23.9400   18.8840 C   0  0  0  0  0  1  0  0  0  0  0  0
  -29.3830  -24.4450   20.0920 C   0  0  0  0  0  3  0  0  0  0  0  0
  -28.7340  -25.6770   20.7350 C   0  0  0  0  0  2  0  0  0  0  0  0
  -28.7740  -26.8110   19.8700 O   0  0  0  0  0  0  0  0  0  0  0  0
  -24.7420  -31.5100   23.3080 C   0  0  0  0  0  0  0  0  0  0  0  0
  -27.5880  -27.4910   19.8880 C   0  0  0  0  0  0  0  0  0  0  0  0
  -23.5910  -30.1580   21.5860 C   0  0  0  0  0  3  0  0  0  0  0  0
  -25.1090  -28.8170   20.0340 C   0  0  0  0  0  0  0  0  0  0  0  0
  -26.0870  -30.6870   21.3800 C   0  0  0  0  0  2  0  0  0  0  0  0
  -26.2430  -29.3760   20.6410 C   0  0  0  0  0  0  0  0  0  0  0  0
  -27.4860  -28.7170   20.5690 C   0  0  0  0  0  3  0  0  0  0  0  0
  -26.4480  -26.9350   19.2700 C   0  0  0  0  0  3  0  0  0  0  0  0
  -25.2070  -27.5910   19.3470 C   0  0  0  0  0  3  0  0  0  0  0  0
  -23.8140  -29.5890   20.1600 C   0  0  0  0  0  2  0  0  0  0  0  0
  -24.8270  -30.7940   22.1500 N   0  0  0  0  0  0  0  0  0  0  0  0
  -23.6570  -31.6840   23.8780 O   0  0  0  0  0  0  0  0  0  0  0  0
  -23.0190  -29.0340   22.4820 C   0  0  0  0  0  0  0  0  0  0  0  0
  -21.7410  -28.6920   22.2670 N   0  0  0  0  0  0  0  0  0  0  0  0
  -23.7250  -28.4770   23.3270 O   0  0  0  0  0  0  0  0  0  0  0  0
  -21.2290  -29.2090   21.5640 H   0  0  0  0  0  0  0  0  0  0  0  0
  -18.5730  -26.9530   22.3780 C   0  0  0  0  0  0  0  0  0  0  0  0
  -21.0010  -27.6370   22.9590 C   0  0  0  0  0  3  0  0  0  0  0  0
  -21.4080  -26.2380   22.4430 C   0  0  0  0  0  2  0  0  0  0  0  0
  -20.5100  -25.7250   21.3140 C   0  0  0  0  0  2  0  0  0  0  0  0
  -19.0520  -25.6430   21.7760 C   0  0  0  0  0  2  0  0  0  0  0  0
  -19.4920  -27.8940   22.9190 C   0  0  0  0  0  0  0  0  0  0  0  0
  -18.9970  -29.1110   23.4360 C   0  0  0  0  0  3  0  0  0  0  0  0
  -17.6190  -29.3910   23.4260 C   0  0  0  0  0  3  0  0  0  0  0  0
  -16.7130  -28.4470   22.9080 C   0  0  0  0  0  3  0  0  0  0  0  0
  -17.1900  -27.2330   22.3870 C   0  0  0  0  0  3  0  0  0  0  0  0
  -25.9990  -32.1680   23.9560 C   0  0  0  0  0  3  0  0  0  0  0  0
  -25.6580  -33.5650   24.2500 N   0  0  0  0  0  0  0  0  0  0  0  0
  -26.0300  -34.6140   23.5020 C   0  0  0  0  0  0  0  0  0  0  0  0
  -26.7680  -34.5050   22.5200 O   0  0  0  0  0  0  0  0  0  0  0  0
  -25.0040  -33.7190   25.0040 H   0  0  0  0  0  0  0  0  0  0  0  0
  -24.3110  -36.3880   23.0180 C   0  0  0  0  0  1  0  0  0  0  0  0
  -25.5000  -36.0020   23.9100 C   0  0  0  0  0  3  0  0  0  0  0  0
  -27.5680  -36.9140   24.8640 C   0  0  0  0  0  1  0  0  0  0  0  0
  -26.5280  -37.0640   23.8520 N   0  0  0  0  0  0  0  0  0  0  0  0
  -26.1030  -37.9820   23.9630 H   0  0  0  0  0  0  0  0  0  0  0  0
  -26.4870  -31.4290   25.2610 C   0  0  1  0  0  0  0  0  0  0  0  0
  -25.3680  -31.2020   26.3070 C   0  0  0  0  0  1  0  0  0  0  0  0
  -27.0890  -30.0470   24.9100 C   0  0  0  0  0  1  0  0  0  0  0  0
  -27.6180  -32.2450   25.9320 C   0  0  0  0  0  1  0  0  0  0  0  0
  1  4  1  0
  1  2  2  0
  2  5  1  0
  3  5  1  0
  3  9  1  0
  4  3  1  0
  5  6  1  0
  9  7  1  0
  9  8  1  0
 10  2  1  0
 10 11  1  0
 12 20  1  0
 13 18  1  0
 14 15  1  0
 14 13  1  0
 16 15  1  0
 16 25  1  0
 16 17  1  0
 18 12  1  0
 18 17  1  0
 19 12  2  0
 20 11  1  0
 20 21  1  0
 22 23  2  0
 23 42  1  0
 24 23  1  0
 24 27  1  0
 25 22  1  0
 25 26  1  0
 26 24  2  0
 27 28  1  0
 28 29  2  0
 30 33  1  0
 30 29  1  0
 31 30  2  0
 32 31  1  0
 32 27  2  0
 33 34  1  0
 34 39  2  0
 34 35  1  0
 35 36  2  0
 36 37  1  0
 37 41  1  0
 38 37  2  0
 39 38  1  0
 40 39  1  0
 42 43  1  0
 43 46  1  0
 43 45  1  0
 44 42  2  0
 47 48  1  0
 47 22  1  0
 49 47  1  0
 50 51  1  0
 50  4  1  0
 53 52  1  0
 53 54  1  0
 53 51  1  0
 55 57  1  0
 55 54  1  0
 56 67  2  0
 57 62  1  0
 58 66  1  0
 58 68  1  0
 59 65  1  0
 59 61  1  0
 60 66  1  0
 61 60  1  0
 62 61  2  0
 63 64  1  0
 63 57  2  0
 64 59  2  0
 65 58  1  0
 66 56  1  0
 68 70  2  0
 69 68  1  0
 71 69  1  0
 72 81  2  0
 72 77  1  0
 73 69  1  0
 74 73  1  0
 75 76  1  0
 75 74  1  0
 76 72  1  0
 77 73  1  0
 77 78  2  0
 79 78  1  0
 80 79  2  0
 81 80  1  0
 82 56  1  0
 82 83  1  0
 82 92  1  0
 83 86  1  0
 84 88  1  0
 84 83  1  0
 85 84  2  0
 88 87  1  0
 90 88  1  0
 90 91  1  0
 90 89  1  0
 92 95  1  1
 92 93  1  0
 94 92  1  0
M  ISO  4  12 100  20 100  54 101  55 101
M  END
>  <TORSDO>  (25) 
F 23

>  <SCORE>  (25) 
-10.927

>  <name>  (25) 
24

>  <ligand_id>  (25) 
24

>  <original_smiles>  (25) 
[H]c1c([H])c([H])c2c(c1[H])C([H])([H])C([H])([H])C([H])([H])C2([H])N([H])C(=O)C1([H])N(C(=O)C([H])(N([H])C(=O)C([H])(N([H])C([H])([H])[H])C([H])([H])[H])C(C([H])([H])[H])(C([H])([H])[H])C([H])([H])[H])C([H])([H])c2c([H])c(OC([H])([H])C([H])(C([H])([H])[H])C([H])([H])C([H])([H])n3c([H])c(C([H])([H])C([H])([H])N([H])C(=O)N4C([H])([H])C([H])([H])C([H])([H])C([H])(n5nc(-c6c([H])c([H])c(Oc7c([H])c([H])c(F)c([H])c7F)c([H])c6[H])c(C(=O)N([H])[H])c5N([H])[H])C4([H])[H])[n+]([H])c3C([H])(C([H])([H])[H])C([H])([H])[H])c([H])c([H])c2C1([H])[H]

>  <smiles>  (25) 
[H]c1c([H])c([H])c2c(c1[H])C([H])([H])C([H])([H])C([H])([H])C2([H])N([H])C(=O)C1([H])N(C(=O)C([H])(N([H])C(=O)C([H])(N([H])C([H])([H])[H])C([H])([H])[H])C(C([H])([H])[H])(C([H])([H])[H])C([H])([H])[H])C([H])([H])c2c([H])c(OC([H])([H])C([H])(C([H])([H])[H])C([H])([H])C([H])([H])n3c([H])c(C([H])([H])C([H])([H])N([H])C(=O)N4C([H])([H])C([H])([H])C([H])([H])C([H])(n5nc(-c6c([H])c([H])c(Oc7c([H])c([H])c(F)c([H])c7F)c([H])c6[H])c(C(=O)N([H])[H])c5N([H])[H])C4([H])[H])[n+]([H])c3C([H])(C([H])([H])[H])C([H])([H])[H])c([H])c([H])c2C1([H])[H]

$$$$
25:0:0
     RDKit          3D

 96104  0  0  1  0  0  0  0  0999 V2000
  -26.5350  -23.7170   20.1340 C   0  0  0  0  0  3  0  0  0  0  0  0
  -25.8220  -22.7270   20.8070 C   0  0  0  0  0  3  0  0  0  0  0  0
  -27.8700  -23.5070   19.7290 C   0  0  0  0  0  0  0  0  0  0  0  0
  -28.4260  -22.1810   19.9440 C   0  0  0  0  0  0  0  0  0  0  0  0
  -27.6330  -21.2910   20.7360 C   0  0  0  0  0  0  0  0  0  0  0  0
  -28.1090  -19.9440   21.2490 C   0  0  0  0  0  1  0  0  0  0  0  0
  -26.3730  -21.5510   21.1330 N   0  0  0  0  0  0  0  0  0  0  0  0
  -28.5270  -24.7740   19.1030 C   0  0  0  0  0  2  0  0  0  0  0  0
  -28.5160  -26.0580   20.0360 C   0  0  0  0  0  2  0  0  0  0  0  0
  -28.5800  -27.4020   19.4490 O   0  0  0  0  0  0  0  0  0  0  0  0
  -24.8200  -31.9760   23.5080 C   0  0  0  0  0  0  0  0  0  0  0  0
  -27.4360  -28.1720   19.6060 C   0  0  0  0  0  0  0  0  0  0  0  0
  -23.5800  -30.8090   21.7160 C   0  0  0  0  0  3  0  0  0  0  0  0
  -25.0080  -29.6010   19.9760 C   0  0  0  0  0  0  0  0  0  0  0  0
  -26.0830  -31.2990   21.4620 C   0  0  0  0  0  2  0  0  0  0  0  0
  -26.1840  -30.0570   20.5880 C   0  0  0  0  0  0  0  0  0  0  0  0
  -27.4040  -29.3550   20.3950 C   0  0  0  0  0  3  0  0  0  0  0  0
  -26.2440  -27.7560   18.9770 C   0  0  0  0  0  3  0  0  0  0  0  0
  -25.0360  -28.4540   19.1640 C   0  0  0  0  0  3  0  0  0  0  0  0
  -23.7390  -30.3840   20.2320 C   0  0  0  0  0  2  0  0  0  0  0  0
  -24.8480  -31.3690   22.2860 N   0  0  0  0  0  0  0  0  0  0  0  0
  -23.7580  -32.1050   24.1350 O   0  0  0  0  0  0  0  0  0  0  0  0
  -23.0210  -29.6130   22.5230 C   0  0  0  0  0  0  0  0  0  0  0  0
  -21.7190  -29.3270   22.3490 N   0  0  0  0  0  0  0  0  0  0  0  0
  -23.7550  -28.9510   23.2630 O   0  0  0  0  0  0  0  0  0  0  0  0
  -21.1850  -29.9200   21.7280 H   0  0  0  0  0  0  0  0  0  0  0  0
  -18.5090  -27.6700   22.4980 C   0  0  0  0  0  0  0  0  0  0  0  0
  -20.9900  -28.2240   22.9740 C   0  0  0  0  0  3  0  0  0  0  0  0
  -21.3170  -26.8800   22.2840 C   0  0  0  0  0  2  0  0  0  0  0  0
  -20.3310  -26.5180   21.1690 C   0  0  0  0  0  2  0  0  0  0  0  0
  -18.9040  -26.4260   21.7180 C   0  0  0  0  0  2  0  0  0  0  0  0
  -19.4890  -28.5230   23.0720 C   0  0  0  0  0  0  0  0  0  0  0  0
  -19.0690  -29.6850   23.7540 C   0  0  0  0  0  3  0  0  0  0  0  0
  -17.7010  -29.9980   23.8690 C   0  0  0  0  0  3  0  0  0  0  0  0
  -16.7360  -29.1420   23.3120 C   0  0  0  0  0  3  0  0  0  0  0  0
  -17.1390  -27.9790   22.6340 C   0  0  0  0  0  3  0  0  0  0  0  0
  -26.1100  -32.5560   24.1630 C   0  0  0  0  0  3  0  0  0  0  0  0
  -25.8110  -33.9290   24.5910 N   0  0  0  0  0  0  0  0  0  0  0  0
  -26.1620  -35.0310   23.9130 C   0  0  0  0  0  0  0  0  0  0  0  0
  -26.8420  -34.9940   22.8830 O   0  0  0  0  0  0  0  0  0  0  0  0
  -25.2110  -34.0330   25.3960 H   0  0  0  0  0  0  0  0  0  0  0  0
  -24.4530  -36.8600   23.6700 C   0  0  0  0  0  1  0  0  0  0  0  0
  -25.6820  -36.3880   24.4640 C   0  0  0  0  0  3  0  0  0  0  0  0
  -27.8160  -37.1860   25.3780 C   0  0  0  0  0  1  0  0  0  0  0  0
  -26.7260  -37.4350   24.4390 N   0  0  0  0  0  0  0  0  0  0  0  0
  -26.3280  -38.3470   24.6480 H   0  0  0  0  0  0  0  0  0  0  0  0
  -26.6320  -31.6960   25.3790 C   0  0  1  0  0  0  0  0  0  0  0  0
  -25.5450  -31.3920   26.4370 C   0  0  0  0  0  1  0  0  0  0  0  0
  -27.2050  -30.3460   24.8890 C   0  0  0  0  0  1  0  0  0  0  0  0
  -27.7910  -32.4380   26.0850 C   0  0  0  0  0  1  0  0  0  0  0  0
  -29.8100  -21.6710   19.4060 C   0  0  0  0  0  2  0  0  0  0  0  0
  -29.9520  -20.2110   18.9810 N   0  0  2  0  0  4  0  0  0  0  0  0
  -30.7710  -20.2250   18.3900 H   0  0  0  0  0  0  0  0  0  0  0  0
  -28.8290  -19.7230   18.1300 C   0  0  0  0  0  2  0  0  0  0  0  0
  -27.3660  -20.2950   16.1160 C   0  0  0  0  0  1  0  0  0  0  0  0
  -28.7540  -20.4180   16.7550 C   0  0  0  0  0  2  0  0  0  0  0  0
  -30.3370  -19.1940   20.0420 C   0  0  0  0  0  2  0  0  0  0  0  0
  -31.1380  -17.9330   19.5290 C   0  0  0  0  0  2  0  0  0  0  0  0
  -31.7920  -15.6090   20.3410 C   0  0  0  0  0  0  0  0  0  0  0  0
  -31.7230  -13.1990   19.8030 C   0  0  0  0  0  2  0  0  0  0  0  0
  -30.8840  -13.0210   18.5180 C   0  0  0  0  0  2  0  0  0  0  0  0
  -29.3790  -12.9230   18.8430 C   0  0  0  0  0  2  0  0  0  0  0  0
  -28.8940  -14.0130   19.8370 C   0  0  0  0  0  3  0  0  0  0  0  0
  -29.8540  -14.1540   21.0400 C   0  0  0  0  0  2  0  0  0  0  0  0
  -31.2080  -14.3880   20.5120 N   0  0  0  0  0  0  0  0  0  0  0  0
  -32.9700  -15.7320   19.9950 O   0  0  0  0  0  0  0  0  0  0  0  0
  -30.9480  -16.6730   20.3160 N   0  0  0  0  0  0  0  0  0  0  0  0
  -30.0070  -16.4760   20.6260 H   0  0  0  0  0  0  0  0  0  0  0  0
  -26.4980  -14.6970   20.4760 C   0  0  0  0  0  0  0  0  0  0  0  0
  -25.3880  -13.9600   20.7900 C   0  0  0  0  0  0  0  0  0  0  0  0
  -25.7970  -12.5920   20.7410 C   0  0  0  0  0  0  0  0  0  0  0  0
  -27.5160  -13.7800   20.2590 N   0  0  0  0  0  0  0  0  0  0  0  0
  -27.0950  -12.5070   20.4790 N   0  0  0  0  0  0  0  0  0  0  0  0
  -25.0120  -11.3560   20.8750 C   0  0  0  0  0  0  0  0  0  0  0  0
  -25.2980  -10.4020   21.8760 C   0  0  0  0  0  3  0  0  0  0  0  0
  -24.5180   -9.2310   21.9940 C   0  0  0  0  0  3  0  0  0  0  0  0
  -23.4370   -9.0060   21.1110 C   0  0  0  0  0  0  0  0  0  0  0  0
  -23.1710   -9.9480   20.1020 C   0  0  0  0  0  3  0  0  0  0  0  0
  -23.9510  -11.1090   19.9810 C   0  0  0  0  0  3  0  0  0  0  0  0
  -22.6400   -7.8870   21.1360 O   0  0  0  0  0  0  0  0  0  0  0  0
  -22.3050   -7.2690   22.3130 C   0  0  0  0  0  0  0  0  0  0  0  0
  -21.6270   -7.9520   23.3460 C   0  0  0  0  0  3  0  0  0  0  0  0
  -21.2400   -7.2590   24.5110 C   0  0  0  0  0  3  0  0  0  0  0  0
  -21.5190   -5.8870   24.6440 C   0  0  0  0  0  0  0  0  0  0  0  0
  -22.1890   -5.2040   23.6130 C   0  0  0  0  0  3  0  0  0  0  0  0
  -22.5790   -5.8930   22.4510 C   0  0  0  0  0  0  0  0  0  0  0  0
  -23.2060   -5.2240   21.4530 F   0  0  0  0  0  0  0  0  0  0  0  0
  -21.1420   -5.2200   25.7600 F   0  0  0  0  0  0  0  0  0  0  0  0
  -24.0000  -14.4870   21.0200 C   0  0  0  0  0  0  0  0  0  0  0  0
  -23.2170  -13.8200   21.8630 N   0  0  0  0  0  0  0  0  0  0  0  0
  -23.6160  -15.5270   20.4880 O   0  0  0  0  0  0  0  0  0  0  0  0
  -23.5320  -12.9780   22.3210 H   0  0  0  0  0  0  0  0  0  0  0  0
  -22.2880  -14.1640   22.0580 H   0  0  0  0  0  0  0  0  0  0  0  0
  -26.7240  -16.0630   20.3350 N   0  0  0  0  0  0  0  0  0  0  0  0
  -25.9710  -16.7370   20.4150 H   0  0  0  0  0  0  0  0  0  0  0  0
  -27.5790  -16.4700   19.9770 H   0  0  0  0  0  0  0  0  0  0  0  0
  1  2  1  0
  2  7  2  0
  3  4  1  0
  3  1  2  0
  4  5  2  0
  5  7  1  0
  5  6  1  0
  8  3  1  0
  8  9  1  0
 10 12  1  0
 10  9  1  0
 11 22  2  0
 12 17  1  0
 13 21  1  0
 13 23  1  0
 14 20  1  0
 14 16  1  0
 15 21  1  0
 16 15  1  0
 17 16  2  0
 18 19  1  0
 18 12  2  0
 19 14  2  0
 20 13  1  0
 21 11  1  0
 23 25  2  0
 24 23  1  0
 26 24  1  0
 27 36  2  0
 27 32  1  0
 28 24  1  0
 28 32  1  0
 29 28  1  0
 30 31  1  0
 30 29  1  0
 31 27  1  0
 32 33  2  0
 33 34  1  0
 35 34  2  0
 36 35  1  0
 37 11  1  0
 37 38  1  0
 37 47  1  0
 38 41  1  0
 39 43  1  0
 39 38  1  0
 40 39  2  0
 43 42  1  0
 45 43  1  0
 45 46  1  0
 45 44  1  0
 47 50  1  1
 47 48  1  0
 49 47  1  0
 51  4  1  0
 52 51  1  0
 52 57  1  0
 52 53  1  6
 54 52  1  0
 55 56  1  0
 56 54  1  0
 58 57  1  0
 58 67  1  0
 59 65  1  0
 60 65  1  0
 61 62  1  0
 61 60  1  0
 63 62  1  0
 63 72  1  0
 63 64  1  0
 65 64  1  0
 66 59  2  0
 67 59  1  0
 67 68  1  0
 69 70  2  0
 70 89  1  0
 71 70  1  0
 71 74  1  0
 72 69  1  0
 72 73  1  0
 73 71  2  0
 74 75  1  0
 75 76  2  0
 77 80  1  0
 77 76  1  0
 78 77  2  0
 79 78  1  0
 79 74  2  0
 80 81  1  0
 81 86  2  0
 81 82  1  0
 82 83  2  0
 83 84  1  0
 84 88  1  0
 85 84  2  0
 86 85  1  0
 87 86  1  0
 89 90  1  0
 90 93  1  0
 90 92  1  0
 91 89  2  0
 94 95  1  0
 94 69  1  0
 96 94  1  0
M  ISO  4   9 101  10 101  59 100  67 100
M  END
>  <TORSDO>  (26) 
F 24

>  <SCORE>  (26) 
-6.063

>  <name>  (26) 
25

>  <ligand_id>  (26) 
25

>  <original_smiles>  (26) 
[H]c1nc(C([H])([H])[H])c(C([H])([H])[N+]([H])(C([H])([H])C([H])([H])N([H])C(=O)N2C([H])([H])C([H])([H])C([H])([H])C([H])(n3nc(-c4c([H])c([H])c(Oc5c([H])c([H])c(F)c([H])c5F)c([H])c4[H])c(C(=O)N([H])[H])c3N([H])[H])C2([H])[H])C([H])([H])C([H])([H])C([H])([H])[H])c(C([H])([H])C([H])([H])Oc2c([H])c([H])c3c(c2[H])C([H])([H])N(C(=O)C([H])(N([H])C(=O)C([H])(N([H])C([H])([H])[H])C([H])([H])[H])C(C([H])([H])[H])(C([H])([H])[H])C([H])([H])[H])C([H])(C(=O)N([H])C2([H])c4c([H])c([H])c([H])c([H])c4C([H])([H])C([H])([H])C2([H])[H])C3([H])[H])c1[H]

>  <smiles>  (26) 
[H]c1nc(C([H])([H])[H])c(C([H])([H])[N+]([H])(C([H])([H])C([H])([H])N([H])C(=O)N2C([H])([H])C([H])([H])C([H])([H])C([H])(n3nc(-c4c([H])c([H])c(Oc5c([H])c([H])c(F)c([H])c5F)c([H])c4[H])c(C(=O)N([H])[H])c3N([H])[H])C2([H])[H])C([H])([H])C([H])([H])C([H])([H])[H])c(C([H])([H])C([H])([H])Oc2c([H])c([H])c3c(c2[H])C([H])([H])N(C(=O)C([H])(N([H])C(=O)C([H])(N([H])C([H])([H])[H])C([H])([H])[H])C(C([H])([H])[H])(C([H])([H])[H])C([H])([H])[H])C([H])(C(=O)N([H])C2([H])c4c([H])c([H])c([H])c([H])c4C([H])([H])C([H])([H])C2([H])[H])C3([H])[H])c1[H]

$$$$
26:0:0
     RDKit          3D

 96104  0  0  1  0  0  0  0  0999 V2000
  -28.3670  -22.2520   21.6110 C   0  0  0  0  0  2  0  0  0  0  0  0
  -29.1490  -22.7840   19.2620 C   0  0  0  0  0  2  0  0  0  0  0  0
  -29.0600  -20.9190   21.2240 C   0  0  0  0  0  2  0  0  0  0  0  0
  -28.5020  -23.3650   20.5380 C   0  0  0  0  0  3  0  0  0  0  0  0
  -28.4590  -21.4520   18.8580 C   0  0  0  0  0  3  0  0  0  0  0  0
  -28.5670  -20.3920   19.9200 N   0  0  1  0  0  4  0  0  0  0  0  0
  -27.6130  -20.1130   20.0930 H   0  0  0  0  0  0  0  0  0  0  0  0
  -29.1560  -24.6420   21.1110 C   0  0  0  0  0  2  0  0  0  0  0  0
  -29.5480  -25.7190   20.0870 C   0  0  0  0  0  2  0  0  0  0  0  0
  -29.2870  -27.0060   20.6350 O   0  0  0  0  0  0  0  0  0  0  0  0
  -24.8860  -31.8010   23.4420 C   0  0  0  0  0  0  0  0  0  0  0  0
  -28.0310  -27.5720   20.5520 C   0  0  0  0  0  0  0  0  0  0  0  0
  -23.9090  -30.3890   21.6600 C   0  0  0  0  0  3  0  0  0  0  0  0
  -25.5620  -28.9420   20.3710 C   0  0  0  0  0  0  0  0  0  0  0  0
  -26.4200  -30.8690   21.7170 C   0  0  0  0  0  2  0  0  0  0  0  0
  -26.6300  -29.5150   21.0710 C   0  0  0  0  0  0  0  0  0  0  0  0
  -27.8620  -28.8350   21.1590 C   0  0  0  0  0  3  0  0  0  0  0  0
  -26.9280  -26.9900   19.8800 C   0  0  0  0  0  3  0  0  0  0  0  0
  -25.7030  -27.6770   19.7770 C   0  0  0  0  0  3  0  0  0  0  0  0
  -24.2830  -29.7480   20.2970 C   0  0  0  0  0  2  0  0  0  0  0  0
  -25.0850  -31.0330   22.3340 N   0  0  0  0  0  0  0  0  0  0  0  0
  -23.7470  -32.0130   23.8770 O   0  0  0  0  0  0  0  0  0  0  0  0
  -23.2150  -29.3160   22.5300 C   0  0  0  0  0  0  0  0  0  0  0  0
  -21.9060  -29.1200   22.3000 N   0  0  0  0  0  0  0  0  0  0  0  0
  -23.8510  -28.6670   23.3630 O   0  0  0  0  0  0  0  0  0  0  0  0
  -21.4590  -29.6920   21.5970 H   0  0  0  0  0  0  0  0  0  0  0  0
  -18.5070  -27.9370   22.5810 C   0  0  0  0  0  0  0  0  0  0  0  0
  -21.0520  -28.1420   22.9710 C   0  0  0  0  0  3  0  0  0  0  0  0
  -21.1670  -26.7540   22.2990 C   0  0  0  0  0  2  0  0  0  0  0  0
  -20.1030  -26.5130   21.2230 C   0  0  0  0  0  2  0  0  0  0  0  0
  -18.6970  -26.6350   21.8180 C   0  0  0  0  0  2  0  0  0  0  0  0
  -19.6140  -28.6530   23.1050 C   0  0  0  0  0  0  0  0  0  0  0  0
  -19.3860  -29.8800   23.7670 C   0  0  0  0  0  3  0  0  0  0  0  0
  -18.0820  -30.3900   23.9110 C   0  0  0  0  0  3  0  0  0  0  0  0
  -16.9870  -29.6640   23.4080 C   0  0  0  0  0  3  0  0  0  0  0  0
  -17.2000  -28.4420   22.7470 C   0  0  0  0  0  3  0  0  0  0  0  0
  -26.0760  -32.4670   24.2030 C   0  0  0  0  0  3  0  0  0  0  0  0
  -26.4920  -31.6950   25.5150 C   0  0  1  0  0  0  0  0  0  0  0  0
  -25.3020  -31.3320   26.4320 C   0  0  0  0  0  1  0  0  0  0  0  0
  -27.2310  -30.3860   25.1580 C   0  0  0  0  0  1  0  0  0  0  0  0
  -27.4790  -32.5550   26.3390 C   0  0  0  0  0  1  0  0  0  0  0  0
  -25.6830  -33.8480   24.5110 N   0  0  0  0  0  0  0  0  0  0  0  0
  -26.0120  -34.9160   23.7730 C   0  0  0  0  0  0  0  0  0  0  0  0
  -26.7510  -34.8460   22.7870 O   0  0  0  0  0  0  0  0  0  0  0  0
  -25.0320  -33.9740   25.2740 H   0  0  0  0  0  0  0  0  0  0  0  0
  -24.2060  -36.6080   23.3310 C   0  0  0  0  0  1  0  0  0  0  0  0
  -25.4320  -36.2780   24.1980 C   0  0  0  0  0  3  0  0  0  0  0  0
  -27.4940  -37.2680   25.0900 C   0  0  0  0  0  1  0  0  0  0  0  0
  -26.4090  -37.3850   24.1180 N   0  0  0  0  0  0  0  0  0  0  0  0
  -25.9520  -38.2810   24.2630 H   0  0  0  0  0  0  0  0  0  0  0  0
  -26.9780  -21.7430   18.5100 C   0  0  0  0  0  2  0  0  0  0  0  0
  -26.3810  -20.9080   17.3660 C   0  0  0  0  0  2  0  0  0  0  0  0
  -23.9320  -21.1710   18.1260 C   0  0  0  0  0  1  0  0  0  0  0  0
  -24.9530  -21.3480   16.9910 C   0  0  0  0  0  2  0  0  0  0  0  0
  -29.2620  -19.1620   19.4270 C   0  0  0  0  0  2  0  0  0  0  0  0
  -29.6030  -18.0610   20.4850 C   0  0  0  0  0  2  0  0  0  0  0  0
  -30.0060  -16.7370   19.7680 C   0  0  0  0  0  2  0  0  0  0  0  0
  -31.2590  -14.6560   19.7290 C   0  0  0  0  0  0  0  0  0  0  0  0
  -30.8200  -12.5170   18.5250 C   0  0  0  0  0  2  0  0  0  0  0  0
  -29.7600  -12.6930   17.4170 C   0  0  0  0  0  2  0  0  0  0  0  0
  -28.3360  -12.5700   17.9920 C   0  0  0  0  0  2  0  0  0  0  0  0
  -28.1360  -13.4530   19.2450 C   0  0  0  0  0  3  0  0  0  0  0  0
  -29.2710  -13.2110   20.2600 C   0  0  0  0  0  2  0  0  0  0  0  0
  -30.5440  -13.4990   19.5920 N   0  0  0  0  0  0  0  0  0  0  0  0
  -32.3070  -14.8520   19.0970 O   0  0  0  0  0  0  0  0  0  0  0  0
  -30.6970  -15.6360   20.5040 N   0  0  0  0  0  0  0  0  0  0  0  0
  -25.8730  -14.1740   20.2270 C   0  0  0  0  0  0  0  0  0  0  0  0
  -24.8030  -13.4440   20.6780 C   0  0  0  0  0  0  0  0  0  0  0  0
  -25.1780  -12.0720   20.5450 C   0  0  0  0  0  0  0  0  0  0  0  0
  -26.8280  -13.2430   19.8500 N   0  0  0  0  0  0  0  0  0  0  0  0
  -26.4220  -11.9730   20.0990 N   0  0  0  0  0  0  0  0  0  0  0  0
  -24.4050  -10.8440   20.7610 C   0  0  0  0  0  0  0  0  0  0  0  0
  -24.8520   -9.8350   21.6410 C   0  0  0  0  0  3  0  0  0  0  0  0
  -24.0830   -8.6700   21.8460 C   0  0  0  0  0  3  0  0  0  0  0  0
  -22.8510   -8.5070   21.1710 C   0  0  0  0  0  0  0  0  0  0  0  0
  -22.4170   -9.5060   20.2800 C   0  0  0  0  0  3  0  0  0  0  0  0
  -23.1870  -10.6630   20.0720 C   0  0  0  0  0  3  0  0  0  0  0  0
  -22.0470   -7.4000   21.2890 O   0  0  0  0  0  0  0  0  0  0  0  0
  -21.9780   -6.6840   22.4560 C   0  0  0  0  0  0  0  0  0  0  0  0
  -21.6340   -7.2900   23.6830 C   0  0  0  0  0  3  0  0  0  0  0  0
  -21.5050   -6.5030   24.8460 C   0  0  0  0  0  3  0  0  0  0  0  0
  -21.7150   -5.1130   24.7820 C   0  0  0  0  0  0  0  0  0  0  0  0
  -22.0530   -4.5070   23.5600 C   0  0  0  0  0  3  0  0  0  0  0  0
  -22.1810   -5.2910   22.4000 C   0  0  0  0  0  0  0  0  0  0  0  0
  -22.4870   -4.6990   21.2200 F   0  0  0  0  0  0  0  0  0  0  0  0
  -21.5850   -4.3540   25.8970 F   0  0  0  0  0  0  0  0  0  0  0  0
  -23.4740  -13.9850   21.1220 C   0  0  0  0  0  0  0  0  0  0  0  0
  -22.8310  -13.2970   22.0590 N   0  0  0  0  0  0  0  0  0  0  0  0
  -23.0250  -15.0360   20.6730 O   0  0  0  0  0  0  0  0  0  0  0  0
  -23.2120  -12.4380   22.4270 H   0  0  0  0  0  0  0  0  0  0  0  0
  -21.9430  -13.6270   22.4150 H   0  0  0  0  0  0  0  0  0  0  0  0
  -26.1070  -15.5360   20.0820 N   0  0  0  0  0  0  0  0  0  0  0  0
  -25.4060  -16.2380   20.2960 H   0  0  0  0  0  0  0  0  0  0  0  0
  -26.9460  -15.9210   19.6720 H   0  0  0  0  0  0  0  0  0  0  0  0
  -30.1470  -16.0550   22.9250 C   0  0  0  0  0  1  0  0  0  0  0  0
  -31.2450  -15.9150   21.8490 C   0  0  0  0  0  2  0  0  0  0  0  0
  2  4  1  0
  3  1  1  0
  4  8  1  0
  4  1  1  0
  5 51  1  0
  5  2  1  0
  5  6  1  0
  6  7  1  1
  6  3  1  0
  9 10  1  0
  9  8  1  0
 11 22  2  0
 12 10  1  0
 12 17  1  0
 13 21  1  0
 13 23  1  0
 14 16  1  0
 15 21  1  0
 16 17  2  0
 16 15  1  0
 18 12  2  0
 19 18  1  0
 19 14  2  0
 20 14  1  0
 20 13  1  0
 21 11  1  0
 23 25  2  0
 24 23  1  0
 26 24  1  0
 27 36  2  0
 27 32  1  0
 28 24  1  0
 28 32  1  0
 29 28  1  0
 30 31  1  0
 30 29  1  0
 31 27  1  0
 32 33  2  0
 33 34  1  0
 35 34  2  0
 36 35  1  0
 37 11  1  0
 37 42  1  0
 37 38  1  0
 38 41  1  1
 38 39  1  0
 40 38  1  0
 42 45  1  0
 43 47  1  0
 43 42  1  0
 44 43  2  0
 47 46  1  0
 49 47  1  0
 49 50  1  0
 49 48  1  0
 52 51  1  0
 54 52  1  0
 54 53  1  0
 55  6  1  0
 55 56  1  0
 57 56  1  0
 57 66  1  0
 58 66  1  0
 59 64  1  0
 60 61  1  0
 60 59  1  0
 62 61  1  0
 62 70  1  0
 62 63  1  0
 64 58  1  0
 64 63  1  0
 65 58  2  0
 66 96  1  0
 67 68  2  0
 68 87  1  0
 69 68  1  0
 69 72  1  0
 70 71  1  0
 70 67  1  0
 71 69  2  0
 72 73  1  0
 73 74  2  0
 75 78  1  0
 75 74  1  0
 76 75  2  0
 77 76  1  0
 77 72  2  0
 78 79  1  0
 79 80  1  0
 80 81  2  0
 82 81  1  0
 82 86  1  0
 83 82  2  0
 84 79  2  0
 84 83  1  0
 85 84  1  0
 87 88  1  0
 88 91  1  0
 88 90  1  0
 89 87  2  0
 92 67  1  0
 92 93  1  0
 94 92  1  0
 96 95  1  0
M  ISO  4   9 101  10 101  58 100  66 100
M  END
>  <TORSDO>  (27) 
F 25

>  <SCORE>  (27) 
-9.177

>  <name>  (27) 
26

>  <ligand_id>  (27) 
26

>  <original_smiles>  (27) 
[H]c1c([H])c([H])c2c(c1[H])C([H])([H])C([H])([H])C([H])([H])C2([H])N([H])C(=O)C1([H])N(C(=O)C([H])(N([H])C(=O)C([H])(N([H])C([H])([H])[H])C([H])([H])[H])C(C([H])([H])[H])(C([H])([H])[H])C([H])([H])[H])C([H])([H])c2c([H])c(OC([H])([H])C([H])([H])C3([H])C([H])([H])C([H])([H])[N+]([H])(C([H])([H])C([H])([H])C([H])([H])N(C(=O)N4C([H])([H])C([H])([H])C([H])([H])C([H])(n5nc(-c6c([H])c([H])c(Oc7c([H])c([H])c(F)c([H])c7F)c([H])c6[H])c(C(=O)N([H])[H])c5N([H])[H])C4([H])[H])C([H])([H])C([H])([H])[H])C([H])(C([H])([H])C([H])([H])C([H])([H])C([H])([H])[H])C3([H])[H])c([H])c([H])c2C1([H])[H]

>  <smiles>  (27) 
[H]c1c([H])c([H])c2c(c1[H])C([H])([H])C([H])([H])C([H])([H])C2([H])N([H])C(=O)C1([H])N(C(=O)C([H])(N([H])C(=O)C([H])(N([H])C([H])([H])[H])C([H])([H])[H])C(C([H])([H])[H])(C([H])([H])[H])C([H])([H])[H])C([H])([H])c2c([H])c(OC([H])([H])C([H])([H])C3([H])C([H])([H])C([H])([H])[N+]([H])(C([H])([H])C([H])([H])C([H])([H])N(C(=O)N4C([H])([H])C([H])([H])C([H])([H])C([H])(n5nc(-c6c([H])c([H])c(Oc7c([H])c([H])c(F)c([H])c7F)c([H])c6[H])c(C(=O)N([H])[H])c5N([H])[H])C4([H])[H])C([H])([H])C([H])([H])[H])C([H])(C([H])([H])C([H])([H])C([H])([H])C([H])([H])[H])C3([H])[H])c([H])c([H])c2C1([H])[H]

$$$$
27:0:0
     RDKit          3D

100108  0  0  1  0  0  0  0  0999 V2000
  -33.0480  -20.8370   16.6720 C   0  0  0  0  0  1  0  0  0  0  0  0
  -33.0840  -20.6290   18.1960 C   0  0  0  0  0  3  0  0  0  0  0  0
  -32.5490  -18.1510   18.2680 C   0  0  0  0  0  3  0  0  0  0  0  0
  -33.4840  -19.1800   18.5000 C   0  0  0  0  0  0  0  0  0  0  0  0
  -34.7980  -18.8150   18.8960 C   0  0  0  0  0  0  0  0  0  0  0  0
  -32.9530  -16.8100   18.3510 C   0  0  0  0  0  0  0  0  0  0  0  0
  -35.1460  -17.4400   18.8540 C   0  0  0  0  0  0  0  0  0  0  0  0
  -35.8110  -19.8720   19.3290 C   0  0  0  0  0  1  0  0  0  0  0  0
  -34.2390  -16.4790   18.5830 N   0  0  0  0  0  0  0  0  0  0  0  0
  -37.0880  -16.1480   17.8430 C   0  0  0  0  0  1  0  0  0  0  0  0
  -36.6910  -16.0970   20.3620 C   0  0  0  0  0  1  0  0  0  0  0  0
  -36.5730  -16.9170   19.0700 C   0  0  0  0  0  3  0  0  0  0  0  0
  -31.9340  -15.6870   18.1020 C   0  0  0  0  0  2  0  0  0  0  0  0
  -31.4580  -14.3490   20.1010 C   0  0  0  0  0  0  0  0  0  0  0  0
  -30.7310  -12.1140   19.4940 C   0  0  0  0  0  2  0  0  0  0  0  0
  -29.8800  -12.2670   18.2330 C   0  0  0  0  0  2  0  0  0  0  0  0
  -28.4100  -12.3080   18.6590 C   0  0  0  0  0  2  0  0  0  0  0  0
  -28.1040  -13.3090   19.8110 C   0  0  0  0  0  3  0  0  0  0  0  0
  -29.2160  -13.3390   20.9180 C   0  0  0  0  0  2  0  0  0  0  0  0
  -30.5470  -13.3400   20.2520 N   0  0  0  0  0  0  0  0  0  0  0  0
  -31.6730  -15.2320   20.8840 O   0  0  0  0  0  0  0  0  0  0  0  0
  -33.3120  -13.7140   18.6090 C   0  0  0  0  0  1  0  0  0  0  0  0
  -32.0680  -14.4460   18.8910 N   0  0  0  0  0  0  0  0  0  0  0  0
  -25.6980  -13.9680   20.4960 C   0  0  0  0  0  0  0  0  0  0  0  0
  -24.5980  -13.2220   20.8370 C   0  0  0  0  0  0  0  0  0  0  0  0
  -25.0270  -11.8610   20.8280 C   0  0  0  0  0  0  0  0  0  0  0  0
  -26.7390  -13.0670   20.3140 N   0  0  0  0  0  0  0  0  0  0  0  0
  -26.3290  -11.7930   20.5700 N   0  0  0  0  0  0  0  0  0  0  0  0
  -24.2570  -10.6170   21.0020 C   0  0  0  0  0  0  0  0  0  0  0  0
  -24.6230   -9.6520   21.9680 C   0  0  0  0  0  3  0  0  0  0  0  0
  -23.8560   -8.4770   22.1350 C   0  0  0  0  0  3  0  0  0  0  0  0
  -22.7090   -8.2560   21.3350 C   0  0  0  0  0  0  0  0  0  0  0  0
  -22.3620   -9.2080   20.3600 C   0  0  0  0  0  3  0  0  0  0  0  0
  -23.1280  -10.3750   20.1920 C   0  0  0  0  0  3  0  0  0  0  0  0
  -21.9180   -7.1340   21.4120 O   0  0  0  0  0  0  0  0  0  0  0  0
  -21.7760   -6.4350   22.5840 C   0  0  0  0  0  0  0  0  0  0  0  0
  -21.2920   -7.0430   23.7620 C   0  0  0  0  0  3  0  0  0  0  0  0
  -21.0930   -6.2710   24.9240 C   0  0  0  0  0  3  0  0  0  0  0  0
  -21.3680   -4.8900   24.9090 C   0  0  0  0  0  0  0  0  0  0  0  0
  -21.8450   -4.2810   23.7340 C   0  0  0  0  0  3  0  0  0  0  0  0
  -22.0460   -5.0510   22.5750 C   0  0  0  0  0  0  0  0  0  0  0  0
  -22.4860   -4.4530   21.4420 F   0  0  0  0  0  0  0  0  0  0  0  0
  -21.1700   -4.1460   26.0210 F   0  0  0  0  0  0  0  0  0  0  0  0
  -23.2040  -13.7350   21.0650 C   0  0  0  0  0  0  0  0  0  0  0  0
  -22.4400  -13.0710   21.9270 N   0  0  0  0  0  0  0  0  0  0  0  0
  -22.8000  -14.7600   20.5160 O   0  0  0  0  0  0  0  0  0  0  0  0
  -22.7750  -12.2400   22.3920 H   0  0  0  0  0  0  0  0  0  0  0  0
  -21.5070  -13.4000   22.1260 H   0  0  0  0  0  0  0  0  0  0  0  0
  -25.8910  -15.3300   20.3010 N   0  0  0  0  0  0  0  0  0  0  0  0
  -25.1320  -15.9990   20.3740 H   0  0  0  0  0  0  0  0  0  0  0  0
  -26.7690  -15.7550   20.0270 H   0  0  0  0  0  0  0  0  0  0  0  0
  -31.7550  -21.0740   18.8420 C   0  0  0  0  0  2  0  0  0  0  0  0
  -31.7980  -21.2510   20.3740 C   0  0  0  0  0  2  0  0  0  0  0  0
  -30.1920  -21.4900   22.2410 C   0  0  0  0  0  1  0  0  0  0  0  0
  -30.5620  -21.9150   20.8700 N   0  0  1  0  0  4  0  0  0  0  0  0
  -29.8230  -21.5670   20.2780 H   0  0  0  0  0  0  0  0  0  0  0  0
  -30.5730  -23.3960   20.7120 C   0  0  0  0  0  2  0  0  0  0  0  0
  -29.2560  -23.9240   20.1080 C   0  0  0  0  0  2  0  0  0  0  0  0
  -29.3120  -25.4080   19.6970 C   0  0  0  0  0  2  0  0  0  0  0  0
  -28.9400  -26.2780   20.7670 O   0  0  0  0  0  0  0  0  0  0  0  0
  -24.9090  -31.5050   23.3900 C   0  0  0  0  0  0  0  0  0  0  0  0
  -27.7380  -26.9460   20.6740 C   0  0  0  0  0  0  0  0  0  0  0  0
  -23.8000  -30.0280   21.7430 C   0  0  0  0  0  3  0  0  0  0  0  0
  -25.3330  -28.4220   20.4890 C   0  0  0  0  0  0  0  0  0  0  0  0
  -26.3310  -30.3810   21.6820 C   0  0  0  0  0  2  0  0  0  0  0  0
  -26.4490  -28.9790   21.1220 C   0  0  0  0  0  0  0  0  0  0  0  0
  -27.6480  -28.2420   21.2270 C   0  0  0  0  0  3  0  0  0  0  0  0
  -26.5960  -26.3880   20.0530 C   0  0  0  0  0  3  0  0  0  0  0  0
  -25.3970  -27.1210   19.9600 C   0  0  0  0  0  3  0  0  0  0  0  0
  -24.0910  -29.2790   20.4130 C   0  0  0  0  0  2  0  0  0  0  0  0
  -25.0280  -30.6550   22.3310 N   0  0  0  0  0  0  0  0  0  0  0  0
  -23.7990  -31.8020   23.8510 O   0  0  0  0  0  0  0  0  0  0  0  0
  -23.0890  -29.0530   22.7090 C   0  0  0  0  0  0  0  0  0  0  0  0
  -21.7780  -28.8530   22.4960 N   0  0  0  0  0  0  0  0  0  0  0  0
  -23.7150  -28.4780   23.6020 O   0  0  0  0  0  0  0  0  0  0  0  0
  -21.3370  -29.3680   21.7470 H   0  0  0  0  0  0  0  0  0  0  0  0
  -18.3890  -27.6360   22.7860 C   0  0  0  0  0  0  0  0  0  0  0  0
  -20.9120  -27.9510   23.2540 C   0  0  0  0  0  3  0  0  0  0  0  0
  -21.0790  -26.4890   22.7770 C   0  0  0  0  0  2  0  0  0  0  0  0
  -20.0700  -26.0870   21.6970 C   0  0  0  0  0  2  0  0  0  0  0  0
  -18.6370  -26.2500   22.2130 C   0  0  0  0  0  2  0  0  0  0  0  0
  -19.4590  -28.4410   23.2580 C   0  0  0  0  0  0  0  0  0  0  0  0
  -19.1780  -29.7360   23.7470 C   0  0  0  0  0  3  0  0  0  0  0  0
  -17.8590  -30.2250   23.7700 C   0  0  0  0  0  3  0  0  0  0  0  0
  -16.8020  -29.4190   23.3160 C   0  0  0  0  0  3  0  0  0  0  0  0
  -17.0670  -28.1260   22.8290 C   0  0  0  0  0  3  0  0  0  0  0  0
  -26.1580  -32.1620   24.0580 C   0  0  0  0  0  3  0  0  0  0  0  0
  -26.6060  -31.4390   25.3880 C   0  0  1  0  0  0  0  0  0  0  0  0
  -25.4550  -31.2380   26.4030 C   0  0  0  0  0  1  0  0  0  0  0  0
  -27.2090  -30.0500   25.0750 C   0  0  0  0  0  1  0  0  0  0  0  0
  -27.7190  -32.2570   26.0820 C   0  0  0  0  0  1  0  0  0  0  0  0
  -25.8340  -33.5700   24.3160 N   0  0  0  0  0  0  0  0  0  0  0  0
  -26.2050  -34.5910   23.5310 C   0  0  0  0  0  0  0  0  0  0  0  0
  -26.9270  -34.4470   22.5400 O   0  0  0  0  0  0  0  0  0  0  0  0
  -25.2020  -33.7560   25.0800 H   0  0  0  0  0  0  0  0  0  0  0  0
  -24.4870  -36.3540   23.0200 C   0  0  0  0  0  1  0  0  0  0  0  0
  -25.6920  -35.9940   23.9040 C   0  0  0  0  0  3  0  0  0  0  0  0
  -27.7860  -36.9240   24.7860 C   0  0  0  0  0  1  0  0  0  0  0  0
  -26.7250  -37.0470   23.7910 N   0  0  0  0  0  0  0  0  0  0  0  0
  -26.3090  -37.9710   23.8840 H   0  0  0  0  0  0  0  0  0  0  0  0
  2  1  1  0
  2  4  1  0
  2 52  1  0
  3  6  2  0
  3  4  1  0
  4  5  2  0
  5  8  1  0
  6  9  1  0
  7  5  1  0
  7 12  1  0
  9  7  2  0
 10 12  1  0
 12 11  1  0
 13  6  1  0
 13 23  1  0
 14 20  1  0
 14 21  2  0
 15 20  1  0
 16 17  1  0
 16 15  1  0
 18 17  1  0
 18 27  1  0
 18 19  1  0
 20 19  1  0
 22 23  1  0
 23 14  1  0
 24 25  2  0
 25 44  1  0
 26 25  1  0
 26 29  1  0
 27 24  1  0
 27 28  1  0
 28 26  2  0
 29 30  1  0
 30 31  2  0
 32 35  1  0
 32 31  1  0
 33 32  2  0
 34 33  1  0
 34 29  2  0
 35 36  1  0
 36 37  1  0
 37 38  2  0
 39 38  1  0
 39 43  1  0
 40 39  2  0
 41 36  2  0
 41 40  1  0
 42 41  1  0
 44 45  1  0
 45 48  1  0
 45 47  1  0
 46 44  2  0
 49 50  1  0
 49 24  1  0
 51 49  1  0
 52 53  1  0
 53 55  1  0
 55 54  1  0
 55 56  1  6
 57 55  1  0
 58 57  1  0
 59 58  1  0
 59 60  1  0
 61 72  2  0
 62 60  1  0
 62 67  1  0
 63 71  1  0
 63 73  1  0
 64 66  1  0
 65 71  1  0
 66 67  2  0
 66 65  1  0
 68 62  2  0
 69 68  1  0
 69 64  2  0
 70 64  1  0
 70 63  1  0
 71 61  1  0
 73 75  2  0
 74 73  1  0
 76 74  1  0
 77 86  2  0
 77 82  1  0
 78 74  1  0
 78 82  1  0
 79 78  1  0
 80 81  1  0
 80 79  1  0
 81 77  1  0
 82 83  2  0
 83 84  1  0
 85 84  2  0
 86 85  1  0
 87 61  1  0
 87 92  1  0
 87 88  1  0
 88 91  1  1
 88 89  1  0
 90 88  1  0
 92 95  1  0
 93 97  1  0
 93 92  1  0
 94 93  2  0
 97 96  1  0
 99100  1  0
 99 97  1  0
 99 98  1  0
M  ISO  4  14 100  23 100  59 101  60 101
M  END
>  <TORSDO>  (28) 
F 25

>  <SCORE>  (28) 
-10.813

>  <name>  (28) 
27

>  <ligand_id>  (28) 
27

>  <original_smiles>  (28) 
[H]c1c([H])c([H])c2c(c1[H])C([H])([H])C([H])([H])C([H])([H])C2([H])N([H])C(=O)C1([H])N(C(=O)C([H])(N([H])C(=O)C([H])(N([H])C([H])([H])[H])C([H])([H])[H])C(C([H])([H])[H])(C([H])([H])[H])C([H])([H])[H])C([H])([H])c2c([H])c(OC([H])([H])C([H])([H])C([H])([H])[N+]([H])(C([H])([H])[H])C([H])([H])C([H])([H])C([H])(c3c([H])c(C([H])([H])N(C(=O)N4C([H])([H])C([H])([H])C([H])([H])C([H])(n5nc(-c6c([H])c([H])c(Oc7c([H])c([H])c(F)c([H])c7F)c([H])c6[H])c(C(=O)N([H])[H])c5N([H])[H])C4([H])[H])C([H])([H])[H])nc(C([H])(C([H])([H])[H])C([H])([H])[H])c3C([H])([H])[H])C([H])([H])[H])c([H])c([H])c2C1([H])[H]

>  <smiles>  (28) 
[H]c1c([H])c([H])c2c(c1[H])C([H])([H])C([H])([H])C([H])([H])C2([H])N([H])C(=O)C1([H])N(C(=O)C([H])(N([H])C(=O)C([H])(N([H])C([H])([H])[H])C([H])([H])[H])C(C([H])([H])[H])(C([H])([H])[H])C([H])([H])[H])C([H])([H])c2c([H])c(OC([H])([H])C([H])([H])C([H])([H])[N+]([H])(C([H])([H])[H])C([H])([H])C([H])([H])C([H])(c3c([H])c(C([H])([H])N(C(=O)N4C([H])([H])C([H])([H])C([H])([H])C([H])(n5nc(-c6c([H])c([H])c(Oc7c([H])c([H])c(F)c([H])c7F)c([H])c6[H])c(C(=O)N([H])[H])c5N([H])[H])C4([H])[H])C([H])([H])[H])nc(C([H])(C([H])([H])[H])C([H])([H])[H])c3C([H])([H])[H])C([H])([H])[H])c([H])c([H])c2C1([H])[H]

$$$$
28:0:0
     RDKit          3D

 93101  0  0  1  0  0  0  0  0999 V2000
  -28.8930  -18.8820   20.8090 C   0  0  0  0  0  3  0  0  0  0  0  0
  -28.3700  -20.2020   20.7430 C   0  0  0  0  0  3  0  0  0  0  0  0
  -30.6170  -19.5380   19.2460 C   0  0  0  0  0  3  0  0  0  0  0  0
  -30.0350  -18.5240   20.0620 C   0  0  0  0  0  0  0  0  0  0  0  0
  -28.9650  -21.2160   19.9430 C   0  0  0  0  0  0  0  0  0  0  0  0
  -30.0980  -20.8680   19.1690 C   0  0  0  0  0  0  0  0  0  0  0  0
  -28.2630  -22.6000   19.8160 C   0  0  0  0  0  2  0  0  0  0  0  0
  -29.0130  -23.9640   20.0970 C   0  0  0  0  0  2  0  0  0  0  0  0
  -28.0590  -25.1700   19.7910 C   0  0  0  0  0  2  0  0  0  0  0  0
  -28.3400  -26.5650   20.1570 O   0  0  0  0  0  0  0  0  0  0  0  0
  -24.6040  -31.8930   23.2810 C   0  0  0  0  0  0  0  0  0  0  0  0
  -27.2240  -27.4130   20.1290 C   0  0  0  0  0  0  0  0  0  0  0  0
  -23.4090  -30.5140   21.6280 C   0  0  0  0  0  3  0  0  0  0  0  0
  -24.8600  -29.0040   20.1800 C   0  0  0  0  0  0  0  0  0  0  0  0
  -25.9530  -30.8450   21.4520 C   0  0  0  0  0  2  0  0  0  0  0  0
  -26.0320  -29.4860   20.7750 C   0  0  0  0  0  0  0  0  0  0  0  0
  -27.2240  -28.7040   20.7370 C   0  0  0  0  0  3  0  0  0  0  0  0
  -26.0220  -26.9940   19.5030 C   0  0  0  0  0  3  0  0  0  0  0  0
  -24.8530  -27.7640   19.5410 C   0  0  0  0  0  3  0  0  0  0  0  0
  -23.6180  -29.8610   20.2430 C   0  0  0  0  0  2  0  0  0  0  0  0
  -24.6750  -31.1020   22.1740 N   0  0  0  0  0  0  0  0  0  0  0  0
  -23.5170  -32.1610   23.8120 O   0  0  0  0  0  0  0  0  0  0  0  0
  -22.7500  -29.4770   22.5690 C   0  0  0  0  0  0  0  0  0  0  0  0
  -21.4260  -29.2950   22.4320 N   0  0  0  0  0  0  0  0  0  0  0  0
  -23.4310  -28.8400   23.3790 O   0  0  0  0  0  0  0  0  0  0  0  0
  -20.9430  -29.8530   21.7410 H   0  0  0  0  0  0  0  0  0  0  0  0
  -18.0390  -28.1140   22.9210 C   0  0  0  0  0  0  0  0  0  0  0  0
  -20.6000  -28.3490   23.1870 C   0  0  0  0  0  3  0  0  0  0  0  0
  -20.6910  -26.9290   22.5820 C   0  0  0  0  0  2  0  0  0  0  0  0
  -19.5800  -26.6340   21.5690 C   0  0  0  0  0  2  0  0  0  0  0  0
  -18.2020  -26.7780   22.2210 C   0  0  0  0  0  2  0  0  0  0  0  0
  -19.1650  -28.8620   23.3600 C   0  0  0  0  0  0  0  0  0  0  0  0
  -18.9530  -30.1180   23.9710 C   0  0  0  0  0  3  0  0  0  0  0  0
  -17.6500  -30.6230   24.1480 C   0  0  0  0  0  3  0  0  0  0  0  0
  -16.5400  -29.8700   23.7250 C   0  0  0  0  0  3  0  0  0  0  0  0
  -16.7370  -28.6180   23.1180 C   0  0  0  0  0  3  0  0  0  0  0  0
  -25.8810  -32.5180   23.9190 C   0  0  0  0  0  3  0  0  0  0  0  0
  -25.5790  -33.9190   24.2380 N   0  0  0  0  0  0  0  0  0  0  0  0
  -25.9080  -34.9610   23.4660 C   0  0  0  0  0  0  0  0  0  0  0  0
  -26.5690  -34.8440   22.4290 O   0  0  0  0  0  0  0  0  0  0  0  0
  -25.0000  -34.0860   25.0480 H   0  0  0  0  0  0  0  0  0  0  0  0
  -24.1780  -36.7450   23.1110 C   0  0  0  0  0  1  0  0  0  0  0  0
  -25.4320  -36.3570   23.9110 C   0  0  0  0  0  3  0  0  0  0  0  0
  -27.5780  -37.2490   24.7020 C   0  0  0  0  0  1  0  0  0  0  0  0
  -26.4660  -37.4060   23.7660 N   0  0  0  0  0  0  0  0  0  0  0  0
  -26.0670  -38.3310   23.8950 H   0  0  0  0  0  0  0  0  0  0  0  0
  -26.3750  -31.7460   25.2030 C   0  0  1  0  0  0  0  0  0  0  0  0
  -25.2650  -31.5120   26.2540 C   0  0  0  0  0  1  0  0  0  0  0  0
  -26.9540  -30.3650   24.8170 C   0  0  0  0  0  1  0  0  0  0  0  0
  -27.5270  -32.5340   25.8710 C   0  0  0  0  0  1  0  0  0  0  0  0
  -30.7510  -17.1410   20.1680 C   0  0  0  0  0  2  0  0  0  0  0  0
  -30.6860  -14.6490   20.2390 C   0  0  0  0  0  0  0  0  0  0  0  0
  -30.3070  -12.4670   19.1610 C   0  0  0  0  0  2  0  0  0  0  0  0
  -29.3390  -12.6380   17.9710 C   0  0  0  0  0  2  0  0  0  0  0  0
  -27.8810  -12.4990   18.4430 C   0  0  0  0  0  2  0  0  0  0  0  0
  -27.5720  -13.3510   19.7030 C   0  0  0  0  0  3  0  0  0  0  0  0
  -28.6640  -13.2090   20.7890 C   0  0  0  0  0  2  0  0  0  0  0  0
  -29.9550  -13.4970   20.1580 N   0  0  0  0  0  0  0  0  0  0  0  0
  -31.8680  -14.6680   19.8920 O   0  0  0  0  0  0  0  0  0  0  0  0
  -30.0490  -15.8420   20.4440 N   0  0  0  0  0  0  0  0  0  0  0  0
  -29.0730  -15.8470   20.6880 H   0  0  0  0  0  0  0  0  0  0  0  0
  -25.2070  -13.9600   20.4960 C   0  0  0  0  0  0  0  0  0  0  0  0
  -24.1440  -13.1890   20.8830 C   0  0  0  0  0  0  0  0  0  0  0  0
  -24.5980  -11.8350   20.8300 C   0  0  0  0  0  0  0  0  0  0  0  0
  -26.2370  -13.0740   20.2260 N   0  0  0  0  0  0  0  0  0  0  0  0
  -25.8800  -11.7920   20.4900 N   0  0  0  0  0  0  0  0  0  0  0  0
  -23.8650  -10.5750   21.0150 C   0  0  0  0  0  0  0  0  0  0  0  0
  -24.2980   -9.5950   21.9360 C   0  0  0  0  0  3  0  0  0  0  0  0
  -23.5650   -8.4000   22.1080 C   0  0  0  0  0  3  0  0  0  0  0  0
  -22.3840   -8.1790   21.3610 C   0  0  0  0  0  0  0  0  0  0  0  0
  -21.9720   -9.1460   20.4270 C   0  0  0  0  0  3  0  0  0  0  0  0
  -22.7060  -10.3320   20.2520 C   0  0  0  0  0  3  0  0  0  0  0  0
  -21.6180   -7.0400   21.4510 O   0  0  0  0  0  0  0  0  0  0  0  0
  -21.5570   -6.3050   22.6080 C   0  0  0  0  0  0  0  0  0  0  0  0
  -21.0890   -6.8560   23.8200 C   0  0  0  0  0  3  0  0  0  0  0  0
  -20.9790   -6.0450   24.9680 C   0  0  0  0  0  3  0  0  0  0  0  0
  -21.3210   -4.6790   24.9000 C   0  0  0  0  0  0  0  0  0  0  0  0
  -21.7820   -4.1280   23.6920 C   0  0  0  0  0  3  0  0  0  0  0  0
  -21.8980   -4.9380   22.5480 C   0  0  0  0  0  0  0  0  0  0  0  0
  -22.3190   -4.3970   21.3810 F   0  0  0  0  0  0  0  0  0  0  0  0
  -21.2120   -3.8950   25.9970 F   0  0  0  0  0  0  0  0  0  0  0  0
  -22.7560  -13.6750   21.1880 C   0  0  0  0  0  0  0  0  0  0  0  0
  -22.0330  -12.9750   22.0580 N   0  0  0  0  0  0  0  0  0  0  0  0
  -22.3170  -14.7110   20.6910 O   0  0  0  0  0  0  0  0  0  0  0  0
  -22.3940  -12.1380   22.4890 H   0  0  0  0  0  0  0  0  0  0  0  0
  -21.0980  -13.2830   22.2890 H   0  0  0  0  0  0  0  0  0  0  0  0
  -25.3750  -15.3310   20.3260 N   0  0  0  0  0  0  0  0  0  0  0  0
  -24.6310  -15.9990   20.4940 H   0  0  0  0  0  0  0  0  0  0  0  0
  -26.2270  -15.7660   19.9970 H   0  0  0  0  0  0  0  0  0  0  0  0
  -30.5940  -21.8650   18.3510 O   0  0  0  0  0  0  0  0  0  0  0  0
  -31.7980  -21.7180   17.6020 C   0  0  0  0  0  2  0  0  0  0  0  0
  -33.6830  -21.2900   19.2780 C   0  0  0  0  0  1  0  0  0  0  0  0
  -33.0050  -22.3040   18.3520 C   0  0  0  0  0  2  0  0  0  0  0  0
  2  1  1  0
  3  4  1  0
  4 51  1  0
  4  1  2  0
  5  2  2  0
  6  3  2  0
  6  5  1  0
  7  5  1  0
  7  8  1  0
  9  8  1  0
  9 10  1  0
 11 22  2  0
 12 10  1  0
 12 17  1  0
 13 21  1  0
 13 23  1  0
 14 20  1  0
 14 16  1  0
 15 21  1  0
 16 15  1  0
 17 16  2  0
 18 19  1  0
 18 12  2  0
 19 14  2  0
 20 13  1  0
 21 11  1  0
 23 25  2  0
 24 23  1  0
 26 24  1  0
 27 36  2  0
 27 32  1  0
 28 24  1  0
 28 32  1  0
 29 28  1  0
 30 31  1  0
 30 29  1  0
 31 27  1  0
 32 33  2  0
 33 34  1  0
 35 34  2  0
 36 35  1  0
 37 11  1  0
 37 38  1  0
 37 47  1  0
 38 41  1  0
 39 43  1  0
 39 38  1  0
 40 39  2  0
 43 42  1  0
 45 46  1  0
 45 43  1  0
 45 44  1  0
 47 50  1  1
 47 48  1  0
 49 47  1  0
 51 60  1  0
 52 60  1  0
 53 58  1  0
 54 55  1  0
 54 53  1  0
 56 55  1  0
 56 65  1  0
 56 57  1  0
 58 52  1  0
 58 57  1  0
 59 52  2  0
 60 61  1  0
 62 63  2  0
 63 82  1  0
 64 63  1  0
 64 67  1  0
 65 66  1  0
 65 62  1  0
 66 64  2  0
 67 68  1  0
 68 69  2  0
 70 73  1  0
 70 69  1  0
 71 70  2  0
 72 71  1  0
 72 67  2  0
 73 74  1  0
 74 75  1  0
 75 76  2  0
 77 76  1  0
 77 81  1  0
 78 77  2  0
 79 74  2  0
 79 78  1  0
 80 79  1  0
 82 83  1  0
 83 86  1  0
 83 85  1  0
 84 82  2  0
 87 88  1  0
 87 62  1  0
 89 87  1  0
 90  6  1  0
 91 90  1  0
 91 93  1  0
 93 92  1  0
M  ISO  4   9 101  10 101  52 100  60 100
M  END
>  <TORSDO>  (29) 
F 23

>  <SCORE>  (29) 
-12.644

>  <name>  (29) 
28

>  <ligand_id>  (29) 
28

>  <original_smiles>  (29) 
[H]c1c([H])c([H])c2c(c1[H])C([H])([H])C([H])([H])C([H])([H])C2([H])N([H])C(=O)C1([H])N(C(=O)C([H])(N([H])C(=O)C([H])(N([H])C([H])([H])[H])C([H])([H])[H])C(C([H])([H])[H])(C([H])([H])[H])C([H])([H])[H])C([H])([H])c2c([H])c(OC([H])([H])C([H])([H])C([H])([H])c3c([H])c([H])c(C([H])([H])N([H])C(=O)N4C([H])([H])C([H])([H])C([H])([H])C([H])(n5nc(-c6c([H])c([H])c(Oc7c([H])c([H])c(F)c([H])c7F)c([H])c6[H])c(C(=O)N([H])[H])c5N([H])[H])C4([H])[H])c([H])c3OC([H])([H])C([H])([H])C([H])([H])[H])c([H])c([H])c2C1([H])[H]

>  <smiles>  (29) 
[H]c1c([H])c([H])c2c(c1[H])C([H])([H])C([H])([H])C([H])([H])C2([H])N([H])C(=O)C1([H])N(C(=O)C([H])(N([H])C(=O)C([H])(N([H])C([H])([H])[H])C([H])([H])[H])C(C([H])([H])[H])(C([H])([H])[H])C([H])([H])[H])C([H])([H])c2c([H])c(OC([H])([H])C([H])([H])C([H])([H])c3c([H])c([H])c(C([H])([H])N([H])C(=O)N4C([H])([H])C([H])([H])C([H])([H])C([H])(n5nc(-c6c([H])c([H])c(Oc7c([H])c([H])c(F)c([H])c7F)c([H])c6[H])c(C(=O)N([H])[H])c5N([H])[H])C4([H])[H])c([H])c3OC([H])([H])C([H])([H])C([H])([H])[H])c([H])c([H])c2C1([H])[H]

$$$$
29:0:0
     RDKit          3D

 95103  0  0  1  0  0  0  0  0999 V2000
  -30.0960  -19.7080   18.8250 C   0  0  0  0  0  3  0  0  0  0  0  0
  -29.6370  -20.3470   20.8760 C   0  0  0  0  0  3  0  0  0  0  0  0
  -29.7440  -20.8690   19.6150 C   0  0  0  0  0  0  0  0  0  0  0  0
  -30.2270  -18.5490   19.5830 C   0  0  0  0  0  0  0  0  0  0  0  0
  -29.9400  -18.9760   20.8830 N   0  0  0  0  0  0  0  0  0  0  0  0
  -30.7940  -17.1440   19.1680 C   0  0  0  0  0  2  0  0  0  0  0  0
  -30.8040  -14.6000   19.2130 C   0  0  0  0  0  0  0  0  0  0  0  0
  -30.3130  -12.3740   18.2290 C   0  0  0  0  0  2  0  0  0  0  0  0
  -29.2080  -12.5150   17.1620 C   0  0  0  0  0  2  0  0  0  0  0  0
  -27.8210  -12.3800   17.8180 C   0  0  0  0  0  2  0  0  0  0  0  0
  -27.6650  -13.2660   19.0820 C   0  0  0  0  0  3  0  0  0  0  0  0
  -28.8800  -13.1530   20.0280 C   0  0  0  0  0  2  0  0  0  0  0  0
  -30.0810  -13.4340   19.2370 N   0  0  0  0  0  0  0  0  0  0  0  0
  -31.9340  -14.6170   18.7240 O   0  0  0  0  0  0  0  0  0  0  0  0
  -30.1790  -15.7990   19.5010 N   0  0  0  0  0  0  0  0  0  0  0  0
  -29.2200  -15.7740   19.8070 H   0  0  0  0  0  0  0  0  0  0  0  0
  -25.4490  -13.9130   20.1970 C   0  0  0  0  0  0  0  0  0  0  0  0
  -24.4240  -13.1630   20.7040 C   0  0  0  0  0  0  0  0  0  0  0  0
  -24.8240  -11.7990   20.5640 C   0  0  0  0  0  0  0  0  0  0  0  0
  -26.4080  -13.0070   19.7760 N   0  0  0  0  0  0  0  0  0  0  0  0
  -26.0460  -11.7270   20.0550 N   0  0  0  0  0  0  0  0  0  0  0  0
  -24.0850  -10.5570   20.8330 C   0  0  0  0  0  0  0  0  0  0  0  0
  -24.5610   -9.6010   21.7570 C   0  0  0  0  0  3  0  0  0  0  0  0
  -23.8250   -8.4250   22.0120 C   0  0  0  0  0  3  0  0  0  0  0  0
  -22.5980   -8.1970   21.3460 C   0  0  0  0  0  0  0  0  0  0  0  0
  -22.1380   -9.1430   20.4150 C   0  0  0  0  0  3  0  0  0  0  0  0
  -22.8730  -10.3110   20.1560 C   0  0  0  0  0  3  0  0  0  0  0  0
  -21.8270   -7.0720   21.5100 O   0  0  0  0  0  0  0  0  0  0  0  0
  -21.7580   -6.4210   22.7150 C   0  0  0  0  0  0  0  0  0  0  0  0
  -21.3010   -7.0630   23.8870 C   0  0  0  0  0  3  0  0  0  0  0  0
  -21.1760   -6.3330   25.0870 C   0  0  0  0  0  3  0  0  0  0  0  0
  -21.5020   -4.9640   25.1170 C   0  0  0  0  0  0  0  0  0  0  0  0
  -21.9550   -4.3220   23.9500 C   0  0  0  0  0  3  0  0  0  0  0  0
  -22.0820   -5.0500   22.7530 C   0  0  0  0  0  0  0  0  0  0  0  0
  -22.4970   -4.4210   21.6270 F   0  0  0  0  0  0  0  0  0  0  0  0
  -21.3780   -4.2620   26.2660 F   0  0  0  0  0  0  0  0  0  0  0  0
  -23.1090  -13.6840   21.2030 C   0  0  0  0  0  0  0  0  0  0  0  0
  -22.5080  -13.0000   22.1710 N   0  0  0  0  0  0  0  0  0  0  0  0
  -22.6270  -14.7280   20.7680 O   0  0  0  0  0  0  0  0  0  0  0  0
  -22.9160  -12.1560   22.5410 H   0  0  0  0  0  0  0  0  0  0  0  0
  -21.6300  -13.3310   22.5480 H   0  0  0  0  0  0  0  0  0  0  0  0
  -25.6380  -15.2830   20.0420 N   0  0  0  0  0  0  0  0  0  0  0  0
  -24.9180  -15.9490   20.2980 H   0  0  0  0  0  0  0  0  0  0  0  0
  -26.4400  -15.7130   19.6000 H   0  0  0  0  0  0  0  0  0  0  0  0
  -29.9300  -18.1660   22.0940 C   0  0  0  0  0  2  0  0  0  0  0  0
  -30.9140  -18.7010   23.1670 C   0  0  0  0  0  2  0  0  0  0  0  0
  -29.3280  -19.3980   25.0600 C   0  0  0  0  0  1  0  0  0  0  0  0
  -31.6730  -18.6420   25.5870 C   0  0  0  0  0  1  0  0  0  0  0  0
  -30.4790  -18.4650   24.6280 C   0  0  0  0  0  3  0  0  0  0  0  0
  -29.4790  -22.3410   19.0870 C   0  0  0  0  0  3  0  0  0  0  0  0
  -27.0780  -21.7910   18.3260 C   0  0  0  0  0  1  0  0  0  0  0  0
  -28.4860  -22.2330   17.9140 C   0  0  0  0  0  2  0  0  0  0  0  0
  -29.1490  -23.5710   20.0840 C   0  0  0  0  0  3  0  0  0  0  0  0
  -28.4750  -24.9060   19.4810 C   0  0  0  0  0  3  0  0  0  0  0  0
  -28.4820  -26.2450   20.1590 O   0  0  0  0  0  0  0  0  0  0  0  0
  -24.6820  -31.6960   23.0780 C   0  0  0  0  0  0  0  0  0  0  0  0
  -27.3860  -27.1340   20.0410 C   0  0  0  0  0  0  0  0  0  0  0  0
  -23.5310  -30.2890   21.4100 C   0  0  0  0  0  3  0  0  0  0  0  0
  -25.0240  -28.7700   19.9980 C   0  0  0  0  0  0  0  0  0  0  0  0
  -26.0730  -30.6140   21.2980 C   0  0  0  0  0  2  0  0  0  0  0  0
  -26.1760  -29.2390   20.6430 C   0  0  0  0  0  0  0  0  0  0  0  0
  -27.3510  -28.4240   20.6750 C   0  0  0  0  0  3  0  0  0  0  0  0
  -26.2220  -26.7690   19.3240 C   0  0  0  0  0  3  0  0  0  0  0  0
  -25.0500  -27.5420   19.3320 C   0  0  0  0  0  3  0  0  0  0  0  0
  -23.7830  -29.6360   20.0280 C   0  0  0  0  0  2  0  0  0  0  0  0
  -24.7780  -30.8860   21.9840 N   0  0  0  0  0  0  0  0  0  0  0  0
  -23.5830  -31.9620   23.5890 O   0  0  0  0  0  0  0  0  0  0  0  0
  -22.8560  -29.2570   22.3450 C   0  0  0  0  0  0  0  0  0  0  0  0
  -21.5300  -29.0940   22.2090 N   0  0  0  0  0  0  0  0  0  0  0  0
  -23.5260  -28.6110   23.1570 O   0  0  0  0  0  0  0  0  0  0  0  0
  -21.0510  -29.6540   21.5180 H   0  0  0  0  0  0  0  0  0  0  0  0
  -18.1320  -27.9740   22.7310 C   0  0  0  0  0  0  0  0  0  0  0  0
  -20.7010  -28.1540   22.9620 C   0  0  0  0  0  3  0  0  0  0  0  0
  -20.7600  -26.7450   22.3320 C   0  0  0  0  0  2  0  0  0  0  0  0
  -19.6310  -26.4880   21.3300 C   0  0  0  0  0  2  0  0  0  0  0  0
  -18.2640  -26.6450   22.0030 C   0  0  0  0  0  2  0  0  0  0  0  0
  -19.2790  -28.6900   23.1680 C   0  0  0  0  0  0  0  0  0  0  0  0
  -19.1060  -29.9370   23.8070 C   0  0  0  0  0  3  0  0  0  0  0  0
  -17.8180  -30.4670   24.0160 C   0  0  0  0  0  3  0  0  0  0  0  0
  -16.6850  -29.7440   23.6010 C   0  0  0  0  0  3  0  0  0  0  0  0
  -16.8430  -28.5000   22.9620 C   0  0  0  0  0  3  0  0  0  0  0  0
  -25.9440  -32.3440   23.7290 C   0  0  0  0  0  3  0  0  0  0  0  0
  -25.6120  -33.7350   24.0670 N   0  0  0  0  0  0  0  0  0  0  0  0
  -25.9290  -34.7990   23.3190 C   0  0  0  0  0  0  0  0  0  0  0  0
  -26.6030  -34.7170   22.2880 O   0  0  0  0  0  0  0  0  0  0  0  0
  -25.0260  -33.8810   24.8750 H   0  0  0  0  0  0  0  0  0  0  0  0
  -24.1800  -36.5660   22.9550 C   0  0  0  0  0  1  0  0  0  0  0  0
  -25.4140  -36.1740   23.7840 C   0  0  0  0  0  3  0  0  0  0  0  0
  -27.5110  -37.0790   24.6760 C   0  0  0  0  0  1  0  0  0  0  0  0
  -26.4330  -37.2440   23.7060 N   0  0  0  0  0  0  0  0  0  0  0  0
  -26.0090  -38.1550   23.8570 H   0  0  0  0  0  0  0  0  0  0  0  0
  -26.4520  -31.5670   25.0050 C   0  0  1  0  0  0  0  0  0  0  0  0
  -25.3380  -31.2810   26.0380 C   0  0  0  0  0  1  0  0  0  0  0  0
  -27.0850  -30.2140   24.6080 C   0  0  0  0  0  1  0  0  0  0  0  0
  -27.5650  -32.3770   25.7080 C   0  0  0  0  0  1  0  0  0  0  0  0
  1  4  2  0
  1  3  1  0
  2  5  1  0
  3  2  2  0
  4  5  1  0
  5 45  1  0
  6 15  1  0
  6  4  1  0
  7 13  1  0
  7 15  1  0
  8 13  1  0
  9 10  1  0
  9  8  1  0
 11 10  1  0
 11 20  1  0
 11 12  1  0
 13 12  1  0
 14  7  2  0
 15 16  1  0
 17 18  2  0
 18 37  1  0
 19 18  1  0
 19 22  1  0
 20 21  1  0
 20 17  1  0
 21 19  2  0
 22 23  1  0
 23 24  2  0
 25 28  1  0
 25 24  1  0
 26 25  2  0
 27 26  1  0
 27 22  2  0
 28 29  1  0
 29 34  2  0
 29 30  1  0
 30 31  2  0
 31 32  1  0
 32 36  1  0
 33 32  2  0
 34 33  1  0
 35 34  1  0
 37 38  1  0
 38 40  1  0
 38 41  1  0
 39 37  2  0
 42 17  1  0
 42 43  1  0
 44 42  1  0
 45 46  1  0
 46 49  1  0
 49 47  1  0
 49 48  1  0
 50 52  1  0
 50  3  1  0
 50 53  1  0
 52 51  1  0
 54 53  2  0
 54 55  1  0
 56 67  2  0
 57 55  1  0
 57 62  1  0
 58 66  1  0
 58 68  1  0
 59 65  1  0
 59 61  1  0
 60 66  1  0
 61 62  2  0
 61 60  1  0
 63 64  1  0
 63 57  2  0
 64 59  2  0
 65 58  1  0
 66 56  1  0
 68 70  2  0
 69 68  1  0
 71 69  1  0
 72 81  2  0
 72 77  1  0
 73 69  1  0
 73 77  1  0
 74 73  1  0
 75 76  1  0
 75 74  1  0
 76 72  1  0
 77 78  2  0
 78 79  1  0
 80 79  2  0
 81 80  1  0
 82 56  1  0
 82 83  1  0
 82 92  1  0
 83 86  1  0
 84 88  1  0
 84 83  1  0
 85 84  2  0
 88 87  1  0
 90 88  1  0
 90 91  1  0
 90 89  1  0
 92 95  1  1
 92 93  1  0
 94 92  1  0
M  ISO  4   7 100  15 100  54 101  55 101
M  END
>  <TORSDO>  (30) 
F 24

>  <SCORE>  (30) 
-3.211

>  <name>  (30) 
29

>  <ligand_id>  (30) 
29

>  <original_smiles>  (30) 
[H]c1c([H])c([H])c2c(c1[H])C([H])([H])C([H])([H])C([H])([H])C2([H])N([H])C(=O)C1([H])N(C(=O)C([H])(N([H])C(=O)C([H])(N([H])C([H])([H])[H])C([H])([H])[H])C(C([H])([H])[H])(C([H])([H])[H])C([H])([H])[H])C([H])([H])c2c([H])c(OC([H])([H])C([H])([H])C([H])(c3c([H])c(C([H])([H])N([H])C(=O)N4C([H])([H])C([H])([H])C([H])([H])C([H])(n5nc(-c6c([H])c([H])c(Oc7c([H])c([H])c(F)c([H])c7F)c([H])c6[H])c(C(=O)N([H])[H])c5N([H])[H])C4([H])[H])n(C([H])([H])C([H])([H])C([H])(C([H])([H])[H])C([H])([H])[H])c3[H])C([H])([H])C([H])([H])[H])c([H])c([H])c2C1([H])[H]

>  <smiles>  (30) 
[H]c1c([H])c([H])c2c(c1[H])C([H])([H])C([H])([H])C([H])([H])C2([H])N([H])C(=O)C1([H])N(C(=O)C([H])(N([H])C(=O)C([H])(N([H])C([H])([H])[H])C([H])([H])[H])C(C([H])([H])[H])(C([H])([H])[H])C([H])([H])[H])C([H])([H])c2c([H])c(OC([H])([H])C([H])([H])C([H])(c3c([H])c(C([H])([H])N([H])C(=O)N4C([H])([H])C([H])([H])C([H])([H])C([H])(n5nc(-c6c([H])c([H])c(Oc7c([H])c([H])c(F)c([H])c7F)c([H])c6[H])c(C(=O)N([H])[H])c5N([H])[H])C4([H])[H])n(C([H])([H])C([H])([H])C([H])(C([H])([H])[H])C([H])([H])[H])c3[H])C([H])([H])C([H])([H])[H])c([H])c([H])c2C1([H])[H]

$$$$
30:0:0
     RDKit          3D

 94102  0  0  1  0  0  0  0  0999 V2000
  -30.7230  -22.7410   19.6850 C   0  0  0  0  0  3  0  0  0  0  0  0
  -29.0670  -21.0840   20.2510 C   0  0  0  0  0  3  0  0  0  0  0  0
  -29.4240  -22.4890   20.1450 C   0  0  0  0  0  0  0  0  0  0  0  0
  -31.5640  -21.7260   19.1870 C   0  0  0  0  0  0  0  0  0  0  0  0
  -29.9080  -19.9840   19.7890 C   0  0  0  0  0  0  0  0  0  0  0  0
  -31.1300  -20.3600   19.1230 C   0  0  0  0  0  0  0  0  0  0  0  0
  -31.1740  -19.1980   16.8480 C   0  0  0  0  0  1  0  0  0  0  0  0
  -32.4700  -18.1000   18.7480 C   0  0  0  0  0  1  0  0  0  0  0  0
  -31.9180  -19.4100   18.1780 C   0  0  0  0  0  3  0  0  0  0  0  0
  -34.0800  -21.7410   19.6250 C   0  0  0  0  0  1  0  0  0  0  0  0
  -32.9390  -22.2040   18.7060 C   0  0  0  0  0  2  0  0  0  0  0  0
  -28.5650  -23.7560   20.6040 C   0  0  0  0  0  2  0  0  0  0  0  0
  -28.5090  -25.1050   19.6980 C   0  0  0  0  0  2  0  0  0  0  0  0
  -28.3730  -26.4840   20.2770 O   0  0  0  0  0  0  0  0  0  0  0  0
  -24.6060  -31.8880   23.2490 C   0  0  0  0  0  0  0  0  0  0  0  0
  -27.2290  -27.3060   20.1920 C   0  0  0  0  0  0  0  0  0  0  0  0
  -23.4040  -30.4850   21.6120 C   0  0  0  0  0  3  0  0  0  0  0  0
  -24.8560  -28.9300   20.1830 C   0  0  0  0  0  0  0  0  0  0  0  0
  -25.9440  -30.8020   21.4260 C   0  0  0  0  0  2  0  0  0  0  0  0
  -26.0250  -29.4200   20.7780 C   0  0  0  0  0  0  0  0  0  0  0  0
  -27.2080  -28.6180   20.7730 C   0  0  0  0  0  3  0  0  0  0  0  0
  -26.0330  -26.8700   19.5790 C   0  0  0  0  0  3  0  0  0  0  0  0
  -24.8660  -27.6630   19.5740 C   0  0  0  0  0  3  0  0  0  0  0  0
  -23.6170  -29.8040   20.2330 C   0  0  0  0  0  2  0  0  0  0  0  0
  -24.6710  -31.0770   22.1520 N   0  0  0  0  0  0  0  0  0  0  0  0
  -23.5240  -32.1640   23.7840 O   0  0  0  0  0  0  0  0  0  0  0  0
  -22.7430  -29.4710   22.5750 C   0  0  0  0  0  0  0  0  0  0  0  0
  -21.4180  -29.2890   22.4460 N   0  0  0  0  0  0  0  0  0  0  0  0
  -23.4210  -28.8510   23.3990 O   0  0  0  0  0  0  0  0  0  0  0  0
  -20.9300  -29.8400   21.7540 H   0  0  0  0  0  0  0  0  0  0  0  0
  -18.0470  -28.0630   22.9250 C   0  0  0  0  0  0  0  0  0  0  0  0
  -20.6000  -28.3490   23.2150 C   0  0  0  0  0  3  0  0  0  0  0  0
  -20.7200  -26.9130   22.6520 C   0  0  0  0  0  2  0  0  0  0  0  0
  -19.6320  -26.5740   21.6300 C   0  0  0  0  0  2  0  0  0  0  0  0
  -18.2430  -26.7100   22.2610 C   0  0  0  0  0  2  0  0  0  0  0  0
  -19.1540  -28.8390   23.3590 C   0  0  0  0  0  0  0  0  0  0  0  0
  -18.9180  -30.1040   23.9400 C   0  0  0  0  0  3  0  0  0  0  0  0
  -17.6060  -30.5930   24.0900 C   0  0  0  0  0  3  0  0  0  0  0  0
  -16.5130  -29.8140   23.6720 C   0  0  0  0  0  3  0  0  0  0  0  0
  -16.7340  -28.5500   23.0960 C   0  0  0  0  0  3  0  0  0  0  0  0
  -25.8890  -32.5230   23.8730 C   0  0  0  0  0  3  0  0  0  0  0  0
  -25.5790  -33.9230   24.1960 N   0  0  0  0  0  0  0  0  0  0  0  0
  -25.9140  -34.9740   23.4340 C   0  0  0  0  0  0  0  0  0  0  0  0
  -26.5840  -34.8650   22.4030 O   0  0  0  0  0  0  0  0  0  0  0  0
  -24.9850  -34.0810   24.9960 H   0  0  0  0  0  0  0  0  0  0  0  0
  -24.1880  -36.7680   23.0740 C   0  0  0  0  0  1  0  0  0  0  0  0
  -25.4300  -36.3650   23.8860 C   0  0  0  0  0  3  0  0  0  0  0  0
  -27.5660  -37.2500   24.7100 C   0  0  0  0  0  1  0  0  0  0  0  0
  -26.4640  -37.4160   23.7670 N   0  0  0  0  0  0  0  0  0  0  0  0
  -26.0610  -38.3380   23.9110 H   0  0  0  0  0  0  0  0  0  0  0  0
  -26.3990  -31.7580   25.1560 C   0  0  1  0  0  0  0  0  0  0  0  0
  -25.3020  -31.5340   26.2220 C   0  0  0  0  0  1  0  0  0  0  0  0
  -26.9770  -30.3750   24.7750 C   0  0  0  0  0  1  0  0  0  0  0  0
  -27.5500  -32.5530   25.8150 C   0  0  0  0  0  1  0  0  0  0  0  0
  -29.4230  -18.4560   19.8490 C   0  0  0  0  0  3  0  0  0  0  0  0
  -30.0710  -17.3500   20.8430 C   0  0  0  0  0  3  0  0  0  0  0  0
  -30.5430  -14.7620   20.4300 C   0  0  0  0  0  0  0  0  0  0  0  0
  -30.3740  -12.4940   19.3940 C   0  0  0  0  0  2  0  0  0  0  0  0
  -29.4350  -12.5640   18.1700 C   0  0  0  0  0  2  0  0  0  0  0  0
  -27.9640  -12.3840   18.5950 C   0  0  0  0  0  2  0  0  0  0  0  0
  -27.5810  -13.2640   19.8140 C   0  0  0  0  0  3  0  0  0  0  0  0
  -28.6360  -13.1680   20.9360 C   0  0  0  0  0  2  0  0  0  0  0  0
  -29.9300  -13.5330   20.3470 N   0  0  0  0  0  0  0  0  0  0  0  0
  -31.7340  -14.8830   20.1370 O   0  0  0  0  0  0  0  0  0  0  0  0
  -29.7390  -15.8680   20.6520 N   0  0  0  0  0  0  0  0  0  0  0  0
  -28.7670  -15.6380   20.7880 H   0  0  0  0  0  0  0  0  0  0  0  0
  -25.1830  -13.8420   20.5220 C   0  0  0  0  0  0  0  0  0  0  0  0
  -24.1200  -13.0620   20.8900 C   0  0  0  0  0  0  0  0  0  0  0  0
  -24.5940  -11.7130   20.8680 C   0  0  0  0  0  0  0  0  0  0  0  0
  -26.2350  -12.9690   20.2970 N   0  0  0  0  0  0  0  0  0  0  0  0
  -25.8870  -11.6840   20.5690 N   0  0  0  0  0  0  0  0  0  0  0  0
  -23.8770  -10.4460   21.0590 C   0  0  0  0  0  0  0  0  0  0  0  0
  -24.3170   -9.4810   21.9900 C   0  0  0  0  0  3  0  0  0  0  0  0
  -23.6000   -8.2780   22.1700 C   0  0  0  0  0  3  0  0  0  0  0  0
  -22.4260   -8.0330   21.4170 C   0  0  0  0  0  0  0  0  0  0  0  0
  -22.0040   -8.9870   20.4760 C   0  0  0  0  0  3  0  0  0  0  0  0
  -22.7220  -10.1810   20.2940 C   0  0  0  0  0  3  0  0  0  0  0  0
  -21.6800   -6.8820   21.5040 O   0  0  0  0  0  0  0  0  0  0  0  0
  -21.6490   -6.1310   22.6530 C   0  0  0  0  0  0  0  0  0  0  0  0
  -21.2380   -6.6760   23.8890 C   0  0  0  0  0  3  0  0  0  0  0  0
  -21.1540   -5.8500   25.0280 C   0  0  0  0  0  3  0  0  0  0  0  0
  -21.4700   -4.4820   24.9330 C   0  0  0  0  0  0  0  0  0  0  0  0
  -21.8740   -3.9370   23.7010 C   0  0  0  0  0  3  0  0  0  0  0  0
  -21.9610   -4.7590   22.5650 C   0  0  0  0  0  0  0  0  0  0  0  0
  -22.3300   -4.2240   21.3760 F   0  0  0  0  0  0  0  0  0  0  0  0
  -21.3810   -3.6890   26.0250 F   0  0  0  0  0  0  0  0  0  0  0  0
  -22.7180  -13.5290   21.1480 C   0  0  0  0  0  0  0  0  0  0  0  0
  -21.9880  -12.8290   22.0100 N   0  0  0  0  0  0  0  0  0  0  0  0
  -22.2760  -14.5470   20.6180 O   0  0  0  0  0  0  0  0  0  0  0  0
  -22.3590  -12.0060   22.4610 H   0  0  0  0  0  0  0  0  0  0  0  0
  -21.0460  -13.1230   22.2230 H   0  0  0  0  0  0  0  0  0  0  0  0
  -25.3360  -15.2130   20.3380 N   0  0  0  0  0  0  0  0  0  0  0  0
  -24.5590  -15.8570   20.4350 H   0  0  0  0  0  0  0  0  0  0  0  0
  -26.1700  -15.6530   19.9730 H   0  0  0  0  0  0  0  0  0  0  0  0
  1  3  1  0
  3  2  2  0
  3 12  1  0
  4  1  2  0
  5 55  1  0
  5  2  1  0
  6  4  1  0
  6  5  2  0
  7  9  1  0
  9  8  1  0
  9  6  1  0
 11  4  1  0
 11 10  1  0
 13 14  1  0
 13 12  1  0
 15 26  2  0
 16 14  1  0
 16 21  1  0
 17 25  1  0
 17 27  1  0
 18 24  1  0
 18 20  1  0
 19 25  1  0
 20 19  1  0
 21 20  2  0
 22 16  2  0
 23 22  1  0
 23 18  2  0
 24 17  1  0
 25 15  1  0
 27 29  2  0
 28 27  1  0
 30 28  1  0
 31 40  2  0
 31 36  1  0
 32 28  1  0
 32 36  1  0
 33 32  1  0
 34 35  1  0
 34 33  1  0
 35 31  1  0
 36 37  2  0
 37 38  1  0
 39 38  2  0
 40 39  1  0
 41 15  1  0
 41 42  1  0
 41 51  1  0
 42 45  1  0
 43 47  1  0
 43 42  1  0
 44 43  2  0
 47 46  1  0
 49 47  1  0
 49 50  1  0
 49 48  1  0
 51 54  1  1
 51 52  1  0
 53 51  1  0
 55 56  2  0
 57 65  1  0
 58 63  1  0
 59 60  1  0
 59 58  1  0
 61 60  1  0
 61 70  1  0
 61 62  1  0
 63 57  1  0
 63 62  1  0
 64 57  2  0
 65 66  1  0
 65 56  1  0
 67 68  2  0
 68 87  1  0
 69 68  1  0
 69 72  1  0
 70 67  1  0
 70 71  1  0
 71 69  2  0
 72 73  1  0
 73 74  2  0
 75 78  1  0
 75 74  1  0
 76 75  2  0
 77 76  1  0
 77 72  2  0
 78 79  1  0
 79 80  1  0
 80 81  2  0
 82 81  1  0
 82 86  1  0
 83 82  2  0
 84 79  2  0
 84 83  1  0
 85 84  1  0
 87 88  1  0
 88 91  1  0
 88 90  1  0
 89 87  2  0
 92 93  1  0
 92 67  1  0
 94 92  1  0
M  ISO  4  13 101  14 101  57 100  65 100
M  END
>  <TORSDO>  (31) 
F 22

>  <SCORE>  (31) 
-13.189

>  <name>  (31) 
30

>  <ligand_id>  (31) 
30

>  <original_smiles>  (31) 
[H]c1c([H])c([H])c2c(c1[H])C([H])([H])C([H])([H])C([H])([H])C2([H])N([H])C(=O)C1([H])N(C(=O)C([H])(N([H])C(=O)C([H])(N([H])C([H])([H])[H])C([H])([H])[H])C(C([H])([H])[H])(C([H])([H])[H])C([H])([H])[H])C([H])([H])c2c([H])c(OC([H])([H])C([H])([H])c3c([H])c(C([H])([H])C([H])([H])[H])c(C([H])(C([H])([H])[H])C([H])([H])[H])c(C([H])([H])C([H])([H])N([H])C(=O)N4C([H])([H])C([H])([H])C([H])([H])C([H])(n5nc(-c6c([H])c([H])c(Oc7c([H])c([H])c(F)c([H])c7F)c([H])c6[H])c(C(=O)N([H])[H])c5N([H])[H])C4([H])[H])c3[H])c([H])c([H])c2C1([H])[H]

>  <smiles>  (31) 
[H]c1c([H])c([H])c2c(c1[H])C([H])([H])C([H])([H])C([H])([H])C2([H])N([H])C(=O)C1([H])N(C(=O)C([H])(N([H])C(=O)C([H])(N([H])C([H])([H])[H])C([H])([H])[H])C(C([H])([H])[H])(C([H])([H])[H])C([H])([H])[H])C([H])([H])c2c([H])c(OC([H])([H])C([H])([H])c3c([H])c(C([H])([H])C([H])([H])[H])c(C([H])(C([H])([H])[H])C([H])([H])[H])c(C([H])([H])C([H])([H])N([H])C(=O)N4C([H])([H])C([H])([H])C([H])([H])C([H])(n5nc(-c6c([H])c([H])c(Oc7c([H])c([H])c(F)c([H])c7F)c([H])c6[H])c(C(=O)N([H])[H])c5N([H])[H])C4([H])[H])c3[H])c([H])c([H])c2C1([H])[H]

$$$$
31:0:0
     RDKit          3D

100108  0  0  1  0  0  0  0  0999 V2000
  -30.0780  -21.0890   21.4700 C   0  0  0  0  0  3  0  0  0  0  0  0
  -30.7900  -20.4620   22.5050 C   0  0  0  0  0  0  0  0  0  0  0  0
  -29.4610  -20.3990   20.3950 C   0  0  0  0  0  0  0  0  0  0  0  0
  -30.8690  -19.0650   22.4840 C   0  0  0  0  0  0  0  0  0  0  0  0
  -29.6960  -18.8880   20.4410 C   0  0  0  0  0  0  0  0  0  0  0  0
  -31.6100  -18.2580   23.5340 C   0  0  0  0  0  1  0  0  0  0  0  0
  -30.3380  -18.3410   21.4950 N   0  0  0  0  0  0  0  0  0  0  0  0
  -31.4980  -21.3000   23.5710 C   0  0  0  0  0  2  0  0  0  0  0  0
  -30.5660  -21.9380   24.6300 C   0  0  0  0  0  2  0  0  0  0  0  0
  -29.5070  -22.9230   24.0870 C   0  0  0  0  0  2  0  0  0  0  0  0
  -30.1160  -24.1140   23.4520 N   0  0  0  0  0  4  0  0  0  0  0  0
  -30.8770  -23.8140   22.8660 H   0  0  0  0  0  0  0  0  0  0  0  0
  -30.4930  -24.7210   24.1640 H   0  0  0  0  0  0  0  0  0  0  0  0
  -29.1980  -24.8870   22.5920 C   0  0  0  0  0  2  0  0  0  0  0  0
  -30.3130  -27.2020   22.6910 C   0  0  0  0  0  1  0  0  0  0  0  0
  -31.1560  -25.4500   21.0440 C   0  0  0  0  0  1  0  0  0  0  0  0
  -29.9380  -25.9960   21.8130 C   0  0  0  0  0  3  0  0  0  0  0  0
  -29.5250  -17.5930   19.4650 C   0  0  0  0  0  2  0  0  0  0  0  0
  -30.4160  -14.9190   19.6350 C   0  0  0  0  0  0  0  0  0  0  0  0
  -30.2270  -12.5600   18.7190 C   0  0  0  0  0  2  0  0  0  0  0  0
  -29.1780  -12.5460   17.5820 C   0  0  0  0  0  2  0  0  0  0  0  0
  -27.7590  -12.3420   18.1430 C   0  0  0  0  0  2  0  0  0  0  0  0
  -27.4800  -13.2350   19.3810 C   0  0  0  0  0  3  0  0  0  0  0  0
  -28.6440  -13.2160   20.3970 C   0  0  0  0  0  2  0  0  0  0  0  0
  -29.8530  -13.6410   19.6790 N   0  0  0  0  0  0  0  0  0  0  0  0
  -31.5520  -15.0140   19.1580 O   0  0  0  0  0  0  0  0  0  0  0  0
  -29.6240  -16.0650   19.9260 N   0  0  0  0  0  0  0  0  0  0  0  0
  -28.7880  -15.7950   20.4190 H   0  0  0  0  0  0  0  0  0  0  0  0
  -25.1990  -13.8060   20.3890 C   0  0  0  0  0  0  0  0  0  0  0  0
  -24.1670  -13.0300   20.8390 C   0  0  0  0  0  0  0  0  0  0  0  0
  -24.6030  -11.6760   20.7030 C   0  0  0  0  0  0  0  0  0  0  0  0
  -26.1960  -12.9270   20.0040 N   0  0  0  0  0  0  0  0  0  0  0  0
  -25.8540  -11.6360   20.2560 N   0  0  0  0  0  0  0  0  0  0  0  0
  -23.8760  -10.4160   20.9190 C   0  0  0  0  0  0  0  0  0  0  0  0
  -24.3520   -9.4350   21.8160 C   0  0  0  0  0  3  0  0  0  0  0  0
  -23.6290   -8.2400   22.0210 C   0  0  0  0  0  3  0  0  0  0  0  0
  -22.4130   -8.0200   21.3290 C   0  0  0  0  0  0  0  0  0  0  0  0
  -21.9550   -8.9900   20.4220 C   0  0  0  0  0  3  0  0  0  0  0  0
  -22.6790  -10.1760   20.2160 C   0  0  0  0  0  3  0  0  0  0  0  0
  -21.6530   -6.8810   21.4490 O   0  0  0  0  0  0  0  0  0  0  0  0
  -21.6240   -6.1520   22.6120 C   0  0  0  0  0  0  0  0  0  0  0  0
  -21.2110   -6.7200   23.8360 C   0  0  0  0  0  3  0  0  0  0  0  0
  -21.1280   -5.9170   24.9920 C   0  0  0  0  0  3  0  0  0  0  0  0
  -21.4500   -4.5480   24.9240 C   0  0  0  0  0  0  0  0  0  0  0  0
  -21.8560   -3.9800   23.7030 C   0  0  0  0  0  3  0  0  0  0  0  0
  -21.9400   -4.7800   22.5490 C   0  0  0  0  0  0  0  0  0  0  0  0
  -22.3120   -4.2230   21.3730 F   0  0  0  0  0  0  0  0  0  0  0  0
  -21.3640   -3.7750   26.0310 F   0  0  0  0  0  0  0  0  0  0  0  0
  -22.8150  -13.5140   21.2740 C   0  0  0  0  0  0  0  0  0  0  0  0
  -22.1720  -12.8020   22.1930 N   0  0  0  0  0  0  0  0  0  0  0  0
  -22.3390  -14.5590   20.8320 O   0  0  0  0  0  0  0  0  0  0  0  0
  -22.5680  -11.9550   22.5740 H   0  0  0  0  0  0  0  0  0  0  0  0
  -21.2690  -13.1120   22.5220 H   0  0  0  0  0  0  0  0  0  0  0  0
  -25.3670  -15.1820   20.2490 N   0  0  0  0  0  0  0  0  0  0  0  0
  -24.6260  -15.8410   20.4650 H   0  0  0  0  0  0  0  0  0  0  0  0
  -26.1680  -15.6200   19.8140 H   0  0  0  0  0  0  0  0  0  0  0  0
  -28.6720  -21.5040   19.4320 C   0  0  0  0  0  2  0  0  0  0  0  0
  -28.7450  -23.2100   19.6930 C   0  0  0  0  0  3  0  0  0  0  0  0
  -27.7720  -24.4820   19.1130 C   0  0  0  0  0  3  0  0  0  0  0  0
  -28.0100  -26.0310   19.2530 O   0  0  0  0  0  0  0  0  0  0  0  0
  -24.5710  -31.4900   22.8700 C   0  0  0  0  0  0  0  0  0  0  0  0
  -26.9480  -27.0160   19.3220 C   0  0  0  0  0  0  0  0  0  0  0  0
  -23.2650  -30.2060   21.2220 C   0  0  0  0  0  3  0  0  0  0  0  0
  -24.6150  -28.7510   19.5820 C   0  0  0  0  0  0  0  0  0  0  0  0
  -25.8020  -30.4980   20.9020 C   0  0  0  0  0  2  0  0  0  0  0  0
  -25.8330  -29.1580   20.1400 C   0  0  0  0  0  0  0  0  0  0  0  0
  -26.9970  -28.3090   19.9920 C   0  0  0  0  0  3  0  0  0  0  0  0
  -25.6990  -26.7170   18.7320 C   0  0  0  0  0  3  0  0  0  0  0  0
  -24.5610  -27.5470   18.8620 C   0  0  0  0  0  3  0  0  0  0  0  0
  -23.3900  -29.6330   19.7840 C   0  0  0  0  0  2  0  0  0  0  0  0
  -24.5690  -30.7500   21.7190 N   0  0  0  0  0  0  0  0  0  0  0  0
  -23.5240  -31.7260   23.4910 O   0  0  0  0  0  0  0  0  0  0  0  0
  -22.6590  -29.1270   22.1540 C   0  0  0  0  0  0  0  0  0  0  0  0
  -21.3260  -28.9420   22.0950 N   0  0  0  0  0  0  0  0  0  0  0  0
  -23.3860  -28.4610   22.8940 O   0  0  0  0  0  0  0  0  0  0  0  0
  -20.7920  -29.5330   21.4740 H   0  0  0  0  0  0  0  0  0  0  0  0
  -18.0080  -27.6070   22.6680 C   0  0  0  0  0  0  0  0  0  0  0  0
  -20.5660  -27.9430   22.8500 C   0  0  0  0  0  3  0  0  0  0  0  0
  -20.6900  -26.5450   22.2010 C   0  0  0  0  0  2  0  0  0  0  0  0
  -19.5600  -26.2340   21.2150 C   0  0  0  0  0  2  0  0  0  0  0  0
  -18.2010  -26.3000   21.9180 C   0  0  0  0  0  2  0  0  0  0  0  0
  -19.1180  -28.3860   23.0920 C   0  0  0  0  0  0  0  0  0  0  0  0
  -18.8810  -29.6080   23.7580 C   0  0  0  0  0  3  0  0  0  0  0  0
  -17.5680  -30.0530   24.0020 C   0  0  0  0  0  3  0  0  0  0  0  0
  -16.4730  -29.2720   23.5930 C   0  0  0  0  0  3  0  0  0  0  0  0
  -16.6950  -28.0490   22.9320 C   0  0  0  0  0  3  0  0  0  0  0  0
  -25.8870  -32.0900   23.4520 C   0  0  0  0  0  3  0  0  0  0  0  0
  -26.5080  -31.2160   24.6110 C   0  0  1  0  0  0  0  0  0  0  0  0
  -25.5090  -30.8800   25.7420 C   0  0  0  0  0  1  0  0  0  0  0  0
  -27.0590  -29.8800   24.0620 C   0  0  0  0  0  1  0  0  0  0  0  0
  -27.7100  -31.9600   25.2410 C   0  0  0  0  0  1  0  0  0  0  0  0
  -25.5830  -33.4450   23.9420 N   0  0  0  0  0  0  0  0  0  0  0  0
  -25.9300  -34.5790   23.3190 C   0  0  0  0  0  0  0  0  0  0  0  0
  -26.6020  -34.5950   22.2860 O   0  0  0  0  0  0  0  0  0  0  0  0
  -24.9830  -33.5070   24.7500 H   0  0  0  0  0  0  0  0  0  0  0  0
  -24.2230  -36.4270   23.1810 C   0  0  0  0  0  1  0  0  0  0  0  0
  -25.4540  -35.9090   23.9410 C   0  0  0  0  0  3  0  0  0  0  0  0
  -27.5900  -36.6670   24.8890 C   0  0  0  0  0  1  0  0  0  0  0  0
  -26.4990  -36.9570   23.9620 N   0  0  0  0  0  0  0  0  0  0  0  0
  -26.1010  -37.8570   24.2120 H   0  0  0  0  0  0  0  0  0  0  0  0
  1  2  1  0
  2  8  1  0
  3  5  1  0
  3  1  2  0
  4  2  2  0
  4  6  1  0
  5  7  2  0
  7  4  1  0
  8  9  1  0
 10  9  1  0
 11 10  1  0
 11 13  1  0
 12 11  1  0
 14 11  1  0
 16 17  1  0
 17 14  1  0
 17 15  1  0
 18 27  1  0
 18  5  1  0
 19 25  1  0
 19 27  1  0
 20 25  1  0
 21 22  1  0
 21 20  1  0
 23 22  1  0
 23 32  1  0
 23 24  1  0
 25 24  1  0
 26 19  2  0
 27 28  1  0
 29 30  2  0
 30 49  1  0
 31 30  1  0
 31 34  1  0
 32 33  1  0
 32 29  1  0
 33 31  2  0
 34 35  1  0
 35 36  2  0
 37 40  1  0
 37 36  1  0
 38 37  2  0
 39 38  1  0
 39 34  2  0
 40 41  1  0
 41 42  1  0
 42 43  2  0
 44 43  1  0
 44 48  1  0
 45 44  2  0
 46 41  2  0
 46 45  1  0
 47 46  1  0
 49 50  1  0
 50 53  1  0
 50 52  1  0
 51 49  2  0
 54 29  1  0
 54 55  1  0
 56 54  1  0
 57 58  1  0
 57  3  1  0
 59 60  1  0
 59 58  2  0
 60 62  1  0
 61 72  2  0
 62 67  1  0
 63 71  1  0
 63 73  1  0
 64 70  1  0
 64 66  1  0
 65 71  1  0
 66 65  1  0
 67 66  2  0
 68 69  1  0
 68 62  2  0
 69 64  2  0
 70 63  1  0
 71 61  1  0
 73 75  2  0
 74 73  1  0
 76 74  1  0
 77 86  2  0
 77 82  1  0
 78 74  1  0
 78 82  1  0
 79 78  1  0
 80 81  1  0
 80 79  1  0
 81 77  1  0
 82 83  2  0
 83 84  1  0
 85 84  2  0
 86 85  1  0
 87 61  1  0
 87 92  1  0
 87 88  1  0
 88 91  1  1
 88 89  1  0
 90 88  1  0
 92 95  1  0
 93 97  1  0
 93 92  1  0
 94 93  2  0
 97 96  1  0
 97 99  1  0
 99100  1  0
 99 98  1  0
M  ISO  4  19 100  27 100  59 101  60 101
M  END
>  <TORSDO>  (32) 
F 26

>  <SCORE>  (32) 
-11.360

>  <name>  (32) 
31

>  <ligand_id>  (32) 
31

>  <original_smiles>  (32) 
[H]c1c([H])c([H])c2c(c1[H])C([H])([H])C([H])([H])C([H])([H])C2([H])N([H])C(=O)C1([H])N(C(=O)C([H])(N([H])C(=O)C([H])(N([H])C([H])([H])[H])C([H])([H])[H])C(C([H])([H])[H])(C([H])([H])[H])C([H])([H])[H])C([H])([H])c2c([H])c(OC([H])([H])C([H])([H])C([H])([H])c3c(C([H])([H])N([H])C(=O)N4C([H])([H])C([H])([H])C([H])([H])C([H])(n5nc(-c6c([H])c([H])c(Oc7c([H])c([H])c(F)c([H])c7F)c([H])c6[H])c(C(=O)N([H])[H])c5N([H])[H])C4([H])[H])nc(C([H])([H])[H])c(C([H])([H])C([H])([H])C([H])([H])[N+]([H])([H])C([H])([H])C([H])(C([H])([H])[H])C([H])([H])[H])c3[H])c([H])c([H])c2C1([H])[H]

>  <smiles>  (32) 
[H]c1c([H])c([H])c2c(c1[H])C([H])([H])C([H])([H])C([H])([H])C2([H])N([H])C(=O)C1([H])N(C(=O)C([H])(N([H])C(=O)C([H])(N([H])C([H])([H])[H])C([H])([H])[H])C(C([H])([H])[H])(C([H])([H])[H])C([H])([H])[H])C([H])([H])c2c([H])c(OC([H])([H])C([H])([H])C([H])([H])c3c(C([H])([H])N([H])C(=O)N4C([H])([H])C([H])([H])C([H])([H])C([H])(n5nc(-c6c([H])c([H])c(Oc7c([H])c([H])c(F)c([H])c7F)c([H])c6[H])c(C(=O)N([H])[H])c5N([H])[H])C4([H])[H])nc(C([H])([H])[H])c(C([H])([H])C([H])([H])C([H])([H])[N+]([H])([H])C([H])([H])C([H])(C([H])([H])[H])C([H])([H])[H])c3[H])c([H])c([H])c2C1([H])[H]

$$$$
32:0:0
     RDKit          3D

 96104  0  0  1  0  0  0  0  0999 V2000
  -30.9010  -25.5310   15.7430 C   0  0  0  0  0  3  0  0  0  0  0  0
  -30.8450  -26.2110   14.4620 C   0  0  0  0  0  0  0  0  0  0  0  0
  -30.2180  -24.3160   15.7540 C   0  0  0  0  0  0  0  0  0  0  0  0
  -30.1510  -25.3210   13.6780 C   0  0  0  0  0  0  0  0  0  0  0  0
  -28.9330  -23.0930   13.9780 C   0  0  0  0  0  1  0  0  0  0  0  0
  -29.7450  -24.2030   14.4460 N   0  0  0  0  0  0  0  0  0  0  0  0
  -31.2700  -27.7060   14.1050 C   0  0  0  0  0  2  0  0  0  0  0  0
  -30.9380  -29.0490   14.9510 C   0  0  0  0  0  2  0  0  0  0  0  0
  -29.5490  -31.2020   15.2520 C   0  0  0  0  0  1  0  0  0  0  0  0
  -29.1420  -29.7560   13.2530 C   0  0  0  0  0  1  0  0  0  0  0  0
  -29.4770  -29.7400   14.7550 C   0  0  1  0  0  0  0  0  0  0  0  0
  -28.2510  -29.0550   15.2790 O   0  0  0  0  0  0  0  0  0  0  0  0
  -30.2040  -27.0910   21.9970 C   0  0  0  0  0  0  0  0  0  0  0  0
  -28.2750  -28.1090   16.3220 C   0  0  0  0  0  0  0  0  0  0  0  0
  -29.4010  -25.3010   20.4970 C   0  0  0  0  0  3  0  0  0  0  0  0
  -28.2690  -26.0760   18.3350 C   0  0  0  0  0  0  0  0  0  0  0  0
  -28.5700  -27.7090   20.1990 C   0  0  0  0  0  2  0  0  0  0  0  0
  -28.4030  -27.4190   18.7090 C   0  0  0  0  0  0  0  0  0  0  0  0
  -28.3890  -28.4400   17.7100 C   0  0  0  0  0  3  0  0  0  0  0  0
  -28.1090  -26.7490   15.9930 C   0  0  0  0  0  3  0  0  0  0  0  0
  -28.1120  -25.7410   16.9780 C   0  0  0  0  0  3  0  0  0  0  0  0
  -28.3010  -25.0320   19.4360 C   0  0  0  0  0  2  0  0  0  0  0  0
  -29.4330  -26.7370   20.9260 N   0  0  0  0  0  0  0  0  0  0  0  0
  -30.8480  -26.2470   22.6360 O   0  0  0  0  0  0  0  0  0  0  0  0
  -30.7580  -24.7950   19.9520 C   0  0  0  0  0  0  0  0  0  0  0  0
  -30.8710  -23.4710   19.7450 N   0  0  0  0  0  0  0  0  0  0  0  0
  -31.6700  -25.5860   19.7010 O   0  0  0  0  0  0  0  0  0  0  0  0
  -30.0820  -22.8860   19.9830 H   0  0  0  0  0  0  0  0  0  0  0  0
  -34.4800  -23.5800   19.5200 C   0  0  0  0  0  0  0  0  0  0  0  0
  -32.0410  -22.7850   19.1950 C   0  0  0  0  0  3  0  0  0  0  0  0
  -32.4310  -21.5670   20.0660 C   0  0  0  0  0  2  0  0  0  0  0  0
  -33.4850  -21.8980   21.1280 C   0  0  0  0  0  2  0  0  0  0  0  0
  -34.7620  -22.4280   20.4710 C   0  0  0  0  0  2  0  0  0  0  0  0
  -33.1990  -23.7560   18.9340 C   0  0  0  0  0  0  0  0  0  0  0  0
  -32.9800  -24.8630   18.0840 C   0  0  0  0  0  3  0  0  0  0  0  0
  -34.0160  -25.7790   17.8150 C   0  0  0  0  0  3  0  0  0  0  0  0
  -35.2860  -25.5910   18.3860 C   0  0  0  0  0  3  0  0  0  0  0  0
  -35.5170  -24.4920   19.2340 C   0  0  0  0  0  3  0  0  0  0  0  0
  -30.2950  -28.5720   22.4820 C   0  0  0  0  0  3  0  0  0  0  0  0
  -29.1430  -28.8220   23.3610 N   0  0  0  0  0  0  0  0  0  0  0  0
  -28.4290  -29.9560   23.3780 C   0  0  0  0  0  0  0  0  0  0  0  0
  -28.7180  -30.9380   22.6890 O   0  0  0  0  0  0  0  0  0  0  0  0
  -28.8130  -28.0380   23.9050 H   0  0  0  0  0  0  0  0  0  0  0  0
  -25.9190  -29.7860   23.4820 C   0  0  0  0  0  1  0  0  0  0  0  0
  -27.1990  -30.0100   24.3040 C   0  0  0  0  0  3  0  0  0  0  0  0
  -25.7380  -31.5350   25.5570 C   0  0  0  0  0  1  0  0  0  0  0  0
  -27.0860  -31.2770   25.0600 N   0  0  0  0  0  0  0  0  0  0  0  0
  -27.3700  -32.0650   24.4870 H   0  0  0  0  0  0  0  0  0  0  0  0
  -31.6460  -28.8970   23.2310 C   0  0  1  0  0  0  0  0  0  0  0  0
  -32.0320  -27.8490   24.2990 C   0  0  0  0  0  1  0  0  0  0  0  0
  -32.8190  -29.0000   22.2280 C   0  0  0  0  0  1  0  0  0  0  0  0
  -31.5380  -30.2740   23.9270 C   0  0  0  0  0  1  0  0  0  0  0  0
  -29.7590  -25.5130   12.2410 C   0  0  0  0  0  2  0  0  0  0  0  0
  -28.5020  -26.3830   12.0740 C   0  0  0  0  0  2  0  0  0  0  0  0
  -27.9130  -24.4550   10.5060 C   0  0  0  0  0  1  0  0  0  0  0  0
  -26.0900  -25.6890   11.7450 C   0  0  0  0  0  1  0  0  0  0  0  0
  -27.4710  -25.8070   11.0840 C   0  0  0  0  0  3  0  0  0  0  0  0
  -30.0150  -23.2960   16.9550 C   0  0  0  0  0  2  0  0  0  0  0  0
  -28.1500  -21.7700   17.8700 C   0  0  0  0  0  0  0  0  0  0  0  0
  -25.9450  -20.6050   17.8180 C   0  0  0  0  0  2  0  0  0  0  0  0
  -25.0350  -21.2630   16.7610 C   0  0  0  0  0  2  0  0  0  0  0  0
  -24.2620  -22.4450   17.3780 C   0  0  0  0  0  2  0  0  0  0  0  0
  -25.1740  -23.3940   18.2020 C   0  0  0  0  0  3  0  0  0  0  0  0
  -26.1140  -22.6160   19.1490 C   0  0  0  0  0  2  0  0  0  0  0  0
  -26.8590  -21.6510   18.3330 N   0  0  0  0  0  0  0  0  0  0  0  0
  -28.7230  -20.7820   17.4050 O   0  0  0  0  0  0  0  0  0  0  0  0
  -28.7190  -23.0240   17.7150 N   0  0  0  0  0  0  0  0  0  0  0  0
  -28.2110  -23.8150   18.0720 H   0  0  0  0  0  0  0  0  0  0  0  0
  -24.8360  -25.5990   19.4670 C   0  0  0  0  0  0  0  0  0  0  0  0
  -23.7170  -26.2260   19.9410 C   0  0  0  0  0  0  0  0  0  0  0  0
  -22.6210  -25.3630   19.6320 C   0  0  0  0  0  0  0  0  0  0  0  0
  -24.4000  -24.4090   18.9090 N   0  0  0  0  0  0  0  0  0  0  0  0
  -23.0600  -24.2450   19.0670 N   0  0  0  0  0  0  0  0  0  0  0  0
  -21.1760  -25.5670   19.7880 C   0  0  0  0  0  0  0  0  0  0  0  0
  -20.6480  -26.7870   20.2640 C   0  0  0  0  0  3  0  0  0  0  0  0
  -19.2540  -26.9640   20.3860 C   0  0  0  0  0  3  0  0  0  0  0  0
  -18.3710  -25.9180   20.0280 C   0  0  0  0  0  0  0  0  0  0  0  0
  -18.9010  -24.6970   19.5780 C   0  0  0  0  0  3  0  0  0  0  0  0
  -20.2900  -24.5190   19.4610 C   0  0  0  0  0  3  0  0  0  0  0  0
  -17.0030  -25.9930   20.1360 O   0  0  0  0  0  0  0  0  0  0  0  0
  -16.3560  -25.6910   21.3080 C   0  0  0  0  0  0  0  0  0  0  0  0
  -16.5640  -26.4380   22.4880 C   0  0  0  0  0  3  0  0  0  0  0  0
  -15.8280  -26.1370   23.6510 C   0  0  0  0  0  3  0  0  0  0  0  0
  -14.8770  -25.0990   23.6340 C   0  0  0  0  0  0  0  0  0  0  0  0
  -14.6640  -24.3580   22.4590 C   0  0  0  0  0  3  0  0  0  0  0  0
  -15.3990  -24.6560   21.2980 C   0  0  0  0  0  0  0  0  0  0  0  0
  -15.1750  -23.9530   20.1610 F   0  0  0  0  0  0  0  0  0  0  0  0
  -14.1630  -24.8150   24.7490 F   0  0  0  0  0  0  0  0  0  0  0  0
  -23.6560  -27.5970   20.5480 C   0  0  0  0  0  0  0  0  0  0  0  0
  -22.9920  -27.7320   21.6910 N   0  0  0  0  0  0  0  0  0  0  0  0
  -24.2390  -28.5490   20.0340 O   0  0  0  0  0  0  0  0  0  0  0  0
  -22.5310  -26.9450   22.1230 H   0  0  0  0  0  0  0  0  0  0  0  0
  -22.9440  -28.6360   22.1400 H   0  0  0  0  0  0  0  0  0  0  0  0
  -26.1780  -25.9560   19.4340 N   0  0  0  0  0  0  0  0  0  0  0  0
  -26.4730  -26.8820   19.7220 H   0  0  0  0  0  0  0  0  0  0  0  0
  -26.8480  -25.4940   18.8360 H   0  0  0  0  0  0  0  0  0  0  0  0
  1  3  2  0
  2  1  1  0
  3 58  1  0
  4  6  1  0
  4  2  2  0
  5  6  1  0
  6  3  1  0
  7  2  1  0
  7  8  1  0
 11 10  1  6
 11  8  1  0
 11  9  1  0
 11 12  1  0
 12 14  1  0
 13 24  2  0
 14 19  1  0
 15 25  1  0
 15 23  1  0
 16 18  1  0
 16 22  1  0
 17 23  1  0
 18 17  1  0
 19 18  2  0
 20 14  2  0
 20 21  1  0
 21 16  2  0
 22 15  1  0
 23 13  1  0
 26 25  1  0
 26 28  1  0
 27 25  2  0
 29 33  1  0
 30 26  1  0
 30 31  1  0
 31 32  1  0
 33 32  1  0
 34 30  1  0
 34 29  2  0
 35 34  1  0
 36 35  2  0
 36 37  1  0
 37 38  2  0
 38 29  1  0
 39 13  1  0
 39 49  1  0
 39 40  1  0
 40 41  1  0
 40 43  1  0
 41 45  1  0
 42 41  2  0
 45 44  1  0
 45 47  1  0
 47 46  1  0
 48 47  1  0
 49 52  1  1
 49 50  1  0
 51 49  1  0
 53  4  1  0
 54 53  1  0
 55 57  1  0
 57 56  1  0
 57 54  1  0
 58 67  1  0
 59 65  1  0
 60 65  1  0
 61 62  1  0
 61 60  1  0
 63 62  1  0
 63 72  1  0
 63 64  1  0
 65 64  1  0
 66 59  2  0
 67 59  1  0
 67 68  1  0
 69 70  2  0
 70 89  1  0
 71 74  1  0
 71 70  1  0
 72 73  1  0
 72 69  1  0
 73 71  2  0
 74 75  1  0
 75 76  2  0
 77 80  1  0
 77 76  1  0
 78 77  2  0
 79 78  1  0
 79 74  2  0
 80 81  1  0
 81 82  1  0
 82 83  2  0
 84 83  1  0
 84 88  1  0
 85 84  2  0
 86 81  2  0
 86 85  1  0
 87 86  1  0
 89 90  1  0
 90 92  1  0
 90 93  1  0
 91 89  2  0
 94 69  1  0
 94 95  1  0
 96 94  1  0
M  ISO  4  11 101  12 101  59 100  67 100
M  END
>  <TORSDO>  (33) 
F 23

>  <SCORE>  (33) 
-2.014

>  <name>  (33) 
32

>  <ligand_id>  (33) 
32

>  <original_smiles>  (33) 
[H]c1c([H])c([H])c2c(c1[H])C([H])([H])C([H])([H])C([H])([H])C2([H])N([H])C(=O)C1([H])N(C(=O)C([H])(N([H])C(=O)C([H])(N([H])C([H])([H])[H])C([H])([H])[H])C(C([H])([H])[H])(C([H])([H])[H])C([H])([H])[H])C([H])([H])c2c([H])c(OC(C([H])([H])[H])(C([H])([H])[H])C([H])([H])C([H])([H])c3c([H])c(C([H])([H])N([H])C(=O)N4C([H])([H])C([H])([H])C([H])([H])C([H])(n5nc(-c6c([H])c([H])c(Oc7c([H])c([H])c(F)c([H])c7F)c([H])c6[H])c(C(=O)N([H])[H])c5N([H])[H])C4([H])[H])n(C([H])([H])[H])c3C([H])([H])C([H])([H])C([H])(C([H])([H])[H])C([H])([H])[H])c([H])c([H])c2C1([H])[H]

>  <smiles>  (33) 
[H]c1c([H])c([H])c2c(c1[H])C([H])([H])C([H])([H])C([H])([H])C2([H])N([H])C(=O)C1([H])N(C(=O)C([H])(N([H])C(=O)C([H])(N([H])C([H])([H])[H])C([H])([H])[H])C(C([H])([H])[H])(C([H])([H])[H])C([H])([H])[H])C([H])([H])c2c([H])c(OC(C([H])([H])[H])(C([H])([H])[H])C([H])([H])C([H])([H])c3c([H])c(C([H])([H])N([H])C(=O)N4C([H])([H])C([H])([H])C([H])([H])C([H])(n5nc(-c6c([H])c([H])c(Oc7c([H])c([H])c(F)c([H])c7F)c([H])c6[H])c(C(=O)N([H])[H])c5N([H])[H])C4([H])[H])n(C([H])([H])[H])c3C([H])([H])C([H])([H])C([H])(C([H])([H])[H])C([H])([H])[H])c([H])c([H])c2C1([H])[H]

$$$$
33:0:0
     RDKit          3D

 99107  0  0  1  0  0  0  0  0999 V2000
  -29.3160  -19.2830   17.7700 C   0  0  0  0  0  3  0  0  0  0  0  0
  -28.6160  -21.8970   17.7210 C   0  0  0  0  0  3  0  0  0  0  0  0
  -29.2390  -19.9010   19.0490 C   0  0  0  0  0  0  0  0  0  0  0  0
  -28.8620  -21.3370   18.9980 C   0  0  0  0  0  0  0  0  0  0  0  0
  -29.0100  -19.9580   16.5830 C   0  0  0  0  0  0  0  0  0  0  0  0
  -29.0330  -19.2440   15.2490 C   0  0  0  0  0  1  0  0  0  0  0  0
  -28.6740  -21.2490   16.5520 N   0  0  0  0  0  0  0  0  0  0  0  0
  -28.5650  -22.3990   20.1270 C   0  0  0  0  0  2  0  0  0  0  0  0
  -28.9420  -23.9790   19.9220 C   0  0  0  0  0  3  0  0  0  0  0  0
  -27.8440  -25.1040   19.5510 C   0  0  0  0  0  3  0  0  0  0  0  0
  -28.1160  -26.5760   19.6850 O   0  0  0  0  0  0  0  0  0  0  0  0
  -24.5990  -31.9150   23.1210 C   0  0  0  0  0  0  0  0  0  0  0  0
  -27.0160  -27.4650   19.7240 C   0  0  0  0  0  0  0  0  0  0  0  0
  -23.3030  -30.5930   21.4900 C   0  0  0  0  0  3  0  0  0  0  0  0
  -24.6680  -29.1100   19.9150 C   0  0  0  0  0  0  0  0  0  0  0  0
  -25.8330  -30.9080   21.1830 C   0  0  0  0  0  2  0  0  0  0  0  0
  -25.8720  -29.5590   20.4710 C   0  0  0  0  0  0  0  0  0  0  0  0
  -27.0490  -28.7500   20.3630 C   0  0  0  0  0  3  0  0  0  0  0  0
  -25.7840  -27.0880   19.1410 C   0  0  0  0  0  3  0  0  0  0  0  0
  -24.6280  -27.8820   19.2400 C   0  0  0  0  0  3  0  0  0  0  0  0
  -23.4390  -29.9840   20.0720 C   0  0  0  0  0  2  0  0  0  0  0  0
  -24.6010  -31.1540   21.9880 N   0  0  0  0  0  0  0  0  0  0  0  0
  -23.5470  -32.1700   23.7260 O   0  0  0  0  0  0  0  0  0  0  0  0
  -22.6890  -29.5350   22.4400 C   0  0  0  0  0  0  0  0  0  0  0  0
  -21.3620  -29.3380   22.3520 N   0  0  0  0  0  0  0  0  0  0  0  0
  -23.4060  -28.8940   23.2140 O   0  0  0  0  0  0  0  0  0  0  0  0
  -20.8430  -29.9080   21.7000 H   0  0  0  0  0  0  0  0  0  0  0  0
  -18.0300  -28.0350   22.8920 C   0  0  0  0  0  0  0  0  0  0  0  0
  -20.5840  -28.3630   23.1200 C   0  0  0  0  0  3  0  0  0  0  0  0
  -20.7160  -26.9460   22.5150 C   0  0  0  0  0  2  0  0  0  0  0  0
  -19.6050  -26.6110   21.5160 C   0  0  0  0  0  2  0  0  0  0  0  0
  -18.2310  -26.7040   22.1880 C   0  0  0  0  0  2  0  0  0  0  0  0
  -19.1340  -28.8220   23.3160 C   0  0  0  0  0  0  0  0  0  0  0  0
  -18.8910  -30.0650   23.9360 C   0  0  0  0  0  3  0  0  0  0  0  0
  -17.5760  -30.5260   24.1360 C   0  0  0  0  0  3  0  0  0  0  0  0
  -16.4860  -29.7370   23.7280 C   0  0  0  0  0  3  0  0  0  0  0  0
  -16.7140  -28.4930   23.1130 C   0  0  0  0  0  3  0  0  0  0  0  0
  -25.9140  -32.5190   23.7000 C   0  0  0  0  0  3  0  0  0  0  0  0
  -26.4860  -31.7010   24.9220 C   0  0  1  0  0  0  0  0  0  0  0  0
  -25.4460  -31.4380   26.0370 C   0  0  0  0  0  1  0  0  0  0  0  0
  -27.0320  -30.3310   24.4570 C   0  0  0  0  0  1  0  0  0  0  0  0
  -27.6800  -32.4610   25.5470 C   0  0  0  0  0  1  0  0  0  0  0  0
  -25.6280  -33.9060   24.0950 N   0  0  0  0  0  0  0  0  0  0  0  0
  -25.9460  -34.9870   23.3700 C   0  0  0  0  0  0  0  0  0  0  0  0
  -26.5790  -34.9180   22.3130 O   0  0  0  0  0  0  0  0  0  0  0  0
  -25.0570  -34.0330   24.9180 H   0  0  0  0  0  0  0  0  0  0  0  0
  -24.2240  -36.8080   23.1520 C   0  0  0  0  0  1  0  0  0  0  0  0
  -25.4890  -36.3600   23.9010 C   0  0  0  0  0  3  0  0  0  0  0  0
  -27.6650  -37.1880   24.6800 C   0  0  0  0  0  1  0  0  0  0  0  0
  -26.5280  -37.4080   23.7920 N   0  0  0  0  0  0  0  0  0  0  0  0
  -26.1380  -38.3250   23.9970 H   0  0  0  0  0  0  0  0  0  0  0  0
  -29.5930  -18.9050   20.2680 C   0  0  0  0  0  3  0  0  0  0  0  0
  -29.6640  -17.3040   19.8800 C   0  0  0  0  0  2  0  0  0  0  0  0
  -30.5850  -15.0080   20.7360 C   0  0  0  0  0  0  0  0  0  0  0  0
  -30.5430  -12.6480   19.9270 C   0  0  0  0  0  2  0  0  0  0  0  0
  -29.6930  -12.6030   18.6360 C   0  0  0  0  0  2  0  0  0  0  0  0
  -28.2010  -12.4180   18.9760 C   0  0  0  0  0  2  0  0  0  0  0  0
  -27.7180  -13.3730   20.1010 C   0  0  0  0  0  3  0  0  0  0  0  0
  -28.6990  -13.3960   21.2960 C   0  0  0  0  0  2  0  0  0  0  0  0
  -30.0250  -13.7510   20.7730 N   0  0  0  0  0  0  0  0  0  0  0  0
  -31.7620  -15.1520   20.3950 O   0  0  0  0  0  0  0  0  0  0  0  0
  -29.7460  -16.1080   20.8380 N   0  0  0  0  0  0  0  0  0  0  0  0
  -28.8620  -15.8840   21.2740 H   0  0  0  0  0  0  0  0  0  0  0  0
  -25.2870  -13.9360   20.6950 C   0  0  0  0  0  0  0  0  0  0  0  0
  -24.2120  -13.1480   21.0100 C   0  0  0  0  0  0  0  0  0  0  0  0
  -24.6930  -11.8030   21.0020 C   0  0  0  0  0  0  0  0  0  0  0  0
  -26.3520  -13.0690   20.5160 N   0  0  0  0  0  0  0  0  0  0  0  0
  -25.9990  -11.7800   20.7640 N   0  0  0  0  0  0  0  0  0  0  0  0
  -23.9740  -10.5300   21.1500 C   0  0  0  0  0  0  0  0  0  0  0  0
  -24.3890   -9.5500   22.0780 C   0  0  0  0  0  3  0  0  0  0  0  0
  -23.6670   -8.3450   22.2180 C   0  0  0  0  0  3  0  0  0  0  0  0
  -22.5150   -8.1110   21.4290 C   0  0  0  0  0  0  0  0  0  0  0  0
  -22.1210   -9.0810   20.4920 C   0  0  0  0  0  3  0  0  0  0  0  0
  -22.8430  -10.2760   20.3490 C   0  0  0  0  0  3  0  0  0  0  0  0
  -21.7680   -6.9600   21.4790 O   0  0  0  0  0  0  0  0  0  0  0  0
  -21.7130   -6.1850   22.6100 C   0  0  0  0  0  0  0  0  0  0  0  0
  -21.2920   -6.7070   23.8530 C   0  0  0  0  0  3  0  0  0  0  0  0
  -21.1830   -5.8590   24.9730 C   0  0  0  0  0  3  0  0  0  0  0  0
  -21.4880   -4.4900   24.8530 C   0  0  0  0  0  0  0  0  0  0  0  0
  -21.9020   -3.9670   23.6150 C   0  0  0  0  0  3  0  0  0  0  0  0
  -22.0110   -4.8120   22.4970 C   0  0  0  0  0  0  0  0  0  0  0  0
  -22.3910   -4.2990   21.3020 F   0  0  0  0  0  0  0  0  0  0  0  0
  -21.3780   -3.6730   25.9260 F   0  0  0  0  0  0  0  0  0  0  0  0
  -22.7970  -13.6070   21.2100 C   0  0  0  0  0  0  0  0  0  0  0  0
  -22.0400  -12.9020   22.0450 N   0  0  0  0  0  0  0  0  0  0  0  0
  -22.3690  -14.6230   20.6650 O   0  0  0  0  0  0  0  0  0  0  0  0
  -22.3980  -12.0800   22.5060 H   0  0  0  0  0  0  0  0  0  0  0  0
  -21.0890  -13.1880   22.2240 H   0  0  0  0  0  0  0  0  0  0  0  0
  -25.4410  -15.3080   20.5190 N   0  0  0  0  0  0  0  0  0  0  0  0
  -24.6530  -15.9460   20.5670 H   0  0  0  0  0  0  0  0  0  0  0  0
  -26.2770  -15.7450   20.1560 H   0  0  0  0  0  0  0  0  0  0  0  0
  -30.9830  -19.2610   20.8530 C   0  0  0  0  0  2  0  0  0  0  0  0
  -32.6160  -21.1130   21.0270 C   0  0  0  0  0  1  0  0  0  0  0  0
  -31.1950  -20.7030   21.1800 N   0  0  2  0  0  4  0  0  0  0  0  0
  -30.7200  -21.1920   20.4340 H   0  0  0  0  0  0  0  0  0  0  0  0
  -30.5270  -22.6930   22.5870 C   0  0  0  0  0  1  0  0  0  0  0  0
  -30.5560  -21.1510   22.4600 C   0  0  0  0  0  3  0  0  0  0  0  0
  -30.3880  -20.7600   25.0110 C   0  0  0  0  0  1  0  0  0  0  0  0
  -31.1970  -20.5240   23.7290 C   0  0  0  0  0  2  0  0  0  0  0  0
  1  3  1  0
  2  4  1  0
  3 52  1  0
  4  3  2  0
  4  8  1  0
  5  1  2  0
  6  5  1  0
  7  5  1  0
  7  2  2  0
  9  8  1  0
 10 11  1  0
 10  9  2  0
 11 13  1  0
 12 23  2  0
 13 18  1  0
 14 22  1  0
 14 24  1  0
 15 21  1  0
 15 17  1  0
 16 22  1  0
 17 16  1  0
 18 17  2  0
 19 20  1  0
 19 13  2  0
 20 15  2  0
 21 14  1  0
 22 12  1  0
 24 26  2  0
 25 24  1  0
 27 25  1  0
 28 37  2  0
 28 33  1  0
 29 25  1  0
 29 33  1  0
 30 29  1  0
 31 32  1  0
 31 30  1  0
 32 28  1  0
 33 34  2  0
 34 35  1  0
 36 35  2  0
 37 36  1  0
 38 12  1  0
 38 43  1  0
 38 39  1  0
 39 42  1  1
 39 40  1  0
 41 39  1  0
 43 46  1  0
 44 48  1  0
 44 43  1  0
 45 44  2  0
 48 47  1  0
 50 48  1  0
 50 51  1  0
 50 49  1  0
 52 53  1  0
 52 92  1  0
 53 62  1  0
 54 60  1  0
 54 62  1  0
 55 60  1  0
 56 57  1  0
 56 55  1  0
 58 57  1  0
 58 67  1  0
 58 59  1  0
 60 59  1  0
 61 54  2  0
 62 63  1  0
 64 65  2  0
 65 84  1  0
 66 65  1  0
 66 69  1  0
 67 64  1  0
 67 68  1  0
 68 66  2  0
 69 70  1  0
 70 71  2  0
 72 75  1  0
 72 71  1  0
 73 72  2  0
 74 73  1  0
 74 69  2  0
 75 76  1  0
 76 77  1  0
 77 78  2  0
 79 78  1  0
 79 83  1  0
 80 79  2  0
 81 76  2  0
 81 80  1  0
 82 81  1  0
 84 85  1  0
 85 88  1  0
 85 87  1  0
 86 84  2  0
 89 90  1  0
 89 64  1  0
 91 89  1  0
 92 94  1  0
 93 94  1  0
 94 97  1  0
 94 95  1  6
 97 96  1  0
 97 99  1  0
 99 98  1  0
M  ISO  4  10 101  11 101  54 100  62 100
M  END
>  <TORSDO>  (34) 
F 25

>  <SCORE>  (34) 
-12.376

>  <name>  (34) 
33

>  <ligand_id>  (34) 
33

>  <original_smiles>  (34) 
[H]c1nc(C([H])([H])[H])c([H])c(C([H])(C([H])([H])N([H])C(=O)N2C([H])([H])C([H])([H])C([H])([H])C([H])(n3nc(-c4c([H])c([H])c(Oc5c([H])c([H])c(F)c([H])c5F)c([H])c4[H])c(C(=O)N([H])[H])c3N([H])[H])C2([H])[H])C([H])([H])[N+]([H])(C([H])([H])[H])C([H])(C([H])([H])[H])C([H])([H])C([H])([H])[H])c1C([H])([H])C([H])([H])C([H])([H])Oc1c([H])c([H])c2c(c1[H])C([H])([H])N(C(=O)C([H])(N([H])C(=O)C([H])(N([H])C([H])([H])[H])C([H])([H])[H])C(C([H])([H])[H])(C([H])([H])[H])C([H])([H])[H])C([H])(C(=O)N([H])C1([H])c3c([H])c([H])c([H])c([H])c3C([H])([H])C([H])([H])C1([H])[H])C2([H])[H]

>  <smiles>  (34) 
[H]c1nc(C([H])([H])[H])c([H])c(C([H])(C([H])([H])N([H])C(=O)N2C([H])([H])C([H])([H])C([H])([H])C([H])(n3nc(-c4c([H])c([H])c(Oc5c([H])c([H])c(F)c([H])c5F)c([H])c4[H])c(C(=O)N([H])[H])c3N([H])[H])C2([H])[H])C([H])([H])[N+]([H])(C([H])([H])[H])C([H])(C([H])([H])[H])C([H])([H])C([H])([H])[H])c1C([H])([H])C([H])([H])C([H])([H])Oc1c([H])c([H])c2c(c1[H])C([H])([H])N(C(=O)C([H])(N([H])C(=O)C([H])(N([H])C([H])([H])[H])C([H])([H])[H])C(C([H])([H])[H])(C([H])([H])[H])C([H])([H])[H])C([H])(C(=O)N([H])C1([H])c3c([H])c([H])c([H])c([H])c3C([H])([H])C([H])([H])C1([H])[H])C2([H])[H]

$$$$
34:0:0
     RDKit          3D

 95103  0  0  1  0  0  0  0  0999 V2000
  -30.1970  -19.1100   21.6150 C   0  0  0  0  0  3  0  0  0  0  0  0
  -30.0440  -20.5230   21.5800 C   0  0  0  0  0  0  0  0  0  0  0  0
  -29.5910  -21.1520   20.3830 C   0  0  0  0  0  0  0  0  0  0  0  0
  -29.9570  -18.3220   20.4760 C   0  0  0  0  0  0  0  0  0  0  0  0
  -29.2070  -20.2480   19.3420 C   0  0  0  0  0  0  0  0  0  0  0  0
  -29.4040  -18.8930   19.3810 N   0  0  0  0  0  0  0  0  0  0  0  0
  -29.3190  -21.3590   23.8390 C   0  0  0  0  0  1  0  0  0  0  0  0
  -30.4620  -21.3200   22.8160 C   0  0  0  0  0  3  0  0  0  0  0  0
  -32.2480  -21.5320   24.6690 C   0  0  0  0  0  1  0  0  0  0  0  0
  -31.7870  -20.7870   23.4060 C   0  0  0  0  0  2  0  0  0  0  0  0
  -29.6350  -20.8020   16.8960 C   0  0  0  0  0  1  0  0  0  0  0  0
  -28.6110  -20.7480   18.0360 C   0  0  0  0  0  2  0  0  0  0  0  0
  -29.7570  -22.7030   20.1130 C   0  0  0  0  0  2  0  0  0  0  0  0
  -28.7760  -23.8300   20.6590 C   0  0  0  0  0  2  0  0  0  0  0  0
  -28.8630  -25.2110   19.8730 C   0  0  0  0  0  2  0  0  0  0  0  0
  -28.6180  -26.4860   20.5610 O   0  0  0  0  0  0  0  0  0  0  0  0
  -24.6700  -31.8210   23.2680 C   0  0  0  0  0  0  0  0  0  0  0  0
  -27.4480  -27.2410   20.4240 C   0  0  0  0  0  0  0  0  0  0  0  0
  -23.5420  -30.3770   21.6110 C   0  0  0  0  0  3  0  0  0  0  0  0
  -25.0600  -28.8020   20.2800 C   0  0  0  0  0  0  0  0  0  0  0  0
  -26.0810  -30.7150   21.5240 C   0  0  0  0  0  2  0  0  0  0  0  0
  -26.1930  -29.3260   20.9120 C   0  0  0  0  0  0  0  0  0  0  0  0
  -27.3840  -28.5520   20.9780 C   0  0  0  0  0  3  0  0  0  0  0  0
  -26.2870  -26.7490   19.7830 C   0  0  0  0  0  3  0  0  0  0  0  0
  -25.1060  -27.5160   19.7140 C   0  0  0  0  0  3  0  0  0  0  0  0
  -23.8130  -29.6650   20.2570 C   0  0  0  0  0  2  0  0  0  0  0  0
  -24.7800  -30.9910   22.1910 N   0  0  0  0  0  0  0  0  0  0  0  0
  -23.5640  -32.1040   23.7520 O   0  0  0  0  0  0  0  0  0  0  0  0
  -22.8500  -29.3780   22.5660 C   0  0  0  0  0  0  0  0  0  0  0  0
  -21.5320  -29.1850   22.3830 N   0  0  0  0  0  0  0  0  0  0  0  0
  -23.4970  -28.7760   23.4270 O   0  0  0  0  0  0  0  0  0  0  0  0
  -21.0680  -29.7220   21.6640 H   0  0  0  0  0  0  0  0  0  0  0  0
  -18.1450  -27.9820   22.7620 C   0  0  0  0  0  0  0  0  0  0  0  0
  -20.6880  -28.2590   23.1360 C   0  0  0  0  0  3  0  0  0  0  0  0
  -20.8220  -26.8170   22.5940 C   0  0  0  0  0  2  0  0  0  0  0  0
  -19.7650  -26.4670   21.5400 C   0  0  0  0  0  2  0  0  0  0  0  0
  -18.3560  -26.6190   22.1220 C   0  0  0  0  0  2  0  0  0  0  0  0
  -19.2400  -28.7580   23.2240 C   0  0  0  0  0  0  0  0  0  0  0  0
  -18.9910  -30.0320   23.7770 C   0  0  0  0  0  3  0  0  0  0  0  0
  -17.6780  -30.5280   23.8780 C   0  0  0  0  0  3  0  0  0  0  0  0
  -16.5960  -29.7490   23.4340 C   0  0  0  0  0  3  0  0  0  0  0  0
  -16.8300  -28.4770   22.8810 C   0  0  0  0  0  3  0  0  0  0  0  0
  -25.9220  -32.4720   23.9320 C   0  0  0  0  0  3  0  0  0  0  0  0
  -25.5930  -33.8740   24.2210 N   0  0  0  0  0  0  0  0  0  0  0  0
  -25.9400  -34.9110   23.4470 C   0  0  0  0  0  0  0  0  0  0  0  0
  -26.6430  -34.7880   22.4390 O   0  0  0  0  0  0  0  0  0  0  0  0
  -24.9740  -34.0450   24.9990 H   0  0  0  0  0  0  0  0  0  0  0  0
  -24.2010  -36.6750   23.0100 C   0  0  0  0  0  1  0  0  0  0  0  0
  -25.4290  -36.3060   23.8570 C   0  0  0  0  0  3  0  0  0  0  0  0
  -27.5350  -37.2390   24.7050 C   0  0  0  0  0  1  0  0  0  0  0  0
  -26.4520  -37.3670   23.7320 N   0  0  0  0  0  0  0  0  0  0  0  0
  -26.0380  -38.2870   23.8440 H   0  0  0  0  0  0  0  0  0  0  0  0
  -26.3880  -31.7280   25.2450 C   0  0  1  0  0  0  0  0  0  0  0  0
  -25.2520  -31.4990   26.2700 C   0  0  0  0  0  1  0  0  0  0  0  0
  -27.0040  -30.3540   24.9030 C   0  0  0  0  0  1  0  0  0  0  0  0
  -27.5010  -32.5480   25.9430 C   0  0  0  0  0  1  0  0  0  0  0  0
  -30.6730  -16.9400   20.3170 C   0  0  0  0  0  2  0  0  0  0  0  0
  -30.6270  -14.4700   20.0380 C   0  0  0  0  0  0  0  0  0  0  0  0
  -30.2160  -12.3140   18.9000 C   0  0  0  0  0  2  0  0  0  0  0  0
  -29.2140  -12.5480   17.7510 C   0  0  0  0  0  2  0  0  0  0  0  0
  -27.7660  -12.4250   18.2650 C   0  0  0  0  0  2  0  0  0  0  0  0
  -27.5170  -13.2300   19.5690 C   0  0  0  0  0  3  0  0  0  0  0  0
  -28.6400  -13.0040   20.6070 C   0  0  0  0  0  2  0  0  0  0  0  0
  -29.9130  -13.3080   19.9460 N   0  0  0  0  0  0  0  0  0  0  0  0
  -31.7830  -14.5310   19.6140 O   0  0  0  0  0  0  0  0  0  0  0  0
  -29.9850  -15.6160   20.4060 N   0  0  0  0  0  0  0  0  0  0  0  0
  -29.0160  -15.5920   20.6810 H   0  0  0  0  0  0  0  0  0  0  0  0
  -25.1810  -13.8390   20.4430 C   0  0  0  0  0  0  0  0  0  0  0  0
  -24.1270  -13.0710   20.8600 C   0  0  0  0  0  0  0  0  0  0  0  0
  -24.5680  -11.7160   20.7750 C   0  0  0  0  0  0  0  0  0  0  0  0
  -26.1970  -12.9520   20.1290 N   0  0  0  0  0  0  0  0  0  0  0  0
  -25.8370  -11.6680   20.3880 N   0  0  0  0  0  0  0  0  0  0  0  0
  -23.8350  -10.4590   20.9780 C   0  0  0  0  0  0  0  0  0  0  0  0
  -24.2930   -9.4750   21.8830 C   0  0  0  0  0  3  0  0  0  0  0  0
  -23.5600   -8.2840   22.0760 C   0  0  0  0  0  3  0  0  0  0  0  0
  -22.3540   -8.0690   21.3680 C   0  0  0  0  0  0  0  0  0  0  0  0
  -21.9140   -9.0420   20.4530 C   0  0  0  0  0  3  0  0  0  0  0  0
  -22.6480  -10.2240   20.2570 C   0  0  0  0  0  3  0  0  0  0  0  0
  -21.5890   -6.9330   21.4750 O   0  0  0  0  0  0  0  0  0  0  0  0
  -21.5810   -6.1770   22.6190 C   0  0  0  0  0  0  0  0  0  0  0  0
  -21.1890   -6.7130   23.8650 C   0  0  0  0  0  3  0  0  0  0  0  0
  -21.1290   -5.8820   25.0010 C   0  0  0  0  0  3  0  0  0  0  0  0
  -21.4490   -4.5150   24.8920 C   0  0  0  0  0  0  0  0  0  0  0  0
  -21.8360   -3.9790   23.6530 C   0  0  0  0  0  3  0  0  0  0  0  0
  -21.8970   -4.8060   22.5180 C   0  0  0  0  0  0  0  0  0  0  0  0
  -22.2500   -4.2790   21.3190 F   0  0  0  0  0  0  0  0  0  0  0  0
  -21.3840   -3.7140   25.9830 F   0  0  0  0  0  0  0  0  0  0  0  0
  -22.7550  -13.5620   21.2210 C   0  0  0  0  0  0  0  0  0  0  0  0
  -22.0660  -12.8580   22.1130 N   0  0  0  0  0  0  0  0  0  0  0  0
  -22.3060  -14.6050   20.7490 O   0  0  0  0  0  0  0  0  0  0  0  0
  -22.4420  -12.0130   22.5170 H   0  0  0  0  0  0  0  0  0  0  0  0
  -21.1500  -13.1730   22.3980 H   0  0  0  0  0  0  0  0  0  0  0  0
  -25.3490  -15.2100   20.2830 N   0  0  0  0  0  0  0  0  0  0  0  0
  -24.5950  -15.8660   20.4510 H   0  0  0  0  0  0  0  0  0  0  0  0
  -26.1730  -15.6520   19.8930 H   0  0  0  0  0  0  0  0  0  0  0  0
  2  1  1  0
  2  8  1  0
  3  2  2  0
  4  1  2  0
  5  6  2  0
  5  3  1  0
  6  4  1  0
  8 10  1  0
  8  7  1  0
 10  9  1  0
 11 12  1  0
 12  5  1  0
 13  3  1  0
 13 14  1  0
 15 16  1  0
 15 14  1  0
 17 28  2  0
 18 16  1  0
 18 23  1  0
 19 27  1  0
 19 29  1  0
 20 22  1  0
 21 27  1  0
 22 23  2  0
 22 21  1  0
 24 18  2  0
 25 24  1  0
 25 20  2  0
 26 20  1  0
 26 19  1  0
 27 17  1  0
 29 31  2  0
 30 29  1  0
 32 30  1  0
 33 42  2  0
 33 38  1  0
 34 30  1  0
 34 38  1  0
 35 34  1  0
 36 37  1  0
 36 35  1  0
 37 33  1  0
 38 39  2  0
 39 40  1  0
 41 40  2  0
 42 41  1  0
 43 17  1  0
 43 44  1  0
 43 53  1  0
 44 47  1  0
 45 49  1  0
 45 44  1  0
 46 45  2  0
 49 48  1  0
 51 52  1  0
 51 49  1  0
 51 50  1  0
 53 56  1  1
 53 54  1  0
 55 53  1  0
 57 66  1  0
 57  4  1  0
 58 66  1  0
 59 64  1  0
 60 61  1  0
 60 59  1  0
 62 61  1  0
 62 71  1  0
 62 63  1  0
 64 58  1  0
 64 63  1  0
 65 58  2  0
 66 67  1  0
 68 69  2  0
 69 88  1  0
 70 69  1  0
 70 73  1  0
 71 72  1  0
 71 68  1  0
 72 70  2  0
 73 74  1  0
 74 75  2  0
 76 79  1  0
 76 75  1  0
 77 76  2  0
 78 77  1  0
 78 73  2  0
 79 80  1  0
 80 81  1  0
 81 82  2  0
 83 82  1  0
 83 87  1  0
 84 83  2  0
 85 80  2  0
 85 84  1  0
 86 85  1  0
 88 89  1  0
 89 92  1  0
 89 91  1  0
 90 88  2  0
 93 68  1  0
 93 94  1  0
 95 93  1  0
M  ISO  4  15 101  16 101  58 100  66 100
M  END
>  <TORSDO>  (35) 
F 23

>  <SCORE>  (35) 
-12.003

>  <name>  (35) 
34

>  <ligand_id>  (35) 
34

>  <original_smiles>  (35) 
[H]c1c([H])c([H])c2c(c1[H])C([H])([H])C([H])([H])C([H])([H])C2([H])N([H])C(=O)C1([H])N(C(=O)C([H])(N([H])C(=O)C([H])(N([H])C([H])([H])[H])C([H])([H])[H])C(C([H])([H])[H])(C([H])([H])[H])C([H])([H])[H])C([H])([H])c2c([H])c(OC([H])([H])C([H])([H])C([H])([H])c3c(C([H])([H])C([H])([H])[H])nc(C([H])([H])N([H])C(=O)N4C([H])([H])C([H])([H])C([H])([H])C([H])(n5nc(-c6c([H])c([H])c(Oc7c([H])c([H])c(F)c([H])c7F)c([H])c6[H])c(C(=O)N([H])[H])c5N([H])[H])C4([H])[H])c([H])c3C([H])(C([H])([H])[H])C([H])([H])C([H])([H])[H])c([H])c([H])c2C1([H])[H]

>  <smiles>  (35) 
[H]c1c([H])c([H])c2c(c1[H])C([H])([H])C([H])([H])C([H])([H])C2([H])N([H])C(=O)C1([H])N(C(=O)C([H])(N([H])C(=O)C([H])(N([H])C([H])([H])[H])C([H])([H])[H])C(C([H])([H])[H])(C([H])([H])[H])C([H])([H])[H])C([H])([H])c2c([H])c(OC([H])([H])C([H])([H])C([H])([H])c3c(C([H])([H])C([H])([H])[H])nc(C([H])([H])N([H])C(=O)N4C([H])([H])C([H])([H])C([H])([H])C([H])(n5nc(-c6c([H])c([H])c(Oc7c([H])c([H])c(F)c([H])c7F)c([H])c6[H])c(C(=O)N([H])[H])c5N([H])[H])C4([H])[H])c([H])c3C([H])(C([H])([H])[H])C([H])([H])C([H])([H])[H])c([H])c([H])c2C1([H])[H]

$$$$
35:0:0
     RDKit          3D

 97105  0  0  1  0  0  0  0  0999 V2000
  -30.5160  -21.3350   18.5100 C   0  0  0  0  0  3  0  0  0  0  0  0
  -31.2650  -20.4460   17.7960 C   0  0  0  0  0  0  0  0  0  0  0  0
  -30.8670  -19.1440   18.2150 C   0  0  0  0  0  0  0  0  0  0  0  0
  -29.9560  -19.2730   19.2390 C   0  0  0  0  0  0  0  0  0  0  0  0
  -31.3630  -17.8500   17.6070 C   0  0  0  0  0  1  0  0  0  0  0  0
  -29.7010  -20.6590   19.4020 N   0  0  0  0  0  0  0  0  0  0  0  0
  -32.2930  -20.7680   16.7290 C   0  0  0  0  0  2  0  0  0  0  0  0
  -33.0460  -22.0890   16.9720 C   0  0  0  0  0  2  0  0  0  0  0  0
  -34.5630  -23.8730   16.0160 C   0  0  0  0  0  1  0  0  0  0  0  0
  -35.3150  -21.4740   15.9490 C   0  0  0  0  0  1  0  0  0  0  0  0
  -34.1000  -22.4160   15.8920 C   0  0  0  0  0  3  0  0  0  0  0  0
  -29.2910  -18.1040   19.9740 C   0  0  0  0  0  2  0  0  0  0  0  0
  -30.2760  -17.0960   20.6810 C   0  0  0  0  0  2  0  0  0  0  0  0
  -30.6160  -14.5810   20.4440 C   0  0  0  0  0  0  0  0  0  0  0  0
  -30.3590  -12.3790   19.3590 C   0  0  0  0  0  2  0  0  0  0  0  0
  -29.4140  -12.5460   18.1500 C   0  0  0  0  0  2  0  0  0  0  0  0
  -27.9410  -12.4010   18.5820 C   0  0  0  0  0  2  0  0  0  0  0  0
  -27.5940  -13.2510   19.8350 C   0  0  0  0  0  3  0  0  0  0  0  0
  -28.6560  -13.0720   20.9430 C   0  0  0  0  0  2  0  0  0  0  0  0
  -29.9660  -13.3850   20.3580 N   0  0  0  0  0  0  0  0  0  0  0  0
  -31.7870  -14.7120   20.0790 O   0  0  0  0  0  0  0  0  0  0  0  0
  -29.8500  -15.6650   20.7370 N   0  0  0  0  0  0  0  0  0  0  0  0
  -28.8880  -15.4820   20.9770 H   0  0  0  0  0  0  0  0  0  0  0  0
  -25.2030  -13.8490   20.5600 C   0  0  0  0  0  0  0  0  0  0  0  0
  -24.1370  -13.0740   20.9320 C   0  0  0  0  0  0  0  0  0  0  0  0
  -24.6010  -11.7240   20.8990 C   0  0  0  0  0  0  0  0  0  0  0  0
  -26.2460  -12.9700   20.3230 N   0  0  0  0  0  0  0  0  0  0  0  0
  -25.8910  -11.6860   20.5890 N   0  0  0  0  0  0  0  0  0  0  0  0
  -23.8770  -10.4600   21.0880 C   0  0  0  0  0  0  0  0  0  0  0  0
  -24.3210   -9.4840   22.0080 C   0  0  0  0  0  3  0  0  0  0  0  0
  -23.5970   -8.2850   22.1850 C   0  0  0  0  0  3  0  0  0  0  0  0
  -22.4150   -8.0540   21.4430 C   0  0  0  0  0  0  0  0  0  0  0  0
  -21.9890   -9.0180   20.5120 C   0  0  0  0  0  3  0  0  0  0  0  0
  -22.7140  -10.2080   20.3330 C   0  0  0  0  0  3  0  0  0  0  0  0
  -21.6620   -6.9080   21.5310 O   0  0  0  0  0  0  0  0  0  0  0  0
  -21.6390   -6.1470   22.6710 C   0  0  0  0  0  0  0  0  0  0  0  0
  -21.2490   -6.6840   23.9180 C   0  0  0  0  0  3  0  0  0  0  0  0
  -21.1730   -5.8500   25.0510 C   0  0  0  0  0  3  0  0  0  0  0  0
  -21.4760   -4.4800   24.9390 C   0  0  0  0  0  0  0  0  0  0  0  0
  -21.8600   -3.9420   23.6980 C   0  0  0  0  0  3  0  0  0  0  0  0
  -21.9390   -4.7740   22.5670 C   0  0  0  0  0  0  0  0  0  0  0  0
  -22.2880   -4.2460   21.3680 F   0  0  0  0  0  0  0  0  0  0  0  0
  -21.3960   -3.6760   26.0250 F   0  0  0  0  0  0  0  0  0  0  0  0
  -22.7390  -13.5490   21.2050 C   0  0  0  0  0  0  0  0  0  0  0  0
  -22.0140  -12.8500   22.0710 N   0  0  0  0  0  0  0  0  0  0  0  0
  -22.2980  -14.5740   20.6860 O   0  0  0  0  0  0  0  0  0  0  0  0
  -22.3840  -12.0220   22.5140 H   0  0  0  0  0  0  0  0  0  0  0  0
  -21.0750  -13.1480   22.2960 H   0  0  0  0  0  0  0  0  0  0  0  0
  -25.3620  -15.2200   20.3810 N   0  0  0  0  0  0  0  0  0  0  0  0
  -24.5860  -15.8660   20.4750 H   0  0  0  0  0  0  0  0  0  0  0  0
  -26.1950  -15.6570   20.0080 H   0  0  0  0  0  0  0  0  0  0  0  0
  -28.7210  -21.3600   20.2630 C   0  0  0  0  0  2  0  0  0  0  0  0
  -29.1060  -22.8150   20.7530 C   0  0  0  0  0  2  0  0  0  0  0  0
  -28.3950  -24.0730   20.1140 C   0  0  0  0  0  2  0  0  0  0  0  0
  -27.9940  -25.4970   22.2590 C   0  0  0  0  0  1  0  0  0  0  0  0
  -28.6560  -25.4360   20.8680 C   0  0  0  0  0  3  0  0  0  0  0  0
  -28.4750  -26.6830   20.1300 O   0  0  0  0  0  0  0  0  0  0  0  0
  -24.6340  -31.8880   23.2500 C   0  0  0  0  0  0  0  0  0  0  0  0
  -27.2910  -27.4050   20.1950 C   0  0  0  0  0  0  0  0  0  0  0  0
  -23.4310  -30.4790   21.6110 C   0  0  0  0  0  3  0  0  0  0  0  0
  -24.8920  -28.9280   20.1950 C   0  0  0  0  0  0  0  0  0  0  0  0
  -25.9570  -30.8350   21.4120 C   0  0  0  0  0  2  0  0  0  0  0  0
  -26.0490  -29.4550   20.7810 C   0  0  0  0  0  0  0  0  0  0  0  0
  -27.2500  -28.7040   20.7720 C   0  0  0  0  0  3  0  0  0  0  0  0
  -26.1170  -26.8990   19.6060 C   0  0  0  0  0  3  0  0  0  0  0  0
  -24.9230  -27.6510   19.6050 C   0  0  0  0  0  3  0  0  0  0  0  0
  -23.6440  -29.7870   20.2350 C   0  0  0  0  0  2  0  0  0  0  0  0
  -24.6930  -31.0840   22.1490 N   0  0  0  0  0  0  0  0  0  0  0  0
  -23.5520  -32.1590   23.7900 O   0  0  0  0  0  0  0  0  0  0  0  0
  -22.7790  -29.4630   22.5770 C   0  0  0  0  0  0  0  0  0  0  0  0
  -21.4550  -29.2790   22.4490 N   0  0  0  0  0  0  0  0  0  0  0  0
  -23.4630  -28.8410   23.3950 O   0  0  0  0  0  0  0  0  0  0  0  0
  -20.9630  -29.8300   21.7600 H   0  0  0  0  0  0  0  0  0  0  0  0
  -18.0840  -28.0710   22.9410 C   0  0  0  0  0  0  0  0  0  0  0  0
  -20.6400  -28.3400   23.2200 C   0  0  0  0  0  3  0  0  0  0  0  0
  -20.7510  -26.9080   22.6470 C   0  0  0  0  0  2  0  0  0  0  0  0
  -19.6540  -26.5780   21.6310 C   0  0  0  0  0  2  0  0  0  0  0  0
  -18.2690  -26.7210   22.2680 C   0  0  0  0  0  2  0  0  0  0  0  0
  -19.1990  -28.8380   23.3720 C   0  0  0  0  0  0  0  0  0  0  0  0
  -18.9740  -30.1020   23.9600 C   0  0  0  0  0  3  0  0  0  0  0  0
  -17.6680  -30.6000   24.1220 C   0  0  0  0  0  3  0  0  0  0  0  0
  -16.5670  -29.8290   23.7070 C   0  0  0  0  0  3  0  0  0  0  0  0
  -16.7760  -28.5670   23.1220 C   0  0  0  0  0  3  0  0  0  0  0  0
  -25.9180  -32.5220   23.8690 C   0  0  0  0  0  3  0  0  0  0  0  0
  -26.4370  -31.7540   25.1470 C   0  0  1  0  0  0  0  0  0  0  0  0
  -25.3450  -31.5170   26.2160 C   0  0  0  0  0  1  0  0  0  0  0  0
  -27.0180  -30.3760   24.7510 C   0  0  0  0  0  1  0  0  0  0  0  0
  -27.5880  -32.5510   25.8050 C   0  0  0  0  0  1  0  0  0  0  0  0
  -25.6090  -33.9220   24.1990 N   0  0  0  0  0  0  0  0  0  0  0  0
  -25.9380  -34.9720   23.4360 C   0  0  0  0  0  0  0  0  0  0  0  0
  -26.6070  -34.8680   22.4040 O   0  0  0  0  0  0  0  0  0  0  0  0
  -25.0210  -34.0780   25.0030 H   0  0  0  0  0  0  0  0  0  0  0  0
  -24.2050  -36.7590   23.0830 C   0  0  0  0  0  1  0  0  0  0  0  0
  -25.4490  -36.3600   23.8920 C   0  0  0  0  0  3  0  0  0  0  0  0
  -27.5840  -37.2510   24.7120 C   0  0  0  0  0  1  0  0  0  0  0  0
  -26.4770  -37.4160   23.7730 N   0  0  0  0  0  0  0  0  0  0  0  0
  -26.0700  -38.3350   23.9210 H   0  0  0  0  0  0  0  0  0  0  0  0
  1  6  1  0
  2  3  1  0
  2  1  2  0
  3  4  2  0
  4  6  1  0
  4 12  1  0
  5  3  1  0
  6 52  1  0
  7  8  1  0
  7  2  1  0
 11 10  1  0
 11  9  1  0
 11  8  1  0
 12 13  1  0
 13 22  1  0
 14 22  1  0
 15 20  1  0
 16 17  1  0
 16 15  1  0
 18 17  1  0
 18 27  1  0
 18 19  1  0
 20 14  1  0
 20 19  1  0
 21 14  2  0
 22 23  1  0
 24 25  2  0
 25 44  1  0
 26 25  1  0
 26 29  1  0
 27 24  1  0
 27 28  1  0
 28 26  2  0
 29 30  1  0
 30 31  2  0
 32 35  1  0
 32 31  1  0
 33 32  2  0
 34 33  1  0
 34 29  2  0
 35 36  1  0
 36 37  1  0
 37 38  2  0
 39 38  1  0
 39 43  1  0
 40 39  2  0
 41 36  2  0
 41 40  1  0
 42 41  1  0
 44 45  1  0
 45 48  1  0
 45 47  1  0
 46 44  2  0
 49 50  1  0
 49 24  1  0
 51 49  1  0
 52 53  1  0
 54 53  1  0
 54 56  1  0
 56 55  1  0
 57 59  1  0
 57 56  1  0
 58 69  2  0
 59 64  1  0
 60 68  1  0
 60 70  1  0
 61 67  1  0
 61 63  1  0
 62 68  1  0
 63 62  1  0
 64 63  2  0
 65 59  2  0
 66 65  1  0
 66 61  2  0
 67 60  1  0
 68 58  1  0
 70 72  2  0
 71 70  1  0
 73 71  1  0
 74 83  2  0
 74 79  1  0
 75 71  1  0
 75 79  1  0
 76 75  1  0
 77 78  1  0
 77 76  1  0
 78 74  1  0
 79 80  2  0
 80 81  1  0
 82 81  2  0
 83 82  1  0
 84 58  1  0
 84 89  1  0
 84 85  1  0
 85 88  1  1
 85 86  1  0
 87 85  1  0
 89 92  1  0
 90 94  1  0
 90 89  1  0
 91 90  2  0
 94 93  1  0
 96 94  1  0
 96 97  1  0
 96 95  1  0
M  ISO  4  14 100  22 100  56 101  57 101
M  END
>  <TORSDO>  (36) 
F 25

>  <SCORE>  (36) 
-12.261

>  <name>  (36) 
35

>  <ligand_id>  (36) 
35

>  <original_smiles>  (36) 
[H]c1c([H])c([H])c2c(c1[H])C([H])([H])C([H])([H])C([H])([H])C2([H])N([H])C(=O)C1([H])N(C(=O)C([H])(N([H])C(=O)C([H])(N([H])C([H])([H])[H])C([H])([H])[H])C(C([H])([H])[H])(C([H])([H])[H])C([H])([H])[H])C([H])([H])c2c([H])c(OC([H])(C([H])([H])[H])C([H])([H])C([H])([H])C([H])([H])n3c([H])c(C([H])([H])C([H])([H])C([H])(C([H])([H])[H])C([H])([H])[H])c(C([H])([H])[H])c3C([H])([H])C([H])([H])N([H])C(=O)N3C([H])([H])C([H])([H])C([H])([H])C([H])(n4nc(-c5c([H])c([H])c(Oc6c([H])c([H])c(F)c([H])c6F)c([H])c5[H])c(C(=O)N([H])[H])c4N([H])[H])C3([H])[H])c([H])c([H])c2C1([H])[H]

>  <smiles>  (36) 
[H]c1c([H])c([H])c2c(c1[H])C([H])([H])C([H])([H])C([H])([H])C2([H])N([H])C(=O)C1([H])N(C(=O)C([H])(N([H])C(=O)C([H])(N([H])C([H])([H])[H])C([H])([H])[H])C(C([H])([H])[H])(C([H])([H])[H])C([H])([H])[H])C([H])([H])c2c([H])c(OC([H])(C([H])([H])[H])C([H])([H])C([H])([H])C([H])([H])n3c([H])c(C([H])([H])C([H])([H])C([H])(C([H])([H])[H])C([H])([H])[H])c(C([H])([H])[H])c3C([H])([H])C([H])([H])N([H])C(=O)N3C([H])([H])C([H])([H])C([H])([H])C([H])(n4nc(-c5c([H])c([H])c(Oc6c([H])c([H])c(F)c([H])c6F)c([H])c5[H])c(C(=O)N([H])[H])c4N([H])[H])C3([H])[H])c([H])c([H])c2C1([H])[H]

$$$$
36:0:0
     RDKit          3D

 95 95  0  0  1  0  0  0  0  0999 V2000
  -22.1410  -14.6280   18.9090 C   0  0  0  0  0  1  0  0  0  0  0  0
  -23.4990  -14.6160   19.6230 C   0  0  0  0  0  1  0  0  0  0  0  0
  -24.5260  -12.2210   22.5150 C   0  0  0  0  0  1  0  0  0  0  0  0
  -23.2810  -12.7480   20.8270 C   0  0  0  0  0  1  0  0  0  0  0  0
  -26.0580  -11.1560   22.1730 C   0  0  0  0  0  3  0  0  0  0  0  0
  -23.5510  -11.5470   19.4850 C   0  0  0  0  0  0  0  0  0  0  0  0
  -22.8240  -11.6260   18.1580 C   0  0  0  0  0  1  0  0  0  0  0  0
  -25.9810  -10.2210   20.7160 N   0  0  0  0  0  2  0  0  0  0  0  0
  -24.8180  -10.3690   19.4850 N   0  0  0  0  0  0  0  0  0  0  0  0
  -27.7560  -11.7900   22.3930 C   0  0  0  0  0  2  0  0  0  0  0  0
  -30.0200  -12.8160   20.4380 C   0  0  0  0  0  0  0  0  0  0  0  0
  -30.2850  -11.5920   18.1570 C   0  0  0  0  0  2  0  0  0  0  0  0
  -29.1420  -11.7810   17.0450 C   0  0  0  0  0  2  0  0  0  0  0  0
  -27.6940  -12.1540   17.5260 C   0  0  0  0  0  2  0  0  0  0  0  0
  -27.8840  -12.8060   18.8970 C   0  0  0  0  0  3  0  0  0  0  0  0
  -28.5170  -11.5240   19.5250 C   0  0  0  0  0  2  0  0  0  0  0  0
  -29.8450  -11.8280   19.5520 N   0  0  0  0  0  0  0  0  0  0  0  0
  -30.8950  -13.6430   20.0000 O   0  0  0  0  0  0  0  0  0  0  0  0
  -29.0100  -12.7530   21.5990 N   0  0  0  0  0  0  0  0  0  0  0  0
  -29.1550  -13.5860   22.1500 H   0  0  0  0  0  0  0  0  0  0  0  0
  -26.3310  -14.2800   20.5030 C   0  0  0  0  0  0  0  0  0  0  0  0
  -25.3310  -13.8260   21.2230 C   0  0  0  0  0  0  0  0  0  0  0  0
  -25.3200  -12.4920   20.3910 C   0  0  0  0  0  2  0  0  0  0  0  0
  -26.8330  -13.2570   19.7160 N   0  0  0  0  0  0  0  0  0  0  0  0
  -25.9400  -12.6130   19.3430 N   0  0  0  0  0  2  0  0  0  0  0  0
  -23.6150  -10.3110   21.0770 C   0  0  0  0  0  3  0  0  0  0  0  0
  -24.0260   -9.0940   21.8460 C   0  0  0  0  0  3  0  0  0  0  0  0
  -23.2670   -8.0190   22.2720 C   0  0  0  0  0  3  0  0  0  0  0  0
  -21.9260   -8.0120   21.9430 C   0  0  0  0  0  0  0  0  0  0  0  0
  -21.3920   -9.1000   21.2700 C   0  0  0  0  0  3  0  0  0  0  0  0
  -22.1770  -10.1980   20.9200 C   0  0  0  0  0  3  0  0  0  0  0  0
  -21.0930   -6.9730   22.2150 O   0  0  0  0  0  0  0  0  0  0  0  0
  -21.3530   -6.1330   23.2580 C   0  0  0  0  0  0  0  0  0  0  0  0
  -21.3510   -6.5800   24.5970 C   0  0  0  0  0  3  0  0  0  0  0  0
  -21.4920   -5.6480   25.6420 C   0  0  0  0  0  3  0  0  0  0  0  0
  -21.6440   -4.2810   25.3440 C   0  0  0  0  0  0  0  0  0  0  0  0
  -21.6760   -3.8420   24.0100 C   0  0  0  0  0  3  0  0  0  0  0  0
  -21.5300   -4.7690   22.9650 C   0  0  0  0  0  0  0  0  0  0  0  0
  -21.5360   -4.3530   21.6750 F   0  0  0  0  0  0  0  0  0  0  0  0
  -21.7490   -3.3810   26.3460 F   0  0  0  0  0  0  0  0  0  0  0  0
  -24.1700  -14.5700   22.2960 C   0  0  0  0  0  0  0  0  0  0  0  0
  -23.1660  -14.0250   23.0800 N   0  0  0  0  0  0  0  0  0  0  0  0
  -23.6640  -15.6440   22.1150 O   0  0  0  0  0  0  0  0  0  0  0  0
  -23.0840  -13.0230   23.1640 H   0  0  0  0  0  0  0  0  0  0  0  0
  -22.4700  -14.6220   23.5030 H   0  0  0  0  0  0  0  0  0  0  0  0
  -26.8000  -15.5110   20.4310 N   0  0  0  0  0  0  0  0  0  0  0  0
  -26.7140  -16.1430   21.2160 H   0  0  0  0  0  0  0  0  0  0  0  0
  -27.6440  -15.6810   19.8980 H   0  0  0  0  0  0  0  0  0  0  0  0
  -23.9370  -16.6060   19.5330 N   0  0  0  0  0  2  0  0  0  0  0  0
  -23.2870  -16.8660   18.8110 H   0  0  0  0  0  0  0  0  0  0  0  0
  -23.4910  -16.8100   20.4200 H   0  0  0  0  0  0  0  0  0  0  0  0
  -25.1060  -18.2140   19.4150 C   0  0  0  0  0 15  0  0  0  0  0  0
  -25.2990  -20.4340   19.1290 C   0  0  0  0  0 15  0  0  0  0  0  0
  -26.1550  -22.4880   19.5000 C   0  0  0  0  0 15  0  0  0  0  0  0
  -26.9150  -24.3390   19.1860 O   0  0  0  0  0  1  0  0  0  0  0  0
  -24.8510  -31.3070   22.7870 C   0  0  0  0  0  0  0  0  0  0  0  0
  -26.5790  -25.9440   19.3540 C   0  0  0  0  0  0  0  0  0  0  0  0
  -23.6170  -30.0620   21.1050 C   0  0  0  0  0  3  0  0  0  0  0  0
  -24.9050  -28.5000   19.4730 C   0  0  0  0  0  0  0  0  0  0  0  0
  -26.1950  -29.9590   20.9770 C   0  0  0  0  0  2  0  0  0  0  0  0
  -26.1020  -28.5540   20.1820 C   0  0  0  0  0  0  0  0  0  0  0  0
  -26.9600  -27.2890   20.0950 C   0  0  0  0  0  3  0  0  0  0  0  0
  -25.5460  -26.3040   18.5020 C   0  0  0  0  0  3  0  0  0  0  0  0
  -24.7170  -27.4390   18.5890 C   0  0  0  0  0  3  0  0  0  0  0  0
  -23.8060  -29.5470   19.6560 C   0  0  0  0  0  2  0  0  0  0  0  0
  -24.9290  -30.4940   21.6690 N   0  0  0  0  0  0  0  0  0  0  0  0
  -23.7630  -31.5900   23.3230 O   0  0  0  0  0  0  0  0  0  0  0  0
  -22.9260  -28.9910   21.9940 C   0  0  0  0  0  0  0  0  0  0  0  0
  -21.5860  -28.8760   21.9320 N   0  0  0  0  0  0  0  0  0  0  0  0
  -23.6080  -28.2810   22.7390 O   0  0  0  0  0  0  0  0  0  0  0  0
  -21.0800  -29.5060   21.3260 H   0  0  0  0  0  0  0  0  0  0  0  0
  -18.2060  -27.6930   22.5470 C   0  0  0  0  0  0  0  0  0  0  0  0
  -20.7850  -27.8840   22.6610 C   0  0  0  0  0  3  0  0  0  0  0  0
  -20.8090  -26.5130   21.9420 C   0  0  0  0  0  2  0  0  0  0  0  0
  -19.6370  -26.3220   20.9750 C   0  0  0  0  0  2  0  0  0  0  0  0
  -18.3050  -26.4220   21.7190 C   0  0  0  0  0  2  0  0  0  0  0  0
  -19.3690  -28.3880   22.9760 C   0  0  0  0  0  0  0  0  0  0  0  0
  -19.2160  -29.5800   23.7180 C   0  0  0  0  0  3  0  0  0  0  0  0
  -17.9360  -30.0760   24.0300 C   0  0  0  0  0  3  0  0  0  0  0  0
  -16.7900  -29.3770   23.6100 C   0  0  0  0  0  3  0  0  0  0  0  0
  -16.9280  -28.1860   22.8750 C   0  0  0  0  0  3  0  0  0  0  0  0
  -26.1110  -31.9400   23.4500 C   0  0  0  0  0  3  0  0  0  0  0  0
  -25.7320  -33.2690   23.9900 N   0  0  0  0  0  0  0  0  0  0  0  0
  -26.0250  -34.4540   23.4380 C   0  0  0  0  0  0  0  0  0  0  0  0
  -26.6950  -34.5520   22.4080 O   0  0  0  0  0  0  0  0  0  0  0  0
  -25.1280  -33.2620   24.7980 H   0  0  0  0  0  0  0  0  0  0  0  0
  -24.2240  -36.2250   23.4340 C   0  0  0  0  0  1  0  0  0  0  0  0
  -25.5010  -35.7310   24.1340 C   0  0  0  0  0  3  0  0  0  0  0  0
  -27.6120  -36.5770   25.0700 C   0  0  0  0  0  1  0  0  0  0  0  0
  -26.4870  -36.8350   24.1760 N   0  0  0  0  0  0  0  0  0  0  0  0
  -26.0420  -37.7010   24.4660 H   0  0  0  0  0  0  0  0  0  0  0  0
  -26.6980  -31.0580   24.6210 C   0  0  1  0  0  0  0  0  0  0  0  0
  -25.6550  -30.6630   25.6950 C   0  0  0  0  0  1  0  0  0  0  0  0
  -27.3160  -29.7520   24.0810 C   0  0  0  0  0  1  0  0  0  0  0  0
  -27.8410  -31.8220   25.3280 C   0  0  0  0  0  1  0  0  0  0  0  0
  1  2  1  0
  5 10  1  0
  5  3  1  0
  6  4  1  0
  7  6  1  0
  8  5  1  0
  9  6  2  0
  9  8  1  0
 11 19  1  0
 12 17  1  0
 13 14  1  0
 13 12  1  0
 15 14  1  0
 15 16  1  0
 15 24  1  0
 16 17  1  0
 17 11  1  0
 18 11  2  0
 19 20  1  0
 19 10  1  0
 21 22  2  0
 22 41  1  0
 23 22  1  0
 24 21  1  0
 25 24  1  0
 25 23  1  0
 26 27  1  0
 27 28  2  0
 29 32  1  0
 29 28  1  0
 30 29  2  0
 31 26  2  0
 31 30  1  0
 32 33  1  0
 33 34  1  0
 34 35  2  0
 36 35  1  0
 36 40  1  0
 37 36  2  0
 38 33  2  0
 38 37  1  0
 39 38  1  0
 41 42  1  0
 42 44  1  0
 42 45  1  0
 43 41  2  0
 46 21  1  0
 46 47  1  0
 48 46  1  0
 49 51  1  0
 50 49  1  0
 55 57  1  0
 56 67  2  0
 57 62  1  0
 58 66  1  0
 58 68  1  0
 59 65  1  0
 59 61  1  0
 60 66  1  0
 61 60  1  0
 62 61  2  0
 63 64  1  0
 63 57  2  0
 64 59  2  0
 65 58  1  0
 66 56  1  0
 68 70  2  0
 69 68  1  0
 71 69  1  0
 72 81  2  0
 72 77  1  0
 73 69  1  0
 73 77  1  0
 74 73  1  0
 75 76  1  0
 75 74  1  0
 76 72  1  0
 77 78  2  0
 78 79  1  0
 80 79  2  0
 81 80  1  0
 82 56  1  0
 82 83  1  0
 82 92  1  0
 83 86  1  0
 84 83  1  0
 84 88  1  0
 85 84  2  0
 88 87  1  0
 88 90  1  0
 90 91  1  0
 90 89  1  0
 92 95  1  1
 92 93  1  0
 94 92  1  0
M  ISO  4  11 100  19 100  54 101  55 101
M  END
>  <TORSDO>  (37) 
F 22

>  <SCORE>  (37) 
6.114

>  <name>  (37) 
36

>  <ligand_id>  (37) 
36

>  <original_smiles>  (37) 
[H]c1c([H])c([H])c2c(c1[H])C([H])([H])C([H])([H])C([H])([H])C2([H])N([H])C(=O)C1([H])N(C(=O)C([H])(N([H])C(=O)C([H])(N([H])C([H])([H])[H])C([H])([H])[H])C(C([H])([H])[H])(C([H])([H])[H])C([H])([H])[H])C([H])([H])c2c([H])c(OC([H])([H])C([H])([H])C([H])([H])[N+]([H])([H])C([H])(c3c(C([H])([H])[H])nnc(C([H])([H])N([H])C(=O)N4C([H])([H])C([H])([H])C([H])([H])C([H])(n5nc(-c6c([H])c([H])c(Oc7c([H])c([H])c(F)c([H])c7F)c([H])c6[H])c(C(=O)N([H])[H])c5N([H])[H])C4([H])[H])c3[H])C([H])([H])[H])c([H])c([H])c2C1([H])[H]

>  <smiles>  (37) 
[H]c1c([H])c([H])c2c(c1[H])C([H])([H])C([H])([H])C([H])([H])C2([H])N([H])C(=O)C1([H])N(C(=O)C([H])(N([H])C(=O)C([H])(N([H])C([H])([H])[H])C([H])([H])[H])C(C([H])([H])[H])(C([H])([H])[H])C([H])([H])[H])C([H])([H])c2c([H])c(OC([H])([H])C([H])([H])C([H])([H])[N+]([H])([H])C([H])(c3c(C([H])([H])[H])nnc(C([H])([H])N([H])C(=O)N4C([H])([H])C([H])([H])C([H])([H])C([H])(n5nc(-c6c([H])c([H])c(Oc7c([H])c([H])c(F)c([H])c7F)c([H])c6[H])c(C(=O)N([H])[H])c5N([H])[H])C4([H])[H])c3[H])C([H])([H])[H])c([H])c([H])c2C1([H])[H]

$$$$
37:0:0
     RDKit          3D

 98106  0  0  1  0  0  0  0  0999 V2000
  -30.5920  -23.0250   21.7550 C   0  0  0  0  0  1  0  0  0  0  0  0
  -29.9130  -22.4160   20.5050 C   0  0  0  0  0  3  0  0  0  0  0  0
  -29.7260  -18.5490   20.9760 C   0  0  0  0  0  3  0  0  0  0  0  0
  -31.9890  -19.1050   20.3570 C   0  0  0  0  0  3  0  0  0  0  0  0
  -31.0640  -18.1490   20.8120 C   0  0  0  0  0  0  0  0  0  0  0  0
  -29.3390  -19.9010   20.7990 C   0  0  0  0  0  0  0  0  0  0  0  0
  -31.6280  -20.4590   20.1560 C   0  0  0  0  0  0  0  0  0  0  0  0
  -30.2960  -20.9010   20.4360 C   0  0  0  0  0  0  0  0  0  0  0  0
  -27.8830  -20.2410   21.0870 C   0  0  0  0  0  1  0  0  0  0  0  0
  -33.1940  -21.0310   18.2440 C   0  0  0  0  0  1  0  0  0  0  0  0
  -32.7520  -21.3740   19.6740 C   0  0  0  0  0  2  0  0  0  0  0  0
  -31.5450  -16.7650   21.2690 C   0  0  0  0  0  2  0  0  0  0  0  0
  -31.3220  -14.5820   20.0740 C   0  0  0  0  0  0  0  0  0  0  0  0
  -30.8750  -12.4160   18.9690 C   0  0  0  0  0  2  0  0  0  0  0  0
  -29.9160  -12.6080   17.7770 C   0  0  0  0  0  2  0  0  0  0  0  0
  -28.4500  -12.5470   18.2440 C   0  0  0  0  0  2  0  0  0  0  0  0
  -28.1770  -13.4530   19.4750 C   0  0  0  0  0  3  0  0  0  0  0  0
  -29.2430  -13.2330   20.5710 C   0  0  0  0  0  2  0  0  0  0  0  0
  -30.5660  -13.4550   19.9650 N   0  0  0  0  0  0  0  0  0  0  0  0
  -32.4150  -14.7030   19.5130 O   0  0  0  0  0  0  0  0  0  0  0  0
  -30.7990  -15.5880   20.8000 N   0  0  0  0  0  0  0  0  0  0  0  0
  -29.8840  -15.4370   21.1920 H   0  0  0  0  0  0  0  0  0  0  0  0
  -25.8420  -14.2010   20.2540 C   0  0  0  0  0  0  0  0  0  0  0  0
  -24.7370  -13.4930   20.6460 C   0  0  0  0  0  0  0  0  0  0  0  0
  -25.1130  -12.1160   20.5930 C   0  0  0  0  0  0  0  0  0  0  0  0
  -26.8230  -13.2580   19.9890 N   0  0  0  0  0  0  0  0  0  0  0  0
  -26.3880  -11.9990   20.2510 N   0  0  0  0  0  0  0  0  0  0  0  0
  -24.3140  -10.8990   20.7960 C   0  0  0  0  0  0  0  0  0  0  0  0
  -24.6920   -9.9150   21.7350 C   0  0  0  0  0  3  0  0  0  0  0  0
  -23.8970   -8.7640   21.9230 C   0  0  0  0  0  3  0  0  0  0  0  0
  -22.7120   -8.5880   21.1710 C   0  0  0  0  0  0  0  0  0  0  0  0
  -22.3530   -9.5590   20.2210 C   0  0  0  0  0  3  0  0  0  0  0  0
  -23.1470  -10.7030   20.0310 C   0  0  0  0  0  3  0  0  0  0  0  0
  -21.8920   -7.4890   21.2680 O   0  0  0  0  0  0  0  0  0  0  0  0
  -21.7700   -6.7840   22.4390 C   0  0  0  0  0  0  0  0  0  0  0  0
  -21.3550   -7.4000   23.6390 C   0  0  0  0  0  3  0  0  0  0  0  0
  -21.1760   -6.6260   24.8030 C   0  0  0  0  0  3  0  0  0  0  0  0
  -21.3990   -5.2360   24.7650 C   0  0  0  0  0  0  0  0  0  0  0  0
  -21.8060   -4.6200   23.5690 C   0  0  0  0  0  3  0  0  0  0  0  0
  -21.9880   -5.3920   22.4090 C   0  0  0  0  0  0  0  0  0  0  0  0
  -22.3600   -4.7900   21.2520 F   0  0  0  0  0  0  0  0  0  0  0  0
  -21.2190   -4.4890   25.8800 F   0  0  0  0  0  0  0  0  0  0  0  0
  -23.3800  -14.0540   20.9580 C   0  0  0  0  0  0  0  0  0  0  0  0
  -22.6410  -13.4080   21.8530 N   0  0  0  0  0  0  0  0  0  0  0  0
  -22.9870  -15.1010   20.4450 O   0  0  0  0  0  0  0  0  0  0  0  0
  -22.9710  -12.5590   22.2890 H   0  0  0  0  0  0  0  0  0  0  0  0
  -21.7310  -13.7680   22.1050 H   0  0  0  0  0  0  0  0  0  0  0  0
  -26.0880  -15.5600   20.0800 N   0  0  0  0  0  0  0  0  0  0  0  0
  -25.3710  -16.2630   20.2160 H   0  0  0  0  0  0  0  0  0  0  0  0
  -26.9600  -15.9450   19.7390 H   0  0  0  0  0  0  0  0  0  0  0  0
  -30.1270  -23.2140   19.2420 N   0  0  1  0  0  4  0  0  0  0  0  0
  -31.1090  -23.0490   19.0740 H   0  0  0  0  0  0  0  0  0  0  0  0
  -30.2390  -23.0970   16.7190 C   0  0  0  0  0  1  0  0  0  0  0  0
  -28.0010  -22.8400   17.8660 C   0  0  0  0  0  1  0  0  0  0  0  0
  -29.5200  -22.6280   18.0000 C   0  0  0  0  0  3  0  0  0  0  0  0
  -30.0730  -24.7230   19.3550 C   0  0  0  0  0  2  0  0  0  0  0  0
  -28.8500  -25.3640   20.0690 C   0  0  0  0  0  2  0  0  0  0  0  0
  -28.8560  -26.7980   19.8800 O   0  0  0  0  0  0  0  0  0  0  0  0
  -24.6480  -31.6300   23.0280 C   0  0  0  0  0  0  0  0  0  0  0  0
  -27.6380  -27.4520   19.8770 C   0  0  0  0  0  0  0  0  0  0  0  0
  -23.5730  -30.2090   21.3140 C   0  0  0  0  0  3  0  0  0  0  0  0
  -25.1540  -28.8160   19.8770 C   0  0  0  0  0  0  0  0  0  0  0  0
  -26.0770  -30.7290   21.1920 C   0  0  0  0  0  2  0  0  0  0  0  0
  -26.2650  -29.3880   20.5090 C   0  0  0  0  0  0  0  0  0  0  0  0
  -27.5090  -28.7150   20.5030 C   0  0  0  0  0  3  0  0  0  0  0  0
  -26.5080  -26.9060   19.2240 C   0  0  0  0  0  3  0  0  0  0  0  0
  -25.2720  -27.5760   19.2310 C   0  0  0  0  0  3  0  0  0  0  0  0
  -23.8570  -29.5930   19.9190 C   0  0  0  0  0  2  0  0  0  0  0  0
  -24.7830  -30.8700   21.9030 N   0  0  0  0  0  0  0  0  0  0  0  0
  -23.5400  -31.8150   23.5470 O   0  0  0  0  0  0  0  0  0  0  0  0
  -22.9690  -29.1140   22.2240 C   0  0  0  0  0  0  0  0  0  0  0  0
  -21.6540  -28.8800   22.0840 N   0  0  0  0  0  0  0  0  0  0  0  0
  -23.6810  -28.4820   23.0080 O   0  0  0  0  0  0  0  0  0  0  0  0
  -21.1410  -29.4470   21.4240 H   0  0  0  0  0  0  0  0  0  0  0  0
  -18.3290  -27.5440   22.5480 C   0  0  0  0  0  0  0  0  0  0  0  0
  -20.8790  -27.8720   22.8080 C   0  0  0  0  0  3  0  0  0  0  0  0
  -21.0230  -26.4810   22.1480 C   0  0  0  0  0  2  0  0  0  0  0  0
  -19.9190  -26.1800   21.1280 C   0  0  0  0  0  2  0  0  0  0  0  0
  -18.5420  -26.2420   21.7950 C   0  0  0  0  0  2  0  0  0  0  0  0
  -19.4260  -28.3170   23.0100 C   0  0  0  0  0  0  0  0  0  0  0  0
  -19.1730  -29.5380   23.6740 C   0  0  0  0  0  3  0  0  0  0  0  0
  -17.8550  -29.9850   23.8790 C   0  0  0  0  0  3  0  0  0  0  0  0
  -16.7710  -29.2070   23.4360 C   0  0  0  0  0  3  0  0  0  0  0  0
  -17.0090  -27.9890   22.7760 C   0  0  0  0  0  3  0  0  0  0  0  0
  -25.8750  -32.3210   23.6980 C   0  0  0  0  0  3  0  0  0  0  0  0
  -25.4750  -33.6900   24.0490 N   0  0  0  0  0  0  0  0  0  0  0  0
  -25.7700  -34.7790   23.3260 C   0  0  0  0  0  0  0  0  0  0  0  0
  -26.4810  -34.7390   22.3180 O   0  0  0  0  0  0  0  0  0  0  0  0
  -24.8430  -33.7890   24.8310 H   0  0  0  0  0  0  0  0  0  0  0  0
  -23.9520  -36.4750   22.9500 C   0  0  0  0  0  1  0  0  0  0  0  0
  -25.1860  -36.1240   23.7970 C   0  0  0  0  0  3  0  0  0  0  0  0
  -27.2360  -37.1080   24.7250 C   0  0  0  0  0  1  0  0  0  0  0  0
  -26.1580  -37.2380   23.7480 N   0  0  0  0  0  0  0  0  0  0  0  0
  -25.6930  -38.1280   23.9060 H   0  0  0  0  0  0  0  0  0  0  0  0
  -26.4060  -31.5530   24.9690 C   0  0  1  0  0  0  0  0  0  0  0  0
  -25.3020  -31.2230   26.0010 C   0  0  0  0  0  1  0  0  0  0  0  0
  -27.0820  -30.2230   24.5610 C   0  0  0  0  0  1  0  0  0  0  0  0
  -27.4900  -32.3980   25.6790 C   0  0  0  0  0  1  0  0  0  0  0  0
  2  1  1  0
  4  5  2  0
  5  3  1  0
  5 12  1  0
  6  3  2  0
  6  9  1  0
  7  4  1  0
  7  8  2  0
  8  2  1  0
  8  6  1  0
 10 11  1  0
 11  7  1  0
 13 21  1  0
 14 19  1  0
 15 16  1  0
 15 14  1  0
 17 16  1  0
 17 26  1  0
 17 18  1  0
 19 13  1  0
 19 18  1  0
 20 13  2  0
 21 22  1  0
 21 12  1  0
 23 24  2  0
 24 43  1  0
 25 24  1  0
 25 28  1  0
 26 27  1  0
 26 23  1  0
 27 25  2  0
 28 29  1  0
 29 30  2  0
 31 34  1  0
 31 30  1  0
 32 31  2  0
 33 32  1  0
 33 28  2  0
 34 35  1  0
 35 36  1  0
 36 37  2  0
 38 37  1  0
 38 42  1  0
 39 38  2  0
 40 35  2  0
 40 39  1  0
 41 40  1  0
 43 44  1  0
 44 47  1  0
 44 46  1  0
 45 43  2  0
 48 49  1  0
 48 23  1  0
 50 48  1  0
 51 56  1  0
 51  2  1  0
 51 52  1  6
 53 55  1  0
 54 55  1  0
 55 51  1  0
 56 57  1  0
 58 57  1  0
 59 70  2  0
 60 58  1  0
 60 65  1  0
 61 69  1  0
 61 71  1  0
 62 68  1  0
 62 64  1  0
 63 69  1  0
 64 63  1  0
 65 64  2  0
 66 67  1  0
 66 60  2  0
 67 62  2  0
 68 61  1  0
 69 59  1  0
 71 73  2  0
 72 71  1  0
 74 72  1  0
 75 84  2  0
 75 80  1  0
 76 72  1  0
 76 80  1  0
 77 76  1  0
 78 79  1  0
 78 77  1  0
 79 75  1  0
 80 81  2  0
 81 82  1  0
 83 82  2  0
 84 83  1  0
 85 59  1  0
 85 86  1  0
 85 95  1  0
 86 89  1  0
 87 91  1  0
 87 86  1  0
 88 87  2  0
 91 90  1  0
 93 91  1  0
 93 94  1  0
 93 92  1  0
 95 98  1  1
 95 96  1  0
 97 95  1  0
M  ISO  4  13 100  21 100  57 101  58 101
M  END
>  <TORSDO>  (38) 
F 23

>  <SCORE>  (38) 
-11.381

>  <name>  (38) 
37

>  <ligand_id>  (38) 
37

>  <original_smiles>  (38) 
[H]c1c([H])c([H])c2c(c1[H])C([H])([H])C([H])([H])C([H])([H])C2([H])N([H])C(=O)C1([H])N(C(=O)C([H])(N([H])C(=O)C([H])(N([H])C([H])([H])[H])C([H])([H])[H])C(C([H])([H])[H])(C([H])([H])[H])C([H])([H])[H])C([H])([H])c2c([H])c(OC([H])([H])C([H])([H])[N+]([H])(C([H])(c3c(C([H])([H])[H])c([H])c(C([H])([H])N([H])C(=O)N4C([H])([H])C([H])([H])C([H])([H])C([H])(n5nc(-c6c([H])c([H])c(Oc7c([H])c([H])c(F)c([H])c7F)c([H])c6[H])c(C(=O)N([H])[H])c5N([H])[H])C4([H])[H])c([H])c3C([H])([H])C([H])([H])[H])C([H])([H])[H])C([H])(C([H])([H])[H])C([H])([H])[H])c([H])c([H])c2C1([H])[H]

>  <smiles>  (38) 
[H]c1c([H])c([H])c2c(c1[H])C([H])([H])C([H])([H])C([H])([H])C2([H])N([H])C(=O)C1([H])N(C(=O)C([H])(N([H])C(=O)C([H])(N([H])C([H])([H])[H])C([H])([H])[H])C(C([H])([H])[H])(C([H])([H])[H])C([H])([H])[H])C([H])([H])c2c([H])c(OC([H])([H])C([H])([H])[N+]([H])(C([H])(c3c(C([H])([H])[H])c([H])c(C([H])([H])N([H])C(=O)N4C([H])([H])C([H])([H])C([H])([H])C([H])(n5nc(-c6c([H])c([H])c(Oc7c([H])c([H])c(F)c([H])c7F)c([H])c6[H])c(C(=O)N([H])[H])c5N([H])[H])C4([H])[H])c([H])c3C([H])([H])C([H])([H])[H])C([H])([H])[H])C([H])(C([H])([H])[H])C([H])([H])[H])c([H])c([H])c2C1([H])[H]

$$$$
38:0:0
     RDKit          3D

 90 97  0  0  1  0  0  0  0  0999 V2000
  -29.7730  -20.6800   20.1120 C   0  0  0  0  0  3  0  0  0  0  0  0
  -30.1930  -20.7110   22.6480 C   0  0  0  0  0  1  0  0  0  0  0  0
  -30.8220  -20.7950   21.2510 C   0  0  0  0  0  3  0  0  0  0  0  0
  -32.0030  -19.7780   21.1190 C   0  0  0  0  0  2  0  0  0  0  0  0
  -33.9280  -21.0810   20.2990 C   0  0  0  0  0  1  0  0  0  0  0  0
  -33.5380  -18.8110   19.4330 C   0  0  0  0  0  1  0  0  0  0  0  0
  -32.9160  -20.0480   19.9750 N   0  0  1  0  0  4  0  0  0  0  0  0
  -32.3500  -20.4140   19.2210 H   0  0  0  0  0  0  0  0  0  0  0  0
  -29.0350  -22.4330   19.7180 C   0  0  0  0  0  2  0  0  0  0  0  0
  -28.6180  -24.1560   20.4720 C   0  0  0  0  0  2  0  0  0  0  0  0
  -28.5620  -25.8690   20.1190 O   0  0  0  0  0  0  0  0  0  0  0  0
  -24.7520  -31.8390   23.2770 C   0  0  0  0  0  0  0  0  0  0  0  0
  -27.4960  -26.9840   20.1770 C   0  0  0  0  0  0  0  0  0  0  0  0
  -23.6200  -30.4380   21.6040 C   0  0  0  0  0  3  0  0  0  0  0  0
  -25.1320  -28.8830   20.1620 C   0  0  0  0  0  0  0  0  0  0  0  0
  -26.1890  -30.7040   21.4770 C   0  0  0  0  0  2  0  0  0  0  0  0
  -26.3140  -29.2900   20.7960 C   0  0  0  0  0  0  0  0  0  0  0  0
  -27.4850  -28.3750   20.7590 C   0  0  0  0  0  3  0  0  0  0  0  0
  -26.2680  -26.7680   19.5020 C   0  0  0  0  0  3  0  0  0  0  0  0
  -25.1420  -27.6460   19.4940 C   0  0  0  0  0  3  0  0  0  0  0  0
  -23.8900  -29.7840   20.2170 C   0  0  0  0  0  2  0  0  0  0  0  0
  -24.8760  -31.0240   22.1740 N   0  0  0  0  0  0  0  0  0  0  0  0
  -23.6490  -32.0780   23.7980 O   0  0  0  0  0  0  0  0  0  0  0  0
  -22.9390  -29.4070   22.5510 C   0  0  0  0  0  0  0  0  0  0  0  0
  -21.6240  -29.1630   22.3790 N   0  0  0  0  0  0  0  0  0  0  0  0
  -23.6040  -28.8280   23.4100 O   0  0  0  0  0  0  0  0  0  0  0  0
  -21.1310  -29.6970   21.6750 H   0  0  0  0  0  0  0  0  0  0  0  0
  -18.3280  -27.6740   22.7310 C   0  0  0  0  0  0  0  0  0  0  0  0
  -20.8390  -28.1670   23.1220 C   0  0  0  0  0  3  0  0  0  0  0  0
  -21.0900  -26.7410   22.5790 C   0  0  0  0  0  2  0  0  0  0  0  0
  -20.0760  -26.3130   21.5130 C   0  0  0  0  0  2  0  0  0  0  0  0
  -18.6550  -26.3380   22.0810 C   0  0  0  0  0  2  0  0  0  0  0  0
  -19.3510  -28.5360   23.2040 C   0  0  0  0  0  0  0  0  0  0  0  0
  -18.9890  -29.7750   23.7770 C   0  0  0  0  0  3  0  0  0  0  0  0
  -17.6370  -30.1560   23.8760 C   0  0  0  0  0  3  0  0  0  0  0  0
  -16.6280  -29.2910   23.4180 C   0  0  0  0  0  3  0  0  0  0  0  0
  -16.9730  -28.0520   22.8480 C   0  0  0  0  0  3  0  0  0  0  0  0
  -25.9860  -32.5200   23.9370 C   0  0  0  0  0  3  0  0  0  0  0  0
  -25.6430  -33.9290   24.2180 N   0  0  0  0  0  0  0  0  0  0  0  0
  -26.0000  -34.9750   23.4630 C   0  0  0  0  0  0  0  0  0  0  0  0
  -26.7110  -34.8580   22.4620 O   0  0  0  0  0  0  0  0  0  0  0  0
  -25.0130  -34.0920   24.9900 H   0  0  0  0  0  0  0  0  0  0  0  0
  -24.2750  -36.7650   23.0280 C   0  0  0  0  0  1  0  0  0  0  0  0
  -25.4940  -36.3750   23.8810 C   0  0  0  0  0  3  0  0  0  0  0  0
  -27.5930  -37.2990   24.7610 C   0  0  0  0  0  1  0  0  0  0  0  0
  -26.5240  -37.4310   23.7750 N   0  0  0  0  0  0  0  0  0  0  0  0
  -26.1090  -38.3540   23.8790 H   0  0  0  0  0  0  0  0  0  0  0  0
  -26.4480  -31.8040   25.2710 C   0  0  1  0  0  0  0  0  0  0  0  0
  -25.3070  -31.6000   26.2940 C   0  0  0  0  0  1  0  0  0  0  0  0
  -27.0580  -30.4170   24.9700 C   0  0  0  0  0  1  0  0  0  0  0  0
  -27.5620  -32.6340   25.9510 C   0  0  0  0  0  1  0  0  0  0  0  0
  -29.6010  -18.8360   19.5850 C   0  0  0  0  0  2  0  0  0  0  0  0
  -30.5110  -15.8550   20.1300 C   0  0  0  0  0  0  0  0  0  0  0  0
  -30.6600  -13.2740   19.5110 C   0  0  0  0  0  2  0  0  0  0  0  0
  -29.8200  -12.8570   18.2720 C   0  0  0  0  0  2  0  0  0  0  0  0
  -28.3840  -12.5130   18.6950 C   0  0  0  0  0  2  0  0  0  0  0  0
  -27.8290  -13.5450   19.7060 C   0  0  0  0  0  3  0  0  0  0  0  0
  -28.8140  -13.9230   20.8350 C   0  0  0  0  0  2  0  0  0  0  0  0
  -30.0220  -14.4850   20.1950 N   0  0  0  0  0  0  0  0  0  0  0  0
  -31.7280  -15.8310   19.8780 O   0  0  0  0  0  0  0  0  0  0  0  0
  -29.7150  -17.1800   20.1810 N   0  0  0  0  0  0  0  0  0  0  0  0
  -28.7920  -16.9120   20.5010 H   0  0  0  0  0  0  0  0  0  0  0  0
  -25.4500  -14.0680   20.4310 C   0  0  0  0  0  0  0  0  0  0  0  0
  -24.3910  -13.2830   20.7920 C   0  0  0  0  0  0  0  0  0  0  0  0
  -24.8690  -11.9370   20.7720 C   0  0  0  0  0  0  0  0  0  0  0  0
  -26.5020  -13.2040   20.2030 N   0  0  0  0  0  0  0  0  0  0  0  0
  -26.1680  -11.9150   20.4760 N   0  0  0  0  0  0  0  0  0  0  0  0
  -24.1440  -10.6710   20.9600 C   0  0  0  0  0  0  0  0  0  0  0  0
  -24.5330   -9.7390   21.9460 C   0  0  0  0  0  3  0  0  0  0  0  0
  -23.8060   -8.5400   22.1270 C   0  0  0  0  0  3  0  0  0  0  0  0
  -22.6790   -8.2650   21.3160 C   0  0  0  0  0  0  0  0  0  0  0  0
  -22.3070   -9.1870   20.3220 C   0  0  0  0  0  3  0  0  0  0  0  0
  -23.0330  -10.3780   20.1420 C   0  0  0  0  0  3  0  0  0  0  0  0
  -21.9340   -7.1130   21.3940 O   0  0  0  0  0  0  0  0  0  0  0  0
  -21.7970   -6.4220   22.5730 C   0  0  0  0  0  0  0  0  0  0  0  0
  -21.2140   -7.0090   23.7150 C   0  0  0  0  0  3  0  0  0  0  0  0
  -21.0310   -6.2470   24.8840 C   0  0  0  0  0  3  0  0  0  0  0  0
  -21.4180   -4.8940   24.9110 C   0  0  0  0  0  0  0  0  0  0  0  0
  -21.9930   -4.3030   23.7730 C   0  0  0  0  0  3  0  0  0  0  0  0
  -22.1790   -5.0640   22.6050 C   0  0  0  0  0  0  0  0  0  0  0  0
  -22.7140   -4.4860   21.5040 F   0  0  0  0  0  0  0  0  0  0  0  0
  -21.2330   -4.1580   26.0310 F   0  0  0  0  0  0  0  0  0  0  0  0
  -22.9880  -13.7550   21.0370 C   0  0  0  0  0  0  0  0  0  0  0  0
  -22.2530  -13.0660   21.9030 N   0  0  0  0  0  0  0  0  0  0  0  0
  -22.5520  -14.7690   20.4960 O   0  0  0  0  0  0  0  0  0  0  0  0
  -22.6180  -12.2430   22.3620 H   0  0  0  0  0  0  0  0  0  0  0  0
  -21.3150  -13.3720   22.1150 H   0  0  0  0  0  0  0  0  0  0  0  0
  -25.5910  -15.4400   20.2470 N   0  0  0  0  0  0  0  0  0  0  0  0
  -24.7840  -16.0530   20.2940 H   0  0  0  0  0  0  0  0  0  0  0  0
  -26.4190  -15.9050   19.8960 H   0  0  0  0  0  0  0  0  0  0  0  0
  1 52  1  0
  1  3  1  0
  3  2  1  0
  4  3  1  0
  6  7  1  0
  7  5  1  0
  7  4  1  0
  7  8  1  6
  9  1  1  0
  9 10  1  0
 11 13  1  0
 11 10  1  0
 12 23  2  0
 13 18  1  0
 14 22  1  0
 14 24  1  0
 15 21  1  0
 15 17  1  0
 16 22  1  0
 17 16  1  0
 18 17  2  0
 19 13  2  0
 20 19  1  0
 20 15  2  0
 21 14  1  0
 22 12  1  0
 24 26  2  0
 25 24  1  0
 27 25  1  0
 28 37  2  0
 28 33  1  0
 29 25  1  0
 29 33  1  0
 30 29  1  0
 31 32  1  0
 31 30  1  0
 32 28  1  0
 33 34  2  0
 34 35  1  0
 36 35  2  0
 37 36  1  0
 38 12  1  0
 38 39  1  0
 38 48  1  0
 39 42  1  0
 40 44  1  0
 40 39  1  0
 41 40  2  0
 44 43  1  0
 46 47  1  0
 46 44  1  0
 46 45  1  0
 48 51  1  1
 48 49  1  0
 50 48  1  0
 52 61  1  0
 53 61  1  0
 53 59  1  0
 54 59  1  0
 55 56  1  0
 55 54  1  0
 57 56  1  0
 57 66  1  0
 57 58  1  0
 59 58  1  0
 60 53  2  0
 61 62  1  0
 63 64  2  0
 64 83  1  0
 65 64  1  0
 65 68  1  0
 66 63  1  0
 66 67  1  0
 67 65  2  0
 68 69  1  0
 69 70  2  0
 71 74  1  0
 71 70  1  0
 72 71  2  0
 73 72  1  0
 73 68  2  0
 74 75  1  0
 75 80  2  0
 75 76  1  0
 76 77  2  0
 77 78  1  0
 78 82  1  0
 79 78  2  0
 80 79  1  0
 81 80  1  0
 83 84  1  0
 84 87  1  0
 84 86  1  0
 85 83  2  0
 88 89  1  0
 88 63  1  0
 90 88  1  0
M  ISO  4  10 101  11 101  53 100  61 100
M  END
>  <TORSDO>  (39) 
F 22

>  <SCORE>  (39) 
-14.904

>  <name>  (39) 
38

>  <ligand_id>  (39) 
38

>  <original_smiles>  (39) 
[H]c1c([H])c([H])c2c(c1[H])C([H])([H])C([H])([H])C([H])([H])C2([H])N([H])C(=O)C1([H])N(C(=O)C([H])(N([H])C(=O)C([H])(N([H])C([H])([H])[H])C([H])([H])[H])C(C([H])([H])[H])(C([H])([H])[H])C([H])([H])[H])C([H])([H])c2c([H])c(OC([H])([H])C([H])([H])C([H])(C([H])([H])N([H])C(=O)N3C([H])([H])C([H])([H])C([H])([H])C([H])(n4nc(-c5c([H])c([H])c(Oc6c([H])c([H])c(F)c([H])c6F)c([H])c5[H])c(C(=O)N([H])[H])c4N([H])[H])C3([H])[H])C([H])(C([H])([H])[H])C([H])([H])[N+]([H])(C([H])([H])[H])C([H])([H])[H])c([H])c([H])c2C1([H])[H]

>  <smiles>  (39) 
[H]c1c([H])c([H])c2c(c1[H])C([H])([H])C([H])([H])C([H])([H])C2([H])N([H])C(=O)C1([H])N(C(=O)C([H])(N([H])C(=O)C([H])(N([H])C([H])([H])[H])C([H])([H])[H])C(C([H])([H])[H])(C([H])([H])[H])C([H])([H])[H])C([H])([H])c2c([H])c(OC([H])([H])C([H])([H])C([H])(C([H])([H])N([H])C(=O)N3C([H])([H])C([H])([H])C([H])([H])C([H])(n4nc(-c5c([H])c([H])c(Oc6c([H])c([H])c(F)c([H])c6F)c([H])c5[H])c(C(=O)N([H])[H])c4N([H])[H])C3([H])[H])C([H])(C([H])([H])[H])C([H])([H])[N+]([H])(C([H])([H])[H])C([H])([H])[H])c([H])c([H])c2C1([H])[H]

$$$$
39:0:0
     RDKit          3D

 91 98  0  0  1  0  0  0  0  0999 V2000
  -28.9660  -21.6830   20.3990 N   0  0  0  0  0  4  0  0  0  0  0  0
  -29.6270  -21.6940   19.6400 H   0  0  0  0  0  0  0  0  0  0  0  0
  -28.0520  -21.5120   20.0130 H   0  0  0  0  0  0  0  0  0  0  0  0
  -28.9500  -23.0230   21.0770 C   0  0  0  0  0  2  0  0  0  0  0  0
  -28.7390  -24.2770   20.1640 C   0  0  0  0  0  2  0  0  0  0  0  0
  -28.6460  -25.6140   20.9700 C   0  0  0  0  0  2  0  0  0  0  0  0
  -28.6730  -26.8370   20.1970 O   0  0  0  0  0  0  0  0  0  0  0  0
  -24.6570  -31.8550   23.3310 C   0  0  0  0  0  0  0  0  0  0  0  0
  -27.5020  -27.5670   20.2010 C   0  0  0  0  0  0  0  0  0  0  0  0
  -23.5320  -30.4570   21.6290 C   0  0  0  0  0  3  0  0  0  0  0  0
  -25.0650  -29.0060   20.1930 C   0  0  0  0  0  0  0  0  0  0  0  0
  -26.0480  -30.9040   21.4890 C   0  0  0  0  0  2  0  0  0  0  0  0
  -26.1940  -29.5520   20.8170 C   0  0  0  0  0  0  0  0  0  0  0  0
  -27.4190  -28.8410   20.8150 C   0  0  0  0  0  3  0  0  0  0  0  0
  -26.3590  -27.0390   19.5690 C   0  0  0  0  0  3  0  0  0  0  0  0
  -25.1430  -27.7510   19.5630 C   0  0  0  0  0  3  0  0  0  0  0  0
  -23.7910  -29.8220   20.2360 C   0  0  0  0  0  2  0  0  0  0  0  0
  -24.7630  -31.0870   22.2090 N   0  0  0  0  0  0  0  0  0  0  0  0
  -23.5570  -32.0750   23.8570 O   0  0  0  0  0  0  0  0  0  0  0  0
  -22.8970  -29.3900   22.5500 C   0  0  0  0  0  0  0  0  0  0  0  0
  -21.5910  -29.1390   22.3660 N   0  0  0  0  0  0  0  0  0  0  0  0
  -23.5790  -28.7930   23.3870 O   0  0  0  0  0  0  0  0  0  0  0  0
  -21.0990  -29.6790   21.6680 H   0  0  0  0  0  0  0  0  0  0  0  0
  -18.2720  -27.7500   22.6980 C   0  0  0  0  0  0  0  0  0  0  0  0
  -20.7960  -28.1460   23.0890 C   0  0  0  0  0  3  0  0  0  0  0  0
  -21.0060  -26.7310   22.5030 C   0  0  0  0  0  2  0  0  0  0  0  0
  -19.9700  -26.3600   21.4360 C   0  0  0  0  0  2  0  0  0  0  0  0
  -18.5560  -26.4200   22.0200 C   0  0  0  0  0  2  0  0  0  0  0  0
  -19.3250  -28.5670   23.1870 C   0  0  0  0  0  0  0  0  0  0  0  0
  -19.0080  -29.8100   23.7790 C   0  0  0  0  0  3  0  0  0  0  0  0
  -17.6720  -30.2350   23.8900 C   0  0  0  0  0  3  0  0  0  0  0  0
  -16.6320  -29.4150   23.4180 C   0  0  0  0  0  3  0  0  0  0  0  0
  -16.9330  -28.1740   22.8280 C   0  0  0  0  0  3  0  0  0  0  0  0
  -25.9090  -32.5120   23.9920 C   0  0  0  0  0  3  0  0  0  0  0  0
  -26.3740  -31.7780   25.3090 C   0  0  1  0  0  0  0  0  0  0  0  0
  -25.2340  -31.5500   26.3290 C   0  0  0  0  0  1  0  0  0  0  0  0
  -26.9930  -30.4010   24.9770 C   0  0  0  0  0  1  0  0  0  0  0  0
  -27.4810  -32.6040   26.0070 C   0  0  0  0  0  1  0  0  0  0  0  0
  -25.5780  -33.9170   24.2690 N   0  0  0  0  0  0  0  0  0  0  0  0
  -25.9330  -34.9490   23.4930 C   0  0  0  0  0  0  0  0  0  0  0  0
  -26.6450  -34.8210   22.4920 O   0  0  0  0  0  0  0  0  0  0  0  0
  -24.9510  -34.0900   25.0410 H   0  0  0  0  0  0  0  0  0  0  0  0
  -24.2030  -36.7110   23.0220 C   0  0  0  0  0  1  0  0  0  0  0  0
  -25.4180  -36.3450   23.8900 C   0  0  0  0  0  3  0  0  0  0  0  0
  -27.5080  -37.2840   24.7720 C   0  0  0  0  0  1  0  0  0  0  0  0
  -26.4440  -37.4050   23.7790 N   0  0  0  0  0  0  0  0  0  0  0  0
  -26.0230  -38.3260   23.8750 H   0  0  0  0  0  0  0  0  0  0  0  0
  -29.3090  -20.5520   21.3220 C   0  0  0  0  0  2  0  0  0  0  0  0
  -27.9450  -19.0730   19.7350 C   0  0  0  0  0  1  0  0  0  0  0  0
  -29.0360  -19.0790   20.8250 C   0  0  0  0  0  3  0  0  0  0  0  0
  -31.5350  -18.5310   21.2250 C   0  0  0  0  0  1  0  0  0  0  0  0
  -30.2540  -18.1500   20.4570 C   0  0  0  0  0  3  0  0  0  0  0  0
  -29.9650  -16.6020   20.6630 C   0  0  0  0  0  2  0  0  0  0  0  0
  -31.3340  -14.5540   20.0220 C   0  0  0  0  0  0  0  0  0  0  0  0
  -30.9280  -12.3350   19.0310 C   0  0  0  0  0  2  0  0  0  0  0  0
  -29.9620  -12.5000   17.8380 C   0  0  0  0  0  2  0  0  0  0  0  0
  -28.4980  -12.4500   18.3120 C   0  0  0  0  0  2  0  0  0  0  0  0
  -28.2210  -13.3530   19.5440 C   0  0  0  0  0  3  0  0  0  0  0  0
  -29.3050  -13.1840   20.6320 C   0  0  0  0  0  2  0  0  0  0  0  0
  -30.6110  -13.3990   19.9970 N   0  0  0  0  0  0  0  0  0  0  0  0
  -32.5360  -14.5640   19.7420 O   0  0  0  0  0  0  0  0  0  0  0  0
  -30.7740  -16.2120   18.3440 C   0  0  0  0  0  1  0  0  0  0  0  0
  -30.6100  -15.6670   19.7010 N   0  0  0  0  0  0  0  0  0  0  0  0
  -25.9030  -14.0750   20.3870 C   0  0  0  0  0  0  0  0  0  0  0  0
  -24.8010  -13.3560   20.7620 C   0  0  0  0  0  0  0  0  0  0  0  0
  -25.1720  -11.9800   20.6540 C   0  0  0  0  0  0  0  0  0  0  0  0
  -26.8780  -13.1410   20.0750 N   0  0  0  0  0  0  0  0  0  0  0  0
  -26.4460  -11.8740   20.2970 N   0  0  0  0  0  0  0  0  0  0  0  0
  -24.3710  -10.7600   20.8120 C   0  0  0  0  0  0  0  0  0  0  0  0
  -24.7430   -9.7460   21.7220 C   0  0  0  0  0  3  0  0  0  0  0  0
  -23.9470   -8.5910   21.8710 C   0  0  0  0  0  3  0  0  0  0  0  0
  -22.7650   -8.4400   21.1080 C   0  0  0  0  0  0  0  0  0  0  0  0
  -22.4120   -9.4420   20.1860 C   0  0  0  0  0  3  0  0  0  0  0  0
  -23.2080  -10.5890   20.0370 C   0  0  0  0  0  3  0  0  0  0  0  0
  -21.9440   -7.3400   21.1670 O   0  0  0  0  0  0  0  0  0  0  0  0
  -21.7910   -6.6170   22.3230 C   0  0  0  0  0  0  0  0  0  0  0  0
  -21.3020   -7.2030   23.5100 C   0  0  0  0  0  3  0  0  0  0  0  0
  -21.0960   -6.4080   24.6560 C   0  0  0  0  0  3  0  0  0  0  0  0
  -21.3690   -5.0270   24.6120 C   0  0  0  0  0  0  0  0  0  0  0  0
  -21.8510   -4.4410   23.4290 C   0  0  0  0  0  3  0  0  0  0  0  0
  -22.0590   -5.2340   22.2870 C   0  0  0  0  0  0  0  0  0  0  0  0
  -22.5030   -4.6590   21.1430 F   0  0  0  0  0  0  0  0  0  0  0  0
  -21.1640   -4.2610   25.7090 F   0  0  0  0  0  0  0  0  0  0  0  0
  -23.4480  -13.9090   21.1040 C   0  0  0  0  0  0  0  0  0  0  0  0
  -22.7170  -13.2380   21.9880 N   0  0  0  0  0  0  0  0  0  0  0  0
  -23.0500  -14.9690   20.6250 O   0  0  0  0  0  0  0  0  0  0  0  0
  -23.0510  -12.3780   22.3990 H   0  0  0  0  0  0  0  0  0  0  0  0
  -21.8100  -13.5890   22.2590 H   0  0  0  0  0  0  0  0  0  0  0  0
  -26.1510  -15.4390   20.2620 N   0  0  0  0  0  0  0  0  0  0  0  0
  -25.4320  -16.1340   20.4250 H   0  0  0  0  0  0  0  0  0  0  0  0
  -27.0110  -15.8330   19.9020 H   0  0  0  0  0  0  0  0  0  0  0  0
  1  4  1  0
  1 48  1  0
  2  1  1  0
  3  1  1  0
  5  6  1  0
  5  4  1  0
  7  9  1  0
  7  6  1  0
  8 19  2  0
  9 14  1  0
 10 18  1  0
 10 20  1  0
 11 17  1  0
 11 13  1  0
 12 18  1  0
 13 12  1  0
 14 13  2  0
 15  9  2  0
 16 15  1  0
 16 11  2  0
 17 10  1  0
 18  8  1  0
 20 22  2  0
 21 20  1  0
 23 21  1  0
 24 33  2  0
 24 29  1  0
 25 21  1  0
 25 29  1  0
 26 25  1  0
 27 28  1  0
 27 26  1  0
 28 24  1  0
 29 30  2  0
 30 31  1  0
 32 31  2  0
 33 32  1  0
 34  8  1  0
 34 39  1  0
 34 35  1  0
 35 38  1  1
 35 36  1  0
 37 35  1  0
 39 42  1  0
 40 44  1  0
 40 39  1  0
 41 40  2  0
 44 43  1  0
 46 47  1  0
 46 44  1  0
 46 45  1  0
 50 49  1  0
 50 48  1  0
 52 53  1  0
 52 50  1  0
 52 51  1  0
 55 60  1  0
 56 57  1  0
 56 55  1  0
 58 57  1  0
 58 67  1  0
 58 59  1  0
 60 54  1  0
 60 59  1  0
 61 54  2  0
 62 63  1  0
 63 54  1  0
 63 53  1  0
 64 65  2  0
 65 84  1  0
 66 65  1  0
 66 69  1  0
 67 68  1  0
 67 64  1  0
 68 66  2  0
 69 70  1  0
 70 71  2  0
 72 75  1  0
 72 71  1  0
 73 72  2  0
 74 73  1  0
 74 69  2  0
 75 76  1  0
 76 77  1  0
 77 78  2  0
 79 78  1  0
 79 83  1  0
 80 79  2  0
 81 76  2  0
 81 80  1  0
 82 81  1  0
 84 85  1  0
 85 88  1  0
 85 87  1  0
 86 84  2  0
 89 64  1  0
 89 90  1  0
 91 89  1  0
M  ISO  4   6 101   7 101  54 100  63 100
M  END
>  <TORSDO>  (40) 
F 23

>  <SCORE>  (40) 
-11.966

>  <name>  (40) 
39

>  <ligand_id>  (40) 
39

>  <original_smiles>  (40) 
[H]c1c([H])c([H])c2c(c1[H])C([H])([H])C([H])([H])C([H])([H])C2([H])N([H])C(=O)C1([H])N(C(=O)C([H])(N([H])C(=O)C([H])(N([H])C([H])([H])[H])C([H])([H])[H])C(C([H])([H])[H])(C([H])([H])[H])C([H])([H])[H])C([H])([H])c2c([H])c(OC([H])([H])C([H])([H])C([H])([H])[N+]([H])([H])C([H])([H])C([H])(C([H])([H])[H])C([H])(C([H])([H])[H])C([H])([H])N(C(=O)N3C([H])([H])C([H])([H])C([H])([H])C([H])(n4nc(-c5c([H])c([H])c(Oc6c([H])c([H])c(F)c([H])c6F)c([H])c5[H])c(C(=O)N([H])[H])c4N([H])[H])C3([H])[H])C([H])([H])[H])c([H])c([H])c2C1([H])[H]

>  <smiles>  (40) 
[H]c1c([H])c([H])c2c(c1[H])C([H])([H])C([H])([H])C([H])([H])C2([H])N([H])C(=O)C1([H])N(C(=O)C([H])(N([H])C(=O)C([H])(N([H])C([H])([H])[H])C([H])([H])[H])C(C([H])([H])[H])(C([H])([H])[H])C([H])([H])[H])C([H])([H])c2c([H])c(OC([H])([H])C([H])([H])C([H])([H])[N+]([H])([H])C([H])([H])C([H])(C([H])([H])[H])C([H])(C([H])([H])[H])C([H])([H])N(C(=O)N3C([H])([H])C([H])([H])C([H])([H])C([H])(n4nc(-c5c([H])c([H])c(Oc6c([H])c([H])c(F)c([H])c6F)c([H])c5[H])c(C(=O)N([H])[H])c4N([H])[H])C3([H])[H])C([H])([H])[H])c([H])c([H])c2C1([H])[H]

$$$$
40:0:0
     RDKit          3D

 89 97  0  0  1  0  0  0  0  0999 V2000
  -30.9020  -18.8690   21.8830 C   0  0  0  0  0  3  0  0  0  0  0  0
  -30.5000  -21.0550   21.9540 C   0  0  0  0  0  3  0  0  0  0  0  0
  -31.2040  -20.0640   22.5700 C   0  0  0  0  0  0  0  0  0  0  0  0
  -30.0250  -19.0910   20.8560 C   0  0  0  0  0  0  0  0  0  0  0  0
  -32.1340  -20.1980   23.7510 C   0  0  0  0  0  1  0  0  0  0  0  0
  -29.7370  -20.5820   20.8830 N   0  0  0  0  0  0  0  0  0  0  0  0
  -29.6680  -17.7720   19.9740 C   0  0  0  0  0  2  0  0  0  0  0  0
  -30.5290  -15.1070   20.2840 C   0  0  0  0  0  0  0  0  0  0  0  0
  -30.4590  -12.7270   19.4010 C   0  0  0  0  0  2  0  0  0  0  0  0
  -29.5540  -12.6650   18.1490 C   0  0  0  0  0  2  0  0  0  0  0  0
  -28.0810  -12.4450   18.5450 C   0  0  0  0  0  2  0  0  0  0  0  0
  -27.6480  -13.3670   19.7170 C   0  0  0  0  0  3  0  0  0  0  0  0
  -28.6860  -13.4000   20.8610 C   0  0  0  0  0  2  0  0  0  0  0  0
  -29.9660  -13.8270   20.2800 N   0  0  0  0  0  0  0  0  0  0  0  0
  -31.7090  -15.1950   19.9240 O   0  0  0  0  0  0  0  0  0  0  0  0
  -29.7240  -16.2640   20.4970 N   0  0  0  0  0  0  0  0  0  0  0  0
  -28.8330  -15.9900   20.8830 H   0  0  0  0  0  0  0  0  0  0  0  0
  -25.2490  -13.9210   20.4160 C   0  0  0  0  0  0  0  0  0  0  0  0
  -24.1930  -13.1360   20.7930 C   0  0  0  0  0  0  0  0  0  0  0  0
  -24.6760  -11.7920   20.7810 C   0  0  0  0  0  0  0  0  0  0  0  0
  -26.3060  -13.0570   20.1990 N   0  0  0  0  0  0  0  0  0  0  0  0
  -25.9710  -11.7710   20.4850 N   0  0  0  0  0  0  0  0  0  0  0  0
  -23.9630  -10.5230   20.9730 C   0  0  0  0  0  0  0  0  0  0  0  0
  -24.3850   -9.5770   21.9330 C   0  0  0  0  0  3  0  0  0  0  0  0
  -23.6730   -8.3720   22.1160 C   0  0  0  0  0  3  0  0  0  0  0  0
  -22.5230   -8.1010   21.3350 C   0  0  0  0  0  0  0  0  0  0  0  0
  -22.1190   -9.0360   20.3640 C   0  0  0  0  0  3  0  0  0  0  0  0
  -22.8340  -10.2320   20.1810 C   0  0  0  0  0  3  0  0  0  0  0  0
  -21.7860   -6.9450   21.4230 O   0  0  0  0  0  0  0  0  0  0  0  0
  -21.7030   -6.2320   22.5940 C   0  0  0  0  0  0  0  0  0  0  0  0
  -21.1980   -6.8040   23.7810 C   0  0  0  0  0  3  0  0  0  0  0  0
  -21.0660   -6.0150   24.9430 C   0  0  0  0  0  3  0  0  0  0  0  0
  -21.4280   -4.6550   24.9130 C   0  0  0  0  0  0  0  0  0  0  0  0
  -21.9220   -4.0820   23.7290 C   0  0  0  0  0  3  0  0  0  0  0  0
  -22.0570   -4.8690   22.5710 C   0  0  0  0  0  0  0  0  0  0  0  0
  -22.5150   -4.3060   21.4260 F   0  0  0  0  0  0  0  0  0  0  0  0
  -21.2930   -3.8930   26.0240 F   0  0  0  0  0  0  0  0  0  0  0  0
  -22.7860  -13.5960   21.0400 C   0  0  0  0  0  0  0  0  0  0  0  0
  -22.0530  -12.9050   21.9060 N   0  0  0  0  0  0  0  0  0  0  0  0
  -22.3420  -14.6090   20.5000 O   0  0  0  0  0  0  0  0  0  0  0  0
  -22.4230  -12.0890   22.3720 H   0  0  0  0  0  0  0  0  0  0  0  0
  -21.1070  -13.1990   22.1080 H   0  0  0  0  0  0  0  0  0  0  0  0
  -25.3930  -15.2900   20.2060 N   0  0  0  0  0  0  0  0  0  0  0  0
  -24.5930  -15.9130   20.2200 H   0  0  0  0  0  0  0  0  0  0  0  0
  -26.2060  -15.7100   19.7710 H   0  0  0  0  0  0  0  0  0  0  0  0
  -28.8530  -21.6910   20.1460 C   0  0  0  0  0  2  0  0  0  0  0  0
  -29.0350  -23.3860   20.4090 C   0  0  0  0  0  3  0  0  0  0  0  0
  -28.0380  -24.6870   19.9200 C   0  0  0  0  0  3  0  0  0  0  0  0
  -28.2310  -26.2300   20.1640 O   0  0  0  0  0  0  0  0  0  0  0  0
  -24.5980  -31.9260   23.1990 C   0  0  0  0  0  0  0  0  0  0  0  0
  -27.1650  -27.2180   20.0970 C   0  0  0  0  0  0  0  0  0  0  0  0
  -23.3880  -30.5360   21.5620 C   0  0  0  0  0  3  0  0  0  0  0  0
  -24.8270  -28.9720   20.1040 C   0  0  0  0  0  0  0  0  0  0  0  0
  -25.9390  -30.7980   21.3760 C   0  0  0  0  0  2  0  0  0  0  0  0
  -26.0080  -29.4100   20.7110 C   0  0  0  0  0  0  0  0  0  0  0  0
  -27.1730  -28.5460   20.6960 C   0  0  0  0  0  3  0  0  0  0  0  0
  -25.9560  -26.8900   19.4420 C   0  0  0  0  0  3  0  0  0  0  0  0
  -24.8140  -27.7250   19.4560 C   0  0  0  0  0  3  0  0  0  0  0  0
  -23.5960  -29.8680   20.1760 C   0  0  0  0  0  2  0  0  0  0  0  0
  -24.6640  -31.1090   22.1010 N   0  0  0  0  0  0  0  0  0  0  0  0
  -23.5150  -32.2050   23.7350 O   0  0  0  0  0  0  0  0  0  0  0  0
  -22.7170  -29.5250   22.5250 C   0  0  0  0  0  0  0  0  0  0  0  0
  -21.3880  -29.3510   22.4090 N   0  0  0  0  0  0  0  0  0  0  0  0
  -23.3950  -28.8970   23.3410 O   0  0  0  0  0  0  0  0  0  0  0  0
  -20.8960  -29.9100   21.7250 H   0  0  0  0  0  0  0  0  0  0  0  0
  -18.0150  -28.1260   22.9220 C   0  0  0  0  0  0  0  0  0  0  0  0
  -20.5740  -28.4040   23.1780 C   0  0  0  0  0  3  0  0  0  0  0  0
  -20.6840  -26.9740   22.5960 C   0  0  0  0  0  2  0  0  0  0  0  0
  -19.5790  -26.6480   21.5890 C   0  0  0  0  0  2  0  0  0  0  0  0
  -18.1990  -26.7800   22.2390 C   0  0  0  0  0  2  0  0  0  0  0  0
  -19.1310  -28.8960   23.3490 C   0  0  0  0  0  0  0  0  0  0  0  0
  -18.9050  -30.1540   23.9480 C   0  0  0  0  0  3  0  0  0  0  0  0
  -17.5970  -30.6420   24.1300 C   0  0  0  0  0  3  0  0  0  0  0  0
  -16.4970  -29.8690   23.7180 C   0  0  0  0  0  3  0  0  0  0  0  0
  -16.7060  -28.6140   23.1190 C   0  0  0  0  0  3  0  0  0  0  0  0
  -25.8780  -32.5640   23.8210 C   0  0  0  0  0  3  0  0  0  0  0  0
  -26.3920  -31.7970   25.1010 C   0  0  1  0  0  0  0  0  0  0  0  0
  -25.3020  -31.5660   26.1760 C   0  0  0  0  0  1  0  0  0  0  0  0
  -26.9740  -30.4190   24.7140 C   0  0  0  0  0  1  0  0  0  0  0  0
  -27.5460  -32.5920   25.7550 C   0  0  0  0  0  1  0  0  0  0  0  0
  -25.5680  -33.9610   24.1590 N   0  0  0  0  0  0  0  0  0  0  0  0
  -25.8970  -35.0230   23.4150 C   0  0  0  0  0  0  0  0  0  0  0  0
  -26.5630  -34.9270   22.3800 O   0  0  0  0  0  0  0  0  0  0  0  0
  -24.9840  -34.1080   24.9700 H   0  0  0  0  0  0  0  0  0  0  0  0
  -24.1790  -36.8330   23.0820 C   0  0  0  0  0  1  0  0  0  0  0  0
  -25.4160  -36.4090   23.8900 C   0  0  0  0  0  3  0  0  0  0  0  0
  -27.5490  -37.2790   24.7380 C   0  0  0  0  0  1  0  0  0  0  0  0
  -26.4520  -37.4600   23.7920 N   0  0  0  0  0  0  0  0  0  0  0  0
  -26.0510  -38.3800   23.9460 H   0  0  0  0  0  0  0  0  0  0  0  0
  1  3  1  0
  2  3  2  0
  3  5  1  0
  4  6  1  0
  4  1  2  0
  6  2  1  0
  7 16  1  0
  7  4  1  0
  8 16  1  0
  9 14  1  0
 10 11  1  0
 10  9  1  0
 12 11  1  0
 12 21  1  0
 12 13  1  0
 14  8  1  0
 14 13  1  0
 15  8  2  0
 16 17  1  0
 18 19  2  0
 19 38  1  0
 20 19  1  0
 20 23  1  0
 21 18  1  0
 21 22  1  0
 22 20  2  0
 23 24  1  0
 24 25  2  0
 26 29  1  0
 26 25  1  0
 27 26  2  0
 28 27  1  0
 28 23  2  0
 29 30  1  0
 30 31  1  0
 31 32  2  0
 33 32  1  0
 33 37  1  0
 34 33  2  0
 35 30  2  0
 35 34  1  0
 36 35  1  0
 38 39  1  0
 39 42  1  0
 39 41  1  0
 40 38  2  0
 43 44  1  0
 43 18  1  0
 45 43  1  0
 46 47  1  0
 46  6  1  0
 48 49  1  0
 48 47  2  0
 50 61  2  0
 51 49  1  0
 51 56  1  0
 52 60  1  0
 52 62  1  0
 53 59  1  0
 53 55  1  0
 54 60  1  0
 55 54  1  0
 56 55  2  0
 57 58  1  0
 57 51  2  0
 58 53  2  0
 59 52  1  0
 60 50  1  0
 62 64  2  0
 63 62  1  0
 65 63  1  0
 66 75  2  0
 66 71  1  0
 67 63  1  0
 67 71  1  0
 68 67  1  0
 69 70  1  0
 69 68  1  0
 70 66  1  0
 71 72  2  0
 72 73  1  0
 74 73  2  0
 75 74  1  0
 76 50  1  0
 76 81  1  0
 76 77  1  0
 77 80  1  1
 77 78  1  0
 79 77  1  0
 81 84  1  0
 82 86  1  0
 82 81  1  0
 83 82  2  0
 86 85  1  0
 88 86  1  0
 88 89  1  0
 88 87  1  0
M  ISO  4   8 100  16 100  48 101  49 101
M  END
>  <TORSDO>  (41) 
F 20

>  <SCORE>  (41) 
-14.993

>  <name>  (41) 
40

>  <ligand_id>  (41) 
40

>  <original_smiles>  (41) 
[H]c1c([H])c([H])c2c(c1[H])C([H])([H])C([H])([H])C([H])([H])C2([H])N([H])C(=O)C1([H])N(C(=O)C([H])(N([H])C(=O)C([H])(N([H])C([H])([H])[H])C([H])([H])[H])C(C([H])([H])[H])(C([H])([H])[H])C([H])([H])[H])C([H])([H])c2c([H])c(OC([H])([H])C([H])([H])C([H])([H])n3c([H])c(C([H])([H])[H])c([H])c3C([H])([H])N([H])C(=O)N3C([H])([H])C([H])([H])C([H])([H])C([H])(n4nc(-c5c([H])c([H])c(Oc6c([H])c([H])c(F)c([H])c6F)c([H])c5[H])c(C(=O)N([H])[H])c4N([H])[H])C3([H])[H])c([H])c([H])c2C1([H])[H]

>  <smiles>  (41) 
[H]c1c([H])c([H])c2c(c1[H])C([H])([H])C([H])([H])C([H])([H])C2([H])N([H])C(=O)C1([H])N(C(=O)C([H])(N([H])C(=O)C([H])(N([H])C([H])([H])[H])C([H])([H])[H])C(C([H])([H])[H])(C([H])([H])[H])C([H])([H])[H])C([H])([H])c2c([H])c(OC([H])([H])C([H])([H])C([H])([H])n3c([H])c(C([H])([H])[H])c([H])c3C([H])([H])N([H])C(=O)N3C([H])([H])C([H])([H])C([H])([H])C([H])(n4nc(-c5c([H])c([H])c(Oc6c([H])c([H])c(F)c([H])c6F)c([H])c5[H])c(C(=O)N([H])[H])c4N([H])[H])C3([H])[H])c([H])c([H])c2C1([H])[H]

$$$$
41:0:0
     RDKit          3D

 98106  0  0  1  0  0  0  0  0999 V2000
  -29.4370  -21.3570   23.9590 C   0  0  0  0  0  3  0  0  0  0  0  0
  -30.1710  -20.2180   24.3140 C   0  0  0  0  0  0  0  0  0  0  0  0
  -29.6770  -21.8940   22.6900 C   0  0  0  0  0  0  0  0  0  0  0  0
  -31.2300  -20.2690   22.2900 C   0  0  0  0  0  0  0  0  0  0  0  0
  -29.9620  -19.5290   25.6450 C   0  0  0  0  0  1  0  0  0  0  0  0
  -31.0640  -19.6750   23.4680 N   0  0  0  0  0  0  0  0  0  0  0  0
  -30.5880  -21.3530   21.8600 N   0  0  0  0  0  0  0  0  0  0  0  0
  -28.8970  -23.0800   22.1700 C   0  0  0  0  0  2  0  0  0  0  0  0
  -29.7780  -24.3280   22.0470 C   0  0  0  0  0  2  0  0  0  0  0  0
  -28.9990  -25.5780   21.6190 C   0  0  0  0  0  2  0  0  0  0  0  0
  -28.4890  -25.5360   20.1740 C   0  0  0  0  0  2  0  0  0  0  0  0
  -28.3280  -26.8870   19.7740 O   0  0  0  0  0  0  0  0  0  0  0  0
  -24.5120  -31.8630   23.1500 C   0  0  0  0  0  0  0  0  0  0  0  0
  -27.1060  -27.5000   19.9210 C   0  0  0  0  0  0  0  0  0  0  0  0
  -23.2680  -30.4890   21.5090 C   0  0  0  0  0  3  0  0  0  0  0  0
  -24.6930  -28.9670   20.0410 C   0  0  0  0  0  0  0  0  0  0  0  0
  -25.7870  -30.8540   21.2650 C   0  0  0  0  0  2  0  0  0  0  0  0
  -25.8600  -29.4940   20.6050 C   0  0  0  0  0  0  0  0  0  0  0  0
  -27.0690  -28.7680   20.5380 C   0  0  0  0  0  3  0  0  0  0  0  0
  -25.9140  -26.9640   19.3790 C   0  0  0  0  0  3  0  0  0  0  0  0
  -24.7140  -27.7000   19.4290 C   0  0  0  0  0  3  0  0  0  0  0  0
  -23.4490  -29.8240   20.1200 C   0  0  0  0  0  2  0  0  0  0  0  0
  -24.5420  -31.0810   22.0350 N   0  0  0  0  0  0  0  0  0  0  0  0
  -23.4440  -32.1320   23.7160 O   0  0  0  0  0  0  0  0  0  0  0  0
  -22.6320  -29.4560   22.4640 C   0  0  0  0  0  0  0  0  0  0  0  0
  -21.3080  -29.2650   22.3400 N   0  0  0  0  0  0  0  0  0  0  0  0
  -23.3240  -28.8300   23.2720 O   0  0  0  0  0  0  0  0  0  0  0  0
  -20.8150  -29.8210   21.6560 H   0  0  0  0  0  0  0  0  0  0  0  0
  -17.9510  -28.0110   22.7920 C   0  0  0  0  0  0  0  0  0  0  0  0
  -20.4990  -28.3130   23.1010 C   0  0  0  0  0  3  0  0  0  0  0  0
  -20.6360  -26.8830   22.5290 C   0  0  0  0  0  2  0  0  0  0  0  0
  -19.5540  -26.5380   21.5010 C   0  0  0  0  0  2  0  0  0  0  0  0
  -18.1630  -26.6610   22.1260 C   0  0  0  0  0  2  0  0  0  0  0  0
  -19.0510  -28.7930   23.2340 C   0  0  0  0  0  0  0  0  0  0  0  0
  -18.8030  -30.0560   23.8140 C   0  0  0  0  0  3  0  0  0  0  0  0
  -17.4860  -30.5360   23.9600 C   0  0  0  0  0  3  0  0  0  0  0  0
  -16.4030  -29.7490   23.5340 C   0  0  0  0  0  3  0  0  0  0  0  0
  -16.6360  -28.4900   22.9560 C   0  0  0  0  0  3  0  0  0  0  0  0
  -25.8130  -32.4740   23.7570 C   0  0  0  0  0  3  0  0  0  0  0  0
  -26.3520  -31.6780   25.0070 C   0  0  1  0  0  0  0  0  0  0  0  0
  -25.2800  -31.4330   26.0950 C   0  0  0  0  0  1  0  0  0  0  0  0
  -26.9170  -30.3030   24.5800 C   0  0  0  0  0  1  0  0  0  0  0  0
  -27.5240  -32.4550   25.6540 C   0  0  0  0  0  1  0  0  0  0  0  0
  -25.5220  -33.8700   24.1090 N   0  0  0  0  0  0  0  0  0  0  0  0
  -25.8810  -34.9310   23.3730 C   0  0  0  0  0  0  0  0  0  0  0  0
  -26.5660  -34.8370   22.3500 O   0  0  0  0  0  0  0  0  0  0  0  0
  -24.9110  -34.0180   24.9000 H   0  0  0  0  0  0  0  0  0  0  0  0
  -24.1880  -36.7590   23.0240 C   0  0  0  0  0  1  0  0  0  0  0  0
  -25.4080  -36.3180   23.8500 C   0  0  0  0  0  3  0  0  0  0  0  0
  -27.5410  -37.1490   24.7390 C   0  0  0  0  0  1  0  0  0  0  0  0
  -26.4610  -37.3560   23.7780 N   0  0  0  0  0  0  0  0  0  0  0  0
  -26.0660  -38.2800   23.9370 H   0  0  0  0  0  0  0  0  0  0  0  0
  -32.1660  -19.6040   21.2960 C   0  0  0  0  0  2  0  0  0  0  0  0
  -31.4750  -19.3150   19.9460 C   0  0  0  0  0  3  0  0  0  0  0  0
  -31.4450  -20.5200   19.0840 N   0  0  0  0  0  4  0  0  0  0  0  0
  -32.3650  -20.7840   18.7720 H   0  0  0  0  0  0  0  0  0  0  0  0
  -31.0690  -21.2850   19.6290 H   0  0  0  0  0  0  0  0  0  0  0  0
  -30.8550  -20.3830   18.2780 H   0  0  0  0  0  0  0  0  0  0  0  0
  -32.0950  -18.1000   19.2180 C   0  0  0  0  0  2  0  0  0  0  0  0
  -31.1340  -16.9010   19.0840 C   0  0  0  0  0  2  0  0  0  0  0  0
  -31.7900  -14.9210   20.3500 C   0  0  0  0  0  0  0  0  0  0  0  0
  -31.3830  -12.7550   19.3270 C   0  0  0  0  0  2  0  0  0  0  0  0
  -30.4780  -13.0170   18.1020 C   0  0  0  0  0  2  0  0  0  0  0  0
  -28.9940  -12.9670   18.5120 C   0  0  0  0  0  2  0  0  0  0  0  0
  -28.6800  -13.8380   19.7580 C   0  0  0  0  0  3  0  0  0  0  0  0
  -29.7160  -13.6060   20.8890 C   0  0  0  0  0  2  0  0  0  0  0  0
  -31.0660  -13.7780   20.3290 N   0  0  0  0  0  0  0  0  0  0  0  0
  -32.9820  -14.9930   20.0460 O   0  0  0  0  0  0  0  0  0  0  0  0
  -31.0230  -16.0160   20.2540 N   0  0  0  0  0  0  0  0  0  0  0  0
  -30.0840  -15.8790   20.5980 H   0  0  0  0  0  0  0  0  0  0  0  0
  -26.3240  -14.5690   20.4950 C   0  0  0  0  0  0  0  0  0  0  0  0
  -25.2070  -13.8530   20.8270 C   0  0  0  0  0  0  0  0  0  0  0  0
  -25.5820  -12.4770   20.7390 C   0  0  0  0  0  0  0  0  0  0  0  0
  -27.3120  -13.6340   20.2280 N   0  0  0  0  0  0  0  0  0  0  0  0
  -26.8680  -12.3690   20.4340 N   0  0  0  0  0  0  0  0  0  0  0  0
  -24.7770  -11.2560   20.8710 C   0  0  0  0  0  0  0  0  0  0  0  0
  -25.1420  -10.2260   21.7650 C   0  0  0  0  0  3  0  0  0  0  0  0
  -24.3450   -9.0690   21.8850 C   0  0  0  0  0  3  0  0  0  0  0  0
  -23.1680   -8.9350   21.1120 C   0  0  0  0  0  0  0  0  0  0  0  0
  -22.8230   -9.9520   20.2050 C   0  0  0  0  0  3  0  0  0  0  0  0
  -23.6210  -11.1020   20.0830 C   0  0  0  0  0  3  0  0  0  0  0  0
  -22.3450   -7.8340   21.1450 O   0  0  0  0  0  0  0  0  0  0  0  0
  -22.1950   -7.0820   22.2820 C   0  0  0  0  0  0  0  0  0  0  0  0
  -21.7380   -7.6460   23.4930 C   0  0  0  0  0  3  0  0  0  0  0  0
  -21.5310   -6.8240   24.6190 C   0  0  0  0  0  3  0  0  0  0  0  0
  -21.7720   -5.4400   24.5350 C   0  0  0  0  0  0  0  0  0  0  0  0
  -22.2200   -4.8760   23.3260 C   0  0  0  0  0  3  0  0  0  0  0  0
  -22.4290   -5.6950   22.2030 C   0  0  0  0  0  0  0  0  0  0  0  0
  -22.8420   -5.1440   21.0370 F   0  0  0  0  0  0  0  0  0  0  0  0
  -21.5660   -4.6470   25.6120 F   0  0  0  0  0  0  0  0  0  0  0  0
  -23.8410  -14.4050   21.1170 C   0  0  0  0  0  0  0  0  0  0  0  0
  -23.0730  -13.7330   21.9660 N   0  0  0  0  0  0  0  0  0  0  0  0
  -23.4650  -15.4680   20.6230 O   0  0  0  0  0  0  0  0  0  0  0  0
  -23.3900  -12.8750   22.3920 H   0  0  0  0  0  0  0  0  0  0  0  0
  -22.1560  -14.0840   22.1990 H   0  0  0  0  0  0  0  0  0  0  0  0
  -26.5760  -15.9360   20.3740 N   0  0  0  0  0  0  0  0  0  0  0  0
  -25.8460  -16.6300   20.5050 H   0  0  0  0  0  0  0  0  0  0  0  0
  -27.4450  -16.3350   20.0440 H   0  0  0  0  0  0  0  0  0  0  0  0
  1  2  2  0
  2  5  1  0
  3  1  1  0
  4  6  2  0
  6  2  1  0
  7  4  1  0
  7  3  2  0
  8  3  1  0
  9  8  1  0
 10  9  1  0
 11 10  1  0
 12 14  1  0
 12 11  1  0
 13 24  2  0
 14 19  1  0
 15 23  1  0
 15 25  1  0
 16 22  1  0
 16 18  1  0
 17 23  1  0
 18 17  1  0
 19 18  2  0
 20 21  1  0
 20 14  2  0
 21 16  2  0
 22 15  1  0
 23 13  1  0
 25 27  2  0
 26 25  1  0
 28 26  1  0
 29 38  2  0
 29 34  1  0
 30 26  1  0
 30 34  1  0
 31 30  1  0
 32 33  1  0
 32 31  1  0
 33 29  1  0
 34 35  2  0
 35 36  1  0
 37 36  2  0
 38 37  1  0
 39 13  1  0
 39 44  1  0
 39 40  1  0
 40 43  1  1
 40 41  1  0
 42 40  1  0
 44 47  1  0
 45 49  1  0
 45 44  1  0
 46 45  2  0
 49 48  1  0
 51 49  1  0
 51 52  1  0
 51 50  1  0
 53  4  1  0
 54 59  1  0
 54 53  1  0
 55 57  1  0
 55 54  1  0
 56 55  1  0
 58 55  1  0
 60 59  1  0
 60 69  1  0
 62 67  1  0
 63 64  1  0
 63 62  1  0
 65 64  1  0
 65 74  1  0
 65 66  1  0
 67 61  1  0
 67 66  1  0
 68 61  2  0
 69 61  1  0
 69 70  1  0
 71 72  2  0
 72 91  1  0
 73 72  1  0
 73 76  1  0
 74 75  1  0
 74 71  1  0
 75 73  2  0
 76 77  1  0
 77 78  2  0
 79 82  1  0
 79 78  1  0
 80 79  2  0
 81 80  1  0
 81 76  2  0
 82 83  1  0
 83 84  1  0
 84 85  2  0
 86 85  1  0
 86 90  1  0
 87 86  2  0
 88 83  2  0
 88 87  1  0
 89 88  1  0
 91 92  1  0
 92 95  1  0
 92 94  1  0
 93 91  2  0
 96 71  1  0
 96 97  1  0
 98 96  1  0
M  ISO  4  11 101  12 101  61 100  69 100
M  END
>  <TORSDO>  (42) 
F 25

>  <SCORE>  (42) 
-8.642

>  <name>  (42) 
41

>  <ligand_id>  (42) 
41

>  <original_smiles>  (42) 
[H]c1c(C([H])([H])[H])nc(C([H])([H])C([H])(C([H])([H])C([H])([H])N([H])C(=O)N2C([H])([H])C([H])([H])C([H])([H])C([H])(n3nc(-c4c([H])c([H])c(Oc5c([H])c([H])c(F)c([H])c5F)c([H])c4[H])c(C(=O)N([H])[H])c3N([H])[H])C2([H])[H])[N+]([H])([H])[H])nc1C([H])([H])C([H])([H])C([H])([H])C([H])([H])Oc1c([H])c([H])c2c(c1[H])C([H])([H])N(C(=O)C([H])(N([H])C(=O)C([H])(N([H])C([H])([H])[H])C([H])([H])[H])C(C([H])([H])[H])(C([H])([H])[H])C([H])([H])[H])C([H])(C(=O)N([H])C1([H])c3c([H])c([H])c([H])c([H])c3C([H])([H])C([H])([H])C1([H])[H])C2([H])[H]

>  <smiles>  (42) 
[H]c1c(C([H])([H])[H])nc(C([H])([H])C([H])(C([H])([H])C([H])([H])N([H])C(=O)N2C([H])([H])C([H])([H])C([H])([H])C([H])(n3nc(-c4c([H])c([H])c(Oc5c([H])c([H])c(F)c([H])c5F)c([H])c4[H])c(C(=O)N([H])[H])c3N([H])[H])C2([H])[H])[N+]([H])([H])[H])nc1C([H])([H])C([H])([H])C([H])([H])C([H])([H])Oc1c([H])c([H])c2c(c1[H])C([H])([H])N(C(=O)C([H])(N([H])C(=O)C([H])(N([H])C([H])([H])[H])C([H])([H])[H])C(C([H])([H])[H])(C([H])([H])[H])C([H])([H])[H])C([H])(C(=O)N([H])C1([H])c3c([H])c([H])c([H])c([H])c3C([H])([H])C([H])([H])C1([H])[H])C2([H])[H]

$$$$
42:0:0
     RDKit          3D

 93101  0  0  1  0  0  0  0  0999 V2000
  -30.3590  -19.1940   19.3660 C   0  0  0  0  0  3  0  0  0  0  0  0
  -29.2980  -19.7150   21.2100 C   0  0  0  0  0  3  0  0  0  0  0  0
  -29.9360  -18.6290   20.6040 C   0  0  0  0  0  0  0  0  0  0  0  0
  -30.0480  -20.5400   19.2850 C   0  0  0  0  0  0  0  0  0  0  0  0
  -29.3490  -20.9140   20.4430 N   0  0  0  0  0  0  0  0  0  0  0  0
  -31.5770  -20.9970   17.3340 C   0  0  0  0  0  1  0  0  0  0  0  0
  -30.3840  -21.4970   18.1710 C   0  0  0  0  0  3  0  0  0  0  0  0
  -29.3660  -22.9590   16.2990 C   0  0  0  0  0  1  0  0  0  0  0  0
  -29.1630  -21.7870   17.2710 C   0  0  0  0  0  2  0  0  0  0  0  0
  -30.2880  -17.1850   21.1840 C   0  0  0  0  0  2  0  0  0  0  0  0
  -30.5480  -14.7430   20.2560 C   0  0  0  0  0  0  0  0  0  0  0  0
  -30.2870  -12.5390   19.1020 C   0  0  0  0  0  2  0  0  0  0  0  0
  -29.3040  -12.6740   17.9190 C   0  0  0  0  0  2  0  0  0  0  0  0
  -27.8480  -12.4840   18.3920 C   0  0  0  0  0  2  0  0  0  0  0  0
  -27.5230  -13.3130   19.6630 C   0  0  0  0  0  3  0  0  0  0  0  0
  -28.6200  -13.1620   20.7390 C   0  0  0  0  0  2  0  0  0  0  0  0
  -29.8940  -13.5410   20.1150 N   0  0  0  0  0  0  0  0  0  0  0  0
  -31.7290  -14.8480   19.9160 O   0  0  0  0  0  0  0  0  0  0  0  0
  -29.8100  -15.8550   20.6220 N   0  0  0  0  0  0  0  0  0  0  0  0
  -28.8240  -15.6810   20.7430 H   0  0  0  0  0  0  0  0  0  0  0  0
  -25.1500  -13.8830   20.4560 C   0  0  0  0  0  0  0  0  0  0  0  0
  -24.1000  -13.0980   20.8500 C   0  0  0  0  0  0  0  0  0  0  0  0
  -24.5750  -11.7500   20.7980 C   0  0  0  0  0  0  0  0  0  0  0  0
  -26.1950  -13.0130   20.1880 N   0  0  0  0  0  0  0  0  0  0  0  0
  -25.8570  -11.7260   20.4540 N   0  0  0  0  0  0  0  0  0  0  0  0
  -23.8630  -10.4810   20.9950 C   0  0  0  0  0  0  0  0  0  0  0  0
  -24.3170   -9.5170   21.9220 C   0  0  0  0  0  3  0  0  0  0  0  0
  -23.6060   -8.3120   22.1080 C   0  0  0  0  0  3  0  0  0  0  0  0
  -22.4260   -8.0610   21.3660 C   0  0  0  0  0  0  0  0  0  0  0  0
  -21.9930   -9.0150   20.4280 C   0  0  0  0  0  3  0  0  0  0  0  0
  -22.7030  -10.2120   20.2400 C   0  0  0  0  0  3  0  0  0  0  0  0
  -21.6840   -6.9100   21.4630 O   0  0  0  0  0  0  0  0  0  0  0  0
  -21.6530   -6.1690   22.6170 C   0  0  0  0  0  0  0  0  0  0  0  0
  -21.2180   -6.7170   23.8440 C   0  0  0  0  0  3  0  0  0  0  0  0
  -21.1340   -5.9000   24.9900 C   0  0  0  0  0  3  0  0  0  0  0  0
  -21.4760   -4.5360   24.9100 C   0  0  0  0  0  0  0  0  0  0  0  0
  -21.9040   -3.9870   23.6870 C   0  0  0  0  0  3  0  0  0  0  0  0
  -21.9900   -4.8010   22.5440 C   0  0  0  0  0  0  0  0  0  0  0  0
  -22.3800   -4.2630   21.3650 F   0  0  0  0  0  0  0  0  0  0  0  0
  -21.3890   -3.7510   26.0080 F   0  0  0  0  0  0  0  0  0  0  0  0
  -22.7070  -13.5610   21.1600 C   0  0  0  0  0  0  0  0  0  0  0  0
  -22.0020  -12.8490   22.0330 N   0  0  0  0  0  0  0  0  0  0  0  0
  -22.2490  -14.5890   20.6610 O   0  0  0  0  0  0  0  0  0  0  0  0
  -22.3830  -12.0190   22.4610 H   0  0  0  0  0  0  0  0  0  0  0  0
  -21.0660  -13.1410   22.2780 H   0  0  0  0  0  0  0  0  0  0  0  0
  -25.2970  -15.2560   20.2780 N   0  0  0  0  0  0  0  0  0  0  0  0
  -24.5250  -15.9020   20.4030 H   0  0  0  0  0  0  0  0  0  0  0  0
  -26.1190  -15.7040   19.8910 H   0  0  0  0  0  0  0  0  0  0  0  0
  -28.6630  -22.2380   20.8310 C   0  0  0  0  0  3  0  0  0  0  0  0
  -29.1110  -23.7340   20.3650 C   0  0  0  0  0  3  0  0  0  0  0  0
  -28.3210  -25.1430   22.3960 C   0  0  0  0  0  1  0  0  0  0  0  0
  -28.2280  -25.0070   20.8670 C   0  0  0  0  0  3  0  0  0  0  0  0
  -28.4560  -26.4070   20.3540 O   0  0  0  0  0  0  0  0  0  0  0  0
  -24.6570  -31.8850   23.2570 C   0  0  0  0  0  0  0  0  0  0  0  0
  -27.3550  -27.2920   20.2960 C   0  0  0  0  0  0  0  0  0  0  0  0
  -23.4980  -30.4720   21.5980 C   0  0  0  0  0  3  0  0  0  0  0  0
  -24.9890  -28.9180   20.2130 C   0  0  0  0  0  0  0  0  0  0  0  0
  -26.0410  -30.7970   21.4680 C   0  0  0  0  0  2  0  0  0  0  0  0
  -26.1440  -29.4120   20.8340 C   0  0  0  0  0  0  0  0  0  0  0  0
  -27.3320  -28.6110   20.8620 C   0  0  0  0  0  3  0  0  0  0  0  0
  -26.1810  -26.8680   19.6370 C   0  0  0  0  0  3  0  0  0  0  0  0
  -25.0130  -27.6550   19.6020 C   0  0  0  0  0  3  0  0  0  0  0  0
  -23.7470  -29.7900   20.2270 C   0  0  0  0  0  2  0  0  0  0  0  0
  -24.7500  -31.0700   22.1650 N   0  0  0  0  0  0  0  0  0  0  0  0
  -23.5600  -32.1580   23.7670 O   0  0  0  0  0  0  0  0  0  0  0  0
  -22.8190  -29.4580   22.5510 C   0  0  0  0  0  0  0  0  0  0  0  0
  -21.4960  -29.2730   22.4010 N   0  0  0  0  0  0  0  0  0  0  0  0
  -23.4840  -28.8390   23.3870 O   0  0  0  0  0  0  0  0  0  0  0  0
  -21.0170  -29.8260   21.7030 H   0  0  0  0  0  0  0  0  0  0  0  0
  -18.1140  -28.0670   22.8510 C   0  0  0  0  0  0  0  0  0  0  0  0
  -20.6680  -28.3360   23.1610 C   0  0  0  0  0  3  0  0  0  0  0  0
  -20.7820  -26.9030   22.5920 C   0  0  0  0  0  2  0  0  0  0  0  0
  -19.7000  -26.5740   21.5600 C   0  0  0  0  0  2  0  0  0  0  0  0
  -18.3060  -26.7170   22.1810 C   0  0  0  0  0  2  0  0  0  0  0  0
  -19.2230  -28.8330   23.2980 C   0  0  0  0  0  0  0  0  0  0  0  0
  -18.9900  -30.0960   23.8830 C   0  0  0  0  0  3  0  0  0  0  0  0
  -17.6820  -30.5940   24.0270 C   0  0  0  0  0  3  0  0  0  0  0  0
  -16.5860  -29.8250   23.5970 C   0  0  0  0  0  3  0  0  0  0  0  0
  -16.8030  -28.5640   23.0140 C   0  0  0  0  0  3  0  0  0  0  0  0
  -25.9200  -32.5320   23.9020 C   0  0  0  0  0  3  0  0  0  0  0  0
  -25.5970  -33.9340   24.2070 N   0  0  0  0  0  0  0  0  0  0  0  0
  -25.9430  -34.9790   23.4430 C   0  0  0  0  0  0  0  0  0  0  0  0
  -26.6360  -34.8660   22.4300 O   0  0  0  0  0  0  0  0  0  0  0  0
  -24.9810  -34.0950   24.9900 H   0  0  0  0  0  0  0  0  0  0  0  0
  -24.2210  -36.7660   23.0310 C   0  0  0  0  0  1  0  0  0  0  0  0
  -25.4430  -36.3720   23.8750 C   0  0  0  0  0  3  0  0  0  0  0  0
  -27.5550  -37.2730   24.7470 C   0  0  0  0  0  1  0  0  0  0  0  0
  -26.4770  -37.4260   23.7740 N   0  0  0  0  0  0  0  0  0  0  0  0
  -26.0650  -38.3470   23.9010 H   0  0  0  0  0  0  0  0  0  0  0  0
  -26.4060  -31.7820   25.2030 C   0  0  1  0  0  0  0  0  0  0  0  0
  -25.2870  -31.5590   26.2470 C   0  0  0  0  0  1  0  0  0  0  0  0
  -27.0020  -30.4000   24.8460 C   0  0  0  0  0  1  0  0  0  0  0  0
  -27.5370  -32.5880   25.8820 C   0  0  0  0  0  1  0  0  0  0  0  0
  1  3  1  0
  3 10  1  0
  3  2  2  0
  4  1  2  0
  4  5  1  0
  5 49  1  0
  5  2  1  0
  7  6  1  0
  7  4  1  0
  8  9  1  0
  9  7  1  0
 11 19  1  0
 12 17  1  0
 13 14  1  0
 13 12  1  0
 15 14  1  0
 15 24  1  0
 15 16  1  0
 17 11  1  0
 17 16  1  0
 18 11  2  0
 19 20  1  0
 19 10  1  0
 21 22  2  0
 22 41  1  0
 23 22  1  0
 23 26  1  0
 24 25  1  0
 24 21  1  0
 25 23  2  0
 26 27  1  0
 27 28  2  0
 29 32  1  0
 29 28  1  0
 30 29  2  0
 31 30  1  0
 31 26  2  0
 32 33  1  0
 33 34  1  0
 34 35  2  0
 36 35  1  0
 36 40  1  0
 37 36  2  0
 38 33  2  0
 38 37  1  0
 39 38  1  0
 41 42  1  0
 42 45  1  0
 42 44  1  0
 43 41  2  0
 46 47  1  0
 46 21  1  0
 48 46  1  0
 50 49  2  0
 50 52  1  0
 52 51  1  0
 53 52  1  0
 54 65  2  0
 55 53  1  0
 55 60  1  0
 56 64  1  0
 56 66  1  0
 57 63  1  0
 57 59  1  0
 58 64  1  0
 59 60  2  0
 59 58  1  0
 61 55  2  0
 62 61  1  0
 62 57  2  0
 63 56  1  0
 64 54  1  0
 66 68  2  0
 67 66  1  0
 69 67  1  0
 70 79  2  0
 70 75  1  0
 71 67  1  0
 71 75  1  0
 72 71  1  0
 73 74  1  0
 73 72  1  0
 74 70  1  0
 75 76  2  0
 76 77  1  0
 78 77  2  0
 79 78  1  0
 80 54  1  0
 80 81  1  0
 80 90  1  0
 81 84  1  0
 82 86  1  0
 82 81  1  0
 83 82  2  0
 86 85  1  0
 88 86  1  0
 88 89  1  0
 88 87  1  0
 90 93  1  1
 90 91  1  0
 92 90  1  0
M  ISO  4  11 100  19 100  52 101  53 101
M  END
>  <TORSDO>  (43) 
F 22

>  <SCORE>  (43) 
-12.943

>  <name>  (43) 
42

>  <ligand_id>  (43) 
42

>  <original_smiles>  (43) 
[H]c1c([H])c([H])c2c(c1[H])C([H])([H])C([H])([H])C([H])([H])C2([H])N([H])C(=O)C1([H])N(C(=O)C([H])(N([H])C(=O)C([H])(N([H])C([H])([H])[H])C([H])([H])[H])C(C([H])([H])[H])(C([H])([H])[H])C([H])([H])[H])C([H])([H])c2c([H])c(OC([H])(C([H])([H])[H])C([H])([H])C([H])([H])n3c([H])c(C([H])([H])N([H])C(=O)N4C([H])([H])C([H])([H])C([H])([H])C([H])(n5nc(-c6c([H])c([H])c(Oc7c([H])c([H])c(F)c([H])c7F)c([H])c6[H])c(C(=O)N([H])[H])c5N([H])[H])C4([H])[H])c([H])c3C([H])(C([H])([H])[H])C([H])([H])C([H])([H])[H])c([H])c([H])c2C1([H])[H]

>  <smiles>  (43) 
[H]c1c([H])c([H])c2c(c1[H])C([H])([H])C([H])([H])C([H])([H])C2([H])N([H])C(=O)C1([H])N(C(=O)C([H])(N([H])C(=O)C([H])(N([H])C([H])([H])[H])C([H])([H])[H])C(C([H])([H])[H])(C([H])([H])[H])C([H])([H])[H])C([H])([H])c2c([H])c(OC([H])(C([H])([H])[H])C([H])([H])C([H])([H])n3c([H])c(C([H])([H])N([H])C(=O)N4C([H])([H])C([H])([H])C([H])([H])C([H])(n5nc(-c6c([H])c([H])c(Oc7c([H])c([H])c(F)c([H])c7F)c([H])c6[H])c(C(=O)N([H])[H])c5N([H])[H])C4([H])[H])c([H])c3C([H])(C([H])([H])[H])C([H])([H])C([H])([H])[H])c([H])c([H])c2C1([H])[H]

$$$$
43:0:0
     RDKit          3D

 94102  0  0  1  0  0  0  0  0999 V2000
  -29.6510  -19.1710   20.0200 C   0  0  0  0  0  3  0  0  0  0  0  0
  -30.6040  -18.6190   20.8650 C   0  0  0  0  0  0  0  0  0  0  0  0
  -30.1020  -20.7530   21.5140 C   0  0  0  0  0  3  0  0  0  0  0  0
  -29.3630  -20.4700   20.4220 N   0  0  0  0  0  0  0  0  0  0  0  0
  -30.8080  -19.6280   21.7940 N   0  0  0  0  0  0  0  0  0  0  0  0
  -31.3980  -19.5290   22.6070 H   0  0  0  0  0  0  0  0  0  0  0  0
  -28.7350  -22.3070   23.0160 C   0  0  0  0  0  1  0  0  0  0  0  0
  -31.2570  -22.1570   23.3090 C   0  0  0  0  0  1  0  0  0  0  0  0
  -30.0810  -22.0350   22.3270 C   0  0  0  0  0  3  0  0  0  0  0  0
  -31.4130  -17.2920   20.7920 C   0  0  0  0  0  2  0  0  0  0  0  0
  -31.3120  -14.8160   20.2960 C   0  0  0  0  0  0  0  0  0  0  0  0
  -30.9600  -12.5770   19.3040 C   0  0  0  0  0  2  0  0  0  0  0  0
  -30.0320  -12.6510   18.0710 C   0  0  0  0  0  2  0  0  0  0  0  0
  -28.5590  -12.5500   18.5040 C   0  0  0  0  0  2  0  0  0  0  0  0
  -28.2060  -13.4960   19.6790 C   0  0  0  0  0  3  0  0  0  0  0  0
  -29.2580  -13.3960   20.8140 C   0  0  0  0  0  2  0  0  0  0  0  0
  -30.5770  -13.6600   20.2300 N   0  0  0  0  0  0  0  0  0  0  0  0
  -32.4490  -14.8530   19.8070 O   0  0  0  0  0  0  0  0  0  0  0  0
  -30.7430  -15.9520   20.7920 N   0  0  0  0  0  0  0  0  0  0  0  0
  -29.8690  -15.8910   21.2880 H   0  0  0  0  0  0  0  0  0  0  0  0
  -25.8330  -14.1980   20.3720 C   0  0  0  0  0  0  0  0  0  0  0  0
  -24.7260  -13.4760   20.7340 C   0  0  0  0  0  0  0  0  0  0  0  0
  -25.1220  -12.1040   20.7000 C   0  0  0  0  0  0  0  0  0  0  0  0
  -26.8400  -13.2710   20.1550 N   0  0  0  0  0  0  0  0  0  0  0  0
  -26.4140  -12.0040   20.4000 N   0  0  0  0  0  0  0  0  0  0  0  0
  -24.3330  -10.8750   20.8820 C   0  0  0  0  0  0  0  0  0  0  0  0
  -24.7190   -9.8790   21.8080 C   0  0  0  0  0  3  0  0  0  0  0  0
  -23.9360   -8.7180   21.9820 C   0  0  0  0  0  3  0  0  0  0  0  0
  -22.7510   -8.5400   21.2310 C   0  0  0  0  0  0  0  0  0  0  0  0
  -22.3810   -9.5210   20.2950 C   0  0  0  0  0  3  0  0  0  0  0  0
  -23.1640  -10.6770   20.1160 C   0  0  0  0  0  3  0  0  0  0  0  0
  -21.9420   -7.4330   21.3180 O   0  0  0  0  0  0  0  0  0  0  0  0
  -21.8670   -6.6810   22.4630 C   0  0  0  0  0  0  0  0  0  0  0  0
  -21.4960   -7.2460   23.7030 C   0  0  0  0  0  3  0  0  0  0  0  0
  -21.3620   -6.4250   24.8390 C   0  0  0  0  0  3  0  0  0  0  0  0
  -21.5950   -5.0420   24.7420 C   0  0  0  0  0  0  0  0  0  0  0  0
  -21.9640   -4.4740   23.5100 C   0  0  0  0  0  3  0  0  0  0  0  0
  -22.0990   -5.2930   22.3720 C   0  0  0  0  0  0  0  0  0  0  0  0
  -22.4310   -4.7370   21.1820 F   0  0  0  0  0  0  0  0  0  0  0  0
  -21.4640   -4.2490   25.8330 F   0  0  0  0  0  0  0  0  0  0  0  0
  -23.3540  -14.0230   21.0080 C   0  0  0  0  0  0  0  0  0  0  0  0
  -22.5990  -13.3650   21.8860 N   0  0  0  0  0  0  0  0  0  0  0  0
  -22.9590  -15.0580   20.4780 O   0  0  0  0  0  0  0  0  0  0  0  0
  -22.9240  -12.5260   22.3390 H   0  0  0  0  0  0  0  0  0  0  0  0
  -21.6790  -13.7130   22.1130 H   0  0  0  0  0  0  0  0  0  0  0  0
  -26.0710  -15.5550   20.1850 N   0  0  0  0  0  0  0  0  0  0  0  0
  -25.3650  -16.2800   20.2580 H   0  0  0  0  0  0  0  0  0  0  0  0
  -26.9450  -15.9010   19.8100 H   0  0  0  0  0  0  0  0  0  0  0  0
  -28.2870  -21.3780   19.8640 C   0  0  0  0  0  2  0  0  0  0  0  0
  -30.0390  -22.7290   18.4610 C   0  0  0  0  0  1  0  0  0  0  0  0
  -28.6280  -22.7190   19.0750 C   0  0  0  0  0  3  0  0  0  0  0  0
  -28.2600  -24.0950   19.7800 C   0  0  0  0  0  3  0  0  0  0  0  0
  -28.3670  -25.4320   18.9310 C   0  0  0  0  0  3  0  0  0  0  0  0
  -28.2340  -26.6930   19.6430 O   0  0  0  0  0  0  0  0  0  0  0  0
  -24.4420  -31.6610   23.1330 C   0  0  0  0  0  0  0  0  0  0  0  0
  -27.0410  -27.4060   19.7060 C   0  0  0  0  0  0  0  0  0  0  0  0
  -23.1980  -30.3350   21.4640 C   0  0  0  0  0  3  0  0  0  0  0  0
  -24.6210  -28.9070   19.8880 C   0  0  0  0  0  0  0  0  0  0  0  0
  -25.7150  -30.7360   21.1920 C   0  0  0  0  0  2  0  0  0  0  0  0
  -25.7940  -29.4030   20.4730 C   0  0  0  0  0  0  0  0  0  0  0  0
  -26.9980  -28.6590   20.3750 C   0  0  0  0  0  3  0  0  0  0  0  0
  -25.8390  -26.9310   19.1360 C   0  0  0  0  0  3  0  0  0  0  0  0
  -24.6420  -27.6700   19.2250 C   0  0  0  0  0  3  0  0  0  0  0  0
  -23.3580  -29.7410   20.0410 C   0  0  0  0  0  2  0  0  0  0  0  0
  -24.4750  -30.9290   21.9850 N   0  0  0  0  0  0  0  0  0  0  0  0
  -23.3840  -31.8710   23.7400 O   0  0  0  0  0  0  0  0  0  0  0  0
  -22.6090  -29.2450   22.3890 C   0  0  0  0  0  0  0  0  0  0  0  0
  -21.2950  -29.0070   22.2650 N   0  0  0  0  0  0  0  0  0  0  0  0
  -23.3340  -28.6150   23.1640 O   0  0  0  0  0  0  0  0  0  0  0  0
  -20.7770  -29.5220   21.5670 H   0  0  0  0  0  0  0  0  0  0  0  0
  -17.9850  -27.6470   22.7620 C   0  0  0  0  0  0  0  0  0  0  0  0
  -20.5340  -28.0100   23.0110 C   0  0  0  0  0  3  0  0  0  0  0  0
  -20.6960  -26.6010   22.3910 C   0  0  0  0  0  2  0  0  0  0  0  0
  -19.5930  -26.2660   21.3810 C   0  0  0  0  0  2  0  0  0  0  0  0
  -18.2190  -26.3340   22.0440 C   0  0  0  0  0  2  0  0  0  0  0  0
  -19.0710  -28.4430   23.2050 C   0  0  0  0  0  0  0  0  0  0  0  0
  -18.8060  -29.6820   23.8240 C   0  0  0  0  0  3  0  0  0  0  0  0
  -17.4820  -30.1190   24.0150 C   0  0  0  0  0  3  0  0  0  0  0  0
  -16.4040  -29.3150   23.5970 C   0  0  0  0  0  3  0  0  0  0  0  0
  -16.6570  -28.0770   22.9800 C   0  0  0  0  0  3  0  0  0  0  0  0
  -25.7420  -32.2880   23.7410 C   0  0  0  0  0  3  0  0  0  0  0  0
  -25.4260  -33.6650   24.1420 N   0  0  0  0  0  0  0  0  0  0  0  0
  -25.7240  -34.7560   23.4230 C   0  0  0  0  0  0  0  0  0  0  0  0
  -26.3700  -34.7120   22.3710 O   0  0  0  0  0  0  0  0  0  0  0  0
  -24.8620  -33.7710   24.9740 H   0  0  0  0  0  0  0  0  0  0  0  0
  -23.9520  -36.5230   23.2010 C   0  0  0  0  0  1  0  0  0  0  0  0
  -25.2310  -36.1190   23.9520 C   0  0  0  0  0  3  0  0  0  0  0  0
  -27.3810  -37.0050   24.7380 C   0  0  0  0  0  1  0  0  0  0  0  0
  -26.2440  -37.1910   23.8380 N   0  0  0  0  0  0  0  0  0  0  0  0
  -25.8330  -38.1000   24.0320 H   0  0  0  0  0  0  0  0  0  0  0  0
  -26.3150  -31.4730   24.9630 C   0  0  1  0  0  0  0  0  0  0  0  0
  -25.2670  -31.1770   26.0600 C   0  0  0  0  0  1  0  0  0  0  0  0
  -26.9000  -30.1190   24.4990 C   0  0  0  0  0  1  0  0  0  0  0  0
  -27.4880  -32.2440   25.6140 C   0  0  0  0  0  1  0  0  0  0  0  0
  1  4  1  0
  1  2  2  0
  2  5  1  0
  3  5  1  0
  3  9  1  0
  4  3  1  0
  5  6  1  0
  9  7  1  0
  9  8  1  0
 10  2  1  0
 11 19  1  0
 12 17  1  0
 13 14  1  0
 13 12  1  0
 15 14  1  0
 15 24  1  0
 15 16  1  0
 17 11  1  0
 17 16  1  0
 18 11  2  0
 19 10  1  0
 19 20  1  0
 21 22  2  0
 22 41  1  0
 23 22  1  0
 23 26  1  0
 24 21  1  0
 24 25  1  0
 25 23  2  0
 26 27  1  0
 27 28  2  0
 29 32  1  0
 29 28  1  0
 30 29  2  0
 31 30  1  0
 31 26  2  0
 32 33  1  0
 33 34  1  0
 34 35  2  0
 36 35  1  0
 36 40  1  0
 37 36  2  0
 38 33  2  0
 38 37  1  0
 39 38  1  0
 41 42  1  0
 42 45  1  0
 42 44  1  0
 43 41  2  0
 46 47  1  0
 46 21  1  0
 48 46  1  0
 49  4  1  0
 51 50  1  0
 51 52  1  0
 51 49  1  0
 53 54  1  0
 53 52  2  0
 54 56  1  0
 55 66  2  0
 56 61  1  0
 57 65  1  0
 57 67  1  0
 58 64  1  0
 58 60  1  0
 59 65  1  0
 60 59  1  0
 61 60  2  0
 62 63  1  0
 62 56  2  0
 63 58  2  0
 64 57  1  0
 65 55  1  0
 67 69  2  0
 68 67  1  0
 70 68  1  0
 71 80  2  0
 71 76  1  0
 72 68  1  0
 72 76  1  0
 73 72  1  0
 74 75  1  0
 74 73  1  0
 75 71  1  0
 76 77  2  0
 77 78  1  0
 79 78  2  0
 80 79  1  0
 81 55  1  0
 81 82  1  0
 81 91  1  0
 82 85  1  0
 83 87  1  0
 83 82  1  0
 84 83  2  0
 87 86  1  0
 89 87  1  0
 89 90  1  0
 89 88  1  0
 91 94  1  1
 91 92  1  0
 93 91  1  0
M  ISO  4  11 100  19 100  53 101  54 101
M  END
>  <TORSDO>  (44) 
F 22

>  <SCORE>  (44) 
-11.985

>  <name>  (44) 
43

>  <ligand_id>  (44) 
43

>  <original_smiles>  (44) 
[H]c1c([H])c([H])c2c(c1[H])C([H])([H])C([H])([H])C([H])([H])C2([H])N([H])C(=O)C1([H])N(C(=O)C([H])(N([H])C(=O)C([H])(N([H])C([H])([H])[H])C([H])([H])[H])C(C([H])([H])[H])(C([H])([H])[H])C([H])([H])[H])C([H])([H])c2c([H])c(OC([H])([H])C([H])([H])C([H])(C([H])([H])[H])C([H])([H])n3c([H])c(C([H])([H])N([H])C(=O)N4C([H])([H])C([H])([H])C([H])([H])C([H])(n5nc(-c6c([H])c([H])c(Oc7c([H])c([H])c(F)c([H])c7F)c([H])c6[H])c(C(=O)N([H])[H])c5N([H])[H])C4([H])[H])[n+]([H])c3C([H])(C([H])([H])[H])C([H])([H])[H])c([H])c([H])c2C1([H])[H]

>  <smiles>  (44) 
[H]c1c([H])c([H])c2c(c1[H])C([H])([H])C([H])([H])C([H])([H])C2([H])N([H])C(=O)C1([H])N(C(=O)C([H])(N([H])C(=O)C([H])(N([H])C([H])([H])[H])C([H])([H])[H])C(C([H])([H])[H])(C([H])([H])[H])C([H])([H])[H])C([H])([H])c2c([H])c(OC([H])([H])C([H])([H])C([H])(C([H])([H])[H])C([H])([H])n3c([H])c(C([H])([H])N([H])C(=O)N4C([H])([H])C([H])([H])C([H])([H])C([H])(n5nc(-c6c([H])c([H])c(Oc7c([H])c([H])c(F)c([H])c7F)c([H])c6[H])c(C(=O)N([H])[H])c5N([H])[H])C4([H])[H])[n+]([H])c3C([H])(C([H])([H])[H])C([H])([H])[H])c([H])c([H])c2C1([H])[H]

$$$$
44:0:0
     RDKit          3D

 93101  0  0  1  0  0  0  0  0999 V2000
  -29.4060  -21.1610   19.5890 C   0  0  0  0  0  2  0  0  0  0  0  0
  -29.0490  -20.3770   17.1450 C   0  0  0  0  0  3  0  0  0  0  0  0
  -28.7940  -19.1090   16.5620 C   0  0  0  0  0  0  0  0  0  0  0  0
  -29.1400  -20.1490   18.4920 C   0  0  0  0  0  0  0  0  0  0  0  0
  -28.5860  -18.7630   15.1160 C   0  0  0  0  0  1  0  0  0  0  0  0
  -28.7660  -18.1530   17.4700 N   0  0  0  0  0  0  0  0  0  0  0  0
  -29.0100  -18.7630   18.6540 N   0  0  0  0  0  0  0  0  0  0  0  0
  -29.0880  -17.8900   19.8300 C   0  0  0  0  0  2  0  0  0  0  0  0
  -30.3170  -16.9320   19.7900 C   0  0  0  0  0  2  0  0  0  0  0  0
  -30.7790  -14.5230   19.9760 C   0  0  0  0  0  0  0  0  0  0  0  0
  -30.4310  -12.3480   18.8530 C   0  0  0  0  0  2  0  0  0  0  0  0
  -29.4440  -12.5260   17.6820 C   0  0  0  0  0  2  0  0  0  0  0  0
  -27.9850  -12.3860   18.1650 C   0  0  0  0  0  2  0  0  0  0  0  0
  -27.6950  -13.2360   19.4320 C   0  0  0  0  0  3  0  0  0  0  0  0
  -28.7930  -13.0260   20.4950 C   0  0  0  0  0  2  0  0  0  0  0  0
  -30.0880  -13.3500   19.8790 N   0  0  0  0  0  0  0  0  0  0  0  0
  -31.8710  -14.6730   19.4170 O   0  0  0  0  0  0  0  0  0  0  0  0
  -29.8540  -15.7500   21.8880 C   0  0  0  0  0  1  0  0  0  0  0  0
  -30.1080  -15.6140   20.4490 N   0  0  0  0  0  0  0  0  0  0  0  0
  -25.3240  -13.8390   20.2290 C   0  0  0  0  0  0  0  0  0  0  0  0
  -24.2780  -13.0680   20.6580 C   0  0  0  0  0  0  0  0  0  0  0  0
  -24.7470  -11.7190   20.6350 C   0  0  0  0  0  0  0  0  0  0  0  0
  -26.3640  -12.9610   19.9710 N   0  0  0  0  0  0  0  0  0  0  0  0
  -26.0240  -11.6820   20.2740 N   0  0  0  0  0  0  0  0  0  0  0  0
  -24.0370  -10.4560   20.8790 C   0  0  0  0  0  0  0  0  0  0  0  0
  -24.4760   -9.5430   21.8630 C   0  0  0  0  0  3  0  0  0  0  0  0
  -23.7660   -8.3440   22.0950 C   0  0  0  0  0  3  0  0  0  0  0  0
  -22.6040   -8.0490   21.3410 C   0  0  0  0  0  0  0  0  0  0  0  0
  -22.1850   -8.9520   20.3480 C   0  0  0  0  0  3  0  0  0  0  0  0
  -22.8960  -10.1420   20.1150 C   0  0  0  0  0  3  0  0  0  0  0  0
  -21.8650   -6.8990   21.4790 O   0  0  0  0  0  0  0  0  0  0  0  0
  -21.7790   -6.2390   22.6790 C   0  0  0  0  0  0  0  0  0  0  0  0
  -21.2880   -6.8690   23.8430 C   0  0  0  0  0  3  0  0  0  0  0  0
  -21.1490   -6.1320   25.0370 C   0  0  0  0  0  3  0  0  0  0  0  0
  -21.4920   -4.7670   25.0660 C   0  0  0  0  0  0  0  0  0  0  0  0
  -21.9760   -4.1380   23.9060 C   0  0  0  0  0  3  0  0  0  0  0  0
  -22.1160   -4.8710   22.7150 C   0  0  0  0  0  0  0  0  0  0  0  0
  -22.5620   -4.2530   21.5950 F   0  0  0  0  0  0  0  0  0  0  0  0
  -21.3530   -4.0580   26.2110 F   0  0  0  0  0  0  0  0  0  0  0  0
  -22.8880  -13.5420   20.9750 C   0  0  0  0  0  0  0  0  0  0  0  0
  -22.2070  -12.8750   21.9010 N   0  0  0  0  0  0  0  0  0  0  0  0
  -22.4150  -14.5390   20.4310 O   0  0  0  0  0  0  0  0  0  0  0  0
  -22.6030  -12.0690   22.3640 H   0  0  0  0  0  0  0  0  0  0  0  0
  -21.2760  -13.1740   22.1490 H   0  0  0  0  0  0  0  0  0  0  0  0
  -25.4730  -15.2060   20.0170 N   0  0  0  0  0  0  0  0  0  0  0  0
  -24.7120  -15.8620   20.1490 H   0  0  0  0  0  0  0  0  0  0  0  0
  -26.3060  -15.6370   19.6370 H   0  0  0  0  0  0  0  0  0  0  0  0
  -28.1730  -21.8860   20.2060 C   0  0  0  0  0  2  0  0  0  0  0  0
  -26.9700  -22.7960   18.1050 C   0  0  0  0  0  1  0  0  0  0  0  0
  -27.5440  -23.1300   19.4900 C   0  0  0  0  0  3  0  0  0  0  0  0
  -28.3980  -24.4360   19.4280 C   0  0  0  0  0  2  0  0  0  0  0  0
  -28.3340  -25.3510   20.6800 C   0  0  0  0  0  2  0  0  0  0  0  0
  -28.4910  -26.7580   20.3840 O   0  0  0  0  0  0  0  0  0  0  0  0
  -24.6730  -31.9870   23.3760 C   0  0  0  0  0  0  0  0  0  0  0  0
  -27.3320  -27.5120   20.3450 C   0  0  0  0  0  0  0  0  0  0  0  0
  -23.4820  -30.5840   21.7260 C   0  0  0  0  0  3  0  0  0  0  0  0
  -24.9450  -29.0380   20.3200 C   0  0  0  0  0  0  0  0  0  0  0  0
  -26.0130  -30.9330   21.5530 C   0  0  0  0  0  2  0  0  0  0  0  0
  -26.1010  -29.5610   20.9130 C   0  0  0  0  0  0  0  0  0  0  0  0
  -27.2990  -28.8080   20.9150 C   0  0  0  0  0  3  0  0  0  0  0  0
  -26.1570  -27.0090   19.7430 C   0  0  0  0  0  3  0  0  0  0  0  0
  -24.9690  -27.7650   19.7280 C   0  0  0  0  0  3  0  0  0  0  0  0
  -23.7030  -29.9020   20.3500 C   0  0  0  0  0  2  0  0  0  0  0  0
  -24.7410  -31.1830   22.2770 N   0  0  0  0  0  0  0  0  0  0  0  0
  -23.5860  -32.2620   23.9020 O   0  0  0  0  0  0  0  0  0  0  0  0
  -22.8170  -29.5670   22.6830 C   0  0  0  0  0  0  0  0  0  0  0  0
  -21.5000  -29.3570   22.5130 N   0  0  0  0  0  0  0  0  0  0  0  0
  -23.4840  -28.9680   23.5310 O   0  0  0  0  0  0  0  0  0  0  0  0
  -21.0240  -29.8910   21.8010 H   0  0  0  0  0  0  0  0  0  0  0  0
  -18.1360  -28.1020   22.9120 C   0  0  0  0  0  0  0  0  0  0  0  0
  -20.6740  -28.4180   23.2730 C   0  0  0  0  0  3  0  0  0  0  0  0
  -20.8290  -26.9790   22.7290 C   0  0  0  0  0  2  0  0  0  0  0  0
  -19.7730  -26.6130   21.6800 C   0  0  0  0  0  2  0  0  0  0  0  0
  -18.3650  -26.7430   22.2700 C   0  0  0  0  0  2  0  0  0  0  0  0
  -19.2210  -28.8950   23.3660 C   0  0  0  0  0  0  0  0  0  0  0  0
  -18.9570  -30.1660   23.9220 C   0  0  0  0  0  3  0  0  0  0  0  0
  -17.6370  -30.6450   24.0270 C   0  0  0  0  0  3  0  0  0  0  0  0
  -16.5640  -29.8490   23.5890 C   0  0  0  0  0  3  0  0  0  0  0  0
  -16.8130  -28.5790   23.0380 C   0  0  0  0  0  3  0  0  0  0  0  0
  -25.9540  -32.6170   24.0090 C   0  0  0  0  0  3  0  0  0  0  0  0
  -25.6440  -34.0160   24.3320 N   0  0  0  0  0  0  0  0  0  0  0  0
  -25.9960  -35.0670   23.5790 C   0  0  0  0  0  0  0  0  0  0  0  0
  -26.6860  -34.9600   22.5600 O   0  0  0  0  0  0  0  0  0  0  0  0
  -25.0380  -34.1750   25.1230 H   0  0  0  0  0  0  0  0  0  0  0  0
  -24.2910  -36.8710   23.1740 C   0  0  0  0  0  1  0  0  0  0  0  0
  -25.5030  -36.4560   24.0240 C   0  0  0  0  0  3  0  0  0  0  0  0
  -27.6150  -37.3240   24.9260 C   0  0  0  0  0  1  0  0  0  0  0  0
  -26.5450  -37.5040   23.9490 N   0  0  0  0  0  0  0  0  0  0  0  0
  -26.1400  -38.4260   24.0860 H   0  0  0  0  0  0  0  0  0  0  0  0
  -26.4580  -31.8470   25.2910 C   0  0  1  0  0  0  0  0  0  0  0  0
  -25.3510  -31.6010   26.3430 C   0  0  0  0  0  1  0  0  0  0  0  0
  -27.0530  -30.4750   24.9020 C   0  0  0  0  0  1  0  0  0  0  0  0
  -27.5960  -32.6450   25.9690 C   0  0  0  0  0  1  0  0  0  0  0  0
  1 48  1  0
  2  4  2  0
  3  2  1  0
  3  6  2  0
  4  7  1  0
  4  1  1  0
  5  3  1  0
  6  7  1  0
  7  8  1  0
  9  8  1  0
  9 19  1  0
 10 19  1  0
 11 16  1  0
 12 13  1  0
 12 11  1  0
 14 13  1  0
 14 23  1  0
 14 15  1  0
 16 10  1  0
 16 15  1  0
 17 10  2  0
 19 18  1  0
 20 21  2  0
 21 40  1  0
 22 21  1  0
 22 25  1  0
 23 20  1  0
 23 24  1  0
 24 22  2  0
 25 26  1  0
 26 27  2  0
 28 31  1  0
 28 27  1  0
 29 28  2  0
 30 29  1  0
 30 25  2  0
 31 32  1  0
 32 37  2  0
 32 33  1  0
 33 34  2  0
 34 35  1  0
 35 39  1  0
 36 35  2  0
 37 36  1  0
 38 37  1  0
 40 41  1  0
 41 44  1  0
 41 43  1  0
 42 40  2  0
 45 46  1  0
 45 20  1  0
 47 45  1  0
 50 49  1  0
 50 48  1  0
 51 50  1  0
 51 52  1  0
 53 52  1  0
 54 65  2  0
 55 53  1  0
 55 60  1  0
 56 64  1  0
 56 66  1  0
 57 63  1  0
 57 59  1  0
 58 64  1  0
 59 60  2  0
 59 58  1  0
 61 55  2  0
 62 61  1  0
 62 57  2  0
 63 56  1  0
 64 54  1  0
 66 68  2  0
 67 66  1  0
 69 67  1  0
 70 79  2  0
 70 75  1  0
 71 67  1  0
 71 75  1  0
 72 71  1  0
 73 74  1  0
 73 72  1  0
 74 70  1  0
 75 76  2  0
 76 77  1  0
 78 77  2  0
 79 78  1  0
 80 54  1  0
 80 81  1  0
 80 90  1  0
 81 84  1  0
 82 86  1  0
 82 81  1  0
 83 82  2  0
 86 85  1  0
 88 86  1  0
 88 89  1  0
 88 87  1  0
 90 93  1  1
 90 91  1  0
 92 90  1  0
M  ISO  4  10 100  19 100  52 101  53 101
M  END
>  <TORSDO>  (45) 
F 23

>  <SCORE>  (45) 
-12.273

>  <name>  (45) 
44

>  <ligand_id>  (45) 
44

>  <original_smiles>  (45) 
[H]c1c([H])c([H])c2c(c1[H])C([H])([H])C([H])([H])C([H])([H])C2([H])N([H])C(=O)C1([H])N(C(=O)C([H])(N([H])C(=O)C([H])(N([H])C([H])([H])[H])C([H])([H])[H])C(C([H])([H])[H])(C([H])([H])[H])C([H])([H])[H])C([H])([H])c2c([H])c(OC([H])([H])C([H])([H])C([H])(C([H])([H])[H])C([H])([H])C([H])([H])c3c([H])c(C([H])([H])[H])nn3C([H])([H])C([H])([H])N(C(=O)N3C([H])([H])C([H])([H])C([H])([H])C([H])(n4nc(-c5c([H])c([H])c(Oc6c([H])c([H])c(F)c([H])c6F)c([H])c5[H])c(C(=O)N([H])[H])c4N([H])[H])C3([H])[H])C([H])([H])[H])c([H])c([H])c2C1([H])[H]

>  <smiles>  (45) 
[H]c1c([H])c([H])c2c(c1[H])C([H])([H])C([H])([H])C([H])([H])C2([H])N([H])C(=O)C1([H])N(C(=O)C([H])(N([H])C(=O)C([H])(N([H])C([H])([H])[H])C([H])([H])[H])C(C([H])([H])[H])(C([H])([H])[H])C([H])([H])[H])C([H])([H])c2c([H])c(OC([H])([H])C([H])([H])C([H])(C([H])([H])[H])C([H])([H])C([H])([H])c3c([H])c(C([H])([H])[H])nn3C([H])([H])C([H])([H])N(C(=O)N3C([H])([H])C([H])([H])C([H])([H])C([H])(n4nc(-c5c([H])c([H])c(Oc6c([H])c([H])c(F)c([H])c6F)c([H])c5[H])c(C(=O)N([H])[H])c4N([H])[H])C3([H])[H])C([H])([H])[H])c([H])c([H])c2C1([H])[H]

$$$$
45:0:0
     RDKit          3D

 95103  0  0  1  0  0  0  0  0999 V2000
  -29.8960  -18.2320   21.5620 C   0  0  0  0  0  2  0  0  0  0  0  0
  -32.7430  -19.3420   19.6450 C   0  0  0  0  0  2  0  0  0  0  0  0
  -31.5400  -20.2530   21.5530 C   0  0  0  0  0  2  0  0  0  0  0  0
  -32.4980  -17.8720   19.2510 C   0  0  0  0  0  2  0  0  0  0  0  0
  -30.1690  -19.6920   21.0970 C   0  0  0  0  0  3  0  0  0  0  0  0
  -30.8050  -17.1100   20.9540 C   0  0  0  0  0  3  0  0  0  0  0  0
  -32.6940  -19.4860   21.0970 N   0  0  0  0  0  0  0  0  0  0  0  0
  -31.1220  -17.3950   19.5250 N   0  0  0  0  0  4  0  0  0  0  0  0
  -33.5280  -19.9860   21.3970 H   0  0  0  0  0  0  0  0  0  0  0  0
  -31.0570  -16.5200   19.0310 H   0  0  0  0  0  0  0  0  0  0  0  0
  -30.4500  -18.0310   19.1300 H   0  0  0  0  0  0  0  0  0  0  0  0
  -30.1620  -15.6940   21.1420 C   0  0  0  0  0  2  0  0  0  0  0  0
  -30.8160  -14.5250   20.3630 C   0  0  0  0  0  0  0  0  0  0  0  0
  -30.4800  -12.4150   19.1200 C   0  0  0  0  0  2  0  0  0  0  0  0
  -29.5150  -12.6540   17.9390 C   0  0  0  0  0  2  0  0  0  0  0  0
  -28.0480  -12.5200   18.3930 C   0  0  0  0  0  2  0  0  0  0  0  0
  -27.7430  -13.3320   19.6810 C   0  0  0  0  0  3  0  0  0  0  0  0
  -28.8130  -13.0660   20.7640 C   0  0  0  0  0  2  0  0  0  0  0  0
  -30.1320  -13.3640   20.1870 N   0  0  0  0  0  0  0  0  0  0  0  0
  -31.9020  -14.7290   19.8100 O   0  0  0  0  0  0  0  0  0  0  0  0
  -25.3560  -13.9550   20.4190 C   0  0  0  0  0  0  0  0  0  0  0  0
  -24.2890  -13.1870   20.8030 C   0  0  0  0  0  0  0  0  0  0  0  0
  -24.7430  -11.8340   20.7660 C   0  0  0  0  0  0  0  0  0  0  0  0
  -26.3930  -13.0680   20.1750 N   0  0  0  0  0  0  0  0  0  0  0  0
  -26.0280  -11.7880   20.4390 N   0  0  0  0  0  0  0  0  0  0  0  0
  -24.0160  -10.5740   20.9660 C   0  0  0  0  0  0  0  0  0  0  0  0
  -24.4390   -9.6190   21.9150 C   0  0  0  0  0  3  0  0  0  0  0  0
  -23.7120   -8.4250   22.1030 C   0  0  0  0  0  3  0  0  0  0  0  0
  -22.5460   -8.1760   21.3390 C   0  0  0  0  0  0  0  0  0  0  0  0
  -22.1420   -9.1200   20.3780 C   0  0  0  0  0  3  0  0  0  0  0  0
  -22.8700  -10.3070   20.1890 C   0  0  0  0  0  3  0  0  0  0  0  0
  -21.7910   -7.0310   21.4330 O   0  0  0  0  0  0  0  0  0  0  0  0
  -21.7170   -6.3140   22.6000 C   0  0  0  0  0  0  0  0  0  0  0  0
  -21.2390   -6.8860   23.7980 C   0  0  0  0  0  3  0  0  0  0  0  0
  -21.1130   -6.0930   24.9570 C   0  0  0  0  0  3  0  0  0  0  0  0
  -21.4540   -4.7290   24.9180 C   0  0  0  0  0  0  0  0  0  0  0  0
  -21.9260   -4.1550   23.7230 C   0  0  0  0  0  3  0  0  0  0  0  0
  -22.0530   -4.9450   22.5670 C   0  0  0  0  0  0  0  0  0  0  0  0
  -22.4880   -4.3830   21.4130 F   0  0  0  0  0  0  0  0  0  0  0  0
  -21.3270   -3.9650   26.0270 F   0  0  0  0  0  0  0  0  0  0  0  0
  -22.8970  -13.6700   21.0950 C   0  0  0  0  0  0  0  0  0  0  0  0
  -22.1800  -12.9780   21.9730 N   0  0  0  0  0  0  0  0  0  0  0  0
  -22.4560  -14.6970   20.5800 O   0  0  0  0  0  0  0  0  0  0  0  0
  -22.5500  -12.1470   22.4110 H   0  0  0  0  0  0  0  0  0  0  0  0
  -21.2480  -13.2850   22.2110 H   0  0  0  0  0  0  0  0  0  0  0  0
  -25.5240  -15.3250   20.2390 N   0  0  0  0  0  0  0  0  0  0  0  0
  -24.7590  -15.9800   20.3570 H   0  0  0  0  0  0  0  0  0  0  0  0
  -26.3690  -15.7630   19.8940 H   0  0  0  0  0  0  0  0  0  0  0  0
  -29.0630  -20.6900   21.5200 C   0  0  0  0  0  2  0  0  0  0  0  0
  -28.0320  -21.5960   19.3790 C   0  0  0  0  0  1  0  0  0  0  0  0
  -28.9680  -21.9080   20.5610 C   0  0  0  0  0  3  0  0  0  0  0  0
  -28.5800  -23.2120   21.2920 C   0  0  0  0  0  2  0  0  0  0  0  0
  -28.6240  -24.4570   20.3780 C   0  0  0  0  0  2  0  0  0  0  0  0
  -28.6150  -25.7890   21.1470 C   0  0  0  0  0  2  0  0  0  0  0  0
  -28.6590  -26.8990   20.2440 O   0  0  0  0  0  0  0  0  0  0  0  0
  -24.6370  -31.8990   23.2600 C   0  0  0  0  0  0  0  0  0  0  0  0
  -27.4870  -27.6080   20.1920 C   0  0  0  0  0  0  0  0  0  0  0  0
  -23.5170  -30.4980   21.5520 C   0  0  0  0  0  3  0  0  0  0  0  0
  -25.0580  -29.0320   20.1410 C   0  0  0  0  0  0  0  0  0  0  0  0
  -26.0340  -30.9360   21.4360 C   0  0  0  0  0  2  0  0  0  0  0  0
  -26.1790  -29.5830   20.7760 C   0  0  0  0  0  0  0  0  0  0  0  0
  -27.4000  -28.8760   20.8010 C   0  0  0  0  0  3  0  0  0  0  0  0
  -26.3600  -27.0660   19.5460 C   0  0  0  0  0  3  0  0  0  0  0  0
  -25.1420  -27.7720   19.5210 C   0  0  0  0  0  3  0  0  0  0  0  0
  -23.7870  -29.8510   20.1650 C   0  0  0  0  0  2  0  0  0  0  0  0
  -24.7460  -31.1240   22.1430 N   0  0  0  0  0  0  0  0  0  0  0  0
  -23.5320  -32.1330   23.7720 O   0  0  0  0  0  0  0  0  0  0  0  0
  -22.8670  -29.4410   22.4710 C   0  0  0  0  0  0  0  0  0  0  0  0
  -21.5520  -29.2330   22.3020 N   0  0  0  0  0  0  0  0  0  0  0  0
  -23.5430  -28.8120   23.2910 O   0  0  0  0  0  0  0  0  0  0  0  0
  -21.0690  -29.7980   21.6180 H   0  0  0  0  0  0  0  0  0  0  0  0
  -18.1900  -27.9710   22.6850 C   0  0  0  0  0  0  0  0  0  0  0  0
  -20.7350  -28.2620   23.0260 C   0  0  0  0  0  3  0  0  0  0  0  0
  -20.8760  -26.8500   22.4130 C   0  0  0  0  0  2  0  0  0  0  0  0
  -19.8040  -26.5360   21.3640 C   0  0  0  0  0  2  0  0  0  0  0  0
  -18.4040  -26.6430   21.9780 C   0  0  0  0  0  2  0  0  0  0  0  0
  -19.2860  -28.7370   23.1620 C   0  0  0  0  0  0  0  0  0  0  0  0
  -19.0340  -29.9810   23.7830 C   0  0  0  0  0  3  0  0  0  0  0  0
  -17.7190  -30.4600   23.9290 C   0  0  0  0  0  3  0  0  0  0  0  0
  -16.6370  -29.6900   23.4690 C   0  0  0  0  0  3  0  0  0  0  0  0
  -16.8720  -28.4470   22.8540 C   0  0  0  0  0  3  0  0  0  0  0  0
  -25.8880  -32.5460   23.9310 C   0  0  0  0  0  3  0  0  0  0  0  0
  -25.5600  -33.9480   24.2170 N   0  0  0  0  0  0  0  0  0  0  0  0
  -25.9230  -34.9850   23.4510 C   0  0  0  0  0  0  0  0  0  0  0  0
  -26.6430  -34.8640   22.4560 O   0  0  0  0  0  0  0  0  0  0  0  0
  -24.9280  -34.1160   24.9860 H   0  0  0  0  0  0  0  0  0  0  0  0
  -24.2050  -36.7610   22.9730 C   0  0  0  0  0  1  0  0  0  0  0  0
  -25.4060  -36.3800   23.8540 C   0  0  0  0  0  3  0  0  0  0  0  0
  -27.4870  -37.2990   24.7760 C   0  0  0  0  0  1  0  0  0  0  0  0
  -26.4370  -37.4360   23.7710 N   0  0  0  0  0  0  0  0  0  0  0  0
  -26.0190  -38.3570   23.8730 H   0  0  0  0  0  0  0  0  0  0  0  0
  -26.3490  -31.8000   25.2440 C   0  0  1  0  0  0  0  0  0  0  0  0
  -25.2080  -31.5740   26.2630 C   0  0  0  0  0  1  0  0  0  0  0  0
  -26.9600  -30.4200   24.9020 C   0  0  0  0  0  1  0  0  0  0  0  0
  -27.4620  -32.6140   25.9480 C   0  0  0  0  0  1  0  0  0  0  0  0
  2  7  1  0
  4  8  1  0
  4  2  1  0
  5 49  1  0
  5  3  1  0
  5  1  1  0
  6 12  1  0
  6  1  1  0
  7  9  1  0
  7  3  1  0
  8  6  1  0
 10  8  1  0
 11  8  1  0
 13 12  1  0
 14 19  1  0
 15 16  1  0
 15 14  1  0
 17 16  1  0
 17 24  1  0
 17 18  1  0
 19 13  1  0
 19 18  1  0
 20 13  2  0
 21 22  2  0
 22 41  1  0
 23 22  1  0
 23 26  1  0
 24 21  1  0
 24 25  1  0
 25 23  2  0
 26 27  1  0
 27 28  2  0
 29 32  1  0
 29 28  1  0
 30 29  2  0
 31 30  1  0
 31 26  2  0
 32 33  1  0
 33 34  1  0
 34 35  2  0
 36 35  1  0
 36 40  1  0
 37 36  2  0
 38 33  2  0
 38 37  1  0
 39 38  1  0
 41 42  1  0
 42 45  1  0
 42 44  1  0
 43 41  2  0
 46 47  1  0
 46 21  1  0
 48 46  1  0
 51 50  1  0
 51 52  1  0
 51 49  1  0
 53 54  1  0
 53 52  1  0
 55 54  1  0
 56 67  2  0
 57 55  1  0
 57 62  1  0
 58 66  1  0
 58 68  1  0
 59 65  1  0
 59 61  1  0
 60 66  1  0
 61 62  2  0
 61 60  1  0
 63 57  2  0
 64 63  1  0
 64 59  2  0
 65 58  1  0
 66 56  1  0
 68 70  2  0
 69 68  1  0
 71 69  1  0
 72 81  2  0
 72 77  1  0
 73 69  1  0
 73 77  1  0
 74 73  1  0
 75 76  1  0
 75 74  1  0
 76 72  1  0
 77 78  2  0
 78 79  1  0
 80 79  2  0
 81 80  1  0
 82 56  1  0
 82 83  1  0
 82 92  1  0
 83 86  1  0
 84 88  1  0
 84 83  1  0
 85 84  2  0
 88 87  1  0
 90 88  1  0
 90 91  1  0
 90 89  1  0
 92 95  1  1
 92 93  1  0
 94 92  1  0
M  ISO  4  12 100  13 100  54 101  55 101
M  END
>  <TORSDO>  (46) 
F 22

>  <SCORE>  (46) 
-12.994

>  <name>  (46) 
45

>  <ligand_id>  (46) 
45

>  <original_smiles>  (46) 
[H]c1c([H])c([H])c2c(c1[H])C([H])([H])C([H])([H])C([H])([H])C2([H])N([H])C(=O)C1([H])N(C(=O)C([H])(N([H])C(=O)C([H])(N([H])C([H])([H])[H])C([H])([H])[H])C(C([H])([H])[H])(C([H])([H])[H])C([H])([H])[H])C([H])([H])c2c([H])c(OC([H])([H])C([H])([H])C([H])([H])C([H])(C([H])([H])[H])C([H])([H])C3([H])C([H])([H])N([H])C([H])([H])C([H])([H])[N+]([H])([H])C([H])(C([H])([H])C(=O)N4C([H])([H])C([H])([H])C([H])([H])C([H])(n5nc(-c6c([H])c([H])c(Oc7c([H])c([H])c(F)c([H])c7F)c([H])c6[H])c(C(=O)N([H])[H])c5N([H])[H])C4([H])[H])C3([H])[H])c([H])c([H])c2C1([H])[H]

>  <smiles>  (46) 
[H]c1c([H])c([H])c2c(c1[H])C([H])([H])C([H])([H])C([H])([H])C2([H])N([H])C(=O)C1([H])N(C(=O)C([H])(N([H])C(=O)C([H])(N([H])C([H])([H])[H])C([H])([H])[H])C(C([H])([H])[H])(C([H])([H])[H])C([H])([H])[H])C([H])([H])c2c([H])c(OC([H])([H])C([H])([H])C([H])([H])C([H])(C([H])([H])[H])C([H])([H])C3([H])C([H])([H])N([H])C([H])([H])C([H])([H])[N+]([H])([H])C([H])(C([H])([H])C(=O)N4C([H])([H])C([H])([H])C([H])([H])C([H])(n5nc(-c6c([H])c([H])c(Oc7c([H])c([H])c(F)c([H])c7F)c([H])c6[H])c(C(=O)N([H])[H])c5N([H])[H])C4([H])[H])C3([H])[H])c([H])c([H])c2C1([H])[H]

$$$$
46:0:0
     RDKit          3D

 97105  0  0  1  0  0  0  0  0999 V2000
  -30.8960  -21.4480   22.2840 C   0  0  0  0  0  2  0  0  0  0  0  0
  -30.0940  -20.8380   21.3480 C   0  0  0  0  0  3  0  0  0  0  0  0
  -31.9740  -19.6520   21.5880 C   0  0  0  0  0  3  0  0  0  0  0  0
  -30.7020  -19.5810   21.1180 N   0  0  0  0  0  0  0  0  0  0  0  0
  -32.0320  -20.7160   22.3870 N   0  0  0  0  0  0  0  0  0  0  0  0
  -32.8430  -20.9950   22.9270 H   0  0  0  0  0  0  0  0  0  0  0  0
  -28.8380  -21.4790   20.7510 C   0  0  0  0  0  2  0  0  0  0  0  0
  -29.0590  -23.0130   20.3730 C   0  0  0  0  0  2  0  0  0  0  0  0
  -26.8000  -23.2860   19.2020 C   0  0  0  0  0  1  0  0  0  0  0  0
  -27.8400  -23.9840   20.1040 C   0  0  0  0  0  3  0  0  0  0  0  0
  -28.2640  -25.3770   19.4600 C   0  0  0  0  0  2  0  0  0  0  0  0
  -28.1670  -26.6280   20.2120 O   0  0  0  0  0  0  0  0  0  0  0  0
  -24.4980  -31.9670   23.2710 C   0  0  0  0  0  0  0  0  0  0  0  0
  -27.0250  -27.4240   20.1740 C   0  0  0  0  0  0  0  0  0  0  0  0
  -23.2530  -30.5770   21.6500 C   0  0  0  0  0  3  0  0  0  0  0  0
  -24.6680  -29.0220   20.2030 C   0  0  0  0  0  0  0  0  0  0  0  0
  -25.7860  -30.8890   21.4230 C   0  0  0  0  0  2  0  0  0  0  0  0
  -25.8440  -29.5110   20.7840 C   0  0  0  0  0  0  0  0  0  0  0  0
  -27.0210  -28.7160   20.7730 C   0  0  0  0  0  3  0  0  0  0  0  0
  -25.8260  -26.9750   19.5810 C   0  0  0  0  0  3  0  0  0  0  0  0
  -24.6560  -27.7540   19.6020 C   0  0  0  0  0  3  0  0  0  0  0  0
  -23.4380  -29.9030   20.2660 C   0  0  0  0  0  2  0  0  0  0  0  0
  -24.5330  -31.1580   22.1740 N   0  0  0  0  0  0  0  0  0  0  0  0
  -23.4260  -32.2540   23.8240 O   0  0  0  0  0  0  0  0  0  0  0  0
  -22.6010  -29.5640   22.6200 C   0  0  0  0  0  0  0  0  0  0  0  0
  -21.2770  -29.3730   22.4940 N   0  0  0  0  0  0  0  0  0  0  0  0
  -23.2860  -28.9500   23.4440 O   0  0  0  0  0  0  0  0  0  0  0  0
  -20.7820  -29.9180   21.8010 H   0  0  0  0  0  0  0  0  0  0  0  0
  -17.9130  -28.1550   22.9960 C   0  0  0  0  0  0  0  0  0  0  0  0
  -20.4660  -28.4440   23.2810 C   0  0  0  0  0  3  0  0  0  0  0  0
  -20.5890  -27.0030   22.7350 C   0  0  0  0  0  2  0  0  0  0  0  0
  -19.4990  -26.6490   21.7180 C   0  0  0  0  0  2  0  0  0  0  0  0
  -18.1100  -26.7930   22.3490 C   0  0  0  0  0  2  0  0  0  0  0  0
  -19.0210  -28.9350   23.4190 C   0  0  0  0  0  0  0  0  0  0  0  0
  -18.7860  -30.2080   23.9830 C   0  0  0  0  0  3  0  0  0  0  0  0
  -17.4760  -30.7010   24.1260 C   0  0  0  0  0  3  0  0  0  0  0  0
  -16.3810  -29.9180   23.7200 C   0  0  0  0  0  3  0  0  0  0  0  0
  -16.6020  -28.6460   23.1600 C   0  0  0  0  0  3  0  0  0  0  0  0
  -25.7990  -32.5890   23.8660 C   0  0  0  0  0  3  0  0  0  0  0  0
  -26.3270  -31.8230   25.1410 C   0  0  1  0  0  0  0  0  0  0  0  0
  -25.2460  -31.6040   26.2240 C   0  0  0  0  0  1  0  0  0  0  0  0
  -26.8920  -30.4370   24.7530 C   0  0  0  0  0  1  0  0  0  0  0  0
  -27.4930  -32.6100   25.7810 C   0  0  0  0  0  1  0  0  0  0  0  0
  -25.5110  -33.9940   24.1870 N   0  0  0  0  0  0  0  0  0  0  0  0
  -25.8590  -35.0360   23.4180 C   0  0  0  0  0  0  0  0  0  0  0  0
  -26.5260  -34.9130   22.3870 O   0  0  0  0  0  0  0  0  0  0  0  0
  -24.9190  -34.1640   24.9850 H   0  0  0  0  0  0  0  0  0  0  0  0
  -24.1690  -36.8580   23.0400 C   0  0  0  0  0  1  0  0  0  0  0  0
  -25.3940  -36.4340   23.8660 C   0  0  0  0  0  3  0  0  0  0  0  0
  -27.5340  -37.2800   24.7180 C   0  0  0  0  0  1  0  0  0  0  0  0
  -26.4470  -37.4670   23.7620 N   0  0  0  0  0  0  0  0  0  0  0  0
  -26.0550  -38.3930   23.9060 H   0  0  0  0  0  0  0  0  0  0  0  0
  -33.1820  -18.8080   21.2820 C   0  0  0  0  0  2  0  0  0  0  0  0
  -34.0940  -19.3360   20.1430 C   0  0  0  0  0  2  0  0  0  0  0  0
  -35.8280  -21.1350   19.6120 C   0  0  0  0  0  1  0  0  0  0  0  0
  -33.3950  -21.6530   19.2990 C   0  0  0  0  0  1  0  0  0  0  0  0
  -34.4120  -20.8530   20.1370 C   0  0  0  0  0  3  0  0  0  0  0  0
  -30.2310  -18.3160   20.4380 C   0  0  0  0  0  2  0  0  0  0  0  0
  -30.2060  -17.0510   21.3980 C   0  0  0  0  0  2  0  0  0  0  0  0
  -30.6350  -14.6880   20.4320 C   0  0  0  0  0  0  0  0  0  0  0  0
  -30.4370  -12.4930   19.2880 C   0  0  0  0  0  2  0  0  0  0  0  0
  -29.4890  -12.6310   18.0770 C   0  0  0  0  0  2  0  0  0  0  0  0
  -28.0160  -12.4570   18.5000 C   0  0  0  0  0  2  0  0  0  0  0  0
  -27.6480  -13.3040   19.7500 C   0  0  0  0  0  3  0  0  0  0  0  0
  -28.7040  -13.1220   20.8600 C   0  0  0  0  0  2  0  0  0  0  0  0
  -30.0110  -13.4830   20.2910 N   0  0  0  0  0  0  0  0  0  0  0  0
  -31.7990  -14.8790   20.0670 O   0  0  0  0  0  0  0  0  0  0  0  0
  -29.8430  -15.7070   20.8580 N   0  0  0  0  0  0  0  0  0  0  0  0
  -28.8830  -15.4350   21.0160 H   0  0  0  0  0  0  0  0  0  0  0  0
  -25.2450  -13.8840   20.4520 C   0  0  0  0  0  0  0  0  0  0  0  0
  -24.1820  -13.1020   20.8160 C   0  0  0  0  0  0  0  0  0  0  0  0
  -24.6600  -11.7550   20.7960 C   0  0  0  0  0  0  0  0  0  0  0  0
  -26.2990  -13.0130   20.2280 N   0  0  0  0  0  0  0  0  0  0  0  0
  -25.9520  -11.7290   20.4970 N   0  0  0  0  0  0  0  0  0  0  0  0
  -23.9480  -10.4860   20.9900 C   0  0  0  0  0  0  0  0  0  0  0  0
  -24.3760   -9.5380   21.9460 C   0  0  0  0  0  3  0  0  0  0  0  0
  -23.6630   -8.3330   22.1290 C   0  0  0  0  0  3  0  0  0  0  0  0
  -22.5090   -8.0680   21.3530 C   0  0  0  0  0  0  0  0  0  0  0  0
  -22.1010   -9.0040   20.3880 C   0  0  0  0  0  3  0  0  0  0  0  0
  -22.8130  -10.2010   20.2040 C   0  0  0  0  0  3  0  0  0  0  0  0
  -21.7730   -6.9110   21.4410 O   0  0  0  0  0  0  0  0  0  0  0  0
  -21.7020   -6.1880   22.6040 C   0  0  0  0  0  0  0  0  0  0  0  0
  -21.2180   -6.7540   23.8030 C   0  0  0  0  0  3  0  0  0  0  0  0
  -21.0950   -5.9570   24.9580 C   0  0  0  0  0  3  0  0  0  0  0  0
  -21.4470   -4.5950   24.9140 C   0  0  0  0  0  0  0  0  0  0  0  0
  -21.9210   -4.0270   23.7180 C   0  0  0  0  0  3  0  0  0  0  0  0
  -22.0470   -4.8220   22.5660 C   0  0  0  0  0  0  0  0  0  0  0  0
  -22.4850   -4.2660   21.4110 F   0  0  0  0  0  0  0  0  0  0  0  0
  -21.3210   -3.8250   26.0200 F   0  0  0  0  0  0  0  0  0  0  0  0
  -22.7770  -13.5650   21.0720 C   0  0  0  0  0  0  0  0  0  0  0  0
  -22.0500  -12.8610   21.9320 N   0  0  0  0  0  0  0  0  0  0  0  0
  -22.3310  -14.5850   20.5440 O   0  0  0  0  0  0  0  0  0  0  0  0
  -22.4240  -12.0400   22.3820 H   0  0  0  0  0  0  0  0  0  0  0  0
  -21.1050  -13.1490   22.1470 H   0  0  0  0  0  0  0  0  0  0  0  0
  -25.3950  -15.2550   20.2670 N   0  0  0  0  0  0  0  0  0  0  0  0
  -24.6160  -15.8960   20.3500 H   0  0  0  0  0  0  0  0  0  0  0  0
  -26.2330  -15.6970   19.9070 H   0  0  0  0  0  0  0  0  0  0  0  0
  1  5  1  0
  2  7  1  0
  2  1  1  0
  3 53  1  0
  3  5  1  0
  4  2  1  0
  4  3  1  0
  5  6  1  0
  8  7  1  0
 10  9  1  0
 10  8  1  0
 11 10  1  0
 11 12  1  0
 13 24  2  0
 14 12  1  0
 14 19  1  0
 15 23  1  0
 15 25  1  0
 16 22  1  0
 16 18  1  0
 17 23  1  0
 18 17  1  0
 19 18  2  0
 20 21  1  0
 20 14  2  0
 21 16  2  0
 22 15  1  0
 23 13  1  0
 25 27  2  0
 26 25  1  0
 28 26  1  0
 29 38  2  0
 29 34  1  0
 30 26  1  0
 30 34  1  0
 31 30  1  0
 32 33  1  0
 32 31  1  0
 33 29  1  0
 34 35  2  0
 35 36  1  0
 37 36  2  0
 38 37  1  0
 39 13  1  0
 39 44  1  0
 39 40  1  0
 40 43  1  1
 40 41  1  0
 42 40  1  0
 44 47  1  0
 45 49  1  0
 45 44  1  0
 46 45  2  0
 49 48  1  0
 51 49  1  0
 51 52  1  0
 51 50  1  0
 54 53  1  0
 55 57  1  0
 56 57  1  0
 57 54  1  0
 58  4  1  0
 58 59  1  0
 60 68  1  0
 61 66  1  0
 62 63  1  0
 62 61  1  0
 64 63  1  0
 64 73  1  0
 64 65  1  0
 66 60  1  0
 66 65  1  0
 67 60  2  0
 68 69  1  0
 68 59  1  0
 70 71  2  0
 71 90  1  0
 72 71  1  0
 72 75  1  0
 73 70  1  0
 73 74  1  0
 74 72  2  0
 75 76  1  0
 76 77  2  0
 78 81  1  0
 78 77  1  0
 79 78  2  0
 80 79  1  0
 80 75  2  0
 81 82  1  0
 82 83  1  0
 83 84  2  0
 85 84  1  0
 85 89  1  0
 86 85  2  0
 87 82  2  0
 87 86  1  0
 88 87  1  0
 90 91  1  0
 91 94  1  0
 91 93  1  0
 92 90  2  0
 95 96  1  0
 95 70  1  0
 97 95  1  0
M  ISO  4  11 101  12 101  60 100  68 100
M  END
>  <TORSDO>  (47) 
F 25

>  <SCORE>  (47) 
-12.494

>  <name>  (47) 
46

>  <ligand_id>  (47) 
46

>  <original_smiles>  (47) 
[H]c1c([H])c([H])c2c(c1[H])C([H])([H])C([H])([H])C([H])([H])C2([H])N([H])C(=O)C1([H])N(C(=O)C([H])(N([H])C(=O)C([H])(N([H])C([H])([H])[H])C([H])([H])[H])C(C([H])([H])[H])(C([H])([H])[H])C([H])([H])[H])C([H])([H])c2c([H])c(OC([H])([H])C([H])(C([H])([H])[H])C([H])([H])C([H])([H])c3c([H])[n+]([H])c(C([H])([H])C([H])([H])C([H])(C([H])([H])[H])C([H])([H])[H])n3C([H])([H])C([H])([H])N([H])C(=O)N3C([H])([H])C([H])([H])C([H])([H])C([H])(n4nc(-c5c([H])c([H])c(Oc6c([H])c([H])c(F)c([H])c6F)c([H])c5[H])c(C(=O)N([H])[H])c4N([H])[H])C3([H])[H])c([H])c([H])c2C1([H])[H]

>  <smiles>  (47) 
[H]c1c([H])c([H])c2c(c1[H])C([H])([H])C([H])([H])C([H])([H])C2([H])N([H])C(=O)C1([H])N(C(=O)C([H])(N([H])C(=O)C([H])(N([H])C([H])([H])[H])C([H])([H])[H])C(C([H])([H])[H])(C([H])([H])[H])C([H])([H])[H])C([H])([H])c2c([H])c(OC([H])([H])C([H])(C([H])([H])[H])C([H])([H])C([H])([H])c3c([H])[n+]([H])c(C([H])([H])C([H])([H])C([H])(C([H])([H])[H])C([H])([H])[H])n3C([H])([H])C([H])([H])N([H])C(=O)N3C([H])([H])C([H])([H])C([H])([H])C([H])(n4nc(-c5c([H])c([H])c(Oc6c([H])c([H])c(F)c([H])c6F)c([H])c5[H])c(C(=O)N([H])[H])c4N([H])[H])C3([H])[H])c([H])c([H])c2C1([H])[H]

$$$$
47:0:0
     RDKit          3D

 98106  0  0  1  0  0  0  0  0999 V2000
  -29.2220  -19.1130   19.8020 C   0  0  0  0  0  2  0  0  0  0  0  0
  -29.4640  -20.3960   20.4190 C   0  0  0  0  0  3  0  0  0  0  0  0
  -30.4400  -18.4970   19.6000 C   0  0  0  0  0  3  0  0  0  0  0  0
  -30.7530  -20.2710   20.8640 C   0  0  0  0  0  3  0  0  0  0  0  0
  -31.5800  -21.0150   21.8790 C   0  0  0  0  0  1  0  0  0  0  0  0
  -31.3190  -19.5480   19.8330 N   0  0  0  0  0  0  0  0  0  0  0  0
  -27.3890  -21.3140   21.5150 C   0  0  0  0  0  1  0  0  0  0  0  0
  -29.3610  -22.8040   21.2310 C   0  0  0  0  0  1  0  0  0  0  0  0
  -28.5690  -21.6420   20.5770 C   0  0  1  0  0  0  0  0  0  0  0  0
  -28.0430  -22.1950   19.2080 C   0  0  0  0  0  2  0  0  0  0  0  0
  -28.9040  -23.2540   18.4160 C   0  0  0  0  0  2  0  0  0  0  0  0
  -28.2680  -24.6760   18.2080 C   0  0  0  0  0  2  0  0  0  0  0  0
  -28.3570  -25.6840   19.3920 C   0  0  0  0  0  2  0  0  0  0  0  0
  -28.3540  -27.0740   18.9600 O   0  0  0  0  0  0  0  0  0  0  0  0
  -24.4860  -31.3190   23.1080 C   0  0  0  0  0  0  0  0  0  0  0  0
  -27.1610  -27.7470   19.1000 C   0  0  0  0  0  0  0  0  0  0  0  0
  -23.2560  -30.1440   21.3280 C   0  0  0  0  0  3  0  0  0  0  0  0
  -24.6860  -29.0470   19.5310 C   0  0  0  0  0  0  0  0  0  0  0  0
  -25.7190  -30.7680   21.0130 C   0  0  0  0  0  2  0  0  0  0  0  0
  -25.8530  -29.5580   20.1140 C   0  0  0  0  0  0  0  0  0  0  0  0
  -27.0980  -28.9340   19.8710 C   0  0  0  0  0  3  0  0  0  0  0  0
  -25.9770  -27.2570   18.5060 C   0  0  0  0  0  3  0  0  0  0  0  0
  -24.7490  -27.9050   18.7230 C   0  0  0  0  0  3  0  0  0  0  0  0
  -23.3860  -29.7660   19.8290 C   0  0  0  0  0  2  0  0  0  0  0  0
  -24.5150  -30.7450   21.8750 N   0  0  0  0  0  0  0  0  0  0  0  0
  -23.4360  -31.3830   23.7620 O   0  0  0  0  0  0  0  0  0  0  0  0
  -22.7830  -28.8950   22.1090 C   0  0  0  0  0  0  0  0  0  0  0  0
  -21.5360  -28.4650   21.8490 N   0  0  0  0  0  0  0  0  0  0  0  0
  -23.5360  -28.3190   22.8990 O   0  0  0  0  0  0  0  0  0  0  0  0
  -20.9650  -28.9840   21.1920 H   0  0  0  0  0  0  0  0  0  0  0  0
  -18.6020  -26.3600   21.7190 C   0  0  0  0  0  0  0  0  0  0  0  0
  -20.8940  -27.3010   22.4610 C   0  0  0  0  0  3  0  0  0  0  0  0
  -21.4910  -25.9850   21.9090 C   0  0  0  0  0  2  0  0  0  0  0  0
  -20.7260  -25.4320   20.7020 C   0  0  0  0  0  2  0  0  0  0  0  0
  -19.2680  -25.1520   21.0820 C   0  0  0  0  0  2  0  0  0  0  0  0
  -19.3680  -27.3730   22.3530 C   0  0  0  0  0  0  0  0  0  0  0  0
  -18.7050  -28.4990   22.8940 C   0  0  0  0  0  3  0  0  0  0  0  0
  -17.3050  -28.6160   22.8140 C   0  0  0  0  0  3  0  0  0  0  0  0
  -16.5480  -27.6020   22.2000 C   0  0  0  0  0  3  0  0  0  0  0  0
  -17.1980  -26.4740   21.6590 C   0  0  0  0  0  3  0  0  0  0  0  0
  -25.7600  -31.9550   23.7460 C   0  0  0  0  0  3  0  0  0  0  0  0
  -26.2750  -31.1690   25.0130 C   0  0  1  0  0  0  0  0  0  0  0  0
  -25.1760  -30.9210   26.0730 C   0  0  0  0  0  1  0  0  0  0  0  0
  -26.8610  -29.7980   24.6130 C   0  0  0  0  0  1  0  0  0  0  0  0
  -27.4250  -31.9550   25.6760 C   0  0  0  0  0  1  0  0  0  0  0  0
  -25.4260  -33.3450   24.0910 N   0  0  0  0  0  0  0  0  0  0  0  0
  -25.8970  -34.4190   23.4400 C   0  0  0  0  0  0  0  0  0  0  0  0
  -26.7230  -34.3420   22.5250 O   0  0  0  0  0  0  0  0  0  0  0  0
  -24.7060  -33.4780   24.7870 H   0  0  0  0  0  0  0  0  0  0  0  0
  -24.3450  -36.3090   22.8740 C   0  0  0  0  0  1  0  0  0  0  0  0
  -25.3810  -35.7980   23.8870 C   0  0  0  0  0  3  0  0  0  0  0  0
  -27.3450  -36.5210   25.1750 C   0  0  0  0  0  1  0  0  0  0  0  0
  -26.4580  -36.8020   24.0500 N   0  0  0  0  0  0  0  0  0  0  0  0
  -26.0630  -37.7290   24.1840 H   0  0  0  0  0  0  0  0  0  0  0  0
  -30.8580  -17.1550   18.9900 C   0  0  0  0  0  2  0  0  0  0  0  0
  -31.1700  -14.8470   19.9060 C   0  0  0  0  0  0  0  0  0  0  0  0
  -30.9720  -12.4170   19.6740 C   0  0  0  0  0  2  0  0  0  0  0  0
  -30.1290  -12.0830   18.4270 C   0  0  0  0  0  2  0  0  0  0  0  0
  -28.6240  -12.0700   18.7580 C   0  0  0  0  0  2  0  0  0  0  0  0
  -28.1730  -13.3180   19.5620 C   0  0  0  0  0  3  0  0  0  0  0  0
  -29.1300  -13.6110   20.7400 C   0  0  0  0  0  2  0  0  0  0  0  0
  -30.4950  -13.7060   20.2040 N   0  0  0  0  0  0  0  0  0  0  0  0
  -32.3590  -14.8410   19.5820 O   0  0  0  0  0  0  0  0  0  0  0  0
  -30.4220  -15.9610   19.7410 N   0  0  0  0  0  0  0  0  0  0  0  0
  -29.4530  -15.9170   20.0110 H   0  0  0  0  0  0  0  0  0  0  0  0
  -25.8490  -14.1890   20.2280 C   0  0  0  0  0  0  0  0  0  0  0  0
  -24.6830  -13.5350   20.5530 C   0  0  0  0  0  0  0  0  0  0  0  0
  -24.9830  -12.1410   20.5000 C   0  0  0  0  0  0  0  0  0  0  0  0
  -26.7870  -13.1920   20.0050 N   0  0  0  0  0  0  0  0  0  0  0  0
  -26.2670  -11.9550   20.2210 N   0  0  0  0  0  0  0  0  0  0  0  0
  -24.1040  -10.9710   20.6340 C   0  0  0  0  0  0  0  0  0  0  0  0
  -24.4440   -9.8860   21.4700 C   0  0  0  0  0  3  0  0  0  0  0  0
  -23.5730   -8.7820   21.5990 C   0  0  0  0  0  3  0  0  0  0  0  0
  -22.3480   -8.7580   20.8900 C   0  0  0  0  0  0  0  0  0  0  0  0
  -22.0260   -9.8320   20.0410 C   0  0  0  0  0  3  0  0  0  0  0  0
  -22.8970  -10.9270   19.9100 C   0  0  0  0  0  3  0  0  0  0  0  0
  -21.4500   -7.7180   20.9360 O   0  0  0  0  0  0  0  0  0  0  0  0
  -21.4080   -6.8500   21.9990 C   0  0  0  0  0  0  0  0  0  0  0  0
  -21.1940   -7.3010   23.3210 C   0  0  0  0  0  3  0  0  0  0  0  0
  -21.0840   -6.3710   24.3740 C   0  0  0  0  0  3  0  0  0  0  0  0
  -21.1800   -4.9890   24.1070 C   0  0  0  0  0  0  0  0  0  0  0  0
  -21.3850   -4.5390   22.7900 C   0  0  0  0  0  3  0  0  0  0  0  0
  -21.4960   -5.4690   21.7410 C   0  0  0  0  0  0  0  0  0  0  0  0
  -21.6720   -5.0280   20.4720 F   0  0  0  0  0  0  0  0  0  0  0  0
  -21.0690   -4.0950   25.1160 F   0  0  0  0  0  0  0  0  0  0  0  0
  -23.3500  -14.1740   20.8040 C   0  0  0  0  0  0  0  0  0  0  0  0
  -22.5380  -13.5780   21.6780 N   0  0  0  0  0  0  0  0  0  0  0  0
  -23.0320  -15.2310   20.2680 O   0  0  0  0  0  0  0  0  0  0  0  0
  -22.8050  -12.7190   22.1360 H   0  0  0  0  0  0  0  0  0  0  0  0
  -21.6370  -13.9870   21.8830 H   0  0  0  0  0  0  0  0  0  0  0  0
  -26.1790  -15.5310   20.0880 N   0  0  0  0  0  0  0  0  0  0  0  0
  -25.5010  -16.2790   20.2040 H   0  0  0  0  0  0  0  0  0  0  0  0
  -27.0870  -15.8730   19.7850 H   0  0  0  0  0  0  0  0  0  0  0  0
  -32.2810  -20.1740   18.9050 C   0  0  0  0  0  3  0  0  0  0  0  0
  -34.1820  -21.8190   19.4050 C   0  0  0  0  0  1  0  0  0  0  0  0
  -33.7100  -20.3510   19.4650 C   0  0  0  0  0  2  0  0  0  0  0  0
  -32.3310  -20.7770   16.3580 C   0  0  0  0  0  1  0  0  0  0  0  0
  -32.1840  -19.6800   17.4340 C   0  0  0  0  0  2  0  0  0  0  0  0
  1  2  1  0
  2  9  1  0
  2  4  1  0
  3 55  1  0
  3  1  1  0
  3  6  1  0
  4  5  1  0
  6  4  1  0
  9  8  1  1
  9  7  1  0
 10  9  1  0
 11 10  1  0
 12 11  1  0
 12 13  1  0
 14 16  1  0
 14 13  1  0
 15 26  2  0
 16 21  1  0
 17 25  1  0
 17 27  1  0
 18 24  1  0
 18 20  1  0
 19 25  1  0
 20 19  1  0
 21 20  2  0
 22 23  1  0
 22 16  2  0
 23 18  2  0
 24 17  1  0
 25 15  1  0
 27 29  2  0
 28 27  1  0
 30 28  1  0
 31 36  1  0
 32 28  1  0
 33 32  1  0
 34 35  1  0
 34 33  1  0
 35 31  1  0
 36 32  1  0
 36 37  2  0
 38 37  1  0
 39 38  2  0
 40 31  2  0
 40 39  1  0
 41 15  1  0
 41 46  1  0
 41 42  1  0
 42 45  1  1
 42 43  1  0
 44 42  1  0
 46 49  1  0
 47 51  1  0
 47 46  1  0
 48 47  2  0
 51 50  1  0
 51 53  1  0
 53 54  1  0
 53 52  1  0
 55 64  1  0
 56 62  1  0
 57 62  1  0
 58 59  1  0
 58 57  1  0
 60 59  1  0
 60 69  1  0
 60 61  1  0
 62 61  1  0
 63 56  2  0
 64 56  1  0
 64 65  1  0
 66 67  2  0
 67 86  1  0
 68 67  1  0
 68 71  1  0
 69 70  1  0
 69 66  1  0
 70 68  2  0
 71 72  1  0
 72 73  2  0
 74 77  1  0
 74 73  1  0
 75 74  2  0
 76 75  1  0
 76 71  2  0
 77 78  1  0
 78 79  1  0
 79 80  2  0
 81 80  1  0
 81 85  1  0
 82 81  2  0
 83 78  2  0
 83 82  1  0
 84 83  1  0
 86 87  1  0
 87 90  1  0
 87 89  1  0
 88 86  2  0
 91 92  1  0
 91 66  1  0
 93 91  1  0
 94 96  1  0
 94  6  1  0
 95 96  1  0
 97 98  1  0
 98 94  1  0
M  ISO  4  13 101  14 101  56 100  64 100
M  END
>  <TORSDO>  (48) 
F 25

>  <SCORE>  (48) 
-9.146

>  <name>  (48) 
47

>  <ligand_id>  (48) 
47

>  <original_smiles>  (48) 
[H]c1c([H])c([H])c2c(c1[H])C([H])([H])C([H])([H])C([H])([H])C2([H])N([H])C(=O)C1([H])N(C(=O)C([H])(N([H])C(=O)C([H])(N([H])C([H])([H])[H])C([H])([H])[H])C(C([H])([H])[H])(C([H])([H])[H])C([H])([H])[H])C([H])([H])c2c([H])c(OC([H])([H])C([H])([H])C([H])([H])C([H])([H])C(c3c([H])c(C([H])([H])N([H])C(=O)N4C([H])([H])C([H])([H])C([H])([H])C([H])(n5nc(-c6c([H])c([H])c(Oc7c([H])c([H])c(F)c([H])c7F)c([H])c6[H])c(C(=O)N([H])[H])c5N([H])[H])C4([H])[H])n(C([H])(C([H])([H])C([H])([H])[H])C([H])([H])C([H])([H])[H])c3C([H])([H])[H])(C([H])([H])[H])C([H])([H])[H])c([H])c([H])c2C1([H])[H]

>  <smiles>  (48) 
[H]c1c([H])c([H])c2c(c1[H])C([H])([H])C([H])([H])C([H])([H])C2([H])N([H])C(=O)C1([H])N(C(=O)C([H])(N([H])C(=O)C([H])(N([H])C([H])([H])[H])C([H])([H])[H])C(C([H])([H])[H])(C([H])([H])[H])C([H])([H])[H])C([H])([H])c2c([H])c(OC([H])([H])C([H])([H])C([H])([H])C([H])([H])C(c3c([H])c(C([H])([H])N([H])C(=O)N4C([H])([H])C([H])([H])C([H])([H])C([H])(n5nc(-c6c([H])c([H])c(Oc7c([H])c([H])c(F)c([H])c7F)c([H])c6[H])c(C(=O)N([H])[H])c5N([H])[H])C4([H])[H])n(C([H])(C([H])([H])C([H])([H])[H])C([H])([H])C([H])([H])[H])c3C([H])([H])[H])(C([H])([H])[H])C([H])([H])[H])c([H])c([H])c2C1([H])[H]

$$$$
48:0:0
     RDKit          3D

 93101  0  0  1  0  0  0  0  0999 V2000
  -29.7190  -19.2990   21.6170 C   0  0  0  0  0  3  0  0  0  0  0  0
  -29.5070  -19.8680   19.4830 C   0  0  0  0  0  3  0  0  0  0  0  0
  -30.1450  -18.2120   20.8920 C   0  0  0  0  0  0  0  0  0  0  0  0
  -30.0100  -18.5850   19.5150 C   0  0  0  0  0  0  0  0  0  0  0  0
  -29.3480  -20.3400   20.7720 N   0  0  0  0  0  0  0  0  0  0  0  0
  -31.9120  -17.8050   18.0800 C   0  0  0  0  0  1  0  0  0  0  0  0
  -29.6280  -18.1580   17.0510 C   0  0  0  0  0  1  0  0  0  0  0  0
  -30.3950  -17.7480   18.3140 C   0  0  0  0  0  3  0  0  0  0  0  0
  -30.7300  -16.9160   21.4840 C   0  0  0  0  0  2  0  0  0  0  0  0
  -30.8160  -14.6240   20.4350 C   0  0  0  0  0  0  0  0  0  0  0  0
  -30.5140  -12.4900   19.2190 C   0  0  0  0  0  2  0  0  0  0  0  0
  -29.5690  -12.7050   18.0200 C   0  0  0  0  0  2  0  0  0  0  0  0
  -28.0960  -12.5470   18.4510 C   0  0  0  0  0  2  0  0  0  0  0  0
  -27.7590  -13.3550   19.7350 C   0  0  0  0  0  3  0  0  0  0  0  0
  -28.8190  -13.1250   20.8350 C   0  0  0  0  0  2  0  0  0  0  0  0
  -30.1340  -13.4550   20.2630 N   0  0  0  0  0  0  0  0  0  0  0  0
  -31.9440  -14.7990   19.9700 O   0  0  0  0  0  0  0  0  0  0  0  0
  -30.1530  -15.6240   21.0540 N   0  0  0  0  0  0  0  0  0  0  0  0
  -29.2110  -15.4270   21.3560 H   0  0  0  0  0  0  0  0  0  0  0  0
  -25.3500  -13.9330   20.4330 C   0  0  0  0  0  0  0  0  0  0  0  0
  -24.2890  -13.1500   20.8000 C   0  0  0  0  0  0  0  0  0  0  0  0
  -24.7670  -11.8030   20.7750 C   0  0  0  0  0  0  0  0  0  0  0  0
  -26.4080  -13.0650   20.2110 N   0  0  0  0  0  0  0  0  0  0  0  0
  -26.0600  -11.7790   20.4720 N   0  0  0  0  0  0  0  0  0  0  0  0
  -24.0560  -10.5320   20.9640 C   0  0  0  0  0  0  0  0  0  0  0  0
  -24.4760   -9.5870   21.9250 C   0  0  0  0  0  3  0  0  0  0  0  0
  -23.7660   -8.3810   22.1020 C   0  0  0  0  0  3  0  0  0  0  0  0
  -22.6210   -8.1100   21.3160 C   0  0  0  0  0  0  0  0  0  0  0  0
  -22.2200   -9.0440   20.3440 C   0  0  0  0  0  3  0  0  0  0  0  0
  -22.9330  -10.2420   20.1660 C   0  0  0  0  0  3  0  0  0  0  0  0
  -21.8820   -6.9550   21.3980 O   0  0  0  0  0  0  0  0  0  0  0  0
  -21.7850   -6.2450   22.5680 C   0  0  0  0  0  0  0  0  0  0  0  0
  -21.2610   -6.8200   23.7460 C   0  0  0  0  0  3  0  0  0  0  0  0
  -21.1130   -6.0350   24.9070 C   0  0  0  0  0  3  0  0  0  0  0  0
  -21.4800   -4.6770   24.8910 C   0  0  0  0  0  0  0  0  0  0  0  0
  -21.9970   -4.1000   23.7170 C   0  0  0  0  0  3  0  0  0  0  0  0
  -22.1460   -4.8820   22.5580 C   0  0  0  0  0  0  0  0  0  0  0  0
  -22.6240   -4.3170   21.4240 F   0  0  0  0  0  0  0  0  0  0  0  0
  -21.3310   -3.9200   26.0050 F   0  0  0  0  0  0  0  0  0  0  0  0
  -22.8840  -13.6110   21.0670 C   0  0  0  0  0  0  0  0  0  0  0  0
  -22.1580  -12.9010   21.9240 N   0  0  0  0  0  0  0  0  0  0  0  0
  -22.4390  -14.6380   20.5560 O   0  0  0  0  0  0  0  0  0  0  0  0
  -22.5310  -12.0740   22.3650 H   0  0  0  0  0  0  0  0  0  0  0  0
  -21.2160  -13.1930   22.1450 H   0  0  0  0  0  0  0  0  0  0  0  0
  -25.5030  -15.3040   20.2510 N   0  0  0  0  0  0  0  0  0  0  0  0
  -24.7330  -15.9540   20.3670 H   0  0  0  0  0  0  0  0  0  0  0  0
  -26.3540  -15.7490   19.9330 H   0  0  0  0  0  0  0  0  0  0  0  0
  -28.8330  -21.6600   21.2050 C   0  0  0  0  0  3  0  0  0  0  0  0
  -29.0410  -22.8660   20.2230 C   0  0  0  0  0  3  0  0  0  0  0  0
  -29.7610  -24.6650   21.8960 C   0  0  0  0  0  1  0  0  0  0  0  0
  -28.7430  -24.3030   20.7980 C   0  0  0  0  0  3  0  0  0  0  0  0
  -28.7260  -25.4350   19.7110 C   0  0  0  0  0  2  0  0  0  0  0  0
  -28.5600  -26.7890   20.2200 O   0  0  0  0  0  0  0  0  0  0  0  0
  -24.6480  -31.9590   23.2290 C   0  0  0  0  0  0  0  0  0  0  0  0
  -27.3530  -27.4790   20.1920 C   0  0  0  0  0  0  0  0  0  0  0  0
  -23.4620  -30.5260   21.5990 C   0  0  0  0  0  3  0  0  0  0  0  0
  -24.9360  -28.9860   20.1910 C   0  0  0  0  0  0  0  0  0  0  0  0
  -25.9890  -30.9010   21.4060 C   0  0  0  0  0  2  0  0  0  0  0  0
  -26.0890  -29.5230   20.7760 C   0  0  0  0  0  0  0  0  0  0  0  0
  -27.2950  -28.7760   20.7700 C   0  0  0  0  0  3  0  0  0  0  0  0
  -26.1700  -26.9640   19.6110 C   0  0  0  0  0  3  0  0  0  0  0  0
  -24.9740  -27.7090   19.6100 C   0  0  0  0  0  3  0  0  0  0  0  0
  -23.6830  -29.8340   20.2280 C   0  0  0  0  0  2  0  0  0  0  0  0
  -24.7170  -31.1470   22.1350 N   0  0  0  0  0  0  0  0  0  0  0  0
  -23.5630  -32.2230   23.7650 O   0  0  0  0  0  0  0  0  0  0  0  0
  -22.8220  -29.5080   22.5700 C   0  0  0  0  0  0  0  0  0  0  0  0
  -21.5000  -29.3040   22.4410 N   0  0  0  0  0  0  0  0  0  0  0  0
  -23.5110  -28.9010   23.3940 O   0  0  0  0  0  0  0  0  0  0  0  0
  -21.0050  -29.8450   21.7450 H   0  0  0  0  0  0  0  0  0  0  0  0
  -18.1390  -28.0820   22.9620 C   0  0  0  0  0  0  0  0  0  0  0  0
  -20.6960  -28.3620   23.2180 C   0  0  0  0  0  3  0  0  0  0  0  0
  -20.8070  -26.9300   22.6440 C   0  0  0  0  0  2  0  0  0  0  0  0
  -19.7020  -26.5970   21.6370 C   0  0  0  0  0  2  0  0  0  0  0  0
  -18.3230  -26.7320   22.2890 C   0  0  0  0  0  2  0  0  0  0  0  0
  -19.2530  -28.8540   23.3840 C   0  0  0  0  0  0  0  0  0  0  0  0
  -19.0290  -30.1170   23.9730 C   0  0  0  0  0  3  0  0  0  0  0  0
  -17.7210  -30.6090   24.1440 C   0  0  0  0  0  3  0  0  0  0  0  0
  -16.6210  -29.8340   23.7400 C   0  0  0  0  0  3  0  0  0  0  0  0
  -16.8310  -28.5720   23.1550 C   0  0  0  0  0  3  0  0  0  0  0  0
  -25.9250  -32.6130   23.8450 C   0  0  0  0  0  3  0  0  0  0  0  0
  -25.5960  -34.0080   24.1690 N   0  0  0  0  0  0  0  0  0  0  0  0
  -25.9240  -35.0630   23.4120 C   0  0  0  0  0  0  0  0  0  0  0  0
  -26.6070  -34.9660   22.3880 O   0  0  0  0  0  0  0  0  0  0  0  0
  -24.9930  -34.1570   24.9640 H   0  0  0  0  0  0  0  0  0  0  0  0
  -24.1910  -36.8420   23.0170 C   0  0  0  0  0  1  0  0  0  0  0  0
  -25.4140  -36.4450   23.8600 C   0  0  0  0  0  3  0  0  0  0  0  0
  -27.5160  -37.3460   24.7540 C   0  0  0  0  0  1  0  0  0  0  0  0
  -26.4400  -37.5070   23.7790 N   0  0  0  0  0  0  0  0  0  0  0  0
  -26.0220  -38.4240   23.9160 H   0  0  0  0  0  0  0  0  0  0  0  0
  -26.4580  -31.8560   25.1240 C   0  0  1  0  0  0  0  0  0  0  0  0
  -25.3660  -31.5810   26.1830 C   0  0  0  0  0  1  0  0  0  0  0  0
  -27.0900  -30.5000   24.7340 C   0  0  0  0  0  1  0  0  0  0  0  0
  -27.5780  -32.6860   25.7960 C   0  0  0  0  0  1  0  0  0  0  0  0
  2  4  2  0
  2  5  1  0
  3  9  1  0
  3  1  2  0
  4  3  1  0
  5 48  1  0
  5  1  1  0
  6  8  1  0
  7  8  1  0
  8  4  1  0
 10 18  1  0
 11 16  1  0
 12 13  1  0
 12 11  1  0
 14 13  1  0
 14 23  1  0
 14 15  1  0
 16 10  1  0
 16 15  1  0
 17 10  2  0
 18 19  1  0
 18  9  1  0
 20 21  2  0
 21 40  1  0
 22 21  1  0
 22 25  1  0
 23 20  1  0
 23 24  1  0
 24 22  2  0
 25 26  1  0
 26 27  2  0
 28 31  1  0
 28 27  1  0
 29 28  2  0
 30 29  1  0
 30 25  2  0
 31 32  1  0
 32 33  1  0
 33 34  2  0
 35 34  1  0
 35 39  1  0
 36 35  2  0
 37 32  2  0
 37 36  1  0
 38 37  1  0
 40 41  1  0
 41 44  1  0
 41 43  1  0
 42 40  2  0
 45 46  1  0
 45 20  1  0
 47 45  1  0
 49 51  1  0
 49 48  2  0
 51 50  1  0
 52 53  1  0
 52 51  1  0
 54 65  2  0
 55 53  1  0
 55 60  1  0
 56 64  1  0
 56 66  1  0
 57 63  1  0
 57 59  1  0
 58 64  1  0
 59 58  1  0
 60 59  2  0
 61 55  2  0
 62 61  1  0
 62 57  2  0
 63 56  1  0
 64 54  1  0
 66 68  2  0
 67 66  1  0
 69 67  1  0
 70 79  2  0
 70 75  1  0
 71 67  1  0
 71 75  1  0
 72 71  1  0
 73 74  1  0
 73 72  1  0
 74 70  1  0
 75 76  2  0
 76 77  1  0
 78 77  2  0
 79 78  1  0
 80 54  1  0
 80 81  1  0
 80 90  1  0
 81 84  1  0
 82 86  1  0
 82 81  1  0
 83 82  2  0
 86 85  1  0
 88 86  1  0
 88 89  1  0
 88 87  1  0
 90 93  1  1
 90 91  1  0
 92 90  1  0
M  ISO  4  10 100  18 100  52 101  53 101
M  END
>  <TORSDO>  (49) 
F 22

>  <SCORE>  (49) 
-12.922

>  <name>  (49) 
48

>  <ligand_id>  (49) 
48

>  <original_smiles>  (49) 
[H]c1c([H])c([H])c2c(c1[H])C([H])([H])C([H])([H])C([H])([H])C2([H])N([H])C(=O)C1([H])N(C(=O)C([H])(N([H])C(=O)C([H])(N([H])C([H])([H])[H])C([H])([H])[H])C(C([H])([H])[H])(C([H])([H])[H])C([H])([H])[H])C([H])([H])c2c([H])c(OC([H])([H])C([H])(C([H])([H])[H])C([H])([H])C([H])([H])n3c([H])c(C([H])([H])N([H])C(=O)N4C([H])([H])C([H])([H])C([H])([H])C([H])(n5nc(-c6c([H])c([H])c(Oc7c([H])c([H])c(F)c([H])c7F)c([H])c6[H])c(C(=O)N([H])[H])c5N([H])[H])C4([H])[H])c(C([H])(C([H])([H])[H])C([H])([H])[H])c3[H])c([H])c([H])c2C1([H])[H]

>  <smiles>  (49) 
[H]c1c([H])c([H])c2c(c1[H])C([H])([H])C([H])([H])C([H])([H])C2([H])N([H])C(=O)C1([H])N(C(=O)C([H])(N([H])C(=O)C([H])(N([H])C([H])([H])[H])C([H])([H])[H])C(C([H])([H])[H])(C([H])([H])[H])C([H])([H])[H])C([H])([H])c2c([H])c(OC([H])([H])C([H])(C([H])([H])[H])C([H])([H])C([H])([H])n3c([H])c(C([H])([H])N([H])C(=O)N4C([H])([H])C([H])([H])C([H])([H])C([H])(n5nc(-c6c([H])c([H])c(Oc7c([H])c([H])c(F)c([H])c7F)c([H])c6[H])c(C(=O)N([H])[H])c5N([H])[H])C4([H])[H])c(C([H])(C([H])([H])[H])C([H])([H])[H])c3[H])c([H])c([H])c2C1([H])[H]

$$$$
49:0:0
     RDKit          3D

 97105  0  0  1  0  0  0  0  0999 V2000
  -30.8260  -21.1590   20.9540 C   0  0  0  0  0  3  0  0  0  0  0  0
  -30.9740  -22.3530   20.2160 C   0  0  0  0  0  0  0  0  0  0  0  0
  -32.2870  -22.7680   19.8650 C   0  0  0  0  0  0  0  0  0  0  0  0
  -33.3740  -21.9870   20.3290 C   0  0  0  0  0  0  0  0  0  0  0  0
  -31.9680  -20.4480   21.3520 C   0  0  0  0  0  0  0  0  0  0  0  0
  -32.5360  -24.0030   18.9960 C   0  0  0  0  0  1  0  0  0  0  0  0
  -33.2070  -20.8620   21.0620 N   0  0  0  0  0  0  0  0  0  0  0  0
  -31.9250  -19.2670   22.0990 N   0  0  0  0  0  0  0  0  0  0  0  0
  -32.7960  -18.9050   22.4670 H   0  0  0  0  0  0  0  0  0  0  0  0
  -35.5270  -22.8260   21.3730 C   0  0  0  0  0  1  0  0  0  0  0  0
  -34.8370  -22.3490   20.0870 C   0  0  0  0  0  2  0  0  0  0  0  0
  -29.7180  -23.1270   19.8240 C   0  0  0  0  0  2  0  0  0  0  0  0
  -29.5970  -24.5180   20.4930 C   0  0  0  0  0  2  0  0  0  0  0  0
  -28.3410  -25.2700   20.0130 C   0  0  0  0  0  2  0  0  0  0  0  0
  -28.3700  -26.6520   20.4000 O   0  0  0  0  0  0  0  0  0  0  0  0
  -24.5640  -31.9080   23.3080 C   0  0  0  0  0  0  0  0  0  0  0  0
  -27.1890  -27.3700   20.3490 C   0  0  0  0  0  0  0  0  0  0  0  0
  -23.3540  -30.4890   21.6810 C   0  0  0  0  0  3  0  0  0  0  0  0
  -24.8050  -28.9020   20.3100 C   0  0  0  0  0  0  0  0  0  0  0  0
  -25.8870  -30.8100   21.5080 C   0  0  0  0  0  2  0  0  0  0  0  0
  -25.9620  -29.4240   20.8940 C   0  0  0  0  0  0  0  0  0  0  0  0
  -27.1540  -28.6660   20.9140 C   0  0  0  0  0  3  0  0  0  0  0  0
  -26.0070  -26.8660   19.7550 C   0  0  0  0  0  3  0  0  0  0  0  0
  -24.8190  -27.6170   19.7450 C   0  0  0  0  0  3  0  0  0  0  0  0
  -23.5710  -29.7710   20.3220 C   0  0  0  0  0  2  0  0  0  0  0  0
  -24.6180  -31.0870   22.2220 N   0  0  0  0  0  0  0  0  0  0  0  0
  -23.4820  -32.2040   23.8350 O   0  0  0  0  0  0  0  0  0  0  0  0
  -22.6760  -29.4990   22.6580 C   0  0  0  0  0  0  0  0  0  0  0  0
  -21.3590  -29.2960   22.4900 N   0  0  0  0  0  0  0  0  0  0  0  0
  -23.3350  -28.9110   23.5210 O   0  0  0  0  0  0  0  0  0  0  0  0
  -20.8810  -29.8210   21.7710 H   0  0  0  0  0  0  0  0  0  0  0  0
  -17.9860  -28.0650   22.9010 C   0  0  0  0  0  0  0  0  0  0  0  0
  -20.5270  -28.3800   23.2720 C   0  0  0  0  0  3  0  0  0  0  0  0
  -20.6750  -26.9230   22.7720 C   0  0  0  0  0  2  0  0  0  0  0  0
  -19.6240  -26.5380   21.7250 C   0  0  0  0  0  2  0  0  0  0  0  0
  -18.2120  -26.6890   22.2990 C   0  0  0  0  0  2  0  0  0  0  0  0
  -19.0730  -28.8630   23.3460 C   0  0  0  0  0  0  0  0  0  0  0  0
  -18.8090  -30.1510   23.8630 C   0  0  0  0  0  3  0  0  0  0  0  0
  -17.4900  -30.6390   23.9400 C   0  0  0  0  0  3  0  0  0  0  0  0
  -16.4170  -29.8360   23.5160 C   0  0  0  0  0  3  0  0  0  0  0  0
  -16.6660  -28.5500   23.0020 C   0  0  0  0  0  3  0  0  0  0  0  0
  -25.8530  -32.5330   23.9280 C   0  0  0  0  0  3  0  0  0  0  0  0
  -25.5590  -33.9420   24.2260 N   0  0  0  0  0  0  0  0  0  0  0  0
  -25.9030  -34.9730   23.4440 C   0  0  0  0  0  0  0  0  0  0  0  0
  -26.5730  -34.8400   22.4150 O   0  0  0  0  0  0  0  0  0  0  0  0
  -24.9670  -34.1170   25.0240 H   0  0  0  0  0  0  0  0  0  0  0  0
  -24.1920  -36.7700   23.0610 C   0  0  0  0  0  1  0  0  0  0  0  0
  -25.4330  -36.3750   23.8750 C   0  0  0  0  0  3  0  0  0  0  0  0
  -27.5770  -37.2610   24.6760 C   0  0  0  0  0  1  0  0  0  0  0  0
  -26.4740  -37.4150   23.7310 N   0  0  0  0  0  0  0  0  0  0  0  0
  -26.0750  -38.3420   23.8600 H   0  0  0  0  0  0  0  0  0  0  0  0
  -26.3490  -31.7790   25.2210 C   0  0  1  0  0  0  0  0  0  0  0  0
  -25.2430  -31.5610   26.2780 C   0  0  0  0  0  1  0  0  0  0  0  0
  -26.9350  -30.3960   24.8570 C   0  0  0  0  0  1  0  0  0  0  0  0
  -27.4880  -32.5840   25.8930 C   0  0  0  0  0  1  0  0  0  0  0  0
  -30.7270  -18.4310   22.1860 C   0  0  0  0  0  2  0  0  0  0  0  0
  -28.9440  -17.2930   20.7620 C   0  0  0  0  0  1  0  0  0  0  0  0
  -30.4450  -17.6030   20.9070 C   0  0  0  0  0  3  0  0  0  0  0  0
  -31.3780  -16.3600   20.7970 C   0  0  0  0  0  2  0  0  0  0  0  0
  -31.2120  -14.0130   19.9860 C   0  0  0  0  0  0  0  0  0  0  0  0
  -30.6840  -11.8660   18.9010 C   0  0  0  0  0  2  0  0  0  0  0  0
  -29.6680  -12.0850   17.7640 C   0  0  0  0  0  2  0  0  0  0  0  0
  -28.2240  -12.0540   18.3060 C   0  0  0  0  0  2  0  0  0  0  0  0
  -28.0300  -12.9480   19.5580 C   0  0  0  0  0  3  0  0  0  0  0  0
  -29.1470  -12.6840   20.5930 C   0  0  0  0  0  2  0  0  0  0  0  0
  -30.4400  -12.8950   19.9210 N   0  0  0  0  0  0  0  0  0  0  0  0
  -32.2990  -14.1100   19.4140 O   0  0  0  0  0  0  0  0  0  0  0  0
  -30.6850  -15.0660   20.6280 N   0  0  0  0  0  0  0  0  0  0  0  0
  -29.7630  -14.9610   21.0210 H   0  0  0  0  0  0  0  0  0  0  0  0
  -25.7460  -13.7280   20.4480 C   0  0  0  0  0  0  0  0  0  0  0  0
  -24.6460  -13.0340   20.8730 C   0  0  0  0  0  0  0  0  0  0  0  0
  -24.9900  -11.6510   20.7830 C   0  0  0  0  0  0  0  0  0  0  0  0
  -26.6960  -12.7720   20.1290 N   0  0  0  0  0  0  0  0  0  0  0  0
  -26.2480  -11.5150   20.3830 N   0  0  0  0  0  0  0  0  0  0  0  0
  -24.1750  -10.4430   20.9940 C   0  0  0  0  0  0  0  0  0  0  0  0
  -24.5830   -9.4230   21.8810 C   0  0  0  0  0  3  0  0  0  0  0  0
  -23.7700   -8.2870   22.0840 C   0  0  0  0  0  3  0  0  0  0  0  0
  -22.5380   -8.1610   21.4010 C   0  0  0  0  0  0  0  0  0  0  0  0
  -22.1480   -9.1720   20.5050 C   0  0  0  0  0  3  0  0  0  0  0  0
  -22.9590  -10.2990   20.2990 C   0  0  0  0  0  3  0  0  0  0  0  0
  -21.7010   -7.0800   21.5140 O   0  0  0  0  0  0  0  0  0  0  0  0
  -21.6550   -6.3200   22.6570 C   0  0  0  0  0  0  0  0  0  0  0  0
  -21.3260   -6.8810   23.9100 C   0  0  0  0  0  3  0  0  0  0  0  0
  -21.2240   -6.0530   25.0460 C   0  0  0  0  0  3  0  0  0  0  0  0
  -21.4400   -4.6670   24.9310 C   0  0  0  0  0  0  0  0  0  0  0  0
  -21.7640   -4.1070   23.6830 C   0  0  0  0  0  3  0  0  0  0  0  0
  -21.8680   -4.9310   22.5490 C   0  0  0  0  0  0  0  0  0  0  0  0
  -22.1590   -4.3830   21.3440 F   0  0  0  0  0  0  0  0  0  0  0  0
  -21.3350   -3.8700   26.0200 F   0  0  0  0  0  0  0  0  0  0  0  0
  -23.3150  -13.6170   21.2550 C   0  0  0  0  0  0  0  0  0  0  0  0
  -22.5980  -12.9690   22.1640 N   0  0  0  0  0  0  0  0  0  0  0  0
  -22.9240  -14.6820   20.7770 O   0  0  0  0  0  0  0  0  0  0  0  0
  -22.9300  -12.1070   22.5740 H   0  0  0  0  0  0  0  0  0  0  0  0
  -21.7100  -13.3490   22.4650 H   0  0  0  0  0  0  0  0  0  0  0  0
  -26.0090  -15.0830   20.2930 N   0  0  0  0  0  0  0  0  0  0  0  0
  -25.3140  -15.7920   20.4970 H   0  0  0  0  0  0  0  0  0  0  0  0
  -26.8770  -15.4640   19.9390 H   0  0  0  0  0  0  0  0  0  0  0  0
  1  5  1  0
  2  1  2  0
  3  2  1  0
  3  4  2  0
  4  7  1  0
  5  8  1  0
  6  3  1  0
  7  5  2  0
  8 56  1  0
  8  9  1  0
 11  4  1  0
 11 10  1  0
 12  2  1  0
 12 13  1  0
 14 15  1  0
 14 13  1  0
 16 27  2  0
 17 15  1  0
 17 22  1  0
 18 26  1  0
 18 28  1  0
 19 25  1  0
 19 21  1  0
 20 26  1  0
 21 22  2  0
 21 20  1  0
 23 17  2  0
 24 23  1  0
 24 19  2  0
 25 18  1  0
 26 16  1  0
 28 30  2  0
 29 28  1  0
 31 29  1  0
 32 41  2  0
 32 37  1  0
 33 29  1  0
 33 37  1  0
 34 33  1  0
 35 36  1  0
 35 34  1  0
 36 32  1  0
 37 38  2  0
 38 39  1  0
 40 39  2  0
 41 40  1  0
 42 16  1  0
 42 43  1  0
 42 52  1  0
 43 46  1  0
 44 48  1  0
 44 43  1  0
 45 44  2  0
 48 47  1  0
 50 51  1  0
 50 48  1  0
 50 49  1  0
 52 55  1  1
 52 53  1  0
 54 52  1  0
 58 57  1  0
 58 56  1  0
 59 58  1  0
 60 68  1  0
 61 66  1  0
 62 63  1  0
 62 61  1  0
 64 63  1  0
 64 73  1  0
 64 65  1  0
 66 60  1  0
 66 65  1  0
 67 60  2  0
 68 59  1  0
 68 69  1  0
 70 71  2  0
 71 90  1  0
 72 71  1  0
 72 75  1  0
 73 74  1  0
 73 70  1  0
 74 72  2  0
 75 76  1  0
 76 77  2  0
 78 81  1  0
 78 77  1  0
 79 78  2  0
 80 79  1  0
 80 75  2  0
 81 82  1  0
 82 83  1  0
 83 84  2  0
 85 84  1  0
 85 89  1  0
 86 85  2  0
 87 82  2  0
 87 86  1  0
 88 87  1  0
 90 91  1  0
 91 94  1  0
 91 93  1  0
 92 90  2  0
 95 70  1  0
 95 96  1  0
 97 95  1  0
M  ISO  4  14 101  15 101  60 100  68 100
M  END
>  <TORSDO>  (50) 
F 23

>  <SCORE>  (50) 
-12.305

>  <name>  (50) 
49

>  <ligand_id>  (50) 
49

>  <original_smiles>  (50) 
[H]c1c([H])c([H])c2c(c1[H])C([H])([H])C([H])([H])C([H])([H])C2([H])N([H])C(=O)C1([H])N(C(=O)C([H])(N([H])C(=O)C([H])(N([H])C([H])([H])[H])C([H])([H])[H])C(C([H])([H])[H])(C([H])([H])[H])C([H])([H])[H])C([H])([H])c2c([H])c(OC([H])([H])C([H])([H])C([H])([H])c3c([H])c(N([H])C([H])([H])C([H])(C([H])([H])[H])C([H])([H])N([H])C(=O)N4C([H])([H])C([H])([H])C([H])([H])C([H])(n5nc(-c6c([H])c([H])c(Oc7c([H])c([H])c(F)c([H])c7F)c([H])c6[H])c(C(=O)N([H])[H])c5N([H])[H])C4([H])[H])nc(C([H])([H])C([H])([H])[H])c3C([H])([H])[H])c([H])c([H])c2C1([H])[H]

>  <smiles>  (50) 
[H]c1c([H])c([H])c2c(c1[H])C([H])([H])C([H])([H])C([H])([H])C2([H])N([H])C(=O)C1([H])N(C(=O)C([H])(N([H])C(=O)C([H])(N([H])C([H])([H])[H])C([H])([H])[H])C(C([H])([H])[H])(C([H])([H])[H])C([H])([H])[H])C([H])([H])c2c([H])c(OC([H])([H])C([H])([H])C([H])([H])c3c([H])c(N([H])C([H])([H])C([H])(C([H])([H])[H])C([H])([H])N([H])C(=O)N4C([H])([H])C([H])([H])C([H])([H])C([H])(n5nc(-c6c([H])c([H])c(Oc7c([H])c([H])c(F)c([H])c7F)c([H])c6[H])c(C(=O)N([H])[H])c5N([H])[H])C4([H])[H])nc(C([H])([H])C([H])([H])[H])c3C([H])([H])[H])c([H])c([H])c2C1([H])[H]

$$$$
50:0:0
     RDKit          3D

 97105  0  0  1  0  0  0  0  0999 V2000
  -31.4380  -18.5670   19.0180 C   0  0  0  0  0  3  0  0  0  0  0  0
  -31.8430  -19.8390   18.5720 C   0  0  0  0  0  3  0  0  0  0  0  0
  -30.1170  -18.3530   19.4490 C   0  0  0  0  0  0  0  0  0  0  0  0
  -29.2590  -19.5350   19.4310 C   0  0  0  0  0  0  0  0  0  0  0  0
  -29.7410  -20.8090   18.8970 C   0  0  0  0  0  0  0  0  0  0  0  0
  -31.0200  -20.9070   18.4780 N   0  0  0  0  0  0  0  0  0  0  0  0
  -29.6910  -16.8470   19.7570 C   0  0  0  0  0  2  0  0  0  0  0  0
  -31.1300  -14.6530   19.4540 C   0  0  0  0  0  0  0  0  0  0  0  0
  -30.6620  -12.4080   18.4730 C   0  0  0  0  0  2  0  0  0  0  0  0
  -29.6320  -12.5110   17.3300 C   0  0  0  0  0  2  0  0  0  0  0  0
  -28.2070  -12.3890   17.8950 C   0  0  0  0  0  2  0  0  0  0  0  0
  -27.9720  -13.3120   19.1200 C   0  0  0  0  0  3  0  0  0  0  0  0
  -29.1220  -13.2290   20.1490 C   0  0  0  0  0  2  0  0  0  0  0  0
  -30.3780  -13.4990   19.4390 N   0  0  0  0  0  0  0  0  0  0  0  0
  -32.2370  -14.6670   18.9180 O   0  0  0  0  0  0  0  0  0  0  0  0
  -30.7210  -15.7990   20.0970 N   0  0  0  0  0  0  0  0  0  0  0  0
  -31.5480  -16.2860   20.4100 H   0  0  0  0  0  0  0  0  0  0  0  0
  -25.7080  -13.9960   20.1100 C   0  0  0  0  0  0  0  0  0  0  0  0
  -24.6430  -13.2640   20.5610 C   0  0  0  0  0  0  0  0  0  0  0  0
  -25.0230  -11.8930   20.4330 C   0  0  0  0  0  0  0  0  0  0  0  0
  -26.6710  -13.0740   19.7370 N   0  0  0  0  0  0  0  0  0  0  0  0
  -26.2720  -11.8010   19.9940 N   0  0  0  0  0  0  0  0  0  0  0  0
  -24.2470  -10.6640   20.6490 C   0  0  0  0  0  0  0  0  0  0  0  0
  -24.7490   -9.6000   21.4320 C   0  0  0  0  0  3  0  0  0  0  0  0
  -23.9740   -8.4390   21.6400 C   0  0  0  0  0  3  0  0  0  0  0  0
  -22.6840   -8.3330   21.0690 C   0  0  0  0  0  0  0  0  0  0  0  0
  -22.1990   -9.3840   20.2710 C   0  0  0  0  0  3  0  0  0  0  0  0
  -22.9720  -10.5380   20.0590 C   0  0  0  0  0  3  0  0  0  0  0  0
  -21.8720   -7.2300   21.1960 O   0  0  0  0  0  0  0  0  0  0  0  0
  -22.0450   -6.3220   22.2110 C   0  0  0  0  0  0  0  0  0  0  0  0
  -21.9840   -6.7020   23.5690 C   0  0  0  0  0  3  0  0  0  0  0  0
  -22.0980   -5.7260   24.5790 C   0  0  0  0  0  3  0  0  0  0  0  0
  -22.2620   -4.3710   24.2340 C   0  0  0  0  0  0  0  0  0  0  0  0
  -22.3170   -3.9890   22.8820 C   0  0  0  0  0  3  0  0  0  0  0  0
  -22.2050   -4.9630   21.8720 C   0  0  0  0  0  0  0  0  0  0  0  0
  -22.2390   -4.5870   20.5710 F   0  0  0  0  0  0  0  0  0  0  0  0
  -22.3630   -3.4320   25.2030 F   0  0  0  0  0  0  0  0  0  0  0  0
  -23.3080  -13.8050   20.9850 C   0  0  0  0  0  0  0  0  0  0  0  0
  -22.6520  -13.1480   21.9350 N   0  0  0  0  0  0  0  0  0  0  0  0
  -22.8640  -14.8470   20.5060 O   0  0  0  0  0  0  0  0  0  0  0  0
  -23.0270  -12.3060   22.3470 H   0  0  0  0  0  0  0  0  0  0  0  0
  -21.7620  -13.4990   22.2610 H   0  0  0  0  0  0  0  0  0  0  0  0
  -25.9270  -15.3630   19.9580 N   0  0  0  0  0  0  0  0  0  0  0  0
  -25.1260  -15.9820   20.0180 H   0  0  0  0  0  0  0  0  0  0  0  0
  -26.6440  -15.7040   19.3310 H   0  0  0  0  0  0  0  0  0  0  0  0
  -27.8570  -19.4610   20.0530 C   0  0  0  0  0  2  0  0  0  0  0  0
  -27.2410  -18.2530   17.9400 C   0  0  0  0  0  1  0  0  0  0  0  0
  -26.8000  -18.7650   19.2640 N   0  0  2  0  0  4  0  0  0  0  0  0
  -26.5760  -17.9420   19.8030 H   0  0  0  0  0  0  0  0  0  0  0  0
  -24.3060  -18.5780   19.2670 C   0  0  0  0  0  1  0  0  0  0  0  0
  -25.5150  -19.5320   19.2340 C   0  0  0  0  0  3  0  0  0  0  0  0
  -24.3170  -21.5860   18.2120 C   0  0  0  0  0  1  0  0  0  0  0  0
  -25.4290  -20.5390   18.0540 C   0  0  0  0  0  2  0  0  0  0  0  0
  -28.8430  -22.0640   18.4780 C   0  0  0  0  0  2  0  0  0  0  0  0
  -29.3670  -23.5910   18.3940 C   0  0  0  0  0  3  0  0  0  0  0  0
  -28.2250  -24.7200   18.2200 C   0  0  0  0  0  3  0  0  0  0  0  0
  -28.4610  -26.2020   18.1800 O   0  0  0  0  0  0  0  0  0  0  0  0
  -25.3370  -30.6020   23.0350 C   0  0  0  0  0  0  0  0  0  0  0  0
  -27.3780  -27.0470   18.5220 C   0  0  0  0  0  0  0  0  0  0  0  0
  -23.8760  -29.6460   21.2930 C   0  0  0  0  0  3  0  0  0  0  0  0
  -25.0670  -28.5680   19.3020 C   0  0  0  0  0  0  0  0  0  0  0  0
  -26.3650  -30.0660   20.8110 C   0  0  0  0  0  2  0  0  0  0  0  0
  -26.3240  -28.9070   19.8180 C   0  0  0  0  0  0  0  0  0  0  0  0
  -27.4810  -28.1640   19.4190 C   0  0  0  0  0  3  0  0  0  0  0  0
  -26.0900  -26.7860   17.9970 C   0  0  0  0  0  3  0  0  0  0  0  0
  -24.9540  -27.5190   18.3830 C   0  0  0  0  0  3  0  0  0  0  0  0
  -23.8640  -29.3620   19.7680 C   0  0  0  0  0  2  0  0  0  0  0  0
  -25.2210  -30.1080   21.7680 N   0  0  0  0  0  0  0  0  0  0  0  0
  -24.3530  -30.6980   23.7840 O   0  0  0  0  0  0  0  0  0  0  0  0
  -23.3580  -28.3950   22.0420 C   0  0  0  0  0  0  0  0  0  0  0  0
  -22.0490  -28.1110   21.9190 N   0  0  0  0  0  0  0  0  0  0  0  0
  -24.1290  -27.6910   22.6990 O   0  0  0  0  0  0  0  0  0  0  0  0
  -21.4780  -28.7430   21.3760 H   0  0  0  0  0  0  0  0  0  0  0  0
  -18.9100  -26.3100   21.9950 C   0  0  0  0  0  0  0  0  0  0  0  0
  -21.3610  -26.9580   22.5020 C   0  0  0  0  0  3  0  0  0  0  0  0
  -21.7480  -25.6490   21.7760 C   0  0  0  0  0  2  0  0  0  0  0  0
  -20.7850  -25.2760   20.6450 C   0  0  0  0  0  2  0  0  0  0  0  0
  -19.3630  -25.1060   21.1880 C   0  0  0  0  0  2  0  0  0  0  0  0
  -19.8480  -27.1880   22.6000 C   0  0  0  0  0  0  0  0  0  0  0  0
  -19.3740  -28.3090   23.3140 C   0  0  0  0  0  3  0  0  0  0  0  0
  -17.9930  -28.5620   23.4260 C   0  0  0  0  0  3  0  0  0  0  0  0
  -17.0690  -27.6820   22.8370 C   0  0  0  0  0  3  0  0  0  0  0  0
  -17.5280  -26.5570   22.1290 C   0  0  0  0  0  3  0  0  0  0  0  0
  -26.7070  -31.0900   23.5970 C   0  0  0  0  0  3  0  0  0  0  0  0
  -26.4480  -32.2660   24.4380 N   0  0  0  0  0  0  0  0  0  0  0  0
  -26.8290  -33.5150   24.1380 C   0  0  0  0  0  0  0  0  0  0  0  0
  -27.5030  -33.7890   23.1410 O   0  0  0  0  0  0  0  0  0  0  0  0
  -25.8510  -32.1270   25.2400 H   0  0  0  0  0  0  0  0  0  0  0  0
  -25.2200  -35.4210   24.4780 C   0  0  0  0  0  1  0  0  0  0  0  0
  -26.3940  -34.6420   25.0950 C   0  0  0  0  0  3  0  0  0  0  0  0
  -28.5270  -34.9780   26.2660 C   0  0  0  0  0  1  0  0  0  0  0  0
  -27.4860  -35.5800   25.4350 N   0  0  0  0  0  0  0  0  0  0  0  0
  -27.1240  -36.3960   25.9220 H   0  0  0  0  0  0  0  0  0  0  0  0
  -27.4690  -29.9790   24.4170 C   0  0  1  0  0  0  0  0  0  0  0  0
  -26.6110  -29.3230   25.5240 C   0  0  0  0  0  1  0  0  0  0  0  0
  -27.9770  -28.8540   23.4850 C   0  0  0  0  0  1  0  0  0  0  0  0
  -28.7210  -30.5930   25.0880 C   0  0  0  0  0  1  0  0  0  0  0  0
  1  3  1  0
  2  1  2  0
  3  7  1  0
  4  3  2  0
  4 46  1  0
  5  4  1  0
  6  2  1  0
  6  5  2  0
  7 16  1  0
  8 16  1  0
  9 14  1  0
 10 11  1  0
 10  9  1  0
 12 11  1  0
 12 21  1  0
 12 13  1  0
 14  8  1  0
 14 13  1  0
 15  8  2  0
 16 17  1  0
 18 19  2  0
 19 38  1  0
 20 19  1  0
 20 23  1  0
 21 22  1  0
 21 18  1  0
 22 20  2  0
 23 24  1  0
 24 25  2  0
 26 29  1  0
 26 25  1  0
 27 26  2  0
 28 27  1  0
 28 23  2  0
 29 30  1  0
 30 31  1  0
 31 32  2  0
 33 32  1  0
 33 37  1  0
 34 33  2  0
 35 30  2  0
 35 34  1  0
 36 35  1  0
 38 39  1  0
 39 42  1  0
 39 41  1  0
 40 38  2  0
 43 44  1  0
 43 18  1  0
 45 43  1  0
 47 48  1  0
 48 49  1  1
 48 46  1  0
 51 48  1  0
 51 50  1  0
 53 52  1  0
 53 51  1  0
 54  5  1  0
 55 54  1  0
 56 55  2  0
 57 56  1  0
 57 59  1  0
 58 69  2  0
 59 64  1  0
 60 68  1  0
 60 70  1  0
 61 67  1  0
 61 63  1  0
 62 68  1  0
 63 62  1  0
 64 63  2  0
 65 66  1  0
 65 59  2  0
 66 61  2  0
 67 60  1  0
 68 58  1  0
 70 72  2  0
 71 70  1  0
 73 71  1  0
 74 83  2  0
 74 79  1  0
 75 71  1  0
 75 79  1  0
 76 75  1  0
 77 78  1  0
 77 76  1  0
 78 74  1  0
 79 80  2  0
 80 81  1  0
 82 81  2  0
 83 82  1  0
 84 58  1  0
 84 94  1  0
 84 85  1  0
 85 88  1  0
 86 85  1  0
 86 90  1  0
 87 86  2  0
 90 89  1  0
 90 92  1  0
 92 93  1  0
 92 91  1  0
 94 97  1  1
 94 95  1  0
 96 94  1  0
M  ISO  4   8 100  16 100  56 101  57 101
M  END
>  <TORSDO>  (51) 
F 24

>  <SCORE>  (51) 
-6.695

>  <name>  (51) 
50

>  <ligand_id>  (51) 
50

>  <original_smiles>  (51) 
[H]c1nc(C([H])([H])C([H])([H])C([H])([H])Oc2c([H])c([H])c3c(c2[H])C([H])([H])N(C(=O)C([H])(N([H])C(=O)C([H])(N([H])C([H])([H])[H])C([H])([H])[H])C(C([H])([H])[H])(C([H])([H])[H])C([H])([H])[H])C([H])(C(=O)N([H])C2([H])c4c([H])c([H])c([H])c([H])c4C([H])([H])C([H])([H])C2([H])[H])C3([H])[H])c(C([H])([H])[N+]([H])(C([H])([H])[H])C([H])(C([H])([H])[H])C([H])([H])C([H])([H])[H])c(C([H])([H])N([H])C(=O)N2C([H])([H])C([H])([H])C([H])([H])C([H])(n3nc(-c4c([H])c([H])c(Oc5c([H])c([H])c(F)c([H])c5F)c([H])c4[H])c(C(=O)N([H])[H])c3N([H])[H])C2([H])[H])c1[H]

>  <smiles>  (51) 
[H]c1nc(C([H])([H])C([H])([H])C([H])([H])Oc2c([H])c([H])c3c(c2[H])C([H])([H])N(C(=O)C([H])(N([H])C(=O)C([H])(N([H])C([H])([H])[H])C([H])([H])[H])C(C([H])([H])[H])(C([H])([H])[H])C([H])([H])[H])C([H])(C(=O)N([H])C2([H])c4c([H])c([H])c([H])c([H])c4C([H])([H])C([H])([H])C2([H])[H])C3([H])[H])c(C([H])([H])[N+]([H])(C([H])([H])[H])C([H])(C([H])([H])[H])C([H])([H])C([H])([H])[H])c(C([H])([H])N([H])C(=O)N2C([H])([H])C([H])([H])C([H])([H])C([H])(n3nc(-c4c([H])c([H])c(Oc5c([H])c([H])c(F)c([H])c5F)c([H])c4[H])c(C(=O)N([H])[H])c3N([H])[H])C2([H])[H])c1[H]

$$$$
51:0:0
     RDKit          3D

102110  0  0  1  0  0  0  0  0999 V2000
  -29.7710  -22.8090   19.9470 C   0  0  0  0  0  3  0  0  0  0  0  0
  -28.3820  -24.6030   20.7960 C   0  0  0  0  0  3  0  0  0  0  0  0
  -28.9760  -23.9400   19.7110 C   0  0  0  0  0  0  0  0  0  0  0  0
  -29.9360  -22.2900   21.2510 C   0  0  0  0  0  0  0  0  0  0  0  0
  -28.5760  -24.1580   22.1200 C   0  0  0  0  0  0  0  0  0  0  0  0
  -29.3340  -22.9690   22.3530 C   0  0  0  0  0  0  0  0  0  0  0  0
  -30.7930  -22.9420   24.4400 C   0  0  0  0  0  1  0  0  0  0  0  0
  -29.5110  -22.4260   23.7760 C   0  0  0  0  0  2  0  0  0  0  0  0
  -28.8920  -26.0960   23.7520 C   0  0  0  0  0  1  0  0  0  0  0  0
  -27.9420  -24.9950   23.2470 C   0  0  0  0  0  3  0  0  0  0  0  0
  -25.5740  -24.5870   22.3080 C   0  0  0  0  0  1  0  0  0  0  0  0
  -26.5880  -25.6100   22.8360 C   0  0  0  0  0  2  0  0  0  0  0  0
  -28.7780  -24.4310   18.2890 C   0  0  0  0  0  2  0  0  0  0  0  0
  -29.6820  -25.6270   17.9470 C   0  0  0  0  0  2  0  0  0  0  0  0
  -29.0010  -26.9870   18.1490 C   0  0  0  0  0  2  0  0  0  0  0  0
  -28.5900  -27.1610   19.5060 O   0  0  0  0  0  0  0  0  0  0  0  0
  -24.5520  -31.7210   23.1960 C   0  0  0  0  0  0  0  0  0  0  0  0
  -27.3700  -27.7700   19.6550 C   0  0  0  0  0  0  0  0  0  0  0  0
  -23.3890  -30.4280   21.4360 C   0  0  0  0  0  3  0  0  0  0  0  0
  -24.8940  -29.1010   19.8650 C   0  0  0  0  0  0  0  0  0  0  0  0
  -25.8890  -30.9280   21.2540 C   0  0  0  0  0  2  0  0  0  0  0  0
  -26.0300  -29.6290   20.4940 C   0  0  0  0  0  0  0  0  0  0  0  0
  -27.2690  -28.9610   20.4020 C   0  0  0  0  0  3  0  0  0  0  0  0
  -26.2110  -27.2250   19.0610 C   0  0  0  0  0  3  0  0  0  0  0  0
  -24.9760  -27.8910   19.1550 C   0  0  0  0  0  3  0  0  0  0  0  0
  -23.6070  -29.8830   20.0000 C   0  0  0  0  0  2  0  0  0  0  0  0
  -24.6280  -31.0360   22.0220 N   0  0  0  0  0  0  0  0  0  0  0  0
  -23.4660  -31.8940   23.7670 O   0  0  0  0  0  0  0  0  0  0  0  0
  -22.7940  -29.2960   22.3000 C   0  0  0  0  0  0  0  0  0  0  0  0
  -21.4750  -29.0800   22.1710 N   0  0  0  0  0  0  0  0  0  0  0  0
  -23.5140  -28.6190   23.0370 O   0  0  0  0  0  0  0  0  0  0  0  0
  -20.9540  -29.6840   21.5490 H   0  0  0  0  0  0  0  0  0  0  0  0
  -18.1580  -27.7070   22.5630 C   0  0  0  0  0  0  0  0  0  0  0  0
  -20.7040  -28.0410   22.8490 C   0  0  0  0  0  3  0  0  0  0  0  0
  -20.8620  -26.6770   22.1380 C   0  0  0  0  0  2  0  0  0  0  0  0
  -19.7660  -26.4070   21.1020 C   0  0  0  0  0  2  0  0  0  0  0  0
  -18.3830  -26.4370   21.7600 C   0  0  0  0  0  2  0  0  0  0  0  0
  -19.2480  -28.4720   23.0570 C   0  0  0  0  0  0  0  0  0  0  0  0
  -18.9840  -29.6660   23.7630 C   0  0  0  0  0  3  0  0  0  0  0  0
  -17.6610  -30.0970   23.9770 C   0  0  0  0  0  3  0  0  0  0  0  0
  -16.5860  -29.3310   23.4960 C   0  0  0  0  0  3  0  0  0  0  0  0
  -16.8340  -28.1360   22.8000 C   0  0  0  0  0  3  0  0  0  0  0  0
  -25.8170  -32.3460   23.8650 C   0  0  0  0  0  3  0  0  0  0  0  0
  -25.4860  -33.7260   24.2400 N   0  0  0  0  0  0  0  0  0  0  0  0
  -25.8250  -34.8110   23.5300 C   0  0  0  0  0  0  0  0  0  0  0  0
  -26.5240  -34.7540   22.5150 O   0  0  0  0  0  0  0  0  0  0  0  0
  -24.8740  -33.8420   25.0350 H   0  0  0  0  0  0  0  0  0  0  0  0
  -24.0800  -36.5920   23.1990 C   0  0  0  0  0  1  0  0  0  0  0  0
  -25.3080  -36.1760   24.0240 C   0  0  0  0  0  3  0  0  0  0  0  0
  -27.4090  -37.0620   24.9330 C   0  0  0  0  0  1  0  0  0  0  0  0
  -26.3270  -37.2460   23.9690 N   0  0  0  0  0  0  0  0  0  0  0  0
  -25.9040  -38.1540   24.1390 H   0  0  0  0  0  0  0  0  0  0  0  0
  -26.3230  -31.5350   25.1200 C   0  0  1  0  0  0  0  0  0  0  0  0
  -25.2200  -31.2490   26.1660 C   0  0  0  0  0  1  0  0  0  0  0  0
  -26.9210  -30.1770   24.6810 C   0  0  0  0  0  1  0  0  0  0  0  0
  -27.4570  -32.3130   25.8290 C   0  0  0  0  0  1  0  0  0  0  0  0
  -30.7130  -20.9830   21.4590 C   0  0  0  0  0  2  0  0  0  0  0  0
  -31.4900  -20.4350   20.2320 C   0  0  0  0  0  2  0  0  0  0  0  0
  -33.2710  -18.8780   19.5410 C   0  0  0  0  0  1  0  0  0  0  0  0
  -32.1670  -19.1390   20.4970 N   0  0  2  0  0  4  0  0  0  0  0  0
  -32.5950  -19.2250   21.4070 H   0  0  0  0  0  0  0  0  0  0  0  0
  -31.2190  -17.9960   20.5480 C   0  0  0  0  0  2  0  0  0  0  0  0
  -31.6550  -16.9210   21.5560 C   0  0  0  0  0  2  0  0  0  0  0  0
  -30.5660  -15.8460   21.7740 C   0  0  0  0  0  2  0  0  0  0  0  0
  -30.6340  -14.3210   19.8190 C   0  0  0  0  0  0  0  0  0  0  0  0
  -30.0270  -12.3780   18.4410 C   0  0  0  0  0  2  0  0  0  0  0  0
  -28.9010  -12.6230   17.4260 C   0  0  0  0  0  2  0  0  0  0  0  0
  -27.5290  -12.4000   18.0800 C   0  0  0  0  0  2  0  0  0  0  0  0
  -27.3700  -13.2010   19.3960 C   0  0  0  0  0  3  0  0  0  0  0  0
  -28.5790  -12.9790   20.3350 C   0  0  0  0  0  2  0  0  0  0  0  0
  -29.8290  -13.2550   19.6010 N   0  0  0  0  0  0  0  0  0  0  0  0
  -31.3300  -14.8530   18.9470 O   0  0  0  0  0  0  0  0  0  0  0  0
  -31.8310  -13.7310   21.8440 C   0  0  0  0  0  1  0  0  0  0  0  0
  -30.8560  -14.5630   21.1280 N   0  0  0  0  0  0  0  0  0  0  0  0
  -25.0960  -13.7370   20.4870 C   0  0  0  0  0  0  0  0  0  0  0  0
  -24.0960  -12.9310   20.9590 C   0  0  0  0  0  0  0  0  0  0  0  0
  -24.5470  -11.5890   20.7700 C   0  0  0  0  0  0  0  0  0  0  0  0
  -26.1000  -12.8850   20.0520 N   0  0  0  0  0  0  0  0  0  0  0  0
  -25.7780  -11.5840   20.2720 N   0  0  0  0  0  0  0  0  0  0  0  0
  -23.8580  -10.3090   20.9830 C   0  0  0  0  0  0  0  0  0  0  0  0
  -24.3420   -9.3530   21.9060 C   0  0  0  0  0  3  0  0  0  0  0  0
  -23.6510   -8.1390   22.1070 C   0  0  0  0  0  3  0  0  0  0  0  0
  -22.4630   -7.8710   21.3870 C   0  0  0  0  0  0  0  0  0  0  0  0
  -21.9990   -8.8150   20.4540 C   0  0  0  0  0  3  0  0  0  0  0  0
  -22.6910  -10.0210   20.2500 C   0  0  0  0  0  3  0  0  0  0  0  0
  -21.7420   -6.7060   21.4970 O   0  0  0  0  0  0  0  0  0  0  0  0
  -21.6500   -6.0270   22.6850 C   0  0  0  0  0  0  0  0  0  0  0  0
  -21.1180   -6.6270   23.8480 C   0  0  0  0  0  3  0  0  0  0  0  0
  -20.9780   -5.8700   25.0280 C   0  0  0  0  0  3  0  0  0  0  0  0
  -21.3600   -4.5150   25.0470 C   0  0  0  0  0  0  0  0  0  0  0  0
  -21.8840   -3.9150   23.8890 C   0  0  0  0  0  3  0  0  0  0  0  0
  -22.0260   -4.6680   22.7110 C   0  0  0  0  0  0  0  0  0  0  0  0
  -22.5110   -4.0800   21.5910 F   0  0  0  0  0  0  0  0  0  0  0  0
  -21.2190   -3.7860   26.1780 F   0  0  0  0  0  0  0  0  0  0  0  0
  -22.7540  -13.3740   21.4730 C   0  0  0  0  0  0  0  0  0  0  0  0
  -22.1760  -12.6220   22.4020 N   0  0  0  0  0  0  0  0  0  0  0  0
  -22.2330  -14.4200   21.0840 O   0  0  0  0  0  0  0  0  0  0  0  0
  -22.6130  -11.7740   22.7320 H   0  0  0  0  0  0  0  0  0  0  0  0
  -21.2840  -12.8950   22.7900 H   0  0  0  0  0  0  0  0  0  0  0  0
  -25.2310  -15.1170   20.3740 N   0  0  0  0  0  0  0  0  0  0  0  0
  -24.4880  -15.7590   20.6340 H   0  0  0  0  0  0  0  0  0  0  0  0
  -26.0300  -15.5850   19.9640 H   0  0  0  0  0  0  0  0  0  0  0  0
  1  4  1  0
  2  5  2  0
  3  1  2  0
  3  2  1  0
  4 57  1  0
  4  6  2  0
  5  6  1  0
  5 10  1  0
  6  8  1  0
  8  7  1  0
 10  9  1  0
 11 12  1  0
 12 10  1  0
 13  3  1  0
 14 15  1  0
 14 13  1  0
 15 16  1  0
 16 18  1  0
 17 28  2  0
 18 23  1  0
 19 27  1  0
 19 29  1  0
 20 26  1  0
 20 22  1  0
 21 27  1  0
 22 21  1  0
 23 22  2  0
 24 25  1  0
 24 18  2  0
 25 20  2  0
 26 19  1  0
 27 17  1  0
 29 31  2  0
 30 29  1  0
 32 30  1  0
 33 42  2  0
 33 38  1  0
 34 30  1  0
 34 38  1  0
 35 34  1  0
 36 37  1  0
 36 35  1  0
 37 33  1  0
 38 39  2  0
 39 40  1  0
 41 40  2  0
 42 41  1  0
 43 17  1  0
 43 44  1  0
 43 53  1  0
 44 47  1  0
 45 49  1  0
 45 44  1  0
 46 45  2  0
 49 48  1  0
 51 49  1  0
 51 52  1  0
 51 50  1  0
 53 56  1  1
 53 54  1  0
 55 53  1  0
 58 60  1  0
 58 57  1  0
 59 60  1  0
 60 62  1  0
 60 61  1  1
 62 63  1  0
 63 64  1  0
 65 74  1  0
 66 71  1  0
 67 68  1  0
 67 66  1  0
 69 68  1  0
 69 78  1  0
 69 70  1  0
 71 65  1  0
 71 70  1  0
 72 65  2  0
 74 64  1  0
 74 73  1  0
 75 76  2  0
 76 95  1  0
 77 76  1  0
 77 80  1  0
 78 79  1  0
 78 75  1  0
 79 77  2  0
 80 81  1  0
 81 82  2  0
 83 86  1  0
 83 82  1  0
 84 83  2  0
 85 84  1  0
 85 80  2  0
 86 87  1  0
 87 92  2  0
 87 88  1  0
 88 89  2  0
 89 90  1  0
 90 94  1  0
 91 90  2  0
 92 91  1  0
 93 92  1  0
 95 96  1  0
 96 98  1  0
 96 99  1  0
 97 95  2  0
100 75  1  0
100101  1  0
102100  1  0
M  ISO  4  15 101  16 101  65 100  74 100
M  END
>  <TORSDO>  (52) 
F 28

>  <SCORE>  (52) 
-9.395

>  <name>  (52) 
51

>  <ligand_id>  (52) 
51

>  <original_smiles>  (52) 
[H]c1c([H])c([H])c2c(c1[H])C([H])([H])C([H])([H])C([H])([H])C2([H])N([H])C(=O)C1([H])N(C(=O)C([H])(N([H])C(=O)C([H])(N([H])C([H])([H])[H])C([H])([H])[H])C(C([H])([H])[H])(C([H])([H])[H])C([H])([H])[H])C([H])([H])c2c([H])c(OC([H])([H])C([H])([H])C([H])([H])c3c([H])c(C([H])([H])C([H])([H])[N+]([H])(C([H])([H])[H])C([H])([H])C([H])([H])C([H])([H])N(C(=O)N4C([H])([H])C([H])([H])C([H])([H])C([H])(n5nc(-c6c([H])c([H])c(Oc7c([H])c([H])c(F)c([H])c7F)c([H])c6[H])c(C(=O)N([H])[H])c5N([H])[H])C4([H])[H])C([H])([H])[H])c(C([H])([H])C([H])([H])[H])c(C([H])(C([H])([H])[H])C([H])([H])C([H])([H])[H])c3[H])c([H])c([H])c2C1([H])[H]

>  <smiles>  (52) 
[H]c1c([H])c([H])c2c(c1[H])C([H])([H])C([H])([H])C([H])([H])C2([H])N([H])C(=O)C1([H])N(C(=O)C([H])(N([H])C(=O)C([H])(N([H])C([H])([H])[H])C([H])([H])[H])C(C([H])([H])[H])(C([H])([H])[H])C([H])([H])[H])C([H])([H])c2c([H])c(OC([H])([H])C([H])([H])C([H])([H])c3c([H])c(C([H])([H])C([H])([H])[N+]([H])(C([H])([H])[H])C([H])([H])C([H])([H])C([H])([H])N(C(=O)N4C([H])([H])C([H])([H])C([H])([H])C([H])(n5nc(-c6c([H])c([H])c(Oc7c([H])c([H])c(F)c([H])c7F)c([H])c6[H])c(C(=O)N([H])[H])c5N([H])[H])C4([H])[H])C([H])([H])[H])c(C([H])([H])C([H])([H])[H])c(C([H])(C([H])([H])[H])C([H])([H])C([H])([H])[H])c3[H])c([H])c([H])c2C1([H])[H]

$$$$
52:0:0
     RDKit          3D

 91 99  0  0  1  0  0  0  0  0999 V2000
  -28.6280  -23.1230   20.3930 C   0  0  0  0  0  3  0  0  0  0  0  0
  -30.6840  -21.5730   21.1860 C   0  0  0  0  0  3  0  0  0  0  0  0
  -29.1100  -20.5910   20.0420 C   0  0  0  0  0  3  0  0  0  0  0  0
  -29.4500  -21.8340   20.5180 C   0  0  0  0  0  0  0  0  0  0  0  0
  -31.0410  -20.2870   21.1410 N   0  0  0  0  0  0  0  0  0  0  0  0
  -30.0480  -19.6640   20.4630 N   0  0  0  0  0  0  0  0  0  0  0  0
  -30.0840  -18.2170   20.1810 C   0  0  0  0  0  2  0  0  0  0  0  0
  -30.5420  -17.3060   21.3570 C   0  0  0  0  0  2  0  0  0  0  0  0
  -30.8870  -14.9030   20.5960 C   0  0  0  0  0  0  0  0  0  0  0  0
  -30.6470  -12.7420   19.4190 C   0  0  0  0  0  2  0  0  0  0  0  0
  -29.7170  -12.9230   18.2020 C   0  0  0  0  0  2  0  0  0  0  0  0
  -28.2380  -12.7650   18.6090 C   0  0  0  0  0  2  0  0  0  0  0  0
  -27.8690  -13.5970   19.8660 C   0  0  0  0  0  3  0  0  0  0  0  0
  -28.9090  -13.3830   20.9890 C   0  0  0  0  0  2  0  0  0  0  0  0
  -30.2380  -13.7140   20.4460 N   0  0  0  0  0  0  0  0  0  0  0  0
  -32.0060  -15.1200   20.1250 O   0  0  0  0  0  0  0  0  0  0  0  0
  -30.1720  -15.8830   21.1820 N   0  0  0  0  0  0  0  0  0  0  0  0
  -29.2630  -15.6100   21.5260 H   0  0  0  0  0  0  0  0  0  0  0  0
  -25.4540  -14.1800   20.5410 C   0  0  0  0  0  0  0  0  0  0  0  0
  -24.3860  -13.3960   20.8860 C   0  0  0  0  0  0  0  0  0  0  0  0
  -24.8570  -12.0490   20.8480 C   0  0  0  0  0  0  0  0  0  0  0  0
  -26.5100  -13.3080   20.3200 N   0  0  0  0  0  0  0  0  0  0  0  0
  -26.1530  -12.0210   20.5610 N   0  0  0  0  0  0  0  0  0  0  0  0
  -24.1380  -10.7780   21.0140 C   0  0  0  0  0  0  0  0  0  0  0  0
  -24.5170   -9.8370   21.9960 C   0  0  0  0  0  3  0  0  0  0  0  0
  -23.7990   -8.6310   22.1470 C   0  0  0  0  0  3  0  0  0  0  0  0
  -22.6860   -8.3590   21.3160 C   0  0  0  0  0  0  0  0  0  0  0  0
  -22.3270   -9.2890   20.3250 C   0  0  0  0  0  3  0  0  0  0  0  0
  -23.0460  -10.4860   20.1720 C   0  0  0  0  0  3  0  0  0  0  0  0
  -21.9450   -7.2030   21.3740 O   0  0  0  0  0  0  0  0  0  0  0  0
  -21.7780   -6.5150   22.5480 C   0  0  0  0  0  0  0  0  0  0  0  0
  -21.1470   -7.0950   23.6700 C   0  0  0  0  0  3  0  0  0  0  0  0
  -20.9330   -6.3270   24.8330 C   0  0  0  0  0  3  0  0  0  0  0  0
  -21.3400   -4.9800   24.8730 C   0  0  0  0  0  0  0  0  0  0  0  0
  -21.9640   -4.4000   23.7550 C   0  0  0  0  0  3  0  0  0  0  0  0
  -22.1790   -5.1640   22.5950 C   0  0  0  0  0  0  0  0  0  0  0  0
  -22.7610   -4.5930   21.5130 F   0  0  0  0  0  0  0  0  0  0  0  0
  -21.1290   -4.2410   25.9870 F   0  0  0  0  0  0  0  0  0  0  0  0
  -22.9810  -13.8600   21.1410 C   0  0  0  0  0  0  0  0  0  0  0  0
  -22.2450  -13.1470   21.9870 N   0  0  0  0  0  0  0  0  0  0  0  0
  -22.5430  -14.8890   20.6270 O   0  0  0  0  0  0  0  0  0  0  0  0
  -22.6110  -12.3160   22.4260 H   0  0  0  0  0  0  0  0  0  0  0  0
  -21.3010  -13.4380   22.1980 H   0  0  0  0  0  0  0  0  0  0  0  0
  -25.6130  -15.5520   20.3780 N   0  0  0  0  0  0  0  0  0  0  0  0
  -24.8390  -16.2020   20.4730 H   0  0  0  0  0  0  0  0  0  0  0  0
  -26.4630  -15.9960   20.0540 H   0  0  0  0  0  0  0  0  0  0  0  0
  -26.3460  -22.4140   21.4010 C   0  0  0  0  0  1  0  0  0  0  0  0
  -27.6430  -23.2190   21.5840 C   0  0  0  0  0  2  0  0  0  0  0  0
  -29.4120  -24.4730   20.2130 C   0  0  0  0  0  2  0  0  0  0  0  0
  -28.4980  -25.5740   19.5870 C   0  0  0  0  0  2  0  0  0  0  0  0
  -28.6860  -26.9780   19.9260 O   0  0  0  0  0  0  0  0  0  0  0  0
  -24.6560  -31.8180   23.3380 C   0  0  0  0  0  0  0  0  0  0  0  0
  -27.5210  -27.7450   19.9140 C   0  0  0  0  0  0  0  0  0  0  0  0
  -23.5390  -30.5270   21.5540 C   0  0  0  0  0  3  0  0  0  0  0  0
  -25.0760  -29.1970   20.0170 C   0  0  0  0  0  0  0  0  0  0  0  0
  -26.0580  -30.9880   21.4460 C   0  0  0  0  0  2  0  0  0  0  0  0
  -26.2090  -29.6880   20.6790 C   0  0  0  0  0  0  0  0  0  0  0  0
  -27.4350  -28.9720   20.6250 C   0  0  0  0  0  3  0  0  0  0  0  0
  -26.3650  -27.3080   19.2200 C   0  0  0  0  0  3  0  0  0  0  0  0
  -25.1520  -28.0070   19.2830 C   0  0  0  0  0  3  0  0  0  0  0  0
  -23.7990  -29.9990   20.1210 C   0  0  0  0  0  2  0  0  0  0  0  0
  -24.7680  -31.1210   22.1720 N   0  0  0  0  0  0  0  0  0  0  0  0
  -23.5540  -31.9970   23.8750 O   0  0  0  0  0  0  0  0  0  0  0  0
  -22.9150  -29.3930   22.4010 C   0  0  0  0  0  0  0  0  0  0  0  0
  -21.6040  -29.1610   22.2200 N   0  0  0  0  0  0  0  0  0  0  0  0
  -23.6080  -28.7320   23.1790 O   0  0  0  0  0  0  0  0  0  0  0  0
  -21.1030  -29.7520   21.5710 H   0  0  0  0  0  0  0  0  0  0  0  0
  -18.2720  -27.7960   22.5510 C   0  0  0  0  0  0  0  0  0  0  0  0
  -20.8140  -28.1230   22.8830 C   0  0  0  0  0  3  0  0  0  0  0  0
  -20.9800  -26.7590   22.1740 C   0  0  0  0  0  2  0  0  0  0  0  0
  -19.9020  -26.4950   21.1180 C   0  0  0  0  0  2  0  0  0  0  0  0
  -18.5080  -26.5260   21.7520 C   0  0  0  0  0  2  0  0  0  0  0  0
  -19.3560  -28.5540   23.0690 C   0  0  0  0  0  0  0  0  0  0  0  0
  -19.0820  -29.7460   23.7750 C   0  0  0  0  0  3  0  0  0  0  0  0
  -17.7580  -30.1810   23.9680 C   0  0  0  0  0  3  0  0  0  0  0  0
  -16.6880  -29.4180   23.4670 C   0  0  0  0  0  3  0  0  0  0  0  0
  -16.9460  -28.2270   22.7640 C   0  0  0  0  0  3  0  0  0  0  0  0
  -25.9030  -32.4430   24.0360 C   0  0  0  0  0  3  0  0  0  0  0  0
  -25.5690  -33.8340   24.3720 N   0  0  0  0  0  0  0  0  0  0  0  0
  -25.9130  -34.8980   23.6340 C   0  0  0  0  0  0  0  0  0  0  0  0
  -26.6160  -34.8130   22.6240 O   0  0  0  0  0  0  0  0  0  0  0  0
  -24.9480  -33.9730   25.1560 H   0  0  0  0  0  0  0  0  0  0  0  0
  -24.1710  -36.6710   23.2550 C   0  0  0  0  0  1  0  0  0  0  0  0
  -25.3980  -36.2750   24.0910 C   0  0  0  0  0  3  0  0  0  0  0  0
  -27.4900  -37.1910   24.9920 C   0  0  0  0  0  1  0  0  0  0  0  0
  -26.4200  -37.3420   24.0100 N   0  0  0  0  0  0  0  0  0  0  0  0
  -25.9970  -38.2570   24.1410 H   0  0  0  0  0  0  0  0  0  0  0  0
  -26.3550  -31.6510   25.3230 C   0  0  1  0  0  0  0  0  0  0  0  0
  -25.2060  -31.3800   26.3230 C   0  0  0  0  0  1  0  0  0  0  0  0
  -26.9740  -30.2870   24.9370 C   0  0  0  0  0  1  0  0  0  0  0  0
  -27.4580  -32.4420   26.0650 C   0  0  0  0  0  1  0  0  0  0  0  0
  1 49  1  0
  1  4  1  0
  1 48  1  0
  3  6  1  0
  3  4  2  0
  4  2  1  0
  5  2  2  0
  6  5  1  0
  7  6  1  0
  7  8  1  0
  9 17  1  0
 10 15  1  0
 11 12  1  0
 11 10  1  0
 13 12  1  0
 13 22  1  0
 13 14  1  0
 15  9  1  0
 15 14  1  0
 16  9  2  0
 17  8  1  0
 17 18  1  0
 19 20  2  0
 20 39  1  0
 21 20  1  0
 21 24  1  0
 22 19  1  0
 22 23  1  0
 23 21  2  0
 24 25  1  0
 25 26  2  0
 27 30  1  0
 27 26  1  0
 28 27  2  0
 29 28  1  0
 29 24  2  0
 30 31  1  0
 31 36  2  0
 31 32  1  0
 32 33  2  0
 33 34  1  0
 34 38  1  0
 35 34  2  0
 36 35  1  0
 37 36  1  0
 39 40  1  0
 40 43  1  0
 40 42  1  0
 41 39  2  0
 44 45  1  0
 44 19  1  0
 46 44  1  0
 47 48  1  0
 50 51  1  0
 50 49  1  0
 52 63  2  0
 53 51  1  0
 53 58  1  0
 54 62  1  0
 54 64  1  0
 55 61  1  0
 55 57  1  0
 56 62  1  0
 57 56  1  0
 58 57  2  0
 59 60  1  0
 59 53  2  0
 60 55  2  0
 61 54  1  0
 62 52  1  0
 64 66  2  0
 65 64  1  0
 67 65  1  0
 68 77  2  0
 68 73  1  0
 69 65  1  0
 69 73  1  0
 70 69  1  0
 71 72  1  0
 71 70  1  0
 72 68  1  0
 73 74  2  0
 74 75  1  0
 76 75  2  0
 77 76  1  0
 78 52  1  0
 78 79  1  0
 78 88  1  0
 79 82  1  0
 80 84  1  0
 80 79  1  0
 81 80  2  0
 84 83  1  0
 86 84  1  0
 86 87  1  0
 86 85  1  0
 88 91  1  1
 88 89  1  0
 90 88  1  0
M  ISO  4   9 100  17 100  50 101  51 101
M  END
>  <TORSDO>  (53) 
F 22

>  <SCORE>  (53) 
-12.157

>  <name>  (53) 
52

>  <ligand_id>  (53) 
52

>  <original_smiles>  (53) 
[H]c1nn(C([H])([H])C([H])([H])N([H])C(=O)N2C([H])([H])C([H])([H])C([H])([H])C([H])(n3nc(-c4c([H])c([H])c(Oc5c([H])c([H])c(F)c([H])c5F)c([H])c4[H])c(C(=O)N([H])[H])c3N([H])[H])C2([H])[H])c([H])c1C([H])(C([H])([H])C([H])([H])[H])C([H])([H])C([H])([H])Oc1c([H])c([H])c2c(c1[H])C([H])([H])N(C(=O)C([H])(N([H])C(=O)C([H])(N([H])C([H])([H])[H])C([H])([H])[H])C(C([H])([H])[H])(C([H])([H])[H])C([H])([H])[H])C([H])(C(=O)N([H])C1([H])c3c([H])c([H])c([H])c([H])c3C([H])([H])C([H])([H])C1([H])[H])C2([H])[H]

>  <smiles>  (53) 
[H]c1nn(C([H])([H])C([H])([H])N([H])C(=O)N2C([H])([H])C([H])([H])C([H])([H])C([H])(n3nc(-c4c([H])c([H])c(Oc5c([H])c([H])c(F)c([H])c5F)c([H])c4[H])c(C(=O)N([H])[H])c3N([H])[H])C2([H])[H])c([H])c1C([H])(C([H])([H])C([H])([H])[H])C([H])([H])C([H])([H])Oc1c([H])c([H])c2c(c1[H])C([H])([H])N(C(=O)C([H])(N([H])C(=O)C([H])(N([H])C([H])([H])[H])C([H])([H])[H])C(C([H])([H])[H])(C([H])([H])[H])C([H])([H])[H])C([H])(C(=O)N([H])C1([H])c3c([H])c([H])c([H])c([H])c3C([H])([H])C([H])([H])C1([H])[H])C2([H])[H]

$$$$
53:0:0
     RDKit          3D

 90 98  0  0  1  0  0  0  0  0999 V2000
  -28.4530  -20.4150   19.6150 C   0  0  0  0  0  3  0  0  0  0  0  0
  -29.9700  -21.2300   21.1150 C   0  0  0  0  0  3  0  0  0  0  0  0
  -29.4900  -19.9800   20.5130 C   0  0  0  0  0  0  0  0  0  0  0  0
  -28.0230  -21.8140   19.3800 C   0  0  0  0  0  0  0  0  0  0  0  0
  -28.5720  -23.0070   20.0440 C   0  0  0  0  0  0  0  0  0  0  0  0
  -29.5700  -22.5870   20.9180 N   0  0  0  0  0  0  0  0  0  0  0  0
  -25.5480  -21.5590   18.8780 C   0  0  0  0  0  1  0  0  0  0  0  0
  -27.2520  -21.2740   17.0110 C   0  0  0  0  0  1  0  0  0  0  0  0
  -26.9170  -21.9910   18.3300 C   0  0  0  0  0  3  0  0  0  0  0  0
  -30.1820  -18.4070   20.8160 C   0  0  0  0  0  2  0  0  0  0  0  0
  -30.5120  -15.5580   20.5300 C   0  0  0  0  0  0  0  0  0  0  0  0
  -30.4940  -13.2140   19.4440 C   0  0  0  0  0  2  0  0  0  0  0  0
  -29.5860  -13.1240   18.1920 C   0  0  0  0  0  2  0  0  0  0  0  0
  -28.1350  -12.8110   18.5940 C   0  0  0  0  0  2  0  0  0  0  0  0
  -27.6670  -13.6670   19.7990 C   0  0  0  0  0  3  0  0  0  0  0  0
  -28.7040  -13.7200   20.9400 C   0  0  0  0  0  2  0  0  0  0  0  0
  -29.9400  -14.2720   20.3620 N   0  0  0  0  0  0  0  0  0  0  0  0
  -31.7320  -15.5830   20.3190 O   0  0  0  0  0  0  0  0  0  0  0  0
  -29.7610  -16.8120   20.7300 N   0  0  0  0  0  0  0  0  0  0  0  0
  -28.7720  -16.6490   20.8360 H   0  0  0  0  0  0  0  0  0  0  0  0
  -25.2590  -14.1200   20.5100 C   0  0  0  0  0  0  0  0  0  0  0  0
  -24.2170  -13.2940   20.8270 C   0  0  0  0  0  0  0  0  0  0  0  0
  -24.7330  -11.9630   20.7650 C   0  0  0  0  0  0  0  0  0  0  0  0
  -26.3380  -13.2890   20.2650 N   0  0  0  0  0  0  0  0  0  0  0  0
  -26.0330  -11.9840   20.4870 N   0  0  0  0  0  0  0  0  0  0  0  0
  -24.0470  -10.6700   20.8950 C   0  0  0  0  0  0  0  0  0  0  0  0
  -24.5040   -9.6750   21.7880 C   0  0  0  0  0  3  0  0  0  0  0  0
  -23.8130   -8.4510   21.9100 C   0  0  0  0  0  3  0  0  0  0  0  0
  -22.6510   -8.2110   21.1390 C   0  0  0  0  0  0  0  0  0  0  0  0
  -22.2140   -9.1950   20.2340 C   0  0  0  0  0  3  0  0  0  0  0  0
  -22.9060  -10.4110   20.1100 C   0  0  0  0  0  3  0  0  0  0  0  0
  -21.9300   -7.0420   21.1720 O   0  0  0  0  0  0  0  0  0  0  0  0
  -21.9320   -6.2270   22.2760 C   0  0  0  0  0  0  0  0  0  0  0  0
  -21.4900   -6.6810   23.5370 C   0  0  0  0  0  3  0  0  0  0  0  0
  -21.4420   -5.7900   24.6290 C   0  0  0  0  0  3  0  0  0  0  0  0
  -21.8250   -4.4470   24.4590 C   0  0  0  0  0  0  0  0  0  0  0  0
  -22.2610   -3.9920   23.2020 C   0  0  0  0  0  3  0  0  0  0  0  0
  -22.3100   -4.8790   22.1130 C   0  0  0  0  0  0  0  0  0  0  0  0
  -22.7100   -4.4300   20.8990 F   0  0  0  0  0  0  0  0  0  0  0  0
  -21.7730   -3.5900   25.5050 F   0  0  0  0  0  0  0  0  0  0  0  0
  -22.7980  -13.7130   21.0720 C   0  0  0  0  0  0  0  0  0  0  0  0
  -22.0780  -12.9760   21.9100 N   0  0  0  0  0  0  0  0  0  0  0  0
  -22.3340  -14.7300   20.5560 O   0  0  0  0  0  0  0  0  0  0  0  0
  -22.4650  -12.1550   22.3480 H   0  0  0  0  0  0  0  0  0  0  0  0
  -21.1240  -13.2390   22.1170 H   0  0  0  0  0  0  0  0  0  0  0  0
  -25.3740  -15.5010   20.3780 N   0  0  0  0  0  0  0  0  0  0  0  0
  -24.5760  -16.1180   20.4840 H   0  0  0  0  0  0  0  0  0  0  0  0
  -26.2030  -15.9780   20.0480 H   0  0  0  0  0  0  0  0  0  0  0  0
  -28.0250  -24.6310   19.6740 C   0  0  0  0  0  2  0  0  0  0  0  0
  -28.3840  -26.1850   20.0050 O   0  0  0  0  0  0  0  0  0  0  0  0
  -24.6870  -31.9330   23.1780 C   0  0  0  0  0  0  0  0  0  0  0  0
  -27.3580  -27.2630   19.9760 C   0  0  0  0  0  0  0  0  0  0  0  0
  -23.5160  -30.5510   21.5140 C   0  0  0  0  0  3  0  0  0  0  0  0
  -24.9970  -29.0510   20.0210 C   0  0  0  0  0  0  0  0  0  0  0  0
  -26.0720  -30.8600   21.3400 C   0  0  0  0  0  2  0  0  0  0  0  0
  -26.1800  -29.4770   20.6390 C   0  0  0  0  0  0  0  0  0  0  0  0
  -27.3550  -28.6040   20.5960 C   0  0  0  0  0  3  0  0  0  0  0  0
  -26.1390  -26.9910   19.3090 C   0  0  0  0  0  3  0  0  0  0  0  0
  -25.0000  -27.8300   19.3360 C   0  0  0  0  0  3  0  0  0  0  0  0
  -23.7470  -29.9230   20.1130 C   0  0  0  0  0  2  0  0  0  0  0  0
  -24.7800  -31.1390   22.0640 N   0  0  0  0  0  0  0  0  0  0  0  0
  -23.5960  -32.1690   23.7230 O   0  0  0  0  0  0  0  0  0  0  0  0
  -22.8720  -29.4990   22.4550 C   0  0  0  0  0  0  0  0  0  0  0  0
  -21.5450  -29.2990   22.3470 N   0  0  0  0  0  0  0  0  0  0  0  0
  -23.5710  -28.8660   23.2490 O   0  0  0  0  0  0  0  0  0  0  0  0
  -21.0320  -29.8630   21.6850 H   0  0  0  0  0  0  0  0  0  0  0  0
  -18.2050  -27.9850   22.8850 C   0  0  0  0  0  0  0  0  0  0  0  0
  -20.7630  -28.3120   23.1020 C   0  0  0  0  0  3  0  0  0  0  0  0
  -20.8900  -26.9050   22.4750 C   0  0  0  0  0  2  0  0  0  0  0  0
  -19.7740  -26.5870   21.4740 C   0  0  0  0  0  2  0  0  0  0  0  0
  -18.4030  -26.6690   22.1530 C   0  0  0  0  0  2  0  0  0  0  0  0
  -19.3130  -28.7640   23.3160 C   0  0  0  0  0  0  0  0  0  0  0  0
  -19.0700  -29.9940   23.9660 C   0  0  0  0  0  3  0  0  0  0  0  0
  -17.7550  -30.4470   24.1840 C   0  0  0  0  0  3  0  0  0  0  0  0
  -16.6640  -29.6660   23.7650 C   0  0  0  0  0  3  0  0  0  0  0  0
  -16.8910  -28.4360   23.1230 C   0  0  0  0  0  3  0  0  0  0  0  0
  -25.9450  -32.5980   23.8130 C   0  0  0  0  0  3  0  0  0  0  0  0
  -26.4520  -31.8520   25.1090 C   0  0  1  0  0  0  0  0  0  0  0  0
  -25.3490  -31.6220   26.1680 C   0  0  0  0  0  1  0  0  0  0  0  0
  -27.0530  -30.4720   24.7530 C   0  0  0  0  0  1  0  0  0  0  0  0
  -27.5890  -32.6660   25.7710 C   0  0  0  0  0  1  0  0  0  0  0  0
  -25.6050  -33.9960   24.1330 N   0  0  0  0  0  0  0  0  0  0  0  0
  -25.9540  -35.0580   23.3970 C   0  0  0  0  0  0  0  0  0  0  0  0
  -26.6590  -34.9670   22.3880 O   0  0  0  0  0  0  0  0  0  0  0  0
  -24.9830  -34.1400   24.9150 H   0  0  0  0  0  0  0  0  0  0  0  0
  -24.2340  -36.8520   22.9950 C   0  0  0  0  0  1  0  0  0  0  0  0
  -25.4440  -36.4430   23.8490 C   0  0  0  0  0  3  0  0  0  0  0  0
  -27.5360  -37.3380   24.7770 C   0  0  0  0  0  1  0  0  0  0  0  0
  -26.4760  -37.5010   23.7850 N   0  0  0  0  0  0  0  0  0  0  0  0
  -26.0580  -38.4190   23.9160 H   0  0  0  0  0  0  0  0  0  0  0  0
  1  3  1  0
  3 10  1  0
  3  2  2  0
  4  1  2  0
  4  5  1  0
  5  6  2  0
  6  2  1  0
  8  9  1  0
  9  7  1  0
  9  4  1  0
 11 19  1  0
 12 17  1  0
 13 14  1  0
 13 12  1  0
 15 14  1  0
 15 24  1  0
 15 16  1  0
 17 11  1  0
 17 16  1  0
 18 11  2  0
 19 10  1  0
 19 20  1  0
 21 22  2  0
 22 41  1  0
 23 22  1  0
 23 26  1  0
 24 25  1  0
 24 21  1  0
 25 23  2  0
 26 27  1  0
 27 28  2  0
 29 32  1  0
 29 28  1  0
 30 29  2  0
 31 30  1  0
 31 26  2  0
 32 33  1  0
 33 34  1  0
 34 35  2  0
 36 35  1  0
 36 40  1  0
 37 36  2  0
 38 33  2  0
 38 37  1  0
 39 38  1  0
 41 42  1  0
 42 45  1  0
 42 44  1  0
 43 41  2  0
 46 47  1  0
 46 21  1  0
 48 46  1  0
 49 50  1  0
 49  5  1  0
 51 62  2  0
 52 50  1  0
 52 57  1  0
 53 61  1  0
 53 63  1  0
 54 60  1  0
 54 56  1  0
 55 61  1  0
 56 55  1  0
 57 56  2  0
 58 59  1  0
 58 52  2  0
 59 54  2  0
 60 53  1  0
 61 51  1  0
 63 65  2  0
 64 63  1  0
 66 64  1  0
 67 76  2  0
 67 72  1  0
 68 64  1  0
 68 72  1  0
 69 68  1  0
 70 71  1  0
 70 69  1  0
 71 67  1  0
 72 73  2  0
 73 74  1  0
 75 74  2  0
 76 75  1  0
 77 51  1  0
 77 82  1  0
 77 78  1  0
 78 81  1  1
 78 79  1  0
 80 78  1  0
 82 85  1  0
 83 87  1  0
 83 82  1  0
 84 83  2  0
 87 86  1  0
 89 87  1  0
 89 90  1  0
 89 88  1  0
M  ISO  4  11 100  19 100  49 101  50 101
M  END
>  <TORSDO>  (54) 
F 19

>  <SCORE>  (54) 
-14.530

>  <name>  (54) 
53

>  <ligand_id>  (54) 
53

>  <original_smiles>  (54) 
[H]c1nc(C([H])([H])Oc2c([H])c([H])c3c(c2[H])C([H])([H])N(C(=O)C([H])(N([H])C(=O)C([H])(N([H])C([H])([H])[H])C([H])([H])[H])C(C([H])([H])[H])(C([H])([H])[H])C([H])([H])[H])C([H])(C(=O)N([H])C2([H])c4c([H])c([H])c([H])c([H])c4C([H])([H])C([H])([H])C2([H])[H])C3([H])[H])c(C([H])(C([H])([H])[H])C([H])([H])[H])c([H])c1C([H])([H])N([H])C(=O)N1C([H])([H])C([H])([H])C([H])([H])C([H])(n2nc(-c3c([H])c([H])c(Oc4c([H])c([H])c(F)c([H])c4F)c([H])c3[H])c(C(=O)N([H])[H])c2N([H])[H])C1([H])[H]

>  <smiles>  (54) 
[H]c1nc(C([H])([H])Oc2c([H])c([H])c3c(c2[H])C([H])([H])N(C(=O)C([H])(N([H])C(=O)C([H])(N([H])C([H])([H])[H])C([H])([H])[H])C(C([H])([H])[H])(C([H])([H])[H])C([H])([H])[H])C([H])(C(=O)N([H])C2([H])c4c([H])c([H])c([H])c([H])c4C([H])([H])C([H])([H])C2([H])[H])C3([H])[H])c(C([H])(C([H])([H])[H])C([H])([H])[H])c([H])c1C([H])([H])N([H])C(=O)N1C([H])([H])C([H])([H])C([H])([H])C([H])(n2nc(-c3c([H])c([H])c(Oc4c([H])c([H])c(F)c([H])c4F)c([H])c3[H])c(C(=O)N([H])[H])c2N([H])[H])C1([H])[H]

$$$$
54:0:0
     RDKit          3D

 92100  0  0  1  0  0  0  0  0999 V2000
  -29.1740  -20.0760   20.7050 C   0  0  0  0  0  3  0  0  0  0  0  0
  -28.3150  -20.8950   19.8580 C   0  0  0  0  0  0  0  0  0  0  0  0
  -29.3020  -18.7450   20.2630 C   0  0  0  0  0  0  0  0  0  0  0  0
  -27.9020  -19.9680   18.9200 C   0  0  0  0  0  0  0  0  0  0  0  0
  -26.9420  -20.1280   17.7770 C   0  0  0  0  0  1  0  0  0  0  0  0
  -28.2680  -17.5690   18.2510 C   0  0  0  0  0  1  0  0  0  0  0  0
  -28.4870  -18.7120   19.1360 N   0  0  0  0  0  0  0  0  0  0  0  0
  -30.2470  -17.5360   20.7010 C   0  0  0  0  0  2  0  0  0  0  0  0
  -30.6310  -14.9440   20.4070 C   0  0  0  0  0  0  0  0  0  0  0  0
  -30.4620  -12.7050   19.3040 C   0  0  0  0  0  2  0  0  0  0  0  0
  -29.5210  -12.8040   18.0860 C   0  0  0  0  0  2  0  0  0  0  0  0
  -28.0460  -12.6420   18.5080 C   0  0  0  0  0  2  0  0  0  0  0  0
  -27.6710  -13.4900   19.7530 C   0  0  0  0  0  3  0  0  0  0  0  0
  -28.7270  -13.3370   20.8710 C   0  0  0  0  0  2  0  0  0  0  0  0
  -30.0210  -13.7180   20.2920 N   0  0  0  0  0  0  0  0  0  0  0  0
  -31.8180  -15.0650   20.0900 O   0  0  0  0  0  0  0  0  0  0  0  0
  -29.8450  -16.0570   20.6810 N   0  0  0  0  0  0  0  0  0  0  0  0
  -28.8830  -15.8570   20.9050 H   0  0  0  0  0  0  0  0  0  0  0  0
  -25.2750  -14.0750   20.4590 C   0  0  0  0  0  0  0  0  0  0  0  0
  -24.2090  -13.2960   20.8080 C   0  0  0  0  0  0  0  0  0  0  0  0
  -24.6790  -11.9460   20.7890 C   0  0  0  0  0  0  0  0  0  0  0  0
  -26.3240  -13.1990   20.2290 N   0  0  0  0  0  0  0  0  0  0  0  0
  -25.9730  -11.9150   20.4960 N   0  0  0  0  0  0  0  0  0  0  0  0
  -23.9520  -10.6800   20.9720 C   0  0  0  0  0  0  0  0  0  0  0  0
  -24.3680   -9.7240   21.9240 C   0  0  0  0  0  3  0  0  0  0  0  0
  -23.6480   -8.5230   22.0970 C   0  0  0  0  0  3  0  0  0  0  0  0
  -22.4930   -8.2690   21.3190 C   0  0  0  0  0  0  0  0  0  0  0  0
  -22.0990   -9.2110   20.3500 C   0  0  0  0  0  3  0  0  0  0  0  0
  -22.8200  -10.4050   20.1770 C   0  0  0  0  0  3  0  0  0  0  0  0
  -21.7480   -7.1170   21.3980 O   0  0  0  0  0  0  0  0  0  0  0  0
  -21.6690   -6.3870   22.5590 C   0  0  0  0  0  0  0  0  0  0  0  0
  -21.1930   -6.9510   23.7630 C   0  0  0  0  0  3  0  0  0  0  0  0
  -21.0690   -6.1500   24.9160 C   0  0  0  0  0  3  0  0  0  0  0  0
  -21.4070   -4.7830   24.8650 C   0  0  0  0  0  0  0  0  0  0  0  0
  -21.8730   -4.2180   23.6650 C   0  0  0  0  0  3  0  0  0  0  0  0
  -22.0020   -5.0190   22.5160 C   0  0  0  0  0  0  0  0  0  0  0  0
  -22.4340   -4.4650   21.3570 F   0  0  0  0  0  0  0  0  0  0  0  0
  -21.2780   -4.0090   25.9690 F   0  0  0  0  0  0  0  0  0  0  0  0
  -22.8040  -13.7650   21.0620 C   0  0  0  0  0  0  0  0  0  0  0  0
  -22.0770  -13.0730   21.9290 N   0  0  0  0  0  0  0  0  0  0  0  0
  -22.3580  -14.7780   20.5240 O   0  0  0  0  0  0  0  0  0  0  0  0
  -22.4400  -12.2440   22.3770 H   0  0  0  0  0  0  0  0  0  0  0  0
  -21.1370  -13.3790   22.1370 H   0  0  0  0  0  0  0  0  0  0  0  0
  -25.4360  -15.4490   20.3040 N   0  0  0  0  0  0  0  0  0  0  0  0
  -24.6680  -16.0860   20.4780 H   0  0  0  0  0  0  0  0  0  0  0  0
  -26.2900  -15.9260   20.0500 H   0  0  0  0  0  0  0  0  0  0  0  0
  -27.7860  -22.4260   19.8300 C   0  0  0  0  0  3  0  0  0  0  0  0
  -25.3620  -23.2930   19.2800 C   0  0  0  0  0  1  0  0  0  0  0  0
  -26.2650  -22.4300   20.1900 C   0  0  0  0  0  2  0  0  0  0  0  0
  -28.5300  -23.7290   20.4570 C   0  0  0  0  0  2  0  0  0  0  0  0
  -28.3720  -25.1560   19.6840 C   0  0  0  0  0  2  0  0  0  0  0  0
  -28.3820  -26.5410   20.2960 O   0  0  0  0  0  0  0  0  0  0  0  0
  -24.5720  -31.9820   23.2450 C   0  0  0  0  0  0  0  0  0  0  0  0
  -27.2800  -27.4280   20.2020 C   0  0  0  0  0  0  0  0  0  0  0  0
  -23.4290  -30.5650   21.5860 C   0  0  0  0  0  3  0  0  0  0  0  0
  -24.9190  -29.0630   20.1650 C   0  0  0  0  0  0  0  0  0  0  0  0
  -25.9680  -30.9190   21.4470 C   0  0  0  0  0  2  0  0  0  0  0  0
  -26.0740  -29.5420   20.7950 C   0  0  0  0  0  0  0  0  0  0  0  0
  -27.2540  -28.7290   20.8190 C   0  0  0  0  0  3  0  0  0  0  0  0
  -26.1000  -27.0460   19.5220 C   0  0  0  0  0  3  0  0  0  0  0  0
  -24.9340  -27.8240   19.5250 C   0  0  0  0  0  3  0  0  0  0  0  0
  -23.6690  -29.9130   20.1990 C   0  0  0  0  0  2  0  0  0  0  0  0
  -24.6740  -31.1790   22.1460 N   0  0  0  0  0  0  0  0  0  0  0  0
  -23.4730  -32.2210   23.7700 O   0  0  0  0  0  0  0  0  0  0  0  0
  -22.7750  -29.5260   22.5340 C   0  0  0  0  0  0  0  0  0  0  0  0
  -21.4500  -29.3300   22.4080 N   0  0  0  0  0  0  0  0  0  0  0  0
  -23.4630  -28.8980   23.3460 O   0  0  0  0  0  0  0  0  0  0  0  0
  -20.9580  -29.8550   21.6990 H   0  0  0  0  0  0  0  0  0  0  0  0
  -18.0810  -28.1020   22.9040 C   0  0  0  0  0  0  0  0  0  0  0  0
  -20.6450  -28.3630   23.1550 C   0  0  0  0  0  3  0  0  0  0  0  0
  -20.7400  -26.9580   22.5160 C   0  0  0  0  0  2  0  0  0  0  0  0
  -19.6270  -26.6880   21.4970 C   0  0  0  0  0  2  0  0  0  0  0  0
  -18.2570  -26.7800   22.1780 C   0  0  0  0  0  2  0  0  0  0  0  0
  -19.2040  -28.8540   23.3520 C   0  0  0  0  0  0  0  0  0  0  0  0
  -18.9870  -30.0970   23.9860 C   0  0  0  0  0  3  0  0  0  0  0  0
  -17.6840  -30.6090   24.1460 C   0  0  0  0  0  3  0  0  0  0  0  0
  -16.5780  -29.8600   23.7000 C   0  0  0  0  0  3  0  0  0  0  0  0
  -16.7740  -28.6040   23.0980 C   0  0  0  0  0  3  0  0  0  0  0  0
  -25.8240  -32.6430   23.8900 C   0  0  0  0  0  3  0  0  0  0  0  0
  -25.4890  -34.0410   24.1950 N   0  0  0  0  0  0  0  0  0  0  0  0
  -25.8160  -35.0900   23.4280 C   0  0  0  0  0  0  0  0  0  0  0  0
  -26.5080  -34.9870   22.4080 O   0  0  0  0  0  0  0  0  0  0  0  0
  -24.8710  -34.1900   24.9800 H   0  0  0  0  0  0  0  0  0  0  0  0
  -24.0600  -36.8480   23.0090 C   0  0  0  0  0  1  0  0  0  0  0  0
  -25.2930  -36.4760   23.8500 C   0  0  0  0  0  3  0  0  0  0  0  0
  -27.3920  -37.4130   24.7230 C   0  0  0  0  0  1  0  0  0  0  0  0
  -26.3120  -37.5450   23.7480 N   0  0  0  0  0  0  0  0  0  0  0  0
  -25.8880  -38.4600   23.8700 H   0  0  0  0  0  0  0  0  0  0  0  0
  -26.3240  -31.9030   25.1940 C   0  0  1  0  0  0  0  0  0  0  0  0
  -25.2070  -31.6510   26.2350 C   0  0  0  0  0  1  0  0  0  0  0  0
  -26.9420  -30.5320   24.8400 C   0  0  0  0  0  1  0  0  0  0  0  0
  -27.4470  -32.7230   25.8770 C   0  0  0  0  0  1  0  0  0  0  0  0
  2  1  1  0
  3  8  1  0
  3  1  2  0
  4  7  1  0
  4  2  2  0
  5  4  1  0
  6  7  1  0
  7  3  1  0
  9 17  1  0
 10 15  1  0
 11 12  1  0
 11 10  1  0
 13 12  1  0
 13 22  1  0
 13 14  1  0
 15  9  1  0
 15 14  1  0
 16  9  2  0
 17  8  1  0
 17 18  1  0
 19 20  2  0
 20 39  1  0
 21 20  1  0
 21 24  1  0
 22 19  1  0
 22 23  1  0
 23 21  2  0
 24 25  1  0
 25 26  2  0
 27 30  1  0
 27 26  1  0
 28 27  2  0
 29 28  1  0
 29 24  2  0
 30 31  1  0
 31 32  1  0
 32 33  2  0
 34 33  1  0
 34 38  1  0
 35 34  2  0
 36 31  2  0
 36 35  1  0
 37 36  1  0
 39 40  1  0
 40 43  1  0
 40 42  1  0
 41 39  2  0
 44 19  1  0
 44 45  1  0
 46 44  1  0
 47  2  1  0
 47 49  1  0
 47 50  1  0
 48 49  1  0
 51 52  1  0
 51 50  1  0
 53 64  2  0
 54 52  1  0
 54 59  1  0
 55 63  1  0
 55 65  1  0
 56 62  1  0
 56 58  1  0
 57 63  1  0
 58 59  2  0
 58 57  1  0
 60 61  1  0
 60 54  2  0
 61 56  2  0
 62 55  1  0
 63 53  1  0
 65 67  2  0
 66 65  1  0
 68 66  1  0
 69 78  2  0
 69 74  1  0
 70 66  1  0
 70 74  1  0
 71 70  1  0
 72 73  1  0
 72 71  1  0
 73 69  1  0
 74 75  2  0
 75 76  1  0
 77 76  2  0
 78 77  1  0
 79 53  1  0
 79 80  1  0
 79 89  1  0
 80 83  1  0
 81 85  1  0
 81 80  1  0
 82 81  2  0
 85 84  1  0
 87 85  1  0
 87 88  1  0
 87 86  1  0
 89 92  1  1
 89 90  1  0
 91 89  1  0
M  ISO  4   9 100  17 100  51 101  52 101
M  END
>  <TORSDO>  (55) 
F 21

>  <SCORE>  (55) 
-13.493

>  <name>  (55) 
54

>  <ligand_id>  (55) 
54

>  <original_smiles>  (55) 
[H]c1c([H])c([H])c2c(c1[H])C([H])([H])C([H])([H])C([H])([H])C2([H])N([H])C(=O)C1([H])N(C(=O)C([H])(N([H])C(=O)C([H])(N([H])C([H])([H])[H])C([H])([H])[H])C(C([H])([H])[H])(C([H])([H])[H])C([H])([H])[H])C([H])([H])c2c([H])c(OC([H])([H])C([H])([H])C([H])(c3c([H])c(C([H])([H])N([H])C(=O)N4C([H])([H])C([H])([H])C([H])([H])C([H])(n5nc(-c6c([H])c([H])c(Oc7c([H])c([H])c(F)c([H])c7F)c([H])c6[H])c(C(=O)N([H])[H])c5N([H])[H])C4([H])[H])n(C([H])([H])[H])c3C([H])([H])[H])C([H])([H])C([H])([H])[H])c([H])c([H])c2C1([H])[H]

>  <smiles>  (55) 
[H]c1c([H])c([H])c2c(c1[H])C([H])([H])C([H])([H])C([H])([H])C2([H])N([H])C(=O)C1([H])N(C(=O)C([H])(N([H])C(=O)C([H])(N([H])C([H])([H])[H])C([H])([H])[H])C(C([H])([H])[H])(C([H])([H])[H])C([H])([H])[H])C([H])([H])c2c([H])c(OC([H])([H])C([H])([H])C([H])(c3c([H])c(C([H])([H])N([H])C(=O)N4C([H])([H])C([H])([H])C([H])([H])C([H])(n5nc(-c6c([H])c([H])c(Oc7c([H])c([H])c(F)c([H])c7F)c([H])c6[H])c(C(=O)N([H])[H])c5N([H])[H])C4([H])[H])n(C([H])([H])[H])c3C([H])([H])[H])C([H])([H])C([H])([H])[H])c([H])c([H])c2C1([H])[H]

$$$$
55:0:0
     RDKit          3D

 89 97  0  0  1  0  0  0  0  0999 V2000
  -29.5600  -19.6390   17.3490 C   0  0  0  0  0  3  0  0  0  0  0  0
  -29.2550  -20.7670   18.1240 C   0  0  0  0  0  3  0  0  0  0  0  0
  -29.8070  -18.5970   18.1860 C   0  0  0  0  0  0  0  0  0  0  0  0
  -29.2620  -20.4600   19.4580 C   0  0  0  0  0  0  0  0  0  0  0  0
  -30.2790  -17.2610   17.7120 C   0  0  0  0  0  1  0  0  0  0  0  0
  -29.6120  -18.9740   19.5290 N   0  0  0  0  0  0  0  0  0  0  0  0
  -28.9160  -21.7480   20.4180 C   0  0  0  0  0  2  0  0  0  0  0  0
  -28.6980  -23.3390   19.8050 C   0  0  0  0  0  3  0  0  0  0  0  0
  -28.1060  -24.7330   20.5710 C   0  0  0  0  0  3  0  0  0  0  0  0
  -28.2470  -26.2420   20.1700 O   0  0  0  0  0  0  0  0  0  0  0  0
  -24.5940  -31.9240   23.2420 C   0  0  0  0  0  0  0  0  0  0  0  0
  -27.1640  -27.1980   20.2070 C   0  0  0  0  0  0  0  0  0  0  0  0
  -23.3850  -30.5170   21.6200 C   0  0  0  0  0  3  0  0  0  0  0  0
  -24.8230  -28.9270   20.2020 C   0  0  0  0  0  0  0  0  0  0  0  0
  -25.9360  -30.7860   21.4280 C   0  0  0  0  0  2  0  0  0  0  0  0
  -26.0100  -29.3870   20.7870 C   0  0  0  0  0  0  0  0  0  0  0  0
  -27.1850  -28.5410   20.7640 C   0  0  0  0  0  3  0  0  0  0  0  0
  -25.9450  -26.8290   19.6040 C   0  0  0  0  0  3  0  0  0  0  0  0
  -24.8020  -27.6580   19.5990 C   0  0  0  0  0  3  0  0  0  0  0  0
  -23.5980  -29.8280   20.2470 C   0  0  0  0  0  2  0  0  0  0  0  0
  -24.6600  -31.0980   22.1530 N   0  0  0  0  0  0  0  0  0  0  0  0
  -23.5120  -32.2120   23.7750 O   0  0  0  0  0  0  0  0  0  0  0  0
  -22.7150  -29.5170   22.5920 C   0  0  0  0  0  0  0  0  0  0  0  0
  -21.3890  -29.3340   22.4630 N   0  0  0  0  0  0  0  0  0  0  0  0
  -23.3890  -28.9030   23.4240 O   0  0  0  0  0  0  0  0  0  0  0  0
  -20.9000  -29.8780   21.7680 H   0  0  0  0  0  0  0  0  0  0  0  0
  -18.0170  -28.1100   22.9690 C   0  0  0  0  0  0  0  0  0  0  0  0
  -20.5740  -28.3970   23.2400 C   0  0  0  0  0  3  0  0  0  0  0  0
  -20.6890  -26.9600   22.6800 C   0  0  0  0  0  2  0  0  0  0  0  0
  -19.5920  -26.6190   21.6660 C   0  0  0  0  0  2  0  0  0  0  0  0
  -18.2070  -26.7580   22.3040 C   0  0  0  0  0  2  0  0  0  0  0  0
  -19.1280  -28.8880   23.3940 C   0  0  0  0  0  0  0  0  0  0  0  0
  -18.8960  -30.1520   23.9750 C   0  0  0  0  0  3  0  0  0  0  0  0
  -17.5850  -30.6400   24.1380 C   0  0  0  0  0  3  0  0  0  0  0  0
  -16.4900  -29.8620   23.7270 C   0  0  0  0  0  3  0  0  0  0  0  0
  -16.7070  -28.5990   23.1490 C   0  0  0  0  0  3  0  0  0  0  0  0
  -25.8770  -32.5600   23.8600 C   0  0  0  0  0  3  0  0  0  0  0  0
  -26.3830  -31.8090   25.1530 C   0  0  1  0  0  0  0  0  0  0  0  0
  -25.2820  -31.6000   26.2210 C   0  0  0  0  0  1  0  0  0  0  0  0
  -26.9570  -30.4190   24.7900 C   0  0  0  0  0  1  0  0  0  0  0  0
  -27.5350  -32.6060   25.8070 C   0  0  0  0  0  1  0  0  0  0  0  0
  -25.5740  -33.9660   24.1710 N   0  0  0  0  0  0  0  0  0  0  0  0
  -25.9220  -35.0100   23.4080 C   0  0  0  0  0  0  0  0  0  0  0  0
  -26.6000  -34.8900   22.3830 O   0  0  0  0  0  0  0  0  0  0  0  0
  -24.9700  -34.1370   24.9610 H   0  0  0  0  0  0  0  0  0  0  0  0
  -24.2210  -36.8250   23.0170 C   0  0  0  0  0  1  0  0  0  0  0  0
  -25.4440  -36.4090   23.8490 C   0  0  0  0  0  3  0  0  0  0  0  0
  -27.5730  -37.2750   24.7110 C   0  0  0  0  0  1  0  0  0  0  0  0
  -26.4900  -37.4480   23.7450 N   0  0  0  0  0  0  0  0  0  0  0  0
  -26.0940  -38.3740   23.8810 H   0  0  0  0  0  0  0  0  0  0  0  0
  -29.9060  -17.8720   20.6450 C   0  0  0  0  0  2  0  0  0  0  0  0
  -30.5720  -15.1130   20.4730 C   0  0  0  0  0  0  0  0  0  0  0  0
  -30.5510  -12.7230   19.5920 C   0  0  0  0  0  2  0  0  0  0  0  0
  -29.6550  -12.6210   18.3390 C   0  0  0  0  0  2  0  0  0  0  0  0
  -28.1840  -12.3800   18.7340 C   0  0  0  0  0  2  0  0  0  0  0  0
  -27.7210  -13.3250   19.8750 C   0  0  0  0  0  3  0  0  0  0  0  0
  -28.7440  -13.3890   21.0260 C   0  0  0  0  0  2  0  0  0  0  0  0
  -30.0120  -13.8330   20.4310 N   0  0  0  0  0  0  0  0  0  0  0  0
  -31.7980  -15.1840   20.3230 O   0  0  0  0  0  0  0  0  0  0  0  0
  -29.7440  -16.2810   20.4640 N   0  0  0  0  0  0  0  0  0  0  0  0
  -28.7670  -16.0300   20.4580 H   0  0  0  0  0  0  0  0  0  0  0  0
  -25.3190  -13.8910   20.5580 C   0  0  0  0  0  0  0  0  0  0  0  0
  -24.2530  -13.1100   20.9060 C   0  0  0  0  0  0  0  0  0  0  0  0
  -24.7300  -11.7630   20.8970 C   0  0  0  0  0  0  0  0  0  0  0  0
  -26.3740  -13.0190   20.3430 N   0  0  0  0  0  0  0  0  0  0  0  0
  -26.0290  -11.7360   20.6210 N   0  0  0  0  0  0  0  0  0  0  0  0
  -24.0090  -10.4950   21.0710 C   0  0  0  0  0  0  0  0  0  0  0  0
  -24.4150   -9.5410   22.0310 C   0  0  0  0  0  3  0  0  0  0  0  0
  -23.6930   -8.3410   22.1970 C   0  0  0  0  0  3  0  0  0  0  0  0
  -22.5500   -8.0830   21.4040 C   0  0  0  0  0  0  0  0  0  0  0  0
  -22.1630   -9.0240   20.4340 C   0  0  0  0  0  3  0  0  0  0  0  0
  -22.8850  -10.2180   20.2670 C   0  0  0  0  0  3  0  0  0  0  0  0
  -21.8040   -6.9300   21.4790 O   0  0  0  0  0  0  0  0  0  0  0  0
  -21.7120   -6.2070   22.6390 C   0  0  0  0  0  0  0  0  0  0  0  0
  -21.2070   -6.7680   23.8320 C   0  0  0  0  0  3  0  0  0  0  0  0
  -21.0660   -5.9680   24.9820 C   0  0  0  0  0  3  0  0  0  0  0  0
  -21.4150   -4.6040   24.9380 C   0  0  0  0  0  0  0  0  0  0  0  0
  -21.9080   -4.0400   23.7480 C   0  0  0  0  0  3  0  0  0  0  0  0
  -22.0510   -4.8390   22.6000 C   0  0  0  0  0  0  0  0  0  0  0  0
  -22.5070   -4.2870   21.4500 F   0  0  0  0  0  0  0  0  0  0  0  0
  -21.2710   -3.8310   26.0390 F   0  0  0  0  0  0  0  0  0  0  0  0
  -22.8430  -13.5760   21.1300 C   0  0  0  0  0  0  0  0  0  0  0  0
  -22.0910  -12.8800   21.9750 N   0  0  0  0  0  0  0  0  0  0  0  0
  -22.4120  -14.5950   20.5880 O   0  0  0  0  0  0  0  0  0  0  0  0
  -22.4540  -12.0620   22.4450 H   0  0  0  0  0  0  0  0  0  0  0  0
  -21.1430  -13.1710   22.1620 H   0  0  0  0  0  0  0  0  0  0  0  0
  -25.4760  -15.2610   20.3780 N   0  0  0  0  0  0  0  0  0  0  0  0
  -24.7000  -15.9020   20.4910 H   0  0  0  0  0  0  0  0  0  0  0  0
  -26.3170  -15.7090   20.0370 H   0  0  0  0  0  0  0  0  0  0  0  0
  1  2  1  0
  1  3  2  0
  2  4  2  0
  3  6  1  0
  4  6  1  0
  4  7  1  0
  5  3  1  0
  6 51  1  0
  8  7  1  0
  8  9  2  0
 10 12  1  0
 10  9  1  0
 11 22  2  0
 12 17  1  0
 13 21  1  0
 13 23  1  0
 14 20  1  0
 14 16  1  0
 15 21  1  0
 16 15  1  0
 17 16  2  0
 18 12  2  0
 19 18  1  0
 19 14  2  0
 20 13  1  0
 21 11  1  0
 23 25  2  0
 24 23  1  0
 26 24  1  0
 27 36  2  0
 27 32  1  0
 28 24  1  0
 28 32  1  0
 29 28  1  0
 30 31  1  0
 30 29  1  0
 31 27  1  0
 32 33  2  0
 33 34  1  0
 35 34  2  0
 36 35  1  0
 37 11  1  0
 37 42  1  0
 37 38  1  0
 38 41  1  1
 38 39  1  0
 40 38  1  0
 42 45  1  0
 43 47  1  0
 43 42  1  0
 44 43  2  0
 47 46  1  0
 49 47  1  0
 49 50  1  0
 49 48  1  0
 53 58  1  0
 54 55  1  0
 54 53  1  0
 56 55  1  0
 56 65  1  0
 56 57  1  0
 58 52  1  0
 58 57  1  0
 59 52  2  0
 60 52  1  0
 60 51  1  0
 61 60  1  0
 62 63  2  0
 63 82  1  0
 64 63  1  0
 64 67  1  0
 65 62  1  0
 65 66  1  0
 66 64  2  0
 67 68  1  0
 68 69  2  0
 70 73  1  0
 70 69  1  0
 71 70  2  0
 72 71  1  0
 72 67  2  0
 73 74  1  0
 74 75  1  0
 75 76  2  0
 77 76  1  0
 77 81  1  0
 78 77  2  0
 79 74  2  0
 79 78  1  0
 80 79  1  0
 82 83  1  0
 83 86  1  0
 83 85  1  0
 84 82  2  0
 87 88  1  0
 87 62  1  0
 89 87  1  0
M  ISO  4   9 101  10 101  52 100  60 100
M  END
>  <TORSDO>  (56) 
F 20

>  <SCORE>  (56) 
-14.486

>  <name>  (56) 
55

>  <ligand_id>  (56) 
55

>  <original_smiles>  (56) 
[H]c1c([H])c([H])c2c(c1[H])C([H])([H])C([H])([H])C([H])([H])C2([H])N([H])C(=O)C1([H])N(C(=O)C([H])(N([H])C(=O)C([H])(N([H])C([H])([H])[H])C([H])([H])[H])C(C([H])([H])[H])(C([H])([H])[H])C([H])([H])[H])C([H])([H])c2c([H])c(OC([H])([H])C([H])([H])C([H])([H])c3c([H])c([H])c(C([H])([H])[H])n3C([H])([H])N([H])C(=O)N3C([H])([H])C([H])([H])C([H])([H])C([H])(n4nc(-c5c([H])c([H])c(Oc6c([H])c([H])c(F)c([H])c6F)c([H])c5[H])c(C(=O)N([H])[H])c4N([H])[H])C3([H])[H])c([H])c([H])c2C1([H])[H]

>  <smiles>  (56) 
[H]c1c([H])c([H])c2c(c1[H])C([H])([H])C([H])([H])C([H])([H])C2([H])N([H])C(=O)C1([H])N(C(=O)C([H])(N([H])C(=O)C([H])(N([H])C([H])([H])[H])C([H])([H])[H])C(C([H])([H])[H])(C([H])([H])[H])C([H])([H])[H])C([H])([H])c2c([H])c(OC([H])([H])C([H])([H])C([H])([H])c3c([H])c([H])c(C([H])([H])[H])n3C([H])([H])N([H])C(=O)N3C([H])([H])C([H])([H])C([H])([H])C([H])(n4nc(-c5c([H])c([H])c(Oc6c([H])c([H])c(F)c([H])c6F)c([H])c5[H])c(C(=O)N([H])[H])c4N([H])[H])C3([H])[H])c([H])c([H])c2C1([H])[H]

$$$$
56:0:0
     RDKit          3D

 95103  0  0  1  0  0  0  0  0999 V2000
  -29.8540  -22.0150   19.6870 C   0  0  0  0  0  0  0  0  0  0  0  0
  -29.7880  -22.0590   21.1140 C   0  0  0  0  0  0  0  0  0  0  0  0
  -30.3990  -20.7930   19.3650 C   0  0  0  0  0  0  0  0  0  0  0  0
  -30.3890  -20.9190   21.6100 C   0  0  0  0  0  0  0  0  0  0  0  0
  -30.7080  -20.2250   18.0090 C   0  0  0  0  0  1  0  0  0  0  0  0
  -30.5920  -20.0410   20.5320 N   0  0  0  0  0  0  0  0  0  0  0  0
  -31.1360  -21.6570   23.9980 C   0  0  0  0  0  1  0  0  0  0  0  0
  -30.7410  -20.5290   23.0310 C   0  0  0  0  0  2  0  0  0  0  0  0
  -29.2870  -23.0610   18.7100 C   0  0  0  0  0  2  0  0  0  0  0  0
  -29.8310  -24.5330   18.7300 C   0  0  0  0  0  2  0  0  0  0  0  0
  -28.6660  -25.5380   18.4890 C   0  0  0  0  0  2  0  0  0  0  0  0
  -28.8370  -26.9460   18.8130 O   0  0  0  0  0  0  0  0  0  0  0  0
  -25.0020  -31.1750   23.1610 C   0  0  0  0  0  0  0  0  0  0  0  0
  -27.6630  -27.6780   19.0030 C   0  0  0  0  0  0  0  0  0  0  0  0
  -23.7830  -30.1600   21.2700 C   0  0  0  0  0  3  0  0  0  0  0  0
  -25.2310  -29.0850   19.4680 C   0  0  0  0  0  0  0  0  0  0  0  0
  -26.2940  -30.6460   21.0930 C   0  0  0  0  0  2  0  0  0  0  0  0
  -26.4010  -29.4770   20.1290 C   0  0  0  0  0  0  0  0  0  0  0  0
  -27.6190  -28.7830   19.8970 C   0  0  0  0  0  3  0  0  0  0  0  0
  -26.4620  -27.3340   18.3300 C   0  0  0  0  0  3  0  0  0  0  0  0
  -25.2580  -28.0130   18.5660 C   0  0  0  0  0  3  0  0  0  0  0  0
  -23.9610  -29.8510   19.7630 C   0  0  0  0  0  2  0  0  0  0  0  0
  -25.0470  -30.6610   21.8990 N   0  0  0  0  0  0  0  0  0  0  0  0
  -23.9310  -31.2670   23.7790 O   0  0  0  0  0  0  0  0  0  0  0  0
  -23.2010  -28.9100   21.9690 C   0  0  0  0  0  0  0  0  0  0  0  0
  -21.8840  -28.6960   21.8180 N   0  0  0  0  0  0  0  0  0  0  0  0
  -23.9320  -28.1460   22.6060 O   0  0  0  0  0  0  0  0  0  0  0  0
  -21.3530  -29.3700   21.2860 H   0  0  0  0  0  0  0  0  0  0  0  0
  -18.5870  -27.2240   22.0220 C   0  0  0  0  0  0  0  0  0  0  0  0
  -21.1270  -27.5640   22.3590 C   0  0  0  0  0  3  0  0  0  0  0  0
  -21.3090  -26.3050   21.4800 C   0  0  0  0  0  2  0  0  0  0  0  0
  -20.2210  -26.1510   20.4130 C   0  0  0  0  0  2  0  0  0  0  0  0
  -18.8380  -26.0690   21.0660 C   0  0  0  0  0  2  0  0  0  0  0  0
  -19.6630  -27.9360   22.6150 C   0  0  0  0  0  0  0  0  0  0  0  0
  -19.3760  -29.0240   23.4680 C   0  0  0  0  0  3  0  0  0  0  0  0
  -18.0460  -29.4010   23.7330 C   0  0  0  0  0  3  0  0  0  0  0  0
  -16.9850  -28.6800   23.1590 C   0  0  0  0  0  3  0  0  0  0  0  0
  -17.2550  -27.5930   22.3070 C   0  0  0  0  0  3  0  0  0  0  0  0
  -26.2870  -31.6920   23.8780 C   0  0  0  0  0  3  0  0  0  0  0  0
  -25.9540  -32.9790   24.5030 N   0  0  0  0  0  0  0  0  0  0  0  0
  -26.3370  -34.1740   24.0320 C   0  0  0  0  0  0  0  0  0  0  0  0
  -27.0740  -34.3020   23.0510 O   0  0  0  0  0  0  0  0  0  0  0  0
  -25.3010  -32.9540   25.2720 H   0  0  0  0  0  0  0  0  0  0  0  0
  -24.6740  -36.0610   23.9610 C   0  0  0  0  0  1  0  0  0  0  0  0
  -25.8200  -35.4250   24.7650 C   0  0  0  0  0  3  0  0  0  0  0  0
  -27.8640  -36.0010   25.9980 C   0  0  0  0  0  1  0  0  0  0  0  0
  -26.8700  -36.4350   25.0200 N   0  0  0  0  0  0  0  0  0  0  0  0
  -26.4590  -37.3050   25.3490 H   0  0  0  0  0  0  0  0  0  0  0  0
  -26.8520  -30.6800   24.9460 C   0  0  1  0  0  0  0  0  0  0  0  0
  -25.7910  -30.1920   25.9600 C   0  0  0  0  0  1  0  0  0  0  0  0
  -27.4550  -29.4310   24.2600 C   0  0  0  0  0  1  0  0  0  0  0  0
  -28.0090  -31.3420   25.7340 C   0  0  0  0  0  1  0  0  0  0  0  0
  -29.1370  -23.1820   21.9040 C   0  0  0  0  0  2  0  0  0  0  0  0
  -27.0840  -24.6830   21.7420 C   0  0  0  0  0  1  0  0  0  0  0  0
  -27.6120  -23.2450   21.7120 C   0  0  0  0  0  2  0  0  0  0  0  0
  -31.0060  -18.5980   20.5350 C   0  0  0  0  0  2  0  0  0  0  0  0
  -30.2980  -17.6400   21.5520 C   0  0  0  0  0  2  0  0  0  0  0  0
  -30.9720  -15.2160   20.9180 C   0  0  0  0  0  0  0  0  0  0  0  0
  -30.9430  -12.8820   20.0680 C   0  0  0  0  0  2  0  0  0  0  0  0
  -30.1410  -12.8270   18.7500 C   0  0  0  0  0  2  0  0  0  0  0  0
  -28.6300  -12.6780   19.0210 C   0  0  0  0  0  2  0  0  0  0  0  0
  -28.1090  -13.6820   20.0830 C   0  0  0  0  0  3  0  0  0  0  0  0
  -29.0240  -13.6690   21.3280 C   0  0  0  0  0  2  0  0  0  0  0  0
  -30.3930  -13.9820   20.8770 N   0  0  0  0  0  0  0  0  0  0  0  0
  -32.1470  -15.4250   20.6060 O   0  0  0  0  0  0  0  0  0  0  0  0
  -30.1100  -16.2140   21.2040 N   0  0  0  0  0  0  0  0  0  0  0  0
  -29.1670  -15.8830   21.3450 H   0  0  0  0  0  0  0  0  0  0  0  0
  -25.6680  -14.3260   20.5920 C   0  0  0  0  0  0  0  0  0  0  0  0
  -24.5560  -13.5680   20.8400 C   0  0  0  0  0  0  0  0  0  0  0  0
  -24.9920  -12.2080   20.8090 C   0  0  0  0  0  0  0  0  0  0  0  0
  -26.7130  -13.4280   20.4300 N   0  0  0  0  0  0  0  0  0  0  0  0
  -26.3020  -12.1480   20.6160 N   0  0  0  0  0  0  0  0  0  0  0  0
  -24.2260  -10.9570   20.8940 C   0  0  0  0  0  0  0  0  0  0  0  0
  -24.5920   -9.9270   21.7870 C   0  0  0  0  0  3  0  0  0  0  0  0
  -23.8310   -8.7410   21.8630 C   0  0  0  0  0  3  0  0  0  0  0  0
  -22.6890   -8.5770   21.0440 C   0  0  0  0  0  0  0  0  0  0  0  0
  -22.3420   -9.5970   20.1400 C   0  0  0  0  0  3  0  0  0  0  0  0
  -23.1030  -10.7750   20.0620 C   0  0  0  0  0  3  0  0  0  0  0  0
  -21.9040   -7.4490   21.0310 O   0  0  0  0  0  0  0  0  0  0  0  0
  -21.8170   -6.6210   22.1210 C   0  0  0  0  0  0  0  0  0  0  0  0
  -21.3830   -7.0890   23.3810 C   0  0  0  0  0  3  0  0  0  0  0  0
  -21.2420   -6.1890   24.4560 C   0  0  0  0  0  3  0  0  0  0  0  0
  -21.5260   -4.8220   24.2730 C   0  0  0  0  0  0  0  0  0  0  0  0
  -21.9540   -4.3530   23.0180 C   0  0  0  0  0  3  0  0  0  0  0  0
  -22.0960   -5.2510   21.9440 C   0  0  0  0  0  0  0  0  0  0  0  0
  -22.4890   -4.7900   20.7320 F   0  0  0  0  0  0  0  0  0  0  0  0
  -21.3840   -3.9560   25.3030 F   0  0  0  0  0  0  0  0  0  0  0  0
  -23.1500  -14.0680   21.0030 C   0  0  0  0  0  0  0  0  0  0  0  0
  -22.3400  -13.3760   21.7950 N   0  0  0  0  0  0  0  0  0  0  0  0
  -22.7740  -15.1070   20.4600 O   0  0  0  0  0  0  0  0  0  0  0  0
  -22.6550  -12.5330   22.2560 H   0  0  0  0  0  0  0  0  0  0  0  0
  -21.3920  -13.6920   21.9450 H   0  0  0  0  0  0  0  0  0  0  0  0
  -25.8760  -15.6970   20.4710 N   0  0  0  0  0  0  0  0  0  0  0  0
  -25.1150  -16.3630   20.5250 H   0  0  0  0  0  0  0  0  0  0  0  0
  -26.7590  -16.1250   20.2220 H   0  0  0  0  0  0  0  0  0  0  0  0
  1  2  1  0
  2  4  2  0
  2 53  1  0
  3  1  2  0
  3  6  1  0
  4  8  1  0
  5  3  1  0
  6 56  1  0
  6  4  1  0
  8  7  1  0
  9 10  1  0
  9  1  1  0
 11 10  1  0
 11 12  1  0
 12 14  1  0
 13 24  2  0
 14 19  1  0
 15 23  1  0
 15 25  1  0
 16 22  1  0
 16 18  1  0
 17 23  1  0
 18 17  1  0
 19 18  2  0
 20 21  1  0
 20 14  2  0
 21 16  2  0
 22 15  1  0
 23 13  1  0
 25 27  2  0
 26 25  1  0
 28 26  1  0
 29 38  2  0
 29 34  1  0
 30 26  1  0
 30 34  1  0
 31 30  1  0
 32 33  1  0
 32 31  1  0
 33 29  1  0
 34 35  2  0
 35 36  1  0
 37 36  2  0
 38 37  1  0
 39 13  1  0
 39 40  1  0
 39 49  1  0
 40 43  1  0
 41 40  1  0
 41 45  1  0
 42 41  2  0
 45 44  1  0
 45 47  1  0
 47 48  1  0
 47 46  1  0
 49 52  1  1
 49 50  1  0
 51 49  1  0
 55 54  1  0
 55 53  1  0
 56 57  1  0
 58 66  1  0
 59 64  1  0
 60 61  1  0
 60 59  1  0
 62 61  1  0
 62 71  1  0
 62 63  1  0
 64 58  1  0
 64 63  1  0
 65 58  2  0
 66 67  1  0
 66 57  1  0
 68 69  2  0
 69 88  1  0
 70 69  1  0
 70 73  1  0
 71 68  1  0
 71 72  1  0
 72 70  2  0
 73 74  1  0
 74 75  2  0
 76 75  1  0
 77 76  2  0
 78 77  1  0
 78 73  2  0
 79 76  1  0
 79 80  1  0
 80 81  1  0
 81 82  2  0
 83 82  1  0
 83 87  1  0
 84 83  2  0
 85 80  2  0
 85 84  1  0
 86 85  1  0
 88 89  1  0
 89 92  1  0
 89 91  1  0
 90 88  2  0
 93 94  1  0
 93 68  1  0
 95 93  1  0
M  ISO  4  11 101  12 101  58 100  66 100
M  END
>  <TORSDO>  (57) 
F 24

>  <SCORE>  (57) 
-9.703

>  <name>  (57) 
56

>  <ligand_id>  (57) 
56

>  <original_smiles>  (57) 
[H]c1c([H])c([H])c2c(c1[H])C([H])([H])C([H])([H])C([H])([H])C2([H])N([H])C(=O)C1([H])N(C(=O)C([H])(N([H])C(=O)C([H])(N([H])C([H])([H])[H])C([H])([H])[H])C(C([H])([H])[H])(C([H])([H])[H])C([H])([H])[H])C([H])([H])c2c([H])c(OC([H])([H])C([H])([H])C([H])([H])c3c(C([H])([H])C([H])([H])C([H])([H])[H])c(C([H])([H])C([H])([H])[H])n(C([H])([H])C([H])([H])N([H])C(=O)N4C([H])([H])C([H])([H])C([H])([H])C([H])(n5nc(-c6c([H])c([H])c(Oc7c([H])c([H])c(F)c([H])c7F)c([H])c6[H])c(C(=O)N([H])[H])c5N([H])[H])C4([H])[H])c3C([H])([H])[H])c([H])c([H])c2C1([H])[H]

>  <smiles>  (57) 
[H]c1c([H])c([H])c2c(c1[H])C([H])([H])C([H])([H])C([H])([H])C2([H])N([H])C(=O)C1([H])N(C(=O)C([H])(N([H])C(=O)C([H])(N([H])C([H])([H])[H])C([H])([H])[H])C(C([H])([H])[H])(C([H])([H])[H])C([H])([H])[H])C([H])([H])c2c([H])c(OC([H])([H])C([H])([H])C([H])([H])c3c(C([H])([H])C([H])([H])C([H])([H])[H])c(C([H])([H])C([H])([H])[H])n(C([H])([H])C([H])([H])N([H])C(=O)N4C([H])([H])C([H])([H])C([H])([H])C([H])(n5nc(-c6c([H])c([H])c(Oc7c([H])c([H])c(F)c([H])c7F)c([H])c6[H])c(C(=O)N([H])[H])c5N([H])[H])C4([H])[H])c3C([H])([H])[H])c([H])c([H])c2C1([H])[H]

$$$$
57:0:0
     RDKit          3D

 93100  0  0  1  0  0  0  0  0999 V2000
  -29.3990  -23.1580   21.2200 C   0  0  0  0  0  2  0  0  0  0  0  0
  -30.7420  -22.6180   21.7530 C   0  0  0  0  0  2  0  0  0  0  0  0
  -30.9490  -21.0810   21.7300 C   0  0  0  0  0  2  0  0  0  0  0  0
  -30.2080  -20.8910   24.0970 C   0  0  0  0  0  1  0  0  0  0  0  0
  -30.1990  -20.2820   22.7390 N   0  0  2  0  0  4  0  0  0  0  0  0
  -29.2350  -20.2400   22.4590 H   0  0  0  0  0  0  0  0  0  0  0  0
  -30.7050  -18.8780   22.8230 C   0  0  0  0  0  2  0  0  0  0  0  0
  -30.4190  -17.9420   21.6240 C   0  0  0  0  0  2  0  0  0  0  0  0
  -30.9840  -16.5430   21.9610 C   0  0  0  0  0  2  0  0  0  0  0  0
  -31.1790  -14.5220   20.4600 C   0  0  0  0  0  0  0  0  0  0  0  0
  -30.8710  -12.3970   19.2180 C   0  0  0  0  0  2  0  0  0  0  0  0
  -29.9250  -12.6180   18.0190 C   0  0  0  0  0  2  0  0  0  0  0  0
  -28.4430  -12.5370   18.4490 C   0  0  0  0  0  2  0  0  0  0  0  0
  -28.1420  -13.3940   19.7110 C   0  0  0  0  0  3  0  0  0  0  0  0
  -29.1680  -13.0680   20.8110 C   0  0  0  0  0  2  0  0  0  0  0  0
  -30.5050  -13.3620   20.2630 N   0  0  0  0  0  0  0  0  0  0  0  0
  -32.3140  -14.7340   20.0130 O   0  0  0  0  0  0  0  0  0  0  0  0
  -30.4760  -15.4390   21.1490 N   0  0  0  0  0  0  0  0  0  0  0  0
  -29.5110  -15.1910   21.3130 H   0  0  0  0  0  0  0  0  0  0  0  0
  -25.7790  -14.1380   20.4150 C   0  0  0  0  0  0  0  0  0  0  0  0
  -24.6710  -13.4220   20.7850 C   0  0  0  0  0  0  0  0  0  0  0  0
  -25.0590  -12.0500   20.7500 C   0  0  0  0  0  0  0  0  0  0  0  0
  -26.7740  -13.2010   20.1810 N   0  0  0  0  0  0  0  0  0  0  0  0
  -26.3440  -11.9420   20.4380 N   0  0  0  0  0  0  0  0  0  0  0  0
  -24.2720  -10.8250   20.9350 C   0  0  0  0  0  0  0  0  0  0  0  0
  -24.6490   -9.8420   21.8760 C   0  0  0  0  0  3  0  0  0  0  0  0
  -23.8660   -8.6810   22.0470 C   0  0  0  0  0  3  0  0  0  0  0  0
  -22.6950   -8.4940   21.2740 C   0  0  0  0  0  0  0  0  0  0  0  0
  -22.3410   -9.4640   20.3200 C   0  0  0  0  0  3  0  0  0  0  0  0
  -23.1240  -10.6180   20.1470 C   0  0  0  0  0  3  0  0  0  0  0  0
  -21.8890   -7.3860   21.3520 O   0  0  0  0  0  0  0  0  0  0  0  0
  -21.7630   -6.6670   22.5130 C   0  0  0  0  0  0  0  0  0  0  0  0
  -21.3380   -7.2680   23.7170 C   0  0  0  0  0  3  0  0  0  0  0  0
  -21.1560   -6.4780   24.8720 C   0  0  0  0  0  3  0  0  0  0  0  0
  -21.3920   -5.0920   24.8200 C   0  0  0  0  0  0  0  0  0  0  0  0
  -21.8110   -4.4910   23.6190 C   0  0  0  0  0  3  0  0  0  0  0  0
  -21.9940   -5.2780   22.4690 C   0  0  0  0  0  0  0  0  0  0  0  0
  -22.3780   -4.6940   21.3080 F   0  0  0  0  0  0  0  0  0  0  0  0
  -21.2100   -4.3310   25.9250 F   0  0  0  0  0  0  0  0  0  0  0  0
  -23.3000  -13.9720   21.0590 C   0  0  0  0  0  0  0  0  0  0  0  0
  -22.5420  -13.3150   21.9320 N   0  0  0  0  0  0  0  0  0  0  0  0
  -22.9110  -15.0130   20.5340 O   0  0  0  0  0  0  0  0  0  0  0  0
  -22.8710  -12.4710   22.3790 H   0  0  0  0  0  0  0  0  0  0  0  0
  -21.6200  -13.6630   22.1580 H   0  0  0  0  0  0  0  0  0  0  0  0
  -26.0160  -15.4980   20.2440 N   0  0  0  0  0  0  0  0  0  0  0  0
  -25.2780  -16.1850   20.3570 H   0  0  0  0  0  0  0  0  0  0  0  0
  -26.8740  -15.8990   19.8910 H   0  0  0  0  0  0  0  0  0  0  0  0
  -29.5460  -24.4450   20.3560 C   0  0  0  0  0  3  0  0  0  0  0  0
  -29.7340  -24.0630   18.8700 C   0  0  0  0  0  2  0  0  0  0  0  0
  -30.9020  -22.5720   17.4640 C   0  0  0  0  0  1  0  0  0  0  0  0
  -30.9160  -23.2950   18.6860 O   0  0  0  0  0  0  0  0  0  0  0  0
  -28.3020  -25.3510   20.5170 C   0  0  0  0  0  2  0  0  0  0  0  0
  -28.4510  -26.6640   19.9510 O   0  0  0  0  0  0  0  0  0  0  0  0
  -24.5850  -31.7450   23.1100 C   0  0  0  0  0  0  0  0  0  0  0  0
  -27.2820  -27.3950   19.9510 C   0  0  0  0  0  0  0  0  0  0  0  0
  -23.3900  -30.3420   21.4630 C   0  0  0  0  0  3  0  0  0  0  0  0
  -24.8590  -28.8500   20.0030 C   0  0  0  0  0  0  0  0  0  0  0  0
  -25.9080  -30.7500   21.2450 C   0  0  0  0  0  2  0  0  0  0  0  0
  -26.0130  -29.3890   20.5890 C   0  0  0  0  0  0  0  0  0  0  0  0
  -27.2300  -28.6710   20.5570 C   0  0  0  0  0  3  0  0  0  0  0  0
  -26.1140  -26.8800   19.3470 C   0  0  0  0  0  3  0  0  0  0  0  0
  -24.9040  -27.5950   19.3790 C   0  0  0  0  0  3  0  0  0  0  0  0
  -23.6000  -29.6850   20.0730 C   0  0  0  0  0  2  0  0  0  0  0  0
  -24.6470  -30.9620   21.9970 N   0  0  0  0  0  0  0  0  0  0  0  0
  -23.5070  -31.9930   23.6650 O   0  0  0  0  0  0  0  0  0  0  0  0
  -22.7660  -29.2970   22.4150 C   0  0  0  0  0  0  0  0  0  0  0  0
  -21.4460  -29.0840   22.2920 N   0  0  0  0  0  0  0  0  0  0  0  0
  -23.4660  -28.6810   23.2260 O   0  0  0  0  0  0  0  0  0  0  0  0
  -20.9430  -29.6400   21.6140 H   0  0  0  0  0  0  0  0  0  0  0  0
  -18.1090  -27.7730   22.7520 C   0  0  0  0  0  0  0  0  0  0  0  0
  -20.6530  -28.1220   23.0560 C   0  0  0  0  0  3  0  0  0  0  0  0
  -20.8120  -26.6930   22.4870 C   0  0  0  0  0  2  0  0  0  0  0  0
  -19.7360  -26.3250   21.4610 C   0  0  0  0  0  2  0  0  0  0  0  0
  -18.3420  -26.4260   22.0870 C   0  0  0  0  0  2  0  0  0  0  0  0
  -19.1950  -28.5750   23.1920 C   0  0  0  0  0  0  0  0  0  0  0  0
  -18.9260  -29.8320   23.7740 C   0  0  0  0  0  3  0  0  0  0  0  0
  -17.6010  -30.2920   23.9170 C   0  0  0  0  0  3  0  0  0  0  0  0
  -16.5300  -29.4870   23.4950 C   0  0  0  0  0  3  0  0  0  0  0  0
  -16.7840  -28.2280   22.9180 C   0  0  0  0  0  3  0  0  0  0  0  0
  -25.8690  -32.3910   23.7250 C   0  0  0  0  0  3  0  0  0  0  0  0
  -26.4190  -31.6080   24.9780 C   0  0  1  0  0  0  0  0  0  0  0  0
  -25.3480  -31.3310   26.0590 C   0  0  0  0  0  1  0  0  0  0  0  0
  -27.0220  -30.2500   24.5490 C   0  0  0  0  0  1  0  0  0  0  0  0
  -27.5680  -32.4110   25.6340 C   0  0  0  0  0  1  0  0  0  0  0  0
  -25.5400  -33.7770   24.0810 N   0  0  0  0  0  0  0  0  0  0  0  0
  -25.8670  -34.8490   23.3460 C   0  0  0  0  0  0  0  0  0  0  0  0
  -26.5530  -34.7760   22.3230 O   0  0  0  0  0  0  0  0  0  0  0  0
  -24.9370  -33.9080   24.8810 H   0  0  0  0  0  0  0  0  0  0  0  0
  -24.1250  -36.6250   23.0000 C   0  0  0  0  0  1  0  0  0  0  0  0
  -25.3570  -36.2210   23.8240 C   0  0  0  0  0  3  0  0  0  0  0  0
  -27.4690  -37.1070   24.7050 C   0  0  0  0  0  1  0  0  0  0  0  0
  -26.3790  -37.2870   23.7520 N   0  0  0  0  0  0  0  0  0  0  0  0
  -25.9620  -38.2010   23.9160 H   0  0  0  0  0  0  0  0  0  0  0  0
  1  2  1  0
  3  2  1  0
  3  5  1  0
  5  7  1  0
  5  4  1  0
  5  6  1  6
  8  9  1  0
  8  7  1  0
 10 18  1  0
 11 16  1  0
 12 13  1  0
 12 11  1  0
 14 13  1  0
 14 23  1  0
 14 15  1  0
 16 10  1  0
 16 15  1  0
 17 10  2  0
 18 19  1  0
 18  9  1  0
 20 21  2  0
 21 40  1  0
 22 21  1  0
 22 25  1  0
 23 20  1  0
 23 24  1  0
 24 22  2  0
 25 26  1  0
 26 27  2  0
 28 31  1  0
 28 27  1  0
 29 28  2  0
 30 29  1  0
 30 25  2  0
 31 32  1  0
 32 33  1  0
 33 34  2  0
 35 34  1  0
 35 39  1  0
 36 35  2  0
 37 32  2  0
 37 36  1  0
 38 37  1  0
 40 41  1  0
 41 44  1  0
 41 43  1  0
 42 40  2  0
 45 46  1  0
 45 20  1  0
 47 45  1  0
 48 49  1  0
 48 52  1  0
 48  1  1  0
 50 51  1  0
 51 49  1  0
 53 55  1  0
 53 52  1  0
 54 65  2  0
 55 60  1  0
 56 64  1  0
 56 66  1  0
 57 63  1  0
 57 59  1  0
 58 64  1  0
 59 58  1  0
 60 59  2  0
 61 62  1  0
 61 55  2  0
 62 57  2  0
 63 56  1  0
 64 54  1  0
 66 68  2  0
 67 66  1  0
 69 67  1  0
 70 79  2  0
 70 75  1  0
 71 67  1  0
 71 75  1  0
 72 71  1  0
 73 74  1  0
 73 72  1  0
 74 70  1  0
 75 76  2  0
 76 77  1  0
 78 77  2  0
 79 78  1  0
 80 54  1  0
 80 85  1  0
 80 81  1  0
 81 84  1  1
 81 82  1  0
 83 81  1  0
 85 88  1  0
 86 90  1  0
 86 85  1  0
 87 86  2  0
 90 89  1  0
 92 90  1  0
 92 93  1  0
 92 91  1  0
M  ISO  4  10 100  18 100  52 101  53 101
M  END
>  <TORSDO>  (58) 
F 26

>  <SCORE>  (58) 
-11.163

>  <name>  (58) 
57

>  <ligand_id>  (58) 
57

>  <original_smiles>  (58) 
[H]c1c([H])c([H])c2c(c1[H])C([H])([H])C([H])([H])C([H])([H])C2([H])N([H])C(=O)C1([H])N(C(=O)C([H])(N([H])C(=O)C([H])(N([H])C([H])([H])[H])C([H])([H])[H])C(C([H])([H])[H])(C([H])([H])[H])C([H])([H])[H])C([H])([H])c2c([H])c(OC([H])([H])C([H])(C([H])([H])OC([H])([H])[H])C([H])([H])C([H])([H])C([H])([H])[N+]([H])(C([H])([H])[H])C([H])([H])C([H])([H])C([H])([H])N([H])C(=O)N3C([H])([H])C([H])([H])C([H])([H])C([H])(n4nc(-c5c([H])c([H])c(Oc6c([H])c([H])c(F)c([H])c6F)c([H])c5[H])c(C(=O)N([H])[H])c4N([H])[H])C3([H])[H])c([H])c([H])c2C1([H])[H]

>  <smiles>  (58) 
[H]c1c([H])c([H])c2c(c1[H])C([H])([H])C([H])([H])C([H])([H])C2([H])N([H])C(=O)C1([H])N(C(=O)C([H])(N([H])C(=O)C([H])(N([H])C([H])([H])[H])C([H])([H])[H])C(C([H])([H])[H])(C([H])([H])[H])C([H])([H])[H])C([H])([H])c2c([H])c(OC([H])([H])C([H])(C([H])([H])OC([H])([H])[H])C([H])([H])C([H])([H])C([H])([H])[N+]([H])(C([H])([H])[H])C([H])([H])C([H])([H])C([H])([H])N([H])C(=O)N3C([H])([H])C([H])([H])C([H])([H])C([H])(n4nc(-c5c([H])c([H])c(Oc6c([H])c([H])c(F)c([H])c6F)c([H])c5[H])c(C(=O)N([H])[H])c4N([H])[H])C3([H])[H])c([H])c([H])c2C1([H])[H]

$$$$
59:0:0
     RDKit          3D

 95102  0  0  1  0  0  0  0  0999 V2000
  -27.4950  -22.2510   22.1280 C   0  0  0  0  0  1  0  0  0  0  0  0
  -28.6930  -22.8030   21.3060 C   0  0  2  0  0  0  0  0  0  0  0  0
  -29.9860  -22.7660   22.1730 C   0  0  0  0  0  2  0  0  0  0  0  0
  -30.3720  -21.3880   22.7410 C   0  0  0  0  0  2  0  0  0  0  0  0
  -32.2460  -19.7830   23.3330 C   0  0  0  0  0  1  0  0  0  0  0  0
  -31.8740  -21.2340   23.0110 C   0  0  0  0  0  2  0  0  0  0  0  0
  -28.3230  -24.2980   21.0160 C   0  0  0  0  0  2  0  0  0  0  0  0
  -29.3930  -25.2240   20.3930 C   0  0  0  0  0  2  0  0  0  0  0  0
  -28.9700  -26.7150   20.3900 C   0  0  0  0  0  2  0  0  0  0  0  0
  -28.0100  -26.9190   19.3630 O   0  0  0  0  0  0  0  0  0  0  0  0
  -24.6070  -31.9340   23.2340 C   0  0  0  0  0  0  0  0  0  0  0  0
  -26.9120  -27.7070   19.6250 C   0  0  0  0  0  0  0  0  0  0  0  0
  -23.2480  -30.6930   21.5790 C   0  0  0  0  0  3  0  0  0  0  0  0
  -24.5610  -29.2440   19.9400 C   0  0  0  0  0  0  0  0  0  0  0  0
  -25.7630  -31.0160   21.2290 C   0  0  0  0  0  2  0  0  0  0  0  0
  -25.7700  -29.6940   20.4900 C   0  0  0  0  0  0  0  0  0  0  0  0
  -26.9510  -28.9270   20.3440 C   0  0  0  0  0  3  0  0  0  0  0  0
  -25.6890  -27.2740   19.0750 C   0  0  0  0  0  3  0  0  0  0  0  0
  -24.5130  -28.0280   19.2370 C   0  0  0  0  0  3  0  0  0  0  0  0
  -23.3430  -30.1200   20.1400 C   0  0  0  0  0  2  0  0  0  0  0  0
  -24.5620  -31.2240   22.0730 N   0  0  0  0  0  0  0  0  0  0  0  0
  -23.5760  -32.1850   23.8730 O   0  0  0  0  0  0  0  0  0  0  0  0
  -22.6410  -29.6120   22.5030 C   0  0  0  0  0  0  0  0  0  0  0  0
  -21.3180  -29.4110   22.4010 N   0  0  0  0  0  0  0  0  0  0  0  0
  -23.3580  -28.9600   23.2670 O   0  0  0  0  0  0  0  0  0  0  0  0
  -20.7990  -29.9920   21.7580 H   0  0  0  0  0  0  0  0  0  0  0  0
  -18.0000  -28.0550   22.8400 C   0  0  0  0  0  0  0  0  0  0  0  0
  -20.5400  -28.4200   23.1420 C   0  0  0  0  0  3  0  0  0  0  0  0
  -20.7110  -27.0080   22.5340 C   0  0  0  0  0  2  0  0  0  0  0  0
  -19.6330  -26.6600   21.5030 C   0  0  0  0  0  2  0  0  0  0  0  0
  -18.2410  -26.7300   22.1370 C   0  0  0  0  0  2  0  0  0  0  0  0
  -19.0790  -28.8550   23.2980 C   0  0  0  0  0  0  0  0  0  0  0  0
  -18.7990  -30.0950   23.9130 C   0  0  0  0  0  3  0  0  0  0  0  0
  -17.4720  -30.5340   24.0770 C   0  0  0  0  0  3  0  0  0  0  0  0
  -16.4080  -29.7320   23.6360 C   0  0  0  0  0  3  0  0  0  0  0  0
  -16.6720  -28.4940   23.0240 C   0  0  0  0  0  3  0  0  0  0  0  0
  -25.9520  -32.4870   23.8020 C   0  0  0  0  0  3  0  0  0  0  0  0
  -26.5200  -31.6310   25.0010 C   0  0  1  0  0  0  0  0  0  0  0  0
  -25.4890  -31.3740   26.1230 C   0  0  0  0  0  1  0  0  0  0  0  0
  -27.0260  -30.2570   24.4990 C   0  0  0  0  0  1  0  0  0  0  0  0
  -27.7380  -32.3490   25.6280 C   0  0  0  0  0  1  0  0  0  0  0  0
  -25.7180  -33.8750   24.2200 N   0  0  0  0  0  0  0  0  0  0  0  0
  -26.0700  -34.9540   23.5040 C   0  0  0  0  0  0  0  0  0  0  0  0
  -26.6970  -34.8780   22.4450 O   0  0  0  0  0  0  0  0  0  0  0  0
  -25.1620  -34.0120   25.0510 H   0  0  0  0  0  0  0  0  0  0  0  0
  -24.4150  -36.8370   23.3040 C   0  0  0  0  0  1  0  0  0  0  0  0
  -25.6600  -36.3330   24.0530 C   0  0  0  0  0  3  0  0  0  0  0  0
  -27.8560  -37.0750   24.8650 C   0  0  0  0  0  1  0  0  0  0  0  0
  -26.7370  -37.3450   23.9670 N   0  0  0  0  0  0  0  0  0  0  0  0
  -26.3750  -38.2710   24.1780 H   0  0  0  0  0  0  0  0  0  0  0  0
  -28.9110  -22.0060   19.9690 C   0  0  0  0  0  2  0  0  0  0  0  0
  -27.4240  -20.2650   19.0580 C   0  0  0  0  0  1  0  0  0  0  0  0
  -28.5160  -20.5610   20.0220 N   0  0  1  0  0  4  0  0  0  0  0  0
  -28.1170  -20.4400   20.9410 H   0  0  0  0  0  0  0  0  0  0  0  0
  -29.6560  -19.5920   19.9180 C   0  0  0  0  0  2  0  0  0  0  0  0
  -29.2380  -18.1080   20.1590 C   0  0  0  0  0  2  0  0  0  0  0  0
  -30.3740  -17.1960   20.6690 C   0  0  0  0  0  2  0  0  0  0  0  0
  -30.6850  -14.7420   20.2670 C   0  0  0  0  0  0  0  0  0  0  0  0
  -30.4930  -12.4750   19.3230 C   0  0  0  0  0  2  0  0  0  0  0  0
  -29.5530  -12.5230   18.1000 C   0  0  0  0  0  2  0  0  0  0  0  0
  -28.0890  -12.3400   18.5380 C   0  0  0  0  0  2  0  0  0  0  0  0
  -27.6950  -13.2710   19.7150 C   0  0  0  0  0  3  0  0  0  0  0  0
  -28.7490  -13.2240   20.8460 C   0  0  0  0  0  2  0  0  0  0  0  0
  -30.0630  -13.5310   20.2540 N   0  0  0  0  0  0  0  0  0  0  0  0
  -31.7940  -14.9270   19.7580 O   0  0  0  0  0  0  0  0  0  0  0  0
  -29.9700  -15.7790   20.7410 N   0  0  0  0  0  0  0  0  0  0  0  0
  -29.0700  -15.5720   21.1510 H   0  0  0  0  0  0  0  0  0  0  0  0
  -25.2900  -13.8360   20.4340 C   0  0  0  0  0  0  0  0  0  0  0  0
  -24.2380  -13.0440   20.8060 C   0  0  0  0  0  0  0  0  0  0  0  0
  -24.7210  -11.7020   20.7690 C   0  0  0  0  0  0  0  0  0  0  0  0
  -26.3500  -12.9730   20.1980 N   0  0  0  0  0  0  0  0  0  0  0  0
  -26.0090  -11.6850   20.4500 N   0  0  0  0  0  0  0  0  0  0  0  0
  -24.0180  -10.4280   20.9630 C   0  0  0  0  0  0  0  0  0  0  0  0
  -24.4420   -9.4900   21.9310 C   0  0  0  0  0  3  0  0  0  0  0  0
  -23.7390   -8.2780   22.1060 C   0  0  0  0  0  3  0  0  0  0  0  0
  -22.6010   -7.9950   21.3130 C   0  0  0  0  0  0  0  0  0  0  0  0
  -22.1970   -8.9230   20.3350 C   0  0  0  0  0  3  0  0  0  0  0  0
  -22.8980  -10.1280   20.1610 C   0  0  0  0  0  3  0  0  0  0  0  0
  -21.8720   -6.8340   21.3960 O   0  0  0  0  0  0  0  0  0  0  0  0
  -21.7620   -6.1370   22.5710 C   0  0  0  0  0  0  0  0  0  0  0  0
  -21.2150   -6.7210   23.7350 C   0  0  0  0  0  3  0  0  0  0  0  0
  -21.0560   -5.9470   24.9020 C   0  0  0  0  0  3  0  0  0  0  0  0
  -21.4340   -4.5900   24.9060 C   0  0  0  0  0  0  0  0  0  0  0  0
  -21.9720   -4.0070   23.7450 C   0  0  0  0  0  3  0  0  0  0  0  0
  -22.1340   -4.7780   22.5820 C   0  0  0  0  0  0  0  0  0  0  0  0
  -22.6340   -4.2060   21.4600 F   0  0  0  0  0  0  0  0  0  0  0  0
  -21.2760   -3.8440   26.0240 F   0  0  0  0  0  0  0  0  0  0  0  0
  -22.8360  -13.4990   21.0940 C   0  0  0  0  0  0  0  0  0  0  0  0
  -22.1280  -12.7850   21.9590 N   0  0  0  0  0  0  0  0  0  0  0  0
  -22.3790  -14.5230   20.5870 O   0  0  0  0  0  0  0  0  0  0  0  0
  -22.5160  -11.9580   22.3890 H   0  0  0  0  0  0  0  0  0  0  0  0
  -21.1850  -13.0660   22.1910 H   0  0  0  0  0  0  0  0  0  0  0  0
  -25.4320  -15.2070   20.2560 N   0  0  0  0  0  0  0  0  0  0  0  0
  -24.6540  -15.8480   20.3520 H   0  0  0  0  0  0  0  0  0  0  0  0
  -26.2760  -15.6550   19.9220 H   0  0  0  0  0  0  0  0  0  0  0  0
  2  1  1  1
  2  3  1  0
  3  4  1  0
  4  6  1  0
  6  5  1  0
  7  2  1  0
  8  7  1  0
  9  8  1  0
 10 12  1  0
 10  9  1  0
 11 22  2  0
 12 17  1  0
 13 21  1  0
 13 23  1  0
 14 20  1  0
 14 16  1  0
 15 21  1  0
 16 15  1  0
 17 16  2  0
 18 19  1  0
 18 12  2  0
 19 14  2  0
 20 13  1  0
 21 11  1  0
 23 25  2  0
 24 23  1  0
 26 24  1  0
 27 36  2  0
 27 32  1  0
 28 24  1  0
 28 32  1  0
 29 28  1  0
 30 31  1  0
 30 29  1  0
 31 27  1  0
 32 33  2  0
 33 34  1  0
 35 34  2  0
 36 35  1  0
 37 11  1  0
 37 42  1  0
 37 38  1  0
 38 41  1  1
 38 39  1  0
 40 38  1  0
 42 45  1  0
 43 47  1  0
 43 42  1  0
 44 43  2  0
 47 46  1  0
 49 47  1  0
 49 50  1  0
 49 48  1  0
 51 53  1  0
 51  2  1  0
 52 53  1  0
 53 54  1  1
 55 53  1  0
 55 56  1  0
 56 57  1  0
 57 66  1  0
 58 66  1  0
 59 64  1  0
 60 61  1  0
 60 59  1  0
 62 61  1  0
 62 71  1  0
 62 63  1  0
 64 58  1  0
 64 63  1  0
 65 58  2  0
 66 67  1  0
 68 69  2  0
 69 88  1  0
 70 69  1  0
 70 73  1  0
 71 68  1  0
 71 72  1  0
 72 70  2  0
 73 74  1  0
 74 75  2  0
 76 79  1  0
 76 75  1  0
 77 76  2  0
 78 77  1  0
 78 73  2  0
 79 80  1  0
 80 85  2  0
 80 81  1  0
 81 82  2  0
 82 83  1  0
 83 87  1  0
 84 83  2  0
 85 84  1  0
 86 85  1  0
 88 89  1  0
 89 92  1  0
 89 91  1  0
 90 88  2  0
 93 94  1  0
 93 68  1  0
 95 93  1  0
M  ISO  4   9 101  10 101  58 100  66 100
M  END
>  <TORSDO>  (59) 
F 27

>  <SCORE>  (59) 
-11.013

>  <name>  (59) 
59

>  <ligand_id>  (59) 
59

>  <original_smiles>  (59) 
[H]c1c([H])c([H])c2c(c1[H])C([H])([H])C([H])([H])C([H])([H])C2([H])N([H])C(=O)C1([H])N(C(=O)C([H])(N([H])C(=O)C([H])(N([H])C([H])([H])[H])C([H])([H])[H])C(C([H])([H])[H])(C([H])([H])[H])C([H])([H])[H])C([H])([H])c2c([H])c(OC([H])([H])C([H])([H])C([H])([H])C(C([H])([H])[H])(C([H])([H])C([H])([H])C([H])([H])C([H])([H])[H])C([H])([H])[N+]([H])(C([H])([H])[H])C([H])([H])C([H])([H])C([H])([H])N([H])C(=O)N3C([H])([H])C([H])([H])C([H])([H])C([H])(n4nc(-c5c([H])c([H])c(Oc6c([H])c([H])c(F)c([H])c6F)c([H])c5[H])c(C(=O)N([H])[H])c4N([H])[H])C3([H])[H])c([H])c([H])c2C1([H])[H]

>  <smiles>  (59) 
[H]c1c([H])c([H])c2c(c1[H])C([H])([H])C([H])([H])C([H])([H])C2([H])N([H])C(=O)C1([H])N(C(=O)C([H])(N([H])C(=O)C([H])(N([H])C([H])([H])[H])C([H])([H])[H])C(C([H])([H])[H])(C([H])([H])[H])C([H])([H])[H])C([H])([H])c2c([H])c(OC([H])([H])C([H])([H])C([H])([H])C(C([H])([H])[H])(C([H])([H])C([H])([H])C([H])([H])C([H])([H])[H])C([H])([H])[N+]([H])(C([H])([H])[H])C([H])([H])C([H])([H])C([H])([H])N([H])C(=O)N3C([H])([H])C([H])([H])C([H])([H])C([H])(n4nc(-c5c([H])c([H])c(Oc6c([H])c([H])c(F)c([H])c6F)c([H])c5[H])c(C(=O)N([H])[H])c4N([H])[H])C3([H])[H])c([H])c([H])c2C1([H])[H]

$$$$
60:0:0
     RDKit          3D

 88 96  0  0  1  0  0  0  0  0999 V2000
  -28.8430  -19.6470   18.4070 C   0  0  0  0  0  2  0  0  0  0  0  0
  -29.2020  -21.1610   18.7240 C   0  0  0  0  0  2  0  0  0  0  0  0
  -29.5990  -20.5830   21.0830 C   0  0  0  0  0  2  0  0  0  0  0  0
  -29.8660  -18.4540   18.6730 C   0  0  0  0  0  2  0  0  0  0  0  0
  -29.2950  -18.9500   21.0860 C   0  0  0  0  0  2  0  0  0  0  0  0
  -28.8510  -21.7050   20.1480 C   0  0  0  0  0  3  0  0  0  0  0  0
  -30.0570  -17.8700   20.1230 C   0  0  0  0  0  3  0  0  0  0  0  0
  -30.6070  -15.1100   20.0690 C   0  0  0  0  0  0  0  0  0  0  0  0
  -30.4720  -12.7470   19.1380 C   0  0  0  0  0  2  0  0  0  0  0  0
  -29.4870  -12.6880   17.9470 C   0  0  0  0  0  2  0  0  0  0  0  0
  -28.0480  -12.4590   18.4450 C   0  0  0  0  0  2  0  0  0  0  0  0
  -27.6820  -13.3850   19.6360 C   0  0  0  0  0  3  0  0  0  0  0  0
  -28.7850  -13.4140   20.7150 C   0  0  0  0  0  2  0  0  0  0  0  0
  -30.0230  -13.8420   20.0500 N   0  0  0  0  0  0  0  0  0  0  0  0
  -31.7950  -15.1770   19.7300 O   0  0  0  0  0  0  0  0  0  0  0  0
  -29.8230  -16.2920   20.2660 N   0  0  0  0  0  0  0  0  0  0  0  0
  -28.8740  -16.0630   20.5180 H   0  0  0  0  0  0  0  0  0  0  0  0
  -25.3470  -13.9500   20.5160 C   0  0  0  0  0  0  0  0  0  0  0  0
  -24.2980  -13.1690   20.9160 C   0  0  0  0  0  0  0  0  0  0  0  0
  -24.7510  -11.8170   20.8200 C   0  0  0  0  0  0  0  0  0  0  0  0
  -26.3710  -13.0750   20.1940 N   0  0  0  0  0  0  0  0  0  0  0  0
  -26.0250  -11.7840   20.4440 N   0  0  0  0  0  0  0  0  0  0  0  0
  -24.0250  -10.5540   21.0090 C   0  0  0  0  0  0  0  0  0  0  0  0
  -24.4750   -9.5710   21.9170 C   0  0  0  0  0  3  0  0  0  0  0  0
  -23.7490   -8.3750   22.0960 C   0  0  0  0  0  3  0  0  0  0  0  0
  -22.5580   -8.1520   21.3630 C   0  0  0  0  0  0  0  0  0  0  0  0
  -22.1280   -9.1220   20.4420 C   0  0  0  0  0  3  0  0  0  0  0  0
  -22.8550  -10.3100   20.2630 C   0  0  0  0  0  3  0  0  0  0  0  0
  -21.8010   -7.0080   21.4510 O   0  0  0  0  0  0  0  0  0  0  0  0
  -21.7420   -6.2690   22.6060 C   0  0  0  0  0  0  0  0  0  0  0  0
  -21.2420   -6.8110   23.8100 C   0  0  0  0  0  3  0  0  0  0  0  0
  -21.1340   -5.9970   24.9560 C   0  0  0  0  0  3  0  0  0  0  0  0
  -21.5170   -4.6440   24.8980 C   0  0  0  0  0  0  0  0  0  0  0  0
  -22.0110   -4.1020   23.6980 C   0  0  0  0  0  3  0  0  0  0  0  0
  -22.1200   -4.9130   22.5540 C   0  0  0  0  0  0  0  0  0  0  0  0
  -22.5770   -4.3810   21.3950 F   0  0  0  0  0  0  0  0  0  0  0  0
  -21.4070   -3.8590   25.9960 F   0  0  0  0  0  0  0  0  0  0  0  0
  -22.9190  -13.6460   21.2690 C   0  0  0  0  0  0  0  0  0  0  0  0
  -22.2330  -12.9370   22.1580 N   0  0  0  0  0  0  0  0  0  0  0  0
  -22.4610  -14.6830   20.7920 O   0  0  0  0  0  0  0  0  0  0  0  0
  -22.6170  -12.0990   22.5690 H   0  0  0  0  0  0  0  0  0  0  0  0
  -21.3110  -13.2410   22.4370 H   0  0  0  0  0  0  0  0  0  0  0  0
  -25.5080  -15.3250   20.3720 N   0  0  0  0  0  0  0  0  0  0  0  0
  -24.7440  -15.9720   20.5420 H   0  0  0  0  0  0  0  0  0  0  0  0
  -26.3230  -15.7720   19.9760 H   0  0  0  0  0  0  0  0  0  0  0  0
  -29.1030  -23.3830   20.3860 C   0  0  0  0  0  3  0  0  0  0  0  0
  -28.0870  -24.7010   20.0290 C   0  0  0  0  0  3  0  0  0  0  0  0
  -28.3300  -26.2320   20.2760 O   0  0  0  0  0  0  0  0  0  0  0  0
  -24.6800  -31.8930   23.2990 C   0  0  0  0  0  0  0  0  0  0  0  0
  -27.2780  -27.2240   20.2010 C   0  0  0  0  0  0  0  0  0  0  0  0
  -23.4900  -30.5270   21.6260 C   0  0  0  0  0  3  0  0  0  0  0  0
  -24.9490  -28.9790   20.1780 C   0  0  0  0  0  0  0  0  0  0  0  0
  -26.0460  -30.7950   21.4800 C   0  0  0  0  0  2  0  0  0  0  0  0
  -26.1240  -29.4130   20.8040 C   0  0  0  0  0  0  0  0  0  0  0  0
  -27.2890  -28.5540   20.7940 C   0  0  0  0  0  3  0  0  0  0  0  0
  -26.0780  -26.9000   19.5310 C   0  0  0  0  0  3  0  0  0  0  0  0
  -24.9410  -27.7380   19.5230 C   0  0  0  0  0  3  0  0  0  0  0  0
  -23.7190  -29.8740   20.2360 C   0  0  0  0  0  2  0  0  0  0  0  0
  -24.7580  -31.0930   22.1910 N   0  0  0  0  0  0  0  0  0  0  0  0
  -23.5900  -32.1650   23.8260 O   0  0  0  0  0  0  0  0  0  0  0  0
  -22.8070  -29.5010   22.5660 C   0  0  0  0  0  0  0  0  0  0  0  0
  -21.4800  -29.3270   22.4270 N   0  0  0  0  0  0  0  0  0  0  0  0
  -23.4740  -28.8630   23.3850 O   0  0  0  0  0  0  0  0  0  0  0  0
  -20.9990  -29.8930   21.7410 H   0  0  0  0  0  0  0  0  0  0  0  0
  -18.0980  -28.1130   22.8960 C   0  0  0  0  0  0  0  0  0  0  0  0
  -20.6570  -28.3740   23.1760 C   0  0  0  0  0  3  0  0  0  0  0  0
  -20.7600  -26.9530   22.5750 C   0  0  0  0  0  2  0  0  0  0  0  0
  -19.6620  -26.6490   21.5510 C   0  0  0  0  0  2  0  0  0  0  0  0
  -18.2790  -26.7790   22.1930 C   0  0  0  0  0  2  0  0  0  0  0  0
  -19.2150  -28.8700   23.3450 C   0  0  0  0  0  0  0  0  0  0  0  0
  -18.9900  -30.1190   23.9640 C   0  0  0  0  0  3  0  0  0  0  0  0
  -17.6830  -30.6110   24.1390 C   0  0  0  0  0  3  0  0  0  0  0  0
  -16.5820  -29.8540   23.7050 C   0  0  0  0  0  3  0  0  0  0  0  0
  -16.7910  -28.6050   23.0900 C   0  0  0  0  0  3  0  0  0  0  0  0
  -25.9520  -32.5180   23.9450 C   0  0  0  0  0  3  0  0  0  0  0  0
  -25.6470  -33.9220   24.2670 N   0  0  0  0  0  0  0  0  0  0  0  0
  -25.9530  -34.9690   23.4890 C   0  0  0  0  0  0  0  0  0  0  0  0
  -26.5890  -34.8550   22.4370 O   0  0  0  0  0  0  0  0  0  0  0  0
  -25.0790  -34.0850   25.0860 H   0  0  0  0  0  0  0  0  0  0  0  0
  -24.1950  -36.7480   23.1980 C   0  0  0  0  0  1  0  0  0  0  0  0
  -25.4830  -36.3640   23.9480 C   0  0  0  0  0  3  0  0  0  0  0  0
  -27.6440  -37.2880   24.6570 C   0  0  0  0  0  1  0  0  0  0  0  0
  -26.5000  -37.4210   23.7600 N   0  0  0  0  0  0  0  0  0  0  0  0
  -26.0930  -38.3430   23.8990 H   0  0  0  0  0  0  0  0  0  0  0  0
  -26.4330  -31.7500   25.2380 C   0  0  1  0  0  0  0  0  0  0  0  0
  -25.3150  -31.5250   26.2820 C   0  0  0  0  0  1  0  0  0  0  0  0
  -27.0150  -30.3670   24.8710 C   0  0  0  0  0  1  0  0  0  0  0  0
  -27.5760  -32.5390   25.9200 C   0  0  0  0  0  1  0  0  0  0  0  0
  1  4  1  0
  1  2  1  0
  2  6  1  0
  3  5  1  0
  4  7  1  0
  6 46  1  0
  6  3  1  0
  7 16  1  0
  7  5  1  0
  8 16  1  0
  9 14  1  0
 10 11  1  0
 10  9  1  0
 12 11  1  0
 12 21  1  0
 12 13  1  0
 14  8  1  0
 14 13  1  0
 15  8  2  0
 16 17  1  0
 18 19  2  0
 19 38  1  0
 20 19  1  0
 20 23  1  0
 21 22  1  0
 21 18  1  0
 22 20  2  0
 23 24  1  0
 24 25  2  0
 26 29  1  0
 26 25  1  0
 27 26  2  0
 28 27  1  0
 28 23  2  0
 29 30  1  0
 30 31  1  0
 31 32  2  0
 33 32  1  0
 33 37  1  0
 34 33  2  0
 35 30  2  0
 35 34  1  0
 36 35  1  0
 38 39  1  0
 39 42  1  0
 39 41  1  0
 40 38  2  0
 43 18  1  0
 43 44  1  0
 45 43  1  0
 47 48  1  0
 47 46  2  0
 49 60  2  0
 50 48  1  0
 50 55  1  0
 51 59  1  0
 51 61  1  0
 52 58  1  0
 52 54  1  0
 53 59  1  0
 54 53  1  0
 55 54  2  0
 56 50  2  0
 57 56  1  0
 57 52  2  0
 58 51  1  0
 59 49  1  0
 61 63  2  0
 62 61  1  0
 64 62  1  0
 65 74  2  0
 65 70  1  0
 66 62  1  0
 66 70  1  0
 67 66  1  0
 68 69  1  0
 68 67  1  0
 69 65  1  0
 70 71  2  0
 71 72  1  0
 73 72  2  0
 74 73  1  0
 75 49  1  0
 75 76  1  0
 75 85  1  0
 76 79  1  0
 77 81  1  0
 77 76  1  0
 78 77  2  0
 81 80  1  0
 83 84  1  0
 83 81  1  0
 83 82  1  0
 85 88  1  1
 85 86  1  0
 87 85  1  0
M  ISO  4   8 100  16 100  47 101  48 101
M  END
>  <TORSDO>  (60) 
F 18

>  <SCORE>  (60) 
-15.344

>  <name>  (60) 
60

>  <ligand_id>  (60) 
60

>  <original_smiles>  (60) 
[H]c1c([H])c([H])c2c(c1[H])C([H])([H])C([H])([H])C([H])([H])C2([H])N([H])C(=O)C1([H])N(C(=O)C([H])(N([H])C(=O)C([H])(N([H])C([H])([H])[H])C([H])([H])[H])C(C([H])([H])[H])(C([H])([H])[H])C([H])([H])[H])C([H])([H])c2c([H])c(OC([H])([H])C([H])([H])C3([H])C([H])([H])C([H])([H])C([H])([H])C([H])(N([H])C(=O)N4C([H])([H])C([H])([H])C([H])([H])C([H])(n5nc(-c6c([H])c([H])c(Oc7c([H])c([H])c(F)c([H])c7F)c([H])c6[H])c(C(=O)N([H])[H])c5N([H])[H])C4([H])[H])C([H])([H])C3([H])[H])c([H])c([H])c2C1([H])[H]

>  <smiles>  (60) 
[H]c1c([H])c([H])c2c(c1[H])C([H])([H])C([H])([H])C([H])([H])C2([H])N([H])C(=O)C1([H])N(C(=O)C([H])(N([H])C(=O)C([H])(N([H])C([H])([H])[H])C([H])([H])[H])C(C([H])([H])[H])(C([H])([H])[H])C([H])([H])[H])C([H])([H])c2c([H])c(OC([H])([H])C([H])([H])C3([H])C([H])([H])C([H])([H])C([H])([H])C([H])(N([H])C(=O)N4C([H])([H])C([H])([H])C([H])([H])C([H])(n5nc(-c6c([H])c([H])c(Oc7c([H])c([H])c(F)c([H])c7F)c([H])c6[H])c(C(=O)N([H])[H])c5N([H])[H])C4([H])[H])C([H])([H])C3([H])[H])c([H])c([H])c2C1([H])[H]

$$$$
61:0:0
     RDKit          3D

 99107  0  0  1  0  0  0  0  0999 V2000
  -31.4650  -20.8510   23.1260 C   0  0  0  0  0  2  0  0  0  0  0  0
  -30.1070  -21.5960   23.1170 C   0  0  0  0  0  2  0  0  0  0  0  0
  -30.2500  -23.1100   22.8570 C   0  0  0  0  0  2  0  0  0  0  0  0
  -28.9900  -23.7010   22.3520 N   0  0  0  0  0  4  0  0  0  0  0  0
  -28.2690  -23.6050   23.0510 H   0  0  0  0  0  0  0  0  0  0  0  0
  -28.7090  -23.1510   21.5540 H   0  0  0  0  0  0  0  0  0  0  0  0
  -28.6450  -26.0200   23.1250 C   0  0  0  0  0  1  0  0  0  0  0  0
  -29.0770  -25.1280   21.9440 C   0  0  0  0  0  3  0  0  0  0  0  0
  -28.2170  -25.3720   20.6800 C   0  0  0  0  0  2  0  0  0  0  0  0
  -28.3290  -26.7300   20.2290 O   0  0  0  0  0  0  0  0  0  0  0  0
  -24.5600  -31.9230   23.2370 C   0  0  0  0  0  0  0  0  0  0  0  0
  -27.1560  -27.4490   20.1990 C   0  0  0  0  0  0  0  0  0  0  0  0
  -23.3320  -30.5200   21.6070 C   0  0  0  0  0  3  0  0  0  0  0  0
  -24.7670  -28.9560   20.1920 C   0  0  0  0  0  0  0  0  0  0  0  0
  -25.8580  -30.8630   21.3900 C   0  0  0  0  0  2  0  0  0  0  0  0
  -25.9300  -29.4860   20.7660 C   0  0  0  0  0  0  0  0  0  0  0  0
  -27.1270  -28.7410   20.7640 C   0  0  0  0  0  3  0  0  0  0  0  0
  -25.9830  -26.9330   19.6040 C   0  0  0  0  0  3  0  0  0  0  0  0
  -24.7870  -27.6780   19.6090 C   0  0  0  0  0  3  0  0  0  0  0  0
  -23.5300  -29.8240   20.2320 C   0  0  0  0  0  2  0  0  0  0  0  0
  -24.6030  -31.1170   22.1370 N   0  0  0  0  0  0  0  0  0  0  0  0
  -23.4850  -32.2100   23.7790 O   0  0  0  0  0  0  0  0  0  0  0  0
  -22.6790  -29.5130   22.5790 C   0  0  0  0  0  0  0  0  0  0  0  0
  -21.3530  -29.3410   22.4560 N   0  0  0  0  0  0  0  0  0  0  0  0
  -23.3600  -28.8880   23.3960 O   0  0  0  0  0  0  0  0  0  0  0  0
  -20.8670  -29.9040   21.7730 H   0  0  0  0  0  0  0  0  0  0  0  0
  -17.9680  -28.1900   22.9730 C   0  0  0  0  0  0  0  0  0  0  0  0
  -20.5280  -28.4170   23.2330 C   0  0  0  0  0  3  0  0  0  0  0  0
  -20.6070  -26.9810   22.6620 C   0  0  0  0  0  2  0  0  0  0  0  0
  -19.4950  -26.6690   21.6530 C   0  0  0  0  0  2  0  0  0  0  0  0
  -18.1190  -26.8340   22.3030 C   0  0  0  0  0  2  0  0  0  0  0  0
  -19.0970  -28.9390   23.3940 C   0  0  0  0  0  0  0  0  0  0  0  0
  -18.8980  -30.2090   23.9770 C   0  0  0  0  0  3  0  0  0  0  0  0
  -17.6000  -30.7290   24.1440 C   0  0  0  0  0  3  0  0  0  0  0  0
  -16.4840  -29.9760   23.7380 C   0  0  0  0  0  3  0  0  0  0  0  0
  -16.6690  -28.7080   23.1600 C   0  0  0  0  0  3  0  0  0  0  0  0
  -25.8560  -32.5430   23.8470 C   0  0  0  0  0  3  0  0  0  0  0  0
  -26.3810  -31.7650   25.1170 C   0  0  1  0  0  0  0  0  0  0  0  0
  -25.2980  -31.5300   26.1960 C   0  0  0  0  0  1  0  0  0  0  0  0
  -26.9480  -30.3860   24.7120 C   0  0  0  0  0  1  0  0  0  0  0  0
  -27.5430  -32.5480   25.7730 C   0  0  0  0  0  1  0  0  0  0  0  0
  -25.5590  -33.9420   24.1790 N   0  0  0  0  0  0  0  0  0  0  0  0
  -25.9000  -34.9930   23.4210 C   0  0  0  0  0  0  0  0  0  0  0  0
  -26.5680  -34.8830   22.3890 O   0  0  0  0  0  0  0  0  0  0  0  0
  -24.9640  -34.1010   24.9790 H   0  0  0  0  0  0  0  0  0  0  0  0
  -24.1880  -36.7980   23.0600 C   0  0  0  0  0  1  0  0  0  0  0  0
  -25.4230  -36.3840   23.8770 C   0  0  0  0  0  3  0  0  0  0  0  0
  -27.5640  -37.2440   24.7170 C   0  0  0  0  0  1  0  0  0  0  0  0
  -26.4670  -37.4270   23.7700 N   0  0  0  0  0  0  0  0  0  0  0  0
  -26.0710  -38.3510   23.9210 H   0  0  0  0  0  0  0  0  0  0  0  0
  -31.3980  -19.3440   22.7820 C   0  0  0  0  0  2  0  0  0  0  0  0
  -29.9810  -17.8510   19.7680 C   0  0  0  0  0  3  0  0  0  0  0  0
  -30.6150  -19.8870   20.4100 C   0  0  0  0  0  3  0  0  0  0  0  0
  -30.0180  -19.2210   19.3750 C   0  0  0  0  0  0  0  0  0  0  0  0
  -30.5000  -17.7300   21.0310 C   0  0  0  0  0  0  0  0  0  0  0  0
  -30.8490  -19.0080   21.4600 N   0  0  0  0  0  0  0  0  0  0  0  0
  -29.8030  -21.3130   17.9370 C   0  0  0  0  0  1  0  0  0  0  0  0
  -29.4860  -19.8060   18.0720 C   0  0  0  0  0  3  0  0  0  0  0  0
  -30.4930  -19.4040   15.4540 C   0  0  0  0  0  1  0  0  0  0  0  0
  -29.9310  -18.9620   16.8350 C   0  0  0  0  0  2  0  0  0  0  0  0
  -30.7090  -16.5180   21.9050 C   0  0  0  0  0  2  0  0  0  0  0  0
  -30.6750  -14.4520   20.5040 C   0  0  0  0  0  0  0  0  0  0  0  0
  -30.3220  -12.3830   19.2010 C   0  0  0  0  0  2  0  0  0  0  0  0
  -29.3580  -12.6510   18.0300 C   0  0  0  0  0  2  0  0  0  0  0  0
  -27.8900  -12.5120   18.4830 C   0  0  0  0  0  2  0  0  0  0  0  0
  -27.5890  -13.2970   19.7870 C   0  0  0  0  0  3  0  0  0  0  0  0
  -28.6550  -12.9870   20.8570 C   0  0  0  0  0  2  0  0  0  0  0  0
  -29.9780  -13.3070   20.2900 N   0  0  0  0  0  0  0  0  0  0  0  0
  -31.7320  -14.7220   19.9240 O   0  0  0  0  0  0  0  0  0  0  0  0
  -30.1210  -15.2870   21.3900 N   0  0  0  0  0  0  0  0  0  0  0  0
  -29.2480  -14.9970   21.8080 H   0  0  0  0  0  0  0  0  0  0  0  0
  -25.1930  -13.8980   20.5230 C   0  0  0  0  0  0  0  0  0  0  0  0
  -24.1330  -13.1240   20.9040 C   0  0  0  0  0  0  0  0  0  0  0  0
  -24.5960  -11.7700   20.8600 C   0  0  0  0  0  0  0  0  0  0  0  0
  -26.2390  -13.0210   20.2790 N   0  0  0  0  0  0  0  0  0  0  0  0
  -25.8840  -11.7370   20.5350 N   0  0  0  0  0  0  0  0  0  0  0  0
  -23.8780  -10.5060   21.0570 C   0  0  0  0  0  0  0  0  0  0  0  0
  -24.3370   -9.5330   21.9730 C   0  0  0  0  0  3  0  0  0  0  0  0
  -23.6210   -8.3320   22.1590 C   0  0  0  0  0  3  0  0  0  0  0  0
  -22.4310   -8.0940   21.4310 C   0  0  0  0  0  0  0  0  0  0  0  0
  -21.9890   -9.0570   20.5080 C   0  0  0  0  0  3  0  0  0  0  0  0
  -22.7050  -10.2510   20.3190 C   0  0  0  0  0  3  0  0  0  0  0  0
  -21.6830   -6.9440   21.5270 O   0  0  0  0  0  0  0  0  0  0  0  0
  -21.6750   -6.1840   22.6670 C   0  0  0  0  0  0  0  0  0  0  0  0
  -21.3080   -6.7240   23.9190 C   0  0  0  0  0  3  0  0  0  0  0  0
  -21.2450   -5.8910   25.0540 C   0  0  0  0  0  3  0  0  0  0  0  0
  -21.5430   -4.5200   24.9380 C   0  0  0  0  0  0  0  0  0  0  0  0
  -21.9030   -3.9800   23.6910 C   0  0  0  0  0  3  0  0  0  0  0  0
  -21.9670   -4.8100   22.5590 C   0  0  0  0  0  0  0  0  0  0  0  0
  -22.2960   -4.2810   21.3550 F   0  0  0  0  0  0  0  0  0  0  0  0
  -21.4750   -3.7160   26.0260 F   0  0  0  0  0  0  0  0  0  0  0  0
  -22.7370  -13.5940   21.1940 C   0  0  0  0  0  0  0  0  0  0  0  0
  -22.0210  -12.8980   22.0690 N   0  0  0  0  0  0  0  0  0  0  0  0
  -22.2890  -14.6190   20.6790 O   0  0  0  0  0  0  0  0  0  0  0  0
  -22.3940  -12.0730   22.5160 H   0  0  0  0  0  0  0  0  0  0  0  0
  -21.0850  -13.1990   22.3000 H   0  0  0  0  0  0  0  0  0  0  0  0
  -25.3570  -15.2670   20.3450 N   0  0  0  0  0  0  0  0  0  0  0  0
  -24.6020  -15.9300   20.4820 H   0  0  0  0  0  0  0  0  0  0  0  0
  -26.2140  -15.7050   20.0300 H   0  0  0  0  0  0  0  0  0  0  0  0
  2  1  1  0
  3  2  1  0
  4  3  1  0
  4  5  1  0
  6  4  1  0
  8  4  1  0
  8  7  1  0
  9  8  1  0
 10  9  1  0
 11 22  2  0
 12 10  1  0
 12 17  1  0
 13 21  1  0
 13 23  1  0
 14 20  1  0
 14 16  1  0
 15 21  1  0
 16 15  1  0
 17 16  2  0
 18 19  1  0
 18 12  2  0
 19 14  2  0
 20 13  1  0
 21 11  1  0
 23 25  2  0
 24 23  1  0
 26 24  1  0
 27 36  2  0
 27 32  1  0
 28 24  1  0
 28 32  1  0
 29 28  1  0
 30 31  1  0
 30 29  1  0
 31 27  1  0
 32 33  2  0
 33 34  1  0
 35 34  2  0
 36 35  1  0
 37 11  1  0
 37 42  1  0
 37 38  1  0
 38 41  1  1
 38 39  1  0
 40 38  1  0
 42 45  1  0
 43 47  1  0
 43 42  1  0
 44 43  2  0
 47 46  1  0
 49 47  1  0
 49 50  1  0
 49 48  1  0
 51  1  1  0
 52 55  2  0
 53 56  1  0
 54 52  1  0
 54 53  2  0
 55 56  1  0
 55 61  1  0
 56 51  1  0
 58 57  1  0
 58 54  1  0
 59 60  1  0
 60 58  1  0
 62 70  1  0
 63 68  1  0
 64 65  1  0
 64 63  1  0
 66 65  1  0
 66 75  1  0
 66 67  1  0
 68 62  1  0
 68 67  1  0
 69 62  2  0
 70 71  1  0
 70 61  1  0
 72 73  2  0
 73 92  1  0
 74 73  1  0
 74 77  1  0
 75 72  1  0
 75 76  1  0
 76 74  2  0
 77 78  1  0
 78 79  2  0
 80 83  1  0
 80 79  1  0
 81 80  2  0
 82 81  1  0
 82 77  2  0
 83 84  1  0
 84 85  1  0
 85 86  2  0
 87 86  1  0
 87 91  1  0
 88 87  2  0
 89 84  2  0
 89 88  1  0
 90 89  1  0
 92 93  1  0
 93 96  1  0
 93 95  1  0
 94 92  2  0
 97 98  1  0
 97 72  1  0
 99 97  1  0
M  ISO  4   9 101  10 101  62 100  70 100
M  END
>  <TORSDO>  (61) 
F 26

>  <SCORE>  (61) 
-12.651

>  <name>  (61) 
61

>  <ligand_id>  (61) 
61

>  <original_smiles>  (61) 
[H]c1c([H])c([H])c2c(c1[H])C([H])([H])C([H])([H])C([H])([H])C2([H])N([H])C(=O)C1([H])N(C(=O)C([H])(N([H])C(=O)C([H])(N([H])C([H])([H])[H])C([H])([H])[H])C(C([H])([H])[H])(C([H])([H])[H])C([H])([H])[H])C([H])([H])c2c([H])c(OC([H])([H])C([H])(C([H])([H])[H])[N+]([H])([H])C([H])([H])C([H])([H])C([H])([H])C([H])([H])n3c([H])c(C([H])(C([H])([H])[H])C([H])([H])C([H])([H])[H])c([H])c3C([H])([H])N([H])C(=O)N3C([H])([H])C([H])([H])C([H])([H])C([H])(n4nc(-c5c([H])c([H])c(Oc6c([H])c([H])c(F)c([H])c6F)c([H])c5[H])c(C(=O)N([H])[H])c4N([H])[H])C3([H])[H])c([H])c([H])c2C1([H])[H]

>  <smiles>  (61) 
[H]c1c([H])c([H])c2c(c1[H])C([H])([H])C([H])([H])C([H])([H])C2([H])N([H])C(=O)C1([H])N(C(=O)C([H])(N([H])C(=O)C([H])(N([H])C([H])([H])[H])C([H])([H])[H])C(C([H])([H])[H])(C([H])([H])[H])C([H])([H])[H])C([H])([H])c2c([H])c(OC([H])([H])C([H])(C([H])([H])[H])[N+]([H])([H])C([H])([H])C([H])([H])C([H])([H])C([H])([H])n3c([H])c(C([H])(C([H])([H])[H])C([H])([H])C([H])([H])[H])c([H])c3C([H])([H])N([H])C(=O)N3C([H])([H])C([H])([H])C([H])([H])C([H])(n4nc(-c5c([H])c([H])c(Oc6c([H])c([H])c(F)c([H])c6F)c([H])c5[H])c(C(=O)N([H])[H])c4N([H])[H])C3([H])[H])c([H])c([H])c2C1([H])[H]

$$$$
62:0:0
     RDKit          3D

 95103  0  0  1  0  0  0  0  0999 V2000
  -30.8480  -21.3630   20.1530 C   0  0  0  0  0  3  0  0  0  0  0  0
  -29.0030  -20.1400   19.9800 C   0  0  0  0  0  3  0  0  0  0  0  0
  -29.4420  -21.4420   19.9480 C   0  0  0  0  0  0  0  0  0  0  0  0
  -31.2280  -20.0420   20.1690 C   0  0  0  0  0  0  0  0  0  0  0  0
  -30.0770  -19.2650   20.0610 N   0  0  0  0  0  0  0  0  0  0  0  0
  -33.2240  -19.6110   21.6160 C   0  0  0  0  0  1  0  0  0  0  0  0
  -32.6130  -19.4610   20.2150 C   0  0  0  0  0  3  0  0  0  0  0  0
  -33.5420  -20.0730   19.1480 C   0  0  0  0  0  2  0  0  0  0  0  0
  -33.8970  -20.7120   16.7050 C   0  0  0  0  0  1  0  0  0  0  0  0
  -32.9970  -19.9830   17.7090 C   0  0  0  0  0  2  0  0  0  0  0  0
  -28.1170  -22.5230   18.1690 C   0  0  0  0  0  1  0  0  0  0  0  0
  -28.5660  -22.6570   19.6350 C   0  0  0  0  0  3  0  0  0  0  0  0
  -29.1510  -24.0860   19.9460 C   0  0  0  0  0  2  0  0  0  0  0  0
  -28.0990  -25.2120   19.7030 C   0  0  0  0  0  2  0  0  0  0  0  0
  -28.3080  -26.5770   20.1770 O   0  0  0  0  0  0  0  0  0  0  0  0
  -24.5920  -31.9150   23.2840 C   0  0  0  0  0  0  0  0  0  0  0  0
  -27.1740  -27.3950   20.1770 C   0  0  0  0  0  0  0  0  0  0  0  0
  -23.3730  -30.5270   21.6520 C   0  0  0  0  0  3  0  0  0  0  0  0
  -24.8060  -28.9820   20.2290 C   0  0  0  0  0  0  0  0  0  0  0  0
  -25.9180  -30.8410   21.4580 C   0  0  0  0  0  2  0  0  0  0  0  0
  -25.9860  -29.4710   20.8040 C   0  0  0  0  0  0  0  0  0  0  0  0
  -27.1740  -28.6890   20.7730 C   0  0  0  0  0  3  0  0  0  0  0  0
  -25.9540  -26.9510   19.6010 C   0  0  0  0  0  3  0  0  0  0  0  0
  -24.7850  -27.7170   19.6370 C   0  0  0  0  0  3  0  0  0  0  0  0
  -23.5770  -29.8590   20.2720 C   0  0  0  0  0  2  0  0  0  0  0  0
  -24.6470  -31.1110   22.1870 N   0  0  0  0  0  0  0  0  0  0  0  0
  -23.5130  -32.1970   23.8240 O   0  0  0  0  0  0  0  0  0  0  0  0
  -22.7180  -29.5060   22.6090 C   0  0  0  0  0  0  0  0  0  0  0  0
  -21.3930  -29.3210   22.4780 N   0  0  0  0  0  0  0  0  0  0  0  0
  -23.3980  -28.8800   23.4270 O   0  0  0  0  0  0  0  0  0  0  0  0
  -20.9060  -29.8840   21.7950 H   0  0  0  0  0  0  0  0  0  0  0  0
  -18.0160  -28.1220   22.9570 C   0  0  0  0  0  0  0  0  0  0  0  0
  -20.5710  -28.3880   23.2480 C   0  0  0  0  0  3  0  0  0  0  0  0
  -20.6800  -26.9510   22.6890 C   0  0  0  0  0  2  0  0  0  0  0  0
  -19.5890  -26.6160   21.6660 C   0  0  0  0  0  2  0  0  0  0  0  0
  -18.2010  -26.7650   22.2980 C   0  0  0  0  0  2  0  0  0  0  0  0
  -19.1310  -28.8890   23.3900 C   0  0  0  0  0  0  0  0  0  0  0  0
  -18.9060  -30.1580   23.9670 C   0  0  0  0  0  3  0  0  0  0  0  0
  -17.6010  -30.6610   24.1160 C   0  0  0  0  0  3  0  0  0  0  0  0
  -16.5000  -29.8920   23.6990 C   0  0  0  0  0  3  0  0  0  0  0  0
  -16.7080  -28.6240   23.1260 C   0  0  0  0  0  3  0  0  0  0  0  0
  -25.8830  -32.5380   23.8980 C   0  0  0  0  0  3  0  0  0  0  0  0
  -25.5840  -33.9390   24.2200 N   0  0  0  0  0  0  0  0  0  0  0  0
  -25.9170  -34.9840   23.4510 C   0  0  0  0  0  0  0  0  0  0  0  0
  -26.5800  -34.8710   22.4170 O   0  0  0  0  0  0  0  0  0  0  0  0
  -24.9900  -34.0980   25.0190 H   0  0  0  0  0  0  0  0  0  0  0  0
  -24.1900  -36.7790   23.1080 C   0  0  0  0  0  1  0  0  0  0  0  0
  -25.4400  -36.3770   23.9050 C   0  0  0  0  0  3  0  0  0  0  0  0
  -27.5910  -37.2580   24.7020 C   0  0  0  0  0  1  0  0  0  0  0  0
  -26.4770  -37.4250   23.7730 N   0  0  0  0  0  0  0  0  0  0  0  0
  -26.0770  -38.3480   23.9200 H   0  0  0  0  0  0  0  0  0  0  0  0
  -26.3950  -31.7710   25.1790 C   0  0  1  0  0  0  0  0  0  0  0  0
  -25.3010  -31.5510   26.2520 C   0  0  0  0  0  1  0  0  0  0  0  0
  -26.9640  -30.3850   24.7960 C   0  0  0  0  0  1  0  0  0  0  0  0
  -27.5500  -32.5630   25.8340 C   0  0  0  0  0  1  0  0  0  0  0  0
  -29.9570  -17.7980   19.9060 C   0  0  0  0  0  2  0  0  0  0  0  0
  -30.4080  -16.9330   21.1170 C   0  0  0  0  0  2  0  0  0  0  0  0
  -30.6680  -14.4940   20.5080 C   0  0  0  0  0  0  0  0  0  0  0  0
  -30.3610  -12.3280   19.3650 C   0  0  0  0  0  2  0  0  0  0  0  0
  -29.4380  -12.5420   18.1490 C   0  0  0  0  0  2  0  0  0  0  0  0
  -27.9560  -12.4180   18.5580 C   0  0  0  0  0  2  0  0  0  0  0  0
  -27.6100  -13.2560   19.8190 C   0  0  0  0  0  3  0  0  0  0  0  0
  -28.6550  -13.0310   20.9380 C   0  0  0  0  0  2  0  0  0  0  0  0
  -29.9870  -13.3220   20.3820 N   0  0  0  0  0  0  0  0  0  0  0  0
  -31.8020  -14.6630   20.0570 O   0  0  0  0  0  0  0  0  0  0  0  0
  -29.9690  -15.5250   21.0190 N   0  0  0  0  0  0  0  0  0  0  0  0
  -29.0290  -15.3190   21.3240 H   0  0  0  0  0  0  0  0  0  0  0  0
  -25.2030  -13.8730   20.4880 C   0  0  0  0  0  0  0  0  0  0  0  0
  -24.1270  -13.1060   20.8500 C   0  0  0  0  0  0  0  0  0  0  0  0
  -24.5870  -11.7530   20.8400 C   0  0  0  0  0  0  0  0  0  0  0  0
  -26.2500  -12.9870   20.2810 N   0  0  0  0  0  0  0  0  0  0  0  0
  -25.8820  -11.7090   20.5520 N   0  0  0  0  0  0  0  0  0  0  0  0
  -23.8550  -10.4940   21.0310 C   0  0  0  0  0  0  0  0  0  0  0  0
  -24.2780   -9.5300   21.9720 C   0  0  0  0  0  3  0  0  0  0  0  0
  -23.5510   -8.3340   22.1510 C   0  0  0  0  0  3  0  0  0  0  0  0
  -22.3810   -8.0940   21.3900 C   0  0  0  0  0  0  0  0  0  0  0  0
  -21.9730   -9.0490   20.4400 C   0  0  0  0  0  3  0  0  0  0  0  0
  -22.7030  -10.2360   20.2600 C   0  0  0  0  0  3  0  0  0  0  0  0
  -21.6220   -6.9530   21.4810 O   0  0  0  0  0  0  0  0  0  0  0  0
  -21.5710   -6.2110   22.6340 C   0  0  0  0  0  0  0  0  0  0  0  0
  -21.1520   -6.7690   23.8620 C   0  0  0  0  0  3  0  0  0  0  0  0
  -21.0470   -5.9550   25.0060 C   0  0  0  0  0  3  0  0  0  0  0  0
  -21.3520   -4.5830   24.9250 C   0  0  0  0  0  0  0  0  0  0  0  0
  -21.7630   -4.0240   23.7020 C   0  0  0  0  0  3  0  0  0  0  0  0
  -21.8690   -4.8360   22.5600 C   0  0  0  0  0  0  0  0  0  0  0  0
  -22.2460   -4.2870   21.3790 F   0  0  0  0  0  0  0  0  0  0  0  0
  -21.2430   -3.7980   26.0220 F   0  0  0  0  0  0  0  0  0  0  0  0
  -22.7270  -13.5890   21.0960 C   0  0  0  0  0  0  0  0  0  0  0  0
  -21.9850  -12.9040   21.9600 N   0  0  0  0  0  0  0  0  0  0  0  0
  -22.2970  -14.6070   20.5550 O   0  0  0  0  0  0  0  0  0  0  0  0
  -22.3440  -12.0810   22.4210 H   0  0  0  0  0  0  0  0  0  0  0  0
  -21.0440  -13.2100   22.1670 H   0  0  0  0  0  0  0  0  0  0  0  0
  -25.3730  -15.2410   20.2990 N   0  0  0  0  0  0  0  0  0  0  0  0
  -24.6090  -15.8990   20.4000 H   0  0  0  0  0  0  0  0  0  0  0  0
  -26.2280  -15.6720   19.9690 H   0  0  0  0  0  0  0  0  0  0  0  0
  1  4  2  0
  2  5  1  0
  3  2  2  0
  3  1  1  0
  4  7  1  0
  5  4  1  0
  7  6  1  0
  8  7  1  0
  9 10  1  0
 10  8  1  0
 12 11  1  0
 12 13  1  0
 12  3  1  0
 14 13  1  0
 14 15  1  0
 16 27  2  0
 17 15  1  0
 17 22  1  0
 18 26  1  0
 18 28  1  0
 19 25  1  0
 19 21  1  0
 20 26  1  0
 21 20  1  0
 22 21  2  0
 23 24  1  0
 23 17  2  0
 24 19  2  0
 25 18  1  0
 26 16  1  0
 28 30  2  0
 29 28  1  0
 31 29  1  0
 32 41  2  0
 32 37  1  0
 33 29  1  0
 33 37  1  0
 34 33  1  0
 35 36  1  0
 35 34  1  0
 36 32  1  0
 37 38  2  0
 38 39  1  0
 40 39  2  0
 41 40  1  0
 42 16  1  0
 42 43  1  0
 42 52  1  0
 43 46  1  0
 44 48  1  0
 44 43  1  0
 45 44  2  0
 48 47  1  0
 50 48  1  0
 50 51  1  0
 50 49  1  0
 52 55  1  1
 52 53  1  0
 54 52  1  0
 56  5  1  0
 56 57  1  0
 58 66  1  0
 59 64  1  0
 60 61  1  0
 60 59  1  0
 62 61  1  0
 62 71  1  0
 62 63  1  0
 64 58  1  0
 64 63  1  0
 65 58  2  0
 66 57  1  0
 66 67  1  0
 68 69  2  0
 69 88  1  0
 70 69  1  0
 70 73  1  0
 71 68  1  0
 71 72  1  0
 72 70  2  0
 73 74  1  0
 74 75  2  0
 76 79  1  0
 76 75  1  0
 77 76  2  0
 78 77  1  0
 78 73  2  0
 79 80  1  0
 80 81  1  0
 81 82  2  0
 83 82  1  0
 83 87  1  0
 84 83  2  0
 85 80  2  0
 85 84  1  0
 86 85  1  0
 88 89  1  0
 89 92  1  0
 89 91  1  0
 90 88  2  0
 93 94  1  0
 93 68  1  0
 95 93  1  0
M  ISO  4  14 101  15 101  58 100  66 100
M  END
>  <TORSDO>  (62) 
F 24

>  <SCORE>  (62) 
-12.691

>  <name>  (62) 
62

>  <ligand_id>  (62) 
62

>  <original_smiles>  (62) 
[H]c1c([H])c([H])c2c(c1[H])C([H])([H])C([H])([H])C([H])([H])C2([H])N([H])C(=O)C1([H])N(C(=O)C([H])(N([H])C(=O)C([H])(N([H])C([H])([H])[H])C([H])([H])[H])C(C([H])([H])[H])(C([H])([H])[H])C([H])([H])[H])C([H])([H])c2c([H])c(OC([H])([H])C([H])([H])C([H])(c3c([H])c(C([H])(C([H])([H])[H])C([H])([H])C([H])([H])C([H])([H])[H])n(C([H])([H])C([H])([H])N([H])C(=O)N4C([H])([H])C([H])([H])C([H])([H])C([H])(n5nc(-c6c([H])c([H])c(Oc7c([H])c([H])c(F)c([H])c7F)c([H])c6[H])c(C(=O)N([H])[H])c5N([H])[H])C4([H])[H])c3[H])C([H])([H])[H])c([H])c([H])c2C1([H])[H]

>  <smiles>  (62) 
[H]c1c([H])c([H])c2c(c1[H])C([H])([H])C([H])([H])C([H])([H])C2([H])N([H])C(=O)C1([H])N(C(=O)C([H])(N([H])C(=O)C([H])(N([H])C([H])([H])[H])C([H])([H])[H])C(C([H])([H])[H])(C([H])([H])[H])C([H])([H])[H])C([H])([H])c2c([H])c(OC([H])([H])C([H])([H])C([H])(c3c([H])c(C([H])(C([H])([H])[H])C([H])([H])C([H])([H])C([H])([H])[H])n(C([H])([H])C([H])([H])N([H])C(=O)N4C([H])([H])C([H])([H])C([H])([H])C([H])(n5nc(-c6c([H])c([H])c(Oc7c([H])c([H])c(F)c([H])c7F)c([H])c6[H])c(C(=O)N([H])[H])c5N([H])[H])C4([H])[H])c3[H])C([H])([H])[H])c([H])c([H])c2C1([H])[H]

$$$$
63:0:0
     RDKit          3D

100108  0  0  1  0  0  0  0  0999 V2000
  -30.4660  -22.0670   22.2700 C   0  0  0  0  0  3  0  0  0  0  0  0
  -31.6950  -21.4650   22.1870 C   0  0  0  0  0  0  0  0  0  0  0  0
  -31.5300  -22.9430   20.5210 C   0  0  0  0  0  3  0  0  0  0  0  0
  -30.3830  -22.9590   21.2260 N   0  0  0  0  0  0  0  0  0  0  0  0
  -32.3080  -22.0370   21.1090 N   0  0  0  0  0  0  0  0  0  0  0  0
  -33.2270  -21.7570   20.7930 H   0  0  0  0  0  0  0  0  0  0  0  0
  -32.9070  -24.8860   19.7380 C   0  0  0  0  0  1  0  0  0  0  0  0
  -31.9350  -23.7650   19.3280 C   0  0  0  0  0  3  0  0  0  0  0  0
  -31.4470  -21.9700   17.5730 C   0  0  0  0  0  1  0  0  0  0  0  0
  -32.5010  -22.9070   18.1810 C   0  0  0  0  0  2  0  0  0  0  0  0
  -32.3570  -20.3950   22.9970 C   0  0  0  0  0  2  0  0  0  0  0  0
  -33.5420  -19.8700   22.3260 N   0  0  0  0  0  0  0  0  0  0  0  0
  -34.0470  -19.2540   22.9610 H   0  0  0  0  0  0  0  0  0  0  0  0
  -34.4020  -20.9300   21.8110 C   0  0  0  0  0  2  0  0  0  0  0  0
  -35.3080  -20.3340   20.7260 C   0  0  0  0  0  2  0  0  0  0  0  0
  -36.7200  -20.9480   20.7200 C   0  0  0  0  0  2  0  0  0  0  0  0
  -38.2610  -19.0090   20.5100 C   0  0  0  0  0  0  0  0  0  0  0  0
  -38.2290  -16.5480   20.5270 C   0  0  0  0  0  2  0  0  0  0  0  0
  -38.1720  -15.9950   19.0860 C   0  0  0  0  0  2  0  0  0  0  0  0
  -36.7180  -15.9280   18.5760 C   0  0  0  0  0  2  0  0  0  0  0  0
  -35.9220  -17.2360   18.8340 C   0  0  0  0  0  3  0  0  0  0  0  0
  -36.1060  -17.6940   20.2960 C   0  0  0  0  0  2  0  0  0  0  0  0
  -37.5500  -17.8510   20.5470 N   0  0  0  0  0  0  0  0  0  0  0  0
  -39.4830  -19.0570   20.6610 O   0  0  0  0  0  0  0  0  0  0  0  0
  -37.6390  -20.0740   19.9960 N   0  0  0  0  0  0  0  0  0  0  0  0
  -38.3110  -20.6220   19.4770 H   0  0  0  0  0  0  0  0  0  0  0  0
  -33.7020  -17.8650   17.6870 C   0  0  0  0  0  0  0  0  0  0  0  0
  -32.4850  -17.2350   17.6430 C   0  0  0  0  0  0  0  0  0  0  0  0
  -32.6240  -16.0570   18.4350 C   0  0  0  0  0  0  0  0  0  0  0  0
  -34.5090  -17.0750   18.4940 N   0  0  0  0  0  0  0  0  0  0  0  0
  -33.8310  -16.0040   18.9800 N   0  0  0  0  0  0  0  0  0  0  0  0
  -31.6940  -14.9400   18.6560 C   0  0  0  0  0  0  0  0  0  0  0  0
  -31.0630  -14.7440   19.9050 C   0  0  0  0  0  3  0  0  0  0  0  0
  -30.1580  -13.6760   20.0900 C   0  0  0  0  0  3  0  0  0  0  0  0
  -29.8730  -12.7940   19.0200 C   0  0  0  0  0  0  0  0  0  0  0  0
  -30.5250  -12.9790   17.7870 C   0  0  0  0  0  3  0  0  0  0  0  0
  -31.4290  -14.0390   17.6070 C   0  0  0  0  0  3  0  0  0  0  0  0
  -29.0260  -11.7170   19.1130 O   0  0  0  0  0  0  0  0  0  0  0  0
  -27.7930  -11.8190   19.7030 C   0  0  0  0  0  0  0  0  0  0  0  0
  -26.8380  -12.7680   19.2740 C   0  0  0  0  0  3  0  0  0  0  0  0
  -25.5570  -12.7930   19.8610 C   0  0  0  0  0  3  0  0  0  0  0  0
  -25.2250  -11.8650   20.8670 C   0  0  0  0  0  0  0  0  0  0  0  0
  -26.1720  -10.9170   21.2910 C   0  0  0  0  0  3  0  0  0  0  0  0
  -27.4510  -10.8920   20.7080 C   0  0  0  0  0  0  0  0  0  0  0  0
  -28.3530   -9.9640   21.1060 F   0  0  0  0  0  0  0  0  0  0  0  0
  -23.9930  -11.8830   21.4250 F   0  0  0  0  0  0  0  0  0  0  0  0
  -31.2920  -17.6530   16.8330 C   0  0  0  0  0  0  0  0  0  0  0  0
  -30.0890  -17.3930   17.3370 N   0  0  0  0  0  0  0  0  0  0  0  0
  -31.4180  -18.2550   15.7670 O   0  0  0  0  0  0  0  0  0  0  0  0
  -29.9790  -16.9260   18.2250 H   0  0  0  0  0  0  0  0  0  0  0  0
  -29.2630  -17.6640   16.8210 H   0  0  0  0  0  0  0  0  0  0  0  0
  -34.1900  -19.0230   17.0930 N   0  0  0  0  0  0  0  0  0  0  0  0
  -33.6360  -19.5700   16.4440 H   0  0  0  0  0  0  0  0  0  0  0  0
  -35.1300  -19.3750   17.2140 H   0  0  0  0  0  0  0  0  0  0  0  0
  -29.2090  -23.7650   20.8750 C   0  0  0  0  0  2  0  0  0  0  0  0
  -29.5390  -25.2400   20.5750 C   0  0  0  0  0  2  0  0  0  0  0  0
  -28.7210  -27.6170   20.6060 C   0  0  0  0  0  1  0  0  0  0  0  0
  -28.2940  -26.1410   20.5330 C   0  0  0  0  0  3  0  0  0  0  0  0
  -27.3940  -25.8570   19.3130 C   0  0  0  0  0  2  0  0  0  0  0  0
  -27.0990  -27.1130   18.7150 O   0  0  0  0  0  0  0  0  0  0  0  0
  -24.7790  -31.8120   23.5050 C   0  0  0  0  0  0  0  0  0  0  0  0
  -26.0280  -27.8420   19.1740 C   0  0  0  0  0  0  0  0  0  0  0  0
  -23.0480  -30.8750   22.0060 C   0  0  0  0  0  3  0  0  0  0  0  0
  -23.9150  -29.5030   20.0410 C   0  0  0  0  0  0  0  0  0  0  0  0
  -25.4840  -31.0260   21.2520 C   0  0  0  0  0  2  0  0  0  0  0  0
  -25.2350  -29.7990   20.4040 C   0  0  0  0  0  0  0  0  0  0  0  0
  -26.2930  -28.9710   19.9740 C   0  0  0  0  0  3  0  0  0  0  0  0
  -24.6900  -27.5500   18.8180 C   0  0  0  0  0  3  0  0  0  0  0  0
  -23.6350  -28.3720   19.2550 C   0  0  0  0  0  3  0  0  0  0  0  0
  -22.8440  -30.4520   20.5270 C   0  0  0  0  0  2  0  0  0  0  0  0
  -24.4700  -31.2370   22.3100 N   0  0  0  0  0  0  0  0  0  0  0  0
  -23.8980  -32.0840   24.3310 O   0  0  0  0  0  0  0  0  0  0  0  0
  -22.4940  -29.7560   22.9180 C   0  0  0  0  0  0  0  0  0  0  0  0
  -21.2150  -29.4010   22.7130 N   0  0  0  0  0  0  0  0  0  0  0  0
  -23.2120  -29.2100   23.7580 O   0  0  0  0  0  0  0  0  0  0  0  0
  -20.6900  -29.9030   22.0100 H   0  0  0  0  0  0  0  0  0  0  0  0
  -18.2040  -27.4120   22.6710 C   0  0  0  0  0  0  0  0  0  0  0  0
  -20.4910  -28.3470   23.4220 C   0  0  0  0  0  3  0  0  0  0  0  0
  -21.0620  -26.9530   23.0750 C   0  0  0  0  0  2  0  0  0  0  0  0
  -20.3330  -26.2740   21.9120 C   0  0  0  0  0  2  0  0  0  0  0  0
  -18.8460  -26.1040   22.2370 C   0  0  0  0  0  2  0  0  0  0  0  0
  -18.9800  -28.4690   23.2140 C   0  0  0  0  0  0  0  0  0  0  0  0
  -18.3390  -29.6760   23.5690 C   0  0  0  0  0  3  0  0  0  0  0  0
  -16.9510  -29.8340   23.3930 C   0  0  0  0  0  3  0  0  0  0  0  0
  -16.1850  -28.7760   22.8730 C   0  0  0  0  0  3  0  0  0  0  0  0
  -16.8100  -27.5690   22.5180 C   0  0  0  0  0  3  0  0  0  0  0  0
  -26.2510  -32.1780   23.8840 C   0  0  0  0  0  3  0  0  0  0  0  0
  -26.8870  -31.1930   24.9400 C   0  0  1  0  0  0  0  0  0  0  0  0
  -25.9740  -30.9200   26.1580 C   0  0  0  0  0  1  0  0  0  0  0  0
  -27.2220  -29.8340   24.2840 C   0  0  0  0  0  1  0  0  0  0  0  0
  -28.2220  -31.7750   25.4640 C   0  0  0  0  0  1  0  0  0  0  0  0
  -26.2440  -33.5550   24.3920 N   0  0  0  0  0  0  0  0  0  0  0  0
  -26.7860  -34.6030   23.7550 C   0  0  0  0  0  0  0  0  0  0  0  0
  -27.4150  -34.4930   22.6980 O   0  0  0  0  0  0  0  0  0  0  0  0
  -25.7010  -33.7290   25.2240 H   0  0  0  0  0  0  0  0  0  0  0  0
  -25.5290  -36.7760   23.6210 C   0  0  0  0  0  1  0  0  0  0  0  0
  -26.6000  -35.9920   24.3930 C   0  0  0  0  0  3  0  0  0  0  0  0
  -28.8500  -36.2140   25.3530 C   0  0  0  0  0  1  0  0  0  0  0  0
  -27.8490  -36.7830   24.4540 N   0  0  0  0  0  0  0  0  0  0  0  0
  -27.6600  -37.7350   24.7550 H   0  0  0  0  0  0  0  0  0  0  0  0
  2  1  2  0
  2 11  1  0
  3  8  1  0
  3  5  1  0
  3  4  1  0
  4  1  1  0
  5  2  1  0
  6  5  1  0
  8  7  1  0
  9 10  1  0
 10  8  1  0
 12 13  1  0
 12 11  1  0
 14 12  1  0
 15 14  1  0
 16 15  1  0
 17 23  1  0
 17 24  2  0
 18 23  1  0
 19 18  1  0
 20 21  1  0
 20 19  1  0
 21 30  1  0
 21 22  1  0
 22 23  1  0
 25 17  1  0
 25 16  1  0
 26 25  1  0
 27 30  1  0
 28 27  2  0
 28 29  1  0
 29 32  1  0
 29 31  2  0
 30 31  1  0
 32 33  1  0
 33 34  2  0
 35 38  1  0
 35 34  1  0
 36 35  2  0
 37 36  1  0
 37 32  2  0
 38 39  1  0
 39 44  1  0
 40 39  2  0
 40 41  1  0
 41 42  2  0
 42 43  1  0
 42 46  1  0
 44 45  1  0
 44 43  2  0
 47 48  1  0
 47 28  1  0
 48 50  1  0
 49 47  2  0
 51 48  1  0
 52 54  1  0
 52 27  1  0
 53 52  1  0
 55  4  1  0
 56 55  1  0
 58 56  1  0
 58 57  1  0
 59 58  1  0
 60 62  1  0
 60 59  1  0
 61 72  2  0
 62 67  1  0
 63 71  1  0
 63 73  1  0
 64 66  1  0
 64 70  1  0
 65 71  1  0
 66 65  1  0
 67 66  2  0
 68 62  2  0
 68 69  1  0
 69 64  2  0
 70 63  1  0
 71 61  1  0
 73 75  2  0
 74 73  1  0
 76 74  1  0
 77 82  1  0
 78 74  1  0
 79 78  1  0
 80 81  1  0
 80 79  1  0
 81 77  1  0
 82 78  1  0
 82 83  2  0
 84 83  1  0
 85 84  2  0
 86 77  2  0
 86 85  1  0
 87 61  1  0
 87 92  1  0
 87 88  1  0
 88 91  1  1
 88 89  1  0
 90 88  1  0
 92 95  1  0
 93 92  1  0
 93 97  1  0
 94 93  2  0
 97 96  1  0
 97 99  1  0
 99100  1  0
 99 98  1  0
M  ISO  4  17 100  25 100  59 101  60 101
M  END
>  <TORSDO>  (63) 
F 27

>  <SCORE>  (63) 
-7.015

>  <name>  (63) 
63

>  <ligand_id>  (63) 
63

>  <original_smiles>  (63) 
[H]c1c([H])c([H])c2c(c1[H])C([H])([H])C([H])([H])C([H])([H])C2([H])N([H])C(=O)C1([H])N(C(=O)C([H])(N([H])C(=O)C([H])(N([H])C([H])([H])[H])C([H])([H])[H])C(C([H])([H])[H])(C([H])([H])[H])C([H])([H])[H])C([H])([H])c2c([H])c(OC([H])([H])C([H])(C([H])([H])[H])C([H])([H])C([H])([H])n3c([H])c(C([H])([H])N([H])C([H])([H])C([H])([H])C([H])([H])N([H])C(=O)N4C([H])([H])C([H])([H])C([H])([H])C([H])(n5nc(-c6c([H])c([H])c(Oc7c([H])c([H])c(F)c([H])c7F)c([H])c6[H])c(C(=O)N([H])[H])c5N([H])[H])C4([H])[H])[n+]([H])c3C([H])(C([H])([H])[H])C([H])([H])C([H])([H])[H])c([H])c([H])c2C1([H])[H]

>  <smiles>  (63) 
[H]c1c([H])c([H])c2c(c1[H])C([H])([H])C([H])([H])C([H])([H])C2([H])N([H])C(=O)C1([H])N(C(=O)C([H])(N([H])C(=O)C([H])(N([H])C([H])([H])[H])C([H])([H])[H])C(C([H])([H])[H])(C([H])([H])[H])C([H])([H])[H])C([H])([H])c2c([H])c(OC([H])([H])C([H])(C([H])([H])[H])C([H])([H])C([H])([H])n3c([H])c(C([H])([H])N([H])C([H])([H])C([H])([H])C([H])([H])N([H])C(=O)N4C([H])([H])C([H])([H])C([H])([H])C([H])(n5nc(-c6c([H])c([H])c(Oc7c([H])c([H])c(F)c([H])c7F)c([H])c6[H])c(C(=O)N([H])[H])c5N([H])[H])C4([H])[H])[n+]([H])c3C([H])(C([H])([H])[H])C([H])([H])C([H])([H])[H])c([H])c([H])c2C1([H])[H]

$$$$
64:0:0
     RDKit          3D

 97105  0  0  1  0  0  0  0  0999 V2000
  -29.5750  -23.0480   17.6290 C   0  0  0  0  0  3  0  0  0  0  0  0
  -29.3540  -22.6370   18.9630 C   0  0  0  0  0  0  0  0  0  0  0  0
  -30.3820  -20.9700   17.0530 C   0  0  0  0  0  0  0  0  0  0  0  0
  -30.1630  -20.4730   18.3780 C   0  0  0  0  0  0  0  0  0  0  0  0
  -30.0890  -22.2360   16.6930 N   0  0  0  0  0  0  0  0  0  0  0  0
  -29.6500  -21.3290   19.3410 N   0  0  0  0  0  0  0  0  0  0  0  0
  -29.6690  -19.4090   15.1690 C   0  0  0  0  0  1  0  0  0  0  0  0
  -30.8370  -20.1270   15.8630 C   0  0  0  0  0  2  0  0  0  0  0  0
  -28.7680  -23.6830   19.9700 C   0  0  0  0  0  3  0  0  0  0  0  0
  -28.5360  -25.1590   19.4160 C   0  0  0  0  0  3  0  0  0  0  0  0
  -28.2710  -26.2560   20.3480 O   0  0  0  0  0  0  0  0  0  0  0  0
  -24.6040  -31.6850   23.2630 C   0  0  0  0  0  0  0  0  0  0  0  0
  -27.1260  -27.0530   20.2740 C   0  0  0  0  0  0  0  0  0  0  0  0
  -23.3750  -30.3020   21.6260 C   0  0  0  0  0  3  0  0  0  0  0  0
  -24.7900  -28.6930   20.2380 C   0  0  0  0  0  0  0  0  0  0  0  0
  -25.9180  -30.5560   21.4560 C   0  0  0  0  0  2  0  0  0  0  0  0
  -25.9630  -29.1690   20.8340 C   0  0  0  0  0  0  0  0  0  0  0  0
  -27.1290  -28.3560   20.8480 C   0  0  0  0  0  3  0  0  0  0  0  0
  -25.9180  -26.6010   19.6910 C   0  0  0  0  0  3  0  0  0  0  0  0
  -24.7650  -27.4080   19.6700 C   0  0  0  0  0  3  0  0  0  0  0  0
  -23.5810  -29.6030   20.2560 C   0  0  0  0  0  2  0  0  0  0  0  0
  -24.6500  -30.8630   22.1740 N   0  0  0  0  0  0  0  0  0  0  0  0
  -23.5240  -31.9980   23.7850 O   0  0  0  0  0  0  0  0  0  0  0  0
  -22.6750  -29.3150   22.5900 C   0  0  0  0  0  0  0  0  0  0  0  0
  -21.3450  -29.1820   22.4550 N   0  0  0  0  0  0  0  0  0  0  0  0
  -23.3280  -28.6720   23.4160 O   0  0  0  0  0  0  0  0  0  0  0  0
  -20.8800  -29.7510   21.7600 H   0  0  0  0  0  0  0  0  0  0  0  0
  -17.9270  -28.1090   22.9410 C   0  0  0  0  0  0  0  0  0  0  0  0
  -20.4900  -28.2810   23.2270 C   0  0  0  0  0  3  0  0  0  0  0  0
  -20.5480  -26.8420   22.6650 C   0  0  0  0  0  2  0  0  0  0  0  0
  -19.4440  -26.5470   21.6460 C   0  0  0  0  0  2  0  0  0  0  0  0
  -18.0620  -26.7480   22.2770 C   0  0  0  0  0  2  0  0  0  0  0  0
  -19.0680  -28.8350   23.3730 C   0  0  0  0  0  0  0  0  0  0  0  0
  -18.8910  -30.1090   23.9530 C   0  0  0  0  0  3  0  0  0  0  0  0
  -17.6040  -30.6600   24.1040 C   0  0  0  0  0  3  0  0  0  0  0  0
  -16.4760  -29.9310   23.6890 C   0  0  0  0  0  3  0  0  0  0  0  0
  -16.6380  -28.6560   23.1160 C   0  0  0  0  0  3  0  0  0  0  0  0
  -25.8990  -32.2860   23.8920 C   0  0  0  0  0  3  0  0  0  0  0  0
  -26.4040  -31.4910   25.1580 C   0  0  1  0  0  0  0  0  0  0  0  0
  -25.3060  -31.2510   26.2210 C   0  0  0  0  0  1  0  0  0  0  0  0
  -26.9650  -30.1130   24.7410 C   0  0  0  0  0  1  0  0  0  0  0  0
  -27.5710  -32.2540   25.8300 C   0  0  0  0  0  1  0  0  0  0  0  0
  -25.6180  -33.6860   24.2400 N   0  0  0  0  0  0  0  0  0  0  0  0
  -25.9500  -34.7390   23.4820 C   0  0  0  0  0  0  0  0  0  0  0  0
  -26.6000  -34.6330   22.4370 O   0  0  0  0  0  0  0  0  0  0  0  0
  -25.0510  -33.8450   25.0610 H   0  0  0  0  0  0  0  0  0  0  0  0
  -24.2380  -36.5540   23.1740 C   0  0  0  0  0  1  0  0  0  0  0  0
  -25.4910  -36.1310   23.9570 C   0  0  0  0  0  3  0  0  0  0  0  0
  -27.6540  -36.9830   24.7480 C   0  0  0  0  0  1  0  0  0  0  0  0
  -26.5360  -37.1710   23.8280 N   0  0  0  0  0  0  0  0  0  0  0  0
  -26.1450  -38.0950   23.9920 H   0  0  0  0  0  0  0  0  0  0  0  0
  -30.2980  -18.9200   18.5960 C   0  0  0  0  0  2  0  0  0  0  0  0
  -30.4850  -18.2570   19.9300 N   0  0  0  0  0  4  0  0  0  0  0  0
  -29.9960  -18.8160   20.6110 H   0  0  0  0  0  0  0  0  0  0  0  0
  -31.4640  -18.2930   20.1600 H   0  0  0  0  0  0  0  0  0  0  0  0
  -29.9520  -16.8290   19.9960 C   0  0  0  0  0  3  0  0  0  0  0  0
  -30.6740  -15.7980   20.9950 C   0  0  0  0  0  2  0  0  0  0  0  0
  -31.2250  -14.4030   20.4970 C   0  0  0  0  0  0  0  0  0  0  0  0
  -30.9910  -11.9950   19.8930 C   0  0  0  0  0  2  0  0  0  0  0  0
  -30.1650  -11.8700   18.5940 C   0  0  0  0  0  2  0  0  0  0  0  0
  -28.6610  -11.8230   18.9090 C   0  0  0  0  0  2  0  0  0  0  0  0
  -28.2250  -12.9300   19.9060 C   0  0  0  0  0  3  0  0  0  0  0  0
  -29.1820  -13.0240   21.1170 C   0  0  0  0  0  2  0  0  0  0  0  0
  -30.5460  -13.2140   20.6020 N   0  0  0  0  0  0  0  0  0  0  0  0
  -32.3550  -14.4180   20.0020 O   0  0  0  0  0  0  0  0  0  0  0  0
  -25.8510  -13.7220   20.4890 C   0  0  0  0  0  0  0  0  0  0  0  0
  -24.7110  -13.0500   20.8200 C   0  0  0  0  0  0  0  0  0  0  0  0
  -25.0630  -11.6660   20.8280 C   0  0  0  0  0  0  0  0  0  0  0  0
  -26.8350  -12.7620   20.3210 N   0  0  0  0  0  0  0  0  0  0  0  0
  -26.3600  -11.5170   20.5820 N   0  0  0  0  0  0  0  0  0  0  0  0
  -24.2250  -10.4750   20.9980 C   0  0  0  0  0  0  0  0  0  0  0  0
  -24.5530   -9.4690   21.9340 C   0  0  0  0  0  3  0  0  0  0  0  0
  -23.7200   -8.3420   22.0920 C   0  0  0  0  0  3  0  0  0  0  0  0
  -22.5460   -8.2130   21.3130 C   0  0  0  0  0  0  0  0  0  0  0  0
  -22.2370   -9.2060   20.3660 C   0  0  0  0  0  3  0  0  0  0  0  0
  -23.0700  -10.3250   20.2080 C   0  0  0  0  0  3  0  0  0  0  0  0
  -21.6900   -7.1400   21.3810 O   0  0  0  0  0  0  0  0  0  0  0  0
  -21.5710   -6.3840   22.5180 C   0  0  0  0  0  0  0  0  0  0  0  0
  -21.1850   -6.9520   23.7520 C   0  0  0  0  0  3  0  0  0  0  0  0
  -21.0080   -6.1290   24.8820 C   0  0  0  0  0  3  0  0  0  0  0  0
  -21.2080   -4.7390   24.7790 C   0  0  0  0  0  0  0  0  0  0  0  0
  -21.5880   -4.1700   23.5500 C   0  0  0  0  0  3  0  0  0  0  0  0
  -21.7660   -4.9920   22.4230 C   0  0  0  0  0  0  0  0  0  0  0  0
  -22.1130   -4.4360   21.2380 F   0  0  0  0  0  0  0  0  0  0  0  0
  -21.0310   -3.9480   25.8620 F   0  0  0  0  0  0  0  0  0  0  0  0
  -23.3500  -13.6500   21.0200 C   0  0  0  0  0  0  0  0  0  0  0  0
  -22.5350  -13.0420   21.8730 N   0  0  0  0  0  0  0  0  0  0  0  0
  -23.0190  -14.6950   20.4600 O   0  0  0  0  0  0  0  0  0  0  0  0
  -22.8170  -12.1960   22.3450 H   0  0  0  0  0  0  0  0  0  0  0  0
  -21.6160  -13.4240   22.0520 H   0  0  0  0  0  0  0  0  0  0  0  0
  -26.1240  -15.0670   20.2930 N   0  0  0  0  0  0  0  0  0  0  0  0
  -25.4020  -15.7710   20.3790 H   0  0  0  0  0  0  0  0  0  0  0  0
  -27.0030  -15.4410   19.9710 H   0  0  0  0  0  0  0  0  0  0  0  0
  -28.4360  -16.8960   20.3670 C   0  0  0  0  0  2  0  0  0  0  0  0
  -27.4730  -17.7210   18.0790 C   0  0  0  0  0  1  0  0  0  0  0  0
  -26.0920  -17.8870   20.1770 C   0  0  0  0  0  1  0  0  0  0  0  0
  -27.5220  -17.9060   19.6090 C   0  0  0  0  0  3  0  0  0  0  0  0
  1  2  1  0
  2  6  2  0
  2  9  1  0
  3  4  2  0
  4 52  1  0
  4  6  1  0
  5  3  1  0
  5  1  2  0
  7  8  1  0
  8  3  1  0
 10  9  2  0
 10 11  1  0
 12 23  2  0
 13 11  1  0
 13 18  1  0
 14 22  1  0
 14 24  1  0
 15 21  1  0
 15 17  1  0
 16 22  1  0
 17 18  2  0
 17 16  1  0
 19 13  2  0
 20 19  1  0
 20 15  2  0
 21 14  1  0
 22 12  1  0
 24 26  2  0
 25 24  1  0
 27 25  1  0
 28 37  2  0
 28 33  1  0
 29 25  1  0
 29 33  1  0
 30 29  1  0
 31 32  1  0
 31 30  1  0
 32 28  1  0
 33 34  2  0
 34 35  1  0
 36 35  2  0
 37 36  1  0
 38 12  1  0
 38 43  1  0
 38 39  1  0
 39 42  1  1
 39 40  1  0
 41 39  1  0
 43 46  1  0
 44 48  1  0
 44 43  1  0
 45 44  2  0
 48 47  1  0
 50 48  1  0
 50 51  1  0
 50 49  1  0
 52 53  1  0
 53 56  1  0
 53 55  1  0
 53 54  1  0
 56 94  1  0
 56 57  1  0
 58 64  1  0
 58 57  1  0
 59 64  1  0
 60 61  1  0
 60 59  1  0
 62 61  1  0
 62 69  1  0
 62 63  1  0
 64 63  1  0
 65 58  2  0
 66 67  2  0
 67 68  1  0
 67 86  1  0
 68 71  1  0
 69 66  1  0
 69 70  1  0
 70 68  2  0
 71 72  1  0
 72 73  2  0
 74 77  1  0
 74 73  1  0
 75 74  2  0
 76 75  1  0
 76 71  2  0
 77 78  1  0
 78 79  1  0
 79 80  2  0
 81 80  1  0
 81 85  1  0
 82 81  2  0
 83 78  2  0
 83 82  1  0
 84 83  1  0
 86 87  1  0
 87 90  1  0
 87 89  1  0
 88 86  2  0
 91 92  1  0
 91 66  1  0
 93 91  1  0
 95 97  1  0
 97 96  1  0
 97 94  1  0
M  ISO  4  10 101  11 101  57 100  58 100
M  END
>  <TORSDO>  (64) 
F 25

>  <SCORE>  (64) 
-11.530

>  <name>  (64) 
64

>  <ligand_id>  (64) 
64

>  <original_smiles>  (64) 
[H]c1nc(C([H])([H])C([H])([H])[H])c(C([H])([H])[N+]([H])([H])C([H])(C([H])([H])C(=O)N2C([H])([H])C([H])([H])C([H])([H])C([H])(n3nc(-c4c([H])c([H])c(Oc5c([H])c([H])c(F)c([H])c5F)c([H])c4[H])c(C(=O)N([H])[H])c3N([H])[H])C2([H])[H])C([H])([H])C([H])(C([H])([H])[H])C([H])([H])[H])nc1C([H])([H])C([H])([H])Oc1c([H])c([H])c2c(c1[H])C([H])([H])N(C(=O)C([H])(N([H])C(=O)C([H])(N([H])C([H])([H])[H])C([H])([H])[H])C(C([H])([H])[H])(C([H])([H])[H])C([H])([H])[H])C([H])(C(=O)N([H])C1([H])c3c([H])c([H])c([H])c([H])c3C([H])([H])C([H])([H])C1([H])[H])C2([H])[H]

>  <smiles>  (64) 
[H]c1nc(C([H])([H])C([H])([H])[H])c(C([H])([H])[N+]([H])([H])C([H])(C([H])([H])C(=O)N2C([H])([H])C([H])([H])C([H])([H])C([H])(n3nc(-c4c([H])c([H])c(Oc5c([H])c([H])c(F)c([H])c5F)c([H])c4[H])c(C(=O)N([H])[H])c3N([H])[H])C2([H])[H])C([H])([H])C([H])(C([H])([H])[H])C([H])([H])[H])nc1C([H])([H])C([H])([H])Oc1c([H])c([H])c2c(c1[H])C([H])([H])N(C(=O)C([H])(N([H])C(=O)C([H])(N([H])C([H])([H])[H])C([H])([H])[H])C(C([H])([H])[H])(C([H])([H])[H])C([H])([H])[H])C([H])(C(=O)N([H])C1([H])c3c([H])c([H])c([H])c([H])c3C([H])([H])C([H])([H])C1([H])[H])C2([H])[H]

$$$$
65:0:0
     RDKit          3D

 91 99  0  0  1  0  0  0  0  0999 V2000
  -30.3970  -24.3950   19.1680 C   0  0  0  0  0  1  0  0  0  0  0  0
  -29.4280  -23.7940   20.2060 C   0  0  0  0  0  3  0  0  0  0  0  0
  -28.4650  -21.7390   18.7370 C   0  0  0  0  0  3  0  0  0  0  0  0
  -29.6750  -21.0150   20.3800 C   0  0  0  0  0  3  0  0  0  0  0  0
  -29.1980  -22.2350   19.8560 C   0  0  0  0  0  0  0  0  0  0  0  0
  -28.5120  -20.4160   18.5900 N   0  0  0  0  0  0  0  0  0  0  0  0
  -29.2660  -19.8960   19.5930 N   0  0  0  0  0  0  0  0  0  0  0  0
  -29.3960  -18.3590   19.5660 C   0  0  0  0  0  3  0  0  0  0  0  0
  -30.2950  -17.4010   20.5080 C   0  0  0  0  0  3  0  0  0  0  0  0
  -30.6630  -14.7510   20.2830 C   0  0  0  0  0  0  0  0  0  0  0  0
  -30.4070  -12.4610   19.3210 C   0  0  0  0  0  2  0  0  0  0  0  0
  -29.4830  -12.5010   18.0900 C   0  0  0  0  0  2  0  0  0  0  0  0
  -28.0150  -12.3320   18.5300 C   0  0  0  0  0  2  0  0  0  0  0  0
  -27.6230  -13.2730   19.6980 C   0  0  0  0  0  3  0  0  0  0  0  0
  -28.6810  -13.2460   20.8240 C   0  0  0  0  0  2  0  0  0  0  0  0
  -29.9870  -13.5530   20.2260 N   0  0  0  0  0  0  0  0  0  0  0  0
  -31.8470  -14.8120   19.9470 O   0  0  0  0  0  0  0  0  0  0  0  0
  -29.9320  -15.9040   20.5090 N   0  0  0  0  0  0  0  0  0  0  0  0
  -28.9630  -15.7090   20.7000 H   0  0  0  0  0  0  0  0  0  0  0  0
  -25.2370  -13.8910   20.4110 C   0  0  0  0  0  0  0  0  0  0  0  0
  -24.1590  -13.1320   20.7790 C   0  0  0  0  0  0  0  0  0  0  0  0
  -24.6130  -11.7740   20.7830 C   0  0  0  0  0  0  0  0  0  0  0  0
  -26.2750  -12.9980   20.1950 N   0  0  0  0  0  0  0  0  0  0  0  0
  -25.9050  -11.7210   20.4850 N   0  0  0  0  0  0  0  0  0  0  0  0
  -23.8750  -10.5210   20.9840 C   0  0  0  0  0  0  0  0  0  0  0  0
  -24.2920   -9.5590   21.9330 C   0  0  0  0  0  3  0  0  0  0  0  0
  -23.5480   -8.3760   22.1240 C   0  0  0  0  0  3  0  0  0  0  0  0
  -22.3780   -8.1400   21.3620 C   0  0  0  0  0  0  0  0  0  0  0  0
  -21.9780   -9.0910   20.4050 C   0  0  0  0  0  3  0  0  0  0  0  0
  -22.7210  -10.2650   20.2130 C   0  0  0  0  0  3  0  0  0  0  0  0
  -21.6150   -7.0020   21.4560 O   0  0  0  0  0  0  0  0  0  0  0  0
  -21.5560   -6.2650   22.6140 C   0  0  0  0  0  0  0  0  0  0  0  0
  -21.1170   -6.8300   23.8300 C   0  0  0  0  0  3  0  0  0  0  0  0
  -21.0100   -6.0240   24.9840 C   0  0  0  0  0  3  0  0  0  0  0  0
  -21.3230   -4.6540   24.9160 C   0  0  0  0  0  0  0  0  0  0  0  0
  -21.7510   -4.0860   23.7040 C   0  0  0  0  0  3  0  0  0  0  0  0
  -21.8620   -4.8900   22.5530 C   0  0  0  0  0  0  0  0  0  0  0  0
  -22.2540   -4.3330   21.3840 F   0  0  0  0  0  0  0  0  0  0  0  0
  -21.2140   -3.8770   26.0220 F   0  0  0  0  0  0  0  0  0  0  0  0
  -22.7630  -13.6240   21.0360 C   0  0  0  0  0  0  0  0  0  0  0  0
  -22.0150  -12.9500   21.8990 N   0  0  0  0  0  0  0  0  0  0  0  0
  -22.3440  -14.6530   20.5070 O   0  0  0  0  0  0  0  0  0  0  0  0
  -22.3590  -12.1220   22.3610 H   0  0  0  0  0  0  0  0  0  0  0  0
  -21.0850  -13.2820   22.1180 H   0  0  0  0  0  0  0  0  0  0  0  0
  -25.4180  -15.2600   20.2140 N   0  0  0  0  0  0  0  0  0  0  0  0
  -24.6740  -15.9430   20.3190 H   0  0  0  0  0  0  0  0  0  0  0  0
  -26.2920  -15.6660   19.9020 H   0  0  0  0  0  0  0  0  0  0  0  0
  -28.2100  -24.8490   20.5550 C   0  0  0  0  0  3  0  0  0  0  0  0
  -26.7600  -23.3580   22.0730 C   0  0  0  0  0  1  0  0  0  0  0  0
  -26.8610  -24.0870   20.7130 C   0  0  0  0  0  2  0  0  0  0  0  0
  -28.2360  -26.3000   20.0570 O   0  0  0  0  0  0  0  0  0  0  0  0
  -24.5440  -31.8070   23.1850 C   0  0  0  0  0  0  0  0  0  0  0  0
  -27.1320  -27.2030   20.0800 C   0  0  0  0  0  0  0  0  0  0  0  0
  -23.3400  -30.4470   21.5140 C   0  0  0  0  0  3  0  0  0  0  0  0
  -24.7930  -28.8980   20.0680 C   0  0  0  0  0  0  0  0  0  0  0  0
  -25.8950  -30.7220   21.3630 C   0  0  0  0  0  2  0  0  0  0  0  0
  -25.9640  -29.3490   20.6890 C   0  0  0  0  0  0  0  0  0  0  0  0
  -27.1370  -28.5160   20.6800 C   0  0  0  0  0  3  0  0  0  0  0  0
  -25.9440  -26.8470   19.4050 C   0  0  0  0  0  3  0  0  0  0  0  0
  -24.7910  -27.6570   19.4140 C   0  0  0  0  0  3  0  0  0  0  0  0
  -23.5620  -29.7860   20.1250 C   0  0  0  0  0  2  0  0  0  0  0  0
  -24.6130  -31.0120   22.0750 N   0  0  0  0  0  0  0  0  0  0  0  0
  -23.4590  -32.0860   23.7140 O   0  0  0  0  0  0  0  0  0  0  0  0
  -22.6610  -29.4220   22.4500 C   0  0  0  0  0  0  0  0  0  0  0  0
  -21.3320  -29.2630   22.3190 N   0  0  0  0  0  0  0  0  0  0  0  0
  -23.3300  -28.7680   23.2540 O   0  0  0  0  0  0  0  0  0  0  0  0
  -20.8540  -29.8400   21.6420 H   0  0  0  0  0  0  0  0  0  0  0  0
  -17.9340  -28.1140   22.8050 C   0  0  0  0  0  0  0  0  0  0  0  0
  -20.4980  -28.3190   23.0660 C   0  0  0  0  0  3  0  0  0  0  0  0
  -20.5670  -26.9020   22.4490 C   0  0  0  0  0  2  0  0  0  0  0  0
  -19.4540  -26.6290   21.4330 C   0  0  0  0  0  2  0  0  0  0  0  0
  -18.0790  -26.7830   22.0900 C   0  0  0  0  0  2  0  0  0  0  0  0
  -19.0680  -28.8440   23.2490 C   0  0  0  0  0  0  0  0  0  0  0  0
  -18.8750  -30.0920   23.8800 C   0  0  0  0  0  3  0  0  0  0  0  0
  -17.5800  -30.6110   24.0640 C   0  0  0  0  0  3  0  0  0  0  0  0
  -16.4590  -29.8780   23.6370 C   0  0  0  0  0  3  0  0  0  0  0  0
  -16.6380  -28.6300   23.0160 C   0  0  0  0  0  3  0  0  0  0  0  0
  -25.8240  -32.4190   23.8310 C   0  0  0  0  0  3  0  0  0  0  0  0
  -25.5280  -33.8190   24.1690 N   0  0  0  0  0  0  0  0  0  0  0  0
  -25.8760  -34.8720   23.4200 C   0  0  0  0  0  0  0  0  0  0  0  0
  -26.5460  -34.7690   22.3900 O   0  0  0  0  0  0  0  0  0  0  0  0
  -24.9370  -33.9760   24.9730 H   0  0  0  0  0  0  0  0  0  0  0  0
  -24.1680  -36.6850   23.0730 C   0  0  0  0  0  1  0  0  0  0  0  0
  -25.4050  -36.2660   23.8850 C   0  0  0  0  0  3  0  0  0  0  0  0
  -27.5490  -37.1220   24.7210 C   0  0  0  0  0  1  0  0  0  0  0  0
  -26.4510  -37.3080   23.7740 N   0  0  0  0  0  0  0  0  0  0  0  0
  -26.0560  -38.2330   23.9220 H   0  0  0  0  0  0  0  0  0  0  0  0
  -26.3140  -31.6310   25.1060 C   0  0  1  0  0  0  0  0  0  0  0  0
  -25.2050  -31.4020   26.1600 C   0  0  0  0  0  1  0  0  0  0  0  0
  -26.8810  -30.2480   24.7150 C   0  0  0  0  0  1  0  0  0  0  0  0
  -27.4770  -32.4000   25.7750 C   0  0  0  0  0  1  0  0  0  0  0  0
  2  1  1  0
  2 48  1  0
  3  5  1  0
  5  2  1  0
  5  4  2  0
  6  3  2  0
  6  7  1  0
  7  4  1  0
  8  7  1  0
  8  9  2  0
  9 18  1  0
 10 18  1  0
 11 16  1  0
 12 13  1  0
 12 11  1  0
 14 13  1  0
 14 23  1  0
 14 15  1  0
 16 10  1  0
 16 15  1  0
 17 10  2  0
 18 19  1  0
 20 21  2  0
 21 22  1  0
 21 40  1  0
 22 25  1  0
 23 20  1  0
 23 24  1  0
 24 22  2  0
 25 26  1  0
 26 27  2  0
 28 31  1  0
 28 27  1  0
 29 28  2  0
 30 29  1  0
 30 25  2  0
 31 32  1  0
 32 33  1  0
 33 34  2  0
 35 34  1  0
 35 39  1  0
 36 35  2  0
 37 32  2  0
 37 36  1  0
 38 37  1  0
 40 41  1  0
 41 44  1  0
 41 43  1  0
 42 40  2  0
 45 46  1  0
 45 20  1  0
 47 45  1  0
 48 50  1  0
 50 49  1  0
 51 53  1  0
 51 48  1  0
 52 63  2  0
 53 58  1  0
 54 62  1  0
 54 64  1  0
 55 61  1  0
 55 57  1  0
 56 62  1  0
 57 56  1  0
 58 57  2  0
 59 60  1  0
 59 53  2  0
 60 55  2  0
 61 54  1  0
 62 52  1  0
 64 66  2  0
 65 64  1  0
 67 65  1  0
 68 77  2  0
 68 73  1  0
 69 65  1  0
 69 73  1  0
 70 69  1  0
 71 72  1  0
 71 70  1  0
 72 68  1  0
 73 74  2  0
 74 75  1  0
 76 75  2  0
 77 76  1  0
 78 52  1  0
 78 79  1  0
 78 88  1  0
 79 82  1  0
 80 84  1  0
 80 79  1  0
 81 80  2  0
 84 83  1  0
 86 84  1  0
 86 87  1  0
 86 85  1  0
 88 91  1  1
 88 89  1  0
 90 88  1  0
M  ISO  4  10 100  18 100  48 101  51 101
M  END
>  <TORSDO>  (65) 
F 21

>  <SCORE>  (65) 
-13.178

>  <name>  (65) 
65

>  <ligand_id>  (65) 
65

>  <original_smiles>  (65) 
[H]c1nn(C([H])([H])C([H])([H])N([H])C(=O)N2C([H])([H])C([H])([H])C([H])([H])C([H])(n3nc(-c4c([H])c([H])c(Oc5c([H])c([H])c(F)c([H])c5F)c([H])c4[H])c(C(=O)N([H])[H])c3N([H])[H])C2([H])[H])c([H])c1C([H])(C([H])([H])[H])C([H])(Oc1c([H])c([H])c2c(c1[H])C([H])([H])N(C(=O)C([H])(N([H])C(=O)C([H])(N([H])C([H])([H])[H])C([H])([H])[H])C(C([H])([H])[H])(C([H])([H])[H])C([H])([H])[H])C([H])(C(=O)N([H])C1([H])c3c([H])c([H])c([H])c([H])c3C([H])([H])C([H])([H])C1([H])[H])C2([H])[H])C([H])([H])C([H])([H])[H]

>  <smiles>  (65) 
[H]c1nn(C([H])([H])C([H])([H])N([H])C(=O)N2C([H])([H])C([H])([H])C([H])([H])C([H])(n3nc(-c4c([H])c([H])c(Oc5c([H])c([H])c(F)c([H])c5F)c([H])c4[H])c(C(=O)N([H])[H])c3N([H])[H])C2([H])[H])c([H])c1C([H])(C([H])([H])[H])C([H])(Oc1c([H])c([H])c2c(c1[H])C([H])([H])N(C(=O)C([H])(N([H])C(=O)C([H])(N([H])C([H])([H])[H])C([H])([H])[H])C(C([H])([H])[H])(C([H])([H])[H])C([H])([H])[H])C([H])(C(=O)N([H])C1([H])c3c([H])c([H])c([H])c([H])c3C([H])([H])C([H])([H])C1([H])[H])C2([H])[H])C([H])([H])C([H])([H])[H]

$$$$
66:0:0
     RDKit          3D

 95103  0  0  1  0  0  0  0  0999 V2000
  -29.3480  -19.8390   19.5120 C   0  0  0  0  0  3  0  0  0  0  0  0
  -29.4000  -21.1200   20.2060 C   0  0  0  0  0  0  0  0  0  0  0  0
  -30.1860  -18.8650   20.0570 C   0  0  0  0  0  0  0  0  0  0  0  0
  -30.3120  -20.8670   21.2030 C   0  0  0  0  0  0  0  0  0  0  0  0
  -30.7540  -21.8170   22.2770 C   0  0  0  0  0  1  0  0  0  0  0  0
  -30.8120  -19.5430   21.1170 N   0  0  0  0  0  0  0  0  0  0  0  0
  -27.6590  -22.2830   18.7270 C   0  0  0  0  0  1  0  0  0  0  0  0
  -28.5080  -22.4420   20.0010 C   0  0  0  0  0  3  0  0  0  0  0  0
  -29.0810  -23.9680   20.0350 C   0  0  0  0  0  2  0  0  0  0  0  0
  -27.9890  -25.0090   20.1490 N   0  0  0  0  0  0  0  0  0  0  0  0
  -27.5440  -24.9440   21.0600 H   0  0  0  0  0  0  0  0  0  0  0  0
  -28.4150  -26.4730   20.0000 O   0  0  0  0  0  0  0  0  0  0  0  0
  -24.6310  -31.8240   23.1840 C   0  0  0  0  0  0  0  0  0  0  0  0
  -27.3040  -27.3530   20.0010 C   0  0  0  0  0  0  0  0  0  0  0  0
  -23.4370  -30.4220   21.5420 C   0  0  0  0  0  3  0  0  0  0  0  0
  -24.9040  -28.9350   20.0630 C   0  0  0  0  0  0  0  0  0  0  0  0
  -25.9690  -30.7970   21.3280 C   0  0  0  0  0  2  0  0  0  0  0  0
  -26.0720  -29.4280   20.6590 C   0  0  0  0  0  0  0  0  0  0  0  0
  -27.2730  -28.6440   20.6300 C   0  0  0  0  0  3  0  0  0  0  0  0
  -26.1140  -26.9410   19.3590 C   0  0  0  0  0  3  0  0  0  0  0  0
  -24.9280  -27.6960   19.4080 C   0  0  0  0  0  3  0  0  0  0  0  0
  -23.6450  -29.7750   20.1480 C   0  0  0  0  0  2  0  0  0  0  0  0
  -24.6980  -31.0330   22.0720 N   0  0  0  0  0  0  0  0  0  0  0  0
  -23.5500  -32.0640   23.7410 O   0  0  0  0  0  0  0  0  0  0  0  0
  -22.8200  -29.3700   22.4970 C   0  0  0  0  0  0  0  0  0  0  0  0
  -21.5070  -29.1190   22.3590 N   0  0  0  0  0  0  0  0  0  0  0  0
  -23.5220  -28.7830   23.3260 O   0  0  0  0  0  0  0  0  0  0  0  0
  -20.9940  -29.6500   21.6690 H   0  0  0  0  0  0  0  0  0  0  0  0
  -18.2110  -27.6850   22.7780 C   0  0  0  0  0  0  0  0  0  0  0  0
  -20.7320  -28.1390   23.1240 C   0  0  0  0  0  3  0  0  0  0  0  0
  -20.9570  -26.7060   22.5860 C   0  0  0  0  0  2  0  0  0  0  0  0
  -19.9170  -26.2820   21.5450 C   0  0  0  0  0  2  0  0  0  0  0  0
  -18.5070  -26.3380   22.1390 C   0  0  0  0  0  2  0  0  0  0  0  0
  -19.2560  -28.5380   23.2250 C   0  0  0  0  0  0  0  0  0  0  0  0
  -18.9240  -29.7920   23.7810 C   0  0  0  0  0  3  0  0  0  0  0  0
  -17.5800  -30.1970   23.8940 C   0  0  0  0  0  3  0  0  0  0  0  0
  -16.5500  -29.3440   23.4620 C   0  0  0  0  0  3  0  0  0  0  0  0
  -16.8660  -28.0910   22.9100 C   0  0  0  0  0  3  0  0  0  0  0  0
  -25.9060  -32.4860   23.7930 C   0  0  0  0  0  3  0  0  0  0  0  0
  -25.5590  -33.8680   24.1530 N   0  0  0  0  0  0  0  0  0  0  0  0
  -25.8590  -34.9460   23.4160 C   0  0  0  0  0  0  0  0  0  0  0  0
  -26.5210  -34.8810   22.3770 O   0  0  0  0  0  0  0  0  0  0  0  0
  -24.9670  -33.9890   24.9610 H   0  0  0  0  0  0  0  0  0  0  0  0
  -24.0800  -36.7020   23.1170 C   0  0  0  0  0  1  0  0  0  0  0  0
  -25.3380  -36.3110   23.9070 C   0  0  0  0  0  3  0  0  0  0  0  0
  -27.4580  -37.2330   24.7340 C   0  0  0  0  0  1  0  0  0  0  0  0
  -26.3400  -37.3940   23.8070 N   0  0  0  0  0  0  0  0  0  0  0  0
  -25.9110  -38.2980   23.9810 H   0  0  0  0  0  0  0  0  0  0  0  0
  -26.4690  -31.7100   25.0470 C   0  0  1  0  0  0  0  0  0  0  0  0
  -25.4020  -31.4230   26.1310 C   0  0  0  0  0  1  0  0  0  0  0  0
  -27.0860  -30.3560   24.6240 C   0  0  0  0  0  1  0  0  0  0  0  0
  -27.6100  -32.5270   25.6970 C   0  0  0  0  0  1  0  0  0  0  0  0
  -31.2220  -17.8870   22.9260 C   0  0  0  0  0  1  0  0  0  0  0  0
  -31.8200  -18.9880   22.0390 C   0  0  0  0  0  3  0  0  0  0  0  0
  -33.7210  -19.6100   20.3800 C   0  0  0  0  0  1  0  0  0  0  0  0
  -33.1600  -18.5850   21.3830 C   0  0  0  0  0  2  0  0  0  0  0  0
  -30.5770  -17.4280   19.5010 C   0  0  0  0  0  2  0  0  0  0  0  0
  -30.8790  -14.9000   19.9300 C   0  0  0  0  0  0  0  0  0  0  0  0
  -30.6140  -12.5930   19.0200 C   0  0  0  0  0  2  0  0  0  0  0  0
  -29.6490  -12.6340   17.8150 C   0  0  0  0  0  2  0  0  0  0  0  0
  -28.1930  -12.4830   18.2920 C   0  0  0  0  0  2  0  0  0  0  0  0
  -27.8530  -13.4190   19.4820 C   0  0  0  0  0  3  0  0  0  0  0  0
  -28.9410  -13.3780   20.5800 C   0  0  0  0  0  2  0  0  0  0  0  0
  -30.2230  -13.6890   19.9380 N   0  0  0  0  0  0  0  0  0  0  0  0
  -32.0560  -14.9460   19.5640 O   0  0  0  0  0  0  0  0  0  0  0  0
  -30.1570  -16.0760   20.0730 N   0  0  0  0  0  0  0  0  0  0  0  0
  -29.1890  -15.9820   20.3390 H   0  0  0  0  0  0  0  0  0  0  0  0
  -25.4960  -14.0430   20.2760 C   0  0  0  0  0  0  0  0  0  0  0  0
  -24.4320  -13.2830   20.6810 C   0  0  0  0  0  0  0  0  0  0  0  0
  -24.8780  -11.9270   20.6460 C   0  0  0  0  0  0  0  0  0  0  0  0
  -26.5220  -13.1490   20.0150 N   0  0  0  0  0  0  0  0  0  0  0  0
  -26.1590  -11.8720   20.3020 N   0  0  0  0  0  0  0  0  0  0  0  0
  -24.1430  -10.6740   20.8610 C   0  0  0  0  0  0  0  0  0  0  0  0
  -24.5730   -9.7170   21.8080 C   0  0  0  0  0  3  0  0  0  0  0  0
  -23.8360   -8.5310   22.0120 C   0  0  0  0  0  3  0  0  0  0  0  0
  -22.6560   -8.2910   21.2690 C   0  0  0  0  0  0  0  0  0  0  0  0
  -22.2450   -9.2350   20.3120 C   0  0  0  0  0  3  0  0  0  0  0  0
  -22.9820  -10.4140   20.1070 C   0  0  0  0  0  3  0  0  0  0  0  0
  -21.8920   -7.1540   21.3820 O   0  0  0  0  0  0  0  0  0  0  0  0
  -21.8130   -6.4530   22.5580 C   0  0  0  0  0  0  0  0  0  0  0  0
  -21.3770   -7.0550   23.7580 C   0  0  0  0  0  3  0  0  0  0  0  0
  -21.2460   -6.2810   24.9280 C   0  0  0  0  0  3  0  0  0  0  0  0
  -21.5400   -4.9050   24.8990 C   0  0  0  0  0  0  0  0  0  0  0  0
  -21.9700   -4.3010   23.7020 C   0  0  0  0  0  3  0  0  0  0  0  0
  -22.1020   -5.0730   22.5360 C   0  0  0  0  0  0  0  0  0  0  0  0
  -22.4960   -4.4830   21.3810 F   0  0  0  0  0  0  0  0  0  0  0  0
  -21.4080   -4.1580   26.0200 F   0  0  0  0  0  0  0  0  0  0  0  0
  -23.0490  -13.7800   20.9870 C   0  0  0  0  0  0  0  0  0  0  0  0
  -22.3380  -13.1000   21.8820 N   0  0  0  0  0  0  0  0  0  0  0  0
  -22.6070  -14.8050   20.4700 O   0  0  0  0  0  0  0  0  0  0  0  0
  -22.7060  -12.2680   22.3200 H   0  0  0  0  0  0  0  0  0  0  0  0
  -21.4130  -13.4190   22.1340 H   0  0  0  0  0  0  0  0  0  0  0  0
  -25.6710  -15.4090   20.0850 N   0  0  0  0  0  0  0  0  0  0  0  0
  -24.9140  -16.0730   20.2170 H   0  0  0  0  0  0  0  0  0  0  0  0
  -26.5050  -15.8380   19.7060 H   0  0  0  0  0  0  0  0  0  0  0  0
  1  3  2  0
  1  2  1  0
  2  4  2  0
  3  6  1  0
  4  5  1  0
  6  4  1  0
  6 54  1  0
  8  7  1  0
  8  9  1  0
  8  2  1  0
  9 10  1  0
 10 11  1  0
 12 14  1  0
 12 10  1  0
 13 24  2  0
 14 19  1  0
 15 23  1  0
 15 25  1  0
 16 22  1  0
 16 18  1  0
 17 23  1  0
 18 17  1  0
 19 18  2  0
 20 21  1  0
 20 14  2  0
 21 16  2  0
 22 15  1  0
 23 13  1  0
 25 27  2  0
 26 25  1  0
 28 26  1  0
 29 38  2  0
 29 34  1  0
 30 26  1  0
 30 34  1  0
 31 30  1  0
 32 33  1  0
 32 31  1  0
 33 29  1  0
 34 35  2  0
 35 36  1  0
 37 36  2  0
 38 37  1  0
 39 13  1  0
 39 40  1  0
 39 49  1  0
 40 43  1  0
 41 45  1  0
 41 40  1  0
 42 41  2  0
 45 44  1  0
 47 45  1  0
 47 48  1  0
 47 46  1  0
 49 52  1  1
 49 50  1  0
 51 49  1  0
 54 53  1  0
 55 56  1  0
 56 54  1  0
 57  3  1  0
 57 66  1  0
 58 64  1  0
 58 66  1  0
 59 64  1  0
 60 61  1  0
 60 59  1  0
 62 61  1  0
 62 71  1  0
 62 63  1  0
 64 63  1  0
 65 58  2  0
 66 67  1  0
 68 69  2  0
 69 88  1  0
 70 69  1  0
 70 73  1  0
 71 68  1  0
 71 72  1  0
 72 70  2  0
 73 74  1  0
 74 75  2  0
 76 79  1  0
 76 75  1  0
 77 76  2  0
 78 77  1  0
 78 73  2  0
 79 80  1  0
 80 81  1  0
 81 82  2  0
 83 82  1  0
 83 87  1  0
 84 83  2  0
 85 80  2  0
 85 84  1  0
 86 85  1  0
 88 89  1  0
 89 92  1  0
 89 91  1  0
 90 88  2  0
 93 94  1  0
 93 68  1  0
 95 93  1  0
M  ISO  4  10 101  12 101  58 100  66 100
M  END
>  <TORSDO>  (66) 
F 22

>  <SCORE>  (66) 
-12.442

>  <name>  (66) 
66

>  <ligand_id>  (66) 
66

>  <original_smiles>  (66) 
[H]c1c([H])c([H])c2c(c1[H])C([H])([H])C([H])([H])C([H])([H])C2([H])N([H])C(=O)C1([H])N(C(=O)C([H])(N([H])C(=O)C([H])(N([H])C([H])([H])[H])C([H])([H])[H])C(C([H])([H])[H])(C([H])([H])[H])C([H])([H])[H])C([H])([H])c2c([H])c(ON([H])C([H])([H])C([H])(c3c([H])c(C([H])([H])N([H])C(=O)N4C([H])([H])C([H])([H])C([H])([H])C([H])(n5nc(-c6c([H])c([H])c(Oc7c([H])c([H])c(F)c([H])c7F)c([H])c6[H])c(C(=O)N([H])[H])c5N([H])[H])C4([H])[H])n(C([H])(C([H])([H])[H])C([H])([H])C([H])([H])[H])c3C([H])([H])[H])C([H])([H])[H])c([H])c([H])c2C1([H])[H]

>  <smiles>  (66) 
[H]c1c([H])c([H])c2c(c1[H])C([H])([H])C([H])([H])C([H])([H])C2([H])N([H])C(=O)C1([H])N(C(=O)C([H])(N([H])C(=O)C([H])(N([H])C([H])([H])[H])C([H])([H])[H])C(C([H])([H])[H])(C([H])([H])[H])C([H])([H])[H])C([H])([H])c2c([H])c(ON([H])C([H])([H])C([H])(c3c([H])c(C([H])([H])N([H])C(=O)N4C([H])([H])C([H])([H])C([H])([H])C([H])(n5nc(-c6c([H])c([H])c(Oc7c([H])c([H])c(F)c([H])c7F)c([H])c6[H])c(C(=O)N([H])[H])c5N([H])[H])C4([H])[H])n(C([H])(C([H])([H])[H])C([H])([H])C([H])([H])[H])c3C([H])([H])[H])C([H])([H])[H])c([H])c([H])c2C1([H])[H]

$$$$
67:0:0
     RDKit          3D

 96104  0  0  1  0  0  0  0  0999 V2000
  -27.6810  -20.9020   20.9800 C   0  0  0  0  0  3  0  0  0  0  0  0
  -27.4840  -21.4130   19.6680 C   0  0  0  0  0  0  0  0  0  0  0  0
  -29.1750  -19.9250   18.9850 C   0  0  0  0  0  0  0  0  0  0  0  0
  -29.6940  -20.0380   20.3020 C   0  0  0  0  0  0  0  0  0  0  0  0
  -28.8510  -20.3330   21.3160 N   0  0  0  0  0  0  0  0  0  0  0  0
  -28.1530  -20.7920   18.6350 N   0  0  0  0  0  0  0  0  0  0  0  0
  -25.8190  -23.1030   20.6150 C   0  0  0  0  0  1  0  0  0  0  0  0
  -26.9600  -22.8820   19.5640 C   0  0  0  0  0  3  0  0  0  0  0  0
  -26.5700  -23.5590   18.2110 C   0  0  0  0  0  2  0  0  0  0  0  0
  -27.2610  -24.9810   18.1610 C   0  0  0  0  0  2  0  0  0  0  0  0
  -26.7310  -26.0790   17.3810 O   0  0  0  0  0  0  0  0  0  0  0  0
  -25.4380  -30.1690   23.1820 C   0  0  0  0  0  0  0  0  0  0  0  0
  -25.9230  -26.9940   18.0550 C   0  0  0  0  0  0  0  0  0  0  0  0
  -23.6110  -30.0000   21.5210 C   0  0  0  0  0  3  0  0  0  0  0  0
  -24.2420  -28.9410   19.2890 C   0  0  0  0  0  0  0  0  0  0  0  0
  -26.0650  -29.7330   20.8120 C   0  0  0  0  0  2  0  0  0  0  0  0
  -25.5820  -28.8180   19.6900 C   0  0  0  0  0  0  0  0  0  0  0  0
  -26.4310  -27.8690   19.0570 C   0  0  0  0  0  3  0  0  0  0  0  0
  -24.5630  -27.1180   17.6990 C   0  0  0  0  0  3  0  0  0  0  0  0
  -23.7390  -28.0980   18.2800 C   0  0  0  0  0  3  0  0  0  0  0  0
  -23.3870  -29.9820   19.9870 C   0  0  0  0  0  2  0  0  0  0  0  0
  -25.0660  -29.9540   21.8860 N   0  0  0  0  0  0  0  0  0  0  0  0
  -24.5980  -30.4370   24.0520 O   0  0  0  0  0  0  0  0  0  0  0  0
  -22.7890  -28.8610   22.1630 C   0  0  0  0  0  0  0  0  0  0  0  0
  -21.4500  -29.0150   22.1450 N   0  0  0  0  0  0  0  0  0  0  0  0
  -23.3530  -27.8770   22.6440 O   0  0  0  0  0  0  0  0  0  0  0  0
  -21.0940  -29.8760   21.7490 H   0  0  0  0  0  0  0  0  0  0  0  0
  -17.8880  -28.3450   22.3620 C   0  0  0  0  0  0  0  0  0  0  0  0
  -20.4470  -28.0820   22.6550 C   0  0  0  0  0  3  0  0  0  0  0  0
  -20.3230  -26.8440   21.7410 C   0  0  0  0  0  2  0  0  0  0  0  0
  -19.2270  -26.9890   20.6890 C   0  0  0  0  0  2  0  0  0  0  0  0
  -17.8630  -27.2140   21.3380 C   0  0  0  0  0  2  0  0  0  0  0  0
  -19.1050  -28.7660   22.9670 C   0  0  0  0  0  0  0  0  0  0  0  0
  -19.0780  -29.8400   23.8850 C   0  0  0  0  0  3  0  0  0  0  0  0
  -17.8720  -30.5030   24.1870 C   0  0  0  0  0  3  0  0  0  0  0  0
  -16.6710  -30.0800   23.5840 C   0  0  0  0  0  3  0  0  0  0  0  0
  -16.6760  -28.9940   22.6820 C   0  0  0  0  0  3  0  0  0  0  0  0
  -26.9330  -30.1020   23.6280 C   0  0  0  0  0  3  0  0  0  0  0  0
  -27.1010  -31.0420   24.7470 N   0  0  0  0  0  0  0  0  0  0  0  0
  -27.7290  -32.2230   24.6570 C   0  0  0  0  0  0  0  0  0  0  0  0
  -28.2890  -32.6010   23.6250 O   0  0  0  0  0  0  0  0  0  0  0  0
  -26.6190  -30.8170   25.6050 H   0  0  0  0  0  0  0  0  0  0  0  0
  -26.7010  -34.2540   25.7270 C   0  0  0  0  0  1  0  0  0  0  0  0
  -27.7360  -33.1290   25.9050 C   0  0  0  0  0  3  0  0  0  0  0  0
  -30.0390  -32.7220   26.6510 C   0  0  0  0  0  1  0  0  0  0  0  0
  -29.0630  -33.7130   26.2050 N   0  0  0  0  0  0  0  0  0  0  0  0
  -28.9920  -34.4350   26.9180 H   0  0  0  0  0  0  0  0  0  0  0  0
  -27.3950  -28.6530   24.0500 C   0  0  1  0  0  0  0  0  0  0  0  0
  -26.4590  -27.9860   25.0840 C   0  0  0  0  0  1  0  0  0  0  0  0
  -27.4780  -27.7190   22.8210 C   0  0  0  0  0  1  0  0  0  0  0  0
  -28.8170  -28.7130   24.6470 C   0  0  0  0  0  1  0  0  0  0  0  0
  -29.3480  -18.5760   18.2040 C   0  0  0  0  0  2  0  0  0  0  0  0
  -30.6120  -17.6280   18.4050 C   0  0  0  0  0  2  0  0  0  0  0  0
  -31.2290  -15.1570   18.9380 C   0  0  0  0  0  0  0  0  0  0  0  0
  -31.2410  -12.6720   18.8850 C   0  0  0  0  0  2  0  0  0  0  0  0
  -30.2740  -12.1670   17.7970 C   0  0  0  0  0  2  0  0  0  0  0  0
  -28.8330  -12.0640   18.3430 C   0  0  0  0  0  2  0  0  0  0  0  0
  -28.3930  -13.3360   19.1210 C   0  0  0  0  0  3  0  0  0  0  0  0
  -29.4770  -13.7710   20.1250 C   0  0  0  0  0  2  0  0  0  0  0  0
  -30.7210  -13.9660   19.3670 N   0  0  0  0  0  0  0  0  0  0  0  0
  -32.3880  -15.2490   18.5210 O   0  0  0  0  0  0  0  0  0  0  0  0
  -30.3460  -16.2020   18.8040 N   0  0  0  0  0  0  0  0  0  0  0  0
  -29.3820  -15.9820   19.0020 H   0  0  0  0  0  0  0  0  0  0  0  0
  -26.1970  -14.1220   20.1900 C   0  0  0  0  0  0  0  0  0  0  0  0
  -25.1020  -13.4290   20.6480 C   0  0  0  0  0  0  0  0  0  0  0  0
  -25.4150  -12.0490   20.4920 C   0  0  0  0  0  0  0  0  0  0  0  0
  -27.0970  -13.1540   19.7670 N   0  0  0  0  0  0  0  0  0  0  0  0
  -26.6460  -11.9010   20.0170 N   0  0  0  0  0  0  0  0  0  0  0  0
  -24.5850  -10.8540   20.7170 C   0  0  0  0  0  0  0  0  0  0  0  0
  -24.9360   -9.8850   21.6800 C   0  0  0  0  0  3  0  0  0  0  0  0
  -24.1150   -8.7550   21.8900 C   0  0  0  0  0  3  0  0  0  0  0  0
  -22.9360   -8.5830   21.1290 C   0  0  0  0  0  0  0  0  0  0  0  0
  -22.6030   -9.5400   20.1570 C   0  0  0  0  0  3  0  0  0  0  0  0
  -23.4210  -10.6630   19.9440 C   0  0  0  0  0  3  0  0  0  0  0  0
  -22.0930   -7.5050   21.2450 O   0  0  0  0  0  0  0  0  0  0  0  0
  -21.8490   -6.9090   22.4560 C   0  0  0  0  0  0  0  0  0  0  0  0
  -21.2960   -7.6240   23.5400 C   0  0  0  0  0  3  0  0  0  0  0  0
  -20.9990   -6.9570   24.7440 C   0  0  0  0  0  3  0  0  0  0  0  0
  -21.2390   -5.5760   24.8630 C   0  0  0  0  0  0  0  0  0  0  0  0
  -21.7890   -4.8620   23.7850 C   0  0  0  0  0  3  0  0  0  0  0  0
  -22.0890   -5.5260   22.5830 C   0  0  0  0  0  0  0  0  0  0  0  0
  -22.5960   -4.8290   21.5370 F   0  0  0  0  0  0  0  0  0  0  0  0
  -20.9470   -4.9310   26.0190 F   0  0  0  0  0  0  0  0  0  0  0  0
  -23.8090  -14.0350   21.1110 C   0  0  0  0  0  0  0  0  0  0  0  0
  -23.1290  -13.3720   22.0460 N   0  0  0  0  0  0  0  0  0  0  0  0
  -23.4120  -15.1130   20.6830 O   0  0  0  0  0  0  0  0  0  0  0  0
  -23.4650  -12.4970   22.4090 H   0  0  0  0  0  0  0  0  0  0  0  0
  -22.2640  -13.7550   22.3970 H   0  0  0  0  0  0  0  0  0  0  0  0
  -26.4890  -15.4720   20.0780 N   0  0  0  0  0  0  0  0  0  0  0  0
  -25.8480  -16.1930   20.4000 H   0  0  0  0  0  0  0  0  0  0  0  0
  -27.3620  -15.8580   19.7400 H   0  0  0  0  0  0  0  0  0  0  0  0
  -31.1370  -20.5200   20.5130 C   0  0  0  0  0  3  0  0  0  0  0  0
  -31.5320  -20.6910   23.0520 C   0  0  0  0  0  1  0  0  0  0  0  0
  -31.8230  -19.9300   21.7540 C   0  0  0  0  0  2  0  0  0  0  0  0
  -31.3450  -22.7010   19.0730 C   0  0  0  0  0  1  0  0  0  0  0  0
  -31.3120  -22.0730   20.4700 C   0  0  0  0  0  2  0  0  0  0  0  0
  1  5  1  0
  2  1  2  0
  3  4  1  0
  4 92  1  0
  4  5  2  0
  6  3  2  0
  6  2  1  0
  8  2  1  0
  8  7  1  0
  9  8  1  0
 10  9  1  0
 11 13  1  0
 11 10  1  0
 12 23  2  0
 13 18  1  0
 14 22  1  0
 14 24  1  0
 15 17  1  0
 15 21  1  0
 16 22  1  0
 17 16  1  0
 18 17  2  0
 19 13  2  0
 19 20  1  0
 20 15  2  0
 21 14  1  0
 22 12  1  0
 24 26  2  0
 25 24  1  0
 27 25  1  0
 28 37  2  0
 28 33  1  0
 29 25  1  0
 29 33  1  0
 30 29  1  0
 31 32  1  0
 31 30  1  0
 32 28  1  0
 33 34  2  0
 34 35  1  0
 36 35  2  0
 37 36  1  0
 38 12  1  0
 38 48  1  0
 38 39  1  0
 39 42  1  0
 40 39  1  0
 40 44  1  0
 41 40  2  0
 44 43  1  0
 44 46  1  0
 46 45  1  0
 46 47  1  0
 48 51  1  1
 48 49  1  0
 50 48  1  0
 52 53  1  0
 52  3  1  0
 53 62  1  0
 54 60  1  0
 55 60  1  0
 56 57  1  0
 56 55  1  0
 58 57  1  0
 58 67  1  0
 58 59  1  0
 60 59  1  0
 61 54  2  0
 62 54  1  0
 62 63  1  0
 64 65  2  0
 65 84  1  0
 66 65  1  0
 66 69  1  0
 67 68  1  0
 67 64  1  0
 68 66  2  0
 69 70  1  0
 70 71  2  0
 72 75  1  0
 72 71  1  0
 73 72  2  0
 74 73  1  0
 74 69  2  0
 75 76  1  0
 76 81  2  0
 76 77  1  0
 77 78  2  0
 78 79  1  0
 79 83  1  0
 80 79  2  0
 81 80  1  0
 82 81  1  0
 84 85  1  0
 85 88  1  0
 85 87  1  0
 86 84  2  0
 89 64  1  0
 89 90  1  0
 91 89  1  0
 92 94  1  0
 94 93  1  0
 95 96  1  0
 96 92  1  0
M  ISO  4  10 101  11 101  54 100  62 100
M  END
>  <TORSDO>  (67) 
F 24

>  <SCORE>  (67) 
-9.987

>  <name>  (67) 
67

>  <ligand_id>  (67) 
67

>  <original_smiles>  (67) 
[H]c1nc(C([H])(C([H])([H])C([H])([H])[H])C([H])([H])C([H])([H])[H])c(C([H])([H])C([H])([H])N([H])C(=O)N2C([H])([H])C([H])([H])C([H])([H])C([H])(n3nc(-c4c([H])c([H])c(Oc5c([H])c([H])c(F)c([H])c5F)c([H])c4[H])c(C(=O)N([H])[H])c3N([H])[H])C2([H])[H])nc1C([H])(C([H])([H])[H])C([H])([H])C([H])([H])Oc1c([H])c([H])c2c(c1[H])C([H])([H])N(C(=O)C([H])(N([H])C(=O)C([H])(N([H])C([H])([H])[H])C([H])([H])[H])C(C([H])([H])[H])(C([H])([H])[H])C([H])([H])[H])C([H])(C(=O)N([H])C1([H])c3c([H])c([H])c([H])c([H])c3C([H])([H])C([H])([H])C1([H])[H])C2([H])[H]

>  <smiles>  (67) 
[H]c1nc(C([H])(C([H])([H])C([H])([H])[H])C([H])([H])C([H])([H])[H])c(C([H])([H])C([H])([H])N([H])C(=O)N2C([H])([H])C([H])([H])C([H])([H])C([H])(n3nc(-c4c([H])c([H])c(Oc5c([H])c([H])c(F)c([H])c5F)c([H])c4[H])c(C(=O)N([H])[H])c3N([H])[H])C2([H])[H])nc1C([H])(C([H])([H])[H])C([H])([H])C([H])([H])Oc1c([H])c([H])c2c(c1[H])C([H])([H])N(C(=O)C([H])(N([H])C(=O)C([H])(N([H])C([H])([H])[H])C([H])([H])[H])C(C([H])([H])[H])(C([H])([H])[H])C([H])([H])[H])C([H])(C(=O)N([H])C1([H])c3c([H])c([H])c([H])c([H])c3C([H])([H])C([H])([H])C1([H])[H])C2([H])[H]

$$$$
68:0:0
     RDKit          3D

 92100  0  0  1  0  0  0  0  0999 V2000
  -28.5400  -18.1480   19.1210 C   0  0  0  0  0  3  0  0  0  0  0  0
  -28.0860  -20.3160   19.0470 C   0  0  0  0  0  3  0  0  0  0  0  0
  -27.7910  -19.1350   18.4380 C   0  0  0  0  0  0  0  0  0  0  0  0
  -29.3240  -18.7210   20.0880 C   0  0  0  0  0  0  0  0  0  0  0  0
  -29.0480  -20.1480   20.0450 N   0  0  0  0  0  0  0  0  0  0  0  0
  -25.4320  -18.6480   17.7450 C   0  0  0  0  0  1  0  0  0  0  0  0
  -27.3640  -17.8230   16.3170 C   0  0  0  0  0  1  0  0  0  0  0  0
  -26.8610  -18.9280   17.2640 C   0  0  0  0  0  3  0  0  0  0  0  0
  -30.2770  -17.8430   20.9530 C   0  0  0  0  0  2  0  0  0  0  0  0
  -30.7920  -15.2300   20.6160 C   0  0  0  0  0  0  0  0  0  0  0  0
  -30.6210  -12.9830   19.5230 C   0  0  0  0  0  2  0  0  0  0  0  0
  -29.7880  -13.0250   18.2130 C   0  0  0  0  0  2  0  0  0  0  0  0
  -28.2870  -13.3330   18.4350 C   0  0  0  0  0  2  0  0  0  0  0  0
  -27.8880  -13.2330   19.9110 C   0  0  0  0  0  3  0  0  0  0  0  0
  -28.8150  -13.7450   21.0090 C   0  0  0  0  0  2  0  0  0  0  0  0
  -30.1390  -14.0380   20.4480 N   0  0  0  0  0  0  0  0  0  0  0  0
  -31.9910  -15.3280   20.3530 O   0  0  0  0  0  0  0  0  0  0  0  0
  -30.0140  -16.3390   20.8950 N   0  0  0  0  0  0  0  0  0  0  0  0
  -29.0470  -16.1060   21.0640 H   0  0  0  0  0  0  0  0  0  0  0  0
  -25.4440  -14.1960   20.3070 C   0  0  0  0  0  0  0  0  0  0  0  0
  -24.3200  -13.4720   20.6430 C   0  0  0  0  0  0  0  0  0  0  0  0
  -24.7360  -12.1110   20.6960 C   0  0  0  0  0  0  0  0  0  0  0  0
  -26.4640  -13.2430   20.2100 N   0  0  0  0  0  0  0  0  0  0  0  0
  -26.0130  -12.0080   20.4650 N   0  0  0  0  0  0  0  0  0  0  0  0
  -24.0220  -10.8590   20.8910 C   0  0  0  0  0  0  0  0  0  0  0  0
  -24.4250   -9.9420   21.8860 C   0  0  0  0  0  3  0  0  0  0  0  0
  -23.7320   -8.7280   22.0510 C   0  0  0  0  0  3  0  0  0  0  0  0
  -22.6260   -8.4310   21.2180 C   0  0  0  0  0  0  0  0  0  0  0  0
  -22.2540   -9.3370   20.2090 C   0  0  0  0  0  3  0  0  0  0  0  0
  -22.9490  -10.5420   20.0410 C   0  0  0  0  0  3  0  0  0  0  0  0
  -21.8990   -7.2710   21.2950 O   0  0  0  0  0  0  0  0  0  0  0  0
  -21.7730   -6.5870   22.4750 C   0  0  0  0  0  0  0  0  0  0  0  0
  -21.2450   -7.1880   23.6390 C   0  0  0  0  0  3  0  0  0  0  0  0
  -21.0680   -6.4230   24.8070 C   0  0  0  0  0  3  0  0  0  0  0  0
  -21.4120   -5.0570   24.8130 C   0  0  0  0  0  0  0  0  0  0  0  0
  -21.9350   -4.4560   23.6540 C   0  0  0  0  0  3  0  0  0  0  0  0
  -22.1130   -5.2200   22.4880 C   0  0  0  0  0  0  0  0  0  0  0  0
  -22.6000   -4.6350   21.3670 F   0  0  0  0  0  0  0  0  0  0  0  0
  -21.2340   -4.3160   25.9310 F   0  0  0  0  0  0  0  0  0  0  0  0
  -22.9150  -13.9710   20.8250 C   0  0  0  0  0  0  0  0  0  0  0  0
  -22.1390  -13.3020   21.6730 N   0  0  0  0  0  0  0  0  0  0  0  0
  -22.5050  -14.9720   20.2420 O   0  0  0  0  0  0  0  0  0  0  0  0
  -22.4830  -12.4870   22.1620 H   0  0  0  0  0  0  0  0  0  0  0  0
  -21.1910  -13.6090   21.8390 H   0  0  0  0  0  0  0  0  0  0  0  0
  -25.6650  -15.5500   20.0800 N   0  0  0  0  0  0  0  0  0  0  0  0
  -24.9080  -16.2240   20.0800 H   0  0  0  0  0  0  0  0  0  0  0  0
  -26.5270  -15.9190   19.7010 H   0  0  0  0  0  0  0  0  0  0  0  0
  -29.5750  -21.3760   20.7800 C   0  0  0  0  0  3  0  0  0  0  0  0
  -28.9260  -22.8050   20.3580 C   0  0  0  0  0  3  0  0  0  0  0  0
  -29.2910  -24.2210   21.0260 C   0  0  0  0  0  2  0  0  0  0  0  0
  -28.4300  -25.4630   20.4870 C   0  0  0  0  0  2  0  0  0  0  0  0
  -28.5860  -26.8720   20.9460 O   0  0  0  0  0  0  0  0  0  0  0  0
  -24.7930  -32.3750   23.6890 C   0  0  0  0  0  0  0  0  0  0  0  0
  -27.4840  -27.7440   20.8080 C   0  0  0  0  0  0  0  0  0  0  0  0
  -23.6340  -30.9520   22.0380 C   0  0  0  0  0  3  0  0  0  0  0  0
  -25.1240  -29.3720   20.6830 C   0  0  0  0  0  0  0  0  0  0  0  0
  -26.1780  -31.2550   21.9320 C   0  0  0  0  0  2  0  0  0  0  0  0
  -26.2740  -29.8640   21.3150 C   0  0  0  0  0  0  0  0  0  0  0  0
  -27.4530  -29.0600   21.3720 C   0  0  0  0  0  3  0  0  0  0  0  0
  -26.3160  -27.3280   20.1210 C   0  0  0  0  0  3  0  0  0  0  0  0
  -25.1500  -28.1120   20.0750 C   0  0  0  0  0  3  0  0  0  0  0  0
  -23.8880  -30.2500   20.6790 C   0  0  0  0  0  2  0  0  0  0  0  0
  -24.8860  -31.5460   22.6100 N   0  0  0  0  0  0  0  0  0  0  0  0
  -23.6960  -32.6710   24.1830 O   0  0  0  0  0  0  0  0  0  0  0  0
  -22.9330  -29.9590   22.9960 C   0  0  0  0  0  0  0  0  0  0  0  0
  -21.6260  -29.7320   22.7830 N   0  0  0  0  0  0  0  0  0  0  0  0
  -23.5680  -29.3940   23.8900 O   0  0  0  0  0  0  0  0  0  0  0  0
  -21.1720  -30.2410   22.0370 H   0  0  0  0  0  0  0  0  0  0  0  0
  -18.2600  -28.4440   23.0910 C   0  0  0  0  0  0  0  0  0  0  0  0
  -20.7800  -28.8050   23.5390 C   0  0  0  0  0  3  0  0  0  0  0  0
  -20.9710  -27.3510   23.0460 C   0  0  0  0  0  2  0  0  0  0  0  0
  -19.9610  -26.9420   21.9700 C   0  0  0  0  0  2  0  0  0  0  0  0
  -18.5300  -27.0710   22.5000 C   0  0  0  0  0  2  0  0  0  0  0  0
  -19.3170  -29.2640   23.5650 C   0  0  0  0  0  0  0  0  0  0  0  0
  -19.0150  -30.5470   24.0730 C   0  0  0  0  0  3  0  0  0  0  0  0
  -17.6860  -31.0090   24.1140 C   0  0  0  0  0  3  0  0  0  0  0  0
  -16.6420  -30.1870   23.6580 C   0  0  0  0  0  3  0  0  0  0  0  0
  -16.9290  -28.9050   23.1520 C   0  0  0  0  0  3  0  0  0  0  0  0
  -26.0620  -33.0110   24.3380 C   0  0  0  0  0  3  0  0  0  0  0  0
  -25.7820  -34.4370   24.5570 N   0  0  0  0  0  0  0  0  0  0  0  0
  -26.1640  -35.4230   23.7340 C   0  0  0  0  0  0  0  0  0  0  0  0
  -26.8590  -35.2260   22.7330 O   0  0  0  0  0  0  0  0  0  0  0  0
  -25.1740  -34.6650   25.3280 H   0  0  0  0  0  0  0  0  0  0  0  0
  -24.4990  -37.2290   23.1960 C   0  0  0  0  0  1  0  0  0  0  0  0
  -25.7030  -36.8530   24.0750 C   0  0  0  0  0  3  0  0  0  0  0  0
  -27.8370  -37.7390   24.9080 C   0  0  0  0  0  1  0  0  0  0  0  0
  -26.7680  -37.8690   23.9220 N   0  0  0  0  0  0  0  0  0  0  0  0
  -26.3840  -38.8070   23.9910 H   0  0  0  0  0  0  0  0  0  0  0  0
  -26.4810  -32.3150   25.6900 C   0  0  1  0  0  0  0  0  0  0  0  0
  -25.3150  -32.1560   26.6930 C   0  0  0  0  0  1  0  0  0  0  0  0
  -27.0730  -30.9110   25.4250 C   0  0  0  0  0  1  0  0  0  0  0  0
  -27.5930  -33.1390   26.3800 C   0  0  0  0  0  1  0  0  0  0  0  0
  1  4  2  0
  2  5  1  0
  3  2  2  0
  3  1  1  0
  4  9  1  0
  5  4  1  0
  5 48  1  0
  7  8  1  0
  8  6  1  0
  8  3  1  0
 10 18  1  0
 11 16  1  0
 12 13  1  0
 12 11  1  0
 14 13  1  0
 14 23  1  0
 14 15  1  0
 16 10  1  0
 16 15  1  0
 17 10  2  0
 18  9  1  0
 18 19  1  0
 20 21  2  0
 21 22  1  0
 21 40  1  0
 22 25  1  0
 23 20  1  0
 23 24  1  0
 24 22  2  0
 25 26  1  0
 26 27  2  0
 28 31  1  0
 28 27  1  0
 29 28  2  0
 30 29  1  0
 30 25  2  0
 31 32  1  0
 32 37  2  0
 32 33  1  0
 33 34  2  0
 34 35  1  0
 35 39  1  0
 36 35  2  0
 37 36  1  0
 38 37  1  0
 40 41  1  0
 41 44  1  0
 41 43  1  0
 42 40  2  0
 45 20  1  0
 46 45  1  0
 47 45  1  0
 49 48  2  0
 49 50  1  0
 51 52  1  0
 51 50  1  0
 53 64  2  0
 54 52  1  0
 54 59  1  0
 55 63  1  0
 55 65  1  0
 56 58  1  0
 57 63  1  0
 58 59  2  0
 58 57  1  0
 60 54  2  0
 61 60  1  0
 61 56  2  0
 62 56  1  0
 62 55  1  0
 63 53  1  0
 65 67  2  0
 66 65  1  0
 68 66  1  0
 69 78  2  0
 69 74  1  0
 70 66  1  0
 70 74  1  0
 71 70  1  0
 72 73  1  0
 72 71  1  0
 73 69  1  0
 74 75  2  0
 75 76  1  0
 77 76  2  0
 78 77  1  0
 79 53  1  0
 79 80  1  0
 79 89  1  0
 80 83  1  0
 81 85  1  0
 81 80  1  0
 82 81  2  0
 85 84  1  0
 87 88  1  0
 87 85  1  0
 87 86  1  0
 89 92  1  1
 89 90  1  0
 91 89  1  0
M  ISO  4  10 100  18 100  51 101  52 101
M  END
>  <TORSDO>  (68) 
F 22

>  <SCORE>  (68) 
-7.695

>  <name>  (68) 
68

>  <ligand_id>  (68) 
68

>  <original_smiles>  (68) 
[H]c1c([H])c([H])c2c(c1[H])C([H])([H])C([H])([H])C([H])([H])C2([H])N([H])C(=O)C1([H])N(C(=O)C([H])(N([H])C(=O)C([H])(N([H])C([H])([H])[H])C([H])([H])[H])C(C([H])([H])[H])(C([H])([H])[H])C([H])([H])[H])C([H])([H])c2c([H])c(OC([H])([H])C([H])([H])C([H])([H])C([H])([H])n3c([H])c(C([H])(C([H])([H])[H])C([H])([H])[H])c([H])c3C([H])([H])N([H])C(=O)N3C([H])([H])C([H])([H])C([H])([H])C([H])(n4nc(-c5c([H])c([H])c(Oc6c([H])c([H])c(F)c([H])c6F)c([H])c5[H])c(C(=O)N([H])[H])c4N([H])[H])C3([H])[H])c([H])c([H])c2C1([H])[H]

>  <smiles>  (68) 
[H]c1c([H])c([H])c2c(c1[H])C([H])([H])C([H])([H])C([H])([H])C2([H])N([H])C(=O)C1([H])N(C(=O)C([H])(N([H])C(=O)C([H])(N([H])C([H])([H])[H])C([H])([H])[H])C(C([H])([H])[H])(C([H])([H])[H])C([H])([H])[H])C([H])([H])c2c([H])c(OC([H])([H])C([H])([H])C([H])([H])C([H])([H])n3c([H])c(C([H])(C([H])([H])[H])C([H])([H])[H])c([H])c3C([H])([H])N([H])C(=O)N3C([H])([H])C([H])([H])C([H])([H])C([H])(n4nc(-c5c([H])c([H])c(Oc6c([H])c([H])c(F)c([H])c6F)c([H])c5[H])c(C(=O)N([H])[H])c4N([H])[H])C3([H])[H])c([H])c([H])c2C1([H])[H]

$$$$
69:0:0
     RDKit          3D

 99107  0  0  1  0  0  0  0  0999 V2000
  -29.6710  -21.8690   21.5850 C   0  0  0  0  0  0  0  0  0  0  0  0
  -30.2990  -19.4460   21.4910 C   0  0  0  0  0  0  0  0  0  0  0  0
  -29.3500  -20.5020   21.2650 C   0  0  0  0  0  0  0  0  0  0  0  0
  -30.8530  -22.0960   22.3350 C   0  0  0  0  0  3  0  0  0  0  0  0
  -31.5240  -19.8080   22.1360 C   0  0  0  0  0  0  0  0  0  0  0  0
  -31.2310  -23.4260   22.9760 C   0  0  0  0  0  1  0  0  0  0  0  0
  -32.6990  -18.8870   22.4490 C   0  0  0  0  0  1  0  0  0  0  0  0
  -31.7080  -21.0810   22.5460 N   0  0  0  0  0  0  0  0  0  0  0  0
  -32.5710  -21.2980   23.0520 H   0  0  0  0  0  0  0  0  0  0  0  0
  -28.0780  -20.1510   20.7750 N   0  0  0  0  0  0  0  0  0  0  0  0
  -28.0310  -19.2240   20.3630 H   0  0  0  0  0  0  0  0  0  0  0  0
  -26.9170  -20.4550   21.6200 C   0  0  0  0  0  2  0  0  0  0  0  0
  -27.5370  -19.3350   23.8740 C   0  0  0  0  0  1  0  0  0  0  0  0
  -25.1640  -19.6860   23.2150 C   0  0  0  0  0  1  0  0  0  0  0  0
  -26.5670  -19.3850   22.6820 C   0  0  0  0  0  3  0  0  0  0  0  0
  -28.7410  -23.0530   21.2210 C   0  0  0  0  0  2  0  0  0  0  0  0
  -29.2930  -24.2720   20.4080 C   0  0  0  0  0  2  0  0  0  0  0  0
  -28.1310  -25.2120   19.9960 C   0  0  0  0  0  2  0  0  0  0  0  0
  -28.3650  -26.6340   20.0810 O   0  0  0  0  0  0  0  0  0  0  0  0
  -24.6160  -31.8720   23.2090 C   0  0  0  0  0  0  0  0  0  0  0  0
  -27.2170  -27.4200   20.0700 C   0  0  0  0  0  0  0  0  0  0  0  0
  -23.4010  -30.4980   21.5520 C   0  0  0  0  0  3  0  0  0  0  0  0
  -24.8420  -28.9710   20.1150 C   0  0  0  0  0  0  0  0  0  0  0  0
  -25.9380  -30.8260   21.3720 C   0  0  0  0  0  2  0  0  0  0  0  0
  -26.0100  -29.4670   20.7040 C   0  0  0  0  0  0  0  0  0  0  0  0
  -27.2020  -28.7000   20.6800 C   0  0  0  0  0  3  0  0  0  0  0  0
  -26.0180  -26.9550   19.4730 C   0  0  0  0  0  3  0  0  0  0  0  0
  -24.8420  -27.7140   19.4990 C   0  0  0  0  0  3  0  0  0  0  0  0
  -23.6060  -29.8350   20.1660 C   0  0  0  0  0  2  0  0  0  0  0  0
  -24.6700  -31.0790   22.1010 N   0  0  0  0  0  0  0  0  0  0  0  0
  -23.5350  -32.1500   23.7460 O   0  0  0  0  0  0  0  0  0  0  0  0
  -22.7390  -29.4710   22.5020 C   0  0  0  0  0  0  0  0  0  0  0  0
  -21.4130  -29.2940   22.3680 N   0  0  0  0  0  0  0  0  0  0  0  0
  -23.4170  -28.8350   23.3140 O   0  0  0  0  0  0  0  0  0  0  0  0
  -20.9320  -29.8310   21.6580 H   0  0  0  0  0  0  0  0  0  0  0  0
  -18.0300  -28.1330   22.8460 C   0  0  0  0  0  0  0  0  0  0  0  0
  -20.5880  -28.3600   23.1330 C   0  0  0  0  0  3  0  0  0  0  0  0
  -20.6740  -26.9340   22.5430 C   0  0  0  0  0  2  0  0  0  0  0  0
  -19.5790  -26.6400   21.5140 C   0  0  0  0  0  2  0  0  0  0  0  0
  -18.1970  -26.7920   22.1510 C   0  0  0  0  0  2  0  0  0  0  0  0
  -19.1530  -28.8790   23.2900 C   0  0  0  0  0  0  0  0  0  0  0  0
  -18.9440  -30.1400   23.8920 C   0  0  0  0  0  3  0  0  0  0  0  0
  -17.6430  -30.6520   24.0550 C   0  0  0  0  0  3  0  0  0  0  0  0
  -16.5340  -29.9000   23.6350 C   0  0  0  0  0  3  0  0  0  0  0  0
  -16.7280  -28.6420   23.0360 C   0  0  0  0  0  3  0  0  0  0  0  0
  -25.9090  -32.4810   23.8350 C   0  0  0  0  0  3  0  0  0  0  0  0
  -25.5970  -33.8600   24.2300 N   0  0  0  0  0  0  0  0  0  0  0  0
  -25.9070  -34.9450   23.5090 C   0  0  0  0  0  0  0  0  0  0  0  0
  -26.5580  -34.8910   22.4630 O   0  0  0  0  0  0  0  0  0  0  0  0
  -25.0240  -33.9760   25.0520 H   0  0  0  0  0  0  0  0  0  0  0  0
  -24.1530  -36.7250   23.2630 C   0  0  0  0  0  1  0  0  0  0  0  0
  -25.4150  -36.3070   24.0330 C   0  0  0  0  0  3  0  0  0  0  0  0
  -27.5590  -37.1790   24.8470 C   0  0  0  0  0  1  0  0  0  0  0  0
  -26.4320  -37.3770   23.9380 N   0  0  0  0  0  0  0  0  0  0  0  0
  -26.0200  -38.2840   24.1390 H   0  0  0  0  0  0  0  0  0  0  0  0
  -26.4500  -31.6570   25.0680 C   0  0  1  0  0  0  0  0  0  0  0  0
  -25.3760  -31.3650   26.1400 C   0  0  0  0  0  1  0  0  0  0  0  0
  -27.0320  -30.3020   24.6080 C   0  0  0  0  0  1  0  0  0  0  0  0
  -27.6090  -32.4250   25.7440 C   0  0  0  0  0  1  0  0  0  0  0  0
  -29.9390  -17.9930   21.0330 C   0  0  0  0  0  2  0  0  0  0  0  0
  -30.6950  -16.7680   21.6220 C   0  0  0  0  0  2  0  0  0  0  0  0
  -30.7270  -14.4670   20.6020 C   0  0  0  0  0  0  0  0  0  0  0  0
  -30.4140  -12.3100   19.4350 C   0  0  0  0  0  2  0  0  0  0  0  0
  -29.4910  -12.4980   18.2150 C   0  0  0  0  0  2  0  0  0  0  0  0
  -28.0140  -12.3490   18.6280 C   0  0  0  0  0  2  0  0  0  0  0  0
  -27.6550  -13.2010   19.8740 C   0  0  0  0  0  3  0  0  0  0  0  0
  -28.6960  -13.0090   21.0020 C   0  0  0  0  0  2  0  0  0  0  0  0
  -30.0260  -13.3080   20.4470 N   0  0  0  0  0  0  0  0  0  0  0  0
  -31.8330  -14.6460   20.0910 O   0  0  0  0  0  0  0  0  0  0  0  0
  -30.1090  -15.4550   21.2790 N   0  0  0  0  0  0  0  0  0  0  0  0
  -29.1820  -15.2600   21.6220 H   0  0  0  0  0  0  0  0  0  0  0  0
  -25.2560  -13.8170   20.5640 C   0  0  0  0  0  0  0  0  0  0  0  0
  -24.1790  -13.0430   20.9150 C   0  0  0  0  0  0  0  0  0  0  0  0
  -24.6310  -11.6910   20.8680 C   0  0  0  0  0  0  0  0  0  0  0  0
  -26.2970  -12.9290   20.3360 N   0  0  0  0  0  0  0  0  0  0  0  0
  -25.9240  -11.6470   20.5750 N   0  0  0  0  0  0  0  0  0  0  0  0
  -23.8980  -10.4280   21.0360 C   0  0  0  0  0  0  0  0  0  0  0  0
  -24.3550   -9.4220   21.9160 C   0  0  0  0  0  3  0  0  0  0  0  0
  -23.6240   -8.2260   22.0750 C   0  0  0  0  0  3  0  0  0  0  0  0
  -22.4250   -8.0250   21.3530 C   0  0  0  0  0  0  0  0  0  0  0  0
  -21.9830   -9.0230   20.4640 C   0  0  0  0  0  3  0  0  0  0  0  0
  -22.7130  -10.2120   20.3030 C   0  0  0  0  0  3  0  0  0  0  0  0
  -21.6630   -6.8840   21.4220 O   0  0  0  0  0  0  0  0  0  0  0  0
  -21.6860   -6.0700   22.5260 C   0  0  0  0  0  0  0  0  0  0  0  0
  -21.4020   -6.5600   23.8200 C   0  0  0  0  0  3  0  0  0  0  0  0
  -21.3660   -5.6770   24.9160 C   0  0  0  0  0  3  0  0  0  0  0  0
  -21.6040   -4.3050   24.7210 C   0  0  0  0  0  0  0  0  0  0  0  0
  -21.8810   -3.8110   23.4350 C   0  0  0  0  0  3  0  0  0  0  0  0
  -21.9180   -4.6920   22.3380 C   0  0  0  0  0  0  0  0  0  0  0  0
  -22.1650   -4.2080   21.0960 F   0  0  0  0  0  0  0  0  0  0  0  0
  -21.5640   -3.4540   25.7740 F   0  0  0  0  0  0  0  0  0  0  0  0
  -22.7840  -13.5280   21.1840 C   0  0  0  0  0  0  0  0  0  0  0  0
  -22.0460  -12.8300   22.0390 N   0  0  0  0  0  0  0  0  0  0  0  0
  -22.3540  -14.5590   20.6680 O   0  0  0  0  0  0  0  0  0  0  0  0
  -22.4070  -11.9980   22.4790 H   0  0  0  0  0  0  0  0  0  0  0  0
  -21.1100  -13.1400   22.2620 H   0  0  0  0  0  0  0  0  0  0  0  0
  -25.4430  -15.1850   20.4020 N   0  0  0  0  0  0  0  0  0  0  0  0
  -24.7000  -15.8680   20.5020 H   0  0  0  0  0  0  0  0  0  0  0  0
  -26.3160  -15.5960   20.0930 H   0  0  0  0  0  0  0  0  0  0  0  0
  1  4  1  0
  2  5  2  0
  3  2  1  0
  3  1  2  0
  4  8  1  0
  4  6  1  0
  5  7  1  0
  5  8  1  0
  8  9  1  0
 10  3  1  0
 10 12  1  0
 11 10  1  0
 12 15  1  0
 15 14  1  0
 15 13  1  0
 16  1  1  0
 17 16  1  0
 18 19  1  0
 18 17  1  0
 20 31  2  0
 21 19  1  0
 21 26  1  0
 22 30  1  0
 22 32  1  0
 23 29  1  0
 23 25  1  0
 24 30  1  0
 25 24  1  0
 26 25  2  0
 27 28  1  0
 27 21  2  0
 28 23  2  0
 29 22  1  0
 30 20  1  0
 32 34  2  0
 33 32  1  0
 35 33  1  0
 36 45  2  0
 36 41  1  0
 37 33  1  0
 37 41  1  0
 38 37  1  0
 39 40  1  0
 39 38  1  0
 40 36  1  0
 41 42  2  0
 42 43  1  0
 44 43  2  0
 45 44  1  0
 46 20  1  0
 46 47  1  0
 46 56  1  0
 47 50  1  0
 48 52  1  0
 48 47  1  0
 49 48  2  0
 52 51  1  0
 54 52  1  0
 54 55  1  0
 54 53  1  0
 56 59  1  1
 56 57  1  0
 58 56  1  0
 60  2  1  0
 60 61  1  0
 62 70  1  0
 63 68  1  0
 64 65  1  0
 64 63  1  0
 66 65  1  0
 66 75  1  0
 66 67  1  0
 68 62  1  0
 68 67  1  0
 69 62  2  0
 70 71  1  0
 70 61  1  0
 72 73  2  0
 73 92  1  0
 74 73  1  0
 74 77  1  0
 75 72  1  0
 75 76  1  0
 76 74  2  0
 77 78  1  0
 78 79  2  0
 80 83  1  0
 80 79  1  0
 81 80  2  0
 82 81  1  0
 82 77  2  0
 83 84  1  0
 84 85  1  0
 85 86  2  0
 87 86  1  0
 87 91  1  0
 88 87  2  0
 89 84  2  0
 89 88  1  0
 90 89  1  0
 92 93  1  0
 93 96  1  0
 93 95  1  0
 94 92  2  0
 97 98  1  0
 97 72  1  0
 99 97  1  0
M  ISO  4  18 101  19 101  62 100  70 100
M  END
>  <TORSDO>  (69) 
F 24

>  <SCORE>  (69) 
21.715

>  <name>  (69) 
69

>  <ligand_id>  (69) 
69

>  <original_smiles>  (69) 
[H]c1c([H])c([H])c2c(c1[H])C([H])([H])C([H])([H])C([H])([H])C2([H])N([H])C(=O)C1([H])N(C(=O)C([H])(N([H])C(=O)C([H])(N([H])C([H])([H])[H])C([H])([H])[H])C(C([H])([H])[H])(C([H])([H])[H])C([H])([H])[H])C([H])([H])c2c([H])c(OC([H])([H])C([H])([H])C([H])([H])c3c(N([H])C([H])([H])C([H])(C([H])([H])[H])C([H])([H])[H])c(C([H])([H])C([H])([H])N([H])C(=O)N4C([H])([H])C([H])([H])C([H])([H])C([H])(n5nc(-c6c([H])c([H])c(Oc7c([H])c([H])c(F)c([H])c7F)c([H])c6[H])c(C(=O)N([H])[H])c5N([H])[H])C4([H])[H])c(C([H])([H])[H])[n+]([H])c3C([H])([H])[H])c([H])c([H])c2C1([H])[H]

>  <smiles>  (69) 
[H]c1c([H])c([H])c2c(c1[H])C([H])([H])C([H])([H])C([H])([H])C2([H])N([H])C(=O)C1([H])N(C(=O)C([H])(N([H])C(=O)C([H])(N([H])C([H])([H])[H])C([H])([H])[H])C(C([H])([H])[H])(C([H])([H])[H])C([H])([H])[H])C([H])([H])c2c([H])c(OC([H])([H])C([H])([H])C([H])([H])c3c(N([H])C([H])([H])C([H])(C([H])([H])[H])C([H])([H])[H])c(C([H])([H])C([H])([H])N([H])C(=O)N4C([H])([H])C([H])([H])C([H])([H])C([H])(n5nc(-c6c([H])c([H])c(Oc7c([H])c([H])c(F)c([H])c7F)c([H])c6[H])c(C(=O)N([H])[H])c5N([H])[H])C4([H])[H])c(C([H])([H])[H])[n+]([H])c3C([H])([H])[H])c([H])c([H])c2C1([H])[H]

$$$$
70:0:0
     RDKit          3D

 99107  0  0  1  0  0  0  0  0999 V2000
  -29.8100  -20.2600   18.9800 C   0  0  0  0  0  3  0  0  0  0  0  0
  -29.2480  -21.4280   19.4490 C   0  0  0  0  0  0  0  0  0  0  0  0
  -29.2100  -21.2740   20.8660 C   0  0  0  0  0  0  0  0  0  0  0  0
  -29.8750  -20.1170   21.2060 C   0  0  0  0  0  0  0  0  0  0  0  0
  -28.5450  -22.2220   21.8290 C   0  0  0  0  0  1  0  0  0  0  0  0
  -30.1390  -19.4000   20.0300 N   0  0  0  0  0  0  0  0  0  0  0  0
  -28.6540  -22.5860   18.6150 C   0  0  0  0  0  2  0  0  0  0  0  0
  -29.1280  -24.0720   18.8640 C   0  0  0  0  0  2  0  0  0  0  0  0
  -27.9740  -25.1040   18.6690 C   0  0  0  0  0  2  0  0  0  0  0  0
  -28.2010  -26.4970   19.0480 O   0  0  0  0  0  0  0  0  0  0  0  0
  -24.6480  -31.5340   22.7670 C   0  0  0  0  0  0  0  0  0  0  0  0
  -27.0700  -27.3090   19.1580 C   0  0  0  0  0  0  0  0  0  0  0  0
  -23.3530  -30.2990   21.0710 C   0  0  0  0  0  3  0  0  0  0  0  0
  -24.7160  -28.8950   19.4370 C   0  0  0  0  0  0  0  0  0  0  0  0
  -25.8780  -30.6290   20.7900 C   0  0  0  0  0  2  0  0  0  0  0  0
  -25.9150  -29.3160   20.0270 C   0  0  0  0  0  0  0  0  0  0  0  0
  -27.0940  -28.5320   19.8900 C   0  0  0  0  0  3  0  0  0  0  0  0
  -25.8430  -26.9400   18.5520 C   0  0  0  0  0  3  0  0  0  0  0  0
  -24.6780  -27.7070   18.7010 C   0  0  0  0  0  3  0  0  0  0  0  0
  -23.4890  -29.7570   19.6270 C   0  0  0  0  0  2  0  0  0  0  0  0
  -24.6490  -30.8290   21.6010 N   0  0  0  0  0  0  0  0  0  0  0  0
  -23.5940  -31.7740   23.3730 O   0  0  0  0  0  0  0  0  0  0  0  0
  -22.7290  -29.1990   21.9630 C   0  0  0  0  0  0  0  0  0  0  0  0
  -21.3910  -29.0820   21.9230 N   0  0  0  0  0  0  0  0  0  0  0  0
  -23.4410  -28.4610   22.6500 O   0  0  0  0  0  0  0  0  0  0  0  0
  -20.8750  -29.7280   21.3440 H   0  0  0  0  0  0  0  0  0  0  0  0
  -18.0120  -27.9700   22.5660 C   0  0  0  0  0  0  0  0  0  0  0  0
  -20.5940  -28.0970   22.6520 C   0  0  0  0  0  3  0  0  0  0  0  0
  -20.5870  -26.7390   21.9150 C   0  0  0  0  0  2  0  0  0  0  0  0
  -19.3960  -26.5730   20.9660 C   0  0  0  0  0  2  0  0  0  0  0  0
  -18.0760  -26.6980   21.7340 C   0  0  0  0  0  2  0  0  0  0  0  0
  -19.1960  -28.6340   22.9840 C   0  0  0  0  0  0  0  0  0  0  0  0
  -19.0850  -29.8300   23.7250 C   0  0  0  0  0  3  0  0  0  0  0  0
  -17.8230  -30.3630   24.0480 C   0  0  0  0  0  3  0  0  0  0  0  0
  -16.6540  -29.6900   23.6520 C   0  0  0  0  0  3  0  0  0  0  0  0
  -16.7500  -28.4970   22.9150 C   0  0  0  0  0  3  0  0  0  0  0  0
  -25.9670  -32.1000   23.3770 C   0  0  0  0  0  3  0  0  0  0  0  0
  -26.5940  -31.1550   24.4750 C   0  0  1  0  0  0  0  0  0  0  0  0
  -25.5940  -30.7380   25.5790 C   0  0  0  0  0  1  0  0  0  0  0  0
  -27.1490  -29.8610   23.8360 C   0  0  0  0  0  1  0  0  0  0  0  0
  -27.7970  -31.8560   25.1470 C   0  0  0  0  0  1  0  0  0  0  0  0
  -25.6620  -33.4240   23.9360 N   0  0  0  0  0  0  0  0  0  0  0  0
  -26.0050  -34.5870   23.3640 C   0  0  0  0  0  0  0  0  0  0  0  0
  -26.6810  -34.6540   22.3350 O   0  0  0  0  0  0  0  0  0  0  0  0
  -25.0490  -33.4460   24.7370 H   0  0  0  0  0  0  0  0  0  0  0  0
  -24.3120  -36.4490   23.2920 C   0  0  0  0  0  1  0  0  0  0  0  0
  -25.5240  -35.8800   24.0460 C   0  0  0  0  0  3  0  0  0  0  0  0
  -27.6380  -36.5760   25.0870 C   0  0  0  0  0  1  0  0  0  0  0  0
  -26.5730  -36.9170   24.1480 N   0  0  0  0  0  0  0  0  0  0  0  0
  -26.1700  -37.8050   24.4340 H   0  0  0  0  0  0  0  0  0  0  0  0
  -30.7140  -18.0350   19.8190 C   0  0  0  0  0  2  0  0  0  0  0  0
  -30.5560  -16.9950   20.9760 C   0  0  0  0  0  2  0  0  0  0  0  0
  -31.0420  -14.6040   20.1510 C   0  0  0  0  0  0  0  0  0  0  0  0
  -30.8500  -12.3360   19.1620 C   0  0  0  0  0  2  0  0  0  0  0  0
  -29.8720  -12.3820   17.9680 C   0  0  0  0  0  2  0  0  0  0  0  0
  -28.4110  -12.2270   18.4380 C   0  0  0  0  0  2  0  0  0  0  0  0
  -28.0630  -13.1570   19.6300 C   0  0  0  0  0  3  0  0  0  0  0  0
  -29.1410  -13.0560   20.7310 C   0  0  0  0  0  2  0  0  0  0  0  0
  -30.4390  -13.3820   20.1110 N   0  0  0  0  0  0  0  0  0  0  0  0
  -32.1670  -14.8180   19.6920 O   0  0  0  0  0  0  0  0  0  0  0  0
  -30.2540  -15.5950   20.6120 N   0  0  0  0  0  0  0  0  0  0  0  0
  -29.3180  -15.2930   20.8400 H   0  0  0  0  0  0  0  0  0  0  0  0
  -25.7240  -13.7760   20.5030 C   0  0  0  0  0  0  0  0  0  0  0  0
  -24.6480  -13.0100   20.8570 C   0  0  0  0  0  0  0  0  0  0  0  0
  -25.0610  -11.6510   20.6930 C   0  0  0  0  0  0  0  0  0  0  0  0
  -26.7260  -12.8870   20.1500 N   0  0  0  0  0  0  0  0  0  0  0  0
  -26.3320  -11.5980   20.3200 N   0  0  0  0  0  0  0  0  0  0  0  0
  -24.3040  -10.4000   20.8140 C   0  0  0  0  0  0  0  0  0  0  0  0
  -24.7230   -9.3600   21.6710 C   0  0  0  0  0  3  0  0  0  0  0  0
  -23.9650   -8.1740   21.7810 C   0  0  0  0  0  3  0  0  0  0  0  0
  -22.7730   -8.0200   21.0350 C   0  0  0  0  0  0  0  0  0  0  0  0
  -22.3710   -9.0510   20.1650 C   0  0  0  0  0  3  0  0  0  0  0  0
  -23.1300  -10.2280   20.0520 C   0  0  0  0  0  3  0  0  0  0  0  0
  -21.9870   -6.8940   21.0580 O   0  0  0  0  0  0  0  0  0  0  0  0
  -21.9300   -6.0810   22.1620 C   0  0  0  0  0  0  0  0  0  0  0  0
  -21.4600   -6.5470   23.4090 C   0  0  0  0  0  3  0  0  0  0  0  0
  -21.3530   -5.6600   24.4990 C   0  0  0  0  0  3  0  0  0  0  0  0
  -21.7060   -4.3070   24.3420 C   0  0  0  0  0  0  0  0  0  0  0  0
  -22.1690   -3.8380   23.0990 C   0  0  0  0  0  3  0  0  0  0  0  0
  -22.2780   -4.7230   22.0120 C   0  0  0  0  0  0  0  0  0  0  0  0
  -22.7050   -4.2610   20.8120 F   0  0  0  0  0  0  0  0  0  0  0  0
  -21.5950   -3.4520   25.3850 F   0  0  0  0  0  0  0  0  0  0  0  0
  -23.2810  -13.5030   21.2370 C   0  0  0  0  0  0  0  0  0  0  0  0
  -22.5800  -12.7690   22.0920 N   0  0  0  0  0  0  0  0  0  0  0  0
  -22.8470  -14.5740   20.8130 O   0  0  0  0  0  0  0  0  0  0  0  0
  -22.9430  -11.8970   22.4500 H   0  0  0  0  0  0  0  0  0  0  0  0
  -21.6680  -13.0810   22.3920 H   0  0  0  0  0  0  0  0  0  0  0  0
  -25.9290  -15.1530   20.4320 N   0  0  0  0  0  0  0  0  0  0  0  0
  -25.1910  -15.8200   20.6330 H   0  0  0  0  0  0  0  0  0  0  0  0
  -26.7760  -15.5940   20.0950 H   0  0  0  0  0  0  0  0  0  0  0  0
  -30.2360  -19.6910   22.6060 C   0  0  0  0  0  2  0  0  0  0  0  0
  -31.3190  -20.5430   23.1390 N   0  0  0  0  0  4  0  0  0  0  0  0
  -31.5190  -21.2590   22.4610 H   0  0  0  0  0  0  0  0  0  0  0  0
  -32.1500  -19.9810   23.2270 H   0  0  0  0  0  0  0  0  0  0  0  0
  -31.0360  -21.1840   24.4420 C   0  0  0  0  0  2  0  0  0  0  0  0
  -29.8030  -22.1210   24.3860 C   0  0  0  0  0  2  0  0  0  0  0  0
  -30.8740  -24.3540   23.7610 C   0  0  0  0  0  1  0  0  0  0  0  0
  -28.5040  -23.8740   23.0820 C   0  0  0  0  0  1  0  0  0  0  0  0
  -29.8890  -23.2540   23.3370 C   0  0  0  0  0  3  0  0  0  0  0  0
  1  2  2  0
  1  6  1  0
  2  3  1  0
  3  4  2  0
  3  5  1  0
  4 91  1  0
  6  4  1  0
  7  8  1  0
  7  2  1  0
  9  8  1  0
  9 10  1  0
 10 12  1  0
 11 22  2  0
 12 17  1  0
 13 21  1  0
 13 23  1  0
 14 20  1  0
 14 16  1  0
 15 21  1  0
 16 15  1  0
 17 16  2  0
 18 19  1  0
 18 12  2  0
 19 14  2  0
 20 13  1  0
 21 11  1  0
 23 25  2  0
 24 23  1  0
 26 24  1  0
 27 36  2  0
 27 32  1  0
 28 24  1  0
 28 32  1  0
 29 28  1  0
 30 31  1  0
 30 29  1  0
 31 27  1  0
 32 33  2  0
 33 34  1  0
 35 34  2  0
 36 35  1  0
 37 11  1  0
 37 42  1  0
 37 38  1  0
 38 41  1  1
 38 39  1  0
 40 38  1  0
 42 45  1  0
 43 42  1  0
 43 47  1  0
 44 43  2  0
 47 46  1  0
 47 49  1  0
 49 50  1  0
 49 48  1  0
 51  6  1  0
 51 52  1  0
 53 61  1  0
 54 59  1  0
 55 56  1  0
 55 54  1  0
 57 56  1  0
 57 66  1  0
 57 58  1  0
 59 53  1  0
 59 58  1  0
 60 53  2  0
 61 62  1  0
 61 52  1  0
 63 64  2  0
 64 83  1  0
 65 68  1  0
 65 64  1  0
 66 67  1  0
 66 63  1  0
 67 65  2  0
 68 69  1  0
 69 70  2  0
 71 74  1  0
 71 70  1  0
 72 71  2  0
 73 72  1  0
 73 68  2  0
 74 75  1  0
 75 76  1  0
 76 77  2  0
 78 77  1  0
 78 82  1  0
 79 78  2  0
 80 75  2  0
 80 79  1  0
 81 80  1  0
 83 84  1  0
 84 87  1  0
 84 86  1  0
 85 83  2  0
 88 63  1  0
 88 89  1  0
 90 88  1  0
 91 92  1  0
 92 94  1  0
 92 95  1  0
 93 92  1  0
 96 95  1  0
 98 99  1  0
 99 97  1  0
 99 96  1  0
M  ISO  4   9 101  10 101  53 100  61 100
M  END
>  <TORSDO>  (70) 
F 26

>  <SCORE>  (70) 
-8.081

>  <name>  (70) 
70

>  <ligand_id>  (70) 
70

>  <original_smiles>  (70) 
[H]c1c([H])c([H])c2c(c1[H])C([H])([H])C([H])([H])C([H])([H])C2([H])N([H])C(=O)C1([H])N(C(=O)C([H])(N([H])C(=O)C([H])(N([H])C([H])([H])[H])C([H])([H])[H])C(C([H])([H])[H])(C([H])([H])[H])C([H])([H])[H])C([H])([H])c2c([H])c(OC([H])([H])C([H])([H])C([H])([H])c3c(C([H])([H])[H])c(C([H])([H])[N+]([H])([H])C([H])([H])C([H])([H])C([H])(C([H])([H])[H])C([H])([H])[H])n(C([H])([H])C([H])([H])N([H])C(=O)N4C([H])([H])C([H])([H])C([H])([H])C([H])(n5nc(-c6c([H])c([H])c(Oc7c([H])c([H])c(F)c([H])c7F)c([H])c6[H])c(C(=O)N([H])[H])c5N([H])[H])C4([H])[H])c3[H])c([H])c([H])c2C1([H])[H]

>  <smiles>  (70) 
[H]c1c([H])c([H])c2c(c1[H])C([H])([H])C([H])([H])C([H])([H])C2([H])N([H])C(=O)C1([H])N(C(=O)C([H])(N([H])C(=O)C([H])(N([H])C([H])([H])[H])C([H])([H])[H])C(C([H])([H])[H])(C([H])([H])[H])C([H])([H])[H])C([H])([H])c2c([H])c(OC([H])([H])C([H])([H])C([H])([H])c3c(C([H])([H])[H])c(C([H])([H])[N+]([H])([H])C([H])([H])C([H])([H])C([H])(C([H])([H])[H])C([H])([H])[H])n(C([H])([H])C([H])([H])N([H])C(=O)N4C([H])([H])C([H])([H])C([H])([H])C([H])(n5nc(-c6c([H])c([H])c(Oc7c([H])c([H])c(F)c([H])c7F)c([H])c6[H])c(C(=O)N([H])[H])c5N([H])[H])C4([H])[H])c3[H])c([H])c([H])c2C1([H])[H]

$$$$
71:0:0
     RDKit          3D

 94101  0  0  1  0  0  0  0  0999 V2000
  -31.7680  -22.3120   23.9870 C   0  0  0  0  0  1  0  0  0  0  0  0
  -32.7790  -21.5580   21.8110 C   0  0  0  0  0  1  0  0  0  0  0  0
  -31.4670  -21.9950   22.5070 C   0  0  1  0  0  0  0  0  0  0  0  0
  -30.3970  -20.8740   22.3760 C   0  0  0  0  0  2  0  0  0  0  0  0
  -30.6670  -19.0770   24.0470 C   0  0  0  0  0  1  0  0  0  0  0  0
  -30.9210  -19.5070   22.6490 N   0  0  1  0  0  4  0  0  0  0  0  0
  -31.9210  -19.5730   22.5270 H   0  0  0  0  0  0  0  0  0  0  0  0
  -30.4360  -18.5230   21.6460 C   0  0  0  0  0  2  0  0  0  0  0  0
  -30.9650  -17.0860   21.8440 C   0  0  0  0  0  2  0  0  0  0  0  0
  -30.6280  -16.2340   20.6100 C   0  0  0  0  0  2  0  0  0  0  0  0
  -31.1680  -13.8660   20.1140 C   0  0  0  0  0  0  0  0  0  0  0  0
  -30.7100  -11.7680   18.9020 C   0  0  0  0  0  2  0  0  0  0  0  0
  -29.7280  -12.0630   17.7470 C   0  0  0  0  0  2  0  0  0  0  0  0
  -28.2670  -12.0100   18.2370 C   0  0  0  0  0  2  0  0  0  0  0  0
  -28.0400  -12.8450   19.5260 C   0  0  0  0  0  3  0  0  0  0  0  0
  -29.1130  -12.4890   20.5810 C   0  0  0  0  0  2  0  0  0  0  0  0
  -30.4430  -12.7260   19.9850 N   0  0  0  0  0  0  0  0  0  0  0  0
  -32.2100  -14.0930   19.4880 O   0  0  0  0  0  0  0  0  0  0  0  0
  -30.5820  -14.7990   20.8750 N   0  0  0  0  0  0  0  0  0  0  0  0
  -29.7850  -14.4650   21.3970 H   0  0  0  0  0  0  0  0  0  0  0  0
  -25.6990  -13.6060   20.2950 C   0  0  0  0  0  0  0  0  0  0  0  0
  -24.6010  -12.9000   20.7140 C   0  0  0  0  0  0  0  0  0  0  0  0
  -24.9860  -11.5250   20.6920 C   0  0  0  0  0  0  0  0  0  0  0  0
  -26.6870  -12.6640   20.0500 N   0  0  0  0  0  0  0  0  0  0  0  0
  -26.2610  -11.4080   20.3390 N   0  0  0  0  0  0  0  0  0  0  0  0
  -24.2020  -10.3080   20.9320 C   0  0  0  0  0  0  0  0  0  0  0  0
  -24.5960   -9.3520   21.8950 C   0  0  0  0  0  3  0  0  0  0  0  0
  -23.8140   -8.1980   22.1190 C   0  0  0  0  0  3  0  0  0  0  0  0
  -22.6260   -7.9910   21.3790 C   0  0  0  0  0  0  0  0  0  0  0  0
  -22.2520   -8.9340   20.4060 C   0  0  0  0  0  3  0  0  0  0  0  0
  -23.0320  -10.0800   20.1800 C   0  0  0  0  0  3  0  0  0  0  0  0
  -21.8190   -6.8870   21.5100 O   0  0  0  0  0  0  0  0  0  0  0  0
  -21.7170   -6.2080   22.6970 C   0  0  0  0  0  0  0  0  0  0  0  0
  -21.2820   -6.8400   23.8820 C   0  0  0  0  0  3  0  0  0  0  0  0
  -21.1250   -6.0890   25.0640 C   0  0  0  0  0  3  0  0  0  0  0  0
  -21.3930   -4.7070   25.0620 C   0  0  0  0  0  0  0  0  0  0  0  0
  -21.8210   -4.0750   23.8820 C   0  0  0  0  0  3  0  0  0  0  0  0
  -21.9800   -4.8230   22.7010 C   0  0  0  0  0  0  0  0  0  0  0  0
  -22.3720   -4.2040   21.5610 F   0  0  0  0  0  0  0  0  0  0  0  0
  -21.2340   -3.9840   26.1950 F   0  0  0  0  0  0  0  0  0  0  0  0
  -23.2430  -13.4590   21.0290 C   0  0  0  0  0  0  0  0  0  0  0  0
  -22.5140  -12.8190   21.9370 N   0  0  0  0  0  0  0  0  0  0  0  0
  -22.8390  -14.4950   20.5030 O   0  0  0  0  0  0  0  0  0  0  0  0
  -22.8520  -11.9780   22.3810 H   0  0  0  0  0  0  0  0  0  0  0  0
  -21.6030  -13.1760   22.1900 H   0  0  0  0  0  0  0  0  0  0  0  0
  -25.9330  -14.9620   20.0880 N   0  0  0  0  0  0  0  0  0  0  0  0
  -25.2140  -15.6650   20.2130 H   0  0  0  0  0  0  0  0  0  0  0  0
  -26.8000  -15.3470   19.7360 H   0  0  0  0  0  0  0  0  0  0  0  0
  -30.9820  -23.2860   21.7840 C   0  0  0  0  0  2  0  0  0  0  0  0
  -29.6120  -23.8780   22.1960 C   0  0  0  0  0  2  0  0  0  0  0  0
  -29.2810  -25.1830   21.4350 C   0  0  0  0  0  2  0  0  0  0  0  0
  -28.4860  -24.0230   19.4810 C   0  0  0  0  0  1  0  0  0  0  0  0
  -28.1700  -25.0300   20.4910 N   0  0  0  0  0  0  0  0  0  0  0  0
  -28.1670  -26.2580   19.7460 O   0  0  0  0  0  0  0  0  0  0  0  0
  -24.6740  -31.4900   23.0960 C   0  0  0  0  0  0  0  0  0  0  0  0
  -27.0050  -26.9730   19.8960 C   0  0  0  0  0  0  0  0  0  0  0  0
  -23.3550  -30.1950   21.4460 C   0  0  0  0  0  3  0  0  0  0  0  0
  -24.6910  -28.5860   19.9850 C   0  0  0  0  0  0  0  0  0  0  0  0
  -25.8930  -30.4000   21.2200 C   0  0  0  0  0  2  0  0  0  0  0  0
  -25.8830  -29.0350   20.5650 C   0  0  0  0  0  0  0  0  0  0  0  0
  -27.0410  -28.2300   20.5310 C   0  0  0  0  0  3  0  0  0  0  0  0
  -25.7960  -26.5210   19.3240 C   0  0  0  0  0  3  0  0  0  0  0  0
  -24.6370  -27.3210   19.3710 C   0  0  0  0  0  3  0  0  0  0  0  0
  -23.5030  -29.5210   20.0550 C   0  0  0  0  0  2  0  0  0  0  0  0
  -24.6580  -30.7090   21.9790 N   0  0  0  0  0  0  0  0  0  0  0  0
  -23.6220  -31.8230   23.6570 O   0  0  0  0  0  0  0  0  0  0  0  0
  -22.6570  -29.2000   22.4010 C   0  0  0  0  0  0  0  0  0  0  0  0
  -21.3230  -29.1020   22.2870 N   0  0  0  0  0  0  0  0  0  0  0  0
  -23.3100  -28.5210   23.1980 O   0  0  0  0  0  0  0  0  0  0  0  0
  -20.8640  -29.6980   21.6120 H   0  0  0  0  0  0  0  0  0  0  0  0
  -17.8870  -28.1070   22.7930 C   0  0  0  0  0  0  0  0  0  0  0  0
  -20.4580  -28.2060   23.0520 C   0  0  0  0  0  3  0  0  0  0  0  0
  -20.4720  -26.7790   22.4590 C   0  0  0  0  0  2  0  0  0  0  0  0
  -19.3460  -26.5350   21.4480 C   0  0  0  0  0  2  0  0  0  0  0  0
  -17.9800  -26.7570   22.1010 C   0  0  0  0  0  2  0  0  0  0  0  0
  -19.0530  -28.7960   23.2230 C   0  0  0  0  0  0  0  0  0  0  0  0
  -18.9160  -30.0630   23.8270 C   0  0  0  0  0  3  0  0  0  0  0  0
  -17.6470  -30.6440   24.0060 C   0  0  0  0  0  3  0  0  0  0  0  0
  -16.4960  -29.9520   23.5920 C   0  0  0  0  0  3  0  0  0  0  0  0
  -16.6170  -28.6850   22.9930 C   0  0  0  0  0  3  0  0  0  0  0  0
  -26.0110  -32.0230   23.7020 C   0  0  0  0  0  3  0  0  0  0  0  0
  -26.5170  -31.1800   24.9350 C   0  0  1  0  0  0  0  0  0  0  0  0
  -25.4420  -30.9740   26.0270 C   0  0  0  0  0  1  0  0  0  0  0  0
  -27.0080  -29.7860   24.4810 C   0  0  0  0  0  1  0  0  0  0  0  0
  -27.7270  -31.8880   25.5920 C   0  0  0  0  0  1  0  0  0  0  0  0
  -25.7910  -33.4240   24.0830 N   0  0  0  0  0  0  0  0  0  0  0  0
  -26.1850  -34.4790   23.3590 C   0  0  0  0  0  0  0  0  0  0  0  0
  -26.8400  -34.3720   22.3190 O   0  0  0  0  0  0  0  0  0  0  0  0
  -25.2130  -33.5850   24.8940 H   0  0  0  0  0  0  0  0  0  0  0  0
  -24.5640  -36.3810   23.0830 C   0  0  0  0  0  1  0  0  0  0  0  0
  -25.7850  -35.8760   23.8710 C   0  0  0  0  0  3  0  0  0  0  0  0
  -27.9690  -36.5980   24.7240 C   0  0  0  0  0  1  0  0  0  0  0  0
  -26.8790  -36.8670   23.7880 N   0  0  0  0  0  0  0  0  0  0  0  0
  -26.5290  -37.8020   23.9720 H   0  0  0  0  0  0  0  0  0  0  0  0
  3  2  1  6
  3  1  1  0
  4  3  1  0
  4  6  1  0
  6  5  1  0
  6  7  1  1
  8  9  1  0
  8  6  1  0
 10 19  1  0
 10  9  1  0
 11 19  1  0
 12 17  1  0
 13 14  1  0
 13 12  1  0
 15 14  1  0
 15 24  1  0
 15 16  1  0
 17 11  1  0
 17 16  1  0
 18 11  2  0
 19 20  1  0
 21 22  2  0
 22 41  1  0
 23 22  1  0
 23 26  1  0
 24 21  1  0
 24 25  1  0
 25 23  2  0
 26 27  1  0
 27 28  2  0
 29 32  1  0
 29 28  1  0
 30 29  2  0
 31 30  1  0
 31 26  2  0
 32 33  1  0
 33 38  2  0
 33 34  1  0
 34 35  2  0
 36 35  1  0
 36 40  1  0
 37 36  2  0
 38 37  1  0
 39 38  1  0
 41 42  1  0
 42 45  1  0
 42 44  1  0
 43 41  2  0
 46 47  1  0
 46 21  1  0
 48 46  1  0
 49 50  1  0
 49  3  1  0
 51 50  1  0
 52 53  1  0
 53 51  1  0
 54 56  1  0
 54 53  1  0
 55 66  2  0
 56 61  1  0
 57 65  1  0
 57 67  1  0
 58 64  1  0
 58 60  1  0
 59 65  1  0
 60 59  1  0
 61 60  2  0
 62 63  1  0
 62 56  2  0
 63 58  2  0
 64 57  1  0
 65 55  1  0
 67 69  2  0
 68 67  1  0
 70 68  1  0
 71 80  2  0
 71 76  1  0
 72 68  1  0
 72 76  1  0
 73 72  1  0
 74 75  1  0
 74 73  1  0
 75 71  1  0
 76 77  2  0
 77 78  1  0
 79 78  2  0
 80 79  1  0
 81 55  1  0
 81 86  1  0
 81 82  1  0
 82 85  1  1
 82 83  1  0
 84 82  1  0
 86 89  1  0
 87 91  1  0
 87 86  1  0
 88 87  2  0
 91 90  1  0
 93 91  1  0
 93 94  1  0
 93 92  1  0
M  ISO  4  11 100  19 100  53 101  54 101
M  END
>  <TORSDO>  (71) 
F 25

>  <SCORE>  (71) 
-9.658

>  <name>  (71) 
71

>  <ligand_id>  (71) 
71

>  <original_smiles>  (71) 
[H]c1c([H])c([H])c2c(c1[H])C([H])([H])C([H])([H])C([H])([H])C2([H])N([H])C(=O)C1([H])N(C(=O)C([H])(N([H])C(=O)C([H])(N([H])C([H])([H])[H])C([H])([H])[H])C(C([H])([H])[H])(C([H])([H])[H])C([H])([H])[H])C([H])([H])c2c([H])c(ON(C([H])([H])[H])C([H])([H])C([H])([H])C([H])([H])C(C([H])([H])[H])(C([H])([H])[H])C([H])([H])[N+]([H])(C([H])([H])[H])C([H])([H])C([H])([H])C([H])([H])N([H])C(=O)N3C([H])([H])C([H])([H])C([H])([H])C([H])(n4nc(-c5c([H])c([H])c(Oc6c([H])c([H])c(F)c([H])c6F)c([H])c5[H])c(C(=O)N([H])[H])c4N([H])[H])C3([H])[H])c([H])c([H])c2C1([H])[H]

>  <smiles>  (71) 
[H]c1c([H])c([H])c2c(c1[H])C([H])([H])C([H])([H])C([H])([H])C2([H])N([H])C(=O)C1([H])N(C(=O)C([H])(N([H])C(=O)C([H])(N([H])C([H])([H])[H])C([H])([H])[H])C(C([H])([H])[H])(C([H])([H])[H])C([H])([H])[H])C([H])([H])c2c([H])c(ON(C([H])([H])[H])C([H])([H])C([H])([H])C([H])([H])C(C([H])([H])[H])(C([H])([H])[H])C([H])([H])[N+]([H])(C([H])([H])[H])C([H])([H])C([H])([H])C([H])([H])N([H])C(=O)N3C([H])([H])C([H])([H])C([H])([H])C([H])(n4nc(-c5c([H])c([H])c(Oc6c([H])c([H])c(F)c([H])c6F)c([H])c5[H])c(C(=O)N([H])[H])c4N([H])[H])C3([H])[H])c([H])c([H])c2C1([H])[H]

$$$$
72:0:0
     RDKit          3D

 92100  0  0  1  0  0  0  0  0999 V2000
  -30.3690  -20.7310   18.5110 C   0  0  0  0  0  3  0  0  0  0  0  0
  -30.7460  -19.3750   18.2510 C   0  0  0  0  0  3  0  0  0  0  0  0
  -30.3280  -20.9560   19.8600 C   0  0  0  0  0  0  0  0  0  0  0  0
  -30.9780  -18.7110   19.4280 C   0  0  0  0  0  0  0  0  0  0  0  0
  -30.6110  -19.6680   20.4330 N   0  0  0  0  0  0  0  0  0  0  0  0
  -29.6260  -18.1500   22.1100 C   0  0  0  0  0  1  0  0  0  0  0  0
  -30.5070  -19.3860   21.8730 C   0  0  0  0  0  3  0  0  0  0  0  0
  -32.9460  -20.2520   22.1620 C   0  0  0  0  0  1  0  0  0  0  0  0
  -31.8450  -19.2970   22.6430 C   0  0  0  0  0  2  0  0  0  0  0  0
  -30.0350  -22.2840   20.6660 C   0  0  0  0  0  2  0  0  0  0  0  0
  -29.9770  -23.7550   19.9870 C   0  0  0  0  0  3  0  0  0  0  0  0
  -29.4320  -24.9920   20.8790 C   0  0  0  0  0  3  0  0  0  0  0  0
  -29.5010  -26.4290   20.4530 O   0  0  0  0  0  0  0  0  0  0  0  0
  -24.8650  -31.2940   23.2170 C   0  0  0  0  0  0  0  0  0  0  0  0
  -28.2990  -27.1570   20.3610 C   0  0  0  0  0  0  0  0  0  0  0  0
  -23.9980  -29.7820   21.4690 C   0  0  0  0  0  3  0  0  0  0  0  0
  -25.7540  -28.4600   20.1600 C   0  0  0  0  0  0  0  0  0  0  0  0
  -26.4810  -30.4340   21.4990 C   0  0  0  0  0  2  0  0  0  0  0  0
  -26.7990  -29.0880   20.8510 C   0  0  0  0  0  0  0  0  0  0  0  0
  -28.0790  -28.4540   20.9310 C   0  0  0  0  0  3  0  0  0  0  0  0
  -27.2260  -26.5830   19.6510 C   0  0  0  0  0  3  0  0  0  0  0  0
  -25.9700  -27.2140   19.5500 C   0  0  0  0  0  3  0  0  0  0  0  0
  -24.4130  -29.1630   20.1090 C   0  0  0  0  0  2  0  0  0  0  0  0
  -25.1270  -30.5210   22.1210 N   0  0  0  0  0  0  0  0  0  0  0  0
  -23.7140  -31.4160   23.6590 O   0  0  0  0  0  0  0  0  0  0  0  0
  -23.3980  -28.6700   22.3620 C   0  0  0  0  0  0  0  0  0  0  0  0
  -22.1420  -28.2810   22.0850 N   0  0  0  0  0  0  0  0  0  0  0  0
  -24.0680  -28.1600   23.2650 O   0  0  0  0  0  0  0  0  0  0  0  0
  -21.6520  -28.7530   21.3370 H   0  0  0  0  0  0  0  0  0  0  0  0
  -18.9840  -26.5180   22.1770 C   0  0  0  0  0  0  0  0  0  0  0  0
  -21.4000  -27.2220   22.7710 C   0  0  0  0  0  3  0  0  0  0  0  0
  -21.8230  -25.8260   22.2570 C   0  0  0  0  0  2  0  0  0  0  0  0
  -20.9390  -25.3090   21.1180 C   0  0  0  0  0  2  0  0  0  0  0  0
  -19.4790  -25.2160   21.5690 C   0  0  0  0  0  2  0  0  0  0  0  0
  -19.8870  -27.4670   22.7270 C   0  0  0  0  0  0  0  0  0  0  0  0
  -19.3760  -28.6750   23.2470 C   0  0  0  0  0  3  0  0  0  0  0  0
  -17.9940  -28.9430   23.2230 C   0  0  0  0  0  3  0  0  0  0  0  0
  -17.1040  -27.9940   22.6910 C   0  0  0  0  0  3  0  0  0  0  0  0
  -17.5990  -26.7850   22.1740 C   0  0  0  0  0  3  0  0  0  0  0  0
  -25.9960  -32.0780   23.9520 C   0  0  0  0  0  3  0  0  0  0  0  0
  -25.5200  -33.4520   24.1660 N   0  0  0  0  0  0  0  0  0  0  0  0
  -25.8250  -34.4950   23.3820 C   0  0  0  0  0  0  0  0  0  0  0  0
  -26.6040  -34.4090   22.4270 O   0  0  0  0  0  0  0  0  0  0  0  0
  -24.8360  -33.5880   24.8970 H   0  0  0  0  0  0  0  0  0  0  0  0
  -23.9670  -36.0730   22.7660 C   0  0  0  0  0  1  0  0  0  0  0  0
  -25.1620  -35.8470   23.7060 C   0  0  0  0  0  3  0  0  0  0  0  0
  -27.1120  -36.9950   24.6620 C   0  0  0  0  0  1  0  0  0  0  0  0
  -26.0920  -36.9950   23.6160 N   0  0  0  0  0  0  0  0  0  0  0  0
  -25.5850  -37.8740   23.6680 H   0  0  0  0  0  0  0  0  0  0  0  0
  -26.4170  -31.4190   25.3230 C   0  0  1  0  0  0  0  0  0  0  0  0
  -25.2250  -31.1200   26.2620 C   0  0  0  0  0  1  0  0  0  0  0  0
  -27.1700  -30.0920   25.0830 C   0  0  0  0  0  1  0  0  0  0  0  0
  -27.3960  -32.3520   26.0740 C   0  0  0  0  0  1  0  0  0  0  0  0
  -31.7220  -17.3260   19.6130 C   0  0  0  0  0  2  0  0  0  0  0  0
  -31.7780  -14.7420   19.3250 C   0  0  0  0  0  0  0  0  0  0  0  0
  -31.3510  -12.3950   18.5930 C   0  0  0  0  0  2  0  0  0  0  0  0
  -30.3180  -12.3940   17.4480 C   0  0  0  0  0  2  0  0  0  0  0  0
  -28.8820  -12.3790   18.0090 C   0  0  0  0  0  2  0  0  0  0  0  0
  -28.6660  -13.4240   19.1360 C   0  0  0  0  0  3  0  0  0  0  0  0
  -29.8080  -13.3870   20.1720 C   0  0  0  0  0  2  0  0  0  0  0  0
  -31.0620  -13.5750   19.4360 N   0  0  0  0  0  0  0  0  0  0  0  0
  -32.9550  -14.7090   18.9550 O   0  0  0  0  0  0  0  0  0  0  0  0
  -31.1070  -15.9470   19.4440 N   0  0  0  0  0  0  0  0  0  0  0  0
  -30.1160  -15.8820   19.6140 H   0  0  0  0  0  0  0  0  0  0  0  0
  -26.4620  -14.2780   20.1290 C   0  0  0  0  0  0  0  0  0  0  0  0
  -25.3490  -13.6280   20.5890 C   0  0  0  0  0  0  0  0  0  0  0  0
  -25.6300  -12.2320   20.4760 C   0  0  0  0  0  0  0  0  0  0  0  0
  -27.3550  -13.2860   19.7610 N   0  0  0  0  0  0  0  0  0  0  0  0
  -26.8680  -12.0470   20.0330 N   0  0  0  0  0  0  0  0  0  0  0  0
  -24.7720  -11.0630   20.7090 C   0  0  0  0  0  0  0  0  0  0  0  0
  -25.1160  -10.0690   21.6520 C   0  0  0  0  0  3  0  0  0  0  0  0
  -24.2640   -8.9650   21.8690 C   0  0  0  0  0  3  0  0  0  0  0  0
  -23.0550   -8.8480   21.1440 C   0  0  0  0  0  0  0  0  0  0  0  0
  -22.7290   -9.8270   20.1900 C   0  0  0  0  0  3  0  0  0  0  0  0
  -23.5810  -10.9230   19.9700 C   0  0  0  0  0  3  0  0  0  0  0  0
  -22.1790   -7.7960   21.2710 O   0  0  0  0  0  0  0  0  0  0  0  0
  -21.9770   -7.1690   22.4740 C   0  0  0  0  0  0  0  0  0  0  0  0
  -21.5100   -7.8690   23.6090 C   0  0  0  0  0  3  0  0  0  0  0  0
  -21.2500   -7.1730   24.8070 C   0  0  0  0  0  3  0  0  0  0  0  0
  -21.4450   -5.7800   24.8700 C   0  0  0  0  0  0  0  0  0  0  0  0
  -21.9040   -5.0810   23.7390 C   0  0  0  0  0  3  0  0  0  0  0  0
  -22.1660   -5.7750   22.5440 C   0  0  0  0  0  0  0  0  0  0  0  0
  -22.5880   -5.0950   21.4510 F   0  0  0  0  0  0  0  0  0  0  0  0
  -21.1880   -5.1080   26.0170 F   0  0  0  0  0  0  0  0  0  0  0  0
  -24.0580  -14.2640   21.0150 C   0  0  0  0  0  0  0  0  0  0  0  0
  -23.3460  -13.6430   21.9480 N   0  0  0  0  0  0  0  0  0  0  0  0
  -23.6940  -15.3460   20.5520 O   0  0  0  0  0  0  0  0  0  0  0  0
  -23.6560  -12.7670   22.3430 H   0  0  0  0  0  0  0  0  0  0  0  0
  -22.4800  -14.0490   22.2740 H   0  0  0  0  0  0  0  0  0  0  0  0
  -26.7770  -15.6230   19.9690 N   0  0  0  0  0  0  0  0  0  0  0  0
  -26.1070  -16.3570   20.1760 H   0  0  0  0  0  0  0  0  0  0  0  0
  -27.6150  -15.9710   19.5220 H   0  0  0  0  0  0  0  0  0  0  0  0
  1  3  2  0
  2  1  1  0
  2  4  2  0
  3  5  1  0
  3 10  1  0
  4 54  1  0
  4  5  1  0
  5  7  1  0
  7  6  1  0
  7  9  1  0
  8  9  1  0
 11 10  1  0
 11 12  2  0
 13 12  1  0
 14 25  2  0
 15 13  1  0
 15 20  1  0
 16 24  1  0
 16 26  1  0
 17 19  1  0
 18 24  1  0
 19 20  2  0
 19 18  1  0
 21 15  2  0
 22 21  1  0
 22 17  2  0
 23 17  1  0
 23 16  1  0
 24 14  1  0
 26 28  2  0
 27 26  1  0
 29 27  1  0
 30 35  1  0
 31 27  1  0
 32 31  1  0
 33 34  1  0
 33 32  1  0
 34 30  1  0
 35 31  1  0
 35 36  2  0
 37 36  1  0
 38 37  2  0
 39 30  2  0
 39 38  1  0
 40 14  1  0
 40 41  1  0
 40 50  1  0
 41 44  1  0
 42 46  1  0
 42 41  1  0
 43 42  2  0
 46 45  1  0
 48 49  1  0
 48 46  1  0
 48 47  1  0
 50 53  1  1
 50 51  1  0
 52 50  1  0
 55 61  1  0
 55 63  1  0
 56 61  1  0
 57 58  1  0
 57 56  1  0
 59 58  1  0
 59 68  1  0
 59 60  1  0
 61 60  1  0
 62 55  2  0
 63 54  1  0
 63 64  1  0
 65 66  2  0
 66 85  1  0
 67 66  1  0
 67 70  1  0
 68 69  1  0
 68 65  1  0
 69 67  2  0
 70 71  1  0
 71 72  2  0
 73 76  1  0
 73 72  1  0
 74 73  2  0
 75 74  1  0
 75 70  2  0
 76 77  1  0
 77 82  2  0
 77 78  1  0
 78 79  2  0
 79 80  1  0
 80 84  1  0
 81 80  2  0
 82 81  1  0
 83 82  1  0
 85 86  1  0
 86 89  1  0
 86 88  1  0
 87 85  2  0
 90 65  1  0
 90 91  1  0
 92 90  1  0
M  ISO  4  12 101  13 101  55 100  63 100
M  END
>  <TORSDO>  (72) 
F 22

>  <SCORE>  (72) 
-9.357

>  <name>  (72) 
72

>  <ligand_id>  (72) 
72

>  <original_smiles>  (72) 
[H]c1c([H])c([H])c2c(c1[H])C([H])([H])C([H])([H])C([H])([H])C2([H])N([H])C(=O)C1([H])N(C(=O)C([H])(N([H])C(=O)C([H])(N([H])C([H])([H])[H])C([H])([H])[H])C(C([H])([H])[H])(C([H])([H])[H])C([H])([H])[H])C([H])([H])c2c([H])c(OC([H])([H])C([H])([H])C([H])([H])c3c([H])c([H])c(C([H])([H])N([H])C(=O)N4C([H])([H])C([H])([H])C([H])([H])C([H])(n5nc(-c6c([H])c([H])c(Oc7c([H])c([H])c(F)c([H])c7F)c([H])c6[H])c(C(=O)N([H])[H])c5N([H])[H])C4([H])[H])n3C([H])(C([H])([H])[H])C([H])([H])C([H])([H])[H])c([H])c([H])c2C1([H])[H]

>  <smiles>  (72) 
[H]c1c([H])c([H])c2c(c1[H])C([H])([H])C([H])([H])C([H])([H])C2([H])N([H])C(=O)C1([H])N(C(=O)C([H])(N([H])C(=O)C([H])(N([H])C([H])([H])[H])C([H])([H])[H])C(C([H])([H])[H])(C([H])([H])[H])C([H])([H])[H])C([H])([H])c2c([H])c(OC([H])([H])C([H])([H])C([H])([H])c3c([H])c([H])c(C([H])([H])N([H])C(=O)N4C([H])([H])C([H])([H])C([H])([H])C([H])(n5nc(-c6c([H])c([H])c(Oc7c([H])c([H])c(F)c([H])c7F)c([H])c6[H])c(C(=O)N([H])[H])c5N([H])[H])C4([H])[H])n3C([H])(C([H])([H])[H])C([H])([H])C([H])([H])[H])c([H])c([H])c2C1([H])[H]

$$$$
73:0:0
     RDKit          3D

 93101  0  0  1  0  0  0  0  0999 V2000
  -30.0690  -22.8410   22.1410 C   0  0  0  0  0  2  0  0  0  0  0  0
  -28.4820  -24.7350   22.8360 C   0  0  0  0  0  1  0  0  0  0  0  0
  -28.9900  -23.8410   21.6900 C   0  0  0  0  0  3  0  0  0  0  0  0
  -30.6710  -25.5090   20.5840 C   0  0  0  0  0  1  0  0  0  0  0  0
  -29.4160  -24.6220   20.4110 C   0  0  0  0  0  3  0  0  0  0  0  0
  -28.2240  -25.3640   19.7520 C   0  0  0  0  0  2  0  0  0  0  0  0
  -28.2270  -26.7580   20.0700 O   0  0  0  0  0  0  0  0  0  0  0  0
  -24.6000  -31.9330   23.2650 C   0  0  0  0  0  0  0  0  0  0  0  0
  -27.0450  -27.4700   20.0630 C   0  0  0  0  0  0  0  0  0  0  0  0
  -23.3170  -30.5850   21.6380 C   0  0  0  0  0  3  0  0  0  0  0  0
  -24.6870  -29.0360   20.1510 C   0  0  0  0  0  0  0  0  0  0  0  0
  -25.8430  -30.8820   21.3770 C   0  0  0  0  0  2  0  0  0  0  0  0
  -25.8720  -29.5170   20.7230 C   0  0  0  0  0  0  0  0  0  0  0  0
  -27.0470  -28.7400   20.6810 C   0  0  0  0  0  3  0  0  0  0  0  0
  -25.8450  -27.0050   19.4720 C   0  0  0  0  0  3  0  0  0  0  0  0
  -24.6690  -27.7770   19.5280 C   0  0  0  0  0  3  0  0  0  0  0  0
  -23.4690  -29.9240   20.2430 C   0  0  0  0  0  2  0  0  0  0  0  0
  -24.6080  -31.1460   22.1510 N   0  0  0  0  0  0  0  0  0  0  0  0
  -23.5420  -32.2230   23.8390 O   0  0  0  0  0  0  0  0  0  0  0  0
  -22.6680  -29.5660   22.6000 C   0  0  0  0  0  0  0  0  0  0  0  0
  -21.3430  -29.3730   22.4650 N   0  0  0  0  0  0  0  0  0  0  0  0
  -23.3490  -28.9520   23.4270 O   0  0  0  0  0  0  0  0  0  0  0  0
  -20.8520  -29.9170   21.7700 H   0  0  0  0  0  0  0  0  0  0  0  0
  -17.9910  -28.0970   22.8850 C   0  0  0  0  0  0  0  0  0  0  0  0
  -20.5280  -28.4400   23.2400 C   0  0  0  0  0  3  0  0  0  0  0  0
  -20.6910  -26.9930   22.7190 C   0  0  0  0  0  2  0  0  0  0  0  0
  -19.6360  -26.6030   21.6780 C   0  0  0  0  0  2  0  0  0  0  0  0
  -18.2270  -26.7310   22.2630 C   0  0  0  0  0  2  0  0  0  0  0  0
  -19.0710  -28.9050   23.3290 C   0  0  0  0  0  0  0  0  0  0  0  0
  -18.7940  -30.1790   23.8670 C   0  0  0  0  0  3  0  0  0  0  0  0
  -17.4700  -30.6490   23.9660 C   0  0  0  0  0  3  0  0  0  0  0  0
  -16.4040  -29.8380   23.5410 C   0  0  0  0  0  3  0  0  0  0  0  0
  -16.6650  -28.5650   23.0060 C   0  0  0  0  0  3  0  0  0  0  0  0
  -25.9200  -32.5260   23.8560 C   0  0  0  0  0  3  0  0  0  0  0  0
  -25.6500  -33.9210   24.2260 N   0  0  0  0  0  0  0  0  0  0  0  0
  -25.9970  -34.9830   23.4890 C   0  0  0  0  0  0  0  0  0  0  0  0
  -26.6490  -34.8900   22.4450 O   0  0  0  0  0  0  0  0  0  0  0  0
  -25.0690  -34.0690   25.0400 H   0  0  0  0  0  0  0  0  0  0  0  0
  -24.3090  -36.8280   23.1980 C   0  0  0  0  0  1  0  0  0  0  0  0
  -25.5490  -36.3720   23.9840 C   0  0  0  0  0  3  0  0  0  0  0  0
  -27.7180  -37.1790   24.8070 C   0  0  0  0  0  1  0  0  0  0  0  0
  -26.6070  -37.4020   23.8850 N   0  0  0  0  0  0  0  0  0  0  0  0
  -26.2270  -38.3270   24.0640 H   0  0  0  0  0  0  0  0  0  0  0  0
  -26.4600  -31.7160   25.0970 C   0  0  1  0  0  0  0  0  0  0  0  0
  -25.3960  -31.4680   26.1930 C   0  0  0  0  0  1  0  0  0  0  0  0
  -27.0100  -30.3410   24.6500 C   0  0  0  0  0  1  0  0  0  0  0  0
  -27.6430  -32.4760   25.7440 C   0  0  0  0  0  1  0  0  0  0  0  0
  -29.7160  -21.9900   23.3740 C   0  0  0  0  0  2  0  0  0  0  0  0
  -29.9270  -19.4700   23.3050 C   0  0  0  0  0  3  0  0  0  0  0  0
  -31.7910  -20.5980   23.3070 C   0  0  0  0  0  3  0  0  0  0  0  0
  -30.9920  -18.6100   23.1930 C   0  0  0  0  0  0  0  0  0  0  0  0
  -32.1870  -19.3320   23.2190 N   0  0  0  0  0  0  0  0  0  0  0  0
  -30.4580  -20.7490   23.3430 N   0  0  0  0  0  0  0  0  0  0  0  0
  -30.9530  -17.1230   23.0520 C   0  0  0  0  0  2  0  0  0  0  0  0
  -31.4520  -16.6560   21.6730 C   0  0  0  0  0  2  0  0  0  0  0  0
  -31.4390  -14.5220   20.4020 C   0  0  0  0  0  0  0  0  0  0  0  0
  -30.9870  -12.4660   19.1160 C   0  0  0  0  0  2  0  0  0  0  0  0
  -30.0920  -12.7730   17.9000 C   0  0  0  0  0  2  0  0  0  0  0  0
  -28.6000  -12.7620   18.2850 C   0  0  0  0  0  2  0  0  0  0  0  0
  -28.3020  -13.5960   19.5590 C   0  0  0  0  0  3  0  0  0  0  0  0
  -29.2950  -13.2340   20.6850 C   0  0  0  0  0  2  0  0  0  0  0  0
  -30.6690  -13.4280   20.1780 N   0  0  0  0  0  0  0  0  0  0  0  0
  -32.4710  -14.7860   19.7780 O   0  0  0  0  0  0  0  0  0  0  0  0
  -30.9920  -15.3020   21.3880 N   0  0  0  0  0  0  0  0  0  0  0  0
  -30.1960  -14.9680   21.9050 H   0  0  0  0  0  0  0  0  0  0  0  0
  -25.9300  -14.3970   20.1930 C   0  0  0  0  0  0  0  0  0  0  0  0
  -24.7980  -13.7130   20.5450 C   0  0  0  0  0  0  0  0  0  0  0  0
  -25.1550  -12.3300   20.5390 C   0  0  0  0  0  0  0  0  0  0  0  0
  -26.9120  -13.4360   19.9950 N   0  0  0  0  0  0  0  0  0  0  0  0
  -26.4440  -12.1880   20.2580 N   0  0  0  0  0  0  0  0  0  0  0  0
  -24.3290  -11.1290   20.7270 C   0  0  0  0  0  0  0  0  0  0  0  0
  -24.6510  -10.1590   21.7010 C   0  0  0  0  0  3  0  0  0  0  0  0
  -23.8350   -9.0200   21.8760 C   0  0  0  0  0  3  0  0  0  0  0  0
  -22.6790   -8.8490   21.0770 C   0  0  0  0  0  0  0  0  0  0  0  0
  -22.3760   -9.8060   20.0920 C   0  0  0  0  0  3  0  0  0  0  0  0
  -23.1920  -10.9360   19.9150 C   0  0  0  0  0  3  0  0  0  0  0  0
  -21.8390   -7.7650   21.1580 O   0  0  0  0  0  0  0  0  0  0  0  0
  -21.6480   -7.0900   22.3390 C   0  0  0  0  0  0  0  0  0  0  0  0
  -21.2000   -7.7450   23.5080 C   0  0  0  0  0  3  0  0  0  0  0  0
  -20.9480   -7.0000   24.6780 C   0  0  0  0  0  3  0  0  0  0  0  0
  -21.1340   -5.6050   24.6800 C   0  0  0  0  0  0  0  0  0  0  0  0
  -21.5760   -4.9520   23.5160 C   0  0  0  0  0  3  0  0  0  0  0  0
  -21.8290   -5.6920   22.3480 C   0  0  0  0  0  0  0  0  0  0  0  0
  -22.2310   -5.0550   21.2220 F   0  0  0  0  0  0  0  0  0  0  0  0
  -20.8870   -4.8890   25.8000 F   0  0  0  0  0  0  0  0  0  0  0  0
  -23.4330  -14.2940   20.7780 C   0  0  0  0  0  0  0  0  0  0  0  0
  -22.6410  -13.6830   21.6520 N   0  0  0  0  0  0  0  0  0  0  0  0
  -23.0750  -15.3290   20.2160 O   0  0  0  0  0  0  0  0  0  0  0  0
  -22.9370  -12.8500   22.1380 H   0  0  0  0  0  0  0  0  0  0  0  0
  -21.7180  -14.0570   21.8330 H   0  0  0  0  0  0  0  0  0  0  0  0
  -26.2000  -15.7510   20.0100 N   0  0  0  0  0  0  0  0  0  0  0  0
  -25.4920  -16.4710   20.1050 H   0  0  0  0  0  0  0  0  0  0  0  0
  -27.0890  -16.1220   19.7050 H   0  0  0  0  0  0  0  0  0  0  0  0
  1 48  1  0
  3  1  1  0
  3  2  1  0
  5  4  1  0
  5  3  1  0
  6  7  1  0
  6  5  1  0
  8 19  2  0
  9  7  1  0
  9 14  1  0
 10 18  1  0
 10 20  1  0
 11 17  1  0
 11 13  1  0
 12 18  1  0
 13 12  1  0
 14 13  2  0
 15 16  1  0
 15  9  2  0
 16 11  2  0
 17 10  1  0
 18  8  1  0
 20 22  2  0
 21 20  1  0
 23 21  1  0
 24 33  2  0
 24 29  1  0
 25 21  1  0
 25 29  1  0
 26 25  1  0
 27 28  1  0
 27 26  1  0
 28 24  1  0
 29 30  2  0
 30 31  1  0
 32 31  2  0
 33 32  1  0
 34  8  1  0
 34 35  1  0
 34 44  1  0
 35 38  1  0
 36 40  1  0
 36 35  1  0
 37 36  2  0
 40 39  1  0
 42 40  1  0
 42 43  1  0
 42 41  1  0
 44 47  1  1
 44 45  1  0
 46 44  1  0
 49 53  1  0
 50 53  1  0
 51 52  1  0
 51 49  2  0
 52 50  2  0
 53 48  1  0
 54 51  1  0
 55 54  1  0
 56 64  1  0
 57 62  1  0
 58 59  1  0
 58 57  1  0
 60 59  1  0
 60 69  1  0
 60 61  1  0
 62 56  1  0
 62 61  1  0
 63 56  2  0
 64 55  1  0
 64 65  1  0
 66 67  2  0
 67 86  1  0
 68 67  1  0
 68 71  1  0
 69 66  1  0
 69 70  1  0
 70 68  2  0
 71 72  1  0
 72 73  2  0
 74 77  1  0
 74 73  1  0
 75 74  2  0
 76 75  1  0
 76 71  2  0
 77 78  1  0
 78 83  2  0
 78 79  1  0
 79 80  2  0
 80 81  1  0
 81 85  1  0
 82 81  2  0
 83 82  1  0
 84 83  1  0
 86 87  1  0
 87 90  1  0
 87 89  1  0
 88 86  2  0
 91 92  1  0
 91 66  1  0
 93 91  1  0
M  ISO  4   6 101   7 101  56 100  64 100
M  END
>  <TORSDO>  (73) 
F 23

>  <SCORE>  (73) 
-9.590

>  <name>  (73) 
73

>  <ligand_id>  (73) 
73

>  <original_smiles>  (73) 
[H]c1c([H])c([H])c2c(c1[H])C([H])([H])C([H])([H])C([H])([H])C2([H])N([H])C(=O)C1([H])N(C(=O)C([H])(N([H])C(=O)C([H])(N([H])C([H])([H])[H])C([H])([H])[H])C(C([H])([H])[H])(C([H])([H])[H])C([H])([H])[H])C([H])([H])c2c([H])c(OC([H])([H])C([H])(C([H])([H])[H])C([H])(C([H])([H])[H])C([H])([H])C([H])([H])n3c([H])nc(C([H])([H])C([H])([H])N([H])C(=O)N4C([H])([H])C([H])([H])C([H])([H])C([H])(n5nc(-c6c([H])c([H])c(Oc7c([H])c([H])c(F)c([H])c7F)c([H])c6[H])c(C(=O)N([H])[H])c5N([H])[H])C4([H])[H])c3[H])c([H])c([H])c2C1([H])[H]

>  <smiles>  (73) 
[H]c1c([H])c([H])c2c(c1[H])C([H])([H])C([H])([H])C([H])([H])C2([H])N([H])C(=O)C1([H])N(C(=O)C([H])(N([H])C(=O)C([H])(N([H])C([H])([H])[H])C([H])([H])[H])C(C([H])([H])[H])(C([H])([H])[H])C([H])([H])[H])C([H])([H])c2c([H])c(OC([H])([H])C([H])(C([H])([H])[H])C([H])(C([H])([H])[H])C([H])([H])C([H])([H])n3c([H])nc(C([H])([H])C([H])([H])N([H])C(=O)N4C([H])([H])C([H])([H])C([H])([H])C([H])(n5nc(-c6c([H])c([H])c(Oc7c([H])c([H])c(F)c([H])c7F)c([H])c6[H])c(C(=O)N([H])[H])c5N([H])[H])C4([H])[H])c3[H])c([H])c([H])c2C1([H])[H]

$$$$
74:0:0
     RDKit          3D

 99107  0  0  1  0  0  0  0  0999 V2000
  -29.4640  -23.7120   21.2510 C   0  0  0  0  0  3  0  0  0  0  0  0
  -28.8470  -24.5570   20.3070 C   0  0  0  0  0  0  0  0  0  0  0  0
  -28.5190  -23.9920   19.0320 C   0  0  0  0  0  0  0  0  0  0  0  0
  -29.6900  -22.3600   20.9550 C   0  0  0  0  0  0  0  0  0  0  0  0
  -28.5900  -22.5730   18.9130 C   0  0  0  0  0  0  0  0  0  0  0  0
  -29.1900  -21.7910   19.8410 N   0  0  0  0  0  0  0  0  0  0  0  0
  -27.7410  -20.3200   17.9550 C   0  0  0  0  0  1  0  0  0  0  0  0
  -28.0390  -21.8120   17.7060 C   0  0  0  0  0  2  0  0  0  0  0  0
  -29.4500  -20.8220   22.9530 C   0  0  0  0  0  1  0  0  0  0  0  0
  -30.4220  -21.4480   21.9400 C   0  0  0  0  0  3  0  0  0  0  0  0
  -31.3790  -20.4030   21.2910 C   0  0  0  0  0  2  0  0  0  0  0  0
  -30.6700  -19.4580   20.3990 N   0  0  0  0  0  4  0  0  0  0  0  0
  -31.1040  -19.4850   19.4910 H   0  0  0  0  0  0  0  0  0  0  0  0
  -29.7520  -19.8570   20.2670 H   0  0  0  0  0  0  0  0  0  0  0  0
  -30.5000  -18.0530   20.8360 C   0  0  0  0  0  2  0  0  0  0  0  0
  -31.7140  -17.1440   20.5260 C   0  0  0  0  0  2  0  0  0  0  0  0
  -32.0960  -14.6820   20.4330 C   0  0  0  0  0  0  0  0  0  0  0  0
  -31.7740  -12.3620   19.6520 C   0  0  0  0  0  2  0  0  0  0  0  0
  -30.8980  -12.3840   18.3820 C   0  0  0  0  0  2  0  0  0  0  0  0
  -29.3990  -12.3810   18.7510 C   0  0  0  0  0  2  0  0  0  0  0  0
  -29.0470  -13.4420   19.8290 C   0  0  0  0  0  3  0  0  0  0  0  0
  -30.0390  -13.3620   21.0130 C   0  0  0  0  0  2  0  0  0  0  0  0
  -31.4000  -13.5190   20.4730 N   0  0  0  0  0  0  0  0  0  0  0  0
  -33.2260  -14.7960   19.9470 O   0  0  0  0  0  0  0  0  0  0  0  0
  -31.3900  -15.7500   20.8230 N   0  0  0  0  0  0  0  0  0  0  0  0
  -30.4670  -15.5460   21.1790 H   0  0  0  0  0  0  0  0  0  0  0  0
  -26.7180  -14.2920   20.5330 C   0  0  0  0  0  0  0  0  0  0  0  0
  -25.5680  -13.6280   20.8710 C   0  0  0  0  0  0  0  0  0  0  0  0
  -25.8830  -12.2380   20.8120 C   0  0  0  0  0  0  0  0  0  0  0  0
  -27.6630  -13.3080   20.2840 N   0  0  0  0  0  0  0  0  0  0  0  0
  -27.1650  -12.0670   20.5120 N   0  0  0  0  0  0  0  0  0  0  0  0
  -25.0260  -11.0550   20.9680 C   0  0  0  0  0  0  0  0  0  0  0  0
  -25.2900  -10.0760   21.9520 C   0  0  0  0  0  3  0  0  0  0  0  0
  -24.4370   -8.9620   22.0970 C   0  0  0  0  0  3  0  0  0  0  0  0
  -23.3080   -8.8170   21.2550 C   0  0  0  0  0  0  0  0  0  0  0  0
  -23.0640   -9.7800   20.2610 C   0  0  0  0  0  3  0  0  0  0  0  0
  -23.9170  -10.8880   20.1160 C   0  0  0  0  0  3  0  0  0  0  0  0
  -22.4470   -7.7470   21.3040 O   0  0  0  0  0  0  0  0  0  0  0  0
  -22.1510   -7.1110   22.4820 C   0  0  0  0  0  0  0  0  0  0  0  0
  -21.5810   -7.7970   23.5760 C   0  0  0  0  0  3  0  0  0  0  0  0
  -21.2310   -7.0920   24.7460 C   0  0  0  0  0  3  0  0  0  0  0  0
  -21.4400   -5.7020   24.8190 C   0  0  0  0  0  0  0  0  0  0  0  0
  -21.9990   -5.0160   23.7270 C   0  0  0  0  0  3  0  0  0  0  0  0
  -22.3520   -5.7170   22.5610 C   0  0  0  0  0  0  0  0  0  0  0  0
  -22.8710   -5.0470   21.5050 F   0  0  0  0  0  0  0  0  0  0  0  0
  -21.0940   -5.0230   25.9370 F   0  0  0  0  0  0  0  0  0  0  0  0
  -24.2270  -14.2470   21.1430 C   0  0  0  0  0  0  0  0  0  0  0  0
  -23.4280  -13.6240   22.0020 N   0  0  0  0  0  0  0  0  0  0  0  0
  -23.8980  -15.3130   20.6240 O   0  0  0  0  0  0  0  0  0  0  0  0
  -23.7040  -12.7560   22.4380 H   0  0  0  0  0  0  0  0  0  0  0  0
  -22.5190  -14.0100   22.2180 H   0  0  0  0  0  0  0  0  0  0  0  0
  -27.0340  -15.6380   20.3970 N   0  0  0  0  0  0  0  0  0  0  0  0
  -26.3340  -16.3650   20.4950 H   0  0  0  0  0  0  0  0  0  0  0  0
  -27.9140  -15.9870   20.0390 H   0  0  0  0  0  0  0  0  0  0  0  0
  -28.3320  -24.8650   17.7800 C   0  0  0  0  0  2  0  0  0  0  0  0
  -26.5990  -26.1930   16.4510 C   0  0  0  0  0  1  0  0  0  0  0  0
  -26.9770  -24.8280   17.0400 C   0  0  0  0  0  2  0  0  0  0  0  0
  -28.6880  -26.0240   20.7600 C   0  0  0  0  0  2  0  0  0  0  0  0
  -28.2250  -26.9740   19.8100 O   0  0  0  0  0  0  0  0  0  0  0  0
  -24.5840  -31.9690   23.4460 C   0  0  0  0  0  0  0  0  0  0  0  0
  -27.0580  -27.6500   20.0710 C   0  0  0  0  0  0  0  0  0  0  0  0
  -23.3010  -30.6610   21.7860 C   0  0  0  0  0  3  0  0  0  0  0  0
  -24.6830  -29.1690   20.2500 C   0  0  0  0  0  0  0  0  0  0  0  0
  -25.8230  -30.9960   21.5130 C   0  0  0  0  0  2  0  0  0  0  0  0
  -25.8670  -29.6500   20.8230 C   0  0  0  0  0  0  0  0  0  0  0  0
  -27.0610  -28.8990   20.7340 C   0  0  0  0  0  3  0  0  0  0  0  0
  -25.8510  -27.1670   19.5340 C   0  0  0  0  0  3  0  0  0  0  0  0
  -24.6670  -27.9220   19.6050 C   0  0  0  0  0  3  0  0  0  0  0  0
  -23.4540  -30.0400   20.3720 C   0  0  0  0  0  2  0  0  0  0  0  0
  -24.5910  -31.2220   22.3060 N   0  0  0  0  0  0  0  0  0  0  0  0
  -23.5270  -32.2260   24.0370 O   0  0  0  0  0  0  0  0  0  0  0  0
  -22.6700  -29.6030   22.7200 C   0  0  0  0  0  0  0  0  0  0  0  0
  -21.3510  -29.3900   22.5760 N   0  0  0  0  0  0  0  0  0  0  0  0
  -23.3610  -28.9810   23.5310 O   0  0  0  0  0  0  0  0  0  0  0  0
  -20.8550  -29.9500   21.8980 H   0  0  0  0  0  0  0  0  0  0  0  0
  -18.0300  -28.0060   22.9120 C   0  0  0  0  0  0  0  0  0  0  0  0
  -20.5510  -28.4170   23.3160 C   0  0  0  0  0  3  0  0  0  0  0  0
  -20.7670  -26.9870   22.7710 C   0  0  0  0  0  2  0  0  0  0  0  0
  -19.7410  -26.5870   21.7060 C   0  0  0  0  0  2  0  0  0  0  0  0
  -18.3210  -26.6590   22.2750 C   0  0  0  0  0  2  0  0  0  0  0  0
  -19.0790  -28.8380   23.3880 C   0  0  0  0  0  0  0  0  0  0  0  0
  -18.7570  -30.0950   23.9430 C   0  0  0  0  0  3  0  0  0  0  0  0
  -17.4200  -30.5250   24.0250 C   0  0  0  0  0  3  0  0  0  0  0  0
  -16.3840  -29.6900   23.5690 C   0  0  0  0  0  3  0  0  0  0  0  0
  -16.6910  -28.4330   23.0190 C   0  0  0  0  0  3  0  0  0  0  0  0
  -25.8990  -32.5540   24.0470 C   0  0  0  0  0  3  0  0  0  0  0  0
  -26.4200  -31.7510   25.3020 C   0  0  1  0  0  0  0  0  0  0  0  0
  -25.3260  -31.4740   26.3600 C   0  0  0  0  0  1  0  0  0  0  0  0
  -27.0130  -30.3910   24.8670 C   0  0  0  0  0  1  0  0  0  0  0  0
  -27.5640  -32.5360   25.9840 C   0  0  0  0  0  1  0  0  0  0  0  0
  -25.6370  -33.9580   24.3940 N   0  0  0  0  0  0  0  0  0  0  0  0
  -26.0170  -35.0080   23.6530 C   0  0  0  0  0  0  0  0  0  0  0  0
  -26.6920  -34.8900   22.6260 O   0  0  0  0  0  0  0  0  0  0  0  0
  -25.0340  -34.1230   25.1870 H   0  0  0  0  0  0  0  0  0  0  0  0
  -24.3550  -36.8650   23.3200 C   0  0  0  0  0  1  0  0  0  0  0  0
  -25.5800  -36.4070   24.1270 C   0  0  0  0  0  3  0  0  0  0  0  0
  -27.7460  -37.2030   24.9640 C   0  0  0  0  0  1  0  0  0  0  0  0
  -26.6500  -37.4230   24.0250 N   0  0  0  0  0  0  0  0  0  0  0  0
  -26.2790  -38.3570   24.1840 H   0  0  0  0  0  0  0  0  0  0  0  0
  2 58  1  0
  2  1  2  0
  3  2  1  0
  4  1  1  0
  4 10  1  0
  5  3  2  0
  5  6  1  0
  6  4  2  0
  8  7  1  0
  8  5  1  0
 10  9  1  0
 11 10  1  0
 12 15  1  0
 12 11  1  0
 13 12  1  0
 14 12  1  0
 16 25  1  0
 16 15  1  0
 17 23  1  0
 17 25  1  0
 18 23  1  0
 19 20  1  0
 19 18  1  0
 21 20  1  0
 21 30  1  0
 21 22  1  0
 23 22  1  0
 24 17  2  0
 25 26  1  0
 27 28  2  0
 28 47  1  0
 29 28  1  0
 29 32  1  0
 30 31  1  0
 30 27  1  0
 31 29  2  0
 32 33  1  0
 33 34  2  0
 35 38  1  0
 35 34  1  0
 36 35  2  0
 37 36  1  0
 37 32  2  0
 38 39  1  0
 39 44  2  0
 39 40  1  0
 40 41  2  0
 41 42  1  0
 42 46  1  0
 43 42  2  0
 44 43  1  0
 45 44  1  0
 47 48  1  0
 48 51  1  0
 48 50  1  0
 49 47  2  0
 52 53  1  0
 52 27  1  0
 54 52  1  0
 55  3  1  0
 56 57  1  0
 57 55  1  0
 59 61  1  0
 59 58  1  0
 60 71  2  0
 61 66  1  0
 62 70  1  0
 62 72  1  0
 63 69  1  0
 63 65  1  0
 64 70  1  0
 65 64  1  0
 66 65  2  0
 67 68  1  0
 67 61  2  0
 68 63  2  0
 69 62  1  0
 70 60  1  0
 72 74  2  0
 73 72  1  0
 75 73  1  0
 76 85  2  0
 76 81  1  0
 77 73  1  0
 77 81  1  0
 78 77  1  0
 79 80  1  0
 79 78  1  0
 80 76  1  0
 81 82  2  0
 82 83  1  0
 84 83  2  0
 85 84  1  0
 86 60  1  0
 86 91  1  0
 86 87  1  0
 87 90  1  1
 87 88  1  0
 89 87  1  0
 91 94  1  0
 92 96  1  0
 92 91  1  0
 93 92  2  0
 96 95  1  0
 98 96  1  0
 98 99  1  0
 98 97  1  0
M  ISO  4  17 100  25 100  58 101  59 101
M  END
>  <TORSDO>  (74) 
F 25

>  <SCORE>  (74) 
-10.306

>  <name>  (74) 
74

>  <ligand_id>  (74) 
74

>  <original_smiles>  (74) 
[H]c1c([H])c([H])c2c(c1[H])C([H])([H])C([H])([H])C([H])([H])C2([H])N([H])C(=O)C1([H])N(C(=O)C([H])(N([H])C(=O)C([H])(N([H])C([H])([H])[H])C([H])([H])[H])C(C([H])([H])[H])(C([H])([H])[H])C([H])([H])[H])C([H])([H])c2c([H])c(OC([H])([H])c3c([H])c(C([H])(C([H])([H])[H])C([H])([H])[N+]([H])([H])C([H])([H])C([H])([H])N([H])C(=O)N4C([H])([H])C([H])([H])C([H])([H])C([H])(n5nc(-c6c([H])c([H])c(Oc7c([H])c([H])c(F)c([H])c7F)c([H])c6[H])c(C(=O)N([H])[H])c5N([H])[H])C4([H])[H])nc(C([H])([H])C([H])([H])[H])c3C([H])([H])C([H])([H])C([H])([H])[H])c([H])c([H])c2C1([H])[H]

>  <smiles>  (74) 
[H]c1c([H])c([H])c2c(c1[H])C([H])([H])C([H])([H])C([H])([H])C2([H])N([H])C(=O)C1([H])N(C(=O)C([H])(N([H])C(=O)C([H])(N([H])C([H])([H])[H])C([H])([H])[H])C(C([H])([H])[H])(C([H])([H])[H])C([H])([H])[H])C([H])([H])c2c([H])c(OC([H])([H])c3c([H])c(C([H])(C([H])([H])[H])C([H])([H])[N+]([H])([H])C([H])([H])C([H])([H])N([H])C(=O)N4C([H])([H])C([H])([H])C([H])([H])C([H])(n5nc(-c6c([H])c([H])c(Oc7c([H])c([H])c(F)c([H])c7F)c([H])c6[H])c(C(=O)N([H])[H])c5N([H])[H])C4([H])[H])nc(C([H])([H])C([H])([H])[H])c3C([H])([H])C([H])([H])C([H])([H])[H])c([H])c([H])c2C1([H])[H]

$$$$
75:0:0
     RDKit          3D

 97106  0  0  1  0  0  0  0  0999 V2000
  -31.1940  -21.1630   20.0450 C   0  0  0  0  0  3  0  0  0  0  0  0
  -30.2180  -22.0940   20.4190 C   0  0  0  0  0  3  0  0  0  0  0  0
  -29.4200  -18.0110   20.8520 C   0  0  0  0  0  3  0  0  0  0  0  0
  -30.9180  -19.7880   20.2010 C   0  0  0  0  0  0  0  0  0  0  0  0
  -29.6630  -19.3940   20.7020 C   0  0  0  0  0  0  0  0  0  0  0  0
  -28.9800  -21.6320   20.9000 C   0  0  0  0  0  0  0  0  0  0  0  0
  -31.8570  -18.7890   19.8820 C   0  0  0  0  0  0  0  0  0  0  0  0
  -30.3980  -17.0500   20.5130 C   0  0  0  0  0  0  0  0  0  0  0  0
  -28.7130  -20.3090   21.0350 N   0  0  0  0  0  0  0  0  0  0  0  0
  -31.5830  -17.4790   20.0250 N   0  0  0  0  0  0  0  0  0  0  0  0
  -30.7680  -14.5700   20.2330 C   0  0  0  0  0  0  0  0  0  0  0  0
  -30.3950  -12.4120   19.1120 C   0  0  0  0  0  2  0  0  0  0  0  0
  -29.4380  -12.6520   17.9260 C   0  0  0  0  0  2  0  0  0  0  0  0
  -27.9750  -12.5130   18.3870 C   0  0  0  0  0  2  0  0  0  0  0  0
  -27.6700  -13.3340   19.6690 C   0  0  0  0  0  3  0  0  0  0  0  0
  -28.7560  -13.1210   20.7520 C   0  0  0  0  0  2  0  0  0  0  0  0
  -30.0640  -13.4060   20.1450 N   0  0  0  0  0  0  0  0  0  0  0  0
  -31.9170  -14.6490   19.7910 O   0  0  0  0  0  0  0  0  0  0  0  0
  -30.0840  -15.6540   20.6840 N   0  0  0  0  0  0  0  0  0  0  0  0
  -29.1830  -15.4460   21.0790 H   0  0  0  0  0  0  0  0  0  0  0  0
  -25.2880  -13.9290   20.4370 C   0  0  0  0  0  0  0  0  0  0  0  0
  -24.2300  -13.1520   20.8270 C   0  0  0  0  0  0  0  0  0  0  0  0
  -24.6920  -11.8010   20.7760 C   0  0  0  0  0  0  0  0  0  0  0  0
  -26.3290  -13.0520   20.1780 N   0  0  0  0  0  0  0  0  0  0  0  0
  -25.9770  -11.7670   20.4410 N   0  0  0  0  0  0  0  0  0  0  0  0
  -23.9690  -10.5360   20.9730 C   0  0  0  0  0  0  0  0  0  0  0  0
  -24.4130   -9.5730   21.9050 C   0  0  0  0  0  3  0  0  0  0  0  0
  -23.6950   -8.3700   22.0900 C   0  0  0  0  0  3  0  0  0  0  0  0
  -22.5180   -8.1270   21.3440 C   0  0  0  0  0  0  0  0  0  0  0  0
  -22.0910   -9.0790   20.4020 C   0  0  0  0  0  3  0  0  0  0  0  0
  -22.8090  -10.2730   20.2150 C   0  0  0  0  0  3  0  0  0  0  0  0
  -21.7690   -6.9790   21.4390 O   0  0  0  0  0  0  0  0  0  0  0  0
  -21.7230   -6.2420   22.5950 C   0  0  0  0  0  0  0  0  0  0  0  0
  -21.2740   -6.7940   23.8150 C   0  0  0  0  0  3  0  0  0  0  0  0
  -21.1800   -5.9840   24.9640 C   0  0  0  0  0  3  0  0  0  0  0  0
  -21.5220   -4.6190   24.8930 C   0  0  0  0  0  0  0  0  0  0  0  0
  -21.9640   -4.0660   23.6790 C   0  0  0  0  0  3  0  0  0  0  0  0
  -22.0610   -4.8740   22.5320 C   0  0  0  0  0  0  0  0  0  0  0  0
  -22.4670   -4.3310   21.3600 F   0  0  0  0  0  0  0  0  0  0  0  0
  -21.4230   -3.8400   25.9930 F   0  0  0  0  0  0  0  0  0  0  0  0
  -22.8380  -13.6260   21.1340 C   0  0  0  0  0  0  0  0  0  0  0  0
  -22.1250  -12.9200   22.0050 N   0  0  0  0  0  0  0  0  0  0  0  0
  -22.3900  -14.6570   20.6360 O   0  0  0  0  0  0  0  0  0  0  0  0
  -22.4990  -12.0840   22.4310 H   0  0  0  0  0  0  0  0  0  0  0  0
  -21.1930  -13.2200   22.2510 H   0  0  0  0  0  0  0  0  0  0  0  0
  -25.4520  -15.3010   20.2620 N   0  0  0  0  0  0  0  0  0  0  0  0
  -24.6900  -15.9610   20.3850 H   0  0  0  0  0  0  0  0  0  0  0  0
  -26.2960  -15.7370   19.9120 H   0  0  0  0  0  0  0  0  0  0  0  0
  -27.8680  -22.6020   21.3130 C   0  0  0  0  0  2  0  0  0  0  0  0
  -27.9440  -24.0410   20.7220 C   0  0  0  0  0  2  0  0  0  0  0  0
  -27.2450  -25.5560   22.6570 C   0  0  0  0  0  1  0  0  0  0  0  0
  -28.3940  -25.1450   21.7190 C   0  0  0  0  0  3  0  0  0  0  0  0
  -29.0410  -26.3900   21.0500 C   0  0  0  0  0  2  0  0  0  0  0  0
  -28.3850  -26.8000   19.8510 O   0  0  0  0  0  0  0  0  0  0  0  0
  -24.6050  -31.8800   23.1870 C   0  0  0  0  0  0  0  0  0  0  0  0
  -27.2440  -27.5530   19.9660 C   0  0  0  0  0  0  0  0  0  0  0  0
  -23.3910  -30.5240   21.5080 C   0  0  0  0  0  3  0  0  0  0  0  0
  -24.8420  -29.0330   20.0310 C   0  0  0  0  0  0  0  0  0  0  0  0
  -25.9130  -30.8940   21.3080 C   0  0  0  0  0  2  0  0  0  0  0  0
  -25.9980  -29.5420   20.6400 C   0  0  0  0  0  0  0  0  0  0  0  0
  -27.2040  -28.8060   20.6170 C   0  0  0  0  0  3  0  0  0  0  0  0
  -26.0810  -27.0630   19.3390 C   0  0  0  0  0  3  0  0  0  0  0  0
  -24.8750  -27.7890   19.3770 C   0  0  0  0  0  3  0  0  0  0  0  0
  -23.5940  -29.8850   20.1070 C   0  0  0  0  0  2  0  0  0  0  0  0
  -24.6550  -31.1150   22.0600 N   0  0  0  0  0  0  0  0  0  0  0  0
  -23.5260  -32.1310   23.7430 O   0  0  0  0  0  0  0  0  0  0  0  0
  -22.7500  -29.4720   22.4390 C   0  0  0  0  0  0  0  0  0  0  0  0
  -21.4200  -29.3070   22.3280 N   0  0  0  0  0  0  0  0  0  0  0  0
  -23.4410  -28.8100   23.2180 O   0  0  0  0  0  0  0  0  0  0  0  0
  -20.9220  -29.8990   21.6790 H   0  0  0  0  0  0  0  0  0  0  0  0
  -18.0410  -28.1430   22.8480 C   0  0  0  0  0  0  0  0  0  0  0  0
  -20.6080  -28.3440   23.0700 C   0  0  0  0  0  3  0  0  0  0  0  0
  -20.6730  -26.9400   22.4250 C   0  0  0  0  0  2  0  0  0  0  0  0
  -19.5420  -26.6850   21.4240 C   0  0  0  0  0  2  0  0  0  0  0  0
  -18.1770  -26.8240   22.1050 C   0  0  0  0  0  2  0  0  0  0  0  0
  -19.1830  -28.8650   23.2850 C   0  0  0  0  0  0  0  0  0  0  0  0
  -19.0010  -30.1050   23.9350 C   0  0  0  0  0  3  0  0  0  0  0  0
  -17.7110  -30.6200   24.1550 C   0  0  0  0  0  3  0  0  0  0  0  0
  -16.5830  -29.8920   23.7360 C   0  0  0  0  0  3  0  0  0  0  0  0
  -16.7490  -28.6540   23.0880 C   0  0  0  0  0  3  0  0  0  0  0  0
  -25.8940  -32.4910   23.8200 C   0  0  0  0  0  3  0  0  0  0  0  0
  -25.6000  -33.8890   24.1580 N   0  0  0  0  0  0  0  0  0  0  0  0
  -25.9500  -34.9430   23.4090 C   0  0  0  0  0  0  0  0  0  0  0  0
  -26.6280  -34.8400   22.3820 O   0  0  0  0  0  0  0  0  0  0  0  0
  -25.0050  -34.0430   24.9580 H   0  0  0  0  0  0  0  0  0  0  0  0
  -24.2550  -36.7640   23.0350 C   0  0  0  0  0  1  0  0  0  0  0  0
  -25.4730  -36.3340   23.8690 C   0  0  0  0  0  3  0  0  0  0  0  0
  -27.5980  -37.1830   24.7600 C   0  0  0  0  0  1  0  0  0  0  0  0
  -26.5230  -37.3740   23.7890 N   0  0  0  0  0  0  0  0  0  0  0  0
  -26.1250  -38.2970   23.9320 H   0  0  0  0  0  0  0  0  0  0  0  0
  -26.3980  -31.7030   25.0900 C   0  0  1  0  0  0  0  0  0  0  0  0
  -25.3020  -31.4640   26.1540 C   0  0  0  0  0  1  0  0  0  0  0  0
  -26.9650  -30.3230   24.6820 C   0  0  0  0  0  1  0  0  0  0  0  0
  -27.5520  -32.4790   25.7650 C   0  0  0  0  0  1  0  0  0  0  0  0
  -33.2440  -19.1120   19.3370 C   0  0  0  0  0  2  0  0  0  0  0  0
  -34.6270  -19.7660   17.2820 C   0  0  0  0  0  1  0  0  0  0  0  0
  -33.2470  -19.3520   17.8190 C   0  0  0  0  0  2  0  0  0  0  0  0
  1  4  2  0
  1  2  1  0
  2  6  2  0
  4  5  1  0
  5  3  1  0
  5  9  2  0
  6  9  1  0
  6 49  1  0
  7 10  2  0
  7  4  1  0
  8 19  1  0
  8  3  2  0
 10  8  1  0
 11 19  1  0
 12 17  1  0
 13 14  1  0
 13 12  1  0
 15 14  1  0
 15 24  1  0
 15 16  1  0
 17 11  1  0
 17 16  1  0
 18 11  2  0
 19 20  1  0
 21 22  2  0
 22 41  1  0
 23 22  1  0
 23 26  1  0
 24 21  1  0
 24 25  1  0
 25 23  2  0
 26 27  1  0
 27 28  2  0
 29 32  1  0
 29 28  1  0
 30 29  2  0
 31 30  1  0
 31 26  2  0
 32 33  1  0
 33 34  1  0
 34 35  2  0
 36 35  1  0
 36 40  1  0
 37 36  2  0
 38 33  2  0
 38 37  1  0
 39 38  1  0
 41 42  1  0
 42 45  1  0
 42 44  1  0
 43 41  2  0
 46 47  1  0
 46 21  1  0
 48 46  1  0
 50 49  1  0
 50 52  1  0
 52 51  1  0
 53 52  1  0
 54 56  1  0
 54 53  1  0
 55 66  2  0
 56 61  1  0
 57 65  1  0
 57 67  1  0
 58 64  1  0
 58 60  1  0
 59 65  1  0
 60 59  1  0
 61 60  2  0
 62 63  1  0
 62 56  2  0
 63 58  2  0
 64 57  1  0
 65 55  1  0
 67 69  2  0
 68 67  1  0
 70 68  1  0
 71 80  2  0
 71 76  1  0
 72 68  1  0
 72 76  1  0
 73 72  1  0
 74 75  1  0
 74 73  1  0
 75 71  1  0
 76 77  2  0
 77 78  1  0
 79 78  2  0
 80 79  1  0
 81 55  1  0
 81 82  1  0
 81 91  1  0
 82 85  1  0
 83 87  1  0
 83 82  1  0
 84 83  2  0
 87 86  1  0
 89 87  1  0
 89 90  1  0
 89 88  1  0
 91 94  1  1
 91 92  1  0
 93 91  1  0
 95  7  1  0
 96 97  1  0
 97 95  1  0
M  ISO  4  11 100  19 100  53 101  54 101
M  END
>  <TORSDO>  (75) 
F 22

>  <SCORE>  (75) 
-13.471

>  <name>  (75) 
75

>  <ligand_id>  (75) 
75

>  <original_smiles>  (75) 
[H]c1c([H])c([H])c2c(c1[H])C([H])([H])C([H])([H])C([H])([H])C2([H])N([H])C(=O)C1([H])N(C(=O)C([H])(N([H])C(=O)C([H])(N([H])C([H])([H])[H])C([H])([H])[H])C(C([H])([H])[H])(C([H])([H])[H])C([H])([H])[H])C([H])([H])c2c([H])c(OC([H])([H])C([H])(C([H])([H])[H])C([H])([H])C([H])([H])c3nc4c([H])c(N([H])C(=O)N5C([H])([H])C([H])([H])C([H])([H])C([H])(n6nc(-c7c([H])c([H])c(Oc8c([H])c([H])c(F)c([H])c8F)c([H])c7[H])c(C(=O)N([H])[H])c6N([H])[H])C5([H])[H])nc(C([H])([H])C([H])([H])C([H])([H])[H])c4c([H])c3[H])c([H])c([H])c2C1([H])[H]

>  <smiles>  (75) 
[H]c1c([H])c([H])c2c(c1[H])C([H])([H])C([H])([H])C([H])([H])C2([H])N([H])C(=O)C1([H])N(C(=O)C([H])(N([H])C(=O)C([H])(N([H])C([H])([H])[H])C([H])([H])[H])C(C([H])([H])[H])(C([H])([H])[H])C([H])([H])[H])C([H])([H])c2c([H])c(OC([H])([H])C([H])(C([H])([H])[H])C([H])([H])C([H])([H])c3nc4c([H])c(N([H])C(=O)N5C([H])([H])C([H])([H])C([H])([H])C([H])(n6nc(-c7c([H])c([H])c(Oc8c([H])c([H])c(F)c([H])c8F)c([H])c7[H])c(C(=O)N([H])[H])c6N([H])[H])C5([H])[H])nc(C([H])([H])C([H])([H])C([H])([H])[H])c4c([H])c3[H])c([H])c([H])c2C1([H])[H]

$$$$
76:0:0
     RDKit          3D

 94102  0  0  1  0  0  0  0  0999 V2000
  -30.4400  -20.5610   20.1110 C   0  0  0  0  0  3  0  0  0  0  0  0
  -29.2410  -18.9260   21.0450 C   0  0  0  0  0  3  0  0  0  0  0  0
  -31.2130  -19.4260   20.0880 C   0  0  0  0  0  0  0  0  0  0  0  0
  -30.4550  -18.3670   20.7020 C   0  0  0  0  0  0  0  0  0  0  0  0
  -29.2480  -20.2920   20.7400 N   0  0  0  0  0  0  0  0  0  0  0  0
  -32.6220  -19.3510   19.5200 C   0  0  0  0  0  2  0  0  0  0  0  0
  -33.7590  -20.9380   21.1500 C   0  0  0  0  0  1  0  0  0  0  0  0
  -34.7780  -20.5470   18.8630 C   0  0  0  0  0  1  0  0  0  0  0  0
  -33.4660  -20.6350   19.6710 C   0  0  0  0  0  3  0  0  0  0  0  0
  -31.0120  -16.9520   20.9780 C   0  0  0  0  0  2  0  0  0  0  0  0
  -30.7620  -14.5590   20.3370 C   0  0  0  0  0  0  0  0  0  0  0  0
  -30.3510  -12.4020   19.2170 C   0  0  0  0  0  2  0  0  0  0  0  0
  -29.4150  -12.6020   18.0090 C   0  0  0  0  0  2  0  0  0  0  0  0
  -27.9460  -12.4780   18.4500 C   0  0  0  0  0  2  0  0  0  0  0  0
  -27.6180  -13.3040   19.7260 C   0  0  0  0  0  3  0  0  0  0  0  0
  -28.6950  -13.1590   20.8260 C   0  0  0  0  0  2  0  0  0  0  0  0
  -30.0030  -13.4320   20.2170 N   0  0  0  0  0  0  0  0  0  0  0  0
  -31.9220  -14.5750   19.9270 O   0  0  0  0  0  0  0  0  0  0  0  0
  -30.1980  -15.7200   20.7660 N   0  0  0  0  0  0  0  0  0  0  0  0
  -29.2230  -15.7310   21.0190 H   0  0  0  0  0  0  0  0  0  0  0  0
  -25.2320  -13.8720   20.4820 C   0  0  0  0  0  0  0  0  0  0  0  0
  -24.1740  -13.0890   20.8580 C   0  0  0  0  0  0  0  0  0  0  0  0
  -24.6490  -11.7440   20.8210 C   0  0  0  0  0  0  0  0  0  0  0  0
  -26.2800  -13.0030   20.2310 N   0  0  0  0  0  0  0  0  0  0  0  0
  -25.9360  -11.7160   20.4960 N   0  0  0  0  0  0  0  0  0  0  0  0
  -23.9300  -10.4760   21.0160 C   0  0  0  0  0  0  0  0  0  0  0  0
  -24.3690   -9.5120   21.9510 C   0  0  0  0  0  3  0  0  0  0  0  0
  -23.6480   -8.3120   22.1390 C   0  0  0  0  0  3  0  0  0  0  0  0
  -22.4750   -8.0650   21.3900 C   0  0  0  0  0  0  0  0  0  0  0  0
  -22.0500   -9.0180   20.4480 C   0  0  0  0  0  3  0  0  0  0  0  0
  -22.7710  -10.2100   20.2580 C   0  0  0  0  0  3  0  0  0  0  0  0
  -21.7270   -6.9140   21.4810 O   0  0  0  0  0  0  0  0  0  0  0  0
  -21.6860   -6.1720   22.6340 C   0  0  0  0  0  0  0  0  0  0  0  0
  -21.2610   -6.7260   23.8610 C   0  0  0  0  0  3  0  0  0  0  0  0
  -21.1680   -5.9110   25.0070 C   0  0  0  0  0  3  0  0  0  0  0  0
  -21.4940   -4.5430   24.9270 C   0  0  0  0  0  0  0  0  0  0  0  0
  -21.9150   -3.9900   23.7050 C   0  0  0  0  0  3  0  0  0  0  0  0
  -22.0100   -4.8020   22.5610 C   0  0  0  0  0  0  0  0  0  0  0  0
  -22.3950   -4.2610   21.3810 F   0  0  0  0  0  0  0  0  0  0  0  0
  -21.4030   -3.7570   26.0240 F   0  0  0  0  0  0  0  0  0  0  0  0
  -22.7770  -13.5610   21.1430 C   0  0  0  0  0  0  0  0  0  0  0  0
  -22.0540  -12.8640   22.0120 N   0  0  0  0  0  0  0  0  0  0  0  0
  -22.3340  -14.5840   20.6250 O   0  0  0  0  0  0  0  0  0  0  0  0
  -22.4210  -12.0310   22.4460 H   0  0  0  0  0  0  0  0  0  0  0  0
  -21.1210  -13.1750   22.2430 H   0  0  0  0  0  0  0  0  0  0  0  0
  -25.3790  -15.2450   20.3100 N   0  0  0  0  0  0  0  0  0  0  0  0
  -24.5910  -15.8720   20.4060 H   0  0  0  0  0  0  0  0  0  0  0  0
  -26.2070  -15.7000   19.9420 H   0  0  0  0  0  0  0  0  0  0  0  0
  -28.1630  -21.2700   20.9540 C   0  0  0  0  0  2  0  0  0  0  0  0
  -28.5780  -22.7640   21.3010 C   0  0  0  0  0  2  0  0  0  0  0  0
  -27.0830  -23.7910   19.4190 C   0  0  0  0  0  1  0  0  0  0  0  0
  -28.3590  -23.9520   20.2700 C   0  0  0  0  0  3  0  0  0  0  0  0
  -28.3700  -25.3680   20.9760 C   0  0  0  0  0  2  0  0  0  0  0  0
  -28.3890  -26.5950   20.1840 O   0  0  0  0  0  0  0  0  0  0  0  0
  -24.6080  -31.8960   23.2560 C   0  0  0  0  0  0  0  0  0  0  0  0
  -27.2530  -27.3960   20.2020 C   0  0  0  0  0  0  0  0  0  0  0  0
  -23.4190  -30.4860   21.6110 C   0  0  0  0  0  3  0  0  0  0  0  0
  -24.8830  -28.9570   20.1900 C   0  0  0  0  0  0  0  0  0  0  0  0
  -25.9550  -30.8320   21.4430 C   0  0  0  0  0  2  0  0  0  0  0  0
  -26.0410  -29.4580   20.7980 C   0  0  0  0  0  0  0  0  0  0  0  0
  -27.2320  -28.6840   20.8060 C   0  0  0  0  0  3  0  0  0  0  0  0
  -26.0770  -26.9430   19.5710 C   0  0  0  0  0  3  0  0  0  0  0  0
  -24.8970  -27.7010   19.5700 C   0  0  0  0  0  3  0  0  0  0  0  0
  -23.6420  -29.8170   20.2300 C   0  0  0  0  0  2  0  0  0  0  0  0
  -24.6780  -31.0840   22.1610 N   0  0  0  0  0  0  0  0  0  0  0  0
  -23.5240  -32.1720   23.7840 O   0  0  0  0  0  0  0  0  0  0  0  0
  -22.7610  -29.4620   22.5630 C   0  0  0  0  0  0  0  0  0  0  0  0
  -21.4380  -29.2750   22.4200 N   0  0  0  0  0  0  0  0  0  0  0  0
  -23.4340  -28.8460   23.3900 O   0  0  0  0  0  0  0  0  0  0  0  0
  -20.9620  -29.8130   21.7110 H   0  0  0  0  0  0  0  0  0  0  0  0
  -18.0520  -28.0760   22.8860 C   0  0  0  0  0  0  0  0  0  0  0  0
  -20.6080  -28.3430   23.1850 C   0  0  0  0  0  3  0  0  0  0  0  0
  -20.7140  -26.9170   22.6080 C   0  0  0  0  0  2  0  0  0  0  0  0
  -19.6260  -26.5970   21.5760 C   0  0  0  0  0  2  0  0  0  0  0  0
  -18.2420  -26.7260   22.2120 C   0  0  0  0  0  2  0  0  0  0  0  0
  -19.1650  -28.8460   23.3190 C   0  0  0  0  0  0  0  0  0  0  0  0
  -18.9420  -30.1090   23.9070 C   0  0  0  0  0  3  0  0  0  0  0  0
  -17.6370  -30.6060   24.0740 C   0  0  0  0  0  3  0  0  0  0  0  0
  -16.5380  -29.8350   23.6520 C   0  0  0  0  0  3  0  0  0  0  0  0
  -16.7440  -28.5760   23.0640 C   0  0  0  0  0  3  0  0  0  0  0  0
  -25.8860  -32.5230   23.8870 C   0  0  0  0  0  3  0  0  0  0  0  0
  -25.5820  -33.9250   24.2010 N   0  0  0  0  0  0  0  0  0  0  0  0
  -25.9240  -34.9690   23.4330 C   0  0  0  0  0  0  0  0  0  0  0  0
  -26.6040  -34.8520   22.4100 O   0  0  0  0  0  0  0  0  0  0  0  0
  -24.9750  -34.0880   24.9930 H   0  0  0  0  0  0  0  0  0  0  0  0
  -24.1990  -36.7530   23.0390 C   0  0  0  0  0  1  0  0  0  0  0  0
  -25.4310  -36.3600   23.8710 C   0  0  0  0  0  3  0  0  0  0  0  0
  -27.5590  -37.2450   24.7240 C   0  0  0  0  0  1  0  0  0  0  0  0
  -26.4710  -37.4080   23.7620 N   0  0  0  0  0  0  0  0  0  0  0  0
  -26.0720  -38.3340   23.8900 H   0  0  0  0  0  0  0  0  0  0  0  0
  -26.3760  -31.7600   25.1760 C   0  0  1  0  0  0  0  0  0  0  0  0
  -25.2590  -31.5430   26.2230 C   0  0  0  0  0  1  0  0  0  0  0  0
  -26.9650  -30.3790   24.8090 C   0  0  0  0  0  1  0  0  0  0  0  0
  -27.5250  -32.5520   25.8420 C   0  0  0  0  0  1  0  0  0  0  0  0
  1  5  1  0
  3  1  2  0
  3  4  1  0
  4 10  1  0
  4  2  2  0
  5 49  1  0
  5  2  1  0
  6  9  1  0
  6  3  1  0
  8  9  1  0
  9  7  1  0
 11 19  1  0
 12 17  1  0
 13 14  1  0
 13 12  1  0
 15 14  1  0
 15 24  1  0
 15 16  1  0
 17 11  1  0
 17 16  1  0
 18 11  2  0
 19 10  1  0
 19 20  1  0
 21 22  2  0
 22 41  1  0
 23 22  1  0
 23 26  1  0
 24 21  1  0
 24 25  1  0
 25 23  2  0
 26 27  1  0
 27 28  2  0
 29 32  1  0
 29 28  1  0
 30 29  2  0
 31 30  1  0
 31 26  2  0
 32 33  1  0
 33 34  1  0
 34 35  2  0
 36 35  1  0
 36 40  1  0
 37 36  2  0
 38 33  2  0
 38 37  1  0
 39 38  1  0
 41 42  1  0
 42 45  1  0
 42 44  1  0
 43 41  2  0
 46 47  1  0
 46 21  1  0
 48 46  1  0
 49 50  1  0
 52 51  1  0
 52 53  1  0
 52 50  1  0
 54 56  1  0
 54 53  1  0
 55 66  2  0
 56 61  1  0
 57 65  1  0
 57 67  1  0
 58 64  1  0
 58 60  1  0
 59 65  1  0
 60 61  2  0
 60 59  1  0
 62 56  2  0
 63 62  1  0
 63 58  2  0
 64 57  1  0
 65 55  1  0
 67 69  2  0
 68 67  1  0
 70 68  1  0
 71 80  2  0
 71 76  1  0
 72 68  1  0
 72 76  1  0
 73 72  1  0
 74 75  1  0
 74 73  1  0
 75 71  1  0
 76 77  2  0
 77 78  1  0
 79 78  2  0
 80 79  1  0
 81 55  1  0
 81 82  1  0
 81 91  1  0
 82 85  1  0
 83 87  1  0
 83 82  1  0
 84 83  2  0
 87 86  1  0
 89 87  1  0
 89 90  1  0
 89 88  1  0
 91 94  1  1
 91 92  1  0
 93 91  1  0
M  ISO  4  11 100  19 100  53 101  54 101
M  END
>  <TORSDO>  (76) 
F 23

>  <SCORE>  (76) 
-12.904

>  <name>  (76) 
76

>  <ligand_id>  (76) 
76

>  <original_smiles>  (76) 
[H]c1c([H])c([H])c2c(c1[H])C([H])([H])C([H])([H])C([H])([H])C2([H])N([H])C(=O)C1([H])N(C(=O)C([H])(N([H])C(=O)C([H])(N([H])C([H])([H])[H])C([H])([H])[H])C(C([H])([H])[H])(C([H])([H])[H])C([H])([H])[H])C([H])([H])c2c([H])c(OC([H])([H])C([H])(C([H])([H])[H])C([H])([H])C([H])([H])n3c([H])c(C([H])([H])N([H])C(=O)N4C([H])([H])C([H])([H])C([H])([H])C([H])(n5nc(-c6c([H])c([H])c(Oc7c([H])c([H])c(F)c([H])c7F)c([H])c6[H])c(C(=O)N([H])[H])c5N([H])[H])C4([H])[H])c(C([H])([H])C([H])(C([H])([H])[H])C([H])([H])[H])c3[H])c([H])c([H])c2C1([H])[H]

>  <smiles>  (76) 
[H]c1c([H])c([H])c2c(c1[H])C([H])([H])C([H])([H])C([H])([H])C2([H])N([H])C(=O)C1([H])N(C(=O)C([H])(N([H])C(=O)C([H])(N([H])C([H])([H])[H])C([H])([H])[H])C(C([H])([H])[H])(C([H])([H])[H])C([H])([H])[H])C([H])([H])c2c([H])c(OC([H])([H])C([H])(C([H])([H])[H])C([H])([H])C([H])([H])n3c([H])c(C([H])([H])N([H])C(=O)N4C([H])([H])C([H])([H])C([H])([H])C([H])(n5nc(-c6c([H])c([H])c(Oc7c([H])c([H])c(F)c([H])c7F)c([H])c6[H])c(C(=O)N([H])[H])c5N([H])[H])C4([H])[H])c(C([H])([H])C([H])(C([H])([H])[H])C([H])([H])[H])c3[H])c([H])c([H])c2C1([H])[H]

$$$$
77:0:0
     RDKit          3D

 94102  0  0  1  0  0  0  0  0999 V2000
  -29.9270  -19.6350   21.8220 C   0  0  0  0  0  3  0  0  0  0  0  0
  -30.0980  -18.5130   21.0280 C   0  0  0  0  0  0  0  0  0  0  0  0
  -29.7760  -18.9690   19.7050 C   0  0  0  0  0  0  0  0  0  0  0  0
  -29.5490  -20.3380   19.7480 C   0  0  0  0  0  0  0  0  0  0  0  0
  -29.2990  -21.3010   18.6280 C   0  0  0  0  0  1  0  0  0  0  0  0
  -29.5440  -20.7640   21.0730 N   0  0  0  0  0  0  0  0  0  0  0  0
  -30.8890  -18.2770   17.5300 C   0  0  0  0  0  1  0  0  0  0  0  0
  -28.3230  -18.1370   17.8130 C   0  0  0  0  0  1  0  0  0  0  0  0
  -29.7050  -18.0700   18.4890 C   0  0  0  0  0  3  0  0  0  0  0  0
  -30.6170  -17.0910   21.4840 C   0  0  0  0  0  2  0  0  0  0  0  0
  -30.7290  -14.7100   20.4890 C   0  0  0  0  0  0  0  0  0  0  0  0
  -30.4670  -12.5190   19.3240 C   0  0  0  0  0  2  0  0  0  0  0  0
  -29.5350  -12.6780   18.1050 C   0  0  0  0  0  2  0  0  0  0  0  0
  -28.0650  -12.4870   18.5210 C   0  0  0  0  0  2  0  0  0  0  0  0
  -27.6980  -13.3290   19.7720 C   0  0  0  0  0  3  0  0  0  0  0  0
  -28.7480  -13.1740   20.8930 C   0  0  0  0  0  2  0  0  0  0  0  0
  -30.0560  -13.5260   20.3240 N   0  0  0  0  0  0  0  0  0  0  0  0
  -31.8890  -14.8330   20.0900 O   0  0  0  0  0  0  0  0  0  0  0  0
  -30.0430  -15.7860   20.9950 N   0  0  0  0  0  0  0  0  0  0  0  0
  -29.0610  -15.6320   21.1810 H   0  0  0  0  0  0  0  0  0  0  0  0
  -25.2970  -13.9090   20.4610 C   0  0  0  0  0  0  0  0  0  0  0  0
  -24.2360  -13.1280   20.8280 C   0  0  0  0  0  0  0  0  0  0  0  0
  -24.7080  -11.7810   20.8040 C   0  0  0  0  0  0  0  0  0  0  0  0
  -26.3500  -13.0360   20.2440 N   0  0  0  0  0  0  0  0  0  0  0  0
  -26.0030  -11.7490   20.5110 N   0  0  0  0  0  0  0  0  0  0  0  0
  -23.9890  -10.5140   20.9900 C   0  0  0  0  0  0  0  0  0  0  0  0
  -24.4100   -9.5640   21.9470 C   0  0  0  0  0  3  0  0  0  0  0  0
  -23.6940   -8.3620   22.1280 C   0  0  0  0  0  3  0  0  0  0  0  0
  -22.5400   -8.1000   21.3540 C   0  0  0  0  0  0  0  0  0  0  0  0
  -22.1350   -9.0380   20.3890 C   0  0  0  0  0  3  0  0  0  0  0  0
  -22.8510  -10.2340   20.2060 C   0  0  0  0  0  3  0  0  0  0  0  0
  -21.7970   -6.9470   21.4440 O   0  0  0  0  0  0  0  0  0  0  0  0
  -21.7200   -6.2270   22.6080 C   0  0  0  0  0  0  0  0  0  0  0  0
  -21.2470   -6.7970   23.8110 C   0  0  0  0  0  3  0  0  0  0  0  0
  -21.1230   -6.0000   24.9670 C   0  0  0  0  0  3  0  0  0  0  0  0
  -21.4600   -4.6330   24.9180 C   0  0  0  0  0  0  0  0  0  0  0  0
  -21.9190   -4.0620   23.7180 C   0  0  0  0  0  3  0  0  0  0  0  0
  -22.0470   -4.8570   22.5660 C   0  0  0  0  0  0  0  0  0  0  0  0
  -22.4750   -4.2990   21.4070 F   0  0  0  0  0  0  0  0  0  0  0  0
  -21.3310   -3.8610   26.0220 F   0  0  0  0  0  0  0  0  0  0  0  0
  -22.8330  -13.5950   21.0850 C   0  0  0  0  0  0  0  0  0  0  0  0
  -22.1030  -12.8920   21.9450 N   0  0  0  0  0  0  0  0  0  0  0  0
  -22.3940  -14.6140   20.5570 O   0  0  0  0  0  0  0  0  0  0  0  0
  -22.4700  -12.0640   22.3920 H   0  0  0  0  0  0  0  0  0  0  0  0
  -21.1610  -13.1860   22.1600 H   0  0  0  0  0  0  0  0  0  0  0  0
  -25.4450  -15.2800   20.2720 N   0  0  0  0  0  0  0  0  0  0  0  0
  -24.6580  -15.9160   20.3610 H   0  0  0  0  0  0  0  0  0  0  0  0
  -26.2910  -15.7390   19.9590 H   0  0  0  0  0  0  0  0  0  0  0  0
  -29.0740  -22.0830   21.6480 C   0  0  0  0  0  3  0  0  0  0  0  0
  -29.5670  -23.5020   21.1030 C   0  0  0  0  0  3  0  0  0  0  0  0
  -29.3050  -24.8250   23.2870 C   0  0  0  0  0  1  0  0  0  0  0  0
  -28.9090  -24.7770   21.7980 C   0  0  0  0  0  3  0  0  0  0  0  0
  -29.2330  -26.2110   21.2030 C   0  0  0  0  0  2  0  0  0  0  0  0
  -28.4740  -26.6460   20.0620 O   0  0  0  0  0  0  0  0  0  0  0  0
  -24.6150  -31.9070   23.2190 C   0  0  0  0  0  0  0  0  0  0  0  0
  -27.3400  -27.4380   20.1940 C   0  0  0  0  0  0  0  0  0  0  0  0
  -23.4390  -30.4830   21.5720 C   0  0  0  0  0  3  0  0  0  0  0  0
  -24.9260  -28.9470   20.1710 C   0  0  0  0  0  0  0  0  0  0  0  0
  -25.9660  -30.8570   21.4000 C   0  0  0  0  0  2  0  0  0  0  0  0
  -26.0760  -29.4740   20.7790 C   0  0  0  0  0  0  0  0  0  0  0  0
  -27.2870  -28.7250   20.7980 C   0  0  0  0  0  3  0  0  0  0  0  0
  -26.1740  -26.9470   19.5740 C   0  0  0  0  0  3  0  0  0  0  0  0
  -24.9730  -27.6820   19.5620 C   0  0  0  0  0  3  0  0  0  0  0  0
  -23.6710  -29.7930   20.2000 C   0  0  0  0  0  2  0  0  0  0  0  0
  -24.6910  -31.0990   22.1210 N   0  0  0  0  0  0  0  0  0  0  0  0
  -23.5270  -32.1700   23.7510 O   0  0  0  0  0  0  0  0  0  0  0  0
  -22.7880  -29.4630   22.5370 C   0  0  0  0  0  0  0  0  0  0  0  0
  -21.4630  -29.2780   22.4140 N   0  0  0  0  0  0  0  0  0  0  0  0
  -23.4720  -28.8420   23.3540 O   0  0  0  0  0  0  0  0  0  0  0  0
  -20.9750  -29.8380   21.7280 H   0  0  0  0  0  0  0  0  0  0  0  0
  -18.0870  -28.0850   22.9260 C   0  0  0  0  0  0  0  0  0  0  0  0
  -20.6480  -28.3370   23.1790 C   0  0  0  0  0  3  0  0  0  0  0  0
  -20.7400  -26.9090   22.5920 C   0  0  0  0  0  2  0  0  0  0  0  0
  -19.6300  -26.5960   21.5840 C   0  0  0  0  0  2  0  0  0  0  0  0
  -18.2540  -26.7410   22.2400 C   0  0  0  0  0  2  0  0  0  0  0  0
  -19.2120  -28.8420   23.3530 C   0  0  0  0  0  0  0  0  0  0  0  0
  -19.0020  -30.1020   23.9560 C   0  0  0  0  0  3  0  0  0  0  0  0
  -17.6980  -30.6050   24.1360 C   0  0  0  0  0  3  0  0  0  0  0  0
  -16.5870  -29.8470   23.7220 C   0  0  0  0  0  3  0  0  0  0  0  0
  -16.7840  -28.5880   23.1240 C   0  0  0  0  0  3  0  0  0  0  0  0
  -25.8920  -32.5490   23.8480 C   0  0  0  0  0  3  0  0  0  0  0  0
  -25.5650  -33.9460   24.1690 N   0  0  0  0  0  0  0  0  0  0  0  0
  -25.9080  -34.9990   23.4170 C   0  0  0  0  0  0  0  0  0  0  0  0
  -26.5990  -34.8990   22.3970 O   0  0  0  0  0  0  0  0  0  0  0  0
  -24.9430  -34.0960   24.9500 H   0  0  0  0  0  0  0  0  0  0  0  0
  -24.1830  -36.7850   23.0180 C   0  0  0  0  0  1  0  0  0  0  0  0
  -25.4040  -36.3850   23.8610 C   0  0  0  0  0  3  0  0  0  0  0  0
  -27.5150  -37.2770   24.7430 C   0  0  0  0  0  1  0  0  0  0  0  0
  -26.4360  -37.4420   23.7730 N   0  0  0  0  0  0  0  0  0  0  0  0
  -26.0250  -38.3610   23.9090 H   0  0  0  0  0  0  0  0  0  0  0  0
  -26.4050  -31.7860   25.1300 C   0  0  1  0  0  0  0  0  0  0  0  0
  -25.3070  -31.5430   26.1920 C   0  0  0  0  0  1  0  0  0  0  0  0
  -26.9990  -30.4100   24.7440 C   0  0  0  0  0  1  0  0  0  0  0  0
  -27.5400  -32.5940   25.7980 C   0  0  0  0  0  1  0  0  0  0  0  0
  2 10  1  0
  2  1  2  0
  3  4  2  0
  3  2  1  0
  4  6  1  0
  5  4  1  0
  6 49  1  0
  6  1  1  0
  7  9  1  0
  8  9  1  0
  9  3  1  0
 11 19  1  0
 12 17  1  0
 13 14  1  0
 13 12  1  0
 15 14  1  0
 15 24  1  0
 15 16  1  0
 17 11  1  0
 17 16  1  0
 18 11  2  0
 19 20  1  0
 19 10  1  0
 21 22  2  0
 22 41  1  0
 23 22  1  0
 23 26  1  0
 24 21  1  0
 24 25  1  0
 25 23  2  0
 26 27  1  0
 27 28  2  0
 29 32  1  0
 29 28  1  0
 30 29  2  0
 31 30  1  0
 31 26  2  0
 32 33  1  0
 33 34  1  0
 34 35  2  0
 36 35  1  0
 36 40  1  0
 37 36  2  0
 38 33  2  0
 38 37  1  0
 39 38  1  0
 41 42  1  0
 42 45  1  0
 42 44  1  0
 43 41  2  0
 46 47  1  0
 46 21  1  0
 48 46  1  0
 50 49  2  0
 50 52  1  0
 52 51  1  0
 53 52  1  0
 54 56  1  0
 54 53  1  0
 55 66  2  0
 56 61  1  0
 57 65  1  0
 57 67  1  0
 58 64  1  0
 58 60  1  0
 59 65  1  0
 60 61  2  0
 60 59  1  0
 62 56  2  0
 63 62  1  0
 63 58  2  0
 64 57  1  0
 65 55  1  0
 67 69  2  0
 68 67  1  0
 70 68  1  0
 71 80  2  0
 71 76  1  0
 72 68  1  0
 72 76  1  0
 73 72  1  0
 74 75  1  0
 74 73  1  0
 75 71  1  0
 76 77  2  0
 77 78  1  0
 79 78  2  0
 80 79  1  0
 81 55  1  0
 81 82  1  0
 81 91  1  0
 82 85  1  0
 83 87  1  0
 83 82  1  0
 84 83  2  0
 87 86  1  0
 89 87  1  0
 89 90  1  0
 89 88  1  0
 91 94  1  1
 91 92  1  0
 93 91  1  0
M  ISO  4  11 100  19 100  53 101  54 101
M  END
>  <TORSDO>  (77) 
F 22

>  <SCORE>  (77) 
-13.257

>  <name>  (77) 
77

>  <ligand_id>  (77) 
77

>  <original_smiles>  (77) 
[H]c1c([H])c([H])c2c(c1[H])C([H])([H])C([H])([H])C([H])([H])C2([H])N([H])C(=O)C1([H])N(C(=O)C([H])(N([H])C(=O)C([H])(N([H])C([H])([H])[H])C([H])([H])[H])C(C([H])([H])[H])(C([H])([H])[H])C([H])([H])[H])C([H])([H])c2c([H])c(OC([H])([H])C([H])(C([H])([H])[H])C([H])([H])C([H])([H])n3c([H])c(C([H])([H])N([H])C(=O)N4C([H])([H])C([H])([H])C([H])([H])C([H])(n5nc(-c6c([H])c([H])c(Oc7c([H])c([H])c(F)c([H])c7F)c([H])c6[H])c(C(=O)N([H])[H])c5N([H])[H])C4([H])[H])c(C([H])(C([H])([H])[H])C([H])([H])[H])c3C([H])([H])[H])c([H])c([H])c2C1([H])[H]

>  <smiles>  (77) 
[H]c1c([H])c([H])c2c(c1[H])C([H])([H])C([H])([H])C([H])([H])C2([H])N([H])C(=O)C1([H])N(C(=O)C([H])(N([H])C(=O)C([H])(N([H])C([H])([H])[H])C([H])([H])[H])C(C([H])([H])[H])(C([H])([H])[H])C([H])([H])[H])C([H])([H])c2c([H])c(OC([H])([H])C([H])(C([H])([H])[H])C([H])([H])C([H])([H])n3c([H])c(C([H])([H])N([H])C(=O)N4C([H])([H])C([H])([H])C([H])([H])C([H])(n5nc(-c6c([H])c([H])c(Oc7c([H])c([H])c(F)c([H])c7F)c([H])c6[H])c(C(=O)N([H])[H])c5N([H])[H])C4([H])[H])c(C([H])(C([H])([H])[H])C([H])([H])[H])c3C([H])([H])[H])c([H])c([H])c2C1([H])[H]

$$$$
78:0:0
     RDKit          3D

 90 98  0  0  1  0  0  0  0  0999 V2000
  -30.0520  -21.2800   19.3380 C   0  0  0  0  0  2  0  0  0  0  0  0
  -30.0600  -22.8680   19.6100 C   0  0  0  0  0  2  0  0  0  0  0  0
  -28.5170  -20.6050   21.2240 C   0  0  0  0  0  2  0  0  0  0  0  0
  -27.9470  -23.3050   21.0770 C   0  0  0  0  0  2  0  0  0  0  0  0
  -29.8970  -20.3070   20.5690 C   0  0  0  0  0  3  0  0  0  0  0  0
  -28.6960  -23.6720   19.7700 C   0  0  0  0  0  3  0  0  0  0  0  0
  -28.3560  -22.0250   21.8930 C   0  0  0  0  0  3  0  0  0  0  0  0
  -29.4310  -22.3070   22.6330 F   0  0  0  0  0  0  0  0  0  0  0  0
  -30.4850  -18.7640   20.6200 C   0  0  0  0  0  2  0  0  0  0  0  0
  -29.9310  -17.3870   19.9400 C   0  0  0  0  0  2  0  0  0  0  0  0
  -30.9110  -14.8860   19.9340 C   0  0  0  0  0  0  0  0  0  0  0  0
  -30.6140  -12.6230   18.8720 C   0  0  0  0  0  2  0  0  0  0  0  0
  -29.5970  -12.7130   17.7090 C   0  0  0  0  0  2  0  0  0  0  0  0
  -28.1590  -12.5290   18.2280 C   0  0  0  0  0  2  0  0  0  0  0  0
  -27.8720  -13.4020   19.4780 C   0  0  0  0  0  3  0  0  0  0  0  0
  -28.9950  -13.2850   20.5270 C   0  0  0  0  0  2  0  0  0  0  0  0
  -30.2620  -13.6600   19.8780 N   0  0  0  0  0  0  0  0  0  0  0  0
  -31.9830  -15.0230   19.3350 O   0  0  0  0  0  0  0  0  0  0  0  0
  -30.2260  -15.9880   21.9930 C   0  0  0  0  0  1  0  0  0  0  0  0
  -30.2780  -15.9890   20.5270 N   0  0  0  0  0  0  0  0  0  0  0  0
  -25.5620  -14.0120   20.4100 C   0  0  0  0  0  0  0  0  0  0  0  0
  -24.5080  -13.2460   20.8320 C   0  0  0  0  0  0  0  0  0  0  0  0
  -24.9340  -11.8880   20.7110 C   0  0  0  0  0  0  0  0  0  0  0  0
  -26.5620  -13.1200   20.0570 N   0  0  0  0  0  0  0  0  0  0  0  0
  -26.1960  -11.8350   20.2980 N   0  0  0  0  0  0  0  0  0  0  0  0
  -24.1940  -10.6350   20.9080 C   0  0  0  0  0  0  0  0  0  0  0  0
  -24.6110   -9.6700   21.8500 C   0  0  0  0  0  3  0  0  0  0  0  0
  -23.8720   -8.4810   22.0310 C   0  0  0  0  0  3  0  0  0  0  0  0
  -22.7010   -8.2490   21.2710 C   0  0  0  0  0  0  0  0  0  0  0  0
  -22.3030   -9.2040   20.3200 C   0  0  0  0  0  3  0  0  0  0  0  0
  -23.0420  -10.3830   20.1350 C   0  0  0  0  0  3  0  0  0  0  0  0
  -21.9360   -7.1130   21.3620 O   0  0  0  0  0  0  0  0  0  0  0  0
  -21.7880   -6.4380   22.5470 C   0  0  0  0  0  0  0  0  0  0  0  0
  -21.2330   -7.0510   23.6910 C   0  0  0  0  0  3  0  0  0  0  0  0
  -21.0340   -6.3000   24.8670 C   0  0  0  0  0  3  0  0  0  0  0  0
  -21.3810   -4.9360   24.8990 C   0  0  0  0  0  0  0  0  0  0  0  0
  -21.9300   -4.3210   23.7590 C   0  0  0  0  0  3  0  0  0  0  0  0
  -22.1290   -5.0700   22.5860 C   0  0  0  0  0  0  0  0  0  0  0  0
  -22.6380   -4.4690   21.4840 F   0  0  0  0  0  0  0  0  0  0  0  0
  -21.1830   -4.2110   26.0250 F   0  0  0  0  0  0  0  0  0  0  0  0
  -23.1480  -13.7420   21.2290 C   0  0  0  0  0  0  0  0  0  0  0  0
  -22.4760  -13.0350   22.1330 N   0  0  0  0  0  0  0  0  0  0  0  0
  -22.6920  -14.7890   20.7740 O   0  0  0  0  0  0  0  0  0  0  0  0
  -22.8570  -12.1870   22.5240 H   0  0  0  0  0  0  0  0  0  0  0  0
  -21.5660  -13.3500   22.4370 H   0  0  0  0  0  0  0  0  0  0  0  0
  -25.7460  -15.3850   20.2820 N   0  0  0  0  0  0  0  0  0  0  0  0
  -25.0060  -16.0510   20.4800 H   0  0  0  0  0  0  0  0  0  0  0  0
  -26.5900  -15.8230   19.9360 H   0  0  0  0  0  0  0  0  0  0  0  0
  -28.6310  -25.2400   19.2880 C   0  0  0  0  0  2  0  0  0  0  0  0
  -28.4320  -26.4830   20.1040 O   0  0  0  0  0  0  0  0  0  0  0  0
  -24.6740  -31.8870   23.1330 C   0  0  0  0  0  0  0  0  0  0  0  0
  -27.2970  -27.3290   20.0220 C   0  0  0  0  0  0  0  0  0  0  0  0
  -23.4640  -30.4850   21.4990 C   0  0  0  0  0  3  0  0  0  0  0  0
  -24.9140  -28.9480   20.0440 C   0  0  0  0  0  0  0  0  0  0  0  0
  -26.0000  -30.8150   21.2880 C   0  0  0  0  0  2  0  0  0  0  0  0
  -26.0840  -29.4350   20.6340 C   0  0  0  0  0  0  0  0  0  0  0  0
  -27.2720  -28.6360   20.6180 C   0  0  0  0  0  3  0  0  0  0  0  0
  -26.0980  -26.9010   19.4070 C   0  0  0  0  0  3  0  0  0  0  0  0
  -24.9260  -27.6890   19.4190 C   0  0  0  0  0  3  0  0  0  0  0  0
  -23.6690  -29.8140   20.1120 C   0  0  0  0  0  2  0  0  0  0  0  0
  -24.7320  -31.0820   22.0300 N   0  0  0  0  0  0  0  0  0  0  0  0
  -23.5950  -32.1500   23.6830 O   0  0  0  0  0  0  0  0  0  0  0  0
  -22.8200  -29.4620   22.4640 C   0  0  0  0  0  0  0  0  0  0  0  0
  -21.4910  -29.2850   22.3620 N   0  0  0  0  0  0  0  0  0  0  0  0
  -23.5140  -28.8310   23.2650 O   0  0  0  0  0  0  0  0  0  0  0  0
  -20.9890  -29.8460   21.6880 H   0  0  0  0  0  0  0  0  0  0  0  0
  -18.1240  -28.0930   22.9320 C   0  0  0  0  0  0  0  0  0  0  0  0
  -20.6890  -28.3390   23.1390 C   0  0  0  0  0  3  0  0  0  0  0  0
  -20.7710  -26.9160   22.5410 C   0  0  0  0  0  2  0  0  0  0  0  0
  -19.6420  -26.6130   21.5500 C   0  0  0  0  0  2  0  0  0  0  0  0
  -18.2770  -26.7540   22.2310 C   0  0  0  0  0  2  0  0  0  0  0  0
  -19.2560  -28.8440   23.3450 C   0  0  0  0  0  0  0  0  0  0  0  0
  -19.0560  -30.0980   23.9630 C   0  0  0  0  0  3  0  0  0  0  0  0
  -17.7580  -30.6010   24.1710 C   0  0  0  0  0  3  0  0  0  0  0  0
  -16.6400  -29.8460   23.7730 C   0  0  0  0  0  3  0  0  0  0  0  0
  -16.8250  -28.5940   23.1590 C   0  0  0  0  0  3  0  0  0  0  0  0
  -25.9570  -32.5300   23.7450 C   0  0  0  0  0  3  0  0  0  0  0  0
  -26.5110  -31.7410   24.9970 C   0  0  1  0  0  0  0  0  0  0  0  0
  -25.4430  -31.4600   26.0800 C   0  0  0  0  0  1  0  0  0  0  0  0
  -27.1100  -30.3830   24.5660 C   0  0  0  0  0  1  0  0  0  0  0  0
  -27.6560  -32.5450   25.6590 C   0  0  0  0  0  1  0  0  0  0  0  0
  -25.6300  -33.9160   24.1100 N   0  0  0  0  0  0  0  0  0  0  0  0
  -25.9330  -34.9930   23.3710 C   0  0  0  0  0  0  0  0  0  0  0  0
  -26.5850  -34.9240   22.3260 O   0  0  0  0  0  0  0  0  0  0  0  0
  -25.0500  -34.0430   24.9270 H   0  0  0  0  0  0  0  0  0  0  0  0
  -24.1780  -36.7730   23.0850 C   0  0  0  0  0  1  0  0  0  0  0  0
  -25.4340  -36.3620   23.8700 C   0  0  0  0  0  3  0  0  0  0  0  0
  -27.5630  -37.2630   24.7000 C   0  0  0  0  0  1  0  0  0  0  0  0
  -26.4510  -37.4320   23.7690 N   0  0  0  0  0  0  0  0  0  0  0  0
  -26.0330  -38.3430   23.9380 H   0  0  0  0  0  0  0  0  0  0  0  0
  1  2  1  0
  1  5  1  0
  2  6  1  0
  3  7  1  0
  4  7  1  0
  5  9  1  0
  5  3  1  0
  6 49  1  0
  6  4  1  0
  7  8  1  0
 10 20  1  0
 10  9  1  0
 11 20  1  0
 12 17  1  0
 13 14  1  0
 13 12  1  0
 15 14  1  0
 15 24  1  0
 15 16  1  0
 17 11  1  0
 17 16  1  0
 18 11  2  0
 20 19  1  0
 21 22  2  0
 22 41  1  0
 23 22  1  0
 23 26  1  0
 24 25  1  0
 24 21  1  0
 25 23  2  0
 26 27  1  0
 27 28  2  0
 29 32  1  0
 29 28  1  0
 30 29  2  0
 31 30  1  0
 31 26  2  0
 32 33  1  0
 33 38  2  0
 33 34  1  0
 34 35  2  0
 35 36  1  0
 36 40  1  0
 37 36  2  0
 38 37  1  0
 39 38  1  0
 41 42  1  0
 42 45  1  0
 42 44  1  0
 43 41  2  0
 46 21  1  0
 46 47  1  0
 48 46  1  0
 49 50  1  0
 51 62  2  0
 52 50  1  0
 52 57  1  0
 53 61  1  0
 53 63  1  0
 54 60  1  0
 54 56  1  0
 55 61  1  0
 56 55  1  0
 57 56  2  0
 58 59  1  0
 58 52  2  0
 59 54  2  0
 60 53  1  0
 61 51  1  0
 63 65  2  0
 64 63  1  0
 66 64  1  0
 67 76  2  0
 67 72  1  0
 68 64  1  0
 68 72  1  0
 69 68  1  0
 70 71  1  0
 70 69  1  0
 71 67  1  0
 72 73  2  0
 73 74  1  0
 75 74  2  0
 76 75  1  0
 77 51  1  0
 77 82  1  0
 77 78  1  0
 78 81  1  1
 78 79  1  0
 80 78  1  0
 82 85  1  0
 83 87  1  0
 83 82  1  0
 84 83  2  0
 87 86  1  0
 89 87  1  0
 89 90  1  0
 89 88  1  0
M  ISO  4  11 100  20 100  49 101  50 101
M  END
>  <TORSDO>  (78) 
F 19

>  <SCORE>  (78) 
-13.625

>  <name>  (78) 
78

>  <ligand_id>  (78) 
78

>  <original_smiles>  (78) 
[H]c1c([H])c([H])c2c(c1[H])C([H])([H])C([H])([H])C([H])([H])C2([H])N([H])C(=O)C1([H])N(C(=O)C([H])(N([H])C(=O)C([H])(N([H])C([H])([H])[H])C([H])([H])[H])C(C([H])([H])[H])(C([H])([H])[H])C([H])([H])[H])C([H])([H])c2c([H])c(OC([H])([H])C3([H])C([H])([H])C([H])([H])C([H])(C([H])([H])C([H])([H])N(C(=O)N4C([H])([H])C([H])([H])C([H])([H])C([H])(n5nc(-c6c([H])c([H])c(Oc7c([H])c([H])c(F)c([H])c7F)c([H])c6[H])c(C(=O)N([H])[H])c5N([H])[H])C4([H])[H])C([H])([H])[H])C([H])([H])C([H])(F)C3([H])[H])c([H])c([H])c2C1([H])[H]

>  <smiles>  (78) 
[H]c1c([H])c([H])c2c(c1[H])C([H])([H])C([H])([H])C([H])([H])C2([H])N([H])C(=O)C1([H])N(C(=O)C([H])(N([H])C(=O)C([H])(N([H])C([H])([H])[H])C([H])([H])[H])C(C([H])([H])[H])(C([H])([H])[H])C([H])([H])[H])C([H])([H])c2c([H])c(OC([H])([H])C3([H])C([H])([H])C([H])([H])C([H])(C([H])([H])C([H])([H])N(C(=O)N4C([H])([H])C([H])([H])C([H])([H])C([H])(n5nc(-c6c([H])c([H])c(Oc7c([H])c([H])c(F)c([H])c7F)c([H])c6[H])c(C(=O)N([H])[H])c5N([H])[H])C4([H])[H])C([H])([H])[H])C([H])([H])C([H])(F)C3([H])[H])c([H])c([H])c2C1([H])[H]

$$$$
79:0:0
     RDKit          3D

 94102  0  0  1  0  0  0  0  0999 V2000
  -29.9690  -20.1930   21.1990 C   0  0  0  0  0  3  0  0  0  0  0  0
  -29.2960  -21.3030   20.5580 C   0  0  0  0  0  0  0  0  0  0  0  0
  -28.5740  -20.9860   19.3640 C   0  0  0  0  0  0  0  0  0  0  0  0
  -29.9070  -18.8470   20.6890 C   0  0  0  0  0  0  0  0  0  0  0  0
  -28.5970  -19.6220   18.8900 C   0  0  0  0  0  0  0  0  0  0  0  0
  -29.1980  -18.6160   19.5790 N   0  0  0  0  0  0  0  0  0  0  0  0
  -28.9790  -18.1970   16.8130 C   0  0  0  0  0  1  0  0  0  0  0  0
  -27.2060  -19.9270   16.6150 C   0  0  0  0  0  1  0  0  0  0  0  0
  -27.9440  -19.0260   17.6140 C   0  0  0  0  0  3  0  0  0  0  0  0
  -26.3560  -22.3020   19.3120 C   0  0  0  0  0  1  0  0  0  0  0  0
  -27.7480  -22.1030   18.6970 C   0  0  0  0  0  2  0  0  0  0  0  0
  -29.1930  -22.7480   21.2370 C   0  0  0  0  0  2  0  0  0  0  0  0
  -29.4530  -24.1680   20.5020 C   0  0  0  0  0  3  0  0  0  0  0  0
  -28.5560  -25.4220   20.9490 C   0  0  0  0  0  3  0  0  0  0  0  0
  -28.6910  -26.7490   20.2890 O   0  0  0  0  0  0  0  0  0  0  0  0
  -24.6930  -31.9560   23.2750 C   0  0  0  0  0  0  0  0  0  0  0  0
  -27.5500  -27.5640   20.2340 C   0  0  0  0  0  0  0  0  0  0  0  0
  -23.5880  -30.5620   21.5610 C   0  0  0  0  0  3  0  0  0  0  0  0
  -25.1330  -29.0920   20.1530 C   0  0  0  0  0  0  0  0  0  0  0  0
  -26.1170  -30.9760   21.4620 C   0  0  0  0  0  2  0  0  0  0  0  0
  -26.2630  -29.6130   20.7950 C   0  0  0  0  0  0  0  0  0  0  0  0
  -27.4750  -28.8610   20.8240 C   0  0  0  0  0  3  0  0  0  0  0  0
  -26.4000  -27.0930   19.5600 C   0  0  0  0  0  3  0  0  0  0  0  0
  -25.2040  -27.8380   19.5240 C   0  0  0  0  0  3  0  0  0  0  0  0
  -23.8640  -29.9190   20.1760 C   0  0  0  0  0  2  0  0  0  0  0  0
  -24.8160  -31.1830   22.1580 N   0  0  0  0  0  0  0  0  0  0  0  0
  -23.5840  -32.1860   23.7800 O   0  0  0  0  0  0  0  0  0  0  0  0
  -22.9310  -29.5020   22.4790 C   0  0  0  0  0  0  0  0  0  0  0  0
  -21.6100  -29.3050   22.3240 N   0  0  0  0  0  0  0  0  0  0  0  0
  -23.6100  -28.8620   23.2850 O   0  0  0  0  0  0  0  0  0  0  0  0
  -21.1210  -29.8790   21.6490 H   0  0  0  0  0  0  0  0  0  0  0  0
  -18.2390  -28.0790   22.7810 C   0  0  0  0  0  0  0  0  0  0  0  0
  -20.7980  -28.3270   23.0480 C   0  0  0  0  0  3  0  0  0  0  0  0
  -20.8970  -26.9280   22.3970 C   0  0  0  0  0  2  0  0  0  0  0  0
  -19.7880  -26.6600   21.3740 C   0  0  0  0  0  2  0  0  0  0  0  0
  -18.4110  -26.7690   22.0320 C   0  0  0  0  0  2  0  0  0  0  0  0
  -19.3590  -28.8190   23.2450 C   0  0  0  0  0  0  0  0  0  0  0  0
  -19.1420  -30.0470   23.9080 C   0  0  0  0  0  3  0  0  0  0  0  0
  -17.8390  -30.5350   24.1110 C   0  0  0  0  0  3  0  0  0  0  0  0
  -16.7320  -29.7930   23.6630 C   0  0  0  0  0  3  0  0  0  0  0  0
  -16.9330  -28.5660   23.0050 C   0  0  0  0  0  3  0  0  0  0  0  0
  -25.9330  -32.6140   23.9600 C   0  0  0  0  0  3  0  0  0  0  0  0
  -25.5890  -34.0140   24.2480 N   0  0  0  0  0  0  0  0  0  0  0  0
  -25.9540  -35.0610   23.4960 C   0  0  0  0  0  0  0  0  0  0  0  0
  -26.6830  -34.9500   22.5060 O   0  0  0  0  0  0  0  0  0  0  0  0
  -24.9480  -34.1780   25.0110 H   0  0  0  0  0  0  0  0  0  0  0  0
  -24.2260  -36.8340   23.0240 C   0  0  0  0  0  1  0  0  0  0  0  0
  -25.4280  -36.4510   23.9050 C   0  0  0  0  0  3  0  0  0  0  0  0
  -27.5050  -37.3760   24.8320 C   0  0  0  0  0  1  0  0  0  0  0  0
  -26.4540  -37.5150   23.8280 N   0  0  0  0  0  0  0  0  0  0  0  0
  -26.0290  -38.4310   23.9390 H   0  0  0  0  0  0  0  0  0  0  0  0
  -26.3840  -31.8730   25.2780 C   0  0  1  0  0  0  0  0  0  0  0  0
  -25.2310  -31.6210   26.2760 C   0  0  0  0  0  1  0  0  0  0  0  0
  -27.0260  -30.5060   24.9410 C   0  0  0  0  0  1  0  0  0  0  0  0
  -27.4660  -32.7080   26.0030 C   0  0  0  0  0  1  0  0  0  0  0  0
  -30.6830  -17.5860   21.2750 C   0  0  0  0  0  2  0  0  0  0  0  0
  -30.9300  -15.0640   20.5580 C   0  0  0  0  0  0  0  0  0  0  0  0
  -30.7090  -12.8800   19.3500 C   0  0  0  0  0  2  0  0  0  0  0  0
  -29.7780  -13.0180   18.1260 C   0  0  0  0  0  2  0  0  0  0  0  0
  -28.3050  -12.8270   18.5300 C   0  0  0  0  0  2  0  0  0  0  0  0
  -27.9240  -13.6550   19.7870 C   0  0  0  0  0  3  0  0  0  0  0  0
  -28.9640  -13.4940   20.9160 C   0  0  0  0  0  2  0  0  0  0  0  0
  -30.2730  -13.8700   20.3650 N   0  0  0  0  0  0  0  0  0  0  0  0
  -32.1060  -15.1800   20.1960 O   0  0  0  0  0  0  0  0  0  0  0  0
  -30.2130  -16.1580   21.0060 N   0  0  0  0  0  0  0  0  0  0  0  0
  -29.2380  -16.0050   21.2060 H   0  0  0  0  0  0  0  0  0  0  0  0
  -25.5220  -14.2320   20.4760 C   0  0  0  0  0  0  0  0  0  0  0  0
  -24.4500  -13.4490   20.8170 C   0  0  0  0  0  0  0  0  0  0  0  0
  -24.9190  -12.1010   20.7850 C   0  0  0  0  0  0  0  0  0  0  0  0
  -26.5710  -13.3570   20.2480 N   0  0  0  0  0  0  0  0  0  0  0  0
  -26.2150  -12.0700   20.4970 N   0  0  0  0  0  0  0  0  0  0  0  0
  -24.1910  -10.8360   20.9490 C   0  0  0  0  0  0  0  0  0  0  0  0
  -24.5780   -9.8780   21.9090 C   0  0  0  0  0  3  0  0  0  0  0  0
  -23.8480   -8.6810   22.0620 C   0  0  0  0  0  3  0  0  0  0  0  0
  -22.7160   -8.4310   21.2510 C   0  0  0  0  0  0  0  0  0  0  0  0
  -22.3480   -9.3770   20.2760 C   0  0  0  0  0  3  0  0  0  0  0  0
  -23.0800  -10.5660   20.1240 C   0  0  0  0  0  3  0  0  0  0  0  0
  -21.9640   -7.2820   21.3090 O   0  0  0  0  0  0  0  0  0  0  0  0
  -21.8300   -6.5670   22.4720 C   0  0  0  0  0  0  0  0  0  0  0  0
  -21.3090   -7.1460   23.6480 C   0  0  0  0  0  3  0  0  0  0  0  0
  -21.1220   -6.3560   24.8000 C   0  0  0  0  0  3  0  0  0  0  0  0
  -21.4520   -4.9870   24.7760 C   0  0  0  0  0  0  0  0  0  0  0  0
  -21.9640   -4.4070   23.6030 C   0  0  0  0  0  3  0  0  0  0  0  0
  -22.1510   -5.1940   22.4530 C   0  0  0  0  0  0  0  0  0  0  0  0
  -22.6250   -4.6240   21.3180 F   0  0  0  0  0  0  0  0  0  0  0  0
  -21.2660   -4.2240   25.8800 F   0  0  0  0  0  0  0  0  0  0  0  0
  -23.0490  -13.9250   21.0690 C   0  0  0  0  0  0  0  0  0  0  0  0
  -22.3080  -13.2270   21.9230 N   0  0  0  0  0  0  0  0  0  0  0  0
  -22.6150  -14.9480   20.5440 O   0  0  0  0  0  0  0  0  0  0  0  0
  -22.6690  -12.3990   22.3760 H   0  0  0  0  0  0  0  0  0  0  0  0
  -21.3660  -13.5270   22.1280 H   0  0  0  0  0  0  0  0  0  0  0  0
  -25.6810  -15.6050   20.3180 N   0  0  0  0  0  0  0  0  0  0  0  0
  -24.9020  -16.2440   20.4320 H   0  0  0  0  0  0  0  0  0  0  0  0
  -26.5390  -16.0720   20.0550 H   0  0  0  0  0  0  0  0  0  0  0  0
  2  1  2  0
  2 12  1  0
  3  2  1  0
  4  1  1  0
  4 56  1  0
  5  3  2  0
  5  6  1  0
  6  4  2  0
  7  9  1  0
  8  9  1  0
  9  5  1  0
 11 10  1  0
 11  3  1  0
 13 14  2  0
 13 12  1  0
 15 14  1  0
 16 27  2  0
 17 15  1  0
 17 22  1  0
 18 26  1  0
 18 28  1  0
 19 25  1  0
 19 21  1  0
 20 26  1  0
 21 22  2  0
 21 20  1  0
 23 17  2  0
 24 23  1  0
 24 19  2  0
 25 18  1  0
 26 16  1  0
 28 30  2  0
 29 28  1  0
 31 29  1  0
 32 41  2  0
 32 37  1  0
 33 29  1  0
 33 37  1  0
 34 33  1  0
 35 36  1  0
 35 34  1  0
 36 32  1  0
 37 38  2  0
 38 39  1  0
 40 39  2  0
 41 40  1  0
 42 16  1  0
 42 43  1  0
 42 52  1  0
 43 46  1  0
 44 48  1  0
 44 43  1  0
 45 44  2  0
 48 47  1  0
 50 48  1  0
 50 51  1  0
 50 49  1  0
 52 55  1  1
 52 53  1  0
 54 52  1  0
 57 65  1  0
 58 63  1  0
 59 60  1  0
 59 58  1  0
 61 60  1  0
 61 70  1  0
 61 62  1  0
 63 57  1  0
 63 62  1  0
 64 57  2  0
 65 66  1  0
 65 56  1  0
 67 68  2  0
 68 87  1  0
 69 68  1  0
 69 72  1  0
 70 67  1  0
 70 71  1  0
 71 69  2  0
 72 73  1  0
 73 74  2  0
 75 78  1  0
 75 74  1  0
 76 75  2  0
 77 76  1  0
 77 72  2  0
 78 79  1  0
 79 80  1  0
 80 81  2  0
 82 81  1  0
 82 86  1  0
 83 82  2  0
 84 79  2  0
 84 83  1  0
 85 84  1  0
 87 88  1  0
 88 91  1  0
 88 90  1  0
 89 87  2  0
 92 93  1  0
 92 67  1  0
 94 92  1  0
M  ISO  4  14 101  15 101  57 100  65 100
M  END
>  <TORSDO>  (79) 
F 22

>  <SCORE>  (79) 
-12.776

>  <name>  (79) 
79

>  <ligand_id>  (79) 
79

>  <original_smiles>  (79) 
[H]c1c([H])c([H])c2c(c1[H])C([H])([H])C([H])([H])C([H])([H])C2([H])N([H])C(=O)C1([H])N(C(=O)C([H])(N([H])C(=O)C([H])(N([H])C([H])([H])[H])C([H])([H])[H])C(C([H])([H])[H])(C([H])([H])[H])C([H])([H])[H])C([H])([H])c2c([H])c(OC([H])([H])C([H])([H])C([H])([H])c3c([H])c(C([H])([H])N([H])C(=O)N4C([H])([H])C([H])([H])C([H])([H])C([H])(n5nc(-c6c([H])c([H])c(Oc7c([H])c([H])c(F)c([H])c7F)c([H])c6[H])c(C(=O)N([H])[H])c5N([H])[H])C4([H])[H])nc(C([H])(C([H])([H])[H])C([H])([H])[H])c3C([H])([H])C([H])([H])[H])c([H])c([H])c2C1([H])[H]

>  <smiles>  (79) 
[H]c1c([H])c([H])c2c(c1[H])C([H])([H])C([H])([H])C([H])([H])C2([H])N([H])C(=O)C1([H])N(C(=O)C([H])(N([H])C(=O)C([H])(N([H])C([H])([H])[H])C([H])([H])[H])C(C([H])([H])[H])(C([H])([H])[H])C([H])([H])[H])C([H])([H])c2c([H])c(OC([H])([H])C([H])([H])C([H])([H])c3c([H])c(C([H])([H])N([H])C(=O)N4C([H])([H])C([H])([H])C([H])([H])C([H])(n5nc(-c6c([H])c([H])c(Oc7c([H])c([H])c(F)c([H])c7F)c([H])c6[H])c(C(=O)N([H])[H])c5N([H])[H])C4([H])[H])nc(C([H])(C([H])([H])[H])C([H])([H])[H])c3C([H])([H])C([H])([H])[H])c([H])c([H])c2C1([H])[H]

$$$$
80:0:0
     RDKit          3D

108116  0  0  1  0  0  0  0  0999 V2000
  -28.7560  -17.8620   19.0990 C   0  0  0  0  0  3  0  0  0  0  0  0
  -28.8610  -18.8390   20.1210 C   0  0  0  0  0  0  0  0  0  0  0  0
  -29.8400  -17.0340   19.1600 C   0  0  0  0  0  0  0  0  0  0  0  0
  -29.9710  -18.5190   20.8590 C   0  0  0  0  0  0  0  0  0  0  0  0
  -30.5400  -17.3620   20.3200 N   0  0  0  0  0  0  0  0  0  0  0  0
  -28.7310  -21.2240   20.8380 C   0  0  0  0  0  1  0  0  0  0  0  0
  -27.9380  -20.0270   20.2900 C   0  0  0  0  0  3  0  0  0  0  0  0
  -26.7300  -19.1810   18.1740 C   0  0  0  0  0  1  0  0  0  0  0  0
  -27.2020  -20.3960   18.9870 C   0  0  0  0  0  2  0  0  0  0  0  0
  -30.2580  -15.9690   18.1810 C   0  0  0  0  0  2  0  0  0  0  0  0
  -30.6470  -16.5000   16.7830 C   0  0  0  0  0  3  0  0  0  0  0  0
  -30.7760  -18.0410   16.6750 C   0  0  0  0  0  3  0  0  0  0  0  0
  -30.4100  -17.7250   14.1630 C   0  0  0  0  0  1  0  0  0  0  0  0
  -31.0510  -18.5980   15.2580 C   0  0  0  0  0  3  0  0  0  0  0  0
  -30.5220  -20.0500   15.1170 C   0  0  0  0  0  2  0  0  0  0  0  0
  -32.1010  -21.6640   16.0970 C   0  0  0  0  0  1  0  0  0  0  0  0
  -30.8260  -20.9310   16.2800 N   0  0  1  0  0  4  0  0  0  0  0  0
  -30.9530  -20.3080   17.0660 H   0  0  0  0  0  0  0  0  0  0  0  0
  -29.6580  -21.8050   16.6000 C   0  0  0  0  0  2  0  0  0  0  0  0
  -29.7160  -22.6180   17.9220 C   0  0  0  0  0  2  0  0  0  0  0  0
  -30.2950  -24.0510   17.7970 C   0  0  0  0  0  2  0  0  0  0  0  0
  -30.0350  -24.8830   18.9350 O   0  0  0  0  0  0  0  0  0  0  0  0
  -25.8060  -29.0900   22.8240 C   0  0  0  0  0  0  0  0  0  0  0  0
  -28.8470  -25.5880   18.9850 C   0  0  0  0  0  0  0  0  0  0  0  0
  -24.8260  -28.2260   20.7250 C   0  0  0  0  0  3  0  0  0  0  0  0
  -26.4540  -27.0950   19.1270 C   0  0  0  0  0  0  0  0  0  0  0  0
  -27.3540  -28.5470   20.9500 C   0  0  0  0  0  2  0  0  0  0  0  0
  -27.5260  -27.4020   19.9750 C   0  0  0  0  0  0  0  0  0  0  0  0
  -28.7200  -26.6490   19.9110 C   0  0  0  0  0  3  0  0  0  0  0  0
  -27.7440  -25.2890   18.1490 C   0  0  0  0  0  3  0  0  0  0  0  0
  -26.5560  -26.0320   18.2210 C   0  0  0  0  0  3  0  0  0  0  0  0
  -25.2140  -27.9490   19.2500 C   0  0  0  0  0  2  0  0  0  0  0  0
  -26.0060  -28.6190   21.5620 N   0  0  0  0  0  0  0  0  0  0  0  0
  -24.6620  -29.2320   23.2810 O   0  0  0  0  0  0  0  0  0  0  0  0
  -24.0680  -26.9970   21.2770 C   0  0  0  0  0  0  0  0  0  0  0  0
  -22.7550  -26.9280   20.9930 N   0  0  0  0  0  0  0  0  0  0  0  0
  -24.6580  -26.1230   21.9160 O   0  0  0  0  0  0  0  0  0  0  0  0
  -22.3440  -27.6860   20.4670 H   0  0  0  0  0  0  0  0  0  0  0  0
  -19.3030  -25.8670   20.9490 C   0  0  0  0  0  0  0  0  0  0  0  0
  -21.8510  -25.8460   21.3820 C   0  0  0  0  0  3  0  0  0  0  0  0
  -21.9120  -24.6810   20.3700 C   0  0  0  0  0  2  0  0  0  0  0  0
  -20.8540  -24.7830   19.2670 C   0  0  0  0  0  2  0  0  0  0  0  0
  -19.4470  -24.8050   19.8710 C   0  0  0  0  0  2  0  0  0  0  0  0
  -20.4340  -26.3680   21.6470 C   0  0  0  0  0  0  0  0  0  0  0  0
  -20.2510  -27.3800   22.6130 C   0  0  0  0  0  3  0  0  0  0  0  0
  -18.9680  -27.8890   22.8870 C   0  0  0  0  0  3  0  0  0  0  0  0
  -17.8490  -27.3820   22.2030 C   0  0  0  0  0  3  0  0  0  0  0  0
  -18.0190  -26.3680   21.2400 C   0  0  0  0  0  3  0  0  0  0  0  0
  -26.9980  -29.4920   23.7460 C   0  0  0  0  0  3  0  0  0  0  0  0
  -26.6980  -30.8110   24.3140 N   0  0  0  0  0  0  0  0  0  0  0  0
  -27.2490  -31.9610   23.9040 C   0  0  0  0  0  0  0  0  0  0  0  0
  -28.1340  -32.0120   23.0440 O   0  0  0  0  0  0  0  0  0  0  0  0
  -25.9530  -30.8480   24.9940 H   0  0  0  0  0  0  0  0  0  0  0  0
  -25.7700  -33.9670   23.5850 C   0  0  0  0  0  1  0  0  0  0  0  0
  -26.7360  -33.2610   24.5510 C   0  0  0  0  0  3  0  0  0  0  0  0
  -28.6170  -33.7010   26.0620 C   0  0  0  0  0  1  0  0  0  0  0  0
  -27.8170  -34.1890   24.9440 N   0  0  0  0  0  0  0  0  0  0  0  0
  -27.4380  -35.0980   25.1960 H   0  0  0  0  0  0  0  0  0  0  0  0
  -27.2790  -28.4420   24.8910 C   0  0  1  0  0  0  0  0  0  0  0  0
  -26.0250  -28.0760   25.7170 C   0  0  0  0  0  1  0  0  0  0  0  0
  -27.8570  -27.1350   24.3000 C   0  0  0  0  0  1  0  0  0  0  0  0
  -28.3430  -29.0010   25.8640 C   0  0  0  0  0  1  0  0  0  0  0  0
  -30.5640  -19.2600   22.0300 C   0  0  0  0  0  2  0  0  0  0  0  0
  -31.1830  -20.6220   21.6550 C   0  0  0  0  0  2  0  0  0  0  0  0
  -32.2490  -20.5550   20.5430 C   0  0  0  0  0  2  0  0  0  0  0  0
  -33.5590  -21.7560   18.7310 C   0  0  0  0  0  1  0  0  0  0  0  0
  -32.6670  -23.0820   20.6750 C   0  0  0  0  0  1  0  0  0  0  0  0
  -32.4210  -21.8720   19.7570 C   0  0  0  0  0  3  0  0  0  0  0  0
  -31.6990  -16.6500   20.8700 C   0  0  0  0  0  2  0  0  0  0  0  0
  -31.3620  -15.8850   22.1680 C   0  0  0  0  0  2  0  0  0  0  0  0
  -31.1800  -13.5660   21.2690 C   0  0  0  0  0  0  0  0  0  0  0  0
  -30.8740  -11.1890   20.6790 C   0  0  0  0  0  2  0  0  0  0  0  0
  -30.1230  -11.0150   19.3480 C   0  0  0  0  0  2  0  0  0  0  0  0
  -28.6010  -11.0260   19.5780 C   0  0  0  0  0  2  0  0  0  0  0  0
  -28.1390  -12.2300   20.4390 C   0  0  0  0  0  3  0  0  0  0  0  0
  -29.0050  -12.3610   21.7110 C   0  0  0  0  0  2  0  0  0  0  0  0
  -30.4230  -12.4400   21.3070 N   0  0  0  0  0  0  0  0  0  0  0  0
  -32.2840  -13.6260   20.7190 O   0  0  0  0  0  0  0  0  0  0  0  0
  -30.6810  -14.6110   21.9370 N   0  0  0  0  0  0  0  0  0  0  0  0
  -29.7670  -14.4980   22.3490 H   0  0  0  0  0  0  0  0  0  0  0  0
  -25.7840  -13.1520   20.9180 C   0  0  0  0  0  0  0  0  0  0  0  0
  -24.5850  -12.5280   21.1410 C   0  0  0  0  0  0  0  0  0  0  0  0
  -24.8560  -11.1260   21.1010 C   0  0  0  0  0  0  0  0  0  0  0  0
  -26.7170  -12.1370   20.7620 N   0  0  0  0  0  0  0  0  0  0  0  0
  -26.1530  -10.9130   20.9260 N   0  0  0  0  0  0  0  0  0  0  0  0
  -23.9470   -9.9750   21.1640 C   0  0  0  0  0  0  0  0  0  0  0  0
  -24.0710   -8.9890   22.1690 C   0  0  0  0  0  3  0  0  0  0  0  0
  -23.1740   -7.9010   22.2180 C   0  0  0  0  0  3  0  0  0  0  0  0
  -22.1380   -7.7900   21.2610 C   0  0  0  0  0  0  0  0  0  0  0  0
  -22.0330   -8.7610   20.2490 C   0  0  0  0  0  3  0  0  0  0  0  0
  -22.9310   -9.8400   20.1970 C   0  0  0  0  0  3  0  0  0  0  0  0
  -21.2370   -6.7540   21.2150 O   0  0  0  0  0  0  0  0  0  0  0  0
  -20.8500   -6.0880   22.3490 C   0  0  0  0  0  0  0  0  0  0  0  0
  -20.1810   -6.7420   23.4070 C   0  0  0  0  0  3  0  0  0  0  0  0
  -19.7380   -6.0050   24.5230 C   0  0  0  0  0  3  0  0  0  0  0  0
  -19.9540   -4.6150   24.5810 C   0  0  0  0  0  0  0  0  0  0  0  0
  -20.6140   -3.9600   23.5260 C   0  0  0  0  0  3  0  0  0  0  0  0
  -21.0570   -4.6940   22.4120 C   0  0  0  0  0  0  0  0  0  0  0  0
  -21.6740   -4.0560   21.3890 F   0  0  0  0  0  0  0  0  0  0  0  0
  -19.5220   -3.9040   25.6500 F   0  0  0  0  0  0  0  0  0  0  0  0
  -23.2470  -13.1910   21.2910 C   0  0  0  0  0  0  0  0  0  0  0  0
  -22.3440  -12.5820   22.0530 N   0  0  0  0  0  0  0  0  0  0  0  0
  -23.0070  -14.2800   20.7720 O   0  0  0  0  0  0  0  0  0  0  0  0
  -22.5450  -11.6970   22.4950 H   0  0  0  0  0  0  0  0  0  0  0  0
  -21.4380  -13.0060   22.1960 H   0  0  0  0  0  0  0  0  0  0  0  0
  -26.1550  -14.4880   20.8200 N   0  0  0  0  0  0  0  0  0  0  0  0
  -25.4900  -15.2420   20.9490 H   0  0  0  0  0  0  0  0  0  0  0  0
  -27.1110  -14.8140   20.7470 H   0  0  0  0  0  0  0  0  0  0  0  0
  1  3  2  0
  1  2  1  0
  2  7  1  0
  2  4  2  0
  3  5  1  0
  4 63  1  0
  5  4  1  0
  5 69  1  0
  7  6  1  0
  8  9  1  0
  9  7  1  0
 10  3  1  0
 11 10  1  0
 12 11  2  0
 14 13  1  0
 14 12  1  0
 15 14  1  0
 15 17  1  0
 16 17  1  0
 17 19  1  0
 17 18  1  1
 19 20  1  0
 21 20  1  0
 21 22  1  0
 22 24  1  0
 23 34  2  0
 24 29  1  0
 25 35  1  0
 25 33  1  0
 26 32  1  0
 26 28  1  0
 27 33  1  0
 28 27  1  0
 29 28  2  0
 30 31  1  0
 30 24  2  0
 31 26  2  0
 32 25  1  0
 33 23  1  0
 35 37  2  0
 36 35  1  0
 38 36  1  0
 39 48  2  0
 39 44  1  0
 40 36  1  0
 40 44  1  0
 41 40  1  0
 42 43  1  0
 42 41  1  0
 43 39  1  0
 44 45  2  0
 45 46  1  0
 47 46  2  0
 48 47  1  0
 49 23  1  0
 49 50  1  0
 49 59  1  0
 50 53  1  0
 51 50  1  0
 51 55  1  0
 52 51  2  0
 55 54  1  0
 55 57  1  0
 57 58  1  0
 57 56  1  0
 59 60  1  1
 59 62  1  0
 61 59  1  0
 64 63  1  0
 65 64  1  0
 66 68  1  0
 68 65  1  0
 68 67  1  0
 69 70  1  0
 71 77  1  0
 71 79  1  0
 72 77  1  0
 73 74  1  0
 73 72  1  0
 75 74  1  0
 75 84  1  0
 75 76  1  0
 77 76  1  0
 78 71  2  0
 79 70  1  0
 79 80  1  0
 81 82  2  0
 82101  1  0
 83 82  1  0
 83 86  1  0
 84 81  1  0
 84 85  1  0
 85 83  2  0
 86 87  1  0
 87 88  2  0
 89 88  1  0
 90 89  2  0
 91 90  1  0
 91 86  2  0
 92 89  1  0
 92 93  1  0
 93 98  2  0
 93 94  1  0
 94 95  2  0
 95 96  1  0
 96100  1  0
 97 96  2  0
 98 97  1  0
 99 98  1  0
101102  1  0
102105  1  0
102104  1  0
103101  2  0
106 81  1  0
106107  1  0
108106  1  0
M  ISO  4  21 101  22 101  71 100  79 100
M  END
>  <TORSDO>  (80) 
F 33

>  <SCORE>  (80) 
-4.924

>  <name>  (80) 
80

>  <ligand_id>  (80) 
80

>  <original_smiles>  (80) 
[H]c1c([H])c([H])c2c(c1[H])C([H])([H])C([H])([H])C([H])([H])C2([H])N([H])C(=O)C1([H])N(C(=O)C([H])(N([H])C(=O)C([H])(N([H])C([H])([H])[H])C([H])([H])[H])C(C([H])([H])[H])(C([H])([H])[H])C([H])([H])[H])C([H])([H])c2c([H])c(OC([H])([H])C([H])([H])C([H])([H])[N+]([H])(C([H])([H])[H])C([H])([H])C([H])(C([H])([H])[H])C([H])([H])C([H])([H])C([H])([H])c3c([H])c(C([H])(C([H])([H])[H])C([H])([H])C([H])([H])[H])c(C([H])([H])C([H])([H])C([H])([H])C([H])(C([H])([H])[H])C([H])([H])[H])n3C([H])([H])C([H])([H])N([H])C(=O)N3C([H])([H])C([H])([H])C([H])([H])C([H])(n4nc(-c5c([H])c([H])c(Oc6c([H])c([H])c(F)c([H])c6F)c([H])c5[H])c(C(=O)N([H])[H])c4N([H])[H])C3([H])[H])c([H])c([H])c2C1([H])[H]

>  <smiles>  (80) 
[H]c1c([H])c([H])c2c(c1[H])C([H])([H])C([H])([H])C([H])([H])C2([H])N([H])C(=O)C1([H])N(C(=O)C([H])(N([H])C(=O)C([H])(N([H])C([H])([H])[H])C([H])([H])[H])C(C([H])([H])[H])(C([H])([H])[H])C([H])([H])[H])C([H])([H])c2c([H])c(OC([H])([H])C([H])([H])C([H])([H])[N+]([H])(C([H])([H])[H])C([H])([H])C([H])(C([H])([H])[H])C([H])([H])C([H])([H])C([H])([H])c3c([H])c(C([H])(C([H])([H])[H])C([H])([H])C([H])([H])[H])c(C([H])([H])C([H])([H])C([H])([H])C([H])(C([H])([H])[H])C([H])([H])[H])n3C([H])([H])C([H])([H])N([H])C(=O)N3C([H])([H])C([H])([H])C([H])([H])C([H])(n4nc(-c5c([H])c([H])c(Oc6c([H])c([H])c(F)c([H])c6F)c([H])c5[H])c(C(=O)N([H])[H])c4N([H])[H])C3([H])[H])c([H])c([H])c2C1([H])[H]

$$$$
81:0:0
     RDKit          3D

 97105  0  0  1  0  0  0  0  0999 V2000
  -29.7750  -22.2080   23.5130 C   0  0  0  0  0  1  0  0  0  0  0  0
  -29.6330  -21.6820   22.0650 C   0  0  0  0  0  3  0  0  0  0  0  0
  -29.6500  -19.3880   20.8380 C   0  0  0  0  0  3  0  0  0  0  0  0
  -30.8690  -19.5800   22.8980 C   0  0  0  0  0  3  0  0  0  0  0  0
  -30.0790  -20.2060   21.9090 C   0  0  0  0  0  0  0  0  0  0  0  0
  -30.0460  -18.0280   20.7710 C   0  0  0  0  0  0  0  0  0  0  0  0
  -30.8580  -17.5220   21.8170 C   0  0  0  0  0  0  0  0  0  0  0  0
  -31.2510  -18.2890   22.8520 N   0  0  0  0  0  0  0  0  0  0  0  0
  -32.5720  -15.9240   20.8330 C   0  0  0  0  0  1  0  0  0  0  0  0
  -31.4340  -16.1100   21.8400 C   0  0  0  0  0  2  0  0  0  0  0  0
  -29.6840  -17.2170   19.5210 C   0  0  0  0  0  2  0  0  0  0  0  0
  -29.9380  -14.7950   19.1060 C   0  0  0  0  0  0  0  0  0  0  0  0
  -29.7730  -12.4420   18.3960 C   0  0  0  0  0  2  0  0  0  0  0  0
  -28.6470  -12.2870   17.3550 C   0  0  0  0  0  2  0  0  0  0  0  0
  -27.2980  -12.0410   18.0560 C   0  0  0  0  0  2  0  0  0  0  0  0
  -27.0160  -13.0660   19.1880 C   0  0  0  0  0  3  0  0  0  0  0  0
  -28.2410  -13.2220   20.1190 C   0  0  0  0  0  2  0  0  0  0  0  0
  -29.4100  -13.5560   19.2870 N   0  0  0  0  0  0  0  0  0  0  0  0
  -30.8930  -15.0110   18.3570 O   0  0  0  0  0  0  0  0  0  0  0  0
  -29.3080  -15.8120   19.7180 N   0  0  0  0  0  0  0  0  0  0  0  0
  -28.4870  -15.5950   20.2620 H   0  0  0  0  0  0  0  0  0  0  0  0
  -24.8190  -13.5480   20.4390 C   0  0  0  0  0  0  0  0  0  0  0  0
  -23.8780  -12.7200   20.9900 C   0  0  0  0  0  0  0  0  0  0  0  0
  -24.3550  -11.3890   20.7830 C   0  0  0  0  0  0  0  0  0  0  0  0
  -25.8090  -12.7180   19.9360 N   0  0  0  0  0  0  0  0  0  0  0  0
  -25.5460  -11.4120   20.1980 N   0  0  0  0  0  0  0  0  0  0  0  0
  -23.7200  -10.0940   21.0590 C   0  0  0  0  0  0  0  0  0  0  0  0
  -24.2680   -9.1880   21.9950 C   0  0  0  0  0  3  0  0  0  0  0  0
  -23.6320   -7.9560   22.2570 C   0  0  0  0  0  3  0  0  0  0  0  0
  -22.4320   -7.6200   21.5860 C   0  0  0  0  0  0  0  0  0  0  0  0
  -21.9030   -8.5140   20.6380 C   0  0  0  0  0  3  0  0  0  0  0  0
  -22.5410   -9.7380   20.3740 C   0  0  0  0  0  3  0  0  0  0  0  0
  -21.7590   -6.4340   21.7570 O   0  0  0  0  0  0  0  0  0  0  0  0
  -21.6600   -5.8330   22.9850 C   0  0  0  0  0  0  0  0  0  0  0  0
  -21.0800   -6.4890   24.0920 C   0  0  0  0  0  3  0  0  0  0  0  0
  -20.9370   -5.8090   25.3180 C   0  0  0  0  0  3  0  0  0  0  0  0
  -21.3620   -4.4730   25.4360 C   0  0  0  0  0  0  0  0  0  0  0  0
  -21.9340   -3.8150   24.3330 C   0  0  0  0  0  3  0  0  0  0  0  0
  -22.0800   -4.4930   23.1100 C   0  0  0  0  0  0  0  0  0  0  0  0
  -22.6110   -3.8480   22.0430 F   0  0  0  0  0  0  0  0  0  0  0  0
  -21.2180   -3.8160   26.6120 F   0  0  0  0  0  0  0  0  0  0  0  0
  -22.5640  -13.1320   21.5890 C   0  0  0  0  0  0  0  0  0  0  0  0
  -22.0890  -12.4000   22.5900 N   0  0  0  0  0  0  0  0  0  0  0  0
  -21.9710  -14.1370   21.1990 O   0  0  0  0  0  0  0  0  0  0  0  0
  -22.5890  -11.5900   22.9280 H   0  0  0  0  0  0  0  0  0  0  0  0
  -21.2140  -12.6510   23.0260 H   0  0  0  0  0  0  0  0  0  0  0  0
  -24.9050  -14.9300   20.3040 N   0  0  0  0  0  0  0  0  0  0  0  0
  -24.1640  -15.5490   20.6120 H   0  0  0  0  0  0  0  0  0  0  0  0
  -25.6550  -15.4160   19.8260 H   0  0  0  0  0  0  0  0  0  0  0  0
  -30.2730  -22.6590   21.1330 N   0  0  0  0  0  4  0  0  0  0  0  0
  -31.0470  -23.1020   21.6010 H   0  0  0  0  0  0  0  0  0  0  0  0
  -30.6460  -22.1770   20.3320 H   0  0  0  0  0  0  0  0  0  0  0  0
  -29.3250  -23.6900   20.6180 C   0  0  0  0  0  2  0  0  0  0  0  0
  -29.8990  -25.1260   20.4360 C   0  0  0  0  0  2  0  0  0  0  0  0
  -28.8000  -26.5180   22.2680 C   0  0  0  0  0  1  0  0  0  0  0  0
  -28.8160  -26.1920   20.7570 C   0  0  0  0  0  3  0  0  0  0  0  0
  -28.9400  -27.4250   20.0160 O   0  0  0  0  0  0  0  0  0  0  0  0
  -25.2110  -31.7940   24.1810 C   0  0  0  0  0  0  0  0  0  0  0  0
  -27.8050  -28.2030   20.1210 C   0  0  0  0  0  0  0  0  0  0  0  0
  -23.9680  -30.7640   22.3060 C   0  0  0  0  0  3  0  0  0  0  0  0
  -25.3930  -29.6160   20.5280 C   0  0  0  0  0  0  0  0  0  0  0  0
  -26.4810  -31.2100   22.1200 C   0  0  0  0  0  2  0  0  0  0  0  0
  -26.5630  -30.0240   21.1830 C   0  0  0  0  0  0  0  0  0  0  0  0
  -27.7750  -29.3260   20.9770 C   0  0  0  0  0  3  0  0  0  0  0  0
  -26.6250  -27.8270   19.4410 C   0  0  0  0  0  3  0  0  0  0  0  0
  -25.4190  -28.5180   19.6520 C   0  0  0  0  0  3  0  0  0  0  0  0
  -24.1390  -30.4110   20.8040 C   0  0  0  0  0  2  0  0  0  0  0  0
  -25.2400  -31.2570   22.9290 N   0  0  0  0  0  0  0  0  0  0  0  0
  -24.1450  -31.9210   24.8000 O   0  0  0  0  0  0  0  0  0  0  0  0
  -23.3600  -29.5450   23.0370 C   0  0  0  0  0  0  0  0  0  0  0  0
  -22.0710  -29.2740   22.7790 N   0  0  0  0  0  0  0  0  0  0  0  0
  -24.0490  -28.8530   23.7930 O   0  0  0  0  0  0  0  0  0  0  0  0
  -21.5740  -29.8930   22.1520 H   0  0  0  0  0  0  0  0  0  0  0  0
  -18.8480  -27.6450   22.6910 C   0  0  0  0  0  0  0  0  0  0  0  0
  -21.3010  -28.1570   23.3240 C   0  0  0  0  0  3  0  0  0  0  0  0
  -21.6560  -26.8350   22.6050 C   0  0  0  0  0  2  0  0  0  0  0  0
  -20.7300  -26.5230   21.4250 C   0  0  0  0  0  2  0  0  0  0  0  0
  -19.2750  -26.4240   21.8950 C   0  0  0  0  0  2  0  0  0  0  0  0
  -19.8000  -28.4680   23.3490 C   0  0  0  0  0  0  0  0  0  0  0  0
  -19.3510  -29.6110   24.0450 C   0  0  0  0  0  3  0  0  0  0  0  0
  -17.9820  -29.9330   24.0950 C   0  0  0  0  0  3  0  0  0  0  0  0
  -17.0430  -29.1060   23.4570 C   0  0  0  0  0  3  0  0  0  0  0  0
  -17.4760  -27.9630   22.7600 C   0  0  0  0  0  3  0  0  0  0  0  0
  -26.5100  -32.2960   24.8850 C   0  0  0  0  0  3  0  0  0  0  0  0
  -26.2940  -33.6990   25.2630 N   0  0  0  0  0  0  0  0  0  0  0  0
  -26.7680  -34.7500   24.5820 C   0  0  0  0  0  0  0  0  0  0  0  0
  -27.5030  -34.6350   23.5970 O   0  0  0  0  0  0  0  0  0  0  0  0
  -25.6580  -33.8680   26.0270 H   0  0  0  0  0  0  0  0  0  0  0  0
  -25.2250  -36.6970   24.1930 C   0  0  0  0  0  1  0  0  0  0  0  0
  -26.3620  -36.1530   25.0720 C   0  0  0  0  0  3  0  0  0  0  0  0
  -28.4950  -36.8100   26.0940 C   0  0  0  0  0  1  0  0  0  0  0  0
  -27.4810  -37.1190   25.0880 N   0  0  0  0  0  0  0  0  0  0  0  0
  -27.1420  -38.0610   25.2600 H   0  0  0  0  0  0  0  0  0  0  0  0
  -26.9070  -31.4330   26.1450 C   0  0  1  0  0  0  0  0  0  0  0  0
  -25.7330  -31.1730   27.1170 C   0  0  0  0  0  1  0  0  0  0  0  0
  -27.4730  -30.0600   25.7100 C   0  0  0  0  0  1  0  0  0  0  0  0
  -28.0300  -32.1460   26.9360 C   0  0  0  0  0  1  0  0  0  0  0  0
  2  1  1  0
  3  5  1  0
  5  2  1  0
  5  4  2  0
  6  3  2  0
  6  7  1  0
  7 10  1  0
  7  8  2  0
  8  4  1  0
  9 10  1  0
 11 20  1  0
 11  6  1  0
 12 18  1  0
 12 20  1  0
 13 18  1  0
 14 15  1  0
 14 13  1  0
 16 15  1  0
 16 25  1  0
 16 17  1  0
 18 17  1  0
 19 12  2  0
 20 21  1  0
 22 23  2  0
 23 42  1  0
 24 23  1  0
 24 27  1  0
 25 26  1  0
 25 22  1  0
 26 24  2  0
 27 28  1  0
 28 29  2  0
 30 33  1  0
 30 29  1  0
 31 30  2  0
 32 31  1  0
 32 27  2  0
 33 34  1  0
 34 39  2  0
 34 35  1  0
 35 36  2  0
 36 37  1  0
 37 41  1  0
 38 37  2  0
 39 38  1  0
 40 39  1  0
 42 43  1  0
 43 45  1  0
 43 46  1  0
 44 42  2  0
 47 22  1  0
 47 48  1  0
 49 47  1  0
 50 51  1  0
 50  2  1  0
 52 50  1  0
 53 50  1  0
 54 53  1  0
 54 56  1  0
 56 55  1  0
 57 59  1  0
 57 56  1  0
 58 69  2  0
 59 64  1  0
 60 68  1  0
 60 70  1  0
 61 67  1  0
 61 63  1  0
 62 68  1  0
 63 62  1  0
 64 63  2  0
 65 66  1  0
 65 59  2  0
 66 61  2  0
 67 60  1  0
 68 58  1  0
 70 72  2  0
 71 70  1  0
 73 71  1  0
 74 83  2  0
 74 79  1  0
 75 71  1  0
 75 79  1  0
 76 75  1  0
 77 78  1  0
 77 76  1  0
 78 74  1  0
 79 80  2  0
 80 81  1  0
 82 81  2  0
 83 82  1  0
 84 58  1  0
 84 85  1  0
 84 94  1  0
 85 88  1  0
 86 90  1  0
 86 85  1  0
 87 86  2  0
 90 89  1  0
 90 92  1  0
 92 93  1  0
 92 91  1  0
 94 97  1  1
 94 95  1  0
 96 94  1  0
M  ISO  4  12 100  20 100  56 101  57 101
M  END
>  <TORSDO>  (81) 
F 23

>  <SCORE>  (81) 
-7.940

>  <name>  (81) 
81

>  <ligand_id>  (81) 
81

>  <original_smiles>  (81) 
[H]c1nc(C([H])([H])C([H])([H])[H])c(C([H])([H])N([H])C(=O)N2C([H])([H])C([H])([H])C([H])([H])C([H])(n3nc(-c4c([H])c([H])c(Oc5c([H])c([H])c(F)c([H])c5F)c([H])c4[H])c(C(=O)N([H])[H])c3N([H])[H])C2([H])[H])c([H])c1C([H])(C([H])([H])[H])[N+]([H])([H])C([H])([H])C([H])([H])C([H])(Oc1c([H])c([H])c2c(c1[H])C([H])([H])N(C(=O)C([H])(N([H])C(=O)C([H])(N([H])C([H])([H])[H])C([H])([H])[H])C(C([H])([H])[H])(C([H])([H])[H])C([H])([H])[H])C([H])(C(=O)N([H])C1([H])c3c([H])c([H])c([H])c([H])c3C([H])([H])C([H])([H])C1([H])[H])C2([H])[H])C([H])([H])[H]

>  <smiles>  (81) 
[H]c1nc(C([H])([H])C([H])([H])[H])c(C([H])([H])N([H])C(=O)N2C([H])([H])C([H])([H])C([H])([H])C([H])(n3nc(-c4c([H])c([H])c(Oc5c([H])c([H])c(F)c([H])c5F)c([H])c4[H])c(C(=O)N([H])[H])c3N([H])[H])C2([H])[H])c([H])c1C([H])(C([H])([H])[H])[N+]([H])([H])C([H])([H])C([H])([H])C([H])(Oc1c([H])c([H])c2c(c1[H])C([H])([H])N(C(=O)C([H])(N([H])C(=O)C([H])(N([H])C([H])([H])[H])C([H])([H])[H])C(C([H])([H])[H])(C([H])([H])[H])C([H])([H])[H])C([H])(C(=O)N([H])C1([H])c3c([H])c([H])c([H])c([H])c3C([H])([H])C([H])([H])C1([H])[H])C2([H])[H])C([H])([H])[H]

$$$$
82:0:0
     RDKit          3D

 95103  0  0  1  0  0  0  0  0999 V2000
  -29.6960  -21.9110   19.4170 N   0  0  0  0  0  4  0  0  0  0  0  0
  -30.1290  -21.9320   20.3270 H   0  0  0  0  0  0  0  0  0  0  0  0
  -28.7760  -21.5120   19.5290 H   0  0  0  0  0  0  0  0  0  0  0  0
  -30.5140  -21.0120   18.5560 C   0  0  0  0  0  2  0  0  0  0  0  0
  -30.5790  -19.5130   18.9990 C   0  0  0  0  0  2  0  0  0  0  0  0
  -27.1400  -18.2500   19.2300 C   0  0  0  0  0  2  0  0  0  0  0  0
  -27.7960  -17.4920   20.2280 C   0  0  0  0  0  2  0  0  0  0  0  0
  -28.0860  -18.9870   18.5780 C   0  0  0  0  0  3  0  0  0  0  0  0
  -29.1340  -17.7460   20.1550 C   0  0  0  0  0  3  0  0  0  0  0  0
  -27.8820  -19.8220   17.3520 C   0  0  0  0  0  1  0  0  0  0  0  0
  -29.3050  -18.8110   19.2490 N   0  0  0  0  0  0  0  0  0  0  0  0
  -30.2310  -17.0120   20.8990 C   0  0  0  0  0  2  0  0  0  0  0  0
  -30.6560  -14.5500   20.5020 C   0  0  0  0  0  0  0  0  0  0  0  0
  -30.3850  -12.3820   19.3600 C   0  0  0  0  0  2  0  0  0  0  0  0
  -29.4550  -12.5920   18.1460 C   0  0  0  0  0  2  0  0  0  0  0  0
  -27.9810  -12.4270   18.5670 C   0  0  0  0  0  2  0  0  0  0  0  0
  -27.6220  -13.2600   19.8300 C   0  0  0  0  0  3  0  0  0  0  0  0
  -28.6720  -13.0500   20.9450 C   0  0  0  0  0  2  0  0  0  0  0  0
  -29.9990  -13.3640   20.3850 N   0  0  0  0  0  0  0  0  0  0  0  0
  -31.7830  -14.7340   20.0350 O   0  0  0  0  0  0  0  0  0  0  0  0
  -29.9350  -15.5710   21.0060 N   0  0  0  0  0  0  0  0  0  0  0  0
  -29.0240  -15.3350   21.3660 H   0  0  0  0  0  0  0  0  0  0  0  0
  -25.2060  -13.8360   20.5130 C   0  0  0  0  0  0  0  0  0  0  0  0
  -24.1480  -13.0560   20.8870 C   0  0  0  0  0  0  0  0  0  0  0  0
  -24.6250  -11.7110   20.8620 C   0  0  0  0  0  0  0  0  0  0  0  0
  -26.2680  -12.9690   20.3000 N   0  0  0  0  0  0  0  0  0  0  0  0
  -25.9180  -11.6840   20.5640 N   0  0  0  0  0  0  0  0  0  0  0  0
  -23.9080  -10.4440   21.0490 C   0  0  0  0  0  0  0  0  0  0  0  0
  -24.3490   -9.4810   21.9820 C   0  0  0  0  0  3  0  0  0  0  0  0
  -23.6350   -8.2760   22.1580 C   0  0  0  0  0  3  0  0  0  0  0  0
  -22.4660   -8.0260   21.4010 C   0  0  0  0  0  0  0  0  0  0  0  0
  -22.0450   -8.9790   20.4560 C   0  0  0  0  0  3  0  0  0  0  0  0
  -22.7570  -10.1770   20.2800 C   0  0  0  0  0  3  0  0  0  0  0  0
  -21.7240   -6.8720   21.4870 O   0  0  0  0  0  0  0  0  0  0  0  0
  -21.6870   -6.1220   22.6360 C   0  0  0  0  0  0  0  0  0  0  0  0
  -21.2530   -6.6660   23.8650 C   0  0  0  0  0  3  0  0  0  0  0  0
  -21.1680   -5.8430   25.0070 C   0  0  0  0  0  3  0  0  0  0  0  0
  -21.5020   -4.4770   24.9200 C   0  0  0  0  0  0  0  0  0  0  0  0
  -21.9230   -3.9330   23.6940 C   0  0  0  0  0  3  0  0  0  0  0  0
  -22.0150   -4.7540   22.5560 C   0  0  0  0  0  0  0  0  0  0  0  0
  -22.4050   -4.2200   21.3730 F   0  0  0  0  0  0  0  0  0  0  0  0
  -21.4100   -3.6870   26.0150 F   0  0  0  0  0  0  0  0  0  0  0  0
  -22.7440  -13.5220   21.1450 C   0  0  0  0  0  0  0  0  0  0  0  0
  -22.0150  -12.8230   22.0090 N   0  0  0  0  0  0  0  0  0  0  0  0
  -22.3050  -14.5460   20.6210 O   0  0  0  0  0  0  0  0  0  0  0  0
  -22.3900  -12.0060   22.4670 H   0  0  0  0  0  0  0  0  0  0  0  0
  -21.0700  -13.1140   22.2210 H   0  0  0  0  0  0  0  0  0  0  0  0
  -25.3400  -15.2030   20.3160 N   0  0  0  0  0  0  0  0  0  0  0  0
  -24.5300  -15.8120   20.3390 H   0  0  0  0  0  0  0  0  0  0  0  0
  -26.1590  -15.6460   19.9170 H   0  0  0  0  0  0  0  0  0  0  0  0
  -29.5870  -23.3120   18.9040 C   0  0  0  0  0  2  0  0  0  0  0  0
  -29.4320  -24.2940   21.2600 C   0  0  0  0  0  1  0  0  0  0  0  0
  -28.8310  -24.3130   19.8380 C   0  0  0  0  0  3  0  0  0  0  0  0
  -28.8110  -25.7550   19.2420 C   0  0  0  0  0  2  0  0  0  0  0  0
  -28.4710  -26.7840   20.1860 O   0  0  0  0  0  0  0  0  0  0  0  0
  -24.5860  -31.8860   23.2490 C   0  0  0  0  0  0  0  0  0  0  0  0
  -27.2610  -27.4550   20.1530 C   0  0  0  0  0  0  0  0  0  0  0  0
  -23.3830  -30.4810   21.6030 C   0  0  0  0  0  3  0  0  0  0  0  0
  -24.8450  -28.9400   20.1800 C   0  0  0  0  0  0  0  0  0  0  0  0
  -25.9080  -30.8390   21.4170 C   0  0  0  0  0  2  0  0  0  0  0  0
  -25.9940  -29.4680   20.7770 C   0  0  0  0  0  0  0  0  0  0  0  0
  -27.1960  -28.7240   20.7720 C   0  0  0  0  0  3  0  0  0  0  0  0
  -26.0900  -26.9340   19.5590 C   0  0  0  0  0  3  0  0  0  0  0  0
  -24.8850  -27.6710   19.5730 C   0  0  0  0  0  3  0  0  0  0  0  0
  -23.5930  -29.7930   20.2270 C   0  0  0  0  0  2  0  0  0  0  0  0
  -24.6430  -31.0840   22.1480 N   0  0  0  0  0  0  0  0  0  0  0  0
  -23.5040  -32.1620   23.7870 O   0  0  0  0  0  0  0  0  0  0  0  0
  -22.7280  -29.4670   22.5650 C   0  0  0  0  0  0  0  0  0  0  0  0
  -21.4040  -29.2780   22.4280 N   0  0  0  0  0  0  0  0  0  0  0  0
  -23.4060  -28.8480   23.3880 O   0  0  0  0  0  0  0  0  0  0  0  0
  -20.9180  -29.8220   21.7280 H   0  0  0  0  0  0  0  0  0  0  0  0
  -18.0320  -28.0790   22.9020 C   0  0  0  0  0  0  0  0  0  0  0  0
  -20.5860  -28.3420   23.1960 C   0  0  0  0  0  3  0  0  0  0  0  0
  -20.6990  -26.9110   22.6220 C   0  0  0  0  0  2  0  0  0  0  0  0
  -19.6060  -26.5840   21.5990 C   0  0  0  0  0  2  0  0  0  0  0  0
  -18.2180  -26.7270   22.2310 C   0  0  0  0  0  2  0  0  0  0  0  0
  -19.1440  -28.8430   23.3410 C   0  0  0  0  0  0  0  0  0  0  0  0
  -18.9200  -30.1080   23.9270 C   0  0  0  0  0  3  0  0  0  0  0  0
  -17.6140  -30.6090   24.0790 C   0  0  0  0  0  3  0  0  0  0  0  0
  -16.5150  -29.8410   23.6590 C   0  0  0  0  0  3  0  0  0  0  0  0
  -16.7240  -28.5770   23.0770 C   0  0  0  0  0  3  0  0  0  0  0  0
  -25.8720  -32.5130   23.8700 C   0  0  0  0  0  3  0  0  0  0  0  0
  -25.5720  -33.9130   24.1920 N   0  0  0  0  0  0  0  0  0  0  0  0
  -25.9170  -34.9590   23.4300 C   0  0  0  0  0  0  0  0  0  0  0  0
  -26.5930  -34.8450   22.4050 O   0  0  0  0  0  0  0  0  0  0  0  0
  -24.9660  -34.0750   24.9830 H   0  0  0  0  0  0  0  0  0  0  0  0
  -24.2010  -36.7550   23.0410 C   0  0  0  0  0  1  0  0  0  0  0  0
  -25.4320  -36.3520   23.8710 C   0  0  0  0  0  3  0  0  0  0  0  0
  -27.5610  -37.2280   24.7250 C   0  0  0  0  0  1  0  0  0  0  0  0
  -26.4710  -37.3980   23.7670 N   0  0  0  0  0  0  0  0  0  0  0  0
  -26.0680  -38.3220   23.9040 H   0  0  0  0  0  0  0  0  0  0  0  0
  -26.3820  -31.7460   25.1510 C   0  0  1  0  0  0  0  0  0  0  0  0
  -25.2830  -31.5250   26.2140 C   0  0  0  0  0  1  0  0  0  0  0  0
  -26.9610  -30.3630   24.7720 C   0  0  0  0  0  1  0  0  0  0  0  0
  -27.5360  -32.5340   25.8160 C   0  0  0  0  0  1  0  0  0  0  0  0
  1  3  1  0
  1  2  1  0
  4  5  1  0
  4  1  1  0
  5 11  1  0
  6  7  1  0
  8 10  1  0
  8  6  1  0
  8 11  1  0
  9  7  1  0
  9 12  1  0
 11  9  1  0
 12 21  1  0
 13 21  1  0
 14 19  1  0
 15 16  1  0
 15 14  1  0
 17 16  1  0
 17 26  1  0
 17 18  1  0
 19 13  1  0
 19 18  1  0
 20 13  2  0
 21 22  1  0
 23 24  2  0
 24 43  1  0
 25 24  1  0
 25 28  1  0
 26 23  1  0
 26 27  1  0
 27 25  2  0
 28 29  1  0
 29 30  2  0
 31 34  1  0
 31 30  1  0
 32 31  2  0
 33 32  1  0
 33 28  2  0
 34 35  1  0
 35 36  1  0
 36 37  2  0
 38 37  1  0
 38 42  1  0
 39 38  2  0
 40 35  2  0
 40 39  1  0
 41 40  1  0
 43 44  1  0
 44 47  1  0
 44 46  1  0
 45 43  2  0
 48 49  1  0
 48 23  1  0
 50 48  1  0
 51  1  1  0
 51 53  1  0
 53 52  1  0
 54 53  1  0
 54 55  1  0
 56 67  2  0
 57 55  1  0
 57 62  1  0
 58 66  1  0
 58 68  1  0
 59 65  1  0
 59 61  1  0
 60 66  1  0
 61 60  1  0
 62 61  2  0
 63 64  1  0
 63 57  2  0
 64 59  2  0
 65 58  1  0
 66 56  1  0
 68 70  2  0
 69 68  1  0
 71 69  1  0
 72 81  2  0
 72 77  1  0
 73 69  1  0
 73 77  1  0
 74 73  1  0
 75 76  1  0
 75 74  1  0
 76 72  1  0
 77 78  2  0
 78 79  1  0
 80 79  2  0
 81 80  1  0
 82 56  1  0
 82 83  1  0
 82 92  1  0
 83 86  1  0
 84 88  1  0
 84 83  1  0
 85 84  2  0
 88 87  1  0
 90 88  1  0
 90 91  1  0
 90 89  1  0
 92 95  1  1
 92 93  1  0
 94 92  1  0
M  ISO  4  13 100  21 100  54 101  55 101
M  END
>  <TORSDO>  (82) 
F 23

>  <SCORE>  (82) 
-13.123

>  <name>  (82) 
82

>  <ligand_id>  (82) 
82

>  <original_smiles>  (82) 
[H]c1c([H])c([H])c2c(c1[H])C([H])([H])C([H])([H])C([H])([H])C2([H])N([H])C(=O)C1([H])N(C(=O)C([H])(N([H])C(=O)C([H])(N([H])C([H])([H])[H])C([H])([H])[H])C(C([H])([H])[H])(C([H])([H])[H])C([H])([H])[H])C([H])([H])c2c([H])c(OC([H])([H])C([H])(C([H])([H])[H])C([H])([H])[N+]([H])([H])C([H])([H])C([H])([H])n3c(C([H])([H])[H])c([H])c([H])c3C([H])([H])N([H])C(=O)N3C([H])([H])C([H])([H])C([H])([H])C([H])(n4nc(-c5c([H])c([H])c(Oc6c([H])c([H])c(F)c([H])c6F)c([H])c5[H])c(C(=O)N([H])[H])c4N([H])[H])C3([H])[H])c([H])c([H])c2C1([H])[H]

>  <smiles>  (82) 
[H]c1c([H])c([H])c2c(c1[H])C([H])([H])C([H])([H])C([H])([H])C2([H])N([H])C(=O)C1([H])N(C(=O)C([H])(N([H])C(=O)C([H])(N([H])C([H])([H])[H])C([H])([H])[H])C(C([H])([H])[H])(C([H])([H])[H])C([H])([H])[H])C([H])([H])c2c([H])c(OC([H])([H])C([H])(C([H])([H])[H])C([H])([H])[N+]([H])([H])C([H])([H])C([H])([H])n3c(C([H])([H])[H])c([H])c([H])c3C([H])([H])N([H])C(=O)N3C([H])([H])C([H])([H])C([H])([H])C([H])(n4nc(-c5c([H])c([H])c(Oc6c([H])c([H])c(F)c([H])c6F)c([H])c5[H])c(C(=O)N([H])[H])c4N([H])[H])C3([H])[H])c([H])c([H])c2C1([H])[H]

$$$$
83:0:0
     RDKit          3D

 94102  0  0  1  0  0  0  0  0999 V2000
  -29.0200  -21.9330   19.7840 C   0  0  0  0  0  2  0  0  0  0  0  0
  -29.9570  -19.5720   19.3250 C   0  0  0  0  0  3  0  0  0  0  0  0
  -30.4700  -18.5300   20.0760 C   0  0  0  0  0  0  0  0  0  0  0  0
  -29.8130  -20.1920   21.4410 C   0  0  0  0  0  3  0  0  0  0  0  0
  -29.5830  -20.5960   20.1740 N   0  0  0  0  0  0  0  0  0  0  0  0
  -30.3440  -18.9570   21.3740 N   0  0  0  0  0  0  0  0  0  0  0  0
  -30.6610  -18.4390   22.1860 H   0  0  0  0  0  0  0  0  0  0  0  0
  -30.8590  -21.7130   23.1640 C   0  0  0  0  0  1  0  0  0  0  0  0
  -29.6030  -20.9560   22.7130 C   0  0  0  0  0  2  0  0  0  0  0  0
  -31.1910  -17.2560   19.6470 C   0  0  0  0  0  2  0  0  0  0  0  0
  -31.2910  -14.7750   19.7110 C   0  0  0  0  0  0  0  0  0  0  0  0
  -30.9710  -12.4400   18.9790 C   0  0  0  0  0  2  0  0  0  0  0  0
  -30.0090  -12.4260   17.7730 C   0  0  0  0  0  2  0  0  0  0  0  0
  -28.5470  -12.3570   18.2550 C   0  0  0  0  0  2  0  0  0  0  0  0
  -28.2270  -13.3970   19.3640 C   0  0  0  0  0  3  0  0  0  0  0  0
  -29.3090  -13.4000   20.4660 C   0  0  0  0  0  2  0  0  0  0  0  0
  -30.6090  -13.5990   19.8140 N   0  0  0  0  0  0  0  0  0  0  0  0
  -32.4400  -14.8190   19.2660 O   0  0  0  0  0  0  0  0  0  0  0  0
  -30.5990  -15.9240   19.9210 N   0  0  0  0  0  0  0  0  0  0  0  0
  -29.6400  -15.8650   20.2240 H   0  0  0  0  0  0  0  0  0  0  0  0
  -25.9200  -14.1430   20.2170 C   0  0  0  0  0  0  0  0  0  0  0  0
  -24.8270  -13.4350   20.6410 C   0  0  0  0  0  0  0  0  0  0  0  0
  -25.1980  -12.0580   20.5740 C   0  0  0  0  0  0  0  0  0  0  0  0
  -26.8910  -13.2000   19.9190 N   0  0  0  0  0  0  0  0  0  0  0  0
  -26.4640  -11.9390   20.1950 N   0  0  0  0  0  0  0  0  0  0  0  0
  -24.4030  -10.8420   20.7970 C   0  0  0  0  0  0  0  0  0  0  0  0
  -24.7650   -9.8900   21.7760 C   0  0  0  0  0  3  0  0  0  0  0  0
  -23.9750   -8.7390   21.9830 C   0  0  0  0  0  3  0  0  0  0  0  0
  -22.8060   -8.5340   21.2110 C   0  0  0  0  0  0  0  0  0  0  0  0
  -22.4630   -9.4730   20.2220 C   0  0  0  0  0  3  0  0  0  0  0  0
  -23.2540  -10.6150   20.0140 C   0  0  0  0  0  3  0  0  0  0  0  0
  -21.9910   -7.4350   21.3220 O   0  0  0  0  0  0  0  0  0  0  0  0
  -21.8010   -6.8000   22.5230 C   0  0  0  0  0  0  0  0  0  0  0  0
  -21.2880   -7.4760   23.6500 C   0  0  0  0  0  3  0  0  0  0  0  0
  -21.0410   -6.7680   24.8430 C   0  0  0  0  0  3  0  0  0  0  0  0
  -21.3000   -5.3860   24.9110 C   0  0  0  0  0  0  0  0  0  0  0  0
  -21.8050   -4.7100   23.7860 C   0  0  0  0  0  3  0  0  0  0  0  0
  -22.0530   -5.4150   22.5950 C   0  0  0  0  0  0  0  0  0  0  0  0
  -22.5200   -4.7530   21.5090 F   0  0  0  0  0  0  0  0  0  0  0  0
  -21.0560   -4.7050   26.0560 F   0  0  0  0  0  0  0  0  0  0  0  0
  -23.4800  -14.0000   20.9920 C   0  0  0  0  0  0  0  0  0  0  0  0
  -22.7640  -13.3580   21.9090 N   0  0  0  0  0  0  0  0  0  0  0  0
  -23.0720  -15.0450   20.4860 O   0  0  0  0  0  0  0  0  0  0  0  0
  -23.1100  -12.5140   22.3400 H   0  0  0  0  0  0  0  0  0  0  0  0
  -21.8640  -13.7210   22.1860 H   0  0  0  0  0  0  0  0  0  0  0  0
  -26.1640  -15.5030   20.0380 N   0  0  0  0  0  0  0  0  0  0  0  0
  -25.4380  -16.1990   20.1680 H   0  0  0  0  0  0  0  0  0  0  0  0
  -27.0020  -15.8810   19.6160 H   0  0  0  0  0  0  0  0  0  0  0  0
  -29.8530  -23.1570   20.2770 C   0  0  0  0  0  2  0  0  0  0  0  0
  -29.7380  -24.5410   19.5220 C   0  0  0  0  0  3  0  0  0  0  0  0
  -31.4790  -26.2230   18.6030 C   0  0  0  0  0  1  0  0  0  0  0  0
  -31.0120  -25.3830   19.8010 C   0  0  0  0  0  2  0  0  0  0  0  0
  -28.4630  -25.3890   19.8560 C   0  0  0  0  0  2  0  0  0  0  0  0
  -28.5190  -26.7910   19.4500 O   0  0  0  0  0  0  0  0  0  0  0  0
  -24.6530  -31.6550   23.0230 C   0  0  0  0  0  0  0  0  0  0  0  0
  -27.3430  -27.5220   19.5400 C   0  0  0  0  0  0  0  0  0  0  0  0
  -23.4410  -30.3120   21.3410 C   0  0  0  0  0  3  0  0  0  0  0  0
  -24.8970  -28.9530   19.7480 C   0  0  0  0  0  0  0  0  0  0  0  0
  -25.9430  -30.7960   21.0670 C   0  0  0  0  0  2  0  0  0  0  0  0
  -26.0610  -29.4770   20.3220 C   0  0  0  0  0  0  0  0  0  0  0  0
  -27.2890  -28.7730   20.2110 C   0  0  0  0  0  3  0  0  0  0  0  0
  -26.1590  -27.0360   18.9440 C   0  0  0  0  0  3  0  0  0  0  0  0
  -24.9430  -27.7330   19.0550 C   0  0  0  0  0  3  0  0  0  0  0  0
  -23.6190  -29.7450   19.9080 C   0  0  0  0  0  2  0  0  0  0  0  0
  -24.6990  -30.9340   21.8670 N   0  0  0  0  0  0  0  0  0  0  0  0
  -23.5850  -31.8350   23.6260 O   0  0  0  0  0  0  0  0  0  0  0  0
  -22.8820  -29.1940   22.2520 C   0  0  0  0  0  0  0  0  0  0  0  0
  -21.5690  -28.9310   22.1480 N   0  0  0  0  0  0  0  0  0  0  0  0
  -23.6260  -28.5680   23.0120 O   0  0  0  0  0  0  0  0  0  0  0  0
  -21.0230  -29.4910   21.5070 H   0  0  0  0  0  0  0  0  0  0  0  0
  -18.3030  -27.4520   22.6160 C   0  0  0  0  0  0  0  0  0  0  0  0
  -20.8360  -27.8980   22.8800 C   0  0  0  0  0  3  0  0  0  0  0  0
  -21.0450  -26.5070   22.2380 C   0  0  0  0  0  2  0  0  0  0  0  0
  -19.9600  -26.1450   21.2180 C   0  0  0  0  0  2  0  0  0  0  0  0
  -18.5770  -26.1520   21.8770 C   0  0  0  0  0  2  0  0  0  0  0  0
  -19.3640  -28.2790   23.0730 C   0  0  0  0  0  0  0  0  0  0  0  0
  -19.0530  -29.4930   23.7230 C   0  0  0  0  0  3  0  0  0  0  0  0
  -17.7140  -29.8840   23.9180 C   0  0  0  0  0  3  0  0  0  0  0  0
  -16.6700  -29.0540   23.4780 C   0  0  0  0  0  3  0  0  0  0  0  0
  -16.9650  -27.8390   22.8330 C   0  0  0  0  0  3  0  0  0  0  0  0
  -25.9340  -32.3070   23.6310 C   0  0  0  0  0  3  0  0  0  0  0  0
  -25.5730  -33.6580   24.0770 N   0  0  0  0  0  0  0  0  0  0  0  0
  -25.8390  -34.7800   23.3960 C   0  0  0  0  0  0  0  0  0  0  0  0
  -26.4860  -34.7890   22.3450 O   0  0  0  0  0  0  0  0  0  0  0  0
  -24.9930  -33.7230   24.9020 H   0  0  0  0  0  0  0  0  0  0  0  0
  -24.0230  -36.5090   23.2260 C   0  0  0  0  0  1  0  0  0  0  0  0
  -25.3040  -36.1030   23.9720 C   0  0  0  0  0  3  0  0  0  0  0  0
  -27.4200  -37.0170   24.8140 C   0  0  0  0  0  1  0  0  0  0  0  0
  -26.2830  -37.2090   23.9170 N   0  0  0  0  0  0  0  0  0  0  0  0
  -25.8410  -38.0940   24.1510 H   0  0  0  0  0  0  0  0  0  0  0  0
  -26.5500  -31.4740   24.8220 C   0  0  1  0  0  0  0  0  0  0  0  0
  -25.5250  -31.1080   25.9210 C   0  0  0  0  0  1  0  0  0  0  0  0
  -27.1740  -30.1580   24.3030 C   0  0  0  0  0  1  0  0  0  0  0  0
  -27.6980  -32.2750   25.4810 C   0  0  0  0  0  1  0  0  0  0  0  0
  1  5  1  0
  1 49  1  0
  2  3  2  0
  2  5  1  0
  3  6  1  0
  4  9  1  0
  5  4  1  0
  6  4  1  0
  6  7  1  0
  9  8  1  0
 10 19  1  0
 10  3  1  0
 11 17  1  0
 11 19  1  0
 12 17  1  0
 13 14  1  0
 13 12  1  0
 15 14  1  0
 15 24  1  0
 15 16  1  0
 17 16  1  0
 18 11  2  0
 19 20  1  0
 21 22  2  0
 22 41  1  0
 23 22  1  0
 23 26  1  0
 24 25  1  0
 24 21  1  0
 25 23  2  0
 26 27  1  0
 27 28  2  0
 29 32  1  0
 29 28  1  0
 30 29  2  0
 31 30  1  0
 31 26  2  0
 32 33  1  0
 33 38  2  0
 33 34  1  0
 34 35  2  0
 35 36  1  0
 36 40  1  0
 37 36  2  0
 38 37  1  0
 39 38  1  0
 41 42  1  0
 42 45  1  0
 42 44  1  0
 43 41  2  0
 46 47  1  0
 46 21  1  0
 48 46  1  0
 50 52  1  0
 50 53  1  0
 50 49  1  0
 51 52  1  0
 54 56  1  0
 54 53  1  0
 55 66  2  0
 56 61  1  0
 57 65  1  0
 57 67  1  0
 58 64  1  0
 58 60  1  0
 59 65  1  0
 60 59  1  0
 61 60  2  0
 62 63  1  0
 62 56  2  0
 63 58  2  0
 64 57  1  0
 65 55  1  0
 67 69  2  0
 68 67  1  0
 70 68  1  0
 71 80  2  0
 71 76  1  0
 72 68  1  0
 72 76  1  0
 73 72  1  0
 74 75  1  0
 74 73  1  0
 75 71  1  0
 76 77  2  0
 77 78  1  0
 79 78  2  0
 80 79  1  0
 81 55  1  0
 81 82  1  0
 81 91  1  0
 82 85  1  0
 83 87  1  0
 83 82  1  0
 84 83  2  0
 87 86  1  0
 89 87  1  0
 89 90  1  0
 89 88  1  0
 91 94  1  1
 91 92  1  0
 93 91  1  0
M  ISO  4  11 100  19 100  53 101  54 101
M  END
>  <TORSDO>  (83) 
F 23

>  <SCORE>  (83) 
-11.326

>  <name>  (83) 
83

>  <ligand_id>  (83) 
83

>  <original_smiles>  (83) 
[H]c1c([H])c([H])c2c(c1[H])C([H])([H])C([H])([H])C([H])([H])C2([H])N([H])C(=O)C1([H])N(C(=O)C([H])(N([H])C(=O)C([H])(N([H])C([H])([H])[H])C([H])([H])[H])C(C([H])([H])[H])(C([H])([H])[H])C([H])([H])[H])C([H])([H])c2c([H])c(OC([H])([H])C([H])(C([H])([H])C([H])([H])[H])C([H])([H])C([H])([H])n3c([H])c(C([H])([H])N([H])C(=O)N4C([H])([H])C([H])([H])C([H])([H])C([H])(n5nc(-c6c([H])c([H])c(Oc7c([H])c([H])c(F)c([H])c7F)c([H])c6[H])c(C(=O)N([H])[H])c5N([H])[H])C4([H])[H])[n+]([H])c3C([H])([H])C([H])([H])[H])c([H])c([H])c2C1([H])[H]

>  <smiles>  (83) 
[H]c1c([H])c([H])c2c(c1[H])C([H])([H])C([H])([H])C([H])([H])C2([H])N([H])C(=O)C1([H])N(C(=O)C([H])(N([H])C(=O)C([H])(N([H])C([H])([H])[H])C([H])([H])[H])C(C([H])([H])[H])(C([H])([H])[H])C([H])([H])[H])C([H])([H])c2c([H])c(OC([H])([H])C([H])(C([H])([H])C([H])([H])[H])C([H])([H])C([H])([H])n3c([H])c(C([H])([H])N([H])C(=O)N4C([H])([H])C([H])([H])C([H])([H])C([H])(n5nc(-c6c([H])c([H])c(Oc7c([H])c([H])c(F)c([H])c7F)c([H])c6[H])c(C(=O)N([H])[H])c5N([H])[H])C4([H])[H])[n+]([H])c3C([H])([H])C([H])([H])[H])c([H])c([H])c2C1([H])[H]

$$$$
84:0:0
     RDKit          3D

 98106  0  0  1  0  0  0  0  0999 V2000
  -33.3290  -20.0520   20.8220 C   0  0  0  0  0  3  0  0  0  0  0  0
  -31.3290  -20.7530   19.6460 C   0  0  0  0  0  0  0  0  0  0  0  0
  -32.2800  -19.7410   19.9330 C   0  0  0  0  0  0  0  0  0  0  0  0
  -33.4070  -21.3460   21.3590 C   0  0  0  0  0  0  0  0  0  0  0  0
  -31.5480  -22.0580   20.1630 C   0  0  0  0  0  0  0  0  0  0  0  0
  -34.4530  -21.6960   22.3970 C   0  0  0  0  0  1  0  0  0  0  0  0
  -32.5610  -22.3330   21.0120 N   0  0  0  0  0  0  0  0  0  0  0  0
  -30.2890  -20.5700   17.2960 C   0  0  0  0  0  1  0  0  0  0  0  0
  -30.0930  -20.4100   18.8090 C   0  0  0  0  0  2  0  0  0  0  0  0
  -32.1260  -18.4760   19.3990 O   0  0  0  0  0  0  0  0  0  0  0  0
  -33.2600  -17.8390   18.7890 C   0  0  0  0  0  2  0  0  0  0  0  0
  -33.1610  -16.3020   18.9300 C   0  0  0  0  0  2  0  0  0  0  0  0
  -31.9380  -15.6910   18.1790 C   0  0  0  0  0  2  0  0  0  0  0  0
  -30.8330  -14.1660   19.8440 C   0  0  0  0  0  0  0  0  0  0  0  0
  -30.0750  -12.0610   18.9170 C   0  0  0  0  0  2  0  0  0  0  0  0
  -29.0780  -12.4140   17.8080 C   0  0  0  0  0  2  0  0  0  0  0  0
  -27.6570  -12.3680   18.3860 C   0  0  0  0  0  2  0  0  0  0  0  0
  -27.4800  -13.1670   19.7100 C   0  0  0  0  0  3  0  0  0  0  0  0
  -28.6970  -12.9940   20.6840 C   0  0  0  0  0  2  0  0  0  0  0  0
  -29.9610  -13.1210   19.9090 N   0  0  0  0  0  0  0  0  0  0  0  0
  -31.0710  -14.9610   20.7070 O   0  0  0  0  0  0  0  0  0  0  0  0
  -31.4310  -14.3860   18.6560 N   0  0  0  0  0  0  0  0  0  0  0  0
  -31.2570  -13.6750   17.9570 H   0  0  0  0  0  0  0  0  0  0  0  0
  -25.0910  -13.7100   20.5520 C   0  0  0  0  0  0  0  0  0  0  0  0
  -24.0490  -12.9150   20.9540 C   0  0  0  0  0  0  0  0  0  0  0  0
  -24.5340  -11.5720   20.8930 C   0  0  0  0  0  0  0  0  0  0  0  0
  -26.1600  -12.8610   20.2950 N   0  0  0  0  0  0  0  0  0  0  0  0
  -25.8210  -11.5660   20.5550 N   0  0  0  0  0  0  0  0  0  0  0  0
  -23.8310  -10.2950   21.1030 C   0  0  0  0  0  0  0  0  0  0  0  0
  -24.2830   -9.3500   22.0500 C   0  0  0  0  0  3  0  0  0  0  0  0
  -23.5850   -8.1390   22.2470 C   0  0  0  0  0  3  0  0  0  0  0  0
  -22.4140   -7.8660   21.5010 C   0  0  0  0  0  0  0  0  0  0  0  0
  -21.9790   -8.8010   20.5430 C   0  0  0  0  0  3  0  0  0  0  0  0
  -22.6780  -10.0030   20.3450 C   0  0  0  0  0  3  0  0  0  0  0  0
  -21.6800   -6.7090   21.6130 O   0  0  0  0  0  0  0  0  0  0  0  0
  -21.6280   -6.0010   22.7860 C   0  0  0  0  0  0  0  0  0  0  0  0
  -21.1370   -6.5700   23.9810 C   0  0  0  0  0  3  0  0  0  0  0  0
  -21.0340   -5.7840   25.1470 C   0  0  0  0  0  3  0  0  0  0  0  0
  -21.4170   -4.4300   25.1190 C   0  0  0  0  0  0  0  0  0  0  0  0
  -21.9050   -3.8610   23.9310 C   0  0  0  0  0  3  0  0  0  0  0  0
  -22.0090   -4.6440   22.7690 C   0  0  0  0  0  0  0  0  0  0  0  0
  -22.4600   -4.0820   21.6200 F   0  0  0  0  0  0  0  0  0  0  0  0
  -21.3200   -3.6740   26.2390 F   0  0  0  0  0  0  0  0  0  0  0  0
  -22.6510  -13.3630   21.2800 C   0  0  0  0  0  0  0  0  0  0  0  0
  -21.9690  -12.6440   22.1620 N   0  0  0  0  0  0  0  0  0  0  0  0
  -22.1740  -14.3870   20.7900 O   0  0  0  0  0  0  0  0  0  0  0  0
  -22.3640  -11.8150   22.5770 H   0  0  0  0  0  0  0  0  0  0  0  0
  -21.0380  -12.9310   22.4280 H   0  0  0  0  0  0  0  0  0  0  0  0
  -25.2100  -15.0830   20.3600 N   0  0  0  0  0  0  0  0  0  0  0  0
  -24.4310  -15.7170   20.5040 H   0  0  0  0  0  0  0  0  0  0  0  0
  -26.0500  -15.5450   20.0320 H   0  0  0  0  0  0  0  0  0  0  0  0
  -30.7420  -23.2810   19.7260 C   0  0  0  0  0  2  0  0  0  0  0  0
  -29.4890  -23.6520   20.5730 C   0  0  0  0  0  3  0  0  0  0  0  0
  -28.6370  -24.7570   22.7740 C   0  0  0  0  0  1  0  0  0  0  0  0
  -29.8430  -24.3880   21.8890 C   0  0  0  0  0  2  0  0  0  0  0  0
  -28.4650  -24.4380   19.7080 C   0  0  0  0  0  2  0  0  0  0  0  0
  -28.8550  -25.8840   19.3050 C   0  0  0  0  0  2  0  0  0  0  0  0
  -28.6010  -26.8710   20.3100 O   0  0  0  0  0  0  0  0  0  0  0  0
  -24.6750  -31.9820   23.3480 C   0  0  0  0  0  0  0  0  0  0  0  0
  -27.3900  -27.5300   20.3200 C   0  0  0  0  0  0  0  0  0  0  0  0
  -23.4990  -30.5670   21.6970 C   0  0  0  0  0  3  0  0  0  0  0  0
  -24.9780  -29.0110   20.3200 C   0  0  0  0  0  0  0  0  0  0  0  0
  -26.0300  -30.9120   21.5520 C   0  0  0  0  0  2  0  0  0  0  0  0
  -26.1230  -29.5360   20.9310 C   0  0  0  0  0  0  0  0  0  0  0  0
  -27.3230  -28.7940   20.9450 C   0  0  0  0  0  3  0  0  0  0  0  0
  -26.2160  -27.0020   19.7310 C   0  0  0  0  0  3  0  0  0  0  0  0
  -25.0160  -27.7350   19.7310 C   0  0  0  0  0  3  0  0  0  0  0  0
  -23.7330  -29.8710   20.3290 C   0  0  0  0  0  2  0  0  0  0  0  0
  -24.7530  -31.1710   22.2570 N   0  0  0  0  0  0  0  0  0  0  0  0
  -23.5830  -32.2670   23.8610 O   0  0  0  0  0  0  0  0  0  0  0  0
  -22.8290  -29.5570   22.6540 C   0  0  0  0  0  0  0  0  0  0  0  0
  -21.5150  -29.3500   22.4770 N   0  0  0  0  0  0  0  0  0  0  0  0
  -23.4910  -28.9580   23.5080 O   0  0  0  0  0  0  0  0  0  0  0  0
  -21.0460  -29.8860   21.7580 H   0  0  0  0  0  0  0  0  0  0  0  0
  -18.1410  -28.1120   22.8550 C   0  0  0  0  0  0  0  0  0  0  0  0
  -20.6800  -28.4170   23.2330 C   0  0  0  0  0  3  0  0  0  0  0  0
  -20.8300  -26.9750   22.6970 C   0  0  0  0  0  2  0  0  0  0  0  0
  -19.7810  -26.6090   21.6450 C   0  0  0  0  0  2  0  0  0  0  0  0
  -18.3700  -26.7490   22.2240 C   0  0  0  0  0  2  0  0  0  0  0  0
  -19.2280  -28.9040   23.3140 C   0  0  0  0  0  0  0  0  0  0  0  0
  -18.9640  -30.1790   23.8590 C   0  0  0  0  0  3  0  0  0  0  0  0
  -17.6460  -30.6630   23.9520 C   0  0  0  0  0  3  0  0  0  0  0  0
  -16.5740  -29.8700   23.5100 C   0  0  0  0  0  3  0  0  0  0  0  0
  -16.8220  -28.5970   22.9670 C   0  0  0  0  0  3  0  0  0  0  0  0
  -25.9530  -32.6160   23.9860 C   0  0  0  0  0  3  0  0  0  0  0  0
  -26.4200  -31.8790   25.3000 C   0  0  1  0  0  0  0  0  0  0  0  0
  -25.2900  -31.6830   26.3380 C   0  0  0  0  0  1  0  0  0  0  0  0
  -27.0000  -30.4850   24.9660 C   0  0  0  0  0  1  0  0  0  0  0  0
  -27.5590  -32.6800   25.9750 C   0  0  0  0  0  1  0  0  0  0  0  0
  -25.6560  -34.0270   24.2620 N   0  0  0  0  0  0  0  0  0  0  0  0
  -26.0230  -35.0490   23.4750 C   0  0  0  0  0  0  0  0  0  0  0  0
  -26.7230  -34.9020   22.4690 O   0  0  0  0  0  0  0  0  0  0  0  0
  -25.0410  -34.2180   25.0400 H   0  0  0  0  0  0  0  0  0  0  0  0
  -24.3360  -36.8490   22.9970 C   0  0  0  0  0  1  0  0  0  0  0  0
  -25.5400  -36.4570   23.8700 C   0  0  0  0  0  3  0  0  0  0  0  0
  -27.6530  -37.3380   24.7570 C   0  0  0  0  0  1  0  0  0  0  0  0
  -26.5920  -37.4930   23.7640 N   0  0  0  0  0  0  0  0  0  0  0  0
  -26.1940  -38.4230   23.8660 H   0  0  0  0  0  0  0  0  0  0  0  0
  1  4  1  0
  2  3  1  0
  2  5  2  0
  3  1  2  0
  4  6  1  0
  5  7  1  0
  7  4  2  0
  8  9  1  0
  9  2  1  0
 10  3  1  0
 11 12  1  0
 11 10  1  0
 13 22  1  0
 13 12  1  0
 14 20  1  0
 14 21  2  0
 15 20  1  0
 16 17  1  0
 16 15  1  0
 18 17  1  0
 18 27  1  0
 18 19  1  0
 20 19  1  0
 22 14  1  0
 23 22  1  0
 24 25  2  0
 25 44  1  0
 26 25  1  0
 26 29  1  0
 27 24  1  0
 27 28  1  0
 28 26  2  0
 29 30  1  0
 30 31  2  0
 32 35  1  0
 32 31  1  0
 33 32  2  0
 34 33  1  0
 34 29  2  0
 35 36  1  0
 36 37  1  0
 37 38  2  0
 39 38  1  0
 39 43  1  0
 40 39  2  0
 41 36  2  0
 41 40  1  0
 42 41  1  0
 44 45  1  0
 45 48  1  0
 45 47  1  0
 46 44  2  0
 49 50  1  0
 49 24  1  0
 51 49  1  0
 52  5  1  0
 52 53  1  0
 53 56  1  0
 53 55  1  0
 55 54  1  0
 57 56  1  0
 57 58  1  0
 58 60  1  0
 59 70  2  0
 60 65  1  0
 61 69  1  0
 61 71  1  0
 62 68  1  0
 62 64  1  0
 63 69  1  0
 64 65  2  0
 64 63  1  0
 66 67  1  0
 66 60  2  0
 67 62  2  0
 68 61  1  0
 69 59  1  0
 71 73  2  0
 72 71  1  0
 74 72  1  0
 75 84  2  0
 75 80  1  0
 76 72  1  0
 76 80  1  0
 77 76  1  0
 78 79  1  0
 78 77  1  0
 79 75  1  0
 80 81  2  0
 81 82  1  0
 83 82  2  0
 84 83  1  0
 85 59  1  0
 85 90  1  0
 85 86  1  0
 86 89  1  1
 86 87  1  0
 88 86  1  0
 90 93  1  0
 91 95  1  0
 91 90  1  0
 92 91  2  0
 95 94  1  0
 97 98  1  0
 97 95  1  0
 97 96  1  0
M  ISO  4  14 100  22 100  57 101  58 101
M  END
>  <TORSDO>  (84) 
F 26

>  <SCORE>  (84) 
-11.002

>  <name>  (84) 
84

>  <ligand_id>  (84) 
84

>  <original_smiles>  (84) 
[H]c1c([H])c([H])c2c(c1[H])C([H])([H])C([H])([H])C([H])([H])C2([H])N([H])C(=O)C1([H])N(C(=O)C([H])(N([H])C(=O)C([H])(N([H])C([H])([H])[H])C([H])([H])[H])C(C([H])([H])[H])(C([H])([H])[H])C([H])([H])[H])C([H])([H])c2c([H])c(OC([H])([H])C([H])([H])C([H])(C([H])([H])c3nc(C([H])([H])[H])c([H])c(OC([H])([H])C([H])([H])C([H])([H])N([H])C(=O)N4C([H])([H])C([H])([H])C([H])([H])C([H])(n5nc(-c6c([H])c([H])c(Oc7c([H])c([H])c(F)c([H])c7F)c([H])c6[H])c(C(=O)N([H])[H])c5N([H])[H])C4([H])[H])c3C([H])([H])C([H])([H])[H])C([H])([H])C([H])([H])[H])c([H])c([H])c2C1([H])[H]

>  <smiles>  (84) 
[H]c1c([H])c([H])c2c(c1[H])C([H])([H])C([H])([H])C([H])([H])C2([H])N([H])C(=O)C1([H])N(C(=O)C([H])(N([H])C(=O)C([H])(N([H])C([H])([H])[H])C([H])([H])[H])C(C([H])([H])[H])(C([H])([H])[H])C([H])([H])[H])C([H])([H])c2c([H])c(OC([H])([H])C([H])([H])C([H])(C([H])([H])c3nc(C([H])([H])[H])c([H])c(OC([H])([H])C([H])([H])C([H])([H])N([H])C(=O)N4C([H])([H])C([H])([H])C([H])([H])C([H])(n5nc(-c6c([H])c([H])c(Oc7c([H])c([H])c(F)c([H])c7F)c([H])c6[H])c(C(=O)N([H])[H])c5N([H])[H])C4([H])[H])c3C([H])([H])C([H])([H])[H])C([H])([H])C([H])([H])[H])c([H])c([H])c2C1([H])[H]

$$$$
85:0:0
     RDKit          3D

 94102  0  0  1  0  0  0  0  0999 V2000
  -30.4520  -20.0820   20.4660 C   0  0  0  0  0  3  0  0  0  0  0  0
  -29.4580  -21.0450   20.0210 C   0  0  0  0  0  0  0  0  0  0  0  0
  -30.2370  -18.7950   19.9820 C   0  0  0  0  0  0  0  0  0  0  0  0
  -28.6910  -20.3020   19.1380 C   0  0  0  0  0  0  0  0  0  0  0  0
  -28.5470  -17.8420   18.4160 C   0  0  0  0  0  1  0  0  0  0  0  0
  -29.1360  -18.9530   19.1460 N   0  0  0  0  0  0  0  0  0  0  0  0
  -27.5490  -22.0130   17.5670 C   0  0  0  0  0  1  0  0  0  0  0  0
  -26.1960  -20.6660   19.2070 C   0  0  0  0  0  1  0  0  0  0  0  0
  -27.4610  -20.6870   18.3350 C   0  0  0  0  0  3  0  0  0  0  0  0
  -31.0480  -17.4560   20.2500 C   0  0  0  0  0  2  0  0  0  0  0  0
  -31.1300  -14.8700   20.2050 C   0  0  0  0  0  0  0  0  0  0  0  0
  -30.8280  -12.6020   19.2120 C   0  0  0  0  0  2  0  0  0  0  0  0
  -29.9090  -12.6970   17.9750 C   0  0  0  0  0  2  0  0  0  0  0  0
  -28.4320  -12.5730   18.3950 C   0  0  0  0  0  2  0  0  0  0  0  0
  -28.0730  -13.4860   19.5970 C   0  0  0  0  0  3  0  0  0  0  0  0
  -29.1200  -13.3910   20.7290 C   0  0  0  0  0  2  0  0  0  0  0  0
  -30.4330  -13.6850   20.1410 N   0  0  0  0  0  0  0  0  0  0  0  0
  -32.3210  -14.8950   19.8830 O   0  0  0  0  0  0  0  0  0  0  0  0
  -30.4510  -16.0590   20.4080 N   0  0  0  0  0  0  0  0  0  0  0  0
  -29.4730  -15.9970   20.6380 H   0  0  0  0  0  0  0  0  0  0  0  0
  -25.7010  -14.1440   20.3180 C   0  0  0  0  0  0  0  0  0  0  0  0
  -24.6090  -13.4070   20.6780 C   0  0  0  0  0  0  0  0  0  0  0  0
  -25.0240  -12.0420   20.6280 C   0  0  0  0  0  0  0  0  0  0  0  0
  -26.7170  -13.2370   20.0770 N   0  0  0  0  0  0  0  0  0  0  0  0
  -26.3140  -11.9630   20.3250 N   0  0  0  0  0  0  0  0  0  0  0  0
  -24.2500  -10.8060   20.7900 C   0  0  0  0  0  0  0  0  0  0  0  0
  -24.6380   -9.8070   21.7090 C   0  0  0  0  0  3  0  0  0  0  0  0
  -23.8640   -8.6370   21.8620 C   0  0  0  0  0  3  0  0  0  0  0  0
  -22.6890   -8.4580   21.0940 C   0  0  0  0  0  0  0  0  0  0  0  0
  -22.3200   -9.4440   20.1640 C   0  0  0  0  0  3  0  0  0  0  0  0
  -23.0930  -10.6070   20.0080 C   0  0  0  0  0  3  0  0  0  0  0  0
  -21.8900   -7.3420   21.1590 O   0  0  0  0  0  0  0  0  0  0  0  0
  -21.8140   -6.5760   22.2940 C   0  0  0  0  0  0  0  0  0  0  0  0
  -21.4230   -7.1210   23.5360 C   0  0  0  0  0  3  0  0  0  0  0  0
  -21.2910   -6.2840   24.6620 C   0  0  0  0  0  3  0  0  0  0  0  0
  -21.5400   -4.9030   24.5480 C   0  0  0  0  0  0  0  0  0  0  0  0
  -21.9240   -4.3570   23.3100 C   0  0  0  0  0  3  0  0  0  0  0  0
  -22.0580   -5.1920   22.1860 C   0  0  0  0  0  0  0  0  0  0  0  0
  -22.4080   -4.6570   20.9910 F   0  0  0  0  0  0  0  0  0  0  0  0
  -21.4050   -4.0980   25.6260 F   0  0  0  0  0  0  0  0  0  0  0  0
  -23.2280  -13.9340   20.9460 C   0  0  0  0  0  0  0  0  0  0  0  0
  -22.4750  -13.2630   21.8090 N   0  0  0  0  0  0  0  0  0  0  0  0
  -22.8300  -14.9760   20.4260 O   0  0  0  0  0  0  0  0  0  0  0  0
  -22.8120  -12.4200   22.2510 H   0  0  0  0  0  0  0  0  0  0  0  0
  -21.5480  -13.5980   22.0330 H   0  0  0  0  0  0  0  0  0  0  0  0
  -25.9010  -15.5070   20.1430 N   0  0  0  0  0  0  0  0  0  0  0  0
  -25.1180  -16.1500   20.1800 H   0  0  0  0  0  0  0  0  0  0  0  0
  -26.6970  -15.8730   19.6440 H   0  0  0  0  0  0  0  0  0  0  0  0
  -29.1730  -22.5210   20.5780 C   0  0  0  0  0  3  0  0  0  0  0  0
  -29.6400  -21.8650   23.0450 C   0  0  0  0  0  1  0  0  0  0  0  0
  -29.9960  -22.7800   21.8620 C   0  0  0  0  0  2  0  0  0  0  0  0
  -29.1990  -23.8680   19.6790 C   0  0  0  0  0  3  0  0  0  0  0  0
  -28.3060  -25.1150   20.2000 C   0  0  0  0  0  3  0  0  0  0  0  0
  -28.4230  -26.5010   19.6620 O   0  0  0  0  0  0  0  0  0  0  0  0
  -24.5570  -31.6410   23.0210 C   0  0  0  0  0  0  0  0  0  0  0  0
  -27.2860  -27.3280   19.7120 C   0  0  0  0  0  0  0  0  0  0  0  0
  -23.3840  -30.2970   21.3120 C   0  0  0  0  0  3  0  0  0  0  0  0
  -24.8740  -28.8680   19.7960 C   0  0  0  0  0  0  0  0  0  0  0  0
  -25.9120  -30.7020   21.1330 C   0  0  0  0  0  2  0  0  0  0  0  0
  -26.0320  -29.3620   20.4120 C   0  0  0  0  0  0  0  0  0  0  0  0
  -27.2440  -28.6070   20.3560 C   0  0  0  0  0  3  0  0  0  0  0  0
  -26.1070  -26.8890   19.0750 C   0  0  0  0  0  3  0  0  0  0  0  0
  -24.9140  -27.6390   19.1180 C   0  0  0  0  0  3  0  0  0  0  0  0
  -23.6100  -29.7020   19.8960 C   0  0  0  0  0  2  0  0  0  0  0  0
  -24.6360  -30.8950   21.8800 N   0  0  0  0  0  0  0  0  0  0  0  0
  -23.4680  -31.8560   23.5750 O   0  0  0  0  0  0  0  0  0  0  0  0
  -22.7580  -29.2110   22.2200 C   0  0  0  0  0  0  0  0  0  0  0  0
  -21.4330  -29.0190   22.1060 N   0  0  0  0  0  0  0  0  0  0  0  0
  -23.4630  -28.5490   22.9850 O   0  0  0  0  0  0  0  0  0  0  0  0
  -20.9230  -29.6090   21.4640 H   0  0  0  0  0  0  0  0  0  0  0  0
  -18.0820  -27.7520   22.6160 C   0  0  0  0  0  0  0  0  0  0  0  0
  -20.6440  -28.0180   22.8290 C   0  0  0  0  0  3  0  0  0  0  0  0
  -20.7420  -26.6340   22.1470 C   0  0  0  0  0  2  0  0  0  0  0  0
  -19.6110  -26.3730   21.1450 C   0  0  0  0  0  2  0  0  0  0  0  0
  -18.2490  -26.4570   21.8390 C   0  0  0  0  0  2  0  0  0  0  0  0
  -19.2070  -28.4920   23.0670 C   0  0  0  0  0  0  0  0  0  0  0  0
  -18.9960  -29.7060   23.7570 C   0  0  0  0  0  3  0  0  0  0  0  0
  -17.6930  -30.1800   23.9980 C   0  0  0  0  0  3  0  0  0  0  0  0
  -16.5830  -29.4360   23.5630 C   0  0  0  0  0  3  0  0  0  0  0  0
  -16.7780  -28.2230   22.8780 C   0  0  0  0  0  3  0  0  0  0  0  0
  -25.8240  -32.2770   23.6720 C   0  0  0  0  0  3  0  0  0  0  0  0
  -25.4840  -33.6560   24.0490 N   0  0  0  0  0  0  0  0  0  0  0  0
  -25.8010  -34.7430   23.3320 C   0  0  0  0  0  0  0  0  0  0  0  0
  -26.4780  -34.6890   22.3010 O   0  0  0  0  0  0  0  0  0  0  0  0
  -24.8850  -33.7690   24.8530 H   0  0  0  0  0  0  0  0  0  0  0  0
  -24.0330  -36.5080   23.0450 C   0  0  0  0  0  1  0  0  0  0  0  0
  -25.2860  -36.1040   23.8370 C   0  0  0  0  0  3  0  0  0  0  0  0
  -27.4040  -37.0090   24.6900 C   0  0  0  0  0  1  0  0  0  0  0  0
  -26.2950  -37.1820   23.7560 N   0  0  0  0  0  0  0  0  0  0  0  0
  -25.8690  -38.0880   23.9340 H   0  0  0  0  0  0  0  0  0  0  0  0
  -26.3490  -31.4720   24.9250 C   0  0  1  0  0  0  0  0  0  0  0  0
  -25.2580  -31.1850   25.9820 C   0  0  0  0  0  1  0  0  0  0  0  0
  -26.9540  -30.1170   24.4910 C   0  0  0  0  0  1  0  0  0  0  0  0
  -27.4860  -32.2630   25.6150 C   0  0  0  0  0  1  0  0  0  0  0  0
  2  1  1  0
  2 49  1  0
  3 10  1  0
  3  1  2  0
  4  6  1  0
  4  2  2  0
  5  6  1  0
  6  3  1  0
  7  9  1  0
  9  4  1  0
  9  8  1  0
 10 19  1  0
 11 19  1  0
 12 17  1  0
 13 14  1  0
 13 12  1  0
 15 14  1  0
 15 24  1  0
 15 16  1  0
 17 11  1  0
 17 16  1  0
 18 11  2  0
 19 20  1  0
 21 22  2  0
 22 41  1  0
 23 22  1  0
 23 26  1  0
 24 21  1  0
 24 25  1  0
 25 23  2  0
 26 27  1  0
 27 28  2  0
 29 32  1  0
 29 28  1  0
 30 29  2  0
 31 30  1  0
 31 26  2  0
 32 33  1  0
 33 34  1  0
 34 35  2  0
 36 35  1  0
 36 40  1  0
 37 36  2  0
 38 33  2  0
 38 37  1  0
 39 38  1  0
 41 42  1  0
 42 45  1  0
 42 44  1  0
 43 41  2  0
 46 47  1  0
 46 21  1  0
 48 46  1  0
 49 52  1  0
 49 51  1  0
 51 50  1  0
 52 53  2  0
 54 56  1  0
 54 53  1  0
 55 66  2  0
 56 61  1  0
 57 65  1  0
 57 67  1  0
 58 64  1  0
 58 60  1  0
 59 65  1  0
 60 59  1  0
 61 60  2  0
 62 63  1  0
 62 56  2  0
 63 58  2  0
 64 57  1  0
 65 55  1  0
 67 69  2  0
 68 67  1  0
 70 68  1  0
 71 80  2  0
 71 76  1  0
 72 68  1  0
 72 76  1  0
 73 72  1  0
 74 75  1  0
 74 73  1  0
 75 71  1  0
 76 77  2  0
 77 78  1  0
 79 78  2  0
 80 79  1  0
 81 55  1  0
 81 82  1  0
 81 91  1  0
 82 85  1  0
 83 87  1  0
 83 82  1  0
 84 83  2  0
 87 86  1  0
 89 87  1  0
 89 90  1  0
 89 88  1  0
 91 94  1  1
 91 92  1  0
 93 91  1  0
M  ISO  4  11 100  19 100  53 101  54 101
M  END
>  <TORSDO>  (85) 
F 22

>  <SCORE>  (85) 
-12.225

>  <name>  (85) 
85

>  <ligand_id>  (85) 
85

>  <original_smiles>  (85) 
[H]c1c([H])c([H])c2c(c1[H])C([H])([H])C([H])([H])C([H])([H])C2([H])N([H])C(=O)C1([H])N(C(=O)C([H])(N([H])C(=O)C([H])(N([H])C([H])([H])[H])C([H])([H])[H])C(C([H])([H])[H])(C([H])([H])[H])C([H])([H])[H])C([H])([H])c2c([H])c(OC([H])([H])C([H])([H])C([H])(c3c([H])c(C([H])([H])N([H])C(=O)N4C([H])([H])C([H])([H])C([H])([H])C([H])(n5nc(-c6c([H])c([H])c(Oc7c([H])c([H])c(F)c([H])c7F)c([H])c6[H])c(C(=O)N([H])[H])c5N([H])[H])C4([H])[H])n(C([H])([H])[H])c3C([H])(C([H])([H])[H])C([H])([H])[H])C([H])([H])C([H])([H])[H])c([H])c([H])c2C1([H])[H]

>  <smiles>  (85) 
[H]c1c([H])c([H])c2c(c1[H])C([H])([H])C([H])([H])C([H])([H])C2([H])N([H])C(=O)C1([H])N(C(=O)C([H])(N([H])C(=O)C([H])(N([H])C([H])([H])[H])C([H])([H])[H])C(C([H])([H])[H])(C([H])([H])[H])C([H])([H])[H])C([H])([H])c2c([H])c(OC([H])([H])C([H])([H])C([H])(c3c([H])c(C([H])([H])N([H])C(=O)N4C([H])([H])C([H])([H])C([H])([H])C([H])(n5nc(-c6c([H])c([H])c(Oc7c([H])c([H])c(F)c([H])c7F)c([H])c6[H])c(C(=O)N([H])[H])c5N([H])[H])C4([H])[H])n(C([H])([H])[H])c3C([H])(C([H])([H])[H])C([H])([H])[H])C([H])([H])C([H])([H])[H])c([H])c([H])c2C1([H])[H]

$$$$
86:0:0
     RDKit          3D

 95103  0  0  1  0  0  0  0  0999 V2000
  -30.0080  -20.3560   20.5630 C   0  0  0  0  0  3  0  0  0  0  0  0
  -31.2610  -21.8590   19.1580 C   0  0  0  0  0  3  0  0  0  0  0  0
  -30.1300  -21.6380   19.9620 C   0  0  0  0  0  0  0  0  0  0  0  0
  -31.0010  -19.3520   20.3590 C   0  0  0  0  0  0  0  0  0  0  0  0
  -32.1090  -19.7190   19.5520 C   0  0  0  0  0  0  0  0  0  0  0  0
  -32.2260  -20.9350   18.9710 N   0  0  0  0  0  0  0  0  0  0  0  0
  -34.4170  -18.9670   20.3200 C   0  0  0  0  0  1  0  0  0  0  0  0
  -33.2860  -18.7800   19.3000 C   0  0  0  0  0  2  0  0  0  0  0  0
  -30.0640  -17.9540   22.3250 C   0  0  0  0  0  1  0  0  0  0  0  0
  -30.9250  -17.9540   21.0450 C   0  0  0  0  0  3  0  0  0  0  0  0
  -30.5640  -16.8360   20.1230 N   0  0  0  0  0  4  0  0  0  0  0  0
  -31.3580  -16.5870   19.5420 H   0  0  0  0  0  0  0  0  0  0  0  0
  -29.8190  -17.1220   19.5070 H   0  0  0  0  0  0  0  0  0  0  0  0
  -30.8650  -14.5320   20.1850 C   0  0  0  0  0  0  0  0  0  0  0  0
  -30.5650  -12.3530   19.0550 C   0  0  0  0  0  2  0  0  0  0  0  0
  -29.5870  -12.5130   17.8730 C   0  0  0  0  0  2  0  0  0  0  0  0
  -28.1220  -12.3950   18.3440 C   0  0  0  0  0  2  0  0  0  0  0  0
  -27.8150  -13.2610   19.5940 C   0  0  0  0  0  3  0  0  0  0  0  0
  -28.8920  -13.0410   20.6830 C   0  0  0  0  0  2  0  0  0  0  0  0
  -30.2080  -13.3410   20.0870 N   0  0  0  0  0  0  0  0  0  0  0  0
  -31.9590  -14.7510   19.6530 O   0  0  0  0  0  0  0  0  0  0  0  0
  -30.1700  -15.5260   20.7710 N   0  0  0  0  0  0  0  0  0  0  0  0
  -29.2290  -15.4290   21.1180 H   0  0  0  0  0  0  0  0  0  0  0  0
  -25.4320  -13.9030   20.3360 C   0  0  0  0  0  0  0  0  0  0  0  0
  -24.3680  -13.1480   20.7470 C   0  0  0  0  0  0  0  0  0  0  0  0
  -24.8200  -11.7920   20.7400 C   0  0  0  0  0  0  0  0  0  0  0  0
  -26.4680  -13.0100   20.1040 N   0  0  0  0  0  0  0  0  0  0  0  0
  -26.1020  -11.7380   20.4040 N   0  0  0  0  0  0  0  0  0  0  0  0
  -24.0920  -10.5390   20.9740 C   0  0  0  0  0  0  0  0  0  0  0  0
  -24.4990   -9.6250   21.9690 C   0  0  0  0  0  3  0  0  0  0  0  0
  -23.7720   -8.4340   22.1880 C   0  0  0  0  0  3  0  0  0  0  0  0
  -22.6250   -8.1510   21.4120 C   0  0  0  0  0  0  0  0  0  0  0  0
  -22.2350   -9.0550   20.4070 C   0  0  0  0  0  3  0  0  0  0  0  0
  -22.9630  -10.2360   20.1880 C   0  0  0  0  0  3  0  0  0  0  0  0
  -21.8720   -7.0090   21.5380 O   0  0  0  0  0  0  0  0  0  0  0  0
  -21.7400   -6.3640   22.7420 C   0  0  0  0  0  0  0  0  0  0  0  0
  -21.2010   -7.0060   23.8780 C   0  0  0  0  0  3  0  0  0  0  0  0
  -21.0190   -6.2850   25.0750 C   0  0  0  0  0  3  0  0  0  0  0  0
  -21.3630   -4.9210   25.1350 C   0  0  0  0  0  0  0  0  0  0  0  0
  -21.8920   -4.2780   24.0030 C   0  0  0  0  0  3  0  0  0  0  0  0
  -22.0770   -4.9960   22.8090 C   0  0  0  0  0  0  0  0  0  0  0  0
  -22.5690   -4.3680   21.7150 F   0  0  0  0  0  0  0  0  0  0  0  0
  -21.1800   -4.2260   26.2820 F   0  0  0  0  0  0  0  0  0  0  0  0
  -22.9770  -13.6390   21.0320 C   0  0  0  0  0  0  0  0  0  0  0  0
  -22.2600  -12.9750   21.9300 N   0  0  0  0  0  0  0  0  0  0  0  0
  -22.5340  -14.6490   20.4870 O   0  0  0  0  0  0  0  0  0  0  0  0
  -22.6270  -12.1570   22.3980 H   0  0  0  0  0  0  0  0  0  0  0  0
  -21.3280  -13.2910   22.1570 H   0  0  0  0  0  0  0  0  0  0  0  0
  -25.6030  -15.2670   20.1220 N   0  0  0  0  0  0  0  0  0  0  0  0
  -24.8410  -15.9260   20.2460 H   0  0  0  0  0  0  0  0  0  0  0  0
  -26.4180  -15.6850   19.6930 H   0  0  0  0  0  0  0  0  0  0  0  0
  -29.0250  -22.7100   20.1120 C   0  0  0  0  0  2  0  0  0  0  0  0
  -29.4180  -24.2310   20.1810 C   0  0  0  0  0  2  0  0  0  0  0  0
  -28.1620  -25.1620   20.1090 C   0  0  0  0  0  2  0  0  0  0  0  0
  -28.3260  -26.6040   20.2450 O   0  0  0  0  0  0  0  0  0  0  0  0
  -24.5590  -31.9270   23.2420 C   0  0  0  0  0  0  0  0  0  0  0  0
  -27.1620  -27.3810   20.2200 C   0  0  0  0  0  0  0  0  0  0  0  0
  -23.3320  -30.5070   21.6350 C   0  0  0  0  0  3  0  0  0  0  0  0
  -24.7690  -28.9390   20.2230 C   0  0  0  0  0  0  0  0  0  0  0  0
  -25.8610  -30.8420   21.4060 C   0  0  0  0  0  2  0  0  0  0  0  0
  -25.9410  -29.4550   20.7890 C   0  0  0  0  0  0  0  0  0  0  0  0
  -27.1390  -28.6890   20.7800 C   0  0  0  0  0  3  0  0  0  0  0  0
  -25.9590  -26.8950   19.6500 C   0  0  0  0  0  3  0  0  0  0  0  0
  -24.7780  -27.6610   19.6460 C   0  0  0  0  0  3  0  0  0  0  0  0
  -23.5270  -29.8070   20.2640 C   0  0  0  0  0  2  0  0  0  0  0  0
  -24.6030  -31.1070   22.1540 N   0  0  0  0  0  0  0  0  0  0  0  0
  -23.4840  -32.2100   23.7910 O   0  0  0  0  0  0  0  0  0  0  0  0
  -22.6820  -29.5050   22.6180 C   0  0  0  0  0  0  0  0  0  0  0  0
  -21.3620  -29.2940   22.4800 N   0  0  0  0  0  0  0  0  0  0  0  0
  -23.3650  -28.9190   23.4630 O   0  0  0  0  0  0  0  0  0  0  0  0
  -20.8690  -29.8180   21.7690 H   0  0  0  0  0  0  0  0  0  0  0  0
  -18.0140  -28.0180   22.9510 C   0  0  0  0  0  0  0  0  0  0  0  0
  -20.5550  -28.3650   23.2720 C   0  0  0  0  0  3  0  0  0  0  0  0
  -20.7160  -26.9140   22.7620 C   0  0  0  0  0  2  0  0  0  0  0  0
  -19.6510  -26.5130   21.7370 C   0  0  0  0  0  2  0  0  0  0  0  0
  -18.2500  -26.6450   22.3400 C   0  0  0  0  0  2  0  0  0  0  0  0
  -19.0990  -28.8300   23.3740 C   0  0  0  0  0  0  0  0  0  0  0  0
  -18.8280  -30.1110   23.9050 C   0  0  0  0  0  3  0  0  0  0  0  0
  -17.5060  -30.5800   24.0140 C   0  0  0  0  0  3  0  0  0  0  0  0
  -16.4360  -29.7650   23.6080 C   0  0  0  0  0  3  0  0  0  0  0  0
  -16.6890  -28.4850   23.0830 C   0  0  0  0  0  3  0  0  0  0  0  0
  -25.8520  -32.5660   23.8350 C   0  0  0  0  0  3  0  0  0  0  0  0
  -25.5420  -33.9630   24.1660 N   0  0  0  0  0  0  0  0  0  0  0  0
  -25.8730  -35.0180   23.4090 C   0  0  0  0  0  0  0  0  0  0  0  0
  -26.5480  -34.9160   22.3800 O   0  0  0  0  0  0  0  0  0  0  0  0
  -24.9480  -34.1130   24.9690 H   0  0  0  0  0  0  0  0  0  0  0  0
  -24.1590  -36.8210   23.0300 C   0  0  0  0  0  1  0  0  0  0  0  0
  -25.3820  -36.4070   23.8650 C   0  0  0  0  0  3  0  0  0  0  0  0
  -27.5070  -37.2820   24.7340 C   0  0  0  0  0  1  0  0  0  0  0  0
  -26.4200  -37.4570   23.7740 N   0  0  0  0  0  0  0  0  0  0  0  0
  -26.0130  -38.3770   23.9210 H   0  0  0  0  0  0  0  0  0  0  0  0
  -26.3930  -31.8020   25.1050 C   0  0  1  0  0  0  0  0  0  0  0  0
  -25.3170  -31.5520   26.1860 C   0  0  0  0  0  1  0  0  0  0  0  0
  -26.9900  -30.4320   24.7060 C   0  0  0  0  0  1  0  0  0  0  0  0
  -27.5460  -32.6060   25.7500 C   0  0  0  0  0  1  0  0  0  0  0  0
  2  3  1  0
  3 52  1  0
  3  1  2  0
  4  1  1  0
  4 10  1  0
  5  4  2  0
  6  2  2  0
  6  5  1  0
  8  5  1  0
  8  7  1  0
 10  9  1  0
 11 22  1  0
 11 10  1  0
 12 11  1  0
 13 11  1  0
 14 22  1  0
 15 20  1  0
 16 17  1  0
 16 15  1  0
 18 17  1  0
 18 27  1  0
 18 19  1  0
 20 14  1  0
 20 19  1  0
 21 14  2  0
 22 23  1  0
 24 25  2  0
 25 44  1  0
 26 25  1  0
 26 29  1  0
 27 24  1  0
 27 28  1  0
 28 26  2  0
 29 30  1  0
 30 31  2  0
 32 35  1  0
 32 31  1  0
 33 32  2  0
 34 33  1  0
 34 29  2  0
 35 36  1  0
 36 41  2  0
 36 37  1  0
 37 38  2  0
 38 39  1  0
 39 43  1  0
 40 39  2  0
 41 40  1  0
 42 41  1  0
 44 45  1  0
 45 48  1  0
 45 47  1  0
 46 44  2  0
 49 50  1  0
 49 24  1  0
 51 49  1  0
 52 53  1  0
 54 53  1  0
 54 55  1  0
 56 67  2  0
 57 55  1  0
 57 62  1  0
 58 66  1  0
 58 68  1  0
 59 65  1  0
 59 61  1  0
 60 66  1  0
 61 60  1  0
 62 61  2  0
 63 57  2  0
 64 63  1  0
 64 59  2  0
 65 58  1  0
 66 56  1  0
 68 70  2  0
 69 68  1  0
 71 69  1  0
 72 81  2  0
 72 77  1  0
 73 69  1  0
 73 77  1  0
 74 73  1  0
 75 76  1  0
 75 74  1  0
 76 72  1  0
 77 78  2  0
 78 79  1  0
 80 79  2  0
 81 80  1  0
 82 56  1  0
 82 83  1  0
 82 92  1  0
 83 86  1  0
 84 88  1  0
 84 83  1  0
 85 84  2  0
 88 87  1  0
 90 88  1  0
 90 91  1  0
 90 89  1  0
 92 95  1  1
 92 93  1  0
 94 92  1  0
M  ISO  4  14 100  22 100  54 101  55 101
M  END
>  <TORSDO>  (86) 
F 22

>  <SCORE>  (86) 
-12.531

>  <name>  (86) 
86

>  <ligand_id>  (86) 
86

>  <original_smiles>  (86) 
[H]c1nc(C([H])([H])C([H])([H])[H])c(C([H])(C([H])([H])[H])[N+]([H])([H])N([H])C(=O)N2C([H])([H])C([H])([H])C([H])([H])C([H])(n3nc(-c4c([H])c([H])c(Oc5c([H])c([H])c(F)c([H])c5F)c([H])c4[H])c(C(=O)N([H])[H])c3N([H])[H])C2([H])[H])c([H])c1C([H])([H])C([H])([H])C([H])([H])Oc1c([H])c([H])c2c(c1[H])C([H])([H])N(C(=O)C([H])(N([H])C(=O)C([H])(N([H])C([H])([H])[H])C([H])([H])[H])C(C([H])([H])[H])(C([H])([H])[H])C([H])([H])[H])C([H])(C(=O)N([H])C1([H])c3c([H])c([H])c([H])c([H])c3C([H])([H])C([H])([H])C1([H])[H])C2([H])[H]

>  <smiles>  (86) 
[H]c1nc(C([H])([H])C([H])([H])[H])c(C([H])(C([H])([H])[H])[N+]([H])([H])N([H])C(=O)N2C([H])([H])C([H])([H])C([H])([H])C([H])(n3nc(-c4c([H])c([H])c(Oc5c([H])c([H])c(F)c([H])c5F)c([H])c4[H])c(C(=O)N([H])[H])c3N([H])[H])C2([H])[H])c([H])c1C([H])([H])C([H])([H])C([H])([H])Oc1c([H])c([H])c2c(c1[H])C([H])([H])N(C(=O)C([H])(N([H])C(=O)C([H])(N([H])C([H])([H])[H])C([H])([H])[H])C(C([H])([H])[H])(C([H])([H])[H])C([H])([H])[H])C([H])(C(=O)N([H])C1([H])c3c([H])c([H])c([H])c([H])c3C([H])([H])C([H])([H])C1([H])[H])C2([H])[H]

$$$$
87:0:0
     RDKit          3D

 92100  0  0  1  0  0  0  0  0999 V2000
  -29.4390  -19.5250   22.0530 C   0  0  0  0  0  3  0  0  0  0  0  0
  -29.6600  -20.8740   22.0020 C   0  0  0  0  0  0  0  0  0  0  0  0
  -31.0840  -20.9660   21.8730 C   0  0  0  0  0  0  0  0  0  0  0  0
  -31.9680  -22.1760   21.8030 C   0  0  0  0  0  1  0  0  0  0  0  0
  -31.6640  -19.7700   21.8640 N   0  0  0  0  0  0  0  0  0  0  0  0
  -30.6540  -18.8880   22.0020 N   0  0  0  0  0  0  0  0  0  0  0  0
  -28.5690  -21.9150   22.1450 C   0  0  0  0  0  2  0  0  0  0  0  0
  -28.9320  -23.3820   21.8500 C   0  0  0  0  0  2  0  0  0  0  0  0
  -28.9700  -23.7730   20.3630 C   0  0  0  0  0  2  0  0  0  0  0  0
  -28.8800  -25.3020   20.2120 C   0  0  0  0  0  2  0  0  0  0  0  0
  -28.9950  -25.8250   18.7720 C   0  0  0  0  0  2  0  0  0  0  0  0
  -28.7540  -27.2330   18.7530 O   0  0  0  0  0  0  0  0  0  0  0  0
  -24.5070  -31.1980   22.8460 C   0  0  0  0  0  0  0  0  0  0  0  0
  -27.4710  -27.7000   18.9520 C   0  0  0  0  0  0  0  0  0  0  0  0
  -23.3670  -29.8670   21.1020 C   0  0  0  0  0  3  0  0  0  0  0  0
  -24.8880  -28.7800   19.3680 C   0  0  0  0  0  0  0  0  0  0  0  0
  -25.7860  -30.6360   20.7830 C   0  0  0  0  0  2  0  0  0  0  0  0
  -26.0060  -29.3980   19.9400 C   0  0  0  0  0  0  0  0  0  0  0  0
  -27.2970  -28.8690   19.7260 C   0  0  0  0  0  3  0  0  0  0  0  0
  -26.3290  -27.0770   18.3950 C   0  0  0  0  0  3  0  0  0  0  0  0
  -25.0430  -27.6140   18.5990 C   0  0  0  0  0  3  0  0  0  0  0  0
  -23.5440  -29.4230   19.6270 C   0  0  0  0  0  2  0  0  0  0  0  0
  -24.5750  -30.5760   21.6350 N   0  0  0  0  0  0  0  0  0  0  0  0
  -23.4520  -31.2260   23.4950 O   0  0  0  0  0  0  0  0  0  0  0  0
  -22.9580  -28.6360   21.9390 C   0  0  0  0  0  0  0  0  0  0  0  0
  -21.6910  -28.2110   21.7960 N   0  0  0  0  0  0  0  0  0  0  0  0
  -23.7720  -28.0690   22.6720 O   0  0  0  0  0  0  0  0  0  0  0  0
  -21.0830  -28.7310   21.1800 H   0  0  0  0  0  0  0  0  0  0  0  0
  -18.6670  -26.2580   22.0730 C   0  0  0  0  0  0  0  0  0  0  0  0
  -21.0960  -27.0510   22.4570 C   0  0  0  0  0  3  0  0  0  0  0  0
  -21.5300  -25.7360   21.7670 C   0  0  0  0  0  2  0  0  0  0  0  0
  -20.5440  -25.2680   20.6920 C   0  0  0  0  0  2  0  0  0  0  0  0
  -19.1530  -25.0460   21.2950 C   0  0  0  0  0  2  0  0  0  0  0  0
  -19.5790  -27.2080   22.6040 C   0  0  0  0  0  0  0  0  0  0  0  0
  -19.0720  -28.3360   23.2880 C   0  0  0  0  0  3  0  0  0  0  0  0
  -17.6860  -28.5180   23.4450 C   0  0  0  0  0  3  0  0  0  0  0  0
  -16.7880  -27.5660   22.9310 C   0  0  0  0  0  3  0  0  0  0  0  0
  -17.2810  -26.4390   22.2500 C   0  0  0  0  0  3  0  0  0  0  0  0
  -25.7420  -31.9270   23.4610 C   0  0  0  0  0  3  0  0  0  0  0  0
  -25.2800  -33.2230   23.9730 N   0  0  0  0  0  0  0  0  0  0  0  0
  -25.4550  -34.3940   23.3450 C   0  0  0  0  0  0  0  0  0  0  0  0
  -26.0960  -34.5040   22.2960 O   0  0  0  0  0  0  0  0  0  0  0  0
  -24.7040  -33.2050   24.8010 H   0  0  0  0  0  0  0  0  0  0  0  0
  -23.5150  -35.9900   23.2470 C   0  0  0  0  0  1  0  0  0  0  0  0
  -24.8190  -35.6430   23.9830 C   0  0  0  0  0  3  0  0  0  0  0  0
  -26.8550  -36.6720   24.8920 C   0  0  0  0  0  1  0  0  0  0  0  0
  -25.7130  -36.8200   23.9920 N   0  0  0  0  0  0  0  0  0  0  0  0
  -25.2040  -37.6590   24.2640 H   0  0  0  0  0  0  0  0  0  0  0  0
  -26.4500  -31.0960   24.6030 C   0  0  1  0  0  0  0  0  0  0  0  0
  -25.4830  -30.5970   25.7030 C   0  0  0  0  0  1  0  0  0  0  0  0
  -27.1670  -29.8630   24.0090 C   0  0  0  0  0  1  0  0  0  0  0  0
  -27.5360  -31.9620   25.2850 C   0  0  0  0  0  1  0  0  0  0  0  0
  -30.9190  -17.4660   22.1240 C   0  0  0  0  0  2  0  0  0  0  0  0
  -31.3070  -16.8140   20.7860 C   0  0  0  0  0  2  0  0  0  0  0  0
  -31.4020  -14.4590   19.9680 C   0  0  0  0  0  0  0  0  0  0  0  0
  -30.9140  -12.2700   18.9440 C   0  0  0  0  0  2  0  0  0  0  0  0
  -29.9280  -12.4430   17.7720 C   0  0  0  0  0  2  0  0  0  0  0  0
  -28.4710  -12.4280   18.2740 C   0  0  0  0  0  2  0  0  0  0  0  0
  -28.2420  -13.3830   19.4760 C   0  0  0  0  0  3  0  0  0  0  0  0
  -29.3240  -13.1580   20.5540 C   0  0  0  0  0  2  0  0  0  0  0  0
  -30.6500  -13.3290   19.9260 N   0  0  0  0  0  0  0  0  0  0  0  0
  -32.4210  -14.6350   19.2960 O   0  0  0  0  0  0  0  0  0  0  0  0
  -30.9150  -15.4090   20.7710 N   0  0  0  0  0  0  0  0  0  0  0  0
  -30.0970  -15.1510   21.3040 H   0  0  0  0  0  0  0  0  0  0  0  0
  -25.9590  -14.2100   20.3390 C   0  0  0  0  0  0  0  0  0  0  0  0
  -24.8410  -13.5380   20.7550 C   0  0  0  0  0  0  0  0  0  0  0  0
  -25.1600  -12.1480   20.6650 C   0  0  0  0  0  0  0  0  0  0  0  0
  -26.8940  -13.2350   20.0250 N   0  0  0  0  0  0  0  0  0  0  0  0
  -26.4190  -11.9890   20.2750 N   0  0  0  0  0  0  0  0  0  0  0  0
  -24.3230  -10.9600   20.8720 C   0  0  0  0  0  0  0  0  0  0  0  0
  -24.6990   -9.9410   21.7750 C   0  0  0  0  0  3  0  0  0  0  0  0
  -23.8700   -8.8160   21.9710 C   0  0  0  0  0  3  0  0  0  0  0  0
  -22.6510   -8.7010   21.2620 C   0  0  0  0  0  0  0  0  0  0  0  0
  -22.2920   -9.7070   20.3480 C   0  0  0  0  0  3  0  0  0  0  0  0
  -23.1200  -10.8240   20.1520 C   0  0  0  0  0  3  0  0  0  0  0  0
  -21.7950   -7.6310   21.3680 O   0  0  0  0  0  0  0  0  0  0  0  0
  -21.6960   -6.9020   22.5260 C   0  0  0  0  0  0  0  0  0  0  0  0
  -21.3360   -7.4990   23.7540 C   0  0  0  0  0  3  0  0  0  0  0  0
  -21.1750   -6.7010   24.9050 C   0  0  0  0  0  3  0  0  0  0  0  0
  -21.3640   -5.3080   24.8280 C   0  0  0  0  0  0  0  0  0  0  0  0
  -21.7170   -4.7110   23.6050 C   0  0  0  0  0  3  0  0  0  0  0  0
  -21.8790   -5.5070   22.4560 C   0  0  0  0  0  0  0  0  0  0  0  0
  -22.1990   -4.9240   21.2760 F   0  0  0  0  0  0  0  0  0  0  0  0
  -21.2010   -4.5390   25.9300 F   0  0  0  0  0  0  0  0  0  0  0  0
  -23.5160  -14.1430   21.1230 C   0  0  0  0  0  0  0  0  0  0  0  0
  -22.7810  -13.5050   22.0270 N   0  0  0  0  0  0  0  0  0  0  0  0
  -23.1480  -15.2150   20.6460 O   0  0  0  0  0  0  0  0  0  0  0  0
  -23.0950  -12.6380   22.4370 H   0  0  0  0  0  0  0  0  0  0  0  0
  -21.8920  -13.8910   22.3130 H   0  0  0  0  0  0  0  0  0  0  0  0
  -26.2520  -15.5610   20.1840 N   0  0  0  0  0  0  0  0  0  0  0  0
  -25.5620  -16.2860   20.3540 H   0  0  0  0  0  0  0  0  0  0  0  0
  -27.1240  -15.9200   19.8170 H   0  0  0  0  0  0  0  0  0  0  0  0
  2  1  2  0
  2  7  1  0
  3  2  1  0
  4  3  1  0
  5  3  2  0
  5  6  1  0
  6  1  1  0
  6 53  1  0
  8  7  1  0
  9  8  1  0
 10  9  1  0
 11 10  1  0
 12 11  1  0
 12 14  1  0
 13 24  2  0
 14 19  1  0
 15 23  1  0
 15 25  1  0
 16 22  1  0
 16 18  1  0
 17 23  1  0
 18 17  1  0
 19 18  2  0
 20 21  1  0
 20 14  2  0
 21 16  2  0
 22 15  1  0
 23 13  1  0
 25 27  2  0
 26 25  1  0
 28 26  1  0
 29 38  2  0
 29 34  1  0
 30 26  1  0
 30 34  1  0
 31 30  1  0
 32 33  1  0
 32 31  1  0
 33 29  1  0
 34 35  2  0
 35 36  1  0
 37 36  2  0
 38 37  1  0
 39 13  1  0
 39 40  1  0
 39 49  1  0
 40 43  1  0
 41 40  1  0
 41 45  1  0
 42 41  2  0
 45 44  1  0
 45 47  1  0
 47 48  1  0
 47 46  1  0
 49 52  1  1
 49 50  1  0
 51 49  1  0
 54 53  1  0
 55 63  1  0
 56 61  1  0
 57 58  1  0
 57 56  1  0
 59 58  1  0
 59 68  1  0
 59 60  1  0
 61 55  1  0
 61 60  1  0
 62 55  2  0
 63 54  1  0
 63 64  1  0
 65 66  2  0
 66 85  1  0
 67 66  1  0
 67 70  1  0
 68 69  1  0
 68 65  1  0
 69 67  2  0
 70 71  1  0
 71 72  2  0
 73 76  1  0
 73 72  1  0
 74 73  2  0
 75 74  1  0
 75 70  2  0
 76 77  1  0
 77 78  1  0
 78 79  2  0
 80 79  1  0
 80 84  1  0
 81 80  2  0
 82 77  2  0
 82 81  1  0
 83 82  1  0
 85 86  1  0
 86 89  1  0
 86 88  1  0
 87 85  2  0
 90 65  1  0
 90 91  1  0
 92 90  1  0
M  ISO  4  11 101  12 101  55 100  63 100
M  END
>  <TORSDO>  (87) 
F 23

>  <SCORE>  (87) 
-8.402

>  <name>  (87) 
87

>  <ligand_id>  (87) 
87

>  <original_smiles>  (87) 
[H]c1c([H])c([H])c2c(c1[H])C([H])([H])C([H])([H])C([H])([H])C2([H])N([H])C(=O)C1([H])N(C(=O)C([H])(N([H])C(=O)C([H])(N([H])C([H])([H])[H])C([H])([H])[H])C(C([H])([H])[H])(C([H])([H])[H])C([H])([H])[H])C([H])([H])c2c([H])c(OC([H])([H])C([H])([H])C([H])([H])C([H])([H])C([H])([H])c3c(C([H])([H])[H])nn(C([H])([H])C([H])([H])N([H])C(=O)N4C([H])([H])C([H])([H])C([H])([H])C([H])(n5nc(-c6c([H])c([H])c(Oc7c([H])c([H])c(F)c([H])c7F)c([H])c6[H])c(C(=O)N([H])[H])c5N([H])[H])C4([H])[H])c3[H])c([H])c([H])c2C1([H])[H]

>  <smiles>  (87) 
[H]c1c([H])c([H])c2c(c1[H])C([H])([H])C([H])([H])C([H])([H])C2([H])N([H])C(=O)C1([H])N(C(=O)C([H])(N([H])C(=O)C([H])(N([H])C([H])([H])[H])C([H])([H])[H])C(C([H])([H])[H])(C([H])([H])[H])C([H])([H])[H])C([H])([H])c2c([H])c(OC([H])([H])C([H])([H])C([H])([H])C([H])([H])C([H])([H])c3c(C([H])([H])[H])nn(C([H])([H])C([H])([H])N([H])C(=O)N4C([H])([H])C([H])([H])C([H])([H])C([H])(n5nc(-c6c([H])c([H])c(Oc7c([H])c([H])c(F)c([H])c7F)c([H])c6[H])c(C(=O)N([H])[H])c5N([H])[H])C4([H])[H])c3[H])c([H])c([H])c2C1([H])[H]

$$$$
88:0:0
     RDKit          3D

 92100  0  0  1  0  0  0  0  0999 V2000
  -29.7950  -19.9790   21.2420 C   0  0  0  0  0  3  0  0  0  0  0  0
  -29.0300  -20.5070   19.2470 C   0  0  0  0  0  3  0  0  0  0  0  0
  -29.9530  -18.8110   20.4930 C   0  0  0  0  0  0  0  0  0  0  0  0
  -29.4430  -19.1820   19.2020 C   0  0  0  0  0  0  0  0  0  0  0  0
  -29.2320  -21.0490   20.5060 N   0  0  0  0  0  0  0  0  0  0  0  0
  -30.7840  -18.1620   17.3410 C   0  0  0  0  0  1  0  0  0  0  0  0
  -28.3340  -18.7010   16.9680 C   0  0  0  0  0  1  0  0  0  0  0  0
  -29.3980  -18.2730   17.9900 C   0  0  0  0  0  3  0  0  0  0  0  0
  -30.6500  -17.4490   20.9560 C   0  0  0  0  0  2  0  0  0  0  0  0
  -30.8480  -14.9000   20.4400 C   0  0  0  0  0  0  0  0  0  0  0  0
  -30.6340  -12.6540   19.3650 C   0  0  0  0  0  2  0  0  0  0  0  0
  -29.7100  -12.7550   18.1330 C   0  0  0  0  0  2  0  0  0  0  0  0
  -28.2360  -12.5790   18.5440 C   0  0  0  0  0  2  0  0  0  0  0  0
  -27.8500  -13.4470   19.7720 C   0  0  0  0  0  3  0  0  0  0  0  0
  -28.8960  -13.3370   20.9020 C   0  0  0  0  0  2  0  0  0  0  0  0
  -30.1970  -13.6930   20.3260 N   0  0  0  0  0  0  0  0  0  0  0  0
  -32.0420  -14.9810   20.1390 O   0  0  0  0  0  0  0  0  0  0  0  0
  -30.1150  -16.0430   20.7120 N   0  0  0  0  0  0  0  0  0  0  0  0
  -29.1300  -15.9090   20.8790 H   0  0  0  0  0  0  0  0  0  0  0  0
  -25.4480  -14.0270   20.4560 C   0  0  0  0  0  0  0  0  0  0  0  0
  -24.3810  -13.2480   20.8110 C   0  0  0  0  0  0  0  0  0  0  0  0
  -24.8520  -11.9000   20.7980 C   0  0  0  0  0  0  0  0  0  0  0  0
  -26.5010  -13.1530   20.2420 N   0  0  0  0  0  0  0  0  0  0  0  0
  -26.1490  -11.8690   20.5120 N   0  0  0  0  0  0  0  0  0  0  0  0
  -24.1300  -10.6350   20.9820 C   0  0  0  0  0  0  0  0  0  0  0  0
  -24.5190   -9.6970   21.9640 C   0  0  0  0  0  3  0  0  0  0  0  0
  -23.7960   -8.4970   22.1340 C   0  0  0  0  0  3  0  0  0  0  0  0
  -22.6700   -8.2250   21.3210 C   0  0  0  0  0  0  0  0  0  0  0  0
  -22.3010   -9.1510   20.3290 C   0  0  0  0  0  3  0  0  0  0  0  0
  -23.0250  -10.3430   20.1560 C   0  0  0  0  0  3  0  0  0  0  0  0
  -21.9230   -7.0740   21.3970 O   0  0  0  0  0  0  0  0  0  0  0  0
  -21.7780   -6.3870   22.5760 C   0  0  0  0  0  0  0  0  0  0  0  0
  -21.1970   -6.9810   23.7170 C   0  0  0  0  0  3  0  0  0  0  0  0
  -21.0030   -6.2170   24.8860 C   0  0  0  0  0  3  0  0  0  0  0  0
  -21.3810   -4.8620   24.9140 C   0  0  0  0  0  0  0  0  0  0  0  0
  -21.9560   -4.2680   23.7770 C   0  0  0  0  0  3  0  0  0  0  0  0
  -22.1510   -5.0280   22.6100 C   0  0  0  0  0  0  0  0  0  0  0  0
  -22.6850   -4.4450   21.5100 F   0  0  0  0  0  0  0  0  0  0  0  0
  -21.1890   -4.1260   26.0340 F   0  0  0  0  0  0  0  0  0  0  0  0
  -22.9760  -13.7190   21.0530 C   0  0  0  0  0  0  0  0  0  0  0  0
  -22.2330  -13.0200   21.9040 N   0  0  0  0  0  0  0  0  0  0  0  0
  -22.5440  -14.7410   20.5230 O   0  0  0  0  0  0  0  0  0  0  0  0
  -22.5950  -12.1930   22.3570 H   0  0  0  0  0  0  0  0  0  0  0  0
  -21.2900  -13.3170   22.1090 H   0  0  0  0  0  0  0  0  0  0  0  0
  -25.6060  -15.3980   20.2710 N   0  0  0  0  0  0  0  0  0  0  0  0
  -24.8280  -16.0440   20.3620 H   0  0  0  0  0  0  0  0  0  0  0  0
  -26.4490  -15.8420   19.9330 H   0  0  0  0  0  0  0  0  0  0  0  0
  -28.7750  -22.4120   21.0330 C   0  0  0  0  0  3  0  0  0  0  0  0
  -28.9800  -23.8250   20.2600 C   0  0  0  0  0  3  0  0  0  0  0  0
  -28.6290  -25.3310   22.3560 C   0  0  0  0  0  1  0  0  0  0  0  0
  -28.2590  -25.1510   20.8750 C   0  0  0  0  0  3  0  0  0  0  0  0
  -28.4510  -26.5270   20.3020 O   0  0  0  0  0  0  0  0  0  0  0  0
  -24.5740  -31.9440   23.2240 C   0  0  0  0  0  0  0  0  0  0  0  0
  -27.3410  -27.3970   20.2630 C   0  0  0  0  0  0  0  0  0  0  0  0
  -23.4400  -30.5190   21.5570 C   0  0  0  0  0  3  0  0  0  0  0  0
  -24.9560  -28.9880   20.1750 C   0  0  0  0  0  0  0  0  0  0  0  0
  -25.9800  -30.8780   21.4410 C   0  0  0  0  0  2  0  0  0  0  0  0
  -26.1030  -29.4960   20.8020 C   0  0  0  0  0  0  0  0  0  0  0  0
  -27.3020  -28.7140   20.8300 C   0  0  0  0  0  3  0  0  0  0  0  0
  -26.1750  -26.9510   19.6080 C   0  0  0  0  0  3  0  0  0  0  0  0
  -24.9960  -27.7230   19.5670 C   0  0  0  0  0  3  0  0  0  0  0  0
  -23.7040  -29.8430   20.1860 C   0  0  0  0  0  2  0  0  0  0  0  0
  -24.6820  -31.1330   22.1310 N   0  0  0  0  0  0  0  0  0  0  0  0
  -23.4720  -32.2030   23.7290 O   0  0  0  0  0  0  0  0  0  0  0  0
  -22.7700  -29.4950   22.5040 C   0  0  0  0  0  0  0  0  0  0  0  0
  -21.4460  -29.3140   22.3620 N   0  0  0  0  0  0  0  0  0  0  0  0
  -23.4410  -28.8670   23.3270 O   0  0  0  0  0  0  0  0  0  0  0  0
  -20.9620  -29.8730   21.6720 H   0  0  0  0  0  0  0  0  0  0  0  0
  -18.0550  -28.1600   22.8830 C   0  0  0  0  0  0  0  0  0  0  0  0
  -20.6220  -28.3670   23.1170 C   0  0  0  0  0  3  0  0  0  0  0  0
  -20.6890  -26.9530   22.4970 C   0  0  0  0  0  2  0  0  0  0  0  0
  -19.5650  -26.6800   21.4920 C   0  0  0  0  0  2  0  0  0  0  0  0
  -18.1970  -26.8290   22.1630 C   0  0  0  0  0  2  0  0  0  0  0  0
  -19.1940  -28.8890   23.3160 C   0  0  0  0  0  0  0  0  0  0  0  0
  -19.0070  -30.1370   23.9500 C   0  0  0  0  0  3  0  0  0  0  0  0
  -17.7140  -30.6550   24.1540 C   0  0  0  0  0  3  0  0  0  0  0  0
  -16.5900  -29.9220   23.7350 C   0  0  0  0  0  3  0  0  0  0  0  0
  -16.7620  -28.6770   23.1050 C   0  0  0  0  0  3  0  0  0  0  0  0
  -25.8270  -32.6040   23.8780 C   0  0  0  0  0  3  0  0  0  0  0  0
  -25.4860  -34.0000   24.1870 N   0  0  0  0  0  0  0  0  0  0  0  0
  -25.8320  -35.0530   23.4330 C   0  0  0  0  0  0  0  0  0  0  0  0
  -26.5410  -34.9530   22.4280 O   0  0  0  0  0  0  0  0  0  0  0  0
  -24.8600  -34.1510   24.9640 H   0  0  0  0  0  0  0  0  0  0  0  0
  -24.1030  -36.8270   22.9980 C   0  0  0  0  0  1  0  0  0  0  0  0
  -25.3110  -36.4380   23.8650 C   0  0  0  0  0  3  0  0  0  0  0  0
  -27.3930  -37.3540   24.7910 C   0  0  0  0  0  1  0  0  0  0  0  0
  -26.3370  -37.5020   23.7930 N   0  0  0  0  0  0  0  0  0  0  0  0
  -25.9140  -38.4180   23.9120 H   0  0  0  0  0  0  0  0  0  0  0  0
  -26.3150  -31.8530   25.1780 C   0  0  1  0  0  0  0  0  0  0  0  0
  -25.1850  -31.5690   26.1950 C   0  0  0  0  0  1  0  0  0  0  0  0
  -26.9740  -30.5020   24.8160 C   0  0  0  0  0  1  0  0  0  0  0  0
  -27.3990  -32.6940   25.8920 C   0  0  0  0  0  1  0  0  0  0  0  0
  2  5  1  0
  3  9  1  0
  3  1  2  0
  4  2  2  0
  4  3  1  0
  5 48  1  0
  5  1  1  0
  6  8  1  0
  7  8  1  0
  8  4  1  0
 10 18  1  0
 11 16  1  0
 12 13  1  0
 12 11  1  0
 14 13  1  0
 14 23  1  0
 14 15  1  0
 16 10  1  0
 16 15  1  0
 17 10  2  0
 18 19  1  0
 18  9  1  0
 20 21  2  0
 21 40  1  0
 22 21  1  0
 22 25  1  0
 23 20  1  0
 23 24  1  0
 24 22  2  0
 25 26  1  0
 26 27  2  0
 28 31  1  0
 28 27  1  0
 29 28  2  0
 30 29  1  0
 30 25  2  0
 31 32  1  0
 32 37  2  0
 32 33  1  0
 33 34  2  0
 34 35  1  0
 35 39  1  0
 36 35  2  0
 37 36  1  0
 38 37  1  0
 40 41  1  0
 41 44  1  0
 41 43  1  0
 42 40  2  0
 45 46  1  0
 45 20  1  0
 47 45  1  0
 49 51  1  0
 49 48  2  0
 51 50  1  0
 52 51  1  0
 53 64  2  0
 54 52  1  0
 54 59  1  0
 55 63  1  0
 55 65  1  0
 56 62  1  0
 56 58  1  0
 57 63  1  0
 58 59  2  0
 58 57  1  0
 60 54  2  0
 61 60  1  0
 61 56  2  0
 62 55  1  0
 63 53  1  0
 65 67  2  0
 66 65  1  0
 68 66  1  0
 69 78  2  0
 69 74  1  0
 70 66  1  0
 70 74  1  0
 71 70  1  0
 72 73  1  0
 72 71  1  0
 73 69  1  0
 74 75  2  0
 75 76  1  0
 77 76  2  0
 78 77  1  0
 79 53  1  0
 79 80  1  0
 79 89  1  0
 80 83  1  0
 81 85  1  0
 81 80  1  0
 82 81  2  0
 85 84  1  0
 87 85  1  0
 87 88  1  0
 87 86  1  0
 89 92  1  1
 89 90  1  0
 91 89  1  0
M  ISO  4  10 100  18 100  51 101  52 101
M  END
>  <TORSDO>  (88) 
F 21

>  <SCORE>  (88) 
-13.671

>  <name>  (88) 
88

>  <ligand_id>  (88) 
88

>  <original_smiles>  (88) 
[H]c1c([H])c([H])c2c(c1[H])C([H])([H])C([H])([H])C([H])([H])C2([H])N([H])C(=O)C1([H])N(C(=O)C([H])(N([H])C(=O)C([H])(N([H])C([H])([H])[H])C([H])([H])[H])C(C([H])([H])[H])(C([H])([H])[H])C([H])([H])[H])C([H])([H])c2c([H])c(OC([H])(C([H])([H])[H])C([H])([H])C([H])([H])n3c([H])c(C([H])([H])N([H])C(=O)N4C([H])([H])C([H])([H])C([H])([H])C([H])(n5nc(-c6c([H])c([H])c(Oc7c([H])c([H])c(F)c([H])c7F)c([H])c6[H])c(C(=O)N([H])[H])c5N([H])[H])C4([H])[H])c(C([H])(C([H])([H])[H])C([H])([H])[H])c3[H])c([H])c([H])c2C1([H])[H]

>  <smiles>  (88) 
[H]c1c([H])c([H])c2c(c1[H])C([H])([H])C([H])([H])C([H])([H])C2([H])N([H])C(=O)C1([H])N(C(=O)C([H])(N([H])C(=O)C([H])(N([H])C([H])([H])[H])C([H])([H])[H])C(C([H])([H])[H])(C([H])([H])[H])C([H])([H])[H])C([H])([H])c2c([H])c(OC([H])(C([H])([H])[H])C([H])([H])C([H])([H])n3c([H])c(C([H])([H])N([H])C(=O)N4C([H])([H])C([H])([H])C([H])([H])C([H])(n5nc(-c6c([H])c([H])c(Oc7c([H])c([H])c(F)c([H])c7F)c([H])c6[H])c(C(=O)N([H])[H])c5N([H])[H])C4([H])[H])c(C([H])(C([H])([H])[H])C([H])([H])[H])c3[H])c([H])c([H])c2C1([H])[H]

$$$$
89:0:0
     RDKit          3D

 94102  0  0  1  0  0  0  0  0999 V2000
  -30.5480  -20.5400   21.8400 C   0  0  0  0  0  3  0  0  0  0  0  0
  -28.9230  -18.6420   20.7000 C   0  0  0  0  0  3  0  0  0  0  0  0
  -31.1350  -19.3470   21.3690 C   0  0  0  0  0  0  0  0  0  0  0  0
  -30.3060  -18.3610   20.7660 C   0  0  0  0  0  0  0  0  0  0  0  0
  -29.1690  -20.7420   21.6800 C   0  0  0  0  0  0  0  0  0  0  0  0
  -32.6450  -19.1930   21.4780 C   0  0  0  0  0  1  0  0  0  0  0  0
  -28.3690  -19.8010   21.1320 N   0  0  0  0  0  0  0  0  0  0  0  0
  -28.5100  -22.0620   22.0950 C   0  0  0  0  0  2  0  0  0  0  0  0
  -28.9950  -23.3130   21.3120 C   0  0  0  0  0  2  0  0  0  0  0  0
  -28.0380  -24.5320   21.4190 C   0  0  0  0  0  2  0  0  0  0  0  0
  -28.6610  -25.8950   21.8150 C   0  0  0  0  0  2  0  0  0  0  0  0
  -29.3700  -26.7080   20.7050 C   0  0  0  0  0  2  0  0  0  0  0  0
  -28.5690  -26.9490   19.5470 O   0  0  0  0  0  0  0  0  0  0  0  0
  -24.5930  -31.7730   23.0510 C   0  0  0  0  0  0  0  0  0  0  0  0
  -27.4070  -27.6780   19.6780 C   0  0  0  0  0  0  0  0  0  0  0  0
  -23.4330  -30.4260   21.3310 C   0  0  0  0  0  3  0  0  0  0  0  0
  -24.9420  -29.0560   19.7990 C   0  0  0  0  0  0  0  0  0  0  0  0
  -25.9350  -30.9190   21.1350 C   0  0  0  0  0  2  0  0  0  0  0  0
  -26.0780  -29.5930   20.4190 C   0  0  0  0  0  0  0  0  0  0  0  0
  -27.3150  -28.9090   20.3680 C   0  0  0  0  0  3  0  0  0  0  0  0
  -26.2610  -27.1590   19.0440 C   0  0  0  0  0  3  0  0  0  0  0  0
  -25.0260  -27.8340   19.1110 C   0  0  0  0  0  3  0  0  0  0  0  0
  -23.6580  -29.8500   19.9090 C   0  0  0  0  0  2  0  0  0  0  0  0
  -24.6720  -31.0530   21.8980 N   0  0  0  0  0  0  0  0  0  0  0  0
  -23.5080  -31.9570   23.6200 O   0  0  0  0  0  0  0  0  0  0  0  0
  -22.8430  -29.3150   22.2270 C   0  0  0  0  0  0  0  0  0  0  0  0
  -21.5210  -29.1010   22.1240 N   0  0  0  0  0  0  0  0  0  0  0  0
  -23.5690  -28.6510   22.9710 O   0  0  0  0  0  0  0  0  0  0  0  0
  -20.9920  -29.6920   21.4970 H   0  0  0  0  0  0  0  0  0  0  0  0
  -18.1970  -27.7810   22.6370 C   0  0  0  0  0  0  0  0  0  0  0  0
  -20.7570  -28.0830   22.8440 C   0  0  0  0  0  3  0  0  0  0  0  0
  -20.8720  -26.7070   22.1480 C   0  0  0  0  0  2  0  0  0  0  0  0
  -19.7430  -26.4390   21.1480 C   0  0  0  0  0  2  0  0  0  0  0  0
  -18.3820  -26.4960   21.8490 C   0  0  0  0  0  2  0  0  0  0  0  0
  -19.3120  -28.5340   23.0910 C   0  0  0  0  0  0  0  0  0  0  0  0
  -19.0850  -29.7420   23.7870 C   0  0  0  0  0  3  0  0  0  0  0  0
  -17.7760  -30.1920   24.0350 C   0  0  0  0  0  3  0  0  0  0  0  0
  -16.6760  -29.4340   23.5990 C   0  0  0  0  0  3  0  0  0  0  0  0
  -16.8880  -28.2310   22.9040 C   0  0  0  0  0  3  0  0  0  0  0  0
  -25.8580  -32.4190   23.6980 C   0  0  0  0  0  3  0  0  0  0  0  0
  -25.5050  -33.7930   24.0820 N   0  0  0  0  0  0  0  0  0  0  0  0
  -25.8000  -34.8820   23.3590 C   0  0  0  0  0  0  0  0  0  0  0  0
  -26.4690  -34.8370   22.3220 O   0  0  0  0  0  0  0  0  0  0  0  0
  -24.9120  -33.8960   24.8920 H   0  0  0  0  0  0  0  0  0  0  0  0
  -24.0060  -36.6180   23.0760 C   0  0  0  0  0  1  0  0  0  0  0  0
  -25.2690  -36.2360   23.8640 C   0  0  0  0  0  3  0  0  0  0  0  0
  -27.3790  -37.1710   24.7020 C   0  0  0  0  0  1  0  0  0  0  0  0
  -26.2610  -37.3280   23.7740 N   0  0  0  0  0  0  0  0  0  0  0  0
  -25.8270  -38.2290   23.9520 H   0  0  0  0  0  0  0  0  0  0  0  0
  -26.4030  -31.6110   24.9400 C   0  0  1  0  0  0  0  0  0  0  0  0
  -25.3220  -31.3050   26.0030 C   0  0  0  0  0  1  0  0  0  0  0  0
  -27.0200  -30.2670   24.4900 C   0  0  0  0  0  1  0  0  0  0  0  0
  -27.5350  -32.4130   25.6260 C   0  0  0  0  0  1  0  0  0  0  0  0
  -30.9110  -17.1210   20.0660 C   0  0  0  0  0  3  0  0  0  0  0  0
  -31.0390  -14.6470   20.0680 C   0  0  0  0  0  0  0  0  0  0  0  0
  -30.6140  -12.5190   18.9230 C   0  0  0  0  0  2  0  0  0  0  0  0
  -29.6260  -12.7650   17.7670 C   0  0  0  0  0  2  0  0  0  0  0  0
  -28.1780  -12.6210   18.2720 C   0  0  0  0  0  2  0  0  0  0  0  0
  -27.9060  -13.4440   19.5590 C   0  0  0  0  0  3  0  0  0  0  0  0
  -29.0170  -13.2350   20.6150 C   0  0  0  0  0  2  0  0  0  0  0  0
  -30.3100  -13.5050   19.9730 N   0  0  0  0  0  0  0  0  0  0  0  0
  -32.1870  -14.7210   19.6260 O   0  0  0  0  0  0  0  0  0  0  0  0
  -30.3770  -15.7780   20.4060 N   0  0  0  0  0  0  0  0  0  0  0  0
  -29.4150  -15.6890   20.6980 H   0  0  0  0  0  0  0  0  0  0  0  0
  -25.5620  -14.0370   20.4380 C   0  0  0  0  0  0  0  0  0  0  0  0
  -24.5040  -13.2580   20.8240 C   0  0  0  0  0  0  0  0  0  0  0  0
  -24.9440  -11.9050   20.6990 C   0  0  0  0  0  0  0  0  0  0  0  0
  -26.5800  -13.1570   20.1040 N   0  0  0  0  0  0  0  0  0  0  0  0
  -26.2150  -11.8670   20.3190 N   0  0  0  0  0  0  0  0  0  0  0  0
  -24.2110  -10.6430   20.8640 C   0  0  0  0  0  0  0  0  0  0  0  0
  -24.6530   -9.6430   21.7590 C   0  0  0  0  0  3  0  0  0  0  0  0
  -23.9200   -8.4470   21.9120 C   0  0  0  0  0  3  0  0  0  0  0  0
  -22.7320   -8.2420   21.1710 C   0  0  0  0  0  0  0  0  0  0  0  0
  -22.3100   -9.2300   20.2640 C   0  0  0  0  0  3  0  0  0  0  0  0
  -23.0430  -10.4180   20.1070 C   0  0  0  0  0  3  0  0  0  0  0  0
  -21.9710   -7.1000   21.2350 O   0  0  0  0  0  0  0  0  0  0  0  0
  -21.8910   -6.3510   22.3830 C   0  0  0  0  0  0  0  0  0  0  0  0
  -21.4440   -6.9050   23.6030 C   0  0  0  0  0  3  0  0  0  0  0  0
  -21.3110   -6.0840   24.7400 C   0  0  0  0  0  3  0  0  0  0  0  0
  -21.6140   -4.7120   24.6590 C   0  0  0  0  0  0  0  0  0  0  0  0
  -22.0520   -4.1580   23.4440 C   0  0  0  0  0  3  0  0  0  0  0  0
  -22.1880   -4.9760   22.3090 C   0  0  0  0  0  0  0  0  0  0  0  0
  -22.5900   -4.4330   21.1340 F   0  0  0  0  0  0  0  0  0  0  0  0
  -21.4790   -3.9220   25.7500 F   0  0  0  0  0  0  0  0  0  0  0  0
  -23.1320  -13.7360   21.1990 C   0  0  0  0  0  0  0  0  0  0  0  0
  -22.4510  -13.0130   22.0810 N   0  0  0  0  0  0  0  0  0  0  0  0
  -22.6740  -14.7860   20.7470 O   0  0  0  0  0  0  0  0  0  0  0  0
  -22.8360  -12.1620   22.4640 H   0  0  0  0  0  0  0  0  0  0  0  0
  -21.5320  -13.3100   22.3740 H   0  0  0  0  0  0  0  0  0  0  0  0
  -25.7380  -15.4130   20.3170 N   0  0  0  0  0  0  0  0  0  0  0  0
  -24.9830  -16.0690   20.4830 H   0  0  0  0  0  0  0  0  0  0  0  0
  -26.5630  -15.8510   19.9280 H   0  0  0  0  0  0  0  0  0  0  0  0
  -30.2810  -18.4920   17.8900 C   0  0  0  0  0  1  0  0  0  0  0  0
  -31.0160  -17.2950   18.5180 C   0  0  0  0  0  2  0  0  0  0  0  0
  2  4  2  0
  2  7  1  0
  3  6  1  0
  3  1  2  0
  4  3  1  0
  5  1  1  0
  5  8  1  0
  7  5  2  0
  9 10  1  0
  9  8  1  0
 10 11  1  0
 12 11  1  0
 13 15  1  0
 13 12  1  0
 14 25  2  0
 15 20  1  0
 16 24  1  0
 16 26  1  0
 17 23  1  0
 17 19  1  0
 18 24  1  0
 19 18  1  0
 20 19  2  0
 21 22  1  0
 21 15  2  0
 22 17  2  0
 23 16  1  0
 24 14  1  0
 26 28  2  0
 27 26  1  0
 29 27  1  0
 30 39  2  0
 30 35  1  0
 31 27  1  0
 31 35  1  0
 32 31  1  0
 33 34  1  0
 33 32  1  0
 34 30  1  0
 35 36  2  0
 36 37  1  0
 38 37  2  0
 39 38  1  0
 40 14  1  0
 40 41  1  0
 40 50  1  0
 41 44  1  0
 42 46  1  0
 42 41  1  0
 43 42  2  0
 46 45  1  0
 48 46  1  0
 48 49  1  0
 48 47  1  0
 50 53  1  1
 50 51  1  0
 52 50  1  0
 54 94  1  0
 54 63  1  0
 54  4  1  0
 55 63  1  0
 56 61  1  0
 57 58  1  0
 57 56  1  0
 59 58  1  0
 59 68  1  0
 59 60  1  0
 61 55  1  0
 61 60  1  0
 62 55  2  0
 63 64  1  0
 65 66  2  0
 66 85  1  0
 67 66  1  0
 67 70  1  0
 68 69  1  0
 68 65  1  0
 69 67  2  0
 70 71  1  0
 71 72  2  0
 73 76  1  0
 73 72  1  0
 74 73  2  0
 75 74  1  0
 75 70  2  0
 76 77  1  0
 77 78  1  0
 78 79  2  0
 80 79  1  0
 80 84  1  0
 81 80  2  0
 82 77  2  0
 82 81  1  0
 83 82  1  0
 85 86  1  0
 86 89  1  0
 86 88  1  0
 87 85  2  0
 90 65  1  0
 90 91  1  0
 92 90  1  0
 93 94  1  0
M  ISO  4  12 101  13 101  55 100  63 100
M  END
>  <TORSDO>  (89) 
F 23

>  <SCORE>  (89) 
-11.830

>  <name>  (89) 
89

>  <ligand_id>  (89) 
89

>  <original_smiles>  (89) 
[H]c1nc(C([H])([H])C([H])([H])C([H])([H])C([H])([H])C([H])([H])Oc2c([H])c([H])c3c(c2[H])C([H])([H])N(C(=O)C([H])(N([H])C(=O)C([H])(N([H])C([H])([H])[H])C([H])([H])[H])C(C([H])([H])[H])(C([H])([H])[H])C([H])([H])[H])C([H])(C(=O)N([H])C2([H])c4c([H])c([H])c([H])c([H])c4C([H])([H])C([H])([H])C2([H])[H])C3([H])[H])c([H])c(C([H])([H])[H])c1C([H])(N([H])C(=O)N1C([H])([H])C([H])([H])C([H])([H])C([H])(n2nc(-c3c([H])c([H])c(Oc4c([H])c([H])c(F)c([H])c4F)c([H])c3[H])c(C(=O)N([H])[H])c2N([H])[H])C1([H])[H])C([H])([H])C([H])([H])[H]

>  <smiles>  (89) 
[H]c1nc(C([H])([H])C([H])([H])C([H])([H])C([H])([H])C([H])([H])Oc2c([H])c([H])c3c(c2[H])C([H])([H])N(C(=O)C([H])(N([H])C(=O)C([H])(N([H])C([H])([H])[H])C([H])([H])[H])C(C([H])([H])[H])(C([H])([H])[H])C([H])([H])[H])C([H])(C(=O)N([H])C2([H])c4c([H])c([H])c([H])c([H])c4C([H])([H])C([H])([H])C2([H])[H])C3([H])[H])c([H])c(C([H])([H])[H])c1C([H])(N([H])C(=O)N1C([H])([H])C([H])([H])C([H])([H])C([H])(n2nc(-c3c([H])c([H])c(Oc4c([H])c([H])c(F)c([H])c4F)c([H])c3[H])c(C(=O)N([H])[H])c2N([H])[H])C1([H])[H])C([H])([H])C([H])([H])[H]

$$$$
90:0:0
     RDKit          3D

101109  0  0  1  0  0  0  0  0999 V2000
  -28.8350  -21.8230   20.1010 C   0  0  0  0  0  3  0  0  0  0  0  0
  -29.8190  -20.8530   20.0120 C   0  0  0  0  0  0  0  0  0  0  0  0
  -30.8500  -21.4640   19.2200 C   0  0  0  0  0  0  0  0  0  0  0  0
  -30.4310  -22.7280   18.8490 C   0  0  0  0  0  0  0  0  0  0  0  0
  -32.1720  -20.8450   18.8320 C   0  0  0  0  0  1  0  0  0  0  0  0
  -29.1820  -22.9820   19.4140 N   0  0  0  0  0  0  0  0  0  0  0  0
  -29.6320  -19.7550   22.2190 C   0  0  0  0  0  1  0  0  0  0  0  0
  -28.4310  -18.7540   20.2850 C   0  0  0  0  0  1  0  0  0  0  0  0
  -29.7410  -19.4510   20.7060 C   0  0  1  0  0  0  0  0  0  0  0  0
  -30.9430  -18.4080   20.5780 C   0  0  0  0  0  2  0  0  0  0  0  0
  -30.9480  -17.2460   19.5170 C   0  0  0  0  0  2  0  0  0  0  0  0
  -31.5560  -14.7780   19.7620 C   0  0  0  0  0  0  0  0  0  0  0  0
  -31.2500  -12.4630   18.9550 C   0  0  0  0  0  2  0  0  0  0  0  0
  -30.2650  -12.5070   17.7660 C   0  0  0  0  0  2  0  0  0  0  0  0
  -28.8030  -12.4380   18.2550 C   0  0  0  0  0  2  0  0  0  0  0  0
  -28.5120  -13.4330   19.4140 C   0  0  0  0  0  3  0  0  0  0  0  0
  -29.6070  -13.3500   20.5020 C   0  0  0  0  0  2  0  0  0  0  0  0
  -30.9080  -13.5790   19.8540 N   0  0  0  0  0  0  0  0  0  0  0  0
  -32.6670  -14.8880   19.2330 O   0  0  0  0  0  0  0  0  0  0  0  0
  -30.8170  -15.8710   20.0830 N   0  0  0  0  0  0  0  0  0  0  0  0
  -29.9460  -15.6650   20.5470 H   0  0  0  0  0  0  0  0  0  0  0  0
  -26.2220  -14.1860   20.3180 C   0  0  0  0  0  0  0  0  0  0  0  0
  -25.1220  -13.4820   20.7290 C   0  0  0  0  0  0  0  0  0  0  0  0
  -25.4680  -12.1020   20.6060 C   0  0  0  0  0  0  0  0  0  0  0  0
  -27.1750  -13.2390   19.9700 N   0  0  0  0  0  0  0  0  0  0  0  0
  -26.7260  -11.9760   20.1980 N   0  0  0  0  0  0  0  0  0  0  0  0
  -24.6540  -10.8930   20.7930 C   0  0  0  0  0  0  0  0  0  0  0  0
  -24.9880   -9.9200   21.7600 C   0  0  0  0  0  3  0  0  0  0  0  0
  -24.1820   -8.7740   21.9330 C   0  0  0  0  0  3  0  0  0  0  0  0
  -23.0240   -8.5950   21.1390 C   0  0  0  0  0  0  0  0  0  0  0  0
  -22.7070   -9.5570   20.1630 C   0  0  0  0  0  3  0  0  0  0  0  0
  -23.5150  -10.6930   19.9880 C   0  0  0  0  0  3  0  0  0  0  0  0
  -22.1950   -7.5020   21.2200 O   0  0  0  0  0  0  0  0  0  0  0  0
  -21.9290   -6.8880   22.4160 C   0  0  0  0  0  0  0  0  0  0  0  0
  -21.3380   -7.5810   23.4960 C   0  0  0  0  0  3  0  0  0  0  0  0
  -21.0180   -6.8920   24.6820 C   0  0  0  0  0  3  0  0  0  0  0  0
  -21.2780   -5.5130   24.7900 C   0  0  0  0  0  0  0  0  0  0  0  0
  -21.8630   -4.8200   23.7140 C   0  0  0  0  0  3  0  0  0  0  0  0
  -22.1840   -5.5070   22.5300 C   0  0  0  0  0  0  0  0  0  0  0  0
  -22.7270   -4.8300   21.4890 F   0  0  0  0  0  0  0  0  0  0  0  0
  -20.9640   -4.8490   25.9270 F   0  0  0  0  0  0  0  0  0  0  0  0
  -23.7890  -14.0580   21.1200 C   0  0  0  0  0  0  0  0  0  0  0  0
  -23.0680  -13.3920   22.0140 N   0  0  0  0  0  0  0  0  0  0  0  0
  -23.3990  -15.1330   20.6660 O   0  0  0  0  0  0  0  0  0  0  0  0
  -23.3910  -12.5220   22.4110 H   0  0  0  0  0  0  0  0  0  0  0  0
  -22.1790  -13.7670   22.3130 H   0  0  0  0  0  0  0  0  0  0  0  0
  -26.4850  -15.5470   20.1940 N   0  0  0  0  0  0  0  0  0  0  0  0
  -25.7820  -16.2480   20.4060 H   0  0  0  0  0  0  0  0  0  0  0  0
  -27.3310  -15.9390   19.8020 H   0  0  0  0  0  0  0  0  0  0  0  0
  -31.1100  -23.7440   17.9690 C   0  0  0  0  0  2  0  0  0  0  0  0
  -30.6500  -23.7120   16.4960 C   0  0  0  0  0  2  0  0  0  0  0  0
  -31.0160  -22.4230   15.7380 C   0  0  0  0  0  2  0  0  0  0  0  0
  -30.6470  -22.4990   14.2440 C   0  0  0  0  0  2  0  0  0  0  0  0
  -30.9450  -21.2480   13.5290 N   0  0  0  0  0  4  0  0  0  0  0  0
  -31.9190  -21.0140   13.5940 H   0  0  0  0  0  0  0  0  0  0  0  0
  -30.7160  -21.3490   12.5560 H   0  0  0  0  0  0  0  0  0  0  0  0
  -30.4010  -20.4870   13.8960 H   0  0  0  0  0  0  0  0  0  0  0  0
  -28.3350  -24.2090   19.2370 C   0  0  0  0  0  2  0  0  0  0  0  0
  -29.5090  -25.1930   21.3450 C   0  0  0  0  0  1  0  0  0  0  0  0
  -28.3340  -25.3170   20.3620 C   0  0  0  0  0  3  0  0  0  0  0  0
  -28.3760  -26.6960   19.8710 O   0  0  0  0  0  0  0  0  0  0  0  0
  -24.7900  -31.8280   23.3770 C   0  0  0  0  0  0  0  0  0  0  0  0
  -27.2320  -27.4770   19.9730 C   0  0  0  0  0  0  0  0  0  0  0  0
  -23.5020  -30.5450   21.7020 C   0  0  0  0  0  3  0  0  0  0  0  0
  -24.8760  -29.0580   20.1420 C   0  0  0  0  0  0  0  0  0  0  0  0
  -26.0310  -30.8590   21.4370 C   0  0  0  0  0  2  0  0  0  0  0  0
  -26.0670  -29.5220   20.7150 C   0  0  0  0  0  0  0  0  0  0  0  0
  -27.2500  -28.7430   20.6180 C   0  0  0  0  0  3  0  0  0  0  0  0
  -26.0210  -27.0380   19.3970 C   0  0  0  0  0  3  0  0  0  0  0  0
  -24.8520  -27.8190   19.4770 C   0  0  0  0  0  3  0  0  0  0  0  0
  -23.6520  -29.9390   20.2810 C   0  0  0  0  0  2  0  0  0  0  0  0
  -24.7950  -31.0910   22.2290 N   0  0  0  0  0  0  0  0  0  0  0  0
  -23.7330  -32.0870   23.9700 O   0  0  0  0  0  0  0  0  0  0  0  0
  -22.8630  -29.4840   22.6290 C   0  0  0  0  0  0  0  0  0  0  0  0
  -21.5400  -29.2900   22.5000 N   0  0  0  0  0  0  0  0  0  0  0  0
  -23.5560  -28.8390   23.4200 O   0  0  0  0  0  0  0  0  0  0  0  0
  -21.0410  -29.8630   21.8330 H   0  0  0  0  0  0  0  0  0  0  0  0
  -18.1950  -27.9830   22.9130 C   0  0  0  0  0  0  0  0  0  0  0  0
  -20.7380  -28.3130   23.2370 C   0  0  0  0  0  3  0  0  0  0  0  0
  -20.8940  -26.8970   22.6350 C   0  0  0  0  0  2  0  0  0  0  0  0
  -19.8210  -26.5620   21.5940 C   0  0  0  0  0  2  0  0  0  0  0  0
  -18.4240  -26.6540   22.2140 C   0  0  0  0  0  2  0  0  0  0  0  0
  -19.2820  -28.7690   23.3790 C   0  0  0  0  0  0  0  0  0  0  0  0
  -19.0150  -30.0130   23.9890 C   0  0  0  0  0  3  0  0  0  0  0  0
  -17.6920  -30.4720   24.1410 C   0  0  0  0  0  3  0  0  0  0  0  0
  -16.6190  -29.6830   23.6930 C   0  0  0  0  0  3  0  0  0  0  0  0
  -16.8710  -28.4400   23.0850 C   0  0  0  0  0  3  0  0  0  0  0  0
  -26.1080  -32.4030   23.9840 C   0  0  0  0  0  3  0  0  0  0  0  0
  -26.6460  -31.5650   25.2100 C   0  0  1  0  0  0  0  0  0  0  0  0
  -25.5770  -31.2990   26.2960 C   0  0  0  0  0  1  0  0  0  0  0  0
  -27.1940  -30.1980   24.7410 C   0  0  0  0  0  1  0  0  0  0  0  0
  -27.8270  -32.3100   25.8770 C   0  0  0  0  0  1  0  0  0  0  0  0
  -25.8430  -33.7920   24.3840 N   0  0  0  0  0  0  0  0  0  0  0  0
  -26.1850  -34.8700   23.6670 C   0  0  0  0  0  0  0  0  0  0  0  0
  -26.8270  -34.7970   22.6160 O   0  0  0  0  0  0  0  0  0  0  0  0
  -25.2690  -33.9240   25.2040 H   0  0  0  0  0  0  0  0  0  0  0  0
  -24.5010  -36.7230   23.4300 C   0  0  0  0  0  1  0  0  0  0  0  0
  -25.7430  -36.2480   24.1980 C   0  0  0  0  0  3  0  0  0  0  0  0
  -27.9110  -37.0380   25.0370 C   0  0  0  0  0  1  0  0  0  0  0  0
  -26.8030  -37.2770   24.1160 N   0  0  0  0  0  0  0  0  0  0  0  0
  -26.4230  -38.2000   24.3080 H   0  0  0  0  0  0  0  0  0  0  0  0
  2  1  2  0
  2  9  1  0
  3  2  1  0
  4  3  2  0
  4  6  1  0
  5  3  1  0
  6  1  1  0
  9  8  1  6
  9  7  1  0
 10  9  1  0
 11 20  1  0
 11 10  1  0
 12 18  1  0
 12 20  1  0
 13 18  1  0
 14 15  1  0
 14 13  1  0
 16 15  1  0
 16 25  1  0
 16 17  1  0
 18 17  1  0
 19 12  2  0
 20 21  1  0
 22 23  2  0
 23 42  1  0
 24 23  1  0
 24 27  1  0
 25 26  1  0
 25 22  1  0
 26 24  2  0
 27 28  1  0
 28 29  2  0
 30 33  1  0
 30 29  1  0
 31 30  2  0
 32 31  1  0
 32 27  2  0
 33 34  1  0
 34 39  2  0
 34 35  1  0
 35 36  2  0
 36 37  1  0
 37 41  1  0
 38 37  2  0
 39 38  1  0
 40 39  1  0
 42 43  1  0
 43 46  1  0
 43 45  1  0
 44 42  2  0
 47 22  1  0
 47 48  1  0
 49 47  1  0
 50  4  1  0
 51 50  1  0
 52 51  1  0
 53 52  1  0
 54 55  1  0
 54 57  1  0
 54 53  1  0
 56 54  1  0
 58  6  1  0
 58 60  1  0
 60 59  1  0
 61 63  1  0
 61 60  1  0
 62 73  2  0
 63 68  1  0
 64 72  1  0
 64 74  1  0
 65 71  1  0
 65 67  1  0
 66 72  1  0
 67 66  1  0
 68 67  2  0
 69 70  1  0
 69 63  2  0
 70 65  2  0
 71 64  1  0
 72 62  1  0
 74 76  2  0
 75 74  1  0
 77 75  1  0
 78 87  2  0
 78 83  1  0
 79 75  1  0
 79 83  1  0
 80 79  1  0
 81 82  1  0
 81 80  1  0
 82 78  1  0
 83 84  2  0
 84 85  1  0
 86 85  2  0
 87 86  1  0
 88 62  1  0
 88 93  1  0
 88 89  1  0
 89 92  1  1
 89 90  1  0
 91 89  1  0
 93 96  1  0
 94 98  1  0
 94 93  1  0
 95 94  2  0
 98 97  1  0
100 98  1  0
100101  1  0
100 99  1  0
M  ISO  4  12 100  20 100  60 101  61 101
M  END
>  <TORSDO>  (90) 
F 26

>  <SCORE>  (90) 
-10.274

>  <name>  (90) 
90

>  <ligand_id>  (90) 
90

>  <original_smiles>  (90) 
[H]c1c([H])c([H])c2c(c1[H])C([H])([H])C([H])([H])C([H])([H])C2([H])N([H])C(=O)C1([H])N(C(=O)C([H])(N([H])C(=O)C([H])(N([H])C([H])([H])[H])C([H])([H])[H])C(C([H])([H])[H])(C([H])([H])[H])C([H])([H])[H])C([H])([H])c2c([H])c(OC([H])(C([H])([H])[H])C([H])([H])n3c([H])c(C(C([H])([H])[H])(C([H])([H])[H])C([H])([H])C([H])([H])N([H])C(=O)N4C([H])([H])C([H])([H])C([H])([H])C([H])(n5nc(-c6c([H])c([H])c(Oc7c([H])c([H])c(F)c([H])c7F)c([H])c6[H])c(C(=O)N([H])[H])c5N([H])[H])C4([H])[H])c(C([H])([H])[H])c3C([H])([H])C([H])([H])C([H])([H])C([H])([H])[N+]([H])([H])[H])c([H])c([H])c2C1([H])[H]

>  <smiles>  (90) 
[H]c1c([H])c([H])c2c(c1[H])C([H])([H])C([H])([H])C([H])([H])C2([H])N([H])C(=O)C1([H])N(C(=O)C([H])(N([H])C(=O)C([H])(N([H])C([H])([H])[H])C([H])([H])[H])C(C([H])([H])[H])(C([H])([H])[H])C([H])([H])[H])C([H])([H])c2c([H])c(OC([H])(C([H])([H])[H])C([H])([H])n3c([H])c(C(C([H])([H])[H])(C([H])([H])[H])C([H])([H])C([H])([H])N([H])C(=O)N4C([H])([H])C([H])([H])C([H])([H])C([H])(n5nc(-c6c([H])c([H])c(Oc7c([H])c([H])c(F)c([H])c7F)c([H])c6[H])c(C(=O)N([H])[H])c5N([H])[H])C4([H])[H])c(C([H])([H])[H])c3C([H])([H])C([H])([H])C([H])([H])C([H])([H])[N+]([H])([H])[H])c([H])c([H])c2C1([H])[H]

$$$$
91:0:0
     RDKit          3D

 91 98  0  0  1  0  0  0  0  0999 V2000
  -30.5190  -22.9280   20.6230 C   0  0  0  0  0  2  0  0  0  0  0  0
  -29.7830  -24.2500   20.2500 C   0  0  0  0  0  2  0  0  0  0  0  0
  -31.6800  -25.6780   21.2330 C   0  0  0  0  0  1  0  0  0  0  0  0
  -30.1560  -25.4990   21.1080 C   0  0  0  0  0  3  0  0  0  0  0  0
  -29.5140  -26.8410   20.6370 C   0  0  0  0  0  2  0  0  0  0  0  0
  -28.2830  -26.5950   19.9740 O   0  0  0  0  0  0  0  0  0  0  0  0
  -24.5960  -31.8780   23.1950 C   0  0  0  0  0  0  0  0  0  0  0  0
  -27.1950  -27.4350   20.0790 C   0  0  0  0  0  0  0  0  0  0  0  0
  -23.3620  -30.4730   21.5780 C   0  0  0  0  0  3  0  0  0  0  0  0
  -24.7950  -28.9350   20.1360 C   0  0  0  0  0  0  0  0  0  0  0  0
  -25.8850  -30.8340   21.3360 C   0  0  0  0  0  2  0  0  0  0  0  0
  -25.9650  -29.4610   20.7030 C   0  0  0  0  0  0  0  0  0  0  0  0
  -27.1730  -28.7230   20.6730 C   0  0  0  0  0  3  0  0  0  0  0  0
  -26.0080  -26.9290   19.5160 C   0  0  0  0  0  3  0  0  0  0  0  0
  -24.8110  -27.6650   19.5390 C   0  0  0  0  0  3  0  0  0  0  0  0
  -23.5520  -29.7920   20.1970 C   0  0  0  0  0  2  0  0  0  0  0  0
  -24.6340  -31.0760   22.0950 N   0  0  0  0  0  0  0  0  0  0  0  0
  -23.5250  -32.1520   23.7540 O   0  0  0  0  0  0  0  0  0  0  0  0
  -22.7290  -29.4530   22.5520 C   0  0  0  0  0  0  0  0  0  0  0  0
  -21.4030  -29.2670   22.4430 N   0  0  0  0  0  0  0  0  0  0  0  0
  -23.4260  -28.8310   23.3580 O   0  0  0  0  0  0  0  0  0  0  0  0
  -20.9010  -29.8210   21.7640 H   0  0  0  0  0  0  0  0  0  0  0  0
  -18.0430  -28.0530   22.9790 C   0  0  0  0  0  0  0  0  0  0  0  0
  -20.6000  -28.3320   23.2300 C   0  0  0  0  0  3  0  0  0  0  0  0
  -20.7100  -26.8960   22.6680 C   0  0  0  0  0  2  0  0  0  0  0  0
  -19.6020  -26.5550   21.6650 C   0  0  0  0  0  2  0  0  0  0  0  0
  -18.2240  -26.6960   22.3180 C   0  0  0  0  0  2  0  0  0  0  0  0
  -19.1580  -28.8270   23.3940 C   0  0  0  0  0  0  0  0  0  0  0  0
  -18.9330  -30.0950   23.9720 C   0  0  0  0  0  3  0  0  0  0  0  0
  -17.6270  -30.5890   24.1420 C   0  0  0  0  0  3  0  0  0  0  0  0
  -16.5260  -29.8110   23.7440 C   0  0  0  0  0  3  0  0  0  0  0  0
  -16.7340  -28.5450   23.1680 C   0  0  0  0  0  3  0  0  0  0  0  0
  -25.8940  -32.5100   23.7900 C   0  0  0  0  0  3  0  0  0  0  0  0
  -25.5860  -33.9030   24.1390 N   0  0  0  0  0  0  0  0  0  0  0  0
  -25.9020  -34.9630   23.3840 C   0  0  0  0  0  0  0  0  0  0  0  0
  -26.5560  -34.8720   22.3410 O   0  0  0  0  0  0  0  0  0  0  0  0
  -25.0010  -34.0480   24.9490 H   0  0  0  0  0  0  0  0  0  0  0  0
  -24.1630  -36.7540   23.0760 C   0  0  0  0  0  1  0  0  0  0  0  0
  -25.4180  -36.3440   23.8640 C   0  0  0  0  0  3  0  0  0  0  0  0
  -27.5660  -37.2250   24.6660 C   0  0  0  0  0  1  0  0  0  0  0  0
  -26.4470  -37.4010   23.7450 N   0  0  0  0  0  0  0  0  0  0  0  0
  -26.0410  -38.3180   23.9120 H   0  0  0  0  0  0  0  0  0  0  0  0
  -26.4500  -31.7270   25.0420 C   0  0  1  0  0  0  0  0  0  0  0  0
  -25.3880  -31.4750   26.1370 C   0  0  0  0  0  1  0  0  0  0  0  0
  -27.0280  -30.3570   24.6190 C   0  0  0  0  0  1  0  0  0  0  0  0
  -27.6160  -32.5210   25.6790 C   0  0  0  0  0  1  0  0  0  0  0  0
  -29.8110  -21.6360   20.1350 C   0  0  0  0  0  2  0  0  0  0  0  0
  -31.2460  -20.1730   18.7680 C   0  0  0  0  0  1  0  0  0  0  0  0
  -30.6940  -20.4230   20.1220 N   0  0  2  0  0  4  0  0  0  0  0  0
  -31.4870  -20.6500   20.7040 H   0  0  0  0  0  0  0  0  0  0  0  0
  -30.0620  -19.2240   20.7670 C   0  0  0  0  0  2  0  0  0  0  0  0
  -30.7470  -17.8380   20.5220 C   0  0  0  0  0  2  0  0  0  0  0  0
  -30.4310  -16.7740   21.6150 C   0  0  0  0  0  2  0  0  0  0  0  0
  -30.6780  -14.4860   20.5010 C   0  0  0  0  0  0  0  0  0  0  0  0
  -30.3580  -12.3620   19.2780 C   0  0  0  0  0  2  0  0  0  0  0  0
  -29.4110  -12.5970   18.0830 C   0  0  0  0  0  2  0  0  0  0  0  0
  -27.9360  -12.4700   18.5120 C   0  0  0  0  0  2  0  0  0  0  0  0
  -27.6100  -13.2860   19.7910 C   0  0  0  0  0  3  0  0  0  0  0  0
  -28.6630  -13.0170   20.8890 C   0  0  0  0  0  2  0  0  0  0  0  0
  -29.9920  -13.3240   20.3270 N   0  0  0  0  0  0  0  0  0  0  0  0
  -31.7960  -14.6950   20.0220 O   0  0  0  0  0  0  0  0  0  0  0  0
  -29.9970  -15.4440   21.1530 N   0  0  0  0  0  0  0  0  0  0  0  0
  -29.0750  -15.1620   21.4560 H   0  0  0  0  0  0  0  0  0  0  0  0
  -25.2120  -13.9230   20.4840 C   0  0  0  0  0  0  0  0  0  0  0  0
  -24.1350  -13.1630   20.8570 C   0  0  0  0  0  0  0  0  0  0  0  0
  -24.5850  -11.8070   20.8390 C   0  0  0  0  0  0  0  0  0  0  0  0
  -26.2510  -13.0300   20.2650 N   0  0  0  0  0  0  0  0  0  0  0  0
  -25.8750  -11.7540   20.5340 N   0  0  0  0  0  0  0  0  0  0  0  0
  -23.8460  -10.5540   21.0380 C   0  0  0  0  0  0  0  0  0  0  0  0
  -24.2810   -9.5800   21.9660 C   0  0  0  0  0  3  0  0  0  0  0  0
  -23.5450   -8.3910   22.1510 C   0  0  0  0  0  3  0  0  0  0  0  0
  -22.3600   -8.1660   21.4090 C   0  0  0  0  0  0  0  0  0  0  0  0
  -21.9450   -9.1270   20.4710 C   0  0  0  0  0  3  0  0  0  0  0  0
  -22.6820  -10.3090   20.2830 C   0  0  0  0  0  3  0  0  0  0  0  0
  -21.5950   -7.0290   21.5060 O   0  0  0  0  0  0  0  0  0  0  0  0
  -21.5630   -6.2770   22.6530 C   0  0  0  0  0  0  0  0  0  0  0  0
  -21.1920   -6.8280   23.8980 C   0  0  0  0  0  3  0  0  0  0  0  0
  -21.1060   -6.0030   25.0360 C   0  0  0  0  0  3  0  0  0  0  0  0
  -21.3820   -4.6260   24.9310 C   0  0  0  0  0  0  0  0  0  0  0  0
  -21.7490   -4.0750   23.6910 C   0  0  0  0  0  3  0  0  0  0  0  0
  -21.8360   -4.8970   22.5540 C   0  0  0  0  0  0  0  0  0  0  0  0
  -22.1680   -4.3560   21.3580 F   0  0  0  0  0  0  0  0  0  0  0  0
  -21.2920   -3.8310   26.0230 F   0  0  0  0  0  0  0  0  0  0  0  0
  -22.7420  -13.6560   21.1210 C   0  0  0  0  0  0  0  0  0  0  0  0
  -22.0060  -12.9750   21.9930 N   0  0  0  0  0  0  0  0  0  0  0  0
  -22.3140  -14.6800   20.5890 O   0  0  0  0  0  0  0  0  0  0  0  0
  -22.3630  -12.1490   22.4490 H   0  0  0  0  0  0  0  0  0  0  0  0
  -21.0700  -13.2870   22.2080 H   0  0  0  0  0  0  0  0  0  0  0  0
  -25.3870  -15.2920   20.2960 N   0  0  0  0  0  0  0  0  0  0  0  0
  -24.6200  -15.9490   20.3870 H   0  0  0  0  0  0  0  0  0  0  0  0
  -26.2400  -15.7240   19.9630 H   0  0  0  0  0  0  0  0  0  0  0  0
  2  1  1  0
  2  4  1  0
  4  3  1  0
  5  4  1  0
  6  8  1  0
  6  5  1  0
  7 18  2  0
  8 13  1  0
  9 17  1  0
  9 19  1  0
 10 16  1  0
 10 12  1  0
 11 17  1  0
 12 11  1  0
 13 12  2  0
 14 15  1  0
 14  8  2  0
 15 10  2  0
 16  9  1  0
 17  7  1  0
 19 21  2  0
 20 19  1  0
 22 20  1  0
 23 32  2  0
 23 28  1  0
 24 20  1  0
 24 28  1  0
 25 24  1  0
 26 27  1  0
 26 25  1  0
 27 23  1  0
 28 29  2  0
 29 30  1  0
 31 30  2  0
 32 31  1  0
 33  7  1  0
 33 34  1  0
 33 43  1  0
 34 37  1  0
 35 39  1  0
 35 34  1  0
 36 35  2  0
 39 38  1  0
 41 39  1  0
 41 42  1  0
 41 40  1  0
 43 46  1  1
 43 44  1  0
 45 43  1  0
 47  1  1  0
 48 49  1  0
 49 47  1  0
 49 50  1  1
 49 51  1  0
 52 51  1  0
 52 53  1  0
 54 62  1  0
 55 60  1  0
 56 57  1  0
 56 55  1  0
 58 57  1  0
 58 67  1  0
 58 59  1  0
 60 54  1  0
 60 59  1  0
 61 54  2  0
 62 63  1  0
 62 53  1  0
 64 65  2  0
 65 84  1  0
 66 65  1  0
 66 69  1  0
 67 64  1  0
 67 68  1  0
 68 66  2  0
 69 70  1  0
 70 71  2  0
 72 75  1  0
 72 71  1  0
 73 72  2  0
 74 73  1  0
 74 69  2  0
 75 76  1  0
 76 77  1  0
 77 78  2  0
 79 78  1  0
 79 83  1  0
 80 79  2  0
 81 76  2  0
 81 80  1  0
 82 81  1  0
 84 85  1  0
 85 88  1  0
 85 87  1  0
 86 84  2  0
 89 90  1  0
 89 64  1  0
 91 89  1  0
M  ISO  4   5 101   6 101  54 100  62 100
M  END
>  <TORSDO>  (91) 
F 24

>  <SCORE>  (91) 
-12.343

>  <name>  (91) 
91

>  <ligand_id>  (91) 
91

>  <original_smiles>  (91) 
[H]c1c([H])c([H])c2c(c1[H])C([H])([H])C([H])([H])C([H])([H])C2([H])N([H])C(=O)C1([H])N(C(=O)C([H])(N([H])C(=O)C([H])(N([H])C([H])([H])[H])C([H])([H])[H])C(C([H])([H])[H])(C([H])([H])[H])C([H])([H])[H])C([H])([H])c2c([H])c(OC([H])([H])C([H])(C([H])([H])[H])C([H])([H])C([H])([H])C([H])([H])[N+]([H])(C([H])([H])[H])C([H])([H])C([H])([H])C([H])([H])N([H])C(=O)N3C([H])([H])C([H])([H])C([H])([H])C([H])(n4nc(-c5c([H])c([H])c(Oc6c([H])c([H])c(F)c([H])c6F)c([H])c5[H])c(C(=O)N([H])[H])c4N([H])[H])C3([H])[H])c([H])c([H])c2C1([H])[H]

>  <smiles>  (91) 
[H]c1c([H])c([H])c2c(c1[H])C([H])([H])C([H])([H])C([H])([H])C2([H])N([H])C(=O)C1([H])N(C(=O)C([H])(N([H])C(=O)C([H])(N([H])C([H])([H])[H])C([H])([H])[H])C(C([H])([H])[H])(C([H])([H])[H])C([H])([H])[H])C([H])([H])c2c([H])c(OC([H])([H])C([H])(C([H])([H])[H])C([H])([H])C([H])([H])C([H])([H])[N+]([H])(C([H])([H])[H])C([H])([H])C([H])([H])C([H])([H])N([H])C(=O)N3C([H])([H])C([H])([H])C([H])([H])C([H])(n4nc(-c5c([H])c([H])c(Oc6c([H])c([H])c(F)c([H])c6F)c([H])c5[H])c(C(=O)N([H])[H])c4N([H])[H])C3([H])[H])c([H])c([H])c2C1([H])[H]

$$$$
92:0:0
     RDKit          3D

 88 96  0  0  1  0  0  0  0  0999 V2000
  -30.4790  -15.0830   20.3820 C   0  0  0  0  0  0  0  0  0  0  0  0
  -30.4100  -12.7030   19.4730 C   0  0  0  0  0  2  0  0  0  0  0  0
  -29.4940  -12.6150   18.2280 C   0  0  0  0  0  2  0  0  0  0  0  0
  -28.0290  -12.3880   18.6460 C   0  0  0  0  0  2  0  0  0  0  0  0
  -27.5920  -13.3320   19.7950 C   0  0  0  0  0  3  0  0  0  0  0  0
  -28.6300  -13.3790   20.9380 C   0  0  0  0  0  2  0  0  0  0  0  0
  -29.9040  -13.8070   20.3420 N   0  0  0  0  0  0  0  0  0  0  0  0
  -31.6910  -15.1390   20.1340 O   0  0  0  0  0  0  0  0  0  0  0  0
  -28.7210  -18.8180   20.4110 C   0  0  0  0  0  3  0  0  0  0  0  0
  -29.2190  -20.1490   20.2720 C   0  0  0  0  0  0  0  0  0  0  0  0
  -29.7940  -17.7930   20.4010 C   0  0  0  0  0  0  0  0  0  0  0  0
  -31.6610  -20.8150   20.0290 C   0  0  0  0  0  1  0  0  0  0  0  0
  -30.9200  -18.5030   20.2810 N   0  0  0  0  0  0  0  0  0  0  0  0
  -30.5870  -19.8570   20.1990 N   0  0  0  0  0  0  0  0  0  0  0  0
  -29.6540  -16.2520   20.5000 N   0  0  0  0  0  0  0  0  0  0  0  0
  -28.6980  -15.9760   20.6530 H   0  0  0  0  0  0  0  0  0  0  0  0
  -25.2000  -13.9070   20.4950 C   0  0  0  0  0  0  0  0  0  0  0  0
  -24.1330  -13.1320   20.8540 C   0  0  0  0  0  0  0  0  0  0  0  0
  -24.6020  -11.7820   20.8400 C   0  0  0  0  0  0  0  0  0  0  0  0
  -26.2490  -13.0300   20.2770 N   0  0  0  0  0  0  0  0  0  0  0  0
  -25.8980  -11.7480   20.5500 N   0  0  0  0  0  0  0  0  0  0  0  0
  -23.8750  -10.5190   21.0230 C   0  0  0  0  0  0  0  0  0  0  0  0
  -24.2980   -9.5540   21.9630 C   0  0  0  0  0  3  0  0  0  0  0  0
  -23.5690   -8.3560   22.1360 C   0  0  0  0  0  3  0  0  0  0  0  0
  -22.4050   -8.1160   21.3680 C   0  0  0  0  0  0  0  0  0  0  0  0
  -22.0030   -9.0690   20.4160 C   0  0  0  0  0  3  0  0  0  0  0  0
  -22.7310  -10.2580   20.2420 C   0  0  0  0  0  3  0  0  0  0  0  0
  -21.6500   -6.9710   21.4490 O   0  0  0  0  0  0  0  0  0  0  0  0
  -21.5880   -6.2300   22.6020 C   0  0  0  0  0  0  0  0  0  0  0  0
  -21.1280   -6.7800   23.8190 C   0  0  0  0  0  3  0  0  0  0  0  0
  -21.0160   -5.9650   24.9620 C   0  0  0  0  0  3  0  0  0  0  0  0
  -21.3530   -4.6000   24.8890 C   0  0  0  0  0  0  0  0  0  0  0  0
  -21.8070   -4.0490   23.6790 C   0  0  0  0  0  3  0  0  0  0  0  0
  -21.9210   -4.8620   22.5370 C   0  0  0  0  0  0  0  0  0  0  0  0
  -22.3380   -4.3210   21.3670 F   0  0  0  0  0  0  0  0  0  0  0  0
  -21.2390   -3.8140   25.9860 F   0  0  0  0  0  0  0  0  0  0  0  0
  -22.7300  -13.6070   21.0960 C   0  0  0  0  0  0  0  0  0  0  0  0
  -21.9890  -12.9170   21.9560 N   0  0  0  0  0  0  0  0  0  0  0  0
  -22.2990  -14.6260   20.5580 O   0  0  0  0  0  0  0  0  0  0  0  0
  -22.3500  -12.0910   22.4120 H   0  0  0  0  0  0  0  0  0  0  0  0
  -21.0470  -13.2180   22.1620 H   0  0  0  0  0  0  0  0  0  0  0  0
  -25.3610  -15.2770   20.3060 N   0  0  0  0  0  0  0  0  0  0  0  0
  -24.5780  -15.9190   20.3730 H   0  0  0  0  0  0  0  0  0  0  0  0
  -26.1870  -15.7060   19.9110 H   0  0  0  0  0  0  0  0  0  0  0  0
  -28.4870  -21.6350   20.0590 C   0  0  0  0  0  2  0  0  0  0  0  0
  -28.9460  -23.2460   20.3950 C   0  0  0  0  0  3  0  0  0  0  0  0
  -27.9750  -24.6270   20.0980 C   0  0  0  0  0  3  0  0  0  0  0  0
  -28.2420  -26.1660   20.3210 O   0  0  0  0  0  0  0  0  0  0  0  0
  -24.6280  -31.9220   23.2650 C   0  0  0  0  0  0  0  0  0  0  0  0
  -27.1970  -27.1720   20.2470 C   0  0  0  0  0  0  0  0  0  0  0  0
  -23.4300  -30.5320   21.6220 C   0  0  0  0  0  3  0  0  0  0  0  0
  -24.8770  -28.9470   20.2010 C   0  0  0  0  0  0  0  0  0  0  0  0
  -25.9880  -30.7790   21.4690 C   0  0  0  0  0  2  0  0  0  0  0  0
  -26.0570  -29.3830   20.8160 C   0  0  0  0  0  0  0  0  0  0  0  0
  -27.2160  -28.5130   20.8190 C   0  0  0  0  0  3  0  0  0  0  0  0
  -25.9870  -26.8460   19.5930 C   0  0  0  0  0  3  0  0  0  0  0  0
  -24.8560  -27.6920   19.5740 C   0  0  0  0  0  3  0  0  0  0  0  0
  -23.6540  -29.8520   20.2440 C   0  0  0  0  0  2  0  0  0  0  0  0
  -24.7020  -31.1000   22.1730 N   0  0  0  0  0  0  0  0  0  0  0  0
  -23.5420  -32.2090   23.7900 O   0  0  0  0  0  0  0  0  0  0  0  0
  -22.7400  -29.5290   22.5810 C   0  0  0  0  0  0  0  0  0  0  0  0
  -21.4110  -29.3640   22.4500 N   0  0  0  0  0  0  0  0  0  0  0  0
  -23.4060  -28.9020   23.4100 O   0  0  0  0  0  0  0  0  0  0  0  0
  -20.9300  -29.9200   21.7560 H   0  0  0  0  0  0  0  0  0  0  0  0
  -18.0230  -28.1790   22.9450 C   0  0  0  0  0  0  0  0  0  0  0  0
  -20.5830  -28.4310   23.2190 C   0  0  0  0  0  3  0  0  0  0  0  0
  -20.6800  -26.9970   22.6450 C   0  0  0  0  0  2  0  0  0  0  0  0
  -19.5800  -26.6810   21.6280 C   0  0  0  0  0  2  0  0  0  0  0  0
  -18.1960  -26.8300   22.2670 C   0  0  0  0  0  2  0  0  0  0  0  0
  -19.1440  -28.9380   23.3770 C   0  0  0  0  0  0  0  0  0  0  0  0
  -18.9260  -30.1990   23.9730 C   0  0  0  0  0  3  0  0  0  0  0  0
  -17.6220  -30.7030   24.1380 C   0  0  0  0  0  3  0  0  0  0  0  0
  -16.5160  -29.9420   23.7200 C   0  0  0  0  0  3  0  0  0  0  0  0
  -16.7180  -28.6820   23.1300 C   0  0  0  0  0  3  0  0  0  0  0  0
  -25.9050  -32.5540   23.8970 C   0  0  0  0  0  3  0  0  0  0  0  0
  -25.5990  -33.9570   24.2230 N   0  0  0  0  0  0  0  0  0  0  0  0
  -25.9240  -35.0070   23.4580 C   0  0  0  0  0  0  0  0  0  0  0  0
  -26.5760  -34.8990   22.4160 O   0  0  0  0  0  0  0  0  0  0  0  0
  -25.0210  -34.1150   25.0350 H   0  0  0  0  0  0  0  0  0  0  0  0
  -24.1860  -36.8000   23.1390 C   0  0  0  0  0  1  0  0  0  0  0  0
  -25.4490  -36.4000   23.9200 C   0  0  0  0  0  3  0  0  0  0  0  0
  -27.6010  -37.2960   24.6920 C   0  0  0  0  0  1  0  0  0  0  0  0
  -26.4770  -37.4530   23.7720 N   0  0  0  0  0  0  0  0  0  0  0  0
  -26.0730  -38.3740   23.9180 H   0  0  0  0  0  0  0  0  0  0  0  0
  -26.4010  -31.7880   25.1870 C   0  0  1  0  0  0  0  0  0  0  0  0
  -25.2960  -31.5700   26.2460 C   0  0  0  0  0  1  0  0  0  0  0  0
  -26.9780  -30.4040   24.8170 C   0  0  0  0  0  1  0  0  0  0  0  0
  -27.5530  -32.5770   25.8540 C   0  0  0  0  0  1  0  0  0  0  0  0
  1 15  1  0
  2  7  1  0
  3  4  1  0
  3  2  1  0
  5  4  1  0
  5 20  1  0
  5  6  1  0
  7  1  1  0
  7  6  1  0
  8  1  2  0
 10  9  2  0
 11  9  1  0
 11 15  1  0
 12 14  1  0
 13 11  2  0
 14 10  1  0
 14 13  1  0
 15 16  1  0
 17 18  2  0
 18 37  1  0
 19 18  1  0
 19 22  1  0
 20 17  1  0
 20 21  1  0
 21 19  2  0
 22 23  1  0
 23 24  2  0
 25 28  1  0
 25 24  1  0
 26 25  2  0
 27 26  1  0
 27 22  2  0
 28 29  1  0
 29 30  1  0
 30 31  2  0
 32 31  1  0
 32 36  1  0
 33 32  2  0
 34 29  2  0
 34 33  1  0
 35 34  1  0
 37 38  1  0
 38 41  1  0
 38 40  1  0
 39 37  2  0
 42 43  1  0
 42 17  1  0
 44 42  1  0
 45 10  1  0
 45 46  1  0
 47 48  1  0
 47 46  2  0
 49 60  2  0
 50 48  1  0
 50 55  1  0
 51 59  1  0
 51 61  1  0
 52 58  1  0
 52 54  1  0
 53 59  1  0
 54 55  2  0
 54 53  1  0
 56 50  2  0
 57 56  1  0
 57 52  2  0
 58 51  1  0
 59 49  1  0
 61 63  2  0
 62 61  1  0
 64 62  1  0
 65 74  2  0
 65 70  1  0
 66 62  1  0
 66 70  1  0
 67 66  1  0
 68 69  1  0
 68 67  1  0
 69 65  1  0
 70 71  2  0
 71 72  1  0
 73 72  2  0
 74 73  1  0
 75 49  1  0
 75 76  1  0
 75 85  1  0
 76 79  1  0
 77 81  1  0
 77 76  1  0
 78 77  2  0
 81 80  1  0
 83 84  1  0
 83 81  1  0
 83 82  1  0
 85 88  1  1
 85 86  1  0
 87 85  1  0
M  ISO  4   1 100  15 100  47 101  48 101
M  END
>  <TORSDO>  (92) 
F 18

>  <SCORE>  (92) 
-15.957

>  <name>  (92) 
92

>  <ligand_id>  (92) 
92

>  <original_smiles>  (92) 
[H]c1c([H])c([H])c2c(c1[H])C([H])([H])C([H])([H])C([H])([H])C2([H])N([H])C(=O)C1([H])N(C(=O)C([H])(N([H])C(=O)C([H])(N([H])C([H])([H])[H])C([H])([H])[H])C(C([H])([H])[H])(C([H])([H])[H])C([H])([H])[H])C([H])([H])c2c([H])c(OC([H])([H])C([H])([H])C([H])([H])c3c([H])c(N([H])C(=O)N4C([H])([H])C([H])([H])C([H])([H])C([H])(n5nc(-c6c([H])c([H])c(Oc7c([H])c([H])c(F)c([H])c7F)c([H])c6[H])c(C(=O)N([H])[H])c5N([H])[H])C4([H])[H])nn3C([H])([H])[H])c([H])c([H])c2C1([H])[H]

>  <smiles>  (92) 
[H]c1c([H])c([H])c2c(c1[H])C([H])([H])C([H])([H])C([H])([H])C2([H])N([H])C(=O)C1([H])N(C(=O)C([H])(N([H])C(=O)C([H])(N([H])C([H])([H])[H])C([H])([H])[H])C(C([H])([H])[H])(C([H])([H])[H])C([H])([H])[H])C([H])([H])c2c([H])c(OC([H])([H])C([H])([H])C([H])([H])c3c([H])c(N([H])C(=O)N4C([H])([H])C([H])([H])C([H])([H])C([H])(n5nc(-c6c([H])c([H])c(Oc7c([H])c([H])c(F)c([H])c7F)c([H])c6[H])c(C(=O)N([H])[H])c5N([H])[H])C4([H])[H])nn3C([H])([H])[H])c([H])c([H])c2C1([H])[H]

$$$$
93:0:0
     RDKit          3D

 95103  0  0  1  0  0  0  0  0999 V2000
  -29.6150  -20.6310   20.3440 C   0  0  0  0  0  3  0  0  0  0  0  0
  -27.6560  -22.0160   20.6040 C   0  0  0  0  0  3  0  0  0  0  0  0
  -29.0490  -21.8930   20.6750 C   0  0  0  0  0  0  0  0  0  0  0  0
  -28.7820  -19.5800   19.8600 C   0  0  0  0  0  0  0  0  0  0  0  0
  -27.4070  -19.9060   19.6570 C   0  0  0  0  0  0  0  0  0  0  0  0
  -26.8620  -21.0570   20.1100 N   0  0  0  0  0  0  0  0  0  0  0  0
  -29.8590  -23.1070   21.1700 C   0  0  0  0  0  2  0  0  0  0  0  0
  -29.5770  -24.4530   20.4130 C   0  0  0  0  0  2  0  0  0  0  0  0
  -29.2720  -25.6830   21.3150 C   0  0  0  0  0  2  0  0  0  0  0  0
  -29.2170  -26.9260   20.5860 O   0  0  0  0  0  0  0  0  0  0  0  0
  -24.8990  -31.8990   23.3470 C   0  0  0  0  0  0  0  0  0  0  0  0
  -28.0030  -27.5760   20.5380 C   0  0  0  0  0  0  0  0  0  0  0  0
  -23.8960  -30.4140   21.6400 C   0  0  0  0  0  3  0  0  0  0  0  0
  -25.5280  -28.9390   20.3520 C   0  0  0  0  0  0  0  0  0  0  0  0
  -26.4040  -30.9130   21.6190 C   0  0  0  0  0  2  0  0  0  0  0  0
  -26.6110  -29.5410   21.0060 C   0  0  0  0  0  0  0  0  0  0  0  0
  -27.8540  -28.8700   21.0840 C   0  0  0  0  0  3  0  0  0  0  0  0
  -26.9020  -26.9790   19.8890 C   0  0  0  0  0  3  0  0  0  0  0  0
  -25.6680  -27.6560   19.7920 C   0  0  0  0  0  3  0  0  0  0  0  0
  -24.2370  -29.7260   20.2930 C   0  0  0  0  0  2  0  0  0  0  0  0
  -25.0800  -31.0930   22.2610 N   0  0  0  0  0  0  0  0  0  0  0  0
  -23.7690  -32.1090   23.8100 O   0  0  0  0  0  0  0  0  0  0  0  0
  -23.2340  -29.3720   22.5680 C   0  0  0  0  0  0  0  0  0  0  0  0
  -21.9310  -29.1200   22.3610 N   0  0  0  0  0  0  0  0  0  0  0  0
  -23.9000  -28.7840   23.4250 O   0  0  0  0  0  0  0  0  0  0  0  0
  -21.4590  -29.6290   21.6230 H   0  0  0  0  0  0  0  0  0  0  0  0
  -18.5780  -27.8350   22.7270 C   0  0  0  0  0  0  0  0  0  0  0  0
  -21.1140  -28.1580   23.1020 C   0  0  0  0  0  3  0  0  0  0  0  0
  -21.2760  -26.7310   22.5290 C   0  0  0  0  0  2  0  0  0  0  0  0
  -20.2350  -26.3930   21.4640 C   0  0  0  0  0  2  0  0  0  0  0  0
  -18.8220  -26.5010   22.0430 C   0  0  0  0  0  2  0  0  0  0  0  0
  -19.6580  -28.6190   23.2090 C   0  0  0  0  0  0  0  0  0  0  0  0
  -19.3860  -29.8660   23.8090 C   0  0  0  0  0  3  0  0  0  0  0  0
  -18.0650  -30.3300   23.9350 C   0  0  0  0  0  3  0  0  0  0  0  0
  -16.9980  -29.5440   23.4700 C   0  0  0  0  0  3  0  0  0  0  0  0
  -17.2540  -28.2960   22.8740 C   0  0  0  0  0  3  0  0  0  0  0  0
  -26.0970  -32.6100   24.0440 C   0  0  0  0  0  3  0  0  0  0  0  0
  -25.6970  -33.9990   24.3030 N   0  0  0  0  0  0  0  0  0  0  0  0
  -26.0230  -35.0410   23.5270 C   0  0  0  0  0  0  0  0  0  0  0  0
  -26.7620  -34.9420   22.5430 O   0  0  0  0  0  0  0  0  0  0  0  0
  -25.0410  -34.1440   25.0550 H   0  0  0  0  0  0  0  0  0  0  0  0
  -24.2260  -36.7230   23.0050 C   0  0  0  0  0  1  0  0  0  0  0  0
  -25.4360  -36.4170   23.9010 C   0  0  0  0  0  3  0  0  0  0  0  0
  -27.4680  -37.4470   24.8160 C   0  0  0  0  0  1  0  0  0  0  0  0
  -26.4170  -37.5180   23.8040 N   0  0  0  0  0  0  0  0  0  0  0  0
  -25.9560  -38.4200   23.8910 H   0  0  0  0  0  0  0  0  0  0  0  0
  -26.5480  -31.9020   25.3810 C   0  0  1  0  0  0  0  0  0  0  0  0
  -25.3860  -31.6230   26.3620 C   0  0  0  0  0  1  0  0  0  0  0  0
  -27.2410  -30.5530   25.0780 C   0  0  0  0  0  1  0  0  0  0  0  0
  -27.5930  -32.7770   26.1120 C   0  0  0  0  0  1  0  0  0  0  0  0
  -29.3710  -18.1760   19.5100 C   0  0  0  0  0  2  0  0  0  0  0  0
  -29.7940  -17.2600   20.7120 C   0  0  0  0  0  2  0  0  0  0  0  0
  -30.4940  -14.8170   20.1040 C   0  0  0  0  0  0  0  0  0  0  0  0
  -30.2480  -12.6440   18.9540 C   0  0  0  0  0  2  0  0  0  0  0  0
  -29.2420  -12.8490   17.8030 C   0  0  0  0  0  2  0  0  0  0  0  0
  -27.7920  -12.6690   18.2950 C   0  0  0  0  0  2  0  0  0  0  0  0
  -27.5010  -13.4620   19.5940 C   0  0  0  0  0  3  0  0  0  0  0  0
  -28.6120  -13.2510   20.6480 C   0  0  0  0  0  2  0  0  0  0  0  0
  -29.8960  -13.5960   20.0160 N   0  0  0  0  0  0  0  0  0  0  0  0
  -31.6390  -15.0340   19.6970 O   0  0  0  0  0  0  0  0  0  0  0  0
  -29.6400  -15.7990   20.4840 N   0  0  0  0  0  0  0  0  0  0  0  0
  -28.7200  -15.4460   20.7030 H   0  0  0  0  0  0  0  0  0  0  0  0
  -25.1560  -14.0270   20.4610 C   0  0  0  0  0  0  0  0  0  0  0  0
  -24.1150  -13.2510   20.8700 C   0  0  0  0  0  0  0  0  0  0  0  0
  -24.5770  -11.9000   20.7790 C   0  0  0  0  0  0  0  0  0  0  0  0
  -26.1860  -13.1600   20.1430 N   0  0  0  0  0  0  0  0  0  0  0  0
  -25.8450  -11.8710   20.3910 N   0  0  0  0  0  0  0  0  0  0  0  0
  -23.8660  -10.6350   20.9720 C   0  0  0  0  0  0  0  0  0  0  0  0
  -24.3420   -9.6540   21.8680 C   0  0  0  0  0  3  0  0  0  0  0  0
  -23.6300   -8.4500   22.0520 C   0  0  0  0  0  3  0  0  0  0  0  0
  -22.4310   -8.2220   21.3380 C   0  0  0  0  0  0  0  0  0  0  0  0
  -21.9730   -9.1940   20.4290 C   0  0  0  0  0  3  0  0  0  0  0  0
  -22.6850  -10.3890   20.2440 C   0  0  0  0  0  3  0  0  0  0  0  0
  -21.6860   -7.0710   21.4300 O   0  0  0  0  0  0  0  0  0  0  0  0
  -21.6710   -6.3150   22.5740 C   0  0  0  0  0  0  0  0  0  0  0  0
  -21.2730   -6.8530   23.8170 C   0  0  0  0  0  3  0  0  0  0  0  0
  -21.2030   -6.0250   24.9550 C   0  0  0  0  0  3  0  0  0  0  0  0
  -21.5200   -4.6570   24.8500 C   0  0  0  0  0  0  0  0  0  0  0  0
  -21.9100   -4.1170   23.6110 C   0  0  0  0  0  3  0  0  0  0  0  0
  -21.9800   -4.9430   22.4760 C   0  0  0  0  0  0  0  0  0  0  0  0
  -22.3370   -4.4140   21.2810 F   0  0  0  0  0  0  0  0  0  0  0  0
  -21.4430   -3.8580   25.9390 F   0  0  0  0  0  0  0  0  0  0  0  0
  -22.7360  -13.7220   21.2320 C   0  0  0  0  0  0  0  0  0  0  0  0
  -22.0620  -13.0140   22.1280 N   0  0  0  0  0  0  0  0  0  0  0  0
  -22.2670  -14.7570   20.7560 O   0  0  0  0  0  0  0  0  0  0  0  0
  -22.4570  -12.1770   22.5320 H   0  0  0  0  0  0  0  0  0  0  0  0
  -21.1440  -13.3160   22.4180 H   0  0  0  0  0  0  0  0  0  0  0  0
  -25.3030  -15.3960   20.3090 N   0  0  0  0  0  0  0  0  0  0  0  0
  -24.5190  -16.0270   20.4370 H   0  0  0  0  0  0  0  0  0  0  0  0
  -26.1160  -15.8230   19.8890 H   0  0  0  0  0  0  0  0  0  0  0  0
  -26.4280  -18.9690   18.9470 C   0  0  0  0  0  2  0  0  0  0  0  0
  -25.1330  -19.5860   18.3350 C   0  0  0  0  0  2  0  0  0  0  0  0
  -23.9200  -20.8290   16.4910 C   0  0  0  0  0  1  0  0  0  0  0  0
  -26.0130  -21.8310   17.4640 C   0  0  0  0  0  1  0  0  0  0  0  0
  -25.2950  -20.5240   17.1120 C   0  0  0  0  0  3  0  0  0  0  0  0
  1  3  1  0
  2  3  2  0
  3  7  1  0
  4  1  2  0
  5  4  1  0
  5  6  2  0
  6  2  1  0
  8  7  1  0
  8  9  1  0
 10  9  1  0
 11 22  2  0
 12 10  1  0
 12 17  1  0
 13 21  1  0
 13 23  1  0
 14 16  1  0
 15 21  1  0
 16 17  2  0
 16 15  1  0
 18 12  2  0
 19 18  1  0
 19 14  2  0
 20 14  1  0
 20 13  1  0
 21 11  1  0
 23 25  2  0
 24 23  1  0
 26 24  1  0
 27 36  2  0
 27 32  1  0
 28 24  1  0
 28 32  1  0
 29 28  1  0
 30 31  1  0
 30 29  1  0
 31 27  1  0
 32 33  2  0
 33 34  1  0
 35 34  2  0
 36 35  1  0
 37 11  1  0
 37 38  1  0
 37 47  1  0
 38 41  1  0
 39 43  1  0
 39 38  1  0
 40 39  2  0
 43 42  1  0
 45 46  1  0
 45 43  1  0
 45 44  1  0
 47 50  1  1
 47 48  1  0
 49 47  1  0
 51  4  1  0
 51 52  1  0
 53 61  1  0
 54 59  1  0
 55 56  1  0
 55 54  1  0
 57 56  1  0
 57 66  1  0
 57 58  1  0
 59 53  1  0
 59 58  1  0
 60 53  2  0
 61 62  1  0
 61 52  1  0
 63 64  2  0
 64 83  1  0
 65 64  1  0
 65 68  1  0
 66 67  1  0
 66 63  1  0
 67 65  2  0
 68 69  1  0
 69 70  2  0
 71 74  1  0
 71 70  1  0
 72 71  2  0
 73 72  1  0
 73 68  2  0
 74 75  1  0
 75 76  1  0
 76 77  2  0
 78 77  1  0
 78 82  1  0
 79 78  2  0
 80 75  2  0
 80 79  1  0
 81 80  1  0
 83 84  1  0
 84 87  1  0
 84 86  1  0
 85 83  2  0
 88 89  1  0
 88 63  1  0
 90 88  1  0
 91  5  1  0
 92 91  1  0
 93 95  1  0
 95 94  1  0
 95 92  1  0
M  ISO  4   9 101  10 101  53 100  61 100
M  END
>  <TORSDO>  (93) 
F 24

>  <SCORE>  (93) 
-10.628

>  <name>  (93) 
93

>  <ligand_id>  (93) 
93

>  <original_smiles>  (93) 
[H]c1nc(C([H])([H])C([H])([H])C([H])(C([H])([H])[H])C([H])([H])[H])c(C([H])([H])C([H])([H])N([H])C(=O)N2C([H])([H])C([H])([H])C([H])([H])C([H])(n3nc(-c4c([H])c([H])c(Oc5c([H])c([H])c(F)c([H])c5F)c([H])c4[H])c(C(=O)N([H])[H])c3N([H])[H])C2([H])[H])c([H])c1C([H])([H])C([H])([H])C([H])([H])Oc1c([H])c([H])c2c(c1[H])C([H])([H])N(C(=O)C([H])(N([H])C(=O)C([H])(N([H])C([H])([H])[H])C([H])([H])[H])C(C([H])([H])[H])(C([H])([H])[H])C([H])([H])[H])C([H])(C(=O)N([H])C1([H])c3c([H])c([H])c([H])c([H])c3C([H])([H])C([H])([H])C1([H])[H])C2([H])[H]

>  <smiles>  (93) 
[H]c1nc(C([H])([H])C([H])([H])C([H])(C([H])([H])[H])C([H])([H])[H])c(C([H])([H])C([H])([H])N([H])C(=O)N2C([H])([H])C([H])([H])C([H])([H])C([H])(n3nc(-c4c([H])c([H])c(Oc5c([H])c([H])c(F)c([H])c5F)c([H])c4[H])c(C(=O)N([H])[H])c3N([H])[H])C2([H])[H])c([H])c1C([H])([H])C([H])([H])C([H])([H])Oc1c([H])c([H])c2c(c1[H])C([H])([H])N(C(=O)C([H])(N([H])C(=O)C([H])(N([H])C([H])([H])[H])C([H])([H])[H])C(C([H])([H])[H])(C([H])([H])[H])C([H])([H])[H])C([H])(C(=O)N([H])C1([H])c3c([H])c([H])c([H])c([H])c3C([H])([H])C([H])([H])C1([H])[H])C2([H])[H]

$$$$
94:0:0
     RDKit          3D

 91 99  0  0  1  0  0  0  0  0999 V2000
  -29.9970  -19.9980   19.3550 C   0  0  0  0  0  3  0  0  0  0  0  0
  -28.5730  -20.5850   20.9520 C   0  0  0  0  0  3  0  0  0  0  0  0
  -29.2260  -19.4840   20.4400 C   0  0  0  0  0  0  0  0  0  0  0  0
  -29.7370  -21.3350   19.1980 C   0  0  0  0  0  0  0  0  0  0  0  0
  -30.2290  -22.2750   18.1440 C   0  0  0  0  0  1  0  0  0  0  0  0
  -28.8500  -21.7250   20.1940 N   0  0  0  0  0  0  0  0  0  0  0  0
  -29.0860  -18.0140   20.8900 C   0  0  0  0  0  2  0  0  0  0  0  0
  -30.2340  -17.0260   20.4960 C   0  0  0  0  0  2  0  0  0  0  0  0
  -30.6480  -14.5440   20.2840 C   0  0  0  0  0  0  0  0  0  0  0  0
  -30.3480  -12.3810   19.1330 C   0  0  0  0  0  2  0  0  0  0  0  0
  -29.3870  -12.5990   17.9450 C   0  0  0  0  0  2  0  0  0  0  0  0
  -27.9200  -12.4520   18.3980 C   0  0  0  0  0  2  0  0  0  0  0  0
  -27.6050  -13.2760   19.6760 C   0  0  0  0  0  3  0  0  0  0  0  0
  -28.6780  -13.0440   20.7630 C   0  0  0  0  0  2  0  0  0  0  0  0
  -29.9900  -13.3560   20.1770 N   0  0  0  0  0  0  0  0  0  0  0  0
  -31.7840  -14.7160   19.8330 O   0  0  0  0  0  0  0  0  0  0  0  0
  -29.9080  -15.5930   20.7150 N   0  0  0  0  0  0  0  0  0  0  0  0
  -28.9840  -15.3770   21.0580 H   0  0  0  0  0  0  0  0  0  0  0  0
  -25.2200  -13.8860   20.4210 C   0  0  0  0  0  0  0  0  0  0  0  0
  -24.1560  -13.1140   20.8030 C   0  0  0  0  0  0  0  0  0  0  0  0
  -24.6140  -11.7620   20.7630 C   0  0  0  0  0  0  0  0  0  0  0  0
  -26.2590  -13.0020   20.1730 N   0  0  0  0  0  0  0  0  0  0  0  0
  -25.9000  -11.7210   20.4370 N   0  0  0  0  0  0  0  0  0  0  0  0
  -23.8880  -10.5000   20.9580 C   0  0  0  0  0  0  0  0  0  0  0  0
  -24.3230   -9.5360   21.8940 C   0  0  0  0  0  3  0  0  0  0  0  0
  -23.5970   -8.3390   22.0770 C   0  0  0  0  0  3  0  0  0  0  0  0
  -22.4230   -8.0990   21.3240 C   0  0  0  0  0  0  0  0  0  0  0  0
  -22.0080   -9.0520   20.3780 C   0  0  0  0  0  3  0  0  0  0  0  0
  -22.7330  -10.2400   20.1930 C   0  0  0  0  0  3  0  0  0  0  0  0
  -21.6690   -6.9530   21.4170 O   0  0  0  0  0  0  0  0  0  0  0  0
  -21.6140   -6.2210   22.5740 C   0  0  0  0  0  0  0  0  0  0  0  0
  -21.1660   -6.7810   23.7920 C   0  0  0  0  0  3  0  0  0  0  0  0
  -21.0590   -5.9720   24.9400 C   0  0  0  0  0  3  0  0  0  0  0  0
  -21.3900   -4.6050   24.8740 C   0  0  0  0  0  0  0  0  0  0  0  0
  -21.8310   -4.0450   23.6630 C   0  0  0  0  0  3  0  0  0  0  0  0
  -21.9390   -4.8510   22.5160 C   0  0  0  0  0  0  0  0  0  0  0  0
  -22.3440   -4.3010   21.3440 F   0  0  0  0  0  0  0  0  0  0  0  0
  -21.2790   -3.8270   25.9760 F   0  0  0  0  0  0  0  0  0  0  0  0
  -22.7630  -13.5930   21.0940 C   0  0  0  0  0  0  0  0  0  0  0  0
  -22.0450  -12.8930   21.9660 N   0  0  0  0  0  0  0  0  0  0  0  0
  -22.3220  -14.6210   20.5850 O   0  0  0  0  0  0  0  0  0  0  0  0
  -22.4140  -12.0590   22.3990 H   0  0  0  0  0  0  0  0  0  0  0  0
  -21.1120  -13.1980   22.2070 H   0  0  0  0  0  0  0  0  0  0  0  0
  -25.3870  -15.2570   20.2440 N   0  0  0  0  0  0  0  0  0  0  0  0
  -24.6250  -15.9130   20.3720 H   0  0  0  0  0  0  0  0  0  0  0  0
  -26.2250  -15.6920   19.8820 H   0  0  0  0  0  0  0  0  0  0  0  0
  -28.2190  -23.0620   20.3660 C   0  0  0  0  0  3  0  0  0  0  0  0
  -29.1690  -24.2280   20.8000 C   0  0  0  0  0  3  0  0  0  0  0  0
  -27.3050  -25.4110   22.1600 C   0  0  0  0  0  1  0  0  0  0  0  0
  -28.5400  -25.6020   21.2500 C   0  0  0  0  0  3  0  0  0  0  0  0
  -28.4150  -26.6010   20.1960 O   0  0  0  0  0  0  0  0  0  0  0  0
  -24.6050  -31.8630   23.2410 C   0  0  0  0  0  0  0  0  0  0  0  0
  -27.2920  -27.4100   20.1900 C   0  0  0  0  0  0  0  0  0  0  0  0
  -23.4280  -30.4660   21.5750 C   0  0  0  0  0  3  0  0  0  0  0  0
  -24.9090  -28.9390   20.1620 C   0  0  0  0  0  0  0  0  0  0  0  0
  -25.9590  -30.8250   21.4200 C   0  0  0  0  0  2  0  0  0  0  0  0
  -26.0590  -29.4540   20.7750 C   0  0  0  0  0  0  0  0  0  0  0  0
  -27.2580  -28.6960   20.7870 C   0  0  0  0  0  3  0  0  0  0  0  0
  -26.1320  -26.9250   19.5550 C   0  0  0  0  0  3  0  0  0  0  0  0
  -24.9410  -27.6760   19.5480 C   0  0  0  0  0  3  0  0  0  0  0  0
  -23.6620  -29.7960   20.1960 C   0  0  0  0  0  2  0  0  0  0  0  0
  -24.6820  -31.0670   22.1370 N   0  0  0  0  0  0  0  0  0  0  0  0
  -23.5140  -32.1300   23.7660 O   0  0  0  0  0  0  0  0  0  0  0  0
  -22.7640  -29.4400   22.5220 C   0  0  0  0  0  0  0  0  0  0  0  0
  -21.4370  -29.2710   22.3900 N   0  0  0  0  0  0  0  0  0  0  0  0
  -23.4380  -28.7990   23.3310 O   0  0  0  0  0  0  0  0  0  0  0  0
  -20.9530  -29.8410   21.7090 H   0  0  0  0  0  0  0  0  0  0  0  0
  -18.0470  -28.1220   22.8860 C   0  0  0  0  0  0  0  0  0  0  0  0
  -20.6100  -28.3310   23.1470 C   0  0  0  0  0  3  0  0  0  0  0  0
  -20.6840  -26.9110   22.5390 C   0  0  0  0  0  2  0  0  0  0  0  0
  -19.5720  -26.6290   21.5260 C   0  0  0  0  0  2  0  0  0  0  0  0
  -18.1970  -26.7840   22.1820 C   0  0  0  0  0  2  0  0  0  0  0  0
  -19.1810  -28.8550   23.3250 C   0  0  0  0  0  0  0  0  0  0  0  0
  -18.9880  -30.1100   23.9440 C   0  0  0  0  0  3  0  0  0  0  0  0
  -17.6930  -30.6290   24.1300 C   0  0  0  0  0  3  0  0  0  0  0  0
  -16.5730  -29.8930   23.7080 C   0  0  0  0  0  3  0  0  0  0  0  0
  -16.7520  -28.6410   23.0910 C   0  0  0  0  0  3  0  0  0  0  0  0
  -25.8790  -32.4960   23.8820 C   0  0  0  0  0  3  0  0  0  0  0  0
  -25.5650  -33.8950   24.2020 N   0  0  0  0  0  0  0  0  0  0  0  0
  -25.9070  -34.9440   23.4420 C   0  0  0  0  0  0  0  0  0  0  0  0
  -26.5910  -34.8360   22.4200 O   0  0  0  0  0  0  0  0  0  0  0  0
  -24.9590  -34.0530   24.9930 H   0  0  0  0  0  0  0  0  0  0  0  0
  -24.1850  -36.7360   23.0540 C   0  0  0  0  0  1  0  0  0  0  0  0
  -25.4130  -36.3340   23.8860 C   0  0  0  0  0  3  0  0  0  0  0  0
  -27.5310  -37.2260   24.7490 C   0  0  0  0  0  1  0  0  0  0  0  0
  -26.4470  -37.3860   23.7840 N   0  0  0  0  0  0  0  0  0  0  0  0
  -26.0370  -38.3070   23.9170 H   0  0  0  0  0  0  0  0  0  0  0  0
  -26.3750  -31.7280   25.1690 C   0  0  1  0  0  0  0  0  0  0  0  0
  -25.2650  -31.4920   26.2190 C   0  0  0  0  0  1  0  0  0  0  0  0
  -26.9640  -30.3490   24.7900 C   0  0  0  0  0  1  0  0  0  0  0  0
  -27.5120  -32.5250   25.8500 C   0  0  0  0  0  1  0  0  0  0  0  0
  1  3  1  0
  3  7  1  0
  3  2  2  0
  4  1  2  0
  4  6  1  0
  5  4  1  0
  6 47  1  0
  6  2  1  0
  8 17  1  0
  8  7  1  0
  9 17  1  0
 10 15  1  0
 11 12  1  0
 11 10  1  0
 13 12  1  0
 13 22  1  0
 13 14  1  0
 15  9  1  0
 15 14  1  0
 16  9  2  0
 17 18  1  0
 19 20  2  0
 20 39  1  0
 21 20  1  0
 21 24  1  0
 22 19  1  0
 22 23  1  0
 23 21  2  0
 24 25  1  0
 25 26  2  0
 27 30  1  0
 27 26  1  0
 28 27  2  0
 29 28  1  0
 29 24  2  0
 30 31  1  0
 31 32  1  0
 32 33  2  0
 34 33  1  0
 34 38  1  0
 35 34  2  0
 36 31  2  0
 36 35  1  0
 37 36  1  0
 39 40  1  0
 40 43  1  0
 40 42  1  0
 41 39  2  0
 44 45  1  0
 44 19  1  0
 46 44  1  0
 47 48  2  0
 48 50  1  0
 50 49  1  0
 51 50  1  0
 52 63  2  0
 53 51  1  0
 53 58  1  0
 54 62  1  0
 54 64  1  0
 55 61  1  0
 55 57  1  0
 56 62  1  0
 57 58  2  0
 57 56  1  0
 59 53  2  0
 60 59  1  0
 60 55  2  0
 61 54  1  0
 62 52  1  0
 64 66  2  0
 65 64  1  0
 67 65  1  0
 68 77  2  0
 68 73  1  0
 69 65  1  0
 69 73  1  0
 70 69  1  0
 71 72  1  0
 71 70  1  0
 72 68  1  0
 73 74  2  0
 74 75  1  0
 76 75  2  0
 77 76  1  0
 78 52  1  0
 78 79  1  0
 78 88  1  0
 79 82  1  0
 80 84  1  0
 80 79  1  0
 81 80  2  0
 84 83  1  0
 86 84  1  0
 86 87  1  0
 86 85  1  0
 88 91  1  1
 88 89  1  0
 90 88  1  0
M  ISO  4   9 100  17 100  50 101  51 101
M  END
>  <TORSDO>  (94) 
F 21

>  <SCORE>  (94) 
-13.484

>  <name>  (94) 
94

>  <ligand_id>  (94) 
94

>  <original_smiles>  (94) 
[H]c1c([H])c([H])c2c(c1[H])C([H])([H])C([H])([H])C([H])([H])C2([H])N([H])C(=O)C1([H])N(C(=O)C([H])(N([H])C(=O)C([H])(N([H])C([H])([H])[H])C([H])([H])[H])C(C([H])([H])[H])(C([H])([H])[H])C([H])([H])[H])C([H])([H])c2c([H])c(OC([H])(C([H])([H])[H])C([H])([H])C([H])([H])n3c([H])c(C([H])([H])C([H])([H])N([H])C(=O)N4C([H])([H])C([H])([H])C([H])([H])C([H])(n5nc(-c6c([H])c([H])c(Oc7c([H])c([H])c(F)c([H])c7F)c([H])c6[H])c(C(=O)N([H])[H])c5N([H])[H])C4([H])[H])c([H])c3C([H])([H])[H])c([H])c([H])c2C1([H])[H]

>  <smiles>  (94) 
[H]c1c([H])c([H])c2c(c1[H])C([H])([H])C([H])([H])C([H])([H])C2([H])N([H])C(=O)C1([H])N(C(=O)C([H])(N([H])C(=O)C([H])(N([H])C([H])([H])[H])C([H])([H])[H])C(C([H])([H])[H])(C([H])([H])[H])C([H])([H])[H])C([H])([H])c2c([H])c(OC([H])(C([H])([H])[H])C([H])([H])C([H])([H])n3c([H])c(C([H])([H])C([H])([H])N([H])C(=O)N4C([H])([H])C([H])([H])C([H])([H])C([H])(n5nc(-c6c([H])c([H])c(Oc7c([H])c([H])c(F)c([H])c7F)c([H])c6[H])c(C(=O)N([H])[H])c5N([H])[H])C4([H])[H])c([H])c3C([H])([H])[H])c([H])c([H])c2C1([H])[H]

$$$$
95:0:0
     RDKit          3D

 97105  0  0  1  0  0  0  0  0999 V2000
  -30.6120  -23.9940   19.3890 C   0  0  0  0  0  3  0  0  0  0  0  0
  -30.4690  -22.6080   19.2400 C   0  0  0  0  0  0  0  0  0  0  0  0
  -31.7980  -24.7040   19.0820 C   0  0  0  0  0  0  0  0  0  0  0  0
  -31.5630  -21.8940   18.7360 C   0  0  0  0  0  0  0  0  0  0  0  0
  -32.9320  -23.8210   18.5500 C   0  0  0  0  0  0  0  0  0  0  0  0
  -31.5340  -20.3920   18.5200 C   0  0  0  0  0  1  0  0  0  0  0  0
  -32.7160  -22.4920   18.4150 N   0  0  0  0  0  0  0  0  0  0  0  0
  -29.1650  -21.9220   19.6640 C   0  0  0  0  0  2  0  0  0  0  0  0
  -28.7660  -22.1330   21.1420 C   0  0  0  0  0  2  0  0  0  0  0  0
  -29.8230  -21.6080   22.1380 C   0  0  0  0  0  2  0  0  0  0  0  0
  -30.5420  -21.6840   24.5090 C   0  0  0  0  0  1  0  0  0  0  0  0
  -29.4340  -21.8360   23.5450 N   0  0  0  0  0  4  0  0  0  0  0  0
  -29.0560  -22.7650   23.6430 H   0  0  0  0  0  0  0  0  0  0  0  0
  -28.7090  -21.1830   23.7970 H   0  0  0  0  0  0  0  0  0  0  0  0
  -31.5040  -26.3100   19.3400 C   0  0  0  0  0  2  0  0  0  0  0  0
  -31.3170  -27.0700   20.8780 C   0  0  0  0  0  2  0  0  0  0  0  0
  -30.2420  -28.2890   21.3810 C   0  0  0  0  0  2  0  0  0  0  0  0
  -30.4560  -29.3900   22.4800 O   0  0  0  0  0  0  0  0  0  0  0  0
  -28.3950  -32.7680   28.7160 C   0  0  0  0  0  0  0  0  0  0  0  0
  -29.4070  -29.8510   23.3670 C   0  0  0  0  0  0  0  0  0  0  0  0
  -26.8210  -31.1560   27.7150 C   0  0  0  0  0  3  0  0  0  0  0  0
  -27.2970  -30.4680   25.2820 C   0  0  0  0  0  0  0  0  0  0  0  0
  -28.4380  -32.4750   26.2090 C   0  0  0  0  0  2  0  0  0  0  0  0
  -28.4160  -31.3050   25.2080 C   0  0  0  0  0  0  0  0  0  0  0  0
  -29.4550  -31.0120   24.2440 C   0  0  0  0  0  3  0  0  0  0  0  0
  -28.2130  -29.1020   23.4610 C   0  0  0  0  0  3  0  0  0  0  0  0
  -27.1900  -29.3870   24.3930 C   0  0  0  0  0  3  0  0  0  0  0  0
  -26.2350  -30.7620   26.3320 C   0  0  0  0  0  2  0  0  0  0  0  0
  -27.9290  -32.1570   27.5840 N   0  0  0  0  0  0  0  0  0  0  0  0
  -27.9110  -32.5240   29.8320 O   0  0  0  0  0  0  0  0  0  0  0  0
  -27.2430  -29.8750   28.4770 C   0  0  0  0  0  0  0  0  0  0  0  0
  -26.4180  -29.4340   29.4430 N   0  0  0  0  0  0  0  0  0  0  0  0
  -28.2840  -29.2850   28.1780 O   0  0  0  0  0  0  0  0  0  0  0  0
  -25.5890  -29.9760   29.6430 H   0  0  0  0  0  0  0  0  0  0  0  0
  -24.7740  -27.1500   31.7260 C   0  0  0  0  0  0  0  0  0  0  0  0
  -26.6030  -28.2200   30.2420 C   0  0  0  0  0  3  0  0  0  0  0  0
  -26.4850  -26.9520   29.3650 C   0  0  0  0  0  2  0  0  0  0  0  0
  -25.0690  -26.3670   29.3380 C   0  0  0  0  0  2  0  0  0  0  0  0
  -24.6140  -25.9950   30.7530 C   0  0  0  0  0  2  0  0  0  0  0  0
  -25.6960  -28.2030   31.4790 C   0  0  0  0  0  0  0  0  0  0  0  0
  -25.7830  -29.2660   32.4040 C   0  0  0  0  0  3  0  0  0  0  0  0
  -24.9690  -29.2920   33.5510 C   0  0  0  0  0  3  0  0  0  0  0  0
  -24.0670  -28.2430   33.7970 C   0  0  0  0  0  3  0  0  0  0  0  0
  -23.9750  -27.1720   32.8900 C   0  0  0  0  0  3  0  0  0  0  0  0
  -29.5450  -33.8200   28.6620 C   0  0  0  0  0  3  0  0  0  0  0  0
  -29.2740  -34.8350   29.6930 N   0  0  0  0  0  0  0  0  0  0  0  0
  -28.8420  -36.0790   29.4470 C   0  0  0  0  0  0  0  0  0  0  0  0
  -28.6890  -36.5180   28.3040 O   0  0  0  0  0  0  0  0  0  0  0  0
  -29.3240  -34.5260   30.6520 H   0  0  0  0  0  0  0  0  0  0  0  0
  -27.1500  -37.6270   30.4840 C   0  0  0  0  0  1  0  0  0  0  0  0
  -28.5340  -36.9810   30.6580 C   0  0  0  0  0  3  0  0  0  0  0  0
  -30.7270  -37.5640   31.5980 C   0  0  0  0  0  1  0  0  0  0  0  0
  -29.5460  -38.0370   30.8810 N   0  0  0  0  0  0  0  0  0  0  0  0
  -29.1490  -38.8140   31.4030 H   0  0  0  0  0  0  0  0  0  0  0  0
  -30.9750  -33.1860   28.8770 C   0  0  1  0  0  0  0  0  0  0  0  0
  -30.9400  -31.7520   29.4530 C   0  0  0  0  0  1  0  0  0  0  0  0
  -31.7620  -33.1370   27.5460 C   0  0  0  0  0  1  0  0  0  0  0  0
  -31.7980  -34.0680   29.8450 C   0  0  0  0  0  1  0  0  0  0  0  0
  -34.4940  -23.9570   18.0670 C   0  0  0  0  0  2  0  0  0  0  0  0
  -35.9380  -23.6750   15.6740 C   0  0  0  0  0  0  0  0  0  0  0  0
  -37.6830  -24.4850   14.0140 C   0  0  0  0  0  2  0  0  0  0  0  0
  -38.2330  -25.8620   14.4590 C   0  0  0  0  0  2  0  0  0  0  0  0
  -37.3450  -27.0000   13.9220 C   0  0  0  0  0  2  0  0  0  0  0  0
  -35.8340  -26.7200   14.1400 C   0  0  0  0  0  3  0  0  0  0  0  0
  -35.4370  -25.2850   13.7320 C   0  0  0  0  0  2  0  0  0  0  0  0
  -36.2780  -24.3660   14.5080 N   0  0  0  0  0  0  0  0  0  0  0  0
  -36.6960  -22.7620   16.0200 O   0  0  0  0  0  0  0  0  0  0  0  0
  -34.8980  -24.1380   16.5300 N   0  0  0  0  0  0  0  0  0  0  0  0
  -34.3020  -24.8150   16.0810 H   0  0  0  0  0  0  0  0  0  0  0  0
  -33.9600  -28.4600   14.0740 C   0  0  0  0  0  0  0  0  0  0  0  0
  -33.5430  -29.3310   13.1050 C   0  0  0  0  0  0  0  0  0  0  0  0
  -34.3650  -29.0740   11.9630 C   0  0  0  0  0  0  0  0  0  0  0  0
  -34.9920  -27.7290   13.5090 N   0  0  0  0  0  0  0  0  0  0  0  0
  -35.1900  -28.0620   12.2070 N   0  0  0  0  0  0  0  0  0  0  0  0
  -34.4510  -29.7740   10.6750 C   0  0  0  0  0  0  0  0  0  0  0  0
  -33.7940  -29.2890    9.5230 C   0  0  0  0  0  3  0  0  0  0  0  0
  -33.8750  -29.9940    8.3020 C   0  0  0  0  0  3  0  0  0  0  0  0
  -34.6150  -31.1980    8.2250 C   0  0  0  0  0  0  0  0  0  0  0  0
  -35.2860  -31.6640    9.3700 C   0  0  0  0  0  3  0  0  0  0  0  0
  -35.2080  -30.9590   10.5820 C   0  0  0  0  0  3  0  0  0  0  0  0
  -34.7720  -31.9350    7.0750 O   0  0  0  0  0  0  0  0  0  0  0  0
  -33.7180  -32.1910    6.2370 C   0  0  0  0  0  0  0  0  0  0  0  0
  -32.6770  -33.0740    6.5960 C   0  0  0  0  0  3  0  0  0  0  0  0
  -31.6500  -33.3650    5.6760 C   0  0  0  0  0  3  0  0  0  0  0  0
  -31.6650  -32.7800    4.3950 C   0  0  0  0  0  0  0  0  0  0  0  0
  -32.7030  -31.9040    4.0330 C   0  0  0  0  0  3  0  0  0  0  0  0
  -33.7280  -31.6130    4.9520 C   0  0  0  0  0  0  0  0  0  0  0  0
  -34.7380  -30.7840    4.5900 F   0  0  0  0  0  0  0  0  0  0  0  0
  -30.6830  -33.0630    3.5080 F   0  0  0  0  0  0  0  0  0  0  0  0
  -32.5100  -30.4080   13.2610 C   0  0  0  0  0  0  0  0  0  0  0  0
  -31.5700  -30.4970   12.3280 N   0  0  0  0  0  0  0  0  0  0  0  0
  -32.5020  -31.1480   14.2450 O   0  0  0  0  0  0  0  0  0  0  0  0
  -31.5620  -29.8740   11.5340 H   0  0  0  0  0  0  0  0  0  0  0  0
  -30.8450  -31.1960   12.4100 H   0  0  0  0  0  0  0  0  0  0  0  0
  -33.5680  -28.2480   15.3920 N   0  0  0  0  0  0  0  0  0  0  0  0
  -32.8570  -28.8190   15.8370 H   0  0  0  0  0  0  0  0  0  0  0  0
  -34.0190  -27.6080   16.0330 H   0  0  0  0  0  0  0  0  0  0  0  0
  2  1  1  0
  2  8  1  0
  3 15  1  0
  3  1  2  0
  4  2  2  0
  5  3  1  0
  6  4  1  0
  7  5  2  0
  7  4  1  0
  8  9  1  0
  9 10  1  0
 10 12  1  0
 12 13  1  0
 12 14  1  0
 12 11  1  0
 15 16  1  0
 16 17  1  0
 17 18  1  0
 18 20  1  0
 19 30  2  0
 20 26  2  0
 20 25  1  0
 21 31  1  0
 22 28  1  0
 23 29  1  0
 24 22  1  0
 24 23  1  0
 25 24  2  0
 26 27  1  0
 27 22  2  0
 28 21  1  0
 29 21  1  0
 29 19  1  0
 31 32  1  0
 32 34  1  0
 33 31  2  0
 35 44  1  0
 36 32  1  0
 36 40  1  0
 37 36  1  0
 38 37  1  0
 38 39  1  0
 39 35  1  0
 40 35  2  0
 40 41  1  0
 41 42  2  0
 42 43  1  0
 44 43  2  0
 45 19  1  0
 45 55  1  0
 45 46  1  0
 46 49  1  0
 47 46  1  0
 47 51  1  0
 48 47  2  0
 51 50  1  0
 51 53  1  0
 53 54  1  0
 53 52  1  0
 55 56  1  1
 55 58  1  0
 57 55  1  0
 59  5  1  0
 60 67  2  0
 60 68  1  0
 61 62  1  0
 61 66  1  0
 63 64  1  0
 63 62  1  0
 64 73  1  0
 65 64  1  0
 65 66  1  0
 66 60  1  0
 68 59  1  0
 69 68  1  0
 70 95  1  0
 71 90  1  0
 71 70  2  0
 72 74  2  0
 72 71  1  0
 73 70  1  0
 74 73  1  0
 75 72  1  0
 76 75  2  0
 77 76  1  0
 78 77  2  0
 78 79  1  0
 79 80  2  0
 80 75  1  0
 81 78  1  0
 82 83  1  0
 82 81  1  0
 84 83  2  0
 85 84  1  0
 86 85  2  0
 86 87  1  0
 87 82  2  0
 88 87  1  0
 89 85  1  0
 90 92  2  0
 91 94  1  0
 91 90  1  0
 93 91  1  0
 95 96  1  0
 95 97  1  0
M  ISO  4  17 101  18 101  60 100  68 100
M  END
>  <TORSDO>  (95) 
F 24

>  <SCORE>  (95) 
-5.794

>  <name>  (95) 
95

>  <ligand_id>  (95) 
95

>  <original_smiles>  (95) 
[H]c1c([H])c([H])c2c(c1[H])C([H])([H])C([H])([H])C([H])([H])C2([H])N([H])C(=O)C1([H])N(C(=O)C([H])(N([H])C(=O)C([H])(N([H])C([H])([H])[H])C([H])([H])[H])C(C([H])([H])[H])(C([H])([H])[H])C([H])([H])[H])C([H])([H])c2c([H])c(OC([H])([H])C([H])([H])C([H])([H])c3c(C([H])([H])N([H])C(=O)N4C([H])([H])C([H])([H])C([H])([H])C([H])(n5nc(-c6c([H])c([H])c(Oc7c([H])c([H])c(F)c([H])c7F)c([H])c6[H])c(C(=O)N([H])[H])c5N([H])[H])C4([H])[H])nc(C([H])([H])[H])c(C([H])([H])C([H])([H])C([H])([H])[N+]([H])([H])C([H])([H])[H])c3[H])c([H])c([H])c2C1([H])[H]

>  <smiles>  (95) 
[H]c1c([H])c([H])c2c(c1[H])C([H])([H])C([H])([H])C([H])([H])C2([H])N([H])C(=O)C1([H])N(C(=O)C([H])(N([H])C(=O)C([H])(N([H])C([H])([H])[H])C([H])([H])[H])C(C([H])([H])[H])(C([H])([H])[H])C([H])([H])[H])C([H])([H])c2c([H])c(OC([H])([H])C([H])([H])C([H])([H])c3c(C([H])([H])N([H])C(=O)N4C([H])([H])C([H])([H])C([H])([H])C([H])(n5nc(-c6c([H])c([H])c(Oc7c([H])c([H])c(F)c([H])c7F)c([H])c6[H])c(C(=O)N([H])[H])c5N([H])[H])C4([H])[H])nc(C([H])([H])[H])c(C([H])([H])C([H])([H])C([H])([H])[N+]([H])([H])C([H])([H])[H])c3[H])c([H])c([H])c2C1([H])[H]

$$$$
96:0:0
     RDKit          3D

 95103  0  0  1  0  0  0  0  0999 V2000
  -28.0230  -21.8600   19.0510 C   0  0  0  0  0  3  0  0  0  0  0  0
  -29.8540  -21.1320   20.0250 C   0  0  0  0  0  3  0  0  0  0  0  0
  -28.1210  -20.5090   18.8120 C   0  0  0  0  0  0  0  0  0  0  0  0
  -29.3140  -19.9720   19.4290 C   0  0  0  0  0  0  0  0  0  0  0  0
  -29.0670  -22.3170   19.8020 N   0  0  0  0  0  0  0  0  0  0  0  0
  -26.8060  -20.4470   16.6750 C   0  0  0  0  0  1  0  0  0  0  0  0
  -25.7590  -19.9180   18.9300 C   0  0  0  0  0  1  0  0  0  0  0  0
  -27.0170  -19.8030   18.0590 C   0  0  0  0  0  3  0  0  0  0  0  0
  -29.2160  -23.7710   20.2880 C   0  0  0  0  0  3  0  0  0  0  0  0
  -28.2860  -24.9700   19.6610 C   0  0  0  0  0  3  0  0  0  0  0  0
  -28.3430  -26.4050   20.1450 O   0  0  0  0  0  0  0  0  0  0  0  0
  -24.5840  -31.8660   23.2310 C   0  0  0  0  0  0  0  0  0  0  0  0
  -27.2110  -27.2670   20.1270 C   0  0  0  0  0  0  0  0  0  0  0  0
  -23.3880  -30.4680   21.5940 C   0  0  0  0  0  3  0  0  0  0  0  0
  -24.8350  -28.9050   20.1740 C   0  0  0  0  0  0  0  0  0  0  0  0
  -25.9330  -30.7620   21.4220 C   0  0  0  0  0  2  0  0  0  0  0  0
  -26.0100  -29.3790   20.7680 C   0  0  0  0  0  0  0  0  0  0  0  0
  -27.1930  -28.5640   20.7500 C   0  0  0  0  0  3  0  0  0  0  0  0
  -25.9930  -26.8670   19.5190 C   0  0  0  0  0  3  0  0  0  0  0  0
  -24.8220  -27.6480   19.5590 C   0  0  0  0  0  3  0  0  0  0  0  0
  -23.6030  -29.7890   20.2180 C   0  0  0  0  0  2  0  0  0  0  0  0
  -24.6540  -31.0490   22.1400 N   0  0  0  0  0  0  0  0  0  0  0  0
  -23.4970  -32.1450   23.7550 O   0  0  0  0  0  0  0  0  0  0  0  0
  -22.7240  -29.4510   22.5470 C   0  0  0  0  0  0  0  0  0  0  0  0
  -21.4000  -29.2730   22.4130 N   0  0  0  0  0  0  0  0  0  0  0  0
  -23.4010  -28.8250   23.3670 O   0  0  0  0  0  0  0  0  0  0  0  0
  -20.9160  -29.8230   21.7210 H   0  0  0  0  0  0  0  0  0  0  0  0
  -18.0230  -28.0830   22.9260 C   0  0  0  0  0  0  0  0  0  0  0  0
  -20.5810  -28.3340   23.1770 C   0  0  0  0  0  3  0  0  0  0  0  0
  -20.6760  -26.9060   22.5910 C   0  0  0  0  0  2  0  0  0  0  0  0
  -19.5700  -26.5960   21.5780 C   0  0  0  0  0  2  0  0  0  0  0  0
  -18.1920  -26.7420   22.2320 C   0  0  0  0  0  2  0  0  0  0  0  0
  -19.1460  -28.8390   23.3540 C   0  0  0  0  0  0  0  0  0  0  0  0
  -18.9390  -30.0960   23.9620 C   0  0  0  0  0  3  0  0  0  0  0  0
  -17.6390  -30.6010   24.1390 C   0  0  0  0  0  3  0  0  0  0  0  0
  -16.5270  -29.8410   23.7270 C   0  0  0  0  0  3  0  0  0  0  0  0
  -16.7210  -28.5840   23.1270 C   0  0  0  0  0  3  0  0  0  0  0  0
  -25.8600  -32.4980   23.8600 C   0  0  0  0  0  3  0  0  0  0  0  0
  -25.5460  -33.9020   24.1670 N   0  0  0  0  0  0  0  0  0  0  0  0
  -25.9060  -34.9490   23.4140 C   0  0  0  0  0  0  0  0  0  0  0  0
  -26.6000  -34.8370   22.3990 O   0  0  0  0  0  0  0  0  0  0  0  0
  -24.9100  -34.0600   24.9340 H   0  0  0  0  0  0  0  0  0  0  0  0
  -24.2060  -36.7620   23.0020 C   0  0  0  0  0  1  0  0  0  0  0  0
  -25.4180  -36.3440   23.8520 C   0  0  0  0  0  3  0  0  0  0  0  0
  -27.5350  -37.2150   24.7480 C   0  0  0  0  0  1  0  0  0  0  0  0
  -26.4650  -37.3850   23.7650 N   0  0  0  0  0  0  0  0  0  0  0  0
  -26.0640  -38.3100   23.8890 H   0  0  0  0  0  0  0  0  0  0  0  0
  -26.3530  -31.7450   25.1590 C   0  0  1  0  0  0  0  0  0  0  0  0
  -25.2430  -31.5250   26.2130 C   0  0  0  0  0  1  0  0  0  0  0  0
  -26.9360  -30.3590   24.8010 C   0  0  0  0  0  1  0  0  0  0  0  0
  -27.4960  -32.5480   25.8200 C   0  0  0  0  0  1  0  0  0  0  0  0
  -29.7750  -18.4080   19.3240 C   0  0  0  0  0  3  0  0  0  0  0  0
  -30.8640  -18.2170   18.3420 N   0  0  0  0  0  4  0  0  0  0  0  0
  -31.7240  -18.6180   18.6630 H   0  0  0  0  0  0  0  0  0  0  0  0
  -30.6320  -18.6280   17.4530 H   0  0  0  0  0  0  0  0  0  0  0  0
  -31.0220  -17.2320   18.2010 H   0  0  0  0  0  0  0  0  0  0  0  0
  -29.9930  -17.4240   20.5860 C   0  0  0  0  0  2  0  0  0  0  0  0
  -30.6350  -14.7990   20.4470 C   0  0  0  0  0  0  0  0  0  0  0  0
  -30.4880  -12.4940   19.4930 C   0  0  0  0  0  2  0  0  0  0  0  0
  -29.5600  -12.5320   18.2600 C   0  0  0  0  0  2  0  0  0  0  0  0
  -28.0770  -12.3910   18.6710 C   0  0  0  0  0  2  0  0  0  0  0  0
  -27.6860  -13.2900   19.8740 C   0  0  0  0  0  3  0  0  0  0  0  0
  -28.7360  -13.2160   21.0030 C   0  0  0  0  0  2  0  0  0  0  0  0
  -30.0330  -13.5640   20.4050 N   0  0  0  0  0  0  0  0  0  0  0  0
  -31.8440  -14.9210   20.2630 O   0  0  0  0  0  0  0  0  0  0  0  0
  -29.8000  -15.9060   20.4220 N   0  0  0  0  0  0  0  0  0  0  0  0
  -28.8290  -15.6350   20.3760 H   0  0  0  0  0  0  0  0  0  0  0  0
  -25.2750  -13.8870   20.5370 C   0  0  0  0  0  0  0  0  0  0  0  0
  -24.1990  -13.1190   20.8810 C   0  0  0  0  0  0  0  0  0  0  0  0
  -24.6660  -11.7660   20.8850 C   0  0  0  0  0  0  0  0  0  0  0  0
  -26.3290  -13.0090   20.3450 N   0  0  0  0  0  0  0  0  0  0  0  0
  -25.9670  -11.7290   20.6150 N   0  0  0  0  0  0  0  0  0  0  0  0
  -23.9340  -10.5050   21.0610 C   0  0  0  0  0  0  0  0  0  0  0  0
  -24.3350   -9.5440   22.0160 C   0  0  0  0  0  3  0  0  0  0  0  0
  -23.6010   -8.3500   22.1830 C   0  0  0  0  0  3  0  0  0  0  0  0
  -22.4500   -8.1090   21.3970 C   0  0  0  0  0  0  0  0  0  0  0  0
  -22.0660   -9.0580   20.4330 C   0  0  0  0  0  3  0  0  0  0  0  0
  -22.8010  -10.2440   20.2650 C   0  0  0  0  0  3  0  0  0  0  0  0
  -21.6910   -6.9640   21.4710 O   0  0  0  0  0  0  0  0  0  0  0  0
  -21.6060   -6.2320   22.6290 C   0  0  0  0  0  0  0  0  0  0  0  0
  -21.1290   -6.7930   23.8330 C   0  0  0  0  0  3  0  0  0  0  0  0
  -20.9920   -5.9880   24.9820 C   0  0  0  0  0  3  0  0  0  0  0  0
  -21.3240   -4.6200   24.9260 C   0  0  0  0  0  0  0  0  0  0  0  0
  -21.7930   -4.0570   23.7260 C   0  0  0  0  0  3  0  0  0  0  0  0
  -21.9310   -4.8600   22.5810 C   0  0  0  0  0  0  0  0  0  0  0  0
  -22.3630   -4.3080   21.4210 F   0  0  0  0  0  0  0  0  0  0  0  0
  -21.1880   -3.8430   26.0260 F   0  0  0  0  0  0  0  0  0  0  0  0
  -22.7930  -13.5950   21.1020 C   0  0  0  0  0  0  0  0  0  0  0  0
  -22.0340  -12.9110   21.9450 N   0  0  0  0  0  0  0  0  0  0  0  0
  -22.3730  -14.6180   20.5550 O   0  0  0  0  0  0  0  0  0  0  0  0
  -22.3800  -12.0830   22.4080 H   0  0  0  0  0  0  0  0  0  0  0  0
  -21.0920  -13.2230   22.1380 H   0  0  0  0  0  0  0  0  0  0  0  0
  -25.4380  -15.2550   20.3400 N   0  0  0  0  0  0  0  0  0  0  0  0
  -24.6550  -15.9000   20.4110 H   0  0  0  0  0  0  0  0  0  0  0  0
  -26.2800  -15.6980   19.9970 H   0  0  0  0  0  0  0  0  0  0  0  0
  1  5  1  0
  3  1  2  0
  3  4  1  0
  4  2  2  0
  5  2  1  0
  5  9  1  0
  6  8  1  0
  8  3  1  0
  8  7  1  0
 10 11  1  0
 10  9  2  0
 12 23  2  0
 13 11  1  0
 13 18  1  0
 14 22  1  0
 14 24  1  0
 15 21  1  0
 15 17  1  0
 16 22  1  0
 17 16  1  0
 18 17  2  0
 19 20  1  0
 19 13  2  0
 20 15  2  0
 21 14  1  0
 22 12  1  0
 24 26  2  0
 25 24  1  0
 27 25  1  0
 28 37  2  0
 28 33  1  0
 29 25  1  0
 29 33  1  0
 30 29  1  0
 31 32  1  0
 31 30  1  0
 32 28  1  0
 33 34  2  0
 34 35  1  0
 36 35  2  0
 37 36  1  0
 38 12  1  0
 38 39  1  0
 38 48  1  0
 39 42  1  0
 40 44  1  0
 40 39  1  0
 41 40  2  0
 44 43  1  0
 46 44  1  0
 46 47  1  0
 46 45  1  0
 48 51  1  1
 48 49  1  0
 50 48  1  0
 52  4  1  0
 52 57  1  0
 53 54  1  0
 53 52  1  0
 55 53  1  0
 56 53  1  0
 59 64  1  0
 60 61  1  0
 60 59  1  0
 62 61  1  0
 62 71  1  0
 62 63  1  0
 64 58  1  0
 64 63  1  0
 65 58  2  0
 66 58  1  0
 66 57  1  0
 67 66  1  0
 68 69  2  0
 69 70  1  0
 69 88  1  0
 70 73  1  0
 71 68  1  0
 71 72  1  0
 72 70  2  0
 73 74  1  0
 74 75  2  0
 76 79  1  0
 76 75  1  0
 77 76  2  0
 78 77  1  0
 78 73  2  0
 79 80  1  0
 80 81  1  0
 81 82  2  0
 83 82  1  0
 83 87  1  0
 84 83  2  0
 85 80  2  0
 85 84  1  0
 86 85  1  0
 88 89  1  0
 89 92  1  0
 89 91  1  0
 90 88  2  0
 93 94  1  0
 93 68  1  0
 95 93  1  0
M  ISO  4  10 101  11 101  58 100  66 100
M  END
>  <TORSDO>  (96) 
F 22

>  <SCORE>  (96) 
-12.408

>  <name>  (96) 
96

>  <ligand_id>  (96) 
96

>  <original_smiles>  (96) 
[H]c1c([H])c([H])c2c(c1[H])C([H])([H])C([H])([H])C([H])([H])C2([H])N([H])C(=O)C1([H])N(C(=O)C([H])(N([H])C(=O)C([H])(N([H])C([H])([H])[H])C([H])([H])[H])C(C([H])([H])[H])(C([H])([H])[H])C([H])([H])[H])C([H])([H])c2c([H])c(OC([H])([H])C([H])([H])n3c([H])c(C([H])(C([H])([H])[H])C([H])([H])[H])c(C([H])(C([H])([H])N([H])C(=O)N4C([H])([H])C([H])([H])C([H])([H])C([H])(n5nc(-c6c([H])c([H])c(Oc7c([H])c([H])c(F)c([H])c7F)c([H])c6[H])c(C(=O)N([H])[H])c5N([H])[H])C4([H])[H])[N+]([H])([H])[H])c3[H])c([H])c([H])c2C1([H])[H]

>  <smiles>  (96) 
[H]c1c([H])c([H])c2c(c1[H])C([H])([H])C([H])([H])C([H])([H])C2([H])N([H])C(=O)C1([H])N(C(=O)C([H])(N([H])C(=O)C([H])(N([H])C([H])([H])[H])C([H])([H])[H])C(C([H])([H])[H])(C([H])([H])[H])C([H])([H])[H])C([H])([H])c2c([H])c(OC([H])([H])C([H])([H])n3c([H])c(C([H])(C([H])([H])[H])C([H])([H])[H])c(C([H])(C([H])([H])N([H])C(=O)N4C([H])([H])C([H])([H])C([H])([H])C([H])(n5nc(-c6c([H])c([H])c(Oc7c([H])c([H])c(F)c([H])c7F)c([H])c6[H])c(C(=O)N([H])[H])c5N([H])[H])C4([H])[H])[N+]([H])([H])[H])c3[H])c([H])c([H])c2C1([H])[H]

$$$$
