0:0:0
     RDKit          3D

 92100  0  0  1  0  0  0  0  0999 V2000
  -29.7610  -21.1950   20.3810 C   0  0  0  0  0  3  0  0  0  0  0  0
  -29.3960  -20.0290   19.6980 C   0  0  0  0  0  0  0  0  0  0  0  0
  -28.3040  -20.4870   18.8790 C   0  0  0  0  0  0  0  0  0  0  0  0
  -28.2280  -21.8690   18.9160 C   0  0  0  0  0  0  0  0  0  0  0  0
  -27.4110  -22.7650   18.0250 C   0  0  0  0  0  1  0  0  0  0  0  0
  -29.0750  -22.3590   19.9140 N   0  0  0  0  0  0  0  0  0  0  0  0
  -27.9280  -19.4500   16.5930 C   0  0  0  0  0  1  0  0  0  0  0  0
  -25.9310  -19.9490   18.1190 C   0  0  0  0  0  1  0  0  0  0  0  0
  -27.4210  -19.5750   18.0380 C   0  0  0  0  0  3  0  0  0  0  0  0
  -30.0240  -18.5410   19.5810 C   0  0  0  0  0  2  0  0  0  0  0  0
  -30.2600  -17.4680   20.7650 C   0  0  0  0  0  2  0  0  0  0  0  0
  -30.7410  -14.8590   20.2460 C   0  0  0  0  0  0  0  0  0  0  0  0
  -30.5020  -12.5950   19.1940 C   0  0  0  0  0  2  0  0  0  0  0  0
  -29.5220  -12.6760   18.0020 C   0  0  0  0  0  2  0  0  0  0  0  0
  -28.0670  -12.4970   18.4770 C   0  0  0  0  0  2  0  0  0  0  0  0
  -27.7300  -13.3770   19.7080 C   0  0  0  0  0  3  0  0  0  0  0  0
  -28.8220  -13.2760   20.7950 C   0  0  0  0  0  2  0  0  0  0  0  0
  -30.1030  -13.6370   20.1680 N   0  0  0  0  0  0  0  0  0  0  0  0
  -31.9200  -14.9640   19.9030 O   0  0  0  0  0  0  0  0  0  0  0  0
  -29.9650  -15.9750   20.5270 N   0  0  0  0  0  0  0  0  0  0  0  0
  -29.0110  -15.7260   20.7310 H   0  0  0  0  0  0  0  0  0  0  0  0
  -25.3680  -13.9670   20.5240 C   0  0  0  0  0  0  0  0  0  0  0  0
  -24.3100  -13.1950   20.9110 C   0  0  0  0  0  0  0  0  0  0  0  0
  -24.7610  -11.8410   20.8380 C   0  0  0  0  0  0  0  0  0  0  0  0
  -26.4000  -13.0880   20.2360 N   0  0  0  0  0  0  0  0  0  0  0  0
  -26.0420  -11.8030   20.4890 N   0  0  0  0  0  0  0  0  0  0  0  0
  -24.0310  -10.5800   21.0210 C   0  0  0  0  0  0  0  0  0  0  0  0
  -24.4630   -9.6030   21.9440 C   0  0  0  0  0  3  0  0  0  0  0  0
  -23.7320   -8.4090   22.1180 C   0  0  0  0  0  3  0  0  0  0  0  0
  -22.5530   -8.1820   21.3680 C   0  0  0  0  0  0  0  0  0  0  0  0
  -22.1390   -9.1480   20.4330 C   0  0  0  0  0  3  0  0  0  0  0  0
  -22.8710  -10.3360   20.2590 C   0  0  0  0  0  3  0  0  0  0  0  0
  -21.7950   -7.0410   21.4500 O   0  0  0  0  0  0  0  0  0  0  0  0
  -21.7290   -6.3000   22.6030 C   0  0  0  0  0  0  0  0  0  0  0  0
  -21.2780   -6.8570   23.8210 C   0  0  0  0  0  3  0  0  0  0  0  0
  -21.1620   -6.0440   24.9650 C   0  0  0  0  0  3  0  0  0  0  0  0
  -21.4860   -4.6760   24.8940 C   0  0  0  0  0  0  0  0  0  0  0  0
  -21.9280   -4.1190   23.6820 C   0  0  0  0  0  3  0  0  0  0  0  0
  -22.0480   -4.9280   22.5390 C   0  0  0  0  0  0  0  0  0  0  0  0
  -22.4560   -4.3830   21.3680 F   0  0  0  0  0  0  0  0  0  0  0  0
  -21.3670   -3.8920   25.9910 F   0  0  0  0  0  0  0  0  0  0  0  0
  -22.9240  -13.6740   21.2330 C   0  0  0  0  0  0  0  0  0  0  0  0
  -22.2200  -12.9720   22.1130 N   0  0  0  0  0  0  0  0  0  0  0  0
  -22.4760  -14.7090   20.7380 O   0  0  0  0  0  0  0  0  0  0  0  0
  -22.5990  -12.1370   22.5370 H   0  0  0  0  0  0  0  0  0  0  0  0
  -21.2900  -13.2730   22.3690 H   0  0  0  0  0  0  0  0  0  0  0  0
  -25.5290  -15.3420   20.3650 N   0  0  0  0  0  0  0  0  0  0  0  0
  -24.7490  -15.9770   20.4910 H   0  0  0  0  0  0  0  0  0  0  0  0
  -26.3440  -15.7890   19.9710 H   0  0  0  0  0  0  0  0  0  0  0  0
  -29.2770  -23.8200   20.3820 C   0  0  0  0  0  3  0  0  0  0  0  0
  -28.3280  -25.0360   19.8660 C   0  0  0  0  0  3  0  0  0  0  0  0
  -28.4840  -26.4810   20.2420 O   0  0  0  0  0  0  0  0  0  0  0  0
  -24.6360  -31.8860   23.1780 C   0  0  0  0  0  0  0  0  0  0  0  0
  -27.3630  -27.3450   20.1490 C   0  0  0  0  0  0  0  0  0  0  0  0
  -23.4750  -30.4780   21.5160 C   0  0  0  0  0  3  0  0  0  0  0  0
  -24.9750  -28.9550   20.0980 C   0  0  0  0  0  0  0  0  0  0  0  0
  -26.0150  -30.8190   21.3830 C   0  0  0  0  0  2  0  0  0  0  0  0
  -26.1280  -29.4460   20.7250 C   0  0  0  0  0  0  0  0  0  0  0  0
  -27.3210  -28.6530   20.7410 C   0  0  0  0  0  3  0  0  0  0  0  0
  -26.1870  -26.9290   19.4790 C   0  0  0  0  0  3  0  0  0  0  0  0
  -25.0110  -27.7050   19.4590 C   0  0  0  0  0  3  0  0  0  0  0  0
  -23.7190  -29.8070   20.1380 C   0  0  0  0  0  2  0  0  0  0  0  0
  -24.7270  -31.0740   22.0840 N   0  0  0  0  0  0  0  0  0  0  0  0
  -23.5400  -32.1610   23.6880 O   0  0  0  0  0  0  0  0  0  0  0  0
  -22.8020  -29.4540   22.4590 C   0  0  0  0  0  0  0  0  0  0  0  0
  -21.4740  -29.2900   22.3280 N   0  0  0  0  0  0  0  0  0  0  0  0
  -23.4750  -28.8090   23.2680 O   0  0  0  0  0  0  0  0  0  0  0  0
  -20.9880  -29.8600   21.6500 H   0  0  0  0  0  0  0  0  0  0  0  0
  -18.0810  -28.1570   22.8530 C   0  0  0  0  0  0  0  0  0  0  0  0
  -20.6480  -28.3500   23.0880 C   0  0  0  0  0  3  0  0  0  0  0  0
  -20.7070  -26.9330   22.4720 C   0  0  0  0  0  2  0  0  0  0  0  0
  -19.5820  -26.6650   21.4660 C   0  0  0  0  0  2  0  0  0  0  0  0
  -18.2150  -26.8240   22.1360 C   0  0  0  0  0  2  0  0  0  0  0  0
  -19.2230  -28.8810   23.2870 C   0  0  0  0  0  0  0  0  0  0  0  0
  -19.0440  -30.1320   23.9150 C   0  0  0  0  0  3  0  0  0  0  0  0
  -17.7530  -30.6600   24.1120 C   0  0  0  0  0  3  0  0  0  0  0  0
  -16.6260  -29.9310   23.6960 C   0  0  0  0  0  3  0  0  0  0  0  0
  -16.7900  -28.6820   23.0720 C   0  0  0  0  0  3  0  0  0  0  0  0
  -25.9040  -32.5220   23.8250 C   0  0  0  0  0  3  0  0  0  0  0  0
  -25.5750  -33.9140   24.1590 N   0  0  0  0  0  0  0  0  0  0  0  0
  -25.9160  -34.9750   23.4140 C   0  0  0  0  0  0  0  0  0  0  0  0
  -26.6040  -34.8830   22.3940 O   0  0  0  0  0  0  0  0  0  0  0  0
  -24.9450  -34.0560   24.9350 H   0  0  0  0  0  0  0  0  0  0  0  0
  -24.1790  -36.7520   23.0430 C   0  0  0  0  0  1  0  0  0  0  0  0
  -25.4100  -36.3550   23.8710 C   0  0  0  0  0  3  0  0  0  0  0  0
  -27.5200  -37.2510   24.7460 C   0  0  0  0  0  1  0  0  0  0  0  0
  -26.4370  -37.4140   23.7800 N   0  0  0  0  0  0  0  0  0  0  0  0
  -26.0220  -38.3310   23.9240 H   0  0  0  0  0  0  0  0  0  0  0  0
  -26.4070  -31.7430   25.1030 C   0  0  1  0  0  0  0  0  0  0  0  0
  -25.2900  -31.4840   26.1420 C   0  0  0  0  0  1  0  0  0  0  0  0
  -27.0110  -30.3730   24.7130 C   0  0  0  0  0  1  0  0  0  0  0  0
  -27.5410  -32.5400   25.7850 C   0  0  0  0  0  1  0  0  0  0  0  0
  2  1  2  0
  3  4  2  0
  3  2  1  0
  4  6  1  0
  5  4  1  0
  6  1  1  0
  6 50  1  0
  7  9  1  0
  9  8  1  0
  9  3  1  0
 10  2  1  0
 10 11  1  0
 12 20  1  0
 13 18  1  0
 14 15  1  0
 14 13  1  0
 16 15  1  0
 16 25  1  0
 16 17  1  0
 18 12  1  0
 18 17  1  0
 19 12  2  0
 20 21  1  0
 20 11  1  0
 22 23  2  0
 23 42  1  0
 24 23  1  0
 24 27  1  0
 25 26  1  0
 25 22  1  0
 26 24  2  0
 27 28  1  0
 28 29  2  0
 30 33  1  0
 30 29  1  0
 31 30  2  0
 32 31  1  0
 32 27  2  0
 33 34  1  0
 34 35  1  0
 35 36  2  0
 37 36  1  0
 37 41  1  0
 38 37  2  0
 39 34  2  0
 39 38  1  0
 40 39  1  0
 42 43  1  0
 43 46  1  0
 43 45  1  0
 44 42  2  0
 47 48  1  0
 47 22  1  0
 49 47  1  0
 51 52  1  0
 51 50  2  0
 53 64  2  0
 54 52  1  0
 54 59  1  0
 55 63  1  0
 55 65  1  0
 56 62  1  0
 56 58  1  0
 57 63  1  0
 58 59  2  0
 58 57  1  0
 60 54  2  0
 61 60  1  0
 61 56  2  0
 62 55  1  0
 63 53  1  0
 65 67  2  0
 66 65  1  0
 68 66  1  0
 69 78  2  0
 69 74  1  0
 70 66  1  0
 70 74  1  0
 71 70  1  0
 72 73  1  0
 72 71  1  0
 73 69  1  0
 74 75  2  0
 75 76  1  0
 77 76  2  0
 78 77  1  0
 79 53  1  0
 79 80  1  0
 79 89  1  0
 80 83  1  0
 81 85  1  0
 81 80  1  0
 82 81  2  0
 85 84  1  0
 87 85  1  0
 87 88  1  0
 87 86  1  0
 89 92  1  1
 89 90  1  0
 91 89  1  0
M  ISO  4  12 100  20 100  51 101  52 101
M  END
>  <TORSDO>  (1) 
F 21

>  <SCORE>  (1) 
-13.515

>  <name>  (1) 
0

>  <ligand_id>  (1) 
0

>  <original_smiles>  (1) 
[H]c1c([H])c([H])c2c(c1[H])C([H])([H])C([H])([H])C([H])([H])C2([H])N([H])C(=O)C1([H])N(C(=O)C([H])(N([H])C(=O)C([H])(N([H])C([H])([H])[H])C([H])([H])[H])C(C([H])([H])[H])(C([H])([H])[H])C([H])([H])[H])C([H])([H])c2c([H])c(OC([H])([H])C([H])([H])n3c([H])c(C([H])([H])C([H])([H])N([H])C(=O)N4C([H])([H])C([H])([H])C([H])([H])C([H])(n5nc(-c6c([H])c([H])c(Oc7c([H])c([H])c(F)c([H])c7F)c([H])c6[H])c(C(=O)N([H])[H])c5N([H])[H])C4([H])[H])c(C([H])(C([H])([H])[H])C([H])([H])[H])c3C([H])([H])[H])c([H])c([H])c2C1([H])[H]

>  <smiles>  (1) 
[H]c1c([H])c([H])c2c(c1[H])C([H])([H])C([H])([H])C([H])([H])C2([H])N([H])C(=O)C1([H])N(C(=O)C([H])(N([H])C(=O)C([H])(N([H])C([H])([H])[H])C([H])([H])[H])C(C([H])([H])[H])(C([H])([H])[H])C([H])([H])[H])C([H])([H])c2c([H])c(OC([H])([H])C([H])([H])n3c([H])c(C([H])([H])C([H])([H])N([H])C(=O)N4C([H])([H])C([H])([H])C([H])([H])C([H])(n5nc(-c6c([H])c([H])c(Oc7c([H])c([H])c(F)c([H])c7F)c([H])c6[H])c(C(=O)N([H])[H])c5N([H])[H])C4([H])[H])c(C([H])(C([H])([H])[H])C([H])([H])[H])c3C([H])([H])[H])c([H])c([H])c2C1([H])[H]

$$$$
1:0:0
     RDKit          3D

 98106  0  0  1  0  0  0  0  0999 V2000
  -28.6770  -22.0910   21.3270 C   0  0  0  0  0  3  0  0  0  0  0  0
  -28.2910  -23.5290   21.4100 C   0  0  0  0  0  3  0  0  0  0  0  0
  -29.3270  -21.4270   20.2000 C   0  0  0  0  0  0  0  0  0  0  0  0
  -29.4670  -22.5190   19.2130 C   0  0  0  0  0  0  0  0  0  0  0  0
  -28.4710  -24.5300   20.3700 C   0  0  0  0  0  0  0  0  0  0  0  0
  -29.1040  -23.8940   19.3110 N   0  0  0  0  0  0  0  0  0  0  0  0
  -31.5600  -22.9040   17.8230 C   0  0  0  0  0  1  0  0  0  0  0  0
  -29.2980  -22.6290   16.6730 C   0  0  0  0  0  1  0  0  0  0  0  0
  -30.1700  -22.2430   17.8800 C   0  0  0  0  0  3  0  0  0  0  0  0
  -28.4010  -26.0610   20.4330 O   0  0  0  0  0  0  0  0  0  0  0  0
  -24.6440  -31.9510   23.2570 C   0  0  0  0  0  0  0  0  0  0  0  0
  -27.3090  -27.0660   20.3860 C   0  0  0  0  0  0  0  0  0  0  0  0
  -23.4860  -30.5110   21.6270 C   0  0  0  0  0  3  0  0  0  0  0  0
  -24.9720  -28.8880   20.2640 C   0  0  0  0  0  0  0  0  0  0  0  0
  -26.0490  -30.7540   21.5090 C   0  0  0  0  0  2  0  0  0  0  0  0
  -26.1420  -29.3310   20.8930 C   0  0  0  0  0  0  0  0  0  0  0  0
  -27.3010  -28.4420   20.9300 C   0  0  0  0  0  3  0  0  0  0  0  0
  -26.1060  -26.7620   19.7060 C   0  0  0  0  0  3  0  0  0  0  0  0
  -24.9770  -27.6230   19.6510 C   0  0  0  0  0  3  0  0  0  0  0  0
  -23.7430  -29.7970   20.2690 C   0  0  0  0  0  2  0  0  0  0  0  0
  -24.7480  -31.0990   22.1850 N   0  0  0  0  0  0  0  0  0  0  0  0
  -23.5460  -32.2380   23.7580 O   0  0  0  0  0  0  0  0  0  0  0  0
  -22.7880  -29.5280   22.6030 C   0  0  0  0  0  0  0  0  0  0  0  0
  -21.4620  -29.3440   22.4560 N   0  0  0  0  0  0  0  0  0  0  0  0
  -23.4460  -28.9320   23.4580 O   0  0  0  0  0  0  0  0  0  0  0  0
  -20.9840  -29.8810   21.7450 H   0  0  0  0  0  0  0  0  0  0  0  0
  -18.0830  -28.1170   22.9400 C   0  0  0  0  0  0  0  0  0  0  0  0
  -20.6360  -28.4110   23.2320 C   0  0  0  0  0  3  0  0  0  0  0  0
  -20.7570  -26.9700   22.6840 C   0  0  0  0  0  2  0  0  0  0  0  0
  -19.6730  -26.6190   21.6620 C   0  0  0  0  0  2  0  0  0  0  0  0
  -18.2810  -26.7610   22.2830 C   0  0  0  0  0  2  0  0  0  0  0  0
  -19.1880  -28.8980   23.3710 C   0  0  0  0  0  0  0  0  0  0  0  0
  -18.9490  -30.1650   23.9450 C   0  0  0  0  0  3  0  0  0  0  0  0
  -17.6370  -30.6530   24.0930 C   0  0  0  0  0  3  0  0  0  0  0  0
  -16.5450  -29.8700   23.6760 C   0  0  0  0  0  3  0  0  0  0  0  0
  -16.7690  -28.6030   23.1070 C   0  0  0  0  0  3  0  0  0  0  0  0
  -25.9000  -32.6160   23.8970 C   0  0  0  0  0  3  0  0  0  0  0  0
  -25.5670  -34.0210   24.1980 N   0  0  0  0  0  0  0  0  0  0  0  0
  -25.9060  -35.0700   23.4370 C   0  0  0  0  0  0  0  0  0  0  0  0
  -26.5940  -34.9600   22.4190 O   0  0  0  0  0  0  0  0  0  0  0  0
  -24.9600  -34.1810   24.9880 H   0  0  0  0  0  0  0  0  0  0  0  0
  -24.1830  -36.8630   23.0280 C   0  0  0  0  0  1  0  0  0  0  0  0
  -25.4040  -36.4620   23.8740 C   0  0  0  0  0  3  0  0  0  0  0  0
  -27.5070  -37.3690   24.7600 C   0  0  0  0  0  1  0  0  0  0  0  0
  -26.4350  -37.5190   23.7800 N   0  0  0  0  0  0  0  0  0  0  0  0
  -26.0200  -38.4390   23.9010 H   0  0  0  0  0  0  0  0  0  0  0  0
  -26.3900  -31.8850   25.2070 C   0  0  1  0  0  0  0  0  0  0  0  0
  -25.2710  -31.6530   26.2500 C   0  0  0  0  0  1  0  0  0  0  0  0
  -27.0070  -30.5090   24.8710 C   0  0  0  0  0  1  0  0  0  0  0  0
  -27.5090  -32.7120   25.8840 C   0  0  0  0  0  1  0  0  0  0  0  0
  -29.9470  -19.7800   19.9980 C   0  0  0  0  0  3  0  0  0  0  0  0
  -31.4210  -19.9480   19.9270 N   0  0  0  0  0  4  0  0  0  0  0  0
  -31.6370  -20.9190   19.7850 H   0  0  0  0  0  0  0  0  0  0  0  0
  -31.8050  -19.6930   20.8230 H   0  0  0  0  0  0  0  0  0  0  0  0
  -32.1380  -19.1580   18.8990 C   0  0  0  0  0  2  0  0  0  0  0  0
  -34.2400  -20.6090   18.9320 C   0  0  0  0  0  1  0  0  0  0  0  0
  -34.0500  -18.6420   20.5030 C   0  0  0  0  0  1  0  0  0  0  0  0
  -34.3440  -18.2660   18.0580 C   0  0  0  0  0  1  0  0  0  0  0  0
  -33.6800  -19.1810   19.1040 C   0  0  1  0  0  0  0  0  0  0  0  0
  -29.7650  -18.2170   20.8260 C   0  0  0  0  0  2  0  0  0  0  0  0
  -30.6510  -15.3830   20.3220 C   0  0  0  0  0  0  0  0  0  0  0  0
  -30.6330  -12.9700   19.3640 C   0  0  0  0  0  2  0  0  0  0  0  0
  -29.6950  -12.7890   18.1450 C   0  0  0  0  0  2  0  0  0  0  0  0
  -28.2540  -12.5010   18.6050 C   0  0  0  0  0  2  0  0  0  0  0  0
  -27.8080  -13.4440   19.7480 C   0  0  0  0  0  3  0  0  0  0  0  0
  -28.8700  -13.5700   20.8590 C   0  0  0  0  0  2  0  0  0  0  0  0
  -30.0890  -14.0850   20.2120 N   0  0  0  0  0  0  0  0  0  0  0  0
  -31.8790  -15.4080   20.1880 O   0  0  0  0  0  0  0  0  0  0  0  0
  -29.8370  -16.6160   20.3500 N   0  0  0  0  0  0  0  0  0  0  0  0
  -28.8910  -16.3170   20.1610 H   0  0  0  0  0  0  0  0  0  0  0  0
  -25.4360  -13.9780   20.5200 C   0  0  0  0  0  0  0  0  0  0  0  0
  -24.3830  -13.1890   20.8880 C   0  0  0  0  0  0  0  0  0  0  0  0
  -24.8610  -11.8430   20.8420 C   0  0  0  0  0  0  0  0  0  0  0  0
  -26.4860  -13.1150   20.2650 N   0  0  0  0  0  0  0  0  0  0  0  0
  -26.1530  -11.8240   20.5270 N   0  0  0  0  0  0  0  0  0  0  0  0
  -24.1450  -10.5730   21.0220 C   0  0  0  0  0  0  0  0  0  0  0  0
  -24.5630   -9.6160   21.9730 C   0  0  0  0  0  3  0  0  0  0  0  0
  -23.8430   -8.4140   22.1430 C   0  0  0  0  0  3  0  0  0  0  0  0
  -22.6920   -8.1600   21.3600 C   0  0  0  0  0  0  0  0  0  0  0  0
  -22.2920   -9.1050   20.4000 C   0  0  0  0  0  3  0  0  0  0  0  0
  -23.0120  -10.2990   20.2280 C   0  0  0  0  0  3  0  0  0  0  0  0
  -21.9480   -7.0070   21.4360 O   0  0  0  0  0  0  0  0  0  0  0  0
  -21.8500   -6.2890   22.6020 C   0  0  0  0  0  0  0  0  0  0  0  0
  -21.3130   -6.8520   23.7800 C   0  0  0  0  0  3  0  0  0  0  0  0
  -21.1650   -6.0590   24.9340 C   0  0  0  0  0  3  0  0  0  0  0  0
  -21.5460   -4.7040   24.9130 C   0  0  0  0  0  0  0  0  0  0  0  0
  -22.0750   -4.1400   23.7390 C   0  0  0  0  0  3  0  0  0  0  0  0
  -22.2240   -4.9300   22.5860 C   0  0  0  0  0  0  0  0  0  0  0  0
  -22.7150   -4.3770   21.4510 F   0  0  0  0  0  0  0  0  0  0  0  0
  -21.3970   -3.9400   26.0200 F   0  0  0  0  0  0  0  0  0  0  0  0
  -22.9820  -13.6500   21.1630 C   0  0  0  0  0  0  0  0  0  0  0  0
  -22.2630  -12.9420   22.0250 N   0  0  0  0  0  0  0  0  0  0  0  0
  -22.5360  -14.6770   20.6520 O   0  0  0  0  0  0  0  0  0  0  0  0
  -22.6370  -12.1080   22.4530 H   0  0  0  0  0  0  0  0  0  0  0  0
  -21.3250  -13.2360   22.2590 H   0  0  0  0  0  0  0  0  0  0  0  0
  -25.5790  -15.3530   20.3530 N   0  0  0  0  0  0  0  0  0  0  0  0
  -24.7950  -15.9860   20.4690 H   0  0  0  0  0  0  0  0  0  0  0  0
  -26.3980  -15.8040   19.9700 H   0  0  0  0  0  0  0  0  0  0  0  0
  1  2  2  0
  3  1  1  0
  4  6  1  0
  4  3  2  0
  5 10  1  0
  5  2  1  0
  6  5  2  0
  7  9  1  0
  8  9  1  0
  9  4  1  0
 11 22  2  0
 12 10  1  0
 12 17  1  0
 13 21  1  0
 13 23  1  0
 14 20  1  0
 14 16  1  0
 15 21  1  0
 16 17  2  0
 16 15  1  0
 18 12  2  0
 19 18  1  0
 19 14  2  0
 20 13  1  0
 21 11  1  0
 23 25  2  0
 24 23  1  0
 26 24  1  0
 27 36  2  0
 27 32  1  0
 28 24  1  0
 28 32  1  0
 29 28  1  0
 30 31  1  0
 30 29  1  0
 31 27  1  0
 32 33  2  0
 33 34  1  0
 35 34  2  0
 36 35  1  0
 37 11  1  0
 37 38  1  0
 37 47  1  0
 38 41  1  0
 39 43  1  0
 39 38  1  0
 40 39  2  0
 43 42  1  0
 45 43  1  0
 45 46  1  0
 45 44  1  0
 47 50  1  1
 47 48  1  0
 49 47  1  0
 51  3  1  0
 51 60  1  0
 52 51  1  0
 52 54  1  0
 53 52  1  0
 55 59  1  0
 55 52  1  0
 59 56  1  1
 58 59  1  0
 59 57  1  0
 61 69  1  0
 62 67  1  0
 63 64  1  0
 63 62  1  0
 65 64  1  0
 65 74  1  0
 65 66  1  0
 67 61  1  0
 67 66  1  0
 68 61  2  0
 69 60  1  0
 70 69  1  0
 71 72  2  0
 72 91  1  0
 73 72  1  0
 73 76  1  0
 74 71  1  0
 74 75  1  0
 75 73  2  0
 76 77  1  0
 77 78  2  0
 79 82  1  0
 79 78  1  0
 80 79  2  0
 81 80  1  0
 81 76  2  0
 82 83  1  0
 83 84  1  0
 84 85  2  0
 86 85  1  0
 86 90  1  0
 87 86  2  0
 88 83  2  0
 88 87  1  0
 89 88  1  0
 91 92  1  0
 92 95  1  0
 92 94  1  0
 93 91  2  0
 96 97  1  0
 96 71  1  0
 98 96  1  0
M  ISO  4   5 101  10 101  61 100  69 100
M  END
>  <TORSDO>  (2) 
F 22

>  <SCORE>  (2) 
-14.115

>  <name>  (2) 
1

>  <ligand_id>  (2) 
1

>  <original_smiles>  (2) 
[H]c1c(Oc2c([H])c([H])c3c(c2[H])C([H])([H])N(C(=O)C([H])(N([H])C(=O)C([H])(N([H])C([H])([H])[H])C([H])([H])[H])C(C([H])([H])[H])(C([H])([H])[H])C([H])([H])[H])C([H])(C(=O)N([H])C2([H])c4c([H])c([H])c([H])c([H])c4C([H])([H])C([H])([H])C2([H])[H])C3([H])[H])nc(C([H])(C([H])([H])[H])C([H])([H])[H])c(C([H])(C([H])([H])N([H])C(=O)N2C([H])([H])C([H])([H])C([H])([H])C([H])(n3nc(-c4c([H])c([H])c(Oc5c([H])c([H])c(F)c([H])c5F)c([H])c4[H])c(C(=O)N([H])[H])c3N([H])[H])C2([H])[H])[N+]([H])([H])C([H])([H])C(C([H])([H])[H])(C([H])([H])[H])C([H])([H])[H])c1[H]

>  <smiles>  (2) 
[H]c1c(Oc2c([H])c([H])c3c(c2[H])C([H])([H])N(C(=O)C([H])(N([H])C(=O)C([H])(N([H])C([H])([H])[H])C([H])([H])[H])C(C([H])([H])[H])(C([H])([H])[H])C([H])([H])[H])C([H])(C(=O)N([H])C2([H])c4c([H])c([H])c([H])c([H])c4C([H])([H])C([H])([H])C2([H])[H])C3([H])[H])nc(C([H])(C([H])([H])[H])C([H])([H])[H])c(C([H])(C([H])([H])N([H])C(=O)N2C([H])([H])C([H])([H])C([H])([H])C([H])(n3nc(-c4c([H])c([H])c(Oc5c([H])c([H])c(F)c([H])c5F)c([H])c4[H])c(C(=O)N([H])[H])c3N([H])[H])C2([H])[H])[N+]([H])([H])C([H])([H])C(C([H])([H])[H])(C([H])([H])[H])C([H])([H])[H])c1[H]

$$$$
2:0:0
     RDKit          3D

 91 99  0  0  1  0  0  0  0  0999 V2000
  -28.5510  -21.9840   20.5020 C   0  0  0  0  0  2  0  0  0  0  0  0
  -29.5610  -20.8320   20.2330 N   0  0  0  0  0  4  0  0  0  0  0  0
  -29.8030  -20.8590   19.2560 H   0  0  0  0  0  0  0  0  0  0  0  0
  -30.3880  -21.1410   20.7190 H   0  0  0  0  0  0  0  0  0  0  0  0
  -30.6220  -14.8650   20.3540 C   0  0  0  0  0  0  0  0  0  0  0  0
  -30.3920  -12.5700   19.3560 C   0  0  0  0  0  2  0  0  0  0  0  0
  -29.4540  -12.5770   18.1310 C   0  0  0  0  0  2  0  0  0  0  0  0
  -27.9940  -12.3750   18.5770 C   0  0  0  0  0  2  0  0  0  0  0  0
  -27.6040  -13.2900   19.7670 C   0  0  0  0  0  3  0  0  0  0  0  0
  -28.6690  -13.2920   20.8840 C   0  0  0  0  0  2  0  0  0  0  0  0
  -29.9470  -13.6600   20.2630 N   0  0  0  0  0  0  0  0  0  0  0  0
  -31.8300  -14.8680   20.0930 O   0  0  0  0  0  0  0  0  0  0  0  0
  -30.6500  -18.6300   21.1820 C   0  0  0  0  0  2  0  0  0  0  0  0
  -28.9410  -18.3040   19.5380 C   0  0  0  0  0  2  0  0  0  0  0  0
  -30.5620  -17.0960   21.6080 C   0  0  0  0  0  2  0  0  0  0  0  0
  -28.8540  -16.7410   19.9140 C   0  0  0  0  0  2  0  0  0  0  0  0
  -29.3510  -19.3380   20.6580 C   0  0  0  0  0  3  0  0  0  0  0  0
  -29.9820  -16.0900   20.6590 N   0  0  0  0  0  0  0  0  0  0  0  0
  -25.2270  -13.8680   20.5190 C   0  0  0  0  0  0  0  0  0  0  0  0
  -24.1650  -13.0900   20.8870 C   0  0  0  0  0  0  0  0  0  0  0  0
  -24.6330  -11.7410   20.8490 C   0  0  0  0  0  0  0  0  0  0  0  0
  -26.2700  -12.9930   20.2730 N   0  0  0  0  0  0  0  0  0  0  0  0
  -25.9230  -11.7070   20.5370 N   0  0  0  0  0  0  0  0  0  0  0  0
  -23.9090  -10.4760   21.0310 C   0  0  0  0  0  0  0  0  0  0  0  0
  -24.3290   -9.5150   21.9760 C   0  0  0  0  0  3  0  0  0  0  0  0
  -23.6040   -8.3150   22.1460 C   0  0  0  0  0  3  0  0  0  0  0  0
  -22.4460   -8.0700   21.3710 C   0  0  0  0  0  0  0  0  0  0  0  0
  -22.0470   -9.0200   20.4130 C   0  0  0  0  0  3  0  0  0  0  0  0
  -22.7720  -10.2110   20.2420 C   0  0  0  0  0  3  0  0  0  0  0  0
  -21.6940   -6.9220   21.4500 O   0  0  0  0  0  0  0  0  0  0  0  0
  -21.6070   -6.1980   22.6120 C   0  0  0  0  0  0  0  0  0  0  0  0
  -21.1210   -6.7670   23.8090 C   0  0  0  0  0  3  0  0  0  0  0  0
  -20.9830   -5.9680   24.9630 C   0  0  0  0  0  3  0  0  0  0  0  0
  -21.3210   -4.6030   24.9190 C   0  0  0  0  0  0  0  0  0  0  0  0
  -21.8000   -4.0340   23.7250 C   0  0  0  0  0  3  0  0  0  0  0  0
  -21.9400   -4.8290   22.5740 C   0  0  0  0  0  0  0  0  0  0  0  0
  -22.3820   -4.2720   21.4220 F   0  0  0  0  0  0  0  0  0  0  0  0
  -21.1810   -3.8330   26.0230 F   0  0  0  0  0  0  0  0  0  0  0  0
  -22.7680  -13.5640   21.1610 C   0  0  0  0  0  0  0  0  0  0  0  0
  -22.0400  -12.8590   22.0190 N   0  0  0  0  0  0  0  0  0  0  0  0
  -22.3310  -14.5940   20.6500 O   0  0  0  0  0  0  0  0  0  0  0  0
  -22.4060  -12.0250   22.4530 H   0  0  0  0  0  0  0  0  0  0  0  0
  -21.1010  -13.1590   22.2450 H   0  0  0  0  0  0  0  0  0  0  0  0
  -25.3870  -15.2400   20.3460 N   0  0  0  0  0  0  0  0  0  0  0  0
  -24.6160  -15.8900   20.4580 H   0  0  0  0  0  0  0  0  0  0  0  0
  -26.2290  -15.6790   20.0020 H   0  0  0  0  0  0  0  0  0  0  0  0
  -29.0130  -23.5560   20.2530 C   0  0  0  0  0  3  0  0  0  0  0  0
  -30.1480  -23.7360   21.0890 O   0  0  0  0  0  0  0  0  0  0  0  0
  -29.8370  -23.9170   21.9720 H   0  0  0  0  0  0  0  0  0  0  0  0
  -27.9970  -24.8260   20.5450 C   0  0  0  0  0  2  0  0  0  0  0  0
  -28.2770  -26.3020   20.2340 O   0  0  0  0  0  0  0  0  0  0  0  0
  -24.6170  -31.8890   23.2410 C   0  0  0  0  0  0  0  0  0  0  0  0
  -27.2000  -27.2380   20.2010 C   0  0  0  0  0  0  0  0  0  0  0  0
  -23.4140  -30.4940   21.6020 C   0  0  0  0  0  3  0  0  0  0  0  0
  -24.8610  -28.9320   20.1760 C   0  0  0  0  0  0  0  0  0  0  0  0
  -25.9620  -30.7810   21.4260 C   0  0  0  0  0  2  0  0  0  0  0  0
  -26.0380  -29.3950   20.7800 C   0  0  0  0  0  0  0  0  0  0  0  0
  -27.2120  -28.5630   20.7770 C   0  0  0  0  0  3  0  0  0  0  0  0
  -26.0020  -26.8670   19.5510 C   0  0  0  0  0  3  0  0  0  0  0  0
  -24.8510  -27.6790   19.5480 C   0  0  0  0  0  3  0  0  0  0  0  0
  -23.6290  -29.8190   20.2230 C   0  0  0  0  0  2  0  0  0  0  0  0
  -24.6840  -31.0740   22.1460 N   0  0  0  0  0  0  0  0  0  0  0  0
  -23.5330  -32.1700   23.7720 O   0  0  0  0  0  0  0  0  0  0  0  0
  -22.7430  -29.4810   22.5630 C   0  0  0  0  0  0  0  0  0  0  0  0
  -21.4160  -29.3050   22.4350 N   0  0  0  0  0  0  0  0  0  0  0  0
  -23.4180  -28.8560   23.3850 O   0  0  0  0  0  0  0  0  0  0  0  0
  -20.9300  -29.8610   21.7450 H   0  0  0  0  0  0  0  0  0  0  0  0
  -18.0370  -28.1060   22.9350 C   0  0  0  0  0  0  0  0  0  0  0  0
  -20.5950  -28.3680   23.2060 C   0  0  0  0  0  3  0  0  0  0  0  0
  -20.6980  -26.9360   22.6310 C   0  0  0  0  0  2  0  0  0  0  0  0
  -19.5960  -26.6130   21.6160 C   0  0  0  0  0  2  0  0  0  0  0  0
  -18.2150  -26.7570   22.2590 C   0  0  0  0  0  2  0  0  0  0  0  0
  -19.1550  -28.8690   23.3640 C   0  0  0  0  0  0  0  0  0  0  0  0
  -18.9340  -30.1320   23.9570 C   0  0  0  0  0  3  0  0  0  0  0  0
  -17.6290  -30.6320   24.1230 C   0  0  0  0  0  3  0  0  0  0  0  0
  -16.5260  -29.8650   23.7100 C   0  0  0  0  0  3  0  0  0  0  0  0
  -16.7300  -28.6050   23.1200 C   0  0  0  0  0  3  0  0  0  0  0  0
  -25.8970  -32.5240   23.8650 C   0  0  0  0  0  3  0  0  0  0  0  0
  -26.4060  -31.7580   25.1480 C   0  0  1  0  0  0  0  0  0  0  0  0
  -25.3070  -31.5280   26.2130 C   0  0  0  0  0  1  0  0  0  0  0  0
  -26.9870  -30.3760   24.7680 C   0  0  0  0  0  1  0  0  0  0  0  0
  -27.5560  -32.5520   25.8100 C   0  0  0  0  0  1  0  0  0  0  0  0
  -25.5880  -33.9240   24.1900 N   0  0  0  0  0  0  0  0  0  0  0  0
  -25.9180  -34.9750   23.4280 C   0  0  0  0  0  0  0  0  0  0  0  0
  -26.5830  -34.8680   22.3940 O   0  0  0  0  0  0  0  0  0  0  0  0
  -24.9960  -34.0810   24.9920 H   0  0  0  0  0  0  0  0  0  0  0  0
  -24.1930  -36.7730   23.0770 C   0  0  0  0  0  1  0  0  0  0  0  0
  -25.4360  -36.3660   23.8840 C   0  0  0  0  0  3  0  0  0  0  0  0
  -27.5740  -37.2510   24.7080 C   0  0  0  0  0  1  0  0  0  0  0  0
  -26.4710  -37.4170   23.7650 N   0  0  0  0  0  0  0  0  0  0  0  0
  -26.0660  -38.3380   23.9100 H   0  0  0  0  0  0  0  0  0  0  0  0
  2  1  1  0
  2  4  1  0
  3  2  1  0
  5 18  1  0
  6 11  1  0
  7  8  1  0
  7  6  1  0
  9  8  1  0
  9 22  1  0
  9 10  1  0
 11  5  1  0
 11 10  1  0
 12  5  2  0
 13 15  1  0
 14 16  1  0
 14 17  1  0
 16 18  1  0
 17  2  1  0
 17 13  1  0
 18 15  1  0
 19 20  2  0
 20 39  1  0
 21 20  1  0
 21 24  1  0
 22 19  1  0
 22 23  1  0
 23 21  2  0
 24 25  1  0
 25 26  2  0
 27 30  1  0
 27 26  1  0
 28 27  2  0
 29 28  1  0
 29 24  2  0
 30 31  1  0
 31 32  1  0
 32 33  2  0
 34 33  1  0
 34 38  1  0
 35 34  2  0
 36 31  2  0
 36 35  1  0
 37 36  1  0
 39 40  1  0
 40 43  1  0
 40 42  1  0
 41 39  2  0
 44 45  1  0
 44 19  1  0
 46 44  1  0
 47  1  1  0
 47 50  1  0
 47 48  1  0
 48 49  1  0
 51 50  1  0
 52 63  2  0
 53 51  1  0
 53 58  1  0
 54 62  1  0
 54 64  1  0
 55 61  1  0
 55 57  1  0
 56 62  1  0
 57 56  1  0
 58 57  2  0
 59 53  2  0
 60 59  1  0
 60 55  2  0
 61 54  1  0
 62 52  1  0
 64 66  2  0
 65 64  1  0
 67 65  1  0
 68 77  2  0
 68 73  1  0
 69 65  1  0
 69 73  1  0
 70 69  1  0
 71 72  1  0
 71 70  1  0
 72 68  1  0
 73 74  2  0
 74 75  1  0
 76 75  2  0
 77 76  1  0
 78 52  1  0
 78 83  1  0
 78 79  1  0
 79 82  1  1
 79 80  1  0
 81 79  1  0
 83 86  1  0
 84 88  1  0
 84 83  1  0
 85 84  2  0
 88 87  1  0
 90 88  1  0
 90 91  1  0
 90 89  1  0
M  ISO  4   5 100  18 100  50 101  51 101
M  END
>  <TORSDO>  (3) 
F 20

>  <SCORE>  (3) 
-14.114

>  <name>  (3) 
2

>  <ligand_id>  (3) 
2

>  <original_smiles>  (3) 
[H]OC([H])(C([H])([H])Oc1c([H])c([H])c2c(c1[H])C([H])([H])N(C(=O)C([H])(N([H])C(=O)C([H])(N([H])C([H])([H])[H])C([H])([H])[H])C(C([H])([H])[H])(C([H])([H])[H])C([H])([H])[H])C([H])(C(=O)N([H])C1([H])c3c([H])c([H])c([H])c([H])c3C([H])([H])C([H])([H])C1([H])[H])C2([H])[H])C([H])([H])[N+]([H])([H])C1([H])C([H])([H])C([H])([H])N(C(=O)N2C([H])([H])C([H])([H])C([H])([H])C([H])(n3nc(-c4c([H])c([H])c(Oc5c([H])c([H])c(F)c([H])c5F)c([H])c4[H])c(C(=O)N([H])[H])c3N([H])[H])C2([H])[H])C([H])([H])C1([H])[H]

>  <smiles>  (3) 
[H]OC([H])(C([H])([H])Oc1c([H])c([H])c2c(c1[H])C([H])([H])N(C(=O)C([H])(N([H])C(=O)C([H])(N([H])C([H])([H])[H])C([H])([H])[H])C(C([H])([H])[H])(C([H])([H])[H])C([H])([H])[H])C([H])(C(=O)N([H])C1([H])c3c([H])c([H])c([H])c([H])c3C([H])([H])C([H])([H])C1([H])[H])C2([H])[H])C([H])([H])[N+]([H])([H])C1([H])C([H])([H])C([H])([H])N(C(=O)N2C([H])([H])C([H])([H])C([H])([H])C([H])(n3nc(-c4c([H])c([H])c(Oc5c([H])c([H])c(F)c([H])c5F)c([H])c4[H])c(C(=O)N([H])[H])c3N([H])[H])C2([H])[H])C([H])([H])C1([H])[H]

$$$$
3:0:0
     RDKit          3D

 94101  0  0  1  0  0  0  0  0999 V2000
  -29.2690  -22.4420   21.3320 C   0  0  0  0  0  2  0  0  0  0  0  0
  -29.8860  -23.6660   23.4700 C   0  0  0  0  0  1  0  0  0  0  0  0
  -29.7180  -23.7910   21.9430 C   0  0  0  0  0  3  0  0  0  0  0  0
  -28.7840  -24.9860   21.6250 C   0  0  0  0  0  2  0  0  0  0  0  0
  -29.8370  -25.1430   19.2530 C   0  0  0  0  0  1  0  0  0  0  0  0
  -28.6110  -25.4040   20.1420 C   0  0  0  0  0  3  0  0  0  0  0  0
  -28.4720  -26.8250   20.1320 O   0  0  0  0  0  0  0  0  0  0  0  0
  -24.5930  -31.9190   23.1940 C   0  0  0  0  0  0  0  0  0  0  0  0
  -27.2400  -27.4350   20.1940 C   0  0  0  0  0  0  0  0  0  0  0  0
  -23.3720  -30.4640   21.6070 C   0  0  0  0  0  3  0  0  0  0  0  0
  -24.8170  -28.8930   20.2120 C   0  0  0  0  0  0  0  0  0  0  0  0
  -25.8880  -30.8430   21.3580 C   0  0  0  0  0  2  0  0  0  0  0  0
  -25.9740  -29.4540   20.7620 C   0  0  0  0  0  0  0  0  0  0  0  0
  -27.1850  -28.7320   20.7480 C   0  0  0  0  0  3  0  0  0  0  0  0
  -26.0620  -26.8740   19.6500 C   0  0  0  0  0  3  0  0  0  0  0  0
  -24.8530  -27.6000   19.6580 C   0  0  0  0  0  3  0  0  0  0  0  0
  -23.5660  -29.7420   20.2460 C   0  0  0  0  0  2  0  0  0  0  0  0
  -24.6370  -31.0920   22.1120 N   0  0  0  0  0  0  0  0  0  0  0  0
  -23.5180  -32.1990   23.7430 O   0  0  0  0  0  0  0  0  0  0  0  0
  -22.7440  -29.4660   22.6050 C   0  0  0  0  0  0  0  0  0  0  0  0
  -21.4240  -29.2560   22.4870 N   0  0  0  0  0  0  0  0  0  0  0  0
  -23.4420  -28.8810   23.4380 O   0  0  0  0  0  0  0  0  0  0  0  0
  -20.9230  -29.7800   21.7820 H   0  0  0  0  0  0  0  0  0  0  0  0
  -18.0770  -28.0060   23.0100 C   0  0  0  0  0  0  0  0  0  0  0  0
  -20.6250  -28.3320   23.2890 C   0  0  0  0  0  3  0  0  0  0  0  0
  -20.7650  -26.8820   22.7700 C   0  0  0  0  0  2  0  0  0  0  0  0
  -19.6780  -26.4950   21.7620 C   0  0  0  0  0  2  0  0  0  0  0  0
  -18.2890  -26.6350   22.3920 C   0  0  0  0  0  2  0  0  0  0  0  0
  -19.1740  -28.8100   23.4170 C   0  0  0  0  0  0  0  0  0  0  0  0
  -18.9240  -30.0910   23.9540 C   0  0  0  0  0  3  0  0  0  0  0  0
  -17.6070  -30.5700   24.0900 C   0  0  0  0  0  3  0  0  0  0  0  0
  -16.5230  -29.7630   23.7000 C   0  0  0  0  0  3  0  0  0  0  0  0
  -16.7590  -28.4840   23.1660 C   0  0  0  0  0  3  0  0  0  0  0  0
  -25.8840  -32.5730   23.7790 C   0  0  0  0  0  3  0  0  0  0  0  0
  -26.4130  -31.8550   25.0810 C   0  0  1  0  0  0  0  0  0  0  0  0
  -25.3280  -31.6560   26.1650 C   0  0  0  0  0  1  0  0  0  0  0  0
  -26.9960  -30.4640   24.7350 C   0  0  0  0  0  1  0  0  0  0  0  0
  -27.5660  -32.6760   25.7030 C   0  0  0  0  0  1  0  0  0  0  0  0
  -25.5800  -33.9840   24.0520 N   0  0  0  0  0  0  0  0  0  0  0  0
  -25.9110  -35.0020   23.2460 C   0  0  0  0  0  0  0  0  0  0  0  0
  -26.5770  -34.8540   22.2170 O   0  0  0  0  0  0  0  0  0  0  0  0
  -24.9900  -34.1740   24.8480 H   0  0  0  0  0  0  0  0  0  0  0  0
  -24.1790  -36.7760   22.8240 C   0  0  0  0  0  1  0  0  0  0  0  0
  -25.4260  -36.4090   23.6440 C   0  0  0  0  0  3  0  0  0  0  0  0
  -27.5680  -37.3290   24.4190 C   0  0  0  0  0  1  0  0  0  0  0  0
  -26.4580  -37.4560   23.4770 N   0  0  0  0  0  0  0  0  0  0  0  0
  -26.0530  -38.3810   23.5880 H   0  0  0  0  0  0  0  0  0  0  0  0
  -30.4690  -21.5460   20.9590 C   0  0  0  0  0  2  0  0  0  0  0  0
  -30.3290  -19.0590   21.0970 C   0  0  0  0  0  0  0  0  0  0  0  0
  -30.0660  -20.2230   20.4830 N   0  0  0  0  0  0  0  0  0  0  0  0
  -30.8370  -19.0210   22.2200 O   0  0  0  0  0  0  0  0  0  0  0  0
  -29.6360  -20.1670   19.5690 H   0  0  0  0  0  0  0  0  0  0  0  0
  -29.7470  -17.9620   18.8440 C   0  0  0  0  0  1  0  0  0  0  0  0
  -28.7200  -17.1330   20.9810 C   0  0  0  0  0  1  0  0  0  0  0  0
  -30.0010  -17.7320   20.3570 C   0  0  2  0  0  0  0  0  0  0  0  0
  -31.1960  -16.7520   20.5510 C   0  0  0  0  0  2  0  0  0  0  0  0
  -31.3390  -14.3580   19.8070 C   0  0  0  0  0  0  0  0  0  0  0  0
  -30.9440  -12.1070   18.8840 C   0  0  0  0  0  2  0  0  0  0  0  0
  -29.9580  -12.1970   17.7020 C   0  0  0  0  0  2  0  0  0  0  0  0
  -28.4990  -12.1520   18.1970 C   0  0  0  0  0  2  0  0  0  0  0  0
  -28.2320  -13.1440   19.3610 C   0  0  0  0  0  3  0  0  0  0  0  0
  -29.3160  -12.9970   20.4500 C   0  0  0  0  0  2  0  0  0  0  0  0
  -30.6340  -13.1980   19.8160 N   0  0  0  0  0  0  0  0  0  0  0  0
  -32.3780  -14.5240   19.1600 O   0  0  0  0  0  0  0  0  0  0  0  0
  -30.7810  -15.3460   20.5150 N   0  0  0  0  0  0  0  0  0  0  0  0
  -29.9430  -15.1080   21.0240 H   0  0  0  0  0  0  0  0  0  0  0  0
  -25.9300  -13.9310   20.2080 C   0  0  0  0  0  0  0  0  0  0  0  0
  -24.8280  -13.2410   20.6360 C   0  0  0  0  0  0  0  0  0  0  0  0
  -25.1790  -11.8570   20.5670 C   0  0  0  0  0  0  0  0  0  0  0  0
  -26.8890  -12.9750   19.9110 N   0  0  0  0  0  0  0  0  0  0  0  0
  -26.4410  -11.7210   20.1800 N   0  0  0  0  0  0  0  0  0  0  0  0
  -24.3700  -10.6530   20.7920 C   0  0  0  0  0  0  0  0  0  0  0  0
  -24.7580   -9.6670   21.7260 C   0  0  0  0  0  3  0  0  0  0  0  0
  -23.9550   -8.5250   21.9370 C   0  0  0  0  0  3  0  0  0  0  0  0
  -22.7490   -8.3630   21.2150 C   0  0  0  0  0  0  0  0  0  0  0  0
  -22.3780   -9.3370   20.2700 C   0  0  0  0  0  3  0  0  0  0  0  0
  -23.1820  -10.4700   20.0580 C   0  0  0  0  0  3  0  0  0  0  0  0
  -21.9200   -7.2750   21.3350 O   0  0  0  0  0  0  0  0  0  0  0  0
  -21.8130   -6.5790   22.5120 C   0  0  0  0  0  0  0  0  0  0  0  0
  -21.4280   -7.2060   23.7180 C   0  0  0  0  0  3  0  0  0  0  0  0
  -21.2640   -6.4400   24.8880 C   0  0  0  0  0  3  0  0  0  0  0  0
  -21.4730   -5.0480   24.8550 C   0  0  0  0  0  0  0  0  0  0  0  0
  -21.8510   -4.4210   23.6540 C   0  0  0  0  0  3  0  0  0  0  0  0
  -22.0170   -5.1850   22.4860 C   0  0  0  0  0  0  0  0  0  0  0  0
  -22.3610   -4.5730   21.3270 F   0  0  0  0  0  0  0  0  0  0  0  0
  -21.3070   -4.3110   25.9770 F   0  0  0  0  0  0  0  0  0  0  0  0
  -23.4920  -13.8230   20.9960 C   0  0  0  0  0  0  0  0  0  0  0  0
  -22.7700  -13.1840   21.9110 N   0  0  0  0  0  0  0  0  0  0  0  0
  -23.0990  -14.8780   20.5010 O   0  0  0  0  0  0  0  0  0  0  0  0
  -23.1010  -12.3280   22.3310 H   0  0  0  0  0  0  0  0  0  0  0  0
  -21.8760  -13.5570   22.1960 H   0  0  0  0  0  0  0  0  0  0  0  0
  -26.1910  -15.2860   20.0300 N   0  0  0  0  0  0  0  0  0  0  0  0
  -25.4830  -15.9940   20.1860 H   0  0  0  0  0  0  0  0  0  0  0  0
  -27.0540  -15.6620   19.6610 H   0  0  0  0  0  0  0  0  0  0  0  0
  1  3  1  0
  3  2  1  0
  4  3  1  0
  6  5  1  0
  6  4  1  0
  7  6  1  0
  7  9  1  0
  8 19  2  0
  9 14  1  0
 10 18  1  0
 10 20  1  0
 11 17  1  0
 11 13  1  0
 12 18  1  0
 13 12  1  0
 14 13  2  0
 15 16  1  0
 15  9  2  0
 16 11  2  0
 17 10  1  0
 18  8  1  0
 20 22  2  0
 21 20  1  0
 23 21  1  0
 24 33  2  0
 24 29  1  0
 25 21  1  0
 25 29  1  0
 26 25  1  0
 27 28  1  0
 27 26  1  0
 28 24  1  0
 29 30  2  0
 30 31  1  0
 32 31  2  0
 33 32  1  0
 34  8  1  0
 34 39  1  0
 34 35  1  0
 35 38  1  1
 35 36  1  0
 37 35  1  0
 39 42  1  0
 40 44  1  0
 40 39  1  0
 41 40  2  0
 44 43  1  0
 46 47  1  0
 46 44  1  0
 46 45  1  0
 48  1  1  0
 49 51  2  0
 50 48  1  0
 50 49  1  0
 52 50  1  0
 55 53  1  6
 55 56  1  0
 55 54  1  0
 55 49  1  0
 57 63  1  0
 57 65  1  0
 58 63  1  0
 59 60  1  0
 59 58  1  0
 61 60  1  0
 61 70  1  0
 61 62  1  0
 63 62  1  0
 64 57  2  0
 65 56  1  0
 65 66  1  0
 67 68  2  0
 68 87  1  0
 69 68  1  0
 69 72  1  0
 70 71  1  0
 70 67  1  0
 71 69  2  0
 72 73  1  0
 73 74  2  0
 75 78  1  0
 75 74  1  0
 76 75  2  0
 77 76  1  0
 77 72  2  0
 78 79  1  0
 79 80  1  0
 80 81  2  0
 82 81  1  0
 82 86  1  0
 83 82  2  0
 84 79  2  0
 84 83  1  0
 85 84  1  0
 87 88  1  0
 88 91  1  0
 88 90  1  0
 89 87  2  0
 92 93  1  0
 92 67  1  0
 94 92  1  0
M  ISO  4   6 101   7 101  57 100  65 100
M  END
>  <TORSDO>  (4) 
F 23

>  <SCORE>  (4) 
-12.081

>  <name>  (4) 
3

>  <ligand_id>  (4) 
3

>  <original_smiles>  (4) 
[H]c1c([H])c([H])c2c(c1[H])C([H])([H])C([H])([H])C([H])([H])C2([H])N([H])C(=O)C1([H])N(C(=O)C([H])(N([H])C(=O)C([H])(N([H])C([H])([H])[H])C([H])([H])[H])C(C([H])([H])[H])(C([H])([H])[H])C([H])([H])[H])C([H])([H])c2c([H])c(OC([H])(C([H])([H])[H])C([H])([H])C([H])(C([H])([H])[H])C([H])([H])C([H])([H])N([H])C(=O)C(C([H])([H])[H])(C([H])([H])[H])C([H])([H])N([H])C(=O)N3C([H])([H])C([H])([H])C([H])([H])C([H])(n4nc(-c5c([H])c([H])c(Oc6c([H])c([H])c(F)c([H])c6F)c([H])c5[H])c(C(=O)N([H])[H])c4N([H])[H])C3([H])[H])c([H])c([H])c2C1([H])[H]

>  <smiles>  (4) 
[H]c1c([H])c([H])c2c(c1[H])C([H])([H])C([H])([H])C([H])([H])C2([H])N([H])C(=O)C1([H])N(C(=O)C([H])(N([H])C(=O)C([H])(N([H])C([H])([H])[H])C([H])([H])[H])C(C([H])([H])[H])(C([H])([H])[H])C([H])([H])[H])C([H])([H])c2c([H])c(OC([H])(C([H])([H])[H])C([H])([H])C([H])(C([H])([H])[H])C([H])([H])C([H])([H])N([H])C(=O)C(C([H])([H])[H])(C([H])([H])[H])C([H])([H])N([H])C(=O)N3C([H])([H])C([H])([H])C([H])([H])C([H])(n4nc(-c5c([H])c([H])c(Oc6c([H])c([H])c(F)c([H])c6F)c([H])c5[H])c(C(=O)N([H])[H])c4N([H])[H])C3([H])[H])c([H])c([H])c2C1([H])[H]

$$$$
4:0:0
     RDKit          3D

 90 98  0  0  1  0  0  0  0  0999 V2000
  -27.0950  -20.0840   19.7240 C   0  0  0  0  0  3  0  0  0  0  0  0
  -27.9750  -18.9870   19.9070 C   0  0  0  0  0  3  0  0  0  0  0  0
  -27.4920  -21.4380   19.8720 C   0  0  0  0  0  3  0  0  0  0  0  0
  -29.7030  -20.6100   20.3970 C   0  0  0  0  0  3  0  0  0  0  0  0
  -29.3300  -19.1700   20.2510 C   0  0  0  0  0  0  0  0  0  0  0  0
  -28.8120  -21.7970   20.2190 C   0  0  0  0  0  0  0  0  0  0  0  0
  -30.3580  -23.6890   19.4340 C   0  0  0  0  0  1  0  0  0  0  0  0
  -29.6770  -23.5870   21.8320 C   0  0  0  0  0  1  0  0  0  0  0  0
  -29.1840  -23.4160   20.3870 C   0  0  2  0  0  0  0  0  0  0  0  0
  -28.0940  -24.7000   20.1310 C   0  0  0  0  0  2  0  0  0  0  0  0
  -28.3440  -26.2370   20.3370 O   0  0  0  0  0  0  0  0  0  0  0  0
  -24.6820  -31.9170   23.3360 C   0  0  0  0  0  0  0  0  0  0  0  0
  -27.2860  -27.2240   20.2770 C   0  0  0  0  0  0  0  0  0  0  0  0
  -23.4960  -30.5340   21.6760 C   0  0  0  0  0  3  0  0  0  0  0  0
  -24.9560  -28.9740   20.2450 C   0  0  0  0  0  0  0  0  0  0  0  0
  -26.0510  -30.8030   21.5300 C   0  0  0  0  0  2  0  0  0  0  0  0
  -26.1320  -29.4160   20.8640 C   0  0  0  0  0  0  0  0  0  0  0  0
  -27.2980  -28.5580   20.8600 C   0  0  0  0  0  3  0  0  0  0  0  0
  -26.0810  -26.8880   19.6210 C   0  0  0  0  0  3  0  0  0  0  0  0
  -24.9450  -27.7240   19.6080 C   0  0  0  0  0  3  0  0  0  0  0  0
  -23.7260  -29.8700   20.2930 C   0  0  0  0  0  2  0  0  0  0  0  0
  -24.7620  -31.1060   22.2360 N   0  0  0  0  0  0  0  0  0  0  0  0
  -23.5910  -32.1930   23.8590 O   0  0  0  0  0  0  0  0  0  0  0  0
  -22.8120  -29.5160   22.6250 C   0  0  0  0  0  0  0  0  0  0  0  0
  -21.4880  -29.3300   22.4740 N   0  0  0  0  0  0  0  0  0  0  0  0
  -23.4760  -28.8990   23.4600 O   0  0  0  0  0  0  0  0  0  0  0  0
  -21.0090  -29.8810   21.7760 H   0  0  0  0  0  0  0  0  0  0  0  0
  -18.1090  -28.1100   22.9400 C   0  0  0  0  0  0  0  0  0  0  0  0
  -20.6650  -28.3810   23.2290 C   0  0  0  0  0  3  0  0  0  0  0  0
  -20.7770  -26.9550   22.6410 C   0  0  0  0  0  2  0  0  0  0  0  0
  -19.6840  -26.6370   21.6150 C   0  0  0  0  0  2  0  0  0  0  0  0
  -18.2970  -26.7680   22.2500 C   0  0  0  0  0  2  0  0  0  0  0  0
  -19.2210  -28.8730   23.3850 C   0  0  0  0  0  0  0  0  0  0  0  0
  -18.9890  -30.1260   23.9920 C   0  0  0  0  0  3  0  0  0  0  0  0
  -17.6800  -30.6170   24.1570 C   0  0  0  0  0  3  0  0  0  0  0  0
  -16.5830  -29.8510   23.7270 C   0  0  0  0  0  3  0  0  0  0  0  0
  -16.7980  -28.5980   23.1230 C   0  0  0  0  0  3  0  0  0  0  0  0
  -25.9540  -32.5490   23.9780 C   0  0  0  0  0  3  0  0  0  0  0  0
  -26.4360  -31.7910   25.2750 C   0  0  1  0  0  0  0  0  0  0  0  0
  -25.3150  -31.5680   26.3190 C   0  0  0  0  0  1  0  0  0  0  0  0
  -27.0250  -30.4070   24.9170 C   0  0  0  0  0  1  0  0  0  0  0  0
  -27.5710  -32.5910   25.9570 C   0  0  0  0  0  1  0  0  0  0  0  0
  -25.6460  -33.9540   24.2910 N   0  0  0  0  0  0  0  0  0  0  0  0
  -25.9520  -34.9980   23.5080 C   0  0  0  0  0  0  0  0  0  0  0  0
  -26.5900  -34.8790   22.4580 O   0  0  0  0  0  0  0  0  0  0  0  0
  -25.0750  -34.1200   25.1070 H   0  0  0  0  0  0  0  0  0  0  0  0
  -24.1950  -36.7750   23.2030 C   0  0  0  0  0  1  0  0  0  0  0  0
  -25.4790  -36.3930   23.9600 C   0  0  0  0  0  3  0  0  0  0  0  0
  -27.6330  -37.3250   24.6810 C   0  0  0  0  0  1  0  0  0  0  0  0
  -26.4960  -37.4510   23.7740 N   0  0  0  0  0  0  0  0  0  0  0  0
  -26.0870  -38.3730   23.9040 H   0  0  0  0  0  0  0  0  0  0  0  0
  -30.3040  -17.8330   20.4090 C   0  0  0  0  0  2  0  0  0  0  0  0
  -30.6560  -15.1000   20.2660 C   0  0  0  0  0  0  0  0  0  0  0  0
  -30.5250  -12.7530   19.3050 C   0  0  0  0  0  2  0  0  0  0  0  0
  -29.5680  -12.7070   18.0930 C   0  0  0  0  0  2  0  0  0  0  0  0
  -28.1170  -12.4770   18.5550 C   0  0  0  0  0  2  0  0  0  0  0  0
  -27.7270  -13.3890   19.7470 C   0  0  0  0  0  3  0  0  0  0  0  0
  -28.8060  -13.4100   20.8500 C   0  0  0  0  0  2  0  0  0  0  0  0
  -30.0560  -13.8400   20.2130 N   0  0  0  0  0  0  0  0  0  0  0  0
  -31.8560  -15.1540   19.9790 O   0  0  0  0  0  0  0  0  0  0  0  0
  -29.8960  -16.2970   20.4350 N   0  0  0  0  0  0  0  0  0  0  0  0
  -28.9180  -16.1320   20.6140 H   0  0  0  0  0  0  0  0  0  0  0  0
  -25.3660  -13.9420   20.5630 C   0  0  0  0  0  0  0  0  0  0  0  0
  -24.3120  -13.1540   20.9390 C   0  0  0  0  0  0  0  0  0  0  0  0
  -24.7780  -11.8050   20.8600 C   0  0  0  0  0  0  0  0  0  0  0  0
  -26.4040  -13.0720   20.2730 N   0  0  0  0  0  0  0  0  0  0  0  0
  -26.0620  -11.7810   20.5190 N   0  0  0  0  0  0  0  0  0  0  0  0
  -24.0580  -10.5370   21.0320 C   0  0  0  0  0  0  0  0  0  0  0  0
  -24.4760   -9.5710   21.9730 C   0  0  0  0  0  3  0  0  0  0  0  0
  -23.7540   -8.3680   22.1340 C   0  0  0  0  0  3  0  0  0  0  0  0
  -22.5980   -8.1250   21.3530 C   0  0  0  0  0  0  0  0  0  0  0  0
  -22.2000   -9.0810   20.4020 C   0  0  0  0  0  3  0  0  0  0  0  0
  -22.9230  -10.2740   20.2400 C   0  0  0  0  0  3  0  0  0  0  0  0
  -21.8490   -6.9750   21.4230 O   0  0  0  0  0  0  0  0  0  0  0  0
  -21.7250   -6.2660   22.5910 C   0  0  0  0  0  0  0  0  0  0  0  0
  -21.1290   -6.8250   23.7420 C   0  0  0  0  0  3  0  0  0  0  0  0
  -20.9600   -6.0390   24.9000 C   0  0  0  0  0  3  0  0  0  0  0  0
  -21.3770   -4.6940   24.9060 C   0  0  0  0  0  0  0  0  0  0  0  0
  -21.9650   -4.1350   23.7580 C   0  0  0  0  0  3  0  0  0  0  0  0
  -22.1360   -4.9170   22.6030 C   0  0  0  0  0  0  0  0  0  0  0  0
  -22.6840   -4.3670   21.4930 F   0  0  0  0  0  0  0  0  0  0  0  0
  -21.2070   -3.9360   26.0140 F   0  0  0  0  0  0  0  0  0  0  0  0
  -22.9210  -13.6220   21.2520 C   0  0  0  0  0  0  0  0  0  0  0  0
  -22.2180  -12.9110   22.1260 N   0  0  0  0  0  0  0  0  0  0  0  0
  -22.4680  -14.6530   20.7570 O   0  0  0  0  0  0  0  0  0  0  0  0
  -22.5970  -12.0770   22.5480 H   0  0  0  0  0  0  0  0  0  0  0  0
  -21.2860  -13.2070   22.3780 H   0  0  0  0  0  0  0  0  0  0  0  0
  -25.5210  -15.3160   20.4160 N   0  0  0  0  0  0  0  0  0  0  0  0
  -24.7500  -15.9600   20.5540 H   0  0  0  0  0  0  0  0  0  0  0  0
  -26.3430  -15.7590   20.0270 H   0  0  0  0  0  0  0  0  0  0  0  0
  1  3  2  0
  1  2  1  0
  2  5  2  0
  3  6  1  0
  5  4  1  0
  5 52  1  0
  6  9  1  0
  6  4  2  0
  9  7  1  6
  9  8  1  0
 10 11  1  0
 10  9  1  0
 12 23  2  0
 13 11  1  0
 13 18  1  0
 14 22  1  0
 14 24  1  0
 15 21  1  0
 15 17  1  0
 16 22  1  0
 17 16  1  0
 18 17  2  0
 19 13  2  0
 20 19  1  0
 20 15  2  0
 21 14  1  0
 22 12  1  0
 24 26  2  0
 25 24  1  0
 27 25  1  0
 28 37  2  0
 28 33  1  0
 29 25  1  0
 29 33  1  0
 30 29  1  0
 31 32  1  0
 31 30  1  0
 32 28  1  0
 33 34  2  0
 34 35  1  0
 36 35  2  0
 37 36  1  0
 38 12  1  0
 38 43  1  0
 38 39  1  0
 39 42  1  1
 39 40  1  0
 41 39  1  0
 43 46  1  0
 44 48  1  0
 44 43  1  0
 45 44  2  0
 48 47  1  0
 50 51  1  0
 50 48  1  0
 50 49  1  0
 52 61  1  0
 53 61  1  0
 54 59  1  0
 55 56  1  0
 55 54  1  0
 57 56  1  0
 57 66  1  0
 57 58  1  0
 59 53  1  0
 59 58  1  0
 60 53  2  0
 61 62  1  0
 63 64  2  0
 64 83  1  0
 65 64  1  0
 65 68  1  0
 66 67  1  0
 66 63  1  0
 67 65  2  0
 68 69  1  0
 69 70  2  0
 71 74  1  0
 71 70  1  0
 72 71  2  0
 73 72  1  0
 73 68  2  0
 74 75  1  0
 75 80  2  0
 75 76  1  0
 76 77  2  0
 77 78  1  0
 78 82  1  0
 79 78  2  0
 80 79  1  0
 81 80  1  0
 83 84  1  0
 84 87  1  0
 84 86  1  0
 85 83  2  0
 88 89  1  0
 88 63  1  0
 90 88  1  0
M  ISO  4  10 101  11 101  53 100  61 100
M  END
>  <TORSDO>  (5) 
F 19

>  <SCORE>  (5) 
-14.360

>  <name>  (5) 
4

>  <ligand_id>  (5) 
4

>  <original_smiles>  (5) 
[H]c1c([H])c([H])c2c(c1[H])C([H])([H])C([H])([H])C([H])([H])C2([H])N([H])C(=O)C1([H])N(C(=O)C([H])(N([H])C(=O)C([H])(N([H])C([H])([H])[H])C([H])([H])[H])C(C([H])([H])[H])(C([H])([H])[H])C([H])([H])[H])C([H])([H])c2c([H])c(OC([H])([H])C(c3c([H])c([H])c([H])c(C([H])([H])N([H])C(=O)N4C([H])([H])C([H])([H])C([H])([H])C([H])(n5nc(-c6c([H])c([H])c(Oc7c([H])c([H])c(F)c([H])c7F)c([H])c6[H])c(C(=O)N([H])[H])c5N([H])[H])C4([H])[H])c3[H])(C([H])([H])[H])C([H])([H])[H])c([H])c([H])c2C1([H])[H]

>  <smiles>  (5) 
[H]c1c([H])c([H])c2c(c1[H])C([H])([H])C([H])([H])C([H])([H])C2([H])N([H])C(=O)C1([H])N(C(=O)C([H])(N([H])C(=O)C([H])(N([H])C([H])([H])[H])C([H])([H])[H])C(C([H])([H])[H])(C([H])([H])[H])C([H])([H])[H])C([H])([H])c2c([H])c(OC([H])([H])C(c3c([H])c([H])c([H])c(C([H])([H])N([H])C(=O)N4C([H])([H])C([H])([H])C([H])([H])C([H])(n5nc(-c6c([H])c([H])c(Oc7c([H])c([H])c(F)c([H])c7F)c([H])c6[H])c(C(=O)N([H])[H])c5N([H])[H])C4([H])[H])c3[H])(C([H])([H])[H])C([H])([H])[H])c([H])c([H])c2C1([H])[H]

$$$$
5:0:0
     RDKit          3D

 92 99  0  0  1  0  0  0  0  0999 V2000
  -28.7810  -23.2900   20.5190 C   0  0  0  0  0  2  0  0  0  0  0  0
  -29.7410  -21.9580   20.0200 C   0  0  0  0  0  2  0  0  0  0  0  0
  -29.2940  -20.4530   19.7070 N   0  0  2  0  0  4  0  0  0  0  0  0
  -29.6160  -20.3540   18.7550 H   0  0  0  0  0  0  0  0  0  0  0  0
  -27.2310  -18.9210   19.4540 C   0  0  0  0  0  1  0  0  0  0  0  0
  -27.2950  -21.1720   18.3770 C   0  0  0  0  0  1  0  0  0  0  0  0
  -27.8030  -20.3520   19.5800 C   0  0  0  0  0  3  0  0  0  0  0  0
  -29.9690  -19.1660   20.3850 C   0  0  0  0  0  2  0  0  0  0  0  0
  -30.1190  -17.6620   19.6160 C   0  0  0  0  0  2  0  0  0  0  0  0
  -30.9400  -15.0340   19.9820 C   0  0  0  0  0  0  0  0  0  0  0  0
  -30.7410  -12.6730   19.0850 C   0  0  0  0  0  2  0  0  0  0  0  0
  -29.7980  -12.6750   17.8570 C   0  0  0  0  0  2  0  0  0  0  0  0
  -28.3320  -12.5100   18.3030 C   0  0  0  0  0  2  0  0  0  0  0  0
  -27.9740  -13.4480   19.4860 C   0  0  0  0  0  3  0  0  0  0  0  0
  -29.0390  -13.4170   20.6050 C   0  0  0  0  0  2  0  0  0  0  0  0
  -30.3260  -13.7800   19.9970 N   0  0  0  0  0  0  0  0  0  0  0  0
  -32.0970  -15.0940   19.5540 O   0  0  0  0  0  0  0  0  0  0  0  0
  -30.1950  -16.2120   20.2590 N   0  0  0  0  0  0  0  0  0  0  0  0
  -29.3490  -15.9870   20.7620 H   0  0  0  0  0  0  0  0  0  0  0  0
  -25.6260  -14.1140   20.2520 C   0  0  0  0  0  0  0  0  0  0  0  0
  -24.5420  -13.3800   20.6450 C   0  0  0  0  0  0  0  0  0  0  0  0
  -24.9560  -12.0130   20.6110 C   0  0  0  0  0  0  0  0  0  0  0  0
  -26.6330  -13.1980   19.9980 N   0  0  0  0  0  0  0  0  0  0  0  0
  -26.2390  -11.9290   20.2790 N   0  0  0  0  0  0  0  0  0  0  0  0
  -24.1870  -10.7800   20.8210 C   0  0  0  0  0  0  0  0  0  0  0  0
  -24.6010   -9.8060   21.7570 C   0  0  0  0  0  3  0  0  0  0  0  0
  -23.8390   -8.6340   21.9540 C   0  0  0  0  0  3  0  0  0  0  0  0
  -22.6470   -8.4320   21.2200 C   0  0  0  0  0  0  0  0  0  0  0  0
  -22.2520   -9.3940   20.2750 C   0  0  0  0  0  3  0  0  0  0  0  0
  -23.0130  -10.5570   20.0750 C   0  0  0  0  0  3  0  0  0  0  0  0
  -21.8540   -7.3150   21.3300 O   0  0  0  0  0  0  0  0  0  0  0  0
  -21.7900   -6.5880   22.4910 C   0  0  0  0  0  0  0  0  0  0  0  0
  -21.4170   -7.1740   23.7210 C   0  0  0  0  0  3  0  0  0  0  0  0
  -21.2980   -6.3740   24.8740 C   0  0  0  0  0  3  0  0  0  0  0  0
  -21.5420   -4.9890   24.8010 C   0  0  0  0  0  0  0  0  0  0  0  0
  -21.9080   -4.4040   23.5770 C   0  0  0  0  0  3  0  0  0  0  0  0
  -22.0310   -5.2000   22.4240 C   0  0  0  0  0  0  0  0  0  0  0  0
  -22.3630   -4.6270   21.2430 F   0  0  0  0  0  0  0  0  0  0  0  0
  -21.4210   -4.2200   25.9070 F   0  0  0  0  0  0  0  0  0  0  0  0
  -23.1690  -13.9100   20.9380 C   0  0  0  0  0  0  0  0  0  0  0  0
  -22.4340  -13.2560   21.8320 N   0  0  0  0  0  0  0  0  0  0  0  0
  -22.7570  -14.9390   20.4060 O   0  0  0  0  0  0  0  0  0  0  0  0
  -22.7810  -12.4270   22.2900 H   0  0  0  0  0  0  0  0  0  0  0  0
  -21.5110  -13.5950   22.0630 H   0  0  0  0  0  0  0  0  0  0  0  0
  -25.8350  -15.4770   20.0630 N   0  0  0  0  0  0  0  0  0  0  0  0
  -25.0800  -16.1460   20.1560 H   0  0  0  0  0  0  0  0  0  0  0  0
  -26.6800  -15.8760   19.6760 H   0  0  0  0  0  0  0  0  0  0  0  0
  -28.3920  -24.7300   19.7070 C   0  0  0  0  0  3  0  0  0  0  0  0
  -28.7000  -25.8520   17.3970 C   0  0  0  0  0  1  0  0  0  0  0  0
  -30.7250  -25.2190   18.7800 C   0  0  0  0  0  1  0  0  0  0  0  0
  -29.2680  -24.8680   18.4380 C   0  0  0  0  0  3  0  0  0  0  0  0
  -28.3340  -26.1710   20.3230 O   0  0  0  0  0  0  0  0  0  0  0  0
  -24.6480  -31.8480   23.2090 C   0  0  0  0  0  0  0  0  0  0  0  0
  -27.2660  -27.1400   20.1970 C   0  0  0  0  0  0  0  0  0  0  0  0
  -23.4680  -30.4530   21.5540 C   0  0  0  0  0  3  0  0  0  0  0  0
  -24.9340  -28.8880   20.1380 C   0  0  0  0  0  0  0  0  0  0  0  0
  -26.0230  -30.7210   21.4210 C   0  0  0  0  0  2  0  0  0  0  0  0
  -26.1040  -29.3320   20.7650 C   0  0  0  0  0  0  0  0  0  0  0  0
  -27.2660  -28.4720   20.7810 C   0  0  0  0  0  3  0  0  0  0  0  0
  -26.0700  -26.8050   19.5230 C   0  0  0  0  0  3  0  0  0  0  0  0
  -24.9320  -27.6380   19.5020 C   0  0  0  0  0  3  0  0  0  0  0  0
  -23.7050  -29.7820   20.1750 C   0  0  0  0  0  2  0  0  0  0  0  0
  -24.7320  -31.0300   22.1160 N   0  0  0  0  0  0  0  0  0  0  0  0
  -23.5550  -32.1320   23.7240 O   0  0  0  0  0  0  0  0  0  0  0  0
  -22.7820  -29.4430   22.5070 C   0  0  0  0  0  0  0  0  0  0  0  0
  -21.4530  -29.2800   22.3740 N   0  0  0  0  0  0  0  0  0  0  0  0
  -23.4460  -28.8090   23.3300 O   0  0  0  0  0  0  0  0  0  0  0  0
  -20.9740  -29.8430   21.6840 H   0  0  0  0  0  0  0  0  0  0  0  0
  -18.0650  -28.0960   22.8530 C   0  0  0  0  0  0  0  0  0  0  0  0
  -20.6230  -28.3440   23.1360 C   0  0  0  0  0  3  0  0  0  0  0  0
  -20.7220  -26.9140   22.5540 C   0  0  0  0  0  2  0  0  0  0  0  0
  -19.6240  -26.6010   21.5320 C   0  0  0  0  0  2  0  0  0  0  0  0
  -18.2390  -26.7500   22.1690 C   0  0  0  0  0  2  0  0  0  0  0  0
  -19.1840  -28.8510   23.2920 C   0  0  0  0  0  0  0  0  0  0  0  0
  -18.9670  -30.1100   23.8930 C   0  0  0  0  0  3  0  0  0  0  0  0
  -17.6630  -30.6150   24.0590 C   0  0  0  0  0  3  0  0  0  0  0  0
  -16.5580  -29.8570   23.6340 C   0  0  0  0  0  3  0  0  0  0  0  0
  -16.7590  -28.5990   23.0370 C   0  0  0  0  0  3  0  0  0  0  0  0
  -25.9180  -32.4850   23.8510 C   0  0  0  0  0  3  0  0  0  0  0  0
  -25.6010  -33.8840   24.1750 N   0  0  0  0  0  0  0  0  0  0  0  0
  -25.9480  -34.9410   23.4290 C   0  0  0  0  0  0  0  0  0  0  0  0
  -26.6360  -34.8400   22.4110 O   0  0  0  0  0  0  0  0  0  0  0  0
  -24.9890  -34.0350   24.9640 H   0  0  0  0  0  0  0  0  0  0  0  0
  -24.2260  -36.7410   23.0600 C   0  0  0  0  0  1  0  0  0  0  0  0
  -25.4560  -36.3300   23.8850 C   0  0  0  0  0  3  0  0  0  0  0  0
  -27.5810  -37.2130   24.7430 C   0  0  0  0  0  1  0  0  0  0  0  0
  -26.4910  -37.3820   23.7860 N   0  0  0  0  0  0  0  0  0  0  0  0
  -26.0840  -38.3020   23.9310 H   0  0  0  0  0  0  0  0  0  0  0  0
  -26.4110  -31.7190   25.1400 C   0  0  1  0  0  0  0  0  0  0  0  0
  -25.2980  -31.4900   26.1890 C   0  0  0  0  0  1  0  0  0  0  0  0
  -26.9970  -30.3360   24.7730 C   0  0  0  0  0  1  0  0  0  0  0  0
  -27.5520  -32.5140   25.8180 C   0  0  0  0  0  1  0  0  0  0  0  0
  2  1  1  0
  3  2  1  0
  3  8  1  0
  3  4  1  6
  5  7  1  0
  6  7  1  0
  7  3  1  0
  9 18  1  0
  9  8  1  0
 10 16  1  0
 10 18  1  0
 11 16  1  0
 12 13  1  0
 12 11  1  0
 14 13  1  0
 14 23  1  0
 14 15  1  0
 16 15  1  0
 17 10  2  0
 18 19  1  0
 20 21  2  0
 21 40  1  0
 22 21  1  0
 22 25  1  0
 23 20  1  0
 23 24  1  0
 24 22  2  0
 25 26  1  0
 26 27  2  0
 28 31  1  0
 28 27  1  0
 29 28  2  0
 30 29  1  0
 30 25  2  0
 31 32  1  0
 32 33  1  0
 33 34  2  0
 35 34  1  0
 35 39  1  0
 36 35  2  0
 37 32  2  0
 37 36  1  0
 38 37  1  0
 40 41  1  0
 41 44  1  0
 41 43  1  0
 42 40  2  0
 45 46  1  0
 45 20  1  0
 47 45  1  0
 48 52  1  0
 48  1  1  0
 49 51  1  0
 51 50  1  0
 51 48  1  0
 53 64  2  0
 54 52  1  0
 54 59  1  0
 55 63  1  0
 55 65  1  0
 56 62  1  0
 56 58  1  0
 57 63  1  0
 58 59  2  0
 58 57  1  0
 60 54  2  0
 61 60  1  0
 61 56  2  0
 62 55  1  0
 63 53  1  0
 65 67  2  0
 66 65  1  0
 68 66  1  0
 69 78  2  0
 69 74  1  0
 70 66  1  0
 70 74  1  0
 71 70  1  0
 72 73  1  0
 72 71  1  0
 73 69  1  0
 74 75  2  0
 75 76  1  0
 77 76  2  0
 78 77  1  0
 79 53  1  0
 79 80  1  0
 79 89  1  0
 80 83  1  0
 81 85  1  0
 81 80  1  0
 82 81  2  0
 85 84  1  0
 87 85  1  0
 87 88  1  0
 87 86  1  0
 89 92  1  1
 89 90  1  0
 91 89  1  0
M  ISO  4  10 100  18 100  48 101  52 101
M  END
>  <TORSDO>  (6) 
F 23

>  <SCORE>  (6) 
-14.078

>  <name>  (6) 
5

>  <ligand_id>  (6) 
5

>  <original_smiles>  (6) 
[H]c1c([H])c([H])c2c(c1[H])C([H])([H])C([H])([H])C([H])([H])C2([H])N([H])C(=O)C1([H])N(C(=O)C([H])(N([H])C(=O)C([H])(N([H])C([H])([H])[H])C([H])([H])[H])C(C([H])([H])[H])(C([H])([H])[H])C([H])([H])[H])C([H])([H])c2c([H])c(OC([H])(C([H])([H])C([H])([H])[N+]([H])(C([H])([H])C([H])([H])N([H])C(=O)N3C([H])([H])C([H])([H])C([H])([H])C([H])(n4nc(-c5c([H])c([H])c(Oc6c([H])c([H])c(F)c([H])c6F)c([H])c5[H])c(C(=O)N([H])[H])c4N([H])[H])C3([H])[H])C([H])(C([H])([H])[H])C([H])([H])[H])C([H])(C([H])([H])[H])C([H])([H])[H])c([H])c([H])c2C1([H])[H]

>  <smiles>  (6) 
[H]c1c([H])c([H])c2c(c1[H])C([H])([H])C([H])([H])C([H])([H])C2([H])N([H])C(=O)C1([H])N(C(=O)C([H])(N([H])C(=O)C([H])(N([H])C([H])([H])[H])C([H])([H])[H])C(C([H])([H])[H])(C([H])([H])[H])C([H])([H])[H])C([H])([H])c2c([H])c(OC([H])(C([H])([H])C([H])([H])[N+]([H])(C([H])([H])C([H])([H])N([H])C(=O)N3C([H])([H])C([H])([H])C([H])([H])C([H])(n4nc(-c5c([H])c([H])c(Oc6c([H])c([H])c(F)c([H])c6F)c([H])c5[H])c(C(=O)N([H])[H])c4N([H])[H])C3([H])[H])C([H])(C([H])([H])[H])C([H])([H])[H])C([H])(C([H])([H])[H])C([H])([H])[H])c([H])c([H])c2C1([H])[H]

$$$$
6:0:0
     RDKit          3D

 93100  0  0  1  0  0  0  0  0999 V2000
  -28.0300  -22.0400   18.7300 C   0  0  0  0  0  1  0  0  0  0  0  0
  -28.7380  -22.5490   20.0010 C   0  0  0  0  0  3  0  0  0  0  0  0
  -29.2960  -21.1990   22.1240 C   0  0  0  0  0  1  0  0  0  0  0  0
  -29.7290  -21.4390   20.6590 C   0  0  0  0  0  3  0  0  0  0  0  0
  -31.0410  -20.2550   18.9200 C   0  0  0  0  0  1  0  0  0  0  0  0
  -29.9320  -20.1110   19.8950 N   0  0  1  0  0  4  0  0  0  0  0  0
  -29.0970  -20.0240   19.3330 H   0  0  0  0  0  0  0  0  0  0  0  0
  -30.0120  -18.7730   20.6670 C   0  0  0  0  0  3  0  0  0  0  0  0
  -30.4940  -17.4490   19.8780 C   0  0  0  0  0  3  0  0  0  0  0  0
  -31.0120  -14.9300   20.2680 C   0  0  0  0  0  0  0  0  0  0  0  0
  -30.7840  -12.6330   19.3410 C   0  0  0  0  0  2  0  0  0  0  0  0
  -29.8750  -12.7050   18.0940 C   0  0  0  0  0  2  0  0  0  0  0  0
  -28.3950  -12.5680   18.4990 C   0  0  0  0  0  2  0  0  0  0  0  0
  -28.0110  -13.4930   19.6840 C   0  0  0  0  0  3  0  0  0  0  0  0
  -29.0470  -13.4230   20.8300 C   0  0  0  0  0  2  0  0  0  0  0  0
  -30.3680  -13.7170   20.2590 N   0  0  0  0  0  0  0  0  0  0  0  0
  -32.1830  -15.0220   19.8930 O   0  0  0  0  0  0  0  0  0  0  0  0
  -30.2500  -16.0620   20.4580 N   0  0  0  0  0  0  0  0  0  0  0  0
  -29.3140  -15.8840   20.7890 H   0  0  0  0  0  0  0  0  0  0  0  0
  -25.6210  -14.1280   20.3670 C   0  0  0  0  0  0  0  0  0  0  0  0
  -24.5410  -13.3740   20.7360 C   0  0  0  0  0  0  0  0  0  0  0  0
  -24.9850  -12.0160   20.7290 C   0  0  0  0  0  0  0  0  0  0  0  0
  -26.6560  -13.2320   20.1570 N   0  0  0  0  0  0  0  0  0  0  0  0
  -26.2800  -11.9570   20.4370 N   0  0  0  0  0  0  0  0  0  0  0  0
  -24.2390  -10.7660   20.9240 C   0  0  0  0  0  0  0  0  0  0  0  0
  -24.6310   -9.8150   21.8920 C   0  0  0  0  0  3  0  0  0  0  0  0
  -23.8840   -8.6320   22.0750 C   0  0  0  0  0  3  0  0  0  0  0  0
  -22.7320   -8.3900   21.2910 C   0  0  0  0  0  0  0  0  0  0  0  0
  -22.3600   -9.3290   20.3120 C   0  0  0  0  0  3  0  0  0  0  0  0
  -23.1080  -10.5050   20.1270 C   0  0  0  0  0  3  0  0  0  0  0  0
  -21.9600   -7.2560   21.3810 O   0  0  0  0  0  0  0  0  0  0  0  0
  -21.8430   -6.5570   22.5550 C   0  0  0  0  0  0  0  0  0  0  0  0
  -21.3530   -7.1580   23.7350 C   0  0  0  0  0  3  0  0  0  0  0  0
  -21.1840   -6.3860   24.9010 C   0  0  0  0  0  3  0  0  0  0  0  0
  -21.4930   -5.0130   24.8880 C   0  0  0  0  0  0  0  0  0  0  0  0
  -21.9770   -4.4120   23.7130 C   0  0  0  0  0  3  0  0  0  0  0  0
  -22.1480   -5.1820   22.5500 C   0  0  0  0  0  0  0  0  0  0  0  0
  -22.5930   -4.5920   21.4130 F   0  0  0  0  0  0  0  0  0  0  0  0
  -21.3240   -4.2690   26.0050 F   0  0  0  0  0  0  0  0  0  0  0  0
  -23.1470  -13.8730   20.9830 C   0  0  0  0  0  0  0  0  0  0  0  0
  -22.4020  -13.2010   21.8540 N   0  0  0  0  0  0  0  0  0  0  0  0
  -22.7280  -14.8940   20.4370 O   0  0  0  0  0  0  0  0  0  0  0  0
  -22.7560  -12.3750   22.3130 H   0  0  0  0  0  0  0  0  0  0  0  0
  -21.4660  -13.5160   22.0620 H   0  0  0  0  0  0  0  0  0  0  0  0
  -25.8060  -15.4930   20.1700 N   0  0  0  0  0  0  0  0  0  0  0  0
  -25.0410  -16.1560   20.2400 H   0  0  0  0  0  0  0  0  0  0  0  0
  -26.6520  -15.9050   19.7970 H   0  0  0  0  0  0  0  0  0  0  0  0
  -29.2110  -24.0790   19.7920 C   0  0  0  0  0  2  0  0  0  0  0  0
  -28.3120  -25.2700   20.3900 C   0  0  0  0  0  3  0  0  0  0  0  0
  -29.8450  -26.0550   22.3190 C   0  0  0  0  0  1  0  0  0  0  0  0
  -27.3400  -25.9550   22.7010 C   0  0  0  0  0  1  0  0  0  0  0  0
  -28.5290  -25.3510   21.9320 C   0  0  0  0  0  3  0  0  0  0  0  0
  -28.4560  -26.6410   19.8140 O   0  0  0  0  0  0  0  0  0  0  0  0
  -24.6670  -31.8350   23.0810 C   0  0  0  0  0  0  0  0  0  0  0  0
  -27.3250  -27.4760   19.8050 C   0  0  0  0  0  0  0  0  0  0  0  0
  -23.4600  -30.4610   21.4230 C   0  0  0  0  0  3  0  0  0  0  0  0
  -24.9150  -29.0100   19.8990 C   0  0  0  0  0  0  0  0  0  0  0  0
  -25.9800  -30.8690   21.1780 C   0  0  0  0  0  2  0  0  0  0  0  0
  -26.0840  -29.5200   20.4780 C   0  0  0  0  0  0  0  0  0  0  0  0
  -27.2950  -28.7680   20.4150 C   0  0  0  0  0  3  0  0  0  0  0  0
  -26.1390  -27.0270   19.1870 C   0  0  0  0  0  3  0  0  0  0  0  0
  -24.9440  -27.7730   19.2380 C   0  0  0  0  0  3  0  0  0  0  0  0
  -23.6510  -29.8380   20.0140 C   0  0  0  0  0  2  0  0  0  0  0  0
  -24.7220  -31.0700   21.9510 N   0  0  0  0  0  0  0  0  0  0  0  0
  -23.5940  -32.0580   23.6570 O   0  0  0  0  0  0  0  0  0  0  0  0
  -22.8570  -29.3900   22.3650 C   0  0  0  0  0  0  0  0  0  0  0  0
  -21.5370  -29.1600   22.2540 N   0  0  0  0  0  0  0  0  0  0  0  0
  -23.5750  -28.7730   23.1560 O   0  0  0  0  0  0  0  0  0  0  0  0
  -21.0130  -29.7120   21.5900 H   0  0  0  0  0  0  0  0  0  0  0  0
  -18.2310  -27.7770   22.7400 C   0  0  0  0  0  0  0  0  0  0  0  0
  -20.7720  -28.1680   23.0120 C   0  0  0  0  0  3  0  0  0  0  0  0
  -20.9490  -26.7520   22.4150 C   0  0  0  0  0  2  0  0  0  0  0  0
  -19.8650  -26.3860   21.3960 C   0  0  0  0  0  2  0  0  0  0  0  0
  -18.4780  -26.4500   22.0420 C   0  0  0  0  0  2  0  0  0  0  0  0
  -19.3080  -28.5900   23.1810 C   0  0  0  0  0  0  0  0  0  0  0  0
  -19.0230  -29.8310   23.7910 C   0  0  0  0  0  3  0  0  0  0  0  0
  -17.6930  -30.2590   23.9660 C   0  0  0  0  0  3  0  0  0  0  0  0
  -16.6310  -29.4430   23.5400 C   0  0  0  0  0  3  0  0  0  0  0  0
  -16.9000  -28.2050   22.9320 C   0  0  0  0  0  3  0  0  0  0  0  0
  -25.9490  -32.4840   23.6890 C   0  0  0  0  0  3  0  0  0  0  0  0
  -26.5150  -31.6940   24.9320 C   0  0  1  0  0  0  0  0  0  0  0  0
  -25.4570  -31.4080   26.0230 C   0  0  0  0  0  1  0  0  0  0  0  0
  -27.1170  -30.3390   24.4910 C   0  0  0  0  0  1  0  0  0  0  0  0
  -27.6690  -32.4960   25.5810 C   0  0  0  0  0  1  0  0  0  0  0  0
  -25.6140  -33.8650   24.0640 N   0  0  0  0  0  0  0  0  0  0  0  0
  -25.9250  -34.9470   23.3370 C   0  0  0  0  0  0  0  0  0  0  0  0
  -26.5930  -34.8890   22.3010 O   0  0  0  0  0  0  0  0  0  0  0  0
  -25.0210  -33.9840   24.8710 H   0  0  0  0  0  0  0  0  0  0  0  0
  -24.1710  -36.7230   23.0350 C   0  0  0  0  0  1  0  0  0  0  0  0
  -25.4140  -36.3120   23.8390 C   0  0  0  0  0  3  0  0  0  0  0  0
  -27.5300  -37.2020   24.7100 C   0  0  0  0  0  1  0  0  0  0  0  0
  -26.4300  -37.3840   23.7650 N   0  0  0  0  0  0  0  0  0  0  0  0
  -26.0090  -38.2910   23.9400 H   0  0  0  0  0  0  0  0  0  0  0  0
  2  1  1  0
  2  4  1  0
  4  3  1  0
  5  6  1  0
  6  4  1  0
  6  8  1  0
  6  7  1  6
  9 18  1  0
  9  8  2  0
 10 18  1  0
 11 16  1  0
 12 13  1  0
 12 11  1  0
 14 13  1  0
 14 23  1  0
 14 15  1  0
 16 10  1  0
 16 15  1  0
 17 10  2  0
 18 19  1  0
 20 21  2  0
 21 40  1  0
 22 21  1  0
 22 25  1  0
 23 20  1  0
 23 24  1  0
 24 22  2  0
 25 26  1  0
 26 27  2  0
 28 31  1  0
 28 27  1  0
 29 28  2  0
 30 29  1  0
 30 25  2  0
 31 32  1  0
 32 33  1  0
 33 34  2  0
 35 34  1  0
 35 39  1  0
 36 35  2  0
 37 32  2  0
 37 36  1  0
 38 37  1  0
 40 41  1  0
 41 44  1  0
 41 43  1  0
 42 40  2  0
 45 46  1  0
 45 20  1  0
 47 45  1  0
 48  2  1  0
 49 48  1  0
 49 52  1  0
 52 50  1  0
 52 51  1  0
 53 49  1  0
 54 65  2  0
 55 53  1  0
 55 60  1  0
 56 64  1  0
 56 66  1  0
 57 63  1  0
 57 59  1  0
 58 64  1  0
 59 58  1  0
 60 59  2  0
 61 62  1  0
 61 55  2  0
 62 57  2  0
 63 56  1  0
 64 54  1  0
 66 68  2  0
 67 66  1  0
 69 67  1  0
 70 79  2  0
 70 75  1  0
 71 67  1  0
 71 75  1  0
 72 71  1  0
 73 74  1  0
 73 72  1  0
 74 70  1  0
 75 76  2  0
 76 77  1  0
 78 77  2  0
 79 78  1  0
 80 54  1  0
 80 85  1  0
 80 81  1  0
 81 84  1  1
 81 82  1  0
 83 81  1  0
 85 88  1  0
 86 90  1  0
 86 85  1  0
 87 86  2  0
 90 89  1  0
 92 90  1  0
 92 93  1  0
 92 91  1  0
M  ISO  4  10 100  18 100  49 101  53 101
M  END
>  <TORSDO>  (7) 
F 23

>  <SCORE>  (7) 
-12.331

>  <name>  (7) 
6

>  <ligand_id>  (7) 
6

>  <original_smiles>  (7) 
[H]c1c([H])c([H])c2c(c1[H])C([H])([H])C([H])([H])C([H])([H])C2([H])N([H])C(=O)C1([H])N(C(=O)C([H])(N([H])C(=O)C([H])(N([H])C([H])([H])[H])C([H])([H])[H])C(C([H])([H])[H])(C([H])([H])[H])C([H])([H])[H])C([H])([H])c2c([H])c(OC([H])(C([H])([H])C([H])(C([H])([H])[H])C([H])(C([H])([H])[H])[N+]([H])(C([H])([H])[H])C([H])([H])C([H])([H])N([H])C(=O)N3C([H])([H])C([H])([H])C([H])([H])C([H])(n4nc(-c5c([H])c([H])c(Oc6c([H])c([H])c(F)c([H])c6F)c([H])c5[H])c(C(=O)N([H])[H])c4N([H])[H])C3([H])[H])C([H])(C([H])([H])[H])C([H])([H])[H])c([H])c([H])c2C1([H])[H]

>  <smiles>  (7) 
[H]c1c([H])c([H])c2c(c1[H])C([H])([H])C([H])([H])C([H])([H])C2([H])N([H])C(=O)C1([H])N(C(=O)C([H])(N([H])C(=O)C([H])(N([H])C([H])([H])[H])C([H])([H])[H])C(C([H])([H])[H])(C([H])([H])[H])C([H])([H])[H])C([H])([H])c2c([H])c(OC([H])(C([H])([H])C([H])(C([H])([H])[H])C([H])(C([H])([H])[H])[N+]([H])(C([H])([H])[H])C([H])([H])C([H])([H])N([H])C(=O)N3C([H])([H])C([H])([H])C([H])([H])C([H])(n4nc(-c5c([H])c([H])c(Oc6c([H])c([H])c(F)c([H])c6F)c([H])c5[H])c(C(=O)N([H])[H])c4N([H])[H])C3([H])[H])C([H])(C([H])([H])[H])C([H])([H])[H])c([H])c([H])c2C1([H])[H]

$$$$
7:0:0
     RDKit          3D

 90 98  0  0  1  0  0  0  0  0999 V2000
  -30.8030  -20.5000   21.0870 C   0  0  0  0  0  3  0  0  0  0  0  0
  -31.3480  -18.0700   21.0990 C   0  0  0  0  0  3  0  0  0  0  0  0
  -29.1740  -18.8550   20.3770 C   0  0  0  0  0  3  0  0  0  0  0  0
  -31.6970  -19.4250   21.3410 C   0  0  0  0  0  0  0  0  0  0  0  0
  -29.4990  -20.2980   20.5860 C   0  0  0  0  0  0  0  0  0  0  0  0
  -30.0690  -17.6900   20.6220 C   0  0  0  0  0  0  0  0  0  0  0  0
  -33.0600  -19.7390   21.9410 C   0  0  0  0  0  1  0  0  0  0  0  0
  -30.5040  -15.0020   20.3640 C   0  0  0  0  0  0  0  0  0  0  0  0
  -30.3680  -12.6730   19.3690 C   0  0  0  0  0  2  0  0  0  0  0  0
  -29.4220  -12.6220   18.1500 C   0  0  0  0  0  2  0  0  0  0  0  0
  -27.9640  -12.4090   18.5990 C   0  0  0  0  0  2  0  0  0  0  0  0
  -27.5630  -13.3250   19.7840 C   0  0  0  0  0  3  0  0  0  0  0  0
  -28.6260  -13.3230   20.9010 C   0  0  0  0  0  2  0  0  0  0  0  0
  -29.8880  -13.7520   20.2820 N   0  0  0  0  0  0  0  0  0  0  0  0
  -31.7080  -15.0490   20.0900 O   0  0  0  0  0  0  0  0  0  0  0  0
  -29.7340  -16.1920   20.5090 N   0  0  0  0  0  0  0  0  0  0  0  0
  -28.7470  -15.9960   20.5620 H   0  0  0  0  0  0  0  0  0  0  0  0
  -25.1850  -13.8940   20.5380 C   0  0  0  0  0  0  0  0  0  0  0  0
  -24.1250  -13.1160   20.9050 C   0  0  0  0  0  0  0  0  0  0  0  0
  -24.5900  -11.7640   20.8600 C   0  0  0  0  0  0  0  0  0  0  0  0
  -26.2290  -13.0190   20.2850 N   0  0  0  0  0  0  0  0  0  0  0  0
  -25.8800  -11.7320   20.5470 N   0  0  0  0  0  0  0  0  0  0  0  0
  -23.8670  -10.5000   21.0450 C   0  0  0  0  0  0  0  0  0  0  0  0
  -24.3040   -9.5310   21.9770 C   0  0  0  0  0  3  0  0  0  0  0  0
  -23.5840   -8.3290   22.1510 C   0  0  0  0  0  3  0  0  0  0  0  0
  -22.4120   -8.0890   21.3960 C   0  0  0  0  0  0  0  0  0  0  0  0
  -21.9940   -9.0440   20.4530 C   0  0  0  0  0  3  0  0  0  0  0  0
  -22.7130  -10.2380   20.2780 C   0  0  0  0  0  3  0  0  0  0  0  0
  -21.6610   -6.9420   21.4800 O   0  0  0  0  0  0  0  0  0  0  0  0
  -21.6100   -6.1990   22.6310 C   0  0  0  0  0  0  0  0  0  0  0  0
  -21.1580   -6.7460   23.8520 C   0  0  0  0  0  3  0  0  0  0  0  0
  -21.0570   -5.9270   24.9960 C   0  0  0  0  0  3  0  0  0  0  0  0
  -21.3940   -4.5630   24.9180 C   0  0  0  0  0  0  0  0  0  0  0  0
  -21.8350   -4.0140   23.7010 C   0  0  0  0  0  3  0  0  0  0  0  0
  -21.9380   -4.8310   22.5600 C   0  0  0  0  0  0  0  0  0  0  0  0
  -22.3450   -4.2940   21.3840 F   0  0  0  0  0  0  0  0  0  0  0  0
  -21.2870   -3.7740   26.0130 F   0  0  0  0  0  0  0  0  0  0  0  0
  -22.7250  -13.5860   21.1820 C   0  0  0  0  0  0  0  0  0  0  0  0
  -22.0030  -12.8840   22.0470 N   0  0  0  0  0  0  0  0  0  0  0  0
  -22.2800  -14.6100   20.6640 O   0  0  0  0  0  0  0  0  0  0  0  0
  -22.3790  -12.0610   22.4930 H   0  0  0  0  0  0  0  0  0  0  0  0
  -21.0590  -13.1710   22.2660 H   0  0  0  0  0  0  0  0  0  0  0  0
  -25.3510  -15.2680   20.3750 N   0  0  0  0  0  0  0  0  0  0  0  0
  -24.6030  -15.9330   20.5390 H   0  0  0  0  0  0  0  0  0  0  0  0
  -26.2160  -15.7060   20.0800 H   0  0  0  0  0  0  0  0  0  0  0  0
  -27.6560  -21.4030   19.1270 C   0  0  0  0  0  1  0  0  0  0  0  0
  -28.5110  -21.6220   20.3830 C   0  0  0  0  0  3  0  0  0  0  0  0
  -28.9550  -23.2690   20.4760 C   0  0  0  0  0  3  0  0  0  0  0  0
  -27.9340  -24.6220   20.2340 C   0  0  0  0  0  3  0  0  0  0  0  0
  -28.2190  -26.1660   20.3690 O   0  0  0  0  0  0  0  0  0  0  0  0
  -24.6330  -31.9510   23.2800 C   0  0  0  0  0  0  0  0  0  0  0  0
  -27.1800  -27.1770   20.2810 C   0  0  0  0  0  0  0  0  0  0  0  0
  -23.4300  -30.5620   21.6390 C   0  0  0  0  0  3  0  0  0  0  0  0
  -24.8730  -28.9670   20.2250 C   0  0  0  0  0  0  0  0  0  0  0  0
  -25.9900  -30.7970   21.4880 C   0  0  0  0  0  2  0  0  0  0  0  0
  -26.0550  -29.3990   20.8360 C   0  0  0  0  0  0  0  0  0  0  0  0
  -27.2110  -28.5230   20.8400 C   0  0  0  0  0  3  0  0  0  0  0  0
  -25.9700  -26.8570   19.6240 C   0  0  0  0  0  3  0  0  0  0  0  0
  -24.8470  -27.7120   19.5960 C   0  0  0  0  0  3  0  0  0  0  0  0
  -23.6540  -29.8770   20.2620 C   0  0  0  0  0  2  0  0  0  0  0  0
  -24.7040  -31.1260   22.1900 N   0  0  0  0  0  0  0  0  0  0  0  0
  -23.5460  -32.2500   23.8020 O   0  0  0  0  0  0  0  0  0  0  0  0
  -22.7340  -29.5670   22.6050 C   0  0  0  0  0  0  0  0  0  0  0  0
  -21.4050  -29.4100   22.4750 N   0  0  0  0  0  0  0  0  0  0  0  0
  -23.3940  -28.9370   23.4350 O   0  0  0  0  0  0  0  0  0  0  0  0
  -20.9310  -29.9650   21.7750 H   0  0  0  0  0  0  0  0  0  0  0  0
  -18.0110  -28.2450   22.9670 C   0  0  0  0  0  0  0  0  0  0  0  0
  -20.5710  -28.4840   23.2460 C   0  0  0  0  0  3  0  0  0  0  0  0
  -20.6620  -27.0500   22.6750 C   0  0  0  0  0  2  0  0  0  0  0  0
  -19.5620  -26.7330   21.6560 C   0  0  0  0  0  2  0  0  0  0  0  0
  -18.1780  -26.8930   22.2940 C   0  0  0  0  0  2  0  0  0  0  0  0
  -19.1340  -29.0000   23.3980 C   0  0  0  0  0  0  0  0  0  0  0  0
  -18.9240  -30.2660   23.9900 C   0  0  0  0  0  3  0  0  0  0  0  0
  -17.6230  -30.7770   24.1500 C   0  0  0  0  0  3  0  0  0  0  0  0
  -16.5130  -30.0230   23.7300 C   0  0  0  0  0  3  0  0  0  0  0  0
  -16.7090  -28.7570   23.1480 C   0  0  0  0  0  3  0  0  0  0  0  0
  -25.9110  -32.5790   23.9150 C   0  0  0  0  0  3  0  0  0  0  0  0
  -26.4080  -31.8120   25.2010 C   0  0  1  0  0  0  0  0  0  0  0  0
  -25.3050  -31.5870   26.2620 C   0  0  0  0  0  1  0  0  0  0  0  0
  -26.9750  -30.4240   24.8250 C   0  0  0  0  0  1  0  0  0  0  0  0
  -27.5610  -32.6040   25.8640 C   0  0  0  0  0  1  0  0  0  0  0  0
  -25.6070  -33.9830   24.2360 N   0  0  0  0  0  0  0  0  0  0  0  0
  -25.9310  -35.0320   23.4690 C   0  0  0  0  0  0  0  0  0  0  0  0
  -26.5800  -34.9230   22.4260 O   0  0  0  0  0  0  0  0  0  0  0  0
  -25.0230  -34.1440   25.0430 H   0  0  0  0  0  0  0  0  0  0  0  0
  -24.1870  -36.8270   23.1730 C   0  0  0  0  0  1  0  0  0  0  0  0
  -25.4610  -36.4260   23.9340 C   0  0  0  0  0  3  0  0  0  0  0  0
  -27.6270  -37.3270   24.6680 C   0  0  0  0  0  1  0  0  0  0  0  0
  -26.4860  -37.4810   23.7700 N   0  0  0  0  0  0  0  0  0  0  0  0
  -26.0830  -38.4010   23.9250 H   0  0  0  0  0  0  0  0  0  0  0  0
  1  4  1  0
  2  4  2  0
  3  5  1  0
  3  6  2  0
  4  7  1  0
  5  1  2  0
  6  2  1  0
  8 16  1  0
  9 14  1  0
 10 11  1  0
 10  9  1  0
 12 11  1  0
 12 21  1  0
 12 13  1  0
 14  8  1  0
 14 13  1  0
 15  8  2  0
 16 17  1  0
 16  6  1  0
 18 19  2  0
 19 38  1  0
 20 19  1  0
 20 23  1  0
 21 18  1  0
 21 22  1  0
 22 20  2  0
 23 24  1  0
 24 25  2  0
 26 29  1  0
 26 25  1  0
 27 26  2  0
 28 27  1  0
 28 23  2  0
 29 30  1  0
 30 31  1  0
 31 32  2  0
 33 32  1  0
 33 37  1  0
 34 33  2  0
 35 30  2  0
 35 34  1  0
 36 35  1  0
 38 39  1  0
 39 42  1  0
 39 41  1  0
 40 38  2  0
 43 18  1  0
 43 44  1  0
 45 43  1  0
 47 46  1  0
 47 48  1  0
 47  5  1  0
 49 50  1  0
 49 48  2  0
 51 62  2  0
 52 50  1  0
 52 57  1  0
 53 61  1  0
 53 63  1  0
 54 60  1  0
 54 56  1  0
 55 61  1  0
 56 57  2  0
 56 55  1  0
 58 52  2  0
 59 58  1  0
 59 54  2  0
 60 53  1  0
 61 51  1  0
 63 65  2  0
 64 63  1  0
 66 64  1  0
 67 76  2  0
 67 72  1  0
 68 64  1  0
 68 72  1  0
 69 68  1  0
 70 71  1  0
 70 69  1  0
 71 67  1  0
 72 73  2  0
 73 74  1  0
 75 74  2  0
 76 75  1  0
 77 51  1  0
 77 82  1  0
 77 78  1  0
 78 81  1  1
 78 79  1  0
 80 78  1  0
 82 85  1  0
 83 87  1  0
 83 82  1  0
 84 83  2  0
 87 86  1  0
 89 90  1  0
 89 87  1  0
 89 88  1  0
M  ISO  4   8 100  16 100  49 101  50 101
M  END
>  <TORSDO>  (8) 
F 19

>  <SCORE>  (8) 
-15.555

>  <name>  (8) 
7

>  <ligand_id>  (8) 
7

>  <original_smiles>  (8) 
[H]c1c([H])c([H])c2c(c1[H])C([H])([H])C([H])([H])C([H])([H])C2([H])N([H])C(=O)C1([H])N(C(=O)C([H])(N([H])C(=O)C([H])(N([H])C([H])([H])[H])C([H])([H])[H])C(C([H])([H])[H])(C([H])([H])[H])C([H])([H])[H])C([H])([H])c2c([H])c(OC([H])([H])C([H])([H])C([H])(c3c([H])c(N([H])C(=O)N4C([H])([H])C([H])([H])C([H])([H])C([H])(n5nc(-c6c([H])c([H])c(Oc7c([H])c([H])c(F)c([H])c7F)c([H])c6[H])c(C(=O)N([H])[H])c5N([H])[H])C4([H])[H])c([H])c(C([H])([H])[H])c3[H])C([H])([H])[H])c([H])c([H])c2C1([H])[H]

>  <smiles>  (8) 
[H]c1c([H])c([H])c2c(c1[H])C([H])([H])C([H])([H])C([H])([H])C2([H])N([H])C(=O)C1([H])N(C(=O)C([H])(N([H])C(=O)C([H])(N([H])C([H])([H])[H])C([H])([H])[H])C(C([H])([H])[H])(C([H])([H])[H])C([H])([H])[H])C([H])([H])c2c([H])c(OC([H])([H])C([H])([H])C([H])(c3c([H])c(N([H])C(=O)N4C([H])([H])C([H])([H])C([H])([H])C([H])(n5nc(-c6c([H])c([H])c(Oc7c([H])c([H])c(F)c([H])c7F)c([H])c6[H])c(C(=O)N([H])[H])c5N([H])[H])C4([H])[H])c([H])c(C([H])([H])[H])c3[H])C([H])([H])[H])c([H])c([H])c2C1([H])[H]

$$$$
8:0:0
     RDKit          3D

 99107  0  0  1  0  0  0  0  0999 V2000
  -29.2400  -21.2960   20.5430 C   0  0  0  0  0  3  0  0  0  0  0  0
  -28.3860  -22.2210   19.9080 C   0  0  0  0  0  0  0  0  0  0  0  0
  -27.9330  -21.4670   18.7680 C   0  0  0  0  0  0  0  0  0  0  0  0
  -28.5080  -20.2100   18.7420 C   0  0  0  0  0  0  0  0  0  0  0  0
  -26.9610  -21.9950   17.7320 C   0  0  0  0  0  1  0  0  0  0  0  0
  -29.3400  -20.0390   19.8450 N   0  0  0  0  0  0  0  0  0  0  0  0
  -26.5540  -23.5530   21.0930 C   0  0  0  0  0  1  0  0  0  0  0  0
  -27.7900  -23.7180   20.1930 C   0  0  0  0  0  3  0  0  0  0  0  0
  -28.5970  -25.0290   20.7050 C   0  0  0  0  0  2  0  0  0  0  0  0
  -28.4040  -26.4840   20.2950 O   0  0  0  0  0  0  0  0  0  0  0  0
  -24.6040  -31.9640   23.2810 C   0  0  0  0  0  0  0  0  0  0  0  0
  -27.2430  -27.2910   20.3600 C   0  0  0  0  0  0  0  0  0  0  0  0
  -23.4180  -30.5420   21.6480 C   0  0  0  0  0  3  0  0  0  0  0  0
  -24.8840  -28.9450   20.2770 C   0  0  0  0  0  0  0  0  0  0  0  0
  -25.9630  -30.8360   21.4960 C   0  0  0  0  0  2  0  0  0  0  0  0
  -26.0490  -29.4370   20.8790 C   0  0  0  0  0  0  0  0  0  0  0  0
  -27.2310  -28.6260   20.8960 C   0  0  0  0  0  3  0  0  0  0  0  0
  -26.0530  -26.8600   19.7380 C   0  0  0  0  0  3  0  0  0  0  0  0
  -24.8920  -27.6660   19.6960 C   0  0  0  0  0  3  0  0  0  0  0  0
  -23.6520  -29.8340   20.2870 C   0  0  0  0  0  2  0  0  0  0  0  0
  -24.6810  -31.1350   22.1970 N   0  0  0  0  0  0  0  0  0  0  0  0
  -23.5130  -32.2560   23.7940 O   0  0  0  0  0  0  0  0  0  0  0  0
  -22.7350  -29.5480   22.6180 C   0  0  0  0  0  0  0  0  0  0  0  0
  -21.4090  -29.3790   22.4790 N   0  0  0  0  0  0  0  0  0  0  0  0
  -23.4010  -28.9320   23.4550 O   0  0  0  0  0  0  0  0  0  0  0  0
  -20.9320  -29.9260   21.7770 H   0  0  0  0  0  0  0  0  0  0  0  0
  -18.0200  -28.2110   22.9690 C   0  0  0  0  0  0  0  0  0  0  0  0
  -20.5780  -28.4560   23.2530 C   0  0  0  0  0  3  0  0  0  0  0  0
  -20.6740  -27.0180   22.6930 C   0  0  0  0  0  2  0  0  0  0  0  0
  -19.5780  -26.6920   21.6740 C   0  0  0  0  0  2  0  0  0  0  0  0
  -18.1930  -26.8530   22.3060 C   0  0  0  0  0  2  0  0  0  0  0  0
  -19.1410  -28.9700   23.3980 C   0  0  0  0  0  0  0  0  0  0  0  0
  -18.9260  -30.2390   23.9760 C   0  0  0  0  0  3  0  0  0  0  0  0
  -17.6220  -30.7510   24.1270 C   0  0  0  0  0  3  0  0  0  0  0  0
  -16.5160  -29.9880   23.7130 C   0  0  0  0  0  3  0  0  0  0  0  0
  -16.7150  -28.7200   23.1390 C   0  0  0  0  0  3  0  0  0  0  0  0
  -25.8780  -32.6050   23.9120 C   0  0  0  0  0  3  0  0  0  0  0  0
  -25.5610  -34.0050   24.2300 N   0  0  0  0  0  0  0  0  0  0  0  0
  -25.9080  -35.0570   23.4760 C   0  0  0  0  0  0  0  0  0  0  0  0
  -26.5940  -34.9500   22.4550 O   0  0  0  0  0  0  0  0  0  0  0  0
  -24.9470  -34.1600   25.0160 H   0  0  0  0  0  0  0  0  0  0  0  0
  -24.1840  -36.8500   23.0980 C   0  0  0  0  0  1  0  0  0  0  0  0
  -25.4170  -36.4480   23.9220 C   0  0  0  0  0  3  0  0  0  0  0  0
  -27.5460  -37.3310   24.7700 C   0  0  0  0  0  1  0  0  0  0  0  0
  -26.4530  -37.4980   23.8160 N   0  0  0  0  0  0  0  0  0  0  0  0
  -26.0480  -38.4180   23.9590 H   0  0  0  0  0  0  0  0  0  0  0  0
  -26.3830  -31.8430   25.1990 C   0  0  1  0  0  0  0  0  0  0  0  0
  -25.2740  -31.6040   26.2520 C   0  0  0  0  0  1  0  0  0  0  0  0
  -26.9800  -30.4680   24.8240 C   0  0  0  0  0  1  0  0  0  0  0  0
  -27.5210  -32.6500   25.8700 C   0  0  0  0  0  1  0  0  0  0  0  0
  -28.3900  -19.1340   17.6940 C   0  0  0  0  0  2  0  0  0  0  0  0
  -29.2920  -19.4350   16.5640 N   0  0  0  0  0  4  0  0  0  0  0  0
  -30.0670  -19.9560   16.9370 H   0  0  0  0  0  0  0  0  0  0  0  0
  -28.8130  -20.0330   15.9120 H   0  0  0  0  0  0  0  0  0  0  0  0
  -29.8240  -18.2500   15.8530 C   0  0  0  0  0  2  0  0  0  0  0  0
  -31.5880  -17.2600   14.3680 C   0  0  0  0  0  1  0  0  0  0  0  0
  -30.7220  -19.5440   13.8390 C   0  0  0  0  0  1  0  0  0  0  0  0
  -32.1940  -19.1780   15.8540 C   0  0  0  0  0  1  0  0  0  0  0  0
  -31.0690  -18.5750   14.9860 C   0  0  1  0  0  0  0  0  0  0  0  0
  -30.2720  -18.8070   20.0500 C   0  0  0  0  0  2  0  0  0  0  0  0
  -29.9110  -17.4710   20.9210 C   0  0  0  0  0  2  0  0  0  0  0  0
  -30.6610  -14.9150   20.2580 C   0  0  0  0  0  0  0  0  0  0  0  0
  -30.5180  -12.6290   19.2180 C   0  0  0  0  0  2  0  0  0  0  0  0
  -29.5580  -12.6600   18.0070 C   0  0  0  0  0  2  0  0  0  0  0  0
  -28.0930  -12.4740   18.4570 C   0  0  0  0  0  2  0  0  0  0  0  0
  -27.7220  -13.3660   19.6710 C   0  0  0  0  0  3  0  0  0  0  0  0
  -28.7910  -13.2820   20.7790 C   0  0  0  0  0  2  0  0  0  0  0  0
  -30.0700  -13.6710   20.1660 N   0  0  0  0  0  0  0  0  0  0  0  0
  -31.8670  -15.0410   20.0250 O   0  0  0  0  0  0  0  0  0  0  0  0
  -29.8090  -16.0130   20.4010 N   0  0  0  0  0  0  0  0  0  0  0  0
  -28.8520  -15.7000   20.3850 H   0  0  0  0  0  0  0  0  0  0  0  0
  -25.3390  -13.9600   20.4050 C   0  0  0  0  0  0  0  0  0  0  0  0
  -24.2770  -13.1890   20.7870 C   0  0  0  0  0  0  0  0  0  0  0  0
  -24.7430  -11.8390   20.7690 C   0  0  0  0  0  0  0  0  0  0  0  0
  -26.3830  -13.0810   20.1740 N   0  0  0  0  0  0  0  0  0  0  0  0
  -26.0320  -11.8000   20.4570 N   0  0  0  0  0  0  0  0  0  0  0  0
  -24.0200  -10.5770   20.9710 C   0  0  0  0  0  0  0  0  0  0  0  0
  -24.4560   -9.6180   21.9130 C   0  0  0  0  0  3  0  0  0  0  0  0
  -23.7320   -8.4210   22.1020 C   0  0  0  0  0  3  0  0  0  0  0  0
  -22.5590   -8.1740   21.3500 C   0  0  0  0  0  0  0  0  0  0  0  0
  -22.1420   -9.1210   20.3980 C   0  0  0  0  0  3  0  0  0  0  0  0
  -22.8660  -10.3110   20.2070 C   0  0  0  0  0  3  0  0  0  0  0  0
  -21.8080   -7.0280   21.4480 O   0  0  0  0  0  0  0  0  0  0  0  0
  -21.7560   -6.3000   22.6100 C   0  0  0  0  0  0  0  0  0  0  0  0
  -21.3460   -6.8750   23.8330 C   0  0  0  0  0  3  0  0  0  0  0  0
  -21.2410   -6.0730   24.9870 C   0  0  0  0  0  3  0  0  0  0  0  0
  -21.5350   -4.6980   24.9200 C   0  0  0  0  0  0  0  0  0  0  0  0
  -21.9380   -4.1230   23.7010 C   0  0  0  0  0  3  0  0  0  0  0  0
  -22.0460   -4.9220   22.5500 C   0  0  0  0  0  0  0  0  0  0  0  0
  -22.4140   -4.3580   21.3730 F   0  0  0  0  0  0  0  0  0  0  0  0
  -21.4270   -3.9250   26.0270 F   0  0  0  0  0  0  0  0  0  0  0  0
  -22.8780  -13.6660   21.0560 C   0  0  0  0  0  0  0  0  0  0  0  0
  -22.1570  -12.9830   21.9370 N   0  0  0  0  0  0  0  0  0  0  0  0
  -22.4370  -14.6810   20.5180 O   0  0  0  0  0  0  0  0  0  0  0  0
  -22.5290  -12.1630   22.3910 H   0  0  0  0  0  0  0  0  0  0  0  0
  -21.2190  -13.2850   22.1590 H   0  0  0  0  0  0  0  0  0  0  0  0
  -25.4970  -15.3300   20.2110 N   0  0  0  0  0  0  0  0  0  0  0  0
  -24.7210  -15.9740   20.3140 H   0  0  0  0  0  0  0  0  0  0  0  0
  -26.3260  -15.7700   19.8380 H   0  0  0  0  0  0  0  0  0  0  0  0
  2  8  1  0
  2  1  2  0
  3  2  1  0
  4  3  2  0
  4  6  1  0
  5  3  1  0
  6 60  1  0
  6  1  1  0
  8  9  1  0
  8  7  1  0
 10 12  1  0
 10  9  1  0
 11 22  2  0
 12 17  1  0
 13 21  1  0
 13 23  1  0
 14 20  1  0
 14 16  1  0
 15 21  1  0
 16 17  2  0
 16 15  1  0
 18 12  2  0
 19 18  1  0
 19 14  2  0
 20 13  1  0
 21 11  1  0
 23 25  2  0
 24 23  1  0
 26 24  1  0
 27 36  2  0
 27 32  1  0
 28 24  1  0
 28 32  1  0
 29 28  1  0
 30 31  1  0
 30 29  1  0
 31 27  1  0
 32 33  2  0
 33 34  1  0
 35 34  2  0
 36 35  1  0
 37 11  1  0
 37 38  1  0
 37 47  1  0
 38 41  1  0
 39 43  1  0
 39 38  1  0
 40 39  2  0
 43 42  1  0
 45 43  1  0
 45 46  1  0
 45 44  1  0
 47 50  1  1
 47 48  1  0
 49 47  1  0
 51  4  1  0
 52 53  1  0
 52 51  1  0
 54 52  1  0
 55 52  1  0
 59 56  1  6
 57 59  1  0
 59 55  1  0
 59 58  1  0
 60 61  1  0
 62 70  1  0
 63 68  1  0
 64 65  1  0
 64 63  1  0
 66 65  1  0
 66 75  1  0
 66 67  1  0
 68 62  1  0
 68 67  1  0
 69 62  2  0
 70 61  1  0
 71 70  1  0
 72 73  2  0
 73 92  1  0
 74 73  1  0
 74 77  1  0
 75 72  1  0
 75 76  1  0
 76 74  2  0
 77 78  1  0
 78 79  2  0
 80 83  1  0
 80 79  1  0
 81 80  2  0
 82 81  1  0
 82 77  2  0
 83 84  1  0
 84 85  1  0
 85 86  2  0
 87 86  1  0
 87 91  1  0
 88 87  2  0
 89 84  2  0
 89 88  1  0
 90 89  1  0
 92 93  1  0
 93 96  1  0
 93 95  1  0
 94 92  2  0
 97 98  1  0
 97 72  1  0
 99 97  1  0
M  ISO  4   9 101  10 101  62 100  70 100
M  END
>  <TORSDO>  (9) 
F 24

>  <SCORE>  (9) 
-12.609

>  <name>  (9) 
8

>  <ligand_id>  (9) 
8

>  <original_smiles>  (9) 
[H]c1c([H])c([H])c2c(c1[H])C([H])([H])C([H])([H])C([H])([H])C2([H])N([H])C(=O)C1([H])N(C(=O)C([H])(N([H])C(=O)C([H])(N([H])C([H])([H])[H])C([H])([H])[H])C(C([H])([H])[H])(C([H])([H])[H])C([H])([H])[H])C([H])([H])c2c([H])c(OC([H])([H])C([H])(c3c(C([H])([H])[H])c(C([H])([H])[N+]([H])([H])C([H])([H])C(C([H])([H])[H])(C([H])([H])[H])C([H])([H])[H])n(C([H])([H])C([H])([H])N([H])C(=O)N4C([H])([H])C([H])([H])C([H])([H])C([H])(n5nc(-c6c([H])c([H])c(Oc7c([H])c([H])c(F)c([H])c7F)c([H])c6[H])c(C(=O)N([H])[H])c5N([H])[H])C4([H])[H])c3[H])C([H])([H])[H])c([H])c([H])c2C1([H])[H]

>  <smiles>  (9) 
[H]c1c([H])c([H])c2c(c1[H])C([H])([H])C([H])([H])C([H])([H])C2([H])N([H])C(=O)C1([H])N(C(=O)C([H])(N([H])C(=O)C([H])(N([H])C([H])([H])[H])C([H])([H])[H])C(C([H])([H])[H])(C([H])([H])[H])C([H])([H])[H])C([H])([H])c2c([H])c(OC([H])([H])C([H])(c3c(C([H])([H])[H])c(C([H])([H])[N+]([H])([H])C([H])([H])C(C([H])([H])[H])(C([H])([H])[H])C([H])([H])[H])n(C([H])([H])C([H])([H])N([H])C(=O)N4C([H])([H])C([H])([H])C([H])([H])C([H])(n5nc(-c6c([H])c([H])c(Oc7c([H])c([H])c(F)c([H])c7F)c([H])c6[H])c(C(=O)N([H])[H])c5N([H])[H])C4([H])[H])c3[H])C([H])([H])[H])c([H])c([H])c2C1([H])[H]

$$$$
9:0:0
     RDKit          3D

 91 99  0  0  1  0  0  0  0  0999 V2000
  -29.1540  -22.4240   18.9580 C   0  0  0  0  0  2  0  0  0  0  0  0
  -28.2300  -22.5890   21.2420 C   0  0  0  0  0  2  0  0  0  0  0  0
  -29.7380  -20.9570   19.2750 C   0  0  0  0  0  2  0  0  0  0  0  0
  -28.8410  -21.1520   21.5250 C   0  0  0  0  0  2  0  0  0  0  0  0
  -28.8900  -23.4680   20.1290 C   0  0  0  0  0  3  0  0  0  0  0  0
  -28.8960  -20.1360   20.3090 C   0  0  0  0  0  3  0  0  0  0  0  0
  -29.2210  -18.6440   20.7140 N   0  0  1  0  0  4  0  0  0  0  0  0
  -29.7980  -18.7680   21.5350 H   0  0  0  0  0  0  0  0  0  0  0  0
  -27.0260  -17.4530   20.1490 C   0  0  0  0  0  1  0  0  0  0  0  0
  -27.9610  -18.0190   21.2350 C   0  0  0  0  0  2  0  0  0  0  0  0
  -30.0570  -17.5960   19.8970 C   0  0  0  0  0  2  0  0  0  0  0  0
  -31.3040  -16.0720   21.6330 C   0  0  0  0  0  1  0  0  0  0  0  0
  -30.2370  -16.0490   20.5080 C   0  0  0  0  0  3  0  0  0  0  0  0
  -30.6390  -14.7540   19.5980 C   0  0  0  0  0  0  0  0  0  0  0  0
  -30.2210  -12.5310   18.4720 C   0  0  0  0  0  2  0  0  0  0  0  0
  -29.1260  -12.6620   17.3880 C   0  0  0  0  0  2  0  0  0  0  0  0
  -27.7260  -12.4830   18.0040 C   0  0  0  0  0  2  0  0  0  0  0  0
  -27.5390  -13.3250   19.2940 C   0  0  0  0  0  3  0  0  0  0  0  0
  -28.7380  -13.1620   20.2590 C   0  0  0  0  0  2  0  0  0  0  0  0
  -29.9560  -13.5460   19.5300 N   0  0  0  0  0  0  0  0  0  0  0  0
  -31.6760  -14.8550   18.9380 O   0  0  0  0  0  0  0  0  0  0  0  0
  -25.2750  -13.9250   20.3410 C   0  0  0  0  0  0  0  0  0  0  0  0
  -24.2520  -13.1580   20.8290 C   0  0  0  0  0  0  0  0  0  0  0  0
  -24.6730  -11.8030   20.6790 C   0  0  0  0  0  0  0  0  0  0  0  0
  -26.2620  -13.0390   19.9420 N   0  0  0  0  0  0  0  0  0  0  0  0
  -25.9100  -11.7530   20.2010 N   0  0  0  0  0  0  0  0  0  0  0  0
  -23.9400  -10.5500   20.9070 C   0  0  0  0  0  0  0  0  0  0  0  0
  -24.4170   -9.5670   21.8010 C   0  0  0  0  0  3  0  0  0  0  0  0
  -23.6830   -8.3830   22.0200 C   0  0  0  0  0  3  0  0  0  0  0  0
  -22.4570   -8.1720   21.3460 C   0  0  0  0  0  0  0  0  0  0  0  0
  -21.9970   -9.1440   20.4400 C   0  0  0  0  0  3  0  0  0  0  0  0
  -22.7320  -10.3210   20.2190 C   0  0  0  0  0  3  0  0  0  0  0  0
  -21.6900   -7.0400   21.4780 O   0  0  0  0  0  0  0  0  0  0  0  0
  -21.6540   -6.3270   22.6490 C   0  0  0  0  0  0  0  0  0  0  0  0
  -21.2650   -6.9180   23.8710 C   0  0  0  0  0  3  0  0  0  0  0  0
  -21.1760   -6.1320   25.0360 C   0  0  0  0  0  3  0  0  0  0  0  0
  -21.4680   -4.7550   24.9830 C   0  0  0  0  0  0  0  0  0  0  0  0
  -21.8530   -4.1640   23.7660 C   0  0  0  0  0  3  0  0  0  0  0  0
  -21.9440   -4.9480   22.6020 C   0  0  0  0  0  0  0  0  0  0  0  0
  -22.2940   -4.3680   21.4280 F   0  0  0  0  0  0  0  0  0  0  0  0
  -21.3760   -3.9990   26.1010 F   0  0  0  0  0  0  0  0  0  0  0  0
  -22.9190  -13.6560   21.3050 C   0  0  0  0  0  0  0  0  0  0  0  0
  -22.3070  -12.9550   22.2540 N   0  0  0  0  0  0  0  0  0  0  0  0
  -22.4350  -14.7010   20.8730 O   0  0  0  0  0  0  0  0  0  0  0  0
  -22.7110  -12.1070   22.6220 H   0  0  0  0  0  0  0  0  0  0  0  0
  -21.4200  -13.2730   22.6160 H   0  0  0  0  0  0  0  0  0  0  0  0
  -25.4300  -15.2930   20.1730 N   0  0  0  0  0  0  0  0  0  0  0  0
  -24.6540  -15.9230   20.3380 H   0  0  0  0  0  0  0  0  0  0  0  0
  -26.1600  -15.7070   19.6100 H   0  0  0  0  0  0  0  0  0  0  0  0
  -28.0000  -24.7850   19.6920 C   0  0  0  0  0  2  0  0  0  0  0  0
  -28.1670  -26.2250   20.1330 O   0  0  0  0  0  0  0  0  0  0  0  0
  -24.3560  -31.7170   23.0080 C   0  0  0  0  0  0  0  0  0  0  0  0
  -27.0750  -27.1330   20.0120 C   0  0  0  0  0  0  0  0  0  0  0  0
  -23.2130  -30.3320   21.3130 C   0  0  0  0  0  3  0  0  0  0  0  0
  -24.7150  -28.7950   19.9180 C   0  0  0  0  0  0  0  0  0  0  0  0
  -25.7590  -30.6390   21.2260 C   0  0  0  0  0  2  0  0  0  0  0  0
  -25.8660  -29.2610   20.5700 C   0  0  0  0  0  0  0  0  0  0  0  0
  -27.0430  -28.4410   20.6100 C   0  0  0  0  0  3  0  0  0  0  0  0
  -25.9010  -26.7480   19.3170 C   0  0  0  0  0  3  0  0  0  0  0  0
  -24.7390  -27.5440   19.2840 C   0  0  0  0  0  3  0  0  0  0  0  0
  -23.4770  -29.6720   19.9350 C   0  0  0  0  0  2  0  0  0  0  0  0
  -24.4600  -30.9150   21.9050 N   0  0  0  0  0  0  0  0  0  0  0  0
  -23.2520  -31.9880   23.5060 O   0  0  0  0  0  0  0  0  0  0  0  0
  -22.5180  -29.3060   22.2410 C   0  0  0  0  0  0  0  0  0  0  0  0
  -21.1930  -29.1450   22.0830 N   0  0  0  0  0  0  0  0  0  0  0  0
  -23.1730  -28.6580   23.0620 O   0  0  0  0  0  0  0  0  0  0  0  0
  -20.7270  -29.7220   21.3970 H   0  0  0  0  0  0  0  0  0  0  0  0
  -17.7880  -28.0020   22.5220 C   0  0  0  0  0  0  0  0  0  0  0  0
  -20.3470  -28.2020   22.8180 C   0  0  0  0  0  3  0  0  0  0  0  0
  -20.4250  -26.7870   22.1990 C   0  0  0  0  0  2  0  0  0  0  0  0
  -19.3250  -26.5190   21.1680 C   0  0  0  0  0  2  0  0  0  0  0  0
  -17.9420  -26.6710   21.8060 C   0  0  0  0  0  2  0  0  0  0  0  0
  -18.9180  -28.7280   22.9830 C   0  0  0  0  0  0  0  0  0  0  0  0
  -18.7200  -29.9760   23.6120 C   0  0  0  0  0  3  0  0  0  0  0  0
  -17.4240  -30.4960   23.7900 C   0  0  0  0  0  3  0  0  0  0  0  0
  -16.3080  -29.7660   23.3460 C   0  0  0  0  0  3  0  0  0  0  0  0
  -16.4910  -28.5220   22.7160 C   0  0  0  0  0  3  0  0  0  0  0  0
  -25.6140  -32.3460   23.6810 C   0  0  0  0  0  3  0  0  0  0  0  0
  -25.2820  -33.7360   24.0290 N   0  0  0  0  0  0  0  0  0  0  0  0
  -25.6100  -34.8060   23.2930 C   0  0  0  0  0  0  0  0  0  0  0  0
  -26.2950  -34.7280   22.2690 O   0  0  0  0  0  0  0  0  0  0  0  0
  -24.6750  -33.8680   24.8240 H   0  0  0  0  0  0  0  0  0  0  0  0
  -23.8670  -36.5880   22.9520 C   0  0  0  0  0  1  0  0  0  0  0  0
  -25.1020  -36.1800   23.7680 C   0  0  0  0  0  3  0  0  0  0  0  0
  -27.2170  -37.0800   24.6330 C   0  0  0  0  0  1  0  0  0  0  0  0
  -26.1230  -37.2470   23.6810 N   0  0  0  0  0  0  0  0  0  0  0  0
  -25.7050  -38.1590   23.8390 H   0  0  0  0  0  0  0  0  0  0  0  0
  -26.0960  -31.5550   24.9610 C   0  0  1  0  0  0  0  0  0  0  0  0
  -24.9700  -31.2870   25.9880 C   0  0  0  0  0  1  0  0  0  0  0  0
  -26.7090  -30.1910   24.5650 C   0  0  0  0  0  1  0  0  0  0  0  0
  -27.2130  -32.3490   25.6770 C   0  0  0  0  0  1  0  0  0  0  0  0
  1  3  1  0
  1  5  1  0
  2  4  1  0
  3  6  1  0
  5 50  1  0
  5  2  1  0
  6  7  1  0
  6  4  1  0
  7 10  1  0
  7  8  1  1
  9 10  1  0
 11 13  1  0
 11  7  1  0
 13 12  1  0
 14 13  1  0
 15 20  1  0
 16 17  1  0
 16 15  1  0
 18 17  1  0
 18 25  1  0
 18 19  1  0
 20 14  1  0
 20 19  1  0
 21 14  2  0
 22 23  2  0
 23 42  1  0
 24 23  1  0
 24 27  1  0
 25 26  1  0
 25 22  1  0
 26 24  2  0
 27 28  1  0
 28 29  2  0
 30 33  1  0
 30 29  1  0
 31 30  2  0
 32 31  1  0
 32 27  2  0
 33 34  1  0
 34 35  1  0
 35 36  2  0
 37 36  1  0
 37 41  1  0
 38 37  2  0
 39 34  2  0
 39 38  1  0
 40 39  1  0
 42 43  1  0
 43 46  1  0
 43 45  1  0
 44 42  2  0
 47 48  1  0
 47 22  1  0
 49 47  1  0
 50 51  1  0
 52 63  2  0
 53 51  1  0
 53 58  1  0
 54 62  1  0
 54 64  1  0
 55 61  1  0
 55 57  1  0
 56 62  1  0
 57 58  2  0
 57 56  1  0
 59 53  2  0
 60 59  1  0
 60 55  2  0
 61 54  1  0
 62 52  1  0
 64 66  2  0
 65 64  1  0
 67 65  1  0
 68 77  2  0
 68 73  1  0
 69 65  1  0
 69 73  1  0
 70 69  1  0
 71 72  1  0
 71 70  1  0
 72 68  1  0
 73 74  2  0
 74 75  1  0
 76 75  2  0
 77 76  1  0
 78 52  1  0
 78 79  1  0
 78 88  1  0
 79 82  1  0
 80 84  1  0
 80 79  1  0
 81 80  2  0
 84 83  1  0
 86 84  1  0
 86 87  1  0
 86 85  1  0
 88 91  1  1
 88 89  1  0
 90 88  1  0
M  ISO  4  13 100  14 100  50 101  51 101
M  END
>  <TORSDO>  (10) 
F 21

>  <SCORE>  (10) 
-11.402

>  <name>  (10) 
9

>  <ligand_id>  (10) 
9

>  <original_smiles>  (10) 
[H]c1c([H])c([H])c2c(c1[H])C([H])([H])C([H])([H])C([H])([H])C2([H])N([H])C(=O)C1([H])N(C(=O)C([H])(N([H])C(=O)C([H])(N([H])C([H])([H])[H])C([H])([H])[H])C(C([H])([H])[H])(C([H])([H])[H])C([H])([H])[H])C([H])([H])c2c([H])c(OC([H])([H])C3([H])C([H])([H])C([H])([H])C([H])([N+]([H])(C([H])([H])C([H])([H])[H])C([H])([H])C([H])(C(=O)N4C([H])([H])C([H])([H])C([H])([H])C([H])(n5nc(-c6c([H])c([H])c(Oc7c([H])c([H])c(F)c([H])c7F)c([H])c6[H])c(C(=O)N([H])[H])c5N([H])[H])C4([H])[H])C([H])([H])[H])C([H])([H])C3([H])[H])c([H])c([H])c2C1([H])[H]

>  <smiles>  (10) 
[H]c1c([H])c([H])c2c(c1[H])C([H])([H])C([H])([H])C([H])([H])C2([H])N([H])C(=O)C1([H])N(C(=O)C([H])(N([H])C(=O)C([H])(N([H])C([H])([H])[H])C([H])([H])[H])C(C([H])([H])[H])(C([H])([H])[H])C([H])([H])[H])C([H])([H])c2c([H])c(OC([H])([H])C3([H])C([H])([H])C([H])([H])C([H])([N+]([H])(C([H])([H])C([H])([H])[H])C([H])([H])C([H])(C(=O)N4C([H])([H])C([H])([H])C([H])([H])C([H])(n5nc(-c6c([H])c([H])c(Oc7c([H])c([H])c(F)c([H])c7F)c([H])c6[H])c(C(=O)N([H])[H])c5N([H])[H])C4([H])[H])C([H])([H])[H])C([H])([H])C3([H])[H])c([H])c([H])c2C1([H])[H]

$$$$
10:0:0
     RDKit          3D

 94102  0  0  1  0  0  0  0  0999 V2000
  -28.4960  -20.6150   19.4140 C   0  0  0  0  0  3  0  0  0  0  0  0
  -30.1970  -21.8480   19.9350 C   0  0  0  0  0  3  0  0  0  0  0  0
  -28.8790  -22.0550   19.5720 C   0  0  0  0  0  0  0  0  0  0  0  0
  -29.5000  -19.6310   19.6890 C   0  0  0  0  0  0  0  0  0  0  0  0
  -30.5560  -20.4800   20.0480 N   0  0  0  0  0  0  0  0  0  0  0  0
  -29.6920  -17.9920   19.4350 C   0  0  0  0  0  2  0  0  0  0  0  0
  -30.5550  -15.5750   20.4690 C   0  0  0  0  0  0  0  0  0  0  0  0
  -30.7000  -13.0930   19.9580 C   0  0  0  0  0  2  0  0  0  0  0  0
  -29.9040  -12.8030   18.6610 C   0  0  0  0  0  2  0  0  0  0  0  0
  -28.4220  -12.5440   18.9770 C   0  0  0  0  0  2  0  0  0  0  0  0
  -27.8420  -13.5870   19.9710 C   0  0  0  0  0  3  0  0  0  0  0  0
  -28.7750  -13.8500   21.1740 C   0  0  0  0  0  2  0  0  0  0  0  0
  -30.0690  -14.2720   20.6270 N   0  0  0  0  0  0  0  0  0  0  0  0
  -31.7600  -15.6810   20.2100 O   0  0  0  0  0  0  0  0  0  0  0  0
  -29.6850  -16.7120   20.3860 N   0  0  0  0  0  0  0  0  0  0  0  0
  -28.7610  -16.5030   20.7320 H   0  0  0  0  0  0  0  0  0  0  0  0
  -25.4050  -14.1150   20.5400 C   0  0  0  0  0  0  0  0  0  0  0  0
  -24.3400  -13.3160   20.8550 C   0  0  0  0  0  0  0  0  0  0  0  0
  -24.8390  -11.9770   20.8780 C   0  0  0  0  0  0  0  0  0  0  0  0
  -26.4830  -13.2590   20.3840 N   0  0  0  0  0  0  0  0  0  0  0  0
  -26.1490  -11.9700   20.6560 N   0  0  0  0  0  0  0  0  0  0  0  0
  -24.1340  -10.6990   21.0450 C   0  0  0  0  0  0  0  0  0  0  0  0
  -24.5310   -9.7570   22.0200 C   0  0  0  0  0  3  0  0  0  0  0  0
  -23.8210   -8.5460   22.1760 C   0  0  0  0  0  3  0  0  0  0  0  0
  -22.7030   -8.2690   21.3540 C   0  0  0  0  0  0  0  0  0  0  0  0
  -22.3240   -9.2000   20.3720 C   0  0  0  0  0  3  0  0  0  0  0  0
  -23.0340  -10.4030   20.2140 C   0  0  0  0  0  3  0  0  0  0  0  0
  -21.9710   -7.1070   21.4150 O   0  0  0  0  0  0  0  0  0  0  0  0
  -21.8740   -6.3760   22.5710 C   0  0  0  0  0  0  0  0  0  0  0  0
  -21.3310   -6.9240   23.7530 C   0  0  0  0  0  3  0  0  0  0  0  0
  -21.1840   -6.1210   24.9000 C   0  0  0  0  0  3  0  0  0  0  0  0
  -21.5690   -4.7680   24.8660 C   0  0  0  0  0  0  0  0  0  0  0  0
  -22.1040   -4.2170   23.6870 C   0  0  0  0  0  3  0  0  0  0  0  0
  -22.2530   -5.0190   22.5430 C   0  0  0  0  0  0  0  0  0  0  0  0
  -22.7470   -4.4780   21.4030 F   0  0  0  0  0  0  0  0  0  0  0  0
  -21.4250   -3.9930   25.9660 F   0  0  0  0  0  0  0  0  0  0  0  0
  -22.9170  -13.7600   21.0220 C   0  0  0  0  0  0  0  0  0  0  0  0
  -22.1530  -13.0660   21.8600 N   0  0  0  0  0  0  0  0  0  0  0  0
  -22.4860  -14.7580   20.4490 O   0  0  0  0  0  0  0  0  0  0  0  0
  -22.5080  -12.2580   22.3490 H   0  0  0  0  0  0  0  0  0  0  0  0
  -21.1950  -13.3470   22.0160 H   0  0  0  0  0  0  0  0  0  0  0  0
  -25.5400  -15.4860   20.3450 N   0  0  0  0  0  0  0  0  0  0  0  0
  -24.7510  -16.1180   20.4300 H   0  0  0  0  0  0  0  0  0  0  0  0
  -26.3810  -15.9510   20.0260 H   0  0  0  0  0  0  0  0  0  0  0  0
  -31.8820  -20.0240   20.4790 C   0  0  0  0  0  2  0  0  0  0  0  0
  -30.9660  -20.6740   22.8070 C   0  0  0  0  0  1  0  0  0  0  0  0
  -32.7880  -18.9610   22.5800 C   0  0  0  0  0  1  0  0  0  0  0  0
  -33.2650  -21.3740   22.1590 C   0  0  0  0  0  1  0  0  0  0  0  0
  -32.2100  -20.2610   21.9910 C   0  0  1  0  0  0  0  0  0  0  0  0
  -28.0420  -23.5340   19.6290 C   0  0  0  0  0  3  0  0  0  0  0  0
  -26.9570  -22.9390   21.8840 C   0  0  0  0  0  1  0  0  0  0  0  0
  -27.9020  -23.8880   21.1190 C   0  0  0  0  0  2  0  0  0  0  0  0
  -28.2490  -25.0020   18.7600 C   0  0  0  0  0  2  0  0  0  0  0  0
  -28.2380  -26.5240   19.2080 O   0  0  0  0  0  0  0  0  0  0  0  0
  -24.8380  -31.7640   23.1530 C   0  0  0  0  0  0  0  0  0  0  0  0
  -27.1690  -27.5000   19.3000 C   0  0  0  0  0  0  0  0  0  0  0  0
  -23.5220  -30.6100   21.4180 C   0  0  0  0  0  3  0  0  0  0  0  0
  -24.8570  -29.2470   19.6790 C   0  0  0  0  0  0  0  0  0  0  0  0
  -26.0590  -30.8880   21.1190 C   0  0  0  0  0  2  0  0  0  0  0  0
  -26.0750  -29.5950   20.2730 C   0  0  0  0  0  0  0  0  0  0  0  0
  -27.2200  -28.7350   20.0780 C   0  0  0  0  0  3  0  0  0  0  0  0
  -25.9290  -27.2720   18.6650 C   0  0  0  0  0  3  0  0  0  0  0  0
  -24.7990  -28.1050   18.8580 C   0  0  0  0  0  3  0  0  0  0  0  0
  -23.6420  -30.1260   19.9450 C   0  0  0  0  0  2  0  0  0  0  0  0
  -24.8300  -31.1030   21.9520 N   0  0  0  0  0  0  0  0  0  0  0  0
  -23.7930  -31.9690   23.7880 O   0  0  0  0  0  0  0  0  0  0  0  0
  -22.8970  -29.4820   22.2760 C   0  0  0  0  0  0  0  0  0  0  0  0
  -21.5660  -29.3110   22.1900 N   0  0  0  0  0  0  0  0  0  0  0  0
  -23.6110  -28.7680   22.9840 O   0  0  0  0  0  0  0  0  0  0  0  0
  -21.0450  -29.9470   21.6040 H   0  0  0  0  0  0  0  0  0  0  0  0
  -18.2290  -27.9670   22.6440 C   0  0  0  0  0  0  0  0  0  0  0  0
  -20.7880  -28.2680   22.8680 C   0  0  0  0  0  3  0  0  0  0  0  0
  -20.9050  -26.9160   22.1260 C   0  0  0  0  0  2  0  0  0  0  0  0
  -19.7790  -26.6850   21.1130 C   0  0  0  0  0  2  0  0  0  0  0  0
  -18.4160  -26.7120   21.8090 C   0  0  0  0  0  2  0  0  0  0  0  0
  -19.3420  -28.7060   23.1290 C   0  0  0  0  0  0  0  0  0  0  0  0
  -19.1090  -29.8810   23.8760 C   0  0  0  0  0  3  0  0  0  0  0  0
  -17.7970  -30.3170   24.1410 C   0  0  0  0  0  3  0  0  0  0  0  0
  -16.7000  -29.5770   23.6680 C   0  0  0  0  0  3  0  0  0  0  0  0
  -16.9180  -28.4030   22.9240 C   0  0  0  0  0  3  0  0  0  0  0  0
  -26.1580  -32.3050   23.7810 C   0  0  0  0  0  3  0  0  0  0  0  0
  -25.8690  -33.6260   24.3670 N   0  0  0  0  0  0  0  0  0  0  0  0
  -26.1890  -34.7990   23.8020 C   0  0  0  0  0  0  0  0  0  0  0  0
  -26.8180  -34.8790   22.7440 O   0  0  0  0  0  0  0  0  0  0  0  0
  -25.2910  -33.6370   25.1960 H   0  0  0  0  0  0  0  0  0  0  0  0
  -24.4740  -36.6470   23.8510 C   0  0  0  0  0  1  0  0  0  0  0  0
  -25.7400  -36.0890   24.5220 C   0  0  0  0  0  3  0  0  0  0  0  0
  -27.9160  -36.8040   25.4080 C   0  0  0  0  0  1  0  0  0  0  0  0
  -26.7830  -37.1380   24.5520 N   0  0  0  0  0  0  0  0  0  0  0  0
  -26.3940  -38.0240   24.8640 H   0  0  0  0  0  0  0  0  0  0  0  0
  -26.7620  -31.3410   24.8760 C   0  0  1  0  0  0  0  0  0  0  0  0
  -25.7510  -30.9340   25.9750 C   0  0  0  0  0  1  0  0  0  0  0  0
  -27.2990  -30.0440   24.2260 C   0  0  0  0  0  1  0  0  0  0  0  0
  -27.9690  -32.0230   25.5600 C   0  0  0  0  0  1  0  0  0  0  0  0
  1  3  1  0
  1  4  2  0
  2  5  1  0
  3 50  1  0
  3  2  2  0
  4  5  1  0
  5 45  1  0
  6  4  1  0
  6 15  1  0
  7 13  1  0
  8 13  1  0
  9 10  1  0
  9  8  1  0
 11 10  1  0
 11 20  1  0
 11 12  1  0
 13 12  1  0
 14  7  2  0
 15  7  1  0
 15 16  1  0
 17 18  2  0
 18 19  1  0
 18 37  1  0
 19 22  1  0
 20 17  1  0
 20 21  1  0
 21 19  2  0
 22 23  1  0
 23 24  2  0
 25 28  1  0
 25 24  1  0
 26 25  2  0
 27 26  1  0
 27 22  2  0
 28 29  1  0
 29 30  1  0
 30 31  2  0
 32 31  1  0
 32 36  1  0
 33 32  2  0
 34 29  2  0
 34 33  1  0
 35 34  1  0
 37 38  1  0
 38 41  1  0
 38 40  1  0
 39 37  2  0
 42 43  1  0
 42 17  1  0
 44 42  1  0
 45 49  1  0
 49 48  1  6
 49 47  1  0
 49 46  1  0
 50 53  1  0
 50 52  1  0
 52 51  1  0
 53 54  1  0
 54 56  1  0
 55 66  2  0
 56 61  1  0
 57 65  1  0
 57 67  1  0
 58 64  1  0
 58 60  1  0
 59 65  1  0
 60 59  1  0
 61 60  2  0
 62 63  1  0
 62 56  2  0
 63 58  2  0
 64 57  1  0
 65 55  1  0
 67 69  2  0
 68 67  1  0
 70 68  1  0
 71 80  2  0
 71 76  1  0
 72 68  1  0
 72 76  1  0
 73 72  1  0
 74 75  1  0
 74 73  1  0
 75 71  1  0
 76 77  2  0
 77 78  1  0
 79 78  2  0
 80 79  1  0
 81 55  1  0
 81 82  1  0
 81 91  1  0
 82 85  1  0
 83 82  1  0
 83 87  1  0
 84 83  2  0
 87 86  1  0
 87 89  1  0
 89 90  1  0
 89 88  1  0
 91 94  1  1
 91 92  1  0
 93 91  1  0
M  ISO  4   7 100  15 100  53 101  54 101
M  END
>  <TORSDO>  (11) 
F 22

>  <SCORE>  (11) 
-12.184

>  <name>  (11) 
10

>  <ligand_id>  (11) 
10

>  <original_smiles>  (11) 
[H]c1c([H])c([H])c2c(c1[H])C([H])([H])C([H])([H])C([H])([H])C2([H])N([H])C(=O)C1([H])N(C(=O)C([H])(N([H])C(=O)C([H])(N([H])C([H])([H])[H])C([H])([H])[H])C(C([H])([H])[H])(C([H])([H])[H])C([H])([H])[H])C([H])([H])c2c([H])c(OC([H])([H])C([H])(c3c([H])c(C([H])([H])N([H])C(=O)N4C([H])([H])C([H])([H])C([H])([H])C([H])(n5nc(-c6c([H])c([H])c(Oc7c([H])c([H])c(F)c([H])c7F)c([H])c6[H])c(C(=O)N([H])[H])c5N([H])[H])C4([H])[H])n(C([H])([H])C(C([H])([H])[H])(C([H])([H])[H])C([H])([H])[H])c3[H])C([H])([H])C([H])([H])[H])c([H])c([H])c2C1([H])[H]

>  <smiles>  (11) 
[H]c1c([H])c([H])c2c(c1[H])C([H])([H])C([H])([H])C([H])([H])C2([H])N([H])C(=O)C1([H])N(C(=O)C([H])(N([H])C(=O)C([H])(N([H])C([H])([H])[H])C([H])([H])[H])C(C([H])([H])[H])(C([H])([H])[H])C([H])([H])[H])C([H])([H])c2c([H])c(OC([H])([H])C([H])(c3c([H])c(C([H])([H])N([H])C(=O)N4C([H])([H])C([H])([H])C([H])([H])C([H])(n5nc(-c6c([H])c([H])c(Oc7c([H])c([H])c(F)c([H])c7F)c([H])c6[H])c(C(=O)N([H])[H])c5N([H])[H])C4([H])[H])n(C([H])([H])C(C([H])([H])[H])(C([H])([H])[H])C([H])([H])[H])c3[H])C([H])([H])C([H])([H])[H])c([H])c([H])c2C1([H])[H]

$$$$
11:0:0
     RDKit          3D

 91 98  0  0  1  0  0  0  0  0999 V2000
  -29.0900  -20.4320   19.9390 C   0  0  1  0  0  0  0  0  0  0  0  0
  -27.0780  -21.3220   18.4310 C   0  0  0  0  0  1  0  0  0  0  0  0
  -27.7340  -18.9470   18.1760 C   0  0  0  0  0  1  0  0  0  0  0  0
  -27.7440  -20.1310   19.1580 C   0  0  0  0  0  3  0  0  0  0  0  0
  -31.0000  -19.4310   18.3630 C   0  0  0  0  0  1  0  0  0  0  0  0
  -30.3330  -20.7050   18.9750 C   0  0  0  0  0  3  0  0  0  0  0  0
  -32.5620  -21.9930   18.5770 C   0  0  0  0  0  1  0  0  0  0  0  0
  -32.1060  -21.0710   20.8720 C   0  0  0  0  0  1  0  0  0  0  0  0
  -31.4620  -21.6190   19.5830 C   0  0  0  0  0  3  0  0  0  0  0  0
  -28.7050  -22.2050   20.6350 C   0  0  0  0  0  2  0  0  0  0  0  0
  -28.1310  -23.9450   20.0400 C   0  0  0  0  0  2  0  0  0  0  0  0
  -28.1640  -25.6330   20.4390 O   0  0  0  0  0  0  0  0  0  0  0  0
  -24.6000  -31.8480   23.2260 C   0  0  0  0  0  0  0  0  0  0  0  0
  -27.1810  -26.8110   20.2970 C   0  0  0  0  0  0  0  0  0  0  0  0
  -23.4320  -30.4450   21.5810 C   0  0  0  0  0  3  0  0  0  0  0  0
  -24.8980  -28.8010   20.1840 C   0  0  0  0  0  0  0  0  0  0  0  0
  -26.0070  -30.6020   21.4870 C   0  0  0  0  0  2  0  0  0  0  0  0
  -26.0810  -29.1730   20.8340 C   0  0  0  0  0  0  0  0  0  0  0  0
  -27.2050  -28.2060   20.8630 C   0  0  0  0  0  3  0  0  0  0  0  0
  -25.9730  -26.6330   19.5750 C   0  0  0  0  0  3  0  0  0  0  0  0
  -24.8820  -27.5540   19.5320 C   0  0  0  0  0  3  0  0  0  0  0  0
  -23.6820  -29.7410   20.2150 C   0  0  0  0  0  2  0  0  0  0  0  0
  -24.7030  -30.9950   22.1510 N   0  0  0  0  0  0  0  0  0  0  0  0
  -23.5010  -32.1500   23.7210 O   0  0  0  0  0  0  0  0  0  0  0  0
  -22.7070  -29.4650   22.5410 C   0  0  0  0  0  0  0  0  0  0  0  0
  -21.3740  -29.3230   22.4100 N   0  0  0  0  0  0  0  0  0  0  0  0
  -23.3550  -28.8330   23.3790 O   0  0  0  0  0  0  0  0  0  0  0  0
  -20.8970  -29.8800   21.7150 H   0  0  0  0  0  0  0  0  0  0  0  0
  -17.9750  -28.1600   22.9250 C   0  0  0  0  0  0  0  0  0  0  0  0
  -20.5410  -28.3920   23.1800 C   0  0  0  0  0  3  0  0  0  0  0  0
  -20.6190  -26.9600   22.5960 C   0  0  0  0  0  2  0  0  0  0  0  0
  -19.5090  -26.6630   21.5810 C   0  0  0  0  0  2  0  0  0  0  0  0
  -18.1320  -26.8180   22.2290 C   0  0  0  0  0  2  0  0  0  0  0  0
  -19.1060  -28.9060   23.3570 C   0  0  0  0  0  0  0  0  0  0  0  0
  -18.9000  -30.1630   23.9680 C   0  0  0  0  0  3  0  0  0  0  0  0
  -17.6020  -30.6730   24.1520 C   0  0  0  0  0  3  0  0  0  0  0  0
  -16.4880  -29.9230   23.7350 C   0  0  0  0  0  3  0  0  0  0  0  0
  -16.6760  -28.6680   23.1280 C   0  0  0  0  0  3  0  0  0  0  0  0
  -25.8580  -32.4990   23.8770 C   0  0  0  0  0  3  0  0  0  0  0  0
  -25.5400  -33.9080   24.1790 N   0  0  0  0  0  0  0  0  0  0  0  0
  -25.9020  -34.9580   23.4310 C   0  0  0  0  0  0  0  0  0  0  0  0
  -26.5950  -34.8440   22.4190 O   0  0  0  0  0  0  0  0  0  0  0  0
  -24.9310  -34.0690   24.9680 H   0  0  0  0  0  0  0  0  0  0  0  0
  -24.2040  -36.7780   23.0290 C   0  0  0  0  0  1  0  0  0  0  0  0
  -25.4190  -36.3580   23.8720 C   0  0  0  0  0  3  0  0  0  0  0  0
  -27.5380  -37.2320   24.7590 C   0  0  0  0  0  1  0  0  0  0  0  0
  -26.4660  -37.3980   23.7830 N   0  0  0  0  0  0  0  0  0  0  0  0
  -26.0660  -38.3240   23.9110 H   0  0  0  0  0  0  0  0  0  0  0  0
  -26.3230  -31.7600   25.1930 C   0  0  1  0  0  0  0  0  0  0  0  0
  -25.1930  -31.5660   26.2310 C   0  0  0  0  0  1  0  0  0  0  0  0
  -26.9080  -30.3650   24.8730 C   0  0  0  0  0  1  0  0  0  0  0  0
  -27.4580  -32.5660   25.8700 C   0  0  0  0  0  1  0  0  0  0  0  0
  -29.5480  -18.7090   20.6920 C   0  0  0  0  0  2  0  0  0  0  0  0
  -30.3280  -15.6370   20.2410 C   0  0  0  0  0  0  0  0  0  0  0  0
  -30.4250  -13.1230   19.3510 C   0  0  0  0  0  2  0  0  0  0  0  0
  -29.5170  -12.7400   18.1470 C   0  0  0  0  0  2  0  0  0  0  0  0
  -28.0970  -12.3890   18.6160 C   0  0  0  0  0  2  0  0  0  0  0  0
  -27.6020  -13.3750   19.6970 C   0  0  0  0  0  3  0  0  0  0  0  0
  -28.6450  -13.6500   20.8020 C   0  0  0  0  0  2  0  0  0  0  0  0
  -29.8020  -14.2820   20.1290 N   0  0  0  0  0  0  0  0  0  0  0  0
  -31.5640  -15.5950   20.1160 O   0  0  0  0  0  0  0  0  0  0  0  0
  -29.5420  -16.9750   20.3020 N   0  0  0  0  0  0  0  0  0  0  0  0
  -28.5740  -16.7150   20.1930 H   0  0  0  0  0  0  0  0  0  0  0  0
  -25.2350  -13.8910   20.4540 C   0  0  0  0  0  0  0  0  0  0  0  0
  -24.1850  -13.1010   20.8210 C   0  0  0  0  0  0  0  0  0  0  0  0
  -24.6680  -11.7580   20.7920 C   0  0  0  0  0  0  0  0  0  0  0  0
  -26.2900  -13.0300   20.2150 N   0  0  0  0  0  0  0  0  0  0  0  0
  -25.9620  -11.7390   20.4840 N   0  0  0  0  0  0  0  0  0  0  0  0
  -23.9530  -10.4890   20.9850 C   0  0  0  0  0  0  0  0  0  0  0  0
  -24.3760   -9.5360   21.9380 C   0  0  0  0  0  3  0  0  0  0  0  0
  -23.6590   -8.3340   22.1170 C   0  0  0  0  0  3  0  0  0  0  0  0
  -22.5050   -8.0730   21.3400 C   0  0  0  0  0  0  0  0  0  0  0  0
  -22.1010   -9.0140   20.3770 C   0  0  0  0  0  3  0  0  0  0  0  0
  -22.8170  -10.2070   20.1980 C   0  0  0  0  0  3  0  0  0  0  0  0
  -21.7610   -6.9230   21.4270 O   0  0  0  0  0  0  0  0  0  0  0  0
  -21.6770   -6.2060   22.5940 C   0  0  0  0  0  0  0  0  0  0  0  0
  -21.1720   -6.7770   23.7820 C   0  0  0  0  0  3  0  0  0  0  0  0
  -21.0320   -5.9860   24.9410 C   0  0  0  0  0  3  0  0  0  0  0  0
  -21.3940   -4.6250   24.9110 C   0  0  0  0  0  0  0  0  0  0  0  0
  -21.8910   -4.0530   23.7270 C   0  0  0  0  0  3  0  0  0  0  0  0
  -22.0300   -4.8410   22.5710 C   0  0  0  0  0  0  0  0  0  0  0  0
  -22.4910   -4.2790   21.4260 F   0  0  0  0  0  0  0  0  0  0  0  0
  -21.2550   -3.8620   26.0210 F   0  0  0  0  0  0  0  0  0  0  0  0
  -22.7810  -13.5610   21.0860 C   0  0  0  0  0  0  0  0  0  0  0  0
  -22.0610  -12.8550   21.9460 N   0  0  0  0  0  0  0  0  0  0  0  0
  -22.3370  -14.5850   20.5670 O   0  0  0  0  0  0  0  0  0  0  0  0
  -22.4370  -12.0220   22.3770 H   0  0  0  0  0  0  0  0  0  0  0  0
  -21.1230  -13.1480   22.1780 H   0  0  0  0  0  0  0  0  0  0  0  0
  -25.3800  -15.2640   20.2730 N   0  0  0  0  0  0  0  0  0  0  0  0
  -24.5900  -15.8930   20.3510 H   0  0  0  0  0  0  0  0  0  0  0  0
  -26.2060  -15.7090   19.8960 H   0  0  0  0  0  0  0  0  0  0  0  0
  1 10  1  1
  1 53  1  0
  2  4  1  0
  3  4  1  0
  4  1  1  0
  6  5  1  0
  6  9  1  0
  6  1  1  0
  7  9  1  0
  9  8  1  0
 11 12  1  0
 11 10  1  0
 13 24  2  0
 14 12  1  0
 14 19  1  0
 15 23  1  0
 15 25  1  0
 16 22  1  0
 16 18  1  0
 17 23  1  0
 18 19  2  0
 18 17  1  0
 20 14  2  0
 21 20  1  0
 21 16  2  0
 22 15  1  0
 23 13  1  0
 25 27  2  0
 26 25  1  0
 28 26  1  0
 29 38  2  0
 29 34  1  0
 30 26  1  0
 30 34  1  0
 31 30  1  0
 32 33  1  0
 32 31  1  0
 33 29  1  0
 34 35  2  0
 35 36  1  0
 37 36  2  0
 38 37  1  0
 39 13  1  0
 39 40  1  0
 39 49  1  0
 40 43  1  0
 41 45  1  0
 41 40  1  0
 42 41  2  0
 45 44  1  0
 47 45  1  0
 47 48  1  0
 47 46  1  0
 49 52  1  1
 49 50  1  0
 51 49  1  0
 54 62  1  0
 55 60  1  0
 56 57  1  0
 56 55  1  0
 58 57  1  0
 58 67  1  0
 58 59  1  0
 60 54  1  0
 60 59  1  0
 61 54  2  0
 62 53  1  0
 63 62  1  0
 64 65  2  0
 65 84  1  0
 66 65  1  0
 66 69  1  0
 67 64  1  0
 67 68  1  0
 68 66  2  0
 69 70  1  0
 70 71  2  0
 72 75  1  0
 72 71  1  0
 73 72  2  0
 74 73  1  0
 74 69  2  0
 75 76  1  0
 76 77  1  0
 77 78  2  0
 79 78  1  0
 79 83  1  0
 80 79  2  0
 81 76  2  0
 81 80  1  0
 82 81  1  0
 84 85  1  0
 85 88  1  0
 85 87  1  0
 86 84  2  0
 89 90  1  0
 89 64  1  0
 91 89  1  0
M  ISO  4  11 101  12 101  54 100  62 100
M  END
>  <TORSDO>  (12) 
F 22

>  <SCORE>  (12) 
-15.318

>  <name>  (12) 
11

>  <ligand_id>  (12) 
11

>  <original_smiles>  (12) 
[H]c1c([H])c([H])c2c(c1[H])C([H])([H])C([H])([H])C([H])([H])C2([H])N([H])C(=O)C1([H])N(C(=O)C([H])(N([H])C(=O)C([H])(N([H])C([H])([H])[H])C([H])([H])[H])C(C([H])([H])[H])(C([H])([H])[H])C([H])([H])[H])C([H])([H])c2c([H])c(OC([H])([H])C([H])([H])C(C([H])([H])N([H])C(=O)N3C([H])([H])C([H])([H])C([H])([H])C([H])(n4nc(-c5c([H])c([H])c(Oc6c([H])c([H])c(F)c([H])c6F)c([H])c5[H])c(C(=O)N([H])[H])c4N([H])[H])C3([H])[H])(C([H])(C([H])([H])[H])C([H])([H])[H])C([H])(C([H])([H])[H])C([H])(C([H])([H])[H])C([H])([H])[H])c([H])c([H])c2C1([H])[H]

>  <smiles>  (12) 
[H]c1c([H])c([H])c2c(c1[H])C([H])([H])C([H])([H])C([H])([H])C2([H])N([H])C(=O)C1([H])N(C(=O)C([H])(N([H])C(=O)C([H])(N([H])C([H])([H])[H])C([H])([H])[H])C(C([H])([H])[H])(C([H])([H])[H])C([H])([H])[H])C([H])([H])c2c([H])c(OC([H])([H])C([H])([H])C(C([H])([H])N([H])C(=O)N3C([H])([H])C([H])([H])C([H])([H])C([H])(n4nc(-c5c([H])c([H])c(Oc6c([H])c([H])c(F)c([H])c6F)c([H])c5[H])c(C(=O)N([H])[H])c4N([H])[H])C3([H])[H])(C([H])(C([H])([H])[H])C([H])([H])[H])C([H])(C([H])([H])[H])C([H])(C([H])([H])[H])C([H])([H])[H])c([H])c([H])c2C1([H])[H]

$$$$
12:0:0
     RDKit          3D

 91 99  0  0  1  0  0  0  0  0999 V2000
  -28.2860  -22.1660   19.3480 C   0  0  0  0  0  3  0  0  0  0  0  0
  -27.5890  -23.1590   18.6390 C   0  0  0  0  0  3  0  0  0  0  0  0
  -29.1120  -22.5330   20.4180 C   0  0  0  0  0  0  0  0  0  0  0  0
  -29.1020  -23.9650   20.7400 C   0  0  0  0  0  0  0  0  0  0  0  0
  -28.3200  -24.9380   19.9920 C   0  0  0  0  0  0  0  0  0  0  0  0
  -29.9650  -24.4840   21.8810 C   0  0  0  0  0  1  0  0  0  0  0  0
  -27.6300  -24.4820   18.9230 N   0  0  0  0  0  0  0  0  0  0  0  0
  -29.9760  -21.4760   21.1430 C   0  0  0  0  0  3  0  0  0  0  0  0
  -30.2130  -20.0990   21.2790 C   0  0  0  0  0  0  0  0  0  0  0  0
  -31.3270  -19.7450   22.2650 C   0  0  0  0  0  1  0  0  0  0  0  0
  -29.5830  -18.7510   20.6780 C   0  0  0  0  0  2  0  0  0  0  0  0
  -30.4910  -17.3750   20.6760 C   0  0  0  0  0  2  0  0  0  0  0  0
  -30.6200  -14.7780   20.3680 C   0  0  0  0  0  0  0  0  0  0  0  0
  -30.3740  -12.5070   19.3440 C   0  0  0  0  0  2  0  0  0  0  0  0
  -29.4340  -12.5710   18.1210 C   0  0  0  0  0  2  0  0  0  0  0  0
  -27.9660  -12.4080   18.5560 C   0  0  0  0  0  2  0  0  0  0  0  0
  -27.5950  -13.2940   19.7760 C   0  0  0  0  0  3  0  0  0  0  0  0
  -28.6620  -13.2280   20.8900 C   0  0  0  0  0  2  0  0  0  0  0  0
  -29.9520  -13.5740   20.2820 N   0  0  0  0  0  0  0  0  0  0  0  0
  -31.8140  -14.8350   20.0620 O   0  0  0  0  0  0  0  0  0  0  0  0
  -29.9140  -15.9520   20.5940 N   0  0  0  0  0  0  0  0  0  0  0  0
  -28.9230  -15.8480   20.7530 H   0  0  0  0  0  0  0  0  0  0  0  0
  -25.2080  -13.8740   20.5140 C   0  0  0  0  0  0  0  0  0  0  0  0
  -24.1460  -13.0950   20.8860 C   0  0  0  0  0  0  0  0  0  0  0  0
  -24.6150  -11.7460   20.8570 C   0  0  0  0  0  0  0  0  0  0  0  0
  -26.2560  -13.0000   20.2760 N   0  0  0  0  0  0  0  0  0  0  0  0
  -25.9070  -11.7150   20.5470 N   0  0  0  0  0  0  0  0  0  0  0  0
  -23.8910  -10.4820   21.0500 C   0  0  0  0  0  0  0  0  0  0  0  0
  -24.3320   -9.5110   21.9750 C   0  0  0  0  0  3  0  0  0  0  0  0
  -23.6090   -8.3130   22.1570 C   0  0  0  0  0  3  0  0  0  0  0  0
  -22.4270   -8.0780   21.4140 C   0  0  0  0  0  0  0  0  0  0  0  0
  -22.0050   -9.0380   20.4760 C   0  0  0  0  0  3  0  0  0  0  0  0
  -22.7300  -10.2270   20.2940 C   0  0  0  0  0  3  0  0  0  0  0  0
  -21.6730   -6.9330   21.5060 O   0  0  0  0  0  0  0  0  0  0  0  0
  -21.6430   -6.1800   22.6530 C   0  0  0  0  0  0  0  0  0  0  0  0
  -21.2290   -6.7230   23.8900 C   0  0  0  0  0  3  0  0  0  0  0  0
  -21.1470   -5.8950   25.0280 C   0  0  0  0  0  3  0  0  0  0  0  0
  -21.4680   -4.5290   24.9310 C   0  0  0  0  0  0  0  0  0  0  0  0
  -21.8720   -3.9860   23.7000 C   0  0  0  0  0  3  0  0  0  0  0  0
  -21.9570   -4.8090   22.5630 C   0  0  0  0  0  0  0  0  0  0  0  0
  -22.3290   -4.2750   21.3740 F   0  0  0  0  0  0  0  0  0  0  0  0
  -21.3810   -3.7330   26.0240 F   0  0  0  0  0  0  0  0  0  0  0  0
  -22.7460  -13.5690   21.1520 C   0  0  0  0  0  0  0  0  0  0  0  0
  -22.0180  -12.8750   22.0220 N   0  0  0  0  0  0  0  0  0  0  0  0
  -22.3050  -14.5900   20.6260 O   0  0  0  0  0  0  0  0  0  0  0  0
  -22.3850  -12.0510   22.4710 H   0  0  0  0  0  0  0  0  0  0  0  0
  -21.0800  -13.1770   22.2430 H   0  0  0  0  0  0  0  0  0  0  0  0
  -25.3630  -15.2440   20.3330 N   0  0  0  0  0  0  0  0  0  0  0  0
  -24.5890  -15.8890   20.4570 H   0  0  0  0  0  0  0  0  0  0  0  0
  -26.1980  -15.6940   19.9810 H   0  0  0  0  0  0  0  0  0  0  0  0
  -28.3090  -26.3710   20.2070 O   0  0  0  0  0  0  0  0  0  0  0  0
  -24.5980  -31.8770   23.2400 C   0  0  0  0  0  0  0  0  0  0  0  0
  -27.1830  -27.2500   20.1620 C   0  0  0  0  0  0  0  0  0  0  0  0
  -23.3890  -30.4880   21.6010 C   0  0  0  0  0  3  0  0  0  0  0  0
  -24.8310  -28.9370   20.1650 C   0  0  0  0  0  0  0  0  0  0  0  0
  -25.9360  -30.7730   21.4280 C   0  0  0  0  0  2  0  0  0  0  0  0
  -26.0070  -29.3920   20.7720 C   0  0  0  0  0  0  0  0  0  0  0  0
  -27.1780  -28.5600   20.7660 C   0  0  0  0  0  3  0  0  0  0  0  0
  -25.9710  -26.8820   19.5270 C   0  0  0  0  0  3  0  0  0  0  0  0
  -24.8200  -27.6900   19.5340 C   0  0  0  0  0  3  0  0  0  0  0  0
  -23.6010  -29.8220   20.2190 C   0  0  0  0  0  2  0  0  0  0  0  0
  -24.6610  -31.0650   22.1440 N   0  0  0  0  0  0  0  0  0  0  0  0
  -23.5150  -32.1580   23.7760 O   0  0  0  0  0  0  0  0  0  0  0  0
  -22.7220  -29.4710   22.5600 C   0  0  0  0  0  0  0  0  0  0  0  0
  -21.3960  -29.2890   22.4290 N   0  0  0  0  0  0  0  0  0  0  0  0
  -23.3980  -28.8470   23.3820 O   0  0  0  0  0  0  0  0  0  0  0  0
  -20.9060  -29.8450   21.7410 H   0  0  0  0  0  0  0  0  0  0  0  0
  -18.0210  -28.0750   22.9170 C   0  0  0  0  0  0  0  0  0  0  0  0
  -20.5770  -28.3500   23.1990 C   0  0  0  0  0  3  0  0  0  0  0  0
  -20.6900  -26.9170   22.6320 C   0  0  0  0  0  2  0  0  0  0  0  0
  -19.5950  -26.5840   21.6130 C   0  0  0  0  0  2  0  0  0  0  0  0
  -18.2090  -26.7240   22.2490 C   0  0  0  0  0  2  0  0  0  0  0  0
  -19.1340  -28.8460   23.3500 C   0  0  0  0  0  0  0  0  0  0  0  0
  -18.9020  -30.1100   23.9350 C   0  0  0  0  0  3  0  0  0  0  0  0
  -17.5930  -30.6020   24.0930 C   0  0  0  0  0  3  0  0  0  0  0  0
  -16.4960  -29.8290   23.6770 C   0  0  0  0  0  3  0  0  0  0  0  0
  -16.7120  -28.5670   23.0920 C   0  0  0  0  0  3  0  0  0  0  0  0
  -25.8810  -32.5050   23.8630 C   0  0  0  0  0  3  0  0  0  0  0  0
  -26.3940  -31.7320   25.1390 C   0  0  1  0  0  0  0  0  0  0  0  0
  -25.3000  -31.4980   26.2070 C   0  0  0  0  0  1  0  0  0  0  0  0
  -26.9740  -30.3520   24.7510 C   0  0  0  0  0  1  0  0  0  0  0  0
  -27.5500  -32.5220   25.7980 C   0  0  0  0  0  1  0  0  0  0  0  0
  -25.5730  -33.9040   24.1950 N   0  0  0  0  0  0  0  0  0  0  0  0
  -25.9010  -34.9580   23.4360 C   0  0  0  0  0  0  0  0  0  0  0  0
  -26.5620  -34.8560   22.3990 O   0  0  0  0  0  0  0  0  0  0  0  0
  -24.9820  -34.0590   24.9980 H   0  0  0  0  0  0  0  0  0  0  0  0
  -24.1740  -36.7560   23.0990 C   0  0  0  0  0  1  0  0  0  0  0  0
  -25.4210  -36.3480   23.8990 C   0  0  0  0  0  3  0  0  0  0  0  0
  -27.5650  -37.2300   24.7100 C   0  0  0  0  0  1  0  0  0  0  0  0
  -26.4540  -37.3990   23.7760 N   0  0  0  0  0  0  0  0  0  0  0  0
  -26.0520  -38.3200   23.9280 H   0  0  0  0  0  0  0  0  0  0  0  0
  1  3  1  0
  2  7  1  0
  2  1  2  0
  3  4  2  0
  3  8  1  0
  4  6  1  0
  5 51  1  0
  5  4  1  0
  7  5  2  0
  8  9  2  0
  9 10  1  0
 11  9  1  0
 12 11  1  0
 13 21  1  0
 14 19  1  0
 15 16  1  0
 15 14  1  0
 17 16  1  0
 17 26  1  0
 17 18  1  0
 19 13  1  0
 19 18  1  0
 20 13  2  0
 21 12  1  0
 21 22  1  0
 23 24  2  0
 24 43  1  0
 25 24  1  0
 25 28  1  0
 26 23  1  0
 26 27  1  0
 27 25  2  0
 28 29  1  0
 29 30  2  0
 31 34  1  0
 31 30  1  0
 32 31  2  0
 33 32  1  0
 33 28  2  0
 34 35  1  0
 35 36  1  0
 36 37  2  0
 38 37  1  0
 38 42  1  0
 39 38  2  0
 40 35  2  0
 40 39  1  0
 41 40  1  0
 43 44  1  0
 44 47  1  0
 44 46  1  0
 45 43  2  0
 48 49  1  0
 48 23  1  0
 50 48  1  0
 52 63  2  0
 53 51  1  0
 53 58  1  0
 54 62  1  0
 54 64  1  0
 55 61  1  0
 55 57  1  0
 56 62  1  0
 57 56  1  0
 58 57  2  0
 59 60  1  0
 59 53  2  0
 60 55  2  0
 61 54  1  0
 62 52  1  0
 64 66  2  0
 65 64  1  0
 67 65  1  0
 68 77  2  0
 68 73  1  0
 69 65  1  0
 69 73  1  0
 70 69  1  0
 71 72  1  0
 71 70  1  0
 72 68  1  0
 73 74  2  0
 74 75  1  0
 76 75  2  0
 77 76  1  0
 78 52  1  0
 78 83  1  0
 78 79  1  0
 79 82  1  1
 79 80  1  0
 81 79  1  0
 83 86  1  0
 84 88  1  0
 84 83  1  0
 85 84  2  0
 88 87  1  0
 90 88  1  0
 90 91  1  0
 90 89  1  0
M  ISO  4   5 101  13 100  21 100  51 101
M  END
>  <TORSDO>  (13) 
F 19

>  <SCORE>  (13) 
-14.350

>  <name>  (13) 
12

>  <ligand_id>  (13) 
12

>  <original_smiles>  (13) 
[H]C(=C(C([H])([H])[H])C([H])([H])C([H])([H])N([H])C(=O)N1C([H])([H])C([H])([H])C([H])([H])C([H])(n2nc(-c3c([H])c([H])c(Oc4c([H])c([H])c(F)c([H])c4F)c([H])c3[H])c(C(=O)N([H])[H])c2N([H])[H])C1([H])[H])c1c([H])c([H])nc(Oc2c([H])c([H])c3c(c2[H])C([H])([H])N(C(=O)C([H])(N([H])C(=O)C([H])(N([H])C([H])([H])[H])C([H])([H])[H])C(C([H])([H])[H])(C([H])([H])[H])C([H])([H])[H])C([H])(C(=O)N([H])C2([H])c4c([H])c([H])c([H])c([H])c4C([H])([H])C([H])([H])C2([H])[H])C3([H])[H])c1C([H])([H])[H]

>  <smiles>  (13) 
[H]C(=C(C([H])([H])[H])C([H])([H])C([H])([H])N([H])C(=O)N1C([H])([H])C([H])([H])C([H])([H])C([H])(n2nc(-c3c([H])c([H])c(Oc4c([H])c([H])c(F)c([H])c4F)c([H])c3[H])c(C(=O)N([H])[H])c2N([H])[H])C1([H])[H])c1c([H])c([H])nc(Oc2c([H])c([H])c3c(c2[H])C([H])([H])N(C(=O)C([H])(N([H])C(=O)C([H])(N([H])C([H])([H])[H])C([H])([H])[H])C(C([H])([H])[H])(C([H])([H])[H])C([H])([H])[H])C([H])(C(=O)N([H])C2([H])c4c([H])c([H])c([H])c([H])c4C([H])([H])C([H])([H])C2([H])[H])C3([H])[H])c1C([H])([H])[H]

$$$$
13:0:0
     RDKit          3D

 97105  0  0  1  0  0  0  0  0999 V2000
  -28.9320  -21.0580   19.4850 C   0  0  0  0  0  3  0  0  0  0  0  0
  -30.8100  -14.7990   20.3480 C   0  0  0  0  0  0  0  0  0  0  0  0
  -30.6170  -12.4430   19.5420 C   0  0  0  0  0  2  0  0  0  0  0  0
  -29.7290  -12.4130   18.2800 C   0  0  0  0  0  2  0  0  0  0  0  0
  -28.2440  -12.2830   18.6680 C   0  0  0  0  0  2  0  0  0  0  0  0
  -27.8310  -13.2750   19.7890 C   0  0  0  0  0  3  0  0  0  0  0  0
  -28.8450  -13.2870   20.9560 C   0  0  0  0  0  2  0  0  0  0  0  0
  -30.1610  -13.5810   20.3820 N   0  0  0  0  0  0  0  0  0  0  0  0
  -32.0240  -14.7980   20.1300 O   0  0  0  0  0  0  0  0  0  0  0  0
  -31.6280  -18.5710   18.1150 C   0  0  0  0  0  3  0  0  0  0  0  0
  -31.3400  -17.3940   18.8080 C   0  0  0  0  0  3  0  0  0  0  0  0
  -30.8820  -19.7380   18.3460 C   0  0  0  0  0  0  0  0  0  0  0  0
  -29.8560  -19.7330   19.3290 C   0  0  0  0  0  0  0  0  0  0  0  0
  -30.3210  -17.3300   19.7740 C   0  0  0  0  0  0  0  0  0  0  0  0
  -31.2170  -20.9300   17.4610 C   0  0  0  0  0  1  0  0  0  0  0  0
  -29.6070  -18.5220   20.0100 N   0  0  0  0  0  0  0  0  0  0  0  0
  -30.0640  -15.9870   20.3850 N   0  0  0  0  0  0  0  0  0  0  0  0
  -29.1410  -15.8810   20.7700 H   0  0  0  0  0  0  0  0  0  0  0  0
  -25.4370  -13.9420   20.4310 C   0  0  0  0  0  0  0  0  0  0  0  0
  -24.3410  -13.2050   20.7940 C   0  0  0  0  0  0  0  0  0  0  0  0
  -24.7700  -11.8410   20.8060 C   0  0  0  0  0  0  0  0  0  0  0  0
  -26.4660  -13.0320   20.2490 N   0  0  0  0  0  0  0  0  0  0  0  0
  -26.0690  -11.7660   20.5380 N   0  0  0  0  0  0  0  0  0  0  0  0
  -24.0050  -10.6010   21.0020 C   0  0  0  0  0  0  0  0  0  0  0  0
  -24.4370   -9.6010   21.8970 C   0  0  0  0  0  3  0  0  0  0  0  0
  -23.6770   -8.4260   22.0790 C   0  0  0  0  0  3  0  0  0  0  0  0
  -22.4680   -8.2460   21.3670 C   0  0  0  0  0  0  0  0  0  0  0  0
  -22.0530   -9.2360   20.4580 C   0  0  0  0  0  3  0  0  0  0  0  0
  -22.8150  -10.4030   20.2730 C   0  0  0  0  0  3  0  0  0  0  0  0
  -21.6740   -7.1290   21.4640 O   0  0  0  0  0  0  0  0  0  0  0  0
  -21.6680   -6.3450   22.5880 C   0  0  0  0  0  0  0  0  0  0  0  0
  -21.3070   -6.8610   23.8540 C   0  0  0  0  0  3  0  0  0  0  0  0
  -21.2460   -6.0040   24.9720 C   0  0  0  0  0  3  0  0  0  0  0  0
  -21.5370   -4.6340   24.8250 C   0  0  0  0  0  0  0  0  0  0  0  0
  -21.8930   -4.1190   23.5660 C   0  0  0  0  0  3  0  0  0  0  0  0
  -21.9540   -4.9720   22.4510 C   0  0  0  0  0  0  0  0  0  0  0  0
  -22.2760   -4.4660   21.2360 F   0  0  0  0  0  0  0  0  0  0  0  0
  -21.4700   -3.8090   25.8970 F   0  0  0  0  0  0  0  0  0  0  0  0
  -22.9490  -13.7240   21.0120 C   0  0  0  0  0  0  0  0  0  0  0  0
  -22.1910  -13.0880   21.9010 N   0  0  0  0  0  0  0  0  0  0  0  0
  -22.5410  -14.7270   20.4300 O   0  0  0  0  0  0  0  0  0  0  0  0
  -22.5340  -12.2820   22.3990 H   0  0  0  0  0  0  0  0  0  0  0  0
  -21.2530  -13.4170   22.0880 H   0  0  0  0  0  0  0  0  0  0  0  0
  -25.6390  -15.3020   20.2180 N   0  0  0  0  0  0  0  0  0  0  0  0
  -24.8790  -15.9690   20.2810 H   0  0  0  0  0  0  0  0  0  0  0  0
  -26.4880  -15.7040   19.8420 H   0  0  0  0  0  0  0  0  0  0  0  0
  -29.3340  -22.1560   20.4900 N   0  0  0  0  0  4  0  0  0  0  0  0
  -30.2820  -21.9010   20.7160 H   0  0  0  0  0  0  0  0  0  0  0  0
  -28.8230  -21.9960   21.3410 H   0  0  0  0  0  0  0  0  0  0  0  0
  -30.7640  -24.2050   20.6080 C   0  0  0  0  0  1  0  0  0  0  0  0
  -29.3890  -23.6820   20.1570 C   0  0  0  0  0  3  0  0  0  0  0  0
  -28.3080  -24.7270   20.7790 C   0  0  0  0  0  2  0  0  0  0  0  0
  -28.4960  -26.2210   20.6000 O   0  0  0  0  0  0  0  0  0  0  0  0
  -24.6490  -31.7910   23.2810 C   0  0  0  0  0  0  0  0  0  0  0  0
  -27.3860  -27.0920   20.5090 C   0  0  0  0  0  0  0  0  0  0  0  0
  -23.5140  -30.3210   21.6560 C   0  0  0  0  0  3  0  0  0  0  0  0
  -25.0260  -28.7240   20.3420 C   0  0  0  0  0  0  0  0  0  0  0  0
  -26.0610  -30.6440   21.5490 C   0  0  0  0  0  2  0  0  0  0  0  0
  -26.1730  -29.2360   20.9600 C   0  0  0  0  0  0  0  0  0  0  0  0
  -27.3580  -28.4350   21.0250 C   0  0  0  0  0  3  0  0  0  0  0  0
  -26.2160  -26.6460   19.8570 C   0  0  0  0  0  3  0  0  0  0  0  0
  -25.0540  -27.4380   19.7740 C   0  0  0  0  0  3  0  0  0  0  0  0
  -23.7840  -29.5950   20.3110 C   0  0  0  0  0  2  0  0  0  0  0  0
  -24.7590  -30.9410   22.2180 N   0  0  0  0  0  0  0  0  0  0  0  0
  -23.5450  -32.0770   23.7680 O   0  0  0  0  0  0  0  0  0  0  0  0
  -22.8270  -29.3350   22.6300 C   0  0  0  0  0  0  0  0  0  0  0  0
  -21.5050  -29.1400   22.4650 N   0  0  0  0  0  0  0  0  0  0  0  0
  -23.4820  -28.7460   23.4920 O   0  0  0  0  0  0  0  0  0  0  0  0
  -21.0320  -29.6730   21.7480 H   0  0  0  0  0  0  0  0  0  0  0  0
  -18.1100  -27.9900   22.9490 C   0  0  0  0  0  0  0  0  0  0  0  0
  -20.6690  -28.2220   23.2420 C   0  0  0  0  0  3  0  0  0  0  0  0
  -20.7590  -26.7800   22.6890 C   0  0  0  0  0  2  0  0  0  0  0  0
  -19.6670  -26.4570   21.6660 C   0  0  0  0  0  2  0  0  0  0  0  0
  -18.2780  -26.6280   22.2920 C   0  0  0  0  0  2  0  0  0  0  0  0
  -19.2330  -28.7440   23.3790 C   0  0  0  0  0  0  0  0  0  0  0  0
  -19.0250  -30.0170   23.9510 C   0  0  0  0  0  3  0  0  0  0  0  0
  -17.7250  -30.5380   24.0950 C   0  0  0  0  0  3  0  0  0  0  0  0
  -16.6150  -29.7780   23.6850 C   0  0  0  0  0  3  0  0  0  0  0  0
  -16.8080  -28.5060   23.1190 C   0  0  0  0  0  3  0  0  0  0  0  0
  -25.9020  -32.4620   23.9220 C   0  0  0  0  0  3  0  0  0  0  0  0
  -25.5490  -33.8530   24.2450 N   0  0  0  0  0  0  0  0  0  0  0  0
  -25.8260  -34.9090   23.4700 C   0  0  0  0  0  0  0  0  0  0  0  0
  -26.4760  -34.8180   22.4250 O   0  0  0  0  0  0  0  0  0  0  0  0
  -24.9690  -33.9950   25.0590 H   0  0  0  0  0  0  0  0  0  0  0  0
  -24.0140  -36.6260   23.1560 C   0  0  0  0  0  1  0  0  0  0  0  0
  -25.3000  -36.2840   23.9250 C   0  0  0  0  0  3  0  0  0  0  0  0
  -27.4190  -37.2780   24.6710 C   0  0  0  0  0  1  0  0  0  0  0  0
  -26.2830  -37.3770   23.7590 N   0  0  0  0  0  0  0  0  0  0  0  0
  -25.8410  -38.2810   23.9000 H   0  0  0  0  0  0  0  0  0  0  0  0
  -26.4170  -31.7110   25.2110 C   0  0  1  0  0  0  0  0  0  0  0  0
  -25.3120  -31.4380   26.2580 C   0  0  0  0  0  1  0  0  0  0  0  0
  -27.0560  -30.3530   24.8350 C   0  0  0  0  0  1  0  0  0  0  0  0
  -27.5230  -32.5470   25.8990 C   0  0  0  0  0  1  0  0  0  0  0  0
  -27.4270  -20.7320   19.6630 C   0  0  0  0  0  2  0  0  0  0  0  0
  -26.0250  -21.6880   17.7520 C   0  0  0  0  0  1  0  0  0  0  0  0
  -25.5860  -19.3410   18.5880 C   0  0  0  0  0  1  0  0  0  0  0  0
  -26.6600  -20.4170   18.3570 C   0  0  0  0  0  3  0  0  0  0  0  0
  1 94  1  0
  1 47  1  0
  2  8  1  0
  2 17  1  0
  3  8  1  0
  4  5  1  0
  4  3  1  0
  6  5  1  0
  6 22  1  0
  6  7  1  0
  8  7  1  0
  9  2  2  0
 10 12  2  0
 10 11  1  0
 11 14  2  0
 12 13  1  0
 13  1  1  0
 13 16  2  0
 14 16  1  0
 14 17  1  0
 15 12  1  0
 17 18  1  0
 19 20  2  0
 20 21  1  0
 20 39  1  0
 21 24  1  0
 22 19  1  0
 22 23  1  0
 23 21  2  0
 24 25  1  0
 25 26  2  0
 27 30  1  0
 27 26  1  0
 28 27  2  0
 29 28  1  0
 29 24  2  0
 30 31  1  0
 31 32  1  0
 32 33  2  0
 34 33  1  0
 34 38  1  0
 35 34  2  0
 36 31  2  0
 36 35  1  0
 37 36  1  0
 39 40  1  0
 40 43  1  0
 40 42  1  0
 41 39  2  0
 44 45  1  0
 44 19  1  0
 46 44  1  0
 47 48  1  0
 47 49  1  0
 51 47  1  0
 51 50  1  0
 51 52  1  0
 53 52  1  0
 54 65  2  0
 55 53  1  0
 55 60  1  0
 56 64  1  0
 56 66  1  0
 57 59  1  0
 58 64  1  0
 59 60  2  0
 59 58  1  0
 61 55  2  0
 62 61  1  0
 62 57  2  0
 63 57  1  0
 63 56  1  0
 64 54  1  0
 66 68  2  0
 67 66  1  0
 69 67  1  0
 70 79  2  0
 70 75  1  0
 71 67  1  0
 71 75  1  0
 72 71  1  0
 73 74  1  0
 73 72  1  0
 74 70  1  0
 75 76  2  0
 76 77  1  0
 78 77  2  0
 79 78  1  0
 80 54  1  0
 80 81  1  0
 80 90  1  0
 81 84  1  0
 82 86  1  0
 82 81  1  0
 83 82  2  0
 86 85  1  0
 88 89  1  0
 88 86  1  0
 88 87  1  0
 90 93  1  1
 90 91  1  0
 92 90  1  0
 95 97  1  0
 97 96  1  0
 97 94  1  0
M  ISO  4   2 100  17 100  52 101  53 101
M  END
>  <TORSDO>  (14) 
F 21

>  <SCORE>  (14) 
-12.820

>  <name>  (14) 
13

>  <ligand_id>  (14) 
13

>  <original_smiles>  (14) 
[H]c1c(N([H])C(=O)N2C([H])([H])C([H])([H])C([H])([H])C([H])(n3nc(-c4c([H])c([H])c(Oc5c([H])c([H])c(F)c([H])c5F)c([H])c4[H])c(C(=O)N([H])[H])c3N([H])[H])C2([H])[H])nc(C([H])(C([H])([H])C([H])(C([H])([H])[H])C([H])([H])[H])[N+]([H])([H])C([H])(C([H])([H])[H])C([H])([H])Oc2c([H])c([H])c3c(c2[H])C([H])([H])N(C(=O)C([H])(N([H])C(=O)C([H])(N([H])C([H])([H])[H])C([H])([H])[H])C(C([H])([H])[H])(C([H])([H])[H])C([H])([H])[H])C([H])(C(=O)N([H])C2([H])c4c([H])c([H])c([H])c([H])c4C([H])([H])C([H])([H])C2([H])[H])C3([H])[H])c(C([H])([H])[H])c1[H]

>  <smiles>  (14) 
[H]c1c(N([H])C(=O)N2C([H])([H])C([H])([H])C([H])([H])C([H])(n3nc(-c4c([H])c([H])c(Oc5c([H])c([H])c(F)c([H])c5F)c([H])c4[H])c(C(=O)N([H])[H])c3N([H])[H])C2([H])[H])nc(C([H])(C([H])([H])C([H])(C([H])([H])[H])C([H])([H])[H])[N+]([H])([H])C([H])(C([H])([H])[H])C([H])([H])Oc2c([H])c([H])c3c(c2[H])C([H])([H])N(C(=O)C([H])(N([H])C(=O)C([H])(N([H])C([H])([H])[H])C([H])([H])[H])C(C([H])([H])[H])(C([H])([H])[H])C([H])([H])[H])C([H])(C(=O)N([H])C2([H])c4c([H])c([H])c([H])c([H])c4C([H])([H])C([H])([H])C2([H])[H])C3([H])[H])c(C([H])([H])[H])c1[H]

$$$$
14:0:0
     RDKit          3D

102110  0  0  1  0  0  0  0  0999 V2000
  -29.3240  -22.9680   17.6120 C   0  0  0  0  0  3  0  0  0  0  0  0
  -28.8750  -24.2990   17.6570 C   0  0  0  0  0  3  0  0  0  0  0  0
  -30.8580  -23.4340   19.4400 C   0  0  0  0  0  3  0  0  0  0  0  0
  -30.3230  -22.5350   18.5010 C   0  0  0  0  0  0  0  0  0  0  0  0
  -29.4210  -25.2170   18.5810 C   0  0  0  0  0  0  0  0  0  0  0  0
  -30.4380  -24.7840   19.4800 C   0  0  0  0  0  0  0  0  0  0  0  0
  -30.5640  -25.4270   21.9140 C   0  0  0  0  0  1  0  0  0  0  0  0
  -31.0920  -25.7230   20.5010 C   0  0  0  0  0  3  0  0  0  0  0  0
  -33.2590  -25.9860   19.1010 C   0  0  0  0  0  1  0  0  0  0  0  0
  -32.6380  -25.6970   20.4780 C   0  0  0  0  0  2  0  0  0  0  0  0
  -30.8540  -21.1180   18.4110 C   0  0  0  0  0  2  0  0  0  0  0  0
  -29.8950  -20.0620   18.9810 C   0  0  0  0  0  2  0  0  0  0  0  0
  -30.3030  -18.6630   18.4940 C   0  0  0  0  0  2  0  0  0  0  0  0
  -28.1140  -17.3610   18.5040 C   0  0  0  0  0  1  0  0  0  0  0  0
  -29.5340  -17.4620   19.0860 C   0  0  0  0  0  3  0  0  0  0  0  0
  -29.5260  -17.3200   20.6420 C   0  0  0  0  0  3  0  0  0  0  0  0
  -30.1090  -14.8850   20.4970 C   0  0  0  0  0  0  0  0  0  0  0  0
  -29.9860  -12.6320   19.5380 C   0  0  0  0  0  2  0  0  0  0  0  0
  -29.0390  -12.6580   18.3230 C   0  0  0  0  0  2  0  0  0  0  0  0
  -27.5840  -12.4150   18.7680 C   0  0  0  0  0  2  0  0  0  0  0  0
  -27.1620  -13.3200   19.9560 C   0  0  0  0  0  3  0  0  0  0  0  0
  -28.2270  -13.3050   21.0770 C   0  0  0  0  0  2  0  0  0  0  0  0
  -29.5280  -13.6600   20.4840 N   0  0  0  0  0  0  0  0  0  0  0  0
  -31.1960  -15.1110   19.9610 O   0  0  0  0  0  0  0  0  0  0  0  0
  -29.3600  -15.8900   20.9780 N   0  0  0  0  0  0  0  0  0  0  0  0
  -28.4800  -15.6240   21.3980 H   0  0  0  0  0  0  0  0  0  0  0  0
  -24.7730  -13.7700   20.8170 C   0  0  0  0  0  0  0  0  0  0  0  0
  -23.7510  -12.9250   21.1510 C   0  0  0  0  0  0  0  0  0  0  0  0
  -24.2590  -11.6020   20.9690 C   0  0  0  0  0  0  0  0  0  0  0  0
  -25.8390  -12.9570   20.4600 N   0  0  0  0  0  0  0  0  0  0  0  0
  -25.5340  -11.6430   20.6070 N   0  0  0  0  0  0  0  0  0  0  0  0
  -23.5890  -10.2990   21.0600 C   0  0  0  0  0  0  0  0  0  0  0  0
  -24.0910   -9.2630   21.8790 C   0  0  0  0  0  3  0  0  0  0  0  0
  -23.4140   -8.0270   21.9610 C   0  0  0  0  0  3  0  0  0  0  0  0
  -22.2240   -7.8180   21.2240 C   0  0  0  0  0  0  0  0  0  0  0  0
  -21.7450   -8.8440   20.3910 C   0  0  0  0  0  3  0  0  0  0  0  0
  -22.4220  -10.0710   20.3050 C   0  0  0  0  0  3  0  0  0  0  0  0
  -21.5120   -6.6420   21.2240 O   0  0  0  0  0  0  0  0  0  0  0  0
  -21.5290   -5.7900   22.3000 C   0  0  0  0  0  0  0  0  0  0  0  0
  -21.1120   -6.2040   23.5840 C   0  0  0  0  0  3  0  0  0  0  0  0
  -21.0810   -5.2810   24.6470 C   0  0  0  0  0  3  0  0  0  0  0  0
  -21.4570   -3.9420   24.4280 C   0  0  0  0  0  0  0  0  0  0  0  0
  -21.8670   -3.5250   23.1490 C   0  0  0  0  0  3  0  0  0  0  0  0
  -21.9020   -4.4470   22.0880 C   0  0  0  0  0  0  0  0  0  0  0  0
  -22.2790   -4.0360   20.8530 F   0  0  0  0  0  0  0  0  0  0  0  0
  -21.4200   -3.0520   25.4480 F   0  0  0  0  0  0  0  0  0  0  0  0
  -22.3510  -13.3160   21.5270 C   0  0  0  0  0  0  0  0  0  0  0  0
  -21.6880  -12.5120   22.3520 N   0  0  0  0  0  0  0  0  0  0  0  0
  -21.8510  -14.3660   21.1250 O   0  0  0  0  0  0  0  0  0  0  0  0
  -22.1080  -11.6600   22.6950 H   0  0  0  0  0  0  0  0  0  0  0  0
  -20.7510  -12.7500   22.6430 H   0  0  0  0  0  0  0  0  0  0  0  0
  -24.8760  -15.1580   20.7640 N   0  0  0  0  0  0  0  0  0  0  0  0
  -24.0830  -15.7610   20.9470 H   0  0  0  0  0  0  0  0  0  0  0  0
  -25.6830  -15.6610   20.4210 H   0  0  0  0  0  0  0  0  0  0  0  0
  -30.7230  -18.0020   21.3700 C   0  0  0  0  0  2  0  0  0  0  0  0
  -30.6430  -18.0060   22.9110 C   0  0  0  0  0  2  0  0  0  0  0  0
  -31.7150  -18.8110   23.5240 N   0  0  0  0  0  4  0  0  0  0  0  0
  -31.6600  -19.7680   23.2290 H   0  0  0  0  0  0  0  0  0  0  0  0
  -32.6190  -18.4470   23.2770 H   0  0  0  0  0  0  0  0  0  0  0  0
  -31.6320  -18.7820   24.5250 H   0  0  0  0  0  0  0  0  0  0  0  0
  -28.9010  -26.6510   18.5460 C   0  0  0  0  0  2  0  0  0  0  0  0
  -28.4530  -27.0960   19.8220 O   0  0  0  0  0  0  0  0  0  0  0  0
  -24.5420  -31.9800   23.1610 C   0  0  0  0  0  0  0  0  0  0  0  0
  -27.2570  -27.7650   19.8570 C   0  0  0  0  0  0  0  0  0  0  0  0
  -23.3420  -30.6020   21.4910 C   0  0  0  0  0  3  0  0  0  0  0  0
  -24.8100  -29.1590   19.9850 C   0  0  0  0  0  0  0  0  0  0  0  0
  -25.8470  -31.0480   21.2590 C   0  0  0  0  0  2  0  0  0  0  0  0
  -25.9590  -29.7030   20.5740 C   0  0  0  0  0  0  0  0  0  0  0  0
  -27.1820  -29.0050   20.5210 C   0  0  0  0  0  3  0  0  0  0  0  0
  -26.0920  -27.2130   19.2830 C   0  0  0  0  0  3  0  0  0  0  0  0
  -24.8680  -27.9080   19.3430 C   0  0  0  0  0  3  0  0  0  0  0  0
  -23.5410  -29.9750   20.0850 C   0  0  0  0  0  2  0  0  0  0  0  0
  -24.5960  -31.2230   22.0290 N   0  0  0  0  0  0  0  0  0  0  0  0
  -23.4640  -32.2020   23.7310 O   0  0  0  0  0  0  0  0  0  0  0  0
  -22.7400  -29.5310   22.4260 C   0  0  0  0  0  0  0  0  0  0  0  0
  -21.4150  -29.3330   22.3310 N   0  0  0  0  0  0  0  0  0  0  0  0
  -23.4580  -28.8820   23.1920 O   0  0  0  0  0  0  0  0  0  0  0  0
  -20.8970  -29.9120   21.6830 H   0  0  0  0  0  0  0  0  0  0  0  0
  -18.0700  -28.0950   22.9060 C   0  0  0  0  0  0  0  0  0  0  0  0
  -20.6360  -28.3520   23.0840 C   0  0  0  0  0  3  0  0  0  0  0  0
  -20.7190  -26.9550   22.4270 C   0  0  0  0  0  2  0  0  0  0  0  0
  -19.5760  -26.6800   21.4450 C   0  0  0  0  0  2  0  0  0  0  0  0
  -18.2220  -26.7850   22.1520 C   0  0  0  0  0  2  0  0  0  0  0  0
  -19.2040  -28.8390   23.3290 C   0  0  0  0  0  0  0  0  0  0  0  0
  -19.0070  -30.0690   23.9940 C   0  0  0  0  0  3  0  0  0  0  0  0
  -17.7090  -30.5540   24.2400 C   0  0  0  0  0  3  0  0  0  0  0  0
  -16.5900  -29.8060   23.8320 C   0  0  0  0  0  3  0  0  0  0  0  0
  -16.7720  -28.5790   23.1720 C   0  0  0  0  0  3  0  0  0  0  0  0
  -25.8230  -32.6230   23.7790 C   0  0  0  0  0  3  0  0  0  0  0  0
  -26.3550  -31.8520   25.0490 C   0  0  1  0  0  0  0  0  0  0  0  0
  -25.2700  -31.5940   26.1210 C   0  0  0  0  0  1  0  0  0  0  0  0
  -26.9520  -30.4840   24.6440 C   0  0  0  0  0  1  0  0  0  0  0  0
  -27.5000  -32.6560   25.7090 C   0  0  0  0  0  1  0  0  0  0  0  0
  -25.5010  -34.0170   24.1150 N   0  0  0  0  0  0  0  0  0  0  0  0
  -25.8390  -35.0750   23.3650 C   0  0  0  0  0  0  0  0  0  0  0  0
  -26.5260  -34.9810   22.3440 O   0  0  0  0  0  0  0  0  0  0  0  0
  -24.8920  -34.1620   24.9070 H   0  0  0  0  0  0  0  0  0  0  0  0
  -24.1100  -36.8600   22.9860 C   0  0  0  0  0  1  0  0  0  0  0  0
  -25.3340  -36.4570   23.8230 C   0  0  0  0  0  3  0  0  0  0  0  0
  -27.4460  -37.3440   24.7060 C   0  0  0  0  0  1  0  0  0  0  0  0
  -26.3650  -37.5160   23.7390 N   0  0  0  0  0  0  0  0  0  0  0  0
  -25.9520  -38.4330   23.8850 H   0  0  0  0  0  0  0  0  0  0  0  0
  1  2  2  0
  1  4  1  0
  2  5  1  0
  3  6  1  0
  4  3  2  0
  5  6  2  0
  6  8  1  0
  8  7  1  0
  9 10  1  0
 10  8  1  0
 11  4  1  0
 11 12  1  0
 13 12  1  0
 13 15  1  0
 15 14  1  0
 15 16  1  0
 16 25  1  0
 16 55  1  0
 17 25  1  0
 18 23  1  0
 19 20  1  0
 19 18  1  0
 21 20  1  0
 21 30  1  0
 21 22  1  0
 23 17  1  0
 23 22  1  0
 24 17  2  0
 25 26  1  0
 27 28  2  0
 28 47  1  0
 29 32  1  0
 29 28  1  0
 30 31  1  0
 30 27  1  0
 31 29  2  0
 32 33  1  0
 33 34  2  0
 35 38  1  0
 35 34  1  0
 36 35  2  0
 37 36  1  0
 37 32  2  0
 38 39  1  0
 39 40  1  0
 40 41  2  0
 42 41  1  0
 42 46  1  0
 43 42  2  0
 44 39  2  0
 44 43  1  0
 45 44  1  0
 47 48  1  0
 48 51  1  0
 48 50  1  0
 49 47  2  0
 52 27  1  0
 52 53  1  0
 54 52  1  0
 55 56  1  0
 56 57  1  0
 57 60  1  0
 58 57  1  0
 59 57  1  0
 61  5  1  0
 61 62  1  0
 62 64  1  0
 63 74  2  0
 64 69  1  0
 65 73  1  0
 65 75  1  0
 66 72  1  0
 66 68  1  0
 67 73  1  0
 68 67  1  0
 69 68  2  0
 70 71  1  0
 70 64  2  0
 71 66  2  0
 72 65  1  0
 73 63  1  0
 75 77  2  0
 76 75  1  0
 78 76  1  0
 79 88  2  0
 79 84  1  0
 80 76  1  0
 80 84  1  0
 81 80  1  0
 82 83  1  0
 82 81  1  0
 83 79  1  0
 84 85  2  0
 85 86  1  0
 87 86  2  0
 88 87  1  0
 89 63  1  0
 89 94  1  0
 89 90  1  0
 90 93  1  1
 90 91  1  0
 92 90  1  0
 94 97  1  0
 95 99  1  0
 95 94  1  0
 96 95  2  0
 99 98  1  0
101 99  1  0
101102  1  0
101100  1  0
M  ISO  4  17 100  25 100  61 101  62 101
M  END
>  <TORSDO>  (15) 
F 27

>  <SCORE>  (15) 
-10.603

>  <name>  (15) 
14

>  <ligand_id>  (15) 
14

>  <original_smiles>  (15) 
[H]c1c([H])c([H])c2c(c1[H])C([H])([H])C([H])([H])C([H])([H])C2([H])N([H])C(=O)C1([H])N(C(=O)C([H])(N([H])C(=O)C([H])(N([H])C([H])([H])[H])C([H])([H])[H])C(C([H])([H])[H])(C([H])([H])[H])C([H])([H])[H])C([H])([H])c2c([H])c(OC([H])([H])c3c([H])c([H])c(C([H])([H])C([H])([H])C([H])([H])C([H])(C([H])([H])[H])C([H])(N([H])C(=O)N4C([H])([H])C([H])([H])C([H])([H])C([H])(n5nc(-c6c([H])c([H])c(Oc7c([H])c([H])c(F)c([H])c7F)c([H])c6[H])c(C(=O)N([H])[H])c5N([H])[H])C4([H])[H])C([H])([H])C([H])([H])[N+]([H])([H])[H])c([H])c3C([H])(C([H])([H])[H])C([H])([H])C([H])([H])[H])c([H])c([H])c2C1([H])[H]

>  <smiles>  (15) 
[H]c1c([H])c([H])c2c(c1[H])C([H])([H])C([H])([H])C([H])([H])C2([H])N([H])C(=O)C1([H])N(C(=O)C([H])(N([H])C(=O)C([H])(N([H])C([H])([H])[H])C([H])([H])[H])C(C([H])([H])[H])(C([H])([H])[H])C([H])([H])[H])C([H])([H])c2c([H])c(OC([H])([H])c3c([H])c([H])c(C([H])([H])C([H])([H])C([H])([H])C([H])(C([H])([H])[H])C([H])(N([H])C(=O)N4C([H])([H])C([H])([H])C([H])([H])C([H])(n5nc(-c6c([H])c([H])c(Oc7c([H])c([H])c(F)c([H])c7F)c([H])c6[H])c(C(=O)N([H])[H])c5N([H])[H])C4([H])[H])C([H])([H])C([H])([H])[N+]([H])([H])[H])c([H])c3C([H])(C([H])([H])[H])C([H])([H])C([H])([H])[H])c([H])c([H])c2C1([H])[H]

$$$$
15:0:0
     RDKit          3D

 93101  0  0  1  0  0  0  0  0999 V2000
  -27.8800  -18.1340   19.7930 C   0  0  0  0  0  2  0  0  0  0  0  0
  -28.9240  -19.0460   20.0900 C   0  0  0  0  0  0  0  0  0  0  0  0
  -27.2050  -20.7890   19.5330 C   0  0  0  0  0  0  0  0  0  0  0  0
  -28.6090  -20.5280   19.7280 C   0  0  0  0  0  0  0  0  0  0  0  0
  -26.2690  -19.7550   19.2970 C   0  0  0  0  0  0  0  0  0  0  0  0
  -26.5980  -22.1810   19.6850 C   0  0  0  0  0  1  0  0  0  0  0  0
  -24.8110  -20.0040   18.9330 C   0  0  0  0  0  1  0  0  0  0  0  0
  -26.6570  -18.4870   19.3970 N   0  0  0  0  0  0  0  0  0  0  0  0
  -25.9720  -17.7440   19.2350 H   0  0  0  0  0  0  0  0  0  0  0  0
  -29.3840  -21.8040   19.5600 N   0  0  0  0  0  0  0  0  0  0  0  0
  -30.3820  -21.6280   19.4690 H   0  0  0  0  0  0  0  0  0  0  0  0
  -28.9540  -23.2220   18.9320 C   0  0  0  0  0  2  0  0  0  0  0  0
  -28.4520  -24.6910   19.6990 C   0  0  0  0  0  2  0  0  0  0  0  0
  -28.4270  -26.1930   19.2040 O   0  0  0  0  0  0  0  0  0  0  0  0
  -24.8120  -31.4720   23.0130 C   0  0  0  0  0  0  0  0  0  0  0  0
  -27.3370  -27.1380   19.3850 C   0  0  0  0  0  0  0  0  0  0  0  0
  -23.5700  -30.2550   21.2670 C   0  0  0  0  0  3  0  0  0  0  0  0
  -24.9840  -28.8550   19.6330 C   0  0  0  0  0  0  0  0  0  0  0  0
  -26.1140  -30.5690   21.0430 C   0  0  0  0  0  2  0  0  0  0  0  0
  -26.1830  -29.2510   20.2400 C   0  0  0  0  0  0  0  0  0  0  0  0
  -27.3600  -28.4170   20.0870 C   0  0  0  0  0  3  0  0  0  0  0  0
  -26.1040  -26.8450   18.7660 C   0  0  0  0  0  3  0  0  0  0  0  0
  -24.9560  -27.6670   18.8850 C   0  0  0  0  0  3  0  0  0  0  0  0
  -23.7520  -29.7330   19.8170 C   0  0  0  0  0  2  0  0  0  0  0  0
  -24.8540  -30.7810   21.8320 N   0  0  0  0  0  0  0  0  0  0  0  0
  -23.7430  -31.6800   23.6060 O   0  0  0  0  0  0  0  0  0  0  0  0
  -22.9300  -29.1390   22.1330 C   0  0  0  0  0  0  0  0  0  0  0  0
  -21.5960  -28.9840   22.0510 N   0  0  0  0  0  0  0  0  0  0  0  0
  -23.6370  -28.4210   22.8460 O   0  0  0  0  0  0  0  0  0  0  0  0
  -21.0790  -29.6150   21.4540 H   0  0  0  0  0  0  0  0  0  0  0  0
  -18.2390  -27.7240   22.5710 C   0  0  0  0  0  0  0  0  0  0  0  0
  -20.8090  -27.9570   22.7390 C   0  0  0  0  0  3  0  0  0  0  0  0
  -20.8750  -26.6070   21.9860 C   0  0  0  0  0  2  0  0  0  0  0  0
  -19.7220  -26.4120   20.9960 C   0  0  0  0  0  2  0  0  0  0  0  0
  -18.3750  -26.4710   21.7220 C   0  0  0  0  0  2  0  0  0  0  0  0
  -19.3810  -28.4290   23.0350 C   0  0  0  0  0  0  0  0  0  0  0  0
  -19.1950  -29.6060   23.7920 C   0  0  0  0  0  3  0  0  0  0  0  0
  -17.9010  -30.0770   24.0880 C   0  0  0  0  0  3  0  0  0  0  0  0
  -16.7750  -29.3660   23.6370 C   0  0  0  0  0  3  0  0  0  0  0  0
  -16.9460  -28.1900   22.8840 C   0  0  0  0  0  3  0  0  0  0  0  0
  -26.1030  -32.0510   23.6690 C   0  0  0  0  0  3  0  0  0  0  0  0
  -26.6950  -31.1190   24.7970 C   0  0  1  0  0  0  0  0  0  0  0  0
  -25.6610  -30.7060   25.8720 C   0  0  0  0  0  1  0  0  0  0  0  0
  -27.2800  -29.8220   24.1900 C   0  0  0  0  0  1  0  0  0  0  0  0
  -27.8660  -31.8370   25.5080 C   0  0  0  0  0  1  0  0  0  0  0  0
  -25.7750  -33.3760   24.2190 N   0  0  0  0  0  0  0  0  0  0  0  0
  -26.0860  -34.5420   23.6380 C   0  0  0  0  0  0  0  0  0  0  0  0
  -26.7420  -34.6130   22.5960 O   0  0  0  0  0  0  0  0  0  0  0  0
  -25.1920  -33.3910   25.0420 H   0  0  0  0  0  0  0  0  0  0  0  0
  -24.3350  -36.3500   23.5940 C   0  0  0  0  0  1  0  0  0  0  0  0
  -25.5910  -35.8340   24.3180 C   0  0  0  0  0  3  0  0  0  0  0  0
  -27.7250  -36.6000   25.2590 C   0  0  0  0  0  1  0  0  0  0  0  0
  -26.6100  -36.9040   24.3650 N   0  0  0  0  0  0  0  0  0  0  0  0
  -26.1970  -37.7840   24.6630 H   0  0  0  0  0  0  0  0  0  0  0  0
  -30.1300  -18.1100   20.7800 C   0  0  0  0  0  2  0  0  0  0  0  0
  -30.7980  -15.3690   21.3260 C   0  0  0  0  0  0  0  0  0  0  0  0
  -30.9140  -12.8710   20.8000 C   0  0  0  0  0  2  0  0  0  0  0  0
  -30.2590  -12.5660   19.4330 C   0  0  0  0  0  2  0  0  0  0  0  0
  -28.7380  -12.3670   19.5890 C   0  0  0  0  0  2  0  0  0  0  0  0
  -28.0830  -13.4320   20.5080 C   0  0  0  0  0  3  0  0  0  0  0  0
  -28.8930  -13.6930   21.7960 C   0  0  0  0  0  2  0  0  0  0  0  0
  -30.2500  -14.0800   21.3750 N   0  0  0  0  0  0  0  0  0  0  0  0
  -32.0300  -15.4390   21.3030 O   0  0  0  0  0  0  0  0  0  0  0  0
  -29.9680  -16.5220   21.0980 N   0  0  0  0  0  0  0  0  0  0  0  0
  -29.0070  -16.2270   21.0940 H   0  0  0  0  0  0  0  0  0  0  0  0
  -25.6360  -14.0320   20.9530 C   0  0  0  0  0  0  0  0  0  0  0  0
  -24.5130  -13.2680   21.1020 C   0  0  0  0  0  0  0  0  0  0  0  0
  -24.9410  -11.9100   21.0150 C   0  0  0  0  0  0  0  0  0  0  0  0
  -26.6810  -13.1390   20.7840 N   0  0  0  0  0  0  0  0  0  0  0  0
  -26.2630  -11.8500   20.8890 N   0  0  0  0  0  0  0  0  0  0  0  0
  -24.1600  -10.6650   20.9810 C   0  0  0  0  0  0  0  0  0  0  0  0
  -24.4870   -9.5680   21.8050 C   0  0  0  0  0  3  0  0  0  0  0  0
  -23.7100   -8.3910   21.7760 C   0  0  0  0  0  3  0  0  0  0  0  0
  -22.5900   -8.3020   20.9160 C   0  0  0  0  0  0  0  0  0  0  0  0
  -22.2830   -9.3890   20.0770 C   0  0  0  0  0  3  0  0  0  0  0  0
  -23.0610  -10.5570   20.1050 C   0  0  0  0  0  3  0  0  0  0  0  0
  -21.7920   -7.1910   20.7980 O   0  0  0  0  0  0  0  0  0  0  0  0
  -21.6950   -6.2640   21.8040 C   0  0  0  0  0  0  0  0  0  0  0  0
  -21.3060   -6.6240   23.1130 C   0  0  0  0  0  3  0  0  0  0  0  0
  -21.1510   -5.6290   24.0970 C   0  0  0  0  0  3  0  0  0  0  0  0
  -21.3740   -4.2760   23.7780 C   0  0  0  0  0  0  0  0  0  0  0  0
  -21.7580   -3.9170   22.4730 C   0  0  0  0  0  3  0  0  0  0  0  0
  -21.9130   -4.9080   21.4890 C   0  0  0  0  0  0  0  0  0  0  0  0
  -22.2620   -4.5560   20.2280 F   0  0  0  0  0  0  0  0  0  0  0  0
  -21.2200   -3.3190   24.7210 F   0  0  0  0  0  0  0  0  0  0  0  0
  -23.1020  -13.7720   21.2100 C   0  0  0  0  0  0  0  0  0  0  0  0
  -22.2490  -13.0450   21.9180 N   0  0  0  0  0  0  0  0  0  0  0  0
  -22.7680  -14.8430   20.7020 O   0  0  0  0  0  0  0  0  0  0  0  0
  -22.5390  -12.1800   22.3520 H   0  0  0  0  0  0  0  0  0  0  0  0
  -21.2910  -13.3430   22.0280 H   0  0  0  0  0  0  0  0  0  0  0  0
  -25.8450  -15.4080   20.9010 N   0  0  0  0  0  0  0  0  0  0  0  0
  -24.9660  -15.8990   20.7760 H   0  0  0  0  0  0  0  0  0  0  0  0
  -26.5140  -15.6740   20.1920 H   0  0  0  0  0  0  0  0  0  0  0  0
  1  2  1  0
  2 55  1  0
  3  6  1  0
  3  4  1  0
  4  2  2  0
  5  8  1  0
  5  3  2  0
  7  5  1  0
  8  1  1  0
  9  8  1  0
 10  4  1  0
 11 10  1  0
 12 10  1  0
 12 13  1  0
 14 16  1  0
 14 13  1  0
 15 26  2  0
 16 21  1  0
 17 25  1  0
 17 27  1  0
 18 24  1  0
 18 20  1  0
 19 25  1  0
 20 19  1  0
 21 20  2  0
 22 23  1  0
 22 16  2  0
 23 18  2  0
 24 17  1  0
 25 15  1  0
 27 29  2  0
 28 27  1  0
 30 28  1  0
 31 40  2  0
 31 36  1  0
 32 28  1  0
 32 36  1  0
 33 32  1  0
 34 35  1  0
 34 33  1  0
 35 31  1  0
 36 37  2  0
 37 38  1  0
 39 38  2  0
 40 39  1  0
 41 15  1  0
 41 46  1  0
 41 42  1  0
 42 45  1  1
 42 43  1  0
 44 42  1  0
 46 49  1  0
 47 46  1  0
 47 51  1  0
 48 47  2  0
 51 50  1  0
 51 53  1  0
 53 54  1  0
 53 52  1  0
 55 64  1  0
 56 62  1  0
 57 62  1  0
 58 59  1  0
 58 57  1  0
 60 59  1  0
 60 69  1  0
 60 61  1  0
 62 61  1  0
 63 56  2  0
 64 56  1  0
 65 64  1  0
 66 67  2  0
 67 86  1  0
 68 67  1  0
 69 70  1  0
 69 66  1  0
 70 68  2  0
 71 68  1  0
 71 72  1  0
 73 72  2  0
 74 73  1  0
 75 76  1  0
 75 74  2  0
 76 71  2  0
 77 74  1  0
 77 78  1  0
 78 79  1  0
 79 80  2  0
 81 80  1  0
 81 85  1  0
 82 81  2  0
 83 78  2  0
 83 82  1  0
 84 83  1  0
 86 87  1  0
 87 90  1  0
 87 89  1  0
 88 86  2  0
 91 66  1  0
 92 91  1  0
 93 91  1  0
M  ISO  4  13 101  14 101  56 100  64 100
M  END
>  <TORSDO>  (16) 
F 20

>  <SCORE>  (16) 
-10.335

>  <name>  (16) 
15

>  <ligand_id>  (16) 
15

>  <original_smiles>  (16) 
[H]c1c([H])c([H])c2c(c1[H])C([H])([H])C([H])([H])C([H])([H])C2([H])N([H])C(=O)C1([H])N(C(=O)C([H])(N([H])C(=O)C([H])(N([H])C([H])([H])[H])C([H])([H])[H])C(C([H])([H])[H])(C([H])([H])[H])C([H])([H])[H])C([H])([H])c2c([H])c(OC([H])([H])C([H])([H])N([H])c3c(C([H])([H])[H])c(C([H])([H])[H])[n+]([H])c([H])c3C([H])([H])N([H])C(=O)N3C([H])([H])C([H])([H])C([H])([H])C([H])(n4nc(-c5c([H])c([H])c(Oc6c([H])c([H])c(F)c([H])c6F)c([H])c5[H])c(C(=O)N([H])[H])c4N([H])[H])C3([H])[H])c([H])c([H])c2C1([H])[H]

>  <smiles>  (16) 
[H]c1c([H])c([H])c2c(c1[H])C([H])([H])C([H])([H])C([H])([H])C2([H])N([H])C(=O)C1([H])N(C(=O)C([H])(N([H])C(=O)C([H])(N([H])C([H])([H])[H])C([H])([H])[H])C(C([H])([H])[H])(C([H])([H])[H])C([H])([H])[H])C([H])([H])c2c([H])c(OC([H])([H])C([H])([H])N([H])c3c(C([H])([H])[H])c(C([H])([H])[H])[n+]([H])c([H])c3C([H])([H])N([H])C(=O)N3C([H])([H])C([H])([H])C([H])([H])C([H])(n4nc(-c5c([H])c([H])c(Oc6c([H])c([H])c(F)c([H])c6F)c([H])c5[H])c(C(=O)N([H])[H])c4N([H])[H])C3([H])[H])c([H])c([H])c2C1([H])[H]

$$$$
16:0:0
     RDKit          3D

 89 97  0  0  1  0  0  0  0  0999 V2000
  -27.9340  -23.9150   20.3140 C   0  0  0  0  0  3  0  0  0  0  0  0
  -30.3820  -15.6520   19.8340 C   0  0  0  0  0  0  0  0  0  0  0  0
  -30.3160  -13.1640   18.9320 C   0  0  0  0  0  2  0  0  0  0  0  0
  -29.3370  -12.7980   17.7860 C   0  0  0  0  0  2  0  0  0  0  0  0
  -27.9510  -12.4490   18.3460 C   0  0  0  0  0  2  0  0  0  0  0  0
  -27.5330  -13.4360   19.4630 C   0  0  0  0  0  3  0  0  0  0  0  0
  -28.6450  -13.7310   20.4950 C   0  0  0  0  0  2  0  0  0  0  0  0
  -29.7640  -14.3380   19.7440 N   0  0  0  0  0  0  0  0  0  0  0  0
  -31.6000  -15.5030   19.6130 O   0  0  0  0  0  0  0  0  0  0  0  0
  -29.0100  -22.4720   19.9130 C   0  0  0  0  0  0  0  0  0  0  0  0
  -30.1490  -19.9650   19.3890 C   0  0  0  0  0  3  0  0  0  0  0  0
  -28.2730  -19.6430   20.5340 C   0  0  0  0  0  3  0  0  0  0  0  0
  -30.6500  -18.4340   19.9820 C   0  0  0  0  0  3  0  0  0  0  0  0
  -28.4900  -17.9350   20.1080 C   0  0  0  0  0  3  0  0  0  0  0  0
  -29.0580  -20.9120   20.0010 N   0  0  0  0  0  0  0  0  0  0  0  0
  -29.8310  -17.1050   19.9450 N   0  0  0  0  0  0  0  0  0  0  0  0
  -30.0290  -22.9060   19.3730 O   0  0  0  0  0  0  0  0  0  0  0  0
  -25.2480  -13.9460   20.4360 C   0  0  0  0  0  0  0  0  0  0  0  0
  -24.2180  -13.1560   20.8590 C   0  0  0  0  0  0  0  0  0  0  0  0
  -24.6800  -11.8080   20.7460 C   0  0  0  0  0  0  0  0  0  0  0  0
  -26.2650  -13.0830   20.0780 N   0  0  0  0  0  0  0  0  0  0  0  0
  -25.9430  -11.7860   20.3310 N   0  0  0  0  0  0  0  0  0  0  0  0
  -23.9650  -10.5390   20.9460 C   0  0  0  0  0  0  0  0  0  0  0  0
  -24.4340   -9.5610   21.8520 C   0  0  0  0  0  3  0  0  0  0  0  0
  -23.7150   -8.3620   22.0450 C   0  0  0  0  0  3  0  0  0  0  0  0
  -22.5130   -8.1320   21.3330 C   0  0  0  0  0  0  0  0  0  0  0  0
  -22.0660   -9.0960   20.4140 C   0  0  0  0  0  3  0  0  0  0  0  0
  -22.7850  -10.2860   20.2180 C   0  0  0  0  0  3  0  0  0  0  0  0
  -21.7630   -6.9860   21.4370 O   0  0  0  0  0  0  0  0  0  0  0  0
  -21.7150   -6.2600   22.6000 C   0  0  0  0  0  0  0  0  0  0  0  0
  -21.2700   -6.8260   23.8140 C   0  0  0  0  0  3  0  0  0  0  0  0
  -21.1710   -6.0250   24.9700 C   0  0  0  0  0  3  0  0  0  0  0  0
  -21.5040   -4.6590   24.9120 C   0  0  0  0  0  0  0  0  0  0  0  0
  -21.9420   -4.0920   23.7010 C   0  0  0  0  0  3  0  0  0  0  0  0
  -22.0430   -4.8900   22.5490 C   0  0  0  0  0  0  0  0  0  0  0  0
  -22.4450   -4.3340   21.3810 F   0  0  0  0  0  0  0  0  0  0  0  0
  -21.4030   -3.8880   26.0200 F   0  0  0  0  0  0  0  0  0  0  0  0
  -22.8460  -13.6240   21.2440 C   0  0  0  0  0  0  0  0  0  0  0  0
  -22.1840  -12.9020   22.1410 N   0  0  0  0  0  0  0  0  0  0  0  0
  -22.3750  -14.6650   20.7870 O   0  0  0  0  0  0  0  0  0  0  0  0
  -22.5800  -12.0590   22.5280 H   0  0  0  0  0  0  0  0  0  0  0  0
  -21.2640  -13.1960   22.4430 H   0  0  0  0  0  0  0  0  0  0  0  0
  -25.4030  -15.3210   20.2920 N   0  0  0  0  0  0  0  0  0  0  0  0
  -24.6550  -15.9800   20.4770 H   0  0  0  0  0  0  0  0  0  0  0  0
  -26.2320  -15.7610   19.9190 H   0  0  0  0  0  0  0  0  0  0  0  0
  -28.5230  -24.0920   22.8240 C   0  0  0  0  0  1  0  0  0  0  0  0
  -26.0980  -24.3220   22.1120 C   0  0  0  0  0  1  0  0  0  0  0  0
  -27.4640  -23.6960   21.7810 C   0  0  0  0  0  3  0  0  0  0  0  0
  -28.1690  -25.6380   20.1150 O   0  0  0  0  0  0  0  0  0  0  0  0
  -24.6470  -31.8380   23.0920 C   0  0  0  0  0  0  0  0  0  0  0  0
  -27.1880  -26.8300   20.0720 C   0  0  0  0  0  0  0  0  0  0  0  0
  -23.4540  -30.4350   21.4610 C   0  0  0  0  0  3  0  0  0  0  0  0
  -24.8990  -28.8140   20.0280 C   0  0  0  0  0  0  0  0  0  0  0  0
  -26.0260  -30.6210   21.3040 C   0  0  0  0  0  2  0  0  0  0  0  0
  -26.0970  -29.1940   20.6460 C   0  0  0  0  0  0  0  0  0  0  0  0
  -27.2290  -28.2290   20.6360 C   0  0  0  0  0  3  0  0  0  0  0  0
  -25.9560  -26.6550   19.3930 C   0  0  0  0  0  3  0  0  0  0  0  0
  -24.8650  -27.5700   19.3760 C   0  0  0  0  0  3  0  0  0  0  0  0
  -23.6800  -29.7440   20.0860 C   0  0  0  0  0  2  0  0  0  0  0  0
  -24.7330  -30.9990   22.0020 N   0  0  0  0  0  0  0  0  0  0  0  0
  -23.5590  -32.1190   23.6220 O   0  0  0  0  0  0  0  0  0  0  0  0
  -22.7650  -29.4440   22.4370 C   0  0  0  0  0  0  0  0  0  0  0  0
  -21.4330  -29.2770   22.3330 N   0  0  0  0  0  0  0  0  0  0  0  0
  -23.4420  -28.8220   23.2600 O   0  0  0  0  0  0  0  0  0  0  0  0
  -20.9360  -29.8300   21.6470 H   0  0  0  0  0  0  0  0  0  0  0  0
  -18.0610  -28.0460   22.9000 C   0  0  0  0  0  0  0  0  0  0  0  0
  -20.6260  -28.3300   23.1140 C   0  0  0  0  0  3  0  0  0  0  0  0
  -20.7220  -26.9030   22.5260 C   0  0  0  0  0  2  0  0  0  0  0  0
  -19.6020  -26.5860   21.5290 C   0  0  0  0  0  2  0  0  0  0  0  0
  -18.2320  -26.7100   22.2010 C   0  0  0  0  0  2  0  0  0  0  0  0
  -19.1820  -28.8150   23.3140 C   0  0  0  0  0  0  0  0  0  0  0  0
  -18.9610  -30.0650   23.9310 C   0  0  0  0  0  3  0  0  0  0  0  0
  -17.6540  -30.5490   24.1360 C   0  0  0  0  0  3  0  0  0  0  0  0
  -16.5490  -29.7780   23.7360 C   0  0  0  0  0  3  0  0  0  0  0  0
  -16.7540  -28.5290   23.1250 C   0  0  0  0  0  3  0  0  0  0  0  0
  -25.9130  -32.4980   23.7200 C   0  0  0  0  0  3  0  0  0  0  0  0
  -25.5750  -33.8860   24.0890 N   0  0  0  0  0  0  0  0  0  0  0  0
  -25.8680  -34.9710   23.3580 C   0  0  0  0  0  0  0  0  0  0  0  0
  -26.5120  -34.9090   22.3090 O   0  0  0  0  0  0  0  0  0  0  0  0
  -24.9980  -34.0030   24.9080 H   0  0  0  0  0  0  0  0  0  0  0  0
  -24.0960  -36.7440   23.1130 C   0  0  0  0  0  1  0  0  0  0  0  0
  -25.3720  -36.3390   23.8700 C   0  0  0  0  0  3  0  0  0  0  0  0
  -27.5150  -37.2490   24.6560 C   0  0  0  0  0  1  0  0  0  0  0  0
  -26.3810  -37.4170   23.7510 N   0  0  0  0  0  0  0  0  0  0  0  0
  -25.9600  -38.3250   23.9340 H   0  0  0  0  0  0  0  0  0  0  0  0
  -26.4480  -31.7230   24.9870 C   0  0  1  0  0  0  0  0  0  0  0  0
  -25.3690  -31.4650   26.0650 C   0  0  0  0  0  1  0  0  0  0  0  0
  -27.0460  -30.3550   24.5900 C   0  0  0  0  0  1  0  0  0  0  0  0
  -27.5970  -32.5260   25.6440 C   0  0  0  0  0  1  0  0  0  0  0  0
  1 10  1  0
  1 48  1  0
  2 16  1  0
  3  8  1  0
  4  5  1  0
  4  3  1  0
  6  5  1  0
  6 21  1  0
  6  7  1  0
  8  2  1  0
  8  7  1  0
  9  2  2  0
 10 15  1  0
 11 13  2  0
 11 15  1  0
 14 12  2  0
 15 12  1  0
 16 13  1  0
 16 14  1  0
 17 10  2  0
 18 19  2  0
 19 38  1  0
 20 19  1  0
 20 23  1  0
 21 22  1  0
 21 18  1  0
 22 20  2  0
 23 24  1  0
 24 25  2  0
 26 29  1  0
 26 25  1  0
 27 26  2  0
 28 27  1  0
 28 23  2  0
 29 30  1  0
 30 31  1  0
 31 32  2  0
 33 32  1  0
 33 37  1  0
 34 33  2  0
 35 30  2  0
 35 34  1  0
 36 35  1  0
 38 39  1  0
 39 42  1  0
 39 41  1  0
 40 38  2  0
 43 18  1  0
 43 44  1  0
 45 43  1  0
 48 47  1  0
 48 46  1  0
 49  1  1  0
 50 61  2  0
 51 49  1  0
 51 56  1  0
 52 60  1  0
 52 62  1  0
 53 59  1  0
 53 55  1  0
 54 60  1  0
 55 54  1  0
 56 55  2  0
 57 51  2  0
 58 57  1  0
 58 53  2  0
 59 52  1  0
 60 50  1  0
 62 64  2  0
 63 62  1  0
 65 63  1  0
 66 75  2  0
 66 71  1  0
 67 63  1  0
 67 71  1  0
 68 67  1  0
 69 70  1  0
 69 68  1  0
 70 66  1  0
 71 72  2  0
 72 73  1  0
 74 73  2  0
 75 74  1  0
 76 50  1  0
 76 77  1  0
 76 86  1  0
 77 80  1  0
 78 82  1  0
 78 77  1  0
 79 78  2  0
 82 81  1  0
 84 82  1  0
 84 85  1  0
 84 83  1  0
 86 89  1  1
 86 87  1  0
 88 86  1  0
M  ISO  4   1 101   2 100  16 100  49 101
M  END
>  <TORSDO>  (17) 
F 17

>  <SCORE>  (17) 
-15.900

>  <name>  (17) 
16

>  <ligand_id>  (17) 
16

>  <original_smiles>  (17) 
[H]c1c([H])c([H])c2c(c1[H])C([H])([H])C([H])([H])C([H])([H])C2([H])N([H])C(=O)C1([H])N(C(=O)C([H])(N([H])C(=O)C([H])(N([H])C([H])([H])[H])C([H])([H])[H])C(C([H])([H])[H])(C([H])([H])[H])C([H])([H])[H])C([H])([H])c2c([H])c(OC([H])(C(=O)N3C([H])([H])C([H])([H])N(C(=O)N4C([H])([H])C([H])([H])C([H])([H])C([H])(n5nc(-c6c([H])c([H])c(Oc7c([H])c([H])c(F)c([H])c7F)c([H])c6[H])c(C(=O)N([H])[H])c5N([H])[H])C4([H])[H])C([H])([H])C3([H])[H])C([H])(C([H])([H])[H])C([H])([H])[H])c([H])c([H])c2C1([H])[H]

>  <smiles>  (17) 
[H]c1c([H])c([H])c2c(c1[H])C([H])([H])C([H])([H])C([H])([H])C2([H])N([H])C(=O)C1([H])N(C(=O)C([H])(N([H])C(=O)C([H])(N([H])C([H])([H])[H])C([H])([H])[H])C(C([H])([H])[H])(C([H])([H])[H])C([H])([H])[H])C([H])([H])c2c([H])c(OC([H])(C(=O)N3C([H])([H])C([H])([H])N(C(=O)N4C([H])([H])C([H])([H])C([H])([H])C([H])(n5nc(-c6c([H])c([H])c(Oc7c([H])c([H])c(F)c([H])c7F)c([H])c6[H])c(C(=O)N([H])[H])c5N([H])[H])C4([H])[H])C([H])([H])C3([H])[H])C([H])(C([H])([H])[H])C([H])([H])[H])c([H])c([H])c2C1([H])[H]

$$$$
17:0:0
     RDKit          3D

 90 98  0  0  1  0  0  0  0  0999 V2000
  -27.7710  -21.5490   20.9730 C   0  0  0  0  0  2  0  0  0  0  0  0
  -28.9100  -22.4990   20.6370 C   0  0  0  0  0  3  0  0  0  0  0  0
  -28.8340  -21.0380   20.0260 C   0  0  0  0  0  3  0  0  0  0  0  0
  -29.6770  -19.8980   20.6040 N   0  0  0  0  0  4  0  0  0  0  0  0
  -29.8000  -20.0440   21.5920 H   0  0  0  0  0  0  0  0  0  0  0  0
  -30.5920  -19.9810   20.1920 H   0  0  0  0  0  0  0  0  0  0  0  0
  -29.2340  -18.4520   20.3840 C   0  0  0  0  0  3  0  0  0  0  0  0
  -30.2730  -17.2930   20.7950 C   0  0  0  0  0  3  0  0  0  0  0  0
  -30.6290  -14.7360   20.4070 C   0  0  0  0  0  0  0  0  0  0  0  0
  -30.4090  -12.5040   19.3290 C   0  0  0  0  0  2  0  0  0  0  0  0
  -29.4520  -12.6210   18.1220 C   0  0  0  0  0  2  0  0  0  0  0  0
  -27.9860  -12.4500   18.5660 C   0  0  0  0  0  2  0  0  0  0  0  0
  -27.6320  -13.3100   19.8080 C   0  0  0  0  0  3  0  0  0  0  0  0
  -28.7010  -13.1780   20.9140 C   0  0  0  0  0  2  0  0  0  0  0  0
  -29.9980  -13.5220   20.3180 N   0  0  0  0  0  0  0  0  0  0  0  0
  -31.8050  -14.8660   20.0590 O   0  0  0  0  0  0  0  0  0  0  0  0
  -29.8540  -15.8360   20.6990 N   0  0  0  0  0  0  0  0  0  0  0  0
  -28.8920  -15.6320   20.9230 H   0  0  0  0  0  0  0  0  0  0  0  0
  -25.2490  -13.8920   20.5660 C   0  0  0  0  0  0  0  0  0  0  0  0
  -24.1900  -13.1120   20.9400 C   0  0  0  0  0  0  0  0  0  0  0  0
  -24.6560  -11.7620   20.8920 C   0  0  0  0  0  0  0  0  0  0  0  0
  -26.2920  -13.0170   20.3080 N   0  0  0  0  0  0  0  0  0  0  0  0
  -25.9420  -11.7320   20.5680 N   0  0  0  0  0  0  0  0  0  0  0  0
  -23.9360  -10.4950   21.0730 C   0  0  0  0  0  0  0  0  0  0  0  0
  -24.3730   -9.5240   22.0000 C   0  0  0  0  0  3  0  0  0  0  0  0
  -23.6510   -8.3220   22.1700 C   0  0  0  0  0  3  0  0  0  0  0  0
  -22.4790   -8.0850   21.4130 C   0  0  0  0  0  0  0  0  0  0  0  0
  -22.0630   -9.0440   20.4750 C   0  0  0  0  0  3  0  0  0  0  0  0
  -22.7840  -10.2370   20.3020 C   0  0  0  0  0  3  0  0  0  0  0  0
  -21.7290   -6.9360   21.4940 O   0  0  0  0  0  0  0  0  0  0  0  0
  -21.6730   -6.1930   22.6460 C   0  0  0  0  0  0  0  0  0  0  0  0
  -21.2040   -6.7380   23.8620 C   0  0  0  0  0  3  0  0  0  0  0  0
  -21.0980   -5.9190   25.0060 C   0  0  0  0  0  3  0  0  0  0  0  0
  -21.4480   -4.5570   24.9320 C   0  0  0  0  0  0  0  0  0  0  0  0
  -21.9080   -4.0120   23.7200 C   0  0  0  0  0  3  0  0  0  0  0  0
  -22.0160   -4.8270   22.5800 C   0  0  0  0  0  0  0  0  0  0  0  0
  -22.4400   -4.2930   21.4090 F   0  0  0  0  0  0  0  0  0  0  0  0
  -21.3360   -3.7680   26.0250 F   0  0  0  0  0  0  0  0  0  0  0  0
  -22.7930  -13.5810   21.2300 C   0  0  0  0  0  0  0  0  0  0  0  0
  -22.0710  -12.8700   22.0880 N   0  0  0  0  0  0  0  0  0  0  0  0
  -22.3510  -14.6150   20.7290 O   0  0  0  0  0  0  0  0  0  0  0  0
  -22.4400  -12.0360   22.5180 H   0  0  0  0  0  0  0  0  0  0  0  0
  -21.1320  -13.1660   22.3190 H   0  0  0  0  0  0  0  0  0  0  0  0
  -25.4050  -15.2650   20.3980 N   0  0  0  0  0  0  0  0  0  0  0  0
  -24.6270  -15.9060   20.5040 H   0  0  0  0  0  0  0  0  0  0  0  0
  -26.2230  -15.7020   19.9950 H   0  0  0  0  0  0  0  0  0  0  0  0
  -28.5760  -23.8820   19.9240 C   0  0  0  0  0  2  0  0  0  0  0  0
  -27.3280  -24.9920   21.9140 C   0  0  0  0  0  1  0  0  0  0  0  0
  -28.4170  -25.1850   20.8420 C   0  0  0  0  0  3  0  0  0  0  0  0
  -28.4270  -26.5510   20.2410 O   0  0  0  0  0  0  0  0  0  0  0  0
  -24.5950  -31.8890   23.2530 C   0  0  0  0  0  0  0  0  0  0  0  0
  -27.2870  -27.3660   20.2260 C   0  0  0  0  0  0  0  0  0  0  0  0
  -23.4270  -30.4900   21.5860 C   0  0  0  0  0  3  0  0  0  0  0  0
  -24.9100  -28.9460   20.1850 C   0  0  0  0  0  0  0  0  0  0  0  0
  -25.9640  -30.8300   21.4410 C   0  0  0  0  0  2  0  0  0  0  0  0
  -26.0660  -29.4540   20.7920 C   0  0  0  0  0  0  0  0  0  0  0  0
  -27.2610  -28.6760   20.7970 C   0  0  0  0  0  3  0  0  0  0  0  0
  -26.1120  -26.9040   19.5990 C   0  0  0  0  0  3  0  0  0  0  0  0
  -24.9330  -27.6770   19.5820 C   0  0  0  0  0  3  0  0  0  0  0  0
  -23.6680  -29.8130   20.2100 C   0  0  0  0  0  2  0  0  0  0  0  0
  -24.6800  -31.0870   22.1510 N   0  0  0  0  0  0  0  0  0  0  0  0
  -23.5010  -32.1570   23.7720 O   0  0  0  0  0  0  0  0  0  0  0  0
  -22.7550  -29.4680   22.5320 C   0  0  0  0  0  0  0  0  0  0  0  0
  -21.4290  -29.2940   22.3940 N   0  0  0  0  0  0  0  0  0  0  0  0
  -23.4260  -28.8310   23.3480 O   0  0  0  0  0  0  0  0  0  0  0  0
  -20.9450  -29.8600   21.7110 H   0  0  0  0  0  0  0  0  0  0  0  0
  -18.0450  -28.1160   22.8770 C   0  0  0  0  0  0  0  0  0  0  0  0
  -20.6050  -28.3490   23.1490 C   0  0  0  0  0  3  0  0  0  0  0  0
  -20.6940  -26.9270   22.5520 C   0  0  0  0  0  2  0  0  0  0  0  0
  -19.5920  -26.6290   21.5320 C   0  0  0  0  0  2  0  0  0  0  0  0
  -18.2110  -26.7760   22.1790 C   0  0  0  0  0  2  0  0  0  0  0  0
  -19.1690  -28.8610   23.3180 C   0  0  0  0  0  0  0  0  0  0  0  0
  -18.9600  -30.1170   23.9320 C   0  0  0  0  0  3  0  0  0  0  0  0
  -17.6600  -30.6260   24.1050 C   0  0  0  0  0  3  0  0  0  0  0  0
  -16.5500  -29.8760   23.6780 C   0  0  0  0  0  3  0  0  0  0  0  0
  -16.7430  -28.6230   23.0710 C   0  0  0  0  0  3  0  0  0  0  0  0
  -25.8640  -32.5270   23.9000 C   0  0  0  0  0  3  0  0  0  0  0  0
  -25.5470  -33.9270   24.2140 N   0  0  0  0  0  0  0  0  0  0  0  0
  -25.8900  -34.9760   23.4530 C   0  0  0  0  0  0  0  0  0  0  0  0
  -26.5750  -34.8660   22.4320 O   0  0  0  0  0  0  0  0  0  0  0  0
  -24.9390  -34.0870   25.0030 H   0  0  0  0  0  0  0  0  0  0  0  0
  -24.1710  -36.7690   23.0530 C   0  0  0  0  0  1  0  0  0  0  0  0
  -25.3940  -36.3670   23.8930 C   0  0  0  0  0  3  0  0  0  0  0  0
  -27.5070  -37.2580   24.7690 C   0  0  0  0  0  1  0  0  0  0  0  0
  -26.4290  -37.4190   23.7970 N   0  0  0  0  0  0  0  0  0  0  0  0
  -26.0200  -38.3410   23.9280 H   0  0  0  0  0  0  0  0  0  0  0  0
  -26.3520  -31.7660   25.1920 C   0  0  1  0  0  0  0  0  0  0  0  0
  -25.2370  -31.5360   26.2380 C   0  0  0  0  0  1  0  0  0  0  0  0
  -26.9450  -30.3870   24.8230 C   0  0  0  0  0  1  0  0  0  0  0  0
  -27.4870  -32.5660   25.8760 C   0  0  0  0  0  1  0  0  0  0  0  0
  2 47  1  0
  2  1  1  0
  3  4  1  0
  3  2  1  0
  3  1  1  0
  4  5  1  0
  6  4  1  0
  7  4  1  0
  7  8  2  0
  9 17  1  0
 10 15  1  0
 11 12  1  0
 11 10  1  0
 13 12  1  0
 13 22  1  0
 13 14  1  0
 15  9  1  0
 15 14  1  0
 16  9  2  0
 17  8  1  0
 17 18  1  0
 19 20  2  0
 20 39  1  0
 21 20  1  0
 21 24  1  0
 22 19  1  0
 22 23  1  0
 23 21  2  0
 24 25  1  0
 25 26  2  0
 27 30  1  0
 27 26  1  0
 28 27  2  0
 29 28  1  0
 29 24  2  0
 30 31  1  0
 31 32  1  0
 32 33  2  0
 34 33  1  0
 34 38  1  0
 35 34  2  0
 36 31  2  0
 36 35  1  0
 37 36  1  0
 39 40  1  0
 40 43  1  0
 40 42  1  0
 41 39  2  0
 44 45  1  0
 44 19  1  0
 46 44  1  0
 47 49  1  0
 49 48  1  0
 50 49  1  0
 51 62  2  0
 52 50  1  0
 52 57  1  0
 53 61  1  0
 53 63  1  0
 54 60  1  0
 54 56  1  0
 55 61  1  0
 56 57  2  0
 56 55  1  0
 58 52  2  0
 59 58  1  0
 59 54  2  0
 60 53  1  0
 61 51  1  0
 63 65  2  0
 64 63  1  0
 66 64  1  0
 67 76  2  0
 67 72  1  0
 68 64  1  0
 68 72  1  0
 69 68  1  0
 70 71  1  0
 70 69  1  0
 71 67  1  0
 72 73  2  0
 73 74  1  0
 75 74  2  0
 76 75  1  0
 77 51  1  0
 77 78  1  0
 77 87  1  0
 78 81  1  0
 79 83  1  0
 79 78  1  0
 80 79  2  0
 83 82  1  0
 85 83  1  0
 85 86  1  0
 85 84  1  0
 87 90  1  1
 87 88  1  0
 89 87  1  0
M  ISO  4   9 100  17 100  49 101  50 101
M  END
>  <TORSDO>  (18) 
F 21

>  <SCORE>  (18) 
-13.377

>  <name>  (18) 
17

>  <ligand_id>  (18) 
17

>  <original_smiles>  (18) 
[H]c1c([H])c([H])c2c(c1[H])C([H])([H])C([H])([H])C([H])([H])C2([H])N([H])C(=O)C1([H])N(C(=O)C([H])(N([H])C(=O)C([H])(N([H])C([H])([H])[H])C([H])([H])[H])C(C([H])([H])[H])(C([H])([H])[H])C([H])([H])[H])C([H])([H])c2c([H])c(OC([H])(C([H])([H])[H])C([H])([H])C3([H])C([H])([H])C3([H])[N+]([H])([H])C([H])([H])C([H])([H])N([H])C(=O)N3C([H])([H])C([H])([H])C([H])([H])C([H])(n4nc(-c5c([H])c([H])c(Oc6c([H])c([H])c(F)c([H])c6F)c([H])c5[H])c(C(=O)N([H])[H])c4N([H])[H])C3([H])[H])c([H])c([H])c2C1([H])[H]

>  <smiles>  (18) 
[H]c1c([H])c([H])c2c(c1[H])C([H])([H])C([H])([H])C([H])([H])C2([H])N([H])C(=O)C1([H])N(C(=O)C([H])(N([H])C(=O)C([H])(N([H])C([H])([H])[H])C([H])([H])[H])C(C([H])([H])[H])(C([H])([H])[H])C([H])([H])[H])C([H])([H])c2c([H])c(OC([H])(C([H])([H])[H])C([H])([H])C3([H])C([H])([H])C3([H])[N+]([H])([H])C([H])([H])C([H])([H])N([H])C(=O)N3C([H])([H])C([H])([H])C([H])([H])C([H])(n4nc(-c5c([H])c([H])c(Oc6c([H])c([H])c(F)c([H])c6F)c([H])c5[H])c(C(=O)N([H])[H])c4N([H])[H])C3([H])[H])c([H])c([H])c2C1([H])[H]

$$$$
18:0:0
     RDKit          3D

 98106  0  0  1  0  0  0  0  0999 V2000
  -28.4940  -20.9270   20.0840 C   0  0  0  0  0  3  0  0  0  0  0  0
  -30.7280  -21.6400   20.1490 C   0  0  0  0  0  3  0  0  0  0  0  0
  -29.3670  -22.0540   20.2260 C   0  0  0  0  0  0  0  0  0  0  0  0
  -28.9160  -19.5310   19.9640 C   0  0  0  0  0  0  0  0  0  0  0  0
  -30.3000  -19.0990   20.0450 C   0  0  0  0  0  0  0  0  0  0  0  0
  -31.1720  -20.2660   20.0490 C   0  0  0  0  0  0  0  0  0  0  0  0
  -32.5170  -20.1240   20.0010 F   0  0  0  0  0  0  0  0  0  0  0  0
  -32.3700  -17.5020   20.3220 C   0  0  0  0  0  1  0  0  0  0  0  0
  -30.8220  -17.5490   20.4500 C   0  0  2  0  0  0  0  0  0  0  0  0
  -30.8950  -14.9590   19.4850 C   0  0  0  0  0  0  0  0  0  0  0  0
  -30.4760  -12.6760   18.4920 C   0  0  0  0  0  2  0  0  0  0  0  0
  -29.4160  -12.7360   17.3720 C   0  0  0  0  0  2  0  0  0  0  0  0
  -28.0060  -12.5820   17.9680 C   0  0  0  0  0  2  0  0  0  0  0  0
  -27.7820  -13.4940   19.2040 C   0  0  0  0  0  3  0  0  0  0  0  0
  -28.9580  -13.4320   20.2020 C   0  0  0  0  0  2  0  0  0  0  0  0
  -30.1760  -13.7710   19.4530 N   0  0  0  0  0  0  0  0  0  0  0  0
  -32.0470  -14.9210   19.0410 O   0  0  0  0  0  0  0  0  0  0  0  0
  -30.2850  -16.1850   19.8550 N   0  0  0  0  0  0  0  0  0  0  0  0
  -29.2920  -16.0780   19.9900 H   0  0  0  0  0  0  0  0  0  0  0  0
  -25.5460  -14.1560   20.2580 C   0  0  0  0  0  0  0  0  0  0  0  0
  -24.4900  -13.4200   20.7180 C   0  0  0  0  0  0  0  0  0  0  0  0
  -24.8650  -12.0510   20.5600 C   0  0  0  0  0  0  0  0  0  0  0  0
  -26.4980  -13.2410   19.8470 N   0  0  0  0  0  0  0  0  0  0  0  0
  -26.1040  -11.9650   20.0910 N   0  0  0  0  0  0  0  0  0  0  0  0
  -24.0910  -10.8210   20.7710 C   0  0  0  0  0  0  0  0  0  0  0  0
  -24.5340   -9.8100   21.6530 C   0  0  0  0  0  3  0  0  0  0  0  0
  -23.7600   -8.6470   21.8570 C   0  0  0  0  0  3  0  0  0  0  0  0
  -22.5290   -8.4860   21.1780 C   0  0  0  0  0  0  0  0  0  0  0  0
  -22.1010   -9.4850   20.2860 C   0  0  0  0  0  3  0  0  0  0  0  0
  -22.8750  -10.6400   20.0800 C   0  0  0  0  0  3  0  0  0  0  0  0
  -21.7240   -7.3790   21.2920 O   0  0  0  0  0  0  0  0  0  0  0  0
  -21.6500   -6.6600   22.4570 C   0  0  0  0  0  0  0  0  0  0  0  0
  -21.2730   -7.2580   23.6790 C   0  0  0  0  0  3  0  0  0  0  0  0
  -21.1390   -6.4690   24.8380 C   0  0  0  0  0  3  0  0  0  0  0  0
  -21.3740   -5.0820   24.7770 C   0  0  0  0  0  0  0  0  0  0  0  0
  -21.7450   -4.4840   23.5600 C   0  0  0  0  0  3  0  0  0  0  0  0
  -21.8790   -5.2700   22.4030 C   0  0  0  0  0  0  0  0  0  0  0  0
  -22.2140   -4.6860   21.2280 F   0  0  0  0  0  0  0  0  0  0  0  0
  -21.2400   -4.3220   25.8880 F   0  0  0  0  0  0  0  0  0  0  0  0
  -23.1660  -13.9560   21.1800 C   0  0  0  0  0  0  0  0  0  0  0  0
  -22.5120  -13.2600   22.1020 N   0  0  0  0  0  0  0  0  0  0  0  0
  -22.7310  -15.0260   20.7600 O   0  0  0  0  0  0  0  0  0  0  0  0
  -22.8850  -12.3950   22.4630 H   0  0  0  0  0  0  0  0  0  0  0  0
  -21.6270  -13.6000   22.4520 H   0  0  0  0  0  0  0  0  0  0  0  0
  -25.7610  -15.5240   20.1220 N   0  0  0  0  0  0  0  0  0  0  0  0
  -25.0050  -16.1770   20.2920 H   0  0  0  0  0  0  0  0  0  0  0  0
  -26.5250  -15.9240   19.5930 H   0  0  0  0  0  0  0  0  0  0  0  0
  -30.9500  -18.5690   22.9030 C   0  0  0  0  0  1  0  0  0  0  0  0
  -31.0170  -16.0710   22.6650 C   0  0  0  0  0  1  0  0  0  0  0  0
  -30.5220  -17.3830   22.0020 C   0  0  0  0  0  3  0  0  0  0  0  0
  -28.9130  -23.5530   20.7180 C   0  0  0  0  0  3  0  0  0  0  0  0
  -28.5110  -24.8780   19.8190 C   0  0  0  0  0  3  0  0  0  0  0  0
  -28.4250  -26.2990   20.4100 O   0  0  0  0  0  0  0  0  0  0  0  0
  -24.8620  -31.9820   23.3020 C   0  0  0  0  0  0  0  0  0  0  0  0
  -27.3230  -27.2080   20.3220 C   0  0  0  0  0  0  0  0  0  0  0  0
  -23.6000  -30.5630   21.7250 C   0  0  0  0  0  3  0  0  0  0  0  0
  -24.9940  -28.9340   20.3090 C   0  0  0  0  0  0  0  0  0  0  0  0
  -26.1450  -30.8020   21.4910 C   0  0  0  0  0  2  0  0  0  0  0  0
  -26.1860  -29.3970   20.8780 C   0  0  0  0  0  0  0  0  0  0  0  0
  -27.3450  -28.5440   20.8740 C   0  0  0  0  0  3  0  0  0  0  0  0
  -26.1030  -26.8310   19.7120 C   0  0  0  0  0  3  0  0  0  0  0  0
  -24.9620  -27.6630   19.7130 C   0  0  0  0  0  3  0  0  0  0  0  0
  -23.7780  -29.8420   20.3610 C   0  0  0  0  0  2  0  0  0  0  0  0
  -24.8900  -31.1380   22.2270 N   0  0  0  0  0  0  0  0  0  0  0  0
  -23.7950  -32.2950   23.8520 O   0  0  0  0  0  0  0  0  0  0  0  0
  -22.9350  -29.5910   22.7310 C   0  0  0  0  0  0  0  0  0  0  0  0
  -21.6230  -29.3510   22.5660 N   0  0  0  0  0  0  0  0  0  0  0  0
  -23.5990  -29.0570   23.6250 O   0  0  0  0  0  0  0  0  0  0  0  0
  -21.1440  -29.8420   21.8240 H   0  0  0  0  0  0  0  0  0  0  0  0
  -18.3140  -27.9210   22.9230 C   0  0  0  0  0  0  0  0  0  0  0  0
  -20.8110  -28.4300   23.3640 C   0  0  0  0  0  3  0  0  0  0  0  0
  -21.0730  -26.9620   22.9610 C   0  0  0  0  0  2  0  0  0  0  0  0
  -20.0950  -26.4410   21.9020 C   0  0  0  0  0  2  0  0  0  0  0  0
  -18.6550  -26.5290   22.4150 C   0  0  0  0  0  2  0  0  0  0  0  0
  -19.3290  -28.8180   23.3540 C   0  0  0  0  0  0  0  0  0  0  0  0
  -18.9590  -30.1090   23.7880 C   0  0  0  0  0  3  0  0  0  0  0  0
  -17.6100  -30.5090   23.7980 C   0  0  0  0  0  3  0  0  0  0  0  0
  -16.6090  -29.6120   23.3820 C   0  0  0  0  0  3  0  0  0  0  0  0
  -16.9620  -28.3210   22.9510 C   0  0  0  0  0  3  0  0  0  0  0  0
  -26.1670  -32.6110   23.8840 C   0  0  0  0  0  3  0  0  0  0  0  0
  -25.8690  -34.0070   24.2430 N   0  0  0  0  0  0  0  0  0  0  0  0
  -26.1250  -35.0670   23.4650 C   0  0  0  0  0  0  0  0  0  0  0  0
  -26.7080  -34.9730   22.3820 O   0  0  0  0  0  0  0  0  0  0  0  0
  -25.3410  -34.1510   25.0920 H   0  0  0  0  0  0  0  0  0  0  0  0
  -24.3370  -36.8300   23.3000 C   0  0  0  0  0  1  0  0  0  0  0  0
  -25.6670  -36.4500   23.9700 C   0  0  0  0  0  3  0  0  0  0  0  0
  -27.8630  -37.3830   24.5560 C   0  0  0  0  0  1  0  0  0  0  0  0
  -26.6600  -37.5220   23.7370 N   0  0  0  0  0  0  0  0  0  0  0  0
  -26.2540  -38.4360   23.9210 H   0  0  0  0  0  0  0  0  0  0  0  0
  -26.7290  -31.8270   25.1340 C   0  0  1  0  0  0  0  0  0  0  0  0
  -25.6620  -31.5200   26.2110 C   0  0  0  0  0  1  0  0  0  0  0  0
  -27.3550  -30.4800   24.6990 C   0  0  0  0  0  1  0  0  0  0  0  0
  -27.8590  -32.6460   25.8010 C   0  0  0  0  0  1  0  0  0  0  0  0
  -27.8100  -18.4850   19.8620 C   0  0  0  0  0  2  0  0  0  0  0  0
  -26.9340  -18.5690   18.5910 C   0  0  0  0  0  2  0  0  0  0  0  0
  -24.6600  -19.1970   17.6180 C   0  0  0  0  0  1  0  0  0  0  0  0
  -25.5110  -19.0680   18.8830 C   0  0  0  0  0  3  0  0  0  0  0  0
  -25.5610  -20.2670   19.4670 F   0  0  0  0  0  0  0  0  0  0  0  0
  1  3  1  0
  2  3  2  0
  3 51  1  0
  4  5  1  0
  4  1  2  0
  5  6  2  0
  5  9  1  0
  6  2  1  0
  7  6  1  0
  9  8  1  1
  9 50  1  0
 10 18  1  0
 11 16  1  0
 12 13  1  0
 12 11  1  0
 14 13  1  0
 14 23  1  0
 14 15  1  0
 16 10  1  0
 16 15  1  0
 17 10  2  0
 18 19  1  0
 18  9  1  0
 20 21  2  0
 21 40  1  0
 22 21  1  0
 22 25  1  0
 23 24  1  0
 23 20  1  0
 24 22  2  0
 25 26  1  0
 26 27  2  0
 28 31  1  0
 28 27  1  0
 29 28  2  0
 30 29  1  0
 30 25  2  0
 31 32  1  0
 32 33  1  0
 33 34  2  0
 35 34  1  0
 35 39  1  0
 36 35  2  0
 37 32  2  0
 37 36  1  0
 38 37  1  0
 40 41  1  0
 41 44  1  0
 41 43  1  0
 42 40  2  0
 45 20  1  0
 45 46  1  0
 47 45  1  0
 50 49  1  0
 50 48  1  0
 52 53  1  0
 52 51  2  0
 54 65  2  0
 55 53  1  0
 55 60  1  0
 56 64  1  0
 56 66  1  0
 57 63  1  0
 57 59  1  0
 58 64  1  0
 59 58  1  0
 60 59  2  0
 61 62  1  0
 61 55  2  0
 62 57  2  0
 63 56  1  0
 64 54  1  0
 66 68  2  0
 67 66  1  0
 69 67  1  0
 70 79  2  0
 70 75  1  0
 71 67  1  0
 72 71  1  0
 73 74  1  0
 73 72  1  0
 74 70  1  0
 75 71  1  0
 75 76  2  0
 76 77  1  0
 78 77  2  0
 79 78  1  0
 80 54  1  0
 80 81  1  0
 80 90  1  0
 81 84  1  0
 82 86  1  0
 82 81  1  0
 83 82  2  0
 86 85  1  0
 88 89  1  0
 88 86  1  0
 88 87  1  0
 90 93  1  1
 90 91  1  0
 92 90  1  0
 94  4  1  0
 95 97  1  0
 95 94  1  0
 97 96  1  0
 97 98  1  0
M  ISO  4  10 100  18 100  52 101  53 101
M  END
>  <TORSDO>  (19) 
F 23

>  <SCORE>  (19) 
-9.070

>  <name>  (19) 
18

>  <ligand_id>  (19) 
18

>  <original_smiles>  (19) 
[H]c1c([H])c([H])c2c(c1[H])C([H])([H])C([H])([H])C([H])([H])C2([H])N([H])C(=O)C1([H])N(C(=O)C([H])(N([H])C(=O)C([H])(N([H])C([H])([H])[H])C([H])([H])[H])C(C([H])([H])[H])(C([H])([H])[H])C([H])([H])[H])C([H])([H])c2c([H])c(OC([H])([H])C([H])([H])c3c([H])c(F)c(C(N([H])C(=O)N4C([H])([H])C([H])([H])C([H])([H])C([H])(n5nc(-c6c([H])c([H])c(Oc7c([H])c([H])c(F)c([H])c7F)c([H])c6[H])c(C(=O)N([H])[H])c5N([H])[H])C4([H])[H])(C([H])([H])[H])C([H])(C([H])([H])[H])C([H])([H])[H])c(C([H])([H])C([H])([H])C([H])(F)C([H])([H])[H])c3[H])c([H])c([H])c2C1([H])[H]

>  <smiles>  (19) 
[H]c1c([H])c([H])c2c(c1[H])C([H])([H])C([H])([H])C([H])([H])C2([H])N([H])C(=O)C1([H])N(C(=O)C([H])(N([H])C(=O)C([H])(N([H])C([H])([H])[H])C([H])([H])[H])C(C([H])([H])[H])(C([H])([H])[H])C([H])([H])[H])C([H])([H])c2c([H])c(OC([H])([H])C([H])([H])c3c([H])c(F)c(C(N([H])C(=O)N4C([H])([H])C([H])([H])C([H])([H])C([H])(n5nc(-c6c([H])c([H])c(Oc7c([H])c([H])c(F)c([H])c7F)c([H])c6[H])c(C(=O)N([H])[H])c5N([H])[H])C4([H])[H])(C([H])([H])[H])C([H])(C([H])([H])[H])C([H])([H])[H])c(C([H])([H])C([H])([H])C([H])(F)C([H])([H])[H])c3[H])c([H])c([H])c2C1([H])[H]

$$$$
19:0:0
     RDKit          3D

 96104  0  0  1  0  0  0  0  0999 V2000
  -30.0260  -20.9310   21.0500 C   0  0  0  0  0  2  0  0  0  0  0  0
  -29.5970  -19.7750   20.2530 C   0  0  0  0  0  0  0  0  0  0  0  0
  -28.1650  -21.7350   19.2590 C   0  0  0  0  0  0  0  0  0  0  0  0
  -28.6140  -20.3110   19.3340 C   0  0  0  0  0  0  0  0  0  0  0  0
  -28.6580  -22.8490   20.0920 C   0  0  0  0  0  0  0  0  0  0  0  0
  -29.5830  -22.2860   20.9670 N   0  0  0  0  0  0  0  0  0  0  0  0
  -29.9870  -22.9280   21.6550 H   0  0  0  0  0  0  0  0  0  0  0  0
  -28.0570  -19.3770   18.4590 N   0  0  0  0  0  0  0  0  0  0  0  0
  -28.6300  -18.5800   18.2230 H   0  0  0  0  0  0  0  0  0  0  0  0
  -27.5890  -19.7580   17.6480 H   0  0  0  0  0  0  0  0  0  0  0  0
  -27.0780  -22.0760   18.2320 C   0  0  0  0  0  2  0  0  0  0  0  0
  -25.6900  -22.2730   18.8820 C   0  0  0  0  0  2  0  0  0  0  0  0
  -24.1720  -21.7310   16.9010 C   0  0  0  0  0  1  0  0  0  0  0  0
  -23.4210  -23.3820   18.6810 C   0  0  0  0  0  1  0  0  0  0  0  0
  -24.6220  -22.8090   17.9080 C   0  0  0  0  0  3  0  0  0  0  0  0
  -30.3270  -18.1960   20.3640 C   0  0  0  0  0  2  0  0  0  0  0  0
  -30.6260  -15.3280   20.2380 C   0  0  0  0  0  0  0  0  0  0  0  0
  -30.5770  -12.8990   19.3640 C   0  0  0  0  0  2  0  0  0  0  0  0
  -29.6460  -12.6950   18.1430 C   0  0  0  0  0  2  0  0  0  0  0  0
  -28.2030  -12.4220   18.5980 C   0  0  0  0  0  2  0  0  0  0  0  0
  -27.7560  -13.3980   19.7130 C   0  0  0  0  0  3  0  0  0  0  0  0
  -28.8090  -13.5490   20.8320 C   0  0  0  0  0  2  0  0  0  0  0  0
  -30.0410  -14.0360   20.1900 N   0  0  0  0  0  0  0  0  0  0  0  0
  -31.8430  -15.3240   20.0060 O   0  0  0  0  0  0  0  0  0  0  0  0
  -29.8900  -16.6020   20.3440 N   0  0  0  0  0  0  0  0  0  0  0  0
  -28.8980  -16.4660   20.4630 H   0  0  0  0  0  0  0  0  0  0  0  0
  -25.3900  -13.9540   20.4870 C   0  0  0  0  0  0  0  0  0  0  0  0
  -24.3300  -13.1730   20.8560 C   0  0  0  0  0  0  0  0  0  0  0  0
  -24.7980  -11.8240   20.8110 C   0  0  0  0  0  0  0  0  0  0  0  0
  -26.4310  -13.0810   20.2300 N   0  0  0  0  0  0  0  0  0  0  0  0
  -26.0880  -11.7940   20.4940 N   0  0  0  0  0  0  0  0  0  0  0  0
  -24.0730  -10.5590   20.9910 C   0  0  0  0  0  0  0  0  0  0  0  0
  -24.4900   -9.5960   21.9360 C   0  0  0  0  0  3  0  0  0  0  0  0
  -23.7620   -8.3990   22.1090 C   0  0  0  0  0  3  0  0  0  0  0  0
  -22.6030   -8.1550   21.3340 C   0  0  0  0  0  0  0  0  0  0  0  0
  -22.2050   -9.1070   20.3780 C   0  0  0  0  0  3  0  0  0  0  0  0
  -22.9340  -10.2950   20.2060 C   0  0  0  0  0  3  0  0  0  0  0  0
  -21.8500   -7.0080   21.4130 O   0  0  0  0  0  0  0  0  0  0  0  0
  -21.7550   -6.2870   22.5770 C   0  0  0  0  0  0  0  0  0  0  0  0
  -21.2870   -6.8700   23.7760 C   0  0  0  0  0  3  0  0  0  0  0  0
  -21.1380   -6.0780   24.9320 C   0  0  0  0  0  3  0  0  0  0  0  0
  -21.4460   -4.7050   24.8910 C   0  0  0  0  0  0  0  0  0  0  0  0
  -21.9060   -4.1220   23.6970 C   0  0  0  0  0  3  0  0  0  0  0  0
  -22.0560   -4.9120   22.5430 C   0  0  0  0  0  0  0  0  0  0  0  0
  -22.4800   -4.3400   21.3890 F   0  0  0  0  0  0  0  0  0  0  0  0
  -21.2960   -3.9430   25.9980 F   0  0  0  0  0  0  0  0  0  0  0  0
  -22.9350  -13.6480   21.1350 C   0  0  0  0  0  0  0  0  0  0  0  0
  -22.2110  -12.9490   22.0000 N   0  0  0  0  0  0  0  0  0  0  0  0
  -22.4950  -14.6750   20.6210 O   0  0  0  0  0  0  0  0  0  0  0  0
  -22.5790  -12.1170   22.4380 H   0  0  0  0  0  0  0  0  0  0  0  0
  -21.2750  -13.2540   22.2340 H   0  0  0  0  0  0  0  0  0  0  0  0
  -25.5520  -15.3270   20.3230 N   0  0  0  0  0  0  0  0  0  0  0  0
  -24.7900  -15.9830   20.4540 H   0  0  0  0  0  0  0  0  0  0  0  0
  -26.3970  -15.7720   19.9880 H   0  0  0  0  0  0  0  0  0  0  0  0
  -27.9240  -24.4330   20.1350 C   0  0  0  0  0  2  0  0  0  0  0  0
  -28.3570  -25.9990   20.1580 O   0  0  0  0  0  0  0  0  0  0  0  0
  -24.7420  -31.8140   23.2720 C   0  0  0  0  0  0  0  0  0  0  0  0
  -27.3560  -27.0950   20.1190 C   0  0  0  0  0  0  0  0  0  0  0  0
  -23.5810  -30.4900   21.5530 C   0  0  0  0  0  3  0  0  0  0  0  0
  -25.0580  -28.9610   20.0950 C   0  0  0  0  0  0  0  0  0  0  0  0
  -26.1480  -30.7140   21.4710 C   0  0  0  0  0  2  0  0  0  0  0  0
  -26.2330  -29.3370   20.7610 C   0  0  0  0  0  0  0  0  0  0  0  0
  -27.3770  -28.4240   20.7560 C   0  0  0  0  0  3  0  0  0  0  0  0
  -26.1580  -26.8770   19.3970 C   0  0  0  0  0  3  0  0  0  0  0  0
  -25.0440  -27.7450   19.3950 C   0  0  0  0  0  3  0  0  0  0  0  0
  -23.8390  -29.8730   20.1530 C   0  0  0  0  0  2  0  0  0  0  0  0
  -24.8440  -31.0290   22.1550 N   0  0  0  0  0  0  0  0  0  0  0  0
  -23.6410  -32.0830   23.7810 O   0  0  0  0  0  0  0  0  0  0  0  0
  -22.8720  -29.4480   22.4580 C   0  0  0  0  0  0  0  0  0  0  0  0
  -21.5390  -29.3090   22.3170 N   0  0  0  0  0  0  0  0  0  0  0  0
  -23.5230  -28.7700   23.2570 O   0  0  0  0  0  0  0  0  0  0  0  0
  -21.0700  -29.9090   21.6520 H   0  0  0  0  0  0  0  0  0  0  0  0
  -18.1280  -28.1640   22.7830 C   0  0  0  0  0  0  0  0  0  0  0  0
  -20.7000  -28.3480   23.0350 C   0  0  0  0  0  3  0  0  0  0  0  0
  -20.7570  -26.9510   22.3700 C   0  0  0  0  0  2  0  0  0  0  0  0
  -19.6370  -26.7230   21.3500 C   0  0  0  0  0  2  0  0  0  0  0  0
  -18.2640  -26.8590   22.0160 C   0  0  0  0  0  2  0  0  0  0  0  0
  -19.2710  -28.8690   23.2460 C   0  0  0  0  0  0  0  0  0  0  0  0
  -19.0900  -30.0920   23.9300 C   0  0  0  0  0  3  0  0  0  0  0  0
  -17.7990  -30.6080   24.1510 C   0  0  0  0  0  3  0  0  0  0  0  0
  -16.6720  -29.9000   23.6990 C   0  0  0  0  0  3  0  0  0  0  0  0
  -16.8380  -28.6790   23.0220 C   0  0  0  0  0  3  0  0  0  0  0  0
  -25.9990  -32.4270   23.9570 C   0  0  0  0  0  3  0  0  0  0  0  0
  -25.6760  -33.8130   24.3370 N   0  0  0  0  0  0  0  0  0  0  0  0
  -26.0080  -34.8990   23.6260 C   0  0  0  0  0  0  0  0  0  0  0  0
  -26.6800  -34.8400   22.5930 O   0  0  0  0  0  0  0  0  0  0  0  0
  -25.0780  -33.9330   25.1420 H   0  0  0  0  0  0  0  0  0  0  0  0
  -24.2630  -36.6970   23.3610 C   0  0  0  0  0  1  0  0  0  0  0  0
  -25.5170  -36.2700   24.1390 C   0  0  0  0  0  3  0  0  0  0  0  0
  -27.6570  -37.1370   24.9750 C   0  0  0  0  0  1  0  0  0  0  0  0
  -26.5430  -37.3340   24.0530 N   0  0  0  0  0  0  0  0  0  0  0  0
  -26.1320  -38.2450   24.2390 H   0  0  0  0  0  0  0  0  0  0  0  0
  -26.4730  -31.6150   25.2260 C   0  0  1  0  0  0  0  0  0  0  0  0
  -25.3450  -31.3520   26.2550 C   0  0  0  0  0  1  0  0  0  0  0  0
  -27.0610  -30.2440   24.8180 C   0  0  0  0  0  1  0  0  0  0  0  0
  -27.6090  -32.3810   25.9460 C   0  0  0  0  0  1  0  0  0  0  0  0
  2 16  1  0
  2  1  1  0
  3  4  1  0
  3  5  2  0
  4  2  2  0
  5 55  1  0
  5  6  1  0
  6  1  1  0
  6  7  1  0
  8  4  1  0
  9  8  1  0
 10  8  1  0
 11 12  1  0
 11  3  1  0
 13 15  1  0
 15 14  1  0
 15 12  1  0
 17 25  1  0
 18 23  1  0
 19 20  1  0
 19 18  1  0
 21 20  1  0
 21 30  1  0
 21 22  1  0
 23 17  1  0
 23 22  1  0
 24 17  2  0
 25 16  1  0
 25 26  1  0
 27 28  2  0
 28 47  1  0
 29 28  1  0
 29 32  1  0
 30 27  1  0
 30 31  1  0
 31 29  2  0
 32 33  1  0
 33 34  2  0
 35 38  1  0
 35 34  1  0
 36 35  2  0
 37 36  1  0
 37 32  2  0
 38 39  1  0
 39 40  1  0
 40 41  2  0
 42 41  1  0
 42 46  1  0
 43 42  2  0
 44 39  2  0
 44 43  1  0
 45 44  1  0
 47 48  1  0
 48 51  1  0
 48 50  1  0
 49 47  2  0
 52 53  1  0
 52 27  1  0
 54 52  1  0
 55 56  1  0
 57 68  2  0
 58 56  1  0
 58 63  1  0
 59 67  1  0
 59 69  1  0
 60 66  1  0
 60 62  1  0
 61 67  1  0
 62 61  1  0
 63 62  2  0
 64 58  2  0
 65 64  1  0
 65 60  2  0
 66 59  1  0
 67 57  1  0
 69 71  2  0
 70 69  1  0
 72 70  1  0
 73 82  2  0
 73 78  1  0
 74 70  1  0
 74 78  1  0
 75 74  1  0
 76 77  1  0
 76 75  1  0
 77 73  1  0
 78 79  2  0
 79 80  1  0
 81 80  2  0
 82 81  1  0
 83 57  1  0
 83 84  1  0
 83 93  1  0
 84 87  1  0
 85 89  1  0
 85 84  1  0
 86 85  2  0
 89 88  1  0
 91 89  1  0
 91 92  1  0
 91 90  1  0
 93 96  1  1
 93 94  1  0
 95 93  1  0
M  ISO  4  17 100  25 100  55 101  56 101
M  END
>  <TORSDO>  (20) 
F 22

>  <SCORE>  (20) 
-14.649

>  <name>  (20) 
19

>  <ligand_id>  (20) 
19

>  <original_smiles>  (20) 
[H]c1c([H])c([H])c2c(c1[H])C([H])([H])C([H])([H])C([H])([H])C2([H])N([H])C(=O)C1([H])N(C(=O)C([H])(N([H])C(=O)C([H])(N([H])C([H])([H])[H])C([H])([H])[H])C(C([H])([H])[H])(C([H])([H])[H])C([H])([H])[H])C([H])([H])c2c([H])c(OC([H])([H])c3c(C([H])([H])C([H])([H])C([H])(C([H])([H])[H])C([H])([H])[H])c(N([H])[H])c(C([H])([H])N([H])C(=O)N4C([H])([H])C([H])([H])C([H])([H])C([H])(n5nc(-c6c([H])c([H])c(Oc7c([H])c([H])c(F)c([H])c7F)c([H])c6[H])c(C(=O)N([H])[H])c5N([H])[H])C4([H])[H])c([H])[n+]3[H])c([H])c([H])c2C1([H])[H]

>  <smiles>  (20) 
[H]c1c([H])c([H])c2c(c1[H])C([H])([H])C([H])([H])C([H])([H])C2([H])N([H])C(=O)C1([H])N(C(=O)C([H])(N([H])C(=O)C([H])(N([H])C([H])([H])[H])C([H])([H])[H])C(C([H])([H])[H])(C([H])([H])[H])C([H])([H])[H])C([H])([H])c2c([H])c(OC([H])([H])c3c(C([H])([H])C([H])([H])C([H])(C([H])([H])[H])C([H])([H])[H])c(N([H])[H])c(C([H])([H])N([H])C(=O)N4C([H])([H])C([H])([H])C([H])([H])C([H])(n5nc(-c6c([H])c([H])c(Oc7c([H])c([H])c(F)c([H])c7F)c([H])c6[H])c(C(=O)N([H])[H])c5N([H])[H])C4([H])[H])c([H])[n+]3[H])c([H])c([H])c2C1([H])[H]

$$$$
20:0:0
     RDKit          3D

 91 98  0  0  1  0  0  0  0  0999 V2000
  -29.9360  -18.7530   20.2350 C   0  0  2  0  0  0  0  0  0  0  0  0
  -30.3990  -15.6500   20.1090 C   0  0  0  0  0  0  0  0  0  0  0  0
  -30.4340  -13.1560   19.2020 C   0  0  0  0  0  2  0  0  0  0  0  0
  -29.4870  -12.8310   18.0140 C   0  0  0  0  0  2  0  0  0  0  0  0
  -28.0800  -12.4740   18.5190 C   0  0  0  0  0  2  0  0  0  0  0  0
  -27.6270  -13.4310   19.6460 C   0  0  0  0  0  3  0  0  0  0  0  0
  -28.7080  -13.6830   20.7220 C   0  0  0  0  0  2  0  0  0  0  0  0
  -29.8600  -14.3020   20.0330 N   0  0  0  0  0  0  0  0  0  0  0  0
  -31.6150  -15.6070   19.8530 O   0  0  0  0  0  0  0  0  0  0  0  0
  -29.6590  -17.0050   20.2440 N   0  0  0  0  0  0  0  0  0  0  0  0
  -28.6840  -16.8150   20.4320 H   0  0  0  0  0  0  0  0  0  0  0  0
  -25.2970  -13.9260   20.5280 C   0  0  0  0  0  0  0  0  0  0  0  0
  -24.2610  -13.1270   20.9180 C   0  0  0  0  0  0  0  0  0  0  0  0
  -24.7390  -11.7840   20.8250 C   0  0  0  0  0  0  0  0  0  0  0  0
  -26.3350  -13.0710   20.2110 N   0  0  0  0  0  0  0  0  0  0  0  0
  -26.0170  -11.7730   20.4570 N   0  0  0  0  0  0  0  0  0  0  0  0
  -24.0290  -10.5100   21.0060 C   0  0  0  0  0  0  0  0  0  0  0  0
  -24.4730   -9.5400   21.9320 C   0  0  0  0  0  3  0  0  0  0  0  0
  -23.7580   -8.3350   22.1050 C   0  0  0  0  0  3  0  0  0  0  0  0
  -22.5850   -8.0900   21.3520 C   0  0  0  0  0  0  0  0  0  0  0  0
  -22.1580   -9.0480   20.4160 C   0  0  0  0  0  3  0  0  0  0  0  0
  -22.8740  -10.2460   20.2420 C   0  0  0  0  0  3  0  0  0  0  0  0
  -21.8420   -6.9370   21.4350 O   0  0  0  0  0  0  0  0  0  0  0  0
  -21.7570   -6.2170   22.6000 C   0  0  0  0  0  0  0  0  0  0  0  0
  -21.2430   -6.7800   23.7880 C   0  0  0  0  0  3  0  0  0  0  0  0
  -21.1100   -5.9840   24.9430 C   0  0  0  0  0  3  0  0  0  0  0  0
  -21.4780   -4.6260   24.9100 C   0  0  0  0  0  0  0  0  0  0  0  0
  -21.9850   -4.0620   23.7260 C   0  0  0  0  0  3  0  0  0  0  0  0
  -22.1200   -4.8550   22.5730 C   0  0  0  0  0  0  0  0  0  0  0  0
  -22.5880   -4.3020   21.4290 F   0  0  0  0  0  0  0  0  0  0  0  0
  -21.3430   -3.8600   26.0170 F   0  0  0  0  0  0  0  0  0  0  0  0
  -22.8720  -13.5840   21.2540 C   0  0  0  0  0  0  0  0  0  0  0  0
  -22.1870  -12.8660   22.1360 N   0  0  0  0  0  0  0  0  0  0  0  0
  -22.4060  -14.6160   20.7720 O   0  0  0  0  0  0  0  0  0  0  0  0
  -22.5800  -12.0320   22.5480 H   0  0  0  0  0  0  0  0  0  0  0  0
  -21.2570  -13.1540   22.4050 H   0  0  0  0  0  0  0  0  0  0  0  0
  -25.4380  -15.3030   20.3830 N   0  0  0  0  0  0  0  0  0  0  0  0
  -24.6640  -15.9400   20.5420 H   0  0  0  0  0  0  0  0  0  0  0  0
  -26.2540  -15.7590   20.0030 H   0  0  0  0  0  0  0  0  0  0  0  0
  -31.8190  -20.1940   21.3800 C   0  0  0  0  0  1  0  0  0  0  0  0
  -30.5910  -18.4470   22.7080 C   0  0  0  0  0  1  0  0  0  0  0  0
  -31.0750  -18.8500   21.3020 C   0  0  0  0  0  3  0  0  0  0  0  0
  -28.8920  -20.3600   20.5140 C   0  0  0  0  0  2  0  0  0  0  0  0
  -29.0870  -22.2800   20.4290 C   0  0  0  0  0  3  0  0  0  0  0  0
  -28.0680  -23.9110   20.4400 C   0  0  0  0  0  3  0  0  0  0  0  0
  -28.2640  -25.6440   20.4750 O   0  0  0  0  0  0  0  0  0  0  0  0
  -24.7040  -31.9090   23.2800 C   0  0  0  0  0  0  0  0  0  0  0  0
  -27.2790  -26.8300   20.3980 C   0  0  0  0  0  0  0  0  0  0  0  0
  -23.5390  -30.4900   21.6460 C   0  0  0  0  0  3  0  0  0  0  0  0
  -25.0060  -28.8310   20.2770 C   0  0  0  0  0  0  0  0  0  0  0  0
  -26.1180  -30.6450   21.5550 C   0  0  0  0  0  2  0  0  0  0  0  0
  -26.1920  -29.2070   20.9190 C   0  0  0  0  0  0  0  0  0  0  0  0
  -27.3160  -28.2340   20.9450 C   0  0  0  0  0  3  0  0  0  0  0  0
  -26.0600  -26.6500   19.6990 C   0  0  0  0  0  3  0  0  0  0  0  0
  -24.9760  -27.5770   19.6440 C   0  0  0  0  0  3  0  0  0  0  0  0
  -23.7970  -29.7780   20.2880 C   0  0  0  0  0  2  0  0  0  0  0  0
  -24.8100  -31.0470   22.2130 N   0  0  0  0  0  0  0  0  0  0  0  0
  -23.6040  -32.2140   23.7730 O   0  0  0  0  0  0  0  0  0  0  0  0
  -22.8120  -29.5220   22.6180 C   0  0  0  0  0  0  0  0  0  0  0  0
  -21.4870  -29.3440   22.4590 N   0  0  0  0  0  0  0  0  0  0  0  0
  -23.4530  -28.9280   23.4890 O   0  0  0  0  0  0  0  0  0  0  0  0
  -21.0200  -29.8740   21.7350 H   0  0  0  0  0  0  0  0  0  0  0  0
  -18.1060  -28.0890   22.8920 C   0  0  0  0  0  0  0  0  0  0  0  0
  -20.6500  -28.4170   23.2300 C   0  0  0  0  0  3  0  0  0  0  0  0
  -20.7980  -26.9700   22.7050 C   0  0  0  0  0  2  0  0  0  0  0  0
  -19.7370  -26.5950   21.6640 C   0  0  0  0  0  2  0  0  0  0  0  0
  -18.3320  -26.7280   22.2570 C   0  0  0  0  0  2  0  0  0  0  0  0
  -19.1930  -28.8880   23.3340 C   0  0  0  0  0  0  0  0  0  0  0  0
  -18.9260  -30.1580   23.8910 C   0  0  0  0  0  3  0  0  0  0  0  0
  -17.6040  -30.6290   24.0090 C   0  0  0  0  0  3  0  0  0  0  0  0
  -16.5310  -29.8290   23.5820 C   0  0  0  0  0  3  0  0  0  0  0  0
  -16.7830  -28.5600   23.0290 C   0  0  0  0  0  3  0  0  0  0  0  0
  -25.9590  -32.5670   23.9290 C   0  0  0  0  0  3  0  0  0  0  0  0
  -25.6300  -33.9710   24.2430 N   0  0  0  0  0  0  0  0  0  0  0  0
  -25.9430  -35.0260   23.4790 C   0  0  0  0  0  0  0  0  0  0  0  0
  -26.5940  -34.9220   22.4370 O   0  0  0  0  0  0  0  0  0  0  0  0
  -25.0470  -34.1250   25.0530 H   0  0  0  0  0  0  0  0  0  0  0  0
  -24.1780  -36.8010   23.1780 C   0  0  0  0  0  1  0  0  0  0  0  0
  -25.4580  -36.4190   23.9400 C   0  0  0  0  0  3  0  0  0  0  0  0
  -27.6090  -37.3540   24.6720 C   0  0  0  0  0  1  0  0  0  0  0  0
  -26.4710  -37.4840   23.7670 N   0  0  0  0  0  0  0  0  0  0  0  0
  -26.0560  -38.4010   23.9090 H   0  0  0  0  0  0  0  0  0  0  0  0
  -26.4390  -31.8240   25.2390 C   0  0  1  0  0  0  0  0  0  0  0  0
  -25.3150  -31.6060   26.2800 C   0  0  0  0  0  1  0  0  0  0  0  0
  -27.0370  -30.4390   24.9050 C   0  0  0  0  0  1  0  0  0  0  0  0
  -27.5670  -32.6360   25.9180 C   0  0  0  0  0  1  0  0  0  0  0  0
  -30.5280  -18.9930   18.8140 C   0  0  0  0  0  2  0  0  0  0  0  0
  -28.3980  -18.8870   17.5190 C   0  0  0  0  0  1  0  0  0  0  0  0
  -30.5250  -18.2900   16.4510 C   0  0  0  0  0  1  0  0  0  0  0  0
  -29.7610  -18.3430   17.7180 N   0  0  1  0  0  4  0  0  0  0  0  0
  -29.6400  -17.3870   18.0130 H   0  0  0  0  0  0  0  0  0  0  0  0
  1 87  1  6
  1 10  1  0
  1 43  1  0
  1 42  1  0
  2 10  1  0
  3  8  1  0
  4  5  1  0
  4  3  1  0
  6  5  1  0
  6 15  1  0
  6  7  1  0
  8  2  1  0
  8  7  1  0
  9  2  2  0
 10 11  1  0
 12 13  2  0
 13 32  1  0
 14 13  1  0
 14 17  1  0
 15 16  1  0
 15 12  1  0
 16 14  2  0
 17 18  1  0
 18 19  2  0
 20 23  1  0
 20 19  1  0
 21 20  2  0
 22 21  1  0
 22 17  2  0
 23 24  1  0
 24 25  1  0
 25 26  2  0
 27 26  1  0
 27 31  1  0
 28 27  2  0
 29 24  2  0
 29 28  1  0
 30 29  1  0
 32 33  1  0
 33 36  1  0
 33 35  1  0
 34 32  2  0
 37 12  1  0
 37 38  1  0
 39 37  1  0
 42 40  1  0
 42 41  1  0
 44 45  2  0
 44 43  1  0
 45 46  1  0
 47 58  2  0
 48 46  1  0
 48 53  1  0
 49 57  1  0
 49 59  1  0
 50 56  1  0
 50 52  1  0
 51 57  1  0
 52 53  2  0
 52 51  1  0
 54 48  2  0
 55 54  1  0
 55 50  2  0
 56 49  1  0
 57 47  1  0
 59 61  2  0
 60 59  1  0
 62 60  1  0
 63 72  2  0
 63 68  1  0
 64 60  1  0
 64 68  1  0
 65 64  1  0
 66 67  1  0
 66 65  1  0
 67 63  1  0
 68 69  2  0
 69 70  1  0
 71 70  2  0
 72 71  1  0
 73 47  1  0
 73 74  1  0
 73 83  1  0
 74 77  1  0
 75 79  1  0
 75 74  1  0
 76 75  2  0
 79 78  1  0
 81 82  1  0
 81 79  1  0
 81 80  1  0
 83 86  1  1
 83 84  1  0
 85 83  1  0
 88 90  1  0
 89 90  1  0
 90 91  1  1
 90 87  1  0
M  ISO  4   2 100  10 100  45 101  46 101
M  END
>  <TORSDO>  (21) 
F 22

>  <SCORE>  (21) 
-15.063

>  <name>  (21) 
20

>  <ligand_id>  (21) 
20

>  <original_smiles>  (21) 
[H]c1c([H])c([H])c2c(c1[H])C([H])([H])C([H])([H])C([H])([H])C2([H])N([H])C(=O)C1([H])N(C(=O)C([H])(N([H])C(=O)C([H])(N([H])C([H])([H])[H])C([H])([H])[H])C(C([H])([H])[H])(C([H])([H])[H])C([H])([H])[H])C([H])([H])c2c([H])c(OC([H])([H])C([H])([H])C([H])([H])C(N([H])C(=O)N3C([H])([H])C([H])([H])C([H])([H])C([H])(n4nc(-c5c([H])c([H])c(Oc6c([H])c([H])c(F)c([H])c6F)c([H])c5[H])c(C(=O)N([H])[H])c4N([H])[H])C3([H])[H])(C([H])(C([H])([H])[H])C([H])([H])[H])C([H])([H])[N+]([H])(C([H])([H])[H])C([H])([H])[H])c([H])c([H])c2C1([H])[H]

>  <smiles>  (21) 
[H]c1c([H])c([H])c2c(c1[H])C([H])([H])C([H])([H])C([H])([H])C2([H])N([H])C(=O)C1([H])N(C(=O)C([H])(N([H])C(=O)C([H])(N([H])C([H])([H])[H])C([H])([H])[H])C(C([H])([H])[H])(C([H])([H])[H])C([H])([H])[H])C([H])([H])c2c([H])c(OC([H])([H])C([H])([H])C([H])([H])C(N([H])C(=O)N3C([H])([H])C([H])([H])C([H])([H])C([H])(n4nc(-c5c([H])c([H])c(Oc6c([H])c([H])c(F)c([H])c6F)c([H])c5[H])c(C(=O)N([H])[H])c4N([H])[H])C3([H])[H])(C([H])(C([H])([H])[H])C([H])([H])[H])C([H])([H])[N+]([H])(C([H])([H])[H])C([H])([H])[H])c([H])c([H])c2C1([H])[H]

$$$$
21:0:0
     RDKit          3D

 97105  0  0  1  0  0  0  0  0999 V2000
  -29.4920  -22.1280   19.5120 C   0  0  0  0  0  3  0  0  0  0  0  0
  -29.7780  -21.0360   20.3050 C   0  0  0  0  0  0  0  0  0  0  0  0
  -30.0790  -21.6110   21.5770 C   0  0  0  0  0  0  0  0  0  0  0  0
  -29.9950  -22.9810   21.5240 C   0  0  0  0  0  0  0  0  0  0  0  0
  -30.2080  -24.0250   22.5810 C   0  0  0  0  0  1  0  0  0  0  0  0
  -29.7000  -23.3250   20.2060 N   0  0  0  0  0  0  0  0  0  0  0  0
  -30.4180  -20.8810   22.7220 N   0  0  0  0  0  0  0  0  0  0  0  0
  -30.1780  -19.8990   22.6570 H   0  0  0  0  0  0  0  0  0  0  0  0
  -32.7790  -20.1750   22.6410 C   0  0  0  0  0  1  0  0  0  0  0  0
  -31.7310  -20.9480   24.7980 C   0  0  0  0  0  1  0  0  0  0  0  0
  -31.7490  -21.1140   23.2740 C   0  0  0  0  0  3  0  0  0  0  0  0
  -29.8320  -19.5770   19.7930 C   0  0  0  0  0  2  0  0  0  0  0  0
  -29.5050  -18.3560   20.7220 C   0  0  0  0  0  2  0  0  0  0  0  0
  -30.6500  -17.2980   20.8500 C   0  0  0  0  0  2  0  0  0  0  0  0
  -30.9230  -14.8290   20.5450 C   0  0  0  0  0  0  0  0  0  0  0  0
  -30.6820  -12.6430   19.4330 C   0  0  0  0  0  2  0  0  0  0  0  0
  -29.7730  -12.8080   18.1980 C   0  0  0  0  0  2  0  0  0  0  0  0
  -28.2890  -12.6630   18.5920 C   0  0  0  0  0  2  0  0  0  0  0  0
  -27.9060  -13.5180   19.8360 C   0  0  0  0  0  3  0  0  0  0  0  0
  -28.9350  -13.3320   20.9730 C   0  0  0  0  0  2  0  0  0  0  0  0
  -30.2640  -13.6440   20.4290 N   0  0  0  0  0  0  0  0  0  0  0  0
  -32.0740  -14.9850   20.1230 O   0  0  0  0  0  0  0  0  0  0  0  0
  -30.1960  -15.8910   20.9590 N   0  0  0  0  0  0  0  0  0  0  0  0
  -29.2500  -15.7140   21.2620 H   0  0  0  0  0  0  0  0  0  0  0  0
  -25.4820  -14.0990   20.4810 C   0  0  0  0  0  0  0  0  0  0  0  0
  -24.4160  -13.3170   20.8310 C   0  0  0  0  0  0  0  0  0  0  0  0
  -24.8950  -11.9720   20.8160 C   0  0  0  0  0  0  0  0  0  0  0  0
  -26.5430  -13.2310   20.2830 N   0  0  0  0  0  0  0  0  0  0  0  0
  -26.1930  -11.9460   20.5460 N   0  0  0  0  0  0  0  0  0  0  0  0
  -24.1780  -10.7020   20.9940 C   0  0  0  0  0  0  0  0  0  0  0  0
  -24.5810   -9.7570   21.9620 C   0  0  0  0  0  3  0  0  0  0  0  0
  -23.8660   -8.5520   22.1290 C   0  0  0  0  0  3  0  0  0  0  0  0
  -22.7310   -8.2840   21.3270 C   0  0  0  0  0  0  0  0  0  0  0  0
  -22.3480   -9.2170   20.3470 C   0  0  0  0  0  3  0  0  0  0  0  0
  -23.0650  -10.4140   20.1800 C   0  0  0  0  0  3  0  0  0  0  0  0
  -21.9880   -7.1290   21.4010 O   0  0  0  0  0  0  0  0  0  0  0  0
  -21.8680   -6.4240   22.5720 C   0  0  0  0  0  0  0  0  0  0  0  0
  -21.3230   -7.0040   23.7400 C   0  0  0  0  0  3  0  0  0  0  0  0
  -21.1560   -6.2200   24.9010 C   0  0  0  0  0  3  0  0  0  0  0  0
  -21.5210   -4.8610   24.8930 C   0  0  0  0  0  0  0  0  0  0  0  0
  -22.0560   -4.2820   23.7280 C   0  0  0  0  0  3  0  0  0  0  0  0
  -22.2270   -5.0620   22.5710 C   0  0  0  0  0  0  0  0  0  0  0  0
  -22.7230   -4.4960   21.4430 F   0  0  0  0  0  0  0  0  0  0  0  0
  -21.3530   -4.1040   26.0030 F   0  0  0  0  0  0  0  0  0  0  0  0
  -23.0070  -13.7800   21.0670 C   0  0  0  0  0  0  0  0  0  0  0  0
  -22.2700  -13.0810   21.9260 N   0  0  0  0  0  0  0  0  0  0  0  0
  -22.5660  -14.7910   20.5240 O   0  0  0  0  0  0  0  0  0  0  0  0
  -22.6510  -12.2780   22.4000 H   0  0  0  0  0  0  0  0  0  0  0  0
  -21.3160  -13.3560   22.1100 H   0  0  0  0  0  0  0  0  0  0  0  0
  -25.6240  -15.4700   20.3000 N   0  0  0  0  0  0  0  0  0  0  0  0
  -24.8290  -16.0950   20.3950 H   0  0  0  0  0  0  0  0  0  0  0  0
  -26.4480  -15.9330   19.9380 H   0  0  0  0  0  0  0  0  0  0  0  0
  -29.6580  -24.7060   19.6420 C   0  0  0  0  0  3  0  0  0  0  0  0
  -31.8020  -24.3060   18.2040 C   0  0  0  0  0  1  0  0  0  0  0  0
  -30.3400  -24.7930   18.2500 C   0  0  0  0  0  2  0  0  0  0  0  0
  -28.2440  -25.3740   19.6300 C   0  0  0  0  0  2  0  0  0  0  0  0
  -28.3000  -26.8280   19.6690 O   0  0  0  0  0  0  0  0  0  0  0  0
  -24.4590  -31.8360   23.0610 C   0  0  0  0  0  0  0  0  0  0  0  0
  -27.1070  -27.5400   19.7320 C   0  0  0  0  0  0  0  0  0  0  0  0
  -23.2310  -30.4510   21.4230 C   0  0  0  0  0  3  0  0  0  0  0  0
  -24.6710  -29.0030   19.8930 C   0  0  0  0  0  0  0  0  0  0  0  0
  -25.7400  -30.8850   21.1390 C   0  0  0  0  0  2  0  0  0  0  0  0
  -25.8420  -29.5360   20.4450 C   0  0  0  0  0  0  0  0  0  0  0  0
  -27.0630  -28.8170   20.3540 C   0  0  0  0  0  3  0  0  0  0  0  0
  -25.9080  -27.0310   19.1810 C   0  0  0  0  0  3  0  0  0  0  0  0
  -24.7010  -27.7510   19.2580 C   0  0  0  0  0  3  0  0  0  0  0  0
  -23.4070  -29.8250   20.0150 C   0  0  0  0  0  2  0  0  0  0  0  0
  -24.4980  -31.0710   21.9310 N   0  0  0  0  0  0  0  0  0  0  0  0
  -23.3910  -32.0580   23.6490 O   0  0  0  0  0  0  0  0  0  0  0  0
  -22.6440  -29.3820   22.3740 C   0  0  0  0  0  0  0  0  0  0  0  0
  -21.3250  -29.1470   22.2740 N   0  0  0  0  0  0  0  0  0  0  0  0
  -23.3720  -28.7680   23.1580 O   0  0  0  0  0  0  0  0  0  0  0  0
  -20.7970  -29.6960   21.6120 H   0  0  0  0  0  0  0  0  0  0  0  0
  -18.0270  -27.7570   22.7770 C   0  0  0  0  0  0  0  0  0  0  0  0
  -20.5680  -28.1570   23.0400 C   0  0  0  0  0  3  0  0  0  0  0  0
  -20.7500  -26.7400   22.4480 C   0  0  0  0  0  2  0  0  0  0  0  0
  -19.6620  -26.3650   21.4370 C   0  0  0  0  0  2  0  0  0  0  0  0
  -18.2770  -26.4250   22.0880 C   0  0  0  0  0  2  0  0  0  0  0  0
  -19.1030  -28.5760   23.2100 C   0  0  0  0  0  0  0  0  0  0  0  0
  -18.8160  -29.8190   23.8130 C   0  0  0  0  0  3  0  0  0  0  0  0
  -17.4860  -30.2470   23.9880 C   0  0  0  0  0  3  0  0  0  0  0  0
  -16.4250  -29.4220   23.5740 C   0  0  0  0  0  3  0  0  0  0  0  0
  -16.6960  -28.1800   22.9740 C   0  0  0  0  0  3  0  0  0  0  0  0
  -25.7480  -32.4840   23.6530 C   0  0  0  0  0  3  0  0  0  0  0  0
  -25.4180  -33.8660   24.0250 N   0  0  0  0  0  0  0  0  0  0  0  0
  -25.7250  -34.9460   23.2940 C   0  0  0  0  0  0  0  0  0  0  0  0
  -26.3860  -34.8850   22.2540 O   0  0  0  0  0  0  0  0  0  0  0  0
  -24.8340  -33.9880   24.8390 H   0  0  0  0  0  0  0  0  0  0  0  0
  -23.9670  -36.7200   23.0010 C   0  0  0  0  0  1  0  0  0  0  0  0
  -25.2150  -36.3100   23.7970 C   0  0  0  0  0  3  0  0  0  0  0  0
  -27.3340  -37.2040   24.6590 C   0  0  0  0  0  1  0  0  0  0  0  0
  -26.2290  -37.3830   23.7190 N   0  0  0  0  0  0  0  0  0  0  0  0
  -25.8090  -38.2920   23.8940 H   0  0  0  0  0  0  0  0  0  0  0  0
  -26.3300  -31.6980   24.8920 C   0  0  1  0  0  0  0  0  0  0  0  0
  -25.2820  -31.4090   25.9920 C   0  0  0  0  0  1  0  0  0  0  0  0
  -26.9290  -30.3450   24.4420 C   0  0  0  0  0  1  0  0  0  0  0  0
  -27.4850  -32.5050   25.5310 C   0  0  0  0  0  1  0  0  0  0  0  0
  1  6  1  0
  1  2  2  0
  2  3  1  0
  3  7  1  0
  4  3  2  0
  4  5  1  0
  6  4  1  0
  7 11  1  0
  8  7  1  0
  9 11  1  0
 11 10  1  0
 12  2  1  0
 12 13  1  0
 13 14  1  0
 14 23  1  0
 15 23  1  0
 16 21  1  0
 17 18  1  0
 17 16  1  0
 19 18  1  0
 19 28  1  0
 19 20  1  0
 21 15  1  0
 21 20  1  0
 22 15  2  0
 23 24  1  0
 25 26  2  0
 26 45  1  0
 27 26  1  0
 27 30  1  0
 28 25  1  0
 28 29  1  0
 29 27  2  0
 30 31  1  0
 31 32  2  0
 33 36  1  0
 33 32  1  0
 34 33  2  0
 35 34  1  0
 35 30  2  0
 36 37  1  0
 37 38  1  0
 38 39  2  0
 40 39  1  0
 40 44  1  0
 41 40  2  0
 42 37  2  0
 42 41  1  0
 43 42  1  0
 45 46  1  0
 46 49  1  0
 46 48  1  0
 47 45  2  0
 50 51  1  0
 50 25  1  0
 52 50  1  0
 53 55  1  0
 53  6  1  0
 54 55  1  0
 56 53  1  0
 56 57  1  0
 57 59  1  0
 58 69  2  0
 59 64  1  0
 60 68  1  0
 60 70  1  0
 61 67  1  0
 61 63  1  0
 62 68  1  0
 63 62  1  0
 64 63  2  0
 65 66  1  0
 65 59  2  0
 66 61  2  0
 67 60  1  0
 68 58  1  0
 70 72  2  0
 71 70  1  0
 73 71  1  0
 74 83  2  0
 74 79  1  0
 75 71  1  0
 75 79  1  0
 76 75  1  0
 77 78  1  0
 77 76  1  0
 78 74  1  0
 79 80  2  0
 80 81  1  0
 82 81  2  0
 83 82  1  0
 84 58  1  0
 84 85  1  0
 84 94  1  0
 85 88  1  0
 86 90  1  0
 86 85  1  0
 87 86  2  0
 90 89  1  0
 92 90  1  0
 92 93  1  0
 92 91  1  0
 94 97  1  1
 94 95  1  0
 96 94  1  0
M  ISO  4  15 100  23 100  56 101  57 101
M  END
>  <TORSDO>  (22) 
F 24

>  <SCORE>  (22) 
-12.265

>  <name>  (22) 
21

>  <ligand_id>  (22) 
21

>  <original_smiles>  (22) 
[H]c1c([H])c([H])c2c(c1[H])C([H])([H])C([H])([H])C([H])([H])C2([H])N([H])C(=O)C1([H])N(C(=O)C([H])(N([H])C(=O)C([H])(N([H])C([H])([H])[H])C([H])([H])[H])C(C([H])([H])[H])(C([H])([H])[H])C([H])([H])[H])C([H])([H])c2c([H])c(OC([H])([H])C([H])(n3c([H])c(C([H])([H])C([H])([H])C([H])([H])N([H])C(=O)N4C([H])([H])C([H])([H])C([H])([H])C([H])(n5nc(-c6c([H])c([H])c(Oc7c([H])c([H])c(F)c([H])c7F)c([H])c6[H])c(C(=O)N([H])[H])c5N([H])[H])C4([H])[H])c(N([H])C([H])(C([H])([H])[H])C([H])([H])[H])c3C([H])([H])[H])C([H])([H])C([H])([H])[H])c([H])c([H])c2C1([H])[H]

>  <smiles>  (22) 
[H]c1c([H])c([H])c2c(c1[H])C([H])([H])C([H])([H])C([H])([H])C2([H])N([H])C(=O)C1([H])N(C(=O)C([H])(N([H])C(=O)C([H])(N([H])C([H])([H])[H])C([H])([H])[H])C(C([H])([H])[H])(C([H])([H])[H])C([H])([H])[H])C([H])([H])c2c([H])c(OC([H])([H])C([H])(n3c([H])c(C([H])([H])C([H])([H])C([H])([H])N([H])C(=O)N4C([H])([H])C([H])([H])C([H])([H])C([H])(n5nc(-c6c([H])c([H])c(Oc7c([H])c([H])c(F)c([H])c7F)c([H])c6[H])c(C(=O)N([H])[H])c5N([H])[H])C4([H])[H])c(N([H])C([H])(C([H])([H])[H])C([H])([H])[H])c3C([H])([H])[H])C([H])([H])C([H])([H])[H])c([H])c([H])c2C1([H])[H]

$$$$
22:0:0
     RDKit          3D

 92100  0  0  1  0  0  0  0  0999 V2000
  -28.2060  -22.4450   18.9080 C   0  0  0  0  0  2  0  0  0  0  0  0
  -30.2870  -23.0380   20.0500 C   0  0  0  0  0  2  0  0  0  0  0  0
  -28.9500  -21.0380   18.6310 C   0  0  0  0  0  2  0  0  0  0  0  0
  -28.9160  -23.6710   19.6340 C   0  0  0  0  0  3  0  0  0  0  0  0
  -30.2440  -21.5460   20.6690 C   0  0  0  0  0  3  0  0  0  0  0  0
  -29.8890  -20.4500   19.6680 N   0  0  1  0  0  4  0  0  0  0  0  0
  -30.7480  -20.3720   19.1420 H   0  0  0  0  0  0  0  0  0  0  0  0
  -27.9770  -21.5410   22.0320 C   0  0  0  0  0  1  0  0  0  0  0  0
  -30.0860  -22.4090   23.1070 C   0  0  0  0  0  1  0  0  0  0  0  0
  -29.5150  -21.4400   22.0550 C   0  0  0  0  0  3  0  0  0  0  0  0
  -28.8120  -25.1390   18.8660 C   0  0  0  0  0  2  0  0  0  0  0  0
  -28.6930  -26.5440   19.4430 O   0  0  0  0  0  0  0  0  0  0  0  0
  -24.6690  -31.4990   22.9620 C   0  0  0  0  0  0  0  0  0  0  0  0
  -27.5260  -27.3630   19.4440 C   0  0  0  0  0  0  0  0  0  0  0  0
  -23.5360  -30.1840   21.2080 C   0  0  0  0  0  3  0  0  0  0  0  0
  -25.0620  -28.8680   19.6180 C   0  0  0  0  0  0  0  0  0  0  0  0
  -26.0530  -30.6670   21.0320 C   0  0  0  0  0  2  0  0  0  0  0  0
  -26.2110  -29.3580   20.2500 C   0  0  0  0  0  0  0  0  0  0  0  0
  -27.4370  -28.6180   20.1520 C   0  0  0  0  0  3  0  0  0  0  0  0
  -26.3410  -26.9450   18.7970 C   0  0  0  0  0  3  0  0  0  0  0  0
  -25.1350  -27.6740   18.8810 C   0  0  0  0  0  3  0  0  0  0  0  0
  -23.7730  -29.6550   19.7670 C   0  0  0  0  0  2  0  0  0  0  0  0
  -24.7720  -30.8000   21.7910 N   0  0  0  0  0  0  0  0  0  0  0  0
  -23.5770  -31.6510   23.5300 O   0  0  0  0  0  0  0  0  0  0  0  0
  -22.9520  -29.0430   22.0760 C   0  0  0  0  0  0  0  0  0  0  0  0
  -21.6350  -28.7990   21.9570 N   0  0  0  0  0  0  0  0  0  0  0  0
  -23.6850  -28.3830   22.8180 O   0  0  0  0  0  0  0  0  0  0  0  0
  -21.0980  -29.3890   21.3380 H   0  0  0  0  0  0  0  0  0  0  0  0
  -18.3630  -27.3060   22.3520 C   0  0  0  0  0  0  0  0  0  0  0  0
  -20.8950  -27.7390   22.6450 C   0  0  0  0  0  3  0  0  0  0  0  0
  -21.1020  -26.3740   21.9520 C   0  0  0  0  0  2  0  0  0  0  0  0
  -20.0240  -26.0550   20.9110 C   0  0  0  0  0  2  0  0  0  0  0  0
  -18.6380  -26.0380   21.5620 C   0  0  0  0  0  2  0  0  0  0  0  0
  -19.4220  -28.1130   22.8470 C   0  0  0  0  0  0  0  0  0  0  0  0
  -19.1090  -29.2990   23.5460 C   0  0  0  0  0  3  0  0  0  0  0  0
  -17.7710  -29.6810   23.7550 C   0  0  0  0  0  3  0  0  0  0  0  0
  -16.7270  -28.8700   23.2740 C   0  0  0  0  0  3  0  0  0  0  0  0
  -17.0240  -27.6850   22.5800 C   0  0  0  0  0  3  0  0  0  0  0  0
  -25.9140  -32.1580   23.6310 C   0  0  0  0  0  3  0  0  0  0  0  0
  -26.4670  -31.3340   24.8580 C   0  0  1  0  0  0  0  0  0  0  0  0
  -25.3890  -30.9850   25.9120 C   0  0  0  0  0  1  0  0  0  0  0  0
  -27.1080  -30.0090   24.3860 C   0  0  0  0  0  1  0  0  0  0  0  0
  -27.5850  -32.1360   25.5670 C   0  0  0  0  0  1  0  0  0  0  0  0
  -25.5280  -33.5130   24.0550 N   0  0  0  0  0  0  0  0  0  0  0  0
  -25.8380  -34.6370   23.3950 C   0  0  0  0  0  0  0  0  0  0  0  0
  -26.5470  -34.6440   22.3840 O   0  0  0  0  0  0  0  0  0  0  0  0
  -24.8980  -33.5780   24.8410 H   0  0  0  0  0  0  0  0  0  0  0  0
  -24.0420  -36.3790   23.1230 C   0  0  0  0  0  1  0  0  0  0  0  0
  -25.2760  -35.9640   23.9420 C   0  0  0  0  0  3  0  0  0  0  0  0
  -27.3370  -36.8770   24.9140 C   0  0  0  0  0  1  0  0  0  0  0  0
  -26.2630  -37.0660   23.9430 N   0  0  0  0  0  0  0  0  0  0  0  0
  -25.8100  -37.9540   24.1410 H   0  0  0  0  0  0  0  0  0  0  0  0
  -29.6750  -18.9550   20.1350 C   0  0  0  0  0  3  0  0  0  0  0  0
  -30.6380  -17.6980   19.6560 C   0  0  0  0  0  3  0  0  0  0  0  0
  -31.0600  -15.0440   19.8640 C   0  0  0  0  0  0  0  0  0  0  0  0
  -30.8640  -12.6660   19.0730 C   0  0  0  0  0  2  0  0  0  0  0  0
  -29.8900  -12.6030   17.8740 C   0  0  0  0  0  2  0  0  0  0  0  0
  -28.4370  -12.4520   18.3620 C   0  0  0  0  0  2  0  0  0  0  0  0
  -28.0890  -13.4450   19.5040 C   0  0  0  0  0  3  0  0  0  0  0  0
  -29.1800  -13.4780   20.5950 C   0  0  0  0  0  2  0  0  0  0  0  0
  -30.4460  -13.8050   19.9300 N   0  0  0  0  0  0  0  0  0  0  0  0
  -32.2400  -15.1030   19.5030 O   0  0  0  0  0  0  0  0  0  0  0  0
  -30.2950  -16.2130   19.9860 N   0  0  0  0  0  0  0  0  0  0  0  0
  -29.3390  -16.0480   20.2690 H   0  0  0  0  0  0  0  0  0  0  0  0
  -25.7830  -14.1100   20.4000 C   0  0  0  0  0  0  0  0  0  0  0  0
  -24.7010  -13.3730   20.7930 C   0  0  0  0  0  0  0  0  0  0  0  0
  -25.0900  -12.0030   20.6710 C   0  0  0  0  0  0  0  0  0  0  0  0
  -26.7630  -13.1940   20.0590 N   0  0  0  0  0  0  0  0  0  0  0  0
  -26.3570  -11.9180   20.2850 N   0  0  0  0  0  0  0  0  0  0  0  0
  -24.3080  -10.7710   20.8390 C   0  0  0  0  0  0  0  0  0  0  0  0
  -24.7080   -9.7600   21.7400 C   0  0  0  0  0  3  0  0  0  0  0  0
  -23.9290   -8.5930   21.8990 C   0  0  0  0  0  3  0  0  0  0  0  0
  -22.7350   -8.4310   21.1560 C   0  0  0  0  0  0  0  0  0  0  0  0
  -22.3550   -9.4290   20.2430 C   0  0  0  0  0  3  0  0  0  0  0  0
  -23.1330  -10.5870   20.0820 C   0  0  0  0  0  3  0  0  0  0  0  0
  -21.9290   -7.3210   21.2270 O   0  0  0  0  0  0  0  0  0  0  0  0
  -21.7770   -6.6140   22.3930 C   0  0  0  0  0  0  0  0  0  0  0  0
  -21.2990   -7.2190   23.5750 C   0  0  0  0  0  3  0  0  0  0  0  0
  -21.0930   -6.4420   24.7320 C   0  0  0  0  0  3  0  0  0  0  0  0
  -21.3540   -5.0580   24.7060 C   0  0  0  0  0  0  0  0  0  0  0  0
  -21.8250   -4.4520   23.5280 C   0  0  0  0  0  3  0  0  0  0  0  0
  -22.0330   -5.2280   22.3740 C   0  0  0  0  0  0  0  0  0  0  0  0
  -22.4670   -4.6350   21.2360 F   0  0  0  0  0  0  0  0  0  0  0  0
  -21.1490   -4.3080   25.8140 F   0  0  0  0  0  0  0  0  0  0  0  0
  -23.3470  -13.9050   21.1670 C   0  0  0  0  0  0  0  0  0  0  0  0
  -22.6440  -13.2190   22.0590 N   0  0  0  0  0  0  0  0  0  0  0  0
  -22.9260  -14.9630   20.6990 O   0  0  0  0  0  0  0  0  0  0  0  0
  -22.9980  -12.3620   22.4580 H   0  0  0  0  0  0  0  0  0  0  0  0
  -21.7370  -13.5550   22.3500 H   0  0  0  0  0  0  0  0  0  0  0  0
  -26.0080  -15.4790   20.2770 N   0  0  0  0  0  0  0  0  0  0  0  0
  -25.2750  -16.1580   20.4440 H   0  0  0  0  0  0  0  0  0  0  0  0
  -26.8380  -15.8870   19.8660 H   0  0  0  0  0  0  0  0  0  0  0  0
  1  4  1  0
  2  5  1  0
  3  1  1  0
  3  6  1  0
  4 11  1  0
  4  2  1  0
  5 10  1  0
  6 53  1  0
  6  5  1  0
  6  7  1  6
  8 10  1  0
 10  9  1  0
 11 12  1  0
 12 14  1  0
 13 24  2  0
 14 19  1  0
 15 23  1  0
 15 25  1  0
 16 22  1  0
 16 18  1  0
 17 23  1  0
 18 17  1  0
 19 18  2  0
 20 21  1  0
 20 14  2  0
 21 16  2  0
 22 15  1  0
 23 13  1  0
 25 27  2  0
 26 25  1  0
 28 26  1  0
 29 38  2  0
 29 34  1  0
 30 26  1  0
 30 34  1  0
 31 30  1  0
 32 33  1  0
 32 31  1  0
 33 29  1  0
 34 35  2  0
 35 36  1  0
 37 36  2  0
 38 37  1  0
 39 13  1  0
 39 44  1  0
 39 40  1  0
 40 43  1  1
 40 41  1  0
 42 40  1  0
 44 47  1  0
 45 49  1  0
 45 44  1  0
 46 45  2  0
 49 48  1  0
 49 51  1  0
 51 52  1  0
 51 50  1  0
 54 63  1  0
 54 53  2  0
 55 61  1  0
 55 63  1  0
 56 61  1  0
 57 58  1  0
 57 56  1  0
 59 58  1  0
 59 68  1  0
 59 60  1  0
 61 60  1  0
 62 55  2  0
 63 64  1  0
 65 66  2  0
 66 85  1  0
 67 66  1  0
 67 70  1  0
 68 69  1  0
 68 65  1  0
 69 67  2  0
 70 71  1  0
 71 72  2  0
 73 76  1  0
 73 72  1  0
 74 73  2  0
 75 74  1  0
 75 70  2  0
 76 77  1  0
 77 78  1  0
 78 79  2  0
 80 79  1  0
 80 84  1  0
 81 80  2  0
 82 77  2  0
 82 81  1  0
 83 82  1  0
 85 86  1  0
 86 89  1  0
 86 88  1  0
 87 85  2  0
 90 65  1  0
 90 91  1  0
 92 90  1  0
M  ISO  4  11 101  12 101  55 100  63 100
M  END
>  <TORSDO>  (23) 
F 20

>  <SCORE>  (23) 
-11.994

>  <name>  (23) 
22

>  <ligand_id>  (23) 
22

>  <original_smiles>  (23) 
[H]c1c([H])c([H])c2c(c1[H])C([H])([H])C([H])([H])C([H])([H])C2([H])N([H])C(=O)C1([H])N(C(=O)C([H])(N([H])C(=O)C([H])(N([H])C([H])([H])[H])C([H])([H])[H])C(C([H])([H])[H])(C([H])([H])[H])C([H])([H])[H])C([H])([H])c2c([H])c(OC([H])([H])C3([H])C([H])([H])C([H])([H])[N+]([H])(C([H])([H])C([H])([H])N([H])C(=O)N4C([H])([H])C([H])([H])C([H])([H])C([H])(n5nc(-c6c([H])c([H])c(Oc7c([H])c([H])c(F)c([H])c7F)c([H])c6[H])c(C(=O)N([H])[H])c5N([H])[H])C4([H])[H])C([H])(C([H])(C([H])([H])[H])C([H])([H])[H])C3([H])[H])c([H])c([H])c2C1([H])[H]

>  <smiles>  (23) 
[H]c1c([H])c([H])c2c(c1[H])C([H])([H])C([H])([H])C([H])([H])C2([H])N([H])C(=O)C1([H])N(C(=O)C([H])(N([H])C(=O)C([H])(N([H])C([H])([H])[H])C([H])([H])[H])C(C([H])([H])[H])(C([H])([H])[H])C([H])([H])[H])C([H])([H])c2c([H])c(OC([H])([H])C3([H])C([H])([H])C([H])([H])[N+]([H])(C([H])([H])C([H])([H])N([H])C(=O)N4C([H])([H])C([H])([H])C([H])([H])C([H])(n5nc(-c6c([H])c([H])c(Oc7c([H])c([H])c(F)c([H])c7F)c([H])c6[H])c(C(=O)N([H])[H])c5N([H])[H])C4([H])[H])C([H])(C([H])(C([H])([H])[H])C([H])([H])[H])C3([H])[H])c([H])c([H])c2C1([H])[H]

$$$$
23:0:0
     RDKit          3D

 89 97  0  0  1  0  0  0  0  0999 V2000
  -29.5970  -20.7510   18.9270 C   0  0  0  0  0  3  0  0  0  0  0  0
  -29.2710  -22.3430   21.1140 C   0  0  0  0  0  3  0  0  0  0  0  0
  -29.1690  -22.1700   18.8130 C   0  0  0  0  0  0  0  0  0  0  0  0
  -29.7010  -20.9200   21.2250 C   0  0  0  0  0  0  0  0  0  0  0  0
  -29.8910  -19.9790   20.1260 C   0  0  0  0  0  0  0  0  0  0  0  0
  -28.9750  -23.1120   19.9130 C   0  0  0  0  0  0  0  0  0  0  0  0
  -28.8720  -22.6700   17.4080 C   0  0  0  0  0  1  0  0  0  0  0  0
  -29.9890  -20.4120   22.6270 C   0  0  0  0  0  1  0  0  0  0  0  0
  -30.6560  -18.4160   20.1350 C   0  0  0  0  0  2  0  0  0  0  0  0
  -30.9890  -15.5670   20.2050 C   0  0  0  0  0  0  0  0  0  0  0  0
  -30.9710  -13.1080   19.4220 C   0  0  0  0  0  2  0  0  0  0  0  0
  -30.0500  -12.8550   18.2030 C   0  0  0  0  0  2  0  0  0  0  0  0
  -28.6050  -12.5890   18.6580 C   0  0  0  0  0  2  0  0  0  0  0  0
  -28.1430  -13.5890   19.7490 C   0  0  0  0  0  3  0  0  0  0  0  0
  -29.1940  -13.7920   20.8620 C   0  0  0  0  0  2  0  0  0  0  0  0
  -30.4200  -14.2690   20.2040 N   0  0  0  0  0  0  0  0  0  0  0  0
  -32.2060  -15.5720   19.9820 O   0  0  0  0  0  0  0  0  0  0  0  0
  -30.2350  -16.8300   20.2490 N   0  0  0  0  0  0  0  0  0  0  0  0
  -29.2440  -16.6860   20.3740 H   0  0  0  0  0  0  0  0  0  0  0  0
  -25.7890  -14.1370   20.5650 C   0  0  0  0  0  0  0  0  0  0  0  0
  -24.7310  -13.3540   20.9310 C   0  0  0  0  0  0  0  0  0  0  0  0
  -25.1930  -12.0030   20.8530 C   0  0  0  0  0  0  0  0  0  0  0  0
  -26.8240  -13.2660   20.2760 N   0  0  0  0  0  0  0  0  0  0  0  0
  -26.4790  -11.9740   20.5180 N   0  0  0  0  0  0  0  0  0  0  0  0
  -24.4650  -10.7380   21.0180 C   0  0  0  0  0  0  0  0  0  0  0  0
  -24.8660   -9.7700   21.9640 C   0  0  0  0  0  3  0  0  0  0  0  0
  -24.1330   -8.5720   22.1200 C   0  0  0  0  0  3  0  0  0  0  0  0
  -22.9850   -8.3340   21.3260 C   0  0  0  0  0  0  0  0  0  0  0  0
  -22.6040   -9.2910   20.3690 C   0  0  0  0  0  3  0  0  0  0  0  0
  -23.3380  -10.4790   20.2120 C   0  0  0  0  0  3  0  0  0  0  0  0
  -22.2280   -7.1890   21.3880 O   0  0  0  0  0  0  0  0  0  0  0  0
  -22.0520   -6.5060   22.5640 C   0  0  0  0  0  0  0  0  0  0  0  0
  -21.4570   -7.1090   23.6930 C   0  0  0  0  0  3  0  0  0  0  0  0
  -21.2310   -6.3490   24.8590 C   0  0  0  0  0  3  0  0  0  0  0  0
  -21.5930   -4.9900   24.8960 C   0  0  0  0  0  0  0  0  0  0  0  0
  -22.1820   -4.3860   23.7710 C   0  0  0  0  0  3  0  0  0  0  0  0
  -22.4080   -5.1430   22.6070 C   0  0  0  0  0  0  0  0  0  0  0  0
  -22.9570   -4.5510   21.5180 F   0  0  0  0  0  0  0  0  0  0  0  0
  -21.3700   -4.2580   26.0130 F   0  0  0  0  0  0  0  0  0  0  0  0
  -23.3400  -13.8280   21.2350 C   0  0  0  0  0  0  0  0  0  0  0  0
  -22.6280  -13.1180   22.1020 N   0  0  0  0  0  0  0  0  0  0  0  0
  -22.8960  -14.8620   20.7390 O   0  0  0  0  0  0  0  0  0  0  0  0
  -23.0020  -12.2790   22.5220 H   0  0  0  0  0  0  0  0  0  0  0  0
  -21.6970  -13.4170   22.3510 H   0  0  0  0  0  0  0  0  0  0  0  0
  -25.9520  -15.5120   20.4220 N   0  0  0  0  0  0  0  0  0  0  0  0
  -25.1890  -16.1640   20.5710 H   0  0  0  0  0  0  0  0  0  0  0  0
  -26.7870  -15.9580   20.0640 H   0  0  0  0  0  0  0  0  0  0  0  0
  -28.1640  -24.6470   19.8310 C   0  0  0  0  0  2  0  0  0  0  0  0
  -28.5350  -26.2100   20.0670 O   0  0  0  0  0  0  0  0  0  0  0  0
  -24.8140  -31.8730   23.3490 C   0  0  0  0  0  0  0  0  0  0  0  0
  -27.5210  -27.2950   20.0510 C   0  0  0  0  0  0  0  0  0  0  0  0
  -23.6840  -30.5870   21.5810 C   0  0  0  0  0  3  0  0  0  0  0  0
  -25.1940  -29.1190   20.0860 C   0  0  0  0  0  0  0  0  0  0  0  0
  -26.2500  -30.8490   21.5210 C   0  0  0  0  0  2  0  0  0  0  0  0
  -26.3590  -29.4960   20.7670 C   0  0  0  0  0  0  0  0  0  0  0  0
  -27.5180  -28.6050   20.7320 C   0  0  0  0  0  3  0  0  0  0  0  0
  -26.3250  -27.0690   19.3310 C   0  0  0  0  0  3  0  0  0  0  0  0
  -25.2000  -27.9250   19.3530 C   0  0  0  0  0  3  0  0  0  0  0  0
  -23.9590  -30.0120   20.1660 C   0  0  0  0  0  2  0  0  0  0  0  0
  -24.9360  -31.1230   22.2070 N   0  0  0  0  0  0  0  0  0  0  0  0
  -23.7070  -32.1120   23.8570 O   0  0  0  0  0  0  0  0  0  0  0  0
  -22.9790  -29.5130   22.4510 C   0  0  0  0  0  0  0  0  0  0  0  0
  -21.6570  -29.3380   22.2700 N   0  0  0  0  0  0  0  0  0  0  0  0
  -23.6280  -28.8420   23.2570 O   0  0  0  0  0  0  0  0  0  0  0  0
  -21.1860  -29.9310   21.6010 H   0  0  0  0  0  0  0  0  0  0  0  0
  -18.2780  -28.0540   22.5800 C   0  0  0  0  0  0  0  0  0  0  0  0
  -20.8240  -28.3360   22.9480 C   0  0  0  0  0  3  0  0  0  0  0  0
  -20.9680  -26.9500   22.2800 C   0  0  0  0  0  2  0  0  0  0  0  0
  -19.9040  -26.6820   21.2110 C   0  0  0  0  0  2  0  0  0  0  0  0
  -18.5000  -26.7600   21.8160 C   0  0  0  0  0  2  0  0  0  0  0  0
  -19.3700  -28.8020   23.0980 C   0  0  0  0  0  0  0  0  0  0  0  0
  -19.1070  -30.0130   23.7750 C   0  0  0  0  0  3  0  0  0  0  0  0
  -17.7880  -30.4780   23.9360 C   0  0  0  0  0  3  0  0  0  0  0  0
  -16.7110  -29.7260   23.4350 C   0  0  0  0  0  3  0  0  0  0  0  0
  -16.9580  -28.5150   22.7620 C   0  0  0  0  0  3  0  0  0  0  0  0
  -26.0590  -32.4800   24.0620 C   0  0  0  0  0  3  0  0  0  0  0  0
  -25.7360  -33.8690   24.4370 N   0  0  0  0  0  0  0  0  0  0  0  0
  -26.0710  -34.9520   23.7250 C   0  0  0  0  0  0  0  0  0  0  0  0
  -26.7500  -34.8890   22.6970 O   0  0  0  0  0  0  0  0  0  0  0  0
  -25.1360  -33.9920   25.2380 H   0  0  0  0  0  0  0  0  0  0  0  0
  -24.3290  -36.7490   23.4450 C   0  0  0  0  0  1  0  0  0  0  0  0
  -25.5780  -36.3230   24.2330 C   0  0  0  0  0  3  0  0  0  0  0  0
  -27.7050  -37.2030   25.0880 C   0  0  0  0  0  1  0  0  0  0  0  0
  -26.6010  -37.3890   24.1510 N   0  0  0  0  0  0  0  0  0  0  0  0
  -26.1860  -38.3000   24.3290 H   0  0  0  0  0  0  0  0  0  0  0  0
  -26.5030  -31.6630   25.3370 C   0  0  1  0  0  0  0  0  0  0  0  0
  -25.3540  -31.4000   26.3390 C   0  0  0  0  0  1  0  0  0  0  0  0
  -27.0940  -30.2930   24.9330 C   0  0  0  0  0  1  0  0  0  0  0  0
  -27.6280  -32.4210   26.0820 C   0  0  0  0  0  1  0  0  0  0  0  0
  1  5  1  0
  2  4  1  0
  3  1  2  0
  3  6  1  0
  4  8  1  0
  5  9  1  0
  5  4  2  0
  6  2  2  0
  7  3  1  0
  9 18  1  0
 10 18  1  0
 11 16  1  0
 12 13  1  0
 12 11  1  0
 14 13  1  0
 14 23  1  0
 14 15  1  0
 16 10  1  0
 16 15  1  0
 17 10  2  0
 18 19  1  0
 20 21  2  0
 21 40  1  0
 22 21  1  0
 22 25  1  0
 23 24  1  0
 23 20  1  0
 24 22  2  0
 25 26  1  0
 26 27  2  0
 28 31  1  0
 28 27  1  0
 29 28  2  0
 30 29  1  0
 30 25  2  0
 31 32  1  0
 32 37  2  0
 32 33  1  0
 33 34  2  0
 34 35  1  0
 35 39  1  0
 36 35  2  0
 37 36  1  0
 38 37  1  0
 40 41  1  0
 41 44  1  0
 41 43  1  0
 42 40  2  0
 45 20  1  0
 45 46  1  0
 47 45  1  0
 48  6  1  0
 48 49  1  0
 50 61  2  0
 51 49  1  0
 51 56  1  0
 52 60  1  0
 52 62  1  0
 53 59  1  0
 53 55  1  0
 54 60  1  0
 55 54  1  0
 56 55  2  0
 57 58  1  0
 57 51  2  0
 58 53  2  0
 59 52  1  0
 60 50  1  0
 62 64  2  0
 63 62  1  0
 65 63  1  0
 66 75  2  0
 66 71  1  0
 67 63  1  0
 67 71  1  0
 68 67  1  0
 69 70  1  0
 69 68  1  0
 70 66  1  0
 71 72  2  0
 72 73  1  0
 74 73  2  0
 75 74  1  0
 76 50  1  0
 76 77  1  0
 76 86  1  0
 77 80  1  0
 78 82  1  0
 78 77  1  0
 79 78  2  0
 82 81  1  0
 84 82  1  0
 84 85  1  0
 84 83  1  0
 86 89  1  1
 86 87  1  0
 88 86  1  0
M  ISO  4  10 100  18 100  48 101  49 101
M  END
>  <TORSDO>  (24) 
F 18

>  <SCORE>  (24) 
-14.451

>  <name>  (24) 
23

>  <ligand_id>  (24) 
23

>  <original_smiles>  (24) 
[H]c1c([H])c([H])c2c(c1[H])C([H])([H])C([H])([H])C([H])([H])C2([H])N([H])C(=O)C1([H])N(C(=O)C([H])(N([H])C(=O)C([H])(N([H])C([H])([H])[H])C([H])([H])[H])C(C([H])([H])[H])(C([H])([H])[H])C([H])([H])[H])C([H])([H])c2c([H])c(OC([H])([H])c3c([H])c(C([H])([H])[H])c(C([H])([H])N([H])C(=O)N4C([H])([H])C([H])([H])C([H])([H])C([H])(n5nc(-c6c([H])c([H])c(Oc7c([H])c([H])c(F)c([H])c7F)c([H])c6[H])c(C(=O)N([H])[H])c5N([H])[H])C4([H])[H])c([H])c3C([H])([H])[H])c([H])c([H])c2C1([H])[H]

>  <smiles>  (24) 
[H]c1c([H])c([H])c2c(c1[H])C([H])([H])C([H])([H])C([H])([H])C2([H])N([H])C(=O)C1([H])N(C(=O)C([H])(N([H])C(=O)C([H])(N([H])C([H])([H])[H])C([H])([H])[H])C(C([H])([H])[H])(C([H])([H])[H])C([H])([H])[H])C([H])([H])c2c([H])c(OC([H])([H])c3c([H])c(C([H])([H])[H])c(C([H])([H])N([H])C(=O)N4C([H])([H])C([H])([H])C([H])([H])C([H])(n5nc(-c6c([H])c([H])c(Oc7c([H])c([H])c(F)c([H])c7F)c([H])c6[H])c(C(=O)N([H])[H])c5N([H])[H])C4([H])[H])c([H])c3C([H])([H])[H])c([H])c([H])c2C1([H])[H]

$$$$
24:0:0
     RDKit          3D

 98106  0  0  1  0  0  0  0  0999 V2000
  -25.5050  -22.1670   17.3210 C   0  0  0  0  0  2  0  0  0  0  0  0
  -25.8800  -23.5600   17.8860 C   0  0  0  0  0  2  0  0  0  0  0  0
  -25.2670  -22.9050   20.1970 C   0  0  0  0  0  2  0  0  0  0  0  0
  -25.4090  -21.0510   18.3950 C   0  0  0  0  0  3  0  0  0  0  0  0
  -24.6030  -21.6300   19.5990 C   0  0  0  0  0  3  0  0  0  0  0  0
  -23.1230  -21.8940   19.2440 C   0  0  0  0  0  1  0  0  0  0  0  0
  -26.3000  -23.5170   19.3140 N   0  0  2  0  0  4  0  0  0  0  0  0
  -27.0840  -22.8840   19.3710 H   0  0  0  0  0  0  0  0  0  0  0  0
  -26.7730  -20.4280   18.7830 C   0  0  0  0  0  0  0  0  0  0  0  0
  -27.6670  -20.0600   17.6020 C   0  0  0  0  0  1  0  0  0  0  0  0
  -27.0770  -20.2650   20.0160 N   0  0  0  0  0  0  0  0  0  0  0  0
  -28.3300  -19.6690   20.4540 C   0  0  0  0  0  2  0  0  0  0  0  0
  -28.2060  -18.1410   20.6270 C   0  0  0  0  0  2  0  0  0  0  0  0
  -29.5220  -17.5050   21.1260 C   0  0  0  0  0  2  0  0  0  0  0  0
  -30.7950  -15.4830   20.8390 C   0  0  0  0  0  0  0  0  0  0  0  0
  -30.7420  -13.2060   19.9810 C   0  0  0  0  0  2  0  0  0  0  0  0
  -29.9020  -13.1880   18.6890 C   0  0  0  0  0  2  0  0  0  0  0  0
  -28.4040  -13.0030   19.0130 C   0  0  0  0  0  2  0  0  0  0  0  0
  -27.8810  -13.9470   20.1330 C   0  0  0  0  0  3  0  0  0  0  0  0
  -28.8510  -13.9660   21.3360 C   0  0  0  0  0  2  0  0  0  0  0  0
  -30.1970  -14.2690   20.8290 N   0  0  0  0  0  0  0  0  0  0  0  0
  -32.0190  -15.6260   20.8380 O   0  0  0  0  0  0  0  0  0  0  0  0
  -30.0540  -16.4500   20.2410 N   0  0  0  0  0  0  0  0  0  0  0  0
  -25.4310  -14.4270   20.7690 C   0  0  0  0  0  0  0  0  0  0  0  0
  -24.3670  -13.5980   21.0000 C   0  0  0  0  0  0  0  0  0  0  0  0
  -24.8710  -12.2660   20.8850 C   0  0  0  0  0  0  0  0  0  0  0  0
  -26.5170  -13.5970   20.5270 N   0  0  0  0  0  0  0  0  0  0  0  0
  -26.1780  -12.2880   20.6580 N   0  0  0  0  0  0  0  0  0  0  0  0
  -24.1770  -10.9730   20.9190 C   0  0  0  0  0  0  0  0  0  0  0  0
  -24.5960   -9.9350   21.7820 C   0  0  0  0  0  3  0  0  0  0  0  0
  -23.9020   -8.7050   21.8100 C   0  0  0  0  0  3  0  0  0  0  0  0
  -22.7770   -8.5060   20.9760 C   0  0  0  0  0  0  0  0  0  0  0  0
  -22.3780   -9.5340   20.1050 C   0  0  0  0  0  3  0  0  0  0  0  0
  -23.0720  -10.7550   20.0730 C   0  0  0  0  0  3  0  0  0  0  0  0
  -22.0570   -7.3360   20.9190 O   0  0  0  0  0  0  0  0  0  0  0  0
  -21.8850   -6.5440   22.0260 C   0  0  0  0  0  0  0  0  0  0  0  0
  -21.2940   -7.0340   23.2120 C   0  0  0  0  0  3  0  0  0  0  0  0
  -21.0720   -6.1660   24.2990 C   0  0  0  0  0  3  0  0  0  0  0  0
  -21.4310   -4.8080   24.2010 C   0  0  0  0  0  0  0  0  0  0  0  0
  -22.0160   -4.3170   23.0200 C   0  0  0  0  0  3  0  0  0  0  0  0
  -22.2380   -5.1820   21.9330 C   0  0  0  0  0  0  0  0  0  0  0  0
  -22.7800   -4.7000   20.7900 F   0  0  0  0  0  0  0  0  0  0  0  0
  -21.2120   -3.9700   25.2410 F   0  0  0  0  0  0  0  0  0  0  0  0
  -22.9420  -14.0120   21.2230 C   0  0  0  0  0  0  0  0  0  0  0  0
  -22.1940  -13.2460   22.0080 N   0  0  0  0  0  0  0  0  0  0  0  0
  -22.4960  -15.0500   20.7350 O   0  0  0  0  0  0  0  0  0  0  0  0
  -22.5630  -12.4060   22.4290 H   0  0  0  0  0  0  0  0  0  0  0  0
  -21.2350  -13.5080   22.1900 H   0  0  0  0  0  0  0  0  0  0  0  0
  -25.5610  -15.8100   20.7250 N   0  0  0  0  0  0  0  0  0  0  0  0
  -24.7850  -16.4350   20.9070 H   0  0  0  0  0  0  0  0  0  0  0  0
  -26.4390  -16.2940   20.5920 H   0  0  0  0  0  0  0  0  0  0  0  0
  -31.3920  -18.1530   18.8490 C   0  0  0  0  0  1  0  0  0  0  0  0
  -29.4010  -16.9190   17.8240 C   0  0  0  0  0  1  0  0  0  0  0  0
  -30.5230  -16.8780   18.8800 C   0  0  0  0  0  3  0  0  0  0  0  0
  -26.7990  -24.8200   19.8280 C   0  0  0  0  0  2  0  0  0  0  0  0
  -28.1830  -25.2040   19.2570 C   0  0  0  0  0  2  0  0  0  0  0  0
  -28.7340  -26.5230   19.8330 C   0  0  0  0  0  2  0  0  0  0  0  0
  -28.4190  -27.6420   19.0050 O   0  0  0  0  0  0  0  0  0  0  0  0
  -24.4730  -31.5950   23.4000 C   0  0  0  0  0  0  0  0  0  0  0  0
  -27.2030  -28.2240   19.2570 C   0  0  0  0  0  0  0  0  0  0  0  0
  -23.2570  -30.5070   21.5400 C   0  0  0  0  0  3  0  0  0  0  0  0
  -24.7140  -29.4550   19.7310 C   0  0  0  0  0  0  0  0  0  0  0  0
  -25.7280  -31.1160   21.3040 C   0  0  0  0  0  2  0  0  0  0  0  0
  -25.8660  -29.9320   20.3710 C   0  0  0  0  0  0  0  0  0  0  0  0
  -27.1160  -29.3200   20.1370 C   0  0  0  0  0  3  0  0  0  0  0  0
  -26.0440  -27.7600   18.6040 C   0  0  0  0  0  3  0  0  0  0  0  0
  -24.7970  -28.3660   18.8450 C   0  0  0  0  0  3  0  0  0  0  0  0
  -23.4200  -30.1740   20.0320 C   0  0  0  0  0  2  0  0  0  0  0  0
  -24.5070  -31.0760   22.1420 N   0  0  0  0  0  0  0  0  0  0  0  0
  -23.4150  -31.6480   24.0430 O   0  0  0  0  0  0  0  0  0  0  0  0
  -22.7470  -29.2440   22.2710 C   0  0  0  0  0  0  0  0  0  0  0  0
  -21.4490  -28.9430   22.1060 N   0  0  0  0  0  0  0  0  0  0  0  0
  -23.5150  -28.5460   22.9390 O   0  0  0  0  0  0  0  0  0  0  0  0
  -20.8850  -29.5680   21.5480 H   0  0  0  0  0  0  0  0  0  0  0  0
  -18.2700  -27.2410   22.2350 C   0  0  0  0  0  0  0  0  0  0  0  0
  -20.7600  -27.7820   22.6640 C   0  0  0  0  0  3  0  0  0  0  0  0
  -21.0710  -26.5050   21.8500 C   0  0  0  0  0  2  0  0  0  0  0  0
  -20.0460  -26.2310   20.7440 C   0  0  0  0  0  2  0  0  0  0  0  0
  -18.6440  -26.0720   21.3390 C   0  0  0  0  0  2  0  0  0  0  0  0
  -19.2610  -28.0530   22.8430 C   0  0  0  0  0  0  0  0  0  0  0  0
  -18.8570  -29.1510   23.6350 C   0  0  0  0  0  3  0  0  0  0  0  0
  -17.4920  -29.4390   23.8230 C   0  0  0  0  0  3  0  0  0  0  0  0
  -16.5130  -28.6220   23.2330 C   0  0  0  0  0  3  0  0  0  0  0  0
  -16.9030  -27.5220   22.4450 C   0  0  0  0  0  3  0  0  0  0  0  0
  -25.7540  -32.1730   24.0830 C   0  0  0  0  0  3  0  0  0  0  0  0
  -25.5020  -33.5900   24.3720 N   0  0  0  0  0  0  0  0  0  0  0  0
  -25.9850  -34.6090   23.6510 C   0  0  0  0  0  0  0  0  0  0  0  0
  -26.7610  -34.4530   22.7040 O   0  0  0  0  0  0  0  0  0  0  0  0
  -24.8310  -33.7930   25.1000 H   0  0  0  0  0  0  0  0  0  0  0  0
  -24.4720  -36.5250   23.0520 C   0  0  0  0  0  1  0  0  0  0  0  0
  -25.5380  -36.0310   24.0430 C   0  0  0  0  0  3  0  0  0  0  0  0
  -27.5800  -36.7530   25.2010 C   0  0  0  0  0  1  0  0  0  0  0  0
  -26.6520  -37.0030   24.1020 N   0  0  0  0  0  0  0  0  0  0  0  0
  -26.2970  -37.9500   24.1980 H   0  0  0  0  0  0  0  0  0  0  0  0
  -26.1630  -31.3970   25.3950 C   0  0  1  0  0  0  0  0  0  0  0  0
  -25.0070  -31.2410   26.4110 C   0  0  0  0  0  1  0  0  0  0  0  0
  -26.6830  -29.9830   25.0470 C   0  0  0  0  0  1  0  0  0  0  0  0
  -27.3230  -32.1370   26.1000 C   0  0  0  0  0  1  0  0  0  0  0  0
  1  2  1  0
  1  4  1  0
  2  7  1  0
  4  9  1  0
  4  5  1  0
  5  6  1  0
  5  3  1  0
  7  8  1  6
  7 55  1  0
  7  3  1  0
  9 11  2  0
 10  9  1  0
 11 12  1  0
 12 13  1  0
 13 14  1  0
 16 21  1  0
 17 18  1  0
 17 16  1  0
 19 18  1  0
 19 27  1  0
 19 20  1  0
 21 15  1  0
 21 20  1  0
 22 15  2  0
 23 15  1  0
 23 14  1  0
 24 25  2  0
 25 44  1  0
 26 29  1  0
 26 25  1  0
 27 28  1  0
 27 24  1  0
 28 26  2  0
 29 30  1  0
 30 31  2  0
 32 31  1  0
 33 32  2  0
 34 33  1  0
 34 29  2  0
 35 32  1  0
 35 36  1  0
 36 37  1  0
 37 38  2  0
 39 38  1  0
 39 43  1  0
 40 39  2  0
 41 36  2  0
 41 40  1  0
 42 41  1  0
 44 45  1  0
 45 48  1  0
 45 47  1  0
 46 44  2  0
 49 24  1  0
 49 50  1  0
 51 49  1  0
 52 54  1  0
 53 54  1  0
 54 23  1  0
 56 55  1  0
 56 57  1  0
 58 60  1  0
 58 57  1  0
 59 70  2  0
 60 65  1  0
 61 69  1  0
 61 71  1  0
 62 68  1  0
 62 64  1  0
 63 69  1  0
 64 63  1  0
 65 64  2  0
 66 67  1  0
 66 60  2  0
 67 62  2  0
 68 61  1  0
 69 59  1  0
 71 73  2  0
 72 71  1  0
 74 72  1  0
 75 84  2  0
 75 80  1  0
 76 72  1  0
 76 80  1  0
 77 76  1  0
 78 79  1  0
 78 77  1  0
 79 75  1  0
 80 81  2  0
 81 82  1  0
 83 82  2  0
 84 83  1  0
 85 59  1  0
 85 86  1  0
 85 95  1  0
 86 89  1  0
 87 91  1  0
 87 86  1  0
 88 87  2  0
 91 90  1  0
 91 93  1  0
 93 94  1  0
 93 92  1  0
 95 98  1  1
 95 96  1  0
 97 95  1  0
M  ISO  4  15 100  23 100  57 101  58 101
M  END
>  <TORSDO>  (25) 
F 24

>  <SCORE>  (25) 
-7.300

>  <name>  (25) 
24

>  <ligand_id>  (25) 
24

>  <original_smiles>  (25) 
[H]c1c([H])c([H])c2c(c1[H])C([H])([H])C([H])([H])C([H])([H])C2([H])N([H])C(=O)C1([H])N(C(=O)C([H])(N([H])C(=O)C([H])(N([H])C([H])([H])[H])C([H])([H])[H])C(C([H])([H])[H])(C([H])([H])[H])C([H])([H])[H])C([H])([H])c2c([H])c(OC([H])([H])C([H])([H])C([H])([H])[N+]3([H])C([H])([H])C([H])([H])C([H])(C(=NC([H])([H])C([H])([H])C([H])([H])N(C(=O)N4C([H])([H])C([H])([H])C([H])([H])C([H])(n5nc(-c6c([H])c([H])c(Oc7c([H])c([H])c(F)c([H])c7F)c([H])c6[H])c(C(=O)N([H])[H])c5N([H])[H])C4([H])[H])C([H])(C([H])([H])[H])C([H])([H])[H])C([H])([H])[H])C([H])(C([H])([H])[H])C3([H])[H])c([H])c([H])c2C1([H])[H]

>  <smiles>  (25) 
[H]c1c([H])c([H])c2c(c1[H])C([H])([H])C([H])([H])C([H])([H])C2([H])N([H])C(=O)C1([H])N(C(=O)C([H])(N([H])C(=O)C([H])(N([H])C([H])([H])[H])C([H])([H])[H])C(C([H])([H])[H])(C([H])([H])[H])C([H])([H])[H])C([H])([H])c2c([H])c(OC([H])([H])C([H])([H])C([H])([H])[N+]3([H])C([H])([H])C([H])([H])C([H])(C(=NC([H])([H])C([H])([H])C([H])([H])N(C(=O)N4C([H])([H])C([H])([H])C([H])([H])C([H])(n5nc(-c6c([H])c([H])c(Oc7c([H])c([H])c(F)c([H])c7F)c([H])c6[H])c(C(=O)N([H])[H])c5N([H])[H])C4([H])[H])C([H])(C([H])([H])[H])C([H])([H])[H])C([H])([H])[H])C([H])(C([H])([H])[H])C3([H])[H])c([H])c([H])c2C1([H])[H]

$$$$
25:0:0
     RDKit          3D

 95103  0  0  1  0  0  0  0  0999 V2000
  -26.1740  -22.7200   20.6460 C   0  0  0  0  0  3  0  0  0  0  0  0
  -27.1330  -21.7760   21.0350 C   0  0  0  0  0  3  0  0  0  0  0  0
  -26.5650  -23.9480   20.0860 C   0  0  0  0  0  3  0  0  0  0  0  0
  -28.8960  -23.3010   20.3090 C   0  0  0  0  0  3  0  0  0  0  0  0
  -28.5080  -22.0420   20.8770 C   0  0  0  0  0  0  0  0  0  0  0  0
  -27.9270  -24.2750   19.8920 C   0  0  0  0  0  0  0  0  0  0  0  0
  -29.4890  -21.0130   21.4860 C   0  0  0  0  0  2  0  0  0  0  0  0
  -31.7820  -20.0710   21.1790 C   0  0  0  0  0  1  0  0  0  0  0  0
  -30.3570  -20.0680   20.5700 C   0  0  0  0  0  3  0  0  0  0  0  0
  -29.8130  -18.5680   20.3750 C   0  0  0  0  0  3  0  0  0  0  0  0
  -27.8040  -18.7450   18.9120 C   0  0  0  0  0  1  0  0  0  0  0  0
  -30.0330  -18.6780   17.8550 C   0  0  0  0  0  1  0  0  0  0  0  0
  -29.2110  -18.3050   19.0340 N   0  0  1  0  0  4  0  0  0  0  0  0
  -29.1700  -17.2980   19.0040 H   0  0  0  0  0  0  0  0  0  0  0  0
  -30.7830  -17.3780   20.7570 C   0  0  0  0  0  2  0  0  0  0  0  0
  -31.0490  -14.8930   20.3270 C   0  0  0  0  0  0  0  0  0  0  0  0
  -30.8320  -12.6120   19.3900 C   0  0  0  0  0  2  0  0  0  0  0  0
  -29.9230  -12.6580   18.1440 C   0  0  0  0  0  2  0  0  0  0  0  0
  -28.4390  -12.5330   18.5430 C   0  0  0  0  0  2  0  0  0  0  0  0
  -28.0500  -13.4830   19.7070 C   0  0  0  0  0  3  0  0  0  0  0  0
  -29.0770  -13.4190   20.8600 C   0  0  0  0  0  2  0  0  0  0  0  0
  -30.4000  -13.6960   20.2890 N   0  0  0  0  0  0  0  0  0  0  0  0
  -32.2230  -15.0210   19.9750 O   0  0  0  0  0  0  0  0  0  0  0  0
  -30.2800  -15.9840   20.5890 N   0  0  0  0  0  0  0  0  0  0  0  0
  -29.3170  -15.7990   20.8290 H   0  0  0  0  0  0  0  0  0  0  0  0
  -25.6680  -14.1390   20.4020 C   0  0  0  0  0  0  0  0  0  0  0  0
  -24.5820  -13.3920   20.7600 C   0  0  0  0  0  0  0  0  0  0  0  0
  -25.0140  -12.0290   20.7410 C   0  0  0  0  0  0  0  0  0  0  0  0
  -26.6960  -13.2350   20.1840 N   0  0  0  0  0  0  0  0  0  0  0  0
  -26.3060  -11.9630   20.4520 N   0  0  0  0  0  0  0  0  0  0  0  0
  -24.2590  -10.7830   20.9220 C   0  0  0  0  0  0  0  0  0  0  0  0
  -24.6370   -9.8250   21.8900 C   0  0  0  0  0  3  0  0  0  0  0  0
  -23.8890   -8.6420   22.0550 C   0  0  0  0  0  3  0  0  0  0  0  0
  -22.7470   -8.4050   21.2510 C   0  0  0  0  0  0  0  0  0  0  0  0
  -22.3890   -9.3530   20.2760 C   0  0  0  0  0  3  0  0  0  0  0  0
  -23.1370  -10.5280   20.1080 C   0  0  0  0  0  3  0  0  0  0  0  0
  -21.9690   -7.2760   21.3210 O   0  0  0  0  0  0  0  0  0  0  0  0
  -21.8140   -6.5830   22.4950 C   0  0  0  0  0  0  0  0  0  0  0  0
  -21.2830   -7.1910   23.6530 C   0  0  0  0  0  3  0  0  0  0  0  0
  -21.0770   -6.4240   24.8180 C   0  0  0  0  0  3  0  0  0  0  0  0
  -21.3940   -5.0530   24.8250 C   0  0  0  0  0  0  0  0  0  0  0  0
  -21.9180   -4.4450   23.6710 C   0  0  0  0  0  3  0  0  0  0  0  0
  -22.1260   -5.2100   22.5090 C   0  0  0  0  0  0  0  0  0  0  0  0
  -22.6120   -4.6140   21.3930 F   0  0  0  0  0  0  0  0  0  0  0  0
  -21.1920   -4.3160   25.9430 F   0  0  0  0  0  0  0  0  0  0  0  0
  -23.1950  -13.9000   21.0150 C   0  0  0  0  0  0  0  0  0  0  0  0
  -22.4510  -13.2300   21.8850 N   0  0  0  0  0  0  0  0  0  0  0  0
  -22.7810  -14.9260   20.4790 O   0  0  0  0  0  0  0  0  0  0  0  0
  -22.7980  -12.3910   22.3280 H   0  0  0  0  0  0  0  0  0  0  0  0
  -21.5250  -13.5630   22.1150 H   0  0  0  0  0  0  0  0  0  0  0  0
  -25.8640  -15.5040   20.2130 N   0  0  0  0  0  0  0  0  0  0  0  0
  -25.0590  -16.1190   20.1330 H   0  0  0  0  0  0  0  0  0  0  0  0
  -26.7000  -15.8840   19.7970 H   0  0  0  0  0  0  0  0  0  0  0  0
  -28.3190  -25.5660   19.1040 C   0  0  0  0  0  2  0  0  0  0  0  0
  -28.2500  -26.8820   19.7380 O   0  0  0  0  0  0  0  0  0  0  0  0
  -24.5700  -31.9650   23.1620 C   0  0  0  0  0  0  0  0  0  0  0  0
  -27.0940  -27.6570   19.7410 C   0  0  0  0  0  0  0  0  0  0  0  0
  -23.3080  -30.6390   21.5030 C   0  0  0  0  0  3  0  0  0  0  0  0
  -24.7070  -29.1960   19.9260 C   0  0  0  0  0  0  0  0  0  0  0  0
  -25.8290  -31.0070   21.2310 C   0  0  0  0  0  2  0  0  0  0  0  0
  -25.8860  -29.6680   20.5160 C   0  0  0  0  0  0  0  0  0  0  0  0
  -27.0740  -28.8940   20.4380 C   0  0  0  0  0  3  0  0  0  0  0  0
  -25.9150  -27.2640   19.0760 C   0  0  0  0  0  3  0  0  0  0  0  0
  -24.7200  -27.9950   19.2020 C   0  0  0  0  0  3  0  0  0  0  0  0
  -23.4610  -30.0420   20.0770 C   0  0  0  0  0  2  0  0  0  0  0  0
  -24.5890  -31.2190   22.0210 N   0  0  0  0  0  0  0  0  0  0  0  0
  -23.5110  -32.2030   23.7580 O   0  0  0  0  0  0  0  0  0  0  0  0
  -22.7080  -29.5610   22.4330 C   0  0  0  0  0  0  0  0  0  0  0  0
  -21.3860  -29.3460   22.3290 N   0  0  0  0  0  0  0  0  0  0  0  0
  -23.4270  -28.9270   23.2090 O   0  0  0  0  0  0  0  0  0  0  0  0
  -20.8680  -29.9100   21.6690 H   0  0  0  0  0  0  0  0  0  0  0  0
  -18.0690  -28.0040   22.8180 C   0  0  0  0  0  0  0  0  0  0  0  0
  -20.6150  -28.3550   23.0820 C   0  0  0  0  0  3  0  0  0  0  0  0
  -20.7690  -26.9450   22.4680 C   0  0  0  0  0  2  0  0  0  0  0  0
  -19.6760  -26.6090   21.4480 C   0  0  0  0  0  2  0  0  0  0  0  0
  -18.2910  -26.6850   22.0980 C   0  0  0  0  0  2  0  0  0  0  0  0
  -19.1590  -28.7970   23.2650 C   0  0  0  0  0  0  0  0  0  0  0  0
  -18.8970  -30.0330   23.8950 C   0  0  0  0  0  3  0  0  0  0  0  0
  -17.5760  -30.4780   24.0870 C   0  0  0  0  0  3  0  0  0  0  0  0
  -16.4980  -29.6810   23.6570 C   0  0  0  0  0  3  0  0  0  0  0  0
  -16.7460  -28.4460   23.0310 C   0  0  0  0  0  3  0  0  0  0  0  0
  -25.8770  -32.5780   23.7550 C   0  0  0  0  0  3  0  0  0  0  0  0
  -25.5830  -33.9690   24.1220 N   0  0  0  0  0  0  0  0  0  0  0  0
  -25.9110  -35.0370   23.3840 C   0  0  0  0  0  0  0  0  0  0  0  0
  -26.5660  -34.9560   22.3400 O   0  0  0  0  0  0  0  0  0  0  0  0
  -24.9950  -34.1070   24.9310 H   0  0  0  0  0  0  0  0  0  0  0  0
  -24.1970  -36.8540   23.0880 C   0  0  0  0  0  1  0  0  0  0  0  0
  -25.4410  -36.4160   23.8790 C   0  0  0  0  0  3  0  0  0  0  0  0
  -27.5870  -37.2610   24.7190 C   0  0  0  0  0  1  0  0  0  0  0  0
  -26.4820  -37.4640   23.7850 N   0  0  0  0  0  0  0  0  0  0  0  0
  -26.0860  -38.3840   23.9580 H   0  0  0  0  0  0  0  0  0  0  0  0
  -26.4280  -31.7790   24.9990 C   0  0  1  0  0  0  0  0  0  0  0  0
  -25.3660  -31.5230   26.0930 C   0  0  0  0  0  1  0  0  0  0  0  0
  -26.9920  -30.4070   24.5640 C   0  0  0  0  0  1  0  0  0  0  0  0
  -27.6030  -32.5540   25.6390 C   0  0  0  0  0  1  0  0  0  0  0  0
  1  2  1  0
  3  1  2  0
  4  5  1  0
  5  2  2  0
  5  7  1  0
  6  3  1  0
  6  4  2  0
  9  8  1  0
  9  7  1  0
 10  9  1  0
 10 15  1  0
 11 13  1  0
 12 13  1  0
 13 10  1  0
 13 14  1  6
 16 24  1  0
 17 22  1  0
 18 19  1  0
 18 17  1  0
 20 19  1  0
 20 29  1  0
 20 21  1  0
 22 16  1  0
 22 21  1  0
 23 16  2  0
 24 15  1  0
 24 25  1  0
 26 27  2  0
 27 46  1  0
 28 27  1  0
 28 31  1  0
 29 26  1  0
 29 30  1  0
 30 28  2  0
 31 32  1  0
 32 33  2  0
 34 37  1  0
 34 33  1  0
 35 34  2  0
 36 35  1  0
 36 31  2  0
 37 38  1  0
 38 43  2  0
 38 39  1  0
 39 40  2  0
 40 41  1  0
 41 45  1  0
 42 41  2  0
 43 42  1  0
 44 43  1  0
 46 47  1  0
 47 50  1  0
 47 49  1  0
 48 46  2  0
 51 26  1  0
 52 51  1  0
 53 51  1  0
 54 55  1  0
 54  6  1  0
 55 57  1  0
 56 67  2  0
 57 62  1  0
 58 66  1  0
 58 68  1  0
 59 65  1  0
 59 61  1  0
 60 66  1  0
 61 60  1  0
 62 61  2  0
 63 64  1  0
 63 57  2  0
 64 59  2  0
 65 58  1  0
 66 56  1  0
 68 70  2  0
 69 68  1  0
 71 69  1  0
 72 81  2  0
 72 77  1  0
 73 69  1  0
 73 77  1  0
 74 73  1  0
 75 76  1  0
 75 74  1  0
 76 72  1  0
 77 78  2  0
 78 79  1  0
 80 79  2  0
 81 80  1  0
 82 56  1  0
 82 83  1  0
 82 92  1  0
 83 86  1  0
 84 88  1  0
 84 83  1  0
 85 84  2  0
 88 87  1  0
 90 88  1  0
 90 91  1  0
 90 89  1  0
 92 95  1  1
 92 93  1  0
 94 92  1  0
M  ISO  4  16 100  24 100  54 101  55 101
M  END
>  <TORSDO>  (26) 
F 22

>  <SCORE>  (26) 
-12.410

>  <name>  (26) 
25

>  <ligand_id>  (26) 
25

>  <original_smiles>  (26) 
[H]c1c([H])c([H])c2c(c1[H])C([H])([H])C([H])([H])C([H])([H])C2([H])N([H])C(=O)C1([H])N(C(=O)C([H])(N([H])C(=O)C([H])(N([H])C([H])([H])[H])C([H])([H])[H])C(C([H])([H])[H])(C([H])([H])[H])C([H])([H])[H])C([H])([H])c2c([H])c(OC([H])([H])c3c([H])c([H])c([H])c(C([H])([H])C([H])(C([H])([H])[H])C([H])(C([H])([H])N([H])C(=O)N4C([H])([H])C([H])([H])C([H])([H])C([H])(n5nc(-c6c([H])c([H])c(Oc7c([H])c([H])c(F)c([H])c7F)c([H])c6[H])c(C(=O)N([H])[H])c5N([H])[H])C4([H])[H])[N+]([H])(C([H])([H])[H])C([H])([H])[H])c3[H])c([H])c([H])c2C1([H])[H]

>  <smiles>  (26) 
[H]c1c([H])c([H])c2c(c1[H])C([H])([H])C([H])([H])C([H])([H])C2([H])N([H])C(=O)C1([H])N(C(=O)C([H])(N([H])C(=O)C([H])(N([H])C([H])([H])[H])C([H])([H])[H])C(C([H])([H])[H])(C([H])([H])[H])C([H])([H])[H])C([H])([H])c2c([H])c(OC([H])([H])c3c([H])c([H])c([H])c(C([H])([H])C([H])(C([H])([H])[H])C([H])(C([H])([H])N([H])C(=O)N4C([H])([H])C([H])([H])C([H])([H])C([H])(n5nc(-c6c([H])c([H])c(Oc7c([H])c([H])c(F)c([H])c7F)c([H])c6[H])c(C(=O)N([H])[H])c5N([H])[H])C4([H])[H])[N+]([H])(C([H])([H])[H])C([H])([H])[H])c3[H])c([H])c([H])c2C1([H])[H]

$$$$
26:0:0
     RDKit          3D

 95102  0  0  1  0  0  0  0  0999 V2000
  -29.1320  -23.1530   20.8260 C   0  0  0  0  0  0  0  0  0  0  0  0
  -28.9130  -21.8880   21.2640 N   0  0  0  0  0  0  0  0  0  0  0  0
  -30.0420  -23.4290   20.0460 O   0  0  0  0  0  0  0  0  0  0  0  0
  -28.1610  -21.7730   21.9300 H   0  0  0  0  0  0  0  0  0  0  0  0
  -29.7100  -20.6570   21.0270 C   0  0  0  0  0  2  0  0  0  0  0  0
  -28.8120  -19.4130   20.7150 C   0  0  0  0  0  2  0  0  0  0  0  0
  -29.2630  -17.9600   21.1400 C   0  0  0  0  0  2  0  0  0  0  0  0
  -29.6560  -17.1280   18.7550 C   0  0  0  0  0  1  0  0  0  0  0  0
  -31.6070  -17.6370   20.2670 C   0  0  0  0  0  1  0  0  0  0  0  0
  -30.1720  -17.0730   20.2100 C   0  0  1  0  0  0  0  0  0  0  0  0
  -30.8500  -14.5570   20.2880 C   0  0  0  0  0  0  0  0  0  0  0  0
  -30.5570  -12.3500   19.2240 C   0  0  0  0  0  2  0  0  0  0  0  0
  -29.6160  -12.5340   18.0150 C   0  0  0  0  0  2  0  0  0  0  0  0
  -28.1400  -12.4120   18.4450 C   0  0  0  0  0  2  0  0  0  0  0  0
  -27.8110  -13.2610   19.7030 C   0  0  0  0  0  3  0  0  0  0  0  0
  -28.8730  -13.0690   20.8100 C   0  0  0  0  0  2  0  0  0  0  0  0
  -30.1920  -13.3650   20.2290 N   0  0  0  0  0  0  0  0  0  0  0  0
  -31.9930  -14.6830   19.8430 O   0  0  0  0  0  0  0  0  0  0  0  0
  -30.0940  -15.6350   20.6420 N   0  0  0  0  0  0  0  0  0  0  0  0
  -29.2100  -15.3690   21.0480 H   0  0  0  0  0  0  0  0  0  0  0  0
  -25.4240  -13.8790   20.4300 C   0  0  0  0  0  0  0  0  0  0  0  0
  -24.3540  -13.1150   20.8110 C   0  0  0  0  0  0  0  0  0  0  0  0
  -24.8070  -11.7610   20.7830 C   0  0  0  0  0  0  0  0  0  0  0  0
  -26.4610  -12.9910   20.1940 N   0  0  0  0  0  0  0  0  0  0  0  0
  -26.0950  -11.7110   20.4670 N   0  0  0  0  0  0  0  0  0  0  0  0
  -24.0760  -10.5010   20.9820 C   0  0  0  0  0  0  0  0  0  0  0  0
  -24.4970   -9.5460   21.9330 C   0  0  0  0  0  3  0  0  0  0  0  0
  -23.7680   -8.3530   22.1200 C   0  0  0  0  0  3  0  0  0  0  0  0
  -22.6030   -8.1060   21.3540 C   0  0  0  0  0  0  0  0  0  0  0  0
  -22.2000   -9.0500   20.3940 C   0  0  0  0  0  3  0  0  0  0  0  0
  -22.9310  -10.2360   20.2060 C   0  0  0  0  0  3  0  0  0  0  0  0
  -21.8450   -6.9640   21.4500 O   0  0  0  0  0  0  0  0  0  0  0  0
  -21.7650   -6.2480   22.6170 C   0  0  0  0  0  0  0  0  0  0  0  0
  -21.3060   -6.8310   23.8190 C   0  0  0  0  0  3  0  0  0  0  0  0
  -21.1720   -6.0420   24.9790 C   0  0  0  0  0  3  0  0  0  0  0  0
  -21.4900   -4.6710   24.9390 C   0  0  0  0  0  0  0  0  0  0  0  0
  -21.9430   -4.0860   23.7420 C   0  0  0  0  0  3  0  0  0  0  0  0
  -22.0770   -4.8730   22.5840 C   0  0  0  0  0  0  0  0  0  0  0  0
  -22.4930   -4.3020   21.4280 F   0  0  0  0  0  0  0  0  0  0  0  0
  -21.3550   -3.9100   26.0500 F   0  0  0  0  0  0  0  0  0  0  0  0
  -22.9620  -13.6020   21.0910 C   0  0  0  0  0  0  0  0  0  0  0  0
  -22.2350  -12.9150   21.9660 N   0  0  0  0  0  0  0  0  0  0  0  0
  -22.5270  -14.6280   20.5700 O   0  0  0  0  0  0  0  0  0  0  0  0
  -22.5900  -12.0790   22.4050 H   0  0  0  0  0  0  0  0  0  0  0  0
  -21.3040  -13.2320   22.1980 H   0  0  0  0  0  0  0  0  0  0  0  0
  -25.5980  -15.2480   20.2400 N   0  0  0  0  0  0  0  0  0  0  0  0
  -24.8360  -15.9110   20.3310 H   0  0  0  0  0  0  0  0  0  0  0  0
  -26.4410  -15.6680   19.8700 H   0  0  0  0  0  0  0  0  0  0  0  0
  -28.1360  -24.2500   21.3120 C   0  0  0  0  0  3  0  0  0  0  0  0
  -26.8140  -24.0330   20.6980 N   0  0  0  0  0  4  0  0  0  0  0  0
  -26.8860  -24.1590   19.7020 H   0  0  0  0  0  0  0  0  0  0  0  0
  -26.1290  -24.6640   21.0730 H   0  0  0  0  0  0  0  0  0  0  0  0
  -26.5030  -23.0910   20.8630 H   0  0  0  0  0  0  0  0  0  0  0  0
  -28.5850  -25.7670   21.2810 C   0  0  0  0  0  2  0  0  0  0  0  0
  -28.3000  -26.5790   20.1120 O   0  0  0  0  0  0  0  0  0  0  0  0
  -24.5740  -31.8830   23.2410 C   0  0  0  0  0  0  0  0  0  0  0  0
  -27.1740  -27.3860   20.1640 C   0  0  0  0  0  0  0  0  0  0  0  0
  -23.3550  -30.4860   21.6050 C   0  0  0  0  0  3  0  0  0  0  0  0
  -24.7980  -28.9360   20.1780 C   0  0  0  0  0  0  0  0  0  0  0  0
  -25.8880  -30.8170   21.4070 C   0  0  0  0  0  2  0  0  0  0  0  0
  -25.9620  -29.4400   20.7760 C   0  0  0  0  0  0  0  0  0  0  0  0
  -27.1540  -28.6670   20.7750 C   0  0  0  0  0  3  0  0  0  0  0  0
  -26.0040  -26.9290   19.5270 C   0  0  0  0  0  3  0  0  0  0  0  0
  -24.8150  -27.6790   19.5530 C   0  0  0  0  0  3  0  0  0  0  0  0
  -23.5610  -29.8060   20.2250 C   0  0  0  0  0  2  0  0  0  0  0  0
  -24.6240  -31.0790   22.1410 N   0  0  0  0  0  0  0  0  0  0  0  0
  -23.4960  -32.1620   23.7860 O   0  0  0  0  0  0  0  0  0  0  0  0
  -22.6990  -29.4680   22.5670 C   0  0  0  0  0  0  0  0  0  0  0  0
  -21.3730  -29.2920   22.4420 N   0  0  0  0  0  0  0  0  0  0  0  0
  -23.3810  -28.8430   23.3830 O   0  0  0  0  0  0  0  0  0  0  0  0
  -20.8830  -29.8460   21.7530 H   0  0  0  0  0  0  0  0  0  0  0  0
  -17.9970  -28.1010   22.9490 C   0  0  0  0  0  0  0  0  0  0  0  0
  -20.5540  -28.3580   23.2150 C   0  0  0  0  0  3  0  0  0  0  0  0
  -20.6540  -26.9250   22.6430 C   0  0  0  0  0  2  0  0  0  0  0  0
  -19.5480  -26.5990   21.6330 C   0  0  0  0  0  2  0  0  0  0  0  0
  -18.1690  -26.7480   22.2800 C   0  0  0  0  0  2  0  0  0  0  0  0
  -19.1170  -28.8640   23.3740 C   0  0  0  0  0  0  0  0  0  0  0  0
  -18.9000  -30.1300   23.9600 C   0  0  0  0  0  3  0  0  0  0  0  0
  -17.5960  -30.6320   24.1260 C   0  0  0  0  0  3  0  0  0  0  0  0
  -16.4900  -29.8660   23.7160 C   0  0  0  0  0  3  0  0  0  0  0  0
  -16.6920  -28.6030   23.1320 C   0  0  0  0  0  3  0  0  0  0  0  0
  -25.8660  -32.5080   23.8550 C   0  0  0  0  0  3  0  0  0  0  0  0
  -26.3860  -31.7360   25.1290 C   0  0  1  0  0  0  0  0  0  0  0  0
  -25.2980  -31.5030   26.2010 C   0  0  0  0  0  1  0  0  0  0  0  0
  -26.9610  -30.3560   24.7360 C   0  0  0  0  0  1  0  0  0  0  0  0
  -27.5460  -32.5240   25.7840 C   0  0  0  0  0  1  0  0  0  0  0  0
  -25.5660  -33.9080   24.1820 N   0  0  0  0  0  0  0  0  0  0  0  0
  -25.9050  -34.9570   23.4210 C   0  0  0  0  0  0  0  0  0  0  0  0
  -26.5760  -34.8480   22.3900 O   0  0  0  0  0  0  0  0  0  0  0  0
  -24.9740  -34.0680   24.9850 H   0  0  0  0  0  0  0  0  0  0  0  0
  -24.1950  -36.7640   23.0530 C   0  0  0  0  0  1  0  0  0  0  0  0
  -25.4260  -36.3500   23.8750 C   0  0  0  0  0  3  0  0  0  0  0  0
  -27.5610  -37.2160   24.7230 C   0  0  0  0  0  1  0  0  0  0  0  0
  -26.4680  -37.3940   23.7700 N   0  0  0  0  0  0  0  0  0  0  0  0
  -26.0690  -38.3180   23.9120 H   0  0  0  0  0  0  0  0  0  0  0  0
  1  2  1  0
  1 49  1  0
  2  4  1  0
  3  1  2  0
  5  2  1  0
  6  5  1  0
  6  7  1  0
 10  8  1  6
 10  9  1  0
 10 19  1  0
 10  7  1  0
 11 19  1  0
 12 17  1  0
 13 14  1  0
 13 12  1  0
 15 14  1  0
 15 24  1  0
 15 16  1  0
 17 11  1  0
 17 16  1  0
 18 11  2  0
 19 20  1  0
 21 22  2  0
 22 41  1  0
 23 22  1  0
 23 26  1  0
 24 21  1  0
 24 25  1  0
 25 23  2  0
 26 27  1  0
 27 28  2  0
 29 32  1  0
 29 28  1  0
 30 29  2  0
 31 30  1  0
 31 26  2  0
 32 33  1  0
 33 34  1  0
 34 35  2  0
 36 35  1  0
 36 40  1  0
 37 36  2  0
 38 33  2  0
 38 37  1  0
 39 38  1  0
 41 42  1  0
 42 45  1  0
 42 44  1  0
 43 41  2  0
 46 47  1  0
 46 21  1  0
 48 46  1  0
 49 54  1  0
 50 53  1  0
 50 52  1  0
 50 49  1  0
 51 50  1  0
 55 57  1  0
 55 54  1  0
 56 67  2  0
 57 62  1  0
 58 66  1  0
 58 68  1  0
 59 65  1  0
 59 61  1  0
 60 66  1  0
 61 60  1  0
 62 61  2  0
 63 64  1  0
 63 57  2  0
 64 59  2  0
 65 58  1  0
 66 56  1  0
 68 70  2  0
 69 68  1  0
 71 69  1  0
 72 81  2  0
 72 77  1  0
 73 69  1  0
 73 77  1  0
 74 73  1  0
 75 76  1  0
 75 74  1  0
 76 72  1  0
 77 78  2  0
 78 79  1  0
 80 79  2  0
 81 80  1  0
 82 56  1  0
 82 87  1  0
 82 83  1  0
 83 86  1  1
 83 84  1  0
 85 83  1  0
 87 90  1  0
 88 92  1  0
 88 87  1  0
 89 88  2  0
 92 91  1  0
 94 92  1  0
 94 95  1  0
 94 93  1  0
M  ISO  4  11 100  19 100  54 101  55 101
M  END
>  <TORSDO>  (27) 
F 23

>  <SCORE>  (27) 
-12.762

>  <name>  (27) 
26

>  <ligand_id>  (27) 
26

>  <original_smiles>  (27) 
[H]c1c([H])c([H])c2c(c1[H])C([H])([H])C([H])([H])C([H])([H])C2([H])N([H])C(=O)C1([H])N(C(=O)C([H])(N([H])C(=O)C([H])(N([H])C([H])([H])[H])C([H])([H])[H])C(C([H])([H])[H])(C([H])([H])[H])C([H])([H])[H])C([H])([H])c2c([H])c(OC([H])([H])C([H])(C(=O)N([H])C([H])([H])C([H])([H])C([H])([H])C(N([H])C(=O)N3C([H])([H])C([H])([H])C([H])([H])C([H])(n4nc(-c5c([H])c([H])c(Oc6c([H])c([H])c(F)c([H])c6F)c([H])c5[H])c(C(=O)N([H])[H])c4N([H])[H])C3([H])[H])(C([H])([H])[H])C([H])([H])[H])[N+]([H])([H])[H])c([H])c([H])c2C1([H])[H]

>  <smiles>  (27) 
[H]c1c([H])c([H])c2c(c1[H])C([H])([H])C([H])([H])C([H])([H])C2([H])N([H])C(=O)C1([H])N(C(=O)C([H])(N([H])C(=O)C([H])(N([H])C([H])([H])[H])C([H])([H])[H])C(C([H])([H])[H])(C([H])([H])[H])C([H])([H])[H])C([H])([H])c2c([H])c(OC([H])([H])C([H])(C(=O)N([H])C([H])([H])C([H])([H])C([H])([H])C(N([H])C(=O)N3C([H])([H])C([H])([H])C([H])([H])C([H])(n4nc(-c5c([H])c([H])c(Oc6c([H])c([H])c(F)c([H])c6F)c([H])c5[H])c(C(=O)N([H])[H])c4N([H])[H])C3([H])[H])(C([H])([H])[H])C([H])([H])[H])[N+]([H])([H])[H])c([H])c([H])c2C1([H])[H]

$$$$
27:0:0
     RDKit          3D

 98107  0  0  1  0  0  0  0  0999 V2000
  -25.9780  -23.0980   21.0750 C   0  0  0  0  0  2  0  0  0  0  0  0
  -27.3400  -23.7300   21.4140 C   0  0  0  0  0  2  0  0  0  0  0  0
  -25.8370  -22.6570   19.6120 C   0  0  0  0  0  2  0  0  0  0  0  0
  -28.3350  -23.7440   20.2420 C   0  0  0  0  0  3  0  0  0  0  0  0
  -26.9900  -21.7580   19.1020 C   0  0  0  0  0  3  0  0  0  0  0  0
  -28.4210  -22.2520   19.5470 C   0  0  0  0  0  3  0  0  0  0  0  0
  -30.8920  -19.9400   21.1820 C   0  0  0  0  0  3  0  0  0  0  0  0
  -29.0930  -19.6400   19.9930 C   0  0  0  0  0  3  0  0  0  0  0  0
  -30.1530  -18.8940   20.5370 C   0  0  0  0  0  0  0  0  0  0  0  0
  -30.4420  -21.1880   20.8530 C   0  0  0  0  0  0  0  0  0  0  0  0
  -31.1780  -22.4670   21.1000 C   0  0  0  0  0  1  0  0  0  0  0  0
  -29.2360  -21.0750   20.1690 N   0  0  0  0  0  0  0  0  0  0  0  0
  -31.9020  -17.2740   21.4490 C   0  0  0  0  0  1  0  0  0  0  0  0
  -31.4760  -17.5300   18.9780 C   0  0  0  0  0  1  0  0  0  0  0  0
  -30.7820  -17.3970   20.3650 C   0  0  2  0  0  0  0  0  0  0  0  0
  -30.5930  -14.7810   20.1490 C   0  0  0  0  0  0  0  0  0  0  0  0
  -30.2480  -12.5190   19.1610 C   0  0  0  0  0  2  0  0  0  0  0  0
  -29.2780  -12.5780   17.9660 C   0  0  0  0  0  2  0  0  0  0  0  0
  -27.8380  -12.3850   18.4700 C   0  0  0  0  0  2  0  0  0  0  0  0
  -27.4980  -13.2940   19.6820 C   0  0  0  0  0  3  0  0  0  0  0  0
  -28.6040  -13.2770   20.7600 C   0  0  0  0  0  2  0  0  0  0  0  0
  -29.8630  -13.6140   20.0910 N   0  0  0  0  0  0  0  0  0  0  0  0
  -31.7690  -14.7120   19.8010 O   0  0  0  0  0  0  0  0  0  0  0  0
  -30.0220  -16.0410   20.3960 N   0  0  0  0  0  0  0  0  0  0  0  0
  -29.0390  -16.0570   20.6230 H   0  0  0  0  0  0  0  0  0  0  0  0
  -25.1520  -13.8490   20.5470 C   0  0  0  0  0  0  0  0  0  0  0  0
  -24.1040  -13.0590   20.9360 C   0  0  0  0  0  0  0  0  0  0  0  0
  -24.5660  -11.7110   20.8380 C   0  0  0  0  0  0  0  0  0  0  0  0
  -26.1840  -12.9800   20.2320 N   0  0  0  0  0  0  0  0  0  0  0  0
  -25.8420  -11.6880   20.4700 N   0  0  0  0  0  0  0  0  0  0  0  0
  -23.8470  -10.4420   21.0150 C   0  0  0  0  0  0  0  0  0  0  0  0
  -24.2780   -9.4730   21.9480 C   0  0  0  0  0  3  0  0  0  0  0  0
  -23.5590   -8.2700   22.1160 C   0  0  0  0  0  3  0  0  0  0  0  0
  -22.3940   -8.0270   21.3530 C   0  0  0  0  0  0  0  0  0  0  0  0
  -21.9800   -8.9840   20.4100 C   0  0  0  0  0  3  0  0  0  0  0  0
  -22.6980  -10.1790   20.2400 C   0  0  0  0  0  3  0  0  0  0  0  0
  -21.6470   -6.8770   21.4270 O   0  0  0  0  0  0  0  0  0  0  0  0
  -21.5660   -6.1460   22.5870 C   0  0  0  0  0  0  0  0  0  0  0  0
  -21.0170   -6.6850   23.7690 C   0  0  0  0  0  3  0  0  0  0  0  0
  -20.8900   -5.8780   24.9180 C   0  0  0  0  0  3  0  0  0  0  0  0
  -21.3030   -4.5320   24.8830 C   0  0  0  0  0  0  0  0  0  0  0  0
  -21.8430   -3.9930   23.7030 C   0  0  0  0  0  3  0  0  0  0  0  0
  -21.9720   -4.7970   22.5580 C   0  0  0  0  0  0  0  0  0  0  0  0
  -22.4750   -4.2670   21.4150 F   0  0  0  0  0  0  0  0  0  0  0  0
  -21.1710   -3.7540   25.9820 F   0  0  0  0  0  0  0  0  0  0  0  0
  -22.7220  -13.5230   21.2840 C   0  0  0  0  0  0  0  0  0  0  0  0
  -22.0290  -12.7920   22.1490 N   0  0  0  0  0  0  0  0  0  0  0  0
  -22.2680  -14.5700   20.8240 O   0  0  0  0  0  0  0  0  0  0  0  0
  -22.4180  -11.9460   22.5430 H   0  0  0  0  0  0  0  0  0  0  0  0
  -21.1010  -13.0820   22.4190 H   0  0  0  0  0  0  0  0  0  0  0  0
  -25.3140  -15.2250   20.4080 N   0  0  0  0  0  0  0  0  0  0  0  0
  -24.5500  -15.8760   20.5610 H   0  0  0  0  0  0  0  0  0  0  0  0
  -26.1450  -15.6710   20.0430 H   0  0  0  0  0  0  0  0  0  0  0  0
  -27.9920  -20.6840   16.9340 C   0  0  0  0  0  1  0  0  0  0  0  0
  -25.5160  -20.8540   17.2050 C   0  0  0  0  0  1  0  0  0  0  0  0
  -26.8570  -21.5200   17.5630 C   0  0  0  0  0  3  0  0  0  0  0  0
  -28.0990  -25.0470   19.2990 C   0  0  0  0  0  2  0  0  0  0  0  0
  -28.0900  -26.4530   19.8350 O   0  0  0  0  0  0  0  0  0  0  0  0
  -24.4940  -31.8650   23.0660 C   0  0  0  0  0  0  0  0  0  0  0  0
  -26.9630  -27.3040   19.8350 C   0  0  0  0  0  0  0  0  0  0  0  0
  -23.2300  -30.5010   21.4440 C   0  0  0  0  0  3  0  0  0  0  0  0
  -24.6220  -28.9700   19.9380 C   0  0  0  0  0  0  0  0  0  0  0  0
  -25.7690  -30.7970   21.1840 C   0  0  0  0  0  2  0  0  0  0  0  0
  -25.8160  -29.4280   20.5060 C   0  0  0  0  0  0  0  0  0  0  0  0
  -26.9860  -28.6060   20.4430 C   0  0  0  0  0  3  0  0  0  0  0  0
  -25.7330  -26.9030   19.2650 C   0  0  0  0  0  3  0  0  0  0  0  0
  -24.5860  -27.7160   19.3080 C   0  0  0  0  0  3  0  0  0  0  0  0
  -23.3960  -29.8520   20.0450 C   0  0  0  0  0  2  0  0  0  0  0  0
  -24.5210  -31.0690   21.9540 N   0  0  0  0  0  0  0  0  0  0  0  0
  -23.4310  -32.1430   23.6370 O   0  0  0  0  0  0  0  0  0  0  0  0
  -22.5900  -29.4720   22.4080 C   0  0  0  0  0  0  0  0  0  0  0  0
  -21.2610  -29.2970   22.3120 N   0  0  0  0  0  0  0  0  0  0  0  0
  -23.2880  -28.8390   23.2040 O   0  0  0  0  0  0  0  0  0  0  0  0
  -20.7590  -29.8670   21.6460 H   0  0  0  0  0  0  0  0  0  0  0  0
  -17.8930  -28.0930   22.8580 C   0  0  0  0  0  0  0  0  0  0  0  0
  -20.4560  -28.3490   23.0850 C   0  0  0  0  0  3  0  0  0  0  0  0
  -20.5460  -26.9240   22.4900 C   0  0  0  0  0  2  0  0  0  0  0  0
  -19.4230  -26.6150   21.4950 C   0  0  0  0  0  2  0  0  0  0  0  0
  -18.0550  -26.7510   22.1670 C   0  0  0  0  0  2  0  0  0  0  0  0
  -19.0190  -28.8530   23.2740 C   0  0  0  0  0  0  0  0  0  0  0  0
  -18.8070  -30.1110   23.8800 C   0  0  0  0  0  3  0  0  0  0  0  0
  -17.5040  -30.6060   24.0780 C   0  0  0  0  0  3  0  0  0  0  0  0
  -16.3940  -29.8430   23.6770 C   0  0  0  0  0  3  0  0  0  0  0  0
  -16.5900  -28.5880   23.0720 C   0  0  0  0  0  3  0  0  0  0  0  0
  -25.8000  -32.4740   23.6640 C   0  0  0  0  0  3  0  0  0  0  0  0
  -26.3610  -31.6560   24.8920 C   0  0  1  0  0  0  0  0  0  0  0  0
  -25.3090  -31.3740   25.9900 C   0  0  0  0  0  1  0  0  0  0  0  0
  -26.9290  -30.2950   24.4260 C   0  0  0  0  0  1  0  0  0  0  0  0
  -27.5400  -32.4230   25.5370 C   0  0  0  0  0  1  0  0  0  0  0  0
  -25.5030  -33.8600   24.0570 N   0  0  0  0  0  0  0  0  0  0  0  0
  -25.8240  -34.9400   23.3300 C   0  0  0  0  0  0  0  0  0  0  0  0
  -26.4670  -34.8740   22.2800 O   0  0  0  0  0  0  0  0  0  0  0  0
  -24.9350  -33.9830   24.8800 H   0  0  0  0  0  0  0  0  0  0  0  0
  -24.1230  -36.7720   23.0540 C   0  0  0  0  0  1  0  0  0  0  0  0
  -25.3530  -36.3120   23.8520 C   0  0  0  0  0  3  0  0  0  0  0  0
  -27.4880  -37.1340   24.7470 C   0  0  0  0  0  1  0  0  0  0  0  0
  -26.4030  -37.3530   23.7940 N   0  0  0  0  0  0  0  0  0  0  0  0
  -26.0070  -38.2720   23.9690 H   0  0  0  0  0  0  0  0  0  0  0  0
  1  2  1  0
  3  1  1  0
  4 57  1  0
  4  2  1  0
  5 56  1  0
  5  6  1  0
  5  3  1  0
  6 12  1  0
  6  4  1  0
  8 12  1  0
  8  9  2  0
  9  7  1  0
 10 11  1  0
 10  7  2  0
 12 10  1  0
 15 14  1  6
 15 24  1  0
 15  9  1  0
 15 13  1  0
 16 24  1  0
 17 22  1  0
 18 19  1  0
 18 17  1  0
 20 19  1  0
 20 29  1  0
 20 21  1  0
 22 16  1  0
 22 21  1  0
 23 16  2  0
 24 25  1  0
 26 27  2  0
 27 46  1  0
 28 27  1  0
 28 31  1  0
 29 30  1  0
 29 26  1  0
 30 28  2  0
 31 32  1  0
 32 33  2  0
 34 37  1  0
 34 33  1  0
 35 34  2  0
 36 35  1  0
 36 31  2  0
 37 38  1  0
 38 39  1  0
 39 40  2  0
 41 40  1  0
 41 45  1  0
 42 41  2  0
 43 38  2  0
 43 42  1  0
 44 43  1  0
 46 47  1  0
 47 50  1  0
 47 49  1  0
 48 46  2  0
 51 26  1  0
 51 52  1  0
 53 51  1  0
 54 56  1  0
 55 56  1  0
 57 58  1  0
 59 70  2  0
 60 58  1  0
 60 65  1  0
 61 69  1  0
 61 71  1  0
 62 68  1  0
 62 64  1  0
 63 69  1  0
 64 63  1  0
 65 64  2  0
 66 67  1  0
 66 60  2  0
 67 62  2  0
 68 61  1  0
 69 59  1  0
 71 73  2  0
 72 71  1  0
 74 72  1  0
 75 84  2  0
 75 80  1  0
 76 72  1  0
 76 80  1  0
 77 76  1  0
 78 79  1  0
 78 77  1  0
 79 75  1  0
 80 81  2  0
 81 82  1  0
 83 82  2  0
 84 83  1  0
 85 59  1  0
 85 90  1  0
 85 86  1  0
 86 89  1  1
 86 87  1  0
 88 86  1  0
 90 93  1  0
 91 95  1  0
 91 90  1  0
 92 91  2  0
 95 94  1  0
 97 95  1  0
 97 98  1  0
 97 96  1  0
M  ISO  4  16 100  24 100  57 101  58 101
M  END
>  <TORSDO>  (28) 
F 20

>  <SCORE>  (28) 
-13.432

>  <name>  (28) 
27

>  <ligand_id>  (28) 
27

>  <original_smiles>  (28) 
[H]c1c([H])c([H])c2c(c1[H])C([H])([H])C([H])([H])C([H])([H])C2([H])N([H])C(=O)C1([H])N(C(=O)C([H])(N([H])C(=O)C([H])(N([H])C([H])([H])[H])C([H])([H])[H])C(C([H])([H])[H])(C([H])([H])[H])C([H])([H])[H])C([H])([H])c2c([H])c(OC([H])([H])C3([H])C([H])([H])C([H])([H])C([H])([H])C([H])(C([H])(C([H])([H])[H])C([H])([H])[H])C3([H])n3c([H])c(C(N([H])C(=O)N4C([H])([H])C([H])([H])C([H])([H])C([H])(n5nc(-c6c([H])c([H])c(Oc7c([H])c([H])c(F)c([H])c7F)c([H])c6[H])c(C(=O)N([H])[H])c5N([H])[H])C4([H])[H])(C([H])([H])[H])C([H])([H])[H])c([H])c3C([H])([H])[H])c([H])c([H])c2C1([H])[H]

>  <smiles>  (28) 
[H]c1c([H])c([H])c2c(c1[H])C([H])([H])C([H])([H])C([H])([H])C2([H])N([H])C(=O)C1([H])N(C(=O)C([H])(N([H])C(=O)C([H])(N([H])C([H])([H])[H])C([H])([H])[H])C(C([H])([H])[H])(C([H])([H])[H])C([H])([H])[H])C([H])([H])c2c([H])c(OC([H])([H])C3([H])C([H])([H])C([H])([H])C([H])([H])C([H])(C([H])(C([H])([H])[H])C([H])([H])[H])C3([H])n3c([H])c(C(N([H])C(=O)N4C([H])([H])C([H])([H])C([H])([H])C([H])(n5nc(-c6c([H])c([H])c(Oc7c([H])c([H])c(F)c([H])c7F)c([H])c6[H])c(C(=O)N([H])[H])c5N([H])[H])C4([H])[H])(C([H])([H])[H])C([H])([H])[H])c([H])c3C([H])([H])[H])c([H])c([H])c2C1([H])[H]

$$$$
28:0:0
     RDKit          3D

 91 99  0  0  1  0  0  0  0  0999 V2000
  -27.4750  -21.1850   19.2750 C   0  0  0  0  0  3  0  0  0  0  0  0
  -27.9790  -19.0250   19.2240 C   0  0  0  0  0  3  0  0  0  0  0  0
  -28.6300  -21.1330   20.0110 C   0  0  0  0  0  0  0  0  0  0  0  0
  -28.9970  -19.5630   19.9680 C   0  0  0  0  0  0  0  0  0  0  0  0
  -27.0890  -19.9660   18.7870 N   0  0  0  0  0  0  0  0  0  0  0  0
  -25.6030  -20.8220   16.9880 C   0  0  0  0  0  1  0  0  0  0  0  0
  -24.7040  -19.3720   18.8790 C   0  0  0  0  0  1  0  0  0  0  0  0
  -25.9060  -19.6860   17.9800 C   0  0  0  0  0  3  0  0  0  0  0  0
  -29.0140  -22.7750   20.5030 C   0  0  0  0  0  2  0  0  0  0  0  0
  -26.9210  -24.0580   21.4960 C   0  0  0  0  0  1  0  0  0  0  0  0
  -27.9910  -24.2710   20.4110 C   0  0  0  0  0  3  0  0  0  0  0  0
  -28.2530  -25.9030   20.4790 O   0  0  0  0  0  0  0  0  0  0  0  0
  -24.6480  -31.9600   23.1900 C   0  0  0  0  0  0  0  0  0  0  0  0
  -27.2470  -27.0010   20.3580 C   0  0  0  0  0  0  0  0  0  0  0  0
  -23.4760  -30.5140   21.5790 C   0  0  0  0  0  3  0  0  0  0  0  0
  -24.9450  -28.8730   20.2250 C   0  0  0  0  0  0  0  0  0  0  0  0
  -26.0440  -30.7260   21.4610 C   0  0  0  0  0  2  0  0  0  0  0  0
  -26.1250  -29.2980   20.8480 C   0  0  0  0  0  0  0  0  0  0  0  0
  -27.2710  -28.3830   20.8900 C   0  0  0  0  0  3  0  0  0  0  0  0
  -26.0420  -26.7330   19.6690 C   0  0  0  0  0  3  0  0  0  0  0  0
  -24.9290  -27.6090   19.6160 C   0  0  0  0  0  3  0  0  0  0  0  0
  -23.7230  -29.7890   20.2290 C   0  0  0  0  0  2  0  0  0  0  0  0
  -24.7430  -31.0940   22.1300 N   0  0  0  0  0  0  0  0  0  0  0  0
  -23.5510  -32.2660   23.6870 O   0  0  0  0  0  0  0  0  0  0  0  0
  -22.7690  -29.5490   22.5650 C   0  0  0  0  0  0  0  0  0  0  0  0
  -21.4380  -29.3920   22.4340 N   0  0  0  0  0  0  0  0  0  0  0  0
  -23.4230  -28.9410   23.4160 O   0  0  0  0  0  0  0  0  0  0  0  0
  -20.9650  -29.9320   21.7240 H   0  0  0  0  0  0  0  0  0  0  0  0
  -18.0340  -28.2600   22.9820 C   0  0  0  0  0  0  0  0  0  0  0  0
  -20.6000  -28.4830   23.2240 C   0  0  0  0  0  3  0  0  0  0  0  0
  -20.6720  -27.0410   22.6680 C   0  0  0  0  0  2  0  0  0  0  0  0
  -19.5560  -26.7250   21.6670 C   0  0  0  0  0  2  0  0  0  0  0  0
  -18.1820  -26.9010   22.3180 C   0  0  0  0  0  2  0  0  0  0  0  0
  -19.1690  -29.0090   23.3920 C   0  0  0  0  0  0  0  0  0  0  0  0
  -18.9740  -30.2780   23.9770 C   0  0  0  0  0  3  0  0  0  0  0  0
  -17.6790  -30.8010   24.1520 C   0  0  0  0  0  3  0  0  0  0  0  0
  -16.5590  -30.0500   23.7560 C   0  0  0  0  0  3  0  0  0  0  0  0
  -16.7370  -28.7820   23.1760 C   0  0  0  0  0  3  0  0  0  0  0  0
  -25.9090  -32.6220   23.8210 C   0  0  0  0  0  3  0  0  0  0  0  0
  -26.4240  -31.8670   25.1090 C   0  0  1  0  0  0  0  0  0  0  0  0
  -25.3200  -31.6000   26.1580 C   0  0  0  0  0  1  0  0  0  0  0  0
  -27.0530  -30.5050   24.7370 C   0  0  0  0  0  1  0  0  0  0  0  0
  -27.5390  -32.6950   25.7910 C   0  0  0  0  0  1  0  0  0  0  0  0
  -25.5700  -34.0170   24.1550 N   0  0  0  0  0  0  0  0  0  0  0  0
  -25.8860  -35.0840   23.4080 C   0  0  0  0  0  0  0  0  0  0  0  0
  -26.5530  -34.9980   22.3750 O   0  0  0  0  0  0  0  0  0  0  0  0
  -24.9700  -34.1550   24.9540 H   0  0  0  0  0  0  0  0  0  0  0  0
  -24.1340  -36.8630   23.0800 C   0  0  0  0  0  1  0  0  0  0  0  0
  -25.3830  -36.4630   23.8820 C   0  0  0  0  0  3  0  0  0  0  0  0
  -27.5040  -37.3770   24.7210 C   0  0  0  0  0  1  0  0  0  0  0  0
  -26.4010  -37.5310   23.7750 N   0  0  0  0  0  0  0  0  0  0  0  0
  -25.9820  -38.4450   23.9240 H   0  0  0  0  0  0  0  0  0  0  0  0
  -30.0670  -18.2470   20.3880 C   0  0  0  0  0  2  0  0  0  0  0  0
  -30.5700  -15.3340   20.1740 C   0  0  0  0  0  0  0  0  0  0  0  0
  -30.5060  -12.9100   19.2490 C   0  0  0  0  0  2  0  0  0  0  0  0
  -29.5430  -12.7390   18.0470 C   0  0  0  0  0  2  0  0  0  0  0  0
  -28.1040  -12.4770   18.5240 C   0  0  0  0  0  2  0  0  0  0  0  0
  -27.6980  -13.4060   19.6960 C   0  0  0  0  0  3  0  0  0  0  0  0
  -28.7860  -13.5200   20.7820 C   0  0  0  0  0  2  0  0  0  0  0  0
  -29.9940  -14.0350   20.1150 N   0  0  0  0  0  0  0  0  0  0  0  0
  -31.7840  -15.3380   19.9280 O   0  0  0  0  0  0  0  0  0  0  0  0
  -29.8080  -16.5960   20.3130 N   0  0  0  0  0  0  0  0  0  0  0  0
  -28.8300  -16.3830   20.4410 H   0  0  0  0  0  0  0  0  0  0  0  0
  -25.3520  -13.9410   20.5420 C   0  0  0  0  0  0  0  0  0  0  0  0
  -24.3050  -13.1520   20.9290 C   0  0  0  0  0  0  0  0  0  0  0  0
  -24.7730  -11.8040   20.8520 C   0  0  0  0  0  0  0  0  0  0  0  0
  -26.3880  -13.0740   20.2430 N   0  0  0  0  0  0  0  0  0  0  0  0
  -26.0550  -11.7810   20.4970 N   0  0  0  0  0  0  0  0  0  0  0  0
  -24.0560  -10.5370   21.0350 C   0  0  0  0  0  0  0  0  0  0  0  0
  -24.5000   -9.5590   21.9530 C   0  0  0  0  0  3  0  0  0  0  0  0
  -23.7770   -8.3590   22.1260 C   0  0  0  0  0  3  0  0  0  0  0  0
  -22.5950   -8.1280   21.3820 C   0  0  0  0  0  0  0  0  0  0  0  0
  -22.1700   -9.0950   20.4530 C   0  0  0  0  0  3  0  0  0  0  0  0
  -22.8930  -10.2860   20.2780 C   0  0  0  0  0  3  0  0  0  0  0  0
  -21.8430   -6.9810   21.4680 O   0  0  0  0  0  0  0  0  0  0  0  0
  -21.7800   -6.2440   22.6220 C   0  0  0  0  0  0  0  0  0  0  0  0
  -21.2900   -6.7890   23.8300 C   0  0  0  0  0  3  0  0  0  0  0  0
  -21.1790   -5.9770   24.9760 C   0  0  0  0  0  3  0  0  0  0  0  0
  -21.5480   -4.6190   24.9150 C   0  0  0  0  0  0  0  0  0  0  0  0
  -22.0300   -4.0730   23.7130 C   0  0  0  0  0  3  0  0  0  0  0  0
  -22.1440   -4.8830   22.5690 C   0  0  0  0  0  0  0  0  0  0  0  0
  -22.5880   -4.3460   21.4070 F   0  0  0  0  0  0  0  0  0  0  0  0
  -21.4340   -3.8360   26.0120 F   0  0  0  0  0  0  0  0  0  0  0  0
  -22.9170  -13.6200   21.2520 C   0  0  0  0  0  0  0  0  0  0  0  0
  -22.2190  -12.9090   22.1300 N   0  0  0  0  0  0  0  0  0  0  0  0
  -22.4610  -14.6520   20.7590 O   0  0  0  0  0  0  0  0  0  0  0  0
  -22.6010  -12.0740   22.5500 H   0  0  0  0  0  0  0  0  0  0  0  0
  -21.2870  -13.2050   22.3860 H   0  0  0  0  0  0  0  0  0  0  0  0
  -25.5020  -15.3160   20.3890 N   0  0  0  0  0  0  0  0  0  0  0  0
  -24.7330  -15.9580   20.5460 H   0  0  0  0  0  0  0  0  0  0  0  0
  -26.3210  -15.7680   20.0050 H   0  0  0  0  0  0  0  0  0  0  0  0
  1  3  2  0
  2  4  2  0
  3  9  1  0
  4  3  1  0
  4 53  1  0
  5  2  1  0
  5  1  1  0
  6  8  1  0
  8  5  1  0
  8  7  1  0
 11 12  1  0
 11  9  1  0
 11 10  1  0
 13 24  2  0
 14 12  1  0
 14 19  1  0
 15 23  1  0
 15 25  1  0
 16 22  1  0
 16 18  1  0
 17 23  1  0
 18 19  2  0
 18 17  1  0
 20 14  2  0
 21 20  1  0
 21 16  2  0
 22 15  1  0
 23 13  1  0
 25 27  2  0
 26 25  1  0
 28 26  1  0
 29 38  2  0
 29 34  1  0
 30 26  1  0
 30 34  1  0
 31 30  1  0
 32 33  1  0
 32 31  1  0
 33 29  1  0
 34 35  2  0
 35 36  1  0
 37 36  2  0
 38 37  1  0
 39 13  1  0
 39 44  1  0
 39 40  1  0
 40 43  1  1
 40 41  1  0
 42 40  1  0
 44 47  1  0
 45 49  1  0
 45 44  1  0
 46 45  2  0
 49 48  1  0
 51 49  1  0
 51 52  1  0
 51 50  1  0
 54 62  1  0
 55 60  1  0
 56 57  1  0
 56 55  1  0
 58 57  1  0
 58 67  1  0
 58 59  1  0
 60 54  1  0
 60 59  1  0
 61 54  2  0
 62 53  1  0
 62 63  1  0
 64 65  2  0
 65 84  1  0
 66 65  1  0
 66 69  1  0
 67 68  1  0
 67 64  1  0
 68 66  2  0
 69 70  1  0
 70 71  2  0
 72 75  1  0
 72 71  1  0
 73 72  2  0
 74 73  1  0
 74 69  2  0
 75 76  1  0
 76 77  1  0
 77 78  2  0
 79 78  1  0
 79 83  1  0
 80 79  2  0
 81 76  2  0
 81 80  1  0
 82 81  1  0
 84 85  1  0
 85 88  1  0
 85 87  1  0
 86 84  2  0
 89 64  1  0
 89 90  1  0
 91 89  1  0
M  ISO  4  11 101  12 101  54 100  62 100
M  END
>  <TORSDO>  (29) 
F 20

>  <SCORE>  (29) 
-14.777

>  <name>  (29) 
28

>  <ligand_id>  (29) 
28

>  <original_smiles>  (29) 
[H]c1c([H])c([H])c2c(c1[H])C([H])([H])C([H])([H])C([H])([H])C2([H])N([H])C(=O)C1([H])N(C(=O)C([H])(N([H])C(=O)C([H])(N([H])C([H])([H])[H])C([H])([H])[H])C(C([H])([H])[H])(C([H])([H])[H])C([H])([H])[H])C([H])([H])c2c([H])c(OC([H])(C([H])([H])[H])C([H])([H])c3c(C([H])([H])N([H])C(=O)N4C([H])([H])C([H])([H])C([H])([H])C([H])(n5nc(-c6c([H])c([H])c(Oc7c([H])c([H])c(F)c([H])c7F)c([H])c6[H])c(C(=O)N([H])[H])c5N([H])[H])C4([H])[H])c([H])n(C([H])(C([H])([H])[H])C([H])([H])[H])c3[H])c([H])c([H])c2C1([H])[H]

>  <smiles>  (29) 
[H]c1c([H])c([H])c2c(c1[H])C([H])([H])C([H])([H])C([H])([H])C2([H])N([H])C(=O)C1([H])N(C(=O)C([H])(N([H])C(=O)C([H])(N([H])C([H])([H])[H])C([H])([H])[H])C(C([H])([H])[H])(C([H])([H])[H])C([H])([H])[H])C([H])([H])c2c([H])c(OC([H])(C([H])([H])[H])C([H])([H])c3c(C([H])([H])N([H])C(=O)N4C([H])([H])C([H])([H])C([H])([H])C([H])(n5nc(-c6c([H])c([H])c(Oc7c([H])c([H])c(F)c([H])c7F)c([H])c6[H])c(C(=O)N([H])[H])c5N([H])[H])C4([H])[H])c([H])n(C([H])(C([H])([H])[H])C([H])([H])[H])c3[H])c([H])c([H])c2C1([H])[H]

$$$$
29:0:0
     RDKit          3D

 92100  0  0  1  0  0  0  0  0999 V2000
  -30.6170  -17.7990   21.7180 C   0  0  0  0  0  3  0  0  0  0  0  0
  -30.0490  -20.1800   21.4190 C   0  0  0  0  0  3  0  0  0  0  0  0
  -29.1120  -18.4970   19.9420 C   0  0  0  0  0  3  0  0  0  0  0  0
  -30.7300  -19.1510   22.1210 C   0  0  0  0  0  0  0  0  0  0  0  0
  -29.8070  -17.4160   20.6290 C   0  0  0  0  0  0  0  0  0  0  0  0
  -29.2150  -19.9050   20.3080 C   0  0  0  0  0  0  0  0  0  0  0  0
  -30.4670  -14.8790   20.4730 C   0  0  0  0  0  0  0  0  0  0  0  0
  -30.4170  -12.4870   19.7300 C   0  0  0  0  0  2  0  0  0  0  0  0
  -29.5220  -12.3480   18.4770 C   0  0  0  0  0  2  0  0  0  0  0  0
  -28.0470  -12.1460   18.8780 C   0  0  0  0  0  2  0  0  0  0  0  0
  -27.5780  -13.1650   19.9500 C   0  0  0  0  0  3  0  0  0  0  0  0
  -28.5970  -13.2840   21.1050 C   0  0  0  0  0  2  0  0  0  0  0  0
  -29.8930  -13.6270   20.5070 N   0  0  0  0  0  0  0  0  0  0  0  0
  -31.6710  -15.0020   20.2440 O   0  0  0  0  0  0  0  0  0  0  0  0
  -29.6080  -15.9670   20.3800 N   0  0  0  0  0  0  0  0  0  0  0  0
  -28.6500  -15.7020   20.2220 H   0  0  0  0  0  0  0  0  0  0  0  0
  -25.1890  -13.7550   20.6720 C   0  0  0  0  0  0  0  0  0  0  0  0
  -24.1170  -12.9780   21.0240 C   0  0  0  0  0  0  0  0  0  0  0  0
  -24.5770  -11.6270   20.9770 C   0  0  0  0  0  0  0  0  0  0  0  0
  -26.2320  -12.8740   20.4310 N   0  0  0  0  0  0  0  0  0  0  0  0
  -25.8700  -11.5880   20.6770 N   0  0  0  0  0  0  0  0  0  0  0  0
  -23.8460  -10.3630   21.1450 C   0  0  0  0  0  0  0  0  0  0  0  0
  -24.2680   -9.3840   22.0700 C   0  0  0  0  0  3  0  0  0  0  0  0
  -23.5390   -8.1840   22.2280 C   0  0  0  0  0  3  0  0  0  0  0  0
  -22.3720   -7.9590   21.4590 C   0  0  0  0  0  0  0  0  0  0  0  0
  -21.9670   -8.9270   20.5230 C   0  0  0  0  0  3  0  0  0  0  0  0
  -22.6960  -10.1180   20.3650 C   0  0  0  0  0  3  0  0  0  0  0  0
  -21.6150   -6.8140   21.5250 O   0  0  0  0  0  0  0  0  0  0  0  0
  -21.5480   -6.0600   22.6690 C   0  0  0  0  0  0  0  0  0  0  0  0
  -21.0740   -6.5940   23.8870 C   0  0  0  0  0  3  0  0  0  0  0  0
  -20.9580   -5.7650   25.0220 C   0  0  0  0  0  3  0  0  0  0  0  0
  -21.3040   -4.4030   24.9370 C   0  0  0  0  0  0  0  0  0  0  0  0
  -21.7700   -3.8680   23.7240 C   0  0  0  0  0  3  0  0  0  0  0  0
  -21.8900   -4.6940   22.5920 C   0  0  0  0  0  0  0  0  0  0  0  0
  -22.3180   -4.1690   21.4180 F   0  0  0  0  0  0  0  0  0  0  0  0
  -21.1840   -3.6040   26.0230 F   0  0  0  0  0  0  0  0  0  0  0  0
  -22.7180  -13.4540   21.2890 C   0  0  0  0  0  0  0  0  0  0  0  0
  -21.9850  -12.7540   22.1470 N   0  0  0  0  0  0  0  0  0  0  0  0
  -22.2820  -14.4800   20.7700 O   0  0  0  0  0  0  0  0  0  0  0  0
  -22.3520  -11.9240   22.5900 H   0  0  0  0  0  0  0  0  0  0  0  0
  -21.0460  -13.0510   22.3680 H   0  0  0  0  0  0  0  0  0  0  0  0
  -25.3600  -15.1280   20.5180 N   0  0  0  0  0  0  0  0  0  0  0  0
  -24.5960  -15.7830   20.6430 H   0  0  0  0  0  0  0  0  0  0  0  0
  -26.2130  -15.5740   20.2050 H   0  0  0  0  0  0  0  0  0  0  0  0
  -30.6700  -19.9540   24.5200 C   0  0  0  0  0  1  0  0  0  0  0  0
  -32.6760  -20.4970   23.0690 C   0  0  0  0  0  1  0  0  0  0  0  0
  -31.5590  -19.4840   23.3590 C   0  0  0  0  0  3  0  0  0  0  0  0
  -28.5690  -20.9580   19.5830 O   0  0  0  0  0  0  0  0  0  0  0  0
  -28.1100  -22.2550   20.1840 C   0  0  0  0  0  3  0  0  0  0  0  0
  -27.9340  -23.5890   19.2670 C   0  0  0  0  0  3  0  0  0  0  0  0
  -27.4540  -24.9930   19.9350 C   0  0  0  0  0  2  0  0  0  0  0  0
  -27.4970  -26.3200   19.2260 O   0  0  0  0  0  0  0  0  0  0  0  0
  -24.5000  -31.6450   23.1690 C   0  0  0  0  0  0  0  0  0  0  0  0
  -26.4620  -27.2610   19.4250 C   0  0  0  0  0  0  0  0  0  0  0  0
  -23.0520  -30.5510   21.4910 C   0  0  0  0  0  3  0  0  0  0  0  0
  -24.2510  -29.0570   19.7870 C   0  0  0  0  0  0  0  0  0  0  0  0
  -25.5900  -30.6870   21.1220 C   0  0  0  0  0  2  0  0  0  0  0  0
  -25.5020  -29.3870   20.3220 C   0  0  0  0  0  0  0  0  0  0  0  0
  -26.6130  -28.5060   20.1220 C   0  0  0  0  0  3  0  0  0  0  0  0
  -25.1900  -26.9910   18.8790 C   0  0  0  0  0  3  0  0  0  0  0  0
  -24.0970  -27.8640   19.0580 C   0  0  0  0  0  3  0  0  0  0  0  0
  -23.0990  -30.0130   20.0350 C   0  0  0  0  0  2  0  0  0  0  0  0
  -24.4060  -30.9720   21.9840 N   0  0  0  0  0  0  0  0  0  0  0  0
  -23.4910  -31.9420   23.8270 O   0  0  0  0  0  0  0  0  0  0  0  0
  -22.3750  -29.4910   22.3920 C   0  0  0  0  0  0  0  0  0  0  0  0
  -21.0370  -29.3870   22.3150 N   0  0  0  0  0  0  0  0  0  0  0  0
  -23.0550  -28.7630   23.1200 O   0  0  0  0  0  0  0  0  0  0  0  0
  -20.5470  -30.0230   21.7010 H   0  0  0  0  0  0  0  0  0  0  0  0
  -17.6400  -28.2500   22.8040 C   0  0  0  0  0  0  0  0  0  0  0  0
  -20.2080  -28.4230   23.0380 C   0  0  0  0  0  3  0  0  0  0  0  0
  -20.2600  -27.0300   22.3660 C   0  0  0  0  0  2  0  0  0  0  0  0
  -19.1320  -26.8080   21.3520 C   0  0  0  0  0  2  0  0  0  0  0  0
  -17.7680  -26.9470   22.0330 C   0  0  0  0  0  2  0  0  0  0  0  0
  -18.7870  -28.9520   23.2620 C   0  0  0  0  0  0  0  0  0  0  0  0
  -18.6130  -30.1770   23.9430 C   0  0  0  0  0  3  0  0  0  0  0  0
  -17.3260  -30.7000   24.1670 C   0  0  0  0  0  3  0  0  0  0  0  0
  -16.1940  -29.9930   23.7270 C   0  0  0  0  0  3  0  0  0  0  0  0
  -16.3520  -28.7700   23.0520 C   0  0  0  0  0  3  0  0  0  0  0  0
  -25.8790  -32.0960   23.7420 C   0  0  0  0  0  3  0  0  0  0  0  0
  -25.7090  -33.4470   24.2980 N   0  0  0  0  0  0  0  0  0  0  0  0
  -26.0990  -34.5760   23.6920 C   0  0  0  0  0  0  0  0  0  0  0  0
  -26.7050  -34.5820   22.6160 O   0  0  0  0  0  0  0  0  0  0  0  0
  -25.1700  -33.5220   25.1470 H   0  0  0  0  0  0  0  0  0  0  0  0
  -24.5330  -36.5450   23.7200 C   0  0  0  0  0  1  0  0  0  0  0  0
  -25.7650  -35.9100   24.3850 C   0  0  0  0  0  3  0  0  0  0  0  0
  -28.0040  -36.4730   25.2240 C   0  0  0  0  0  1  0  0  0  0  0  0
  -26.8840  -36.8750   24.3780 N   0  0  0  0  0  0  0  0  0  0  0  0
  -26.5700  -37.7930   24.6810 H   0  0  0  0  0  0  0  0  0  0  0  0
  -26.4490  -31.1140   24.8380 C   0  0  1  0  0  0  0  0  0  0  0  0
  -25.4500  -30.8000   25.9760 C   0  0  0  0  0  1  0  0  0  0  0  0
  -26.8720  -29.7680   24.2070 C   0  0  0  0  0  1  0  0  0  0  0  0
  -27.7220  -31.7220   25.4750 C   0  0  0  0  0  1  0  0  0  0  0  0
  1  4  1  0
  2  4  2  0
  3  6  2  0
  3  5  1  0
  4 47  1  0
  5  1  2  0
  6  2  1  0
  7 13  1  0
  8 13  1  0
  9 10  1  0
  9  8  1  0
 11 10  1  0
 11 20  1  0
 11 12  1  0
 13 12  1  0
 14  7  2  0
 15  7  1  0
 15  5  1  0
 16 15  1  0
 17 18  2  0
 18 37  1  0
 19 18  1  0
 19 22  1  0
 20 17  1  0
 20 21  1  0
 21 19  2  0
 22 23  1  0
 23 24  2  0
 25 28  1  0
 25 24  1  0
 26 25  2  0
 27 26  1  0
 27 22  2  0
 28 29  1  0
 29 30  1  0
 30 31  2  0
 32 31  1  0
 32 36  1  0
 33 32  2  0
 34 29  2  0
 34 33  1  0
 35 34  1  0
 37 38  1  0
 38 41  1  0
 38 40  1  0
 39 37  2  0
 42 43  1  0
 42 17  1  0
 44 42  1  0
 46 47  1  0
 47 45  1  0
 48 49  1  0
 48  6  1  0
 50 51  1  0
 50 49  2  0
 52 54  1  0
 52 51  1  0
 53 64  2  0
 54 59  1  0
 55 63  1  0
 55 65  1  0
 56 62  1  0
 56 58  1  0
 57 63  1  0
 58 57  1  0
 59 58  2  0
 60 61  1  0
 60 54  2  0
 61 56  2  0
 62 55  1  0
 63 53  1  0
 65 67  2  0
 66 65  1  0
 68 66  1  0
 69 78  2  0
 69 74  1  0
 70 66  1  0
 70 74  1  0
 71 70  1  0
 72 73  1  0
 72 71  1  0
 73 69  1  0
 74 75  2  0
 75 76  1  0
 77 76  2  0
 78 77  1  0
 79 53  1  0
 79 80  1  0
 79 89  1  0
 80 83  1  0
 81 80  1  0
 81 85  1  0
 82 81  2  0
 85 84  1  0
 87 85  1  0
 87 88  1  0
 87 86  1  0
 89 92  1  1
 89 90  1  0
 91 89  1  0
M  ISO  4   7 100  15 100  51 101  52 101
M  END
>  <TORSDO>  (30) 
F 21

>  <SCORE>  (30) 
-12.284

>  <name>  (30) 
29

>  <ligand_id>  (30) 
29

>  <original_smiles>  (30) 
[H]c1c([H])c([H])c2c(c1[H])C([H])([H])C([H])([H])C([H])([H])C2([H])N([H])C(=O)C1([H])N(C(=O)C([H])(N([H])C(=O)C([H])(N([H])C([H])([H])[H])C([H])([H])[H])C(C([H])([H])[H])(C([H])([H])[H])C([H])([H])[H])C([H])([H])c2c([H])c(OC([H])([H])C([H])([H])C([H])([H])Oc3c([H])c(N([H])C(=O)N4C([H])([H])C([H])([H])C([H])([H])C([H])(n5nc(-c6c([H])c([H])c(Oc7c([H])c([H])c(F)c([H])c7F)c([H])c6[H])c(C(=O)N([H])[H])c5N([H])[H])C4([H])[H])c([H])c(C([H])(C([H])([H])[H])C([H])([H])[H])c3[H])c([H])c([H])c2C1([H])[H]

>  <smiles>  (30) 
[H]c1c([H])c([H])c2c(c1[H])C([H])([H])C([H])([H])C([H])([H])C2([H])N([H])C(=O)C1([H])N(C(=O)C([H])(N([H])C(=O)C([H])(N([H])C([H])([H])[H])C([H])([H])[H])C(C([H])([H])[H])(C([H])([H])[H])C([H])([H])[H])C([H])([H])c2c([H])c(OC([H])([H])C([H])([H])C([H])([H])Oc3c([H])c(N([H])C(=O)N4C([H])([H])C([H])([H])C([H])([H])C([H])(n5nc(-c6c([H])c([H])c(Oc7c([H])c([H])c(F)c([H])c7F)c([H])c6[H])c(C(=O)N([H])[H])c5N([H])[H])C4([H])[H])c([H])c(C([H])(C([H])([H])[H])C([H])([H])[H])c3[H])c([H])c([H])c2C1([H])[H]

$$$$
30:0:0
     RDKit          3D

 97104  0  0  1  0  0  0  0  0999 V2000
  -29.5120  -21.4970   19.4590 C   0  0  0  0  0  2  0  0  0  0  0  0
  -28.6930  -22.6440   20.0720 N   0  0  0  0  0  4  0  0  0  0  0  0
  -29.0050  -22.7230   21.0280 H   0  0  0  0  0  0  0  0  0  0  0  0
  -27.7330  -22.3400   20.1120 H   0  0  0  0  0  0  0  0  0  0  0  0
  -27.8600  -24.0990   18.1780 C   0  0  0  0  0  1  0  0  0  0  0  0
  -28.7010  -24.0630   19.4670 C   0  0  0  0  0  3  0  0  0  0  0  0
  -26.9530  -24.9230   21.2170 C   0  0  0  0  0  1  0  0  0  0  0  0
  -28.2540  -25.2660   20.4560 C   0  0  0  0  0  3  0  0  0  0  0  0
  -28.3260  -26.6930   19.9830 O   0  0  0  0  0  0  0  0  0  0  0  0
  -24.5490  -32.0060   23.1220 C   0  0  0  0  0  0  0  0  0  0  0  0
  -27.1920  -27.5280   19.9810 C   0  0  0  0  0  0  0  0  0  0  0  0
  -23.3380  -30.5890   21.4990 C   0  0  0  0  0  3  0  0  0  0  0  0
  -24.7920  -29.0840   20.0220 C   0  0  0  0  0  0  0  0  0  0  0  0
  -25.8620  -30.9730   21.2540 C   0  0  0  0  0  2  0  0  0  0  0  0
  -25.9600  -29.5980   20.6000 C   0  0  0  0  0  0  0  0  0  0  0  0
  -27.1650  -28.8330   20.5670 C   0  0  0  0  0  3  0  0  0  0  0  0
  -26.0100  -27.0780   19.3570 C   0  0  0  0  0  3  0  0  0  0  0  0
  -24.8190  -27.8310   19.3900 C   0  0  0  0  0  3  0  0  0  0  0  0
  -23.5340  -29.9270   20.1090 C   0  0  0  0  0  2  0  0  0  0  0  0
  -24.6020  -31.2070   22.0150 N   0  0  0  0  0  0  0  0  0  0  0  0
  -23.4730  -32.2510   23.6870 O   0  0  0  0  0  0  0  0  0  0  0  0
  -22.7270  -29.5500   22.4690 C   0  0  0  0  0  0  0  0  0  0  0  0
  -21.4110  -29.3080   22.3470 N   0  0  0  0  0  0  0  0  0  0  0  0
  -23.4360  -28.9640   23.2930 O   0  0  0  0  0  0  0  0  0  0  0  0
  -20.8940  -29.8350   21.6560 H   0  0  0  0  0  0  0  0  0  0  0  0
  -18.0950  -27.9540   22.8610 C   0  0  0  0  0  0  0  0  0  0  0  0
  -20.6380  -28.3390   23.1270 C   0  0  0  0  0  3  0  0  0  0  0  0
  -20.8090  -26.9090   22.5620 C   0  0  0  0  0  2  0  0  0  0  0  0
  -19.7220  -26.5260   21.5520 C   0  0  0  0  0  2  0  0  0  0  0  0
  -18.3350  -26.6090   22.1960 C   0  0  0  0  0  2  0  0  0  0  0  0
  -19.1760  -28.7720   23.2840 C   0  0  0  0  0  0  0  0  0  0  0  0
  -18.8970  -30.0280   23.8670 C   0  0  0  0  0  3  0  0  0  0  0  0
  -17.5690  -30.4670   24.0300 C   0  0  0  0  0  3  0  0  0  0  0  0
  -16.5030  -29.6470   23.6220 C   0  0  0  0  0  3  0  0  0  0  0  0
  -16.7670  -28.3930   23.0450 C   0  0  0  0  0  3  0  0  0  0  0  0
  -25.8320  -32.6660   23.7150 C   0  0  0  0  0  3  0  0  0  0  0  0
  -25.4960  -34.0530   24.0680 N   0  0  0  0  0  0  0  0  0  0  0  0
  -25.7680  -35.1200   23.3050 C   0  0  0  0  0  0  0  0  0  0  0  0
  -26.4000  -35.0410   22.2480 O   0  0  0  0  0  0  0  0  0  0  0  0
  -24.9320  -34.1860   24.8940 H   0  0  0  0  0  0  0  0  0  0  0  0
  -23.9840  -36.8700   23.0220 C   0  0  0  0  0  1  0  0  0  0  0  0
  -25.2600  -36.4920   23.7910 C   0  0  0  0  0  3  0  0  0  0  0  0
  -27.3820  -37.4390   24.5850 C   0  0  0  0  0  1  0  0  0  0  0  0
  -26.2620  -37.5730   23.6570 N   0  0  0  0  0  0  0  0  0  0  0  0
  -25.8330  -38.4810   23.8060 H   0  0  0  0  0  0  0  0  0  0  0  0
  -26.4000  -31.8990   24.9710 C   0  0  1  0  0  0  0  0  0  0  0  0
  -25.3340  -31.5990   26.0520 C   0  0  0  0  0  1  0  0  0  0  0  0
  -27.0350  -30.5530   24.5520 C   0  0  0  0  0  1  0  0  0  0  0  0
  -27.5250  -32.7310   25.6310 C   0  0  0  0  0  1  0  0  0  0  0  0
  -27.7650  -19.6280   19.0770 C   0  0  0  0  0  1  0  0  0  0  0  0
  -29.0510  -19.9890   19.8450 C   0  0  0  0  0  3  0  0  0  0  0  0
  -31.4540  -19.1360   19.4480 C   0  0  0  0  0  1  0  0  0  0  0  0
  -30.0690  -18.6940   19.9770 C   0  0  2  0  0  0  0  0  0  0  0  0
  -29.6990  -17.3090   19.1990 C   0  0  0  0  0  2  0  0  0  0  0  0
  -30.6230  -14.8640   19.4720 C   0  0  0  0  0  0  0  0  0  0  0  0
  -30.4250  -12.5320   18.6290 C   0  0  0  0  0  2  0  0  0  0  0  0
  -29.3500  -12.5130   17.5200 C   0  0  0  0  0  2  0  0  0  0  0  0
  -27.9430  -12.3230   18.1230 C   0  0  0  0  0  2  0  0  0  0  0  0
  -27.6770  -13.2670   19.3260 C   0  0  0  0  0  3  0  0  0  0  0  0
  -28.8570  -13.2590   20.3240 C   0  0  0  0  0  2  0  0  0  0  0  0
  -30.0750  -13.6100   19.5780 N   0  0  0  0  0  0  0  0  0  0  0  0
  -31.7060  -15.0430   18.9120 O   0  0  0  0  0  0  0  0  0  0  0  0
  -29.8330  -15.9290   19.8390 N   0  0  0  0  0  0  0  0  0  0  0  0
  -28.9970  -15.6260   20.3220 H   0  0  0  0  0  0  0  0  0  0  0  0
  -25.4310  -13.8380   20.4330 C   0  0  0  0  0  0  0  0  0  0  0  0
  -24.4110  -13.0530   20.8960 C   0  0  0  0  0  0  0  0  0  0  0  0
  -24.8280  -11.7020   20.6930 C   0  0  0  0  0  0  0  0  0  0  0  0
  -26.4060  -12.9650   19.9790 N   0  0  0  0  0  0  0  0  0  0  0  0
  -26.0580  -11.6700   20.1950 N   0  0  0  0  0  0  0  0  0  0  0  0
  -24.1050  -10.4390   20.8910 C   0  0  0  0  0  0  0  0  0  0  0  0
  -24.5460   -9.4730   21.8220 C   0  0  0  0  0  3  0  0  0  0  0  0
  -23.8220   -8.2750   22.0090 C   0  0  0  0  0  3  0  0  0  0  0  0
  -22.6440   -8.0340   21.2620 C   0  0  0  0  0  0  0  0  0  0  0  0
  -22.2220   -8.9900   20.3210 C   0  0  0  0  0  3  0  0  0  0  0  0
  -22.9460  -10.1790   20.1340 C   0  0  0  0  0  3  0  0  0  0  0  0
  -21.8910   -6.8890   21.3570 O   0  0  0  0  0  0  0  0  0  0  0  0
  -21.7520   -6.2160   22.5450 C   0  0  0  0  0  0  0  0  0  0  0  0
  -21.1030   -6.7930   23.6570 C   0  0  0  0  0  3  0  0  0  0  0  0
  -20.9210   -6.0410   24.8350 C   0  0  0  0  0  3  0  0  0  0  0  0
  -21.3770   -4.7120   24.9000 C   0  0  0  0  0  0  0  0  0  0  0  0
  -22.0190   -4.1330   23.7910 C   0  0  0  0  0  3  0  0  0  0  0  0
  -22.2040   -4.8820   22.6160 C   0  0  0  0  0  0  0  0  0  0  0  0
  -22.8040   -4.3120   21.5430 F   0  0  0  0  0  0  0  0  0  0  0  0
  -21.1940   -3.9850   26.0270 F   0  0  0  0  0  0  0  0  0  0  0  0
  -23.0810  -13.5270   21.4070 C   0  0  0  0  0  0  0  0  0  0  0  0
  -22.4600  -12.7650   22.3010 N   0  0  0  0  0  0  0  0  0  0  0  0
  -22.6070  -14.6050   21.0520 O   0  0  0  0  0  0  0  0  0  0  0  0
  -22.8590  -11.8910   22.6080 H   0  0  0  0  0  0  0  0  0  0  0  0
  -21.5720  -13.0600   22.6830 H   0  0  0  0  0  0  0  0  0  0  0  0
  -25.6040  -15.2170   20.3400 N   0  0  0  0  0  0  0  0  0  0  0  0
  -24.8690  -15.8650   20.6000 H   0  0  0  0  0  0  0  0  0  0  0  0
  -26.3840  -15.6680   19.8830 H   0  0  0  0  0  0  0  0  0  0  0  0
  -30.2090  -18.4020   21.5100 C   0  0  0  0  0  2  0  0  0  0  0  0
  -31.2450  -16.9590   23.2490 C   0  0  0  0  0  1  0  0  0  0  0  0
  -31.2580  -17.4120   21.8450 N   0  0  0  0  0  4  0  0  0  0  0  0
  -31.1230  -16.6140   21.2460 H   0  0  0  0  0  0  0  0  0  0  0  0
  -32.1630  -17.8040   21.6410 H   0  0  0  0  0  0  0  0  0  0  0  0
  1 51  1  0
  1  2  1  0
  2  4  1  0
  2  3  1  0
  6  5  1  0
  6  2  1  0
  6  8  1  0
  8  7  1  0
  9  8  1  0
 10 21  2  0
 11  9  1  0
 11 16  1  0
 12 20  1  0
 12 22  1  0
 13 19  1  0
 13 15  1  0
 14 20  1  0
 15 14  1  0
 16 15  2  0
 17 18  1  0
 17 11  2  0
 18 13  2  0
 19 12  1  0
 20 10  1  0
 22 24  2  0
 23 22  1  0
 25 23  1  0
 26 35  2  0
 26 31  1  0
 27 23  1  0
 27 31  1  0
 28 27  1  0
 29 30  1  0
 29 28  1  0
 30 26  1  0
 31 32  2  0
 32 33  1  0
 34 33  2  0
 35 34  1  0
 36 10  1  0
 36 37  1  0
 36 46  1  0
 37 40  1  0
 38 42  1  0
 38 37  1  0
 39 38  2  0
 42 41  1  0
 44 42  1  0
 44 45  1  0
 44 43  1  0
 46 49  1  1
 46 47  1  0
 48 46  1  0
 51 50  1  0
 51 53  1  0
 53 52  1  6
 53 93  1  0
 54 63  1  0
 54 53  1  0
 55 61  1  0
 55 63  1  0
 56 61  1  0
 57 58  1  0
 57 56  1  0
 59 58  1  0
 59 68  1  0
 59 60  1  0
 61 60  1  0
 62 55  2  0
 63 64  1  0
 65 66  2  0
 66 85  1  0
 67 70  1  0
 67 66  1  0
 68 69  1  0
 68 65  1  0
 69 67  2  0
 70 71  1  0
 71 72  2  0
 73 76  1  0
 73 72  1  0
 74 73  2  0
 75 74  1  0
 75 70  2  0
 76 77  1  0
 77 82  2  0
 77 78  1  0
 78 79  2  0
 79 80  1  0
 80 84  1  0
 81 80  2  0
 82 81  1  0
 83 82  1  0
 85 86  1  0
 86 88  1  0
 86 89  1  0
 87 85  2  0
 90 65  1  0
 90 91  1  0
 92 90  1  0
 93 95  1  0
 95 94  1  0
 96 95  1  0
 97 95  1  0
M  ISO  4   8 101   9 101  55 100  63 100
M  END
>  <TORSDO>  (31) 
F 24

>  <SCORE>  (31) 
-11.088

>  <name>  (31) 
30

>  <ligand_id>  (31) 
30

>  <original_smiles>  (31) 
[H]c1c([H])c([H])c2c(c1[H])C([H])([H])C([H])([H])C([H])([H])C2([H])N([H])C(=O)C1([H])N(C(=O)C([H])(N([H])C(=O)C([H])(N([H])C([H])([H])[H])C([H])([H])[H])C(C([H])([H])[H])(C([H])([H])[H])C([H])([H])[H])C([H])([H])c2c([H])c(OC([H])(C([H])([H])[H])C([H])(C([H])([H])[H])[N+]([H])([H])C([H])([H])C([H])(C([H])([H])[H])C(C([H])([H])[H])(C([H])([H])N([H])C(=O)N3C([H])([H])C([H])([H])C([H])([H])C([H])(n4nc(-c5c([H])c([H])c(Oc6c([H])c([H])c(F)c([H])c6F)c([H])c5[H])c(C(=O)N([H])[H])c4N([H])[H])C3([H])[H])C([H])([H])[N+]([H])([H])C([H])([H])[H])c([H])c([H])c2C1([H])[H]

>  <smiles>  (31) 
[H]c1c([H])c([H])c2c(c1[H])C([H])([H])C([H])([H])C([H])([H])C2([H])N([H])C(=O)C1([H])N(C(=O)C([H])(N([H])C(=O)C([H])(N([H])C([H])([H])[H])C([H])([H])[H])C(C([H])([H])[H])(C([H])([H])[H])C([H])([H])[H])C([H])([H])c2c([H])c(OC([H])(C([H])([H])[H])C([H])(C([H])([H])[H])[N+]([H])([H])C([H])([H])C([H])(C([H])([H])[H])C(C([H])([H])[H])(C([H])([H])N([H])C(=O)N3C([H])([H])C([H])([H])C([H])([H])C([H])(n4nc(-c5c([H])c([H])c(Oc6c([H])c([H])c(F)c([H])c6F)c([H])c5[H])c(C(=O)N([H])[H])c4N([H])[H])C3([H])[H])C([H])([H])[N+]([H])([H])C([H])([H])[H])c([H])c([H])c2C1([H])[H]

$$$$
31:0:0
     RDKit          3D

 91 99  0  0  1  0  0  0  0  0999 V2000
  -31.4150  -20.4660   18.9870 C   0  0  0  0  0  2  0  0  0  0  0  0
  -30.9930  -20.9690   20.3730 C   0  0  0  0  0  2  0  0  0  0  0  0
  -30.2260  -19.6870   18.4270 C   0  0  0  0  0  2  0  0  0  0  0  0
  -29.4450  -21.0960   20.3650 C   0  0  0  0  0  3  0  0  0  0  0  0
  -29.3120  -19.4690   19.6340 C   0  0  1  0  0  0  0  0  0  0  0  0
  -27.6270  -18.4080   17.9430 C   0  0  0  0  0  1  0  0  0  0  0  0
  -26.9680  -18.7170   20.3590 C   0  0  0  0  0  1  0  0  0  0  0  0
  -27.8290  -19.2630   19.2100 C   0  0  0  0  0  3  0  0  0  0  0  0
  -29.8320  -23.5160   21.3680 C   0  0  0  0  0  1  0  0  0  0  0  0
  -29.2220  -22.8940   20.0790 C   0  0  0  0  0  3  0  0  0  0  0  0
  -28.0230  -24.1910   19.8540 C   0  0  0  0  0  2  0  0  0  0  0  0
  -28.2430  -25.8190   19.8550 O   0  0  0  0  0  0  0  0  0  0  0  0
  -24.7180  -31.6960   22.9430 C   0  0  0  0  0  0  0  0  0  0  0  0
  -27.2150  -26.8890   19.8240 C   0  0  0  0  0  0  0  0  0  0  0  0
  -23.4920  -30.3260   21.3070 C   0  0  0  0  0  3  0  0  0  0  0  0
  -24.9120  -28.7460   19.8320 C   0  0  0  0  0  0  0  0  0  0  0  0
  -26.0520  -30.5530   21.1080 C   0  0  0  0  0  2  0  0  0  0  0  0
  -26.1100  -29.1540   20.4310 C   0  0  0  0  0  0  0  0  0  0  0  0
  -27.2590  -28.2490   20.3970 C   0  0  0  0  0  3  0  0  0  0  0  0
  -25.9880  -26.6230   19.1780 C   0  0  0  0  0  3  0  0  0  0  0  0
  -24.8740  -27.5030   19.1810 C   0  0  0  0  0  3  0  0  0  0  0  0
  -23.6920  -29.6590   19.9170 C   0  0  0  0  0  2  0  0  0  0  0  0
  -24.7770  -30.8830   21.8400 N   0  0  0  0  0  0  0  0  0  0  0  0
  -23.6410  -31.9770   23.4910 O   0  0  0  0  0  0  0  0  0  0  0  0
  -22.8180  -29.3130   22.2700 C   0  0  0  0  0  0  0  0  0  0  0  0
  -21.4840  -29.1620   22.1780 N   0  0  0  0  0  0  0  0  0  0  0  0
  -23.5020  -28.6670   23.0670 O   0  0  0  0  0  0  0  0  0  0  0  0
  -20.9870  -29.7350   21.5110 H   0  0  0  0  0  0  0  0  0  0  0  0
  -18.1060  -27.9770   22.7590 C   0  0  0  0  0  0  0  0  0  0  0  0
  -20.6740  -28.2150   22.9510 C   0  0  0  0  0  3  0  0  0  0  0  0
  -20.7440  -26.7960   22.3400 C   0  0  0  0  0  2  0  0  0  0  0  0
  -19.6080  -26.5070   21.3520 C   0  0  0  0  0  2  0  0  0  0  0  0
  -18.2490  -26.6460   22.0420 C   0  0  0  0  0  2  0  0  0  0  0  0
  -19.2440  -28.7220   23.1710 C   0  0  0  0  0  0  0  0  0  0  0  0
  -19.0510  -29.9680   23.8060 C   0  0  0  0  0  3  0  0  0  0  0  0
  -17.7560  -30.4700   24.0310 C   0  0  0  0  0  3  0  0  0  0  0  0
  -16.6340  -29.7230   23.6330 C   0  0  0  0  0  3  0  0  0  0  0  0
  -16.8100  -28.4780   23.0030 C   0  0  0  0  0  3  0  0  0  0  0  0
  -26.0020  -32.3280   23.5610 C   0  0  0  0  0  3  0  0  0  0  0  0
  -26.5740  -31.5010   24.7800 C   0  0  1  0  0  0  0  0  0  0  0  0
  -25.5220  -31.1950   25.8730 C   0  0  0  0  0  1  0  0  0  0  0  0
  -27.1590  -30.1500   24.3050 C   0  0  0  0  0  1  0  0  0  0  0  0
  -27.7410  -32.2750   25.4370 C   0  0  0  0  0  1  0  0  0  0  0  0
  -25.6710  -33.6990   23.9910 N   0  0  0  0  0  0  0  0  0  0  0  0
  -25.9880  -34.8110   23.3140 C   0  0  0  0  0  0  0  0  0  0  0  0
  -26.6510  -34.7920   22.2740 O   0  0  0  0  0  0  0  0  0  0  0  0
  -25.0800  -33.7860   24.8030 H   0  0  0  0  0  0  0  0  0  0  0  0
  -24.2360  -36.6090   23.1140 C   0  0  0  0  0  1  0  0  0  0  0  0
  -25.4920  -36.1590   23.8770 C   0  0  0  0  0  3  0  0  0  0  0  0
  -27.6230  -37.0140   24.7490 C   0  0  0  0  0  1  0  0  0  0  0  0
  -26.5110  -37.2310   23.8270 N   0  0  0  0  0  0  0  0  0  0  0  0
  -26.0950  -38.1340   24.0380 H   0  0  0  0  0  0  0  0  0  0  0  0
  -29.9650  -17.9480   20.3320 C   0  0  0  0  0  2  0  0  0  0  0  0
  -30.4960  -15.1110   19.8930 C   0  0  0  0  0  0  0  0  0  0  0  0
  -30.4070  -12.6990   18.9790 C   0  0  0  0  0  2  0  0  0  0  0  0
  -29.4070  -12.5380   17.8080 C   0  0  0  0  0  2  0  0  0  0  0  0
  -27.9830  -12.2790   18.3330 C   0  0  0  0  0  2  0  0  0  0  0  0
  -27.6150  -13.2330   19.4990 C   0  0  0  0  0  3  0  0  0  0  0  0
  -28.7290  -13.3310   20.5590 C   0  0  0  0  0  2  0  0  0  0  0  0
  -29.9250  -13.8180   19.8590 N   0  0  0  0  0  0  0  0  0  0  0  0
  -31.7020  -15.1400   19.6170 O   0  0  0  0  0  0  0  0  0  0  0  0
  -29.7130  -16.3420   20.0470 N   0  0  0  0  0  0  0  0  0  0  0  0
  -28.7360  -16.1080   20.1420 H   0  0  0  0  0  0  0  0  0  0  0  0
  -25.3060  -13.8140   20.4170 C   0  0  0  0  0  0  0  0  0  0  0  0
  -24.2580  -13.0430   20.8390 C   0  0  0  0  0  0  0  0  0  0  0  0
  -24.7000  -11.6890   20.7420 C   0  0  0  0  0  0  0  0  0  0  0  0
  -26.3160  -12.9300   20.0840 N   0  0  0  0  0  0  0  0  0  0  0  0
  -25.9690  -11.6440   20.3460 N   0  0  0  0  0  0  0  0  0  0  0  0
  -23.9670  -10.4320   20.9470 C   0  0  0  0  0  0  0  0  0  0  0  0
  -24.4190   -9.4530   21.8580 C   0  0  0  0  0  3  0  0  0  0  0  0
  -23.6850   -8.2620   22.0530 C   0  0  0  0  0  3  0  0  0  0  0  0
  -22.4850   -8.0430   21.3360 C   0  0  0  0  0  0  0  0  0  0  0  0
  -22.0520   -9.0110   20.4120 C   0  0  0  0  0  3  0  0  0  0  0  0
  -22.7870  -10.1930   20.2170 C   0  0  0  0  0  3  0  0  0  0  0  0
  -21.7210   -6.9070   21.4390 O   0  0  0  0  0  0  0  0  0  0  0  0
  -21.6900   -6.1620   22.5910 C   0  0  0  0  0  0  0  0  0  0  0  0
  -21.2740   -6.7120   23.8220 C   0  0  0  0  0  3  0  0  0  0  0  0
  -21.1930   -5.8930   24.9670 C   0  0  0  0  0  3  0  0  0  0  0  0
  -21.5190   -4.5270   24.8800 C   0  0  0  0  0  0  0  0  0  0  0  0
  -21.9290   -3.9760   23.6520 C   0  0  0  0  0  3  0  0  0  0  0  0
  -22.0130   -4.7920   22.5110 C   0  0  0  0  0  0  0  0  0  0  0  0
  -22.3870   -4.2540   21.3260 F   0  0  0  0  0  0  0  0  0  0  0  0
  -21.4340   -3.7380   25.9770 F   0  0  0  0  0  0  0  0  0  0  0  0
  -22.8890  -13.5370   21.2070 C   0  0  0  0  0  0  0  0  0  0  0  0
  -22.2120  -12.8400   22.1120 N   0  0  0  0  0  0  0  0  0  0  0  0
  -22.4330  -14.5740   20.7270 O   0  0  0  0  0  0  0  0  0  0  0  0
  -22.5990  -12.0040   22.5230 H   0  0  0  0  0  0  0  0  0  0  0  0
  -21.2920  -13.1470   22.3960 H   0  0  0  0  0  0  0  0  0  0  0  0
  -25.4770  -15.1850   20.2580 N   0  0  0  0  0  0  0  0  0  0  0  0
  -24.7170  -15.8360   20.4160 H   0  0  0  0  0  0  0  0  0  0  0  0
  -26.2830  -15.6120   19.8250 H   0  0  0  0  0  0  0  0  0  0  0  0
  1  2  1  0
  3  1  1  0
  3  5  1  0
  4 10  1  0
  4  2  1  0
  5 53  1  1
  5  4  1  0
  6  8  1  0
  8  5  1  0
  8  7  1  0
 10  9  1  0
 11 12  1  0
 11 10  1  0
 13 24  2  0
 14 12  1  0
 14 19  1  0
 15 23  1  0
 15 25  1  0
 16 22  1  0
 16 18  1  0
 17 23  1  0
 18 17  1  0
 19 18  2  0
 20 21  1  0
 20 14  2  0
 21 16  2  0
 22 15  1  0
 23 13  1  0
 25 27  2  0
 26 25  1  0
 28 26  1  0
 29 38  2  0
 29 34  1  0
 30 26  1  0
 30 34  1  0
 31 30  1  0
 32 33  1  0
 32 31  1  0
 33 29  1  0
 34 35  2  0
 35 36  1  0
 37 36  2  0
 38 37  1  0
 39 13  1  0
 39 44  1  0
 39 40  1  0
 40 43  1  1
 40 41  1  0
 42 40  1  0
 44 47  1  0
 45 49  1  0
 45 44  1  0
 46 45  2  0
 49 48  1  0
 51 49  1  0
 51 52  1  0
 51 50  1  0
 54 62  1  0
 55 60  1  0
 56 57  1  0
 56 55  1  0
 58 57  1  0
 58 67  1  0
 58 59  1  0
 60 54  1  0
 60 59  1  0
 61 54  2  0
 62 63  1  0
 62 53  1  0
 64 65  2  0
 65 84  1  0
 66 65  1  0
 66 69  1  0
 67 68  1  0
 67 64  1  0
 68 66  2  0
 69 70  1  0
 70 71  2  0
 72 75  1  0
 72 71  1  0
 73 72  2  0
 74 73  1  0
 74 69  2  0
 75 76  1  0
 76 77  1  0
 77 78  2  0
 79 78  1  0
 79 83  1  0
 80 79  2  0
 81 76  2  0
 81 80  1  0
 82 81  1  0
 84 85  1  0
 85 88  1  0
 85 87  1  0
 86 84  2  0
 89 90  1  0
 89 64  1  0
 91 89  1  0
M  ISO  4  11 101  12 101  54 100  62 100
M  END
>  <TORSDO>  (32) 
F 20

>  <SCORE>  (32) 
-14.695

>  <name>  (32) 
31

>  <ligand_id>  (32) 
31

>  <original_smiles>  (32) 
[H]c1c([H])c([H])c2c(c1[H])C([H])([H])C([H])([H])C([H])([H])C2([H])N([H])C(=O)C1([H])N(C(=O)C([H])(N([H])C(=O)C([H])(N([H])C([H])([H])[H])C([H])([H])[H])C(C([H])([H])[H])(C([H])([H])[H])C([H])([H])[H])C([H])([H])c2c([H])c(OC([H])([H])C([H])(C([H])([H])[H])C3([H])C([H])([H])C([H])([H])C([H])([H])C3(C([H])([H])N([H])C(=O)N3C([H])([H])C([H])([H])C([H])([H])C([H])(n4nc(-c5c([H])c([H])c(Oc6c([H])c([H])c(F)c([H])c6F)c([H])c5[H])c(C(=O)N([H])[H])c4N([H])[H])C3([H])[H])C([H])(C([H])([H])[H])C([H])([H])[H])c([H])c([H])c2C1([H])[H]

>  <smiles>  (32) 
[H]c1c([H])c([H])c2c(c1[H])C([H])([H])C([H])([H])C([H])([H])C2([H])N([H])C(=O)C1([H])N(C(=O)C([H])(N([H])C(=O)C([H])(N([H])C([H])([H])[H])C([H])([H])[H])C(C([H])([H])[H])(C([H])([H])[H])C([H])([H])[H])C([H])([H])c2c([H])c(OC([H])([H])C([H])(C([H])([H])[H])C3([H])C([H])([H])C([H])([H])C([H])([H])C3(C([H])([H])N([H])C(=O)N3C([H])([H])C([H])([H])C([H])([H])C([H])(n4nc(-c5c([H])c([H])c(Oc6c([H])c([H])c(F)c([H])c6F)c([H])c5[H])c(C(=O)N([H])[H])c4N([H])[H])C3([H])[H])C([H])(C([H])([H])[H])C([H])([H])[H])c([H])c([H])c2C1([H])[H]

$$$$
32:0:0
     RDKit          3D

 93101  0  0  1  0  0  0  0  0999 V2000
  -29.8570  -23.3330   21.9140 C   0  0  0  0  0  3  0  0  0  0  0  0
  -28.9890  -23.8100   20.8920 C   0  0  0  0  0  0  0  0  0  0  0  0
  -30.2230  -22.0290   21.6950 C   0  0  0  0  0  0  0  0  0  0  0  0
  -28.9340  -22.7280   19.9990 C   0  0  0  0  0  0  0  0  0  0  0  0
  -31.0740  -21.1770   22.5810 C   0  0  0  0  0  1  0  0  0  0  0  0
  -29.6600  -21.5790   20.5000 N   0  0  0  0  0  0  0  0  0  0  0  0
  -26.9600  -21.7960   18.6970 C   0  0  0  0  0  1  0  0  0  0  0  0
  -29.0890  -22.5190   17.4670 C   0  0  0  0  0  1  0  0  0  0  0  0
  -28.1840  -22.7270   18.6920 C   0  0  0  0  0  3  0  0  0  0  0  0
  -26.7120  -24.7900   21.3830 C   0  0  0  0  0  1  0  0  0  0  0  0
  -28.1670  -25.1780   21.0490 C   0  0  0  0  0  3  0  0  0  0  0  0
  -28.3430  -26.3870   20.1650 O   0  0  0  0  0  0  0  0  0  0  0  0
  -24.6190  -31.8550   23.1720 C   0  0  0  0  0  0  0  0  0  0  0  0
  -27.2810  -27.3190   20.1060 C   0  0  0  0  0  0  0  0  0  0  0  0
  -23.4360  -30.4550   21.5170 C   0  0  0  0  0  3  0  0  0  0  0  0
  -24.9110  -28.9320   20.0760 C   0  0  0  0  0  0  0  0  0  0  0  0
  -25.9720  -30.7930   21.3480 C   0  0  0  0  0  2  0  0  0  0  0  0
  -26.0700  -29.4160   20.6960 C   0  0  0  0  0  0  0  0  0  0  0  0
  -27.2580  -28.6190   20.7100 C   0  0  0  0  0  3  0  0  0  0  0  0
  -26.1170  -26.9220   19.4130 C   0  0  0  0  0  3  0  0  0  0  0  0
  -24.9390  -27.6930   19.4170 C   0  0  0  0  0  3  0  0  0  0  0  0
  -23.6600  -29.7880   20.1330 C   0  0  0  0  0  2  0  0  0  0  0  0
  -24.6950  -31.0520   22.0680 N   0  0  0  0  0  0  0  0  0  0  0  0
  -23.5310  -32.1190   23.7050 O   0  0  0  0  0  0  0  0  0  0  0  0
  -22.7760  -29.4270   22.4690 C   0  0  0  0  0  0  0  0  0  0  0  0
  -21.4500  -29.2480   22.3470 N   0  0  0  0  0  0  0  0  0  0  0  0
  -23.4610  -28.7940   23.2770 O   0  0  0  0  0  0  0  0  0  0  0  0
  -20.9560  -29.8190   21.6730 H   0  0  0  0  0  0  0  0  0  0  0  0
  -18.0780  -28.0390   22.8530 C   0  0  0  0  0  0  0  0  0  0  0  0
  -20.6370  -28.2980   23.1100 C   0  0  0  0  0  3  0  0  0  0  0  0
  -20.7390  -26.8740   22.5130 C   0  0  0  0  0  2  0  0  0  0  0  0
  -19.6280  -26.5530   21.5080 C   0  0  0  0  0  2  0  0  0  0  0  0
  -18.2500  -26.6980   22.1580 C   0  0  0  0  0  2  0  0  0  0  0  0
  -19.1980  -28.7950   23.2870 C   0  0  0  0  0  0  0  0  0  0  0  0
  -18.9810  -30.0490   23.8990 C   0  0  0  0  0  3  0  0  0  0  0  0
  -17.6770  -30.5450   24.0800 C   0  0  0  0  0  3  0  0  0  0  0  0
  -16.5710  -29.7870   23.6590 C   0  0  0  0  0  3  0  0  0  0  0  0
  -16.7720  -28.5350   23.0490 C   0  0  0  0  0  3  0  0  0  0  0  0
  -25.8930  -32.4960   23.8030 C   0  0  0  0  0  3  0  0  0  0  0  0
  -25.5700  -33.8920   24.1360 N   0  0  0  0  0  0  0  0  0  0  0  0
  -25.9040  -34.9510   23.3850 C   0  0  0  0  0  0  0  0  0  0  0  0
  -26.5810  -34.8580   22.3590 O   0  0  0  0  0  0  0  0  0  0  0  0
  -24.9670  -34.0430   24.9300 H   0  0  0  0  0  0  0  0  0  0  0  0
  -24.1700  -36.7400   23.0200 C   0  0  0  0  0  1  0  0  0  0  0  0
  -25.4030  -36.3360   23.8440 C   0  0  0  0  0  3  0  0  0  0  0  0
  -27.5250  -37.2260   24.7040 C   0  0  0  0  0  1  0  0  0  0  0  0
  -26.4320  -37.3950   23.7490 N   0  0  0  0  0  0  0  0  0  0  0  0
  -26.0220  -38.3130   23.8940 H   0  0  0  0  0  0  0  0  0  0  0  0
  -26.4110  -31.7240   25.0790 C   0  0  1  0  0  0  0  0  0  0  0  0
  -25.3180  -31.4710   26.1410 C   0  0  0  0  0  1  0  0  0  0  0  0
  -27.0090  -30.3510   24.6870 C   0  0  0  0  0  1  0  0  0  0  0  0
  -27.5530  -32.5250   25.7480 C   0  0  0  0  0  1  0  0  0  0  0  0
  -29.9390  -20.2020   19.8500 C   0  0  0  0  0  2  0  0  0  0  0  0
  -29.8860  -18.7780   20.6470 C   0  0  0  0  0  3  0  0  0  0  0  0
  -30.3190  -17.4000   19.8740 C   0  0  0  0  0  3  0  0  0  0  0  0
  -30.8340  -14.8310   20.0310 C   0  0  0  0  0  0  0  0  0  0  0  0
  -30.4970  -12.6070   18.9100 C   0  0  0  0  0  2  0  0  0  0  0  0
  -29.4880  -12.7290   17.7470 C   0  0  0  0  0  2  0  0  0  0  0  0
  -28.0460  -12.5620   18.2600 C   0  0  0  0  0  2  0  0  0  0  0  0
  -27.7610  -13.3990   19.5330 C   0  0  0  0  0  3  0  0  0  0  0  0
  -28.8850  -13.2370   20.5800 C   0  0  0  0  0  2  0  0  0  0  0  0
  -30.1520  -13.6270   19.9380 N   0  0  0  0  0  0  0  0  0  0  0  0
  -31.9330  -14.9240   19.4740 O   0  0  0  0  0  0  0  0  0  0  0  0
  -29.7920  -16.0290   21.9110 C   0  0  0  0  0  1  0  0  0  0  0  0
  -30.2040  -15.9930   20.5050 N   0  0  0  0  0  0  0  0  0  0  0  0
  -25.4180  -13.9800   20.3990 C   0  0  0  0  0  0  0  0  0  0  0  0
  -24.3700  -13.2040   20.8060 C   0  0  0  0  0  0  0  0  0  0  0  0
  -24.8230  -11.8510   20.7200 C   0  0  0  0  0  0  0  0  0  0  0  0
  -26.4460  -13.1040   20.0910 N   0  0  0  0  0  0  0  0  0  0  0  0
  -26.0970  -11.8150   20.3440 N   0  0  0  0  0  0  0  0  0  0  0  0
  -24.0990  -10.5870   20.9210 C   0  0  0  0  0  0  0  0  0  0  0  0
  -24.5400   -9.6180   21.8480 C   0  0  0  0  0  3  0  0  0  0  0  0
  -23.8110   -8.4230   22.0350 C   0  0  0  0  0  3  0  0  0  0  0  0
  -22.6300   -8.1870   21.2930 C   0  0  0  0  0  0  0  0  0  0  0  0
  -22.2070   -9.1460   20.3540 C   0  0  0  0  0  3  0  0  0  0  0  0
  -22.9370  -10.3320   20.1660 C   0  0  0  0  0  3  0  0  0  0  0  0
  -21.8720   -7.0450   21.3880 O   0  0  0  0  0  0  0  0  0  0  0  0
  -21.7830   -6.3360   22.5600 C   0  0  0  0  0  0  0  0  0  0  0  0
  -21.3260   -6.9320   23.7560 C   0  0  0  0  0  3  0  0  0  0  0  0
  -21.1860   -6.1520   24.9200 C   0  0  0  0  0  3  0  0  0  0  0  0
  -21.4900   -4.7790   24.8890 C   0  0  0  0  0  0  0  0  0  0  0  0
  -21.9410   -4.1820   23.6970 C   0  0  0  0  0  3  0  0  0  0  0  0
  -22.0820   -4.9590   22.5350 C   0  0  0  0  0  0  0  0  0  0  0  0
  -22.4950   -4.3760   21.3840 F   0  0  0  0  0  0  0  0  0  0  0  0
  -21.3500   -4.0260   26.0060 F   0  0  0  0  0  0  0  0  0  0  0  0
  -22.9930  -13.6790   21.1620 C   0  0  0  0  0  0  0  0  0  0  0  0
  -22.3130  -12.9760   22.0590 N   0  0  0  0  0  0  0  0  0  0  0  0
  -22.5320  -14.7130   20.6780 O   0  0  0  0  0  0  0  0  0  0  0  0
  -22.6990  -12.1410   22.4760 H   0  0  0  0  0  0  0  0  0  0  0  0
  -21.3960  -13.2850   22.3460 H   0  0  0  0  0  0  0  0  0  0  0  0
  -25.5830  -15.3540   20.2460 N   0  0  0  0  0  0  0  0  0  0  0  0
  -24.8260  -16.0070   20.4080 H   0  0  0  0  0  0  0  0  0  0  0  0
  -26.4320  -15.8020   19.9210 H   0  0  0  0  0  0  0  0  0  0  0  0
  2 11  1  0
  2  1  1  0
  3  1  2  0
  3  5  1  0
  4  6  1  0
  4  2  2  0
  6  3  1  0
  8  9  1  0
  9  7  1  0
  9  4  1  0
 11 10  1  0
 12 11  1  0
 13 24  2  0
 14 12  1  0
 14 19  1  0
 15 23  1  0
 15 25  1  0
 16 22  1  0
 16 18  1  0
 17 23  1  0
 18 19  2  0
 18 17  1  0
 20 21  1  0
 20 14  2  0
 21 16  2  0
 22 15  1  0
 23 13  1  0
 25 27  2  0
 26 25  1  0
 28 26  1  0
 29 38  2  0
 29 34  1  0
 30 26  1  0
 30 34  1  0
 31 30  1  0
 32 33  1  0
 32 31  1  0
 33 29  1  0
 34 35  2  0
 35 36  1  0
 37 36  2  0
 38 37  1  0
 39 13  1  0
 39 40  1  0
 39 49  1  0
 40 43  1  0
 41 45  1  0
 41 40  1  0
 42 41  2  0
 45 44  1  0
 47 45  1  0
 47 48  1  0
 47 46  1  0
 49 52  1  1
 49 50  1  0
 51 49  1  0
 53  6  1  0
 53 54  1  0
 55 65  1  0
 55 54  2  0
 56 65  1  0
 57 62  1  0
 58 59  1  0
 58 57  1  0
 60 59  1  0
 60 69  1  0
 60 61  1  0
 62 56  1  0
 62 61  1  0
 63 56  2  0
 65 64  1  0
 66 67  2  0
 67 86  1  0
 68 67  1  0
 68 71  1  0
 69 70  1  0
 69 66  1  0
 70 68  2  0
 71 72  1  0
 72 73  2  0
 74 77  1  0
 74 73  1  0
 75 74  2  0
 76 75  1  0
 76 71  2  0
 77 78  1  0
 78 79  1  0
 79 80  2  0
 81 80  1  0
 81 85  1  0
 82 81  2  0
 83 78  2  0
 83 82  1  0
 84 83  1  0
 86 87  1  0
 87 90  1  0
 87 89  1  0
 88 86  2  0
 91 66  1  0
 91 92  1  0
 93 91  1  0
M  ISO  4  11 101  12 101  56 100  65 100
M  END
>  <TORSDO>  (33) 
F 21

>  <SCORE>  (33) 
-13.388

>  <name>  (33) 
32

>  <ligand_id>  (33) 
32

>  <original_smiles>  (33) 
[H]c1c([H])c([H])c2c(c1[H])C([H])([H])C([H])([H])C([H])([H])C2([H])N([H])C(=O)C1([H])N(C(=O)C([H])(N([H])C(=O)C([H])(N([H])C([H])([H])[H])C([H])([H])[H])C(C([H])([H])[H])(C([H])([H])[H])C([H])([H])[H])C([H])([H])c2c([H])c(OC([H])(c3c([H])c(C([H])([H])[H])n(C([H])([H])C([H])([H])C([H])([H])N(C(=O)N4C([H])([H])C([H])([H])C([H])([H])C([H])(n5nc(-c6c([H])c([H])c(Oc7c([H])c([H])c(F)c([H])c7F)c([H])c6[H])c(C(=O)N([H])[H])c5N([H])[H])C4([H])[H])C([H])([H])[H])c3C([H])(C([H])([H])[H])C([H])([H])[H])C([H])([H])[H])c([H])c([H])c2C1([H])[H]

>  <smiles>  (33) 
[H]c1c([H])c([H])c2c(c1[H])C([H])([H])C([H])([H])C([H])([H])C2([H])N([H])C(=O)C1([H])N(C(=O)C([H])(N([H])C(=O)C([H])(N([H])C([H])([H])[H])C([H])([H])[H])C(C([H])([H])[H])(C([H])([H])[H])C([H])([H])[H])C([H])([H])c2c([H])c(OC([H])(c3c([H])c(C([H])([H])[H])n(C([H])([H])C([H])([H])C([H])([H])N(C(=O)N4C([H])([H])C([H])([H])C([H])([H])C([H])(n5nc(-c6c([H])c([H])c(Oc7c([H])c([H])c(F)c([H])c7F)c([H])c6[H])c(C(=O)N([H])[H])c5N([H])[H])C4([H])[H])C([H])([H])[H])c3C([H])(C([H])([H])[H])C([H])([H])[H])C([H])([H])[H])c([H])c([H])c2C1([H])[H]

$$$$
33:0:0
     RDKit          3D

 97105  0  0  1  0  0  0  0  0999 V2000
  -28.1960  -21.1220   20.0910 C   0  0  0  0  0  2  0  0  0  0  0  0
  -29.6920  -22.3690   21.0930 C   0  0  0  0  0  2  0  0  0  0  0  0
  -28.4840  -22.5020   20.4910 C   0  0  0  0  0  3  0  0  0  0  0  0
  -29.1040  -20.1850   20.6230 C   0  0  0  0  0  3  0  0  0  0  0  0
  -30.0020  -21.0270   21.3070 N   0  0  0  0  0  0  0  0  0  0  0  0
  -30.8280  -21.4300   23.5680 C   0  0  0  0  0  1  0  0  0  0  0  0
  -32.4330  -21.0830   21.6090 C   0  0  0  0  0  1  0  0  0  0  0  0
  -31.0820  -20.6930   22.2300 C   0  0  0  0  0  3  0  0  0  0  0  0
  -27.5260  -24.3600   21.9440 C   0  0  0  0  0  1  0  0  0  0  0  0
  -26.2630  -23.5090   19.9620 C   0  0  0  0  0  1  0  0  0  0  0  0
  -27.6770  -23.8790   20.4740 C   0  0  2  0  0  0  0  0  0  0  0  0
  -28.3680  -25.1140   19.6650 C   0  0  0  0  0  2  0  0  0  0  0  0
  -28.3790  -26.5640   20.0650 O   0  0  0  0  0  0  0  0  0  0  0  0
  -24.6750  -31.9080   23.2270 C   0  0  0  0  0  0  0  0  0  0  0  0
  -27.2850  -27.4430   19.9980 C   0  0  0  0  0  0  0  0  0  0  0  0
  -23.4760  -30.5530   21.5500 C   0  0  0  0  0  3  0  0  0  0  0  0
  -24.9230  -29.0500   20.0600 C   0  0  0  0  0  0  0  0  0  0  0  0
  -26.0100  -30.8830   21.3760 C   0  0  0  0  0  2  0  0  0  0  0  0
  -26.0910  -29.5240   20.6740 C   0  0  0  0  0  0  0  0  0  0  0  0
  -27.2720  -28.7190   20.6470 C   0  0  0  0  0  3  0  0  0  0  0  0
  -26.1250  -27.0630   19.3070 C   0  0  0  0  0  3  0  0  0  0  0  0
  -24.9410  -27.8240   19.3730 C   0  0  0  0  0  3  0  0  0  0  0  0
  -23.6840  -29.9230   20.1500 C   0  0  0  0  0  2  0  0  0  0  0  0
  -24.7390  -31.1260   22.1100 N   0  0  0  0  0  0  0  0  0  0  0  0
  -23.5890  -32.1680   23.7720 O   0  0  0  0  0  0  0  0  0  0  0  0
  -22.8230  -29.5020   22.4800 C   0  0  0  0  0  0  0  0  0  0  0  0
  -21.4990  -29.3250   22.3460 N   0  0  0  0  0  0  0  0  0  0  0  0
  -23.5080  -28.8580   23.2770 O   0  0  0  0  0  0  0  0  0  0  0  0
  -21.0100  -29.8930   21.6710 H   0  0  0  0  0  0  0  0  0  0  0  0
  -18.1230  -28.1270   22.8460 C   0  0  0  0  0  0  0  0  0  0  0  0
  -20.6860  -28.3630   23.0910 C   0  0  0  0  0  3  0  0  0  0  0  0
  -20.7750  -26.9570   22.4570 C   0  0  0  0  0  2  0  0  0  0  0  0
  -19.6570  -26.6770   21.4460 C   0  0  0  0  0  2  0  0  0  0  0  0
  -18.2840  -26.8050   22.1130 C   0  0  0  0  0  2  0  0  0  0  0  0
  -19.2530  -28.8650   23.2920 C   0  0  0  0  0  0  0  0  0  0  0  0
  -19.0490  -30.1040   23.9370 C   0  0  0  0  0  3  0  0  0  0  0  0
  -17.7500  -30.6080   24.1390 C   0  0  0  0  0  3  0  0  0  0  0  0
  -16.6350  -29.8640   23.7110 C   0  0  0  0  0  3  0  0  0  0  0  0
  -16.8230  -28.6270   23.0730 C   0  0  0  0  0  3  0  0  0  0  0  0
  -25.9560  -32.5300   23.8630 C   0  0  0  0  0  3  0  0  0  0  0  0
  -25.6450  -33.9230   24.2130 N   0  0  0  0  0  0  0  0  0  0  0  0
  -25.9760  -34.9850   23.4700 C   0  0  0  0  0  0  0  0  0  0  0  0
  -26.6480  -34.8970   22.4380 O   0  0  0  0  0  0  0  0  0  0  0  0
  -25.0390  -34.0680   25.0080 H   0  0  0  0  0  0  0  0  0  0  0  0
  -24.2490  -36.7790   23.1350 C   0  0  0  0  0  1  0  0  0  0  0  0
  -25.4870  -36.3660   23.9460 C   0  0  0  0  0  3  0  0  0  0  0  0
  -27.6120  -37.2370   24.8070 C   0  0  0  0  0  1  0  0  0  0  0  0
  -26.5190  -37.4220   23.8560 N   0  0  0  0  0  0  0  0  0  0  0  0
  -26.1110  -38.3400   24.0160 H   0  0  0  0  0  0  0  0  0  0  0  0
  -26.4620  -31.7370   25.1310 C   0  0  1  0  0  0  0  0  0  0  0  0
  -25.3560  -31.4760   26.1810 C   0  0  0  0  0  1  0  0  0  0  0  0
  -27.0530  -30.3670   24.7240 C   0  0  0  0  0  1  0  0  0  0  0  0
  -27.6090  -32.5220   25.8110 C   0  0  0  0  0  1  0  0  0  0  0  0
  -29.0680  -18.5830   20.7730 C   0  0  0  0  0  3  0  0  0  0  0  0
  -27.7080  -18.1290   20.4520 N   0  0  0  0  0  4  0  0  0  0  0  0
  -27.5860  -18.0450   19.4580 H   0  0  0  0  0  0  0  0  0  0  0  0
  -27.0460  -18.7950   20.8090 H   0  0  0  0  0  0  0  0  0  0  0  0
  -27.5090  -17.2550   20.9000 H   0  0  0  0  0  0  0  0  0  0  0  0
  -30.1680  -17.5070   20.1880 C   0  0  0  0  0  2  0  0  0  0  0  0
  -30.7400  -14.8860   19.9700 C   0  0  0  0  0  0  0  0  0  0  0  0
  -30.5530  -12.5890   18.9680 C   0  0  0  0  0  2  0  0  0  0  0  0
  -29.5590  -12.6590   17.7920 C   0  0  0  0  0  2  0  0  0  0  0  0
  -28.0970  -12.5190   18.2640 C   0  0  0  0  0  2  0  0  0  0  0  0
  -27.7930  -13.3620   19.5330 C   0  0  0  0  0  3  0  0  0  0  0  0
  -28.9090  -13.2480   20.6010 C   0  0  0  0  0  2  0  0  0  0  0  0
  -30.1610  -13.6350   19.9510 N   0  0  0  0  0  0  0  0  0  0  0  0
  -31.8740  -15.0420   19.5070 O   0  0  0  0  0  0  0  0  0  0  0  0
  -29.9450  -15.9770   20.3380 N   0  0  0  0  0  0  0  0  0  0  0  0
  -29.0550  -15.6780   20.7140 H   0  0  0  0  0  0  0  0  0  0  0  0
  -25.4640  -13.9480   20.4430 C   0  0  0  0  0  0  0  0  0  0  0  0
  -24.4170  -13.1720   20.8610 C   0  0  0  0  0  0  0  0  0  0  0  0
  -24.8590  -11.8190   20.7460 C   0  0  0  0  0  0  0  0  0  0  0  0
  -26.4770  -13.0680   20.0950 N   0  0  0  0  0  0  0  0  0  0  0  0
  -26.1220  -11.7800   20.3370 N   0  0  0  0  0  0  0  0  0  0  0  0
  -24.1330  -10.5570   20.9480 C   0  0  0  0  0  0  0  0  0  0  0  0
  -24.5780   -9.5840   21.8680 C   0  0  0  0  0  3  0  0  0  0  0  0
  -23.8570   -8.3820   22.0540 C   0  0  0  0  0  3  0  0  0  0  0  0
  -22.6690   -8.1510   21.3150 C   0  0  0  0  0  0  0  0  0  0  0  0
  -22.2440   -9.1100   20.3870 C   0  0  0  0  0  3  0  0  0  0  0  0
  -22.9650  -10.3040   20.2000 C   0  0  0  0  0  3  0  0  0  0  0  0
  -21.9110   -7.0110   21.4140 O   0  0  0  0  0  0  0  0  0  0  0  0
  -21.8330   -6.2960   22.5840 C   0  0  0  0  0  0  0  0  0  0  0  0
  -21.3270   -6.8670   23.7720 C   0  0  0  0  0  3  0  0  0  0  0  0
  -21.1910   -6.0780   24.9320 C   0  0  0  0  0  3  0  0  0  0  0  0
  -21.5560   -4.7190   24.9050 C   0  0  0  0  0  0  0  0  0  0  0  0
  -22.0490   -4.1450   23.7180 C   0  0  0  0  0  3  0  0  0  0  0  0
  -22.1850   -4.9310   22.5630 C   0  0  0  0  0  0  0  0  0  0  0  0
  -22.6470   -4.3700   21.4200 F   0  0  0  0  0  0  0  0  0  0  0  0
  -21.4180   -3.9550   26.0150 F   0  0  0  0  0  0  0  0  0  0  0  0
  -23.0520  -13.6580   21.2370 C   0  0  0  0  0  0  0  0  0  0  0  0
  -22.3740  -12.9440   22.1310 N   0  0  0  0  0  0  0  0  0  0  0  0
  -22.5990  -14.7020   20.7720 O   0  0  0  0  0  0  0  0  0  0  0  0
  -22.7640  -12.1030   22.5320 H   0  0  0  0  0  0  0  0  0  0  0  0
  -21.4520  -13.2470   22.4150 H   0  0  0  0  0  0  0  0  0  0  0  0
  -25.6370  -15.3200   20.2860 N   0  0  0  0  0  0  0  0  0  0  0  0
  -24.7590  -15.8300   20.2540 H   0  0  0  0  0  0  0  0  0  0  0  0
  -26.2130  -15.5520   19.4900 H   0  0  0  0  0  0  0  0  0  0  0  0
  1  3  1  0
  1  4  1  0
  2  5  1  0
  3 11  1  0
  3  2  1  0
  4 54  1  0
  4  5  1  0
  5  8  1  0
  7  8  1  0
  8  6  1  0
 11 10  1  6
 11  9  1  0
 12 13  1  0
 12 11  1  0
 14 25  2  0
 15 13  1  0
 15 20  1  0
 16 24  1  0
 16 26  1  0
 17 23  1  0
 17 19  1  0
 18 24  1  0
 19 18  1  0
 20 19  2  0
 21 22  1  0
 21 15  2  0
 22 17  2  0
 23 16  1  0
 24 14  1  0
 26 28  2  0
 27 26  1  0
 29 27  1  0
 30 39  2  0
 30 35  1  0
 31 27  1  0
 31 35  1  0
 32 31  1  0
 33 34  1  0
 33 32  1  0
 34 30  1  0
 35 36  2  0
 36 37  1  0
 38 37  2  0
 39 38  1  0
 40 14  1  0
 40 41  1  0
 40 50  1  0
 41 44  1  0
 42 46  1  0
 42 41  1  0
 43 42  2  0
 46 45  1  0
 48 46  1  0
 48 49  1  0
 48 47  1  0
 50 53  1  1
 50 51  1  0
 52 50  1  0
 54 59  1  0
 55 54  1  0
 55 57  1  0
 55 58  1  0
 56 55  1  0
 59 68  1  0
 60 68  1  0
 61 66  1  0
 62 63  1  0
 62 61  1  0
 64 63  1  0
 64 73  1  0
 64 65  1  0
 66 60  1  0
 66 65  1  0
 67 60  2  0
 68 69  1  0
 70 71  2  0
 71 90  1  0
 72 71  1  0
 72 75  1  0
 73 74  1  0
 73 70  1  0
 74 72  2  0
 75 76  1  0
 76 77  2  0
 78 81  1  0
 78 77  1  0
 79 78  2  0
 80 79  1  0
 80 75  2  0
 81 82  1  0
 82 83  1  0
 83 84  2  0
 85 84  1  0
 85 89  1  0
 86 85  2  0
 87 82  2  0
 87 86  1  0
 88 87  1  0
 90 91  1  0
 91 94  1  0
 91 93  1  0
 92 90  2  0
 95 70  1  0
 96 95  1  0
 97 95  1  0
M  ISO  4  12 101  13 101  60 100  68 100
M  END
>  <TORSDO>  (34) 
F 22

>  <SCORE>  (34) 
-13.570

>  <name>  (34) 
33

>  <ligand_id>  (34) 
33

>  <original_smiles>  (34) 
[H]c1c([H])c([H])c2c(c1[H])C([H])([H])C([H])([H])C([H])([H])C2([H])N([H])C(=O)C1([H])N(C(=O)C([H])(N([H])C(=O)C([H])(N([H])C([H])([H])[H])C([H])([H])[H])C(C([H])([H])[H])(C([H])([H])[H])C([H])([H])[H])C([H])([H])c2c([H])c(OC([H])([H])C(c3c([H])c(C([H])(C([H])([H])N([H])C(=O)N4C([H])([H])C([H])([H])C([H])([H])C([H])(n5nc(-c6c([H])c([H])c(Oc7c([H])c([H])c(F)c([H])c7F)c([H])c6[H])c(C(=O)N([H])[H])c5N([H])[H])C4([H])[H])[N+]([H])([H])[H])n(C([H])(C([H])([H])[H])C([H])([H])[H])c3[H])(C([H])([H])[H])C([H])([H])[H])c([H])c([H])c2C1([H])[H]

>  <smiles>  (34) 
[H]c1c([H])c([H])c2c(c1[H])C([H])([H])C([H])([H])C([H])([H])C2([H])N([H])C(=O)C1([H])N(C(=O)C([H])(N([H])C(=O)C([H])(N([H])C([H])([H])[H])C([H])([H])[H])C(C([H])([H])[H])(C([H])([H])[H])C([H])([H])[H])C([H])([H])c2c([H])c(OC([H])([H])C(c3c([H])c(C([H])(C([H])([H])N([H])C(=O)N4C([H])([H])C([H])([H])C([H])([H])C([H])(n5nc(-c6c([H])c([H])c(Oc7c([H])c([H])c(F)c([H])c7F)c([H])c6[H])c(C(=O)N([H])[H])c5N([H])[H])C4([H])[H])[N+]([H])([H])[H])n(C([H])(C([H])([H])[H])C([H])([H])[H])c3[H])(C([H])([H])[H])C([H])([H])[H])c([H])c([H])c2C1([H])[H]

$$$$
34:0:0
     RDKit          3D

 93101  0  0  1  0  0  0  0  0999 V2000
  -28.2060  -18.0750   20.1180 C   0  0  0  0  0  2  0  0  0  0  0  0
  -29.9590  -19.1700   18.4000 C   0  0  0  0  0  2  0  0  0  0  0  0
  -27.8660  -19.5970   20.3210 C   0  0  0  0  0  2  0  0  0  0  0  0
  -29.3020  -17.6470   19.0760 C   0  0  0  0  0  3  0  0  0  0  0  0
  -29.2010  -20.7570   18.5420 C   0  0  0  0  0  3  0  0  0  0  0  0
  -29.0240  -20.4830   20.0100 N   0  0  1  0  0  4  0  0  0  0  0  0
  -29.5910  -19.6620   19.8610 H   0  0  0  0  0  0  0  0  0  0  0  0
  -30.5970  -14.9620   19.3910 C   0  0  0  0  0  0  0  0  0  0  0  0
  -30.4680  -12.4450   18.7860 C   0  0  0  0  0  2  0  0  0  0  0  0
  -29.4560  -12.1190   17.6590 C   0  0  0  0  0  2  0  0  0  0  0  0
  -28.0510  -11.9000   18.2410 C   0  0  0  0  0  2  0  0  0  0  0  0
  -27.6950  -12.9740   19.3000 C   0  0  0  0  0  3  0  0  0  0  0  0
  -28.8260  -13.2590   20.3120 C   0  0  0  0  0  2  0  0  0  0  0  0
  -30.0050  -13.6760   19.5360 N   0  0  0  0  0  0  0  0  0  0  0  0
  -31.7540  -14.9000   18.9540 O   0  0  0  0  0  0  0  0  0  0  0  0
  -30.0320  -16.2920   19.7220 N   0  0  0  0  0  0  0  0  0  0  0  0
  -30.7080  -16.6520   20.3830 H   0  0  0  0  0  0  0  0  0  0  0  0
  -25.4830  -13.6190   20.3860 C   0  0  0  0  0  0  0  0  0  0  0  0
  -24.4240  -12.8840   20.8370 C   0  0  0  0  0  0  0  0  0  0  0  0
  -24.7810  -11.5140   20.6510 C   0  0  0  0  0  0  0  0  0  0  0  0
  -26.4220  -12.7010   19.9530 N   0  0  0  0  0  0  0  0  0  0  0  0
  -26.0190  -11.4220   20.1740 N   0  0  0  0  0  0  0  0  0  0  0  0
  -23.9900  -10.2890   20.8410 C   0  0  0  0  0  0  0  0  0  0  0  0
  -24.3700   -9.3010   21.7730 C   0  0  0  0  0  3  0  0  0  0  0  0
  -23.5820   -8.1450   21.9540 C   0  0  0  0  0  3  0  0  0  0  0  0
  -22.3990   -7.9690   21.2010 C   0  0  0  0  0  0  0  0  0  0  0  0
  -22.0360   -8.9450   20.2540 C   0  0  0  0  0  3  0  0  0  0  0  0
  -22.8260  -10.0910   20.0720 C   0  0  0  0  0  3  0  0  0  0  0  0
  -21.5820   -6.8670   21.2930 O   0  0  0  0  0  0  0  0  0  0  0  0
  -21.3930   -6.2090   22.4810 C   0  0  0  0  0  0  0  0  0  0  0  0
  -20.8570   -6.8550   23.6160 C   0  0  0  0  0  3  0  0  0  0  0  0
  -20.6170   -6.1200   24.7950 C   0  0  0  0  0  3  0  0  0  0  0  0
  -20.9030   -4.7420   24.8380 C   0  0  0  0  0  0  0  0  0  0  0  0
  -21.4320   -4.0980   23.7070 C   0  0  0  0  0  3  0  0  0  0  0  0
  -21.6740   -4.8280   22.5300 C   0  0  0  0  0  0  0  0  0  0  0  0
  -22.1630   -4.1970   21.4360 F   0  0  0  0  0  0  0  0  0  0  0  0
  -20.6660   -4.0360   25.9680 F   0  0  0  0  0  0  0  0  0  0  0  0
  -23.1110  -13.4320   21.3120 C   0  0  0  0  0  0  0  0  0  0  0  0
  -22.4530  -12.7330   22.2270 N   0  0  0  0  0  0  0  0  0  0  0  0
  -22.6840  -14.5120   20.9050 O   0  0  0  0  0  0  0  0  0  0  0  0
  -22.8190  -11.8610   22.5780 H   0  0  0  0  0  0  0  0  0  0  0  0
  -21.5710  -13.0740   22.5830 H   0  0  0  0  0  0  0  0  0  0  0  0
  -25.7140  -14.9840   20.2750 N   0  0  0  0  0  0  0  0  0  0  0  0
  -24.9880  -15.6630   20.4820 H   0  0  0  0  0  0  0  0  0  0  0  0
  -26.5140  -15.3750   19.7980 H   0  0  0  0  0  0  0  0  0  0  0  0
  -31.2730  -21.6000   20.6130 C   0  0  0  0  0  1  0  0  0  0  0  0
  -29.3180  -21.7410   22.2150 C   0  0  0  0  0  1  0  0  0  0  0  0
  -30.5000  -19.5860   21.8230 C   0  0  0  0  0  1  0  0  0  0  0  0
  -29.9960  -20.8720   21.1190 C   0  0  1  0  0  0  0  0  0  0  0  0
  -29.0500  -23.3670   19.3680 C   0  0  0  0  0  1  0  0  0  0  0  0
  -29.4720  -22.5330   18.1280 C   0  0  0  0  0  3  0  0  0  0  0  0
  -28.8210  -23.7540   17.0030 C   0  0  0  0  0  2  0  0  0  0  0  0
  -28.6220  -25.3810   17.0920 O   0  0  0  0  0  0  0  0  0  0  0  0
  -24.9170  -29.8180   21.8630 C   0  0  0  0  0  0  0  0  0  0  0  0
  -27.4590  -26.2550   17.3880 C   0  0  0  0  0  0  0  0  0  0  0  0
  -23.6190  -28.6680   20.1120 C   0  0  0  0  0  3  0  0  0  0  0  0
  -24.9730  -27.6810   18.1350 C   0  0  0  0  0  0  0  0  0  0  0  0
  -26.0700  -29.3150   19.6570 C   0  0  0  0  0  2  0  0  0  0  0  0
  -26.1910  -28.1250   18.6660 C   0  0  0  0  0  0  0  0  0  0  0  0
  -27.4180  -27.4350   18.2740 C   0  0  0  0  0  3  0  0  0  0  0  0
  -26.1890  -25.9540   16.8450 C   0  0  0  0  0  3  0  0  0  0  0  0
  -24.9900  -26.6250   17.2040 C   0  0  0  0  0  3  0  0  0  0  0  0
  -23.6790  -28.3580   18.5880 C   0  0  0  0  0  2  0  0  0  0  0  0
  -24.8960  -29.2820   20.6000 N   0  0  0  0  0  0  0  0  0  0  0  0
  -23.9130  -29.8050   22.5920 O   0  0  0  0  0  0  0  0  0  0  0  0
  -23.2310  -27.3790   20.8810 C   0  0  0  0  0  0  0  0  0  0  0  0
  -21.9410  -26.9970   20.8380 N   0  0  0  0  0  0  0  0  0  0  0  0
  -24.0920  -26.7350   21.4850 O   0  0  0  0  0  0  0  0  0  0  0  0
  -21.2900  -27.5800   20.3310 H   0  0  0  0  0  0  0  0  0  0  0  0
  -18.9110  -25.0480   21.2650 C   0  0  0  0  0  0  0  0  0  0  0  0
  -21.3860  -25.7820   21.4430 C   0  0  0  0  0  3  0  0  0  0  0  0
  -21.7060  -24.5380   20.5830 C   0  0  0  0  0  2  0  0  0  0  0  0
  -20.5970  -24.1920   19.5840 C   0  0  0  0  0  2  0  0  0  0  0  0
  -19.2780  -23.9220   20.3140 C   0  0  0  0  0  2  0  0  0  0  0  0
  -19.8960  -25.9320   21.7820 C   0  0  0  0  0  0  0  0  0  0  0  0
  -19.4920  -26.9820   22.6360 C   0  0  0  0  0  3  0  0  0  0  0  0
  -18.1370  -27.1560   22.9750 C   0  0  0  0  0  3  0  0  0  0  0  0
  -17.1680  -26.2690   22.4730 C   0  0  0  0  0  3  0  0  0  0  0  0
  -17.5580  -25.2160   21.6270 C   0  0  0  0  0  3  0  0  0  0  0  0
  -26.1990  -30.4860   22.4490 C   0  0  0  0  0  3  0  0  0  0  0  0
  -27.0890  -29.4860   23.2880 C   0  0  1  0  0  0  0  0  0  0  0  0
  -26.3080  -28.7190   24.3820 C   0  0  0  0  0  1  0  0  0  0  0  0
  -27.7590  -28.4410   22.3660 C   0  0  0  0  0  1  0  0  0  0  0  0
  -28.2330  -30.2600   23.9850 C   0  0  0  0  0  1  0  0  0  0  0  0
  -25.7770  -31.6130   23.2970 N   0  0  0  0  0  0  0  0  0  0  0  0
  -25.8520  -32.9050   22.9530 C   0  0  0  0  0  0  0  0  0  0  0  0
  -26.3520  -33.2820   21.8890 O   0  0  0  0  0  0  0  0  0  0  0  0
  -25.3250  -31.3740   24.1660 H   0  0  0  0  0  0  0  0  0  0  0  0
  -23.9120  -34.4290   23.4480 C   0  0  0  0  0  1  0  0  0  0  0  0
  -25.2850  -33.9450   23.9390 C   0  0  0  0  0  3  0  0  0  0  0  0
  -27.4030  -34.7760   24.8660 C   0  0  0  0  0  1  0  0  0  0  0  0
  -26.1750  -35.1080   24.1480 N   0  0  0  0  0  0  0  0  0  0  0  0
  -25.6960  -35.8420   24.6610 H   0  0  0  0  0  0  0  0  0  0  0  0
  1  3  1  0
  2  5  1  0
  2  4  1  0
  4 16  1  0
  4  1  1  0
  5 51  1  0
  5  6  1  0
  6  3  1  0
  6 49  1  0
  6  7  1  1
  8 14  1  0
  8 16  1  0
  9 14  1  0
 10 11  1  0
 10  9  1  0
 12 11  1  0
 12 21  1  0
 12 13  1  0
 14 13  1  0
 15  8  2  0
 16 17  1  0
 18 19  2  0
 19 38  1  0
 20 19  1  0
 20 23  1  0
 21 22  1  0
 21 18  1  0
 22 20  2  0
 23 24  1  0
 24 25  2  0
 26 29  1  0
 26 25  1  0
 27 26  2  0
 28 27  1  0
 28 23  2  0
 29 30  1  0
 30 35  2  0
 30 31  1  0
 31 32  2  0
 32 33  1  0
 33 37  1  0
 34 33  2  0
 35 34  1  0
 36 35  1  0
 38 39  1  0
 39 41  1  0
 39 42  1  0
 40 38  2  0
 43 18  1  0
 43 44  1  0
 45 43  1  0
 49 46  1  6
 49 48  1  0
 49 47  1  0
 51 50  1  0
 52 53  1  0
 52 51  1  0
 53 55  1  0
 54 65  2  0
 55 60  1  0
 56 64  1  0
 56 66  1  0
 57 63  1  0
 57 59  1  0
 58 64  1  0
 59 58  1  0
 60 59  2  0
 61 62  1  0
 61 55  2  0
 62 57  2  0
 63 56  1  0
 64 54  1  0
 66 68  2  0
 67 66  1  0
 69 67  1  0
 70 79  2  0
 70 75  1  0
 71 67  1  0
 71 75  1  0
 72 71  1  0
 73 74  1  0
 73 72  1  0
 74 70  1  0
 75 76  2  0
 76 77  1  0
 78 77  2  0
 79 78  1  0
 80 54  1  0
 80 81  1  0
 80 85  1  0
 81 84  1  1
 81 82  1  0
 83 81  1  0
 85 88  1  0
 86 85  1  0
 86 90  1  0
 87 86  2  0
 90 89  1  0
 90 92  1  0
 92 93  1  0
 92 91  1  0
M  ISO  4   8 100  16 100  52 101  53 101
M  END
>  <TORSDO>  (35) 
F 19

>  <SCORE>  (35) 
-10.047

>  <name>  (35) 
34

>  <ligand_id>  (35) 
34

>  <original_smiles>  (35) 
[H]c1c([H])c([H])c2c(c1[H])C([H])([H])C([H])([H])C([H])([H])C2([H])N([H])C(=O)C1([H])N(C(=O)C([H])(N([H])C(=O)C([H])(N([H])C([H])([H])[H])C([H])([H])[H])C(C([H])([H])[H])(C([H])([H])[H])C([H])([H])[H])C([H])([H])c2c([H])c(OC([H])([H])C([H])(C([H])([H])[H])C3([H])C([H])([H])C([H])(N([H])C(=O)N4C([H])([H])C([H])([H])C([H])([H])C([H])(n5nc(-c6c([H])c([H])c(Oc7c([H])c([H])c(F)c([H])c7F)c([H])c6[H])c(C(=O)N([H])[H])c5N([H])[H])C4([H])[H])C([H])([H])C([H])([H])[N+]3([H])C(C([H])([H])[H])(C([H])([H])[H])C([H])([H])[H])c([H])c([H])c2C1([H])[H]

>  <smiles>  (35) 
[H]c1c([H])c([H])c2c(c1[H])C([H])([H])C([H])([H])C([H])([H])C2([H])N([H])C(=O)C1([H])N(C(=O)C([H])(N([H])C(=O)C([H])(N([H])C([H])([H])[H])C([H])([H])[H])C(C([H])([H])[H])(C([H])([H])[H])C([H])([H])[H])C([H])([H])c2c([H])c(OC([H])([H])C([H])(C([H])([H])[H])C3([H])C([H])([H])C([H])(N([H])C(=O)N4C([H])([H])C([H])([H])C([H])([H])C([H])(n5nc(-c6c([H])c([H])c(Oc7c([H])c([H])c(F)c([H])c7F)c([H])c6[H])c(C(=O)N([H])[H])c5N([H])[H])C4([H])[H])C([H])([H])C([H])([H])[N+]3([H])C(C([H])([H])[H])(C([H])([H])[H])C([H])([H])[H])c([H])c([H])c2C1([H])[H]

$$$$
35:0:0
     RDKit          3D

 91 99  0  0  1  0  0  0  0  0999 V2000
  -30.6370  -21.5570   20.3560 C   0  0  0  0  0  2  0  0  0  0  0  0
  -30.7380  -20.1320   18.3910 C   0  0  0  0  0  3  0  0  0  0  0  0
  -31.3780  -21.0470   19.2630 C   0  0  0  0  0  0  0  0  0  0  0  0
  -29.2750  -21.2080   20.3860 C   0  0  0  0  0  3  0  0  0  0  0  0
  -29.1650  -19.7020   19.9630 C   0  0  0  0  0  3  0  0  0  0  0  0
  -29.5530  -19.5460   18.6840 N   0  0  0  0  0  2  0  0  0  0  0  0
  -33.6730  -21.7300   20.1340 C   0  0  0  0  0  1  0  0  0  0  0  0
  -32.6240  -22.9420   18.1660 C   0  0  0  0  0  1  0  0  0  0  0  0
  -32.7510  -21.6040   18.9090 C   0  0  0  0  0  3  0  0  0  0  0  0
  -28.4320  -22.6850   19.9520 C   0  0  0  0  0  2  0  0  0  0  0  0
  -28.2930  -24.3370   20.6820 C   0  0  0  0  0  2  0  0  0  0  0  0
  -28.2850  -25.9290   20.2280 O   0  0  0  0  0  0  0  0  0  0  0  0
  -24.6470  -31.8780   23.2250 C   0  0  0  0  0  0  0  0  0  0  0  0
  -27.2310  -26.9810   20.2730 C   0  0  0  0  0  0  0  0  0  0  0  0
  -23.4650  -30.4670   21.5910 C   0  0  0  0  0  3  0  0  0  0  0  0
  -24.9240  -28.8470   20.1990 C   0  0  0  0  0  0  0  0  0  0  0  0
  -26.0310  -30.6850   21.4530 C   0  0  0  0  0  2  0  0  0  0  0  0
  -26.1080  -29.2670   20.8160 C   0  0  0  0  0  0  0  0  0  0  0  0
  -27.2610  -28.3580   20.8170 C   0  0  0  0  0  3  0  0  0  0  0  0
  -26.0100  -26.7050   19.6200 C   0  0  0  0  0  3  0  0  0  0  0  0
  -24.8980  -27.5860   19.5830 C   0  0  0  0  0  3  0  0  0  0  0  0
  -23.7040  -29.7690   20.2240 C   0  0  0  0  0  2  0  0  0  0  0  0
  -24.7360  -31.0380   22.1430 N   0  0  0  0  0  0  0  0  0  0  0  0
  -23.5540  -32.1700   23.7380 O   0  0  0  0  0  0  0  0  0  0  0  0
  -22.7680  -29.4770   22.5620 C   0  0  0  0  0  0  0  0  0  0  0  0
  -21.4380  -29.3110   22.4330 N   0  0  0  0  0  0  0  0  0  0  0  0
  -23.4300  -28.8590   23.3990 O   0  0  0  0  0  0  0  0  0  0  0  0
  -20.9580  -29.8580   21.7330 H   0  0  0  0  0  0  0  0  0  0  0  0
  -18.0560  -28.1000   22.9350 C   0  0  0  0  0  0  0  0  0  0  0  0
  -20.6130  -28.3760   23.2060 C   0  0  0  0  0  3  0  0  0  0  0  0
  -20.7220  -26.9400   22.6430 C   0  0  0  0  0  2  0  0  0  0  0  0
  -19.6240  -26.6070   21.6270 C   0  0  0  0  0  2  0  0  0  0  0  0
  -18.2400  -26.7480   22.2650 C   0  0  0  0  0  2  0  0  0  0  0  0
  -19.1700  -28.8710   23.3630 C   0  0  0  0  0  0  0  0  0  0  0  0
  -18.9410  -30.1330   23.9530 C   0  0  0  0  0  3  0  0  0  0  0  0
  -17.6320  -30.6250   24.1170 C   0  0  0  0  0  3  0  0  0  0  0  0
  -16.5330  -29.8520   23.7030 C   0  0  0  0  0  3  0  0  0  0  0  0
  -16.7460  -28.5900   23.1190 C   0  0  0  0  0  3  0  0  0  0  0  0
  -25.9130  -32.5300   23.8600 C   0  0  0  0  0  3  0  0  0  0  0  0
  -26.4090  -31.7790   25.1580 C   0  0  1  0  0  0  0  0  0  0  0  0
  -25.3020  -31.5600   26.2150 C   0  0  0  0  0  1  0  0  0  0  0  0
  -26.9970  -30.3920   24.8040 C   0  0  0  0  0  1  0  0  0  0  0  0
  -27.5520  -32.5820   25.8220 C   0  0  0  0  0  1  0  0  0  0  0  0
  -25.5910  -33.9320   24.1790 N   0  0  0  0  0  0  0  0  0  0  0  0
  -25.9270  -34.9880   23.4250 C   0  0  0  0  0  0  0  0  0  0  0  0
  -26.6030  -34.8830   22.3990 O   0  0  0  0  0  0  0  0  0  0  0  0
  -24.9890  -34.0860   24.9750 H   0  0  0  0  0  0  0  0  0  0  0  0
  -24.2000  -36.7870   23.0660 C   0  0  0  0  0  1  0  0  0  0  0  0
  -25.4380  -36.3790   23.8810 C   0  0  0  0  0  3  0  0  0  0  0  0
  -27.5680  -37.2710   24.7200 C   0  0  0  0  0  1  0  0  0  0  0  0
  -26.4720  -37.4330   23.7690 N   0  0  0  0  0  0  0  0  0  0  0  0
  -26.0650  -38.3530   23.9090 H   0  0  0  0  0  0  0  0  0  0  0  0
  -29.7830  -18.2150   20.6500 C   0  0  0  0  0  2  0  0  0  0  0  0
  -30.3550  -15.3220   20.2590 C   0  0  0  0  0  0  0  0  0  0  0  0
  -30.3410  -12.8820   19.3510 C   0  0  0  0  0  2  0  0  0  0  0  0
  -29.4100  -12.6580   18.1340 C   0  0  0  0  0  2  0  0  0  0  0  0
  -27.9670  -12.3810   18.5910 C   0  0  0  0  0  2  0  0  0  0  0  0
  -27.5180  -13.3460   19.7160 C   0  0  0  0  0  3  0  0  0  0  0  0
  -28.5750  -13.5010   20.8280 C   0  0  0  0  0  2  0  0  0  0  0  0
  -29.7890  -14.0190   20.1740 N   0  0  0  0  0  0  0  0  0  0  0  0
  -31.5850  -15.3190   20.1040 O   0  0  0  0  0  0  0  0  0  0  0  0
  -29.5790  -16.5860   20.3200 N   0  0  0  0  0  0  0  0  0  0  0  0
  -28.5940  -16.3810   20.2530 H   0  0  0  0  0  0  0  0  0  0  0  0
  -25.1520  -13.8960   20.4870 C   0  0  0  0  0  0  0  0  0  0  0  0
  -24.0960  -13.1150   20.8630 C   0  0  0  0  0  0  0  0  0  0  0  0
  -24.5680  -11.7670   20.8310 C   0  0  0  0  0  0  0  0  0  0  0  0
  -26.1970  -13.0250   20.2370 N   0  0  0  0  0  0  0  0  0  0  0  0
  -25.8590  -11.7380   20.5140 N   0  0  0  0  0  0  0  0  0  0  0  0
  -23.8470  -10.5020   21.0230 C   0  0  0  0  0  0  0  0  0  0  0  0
  -24.2790   -9.5380   21.9590 C   0  0  0  0  0  3  0  0  0  0  0  0
  -23.5550   -8.3410   22.1400 C   0  0  0  0  0  3  0  0  0  0  0  0
  -22.3830   -8.0980   21.3840 C   0  0  0  0  0  0  0  0  0  0  0  0
  -21.9690   -9.0510   20.4380 C   0  0  0  0  0  3  0  0  0  0  0  0
  -22.6950  -10.2400   20.2540 C   0  0  0  0  0  3  0  0  0  0  0  0
  -21.6300   -6.9510   21.4750 O   0  0  0  0  0  0  0  0  0  0  0  0
  -21.5780   -6.2140   22.6310 C   0  0  0  0  0  0  0  0  0  0  0  0
  -21.1390   -6.7710   23.8520 C   0  0  0  0  0  3  0  0  0  0  0  0
  -21.0340   -5.9610   24.9990 C   0  0  0  0  0  3  0  0  0  0  0  0
  -21.3590   -4.5930   24.9270 C   0  0  0  0  0  0  0  0  0  0  0  0
  -21.7920   -4.0350   23.7110 C   0  0  0  0  0  3  0  0  0  0  0  0
  -21.8990   -4.8430   22.5660 C   0  0  0  0  0  0  0  0  0  0  0  0
  -22.2960   -4.2960   21.3920 F   0  0  0  0  0  0  0  0  0  0  0  0
  -21.2530   -3.8110   26.0270 F   0  0  0  0  0  0  0  0  0  0  0  0
  -22.6970  -13.5870   21.1330 C   0  0  0  0  0  0  0  0  0  0  0  0
  -21.9680  -12.8880   21.9940 N   0  0  0  0  0  0  0  0  0  0  0  0
  -22.2580  -14.6130   20.6130 O   0  0  0  0  0  0  0  0  0  0  0  0
  -22.3360  -12.0590   22.4370 H   0  0  0  0  0  0  0  0  0  0  0  0
  -21.0290  -13.1870   22.2160 H   0  0  0  0  0  0  0  0  0  0  0  0
  -25.3030  -15.2680   20.3080 N   0  0  0  0  0  0  0  0  0  0  0  0
  -24.5220  -15.9070   20.4150 H   0  0  0  0  0  0  0  0  0  0  0  0
  -26.1280  -15.7140   19.9300 H   0  0  0  0  0  0  0  0  0  0  0  0
  1  4  1  0
  2  6  1  0
  2  3  2  0
  3  1  1  0
  4 10  1  0
  5  4  1  0
  5 53  1  0
  6  5  1  0
  8  9  1  0
  9  3  1  0
  9  7  1  0
 10 11  1  0
 12 14  1  0
 12 11  1  0
 13 24  2  0
 14 19  1  0
 15 23  1  0
 15 25  1  0
 16 22  1  0
 16 18  1  0
 17 23  1  0
 18 19  2  0
 18 17  1  0
 20 14  2  0
 21 20  1  0
 21 16  2  0
 22 15  1  0
 23 13  1  0
 25 27  2  0
 26 25  1  0
 28 26  1  0
 29 38  2  0
 29 34  1  0
 30 26  1  0
 30 34  1  0
 31 30  1  0
 32 33  1  0
 32 31  1  0
 33 29  1  0
 34 35  2  0
 35 36  1  0
 37 36  2  0
 38 37  1  0
 39 13  1  0
 39 44  1  0
 39 40  1  0
 40 43  1  1
 40 41  1  0
 42 40  1  0
 44 47  1  0
 45 49  1  0
 45 44  1  0
 46 45  2  0
 49 48  1  0
 51 49  1  0
 51 52  1  0
 51 50  1  0
 54 62  1  0
 55 60  1  0
 56 57  1  0
 56 55  1  0
 58 57  1  0
 58 67  1  0
 58 59  1  0
 60 54  1  0
 60 59  1  0
 61 54  2  0
 62 53  1  0
 63 62  1  0
 64 65  2  0
 65 84  1  0
 66 65  1  0
 66 69  1  0
 67 64  1  0
 67 68  1  0
 68 66  2  0
 69 70  1  0
 70 71  2  0
 72 75  1  0
 72 71  1  0
 73 72  2  0
 74 73  1  0
 74 69  2  0
 75 76  1  0
 76 77  1  0
 77 78  2  0
 79 78  1  0
 79 83  1  0
 80 79  2  0
 81 76  2  0
 81 80  1  0
 82 81  1  0
 84 85  1  0
 85 88  1  0
 85 87  1  0
 86 84  2  0
 89 90  1  0
 89 64  1  0
 91 89  1  0
M  ISO  4  11 101  12 101  54 100  62 100
M  END
>  <TORSDO>  (36) 
F 20

>  <SCORE>  (36) 
-16.239

>  <name>  (36) 
35

>  <ligand_id>  (36) 
35

>  <original_smiles>  (36) 
[H]c1nc(C([H])([H])N([H])C(=O)N2C([H])([H])C([H])([H])C([H])([H])C([H])(n3nc(-c4c([H])c([H])c(Oc5c([H])c([H])c(F)c([H])c5F)c([H])c4[H])c(C(=O)N([H])[H])c3N([H])[H])C2([H])[H])c(C([H])([H])C([H])([H])Oc2c([H])c([H])c3c(c2[H])C([H])([H])N(C(=O)C([H])(N([H])C(=O)C([H])(N([H])C([H])([H])[H])C([H])([H])[H])C(C([H])([H])[H])(C([H])([H])[H])C([H])([H])[H])C([H])(C(=O)N([H])C2([H])c4c([H])c([H])c([H])c([H])c4C([H])([H])C([H])([H])C2([H])[H])C3([H])[H])c([H])c1C([H])(C([H])([H])[H])C([H])([H])[H]

>  <smiles>  (36) 
[H]c1nc(C([H])([H])N([H])C(=O)N2C([H])([H])C([H])([H])C([H])([H])C([H])(n3nc(-c4c([H])c([H])c(Oc5c([H])c([H])c(F)c([H])c5F)c([H])c4[H])c(C(=O)N([H])[H])c3N([H])[H])C2([H])[H])c(C([H])([H])C([H])([H])Oc2c([H])c([H])c3c(c2[H])C([H])([H])N(C(=O)C([H])(N([H])C(=O)C([H])(N([H])C([H])([H])[H])C([H])([H])[H])C(C([H])([H])[H])(C([H])([H])[H])C([H])([H])[H])C([H])(C(=O)N([H])C2([H])c4c([H])c([H])c([H])c([H])c4C([H])([H])C([H])([H])C2([H])[H])C3([H])[H])c([H])c1C([H])(C([H])([H])[H])C([H])([H])[H]

$$$$
36:0:0
     RDKit          3D

 94103  0  0  1  0  0  0  0  0999 V2000
  -28.7910  -22.4760   20.9200 C   0  0  0  0  0  2  0  0  0  0  0  0
  -30.5940  -14.7870   20.3930 C   0  0  0  0  0  0  0  0  0  0  0  0
  -30.4280  -12.4970   19.4150 C   0  0  0  0  0  2  0  0  0  0  0  0
  -29.5010  -12.4990   18.1790 C   0  0  0  0  0  2  0  0  0  0  0  0
  -28.0190  -12.3750   18.5890 C   0  0  0  0  0  2  0  0  0  0  0  0
  -27.6200  -13.2830   19.7850 C   0  0  0  0  0  3  0  0  0  0  0  0
  -28.6670  -13.2240   20.9150 C   0  0  0  0  0  2  0  0  0  0  0  0
  -29.9650  -13.5660   20.3240 N   0  0  0  0  0  0  0  0  0  0  0  0
  -31.8180  -14.8640   20.2500 O   0  0  0  0  0  0  0  0  0  0  0  0
  -29.8110  -19.8520   18.2140 C   0  0  0  0  0  3  0  0  0  0  0  0
  -29.4900  -21.0650   18.8550 C   0  0  0  0  0  3  0  0  0  0  0  0
  -29.4050  -19.8710   20.9730 C   0  0  0  0  0  3  0  0  0  0  0  0
  -29.9080  -18.6420   18.9350 C   0  0  0  0  0  0  0  0  0  0  0  0
  -29.7350  -18.6150   20.3320 C   0  0  0  0  0  0  0  0  0  0  0  0
  -29.2580  -21.1180   20.2470 C   0  0  0  0  0  0  0  0  0  0  0  0
  -30.1250  -17.3310   18.2110 C   0  0  0  0  0  2  0  0  0  0  0  0
  -29.9060  -17.2170   21.0650 C   0  0  0  0  0  2  0  0  0  0  0  0
  -29.3140  -16.2190   18.8990 C   0  0  0  0  0  2  0  0  0  0  0  0
  -29.8050  -15.9260   20.2600 N   0  0  0  0  0  0  0  0  0  0  0  0
  -25.2180  -13.8840   20.4600 C   0  0  0  0  0  0  0  0  0  0  0  0
  -24.1470  -13.1120   20.8180 C   0  0  0  0  0  0  0  0  0  0  0  0
  -24.6180  -11.7630   20.8240 C   0  0  0  0  0  0  0  0  0  0  0  0
  -26.2710  -13.0040   20.2620 N   0  0  0  0  0  0  0  0  0  0  0  0
  -25.9160  -11.7260   20.5460 N   0  0  0  0  0  0  0  0  0  0  0  0
  -23.8970  -10.4990   21.0170 C   0  0  0  0  0  0  0  0  0  0  0  0
  -24.3180   -9.5470   21.9710 C   0  0  0  0  0  3  0  0  0  0  0  0
  -23.5950   -8.3470   22.1500 C   0  0  0  0  0  3  0  0  0  0  0  0
  -22.4390   -8.0930   21.3750 C   0  0  0  0  0  0  0  0  0  0  0  0
  -22.0390   -9.0330   20.4100 C   0  0  0  0  0  3  0  0  0  0  0  0
  -22.7620  -10.2240   20.2280 C   0  0  0  0  0  3  0  0  0  0  0  0
  -21.6890   -6.9460   21.4650 O   0  0  0  0  0  0  0  0  0  0  0  0
  -21.6230   -6.2190   22.6270 C   0  0  0  0  0  0  0  0  0  0  0  0
  -21.1660   -6.7860   23.8370 C   0  0  0  0  0  3  0  0  0  0  0  0
  -21.0480   -5.9840   24.9890 C   0  0  0  0  0  3  0  0  0  0  0  0
  -21.3760   -4.6170   24.9340 C   0  0  0  0  0  0  0  0  0  0  0  0
  -21.8260   -4.0490   23.7280 C   0  0  0  0  0  3  0  0  0  0  0  0
  -21.9470   -4.8480   22.5790 C   0  0  0  0  0  0  0  0  0  0  0  0
  -22.3610   -4.2910   21.4140 F   0  0  0  0  0  0  0  0  0  0  0  0
  -21.2550   -3.8450   26.0390 F   0  0  0  0  0  0  0  0  0  0  0  0
  -22.7390  -13.5850   21.0430 C   0  0  0  0  0  0  0  0  0  0  0  0
  -21.9920  -12.9010   21.9030 N   0  0  0  0  0  0  0  0  0  0  0  0
  -22.3100  -14.5990   20.4960 O   0  0  0  0  0  0  0  0  0  0  0  0
  -22.3530  -12.0870   22.3760 H   0  0  0  0  0  0  0  0  0  0  0  0
  -21.0470  -13.2020   22.0940 H   0  0  0  0  0  0  0  0  0  0  0  0
  -25.3790  -15.2540   20.2670 N   0  0  0  0  0  0  0  0  0  0  0  0
  -24.6080  -15.9070   20.3610 H   0  0  0  0  0  0  0  0  0  0  0  0
  -26.2430  -15.6980   19.9840 H   0  0  0  0  0  0  0  0  0  0  0  0
  -28.9210  -23.9010   20.1650 C   0  0  0  0  0  3  0  0  0  0  0  0
  -30.3450  -24.2440   19.9520 N   0  0  0  0  0  4  0  0  0  0  0  0
  -30.8270  -24.3770   20.8240 H   0  0  0  0  0  0  0  0  0  0  0  0
  -30.4160  -25.1010   19.4300 H   0  0  0  0  0  0  0  0  0  0  0  0
  -30.8230  -23.5250   19.4390 H   0  0  0  0  0  0  0  0  0  0  0  0
  -28.1730  -25.1590   20.8210 C   0  0  0  0  0  2  0  0  0  0  0  0
  -28.3310  -26.5130   20.2210 O   0  0  0  0  0  0  0  0  0  0  0  0
  -24.5860  -31.9070   23.2400 C   0  0  0  0  0  0  0  0  0  0  0  0
  -27.2120  -27.3600   20.2000 C   0  0  0  0  0  0  0  0  0  0  0  0
  -23.3860  -30.5080   21.5950 C   0  0  0  0  0  3  0  0  0  0  0  0
  -24.8420  -28.9590   20.1700 C   0  0  0  0  0  0  0  0  0  0  0  0
  -25.9240  -30.8370   21.4110 C   0  0  0  0  0  2  0  0  0  0  0  0
  -26.0090  -29.4580   20.7660 C   0  0  0  0  0  0  0  0  0  0  0  0
  -27.2010  -28.6730   20.7630 C   0  0  0  0  0  3  0  0  0  0  0  0
  -26.0280  -26.9110   19.5780 C   0  0  0  0  0  3  0  0  0  0  0  0
  -24.8540  -27.6920   19.5650 C   0  0  0  0  0  3  0  0  0  0  0  0
  -23.6040  -29.8330   20.2140 C   0  0  0  0  0  2  0  0  0  0  0  0
  -24.6510  -31.1010   22.1380 N   0  0  0  0  0  0  0  0  0  0  0  0
  -23.5010  -32.1800   23.7740 O   0  0  0  0  0  0  0  0  0  0  0  0
  -22.7240  -29.4900   22.5530 C   0  0  0  0  0  0  0  0  0  0  0  0
  -21.3990  -29.3100   22.4250 N   0  0  0  0  0  0  0  0  0  0  0  0
  -23.4030  -28.8640   23.3710 O   0  0  0  0  0  0  0  0  0  0  0  0
  -20.9110  -29.8680   21.7370 H   0  0  0  0  0  0  0  0  0  0  0  0
  -18.0230  -28.1030   22.9090 C   0  0  0  0  0  0  0  0  0  0  0  0
  -20.5790  -28.3710   23.1910 C   0  0  0  0  0  3  0  0  0  0  0  0
  -20.6870  -26.9390   22.6160 C   0  0  0  0  0  2  0  0  0  0  0  0
  -19.5910  -26.6120   21.5970 C   0  0  0  0  0  2  0  0  0  0  0  0
  -18.2060  -26.7550   22.2360 C   0  0  0  0  0  2  0  0  0  0  0  0
  -19.1370  -28.8700   23.3450 C   0  0  0  0  0  0  0  0  0  0  0  0
  -18.9120  -30.1310   23.9350 C   0  0  0  0  0  3  0  0  0  0  0  0
  -17.6050  -30.6290   24.0950 C   0  0  0  0  0  3  0  0  0  0  0  0
  -16.5050  -29.8600   23.6760 C   0  0  0  0  0  3  0  0  0  0  0  0
  -16.7140  -28.6000   23.0890 C   0  0  0  0  0  3  0  0  0  0  0  0
  -25.8670  -32.5390   23.8660 C   0  0  0  0  0  3  0  0  0  0  0  0
  -26.3750  -31.7730   25.1480 C   0  0  1  0  0  0  0  0  0  0  0  0
  -25.2770  -31.5420   26.2130 C   0  0  0  0  0  1  0  0  0  0  0  0
  -26.9560  -30.3920   24.7620 C   0  0  0  0  0  1  0  0  0  0  0  0
  -27.5240  -32.5670   25.8120 C   0  0  0  0  0  1  0  0  0  0  0  0
  -25.5550  -33.9380   24.1920 N   0  0  0  0  0  0  0  0  0  0  0  0
  -25.8930  -34.9900   23.4340 C   0  0  0  0  0  0  0  0  0  0  0  0
  -26.5690  -34.8860   22.4070 O   0  0  0  0  0  0  0  0  0  0  0  0
  -24.9540  -34.0940   24.9870 H   0  0  0  0  0  0  0  0  0  0  0  0
  -24.1700  -36.7870   23.0680 C   0  0  0  0  0  1  0  0  0  0  0  0
  -25.4060  -36.3800   23.8880 C   0  0  0  0  0  3  0  0  0  0  0  0
  -27.5360  -37.2610   24.7320 C   0  0  0  0  0  1  0  0  0  0  0  0
  -26.4410  -37.4310   23.7810 N   0  0  0  0  0  0  0  0  0  0  0  0
  -26.0350  -38.3520   23.9260 H   0  0  0  0  0  0  0  0  0  0  0  0
  3  8  1  0
  4  5  1  0
  4  3  1  0
  6  5  1  0
  6 23  1  0
  6  7  1  0
  8  2  1  0
  8  7  1  0
  9  2  2  0
 10 11  2  0
 10 13  1  0
 11 15  1  0
 13 14  2  0
 14 12  1  0
 14 17  1  0
 15  1  1  0
 15 12  2  0
 16 18  1  0
 16 13  1  0
 18 19  1  0
 19  2  1  0
 19 17  1  0
 20 21  2  0
 21 22  1  0
 21 40  1  0
 22 25  1  0
 23 20  1  0
 23 24  1  0
 24 22  2  0
 25 26  1  0
 26 27  2  0
 28 31  1  0
 28 27  1  0
 29 28  2  0
 30 29  1  0
 30 25  2  0
 31 32  1  0
 32 33  1  0
 33 34  2  0
 35 34  1  0
 35 39  1  0
 36 35  2  0
 37 32  2  0
 37 36  1  0
 38 37  1  0
 40 41  1  0
 41 44  1  0
 41 43  1  0
 42 40  2  0
 45 46  1  0
 45 20  1  0
 47 45  1  0
 48 53  1  0
 48  1  1  0
 49 48  1  0
 49 50  1  0
 51 49  1  0
 52 49  1  0
 54 53  1  0
 55 66  2  0
 56 54  1  0
 56 61  1  0
 57 65  1  0
 57 67  1  0
 58 64  1  0
 58 60  1  0
 59 65  1  0
 60 59  1  0
 61 60  2  0
 62 56  2  0
 63 62  1  0
 63 58  2  0
 64 57  1  0
 65 55  1  0
 67 69  2  0
 68 67  1  0
 70 68  1  0
 71 80  2  0
 71 76  1  0
 72 68  1  0
 72 76  1  0
 73 72  1  0
 74 75  1  0
 74 73  1  0
 75 71  1  0
 76 77  2  0
 77 78  1  0
 79 78  2  0
 80 79  1  0
 81 55  1  0
 81 86  1  0
 81 82  1  0
 82 85  1  1
 82 83  1  0
 84 82  1  0
 86 89  1  0
 87 91  1  0
 87 86  1  0
 88 87  2  0
 91 90  1  0
 93 91  1  0
 93 94  1  0
 93 92  1  0
M  ISO  4   2 100  19 100  53 101  54 101
M  END
>  <TORSDO>  (37) 
F 19

>  <SCORE>  (37) 
-14.213

>  <name>  (37) 
36

>  <ligand_id>  (37) 
36

>  <original_smiles>  (37) 
[H]c1c([H])c([H])c2c(c1[H])C([H])([H])C([H])([H])C([H])([H])C2([H])N([H])C(=O)C1([H])N(C(=O)C([H])(N([H])C(=O)C([H])(N([H])C([H])([H])[H])C([H])([H])[H])C(C([H])([H])[H])(C([H])([H])[H])C([H])([H])[H])C([H])([H])c2c([H])c(OC([H])([H])C([H])(C([H])([H])c3c([H])c([H])c4c(c3[H])C([H])([H])N(C(=O)N3C([H])([H])C([H])([H])C([H])([H])C([H])(n5nc(-c6c([H])c([H])c(Oc7c([H])c([H])c(F)c([H])c7F)c([H])c6[H])c(C(=O)N([H])[H])c5N([H])[H])C3([H])[H])C([H])([H])C4([H])[H])[N+]([H])([H])[H])c([H])c([H])c2C1([H])[H]

>  <smiles>  (37) 
[H]c1c([H])c([H])c2c(c1[H])C([H])([H])C([H])([H])C([H])([H])C2([H])N([H])C(=O)C1([H])N(C(=O)C([H])(N([H])C(=O)C([H])(N([H])C([H])([H])[H])C([H])([H])[H])C(C([H])([H])[H])(C([H])([H])[H])C([H])([H])[H])C([H])([H])c2c([H])c(OC([H])([H])C([H])(C([H])([H])c3c([H])c([H])c4c(c3[H])C([H])([H])N(C(=O)N3C([H])([H])C([H])([H])C([H])([H])C([H])(n5nc(-c6c([H])c([H])c(Oc7c([H])c([H])c(F)c([H])c7F)c([H])c6[H])c(C(=O)N([H])[H])c5N([H])[H])C3([H])[H])C([H])([H])C4([H])[H])[N+]([H])([H])[H])c([H])c([H])c2C1([H])[H]

$$$$
37:0:0
     RDKit          3D

 93101  0  0  1  0  0  0  0  0999 V2000
  -28.0830  -20.4280   21.5890 C   0  0  0  0  0  2  0  0  0  0  0  0
  -28.0750  -19.8480   20.1790 C   0  0  0  0  0  2  0  0  0  0  0  0
  -28.9630  -21.6770   21.4810 C   0  0  0  0  0  2  0  0  0  0  0  0
  -29.5230  -20.0860   19.7170 C   0  0  0  0  0  3  0  0  0  0  0  0
  -29.7940  -21.5310   20.2410 N   0  0  1  0  0  4  0  0  0  0  0  0
  -30.7800  -21.6080   20.4640 H   0  0  0  0  0  0  0  0  0  0  0  0
  -31.3500  -19.0790   21.4310 C   0  0  0  0  0  1  0  0  0  0  0  0
  -30.5340  -18.8390   20.1480 C   0  0  0  0  0  3  0  0  0  0  0  0
  -29.9990  -16.8540   18.5470 C   0  0  0  0  0  1  0  0  0  0  0  0
  -30.0200  -17.2870   20.0220 C   0  0  0  0  0  3  0  0  0  0  0  0
  -31.2230  -14.9810   20.6070 C   0  0  0  0  0  0  0  0  0  0  0  0
  -30.9760  -12.7300   19.6010 C   0  0  0  0  0  2  0  0  0  0  0  0
  -30.0990  -12.8880   18.3430 C   0  0  0  0  0  2  0  0  0  0  0  0
  -28.6030  -12.7170   18.6930 C   0  0  0  0  0  2  0  0  0  0  0  0
  -28.1770  -13.5850   19.9170 C   0  0  0  0  0  3  0  0  0  0  0  0
  -29.2030  -13.4790   21.0810 C   0  0  0  0  0  2  0  0  0  0  0  0
  -30.5390  -13.7890   20.5390 N   0  0  0  0  0  0  0  0  0  0  0  0
  -32.4060  -15.0440   20.2800 O   0  0  0  0  0  0  0  0  0  0  0  0
  -30.5510  -16.1510   20.9030 N   0  0  0  0  0  0  0  0  0  0  0  0
  -30.8250  -16.4730   21.8220 H   0  0  0  0  0  0  0  0  0  0  0  0
  -25.7470  -14.2230   20.4890 C   0  0  0  0  0  0  0  0  0  0  0  0
  -24.6520  -13.4610   20.8130 C   0  0  0  0  0  0  0  0  0  0  0  0
  -25.1000  -12.1070   20.8110 C   0  0  0  0  0  0  0  0  0  0  0  0
  -26.7960  -13.3210   20.3280 N   0  0  0  0  0  0  0  0  0  0  0  0
  -26.4040  -12.0430   20.5750 N   0  0  0  0  0  0  0  0  0  0  0  0
  -24.3430  -10.8570   20.9660 C   0  0  0  0  0  0  0  0  0  0  0  0
  -24.7130   -9.8970   21.9280 C   0  0  0  0  0  3  0  0  0  0  0  0
  -23.9590   -8.7150   22.0900 C   0  0  0  0  0  3  0  0  0  0  0  0
  -22.8230   -8.4860   21.2820 C   0  0  0  0  0  0  0  0  0  0  0  0
  -22.4700   -9.4330   20.3060 C   0  0  0  0  0  3  0  0  0  0  0  0
  -23.2250  -10.6090   20.1430 C   0  0  0  0  0  3  0  0  0  0  0  0
  -22.0490   -7.3470   21.3430 O   0  0  0  0  0  0  0  0  0  0  0  0
  -21.9220   -6.6190   22.4990 C   0  0  0  0  0  0  0  0  0  0  0  0
  -21.4050   -7.1860   23.6830 C   0  0  0  0  0  3  0  0  0  0  0  0
  -21.2260   -6.3890   24.8280 C   0  0  0  0  0  3  0  0  0  0  0  0
  -21.5510   -5.0210   24.7920 C   0  0  0  0  0  0  0  0  0  0  0  0
  -22.0570   -4.4480   23.6120 C   0  0  0  0  0  3  0  0  0  0  0  0
  -22.2390   -5.2450   22.4670 C   0  0  0  0  0  0  0  0  0  0  0  0
  -22.7040   -4.6820   21.3270 F   0  0  0  0  0  0  0  0  0  0  0  0
  -21.3730   -4.2540   25.8930 F   0  0  0  0  0  0  0  0  0  0  0  0
  -23.2470  -13.9540   21.0160 C   0  0  0  0  0  0  0  0  0  0  0  0
  -22.4860  -13.2670   21.8750 N   0  0  0  0  0  0  0  0  0  0  0  0
  -22.8310  -14.9670   20.4640 O   0  0  0  0  0  0  0  0  0  0  0  0
  -22.8490  -12.4470   22.3300 H   0  0  0  0  0  0  0  0  0  0  0  0
  -21.5360  -13.5530   22.0630 H   0  0  0  0  0  0  0  0  0  0  0  0
  -25.9080  -15.5890   20.3030 N   0  0  0  0  0  0  0  0  0  0  0  0
  -25.1090  -16.2130   20.3530 H   0  0  0  0  0  0  0  0  0  0  0  0
  -26.7620  -16.0760   20.0540 H   0  0  0  0  0  0  0  0  0  0  0  0
  -29.5050  -22.7390   19.3170 C   0  0  0  0  0  2  0  0  0  0  0  0
  -30.8270  -24.9580   18.9880 C   0  0  0  0  0  1  0  0  0  0  0  0
  -29.7870  -24.2520   19.8760 C   0  0  0  0  0  3  0  0  0  0  0  0
  -28.5720  -25.3000   19.9530 C   0  0  0  0  0  2  0  0  0  0  0  0
  -28.7510  -26.7450   20.2960 O   0  0  0  0  0  0  0  0  0  0  0  0
  -24.6830  -31.9810   23.2880 C   0  0  0  0  0  0  0  0  0  0  0  0
  -27.6060  -27.5670   20.2640 C   0  0  0  0  0  0  0  0  0  0  0  0
  -23.6000  -30.5540   21.5870 C   0  0  0  0  0  3  0  0  0  0  0  0
  -25.1720  -29.0680   20.2340 C   0  0  0  0  0  0  0  0  0  0  0  0
  -26.1330  -30.9670   21.5290 C   0  0  0  0  0  2  0  0  0  0  0  0
  -26.3010  -29.6010   20.8660 C   0  0  0  0  0  0  0  0  0  0  0  0
  -27.5220  -28.8550   20.8860 C   0  0  0  0  0  3  0  0  0  0  0  0
  -26.4430  -27.1090   19.6070 C   0  0  0  0  0  3  0  0  0  0  0  0
  -25.2340  -27.8150   19.6170 C   0  0  0  0  0  3  0  0  0  0  0  0
  -23.9180  -29.9040   20.2120 C   0  0  0  0  0  2  0  0  0  0  0  0
  -24.8160  -31.1840   22.1870 N   0  0  0  0  0  0  0  0  0  0  0  0
  -23.5700  -32.2050   23.7790 O   0  0  0  0  0  0  0  0  0  0  0  0
  -22.9380  -29.4990   22.5100 C   0  0  0  0  0  0  0  0  0  0  0  0
  -21.6140  -29.3100   22.3700 N   0  0  0  0  0  0  0  0  0  0  0  0
  -23.6130  -28.8680   23.3280 O   0  0  0  0  0  0  0  0  0  0  0  0
  -21.1060  -29.9190   21.7420 H   0  0  0  0  0  0  0  0  0  0  0  0
  -18.2480  -28.1060   22.8290 C   0  0  0  0  0  0  0  0  0  0  0  0
  -20.8020  -28.3570   23.1330 C   0  0  0  0  0  3  0  0  0  0  0  0
  -20.8660  -26.9350   22.5470 C   0  0  0  0  0  2  0  0  0  0  0  0
  -19.8410  -26.7110   21.4280 C   0  0  0  0  0  2  0  0  0  0  0  0
  -18.4350  -26.8110   22.0420 C   0  0  0  0  0  2  0  0  0  0  0  0
  -19.3640  -28.8480   23.2990 C   0  0  0  0  0  0  0  0  0  0  0  0
  -19.1510  -30.0840   23.9340 C   0  0  0  0  0  3  0  0  0  0  0  0
  -17.8500  -30.5810   24.1170 C   0  0  0  0  0  3  0  0  0  0  0  0
  -16.7420  -29.8300   23.6850 C   0  0  0  0  0  3  0  0  0  0  0  0
  -16.9430  -28.5960   23.0420 C   0  0  0  0  0  3  0  0  0  0  0  0
  -25.9180  -32.6570   23.9700 C   0  0  0  0  0  3  0  0  0  0  0  0
  -25.5540  -34.0520   24.2520 N   0  0  0  0  0  0  0  0  0  0  0  0
  -25.9030  -35.0940   23.4840 C   0  0  0  0  0  0  0  0  0  0  0  0
  -26.6290  -34.9830   22.4900 O   0  0  0  0  0  0  0  0  0  0  0  0
  -24.9070  -34.2090   25.0110 H   0  0  0  0  0  0  0  0  0  0  0  0
  -24.1440  -36.8300   23.0110 C   0  0  0  0  0  1  0  0  0  0  0  0
  -25.3580  -36.4770   23.8880 C   0  0  0  0  0  3  0  0  0  0  0  0
  -27.4220  -37.4360   24.8030 C   0  0  0  0  0  1  0  0  0  0  0  0
  -26.3660  -37.5560   23.8020 N   0  0  0  0  0  0  0  0  0  0  0  0
  -25.9290  -38.4670   23.9130 H   0  0  0  0  0  0  0  0  0  0  0  0
  -26.3870  -31.9200   25.2850 C   0  0  1  0  0  0  0  0  0  0  0  0
  -25.2410  -31.6590   26.2900 C   0  0  0  0  0  1  0  0  0  0  0  0
  -27.0290  -30.5540   24.9520 C   0  0  0  0  0  1  0  0  0  0  0  0
  -27.4780  -32.7530   25.9930 C   0  0  0  0  0  1  0  0  0  0  0  0
  2  1  1  0
  3  1  1  0
  4  8  1  0
  4  2  1  0
  4  5  1  0
  5  6  1  1
  5  3  1  0
  8  7  1  0
 10  9  1  0
 10  8  1  0
 10 19  1  0
 11 19  1  0
 12 17  1  0
 13 14  1  0
 13 12  1  0
 15 14  1  0
 15 24  1  0
 15 16  1  0
 17 11  1  0
 17 16  1  0
 18 11  2  0
 19 20  1  0
 21 22  2  0
 22 41  1  0
 23 22  1  0
 23 26  1  0
 24 21  1  0
 24 25  1  0
 25 23  2  0
 26 27  1  0
 27 28  2  0
 29 32  1  0
 29 28  1  0
 30 29  2  0
 31 30  1  0
 31 26  2  0
 32 33  1  0
 33 34  1  0
 34 35  2  0
 36 35  1  0
 36 40  1  0
 37 36  2  0
 38 33  2  0
 38 37  1  0
 39 38  1  0
 41 42  1  0
 42 45  1  0
 42 44  1  0
 43 41  2  0
 46 47  1  0
 46 21  1  0
 48 46  1  0
 49 51  1  0
 49  5  1  0
 51 50  1  0
 51 52  1  0
 52 53  1  0
 54 65  2  0
 55 53  1  0
 55 60  1  0
 56 64  1  0
 56 66  1  0
 57 59  1  0
 58 64  1  0
 59 60  2  0
 59 58  1  0
 61 62  1  0
 61 55  2  0
 62 57  2  0
 63 57  1  0
 63 56  1  0
 64 54  1  0
 66 68  2  0
 67 66  1  0
 69 67  1  0
 70 79  2  0
 70 75  1  0
 71 67  1  0
 71 75  1  0
 72 71  1  0
 73 74  1  0
 73 72  1  0
 74 70  1  0
 75 76  2  0
 76 77  1  0
 78 77  2  0
 79 78  1  0
 80 54  1  0
 80 81  1  0
 80 90  1  0
 81 84  1  0
 82 86  1  0
 82 81  1  0
 83 82  2  0
 86 85  1  0
 88 86  1  0
 88 89  1  0
 88 87  1  0
 90 93  1  1
 90 91  1  0
 92 90  1  0
M  ISO  4  11 100  19 100  52 101  53 101
M  END
>  <TORSDO>  (38) 
F 21

>  <SCORE>  (38) 
-12.037

>  <name>  (38) 
37

>  <ligand_id>  (38) 
37

>  <original_smiles>  (38) 
[H]c1c([H])c([H])c2c(c1[H])C([H])([H])C([H])([H])C([H])([H])C2([H])N([H])C(=O)C1([H])N(C(=O)C([H])(N([H])C(=O)C([H])(N([H])C([H])([H])[H])C([H])([H])[H])C(C([H])([H])[H])(C([H])([H])[H])C([H])([H])[H])C([H])([H])c2c([H])c(OC([H])([H])C([H])(C([H])([H])[H])C([H])([H])[N+]3([H])C([H])([H])C([H])([H])C([H])([H])C3([H])C([H])(C([H])([H])[H])C([H])(N([H])C(=O)N3C([H])([H])C([H])([H])C([H])([H])C([H])(n4nc(-c5c([H])c([H])c(Oc6c([H])c([H])c(F)c([H])c6F)c([H])c5[H])c(C(=O)N([H])[H])c4N([H])[H])C3([H])[H])C([H])([H])[H])c([H])c([H])c2C1([H])[H]

>  <smiles>  (38) 
[H]c1c([H])c([H])c2c(c1[H])C([H])([H])C([H])([H])C([H])([H])C2([H])N([H])C(=O)C1([H])N(C(=O)C([H])(N([H])C(=O)C([H])(N([H])C([H])([H])[H])C([H])([H])[H])C(C([H])([H])[H])(C([H])([H])[H])C([H])([H])[H])C([H])([H])c2c([H])c(OC([H])([H])C([H])(C([H])([H])[H])C([H])([H])[N+]3([H])C([H])([H])C([H])([H])C([H])([H])C3([H])C([H])(C([H])([H])[H])C([H])(N([H])C(=O)N3C([H])([H])C([H])([H])C([H])([H])C([H])(n4nc(-c5c([H])c([H])c(Oc6c([H])c([H])c(F)c([H])c6F)c([H])c5[H])c(C(=O)N([H])[H])c4N([H])[H])C3([H])[H])C([H])([H])[H])c([H])c([H])c2C1([H])[H]

$$$$
38:0:0
     RDKit          3D

 86 93  0  0  1  0  0  0  0  0999 V2000
  -28.6020  -22.8410   20.4480 C   0  0  0  0  0  3  0  0  0  0  0  0
  -29.2090  -21.2920   19.8030 C   0  0  0  0  0  3  0  0  0  0  0  0
  -27.7190  -19.2160   20.4140 C   0  0  0  0  0  1  0  0  0  0  0  0
  -29.6390  -19.7470   21.8880 C   0  0  0  0  0  1  0  0  0  0  0  0
  -29.2030  -19.6170   20.4210 C   0  0  2  0  0  0  0  0  0  0  0  0
  -30.0500  -18.1700   19.8140 C   0  0  0  0  0  2  0  0  0  0  0  0
  -30.5900  -15.3080   19.8990 C   0  0  0  0  0  0  0  0  0  0  0  0
  -30.5150  -12.8970   18.9780 C   0  0  0  0  0  2  0  0  0  0  0  0
  -29.5300  -12.7370   17.7930 C   0  0  0  0  0  2  0  0  0  0  0  0
  -28.1040  -12.4660   18.3010 C   0  0  0  0  0  2  0  0  0  0  0  0
  -27.7190  -13.4030   19.4710 C   0  0  0  0  0  3  0  0  0  0  0  0
  -28.8210  -13.5060   20.5460 C   0  0  0  0  0  2  0  0  0  0  0  0
  -30.0270  -14.0080   19.8700 N   0  0  0  0  0  0  0  0  0  0  0  0
  -31.7820  -15.3350   19.5650 O   0  0  0  0  0  0  0  0  0  0  0  0
  -29.8300  -16.5540   20.0970 N   0  0  0  0  0  0  0  0  0  0  0  0
  -28.8860  -16.3540   20.3940 H   0  0  0  0  0  0  0  0  0  0  0  0
  -25.3880  -13.9480   20.3540 C   0  0  0  0  0  0  0  0  0  0  0  0
  -24.3480  -13.1640   20.7650 C   0  0  0  0  0  0  0  0  0  0  0  0
  -24.8140  -11.8150   20.6880 C   0  0  0  0  0  0  0  0  0  0  0  0
  -26.4170  -13.0790   20.0380 N   0  0  0  0  0  0  0  0  0  0  0  0
  -26.0860  -11.7900   20.3070 N   0  0  0  0  0  0  0  0  0  0  0  0
  -24.1010  -10.5480   20.8940 C   0  0  0  0  0  0  0  0  0  0  0  0
  -24.5190   -9.6120   21.8670 C   0  0  0  0  0  3  0  0  0  0  0  0
  -23.8040   -8.4100   22.0590 C   0  0  0  0  0  3  0  0  0  0  0  0
  -22.6570   -8.1340   21.2780 C   0  0  0  0  0  0  0  0  0  0  0  0
  -22.2570   -9.0580   20.2960 C   0  0  0  0  0  3  0  0  0  0  0  0
  -22.9720  -10.2520   20.1030 C   0  0  0  0  0  3  0  0  0  0  0  0
  -21.9150   -6.9820   21.3770 O   0  0  0  0  0  0  0  0  0  0  0  0
  -21.7590   -6.3280   22.5730 C   0  0  0  0  0  0  0  0  0  0  0  0
  -21.1850   -6.9590   23.6990 C   0  0  0  0  0  3  0  0  0  0  0  0
  -20.9810   -6.2280   24.8860 C   0  0  0  0  0  3  0  0  0  0  0  0
  -21.3400   -4.8680   24.9480 C   0  0  0  0  0  0  0  0  0  0  0  0
  -21.9050   -4.2370   23.8250 C   0  0  0  0  0  3  0  0  0  0  0  0
  -22.1120   -4.9650   22.6410 C   0  0  0  0  0  0  0  0  0  0  0  0
  -22.6380   -4.3480   21.5560 F   0  0  0  0  0  0  0  0  0  0  0  0
  -21.1360   -4.1640   26.0860 F   0  0  0  0  0  0  0  0  0  0  0  0
  -22.9650  -13.6330   21.1100 C   0  0  0  0  0  0  0  0  0  0  0  0
  -22.2820  -12.9250   22.0010 N   0  0  0  0  0  0  0  0  0  0  0  0
  -22.5020  -14.6640   20.6240 O   0  0  0  0  0  0  0  0  0  0  0  0
  -22.6700  -12.0900   22.4150 H   0  0  0  0  0  0  0  0  0  0  0  0
  -21.3550  -13.2200   22.2750 H   0  0  0  0  0  0  0  0  0  0  0  0
  -25.5420  -15.3210   20.1940 N   0  0  0  0  0  0  0  0  0  0  0  0
  -24.7830  -15.9680   20.3690 H   0  0  0  0  0  0  0  0  0  0  0  0
  -26.3560  -15.7660   19.7890 H   0  0  0  0  0  0  0  0  0  0  0  0
  -28.2750  -24.4340   19.7170 C   0  0  0  0  0  2  0  0  0  0  0  0
  -28.2580  -25.9860   20.2300 O   0  0  0  0  0  0  0  0  0  0  0  0
  -24.6820  -31.8720   23.1840 C   0  0  0  0  0  0  0  0  0  0  0  0
  -27.2280  -27.0450   20.1230 C   0  0  0  0  0  0  0  0  0  0  0  0
  -23.4720  -30.4650   21.5630 C   0  0  0  0  0  3  0  0  0  0  0  0
  -24.9110  -28.8790   20.1160 C   0  0  0  0  0  0  0  0  0  0  0  0
  -26.0300  -30.7040   21.3770 C   0  0  0  0  0  2  0  0  0  0  0  0
  -26.1000  -29.3000   20.7200 C   0  0  0  0  0  0  0  0  0  0  0  0
  -27.2490  -28.3990   20.7090 C   0  0  0  0  0  3  0  0  0  0  0  0
  -26.0120  -26.7700   19.4580 C   0  0  0  0  0  3  0  0  0  0  0  0
  -24.8890  -27.6350   19.4650 C   0  0  0  0  0  3  0  0  0  0  0  0
  -23.6830  -29.7850   20.1830 C   0  0  0  0  0  2  0  0  0  0  0  0
  -24.7500  -31.0420   22.0940 N   0  0  0  0  0  0  0  0  0  0  0  0
  -23.6000  -32.1540   23.7220 O   0  0  0  0  0  0  0  0  0  0  0  0
  -22.8050  -29.4630   22.5410 C   0  0  0  0  0  0  0  0  0  0  0  0
  -21.4770  -29.2790   22.4300 N   0  0  0  0  0  0  0  0  0  0  0  0
  -23.4890  -28.8530   23.3680 O   0  0  0  0  0  0  0  0  0  0  0  0
  -20.9740  -29.8200   21.7400 H   0  0  0  0  0  0  0  0  0  0  0  0
  -18.1200  -28.0140   22.9570 C   0  0  0  0  0  0  0  0  0  0  0  0
  -20.6730  -28.3360   23.2150 C   0  0  0  0  0  3  0  0  0  0  0  0
  -20.8010  -26.8990   22.6580 C   0  0  0  0  0  2  0  0  0  0  0  0
  -19.7080  -26.5410   21.6480 C   0  0  0  0  0  2  0  0  0  0  0  0
  -18.3230  -26.6640   22.2890 C   0  0  0  0  0  2  0  0  0  0  0  0
  -19.2220  -28.8060   23.3750 C   0  0  0  0  0  0  0  0  0  0  0  0
  -18.9750  -30.0660   23.9630 C   0  0  0  0  0  3  0  0  0  0  0  0
  -17.6590  -30.5370   24.1320 C   0  0  0  0  0  3  0  0  0  0  0  0
  -16.5720  -29.7450   23.7250 C   0  0  0  0  0  3  0  0  0  0  0  0
  -16.8030  -28.4840   23.1450 C   0  0  0  0  0  3  0  0  0  0  0  0
  -25.9610  -32.5220   23.7960 C   0  0  0  0  0  3  0  0  0  0  0  0
  -26.4980  -31.7570   25.0690 C   0  0  1  0  0  0  0  0  0  0  0  0
  -25.4180  -31.5120   26.1490 C   0  0  0  0  0  1  0  0  0  0  0  0
  -27.0890  -30.3840   24.6790 C   0  0  0  0  0  1  0  0  0  0  0  0
  -27.6480  -32.5630   25.7180 C   0  0  0  0  0  1  0  0  0  0  0  0
  -25.6370  -33.9170   24.1420 N   0  0  0  0  0  0  0  0  0  0  0  0
  -25.9490  -34.9850   23.3970 C   0  0  0  0  0  0  0  0  0  0  0  0
  -26.6030  -34.9020   22.3550 O   0  0  0  0  0  0  0  0  0  0  0  0
  -25.0540  -34.0550   24.9550 H   0  0  0  0  0  0  0  0  0  0  0  0
  -24.2060  -36.7790   23.0930 C   0  0  0  0  0  1  0  0  0  0  0  0
  -25.4590  -36.3660   23.8800 C   0  0  0  0  0  3  0  0  0  0  0  0
  -27.5960  -37.2600   24.7010 C   0  0  0  0  0  1  0  0  0  0  0  0
  -26.4840  -37.4280   23.7690 N   0  0  0  0  0  0  0  0  0  0  0  0
  -26.0730  -38.3440   23.9310 H   0  0  0  0  0  0  0  0  0  0  0  0
  2  5  1  0
  2  1  2  0
  5  3  1  1
  5  4  1  0
  6 15  1  0
  6  5  1  0
  7 15  1  0
  8 13  1  0
  9 10  1  0
  9  8  1  0
 11 10  1  0
 11 20  1  0
 11 12  1  0
 13  7  1  0
 13 12  1  0
 14  7  2  0
 15 16  1  0
 17 18  2  0
 18 37  1  0
 19 18  1  0
 19 22  1  0
 20 21  1  0
 20 17  1  0
 21 19  2  0
 22 23  1  0
 23 24  2  0
 25 28  1  0
 25 24  1  0
 26 25  2  0
 27 26  1  0
 27 22  2  0
 28 29  1  0
 29 34  2  0
 29 30  1  0
 30 31  2  0
 31 32  1  0
 32 36  1  0
 33 32  2  0
 34 33  1  0
 35 34  1  0
 37 38  1  0
 38 41  1  0
 38 40  1  0
 39 37  2  0
 42 17  1  0
 42 43  1  0
 44 42  1  0
 45 46  1  0
 45  1  1  0
 47 58  2  0
 48 46  1  0
 48 53  1  0
 49 57  1  0
 49 59  1  0
 50 56  1  0
 50 52  1  0
 51 57  1  0
 52 51  1  0
 53 52  2  0
 54 55  1  0
 54 48  2  0
 55 50  2  0
 56 49  1  0
 57 47  1  0
 59 61  2  0
 60 59  1  0
 62 60  1  0
 63 72  2  0
 63 68  1  0
 64 60  1  0
 64 68  1  0
 65 64  1  0
 66 67  1  0
 66 65  1  0
 67 63  1  0
 68 69  2  0
 69 70  1  0
 71 70  2  0
 72 71  1  0
 73 47  1  0
 73 78  1  0
 73 74  1  0
 74 77  1  1
 74 75  1  0
 76 74  1  0
 78 81  1  0
 79 83  1  0
 79 78  1  0
 80 79  2  0
 83 82  1  0
 85 83  1  0
 85 86  1  0
 85 84  1  0
M  ISO  4   7 100  15 100  45 101  46 101
M  END
>  <TORSDO>  (39) 
F 20

>  <SCORE>  (39) 
-14.622

>  <name>  (39) 
38

>  <ligand_id>  (39) 
38

>  <original_smiles>  (39) 
[H]c1c([H])c([H])c2c(c1[H])C([H])([H])C([H])([H])C([H])([H])C2([H])N([H])C(=O)C1([H])N(C(=O)C([H])(N([H])C(=O)C([H])(N([H])C([H])([H])[H])C([H])([H])[H])C(C([H])([H])[H])(C([H])([H])[H])C([H])([H])[H])C([H])([H])c2c([H])c(OC([H])([H])C([H])([H])C([H])([H])C(C([H])([H])[H])(C([H])([H])[H])C([H])([H])N([H])C(=O)N3C([H])([H])C([H])([H])C([H])([H])C([H])(n4nc(-c5c([H])c([H])c(Oc6c([H])c([H])c(F)c([H])c6F)c([H])c5[H])c(C(=O)N([H])[H])c4N([H])[H])C3([H])[H])c([H])c([H])c2C1([H])[H]

>  <smiles>  (39) 
[H]c1c([H])c([H])c2c(c1[H])C([H])([H])C([H])([H])C([H])([H])C2([H])N([H])C(=O)C1([H])N(C(=O)C([H])(N([H])C(=O)C([H])(N([H])C([H])([H])[H])C([H])([H])[H])C(C([H])([H])[H])(C([H])([H])[H])C([H])([H])[H])C([H])([H])c2c([H])c(OC([H])([H])C([H])([H])C([H])([H])C(C([H])([H])[H])(C([H])([H])[H])C([H])([H])N([H])C(=O)N3C([H])([H])C([H])([H])C([H])([H])C([H])(n4nc(-c5c([H])c([H])c(Oc6c([H])c([H])c(F)c([H])c6F)c([H])c5[H])c(C(=O)N([H])[H])c4N([H])[H])C3([H])[H])c([H])c([H])c2C1([H])[H]

$$$$
39:0:0
     RDKit          3D

 89 96  0  0  1  0  0  0  0  0999 V2000
  -30.1300  -23.5990   19.2990 C   0  0  0  0  0  1  0  0  0  0  0  0
  -28.6420  -23.3460   19.6030 C   0  0  1  0  0  0  0  0  0  0  0  0
  -28.1150  -24.3360   17.2250 C   0  0  0  0  0  1  0  0  0  0  0  0
  -27.8460  -23.2310   18.2690 C   0  0  0  0  0  2  0  0  0  0  0  0
  -28.5700  -21.8180   20.3160 C   0  0  0  0  0  3  0  0  0  0  0  0
  -29.1200  -20.3800   19.6540 C   0  0  0  0  0  3  0  0  0  0  0  0
  -27.5720  -18.5110   20.5760 C   0  0  0  0  0  1  0  0  0  0  0  0
  -29.0530  -18.8590   20.3610 C   0  0  0  0  0  3  0  0  0  0  0  0
  -29.8510  -17.5320   19.7160 C   0  0  0  0  0  2  0  0  0  0  0  0
  -30.4740  -14.8870   19.9350 C   0  0  0  0  0  0  0  0  0  0  0  0
  -30.2840  -12.5790   18.9420 C   0  0  0  0  0  2  0  0  0  0  0  0
  -29.2670  -12.6210   17.7740 C   0  0  0  0  0  2  0  0  0  0  0  0
  -27.8230  -12.4350   18.2770 C   0  0  0  0  0  2  0  0  0  0  0  0
  -27.5250  -13.3030   19.5280 C   0  0  0  0  0  3  0  0  0  0  0  0
  -28.6470  -13.2110   20.5850 C   0  0  0  0  0  2  0  0  0  0  0  0
  -29.8890  -13.6270   19.9210 N   0  0  0  0  0  0  0  0  0  0  0  0
  -31.6410  -14.9840   19.5310 O   0  0  0  0  0  0  0  0  0  0  0  0
  -29.6880  -16.0390   20.1730 N   0  0  0  0  0  0  0  0  0  0  0  0
  -28.7630  -15.8220   20.5160 H   0  0  0  0  0  0  0  0  0  0  0  0
  -25.2000  -13.8900   20.4130 C   0  0  0  0  0  0  0  0  0  0  0  0
  -24.1550  -13.1170   20.8340 C   0  0  0  0  0  0  0  0  0  0  0  0
  -24.6080  -11.7630   20.7560 C   0  0  0  0  0  0  0  0  0  0  0  0
  -26.2190  -13.0100   20.0980 N   0  0  0  0  0  0  0  0  0  0  0  0
  -25.8770  -11.7250   20.3710 N   0  0  0  0  0  0  0  0  0  0  0  0
  -23.8880  -10.5020   20.9670 C   0  0  0  0  0  0  0  0  0  0  0  0
  -24.3520   -9.5300   21.8810 C   0  0  0  0  0  3  0  0  0  0  0  0
  -23.6320   -8.3320   22.0840 C   0  0  0  0  0  3  0  0  0  0  0  0
  -22.4300   -8.1000   21.3720 C   0  0  0  0  0  0  0  0  0  0  0  0
  -21.9860   -9.0570   20.4450 C   0  0  0  0  0  3  0  0  0  0  0  0
  -22.7070  -10.2460   20.2400 C   0  0  0  0  0  3  0  0  0  0  0  0
  -21.6740   -6.9590   21.4880 O   0  0  0  0  0  0  0  0  0  0  0  0
  -21.6440   -6.2310   22.6500 C   0  0  0  0  0  0  0  0  0  0  0  0
  -21.2550   -6.8040   23.8800 C   0  0  0  0  0  3  0  0  0  0  0  0
  -21.1660   -6.0010   25.0350 C   0  0  0  0  0  3  0  0  0  0  0  0
  -21.4640   -4.6280   24.9620 C   0  0  0  0  0  0  0  0  0  0  0  0
  -21.8540   -4.0550   23.7390 C   0  0  0  0  0  3  0  0  0  0  0  0
  -21.9400   -4.8540   22.5860 C   0  0  0  0  0  0  0  0  0  0  0  0
  -22.2920   -4.2920   21.4050 F   0  0  0  0  0  0  0  0  0  0  0  0
  -21.3760   -3.8560   26.0710 F   0  0  0  0  0  0  0  0  0  0  0  0
  -22.7770  -13.5920   21.1900 C   0  0  0  0  0  0  0  0  0  0  0  0
  -22.0990  -12.8910   22.0910 N   0  0  0  0  0  0  0  0  0  0  0  0
  -22.3120  -14.6200   20.7010 O   0  0  0  0  0  0  0  0  0  0  0  0
  -22.4870  -12.0540   22.5000 H   0  0  0  0  0  0  0  0  0  0  0  0
  -21.1790  -13.1940   22.3770 H   0  0  0  0  0  0  0  0  0  0  0  0
  -25.3680  -15.2640   20.2410 N   0  0  0  0  0  0  0  0  0  0  0  0
  -24.6350  -15.9370   20.4320 H   0  0  0  0  0  0  0  0  0  0  0  0
  -26.1830  -15.6850   19.8130 H   0  0  0  0  0  0  0  0  0  0  0  0
  -28.0590  -24.7010   20.4160 C   0  0  0  0  0  2  0  0  0  0  0  0
  -28.2740  -26.2070   20.1060 O   0  0  0  0  0  0  0  0  0  0  0  0
  -24.6390  -31.8520   23.1990 C   0  0  0  0  0  0  0  0  0  0  0  0
  -27.2050  -27.1640   20.1220 C   0  0  0  0  0  0  0  0  0  0  0  0
  -23.4330  -30.4570   21.5610 C   0  0  0  0  0  3  0  0  0  0  0  0
  -24.8770  -28.8920   20.1160 C   0  0  0  0  0  0  0  0  0  0  0  0
  -25.9840  -30.7270   21.3870 C   0  0  0  0  0  2  0  0  0  0  0  0
  -26.0550  -29.3360   20.7320 C   0  0  0  0  0  0  0  0  0  0  0  0
  -27.2240  -28.4870   20.7140 C   0  0  0  0  0  3  0  0  0  0  0  0
  -26.0060  -26.8190   19.4680 C   0  0  0  0  0  3  0  0  0  0  0  0
  -24.8660  -27.6520   19.4580 C   0  0  0  0  0  3  0  0  0  0  0  0
  -23.6450  -29.7790   20.1800 C   0  0  0  0  0  2  0  0  0  0  0  0
  -24.7060  -31.0330   22.1050 N   0  0  0  0  0  0  0  0  0  0  0  0
  -23.5560  -32.1360   23.7350 O   0  0  0  0  0  0  0  0  0  0  0  0
  -22.7650  -29.4460   22.5250 C   0  0  0  0  0  0  0  0  0  0  0  0
  -21.4350  -29.2820   22.4090 N   0  0  0  0  0  0  0  0  0  0  0  0
  -23.4460  -28.8110   23.3360 O   0  0  0  0  0  0  0  0  0  0  0  0
  -20.9390  -29.8440   21.7330 H   0  0  0  0  0  0  0  0  0  0  0  0
  -18.0620  -28.0920   22.9280 C   0  0  0  0  0  0  0  0  0  0  0  0
  -20.6220  -28.3400   23.1830 C   0  0  0  0  0  3  0  0  0  0  0  0
  -20.7160  -26.9120   22.5960 C   0  0  0  0  0  2  0  0  0  0  0  0
  -19.6020  -26.5950   21.5930 C   0  0  0  0  0  2  0  0  0  0  0  0
  -18.2230  -26.7520   22.2350 C   0  0  0  0  0  2  0  0  0  0  0  0
  -19.1860  -28.8460   23.3600 C   0  0  0  0  0  0  0  0  0  0  0  0
  -18.9730  -30.1050   23.9650 C   0  0  0  0  0  3  0  0  0  0  0  0
  -17.6690  -30.6010   24.1560 C   0  0  0  0  0  3  0  0  0  0  0  0
  -16.5600  -29.8480   23.7340 C   0  0  0  0  0  3  0  0  0  0  0  0
  -16.7600  -28.5990   23.1200 C   0  0  0  0  0  3  0  0  0  0  0  0
  -25.9220  -32.4820   23.8210 C   0  0  0  0  0  3  0  0  0  0  0  0
  -26.4430  -31.7040   25.0930 C   0  0  1  0  0  0  0  0  0  0  0  0
  -25.3540  -31.4630   26.1640 C   0  0  0  0  0  1  0  0  0  0  0  0
  -27.0210  -30.3240   24.6970 C   0  0  0  0  0  1  0  0  0  0  0  0
  -27.5990  -32.4940   25.7500 C   0  0  0  0  0  1  0  0  0  0  0  0
  -25.6180  -33.8810   24.1600 N   0  0  0  0  0  0  0  0  0  0  0  0
  -25.9440  -34.9370   23.4040 C   0  0  0  0  0  0  0  0  0  0  0  0
  -26.6040  -34.8390   22.3650 O   0  0  0  0  0  0  0  0  0  0  0  0
  -25.0340  -34.0350   24.9680 H   0  0  0  0  0  0  0  0  0  0  0  0
  -24.2070  -36.7320   23.0870 C   0  0  0  0  0  1  0  0  0  0  0  0
  -25.4610  -36.3210   23.8760 C   0  0  0  0  0  3  0  0  0  0  0  0
  -27.6060  -37.2120   24.6810 C   0  0  0  0  0  1  0  0  0  0  0  0
  -26.4900  -37.3760   23.7530 N   0  0  0  0  0  0  0  0  0  0  0  0
  -26.0810  -38.2940   23.9110 H   0  0  0  0  0  0  0  0  0  0  0  0
  2  1  1  6
  2  5  1  0
  2 48  1  0
  3  4  1  0
  4  2  1  0
  6  5  2  0
  6  8  1  0
  8  7  1  0
  9 18  1  0
  9  8  1  0
 10 18  1  0
 11 16  1  0
 12 13  1  0
 12 11  1  0
 14 13  1  0
 14 23  1  0
 14 15  1  0
 16 10  1  0
 16 15  1  0
 17 10  2  0
 18 19  1  0
 20 21  2  0
 21 40  1  0
 22 21  1  0
 22 25  1  0
 23 24  1  0
 23 20  1  0
 24 22  2  0
 25 26  1  0
 26 27  2  0
 28 31  1  0
 28 27  1  0
 29 28  2  0
 30 29  1  0
 30 25  2  0
 31 32  1  0
 32 33  1  0
 33 34  2  0
 35 34  1  0
 35 39  1  0
 36 35  2  0
 37 32  2  0
 37 36  1  0
 38 37  1  0
 40 41  1  0
 41 44  1  0
 41 43  1  0
 42 40  2  0
 45 20  1  0
 45 46  1  0
 47 45  1  0
 49 51  1  0
 49 48  1  0
 50 61  2  0
 51 56  1  0
 52 60  1  0
 52 62  1  0
 53 59  1  0
 53 55  1  0
 54 60  1  0
 55 54  1  0
 56 55  2  0
 57 51  2  0
 58 57  1  0
 58 53  2  0
 59 52  1  0
 60 50  1  0
 62 64  2  0
 63 62  1  0
 65 63  1  0
 66 75  2  0
 66 71  1  0
 67 63  1  0
 67 71  1  0
 68 67  1  0
 69 70  1  0
 69 68  1  0
 70 66  1  0
 71 72  2  0
 72 73  1  0
 74 73  2  0
 75 74  1  0
 76 50  1  0
 76 81  1  0
 76 77  1  0
 77 80  1  1
 77 78  1  0
 79 77  1  0
 81 84  1  0
 82 86  1  0
 82 81  1  0
 83 82  2  0
 86 85  1  0
 88 86  1  0
 88 89  1  0
 88 87  1  0
M  ISO  4  10 100  18 100  48 101  49 101
M  END
>  <TORSDO>  (40) 
F 22

>  <SCORE>  (40) 
-12.646

>  <name>  (40) 
39

>  <ligand_id>  (40) 
39

>  <original_smiles>  (40) 
[H]c1c([H])c([H])c2c(c1[H])C([H])([H])C([H])([H])C([H])([H])C2([H])N([H])C(=O)C1([H])N(C(=O)C([H])(N([H])C(=O)C([H])(N([H])C([H])([H])[H])C([H])([H])[H])C(C([H])([H])[H])(C([H])([H])[H])C([H])([H])[H])C([H])([H])c2c([H])c(OC([H])([H])C(C([H])([H])[H])(C([H])([H])C([H])([H])[H])C([H])([H])C([H])([H])C([H])(C([H])([H])[H])C([H])([H])N([H])C(=O)N3C([H])([H])C([H])([H])C([H])([H])C([H])(n4nc(-c5c([H])c([H])c(Oc6c([H])c([H])c(F)c([H])c6F)c([H])c5[H])c(C(=O)N([H])[H])c4N([H])[H])C3([H])[H])c([H])c([H])c2C1([H])[H]

>  <smiles>  (40) 
[H]c1c([H])c([H])c2c(c1[H])C([H])([H])C([H])([H])C([H])([H])C2([H])N([H])C(=O)C1([H])N(C(=O)C([H])(N([H])C(=O)C([H])(N([H])C([H])([H])[H])C([H])([H])[H])C(C([H])([H])[H])(C([H])([H])[H])C([H])([H])[H])C([H])([H])c2c([H])c(OC([H])([H])C(C([H])([H])[H])(C([H])([H])C([H])([H])[H])C([H])([H])C([H])([H])C([H])(C([H])([H])[H])C([H])([H])N([H])C(=O)N3C([H])([H])C([H])([H])C([H])([H])C([H])(n4nc(-c5c([H])c([H])c(Oc6c([H])c([H])c(F)c([H])c6F)c([H])c5[H])c(C(=O)N([H])[H])c4N([H])[H])C3([H])[H])c([H])c([H])c2C1([H])[H]

$$$$
40:0:0
     RDKit          3D

 95103  0  0  1  0  0  0  0  0999 V2000
  -28.4010  -20.8690   20.6440 C   0  0  0  0  0  3  0  0  0  0  0  0
  -30.2610  -21.6470   19.7940 C   0  0  0  0  0  3  0  0  0  0  0  0
  -29.6510  -20.4290   20.1240 C   0  0  0  0  0  0  0  0  0  0  0  0
  -28.2370  -22.2340   20.5070 C   0  0  0  0  0  0  0  0  0  0  0  0
  -29.4200  -22.7870   19.9960 N   0  0  0  0  0  0  0  0  0  0  0  0
  -26.9800  -23.5920   22.2140 C   0  0  0  0  0  1  0  0  0  0  0  0
  -25.7120  -22.1860   20.5690 C   0  0  0  0  0  1  0  0  0  0  0  0
  -26.9850  -23.0170   20.7930 C   0  0  0  0  0  3  0  0  0  0  0  0
  -29.7390  -24.2340   19.5440 C   0  0  0  0  0  2  0  0  0  0  0  0
  -29.0960  -25.5830   20.1850 C   0  0  0  0  0  2  0  0  0  0  0  0
  -28.9930  -26.8680   19.4110 O   0  0  0  0  0  0  0  0  0  0  0  0
  -24.7320  -31.6280   22.8700 C   0  0  0  0  0  0  0  0  0  0  0  0
  -27.7980  -27.6160   19.4640 C   0  0  0  0  0  0  0  0  0  0  0  0
  -23.6800  -30.2630   21.1010 C   0  0  0  0  0  3  0  0  0  0  0  0
  -25.2840  -28.9960   19.5600 C   0  0  0  0  0  0  0  0  0  0  0  0
  -26.1750  -30.8480   20.9740 C   0  0  0  0  0  2  0  0  0  0  0  0
  -26.3980  -29.5430   20.2100 C   0  0  0  0  0  0  0  0  0  0  0  0
  -27.6590  -28.8700   20.1470 C   0  0  0  0  0  3  0  0  0  0  0  0
  -26.6570  -27.1290   18.7940 C   0  0  0  0  0  3  0  0  0  0  0  0
  -25.4160  -27.7970   18.8420 C   0  0  0  0  0  3  0  0  0  0  0  0
  -23.9650  -29.7390   19.6700 C   0  0  0  0  0  2  0  0  0  0  0  0
  -24.8780  -30.9290   21.7060 N   0  0  0  0  0  0  0  0  0  0  0  0
  -23.6240  -31.7480   23.4150 O   0  0  0  0  0  0  0  0  0  0  0  0
  -23.1200  -29.1070   21.9630 C   0  0  0  0  0  0  0  0  0  0  0  0
  -21.8110  -28.8290   21.8280 N   0  0  0  0  0  0  0  0  0  0  0  0
  -23.8590  -28.4670   22.7150 O   0  0  0  0  0  0  0  0  0  0  0  0
  -21.2680  -29.4030   21.1980 H   0  0  0  0  0  0  0  0  0  0  0  0
  -18.5430  -27.3470   22.2870 C   0  0  0  0  0  0  0  0  0  0  0  0
  -21.0860  -27.7540   22.5080 C   0  0  0  0  0  3  0  0  0  0  0  0
  -21.2630  -26.4100   21.7640 C   0  0  0  0  0  2  0  0  0  0  0  0
  -20.1470  -26.1300   20.7520 C   0  0  0  0  0  2  0  0  0  0  0  0
  -18.7840  -26.1010   21.4510 C   0  0  0  0  0  2  0  0  0  0  0  0
  -19.6240  -28.1320   22.7690 C   0  0  0  0  0  0  0  0  0  0  0  0
  -19.3440  -29.2990   23.5130 C   0  0  0  0  0  3  0  0  0  0  0  0
  -18.0160  -29.6840   23.7770 C   0  0  0  0  0  3  0  0  0  0  0  0
  -16.9490  -28.8950   23.3100 C   0  0  0  0  0  3  0  0  0  0  0  0
  -17.2150  -27.7280   22.5710 C   0  0  0  0  0  3  0  0  0  0  0  0
  -25.9430  -32.3280   23.5590 C   0  0  0  0  0  3  0  0  0  0  0  0
  -25.4820  -33.6360   24.0470 N   0  0  0  0  0  0  0  0  0  0  0  0
  -25.6750  -34.7980   23.4080 C   0  0  0  0  0  0  0  0  0  0  0  0
  -26.3270  -34.8880   22.3640 O   0  0  0  0  0  0  0  0  0  0  0  0
  -24.8850  -33.6290   24.8600 H   0  0  0  0  0  0  0  0  0  0  0  0
  -23.7470  -36.4110   23.2780 C   0  0  0  0  0  1  0  0  0  0  0  0
  -25.0450  -36.0610   24.0230 C   0  0  0  0  0  3  0  0  0  0  0  0
  -27.0810  -37.0910   24.9330 C   0  0  0  0  0  1  0  0  0  0  0  0
  -25.9490  -37.2320   24.0220 N   0  0  0  0  0  0  0  0  0  0  0  0
  -25.4430  -38.0790   24.2710 H   0  0  0  0  0  0  0  0  0  0  0  0
  -26.5590  -31.4810   24.7410 C   0  0  1  0  0  0  0  0  0  0  0  0
  -25.5130  -31.0100   25.7770 C   0  0  0  0  0  1  0  0  0  0  0  0
  -27.2820  -30.2260   24.1980 C   0  0  0  0  0  1  0  0  0  0  0  0
  -27.6290  -32.3180   25.4820 C   0  0  0  0  0  1  0  0  0  0  0  0
  -30.0400  -18.8900   19.8480 C   0  0  0  0  0  3  0  0  0  0  0  0
  -31.1240  -18.8010   18.8630 N   0  0  0  0  0  4  0  0  0  0  0  0
  -31.9670  -19.2050   19.2290 H   0  0  0  0  0  0  0  0  0  0  0  0
  -30.8670  -19.2830   18.0210 H   0  0  0  0  0  0  0  0  0  0  0  0
  -31.2990  -17.8390   18.6400 H   0  0  0  0  0  0  0  0  0  0  0  0
  -30.2910  -17.8170   21.0280 C   0  0  0  0  0  2  0  0  0  0  0  0
  -30.8720  -15.2380   20.5840 C   0  0  0  0  0  0  0  0  0  0  0  0
  -30.7690  -12.9460   19.5830 C   0  0  0  0  0  2  0  0  0  0  0  0
  -29.8750  -12.9750   18.3230 C   0  0  0  0  0  2  0  0  0  0  0  0
  -28.3920  -12.7810   18.6960 C   0  0  0  0  0  2  0  0  0  0  0  0
  -27.9490  -13.6860   19.8760 C   0  0  0  0  0  3  0  0  0  0  0  0
  -28.9620  -13.6320   21.0410 C   0  0  0  0  0  2  0  0  0  0  0  0
  -30.2780  -14.0000   20.4970 N   0  0  0  0  0  0  0  0  0  0  0  0
  -32.0680  -15.3840   20.3200 O   0  0  0  0  0  0  0  0  0  0  0  0
  -30.0430  -16.3270   20.7710 N   0  0  0  0  0  0  0  0  0  0  0  0
  -29.0780  -16.0580   20.8810 H   0  0  0  0  0  0  0  0  0  0  0  0
  -25.5370  -14.2550   20.5460 C   0  0  0  0  0  0  0  0  0  0  0  0
  -24.4590  -13.4690   20.8520 C   0  0  0  0  0  0  0  0  0  0  0  0
  -24.9250  -12.1200   20.7870 C   0  0  0  0  0  0  0  0  0  0  0  0
  -26.5900  -13.3840   20.3130 N   0  0  0  0  0  0  0  0  0  0  0  0
  -26.2260  -12.0930   20.5210 N   0  0  0  0  0  0  0  0  0  0  0  0
  -24.1930  -10.8510   20.9040 C   0  0  0  0  0  0  0  0  0  0  0  0
  -24.5860   -9.8520   21.8220 C   0  0  0  0  0  3  0  0  0  0  0  0
  -23.8540   -8.6510   21.9300 C   0  0  0  0  0  3  0  0  0  0  0  0
  -22.7130   -8.4390   21.1180 C   0  0  0  0  0  0  0  0  0  0  0  0
  -22.3400   -9.4260   20.1890 C   0  0  0  0  0  3  0  0  0  0  0  0
  -23.0740  -10.6190   20.0800 C   0  0  0  0  0  3  0  0  0  0  0  0
  -21.9570   -7.2930   21.1360 O   0  0  0  0  0  0  0  0  0  0  0  0
  -21.8480   -6.5190   22.2650 C   0  0  0  0  0  0  0  0  0  0  0  0
  -21.3420   -7.0360   23.4770 C   0  0  0  0  0  3  0  0  0  0  0  0
  -21.1820   -6.1880   24.5920 C   0  0  0  0  0  3  0  0  0  0  0  0
  -21.5190   -4.8250   24.4940 C   0  0  0  0  0  0  0  0  0  0  0  0
  -22.0190   -4.3070   23.2860 C   0  0  0  0  0  3  0  0  0  0  0  0
  -22.1800   -5.1520   22.1740 C   0  0  0  0  0  0  0  0  0  0  0  0
  -22.6410   -4.6430   21.0060 F   0  0  0  0  0  0  0  0  0  0  0  0
  -21.3590   -4.0090   25.5620 F   0  0  0  0  0  0  0  0  0  0  0  0
  -23.0540  -13.9360   21.0910 C   0  0  0  0  0  0  0  0  0  0  0  0
  -22.2980  -13.2120   21.9090 N   0  0  0  0  0  0  0  0  0  0  0  0
  -22.6320  -14.9770   20.5890 O   0  0  0  0  0  0  0  0  0  0  0  0
  -22.6500  -12.3680   22.3350 H   0  0  0  0  0  0  0  0  0  0  0  0
  -21.3540  -13.5060   22.1130 H   0  0  0  0  0  0  0  0  0  0  0  0
  -25.7030  -15.6320   20.4250 N   0  0  0  0  0  0  0  0  0  0  0  0
  -24.9240  -16.2740   20.5320 H   0  0  0  0  0  0  0  0  0  0  0  0
  -26.5470  -16.0870   20.1060 H   0  0  0  0  0  0  0  0  0  0  0  0
  2  5  1  0
  2  3  2  0
  3  1  1  0
  4  1  2  0
  4  8  1  0
  5  4  1  0
  7  8  1  0
  8  6  1  0
  9  5  1  0
  9 10  1  0
 11 13  1  0
 11 10  1  0
 12 23  2  0
 13 18  1  0
 14 22  1  0
 14 24  1  0
 15 21  1  0
 15 17  1  0
 16 22  1  0
 17 16  1  0
 18 17  2  0
 19 20  1  0
 19 13  2  0
 20 15  2  0
 21 14  1  0
 22 12  1  0
 24 26  2  0
 25 24  1  0
 27 25  1  0
 28 37  2  0
 28 33  1  0
 29 25  1  0
 29 33  1  0
 30 29  1  0
 31 32  1  0
 31 30  1  0
 32 28  1  0
 33 34  2  0
 34 35  1  0
 36 35  2  0
 37 36  1  0
 38 12  1  0
 38 39  1  0
 38 48  1  0
 39 42  1  0
 40 44  1  0
 40 39  1  0
 41 40  2  0
 44 43  1  0
 46 44  1  0
 46 47  1  0
 46 45  1  0
 48 51  1  1
 48 49  1  0
 50 48  1  0
 52  3  1  0
 52 57  1  0
 53 54  1  0
 53 52  1  0
 55 53  1  0
 56 53  1  0
 58 66  1  0
 59 64  1  0
 60 61  1  0
 60 59  1  0
 62 61  1  0
 62 71  1  0
 62 63  1  0
 64 58  1  0
 64 63  1  0
 65 58  2  0
 66 67  1  0
 66 57  1  0
 68 69  2  0
 69 88  1  0
 70 69  1  0
 70 73  1  0
 71 72  1  0
 71 68  1  0
 72 70  2  0
 73 74  1  0
 74 75  2  0
 76 79  1  0
 76 75  1  0
 77 76  2  0
 78 77  1  0
 78 73  2  0
 79 80  1  0
 80 81  1  0
 81 82  2  0
 83 82  1  0
 83 87  1  0
 84 83  2  0
 85 80  2  0
 85 84  1  0
 86 85  1  0
 88 89  1  0
 89 92  1  0
 89 91  1  0
 90 88  2  0
 93 94  1  0
 93 68  1  0
 95 93  1  0
M  ISO  4  10 101  11 101  58 100  66 100
M  END
>  <TORSDO>  (41) 
F 22

>  <SCORE>  (41) 
-10.114

>  <name>  (41) 
40

>  <ligand_id>  (41) 
40

>  <original_smiles>  (41) 
[H]c1c([H])c([H])c2c(c1[H])C([H])([H])C([H])([H])C([H])([H])C2([H])N([H])C(=O)C1([H])N(C(=O)C([H])(N([H])C(=O)C([H])(N([H])C([H])([H])[H])C([H])([H])[H])C(C([H])([H])[H])(C([H])([H])[H])C([H])([H])[H])C([H])([H])c2c([H])c(OC([H])([H])C([H])([H])n3c([H])c(C([H])(C([H])([H])N([H])C(=O)N4C([H])([H])C([H])([H])C([H])([H])C([H])(n5nc(-c6c([H])c([H])c(Oc7c([H])c([H])c(F)c([H])c7F)c([H])c6[H])c(C(=O)N([H])[H])c5N([H])[H])C4([H])[H])[N+]([H])([H])[H])c([H])c3C([H])(C([H])([H])[H])C([H])([H])[H])c([H])c([H])c2C1([H])[H]

>  <smiles>  (41) 
[H]c1c([H])c([H])c2c(c1[H])C([H])([H])C([H])([H])C([H])([H])C2([H])N([H])C(=O)C1([H])N(C(=O)C([H])(N([H])C(=O)C([H])(N([H])C([H])([H])[H])C([H])([H])[H])C(C([H])([H])[H])(C([H])([H])[H])C([H])([H])[H])C([H])([H])c2c([H])c(OC([H])([H])C([H])([H])n3c([H])c(C([H])(C([H])([H])N([H])C(=O)N4C([H])([H])C([H])([H])C([H])([H])C([H])(n5nc(-c6c([H])c([H])c(Oc7c([H])c([H])c(F)c([H])c7F)c([H])c6[H])c(C(=O)N([H])[H])c5N([H])[H])C4([H])[H])[N+]([H])([H])[H])c([H])c3C([H])(C([H])([H])[H])C([H])([H])[H])c([H])c([H])c2C1([H])[H]

$$$$
41:0:0
     RDKit          3D

 89 97  0  0  1  0  0  0  0  0999 V2000
  -27.7980  -21.1340   20.2970 C   0  0  0  0  0  2  0  0  0  0  0  0
  -30.0890  -21.6550   20.4930 C   0  0  0  0  0  2  0  0  0  0  0  0
  -27.4640  -22.8040   19.9680 C   0  0  0  0  0  2  0  0  0  0  0  0
  -29.7100  -23.2670   20.0700 C   0  0  0  0  0  2  0  0  0  0  0  0
  -29.2280  -20.3230   19.9840 C   0  0  0  0  0  3  0  0  0  0  0  0
  -28.3490  -24.1300   20.4940 C   0  0  0  0  0  3  0  0  0  0  0  0
  -28.2650  -25.8270   20.2640 O   0  0  0  0  0  0  0  0  0  0  0  0
  -24.6210  -31.9260   23.2490 C   0  0  0  0  0  0  0  0  0  0  0  0
  -27.2170  -26.9270   20.3230 C   0  0  0  0  0  0  0  0  0  0  0  0
  -23.4480  -30.5010   21.6230 C   0  0  0  0  0  3  0  0  0  0  0  0
  -24.9140  -28.8630   20.2410 C   0  0  0  0  0  0  0  0  0  0  0  0
  -26.0190  -30.7030   21.4900 C   0  0  0  0  0  2  0  0  0  0  0  0
  -26.1030  -29.2660   20.8630 C   0  0  0  0  0  0  0  0  0  0  0  0
  -27.2460  -28.3280   20.8620 C   0  0  0  0  0  3  0  0  0  0  0  0
  -25.9840  -26.6940   19.6730 C   0  0  0  0  0  3  0  0  0  0  0  0
  -24.8890  -27.6000   19.6240 C   0  0  0  0  0  3  0  0  0  0  0  0
  -23.6930  -29.7900   20.2660 C   0  0  0  0  0  2  0  0  0  0  0  0
  -24.7200  -31.0680   22.1770 N   0  0  0  0  0  0  0  0  0  0  0  0
  -23.5250  -32.2200   23.7570 O   0  0  0  0  0  0  0  0  0  0  0  0
  -22.7510  -29.5140   22.5960 C   0  0  0  0  0  0  0  0  0  0  0  0
  -21.4250  -29.3400   22.4660 N   0  0  0  0  0  0  0  0  0  0  0  0
  -23.4130  -28.9150   23.4500 O   0  0  0  0  0  0  0  0  0  0  0  0
  -20.9420  -29.8750   21.7570 H   0  0  0  0  0  0  0  0  0  0  0  0
  -18.0480  -28.1120   22.9710 C   0  0  0  0  0  0  0  0  0  0  0  0
  -20.6030  -28.4040   23.2420 C   0  0  0  0  0  3  0  0  0  0  0  0
  -20.7180  -26.9670   22.6830 C   0  0  0  0  0  2  0  0  0  0  0  0
  -19.6240  -26.6260   21.6660 C   0  0  0  0  0  2  0  0  0  0  0  0
  -18.2400  -26.7610   22.3060 C   0  0  0  0  0  2  0  0  0  0  0  0
  -19.1570  -28.8900   23.3980 C   0  0  0  0  0  0  0  0  0  0  0  0
  -18.9230  -30.1490   23.9920 C   0  0  0  0  0  3  0  0  0  0  0  0
  -17.6120  -30.6400   24.1500 C   0  0  0  0  0  3  0  0  0  0  0  0
  -16.5170  -29.8570   23.7410 C   0  0  0  0  0  3  0  0  0  0  0  0
  -16.7350  -28.5940   23.1640 C   0  0  0  0  0  3  0  0  0  0  0  0
  -25.8810  -32.5930   23.8800 C   0  0  0  0  0  3  0  0  0  0  0  0
  -25.5530  -33.9970   24.1920 N   0  0  0  0  0  0  0  0  0  0  0  0
  -25.8990  -35.0510   23.4390 C   0  0  0  0  0  0  0  0  0  0  0  0
  -26.5970  -34.9460   22.4290 O   0  0  0  0  0  0  0  0  0  0  0  0
  -24.9410  -34.1530   24.9790 H   0  0  0  0  0  0  0  0  0  0  0  0
  -24.1960  -36.8540   23.0200 C   0  0  0  0  0  1  0  0  0  0  0  0
  -25.4020  -36.4440   23.8810 C   0  0  0  0  0  3  0  0  0  0  0  0
  -27.5020  -37.3240   24.8050 C   0  0  0  0  0  1  0  0  0  0  0  0
  -26.4450  -37.4940   23.8080 N   0  0  0  0  0  0  0  0  0  0  0  0
  -26.0380  -38.4170   23.9360 H   0  0  0  0  0  0  0  0  0  0  0  0
  -26.3740  -31.8580   25.1870 C   0  0  1  0  0  0  0  0  0  0  0  0
  -25.2550  -31.6370   26.2330 C   0  0  0  0  0  1  0  0  0  0  0  0
  -26.9790  -30.4770   24.8480 C   0  0  0  0  0  1  0  0  0  0  0  0
  -27.5040  -32.6740   25.8590 C   0  0  0  0  0  1  0  0  0  0  0  0
  -29.7770  -18.4960   19.7100 C   0  0  0  0  0  0  0  0  0  0  0  0
  -30.4740  -15.5770   20.2730 C   0  0  0  0  0  0  0  0  0  0  0  0
  -30.5080  -13.0540   19.5070 C   0  0  0  0  0  2  0  0  0  0  0  0
  -29.6740  -12.8070   18.2230 C   0  0  0  0  0  2  0  0  0  0  0  0
  -28.2020  -12.5330   18.5820 C   0  0  0  0  0  2  0  0  0  0  0  0
  -27.7010  -13.4790   19.7020 C   0  0  0  0  0  3  0  0  0  0  0  0
  -28.6970  -13.6920   20.8590 C   0  0  0  0  0  2  0  0  0  0  0  0
  -29.9350  -14.2370   20.2720 N   0  0  0  0  0  0  0  0  0  0  0  0
  -31.6890  -15.5430   20.0150 O   0  0  0  0  0  0  0  0  0  0  0  0
  -29.7200  -16.9020   20.3730 N   0  0  0  0  0  4  0  0  0  0  0  0
  -28.7800  -16.7120   20.6890 H   0  0  0  0  0  0  0  0  0  0  0  0
  -25.3240  -14.0080   20.4440 C   0  0  0  0  0  0  0  0  0  0  0  0
  -24.2640  -13.2310   20.8060 C   0  0  0  0  0  0  0  0  0  0  0  0
  -24.7390  -11.8810   20.7890 C   0  0  0  0  0  0  0  0  0  0  0  0
  -26.3720  -13.1410   20.1960 N   0  0  0  0  0  0  0  0  0  0  0  0
  -26.0320  -11.8560   20.4760 N   0  0  0  0  0  0  0  0  0  0  0  0
  -24.0200  -10.6140   20.9800 C   0  0  0  0  0  0  0  0  0  0  0  0
  -24.4340   -9.6590   21.9360 C   0  0  0  0  0  3  0  0  0  0  0  0
  -23.7020   -8.4640   22.1160 C   0  0  0  0  0  3  0  0  0  0  0  0
  -22.5450   -8.2130   21.3400 C   0  0  0  0  0  0  0  0  0  0  0  0
  -22.1490   -9.1600   20.3780 C   0  0  0  0  0  3  0  0  0  0  0  0
  -22.8790  -10.3450   20.1960 C   0  0  0  0  0  3  0  0  0  0  0  0
  -21.7950   -7.0630   21.4180 O   0  0  0  0  0  0  0  0  0  0  0  0
  -21.7060   -6.3380   22.5800 C   0  0  0  0  0  0  0  0  0  0  0  0
  -21.2170   -6.9070   23.7770 C   0  0  0  0  0  3  0  0  0  0  0  0
  -21.0870   -6.1100   24.9300 C   0  0  0  0  0  3  0  0  0  0  0  0
  -21.4280   -4.7440   24.8870 C   0  0  0  0  0  0  0  0  0  0  0  0
  -21.9120   -4.1780   23.6950 C   0  0  0  0  0  3  0  0  0  0  0  0
  -22.0480   -4.9720   22.5440 C   0  0  0  0  0  0  0  0  0  0  0  0
  -22.4940   -4.4140   21.3910 F   0  0  0  0  0  0  0  0  0  0  0  0
  -21.2940   -3.9790   25.9960 F   0  0  0  0  0  0  0  0  0  0  0  0
  -22.8600  -13.7020   21.0510 C   0  0  0  0  0  0  0  0  0  0  0  0
  -22.1320  -13.0130   21.9140 N   0  0  0  0  0  0  0  0  0  0  0  0
  -22.4330  -14.7260   20.5170 O   0  0  0  0  0  0  0  0  0  0  0  0
  -22.5050  -12.1890   22.3640 H   0  0  0  0  0  0  0  0  0  0  0  0
  -21.1940  -13.3180   22.1330 H   0  0  0  0  0  0  0  0  0  0  0  0
  -25.4860  -15.3820   20.2810 N   0  0  0  0  0  0  0  0  0  0  0  0
  -24.7190  -16.0310   20.4170 H   0  0  0  0  0  0  0  0  0  0  0  0
  -26.3280  -15.8240   19.9440 H   0  0  0  0  0  0  0  0  0  0  0  0
  -27.7770  -17.9530   18.1490 C   0  0  0  0  0  1  0  0  0  0  0  0
  -29.8920  -18.9080   17.0620 C   0  0  0  0  0  1  0  0  0  0  0  0
  -29.3100  -18.1100   18.2510 C   0  0  0  0  0  3  0  0  0  0  0  0
  3  1  1  0
  3  6  1  0
  4  2  1  0
  4  6  1  0
  5 48  1  0
  5  1  1  0
  5  2  1  0
  6  7  1  0
  7  9  1  0
  8 19  2  0
  9 14  1  0
 10 18  1  0
 10 20  1  0
 11 17  1  0
 11 13  1  0
 12 18  1  0
 13 12  1  0
 14 13  2  0
 15  9  2  0
 16 15  1  0
 16 11  2  0
 17 10  1  0
 18  8  1  0
 20 22  2  0
 21 20  1  0
 23 21  1  0
 24 33  2  0
 24 29  1  0
 25 21  1  0
 25 29  1  0
 26 25  1  0
 27 28  1  0
 27 26  1  0
 28 24  1  0
 29 30  2  0
 30 31  1  0
 32 31  2  0
 33 32  1  0
 34  8  1  0
 34 35  1  0
 34 44  1  0
 35 38  1  0
 36 40  1  0
 36 35  1  0
 37 36  2  0
 40 39  1  0
 42 40  1  0
 42 43  1  0
 42 41  1  0
 44 47  1  1
 44 45  1  0
 46 44  1  0
 48 57  2  3
 49 57  1  0
 50 55  1  0
 51 52  1  0
 51 50  1  0
 53 52  1  0
 53 62  1  0
 53 54  1  0
 55 49  1  0
 55 54  1  0
 56 49  2  0
 57 58  1  0
 59 60  2  0
 60 79  1  0
 61 60  1  0
 61 64  1  0
 62 59  1  0
 62 63  1  0
 63 61  2  0
 64 65  1  0
 65 66  2  0
 67 70  1  0
 67 66  1  0
 68 67  2  0
 69 68  1  0
 69 64  2  0
 70 71  1  0
 71 72  1  0
 72 73  2  0
 74 73  1  0
 74 78  1  0
 75 74  2  0
 76 71  2  0
 76 75  1  0
 77 76  1  0
 79 80  1  0
 80 83  1  0
 80 82  1  0
 81 79  2  0
 84 85  1  0
 84 59  1  0
 86 84  1  0
 87 89  1  0
 88 89  1  0
 89 48  1  0
M  ISO  4   6 101   7 101  49 100  57 100
M  END
>  <TORSDO>  (42) 
F 18

>  <SCORE>  (42) 
-16.301

>  <name>  (42) 
41

>  <ligand_id>  (42) 
41

>  <original_smiles>  (42) 
[H]c1c([H])c([H])c2c(c1[H])C([H])([H])C([H])([H])C([H])([H])C2([H])N([H])C(=O)C1([H])N(C(=O)C([H])(N([H])C(=O)C([H])(N([H])C([H])([H])[H])C([H])([H])[H])C(C([H])([H])[H])(C([H])([H])[H])C([H])([H])[H])C([H])([H])c2c([H])c(OC3([H])C([H])([H])C([H])([H])C([H])(C([H])(N([H])C(=O)N4C([H])([H])C([H])([H])C([H])([H])C([H])(n5nc(-c6c([H])c([H])c(Oc7c([H])c([H])c(F)c([H])c7F)c([H])c6[H])c(C(=O)N([H])[H])c5N([H])[H])C4([H])[H])C([H])(C([H])([H])[H])C([H])([H])[H])C([H])([H])C3([H])[H])c([H])c([H])c2C1([H])[H]

>  <smiles>  (42) 
[H]c1c([H])c([H])c2c(c1[H])C([H])([H])C([H])([H])C([H])([H])C2([H])N([H])C(=O)C1([H])N(C(=O)C([H])(N([H])C(=O)C([H])(N([H])C([H])([H])[H])C([H])([H])[H])C(C([H])([H])[H])(C([H])([H])[H])C([H])([H])[H])C([H])([H])c2c([H])c(OC3([H])C([H])([H])C([H])([H])C([H])(C([H])(N([H])C(=O)N4C([H])([H])C([H])([H])C([H])([H])C([H])(n5nc(-c6c([H])c([H])c(Oc7c([H])c([H])c(F)c([H])c7F)c([H])c6[H])c(C(=O)N([H])[H])c5N([H])[H])C4([H])[H])C([H])(C([H])([H])[H])C([H])([H])[H])C([H])([H])C3([H])[H])c([H])c([H])c2C1([H])[H]

$$$$
42:0:0
     RDKit          3D

 90 98  0  0  1  0  0  0  0  0999 V2000
  -27.1090  -22.8270   21.2830 C   0  0  0  0  0  1  0  0  0  0  0  0
  -28.5050  -23.0290   20.6620 C   0  0  2  0  0  0  0  0  0  0  0  0
  -28.8720  -21.5390   19.8380 C   0  0  0  0  0  2  0  0  0  0  0  0
  -30.5880  -15.1050   19.9350 C   0  0  0  0  0  0  0  0  0  0  0  0
  -30.3280  -12.7580   18.9550 C   0  0  0  0  0  2  0  0  0  0  0  0
  -29.3250  -12.6560   17.7860 C   0  0  0  0  0  2  0  0  0  0  0  0
  -27.9070  -12.4130   18.3280 C   0  0  0  0  0  2  0  0  0  0  0  0
  -27.5660  -13.3470   19.5170 C   0  0  0  0  0  3  0  0  0  0  0  0
  -28.6950  -13.4300   20.5650 C   0  0  0  0  0  2  0  0  0  0  0  0
  -29.8900  -13.8860   19.8460 N   0  0  0  0  0  0  0  0  0  0  0  0
  -31.7870  -14.9980   19.6410 O   0  0  0  0  0  0  0  0  0  0  0  0
  -30.3940  -19.1660   19.4190 C   0  0  0  0  0  2  0  0  0  0  0  0
  -28.3450  -18.6600   20.3940 C   0  0  0  0  0  2  0  0  0  0  0  0
  -30.9430  -17.6720   19.7800 C   0  0  0  0  0  2  0  0  0  0  0  0
  -28.8440  -17.1030   20.7040 C   0  0  0  0  0  2  0  0  0  0  0  0
  -29.3440  -19.9290   20.3400 C   0  0  0  0  0  3  0  0  0  0  0  0
  -30.0360  -16.4650   20.0000 N   0  0  0  0  0  0  0  0  0  0  0  0
  -25.2550  -13.8960   20.4480 C   0  0  0  0  0  0  0  0  0  0  0  0
  -24.2190  -13.1100   20.8650 C   0  0  0  0  0  0  0  0  0  0  0  0
  -24.6770  -11.7610   20.7610 C   0  0  0  0  0  0  0  0  0  0  0  0
  -26.2750  -13.0270   20.1090 N   0  0  0  0  0  0  0  0  0  0  0  0
  -25.9450  -11.7340   20.3650 N   0  0  0  0  0  0  0  0  0  0  0  0
  -23.9600  -10.4950   20.9570 C   0  0  0  0  0  0  0  0  0  0  0  0
  -24.4120   -9.5220   21.8760 C   0  0  0  0  0  3  0  0  0  0  0  0
  -23.6890   -8.3240   22.0630 C   0  0  0  0  0  3  0  0  0  0  0  0
  -22.5020   -8.0880   21.3280 C   0  0  0  0  0  0  0  0  0  0  0  0
  -22.0720   -9.0480   20.3960 C   0  0  0  0  0  3  0  0  0  0  0  0
  -22.7950  -10.2380   20.2080 C   0  0  0  0  0  3  0  0  0  0  0  0
  -21.7490   -6.9430   21.4260 O   0  0  0  0  0  0  0  0  0  0  0  0
  -21.6780   -6.2260   22.5930 C   0  0  0  0  0  0  0  0  0  0  0  0
  -21.1980   -6.7980   23.7920 C   0  0  0  0  0  3  0  0  0  0  0  0
  -21.0770   -6.0040   24.9510 C   0  0  0  0  0  3  0  0  0  0  0  0
  -21.4250   -4.6410   24.9110 C   0  0  0  0  0  0  0  0  0  0  0  0
  -21.8980   -4.0690   23.7170 C   0  0  0  0  0  3  0  0  0  0  0  0
  -22.0210   -4.8590   22.5610 C   0  0  0  0  0  0  0  0  0  0  0  0
  -22.4560   -4.2970   21.4080 F   0  0  0  0  0  0  0  0  0  0  0  0
  -21.3020   -3.8770   26.0220 F   0  0  0  0  0  0  0  0  0  0  0  0
  -22.8450  -13.5820   21.2420 C   0  0  0  0  0  0  0  0  0  0  0  0
  -22.1710  -12.8570   22.1270 N   0  0  0  0  0  0  0  0  0  0  0  0
  -22.3820  -14.6260   20.7860 O   0  0  0  0  0  0  0  0  0  0  0  0
  -22.5600  -12.0090   22.5120 H   0  0  0  0  0  0  0  0  0  0  0  0
  -21.2540  -13.1550   22.4290 H   0  0  0  0  0  0  0  0  0  0  0  0
  -25.4110  -15.2710   20.2970 N   0  0  0  0  0  0  0  0  0  0  0  0
  -24.6600  -15.9260   20.4840 H   0  0  0  0  0  0  0  0  0  0  0  0
  -26.2350  -15.7130   19.9110 H   0  0  0  0  0  0  0  0  0  0  0  0
  -29.5880  -23.2250   21.7630 C   0  0  0  0  0  2  0  0  0  0  0  0
  -30.6200  -22.4740   23.9830 C   0  0  0  0  0  1  0  0  0  0  0  0
  -29.3790  -22.4550   23.0850 C   0  0  0  0  0  2  0  0  0  0  0  0
  -28.3530  -24.5810   19.8910 C   0  0  0  0  0  2  0  0  0  0  0  0
  -28.2750  -26.0660   20.4720 O   0  0  0  0  0  0  0  0  0  0  0  0
  -24.6030  -31.8610   23.2840 C   0  0  0  0  0  0  0  0  0  0  0  0
  -27.2280  -27.0720   20.3260 C   0  0  0  0  0  0  0  0  0  0  0  0
  -23.4380  -30.4510   21.6340 C   0  0  0  0  0  3  0  0  0  0  0  0
  -24.9110  -28.8640   20.2370 C   0  0  0  0  0  0  0  0  0  0  0  0
  -25.9950  -30.7020   21.5170 C   0  0  0  0  0  2  0  0  0  0  0  0
  -26.0800  -29.3010   20.8720 C   0  0  0  0  0  0  0  0  0  0  0  0
  -27.2330  -28.4190   20.9010 C   0  0  0  0  0  3  0  0  0  0  0  0
  -26.0370  -26.7600   19.6370 C   0  0  0  0  0  3  0  0  0  0  0  0
  -24.9070  -27.6120   19.6020 C   0  0  0  0  0  3  0  0  0  0  0  0
  -23.6850  -29.7670   20.2640 C   0  0  0  0  0  2  0  0  0  0  0  0
  -24.6990  -31.0300   22.1990 N   0  0  0  0  0  0  0  0  0  0  0  0
  -23.5060  -32.1490   23.7900 O   0  0  0  0  0  0  0  0  0  0  0  0
  -22.7420  -29.4510   22.5930 C   0  0  0  0  0  0  0  0  0  0  0  0
  -21.4150  -29.2850   22.4490 N   0  0  0  0  0  0  0  0  0  0  0  0
  -23.3990  -28.8290   23.4290 O   0  0  0  0  0  0  0  0  0  0  0  0
  -20.9400  -29.8390   21.7500 H   0  0  0  0  0  0  0  0  0  0  0  0
  -18.0210  -28.1060   22.9310 C   0  0  0  0  0  0  0  0  0  0  0  0
  -20.5810  -28.3510   23.2110 C   0  0  0  0  0  3  0  0  0  0  0  0
  -20.6760  -26.9210   22.6320 C   0  0  0  0  0  2  0  0  0  0  0  0
  -19.5760  -26.6100   21.6110 C   0  0  0  0  0  2  0  0  0  0  0  0
  -18.1920  -26.7590   22.2490 C   0  0  0  0  0  2  0  0  0  0  0  0
  -19.1420  -28.8590   23.3680 C   0  0  0  0  0  0  0  0  0  0  0  0
  -18.9280  -30.1190   23.9700 C   0  0  0  0  0  3  0  0  0  0  0  0
  -17.6260  -30.6250   24.1380 C   0  0  0  0  0  3  0  0  0  0  0  0
  -16.5190  -29.8690   23.7150 C   0  0  0  0  0  3  0  0  0  0  0  0
  -16.7170  -28.6110   23.1160 C   0  0  0  0  0  3  0  0  0  0  0  0
  -25.8660  -32.5050   23.9310 C   0  0  0  0  0  3  0  0  0  0  0  0
  -26.3410  -31.7610   25.2410 C   0  0  1  0  0  0  0  0  0  0  0  0
  -25.2140  -31.5470   26.2790 C   0  0  0  0  0  1  0  0  0  0  0  0
  -26.9310  -30.3730   24.9020 C   0  0  0  0  0  1  0  0  0  0  0  0
  -27.4730  -32.5690   25.9190 C   0  0  0  0  0  1  0  0  0  0  0  0
  -25.5490  -33.9110   24.2290 N   0  0  0  0  0  0  0  0  0  0  0  0
  -25.8930  -34.9550   23.4620 C   0  0  0  0  0  0  0  0  0  0  0  0
  -26.5770  -34.8360   22.4420 O   0  0  0  0  0  0  0  0  0  0  0  0
  -24.9360  -34.0770   25.0140 H   0  0  0  0  0  0  0  0  0  0  0  0
  -24.1690  -36.7480   23.0760 C   0  0  0  0  0  1  0  0  0  0  0  0
  -25.4070  -36.3530   23.8960 C   0  0  0  0  0  3  0  0  0  0  0  0
  -27.5360  -37.2560   24.7230 C   0  0  0  0  0  1  0  0  0  0  0  0
  -26.4410  -37.4030   23.7670 N   0  0  0  0  0  0  0  0  0  0  0  0
  -26.0340  -38.3260   23.8940 H   0  0  0  0  0  0  0  0  0  0  0  0
  2  1  1  1
  2 46  1  0
  3  2  1  0
  4 17  1  0
  5 10  1  0
  6  7  1  0
  6  5  1  0
  8  7  1  0
  8 21  1  0
  8  9  1  0
 10  4  1  0
 10  9  1  0
 11  4  2  0
 12 14  1  0
 12 16  1  0
 13 15  1  0
 14 17  1  0
 16  3  1  0
 16 13  1  0
 17 15  1  0
 18 19  2  0
 19 38  1  0
 20 19  1  0
 20 23  1  0
 21 22  1  0
 21 18  1  0
 22 20  2  0
 23 24  1  0
 24 25  2  0
 26 29  1  0
 26 25  1  0
 27 26  2  0
 28 27  1  0
 28 23  2  0
 29 30  1  0
 30 31  1  0
 31 32  2  0
 33 32  1  0
 33 37  1  0
 34 33  2  0
 35 30  2  0
 35 34  1  0
 36 35  1  0
 38 39  1  0
 39 42  1  0
 39 41  1  0
 40 38  2  0
 43 18  1  0
 43 44  1  0
 45 43  1  0
 46 48  1  0
 48 47  1  0
 49 50  1  0
 49  2  1  0
 51 62  2  0
 52 50  1  0
 52 57  1  0
 53 61  1  0
 53 63  1  0
 54 60  1  0
 54 56  1  0
 55 61  1  0
 56 57  2  0
 56 55  1  0
 58 52  2  0
 59 58  1  0
 59 54  2  0
 60 53  1  0
 61 51  1  0
 63 65  2  0
 64 63  1  0
 66 64  1  0
 67 76  2  0
 67 72  1  0
 68 64  1  0
 68 72  1  0
 69 68  1  0
 70 71  1  0
 70 69  1  0
 71 67  1  0
 72 73  2  0
 73 74  1  0
 75 74  2  0
 76 75  1  0
 77 51  1  0
 77 82  1  0
 77 78  1  0
 78 81  1  1
 78 79  1  0
 80 78  1  0
 82 85  1  0
 83 87  1  0
 83 82  1  0
 84 83  2  0
 87 86  1  0
 89 90  1  0
 89 87  1  0
 89 88  1  0
M  ISO  4   4 100  17 100  49 101  50 101
M  END
>  <TORSDO>  (43) 
F 20

>  <SCORE>  (43) 
-15.392

>  <name>  (43) 
42

>  <ligand_id>  (43) 
42

>  <original_smiles>  (43) 
[H]c1c([H])c([H])c2c(c1[H])C([H])([H])C([H])([H])C([H])([H])C2([H])N([H])C(=O)C1([H])N(C(=O)C([H])(N([H])C(=O)C([H])(N([H])C([H])([H])[H])C([H])([H])[H])C(C([H])([H])[H])(C([H])([H])[H])C([H])([H])[H])C([H])([H])c2c([H])c(OC([H])([H])C(C([H])([H])[H])(C([H])([H])C([H])([H])C([H])([H])[H])C([H])([H])C3([H])C([H])([H])C([H])([H])N(C(=O)N4C([H])([H])C([H])([H])C([H])([H])C([H])(n5nc(-c6c([H])c([H])c(Oc7c([H])c([H])c(F)c([H])c7F)c([H])c6[H])c(C(=O)N([H])[H])c5N([H])[H])C4([H])[H])C([H])([H])C3([H])[H])c([H])c([H])c2C1([H])[H]

>  <smiles>  (43) 
[H]c1c([H])c([H])c2c(c1[H])C([H])([H])C([H])([H])C([H])([H])C2([H])N([H])C(=O)C1([H])N(C(=O)C([H])(N([H])C(=O)C([H])(N([H])C([H])([H])[H])C([H])([H])[H])C(C([H])([H])[H])(C([H])([H])[H])C([H])([H])[H])C([H])([H])c2c([H])c(OC([H])([H])C(C([H])([H])[H])(C([H])([H])C([H])([H])C([H])([H])[H])C([H])([H])C3([H])C([H])([H])C([H])([H])N(C(=O)N4C([H])([H])C([H])([H])C([H])([H])C([H])(n5nc(-c6c([H])c([H])c(Oc7c([H])c([H])c(F)c([H])c7F)c([H])c6[H])c(C(=O)N([H])[H])c5N([H])[H])C4([H])[H])C([H])([H])C3([H])[H])c([H])c([H])c2C1([H])[H]

$$$$
43:0:0
     RDKit          3D

 90 98  0  0  1  0  0  0  0  0999 V2000
  -29.6180  -22.0200   19.8860 C   0  0  0  0  0  3  0  0  0  0  0  0
  -28.1150  -20.6850   19.1680 C   0  0  0  0  0  3  0  0  0  0  0  0
  -29.4030  -20.4960   19.6270 C   0  0  0  0  0  0  0  0  0  0  0  0
  -28.5660  -23.0230   19.6200 C   0  0  0  0  0  0  0  0  0  0  0  0
  -27.6090  -22.0300   19.2130 N   0  0  0  0  0  0  0  0  0  0  0  0
  -25.2700  -21.7180   20.0770 C   0  0  0  0  0  1  0  0  0  0  0  0
  -25.6750  -21.7670   17.5760 C   0  0  0  0  0  1  0  0  0  0  0  0
  -26.1630  -22.2710   18.9480 C   0  0  0  0  0  3  0  0  0  0  0  0
  -28.0560  -25.0210   21.3370 C   0  0  0  0  0  1  0  0  0  0  0  0
  -27.9480  -24.7090   19.8400 C   0  0  0  0  0  3  0  0  0  0  0  0
  -28.1410  -26.2350   19.2220 O   0  0  0  0  0  0  0  0  0  0  0  0
  -24.6790  -31.8930   23.0310 C   0  0  0  0  0  0  0  0  0  0  0  0
  -27.1470  -27.3580   19.4110 C   0  0  0  0  0  0  0  0  0  0  0  0
  -23.4280  -30.6420   21.3250 C   0  0  0  0  0  3  0  0  0  0  0  0
  -24.8250  -29.2150   19.6840 C   0  0  0  0  0  0  0  0  0  0  0  0
  -25.9820  -30.9100   21.0740 C   0  0  0  0  0  2  0  0  0  0  0  0
  -26.0410  -29.5670   20.2780 C   0  0  0  0  0  0  0  0  0  0  0  0
  -27.1990  -28.6670   20.1160 C   0  0  0  0  0  3  0  0  0  0  0  0
  -25.8920  -27.1760   18.7920 C   0  0  0  0  0  3  0  0  0  0  0  0
  -24.7730  -28.0380   18.9180 C   0  0  0  0  0  3  0  0  0  0  0  0
  -23.6010  -30.1060   19.8780 C   0  0  0  0  0  2  0  0  0  0  0  0
  -24.7200  -31.1740   21.8630 N   0  0  0  0  0  0  0  0  0  0  0  0
  -23.6110  -32.1050   23.6330 O   0  0  0  0  0  0  0  0  0  0  0  0
  -22.7930  -29.5440   22.2210 C   0  0  0  0  0  0  0  0  0  0  0  0
  -21.4620  -29.3490   22.1300 N   0  0  0  0  0  0  0  0  0  0  0  0
  -23.5020  -28.8690   22.9710 O   0  0  0  0  0  0  0  0  0  0  0  0
  -20.9350  -29.9480   21.5090 H   0  0  0  0  0  0  0  0  0  0  0  0
  -18.1310  -28.0210   22.7060 C   0  0  0  0  0  0  0  0  0  0  0  0
  -20.6990  -28.3200   22.8440 C   0  0  0  0  0  3  0  0  0  0  0  0
  -20.7920  -26.9580   22.1200 C   0  0  0  0  0  2  0  0  0  0  0  0
  -19.6390  -26.7170   21.1420 C   0  0  0  0  0  2  0  0  0  0  0  0
  -18.2940  -26.7560   21.8760 C   0  0  0  0  0  2  0  0  0  0  0  0
  -19.2610  -28.7620   23.1490 C   0  0  0  0  0  0  0  0  0  0  0  0
  -19.0560  -29.9390   23.8960 C   0  0  0  0  0  3  0  0  0  0  0  0
  -17.7560  -30.3840   24.1990 C   0  0  0  0  0  3  0  0  0  0  0  0
  -16.6410  -29.6420   23.7670 C   0  0  0  0  0  3  0  0  0  0  0  0
  -16.8300  -28.4610   23.0270 C   0  0  0  0  0  3  0  0  0  0  0  0
  -25.9680  -32.4980   23.6620 C   0  0  0  0  0  3  0  0  0  0  0  0
  -26.5680  -31.6050   24.8180 C   0  0  1  0  0  0  0  0  0  0  0  0
  -25.5440  -31.2320   25.9170 C   0  0  0  0  0  1  0  0  0  0  0  0
  -27.1460  -30.2830   24.2610 C   0  0  0  0  0  1  0  0  0  0  0  0
  -27.7480  -32.3420   25.4950 C   0  0  0  0  0  1  0  0  0  0  0  0
  -25.6340  -33.8370   24.1750 N   0  0  0  0  0  0  0  0  0  0  0  0
  -25.8930  -34.9910   23.5450 C   0  0  0  0  0  0  0  0  0  0  0  0
  -26.4990  -35.0390   22.4720 O   0  0  0  0  0  0  0  0  0  0  0  0
  -25.0720  -33.8650   25.0140 H   0  0  0  0  0  0  0  0  0  0  0  0
  -24.1070  -36.7690   23.5400 C   0  0  0  0  0  1  0  0  0  0  0  0
  -25.4080  -36.2980   24.2070 C   0  0  0  0  0  3  0  0  0  0  0  0
  -27.5690  -37.1520   25.0010 C   0  0  0  0  0  1  0  0  0  0  0  0
  -26.4030  -37.3920   24.1570 N   0  0  0  0  0  0  0  0  0  0  0  0
  -25.9820  -38.2740   24.4350 H   0  0  0  0  0  0  0  0  0  0  0  0
  -30.3320  -18.9520   19.8670 C   0  0  0  0  0  2  0  0  0  0  0  0
  -30.8140  -15.9800   19.9280 C   0  0  0  0  0  0  0  0  0  0  0  0
  -30.8480  -13.4840   19.1310 C   0  0  0  0  0  2  0  0  0  0  0  0
  -29.9190  -13.1570   17.9320 C   0  0  0  0  0  2  0  0  0  0  0  0
  -28.4880  -12.8630   18.4190 C   0  0  0  0  0  2  0  0  0  0  0  0
  -28.0240  -13.8760   19.4950 C   0  0  0  0  0  3  0  0  0  0  0  0
  -29.0810  -14.1140   20.5950 C   0  0  0  0  0  2  0  0  0  0  0  0
  -30.2740  -14.6490   19.9180 N   0  0  0  0  0  0  0  0  0  0  0  0
  -32.0300  -15.9650   19.6890 O   0  0  0  0  0  0  0  0  0  0  0  0
  -30.0470  -17.2780   20.0110 N   0  0  0  0  0  0  0  0  0  0  0  0
  -29.0710  -17.0890   20.1670 H   0  0  0  0  0  0  0  0  0  0  0  0
  -25.6990  -14.4580   20.3580 C   0  0  0  0  0  0  0  0  0  0  0  0
  -24.6290  -13.6940   20.7310 C   0  0  0  0  0  0  0  0  0  0  0  0
  -25.0590  -12.3340   20.6310 C   0  0  0  0  0  0  0  0  0  0  0  0
  -26.7060  -13.5670   20.0350 N   0  0  0  0  0  0  0  0  0  0  0  0
  -26.3400  -12.2820   20.2720 N   0  0  0  0  0  0  0  0  0  0  0  0
  -24.3080  -11.0840   20.7970 C   0  0  0  0  0  0  0  0  0  0  0  0
  -24.7200  -10.0880   21.7090 C   0  0  0  0  0  3  0  0  0  0  0  0
  -23.9680   -8.9020   21.8660 C   0  0  0  0  0  3  0  0  0  0  0  0
  -22.7870   -8.7070   21.1090 C   0  0  0  0  0  0  0  0  0  0  0  0
  -22.3900   -9.6920   20.1860 C   0  0  0  0  0  3  0  0  0  0  0  0
  -23.1470  -10.8680   20.0290 C   0  0  0  0  0  3  0  0  0  0  0  0
  -22.0150   -7.5730   21.1660 O   0  0  0  0  0  0  0  0  0  0  0  0
  -21.9170   -6.8240   22.3120 C   0  0  0  0  0  0  0  0  0  0  0  0
  -21.4740   -7.3850   23.5310 C   0  0  0  0  0  3  0  0  0  0  0  0
  -21.3230   -6.5660   24.6680 C   0  0  0  0  0  3  0  0  0  0  0  0
  -21.6060   -5.1910   24.5900 C   0  0  0  0  0  0  0  0  0  0  0  0
  -22.0440   -4.6300   23.3760 C   0  0  0  0  0  3  0  0  0  0  0  0
  -22.1970   -5.4450   22.2400 C   0  0  0  0  0  0  0  0  0  0  0  0
  -22.5990   -4.8950   21.0680 F   0  0  0  0  0  0  0  0  0  0  0  0
  -21.4570   -4.4020   25.6810 F   0  0  0  0  0  0  0  0  0  0  0  0
  -23.2530  -14.1970   21.0570 C   0  0  0  0  0  0  0  0  0  0  0  0
  -22.5240  -13.5130   21.9300 N   0  0  0  0  0  0  0  0  0  0  0  0
  -22.8230  -15.2420   20.5690 O   0  0  0  0  0  0  0  0  0  0  0  0
  -22.8680  -12.6760   22.3740 H   0  0  0  0  0  0  0  0  0  0  0  0
  -21.6010  -13.8530   22.1690 H   0  0  0  0  0  0  0  0  0  0  0  0
  -25.8950  -15.8320   20.2360 N   0  0  0  0  0  0  0  0  0  0  0  0
  -25.1660  -16.5050   20.4380 H   0  0  0  0  0  0  0  0  0  0  0  0
  -26.7310  -16.2570   19.8590 H   0  0  0  0  0  0  0  0  0  0  0  0
  2  5  1  0
  2  3  2  0
  3 52  1  0
  3  1  1  0
  4 10  1  0
  4  1  2  0
  5  4  1  0
  7  8  1  0
  8  5  1  0
  8  6  1  0
 10  9  1  0
 11 13  1  0
 11 10  1  0
 12 23  2  0
 13 18  1  0
 14 22  1  0
 14 24  1  0
 15 21  1  0
 15 17  1  0
 16 22  1  0
 17 16  1  0
 18 17  2  0
 19 20  1  0
 19 13  2  0
 20 15  2  0
 21 14  1  0
 22 12  1  0
 24 26  2  0
 25 24  1  0
 27 25  1  0
 28 37  2  0
 28 33  1  0
 29 25  1  0
 29 33  1  0
 30 29  1  0
 31 32  1  0
 31 30  1  0
 32 28  1  0
 33 34  2  0
 34 35  1  0
 36 35  2  0
 37 36  1  0
 38 12  1  0
 38 43  1  0
 38 39  1  0
 39 42  1  1
 39 40  1  0
 41 39  1  0
 43 46  1  0
 44 43  1  0
 44 48  1  0
 45 44  2  0
 48 47  1  0
 50 48  1  0
 50 51  1  0
 50 49  1  0
 52 61  1  0
 53 61  1  0
 54 59  1  0
 55 56  1  0
 55 54  1  0
 57 56  1  0
 57 66  1  0
 57 58  1  0
 59 53  1  0
 59 58  1  0
 60 53  2  0
 61 62  1  0
 63 64  2  0
 64 83  1  0
 65 64  1  0
 65 68  1  0
 66 67  1  0
 66 63  1  0
 67 65  2  0
 68 69  1  0
 69 70  2  0
 71 74  1  0
 71 70  1  0
 72 71  2  0
 73 72  1  0
 73 68  2  0
 74 75  1  0
 75 76  1  0
 76 77  2  0
 78 77  1  0
 78 82  1  0
 79 78  2  0
 80 75  2  0
 80 79  1  0
 81 80  1  0
 83 84  1  0
 84 87  1  0
 84 86  1  0
 85 83  2  0
 88 63  1  0
 88 89  1  0
 90 88  1  0
M  ISO  4  10 101  11 101  53 100  61 100
M  END
>  <TORSDO>  (44) 
F 19

>  <SCORE>  (44) 
-12.886

>  <name>  (44) 
43

>  <ligand_id>  (44) 
43

>  <original_smiles>  (44) 
[H]c1c([H])c([H])c2c(c1[H])C([H])([H])C([H])([H])C([H])([H])C2([H])N([H])C(=O)C1([H])N(C(=O)C([H])(N([H])C(=O)C([H])(N([H])C([H])([H])[H])C([H])([H])[H])C(C([H])([H])[H])(C([H])([H])[H])C([H])([H])[H])C([H])([H])c2c([H])c(OC([H])(c3c([H])c(C([H])([H])N([H])C(=O)N4C([H])([H])C([H])([H])C([H])([H])C([H])(n5nc(-c6c([H])c([H])c(Oc7c([H])c([H])c(F)c([H])c7F)c([H])c6[H])c(C(=O)N([H])[H])c5N([H])[H])C4([H])[H])c([H])n3C([H])(C([H])([H])[H])C([H])([H])[H])C([H])([H])[H])c([H])c([H])c2C1([H])[H]

>  <smiles>  (44) 
[H]c1c([H])c([H])c2c(c1[H])C([H])([H])C([H])([H])C([H])([H])C2([H])N([H])C(=O)C1([H])N(C(=O)C([H])(N([H])C(=O)C([H])(N([H])C([H])([H])[H])C([H])([H])[H])C(C([H])([H])[H])(C([H])([H])[H])C([H])([H])[H])C([H])([H])c2c([H])c(OC([H])(c3c([H])c(C([H])([H])N([H])C(=O)N4C([H])([H])C([H])([H])C([H])([H])C([H])(n5nc(-c6c([H])c([H])c(Oc7c([H])c([H])c(F)c([H])c7F)c([H])c6[H])c(C(=O)N([H])[H])c5N([H])[H])C4([H])[H])c([H])n3C([H])(C([H])([H])[H])C([H])([H])[H])C([H])([H])[H])c([H])c([H])c2C1([H])[H]

$$$$
44:0:0
     RDKit          3D

 94102  0  0  1  0  0  0  0  0999 V2000
  -26.9230  -19.2300   19.7510 C   0  0  0  0  0  3  0  0  0  0  0  0
  -27.7100  -20.8530   21.1210 C   0  0  0  0  0  3  0  0  0  0  0  0
  -28.2090  -18.7270   19.5050 C   0  0  0  0  0  0  0  0  0  0  0  0
  -29.3240  -19.1530   20.2960 C   0  0  0  0  0  0  0  0  0  0  0  0
  -29.0730  -20.5580   20.8930 C   0  0  0  0  0  0  0  0  0  0  0  0
  -26.6540  -20.1950   20.6320 N   0  0  0  0  0  0  0  0  0  0  0  0
  -28.3210  -17.8440   18.2640 C   0  0  0  0  0  2  0  0  0  0  0  0
  -29.5420  -18.1560   17.3790 C   0  0  0  0  0  2  0  0  0  0  0  0
  -28.3760  -19.8370   15.7990 C   0  0  0  0  0  1  0  0  0  0  0  0
  -30.5270  -18.7370   15.1260 C   0  0  0  0  0  1  0  0  0  0  0  0
  -29.2250  -18.5550   15.9200 C   0  0  0  0  0  3  0  0  0  0  0  0
  -30.5170  -17.9740   20.3420 C   0  0  0  0  0  2  0  0  0  0  0  0
  -30.8860  -15.1520   20.0730 C   0  0  0  0  0  0  0  0  0  0  0  0
  -30.6190  -12.8510   18.9880 C   0  0  0  0  0  2  0  0  0  0  0  0
  -29.6490  -12.8970   17.7790 C   0  0  0  0  0  2  0  0  0  0  0  0
  -28.1930  -12.7130   18.2430 C   0  0  0  0  0  2  0  0  0  0  0  0
  -27.8610  -13.5510   19.5000 C   0  0  0  0  0  3  0  0  0  0  0  0
  -28.9510  -13.4980   20.5930 C   0  0  0  0  0  2  0  0  0  0  0  0
  -30.2150  -13.9200   19.9650 N   0  0  0  0  0  0  0  0  0  0  0  0
  -32.0660  -15.1550   19.7130 O   0  0  0  0  0  0  0  0  0  0  0  0
  -30.2150  -16.3820   20.4000 N   0  0  0  0  0  0  0  0  0  0  0  0
  -29.2680  -16.2060   20.6940 H   0  0  0  0  0  0  0  0  0  0  0  0
  -25.4960  -14.1790   20.2490 C   0  0  0  0  0  0  0  0  0  0  0  0
  -24.4230  -13.4260   20.6150 C   0  0  0  0  0  0  0  0  0  0  0  0
  -24.8650  -12.0680   20.6040 C   0  0  0  0  0  0  0  0  0  0  0  0
  -26.5270  -13.2830   20.0140 N   0  0  0  0  0  0  0  0  0  0  0  0
  -26.1530  -12.0050   20.2860 N   0  0  0  0  0  0  0  0  0  0  0  0
  -24.1140  -10.8300   20.8190 C   0  0  0  0  0  0  0  0  0  0  0  0
  -24.5110   -9.8880   21.7910 C   0  0  0  0  0  3  0  0  0  0  0  0
  -23.7640   -8.7100   21.9940 C   0  0  0  0  0  3  0  0  0  0  0  0
  -22.6020   -8.4660   21.2230 C   0  0  0  0  0  0  0  0  0  0  0  0
  -22.2230   -9.3990   20.2390 C   0  0  0  0  0  3  0  0  0  0  0  0
  -22.9750  -10.5680   20.0330 C   0  0  0  0  0  3  0  0  0  0  0  0
  -21.8250   -7.3390   21.3360 O   0  0  0  0  0  0  0  0  0  0  0  0
  -21.6970   -6.6680   22.5240 C   0  0  0  0  0  0  0  0  0  0  0  0
  -21.2200   -7.3030   23.6910 C   0  0  0  0  0  3  0  0  0  0  0  0
  -21.0220   -6.5560   24.8710 C   0  0  0  0  0  3  0  0  0  0  0  0
  -21.3050   -5.1780   24.8890 C   0  0  0  0  0  0  0  0  0  0  0  0
  -21.7860   -4.5440   23.7300 C   0  0  0  0  0  3  0  0  0  0  0  0
  -21.9730   -5.2850   22.5490 C   0  0  0  0  0  0  0  0  0  0  0  0
  -22.4090   -4.6590   21.4290 F   0  0  0  0  0  0  0  0  0  0  0  0
  -21.1200   -4.4620   26.0230 F   0  0  0  0  0  0  0  0  0  0  0  0
  -23.0360  -13.9310   20.8850 C   0  0  0  0  0  0  0  0  0  0  0  0
  -22.3100  -13.2850   21.7860 N   0  0  0  0  0  0  0  0  0  0  0  0
  -22.6100  -14.9460   20.3320 O   0  0  0  0  0  0  0  0  0  0  0  0
  -22.6730  -12.4670   22.2540 H   0  0  0  0  0  0  0  0  0  0  0  0
  -21.3860  -13.6170   22.0220 H   0  0  0  0  0  0  0  0  0  0  0  0
  -25.6600  -15.5530   20.0810 N   0  0  0  0  0  0  0  0  0  0  0  0
  -24.8840  -16.1850   20.2460 H   0  0  0  0  0  0  0  0  0  0  0  0
  -26.5220  -16.0340   19.8770 H   0  0  0  0  0  0  0  0  0  0  0  0
  -29.8460  -21.7280   21.3340 O   0  0  0  0  0  0  0  0  0  0  0  0
  -29.6360  -23.2320   20.8320 C   0  0  0  0  0  3  0  0  0  0  0  0
  -28.8500  -24.6600   21.4090 C   0  0  0  0  0  3  0  0  0  0  0  0
  -28.9380  -26.1690   20.9360 O   0  0  0  0  0  0  0  0  0  0  0  0
  -24.7140  -31.8110   23.2900 C   0  0  0  0  0  0  0  0  0  0  0  0
  -27.8020  -27.0670   20.7880 C   0  0  0  0  0  0  0  0  0  0  0  0
  -23.7210  -30.2220   21.6900 C   0  0  0  0  0  3  0  0  0  0  0  0
  -25.3640  -28.6530   20.4740 C   0  0  0  0  0  0  0  0  0  0  0  0
  -26.2580  -30.6530   21.6570 C   0  0  0  0  0  2  0  0  0  0  0  0
  -26.4690  -29.2240   21.1160 C   0  0  0  0  0  0  0  0  0  0  0  0
  -27.6870  -28.4490   21.2450 C   0  0  0  0  0  3  0  0  0  0  0  0
  -26.6670  -26.6000   20.0930 C   0  0  0  0  0  3  0  0  0  0  0  0
  -25.4770  -27.3600   19.9420 C   0  0  0  0  0  3  0  0  0  0  0  0
  -24.0710  -29.4620   20.3830 C   0  0  0  0  0  2  0  0  0  0  0  0
  -24.9140  -30.9230   22.2670 N   0  0  0  0  0  0  0  0  0  0  0  0
  -23.5780  -32.0530   23.7290 O   0  0  0  0  0  0  0  0  0  0  0  0
  -23.0490  -29.2390   22.6790 C   0  0  0  0  0  0  0  0  0  0  0  0
  -21.7880  -28.8600   22.4060 N   0  0  0  0  0  0  0  0  0  0  0  0
  -23.6710  -28.8070   23.6530 O   0  0  0  0  0  0  0  0  0  0  0  0
  -21.3370  -29.2660   21.5970 H   0  0  0  0  0  0  0  0  0  0  0  0
  -18.5610  -27.2300   22.6170 C   0  0  0  0  0  0  0  0  0  0  0  0
  -20.9930  -27.9020   23.1810 C   0  0  0  0  0  3  0  0  0  0  0  0
  -21.3670  -26.4450   22.8150 C   0  0  0  0  0  2  0  0  0  0  0  0
  -20.4830  -25.8520   21.7160 C   0  0  0  0  0  2  0  0  0  0  0  0
  -19.0140  -25.8560   22.1480 C   0  0  0  0  0  2  0  0  0  0  0  0
  -19.4920  -28.1940   23.0850 C   0  0  0  0  0  0  0  0  0  0  0  0
  -19.0230  -29.4680   23.4730 C   0  0  0  0  0  3  0  0  0  0  0  0
  -17.6520  -29.7800   23.4060 C   0  0  0  0  0  3  0  0  0  0  0  0
  -16.7320  -28.8160   22.9590 C   0  0  0  0  0  3  0  0  0  0  0  0
  -17.1850  -27.5430   22.5700 C   0  0  0  0  0  3  0  0  0  0  0  0
  -25.8980  -32.5800   23.9520 C   0  0  0  0  0  3  0  0  0  0  0  0
  -25.4590  -33.9640   24.1960 N   0  0  0  0  0  0  0  0  0  0  0  0
  -25.7290  -35.0070   23.3960 C   0  0  0  0  0  0  0  0  0  0  0  0
  -26.4370  -34.9100   22.3910 O   0  0  0  0  0  0  0  0  0  0  0  0
  -24.8270  -34.1100   24.9710 H   0  0  0  0  0  0  0  0  0  0  0  0
  -23.8450  -36.6160   22.9340 C   0  0  0  0  0  1  0  0  0  0  0  0
  -25.1140  -36.3740   23.7680 C   0  0  0  0  0  3  0  0  0  0  0  0
  -27.1610  -37.4830   24.5460 C   0  0  0  0  0  1  0  0  0  0  0  0
  -26.0500  -37.5070   23.5970 N   0  0  0  0  0  0  0  0  0  0  0  0
  -25.5680  -38.3950   23.7080 H   0  0  0  0  0  0  0  0  0  0  0  0
  -26.3980  -31.9200   25.2950 C   0  0  1  0  0  0  0  0  0  0  0  0
  -25.2620  -31.5620   26.2840 C   0  0  0  0  0  1  0  0  0  0  0  0
  -27.1820  -30.6190   25.0030 C   0  0  0  0  0  1  0  0  0  0  0  0
  -27.3840  -32.8710   26.0170 C   0  0  0  0  0  1  0  0  0  0  0  0
  1  6  1  0
  3  1  2  0
  3  4  1  0
  4 12  1  0
  4  5  2  0
  5  2  1  0
  5 51  1  0
  6  2  2  0
  7  3  1  0
  8  7  1  0
  9 11  1  0
 10 11  1  0
 11  8  1  0
 12 21  1  0
 13 21  1  0
 14 19  1  0
 15 16  1  0
 15 14  1  0
 17 16  1  0
 17 26  1  0
 17 18  1  0
 19 13  1  0
 19 18  1  0
 20 13  2  0
 21 22  1  0
 23 24  2  0
 24 43  1  0
 25 24  1  0
 25 28  1  0
 26 23  1  0
 26 27  1  0
 27 25  2  0
 28 29  1  0
 29 30  2  0
 31 34  1  0
 31 30  1  0
 32 31  2  0
 33 32  1  0
 33 28  2  0
 34 35  1  0
 35 40  2  0
 35 36  1  0
 36 37  2  0
 37 38  1  0
 38 42  1  0
 39 38  2  0
 40 39  1  0
 41 40  1  0
 43 44  1  0
 44 47  1  0
 44 46  1  0
 45 43  2  0
 48 49  1  0
 48 23  1  0
 50 48  1  0
 52 51  1  0
 52 53  2  0
 54 53  1  0
 55 66  2  0
 56 54  1  0
 56 61  1  0
 57 65  1  0
 57 67  1  0
 58 60  1  0
 59 65  1  0
 60 61  2  0
 60 59  1  0
 62 56  2  0
 63 62  1  0
 63 58  2  0
 64 58  1  0
 64 57  1  0
 65 55  1  0
 67 69  2  0
 68 67  1  0
 70 68  1  0
 71 76  1  0
 72 68  1  0
 73 72  1  0
 74 75  1  0
 74 73  1  0
 75 71  1  0
 76 72  1  0
 76 77  2  0
 78 77  1  0
 79 78  2  0
 80 71  2  0
 80 79  1  0
 81 55  1  0
 81 82  1  0
 81 91  1  0
 82 85  1  0
 83 87  1  0
 83 82  1  0
 84 83  2  0
 87 86  1  0
 89 90  1  0
 89 87  1  0
 89 88  1  0
 91 94  1  1
 91 92  1  0
 93 91  1  0
M  ISO  4  13 100  21 100  53 101  54 101
M  END
>  <TORSDO>  (45) 
F 23

>  <SCORE>  (45) 
-10.052

>  <name>  (45) 
44

>  <ligand_id>  (45) 
44

>  <original_smiles>  (45) 
[H]c1nc([H])c(C([H])([H])C([H])([H])C([H])(C([H])([H])[H])C([H])([H])[H])c(C([H])([H])N([H])C(=O)N2C([H])([H])C([H])([H])C([H])([H])C([H])(n3nc(-c4c([H])c([H])c(Oc5c([H])c([H])c(F)c([H])c5F)c([H])c4[H])c(C(=O)N([H])[H])c3N([H])[H])C2([H])[H])c1OC([H])([H])C([H])([H])Oc1c([H])c([H])c2c(c1[H])C([H])([H])N(C(=O)C([H])(N([H])C(=O)C([H])(N([H])C([H])([H])[H])C([H])([H])[H])C(C([H])([H])[H])(C([H])([H])[H])C([H])([H])[H])C([H])(C(=O)N([H])C1([H])c3c([H])c([H])c([H])c([H])c3C([H])([H])C([H])([H])C1([H])[H])C2([H])[H]

>  <smiles>  (45) 
[H]c1nc([H])c(C([H])([H])C([H])([H])C([H])(C([H])([H])[H])C([H])([H])[H])c(C([H])([H])N([H])C(=O)N2C([H])([H])C([H])([H])C([H])([H])C([H])(n3nc(-c4c([H])c([H])c(Oc5c([H])c([H])c(F)c([H])c5F)c([H])c4[H])c(C(=O)N([H])[H])c3N([H])[H])C2([H])[H])c1OC([H])([H])C([H])([H])Oc1c([H])c([H])c2c(c1[H])C([H])([H])N(C(=O)C([H])(N([H])C(=O)C([H])(N([H])C([H])([H])[H])C([H])([H])[H])C(C([H])([H])[H])(C([H])([H])[H])C([H])([H])[H])C([H])(C(=O)N([H])C1([H])c3c([H])c([H])c([H])c([H])c3C([H])([H])C([H])([H])C1([H])[H])C2([H])[H]

$$$$
45:0:0
     RDKit          3D

 95102  0  0  1  0  0  0  0  0999 V2000
  -30.7620  -23.2300   21.1230 C   0  0  0  0  0  1  0  0  0  0  0  0
  -29.8310  -22.9550   19.9270 C   0  0  1  0  0  0  0  0  0  0  0  0
  -28.2720  -24.0280   18.1240 C   0  0  0  0  0  1  0  0  0  0  0  0
  -29.1600  -24.2840   19.3620 C   0  0  0  0  0  3  0  0  0  0  0  0
  -28.4260  -25.2320   20.3710 C   0  0  0  0  0  2  0  0  0  0  0  0
  -28.4820  -26.6400   20.0070 O   0  0  0  0  0  0  0  0  0  0  0  0
  -24.5950  -31.7790   23.1460 C   0  0  0  0  0  0  0  0  0  0  0  0
  -27.3070  -27.3740   20.0340 C   0  0  0  0  0  0  0  0  0  0  0  0
  -23.4220  -30.3920   21.4690 C   0  0  0  0  0  3  0  0  0  0  0  0
  -24.9060  -28.8910   20.0330 C   0  0  0  0  0  0  0  0  0  0  0  0
  -25.9500  -30.7670   21.3090 C   0  0  0  0  0  2  0  0  0  0  0  0
  -26.0560  -29.4070   20.6420 C   0  0  0  0  0  0  0  0  0  0  0  0
  -27.2610  -28.6600   20.6310 C   0  0  0  0  0  3  0  0  0  0  0  0
  -26.1340  -26.8800   19.4210 C   0  0  0  0  0  3  0  0  0  0  0  0
  -24.9430  -27.6300   19.4170 C   0  0  0  0  0  3  0  0  0  0  0  0
  -23.6530  -29.7400   20.0810 C   0  0  0  0  0  2  0  0  0  0  0  0
  -24.6730  -30.9950   22.0320 N   0  0  0  0  0  0  0  0  0  0  0  0
  -23.5040  -32.0340   23.6760 O   0  0  0  0  0  0  0  0  0  0  0  0
  -22.7710  -29.3480   22.4060 C   0  0  0  0  0  0  0  0  0  0  0  0
  -21.4480  -29.1630   22.2660 N   0  0  0  0  0  0  0  0  0  0  0  0
  -23.4510  -28.7100   23.2130 O   0  0  0  0  0  0  0  0  0  0  0  0
  -20.9610  -29.7220   21.5810 H   0  0  0  0  0  0  0  0  0  0  0  0
  -18.0750  -27.9540   22.7320 C   0  0  0  0  0  0  0  0  0  0  0  0
  -20.6320  -28.2070   23.0130 C   0  0  0  0  0  3  0  0  0  0  0  0
  -20.7380  -26.7910   22.4020 C   0  0  0  0  0  2  0  0  0  0  0  0
  -19.6370  -26.4930   21.3790 C   0  0  0  0  0  2  0  0  0  0  0  0
  -18.2530  -26.6220   22.0220 C   0  0  0  0  0  2  0  0  0  0  0  0
  -19.1920  -28.7060   23.1820 C   0  0  0  0  0  0  0  0  0  0  0  0
  -18.9720  -29.9560   23.8010 C   0  0  0  0  0  3  0  0  0  0  0  0
  -17.6650  -30.4510   23.9770 C   0  0  0  0  0  3  0  0  0  0  0  0
  -16.5620  -29.6950   23.5460 C   0  0  0  0  0  3  0  0  0  0  0  0
  -16.7680  -28.4490   22.9270 C   0  0  0  0  0  3  0  0  0  0  0  0
  -25.8660  -32.4130   23.7900 C   0  0  0  0  0  3  0  0  0  0  0  0
  -26.3690  -31.6370   25.0690 C   0  0  1  0  0  0  0  0  0  0  0  0
  -25.2610  -31.3840   26.1170 C   0  0  0  0  0  1  0  0  0  0  0  0
  -26.9700  -30.2670   24.6770 C   0  0  0  0  0  1  0  0  0  0  0  0
  -27.5080  -32.4330   25.7500 C   0  0  0  0  0  1  0  0  0  0  0  0
  -25.5470  -33.8080   24.1220 N   0  0  0  0  0  0  0  0  0  0  0  0
  -25.8920  -34.8660   23.3760 C   0  0  0  0  0  0  0  0  0  0  0  0
  -26.5840  -34.7700   22.3580 O   0  0  0  0  0  0  0  0  0  0  0  0
  -24.9360  -33.9570   24.9110 H   0  0  0  0  0  0  0  0  0  0  0  0
  -24.1670  -36.6520   22.9920 C   0  0  0  0  0  1  0  0  0  0  0  0
  -25.3890  -36.2490   23.8320 C   0  0  0  0  0  3  0  0  0  0  0  0
  -27.4970  -37.1330   24.7250 C   0  0  0  0  0  1  0  0  0  0  0  0
  -26.4200  -37.3060   23.7530 N   0  0  0  0  0  0  0  0  0  0  0  0
  -26.0090  -38.2250   23.8960 H   0  0  0  0  0  0  0  0  0  0  0  0
  -30.7080  -22.5050   18.8980 O   0  0  0  0  0  0  0  0  0  0  0  0
  -31.4160  -23.1340   18.8170 H   0  0  0  0  0  0  0  0  0  0  0  0
  -28.9070  -21.7410   20.2900 C   0  0  0  0  0  2  0  0  0  0  0  0
  -29.7040  -19.3410   20.7810 C   0  0  0  0  0  0  0  0  0  0  0  0
  -29.5570  -20.4400   20.0120 N   0  0  0  0  0  0  0  0  0  0  0  0
  -29.4870  -19.3740   21.9930 O   0  0  0  0  0  0  0  0  0  0  0  0
  -29.8640  -20.3580   19.0530 H   0  0  0  0  0  0  0  0  0  0  0  0
  -30.8330  -18.2070   18.7590 C   0  0  0  0  0  1  0  0  0  0  0  0
  -28.6490  -17.3860   19.6880 C   0  0  0  0  0  1  0  0  0  0  0  0
  -30.0270  -17.9770   20.0610 C   0  0  2  0  0  0  0  0  0  0  0  0
  -30.8240  -16.9290   20.9370 C   0  0  0  0  0  2  0  0  0  0  0  0
  -31.1280  -14.5150   20.0720 C   0  0  0  0  0  0  0  0  0  0  0  0
  -30.7830  -12.3300   18.9490 C   0  0  0  0  0  2  0  0  0  0  0  0
  -29.8080  -12.5200   17.7680 C   0  0  0  0  0  2  0  0  0  0  0  0
  -28.3420  -12.4130   18.2370 C   0  0  0  0  0  2  0  0  0  0  0  0
  -28.0550  -13.2840   19.4900 C   0  0  0  0  0  3  0  0  0  0  0  0
  -29.1330  -13.0530   20.5740 C   0  0  0  0  0  2  0  0  0  0  0  0
  -30.4470  -13.3360   19.9700 N   0  0  0  0  0  0  0  0  0  0  0  0
  -32.2260  -14.7010   19.5390 O   0  0  0  0  0  0  0  0  0  0  0  0
  -30.4590  -15.5040   20.7090 N   0  0  0  0  0  0  0  0  0  0  0  0
  -29.5560  -15.2290   21.0670 H   0  0  0  0  0  0  0  0  0  0  0  0
  -25.7030  -13.9850   20.2650 C   0  0  0  0  0  0  0  0  0  0  0  0
  -24.6180  -13.2560   20.6690 C   0  0  0  0  0  0  0  0  0  0  0  0
  -25.0260  -11.8870   20.6300 C   0  0  0  0  0  0  0  0  0  0  0  0
  -26.7080  -13.0640   20.0070 N   0  0  0  0  0  0  0  0  0  0  0  0
  -26.3040  -11.7970   20.2810 N   0  0  0  0  0  0  0  0  0  0  0  0
  -24.2590  -10.6550   20.8450 C   0  0  0  0  0  0  0  0  0  0  0  0
  -24.6540   -9.6990   21.8060 C   0  0  0  0  0  3  0  0  0  0  0  0
  -23.8900   -8.5300   22.0070 C   0  0  0  0  0  3  0  0  0  0  0  0
  -22.7150   -8.3120   21.2490 C   0  0  0  0  0  0  0  0  0  0  0  0
  -22.3390   -9.2550   20.2760 C   0  0  0  0  0  3  0  0  0  0  0  0
  -23.1040  -10.4150   20.0730 C   0  0  0  0  0  3  0  0  0  0  0  0
  -21.9240   -7.1930   21.3580 O   0  0  0  0  0  0  0  0  0  0  0  0
  -21.8070   -6.5080   22.5410 C   0  0  0  0  0  0  0  0  0  0  0  0
  -21.3460   -7.1310   23.7220 C   0  0  0  0  0  3  0  0  0  0  0  0
  -21.1760   -6.3740   24.8970 C   0  0  0  0  0  3  0  0  0  0  0  0
  -21.4520   -4.9930   24.8930 C   0  0  0  0  0  0  0  0  0  0  0  0
  -21.9050   -4.3690   23.7170 C   0  0  0  0  0  3  0  0  0  0  0  0
  -22.0790   -5.1250   22.5440 C   0  0  0  0  0  0  0  0  0  0  0  0
  -22.4950   -4.5150   21.4090 F   0  0  0  0  0  0  0  0  0  0  0  0
  -21.2800   -4.2640   26.0200 F   0  0  0  0  0  0  0  0  0  0  0  0
  -23.2490  -13.7880   20.9840 C   0  0  0  0  0  0  0  0  0  0  0  0
  -22.5230  -13.1270   21.8780 N   0  0  0  0  0  0  0  0  0  0  0  0
  -22.8330  -14.8260   20.4710 O   0  0  0  0  0  0  0  0  0  0  0  0
  -22.8710  -12.2890   22.3200 H   0  0  0  0  0  0  0  0  0  0  0  0
  -21.6040  -13.4660   22.1290 H   0  0  0  0  0  0  0  0  0  0  0  0
  -25.9100  -15.3480   20.0770 N   0  0  0  0  0  0  0  0  0  0  0  0
  -25.1680  -16.0240   20.2210 H   0  0  0  0  0  0  0  0  0  0  0  0
  -26.7610  -15.7610   19.7160 H   0  0  0  0  0  0  0  0  0  0  0  0
  2 49  1  0
  2  1  1  1
  4  3  1  0
  4  2  1  0
  4  5  1  0
  6  8  1  0
  6  5  1  0
  7 18  2  0
  8 13  1  0
  9 17  1  0
  9 19  1  0
 10 16  1  0
 10 12  1  0
 11 17  1  0
 12 11  1  0
 13 12  2  0
 14  8  2  0
 15 14  1  0
 15 10  2  0
 16  9  1  0
 17  7  1  0
 19 21  2  0
 20 19  1  0
 22 20  1  0
 23 32  2  0
 23 28  1  0
 24 20  1  0
 24 28  1  0
 25 24  1  0
 26 27  1  0
 26 25  1  0
 27 23  1  0
 28 29  2  0
 29 30  1  0
 31 30  2  0
 32 31  1  0
 33  7  1  0
 33 38  1  0
 33 34  1  0
 34 37  1  1
 34 35  1  0
 36 34  1  0
 38 41  1  0
 39 43  1  0
 39 38  1  0
 40 39  2  0
 43 42  1  0
 45 43  1  0
 45 46  1  0
 45 44  1  0
 47  2  1  0
 48 47  1  0
 50 52  2  0
 51 49  1  0
 51 50  1  0
 53 51  1  0
 56 54  1  6
 55 56  1  0
 56 50  1  0
 56 57  1  0
 58 66  1  0
 59 64  1  0
 60 61  1  0
 60 59  1  0
 62 61  1  0
 62 71  1  0
 62 63  1  0
 64 58  1  0
 64 63  1  0
 65 58  2  0
 66 57  1  0
 66 67  1  0
 68 69  2  0
 69 88  1  0
 70 69  1  0
 70 73  1  0
 71 68  1  0
 71 72  1  0
 72 70  2  0
 73 74  1  0
 74 75  2  0
 76 79  1  0
 76 75  1  0
 77 76  2  0
 78 77  1  0
 78 73  2  0
 79 80  1  0
 80 85  2  0
 80 81  1  0
 81 82  2  0
 83 82  1  0
 83 87  1  0
 84 83  2  0
 85 84  1  0
 86 85  1  0
 88 89  1  0
 89 92  1  0
 89 91  1  0
 90 88  2  0
 93 94  1  0
 93 68  1  0
 95 93  1  0
M  ISO  4   5 101   6 101  58 100  66 100
M  END
>  <TORSDO>  (46) 
F 23

>  <SCORE>  (46) 
-12.187

>  <name>  (46) 
45

>  <ligand_id>  (46) 
45

>  <original_smiles>  (46) 
[H]OC(C([H])([H])[H])(C([H])([H])N([H])C(=O)C(C([H])([H])[H])(C([H])([H])[H])C([H])([H])N([H])C(=O)N1C([H])([H])C([H])([H])C([H])([H])C([H])(n2nc(-c3c([H])c([H])c(Oc4c([H])c([H])c(F)c([H])c4F)c([H])c3[H])c(C(=O)N([H])[H])c2N([H])[H])C1([H])[H])C([H])(C([H])([H])[H])C([H])([H])Oc1c([H])c([H])c2c(c1[H])C([H])([H])N(C(=O)C([H])(N([H])C(=O)C([H])(N([H])C([H])([H])[H])C([H])([H])[H])C(C([H])([H])[H])(C([H])([H])[H])C([H])([H])[H])C([H])(C(=O)N([H])C1([H])c3c([H])c([H])c([H])c([H])c3C([H])([H])C([H])([H])C1([H])[H])C2([H])[H]

>  <smiles>  (46) 
[H]OC(C([H])([H])[H])(C([H])([H])N([H])C(=O)C(C([H])([H])[H])(C([H])([H])[H])C([H])([H])N([H])C(=O)N1C([H])([H])C([H])([H])C([H])([H])C([H])(n2nc(-c3c([H])c([H])c(Oc4c([H])c([H])c(F)c([H])c4F)c([H])c3[H])c(C(=O)N([H])[H])c2N([H])[H])C1([H])[H])C([H])(C([H])([H])[H])C([H])([H])Oc1c([H])c([H])c2c(c1[H])C([H])([H])N(C(=O)C([H])(N([H])C(=O)C([H])(N([H])C([H])([H])[H])C([H])([H])[H])C(C([H])([H])[H])(C([H])([H])[H])C([H])([H])[H])C([H])(C(=O)N([H])C1([H])c3c([H])c([H])c([H])c([H])c3C([H])([H])C([H])([H])C1([H])[H])C2([H])[H]

$$$$
46:0:0
     RDKit          3D

 89 97  0  0  1  0  0  0  0  0999 V2000
  -28.9880  -19.6130   18.3450 C   0  0  0  0  0  2  0  0  0  0  0  0
  -29.3330  -21.1260   18.6800 C   0  0  0  0  0  2  0  0  0  0  0  0
  -29.5870  -20.5800   21.0540 C   0  0  0  0  0  2  0  0  0  0  0  0
  -29.9780  -18.4090   18.6760 C   0  0  0  0  0  2  0  0  0  0  0  0
  -29.2820  -18.9440   21.0450 C   0  0  0  0  0  2  0  0  0  0  0  0
  -28.8940  -21.7050   20.0720 C   0  0  0  0  0  3  0  0  0  0  0  0
  -30.0970  -17.8500   20.1390 C   0  0  0  0  0  3  0  0  0  0  0  0
  -30.6140  -15.0960   20.0810 C   0  0  0  0  0  0  0  0  0  0  0  0
  -30.4560  -12.7430   19.1300 C   0  0  0  0  0  2  0  0  0  0  0  0
  -29.4730  -12.7070   17.9360 C   0  0  0  0  0  2  0  0  0  0  0  0
  -28.0280  -12.4890   18.4260 C   0  0  0  0  0  2  0  0  0  0  0  0
  -27.6700  -13.3940   19.6350 C   0  0  0  0  0  3  0  0  0  0  0  0
  -28.7790  -13.4050   20.7110 C   0  0  0  0  0  2  0  0  0  0  0  0
  -30.0160  -13.8330   20.0480 N   0  0  0  0  0  0  0  0  0  0  0  0
  -31.8010  -15.1610   19.7450 O   0  0  0  0  0  0  0  0  0  0  0  0
  -29.8420  -16.2810   20.2820 N   0  0  0  0  0  0  0  0  0  0  0  0
  -28.8860  -16.0640   20.5230 H   0  0  0  0  0  0  0  0  0  0  0  0
  -25.3290  -13.9410   20.5070 C   0  0  0  0  0  0  0  0  0  0  0  0
  -24.2830  -13.1550   20.9060 C   0  0  0  0  0  0  0  0  0  0  0  0
  -24.7450  -11.8070   20.8170 C   0  0  0  0  0  0  0  0  0  0  0  0
  -26.3590  -13.0730   20.1920 N   0  0  0  0  0  0  0  0  0  0  0  0
  -26.0220  -11.7820   20.4440 N   0  0  0  0  0  0  0  0  0  0  0  0
  -24.0260  -10.5390   21.0030 C   0  0  0  0  0  0  0  0  0  0  0  0
  -24.4730   -9.5670   21.9250 C   0  0  0  0  0  3  0  0  0  0  0  0
  -23.7540   -8.3650   22.1050 C   0  0  0  0  0  3  0  0  0  0  0  0
  -22.5720   -8.1280   21.3630 C   0  0  0  0  0  0  0  0  0  0  0  0
  -22.1420   -9.0900   20.4320 C   0  0  0  0  0  3  0  0  0  0  0  0
  -22.8630  -10.2830   20.2500 C   0  0  0  0  0  3  0  0  0  0  0  0
  -21.8220   -6.9800   21.4520 O   0  0  0  0  0  0  0  0  0  0  0  0
  -21.7510   -6.2550   22.6140 C   0  0  0  0  0  0  0  0  0  0  0  0
  -21.2150   -6.8000   23.8020 C   0  0  0  0  0  3  0  0  0  0  0  0
  -21.0990   -5.9970   24.9540 C   0  0  0  0  0  3  0  0  0  0  0  0
  -21.5070   -4.6500   24.9200 C   0  0  0  0  0  0  0  0  0  0  0  0
  -22.0360   -4.1040   23.7360 C   0  0  0  0  0  3  0  0  0  0  0  0
  -22.1540   -4.9040   22.5870 C   0  0  0  0  0  0  0  0  0  0  0  0
  -22.6440   -4.3670   21.4430 F   0  0  0  0  0  0  0  0  0  0  0  0
  -21.3870   -3.8780   26.0240 F   0  0  0  0  0  0  0  0  0  0  0  0
  -22.9000  -13.6270   21.2480 C   0  0  0  0  0  0  0  0  0  0  0  0
  -22.2110  -12.9150   22.1310 N   0  0  0  0  0  0  0  0  0  0  0  0
  -22.4390  -14.6620   20.7660 O   0  0  0  0  0  0  0  0  0  0  0  0
  -22.5970  -12.0800   22.5450 H   0  0  0  0  0  0  0  0  0  0  0  0
  -21.2850  -13.2160   22.3990 H   0  0  0  0  0  0  0  0  0  0  0  0
  -25.4820  -15.3160   20.3530 N   0  0  0  0  0  0  0  0  0  0  0  0
  -24.7160  -15.9610   20.5110 H   0  0  0  0  0  0  0  0  0  0  0  0
  -26.2880  -15.7540   19.9270 H   0  0  0  0  0  0  0  0  0  0  0  0
  -29.8220  -23.6860   21.6060 C   0  0  0  0  0  1  0  0  0  0  0  0
  -29.1440  -23.4050   20.2560 C   0  0  0  0  0  3  0  0  0  0  0  0
  -28.0480  -24.6850   19.9950 C   0  0  0  0  0  2  0  0  0  0  0  0
  -28.2900  -26.2240   20.2240 O   0  0  0  0  0  0  0  0  0  0  0  0
  -24.6490  -31.8910   23.2870 C   0  0  0  0  0  0  0  0  0  0  0  0
  -27.2350  -27.2190   20.1700 C   0  0  0  0  0  0  0  0  0  0  0  0
  -23.4570  -30.5320   21.6120 C   0  0  0  0  0  3  0  0  0  0  0  0
  -24.9110  -28.9840   20.1560 C   0  0  0  0  0  0  0  0  0  0  0  0
  -26.0160  -30.7860   21.4740 C   0  0  0  0  0  2  0  0  0  0  0  0
  -26.0880  -29.4080   20.7890 C   0  0  0  0  0  0  0  0  0  0  0  0
  -27.2480  -28.5400   20.7800 C   0  0  0  0  0  3  0  0  0  0  0  0
  -26.0380  -26.9060   19.4910 C   0  0  0  0  0  3  0  0  0  0  0  0
  -24.9030  -27.7490   19.4900 C   0  0  0  0  0  3  0  0  0  0  0  0
  -23.6860  -29.8870   20.2180 C   0  0  0  0  0  2  0  0  0  0  0  0
  -24.7270  -31.0910   22.1780 N   0  0  0  0  0  0  0  0  0  0  0  0
  -23.5590  -32.1660   23.8110 O   0  0  0  0  0  0  0  0  0  0  0  0
  -22.7690  -29.5070   22.5480 C   0  0  0  0  0  0  0  0  0  0  0  0
  -21.4430  -29.3330   22.4020 N   0  0  0  0  0  0  0  0  0  0  0  0
  -23.4320  -28.8690   23.3710 O   0  0  0  0  0  0  0  0  0  0  0  0
  -20.9630  -29.9060   21.7230 H   0  0  0  0  0  0  0  0  0  0  0  0
  -18.0620  -28.1100   22.8520 C   0  0  0  0  0  0  0  0  0  0  0  0
  -20.6190  -28.3730   23.1430 C   0  0  0  0  0  3  0  0  0  0  0  0
  -20.7310  -26.9560   22.5360 C   0  0  0  0  0  2  0  0  0  0  0  0
  -19.6340  -26.6520   21.5090 C   0  0  0  0  0  2  0  0  0  0  0  0
  -18.2490  -26.7730   22.1530 C   0  0  0  0  0  2  0  0  0  0  0  0
  -19.1750  -28.8660   23.3050 C   0  0  0  0  0  0  0  0  0  0  0  0
  -18.9490  -30.1120   23.9280 C   0  0  0  0  0  3  0  0  0  0  0  0
  -17.6410  -30.6030   24.1010 C   0  0  0  0  0  3  0  0  0  0  0  0
  -16.5410  -29.8470   23.6600 C   0  0  0  0  0  3  0  0  0  0  0  0
  -16.7520  -28.6010   23.0420 C   0  0  0  0  0  3  0  0  0  0  0  0
  -25.9240  -32.5160   23.9330 C   0  0  0  0  0  3  0  0  0  0  0  0
  -25.6230  -33.9210   24.2560 N   0  0  0  0  0  0  0  0  0  0  0  0
  -25.9230  -34.9670   23.4760 C   0  0  0  0  0  0  0  0  0  0  0  0
  -26.5520  -34.8530   22.4210 O   0  0  0  0  0  0  0  0  0  0  0  0
  -25.0700  -34.0840   25.0840 H   0  0  0  0  0  0  0  0  0  0  0  0
  -24.1660  -36.7490   23.1880 C   0  0  0  0  0  1  0  0  0  0  0  0
  -25.4520  -36.3630   23.9370 C   0  0  0  0  0  3  0  0  0  0  0  0
  -27.6130  -37.2840   24.6520 C   0  0  0  0  0  1  0  0  0  0  0  0
  -26.4700  -37.4200   23.7530 N   0  0  0  0  0  0  0  0  0  0  0  0
  -26.0620  -38.3420   23.8920 H   0  0  0  0  0  0  0  0  0  0  0  0
  -26.3980  -31.7480   25.2280 C   0  0  1  0  0  0  0  0  0  0  0  0
  -25.2760  -31.5260   26.2700 C   0  0  0  0  0  1  0  0  0  0  0  0
  -26.9840  -30.3640   24.8670 C   0  0  0  0  0  1  0  0  0  0  0  0
  -27.5370  -32.5400   25.9150 C   0  0  0  0  0  1  0  0  0  0  0  0
  1  4  1  0
  1  2  1  0
  2  6  1  0
  4  7  1  0
  5  3  1  0
  6 47  1  0
  6  3  1  0
  7 16  1  0
  7  5  1  0
  8 16  1  0
  9 14  1  0
 10 11  1  0
 10  9  1  0
 12 11  1  0
 12 21  1  0
 12 13  1  0
 14  8  1  0
 14 13  1  0
 15  8  2  0
 16 17  1  0
 18 19  2  0
 19 38  1  0
 20 19  1  0
 20 23  1  0
 21 22  1  0
 21 18  1  0
 22 20  2  0
 23 24  1  0
 24 25  2  0
 26 29  1  0
 26 25  1  0
 27 26  2  0
 28 27  1  0
 28 23  2  0
 29 30  1  0
 30 31  1  0
 31 32  2  0
 33 32  1  0
 33 37  1  0
 34 33  2  0
 35 30  2  0
 35 34  1  0
 36 35  1  0
 38 39  1  0
 39 42  1  0
 39 41  1  0
 40 38  2  0
 43 18  1  0
 43 44  1  0
 45 43  1  0
 47 46  1  0
 48 49  1  0
 48 47  1  0
 50 61  2  0
 51 49  1  0
 51 56  1  0
 52 60  1  0
 52 62  1  0
 53 59  1  0
 53 55  1  0
 54 60  1  0
 55 54  1  0
 56 55  2  0
 57 51  2  0
 58 57  1  0
 58 53  2  0
 59 52  1  0
 60 50  1  0
 62 64  2  0
 63 62  1  0
 65 63  1  0
 66 75  2  0
 66 71  1  0
 67 63  1  0
 67 71  1  0
 68 67  1  0
 69 70  1  0
 69 68  1  0
 70 66  1  0
 71 72  2  0
 72 73  1  0
 74 73  2  0
 75 74  1  0
 76 50  1  0
 76 77  1  0
 76 86  1  0
 77 80  1  0
 78 82  1  0
 78 77  1  0
 79 78  2  0
 82 81  1  0
 84 85  1  0
 84 82  1  0
 84 83  1  0
 86 89  1  1
 86 87  1  0
 88 86  1  0
M  ISO  4   8 100  16 100  48 101  49 101
M  END
>  <TORSDO>  (47) 
F 18

>  <SCORE>  (47) 
-15.509

>  <name>  (47) 
46

>  <ligand_id>  (47) 
46

>  <original_smiles>  (47) 
[H]c1c([H])c([H])c2c(c1[H])C([H])([H])C([H])([H])C([H])([H])C2([H])N([H])C(=O)C1([H])N(C(=O)C([H])(N([H])C(=O)C([H])(N([H])C([H])([H])[H])C([H])([H])[H])C(C([H])([H])[H])(C([H])([H])[H])C([H])([H])[H])C([H])([H])c2c([H])c(OC([H])([H])C([H])(C([H])([H])[H])C3([H])C([H])([H])C([H])([H])C([H])([H])C([H])(N([H])C(=O)N4C([H])([H])C([H])([H])C([H])([H])C([H])(n5nc(-c6c([H])c([H])c(Oc7c([H])c([H])c(F)c([H])c7F)c([H])c6[H])c(C(=O)N([H])[H])c5N([H])[H])C4([H])[H])C([H])([H])C3([H])[H])c([H])c([H])c2C1([H])[H]

>  <smiles>  (47) 
[H]c1c([H])c([H])c2c(c1[H])C([H])([H])C([H])([H])C([H])([H])C2([H])N([H])C(=O)C1([H])N(C(=O)C([H])(N([H])C(=O)C([H])(N([H])C([H])([H])[H])C([H])([H])[H])C(C([H])([H])[H])(C([H])([H])[H])C([H])([H])[H])C([H])([H])c2c([H])c(OC([H])([H])C([H])(C([H])([H])[H])C3([H])C([H])([H])C([H])([H])C([H])([H])C([H])(N([H])C(=O)N4C([H])([H])C([H])([H])C([H])([H])C([H])(n5nc(-c6c([H])c([H])c(Oc7c([H])c([H])c(F)c([H])c7F)c([H])c6[H])c(C(=O)N([H])[H])c5N([H])[H])C4([H])[H])C([H])([H])C3([H])[H])c([H])c([H])c2C1([H])[H]

$$$$
47:0:0
     RDKit          3D

 97105  0  0  1  0  0  0  0  0999 V2000
  -29.0570  -22.6410   19.4800 C   0  0  0  0  0  3  0  0  0  0  0  0
  -29.8910  -22.8540   21.6640 C   0  0  0  0  0  3  0  0  0  0  0  0
  -29.2500  -23.5300   20.5790 C   0  0  0  0  0  0  0  0  0  0  0  0
  -29.3580  -21.2180   19.5040 C   0  0  0  0  0  0  0  0  0  0  0  0
  -30.1640  -21.4330   21.7420 C   0  0  0  0  0  0  0  0  0  0  0  0
  -29.8400  -20.5120   20.6700 C   0  0  0  0  0  0  0  0  0  0  0  0
  -29.0710  -20.4490   18.2250 C   0  0  0  0  0  1  0  0  0  0  0  0
  -29.8030  -21.2130   24.2510 C   0  0  0  0  0  1  0  0  0  0  0  0
  -32.1350  -21.5700   23.3670 C   0  0  0  0  0  1  0  0  0  0  0  0
  -30.7590  -20.9480   23.0750 C   0  0  0  0  0  3  0  0  0  0  0  0
  -27.9530  -25.0400   22.2360 C   0  0  0  0  0  1  0  0  0  0  0  0
  -28.4690  -24.9580   20.7720 C   0  0  0  0  0  3  0  0  0  0  0  0
  -28.9200  -26.3770   20.3560 O   0  0  0  0  0  0  0  0  0  0  0  0
  -24.9460  -31.7370   23.3240 C   0  0  0  0  0  0  0  0  0  0  0  0
  -27.8870  -27.3610   20.1910 C   0  0  0  0  0  0  0  0  0  0  0  0
  -23.8900  -30.3570   21.5730 C   0  0  0  0  0  3  0  0  0  0  0  0
  -25.4810  -28.9580   20.1280 C   0  0  0  0  0  0  0  0  0  0  0  0
  -26.4260  -30.7800   21.5320 C   0  0  0  0  0  2  0  0  0  0  0  0
  -26.6050  -29.4340   20.8180 C   0  0  0  0  0  0  0  0  0  0  0  0
  -27.8100  -28.6450   20.8470 C   0  0  0  0  0  3  0  0  0  0  0  0
  -26.7610  -27.0190   19.4010 C   0  0  0  0  0  3  0  0  0  0  0  0
  -25.5690  -27.7640   19.4040 C   0  0  0  0  0  3  0  0  0  0  0  0
  -24.1950  -29.7640   20.1730 C   0  0  0  0  0  2  0  0  0  0  0  0
  -25.1030  -30.9750   22.1990 N   0  0  0  0  0  0  0  0  0  0  0  0
  -23.8270  -31.9370   23.8190 O   0  0  0  0  0  0  0  0  0  0  0  0
  -23.2410  -29.2640   22.4600 C   0  0  0  0  0  0  0  0  0  0  0  0
  -21.9280  -29.0360   22.2830 N   0  0  0  0  0  0  0  0  0  0  0  0
  -23.9210  -28.6290   23.2700 O   0  0  0  0  0  0  0  0  0  0  0  0
  -21.4340  -29.6050   21.6080 H   0  0  0  0  0  0  0  0  0  0  0  0
  -18.5950  -27.6600   22.6050 C   0  0  0  0  0  0  0  0  0  0  0  0
  -21.1280  -28.0270   22.9780 C   0  0  0  0  0  3  0  0  0  0  0  0
  -21.3130  -26.6310   22.3410 C   0  0  0  0  0  2  0  0  0  0  0  0
  -20.2650  -26.3030   21.2720 C   0  0  0  0  0  2  0  0  0  0  0  0
  -18.8560  -26.3550   21.8710 C   0  0  0  0  0  2  0  0  0  0  0  0
  -19.6610  -28.4520   23.1100 C   0  0  0  0  0  0  0  0  0  0  0  0
  -19.3610  -29.6700   23.7560 C   0  0  0  0  0  3  0  0  0  0  0  0
  -18.0280  -30.1010   23.9020 C   0  0  0  0  0  3  0  0  0  0  0  0
  -16.9770  -29.3050   23.4130 C   0  0  0  0  0  3  0  0  0  0  0  0
  -17.2600  -28.0860   22.7720 C   0  0  0  0  0  3  0  0  0  0  0  0
  -26.1650  -32.4090   24.0290 C   0  0  0  0  0  3  0  0  0  0  0  0
  -25.7760  -33.7810   24.3850 N   0  0  0  0  0  0  0  0  0  0  0  0
  -26.0840  -34.8710   23.6680 C   0  0  0  0  0  0  0  0  0  0  0  0
  -26.7950  -34.8310   22.6610 O   0  0  0  0  0  0  0  0  0  0  0  0
  -25.1470  -33.8830   25.1660 H   0  0  0  0  0  0  0  0  0  0  0  0
  -24.2830  -36.5910   23.3000 C   0  0  0  0  0  1  0  0  0  0  0  0
  -25.5130  -36.2230   24.1470 C   0  0  0  0  0  3  0  0  0  0  0  0
  -27.5720  -37.1850   25.0810 C   0  0  0  0  0  1  0  0  0  0  0  0
  -26.4990  -37.3260   24.1000 N   0  0  0  0  0  0  0  0  0  0  0  0
  -26.0450  -38.2230   24.2490 H   0  0  0  0  0  0  0  0  0  0  0  0
  -26.6510  -31.6220   25.3070 C   0  0  1  0  0  0  0  0  0  0  0  0
  -25.5160  -31.3080   26.3110 C   0  0  0  0  0  1  0  0  0  0  0  0
  -27.3080  -30.2790   24.9120 C   0  0  0  0  0  1  0  0  0  0  0  0
  -27.7380  -32.4420   26.0420 C   0  0  0  0  0  1  0  0  0  0  0  0
  -29.7200  -18.8740   20.8680 C   0  0  0  0  0  3  0  0  0  0  0  0
  -28.3960  -18.4690   20.3770 N   0  0  0  0  0  4  0  0  0  0  0  0
  -28.3980  -18.3980   19.3750 H   0  0  0  0  0  0  0  0  0  0  0  0
  -27.7200  -19.1620   20.6490 H   0  0  0  0  0  0  0  0  0  0  0  0
  -28.1220  -17.5950   20.7790 H   0  0  0  0  0  0  0  0  0  0  0  0
  -30.8290  -17.6910   20.5070 C   0  0  0  0  0  2  0  0  0  0  0  0
  -31.1520  -15.0060   20.1820 C   0  0  0  0  0  0  0  0  0  0  0  0
  -30.9070  -12.6940   19.1900 C   0  0  0  0  0  2  0  0  0  0  0  0
  -29.9880  -12.7550   17.9490 C   0  0  0  0  0  2  0  0  0  0  0  0
  -28.5040  -12.6370   18.3550 C   0  0  0  0  0  2  0  0  0  0  0  0
  -28.1480  -13.5370   19.5670 C   0  0  0  0  0  3  0  0  0  0  0  0
  -29.1970  -13.4460   20.6990 C   0  0  0  0  0  2  0  0  0  0  0  0
  -30.4980  -13.7850   20.1150 N   0  0  0  0  0  0  0  0  0  0  0  0
  -32.3320  -15.0650   19.8200 O   0  0  0  0  0  0  0  0  0  0  0  0
  -30.4280  -16.1740   20.4850 N   0  0  0  0  0  0  0  0  0  0  0  0
  -29.4880  -15.9730   20.7960 H   0  0  0  0  0  0  0  0  0  0  0  0
  -25.7810  -14.2160   20.2640 C   0  0  0  0  0  0  0  0  0  0  0  0
  -24.6900  -13.4910   20.6480 C   0  0  0  0  0  0  0  0  0  0  0  0
  -25.1030  -12.1230   20.6410 C   0  0  0  0  0  0  0  0  0  0  0  0
  -26.7940  -13.2980   20.0510 N   0  0  0  0  0  0  0  0  0  0  0  0
  -26.3940  -12.0330   20.3380 N   0  0  0  0  0  0  0  0  0  0  0  0
  -24.3280  -10.8930   20.8480 C   0  0  0  0  0  0  0  0  0  0  0  0
  -24.6980   -9.9430   21.8250 C   0  0  0  0  0  3  0  0  0  0  0  0
  -23.9270   -8.7770   22.0180 C   0  0  0  0  0  3  0  0  0  0  0  0
  -22.7710   -8.5530   21.2320 C   0  0  0  0  0  0  0  0  0  0  0  0
  -22.4200   -9.4900   20.2460 C   0  0  0  0  0  3  0  0  0  0  0  0
  -23.1930  -10.6460   20.0510 C   0  0  0  0  0  3  0  0  0  0  0  0
  -21.9740   -7.4390   21.3330 O   0  0  0  0  0  0  0  0  0  0  0  0
  -21.8090   -6.7770   22.5230 C   0  0  0  0  0  0  0  0  0  0  0  0
  -21.3270   -7.4310   23.6780 C   0  0  0  0  0  3  0  0  0  0  0  0
  -21.1090   -6.6990   24.8620 C   0  0  0  0  0  3  0  0  0  0  0  0
  -21.3590   -5.3140   24.8890 C   0  0  0  0  0  0  0  0  0  0  0  0
  -21.8340   -4.6600   23.7390 C   0  0  0  0  0  3  0  0  0  0  0  0
  -22.0560   -5.3900   22.5580 C   0  0  0  0  0  0  0  0  0  0  0  0
  -22.4930   -4.7520   21.4460 F   0  0  0  0  0  0  0  0  0  0  0  0
  -21.1390   -4.6080   26.0220 F   0  0  0  0  0  0  0  0  0  0  0  0
  -23.3090  -14.0240   20.8990 C   0  0  0  0  0  0  0  0  0  0  0  0
  -22.5550  -13.3860   21.7850 N   0  0  0  0  0  0  0  0  0  0  0  0
  -22.9100  -15.0440   20.3380 O   0  0  0  0  0  0  0  0  0  0  0  0
  -22.8900  -12.5610   22.2600 H   0  0  0  0  0  0  0  0  0  0  0  0
  -21.6290  -13.7300   21.9960 H   0  0  0  0  0  0  0  0  0  0  0  0
  -25.9930  -15.5740   20.0370 N   0  0  0  0  0  0  0  0  0  0  0  0
  -25.1430  -16.1220   19.9580 H   0  0  0  0  0  0  0  0  0  0  0  0
  -26.6370  -15.7800   19.2890 H   0  0  0  0  0  0  0  0  0  0  0  0
  1  4  2  0
  1  3  1  0
  2  5  1  0
  3 12  1  0
  3  2  2  0
  4  6  1  0
  5 10  1  0
  6 54  1  0
  6  5  2  0
  7  4  1  0
 10  9  1  0
 10  8  1  0
 12 11  1  0
 13 12  1  0
 14 25  2  0
 15 13  1  0
 15 20  1  0
 16 24  1  0
 16 26  1  0
 17 23  1  0
 17 19  1  0
 18 24  1  0
 19 20  2  0
 19 18  1  0
 21 22  1  0
 21 15  2  0
 22 17  2  0
 23 16  1  0
 24 14  1  0
 26 28  2  0
 27 26  1  0
 29 27  1  0
 30 39  2  0
 30 35  1  0
 31 27  1  0
 31 35  1  0
 32 31  1  0
 33 34  1  0
 33 32  1  0
 34 30  1  0
 35 36  2  0
 36 37  1  0
 38 37  2  0
 39 38  1  0
 40 14  1  0
 40 41  1  0
 40 50  1  0
 41 44  1  0
 42 46  1  0
 42 41  1  0
 43 42  2  0
 46 45  1  0
 48 46  1  0
 48 49  1  0
 48 47  1  0
 50 53  1  1
 50 51  1  0
 52 50  1  0
 54 59  1  0
 55 57  1  0
 55 58  1  0
 55 54  1  0
 56 55  1  0
 60 68  1  0
 61 66  1  0
 62 63  1  0
 62 61  1  0
 64 63  1  0
 64 73  1  0
 64 65  1  0
 66 60  1  0
 66 65  1  0
 67 60  2  0
 68 59  1  0
 68 69  1  0
 70 71  2  0
 71 90  1  0
 72 71  1  0
 72 75  1  0
 73 70  1  0
 73 74  1  0
 74 72  2  0
 75 76  1  0
 76 77  2  0
 78 81  1  0
 78 77  1  0
 79 78  2  0
 80 79  1  0
 80 75  2  0
 81 82  1  0
 82 87  2  0
 82 83  1  0
 83 84  2  0
 84 85  1  0
 85 89  1  0
 86 85  2  0
 87 86  1  0
 88 87  1  0
 90 91  1  0
 91 94  1  0
 91 93  1  0
 92 90  2  0
 95 70  1  0
 96 95  1  0
 97 95  1  0
M  ISO  4  12 101  13 101  60 100  68 100
M  END
>  <TORSDO>  (48) 
F 21

>  <SCORE>  (48) 
-12.564

>  <name>  (48) 
47

>  <ligand_id>  (48) 
47

>  <original_smiles>  (48) 
[H]c1c([H])c([H])c2c(c1[H])C([H])([H])C([H])([H])C([H])([H])C2([H])N([H])C(=O)C1([H])N(C(=O)C([H])(N([H])C(=O)C([H])(N([H])C([H])([H])[H])C([H])([H])[H])C(C([H])([H])[H])(C([H])([H])[H])C([H])([H])[H])C([H])([H])c2c([H])c(OC([H])(c3c([H])c(C([H])([H])[H])c(C([H])(C([H])([H])N([H])C(=O)N4C([H])([H])C([H])([H])C([H])([H])C([H])(n5nc(-c6c([H])c([H])c(Oc7c([H])c([H])c(F)c([H])c7F)c([H])c6[H])c(C(=O)N([H])[H])c5N([H])[H])C4([H])[H])[N+]([H])([H])[H])c(C([H])(C([H])([H])[H])C([H])([H])[H])c3[H])C([H])([H])[H])c([H])c([H])c2C1([H])[H]

>  <smiles>  (48) 
[H]c1c([H])c([H])c2c(c1[H])C([H])([H])C([H])([H])C([H])([H])C2([H])N([H])C(=O)C1([H])N(C(=O)C([H])(N([H])C(=O)C([H])(N([H])C([H])([H])[H])C([H])([H])[H])C(C([H])([H])[H])(C([H])([H])[H])C([H])([H])[H])C([H])([H])c2c([H])c(OC([H])(c3c([H])c(C([H])([H])[H])c(C([H])(C([H])([H])N([H])C(=O)N4C([H])([H])C([H])([H])C([H])([H])C([H])(n5nc(-c6c([H])c([H])c(Oc7c([H])c([H])c(F)c([H])c7F)c([H])c6[H])c(C(=O)N([H])[H])c5N([H])[H])C4([H])[H])[N+]([H])([H])[H])c(C([H])(C([H])([H])[H])C([H])([H])[H])c3[H])C([H])([H])[H])c([H])c([H])c2C1([H])[H]

$$$$
48:0:0
     RDKit          3D

 94102  0  0  1  0  0  0  0  0999 V2000
  -29.9340  -19.1690   21.8010 C   0  0  0  0  0  3  0  0  0  0  0  0
  -29.5170  -20.2570   19.9250 C   0  0  0  0  0  3  0  0  0  0  0  0
  -29.7620  -18.9530   20.4120 C   0  0  0  0  0  0  0  0  0  0  0  0
  -29.9430  -20.5150   22.0870 C   0  0  0  0  0  0  0  0  0  0  0  0
  -29.5980  -21.2600   20.9380 N   0  0  0  0  0  0  0  0  0  0  0  0
  -29.9270  -17.5490   19.6640 C   0  0  0  0  0  2  0  0  0  0  0  0
  -30.5500  -15.0430   20.1290 C   0  0  0  0  0  0  0  0  0  0  0  0
  -30.4090  -12.6910   19.2870 C   0  0  0  0  0  2  0  0  0  0  0  0
  -29.4610  -12.6540   18.0680 C   0  0  0  0  0  2  0  0  0  0  0  0
  -28.0020  -12.4620   18.5250 C   0  0  0  0  0  2  0  0  0  0  0  0
  -27.6130  -13.4130   19.6890 C   0  0  0  0  0  3  0  0  0  0  0  0
  -28.6840  -13.4450   20.8010 C   0  0  0  0  0  2  0  0  0  0  0  0
  -29.9630  -13.7960   20.1740 N   0  0  0  0  0  0  0  0  0  0  0  0
  -31.7050  -15.1500   19.7050 O   0  0  0  0  0  0  0  0  0  0  0  0
  -29.7680  -16.1750   20.3300 N   0  0  0  0  0  0  0  0  0  0  0  0
  -28.8600  -16.0030   20.7340 H   0  0  0  0  0  0  0  0  0  0  0  0
  -25.2500  -13.9760   20.5120 C   0  0  0  0  0  0  0  0  0  0  0  0
  -24.2020  -13.1910   20.9080 C   0  0  0  0  0  0  0  0  0  0  0  0
  -24.6690  -11.8420   20.8330 C   0  0  0  0  0  0  0  0  0  0  0  0
  -26.2870  -13.1070   20.2190 N   0  0  0  0  0  0  0  0  0  0  0  0
  -25.9470  -11.8160   20.4770 N   0  0  0  0  0  0  0  0  0  0  0  0
  -23.9540  -10.5740   21.0270 C   0  0  0  0  0  0  0  0  0  0  0  0
  -24.4030   -9.6060   21.9530 C   0  0  0  0  0  3  0  0  0  0  0  0
  -23.6890   -8.4030   22.1350 C   0  0  0  0  0  3  0  0  0  0  0  0
  -22.5100   -8.1570   21.3910 C   0  0  0  0  0  0  0  0  0  0  0  0
  -22.0800   -9.1130   20.4560 C   0  0  0  0  0  3  0  0  0  0  0  0
  -22.7940  -10.3090   20.2720 C   0  0  0  0  0  3  0  0  0  0  0  0
  -21.7640   -7.0070   21.4850 O   0  0  0  0  0  0  0  0  0  0  0  0
  -21.7260   -6.2660   22.6380 C   0  0  0  0  0  0  0  0  0  0  0  0
  -21.2620   -6.8060   23.8570 C   0  0  0  0  0  3  0  0  0  0  0  0
  -21.1740   -5.9880   25.0020 C   0  0  0  0  0  3  0  0  0  0  0  0
  -21.5380   -4.6310   24.9280 C   0  0  0  0  0  0  0  0  0  0  0  0
  -21.9950   -4.0900   23.7130 C   0  0  0  0  0  3  0  0  0  0  0  0
  -22.0850   -4.9040   22.5710 C   0  0  0  0  0  0  0  0  0  0  0  0
  -22.5060   -4.3720   21.3990 F   0  0  0  0  0  0  0  0  0  0  0  0
  -21.4470   -3.8430   26.0250 F   0  0  0  0  0  0  0  0  0  0  0  0
  -22.8150  -13.6540   21.2390 C   0  0  0  0  0  0  0  0  0  0  0  0
  -22.1190  -12.9380   22.1140 N   0  0  0  0  0  0  0  0  0  0  0  0
  -22.3550  -14.6880   20.7540 O   0  0  0  0  0  0  0  0  0  0  0  0
  -22.5040  -12.1020   22.5290 H   0  0  0  0  0  0  0  0  0  0  0  0
  -21.1860  -13.2270   22.3710 H   0  0  0  0  0  0  0  0  0  0  0  0
  -25.4040  -15.3520   20.3510 N   0  0  0  0  0  0  0  0  0  0  0  0
  -24.6340  -15.9980   20.4900 H   0  0  0  0  0  0  0  0  0  0  0  0
  -26.2290  -15.7970   19.9720 H   0  0  0  0  0  0  0  0  0  0  0  0
  -30.3350  -21.1060   23.4260 C   0  0  0  0  0  2  0  0  0  0  0  0
  -32.7230  -21.4540   22.7730 C   0  0  0  0  0  1  0  0  0  0  0  0
  -31.7630  -20.8890   23.7450 N   0  0  0  0  0  4  0  0  0  0  0  0
  -31.9390  -21.3010   24.6460 H   0  0  0  0  0  0  0  0  0  0  0  0
  -31.9370  -19.9010   23.8330 H   0  0  0  0  0  0  0  0  0  0  0  0
  -29.5750  -22.8160   20.9310 C   0  0  0  0  0  2  0  0  0  0  0  0
  -28.7270  -23.8710   20.0270 C   0  0  0  0  0  2  0  0  0  0  0  0
  -27.5460  -25.3960   21.8130 C   0  0  0  0  0  1  0  0  0  0  0  0
  -28.5640  -25.3870   20.6500 C   0  0  0  0  0  3  0  0  0  0  0  0
  -28.4660  -26.6630   19.8420 O   0  0  0  0  0  0  0  0  0  0  0  0
  -24.6850  -31.8390   23.2960 C   0  0  0  0  0  0  0  0  0  0  0  0
  -27.3460  -27.5260   19.9110 C   0  0  0  0  0  0  0  0  0  0  0  0
  -23.4940  -30.5430   21.5650 C   0  0  0  0  0  3  0  0  0  0  0  0
  -24.9620  -29.1210   20.0190 C   0  0  0  0  0  0  0  0  0  0  0  0
  -26.0280  -30.9100   21.3900 C   0  0  0  0  0  2  0  0  0  0  0  0
  -26.1280  -29.5800   20.6450 C   0  0  0  0  0  0  0  0  0  0  0  0
  -27.3260  -28.7960   20.5800 C   0  0  0  0  0  3  0  0  0  0  0  0
  -26.1620  -27.1320   19.2560 C   0  0  0  0  0  3  0  0  0  0  0  0
  -24.9820  -27.9050   19.3150 C   0  0  0  0  0  3  0  0  0  0  0  0
  -23.7130  -29.9740   20.1380 C   0  0  0  0  0  2  0  0  0  0  0  0
  -24.7550  -31.1120   22.1420 N   0  0  0  0  0  0  0  0  0  0  0  0
  -23.6010  -32.0630   23.8550 O   0  0  0  0  0  0  0  0  0  0  0  0
  -22.8530  -29.4500   22.4550 C   0  0  0  0  0  0  0  0  0  0  0  0
  -21.5300  -29.2570   22.3170 N   0  0  0  0  0  0  0  0  0  0  0  0
  -23.5450  -28.7840   23.2290 O   0  0  0  0  0  0  0  0  0  0  0  0
  -21.0300  -29.8490   21.6680 H   0  0  0  0  0  0  0  0  0  0  0  0
  -18.1800  -27.9510   22.7280 C   0  0  0  0  0  0  0  0  0  0  0  0
  -20.7320  -28.2500   23.0190 C   0  0  0  0  0  3  0  0  0  0  0  0
  -20.8660  -26.8650   22.3450 C   0  0  0  0  0  2  0  0  0  0  0  0
  -19.7710  -26.5890   21.3090 C   0  0  0  0  0  2  0  0  0  0  0  0
  -18.3870  -26.6560   21.9600 C   0  0  0  0  0  2  0  0  0  0  0  0
  -19.2810  -28.7080   23.2110 C   0  0  0  0  0  0  0  0  0  0  0  0
  -19.0310  -29.9200   23.8880 C   0  0  0  0  0  3  0  0  0  0  0  0
  -17.7160  -30.3770   24.0910 C   0  0  0  0  0  3  0  0  0  0  0  0
  -16.6300  -29.6170   23.6230 C   0  0  0  0  0  3  0  0  0  0  0  0
  -16.8620  -28.4050   22.9480 C   0  0  0  0  0  3  0  0  0  0  0  0
  -25.9620  -32.4460   23.9570 C   0  0  0  0  0  3  0  0  0  0  0  0
  -25.6490  -33.8300   24.3430 N   0  0  0  0  0  0  0  0  0  0  0  0
  -26.0050  -34.9170   23.6430 C   0  0  0  0  0  0  0  0  0  0  0  0
  -26.6970  -34.8570   22.6240 O   0  0  0  0  0  0  0  0  0  0  0  0
  -25.0370  -33.9530   25.1360 H   0  0  0  0  0  0  0  0  0  0  0  0
  -24.2980  -36.7380   23.3280 C   0  0  0  0  0  1  0  0  0  0  0  0
  -25.5110  -36.2840   24.1540 C   0  0  0  0  0  3  0  0  0  0  0  0
  -27.6200  -37.1150   25.1010 C   0  0  0  0  0  1  0  0  0  0  0  0
  -26.5540  -37.3330   24.1260 N   0  0  0  0  0  0  0  0  0  0  0  0
  -26.1480  -38.2500   24.2980 H   0  0  0  0  0  0  0  0  0  0  0  0
  -26.4660  -31.6230   25.2060 C   0  0  1  0  0  0  0  0  0  0  0  0
  -25.3620  -31.3470   26.2530 C   0  0  0  0  0  1  0  0  0  0  0  0
  -27.0480  -30.2610   24.7650 C   0  0  0  0  0  1  0  0  0  0  0  0
  -27.6130  -32.3890   25.9080 C   0  0  0  0  0  1  0  0  0  0  0  0
  1  4  2  0
  2  3  2  0
  2  5  1  0
  3  1  1  0
  4 45  1  0
  5  4  1  0
  6 15  1  0
  6  3  1  0
  7 13  1  0
  7 15  1  0
  8 13  1  0
  9 10  1  0
  9  8  1  0
 11 10  1  0
 11 20  1  0
 11 12  1  0
 13 12  1  0
 14  7  2  0
 15 16  1  0
 17 18  2  0
 18 37  1  0
 19 18  1  0
 19 22  1  0
 20 21  1  0
 20 17  1  0
 21 19  2  0
 22 23  1  0
 23 24  2  0
 25 28  1  0
 25 24  1  0
 26 25  2  0
 27 26  1  0
 27 22  2  0
 28 29  1  0
 29 30  1  0
 30 31  2  0
 32 31  1  0
 32 36  1  0
 33 32  2  0
 34 29  2  0
 34 33  1  0
 35 34  1  0
 37 38  1  0
 38 41  1  0
 38 40  1  0
 39 37  2  0
 42 43  1  0
 42 17  1  0
 44 42  1  0
 45 47  1  0
 46 47  1  0
 47 49  1  0
 47 48  1  0
 50  5  1  0
 51 53  1  0
 51 50  1  0
 53 52  1  0
 54 56  1  0
 54 53  1  0
 55 66  2  0
 56 61  1  0
 57 65  1  0
 57 67  1  0
 58 64  1  0
 58 60  1  0
 59 65  1  0
 60 59  1  0
 61 60  2  0
 62 63  1  0
 62 56  2  0
 63 58  2  0
 64 57  1  0
 65 55  1  0
 67 69  2  0
 68 67  1  0
 70 68  1  0
 71 80  2  0
 71 76  1  0
 72 68  1  0
 72 76  1  0
 73 72  1  0
 74 75  1  0
 74 73  1  0
 75 71  1  0
 76 77  2  0
 77 78  1  0
 79 78  2  0
 80 79  1  0
 81 55  1  0
 81 82  1  0
 81 91  1  0
 82 85  1  0
 83 87  1  0
 83 82  1  0
 84 83  2  0
 87 86  1  0
 89 87  1  0
 89 90  1  0
 89 88  1  0
 91 94  1  1
 91 92  1  0
 93 91  1  0
M  ISO  4   7 100  15 100  53 101  54 101
M  END
>  <TORSDO>  (49) 
F 22

>  <SCORE>  (49) 
-12.234

>  <name>  (49) 
48

>  <ligand_id>  (49) 
48

>  <original_smiles>  (49) 
[H]c1c([H])c([H])c2c(c1[H])C([H])([H])C([H])([H])C([H])([H])C2([H])N([H])C(=O)C1([H])N(C(=O)C([H])(N([H])C(=O)C([H])(N([H])C([H])([H])[H])C([H])([H])[H])C(C([H])([H])[H])(C([H])([H])[H])C([H])([H])[H])C([H])([H])c2c([H])c(OC([H])(C([H])([H])[H])C([H])([H])C([H])([H])n3c([H])c(C([H])([H])N([H])C(=O)N4C([H])([H])C([H])([H])C([H])([H])C([H])(n5nc(-c6c([H])c([H])c(Oc7c([H])c([H])c(F)c([H])c7F)c([H])c6[H])c(C(=O)N([H])[H])c5N([H])[H])C4([H])[H])c([H])c3C([H])([H])[N+]([H])([H])C([H])([H])[H])c([H])c([H])c2C1([H])[H]

>  <smiles>  (49) 
[H]c1c([H])c([H])c2c(c1[H])C([H])([H])C([H])([H])C([H])([H])C2([H])N([H])C(=O)C1([H])N(C(=O)C([H])(N([H])C(=O)C([H])(N([H])C([H])([H])[H])C([H])([H])[H])C(C([H])([H])[H])(C([H])([H])[H])C([H])([H])[H])C([H])([H])c2c([H])c(OC([H])(C([H])([H])[H])C([H])([H])C([H])([H])n3c([H])c(C([H])([H])N([H])C(=O)N4C([H])([H])C([H])([H])C([H])([H])C([H])(n5nc(-c6c([H])c([H])c(Oc7c([H])c([H])c(F)c([H])c7F)c([H])c6[H])c(C(=O)N([H])[H])c5N([H])[H])C4([H])[H])c([H])c3C([H])([H])[N+]([H])([H])C([H])([H])[H])c([H])c([H])c2C1([H])[H]

$$$$
49:0:0
     RDKit          3D

 92100  0  0  1  0  0  0  0  0999 V2000
  -30.3200  -20.4490   22.2990 C   0  0  0  0  0  2  0  0  0  0  0  0
  -29.5600  -21.1950   21.4710 C   0  0  0  0  0  2  0  0  0  0  0  0
  -30.9050  -19.3910   21.5650 C   0  0  0  0  0  0  0  0  0  0  0  0
  -30.4070  -19.4120   20.2670 C   0  0  0  0  0  0  0  0  0  0  0  0
  -29.6610  -20.7390   20.1670 N   0  0  0  0  0  0  0  0  0  0  0  0
  -33.0290  -19.2810   22.8960 C   0  0  0  0  0  1  0  0  0  0  0  0
  -31.9200  -18.4610   22.2200 C   0  0  0  0  0  3  0  0  0  0  0  0
  -30.3530  -16.4260   22.5540 C   0  0  0  0  0  1  0  0  0  0  0  0
  -31.2820  -17.4600   23.2100 C   0  0  0  0  0  2  0  0  0  0  0  0
  -30.7910  -18.1690   19.2620 C   0  0  0  0  0  2  0  0  0  0  0  0
  -31.4220  -15.4370   19.4020 C   0  0  0  0  0  0  0  0  0  0  0  0
  -31.2500  -13.0380   18.5810 C   0  0  0  0  0  2  0  0  0  0  0  0
  -30.1920  -12.9260   17.4570 C   0  0  0  0  0  2  0  0  0  0  0  0
  -28.7880  -12.7110   18.0510 C   0  0  0  0  0  2  0  0  0  0  0  0
  -28.4910  -13.6850   19.2210 C   0  0  0  0  0  3  0  0  0  0  0  0
  -29.6580  -13.7570   20.2300 C   0  0  0  0  0  2  0  0  0  0  0  0
  -30.8520  -14.1630   19.4800 N   0  0  0  0  0  0  0  0  0  0  0  0
  -32.5740  -15.5010   18.9610 O   0  0  0  0  0  0  0  0  0  0  0  0
  -30.6430  -16.6170   19.6170 N   0  0  0  0  0  0  0  0  0  0  0  0
  -29.7300  -16.4020   19.9880 H   0  0  0  0  0  0  0  0  0  0  0  0
  -26.2510  -14.2870   20.2980 C   0  0  0  0  0  0  0  0  0  0  0  0
  -25.2110  -13.5220   20.7520 C   0  0  0  0  0  0  0  0  0  0  0  0
  -25.6140  -12.1630   20.5730 C   0  0  0  0  0  0  0  0  0  0  0  0
  -27.2190  -13.3950   19.8680 N   0  0  0  0  0  0  0  0  0  0  0  0
  -26.8520  -12.1080   20.0970 N   0  0  0  0  0  0  0  0  0  0  0  0
  -24.8640  -10.9150   20.7710 C   0  0  0  0  0  0  0  0  0  0  0  0
  -25.2600   -9.9600   21.7330 C   0  0  0  0  0  3  0  0  0  0  0  0
  -24.5100   -8.7770   21.9180 C   0  0  0  0  0  3  0  0  0  0  0  0
  -23.3530   -8.5410   21.1400 C   0  0  0  0  0  0  0  0  0  0  0  0
  -22.9780   -9.4830   20.1660 C   0  0  0  0  0  3  0  0  0  0  0  0
  -23.7260  -10.6570   19.9800 C   0  0  0  0  0  3  0  0  0  0  0  0
  -22.5780   -7.4100   21.2330 O   0  0  0  0  0  0  0  0  0  0  0  0
  -22.2830   -6.8380   22.4450 C   0  0  0  0  0  0  0  0  0  0  0  0
  -21.6310   -7.5580   23.4710 C   0  0  0  0  0  3  0  0  0  0  0  0
  -21.2850   -6.9110   24.6740 C   0  0  0  0  0  3  0  0  0  0  0  0
  -21.5810   -5.5470   24.8510 C   0  0  0  0  0  0  0  0  0  0  0  0
  -22.2250   -4.8270   23.8300 C   0  0  0  0  0  3  0  0  0  0  0  0
  -22.5730   -5.4710   22.6280 C   0  0  0  0  0  0  0  0  0  0  0  0
  -23.1750   -4.7670   21.6390 F   0  0  0  0  0  0  0  0  0  0  0  0
  -21.2410   -4.9230   26.0040 F   0  0  0  0  0  0  0  0  0  0  0  0
  -23.8800  -14.0250   21.2300 C   0  0  0  0  0  0  0  0  0  0  0  0
  -23.2630  -13.3220   22.1720 N   0  0  0  0  0  0  0  0  0  0  0  0
  -23.4030  -15.0750   20.8020 O   0  0  0  0  0  0  0  0  0  0  0  0
  -23.6650  -12.4700   22.5370 H   0  0  0  0  0  0  0  0  0  0  0  0
  -22.3750  -13.6380   22.5360 H   0  0  0  0  0  0  0  0  0  0  0  0
  -26.4440  -15.6600   20.1890 N   0  0  0  0  0  0  0  0  0  0  0  0
  -25.7180  -16.3250   20.4320 H   0  0  0  0  0  0  0  0  0  0  0  0
  -27.2480  -16.0980   19.7580 H   0  0  0  0  0  0  0  0  0  0  0  0
  -28.8990  -21.6960   19.1550 C   0  0  0  0  0  2  0  0  0  0  0  0
  -29.1010  -23.4090   19.1300 C   0  0  0  0  0  3  0  0  0  0  0  0
  -27.9870  -24.6300   18.7160 C   0  0  0  0  0  3  0  0  0  0  0  0
  -28.1810  -26.1900   18.7220 O   0  0  0  0  0  0  0  0  0  0  0  0
  -24.9080  -31.2950   22.9420 C   0  0  0  0  0  0  0  0  0  0  0  0
  -27.1060  -27.1420   18.9260 C   0  0  0  0  0  0  0  0  0  0  0  0
  -23.5100  -30.0930   21.3060 C   0  0  0  0  0  3  0  0  0  0  0  0
  -24.7640  -28.7900   19.4760 C   0  0  0  0  0  0  0  0  0  0  0  0
  -26.0070  -30.4760   20.8200 C   0  0  0  0  0  2  0  0  0  0  0  0
  -26.0110  -29.1910   19.9710 C   0  0  0  0  0  0  0  0  0  0  0  0
  -27.1770  -28.3850   19.6830 C   0  0  0  0  0  3  0  0  0  0  0  0
  -25.8260  -26.8560   18.4030 C   0  0  0  0  0  3  0  0  0  0  0  0
  -24.6810  -27.6400   18.6780 C   0  0  0  0  0  3  0  0  0  0  0  0
  -23.5420  -29.6270   19.8280 C   0  0  0  0  0  2  0  0  0  0  0  0
  -24.8360  -30.6370   21.7440 N   0  0  0  0  0  0  0  0  0  0  0  0
  -23.9050  -31.4580   23.6540 O   0  0  0  0  0  0  0  0  0  0  0  0
  -23.0020  -28.9350   22.2010 C   0  0  0  0  0  0  0  0  0  0  0  0
  -21.7110  -28.5780   22.0700 N   0  0  0  0  0  0  0  0  0  0  0  0
  -23.7690  -28.3610   22.9790 O   0  0  0  0  0  0  0  0  0  0  0  0
  -21.1410  -29.1020   21.4220 H   0  0  0  0  0  0  0  0  0  0  0  0
  -18.6240  -26.6940   22.3190 C   0  0  0  0  0  0  0  0  0  0  0  0
  -21.0470  -27.4790   22.7760 C   0  0  0  0  0  3  0  0  0  0  0  0
  -21.4860  -26.1070   22.2140 C   0  0  0  0  0  2  0  0  0  0  0  0
  -20.5520  -25.5750   21.1220 C   0  0  0  0  0  2  0  0  0  0  0  0
  -19.1280  -25.4190   21.6600 C   0  0  0  0  0  2  0  0  0  0  0  0
  -19.5250  -27.6670   22.8280 C   0  0  0  0  0  0  0  0  0  0  0  0
  -19.0040  -28.8460   23.4040 C   0  0  0  0  0  3  0  0  0  0  0  0
  -17.6150  -29.0600   23.4760 C   0  0  0  0  0  3  0  0  0  0  0  0
  -16.7280  -28.0880   22.9820 C   0  0  0  0  0  3  0  0  0  0  0  0
  -17.2320  -26.9070   22.4080 C   0  0  0  0  0  3  0  0  0  0  0  0
  -26.2500  -31.8920   23.4660 C   0  0  0  0  0  3  0  0  0  0  0  0
  -25.9630  -33.2240   24.0210 N   0  0  0  0  0  0  0  0  0  0  0  0
  -26.2490  -34.3840   23.4140 C   0  0  0  0  0  0  0  0  0  0  0  0
  -26.8490  -34.4440   22.3380 O   0  0  0  0  0  0  0  0  0  0  0  0
  -25.4300  -33.2510   24.8770 H   0  0  0  0  0  0  0  0  0  0  0  0
  -24.5310  -36.2240   23.4310 C   0  0  0  0  0  1  0  0  0  0  0  0
  -25.7990  -35.6830   24.1120 C   0  0  0  0  0  3  0  0  0  0  0  0
  -27.9800  -36.4090   24.9750 C   0  0  0  0  0  1  0  0  0  0  0  0
  -26.8380  -36.7360   24.1260 N   0  0  0  0  0  0  0  0  0  0  0  0
  -26.4500  -37.6200   24.4420 H   0  0  0  0  0  0  0  0  0  0  0  0
  -26.9510  -30.9840   24.5510 C   0  0  1  0  0  0  0  0  0  0  0  0
  -26.0090  -30.5430   25.6970 C   0  0  0  0  0  1  0  0  0  0  0  0
  -27.5330  -29.7050   23.9050 C   0  0  0  0  0  1  0  0  0  0  0  0
  -28.1450  -31.7430   25.1760 C   0  0  0  0  0  1  0  0  0  0  0  0
  2  1  1  0
  3  7  1  0
  3  1  1  0
  4  3  2  0
  5  4  1  0
  5  2  1  0
  7  6  1  0
  7  9  1  0
  8  9  1  0
 10 19  1  0
 10  4  1  0
 11 17  1  0
 11 19  1  0
 12 17  1  0
 13 14  1  0
 13 12  1  0
 15 14  1  0
 15 24  1  0
 15 16  1  0
 17 16  1  0
 18 11  2  0
 19 20  1  0
 21 22  2  0
 22 41  1  0
 23 22  1  0
 23 26  1  0
 24 25  1  0
 24 21  1  0
 25 23  2  0
 26 27  1  0
 27 28  2  0
 29 32  1  0
 29 28  1  0
 30 29  2  0
 31 30  1  0
 31 26  2  0
 32 33  1  0
 33 38  2  0
 33 34  1  0
 34 35  2  0
 35 36  1  0
 36 40  1  0
 37 36  2  0
 38 37  1  0
 39 38  1  0
 41 42  1  0
 42 45  1  0
 42 44  1  0
 43 41  2  0
 46 21  1  0
 46 47  1  0
 48 46  1  0
 49  5  1  0
 50 49  1  0
 51 52  1  0
 51 50  2  0
 52 54  1  0
 53 64  2  0
 54 59  1  0
 55 63  1  0
 55 65  1  0
 56 62  1  0
 56 58  1  0
 57 63  1  0
 58 57  1  0
 59 58  2  0
 60 61  1  0
 60 54  2  0
 61 56  2  0
 62 55  1  0
 63 53  1  0
 65 67  2  0
 66 65  1  0
 68 66  1  0
 69 78  2  0
 69 74  1  0
 70 66  1  0
 70 74  1  0
 71 70  1  0
 72 73  1  0
 72 71  1  0
 73 69  1  0
 74 75  2  0
 75 76  1  0
 77 76  2  0
 78 77  1  0
 79 53  1  0
 79 80  1  0
 79 89  1  0
 80 83  1  0
 81 80  1  0
 81 85  1  0
 82 81  2  0
 85 84  1  0
 85 87  1  0
 87 88  1  0
 87 86  1  0
 89 92  1  1
 89 90  1  0
 91 89  1  0
M  ISO  4  11 100  19 100  51 101  52 101
M  END
>  <TORSDO>  (50) 
F 22

>  <SCORE>  (50) 
-8.679

>  <name>  (50) 
49

>  <ligand_id>  (50) 
49

>  <original_smiles>  (50) 
[H]c1c([H])c([H])c2c(c1[H])C([H])([H])C([H])([H])C([H])([H])C2([H])N([H])C(=O)C1([H])N(C(=O)C([H])(N([H])C(=O)C([H])(N([H])C([H])([H])[H])C([H])([H])[H])C(C([H])([H])[H])(C([H])([H])[H])C([H])([H])[H])C([H])([H])c2c([H])c(OC([H])([H])C([H])([H])C([H])([H])n3c([H])c([H])c(C([H])(C([H])([H])[H])C([H])([H])C([H])([H])[H])c3C([H])([H])N([H])C(=O)N3C([H])([H])C([H])([H])C([H])([H])C([H])(n4nc(-c5c([H])c([H])c(Oc6c([H])c([H])c(F)c([H])c6F)c([H])c5[H])c(C(=O)N([H])[H])c4N([H])[H])C3([H])[H])c([H])c([H])c2C1([H])[H]

>  <smiles>  (50) 
[H]c1c([H])c([H])c2c(c1[H])C([H])([H])C([H])([H])C([H])([H])C2([H])N([H])C(=O)C1([H])N(C(=O)C([H])(N([H])C(=O)C([H])(N([H])C([H])([H])[H])C([H])([H])[H])C(C([H])([H])[H])(C([H])([H])[H])C([H])([H])[H])C([H])([H])c2c([H])c(OC([H])([H])C([H])([H])C([H])([H])n3c([H])c([H])c(C([H])(C([H])([H])[H])C([H])([H])C([H])([H])[H])c3C([H])([H])N([H])C(=O)N3C([H])([H])C([H])([H])C([H])([H])C([H])(n4nc(-c5c([H])c([H])c(Oc6c([H])c([H])c(F)c([H])c6F)c([H])c5[H])c(C(=O)N([H])[H])c4N([H])[H])C3([H])[H])c([H])c([H])c2C1([H])[H]

$$$$
50:0:0
     RDKit          3D

 95103  0  0  1  0  0  0  0  0999 V2000
  -29.7260  -21.1590   20.5370 C   0  0  0  0  0  3  0  0  0  0  0  0
  -27.8970  -21.9330   19.1780 C   0  0  0  0  0  3  0  0  0  0  0  0
  -28.8830  -22.2760   20.1230 C   0  0  0  0  0  0  0  0  0  0  0  0
  -29.5810  -19.8110   19.9880 C   0  0  0  0  0  0  0  0  0  0  0  0
  -28.5340  -19.6800   19.0390 C   0  0  0  0  0  0  0  0  0  0  0  0
  -28.2550  -18.3650   18.3220 C   0  0  0  0  0  1  0  0  0  0  0  0
  -27.7280  -20.6960   18.6660 N   0  0  0  0  0  0  0  0  0  0  0  0
  -30.2610  -24.1840   21.2950 C   0  0  0  0  0  1  0  0  0  0  0  0
  -28.9060  -23.7850   20.6810 C   0  0  0  0  0  3  0  0  0  0  0  0
  -28.3470  -25.0020   19.7570 C   0  0  0  0  0  2  0  0  0  0  0  0
  -28.3280  -26.4250   20.2510 O   0  0  0  0  0  0  0  0  0  0  0  0
  -24.5950  -31.8820   23.2340 C   0  0  0  0  0  0  0  0  0  0  0  0
  -27.1990  -27.2790   20.1710 C   0  0  0  0  0  0  0  0  0  0  0  0
  -23.3930  -30.4840   21.6030 C   0  0  0  0  0  3  0  0  0  0  0  0
  -24.8370  -28.9290   20.1700 C   0  0  0  0  0  0  0  0  0  0  0  0
  -25.9390  -30.7820   21.4240 C   0  0  0  0  0  2  0  0  0  0  0  0
  -26.0110  -29.4010   20.7690 C   0  0  0  0  0  0  0  0  0  0  0  0
  -27.1910  -28.5890   20.7560 C   0  0  0  0  0  3  0  0  0  0  0  0
  -25.9940  -26.8780   19.5390 C   0  0  0  0  0  3  0  0  0  0  0  0
  -24.8310  -27.6730   19.5470 C   0  0  0  0  0  3  0  0  0  0  0  0
  -23.6060  -29.8120   20.2230 C   0  0  0  0  0  2  0  0  0  0  0  0
  -24.6630  -31.0680   22.1410 N   0  0  0  0  0  0  0  0  0  0  0  0
  -23.5100  -32.1620   23.7650 O   0  0  0  0  0  0  0  0  0  0  0  0
  -22.7250  -29.4710   22.5640 C   0  0  0  0  0  0  0  0  0  0  0  0
  -21.3990  -29.2970   22.4360 N   0  0  0  0  0  0  0  0  0  0  0  0
  -23.4010  -28.8440   23.3850 O   0  0  0  0  0  0  0  0  0  0  0  0
  -20.9140  -29.8470   21.7420 H   0  0  0  0  0  0  0  0  0  0  0  0
  -18.0170  -28.1240   22.9550 C   0  0  0  0  0  0  0  0  0  0  0  0
  -20.5770  -28.3650   23.2080 C   0  0  0  0  0  3  0  0  0  0  0  0
  -20.6690  -26.9340   22.6300 C   0  0  0  0  0  2  0  0  0  0  0  0
  -19.5590  -26.6220   21.6240 C   0  0  0  0  0  2  0  0  0  0  0  0
  -18.1800  -26.7760   22.2740 C   0  0  0  0  0  2  0  0  0  0  0  0
  -19.1430  -28.8780   23.3780 C   0  0  0  0  0  0  0  0  0  0  0  0
  -18.9300  -30.1420   23.9720 C   0  0  0  0  0  3  0  0  0  0  0  0
  -17.6270  -30.6470   24.1480 C   0  0  0  0  0  3  0  0  0  0  0  0
  -16.5160  -29.8870   23.7370 C   0  0  0  0  0  3  0  0  0  0  0  0
  -16.7150  -28.6280   23.1420 C   0  0  0  0  0  3  0  0  0  0  0  0
  -25.8790  -32.5170   23.8560 C   0  0  0  0  0  3  0  0  0  0  0  0
  -25.5670  -33.9140   24.1830 N   0  0  0  0  0  0  0  0  0  0  0  0
  -25.8990  -34.9670   23.4230 C   0  0  0  0  0  0  0  0  0  0  0  0
  -26.5720  -34.8630   22.3930 O   0  0  0  0  0  0  0  0  0  0  0  0
  -24.9710  -34.0710   24.9820 H   0  0  0  0  0  0  0  0  0  0  0  0
  -24.1800  -36.7690   23.0680 C   0  0  0  0  0  1  0  0  0  0  0  0
  -25.4170  -36.3560   23.8830 C   0  0  0  0  0  3  0  0  0  0  0  0
  -27.5480  -37.2370   24.7240 C   0  0  0  0  0  1  0  0  0  0  0  0
  -26.4500  -37.4090   23.7730 N   0  0  0  0  0  0  0  0  0  0  0  0
  -26.0470  -38.3280   23.9210 H   0  0  0  0  0  0  0  0  0  0  0  0
  -26.3890  -31.7500   25.1370 C   0  0  1  0  0  0  0  0  0  0  0  0
  -25.2930  -31.5080   26.2030 C   0  0  0  0  0  1  0  0  0  0  0  0
  -26.9720  -30.3750   24.7460 C   0  0  0  0  0  1  0  0  0  0  0  0
  -27.5390  -32.5480   25.7950 C   0  0  0  0  0  1  0  0  0  0  0  0
  -30.5350  -18.5320   20.2280 C   0  0  0  0  0  3  0  0  0  0  0  0
  -31.8920  -18.9740   20.5960 N   0  0  0  0  0  4  0  0  0  0  0  0
  -31.9280  -19.4050   21.5010 H   0  0  0  0  0  0  0  0  0  0  0  0
  -32.2450  -19.6140   19.9080 H   0  0  0  0  0  0  0  0  0  0  0  0
  -32.5140  -18.1880   20.5980 H   0  0  0  0  0  0  0  0  0  0  0  0
  -30.0640  -17.3070   21.1750 C   0  0  0  0  0  2  0  0  0  0  0  0
  -30.6180  -14.7790   20.4130 C   0  0  0  0  0  0  0  0  0  0  0  0
  -30.4260  -12.5230   19.3380 C   0  0  0  0  0  2  0  0  0  0  0  0
  -29.4670  -12.5740   18.1250 C   0  0  0  0  0  2  0  0  0  0  0  0
  -28.0050  -12.3780   18.5730 C   0  0  0  0  0  2  0  0  0  0  0  0
  -27.6270  -13.2800   19.7750 C   0  0  0  0  0  3  0  0  0  0  0  0
  -28.6940  -13.1970   20.8900 C   0  0  0  0  0  2  0  0  0  0  0  0
  -29.9890  -13.5610   20.2940 N   0  0  0  0  0  0  0  0  0  0  0  0
  -31.8080  -14.9110   20.1140 O   0  0  0  0  0  0  0  0  0  0  0  0
  -29.8260  -15.8740   20.6850 N   0  0  0  0  0  0  0  0  0  0  0  0
  -28.8550  -15.6080   20.7550 H   0  0  0  0  0  0  0  0  0  0  0  0
  -25.2400  -13.8710   20.5090 C   0  0  0  0  0  0  0  0  0  0  0  0
  -24.1780  -13.0910   20.8840 C   0  0  0  0  0  0  0  0  0  0  0  0
  -24.6460  -11.7430   20.8560 C   0  0  0  0  0  0  0  0  0  0  0  0
  -26.2840  -12.9910   20.2730 N   0  0  0  0  0  0  0  0  0  0  0  0
  -25.9360  -11.7070   20.5480 N   0  0  0  0  0  0  0  0  0  0  0  0
  -23.9240  -10.4780   21.0460 C   0  0  0  0  0  0  0  0  0  0  0  0
  -24.3620   -9.5120   21.9790 C   0  0  0  0  0  3  0  0  0  0  0  0
  -23.6390   -8.3120   22.1570 C   0  0  0  0  0  3  0  0  0  0  0  0
  -22.4650   -8.0720   21.4040 C   0  0  0  0  0  0  0  0  0  0  0  0
  -22.0450   -9.0290   20.4640 C   0  0  0  0  0  3  0  0  0  0  0  0
  -22.7690  -10.2180   20.2830 C   0  0  0  0  0  3  0  0  0  0  0  0
  -21.7100   -6.9260   21.4960 O   0  0  0  0  0  0  0  0  0  0  0  0
  -21.6710   -6.1800   22.6450 C   0  0  0  0  0  0  0  0  0  0  0  0
  -21.2520   -6.7280   23.8780 C   0  0  0  0  0  3  0  0  0  0  0  0
  -21.1620   -5.9080   25.0200 C   0  0  0  0  0  3  0  0  0  0  0  0
  -21.4780   -4.5400   24.9320 C   0  0  0  0  0  0  0  0  0  0  0  0
  -21.8880   -3.9890   23.7040 C   0  0  0  0  0  3  0  0  0  0  0  0
  -21.9830   -4.8070   22.5650 C   0  0  0  0  0  0  0  0  0  0  0  0
  -22.3600   -4.2650   21.3810 F   0  0  0  0  0  0  0  0  0  0  0  0
  -21.3820   -3.7490   26.0270 F   0  0  0  0  0  0  0  0  0  0  0  0
  -22.7770  -13.5650   21.1500 C   0  0  0  0  0  0  0  0  0  0  0  0
  -22.0500  -12.8640   22.0150 N   0  0  0  0  0  0  0  0  0  0  0  0
  -22.3370  -14.5860   20.6300 O   0  0  0  0  0  0  0  0  0  0  0  0
  -22.4170  -12.0380   22.4560 H   0  0  0  0  0  0  0  0  0  0  0  0
  -21.1110  -13.1630   22.2390 H   0  0  0  0  0  0  0  0  0  0  0  0
  -25.3970  -15.2420   20.3270 N   0  0  0  0  0  0  0  0  0  0  0  0
  -24.6160  -15.8840   20.4220 H   0  0  0  0  0  0  0  0  0  0  0  0
  -26.2270  -15.6790   19.9500 H   0  0  0  0  0  0  0  0  0  0  0  0
  2  3  2  0
  3  1  1  0
  3  9  1  0
  4 52  1  0
  4  1  2  0
  5  4  1  0
  6  5  1  0
  7  5  2  0
  7  2  1  0
  9  8  1  0
 10 11  1  0
 10  9  1  0
 12 23  2  0
 13 11  1  0
 13 18  1  0
 14 22  1  0
 14 24  1  0
 15 21  1  0
 15 17  1  0
 16 22  1  0
 17 16  1  0
 18 17  2  0
 19 20  1  0
 19 13  2  0
 20 15  2  0
 21 14  1  0
 22 12  1  0
 24 26  2  0
 25 24  1  0
 27 25  1  0
 28 37  2  0
 28 33  1  0
 29 25  1  0
 29 33  1  0
 30 29  1  0
 31 32  1  0
 31 30  1  0
 32 28  1  0
 33 34  2  0
 34 35  1  0
 36 35  2  0
 37 36  1  0
 38 12  1  0
 38 39  1  0
 38 48  1  0
 39 42  1  0
 40 44  1  0
 40 39  1  0
 41 40  2  0
 44 43  1  0
 46 44  1  0
 46 47  1  0
 46 45  1  0
 48 51  1  1
 48 49  1  0
 50 48  1  0
 52 53  1  0
 52 57  1  0
 53 56  1  0
 53 54  1  0
 55 53  1  0
 58 66  1  0
 59 64  1  0
 60 61  1  0
 60 59  1  0
 62 61  1  0
 62 71  1  0
 62 63  1  0
 64 58  1  0
 64 63  1  0
 65 58  2  0
 66 67  1  0
 66 57  1  0
 68 69  2  0
 69 88  1  0
 70 69  1  0
 70 73  1  0
 71 68  1  0
 71 72  1  0
 72 70  2  0
 73 74  1  0
 74 75  2  0
 76 79  1  0
 76 75  1  0
 77 76  2  0
 78 77  1  0
 78 73  2  0
 79 80  1  0
 80 81  1  0
 81 82  2  0
 83 82  1  0
 83 87  1  0
 84 83  2  0
 85 80  2  0
 85 84  1  0
 86 85  1  0
 88 89  1  0
 89 92  1  0
 89 91  1  0
 90 88  2  0
 93 94  1  0
 93 68  1  0
 95 93  1  0
M  ISO  4  10 101  11 101  58 100  66 100
M  END
>  <TORSDO>  (51) 
F 21

>  <SCORE>  (51) 
-13.995

>  <name>  (51) 
50

>  <ligand_id>  (51) 
50

>  <original_smiles>  (51) 
[H]c1nc(C([H])([H])[H])c(C([H])(C([H])([H])N([H])C(=O)N2C([H])([H])C([H])([H])C([H])([H])C([H])(n3nc(-c4c([H])c([H])c(Oc5c([H])c([H])c(F)c([H])c5F)c([H])c4[H])c(C(=O)N([H])[H])c3N([H])[H])C2([H])[H])[N+]([H])([H])[H])c([H])c1C([H])(C([H])([H])[H])C([H])([H])Oc1c([H])c([H])c2c(c1[H])C([H])([H])N(C(=O)C([H])(N([H])C(=O)C([H])(N([H])C([H])([H])[H])C([H])([H])[H])C(C([H])([H])[H])(C([H])([H])[H])C([H])([H])[H])C([H])(C(=O)N([H])C1([H])c3c([H])c([H])c([H])c([H])c3C([H])([H])C([H])([H])C1([H])[H])C2([H])[H]

>  <smiles>  (51) 
[H]c1nc(C([H])([H])[H])c(C([H])(C([H])([H])N([H])C(=O)N2C([H])([H])C([H])([H])C([H])([H])C([H])(n3nc(-c4c([H])c([H])c(Oc5c([H])c([H])c(F)c([H])c5F)c([H])c4[H])c(C(=O)N([H])[H])c3N([H])[H])C2([H])[H])[N+]([H])([H])[H])c([H])c1C([H])(C([H])([H])[H])C([H])([H])Oc1c([H])c([H])c2c(c1[H])C([H])([H])N(C(=O)C([H])(N([H])C(=O)C([H])(N([H])C([H])([H])[H])C([H])([H])[H])C(C([H])([H])[H])(C([H])([H])[H])C([H])([H])[H])C([H])(C(=O)N([H])C1([H])c3c([H])c([H])c([H])c([H])c3C([H])([H])C([H])([H])C1([H])[H])C2([H])[H]

$$$$
51:0:0
     RDKit          3D

 93102  0  0  1  0  0  0  0  0999 V2000
  -31.6750  -19.1050   21.6410 C   0  0  0  0  0  3  0  0  0  0  0  0
  -31.0540  -19.8000   19.4250 C   0  0  0  0  0  3  0  0  0  0  0  0
  -31.3020  -18.7230   20.3260 C   0  0  0  0  0  0  0  0  0  0  0  0
  -31.8180  -20.4620   21.9730 C   0  0  0  0  0  0  0  0  0  0  0  0
  -31.1800  -21.1450   19.8620 C   0  0  0  0  0  0  0  0  0  0  0  0
  -32.2980  -20.8910   23.3350 C   0  0  0  0  0  1  0  0  0  0  0  0
  -31.5810  -21.4610   21.1070 N   0  0  0  0  0  0  0  0  0  0  0  0
  -31.2770  -17.2070   19.9190 C   0  0  0  0  0  2  0  0  0  0  0  0
  -30.8490  -14.8080   20.0550 C   0  0  0  0  0  0  0  0  0  0  0  0
  -30.4990  -12.5710   19.0460 C   0  0  0  0  0  2  0  0  0  0  0  0
  -29.5040  -12.6220   17.8710 C   0  0  0  0  0  2  0  0  0  0  0  0
  -28.0580  -12.4740   18.3750 C   0  0  0  0  0  2  0  0  0  0  0  0
  -27.7480  -13.3580   19.6140 C   0  0  0  0  0  3  0  0  0  0  0  0
  -28.8750  -13.2330   20.6720 C   0  0  0  0  0  2  0  0  0  0  0  0
  -30.1180  -13.6410   19.9970 N   0  0  0  0  0  0  0  0  0  0  0  0
  -32.0340  -14.7620   19.7070 O   0  0  0  0  0  0  0  0  0  0  0  0
  -30.2910  -16.0850   20.1850 N   0  0  0  0  0  0  0  0  0  0  0  0
  -25.3910  -13.9400   20.4610 C   0  0  0  0  0  0  0  0  0  0  0  0
  -24.3440  -13.1670   20.8640 C   0  0  0  0  0  0  0  0  0  0  0  0
  -24.7980  -11.8150   20.7740 C   0  0  0  0  0  0  0  0  0  0  0  0
  -26.4250  -13.0690   20.1590 N   0  0  0  0  0  0  0  0  0  0  0  0
  -26.0720  -11.7810   20.3960 N   0  0  0  0  0  0  0  0  0  0  0  0
  -24.0760  -10.5540   20.9670 C   0  0  0  0  0  0  0  0  0  0  0  0
  -24.5250   -9.5740   21.8800 C   0  0  0  0  0  3  0  0  0  0  0  0
  -23.7970   -8.3770   22.0580 C   0  0  0  0  0  3  0  0  0  0  0  0
  -22.6080   -8.1540   21.3210 C   0  0  0  0  0  0  0  0  0  0  0  0
  -22.1810   -9.1220   20.3950 C   0  0  0  0  0  3  0  0  0  0  0  0
  -22.9100  -10.3090   20.2150 C   0  0  0  0  0  3  0  0  0  0  0  0
  -21.8510   -7.0110   21.4090 O   0  0  0  0  0  0  0  0  0  0  0  0
  -21.7780   -6.2890   22.5730 C   0  0  0  0  0  0  0  0  0  0  0  0
  -21.2590   -6.8440   23.7640 C   0  0  0  0  0  3  0  0  0  0  0  0
  -21.1370   -6.0440   24.9170 C   0  0  0  0  0  3  0  0  0  0  0  0
  -21.5260   -4.6910   24.8820 C   0  0  0  0  0  0  0  0  0  0  0  0
  -22.0390   -4.1360   23.6970 C   0  0  0  0  0  3  0  0  0  0  0  0
  -22.1620   -4.9330   22.5450 C   0  0  0  0  0  0  0  0  0  0  0  0
  -22.6380   -4.3890   21.3990 F   0  0  0  0  0  0  0  0  0  0  0  0
  -21.4000   -3.9200   25.9870 F   0  0  0  0  0  0  0  0  0  0  0  0
  -22.9670  -13.6480   21.2270 C   0  0  0  0  0  0  0  0  0  0  0  0
  -22.2940  -12.9510   22.1330 N   0  0  0  0  0  0  0  0  0  0  0  0
  -22.5030  -14.6810   20.7430 O   0  0  0  0  0  0  0  0  0  0  0  0
  -22.6920  -12.1240   22.5510 H   0  0  0  0  0  0  0  0  0  0  0  0
  -21.3700  -13.2480   22.4160 H   0  0  0  0  0  0  0  0  0  0  0  0
  -25.5410  -15.3090   20.3060 N   0  0  0  0  0  0  0  0  0  0  0  0
  -24.7750  -15.9610   20.4540 H   0  0  0  0  0  0  0  0  0  0  0  0
  -26.3710  -15.7440   19.9360 H   0  0  0  0  0  0  0  0  0  0  0  0
  -28.3270  -17.8240   20.7460 C   0  0  0  0  0  2  0  0  0  0  0  0
  -27.9280  -16.9480   19.5960 C   0  0  0  0  0  2  0  0  0  0  0  0
  -28.9250  -16.4200   20.6230 C   0  0  0  0  0  3  0  0  0  0  0  0
  -30.9420  -22.3610   18.9580 C   0  0  0  0  0  2  0  0  0  0  0  0
  -29.7250  -23.2520   19.3650 C   0  0  0  0  0  2  0  0  0  0  0  0
  -29.9820  -24.7090   19.8810 C   0  0  0  0  0  2  0  0  0  0  0  0
  -28.6910  -25.5640   19.7130 C   0  0  0  0  0  2  0  0  0  0  0  0
  -28.7010  -26.8760   20.3250 O   0  0  0  0  0  0  0  0  0  0  0  0
  -24.6380  -31.9590   23.3730 C   0  0  0  0  0  0  0  0  0  0  0  0
  -27.5070  -27.5950   20.3090 C   0  0  0  0  0  0  0  0  0  0  0  0
  -23.5270  -30.5440   21.6820 C   0  0  0  0  0  3  0  0  0  0  0  0
  -25.0680  -29.0620   20.2900 C   0  0  0  0  0  0  0  0  0  0  0  0
  -26.0540  -30.9510   21.5830 C   0  0  0  0  0  2  0  0  0  0  0  0
  -26.1920  -29.5870   20.9340 C   0  0  0  0  0  0  0  0  0  0  0  0
  -27.4090  -28.8560   20.9520 C   0  0  0  0  0  3  0  0  0  0  0  0
  -26.3600  -27.1130   19.6320 C   0  0  0  0  0  3  0  0  0  0  0  0
  -25.1500  -27.8250   19.6300 C   0  0  0  0  0  3  0  0  0  0  0  0
  -23.8060  -29.8930   20.3050 C   0  0  0  0  0  2  0  0  0  0  0  0
  -24.7570  -31.1660   22.2720 N   0  0  0  0  0  0  0  0  0  0  0  0
  -23.5280  -32.1980   23.8690 O   0  0  0  0  0  0  0  0  0  0  0  0
  -22.8690  -29.4930   22.6020 C   0  0  0  0  0  0  0  0  0  0  0  0
  -21.5530  -29.2870   22.4250 N   0  0  0  0  0  0  0  0  0  0  0  0
  -23.5410  -28.8690   23.4310 O   0  0  0  0  0  0  0  0  0  0  0  0
  -21.0770  -29.8450   21.7300 H   0  0  0  0  0  0  0  0  0  0  0  0
  -18.1770  -28.0630   22.8360 C   0  0  0  0  0  0  0  0  0  0  0  0
  -20.7280  -28.3220   23.1520 C   0  0  0  0  0  3  0  0  0  0  0  0
  -20.8460  -26.9100   22.5340 C   0  0  0  0  0  2  0  0  0  0  0  0
  -19.7580  -26.6120   21.4980 C   0  0  0  0  0  2  0  0  0  0  0  0
  -18.3670  -26.7330   22.1290 C   0  0  0  0  0  2  0  0  0  0  0  0
  -19.2850  -28.8190   23.3020 C   0  0  0  0  0  0  0  0  0  0  0  0
  -19.0510  -30.0650   23.9240 C   0  0  0  0  0  3  0  0  0  0  0  0
  -17.7410  -30.5540   24.0860 C   0  0  0  0  0  3  0  0  0  0  0  0
  -16.6470  -29.7960   23.6310 C   0  0  0  0  0  3  0  0  0  0  0  0
  -16.8650  -28.5520   23.0130 C   0  0  0  0  0  3  0  0  0  0  0  0
  -25.8790  -32.6200   24.0450 C   0  0  0  0  0  3  0  0  0  0  0  0
  -25.5450  -34.0260   24.3090 N   0  0  0  0  0  0  0  0  0  0  0  0
  -25.9000  -35.0520   23.5230 C   0  0  0  0  0  0  0  0  0  0  0  0
  -26.6120  -34.9160   22.5260 O   0  0  0  0  0  0  0  0  0  0  0  0
  -24.9180  -34.2070   25.0790 H   0  0  0  0  0  0  0  0  0  0  0  0
  -24.1710  -36.8090   23.0240 C   0  0  0  0  0  1  0  0  0  0  0  0
  -25.3810  -36.4520   23.9040 C   0  0  0  0  0  3  0  0  0  0  0  0
  -27.4580  -37.3920   24.8120 C   0  0  0  0  0  1  0  0  0  0  0  0
  -26.4110  -37.5100   23.7990 N   0  0  0  0  0  0  0  0  0  0  0  0
  -25.9950  -38.4330   23.8860 H   0  0  0  0  0  0  0  0  0  0  0  0
  -26.3280  -31.8920   25.3730 C   0  0  1  0  0  0  0  0  0  0  0  0
  -25.1670  -31.6470   26.3670 C   0  0  0  0  0  1  0  0  0  0  0  0
  -26.9610  -30.5200   25.0470 C   0  0  0  0  0  1  0  0  0  0  0  0
  -27.4190  -32.7240   26.0830 C   0  0  0  0  0  1  0  0  0  0  0  0
  1  4  1  0
  2  5  2  0
  2  3  1  0
  3  1  2  0
  4  6  1  0
  5  7  1  0
  7  4  2  0
  8 17  1  0
  8  3  1  0
  9 17  1  0
 10 15  1  0
 11 12  1  0
 11 10  1  0
 13 12  1  0
 13 21  1  0
 13 14  1  0
 15  9  1  0
 15 14  1  0
 16  9  2  0
 17 48  1  0
 18 19  2  0
 19 38  1  0
 20 19  1  0
 20 23  1  0
 21 22  1  0
 21 18  1  0
 22 20  2  0
 23 24  1  0
 24 25  2  0
 26 29  1  0
 26 25  1  0
 27 26  2  0
 28 27  1  0
 28 23  2  0
 29 30  1  0
 30 31  1  0
 31 32  2  0
 33 32  1  0
 33 37  1  0
 34 33  2  0
 35 30  2  0
 35 34  1  0
 36 35  1  0
 38 39  1  0
 39 42  1  0
 39 41  1  0
 40 38  2  0
 43 44  1  0
 43 18  1  0
 45 43  1  0
 47 48  1  0
 47 46  1  0
 48 46  1  0
 49 50  1  0
 49  5  1  0
 50 51  1  0
 52 51  1  0
 52 53  1  0
 54 65  2  0
 55 53  1  0
 55 60  1  0
 56 64  1  0
 56 66  1  0
 57 63  1  0
 57 59  1  0
 58 64  1  0
 59 60  2  0
 59 58  1  0
 61 55  2  0
 62 61  1  0
 62 57  2  0
 63 56  1  0
 64 54  1  0
 66 68  2  0
 67 66  1  0
 69 67  1  0
 70 79  2  0
 70 75  1  0
 71 67  1  0
 71 75  1  0
 72 71  1  0
 73 74  1  0
 73 72  1  0
 74 70  1  0
 75 76  2  0
 76 77  1  0
 78 77  2  0
 79 78  1  0
 80 54  1  0
 80 81  1  0
 80 90  1  0
 81 84  1  0
 82 86  1  0
 82 81  1  0
 83 82  2  0
 86 85  1  0
 88 89  1  0
 88 86  1  0
 88 87  1  0
 90 93  1  1
 90 91  1  0
 92 90  1  0
M  ISO  4   9 100  17 100  52 101  53 101
M  END
>  <TORSDO>  (52) 
F 22

>  <SCORE>  (52) 
-13.436

>  <name>  (52) 
51

>  <ligand_id>  (52) 
51

>  <original_smiles>  (52) 
[H]c1c([H])c([H])c2c(c1[H])C([H])([H])C([H])([H])C([H])([H])C2([H])N([H])C(=O)C1([H])N(C(=O)C([H])(N([H])C(=O)C([H])(N([H])C([H])([H])[H])C([H])([H])[H])C(C([H])([H])[H])(C([H])([H])[H])C([H])([H])[H])C([H])([H])c2c([H])c(OC([H])([H])C([H])([H])C([H])([H])C([H])([H])c3nc(C([H])([H])[H])c([H])c(C([H])([H])N(C(=O)N4C([H])([H])C([H])([H])C([H])([H])C([H])(n5nc(-c6c([H])c([H])c(Oc7c([H])c([H])c(F)c([H])c7F)c([H])c6[H])c(C(=O)N([H])[H])c5N([H])[H])C4([H])[H])C4([H])C([H])([H])C4([H])[H])c3[H])c([H])c([H])c2C1([H])[H]

>  <smiles>  (52) 
[H]c1c([H])c([H])c2c(c1[H])C([H])([H])C([H])([H])C([H])([H])C2([H])N([H])C(=O)C1([H])N(C(=O)C([H])(N([H])C(=O)C([H])(N([H])C([H])([H])[H])C([H])([H])[H])C(C([H])([H])[H])(C([H])([H])[H])C([H])([H])[H])C([H])([H])c2c([H])c(OC([H])([H])C([H])([H])C([H])([H])C([H])([H])c3nc(C([H])([H])[H])c([H])c(C([H])([H])N(C(=O)N4C([H])([H])C([H])([H])C([H])([H])C([H])(n5nc(-c6c([H])c([H])c(Oc7c([H])c([H])c(F)c([H])c7F)c([H])c6[H])c(C(=O)N([H])[H])c5N([H])[H])C4([H])[H])C4([H])C([H])([H])C4([H])[H])c3[H])c([H])c([H])c2C1([H])[H]

$$$$
52:0:0
     RDKit          3D

102110  0  0  1  0  0  0  0  0999 V2000
  -29.1690  -21.0810   20.1130 C   0  0  0  0  0  3  0  0  0  0  0  0
  -28.3890  -22.2400   19.8910 C   0  0  0  0  0  0  0  0  0  0  0  0
  -27.3480  -21.7530   19.0080 C   0  0  0  0  0  0  0  0  0  0  0  0
  -27.4970  -20.3810   18.8230 C   0  0  0  0  0  0  0  0  0  0  0  0
  -28.6310  -19.9020   19.5090 N   0  0  0  0  0  0  0  0  0  0  0  0
  -26.6210  -23.5770   17.3380 C   0  0  0  0  0  1  0  0  0  0  0  0
  -25.1160  -23.0190   19.3780 C   0  0  0  0  0  1  0  0  0  0  0  0
  -26.1880  -22.5410   18.3800 C   0  0  0  0  0  3  0  0  0  0  0  0
  -26.4510  -19.9070   16.5470 C   0  0  0  0  0  1  0  0  0  0  0  0
  -26.6030  -19.4310   18.0040 C   0  0  0  0  0  3  0  0  0  0  0  0
  -24.1500  -18.6720   17.6770 C   0  0  0  0  0  1  0  0  0  0  0  0
  -25.2610  -19.0160   18.6970 C   0  0  0  0  0  3  0  0  0  0  0  0
  -25.4900  -17.8870   19.7310 C   0  0  0  0  0  2  0  0  0  0  0  0
  -24.2390  -17.4670   20.3880 N   0  0  0  0  0  4  0  0  0  0  0  0
  -23.7790  -18.2510   20.8190 H   0  0  0  0  0  0  0  0  0  0  0  0
  -24.4350  -16.7880   21.1000 H   0  0  0  0  0  0  0  0  0  0  0  0
  -23.6060  -17.0500   19.7290 H   0  0  0  0  0  0  0  0  0  0  0  0
  -28.9960  -18.3850   19.4490 C   0  0  0  0  0  2  0  0  0  0  0  0
  -30.2450  -17.5210   20.0090 C   0  0  0  0  0  2  0  0  0  0  0  0
  -30.7890  -14.8780   19.7000 C   0  0  0  0  0  0  0  0  0  0  0  0
  -30.4620  -12.6420   18.6210 C   0  0  0  0  0  2  0  0  0  0  0  0
  -29.3990  -12.7760   17.5060 C   0  0  0  0  0  2  0  0  0  0  0  0
  -27.9760  -12.6260   18.0830 C   0  0  0  0  0  2  0  0  0  0  0  0
  -27.7600  -13.4630   19.3710 C   0  0  0  0  0  3  0  0  0  0  0  0
  -28.9270  -13.2910   20.3680 C   0  0  0  0  0  2  0  0  0  0  0  0
  -30.1560  -13.6550   19.6560 N   0  0  0  0  0  0  0  0  0  0  0  0
  -31.9420  -14.9880   19.2740 O   0  0  0  0  0  0  0  0  0  0  0  0
  -30.0150  -15.9890   20.0320 N   0  0  0  0  0  0  0  0  0  0  0  0
  -29.0910  -15.7280   20.3410 H   0  0  0  0  0  0  0  0  0  0  0  0
  -25.5220  -14.0910   20.4460 C   0  0  0  0  0  0  0  0  0  0  0  0
  -24.4550  -13.3450   20.8590 C   0  0  0  0  0  0  0  0  0  0  0  0
  -24.8160  -11.9810   20.6250 C   0  0  0  0  0  0  0  0  0  0  0  0
  -26.4670  -13.1910   19.9880 N   0  0  0  0  0  0  0  0  0  0  0  0
  -26.0570  -11.9070   20.1580 N   0  0  0  0  0  0  0  0  0  0  0  0
  -24.0300  -10.7510   20.7610 C   0  0  0  0  0  0  0  0  0  0  0  0
  -24.5060   -9.6530   21.5110 C   0  0  0  0  0  3  0  0  0  0  0  0
  -23.7240   -8.4860   21.6440 C   0  0  0  0  0  3  0  0  0  0  0  0
  -22.4500   -8.4120   21.0300 C   0  0  0  0  0  0  0  0  0  0  0  0
  -21.9940   -9.4980   20.2640 C   0  0  0  0  0  3  0  0  0  0  0  0
  -22.7750  -10.6560   20.1270 C   0  0  0  0  0  3  0  0  0  0  0  0
  -21.6300   -7.3110   21.0870 O   0  0  0  0  0  0  0  0  0  0  0  0
  -21.6780   -6.4330   22.1400 C   0  0  0  0  0  0  0  0  0  0  0  0
  -21.4730   -6.8530   23.4720 C   0  0  0  0  0  3  0  0  0  0  0  0
  -21.4610   -5.9050   24.5140 C   0  0  0  0  0  3  0  0  0  0  0  0
  -21.6440   -4.5380   24.2250 C   0  0  0  0  0  0  0  0  0  0  0  0
  -21.8440   -4.1200   22.8980 C   0  0  0  0  0  3  0  0  0  0  0  0
  -21.8580   -5.0640   21.8590 C   0  0  0  0  0  0  0  0  0  0  0  0
  -22.0290   -4.6530   20.5800 F   0  0  0  0  0  0  0  0  0  0  0  0
  -21.6230   -3.6260   25.2250 F   0  0  0  0  0  0  0  0  0  0  0  0
  -23.1340  -13.8670   21.3440 C   0  0  0  0  0  0  0  0  0  0  0  0
  -22.4630  -13.1260   22.2170 N   0  0  0  0  0  0  0  0  0  0  0  0
  -22.7130  -14.9660   20.9870 O   0  0  0  0  0  0  0  0  0  0  0  0
  -22.8200  -12.2350   22.5320 H   0  0  0  0  0  0  0  0  0  0  0  0
  -21.5760  -13.4500   22.5740 H   0  0  0  0  0  0  0  0  0  0  0  0
  -25.7550  -15.4600   20.3920 N   0  0  0  0  0  0  0  0  0  0  0  0
  -24.9620  -16.0780   20.5030 H   0  0  0  0  0  0  0  0  0  0  0  0
  -26.4900  -15.8450   19.8160 H   0  0  0  0  0  0  0  0  0  0  0  0
  -28.4390  -23.7290   20.5760 C   0  0  0  0  0  3  0  0  0  0  0  0
  -28.9080  -22.6120   22.8710 C   0  0  0  0  0  1  0  0  0  0  0  0
  -29.2820  -23.7180   21.8700 C   0  0  0  0  0  2  0  0  0  0  0  0
  -28.7330  -25.1310   19.7870 C   0  0  0  0  0  2  0  0  0  0  0  0
  -28.5870  -26.4970   20.4310 O   0  0  0  0  0  0  0  0  0  0  0  0
  -24.7440  -31.9730   23.2600 C   0  0  0  0  0  0  0  0  0  0  0  0
  -27.4500  -27.3380   20.3410 C   0  0  0  0  0  0  0  0  0  0  0  0
  -23.5760  -30.5090   21.6540 C   0  0  0  0  0  3  0  0  0  0  0  0
  -25.0620  -28.9420   20.2730 C   0  0  0  0  0  0  0  0  0  0  0  0
  -26.1160  -30.8580   21.4730 C   0  0  0  0  0  2  0  0  0  0  0  0
  -26.2240  -29.4600   20.8600 C   0  0  0  0  0  0  0  0  0  0  0  0
  -27.4190  -28.6710   20.8800 C   0  0  0  0  0  3  0  0  0  0  0  0
  -26.2600  -26.8850   19.7350 C   0  0  0  0  0  3  0  0  0  0  0  0
  -25.0860  -27.6630   19.6970 C   0  0  0  0  0  3  0  0  0  0  0  0
  -23.8150  -29.8020   20.2930 C   0  0  0  0  0  2  0  0  0  0  0  0
  -24.8320  -31.1370   22.1830 N   0  0  0  0  0  0  0  0  0  0  0  0
  -23.6520  -32.2390   23.7830 O   0  0  0  0  0  0  0  0  0  0  0  0
  -22.9290  -29.5050   22.6420 C   0  0  0  0  0  0  0  0  0  0  0  0
  -21.6090  -29.2860   22.5070 N   0  0  0  0  0  0  0  0  0  0  0  0
  -23.6100  -28.9260   23.4910 O   0  0  0  0  0  0  0  0  0  0  0  0
  -21.1150  -29.8030   21.7950 H   0  0  0  0  0  0  0  0  0  0  0  0
  -18.2690  -27.9760   22.9940 C   0  0  0  0  0  0  0  0  0  0  0  0
  -20.8110  -28.3440   23.2940 C   0  0  0  0  0  3  0  0  0  0  0  0
  -20.9810  -26.8990   22.7690 C   0  0  0  0  0  2  0  0  0  0  0  0
  -19.9030  -26.4880   21.7620 C   0  0  0  0  0  2  0  0  0  0  0  0
  -18.5120  -26.6040   22.3860 C   0  0  0  0  0  2  0  0  0  0  0  0
  -19.3500  -28.7970   23.4110 C   0  0  0  0  0  0  0  0  0  0  0  0
  -19.0720  -30.0700   23.9510 C   0  0  0  0  0  3  0  0  0  0  0  0
  -17.7470  -30.5270   24.0770 C   0  0  0  0  0  3  0  0  0  0  0  0
  -16.6800  -29.7060   23.6720 C   0  0  0  0  0  3  0  0  0  0  0  0
  -16.9420  -28.4320   23.1340 C   0  0  0  0  0  3  0  0  0  0  0  0
  -26.0080  -32.6510   23.8690 C   0  0  0  0  0  3  0  0  0  0  0  0
  -26.5490  -31.9150   25.1580 C   0  0  1  0  0  0  0  0  0  0  0  0
  -25.4640  -31.6560   26.2290 C   0  0  0  0  0  1  0  0  0  0  0  0
  -27.1770  -30.5520   24.7880 C   0  0  0  0  0  1  0  0  0  0  0  0
  -27.6730  -32.7550   25.8060 C   0  0  0  0  0  1  0  0  0  0  0  0
  -25.6600  -34.0460   24.1800 N   0  0  0  0  0  0  0  0  0  0  0  0
  -25.9430  -35.0970   23.3970 C   0  0  0  0  0  0  0  0  0  0  0  0
  -26.5940  -34.9940   22.3540 O   0  0  0  0  0  0  0  0  0  0  0  0
  -25.0910  -34.1950   25.0000 H   0  0  0  0  0  0  0  0  0  0  0  0
  -24.1460  -36.8220   23.0600 C   0  0  0  0  0  1  0  0  0  0  0  0
  -25.4230  -36.4790   23.8430 C   0  0  0  0  0  3  0  0  0  0  0  0
  -27.5510  -37.4520   24.5900 C   0  0  0  0  0  1  0  0  0  0  0  0
  -26.4160  -37.5640   23.6770 N   0  0  0  0  0  0  0  0  0  0  0  0
  -25.9840  -38.4750   23.8170 H   0  0  0  0  0  0  0  0  0  0  0  0
  2  1  2  0
  2 58  1  0
  3  2  1  0
  4  3  2  0
  4  5  1  0
  5  1  1  0
  6  8  1  0
  8  3  1  0
  8  7  1  0
 10  9  1  0
 10 12  1  0
 10  4  1  0
 12 11  1  0
 12 13  1  0
 13 14  1  0
 14 15  1  0
 14 16  1  0
 17 14  1  0
 18  5  1  0
 18 19  1  0
 19 28  1  0
 20 28  1  0
 21 26  1  0
 22 23  1  0
 22 21  1  0
 24 23  1  0
 24 33  1  0
 24 25  1  0
 26 20  1  0
 26 25  1  0
 27 20  2  0
 28 29  1  0
 30 31  2  0
 31 50  1  0
 32 35  1  0
 32 31  1  0
 33 34  1  0
 33 30  1  0
 34 32  2  0
 35 36  1  0
 36 37  2  0
 38 41  1  0
 38 37  1  0
 39 38  2  0
 40 39  1  0
 40 35  2  0
 41 42  1  0
 42 43  1  0
 43 44  2  0
 45 44  1  0
 45 49  1  0
 46 45  2  0
 47 42  2  0
 47 46  1  0
 48 47  1  0
 50 51  1  0
 51 53  1  0
 51 54  1  0
 52 50  2  0
 55 30  1  0
 55 56  1  0
 57 55  1  0
 58 61  1  0
 58 60  1  0
 60 59  1  0
 61 62  1  0
 63 74  2  0
 64 62  1  0
 64 69  1  0
 65 73  1  0
 65 75  1  0
 66 72  1  0
 66 68  1  0
 67 73  1  0
 68 69  2  0
 68 67  1  0
 70 64  2  0
 71 70  1  0
 71 66  2  0
 72 65  1  0
 73 63  1  0
 75 77  2  0
 76 75  1  0
 78 76  1  0
 79 88  2  0
 79 84  1  0
 80 76  1  0
 80 84  1  0
 81 80  1  0
 82 83  1  0
 82 81  1  0
 83 79  1  0
 84 85  2  0
 85 86  1  0
 87 86  2  0
 88 87  1  0
 89 63  1  0
 89 94  1  0
 89 90  1  0
 90 93  1  1
 90 91  1  0
 92 90  1  0
 94 97  1  0
 95 99  1  0
 95 94  1  0
 96 95  2  0
 99 98  1  0
101102  1  0
101 99  1  0
101100  1  0
M  ISO  4  20 100  28 100  61 101  62 101
M  END
>  <TORSDO>  (53) 
F 26

>  <SCORE>  (53) 
-7.283

>  <name>  (53) 
52

>  <ligand_id>  (53) 
52

>  <original_smiles>  (53) 
[H]c1c([H])c([H])c2c(c1[H])C([H])([H])C([H])([H])C([H])([H])C2([H])N([H])C(=O)C1([H])N(C(=O)C([H])(N([H])C(=O)C([H])(N([H])C([H])([H])[H])C([H])([H])[H])C(C([H])([H])[H])(C([H])([H])[H])C([H])([H])[H])C([H])([H])c2c([H])c(OC([H])([H])C([H])(c3c(C([H])(C([H])([H])[H])C([H])([H])[H])c(C([H])(C([H])([H])[H])C([H])(C([H])([H])[H])C([H])([H])[N+]([H])([H])[H])n(C([H])([H])C([H])([H])N([H])C(=O)N4C([H])([H])C([H])([H])C([H])([H])C([H])(n5nc(-c6c([H])c([H])c(Oc7c([H])c([H])c(F)c([H])c7F)c([H])c6[H])c(C(=O)N([H])[H])c5N([H])[H])C4([H])[H])c3[H])C([H])([H])C([H])([H])[H])c([H])c([H])c2C1([H])[H]

>  <smiles>  (53) 
[H]c1c([H])c([H])c2c(c1[H])C([H])([H])C([H])([H])C([H])([H])C2([H])N([H])C(=O)C1([H])N(C(=O)C([H])(N([H])C(=O)C([H])(N([H])C([H])([H])[H])C([H])([H])[H])C(C([H])([H])[H])(C([H])([H])[H])C([H])([H])[H])C([H])([H])c2c([H])c(OC([H])([H])C([H])(c3c(C([H])(C([H])([H])[H])C([H])([H])[H])c(C([H])(C([H])([H])[H])C([H])(C([H])([H])[H])C([H])([H])[N+]([H])([H])[H])n(C([H])([H])C([H])([H])N([H])C(=O)N4C([H])([H])C([H])([H])C([H])([H])C([H])(n5nc(-c6c([H])c([H])c(Oc7c([H])c([H])c(F)c([H])c7F)c([H])c6[H])c(C(=O)N([H])[H])c5N([H])[H])C4([H])[H])c3[H])C([H])([H])C([H])([H])[H])c([H])c([H])c2C1([H])[H]

$$$$
53:0:0
     RDKit          3D

 94102  0  0  1  0  0  0  0  0999 V2000
  -32.0290  -20.5430   19.4060 C   0  0  0  0  0  3  0  0  0  0  0  0
  -31.0640  -21.5240   19.6580 C   0  0  0  0  0  3  0  0  0  0  0  0
  -31.8650  -19.1860   19.7930 C   0  0  0  0  0  0  0  0  0  0  0  0
  -29.8930  -21.1850   20.3390 C   0  0  0  0  0  0  0  0  0  0  0  0
  -30.6150  -18.8350   20.4260 C   0  0  0  0  0  0  0  0  0  0  0  0
  -29.6870  -19.8520   20.6850 N   0  0  0  0  0  0  0  0  0  0  0  0
  -34.3810  -18.9420   19.0890 C   0  0  0  0  0  1  0  0  0  0  0  0
  -32.7370  -17.2800   18.3530 C   0  0  0  0  0  1  0  0  0  0  0  0
  -33.4930  -17.4450   20.7880 C   0  0  0  0  0  1  0  0  0  0  0  0
  -33.0670  -18.2230   19.5220 C   0  0  2  0  0  0  0  0  0  0  0  0
  -28.8950  -22.3420   20.7870 C   0  0  0  0  0  3  0  0  0  0  0  0
  -29.1040  -23.8920   20.3080 C   0  0  0  0  0  3  0  0  0  0  0  0
  -28.3760  -25.1300   22.4350 C   0  0  0  0  0  1  0  0  0  0  0  0
  -28.2030  -25.1010   20.9100 C   0  0  0  0  0  3  0  0  0  0  0  0
  -28.4150  -26.5300   20.4670 O   0  0  0  0  0  0  0  0  0  0  0  0
  -24.5800  -31.9760   23.3980 C   0  0  0  0  0  0  0  0  0  0  0  0
  -27.3080  -27.4120   20.4100 C   0  0  0  0  0  0  0  0  0  0  0  0
  -23.4370  -30.5780   21.7160 C   0  0  0  0  0  3  0  0  0  0  0  0
  -24.9400  -29.0400   20.3240 C   0  0  0  0  0  0  0  0  0  0  0  0
  -25.9840  -30.9060   21.6100 C   0  0  0  0  0  2  0  0  0  0  0  0
  -26.0900  -29.5280   20.9560 C   0  0  0  0  0  0  0  0  0  0  0  0
  -27.2800  -28.7310   20.9790 C   0  0  0  0  0  3  0  0  0  0  0  0
  -26.1380  -26.9950   19.7410 C   0  0  0  0  0  3  0  0  0  0  0  0
  -24.9690  -27.7830   19.7020 C   0  0  0  0  0  3  0  0  0  0  0  0
  -23.6980  -29.9120   20.3390 C   0  0  0  0  0  2  0  0  0  0  0  0
  -24.6840  -31.1750   22.2950 N   0  0  0  0  0  0  0  0  0  0  0  0
  -23.4810  -32.2410   23.9050 O   0  0  0  0  0  0  0  0  0  0  0  0
  -22.7550  -29.5510   22.6540 C   0  0  0  0  0  0  0  0  0  0  0  0
  -21.4340  -29.3610   22.4900 N   0  0  0  0  0  0  0  0  0  0  0  0
  -23.4150  -28.9260   23.4880 O   0  0  0  0  0  0  0  0  0  0  0  0
  -20.9620  -29.9180   21.7910 H   0  0  0  0  0  0  0  0  0  0  0  0
  -18.0520  -28.1250   22.8910 C   0  0  0  0  0  0  0  0  0  0  0  0
  -20.6010  -28.4120   23.2340 C   0  0  0  0  0  3  0  0  0  0  0  0
  -20.7330  -26.9840   22.6580 C   0  0  0  0  0  2  0  0  0  0  0  0
  -19.6620  -26.6530   21.6120 C   0  0  0  0  0  2  0  0  0  0  0  0
  -18.2620  -26.7810   22.2160 C   0  0  0  0  0  2  0  0  0  0  0  0
  -19.1510  -28.8980   23.3540 C   0  0  0  0  0  0  0  0  0  0  0  0
  -18.9010  -30.1540   23.9440 C   0  0  0  0  0  3  0  0  0  0  0  0
  -17.5870  -30.6380   24.0810 C   0  0  0  0  0  3  0  0  0  0  0  0
  -16.5040  -29.8640   23.6320 C   0  0  0  0  0  3  0  0  0  0  0  0
  -16.7360  -28.6100   23.0400 C   0  0  0  0  0  3  0  0  0  0  0  0
  -25.8380  -32.6150   24.0630 C   0  0  0  0  0  3  0  0  0  0  0  0
  -25.5160  -34.0180   24.3680 N   0  0  0  0  0  0  0  0  0  0  0  0
  -25.8760  -35.0660   23.6150 C   0  0  0  0  0  0  0  0  0  0  0  0
  -26.5840  -34.9560   22.6100 O   0  0  0  0  0  0  0  0  0  0  0  0
  -24.8940  -34.1760   25.1470 H   0  0  0  0  0  0  0  0  0  0  0  0
  -24.1770  -36.8650   23.1670 C   0  0  0  0  0  1  0  0  0  0  0  0
  -25.3740  -36.4580   24.0420 C   0  0  0  0  0  3  0  0  0  0  0  0
  -27.4670  -37.3410   24.9780 C   0  0  0  0  0  1  0  0  0  0  0  0
  -26.4150  -37.5070   23.9780 N   0  0  0  0  0  0  0  0  0  0  0  0
  -26.0060  -38.4320   24.0900 H   0  0  0  0  0  0  0  0  0  0  0  0
  -26.3010  -31.8580   25.3670 C   0  0  1  0  0  0  0  0  0  0  0  0
  -25.1630  -31.6270   26.3870 C   0  0  0  0  0  1  0  0  0  0  0  0
  -26.9100  -30.4820   25.0140 C   0  0  0  0  0  1  0  0  0  0  0  0
  -27.4160  -32.6660   26.0690 C   0  0  0  0  0  1  0  0  0  0  0  0
  -30.3180  -17.4060   21.0990 C   0  0  0  0  0  2  0  0  0  0  0  0
  -30.6510  -14.8820   20.2270 C   0  0  0  0  0  0  0  0  0  0  0  0
  -30.3470  -12.6700   19.0980 C   0  0  0  0  0  2  0  0  0  0  0  0
  -29.3590  -12.7370   17.9140 C   0  0  0  0  0  2  0  0  0  0  0  0
  -27.9040  -12.5510   18.3910 C   0  0  0  0  0  2  0  0  0  0  0  0
  -27.5650  -13.4060   19.6420 C   0  0  0  0  0  3  0  0  0  0  0  0
  -28.6720  -13.3400   20.7140 C   0  0  0  0  0  2  0  0  0  0  0  0
  -29.9390  -13.7140   20.0640 N   0  0  0  0  0  0  0  0  0  0  0  0
  -31.8570  -14.8720   20.0070 O   0  0  0  0  0  0  0  0  0  0  0  0
  -29.9660  -16.0730   20.4210 N   0  0  0  0  0  0  0  0  0  0  0  0
  -28.9720  -15.9790   20.2950 H   0  0  0  0  0  0  0  0  0  0  0  0
  -25.2000  -13.9410   20.4790 C   0  0  0  0  0  0  0  0  0  0  0  0
  -24.1600  -13.1500   20.8710 C   0  0  0  0  0  0  0  0  0  0  0  0
  -24.6410  -11.8050   20.8050 C   0  0  0  0  0  0  0  0  0  0  0  0
  -26.2480  -13.0870   20.1860 N   0  0  0  0  0  0  0  0  0  0  0  0
  -25.9180  -11.7930   20.4420 N   0  0  0  0  0  0  0  0  0  0  0  0
  -23.9380  -10.5300   20.9970 C   0  0  0  0  0  0  0  0  0  0  0  0
  -24.3940   -9.5670   21.9230 C   0  0  0  0  0  3  0  0  0  0  0  0
  -23.6850   -8.3590   22.1070 C   0  0  0  0  0  3  0  0  0  0  0  0
  -22.5060   -8.1070   21.3660 C   0  0  0  0  0  0  0  0  0  0  0  0
  -22.0710   -9.0590   20.4260 C   0  0  0  0  0  3  0  0  0  0  0  0
  -22.7810  -10.2570   20.2400 C   0  0  0  0  0  3  0  0  0  0  0  0
  -21.7710   -6.9510   21.4560 O   0  0  0  0  0  0  0  0  0  0  0  0
  -21.7300   -6.2130   22.6130 C   0  0  0  0  0  0  0  0  0  0  0  0
  -21.2690   -6.7610   23.8310 C   0  0  0  0  0  3  0  0  0  0  0  0
  -21.1770   -5.9480   24.9770 C   0  0  0  0  0  3  0  0  0  0  0  0
  -21.5360   -4.5890   24.9060 C   0  0  0  0  0  0  0  0  0  0  0  0
  -21.9910   -4.0400   23.6940 C   0  0  0  0  0  3  0  0  0  0  0  0
  -22.0840   -4.8520   22.5500 C   0  0  0  0  0  0  0  0  0  0  0  0
  -22.5040   -4.3140   21.3790 F   0  0  0  0  0  0  0  0  0  0  0  0
  -21.4400   -3.8040   26.0080 F   0  0  0  0  0  0  0  0  0  0  0  0
  -22.7650  -13.6030   21.1970 C   0  0  0  0  0  0  0  0  0  0  0  0
  -22.0730  -12.8810   22.0690 N   0  0  0  0  0  0  0  0  0  0  0  0
  -22.3040  -14.6370   20.7140 O   0  0  0  0  0  0  0  0  0  0  0  0
  -22.4610  -12.0470   22.4870 H   0  0  0  0  0  0  0  0  0  0  0  0
  -21.1380  -13.1670   22.3220 H   0  0  0  0  0  0  0  0  0  0  0  0
  -25.3300  -15.3190   20.3240 N   0  0  0  0  0  0  0  0  0  0  0  0
  -24.5430  -15.9420   20.4620 H   0  0  0  0  0  0  0  0  0  0  0  0
  -26.1420  -15.7950   19.9530 H   0  0  0  0  0  0  0  0  0  0  0  0
  1  2  2  0
  1  3  1  0
  2  4  1  0
  3  5  2  0
  4  6  2  0
  4 11  1  0
  5  6  1  0
  5 56  1  0
 10  7  1  6
  8 10  1  0
 10  3  1  0
 10  9  1  0
 12 11  2  0
 12 14  1  0
 14 13  1  0
 15 14  1  0
 16 27  2  0
 17 15  1  0
 17 22  1  0
 18 26  1  0
 18 28  1  0
 19 25  1  0
 19 21  1  0
 20 26  1  0
 21 22  2  0
 21 20  1  0
 23 17  2  0
 24 23  1  0
 24 19  2  0
 25 18  1  0
 26 16  1  0
 28 30  2  0
 29 28  1  0
 31 29  1  0
 32 41  2  0
 32 37  1  0
 33 29  1  0
 33 37  1  0
 34 33  1  0
 35 36  1  0
 35 34  1  0
 36 32  1  0
 37 38  2  0
 38 39  1  0
 40 39  2  0
 41 40  1  0
 42 16  1  0
 42 43  1  0
 42 52  1  0
 43 46  1  0
 44 48  1  0
 44 43  1  0
 45 44  2  0
 48 47  1  0
 50 48  1  0
 50 51  1  0
 50 49  1  0
 52 55  1  1
 52 53  1  0
 54 52  1  0
 57 65  1  0
 58 63  1  0
 59 60  1  0
 59 58  1  0
 61 60  1  0
 61 70  1  0
 61 62  1  0
 63 57  1  0
 63 62  1  0
 64 57  2  0
 65 56  1  0
 66 65  1  0
 67 68  2  0
 68 87  1  0
 69 68  1  0
 69 72  1  0
 70 71  1  0
 70 67  1  0
 71 69  2  0
 72 73  1  0
 73 74  2  0
 75 78  1  0
 75 74  1  0
 76 75  2  0
 77 76  1  0
 77 72  2  0
 78 79  1  0
 79 80  1  0
 80 81  2  0
 82 81  1  0
 82 86  1  0
 83 82  2  0
 84 79  2  0
 84 83  1  0
 85 84  1  0
 87 88  1  0
 88 91  1  0
 88 90  1  0
 89 87  2  0
 92 93  1  0
 92 67  1  0
 94 92  1  0
M  ISO  4  14 101  15 101  57 100  65 100
M  END
>  <TORSDO>  (54) 
F 21

>  <SCORE>  (54) 
-12.683

>  <name>  (54) 
53

>  <ligand_id>  (54) 
53

>  <original_smiles>  (54) 
[H]c1c(C([H])([H])C([H])([H])C([H])(Oc2c([H])c([H])c3c(c2[H])C([H])([H])N(C(=O)C([H])(N([H])C(=O)C([H])(N([H])C([H])([H])[H])C([H])([H])[H])C(C([H])([H])[H])(C([H])([H])[H])C([H])([H])[H])C([H])(C(=O)N([H])C2([H])c4c([H])c([H])c([H])c([H])c4C([H])([H])C([H])([H])C2([H])[H])C3([H])[H])C([H])([H])[H])nc(C([H])([H])N([H])C(=O)N2C([H])([H])C([H])([H])C([H])([H])C([H])(n3nc(-c4c([H])c([H])c(Oc5c([H])c([H])c(F)c([H])c5F)c([H])c4[H])c(C(=O)N([H])[H])c3N([H])[H])C2([H])[H])c(C(C([H])([H])[H])(C([H])([H])[H])C([H])([H])[H])c1[H]

>  <smiles>  (54) 
[H]c1c(C([H])([H])C([H])([H])C([H])(Oc2c([H])c([H])c3c(c2[H])C([H])([H])N(C(=O)C([H])(N([H])C(=O)C([H])(N([H])C([H])([H])[H])C([H])([H])[H])C(C([H])([H])[H])(C([H])([H])[H])C([H])([H])[H])C([H])(C(=O)N([H])C2([H])c4c([H])c([H])c([H])c([H])c4C([H])([H])C([H])([H])C2([H])[H])C3([H])[H])C([H])([H])[H])nc(C([H])([H])N([H])C(=O)N2C([H])([H])C([H])([H])C([H])([H])C([H])(n3nc(-c4c([H])c([H])c(Oc5c([H])c([H])c(F)c([H])c5F)c([H])c4[H])c(C(=O)N([H])[H])c3N([H])[H])C2([H])[H])c(C(C([H])([H])[H])(C([H])([H])[H])C([H])([H])[H])c1[H]

$$$$
54:0:0
     RDKit          3D

 97105  0  0  1  0  0  0  0  0999 V2000
  -27.6440  -21.5410   19.9070 C   0  0  0  0  0  3  0  0  0  0  0  0
  -29.1880  -23.1190   20.8920 C   0  0  0  0  0  3  0  0  0  0  0  0
  -28.8710  -21.7530   20.5810 C   0  0  0  0  0  0  0  0  0  0  0  0
  -26.8030  -22.6300   19.5820 C   0  0  0  0  0  3  0  0  0  0  0  0
  -28.3100  -24.1980   20.5460 C   0  0  0  0  0  0  0  0  0  0  0  0
  -25.4630  -22.4260   18.9050 C   0  0  0  0  0  1  0  0  0  0  0  0
  -27.1650  -23.8910   19.9060 N   0  0  0  0  0  0  0  0  0  0  0  0
  -26.5260  -24.6550   19.6890 H   0  0  0  0  0  0  0  0  0  0  0  0
  -30.1630  -20.7890   22.3640 C   0  0  0  0  0  1  0  0  0  0  0  0
  -29.7100  -20.6530   20.9760 N   0  0  0  0  0  0  0  0  0  0  0  0
  -29.4300  -19.2470   20.5210 C   0  0  0  0  0  2  0  0  0  0  0  0
  -30.6720  -18.2720   20.3630 C   0  0  0  0  0  3  0  0  0  0  0  0
  -31.9000  -19.0850   20.4240 N   0  0  0  0  0  4  0  0  0  0  0  0
  -32.7180  -18.5420   20.2160 H   0  0  0  0  0  0  0  0  0  0  0  0
  -31.9980  -19.5010   21.3320 H   0  0  0  0  0  0  0  0  0  0  0  0
  -31.8260  -19.8320   19.7550 H   0  0  0  0  0  0  0  0  0  0  0  0
  -30.7780  -17.0500   21.3610 C   0  0  0  0  0  2  0  0  0  0  0  0
  -30.8420  -14.7020   20.4080 C   0  0  0  0  0  0  0  0  0  0  0  0
  -30.5600  -12.5170   19.2750 C   0  0  0  0  0  2  0  0  0  0  0  0
  -29.6260  -12.6730   18.0610 C   0  0  0  0  0  2  0  0  0  0  0  0
  -28.1490  -12.5270   18.4850 C   0  0  0  0  0  2  0  0  0  0  0  0
  -27.7950  -13.3810   19.7320 C   0  0  0  0  0  3  0  0  0  0  0  0
  -28.8490  -13.2080   20.8490 C   0  0  0  0  0  2  0  0  0  0  0  0
  -30.1640  -13.5250   20.2740 N   0  0  0  0  0  0  0  0  0  0  0  0
  -31.9770  -14.8600   19.9540 O   0  0  0  0  0  0  0  0  0  0  0  0
  -30.1750  -15.7440   20.9670 N   0  0  0  0  0  0  0  0  0  0  0  0
  -29.2330  -15.5610   21.2790 H   0  0  0  0  0  0  0  0  0  0  0  0
  -25.3960  -13.9810   20.4270 C   0  0  0  0  0  0  0  0  0  0  0  0
  -24.3270  -13.2070   20.7920 C   0  0  0  0  0  0  0  0  0  0  0  0
  -24.7900  -11.8570   20.7660 C   0  0  0  0  0  0  0  0  0  0  0  0
  -26.4430  -13.1010   20.2050 N   0  0  0  0  0  0  0  0  0  0  0  0
  -26.0830  -11.8180   20.4680 N   0  0  0  0  0  0  0  0  0  0  0  0
  -24.0610  -10.5960   20.9540 C   0  0  0  0  0  0  0  0  0  0  0  0
  -24.4640   -9.6470   21.9200 C   0  0  0  0  0  3  0  0  0  0  0  0
  -23.7370   -8.4490   22.0930 C   0  0  0  0  0  3  0  0  0  0  0  0
  -22.5920   -8.1920   21.3010 C   0  0  0  0  0  0  0  0  0  0  0  0
  -22.2090   -9.1290   20.3250 C   0  0  0  0  0  3  0  0  0  0  0  0
  -22.9370  -10.3180   20.1480 C   0  0  0  0  0  3  0  0  0  0  0  0
  -21.8390   -7.0460   21.3830 O   0  0  0  0  0  0  0  0  0  0  0  0
  -21.7170   -6.3470   22.5580 C   0  0  0  0  0  0  0  0  0  0  0  0
  -21.1700   -6.9330   23.7210 C   0  0  0  0  0  3  0  0  0  0  0  0
  -20.9970   -6.1580   24.8850 C   0  0  0  0  0  3  0  0  0  0  0  0
  -21.3640   -4.7990   24.8880 C   0  0  0  0  0  0  0  0  0  0  0  0
  -21.9100   -4.2140   23.7310 C   0  0  0  0  0  3  0  0  0  0  0  0
  -22.0810   -4.9860   22.5690 C   0  0  0  0  0  0  0  0  0  0  0  0
  -22.5830   -4.4100   21.4490 F   0  0  0  0  0  0  0  0  0  0  0  0
  -21.1930   -4.0540   26.0040 F   0  0  0  0  0  0  0  0  0  0  0  0
  -22.9280  -13.6850   21.0550 C   0  0  0  0  0  0  0  0  0  0  0  0
  -22.1900  -12.9870   21.9110 N   0  0  0  0  0  0  0  0  0  0  0  0
  -22.4950  -14.7150   20.5360 O   0  0  0  0  0  0  0  0  0  0  0  0
  -22.5480  -12.1540   22.3530 H   0  0  0  0  0  0  0  0  0  0  0  0
  -21.2520  -13.2890   22.1310 H   0  0  0  0  0  0  0  0  0  0  0  0
  -25.5570  -15.3520   20.2470 N   0  0  0  0  0  0  0  0  0  0  0  0
  -24.7860  -16.0020   20.3640 H   0  0  0  0  0  0  0  0  0  0  0  0
  -26.3970  -15.7930   19.8950 H   0  0  0  0  0  0  0  0  0  0  0  0
  -28.5230  -25.6760   20.9840 C   0  0  0  0  0  2  0  0  0  0  0  0
  -28.3430  -26.7310   19.9920 O   0  0  0  0  0  0  0  0  0  0  0  0
  -24.5720  -31.9510   23.2080 C   0  0  0  0  0  0  0  0  0  0  0  0
  -27.1970  -27.5090   20.0630 C   0  0  0  0  0  0  0  0  0  0  0  0
  -23.3600  -30.5720   21.5510 C   0  0  0  0  0  3  0  0  0  0  0  0
  -24.8120  -29.0540   20.0970 C   0  0  0  0  0  0  0  0  0  0  0  0
  -25.8900  -30.9240   21.3520 C   0  0  0  0  0  2  0  0  0  0  0  0
  -25.9740  -29.5560   20.6960 C   0  0  0  0  0  0  0  0  0  0  0  0
  -27.1710  -28.7910   20.6810 C   0  0  0  0  0  3  0  0  0  0  0  0
  -26.0240  -27.0490   19.4310 C   0  0  0  0  0  3  0  0  0  0  0  0
  -24.8340  -27.8020   19.4600 C   0  0  0  0  0  3  0  0  0  0  0  0
  -23.5680  -29.9130   20.1620 C   0  0  0  0  0  2  0  0  0  0  0  0
  -24.6260  -31.1640   22.0940 N   0  0  0  0  0  0  0  0  0  0  0  0
  -23.4910  -32.2130   23.7550 O   0  0  0  0  0  0  0  0  0  0  0  0
  -22.7120  -29.5370   22.4990 C   0  0  0  0  0  0  0  0  0  0  0  0
  -21.3870  -29.3580   22.3850 N   0  0  0  0  0  0  0  0  0  0  0  0
  -23.4030  -28.8950   23.2960 O   0  0  0  0  0  0  0  0  0  0  0  0
  -20.8890  -29.9320   21.7200 H   0  0  0  0  0  0  0  0  0  0  0  0
  -18.0210  -28.1560   22.9030 C   0  0  0  0  0  0  0  0  0  0  0  0
  -20.5810  -28.4050   23.1470 C   0  0  0  0  0  3  0  0  0  0  0  0
  -20.6740  -26.9860   22.5380 C   0  0  0  0  0  2  0  0  0  0  0  0
  -19.5600  -26.6890   21.5290 C   0  0  0  0  0  2  0  0  0  0  0  0
  -18.1870  -26.8210   22.1950 C   0  0  0  0  0  2  0  0  0  0  0  0
  -19.1460  -28.9060   23.3360 C   0  0  0  0  0  0  0  0  0  0  0  0
  -18.9360  -30.1580   23.9540 C   0  0  0  0  0  3  0  0  0  0  0  0
  -17.6360  -30.6610   24.1440 C   0  0  0  0  0  3  0  0  0  0  0  0
  -16.5250  -29.9060   23.7300 C   0  0  0  0  0  3  0  0  0  0  0  0
  -16.7180  -28.6550   23.1150 C   0  0  0  0  0  3  0  0  0  0  0  0
  -25.8590  -32.5780   23.8280 C   0  0  0  0  0  3  0  0  0  0  0  0
  -25.5530  -33.9750   24.1680 N   0  0  0  0  0  0  0  0  0  0  0  0
  -25.8880  -35.0320   23.4160 C   0  0  0  0  0  0  0  0  0  0  0  0
  -26.5570  -34.9330   22.3860 O   0  0  0  0  0  0  0  0  0  0  0  0
  -24.9660  -34.1260   24.9740 H   0  0  0  0  0  0  0  0  0  0  0  0
  -24.1780  -36.8400   23.0530 C   0  0  0  0  0  1  0  0  0  0  0  0
  -25.4020  -36.4180   23.8820 C   0  0  0  0  0  3  0  0  0  0  0  0
  -27.5210  -37.2830   24.7730 C   0  0  0  0  0  1  0  0  0  0  0  0
  -26.4430  -37.4650   23.8030 N   0  0  0  0  0  0  0  0  0  0  0  0
  -26.0380  -38.3860   23.9480 H   0  0  0  0  0  0  0  0  0  0  0  0
  -26.3810  -31.7980   25.0960 C   0  0  1  0  0  0  0  0  0  0  0  0
  -25.2910  -31.5510   26.1650 C   0  0  0  0  0  1  0  0  0  0  0  0
  -26.9650  -30.4220   24.6930 C   0  0  0  0  0  1  0  0  0  0  0  0
  -27.5300  -32.5890   25.7640 C   0  0  0  0  0  1  0  0  0  0  0  0
  1  3  2  0
  3  2  1  0
  3 10  1  0
  4  6  1  0
  4  7  1  0
  4  1  1  0
  5  2  2  0
  5 56  1  0
  7  5  1  0
  8  7  1  0
 10  9  1  0
 11 10  1  0
 12 13  1  0
 12 11  1  0
 12 17  1  0
 13 15  1  0
 14 13  1  0
 16 13  1  0
 18 26  1  0
 19 24  1  0
 20 21  1  0
 20 19  1  0
 22 21  1  0
 22 31  1  0
 22 23  1  0
 24 18  1  0
 24 23  1  0
 25 18  2  0
 26 27  1  0
 26 17  1  0
 28 29  2  0
 29 48  1  0
 30 29  1  0
 30 33  1  0
 31 28  1  0
 31 32  1  0
 32 30  2  0
 33 34  1  0
 34 35  2  0
 36 39  1  0
 36 35  1  0
 37 36  2  0
 38 37  1  0
 38 33  2  0
 39 40  1  0
 40 45  2  0
 40 41  1  0
 41 42  2  0
 42 43  1  0
 43 47  1  0
 44 43  2  0
 45 44  1  0
 46 45  1  0
 48 49  1  0
 49 52  1  0
 49 51  1  0
 50 48  2  0
 53 54  1  0
 53 28  1  0
 55 53  1  0
 57 59  1  0
 57 56  1  0
 58 69  2  0
 59 64  1  0
 60 68  1  0
 60 70  1  0
 61 67  1  0
 61 63  1  0
 62 68  1  0
 63 62  1  0
 64 63  2  0
 65 66  1  0
 65 59  2  0
 66 61  2  0
 67 60  1  0
 68 58  1  0
 70 72  2  0
 71 70  1  0
 73 71  1  0
 74 83  2  0
 74 79  1  0
 75 71  1  0
 75 79  1  0
 76 75  1  0
 77 78  1  0
 77 76  1  0
 78 74  1  0
 79 80  2  0
 80 81  1  0
 82 81  2  0
 83 82  1  0
 84 58  1  0
 84 85  1  0
 84 94  1  0
 85 88  1  0
 86 90  1  0
 86 85  1  0
 87 86  2  0
 90 89  1  0
 92 90  1  0
 92 93  1  0
 92 91  1  0
 94 97  1  1
 94 95  1  0
 96 94  1  0
M  ISO  4  18 100  26 100  56 101  57 101
M  END
>  <TORSDO>  (55) 
F 22

>  <SCORE>  (55) 
-13.427

>  <name>  (55) 
54

>  <ligand_id>  (55) 
54

>  <original_smiles>  (55) 
[H]c1c([H])c([H])c2c(c1[H])C([H])([H])C([H])([H])C([H])([H])C2([H])N([H])C(=O)C1([H])N(C(=O)C([H])(N([H])C(=O)C([H])(N([H])C([H])([H])[H])C([H])([H])[H])C(C([H])([H])[H])(C([H])([H])[H])C([H])([H])[H])C([H])([H])c2c([H])c(OC([H])([H])c3c([H])c(N(C([H])([H])[H])C([H])([H])C([H])(C([H])([H])N([H])C(=O)N4C([H])([H])C([H])([H])C([H])([H])C([H])(n5nc(-c6c([H])c([H])c(Oc7c([H])c([H])c(F)c([H])c7F)c([H])c6[H])c(C(=O)N([H])[H])c5N([H])[H])C4([H])[H])[N+]([H])([H])[H])c([H])c(C([H])([H])[H])[n+]3[H])c([H])c([H])c2C1([H])[H]

>  <smiles>  (55) 
[H]c1c([H])c([H])c2c(c1[H])C([H])([H])C([H])([H])C([H])([H])C2([H])N([H])C(=O)C1([H])N(C(=O)C([H])(N([H])C(=O)C([H])(N([H])C([H])([H])[H])C([H])([H])[H])C(C([H])([H])[H])(C([H])([H])[H])C([H])([H])[H])C([H])([H])c2c([H])c(OC([H])([H])c3c([H])c(N(C([H])([H])[H])C([H])([H])C([H])(C([H])([H])N([H])C(=O)N4C([H])([H])C([H])([H])C([H])([H])C([H])(n5nc(-c6c([H])c([H])c(Oc7c([H])c([H])c(F)c([H])c7F)c([H])c6[H])c(C(=O)N([H])[H])c5N([H])[H])C4([H])[H])[N+]([H])([H])[H])c([H])c(C([H])([H])[H])[n+]3[H])c([H])c([H])c2C1([H])[H]

$$$$
55:0:0
     RDKit          3D

 99107  0  0  1  0  0  0  0  0999 V2000
  -33.7490  -19.6990   21.0730 C   0  0  0  0  0  1  0  0  0  0  0  0
  -32.5130  -20.3850   21.6800 C   0  0  0  0  0  3  0  0  0  0  0  0
  -30.1860  -20.3810   20.6120 C   0  0  0  0  0  3  0  0  0  0  0  0
  -28.9790  -19.7450   20.3220 C   0  0  0  0  0  3  0  0  0  0  0  0
  -31.0760  -18.2580   21.4120 C   0  0  0  0  0  3  0  0  0  0  0  0
  -31.2320  -19.6630   21.2210 C   0  0  0  0  0  0  0  0  0  0  0  0
  -28.7890  -18.3720   20.5780 C   0  0  0  0  0  0  0  0  0  0  0  0
  -29.8680  -17.5800   21.0890 C   0  0  0  0  0  0  0  0  0  0  0  0
  -30.6150  -15.1750   21.2340 C   0  0  0  0  0  0  0  0  0  0  0  0
  -30.5570  -13.0570   19.9860 C   0  0  0  0  0  2  0  0  0  0  0  0
  -29.6860  -13.3060   18.7340 C   0  0  0  0  0  2  0  0  0  0  0  0
  -28.1950  -13.0550   19.0540 C   0  0  0  0  0  2  0  0  0  0  0  0
  -27.7260  -13.7470   20.3620 C   0  0  0  0  0  3  0  0  0  0  0  0
  -28.7310  -13.5220   21.5160 C   0  0  0  0  0  2  0  0  0  0  0  0
  -30.0570  -13.9460   21.0420 N   0  0  0  0  0  0  0  0  0  0  0  0
  -31.8080  -15.4050   21.0220 O   0  0  0  0  0  0  0  0  0  0  0  0
  -29.7100  -16.1750   21.3880 N   0  0  0  0  0  0  0  0  0  0  0  0
  -28.7670  -15.8450   21.5110 H   0  0  0  0  0  0  0  0  0  0  0  0
  -25.2380  -14.1740   20.8670 C   0  0  0  0  0  0  0  0  0  0  0  0
  -24.2020  -13.3190   21.1290 C   0  0  0  0  0  0  0  0  0  0  0  0
  -24.7670  -12.0080   21.1320 C   0  0  0  0  0  0  0  0  0  0  0  0
  -26.3640  -13.3740   20.7270 N   0  0  0  0  0  0  0  0  0  0  0  0
  -26.0790  -12.0670   20.9430 N   0  0  0  0  0  0  0  0  0  0  0  0
  -24.1270  -10.6950   21.2520 C   0  0  0  0  0  0  0  0  0  0  0  0
  -24.5470   -9.7540   22.2160 C   0  0  0  0  0  3  0  0  0  0  0  0
  -23.9030   -8.5010   22.3230 C   0  0  0  0  0  3  0  0  0  0  0  0
  -22.8270   -8.1840   21.4600 C   0  0  0  0  0  0  0  0  0  0  0  0
  -22.4260   -9.1170   20.4880 C   0  0  0  0  0  3  0  0  0  0  0  0
  -23.0720  -10.3580   20.3800 C   0  0  0  0  0  3  0  0  0  0  0  0
  -22.1640   -6.9820   21.4700 O   0  0  0  0  0  0  0  0  0  0  0  0
  -22.0350   -6.2420   22.6170 C   0  0  0  0  0  0  0  0  0  0  0  0
  -21.4370   -6.7700   23.7830 C   0  0  0  0  0  3  0  0  0  0  0  0
  -21.2610   -5.9510   24.9150 C   0  0  0  0  0  3  0  0  0  0  0  0
  -21.6760   -4.6060   24.8840 C   0  0  0  0  0  0  0  0  0  0  0  0
  -22.2700   -4.0790   23.7240 C   0  0  0  0  0  3  0  0  0  0  0  0
  -22.4460   -4.8940   22.5930 C   0  0  0  0  0  0  0  0  0  0  0  0
  -22.9980   -4.3750   21.4710 F   0  0  0  0  0  0  0  0  0  0  0  0
  -21.5020   -3.8180   25.9710 F   0  0  0  0  0  0  0  0  0  0  0  0
  -22.7550  -13.6900   21.2880 C   0  0  0  0  0  0  0  0  0  0  0  0
  -22.0130  -12.9530   22.1060 N   0  0  0  0  0  0  0  0  0  0  0  0
  -22.2850  -14.6790   20.7240 O   0  0  0  0  0  0  0  0  0  0  0  0
  -22.3970  -12.1590   22.5990 H   0  0  0  0  0  0  0  0  0  0  0  0
  -21.0410  -13.1900   22.2460 H   0  0  0  0  0  0  0  0  0  0  0  0
  -25.3050  -15.5580   20.7300 N   0  0  0  0  0  0  0  0  0  0  0  0
  -24.4500  -16.0840   20.8710 H   0  0  0  0  0  0  0  0  0  0  0  0
  -26.1160  -16.0750   21.0410 H   0  0  0  0  0  0  0  0  0  0  0  0
  -27.3770  -17.8570   20.3300 C   0  0  0  0  0  2  0  0  0  0  0  0
  -25.8040  -16.6670   18.8860 C   0  0  0  0  0  1  0  0  0  0  0  0
  -27.3020  -18.3220   17.8780 C   0  0  0  0  0  1  0  0  0  0  0  0
  -27.1260  -17.3270   18.9630 N   0  0  1  0  0  4  0  0  0  0  0  0
  -27.8160  -16.6140   18.7990 H   0  0  0  0  0  0  0  0  0  0  0  0
  -32.5790  -21.9260   21.3900 C   0  0  0  0  0  2  0  0  0  0  0  0
  -31.3890  -22.7210   21.8180 N   0  0  0  0  0  4  0  0  0  0  0  0
  -30.5760  -22.1270   21.7750 H   0  0  0  0  0  0  0  0  0  0  0  0
  -31.5190  -22.9850   22.7810 H   0  0  0  0  0  0  0  0  0  0  0  0
  -31.1310  -23.9380   20.9890 C   0  0  0  0  0  2  0  0  0  0  0  0
  -29.9170  -24.8000   21.4540 C   0  0  0  0  0  2  0  0  0  0  0  0
  -29.1520  -25.5400   20.3150 C   0  0  0  0  0  2  0  0  0  0  0  0
  -28.9930  -26.9560   20.5470 O   0  0  0  0  0  0  0  0  0  0  0  0
  -24.7060  -31.9230   23.2910 C   0  0  0  0  0  0  0  0  0  0  0  0
  -27.7630  -27.5880   20.4170 C   0  0  0  0  0  0  0  0  0  0  0  0
  -23.6700  -30.4320   21.6100 C   0  0  0  0  0  3  0  0  0  0  0  0
  -25.2810  -28.9680   20.2820 C   0  0  0  0  0  0  0  0  0  0  0  0
  -26.1790  -30.9300   21.5420 C   0  0  0  0  0  2  0  0  0  0  0  0
  -26.3740  -29.5580   20.9250 C   0  0  0  0  0  0  0  0  0  0  0  0
  -27.6100  -28.8750   20.9910 C   0  0  0  0  0  3  0  0  0  0  0  0
  -26.6500  -27.0260   19.7430 C   0  0  0  0  0  3  0  0  0  0  0  0
  -25.4180  -27.7040   19.6850 C   0  0  0  0  0  3  0  0  0  0  0  0
  -23.9900  -29.7530   20.2530 C   0  0  0  0  0  2  0  0  0  0  0  0
  -24.8670  -31.1110   22.2070 N   0  0  0  0  0  0  0  0  0  0  0  0
  -23.5840  -32.1400   23.7680 O   0  0  0  0  0  0  0  0  0  0  0  0
  -23.0270  -29.3880   22.5510 C   0  0  0  0  0  0  0  0  0  0  0  0
  -21.7210  -29.1350   22.3620 N   0  0  0  0  0  0  0  0  0  0  0  0
  -23.7010  -28.8090   23.4060 O   0  0  0  0  0  0  0  0  0  0  0  0
  -21.2360  -29.6550   21.6440 H   0  0  0  0  0  0  0  0  0  0  0  0
  -18.3930  -27.7780   22.7240 C   0  0  0  0  0  0  0  0  0  0  0  0
  -20.9200  -28.1630   23.1040 C   0  0  0  0  0  3  0  0  0  0  0  0
  -21.1180  -26.7360   22.5440 C   0  0  0  0  0  2  0  0  0  0  0  0
  -20.0780  -26.3530   21.4850 C   0  0  0  0  0  2  0  0  0  0  0  0
  -18.6650  -26.4350   22.0680 C   0  0  0  0  0  2  0  0  0  0  0  0
  -19.4520  -28.5950   23.1970 C   0  0  0  0  0  0  0  0  0  0  0  0
  -19.1480  -29.8490   23.7680 C   0  0  0  0  0  3  0  0  0  0  0  0
  -17.8150  -30.2890   23.8720 C   0  0  0  0  0  3  0  0  0  0  0  0
  -16.7690  -29.4680   23.4180 C   0  0  0  0  0  3  0  0  0  0  0  0
  -17.0580  -28.2140   22.8500 C   0  0  0  0  0  3  0  0  0  0  0  0
  -25.9190  -32.6350   23.9660 C   0  0  0  0  0  3  0  0  0  0  0  0
  -25.5190  -34.0200   24.2460 N   0  0  0  0  0  0  0  0  0  0  0  0
  -25.8390  -35.0730   23.4820 C   0  0  0  0  0  0  0  0  0  0  0  0
  -26.5710  -34.9840   22.4930 O   0  0  0  0  0  0  0  0  0  0  0  0
  -24.8700  -34.1590   25.0060 H   0  0  0  0  0  0  0  0  0  0  0  0
  -24.0400  -36.7600   22.9910 C   0  0  0  0  0  1  0  0  0  0  0  0
  -25.2520  -36.4420   23.8790 C   0  0  0  0  0  3  0  0  0  0  0  0
  -27.2990  -37.4440   24.7920 C   0  0  0  0  0  1  0  0  0  0  0  0
  -26.2330  -37.5460   23.8010 N   0  0  0  0  0  0  0  0  0  0  0  0
  -25.7720  -38.4450   23.9210 H   0  0  0  0  0  0  0  0  0  0  0  0
  -26.4080  -31.9160   25.2840 C   0  0  1  0  0  0  0  0  0  0  0  0
  -25.2680  -31.5990   26.2790 C   0  0  0  0  0  1  0  0  0  0  0  0
  -27.1230  -30.5860   24.9470 C   0  0  0  0  0  1  0  0  0  0  0  0
  -27.4480  -32.8030   26.0080 C   0  0  0  0  0  1  0  0  0  0  0  0
  2  1  1  0
  3  6  1  0
  4  7  1  0
  4  3  2  0
  6  5  2  0
  6  2  1  0
  7  8  2  0
  8 17  1  0
  8  5  1  0
  9 17  1  0
 10 15  1  0
 11 12  1  0
 11 10  1  0
 13 12  1  0
 13 22  1  0
 13 14  1  0
 15  9  1  0
 15 14  1  0
 16  9  2  0
 17 18  1  0
 19 20  2  0
 20 21  1  0
 20 39  1  0
 21 24  1  0
 22 19  1  0
 22 23  1  0
 23 21  2  0
 24 25  1  0
 25 26  2  0
 27 30  1  0
 27 26  1  0
 28 27  2  0
 29 28  1  0
 29 24  2  0
 30 31  1  0
 31 32  1  0
 32 33  2  0
 34 33  1  0
 34 38  1  0
 35 34  2  0
 36 31  2  0
 36 35  1  0
 37 36  1  0
 39 40  1  0
 40 43  1  0
 40 42  1  0
 41 39  2  0
 44 19  1  0
 44 45  1  0
 44 46  1  0
 47  7  1  0
 48 50  1  0
 49 50  1  0
 50 47  1  0
 50 51  1  6
 52  2  1  0
 52 53  1  0
 53 55  1  0
 54 53  1  0
 56 57  1  0
 56 53  1  0
 58 59  1  0
 58 57  1  0
 60 71  2  0
 61 59  1  0
 61 66  1  0
 62 70  1  0
 62 72  1  0
 63 65  1  0
 64 70  1  0
 65 66  2  0
 65 64  1  0
 67 61  2  0
 68 67  1  0
 68 63  2  0
 69 63  1  0
 69 62  1  0
 70 60  1  0
 72 74  2  0
 73 72  1  0
 75 73  1  0
 76 85  2  0
 76 81  1  0
 77 73  1  0
 77 81  1  0
 78 77  1  0
 79 80  1  0
 79 78  1  0
 80 76  1  0
 81 82  2  0
 82 83  1  0
 84 83  2  0
 85 84  1  0
 86 60  1  0
 86 87  1  0
 86 96  1  0
 87 90  1  0
 88 92  1  0
 88 87  1  0
 89 88  2  0
 92 91  1  0
 94 92  1  0
 94 95  1  0
 94 93  1  0
 96 99  1  1
 96 97  1  0
 98 96  1  0
M  ISO  4   9 100  17 100  58 101  59 101
M  END
>  <TORSDO>  (56) 
F 24

>  <SCORE>  (56) 
-10.509

>  <name>  (56) 
55

>  <ligand_id>  (56) 
55

>  <original_smiles>  (56) 
[H]c1c([H])c([H])c2c(c1[H])C([H])([H])C([H])([H])C([H])([H])C2([H])N([H])C(=O)C1([H])N(C(=O)C([H])(N([H])C(=O)C([H])(N([H])C([H])([H])[H])C([H])([H])[H])C(C([H])([H])[H])(C([H])([H])[H])C([H])([H])[H])C([H])([H])c2c([H])c(OC([H])([H])C([H])([H])C([H])([H])[N+]([H])([H])C([H])([H])C([H])(c3c([H])c([H])c(C([H])([H])[N+]([H])(C([H])([H])[H])C([H])([H])[H])c(N([H])C(=O)N4C([H])([H])C([H])([H])C([H])([H])C([H])(n5nc(-c6c([H])c([H])c(Oc7c([H])c([H])c(F)c([H])c7F)c([H])c6[H])c(C(=O)N([H])[H])c5N([H])[H])C4([H])[H])c3[H])C([H])([H])[H])c([H])c([H])c2C1([H])[H]

>  <smiles>  (56) 
[H]c1c([H])c([H])c2c(c1[H])C([H])([H])C([H])([H])C([H])([H])C2([H])N([H])C(=O)C1([H])N(C(=O)C([H])(N([H])C(=O)C([H])(N([H])C([H])([H])[H])C([H])([H])[H])C(C([H])([H])[H])(C([H])([H])[H])C([H])([H])[H])C([H])([H])c2c([H])c(OC([H])([H])C([H])([H])C([H])([H])[N+]([H])([H])C([H])([H])C([H])(c3c([H])c([H])c(C([H])([H])[N+]([H])(C([H])([H])[H])C([H])([H])[H])c(N([H])C(=O)N4C([H])([H])C([H])([H])C([H])([H])C([H])(n5nc(-c6c([H])c([H])c(Oc7c([H])c([H])c(F)c([H])c7F)c([H])c6[H])c(C(=O)N([H])[H])c5N([H])[H])C4([H])[H])c3[H])C([H])([H])[H])c([H])c([H])c2C1([H])[H]

$$$$
56:0:0
     RDKit          3D

 97105  0  0  1  0  0  0  0  0999 V2000
  -29.0330  -21.7190   19.8170 C   0  0  0  0  0  3  0  0  0  0  0  0
  -31.3810  -20.8820   20.8250 C   0  0  0  0  0  2  0  0  0  0  0  0
  -29.6140  -19.0460   20.2790 C   0  0  0  0  0  2  0  0  0  0  0  0
  -32.2930  -20.5850   19.6210 C   0  0  0  0  0  2  0  0  0  0  0  0
  -32.0910  -18.0910   20.0520 C   0  0  0  0  0  2  0  0  0  0  0  0
  -29.8710  -20.5960   20.6530 C   0  0  0  0  0  3  0  0  0  0  0  0
  -30.6610  -17.8620   20.6550 C   0  0  0  0  0  3  0  0  0  0  0  0
  -32.1780  -19.2110   19.0840 N   0  0  0  0  0  4  0  0  0  0  0  0
  -32.9980  -19.0570   18.5170 H   0  0  0  0  0  0  0  0  0  0  0  0
  -31.3920  -19.1590   18.4570 H   0  0  0  0  0  0  0  0  0  0  0  0
  -30.9140  -15.2370   20.6490 C   0  0  0  0  0  0  0  0  0  0  0  0
  -30.7800  -12.9050   19.7850 C   0  0  0  0  0  2  0  0  0  0  0  0
  -29.9290  -12.8310   18.5000 C   0  0  0  0  0  2  0  0  0  0  0  0
  -28.4270  -12.6910   18.8370 C   0  0  0  0  0  2  0  0  0  0  0  0
  -27.9440  -13.6310   19.9740 C   0  0  0  0  0  3  0  0  0  0  0  0
  -28.9400  -13.6960   21.1510 C   0  0  0  0  0  2  0  0  0  0  0  0
  -30.2620  -14.0240   20.5990 N   0  0  0  0  0  0  0  0  0  0  0  0
  -32.1460  -15.2640   20.6670 O   0  0  0  0  0  0  0  0  0  0  0  0
  -29.4040  -16.4730   19.1510 C   0  0  0  0  0  1  0  0  0  0  0  0
  -30.2060  -16.4210   20.3840 N   0  0  0  0  0  0  0  0  0  0  0  0
  -25.5250  -14.2410   20.5510 C   0  0  0  0  0  0  0  0  0  0  0  0
  -24.4380  -13.4690   20.8470 C   0  0  0  0  0  0  0  0  0  0  0  0
  -24.9060  -12.1200   20.8630 C   0  0  0  0  0  0  0  0  0  0  0  0
  -26.5820  -13.3550   20.3960 N   0  0  0  0  0  0  0  0  0  0  0  0
  -26.2140  -12.0780   20.6520 N   0  0  0  0  0  0  0  0  0  0  0  0
  -24.1770  -10.8570   21.0070 C   0  0  0  0  0  0  0  0  0  0  0  0
  -24.5390   -9.9070   21.9870 C   0  0  0  0  0  3  0  0  0  0  0  0
  -23.8110   -8.7050   22.1180 C   0  0  0  0  0  3  0  0  0  0  0  0
  -22.7080   -8.4470   21.2690 C   0  0  0  0  0  0  0  0  0  0  0  0
  -22.3690   -9.3870   20.2790 C   0  0  0  0  0  3  0  0  0  0  0  0
  -23.0980  -10.5790   20.1450 C   0  0  0  0  0  3  0  0  0  0  0  0
  -21.9590   -7.2970   21.3100 O   0  0  0  0  0  0  0  0  0  0  0  0
  -21.8140   -6.5760   22.4670 C   0  0  0  0  0  0  0  0  0  0  0  0
  -21.2430   -7.1360   23.6300 C   0  0  0  0  0  3  0  0  0  0  0  0
  -21.0490   -6.3380   24.7740 C   0  0  0  0  0  3  0  0  0  0  0  0
  -21.4170   -4.9800   24.7560 C   0  0  0  0  0  0  0  0  0  0  0  0
  -21.9830   -4.4180   23.5980 C   0  0  0  0  0  3  0  0  0  0  0  0
  -22.1790   -5.2140   22.4550 C   0  0  0  0  0  0  0  0  0  0  0  0
  -22.7040   -4.6640   21.3350 F   0  0  0  0  0  0  0  0  0  0  0  0
  -21.2240   -4.2100   25.8520 F   0  0  0  0  0  0  0  0  0  0  0  0
  -23.0230  -13.9450   21.0090 C   0  0  0  0  0  0  0  0  0  0  0  0
  -22.2390  -13.2590   21.8350 N   0  0  0  0  0  0  0  0  0  0  0  0
  -22.6180  -14.9570   20.4400 O   0  0  0  0  0  0  0  0  0  0  0  0
  -22.5780  -12.4420   22.3180 H   0  0  0  0  0  0  0  0  0  0  0  0
  -21.2860  -13.5600   21.9880 H   0  0  0  0  0  0  0  0  0  0  0  0
  -25.6990  -15.6110   20.3770 N   0  0  0  0  0  0  0  0  0  0  0  0
  -24.9280  -16.2680   20.4410 H   0  0  0  0  0  0  0  0  0  0  0  0
  -26.5820  -16.0540   20.1560 H   0  0  0  0  0  0  0  0  0  0  0  0
  -26.9770  -22.5240   21.2290 C   0  0  0  0  0  1  0  0  0  0  0  0
  -26.5620  -21.5120   18.9300 C   0  0  0  0  0  1  0  0  0  0  0  0
  -27.5060  -21.5610   20.1470 C   0  0  0  0  0  3  0  0  0  0  0  0
  -29.5150  -23.1800   19.8980 N   0  0  0  0  0  4  0  0  0  0  0  0
  -29.8440  -23.3540   20.8350 H   0  0  0  0  0  0  0  0  0  0  0  0
  -30.3220  -23.2450   19.2980 H   0  0  0  0  0  0  0  0  0  0  0  0
  -28.5900  -24.3450   19.5150 C   0  0  0  0  0  2  0  0  0  0  0  0
  -29.2290  -25.7580   19.1270 C   0  0  0  0  0  2  0  0  0  0  0  0
  -28.9600  -27.0070   19.8680 O   0  0  0  0  0  0  0  0  0  0  0  0
  -24.7940  -31.7270   23.3070 C   0  0  0  0  0  0  0  0  0  0  0  0
  -27.7560  -27.7230   19.8300 C   0  0  0  0  0  0  0  0  0  0  0  0
  -23.7060  -30.4420   21.4970 C   0  0  0  0  0  3  0  0  0  0  0  0
  -25.2770  -29.1490   19.9380 C   0  0  0  0  0  0  0  0  0  0  0  0
  -26.2150  -30.9460   21.4000 C   0  0  0  0  0  2  0  0  0  0  0  0
  -26.3940  -29.6540   20.6130 C   0  0  0  0  0  0  0  0  0  0  0  0
  -27.6300  -28.9480   20.5560 C   0  0  0  0  0  3  0  0  0  0  0  0
  -26.6150  -27.2600   19.1390 C   0  0  0  0  0  3  0  0  0  0  0  0
  -25.3880  -27.9590   19.1940 C   0  0  0  0  0  3  0  0  0  0  0  0
  -23.9820  -29.9290   20.0560 C   0  0  0  0  0  2  0  0  0  0  0  0
  -24.9210  -31.0510   22.1270 N   0  0  0  0  0  0  0  0  0  0  0  0
  -23.6880  -31.8730   23.8480 O   0  0  0  0  0  0  0  0  0  0  0  0
  -23.0970  -29.2900   22.3290 C   0  0  0  0  0  0  0  0  0  0  0  0
  -21.7820  -29.0630   22.1780 N   0  0  0  0  0  0  0  0  0  0  0  0
  -23.8090  -28.6040   23.0700 O   0  0  0  0  0  0  0  0  0  0  0  0
  -21.2650  -29.6750   21.5610 H   0  0  0  0  0  0  0  0  0  0  0  0
  -18.4600  -27.6870   22.5600 C   0  0  0  0  0  0  0  0  0  0  0  0
  -21.0120  -28.0020   22.8270 C   0  0  0  0  0  3  0  0  0  0  0  0
  -21.1530  -26.6650   22.0630 C   0  0  0  0  0  2  0  0  0  0  0  0
  -20.0440  -26.4420   21.0290 C   0  0  0  0  0  2  0  0  0  0  0  0
  -18.6690  -26.4480   21.7060 C   0  0  0  0  0  2  0  0  0  0  0  0
  -19.5590  -28.4260   23.0730 C   0  0  0  0  0  0  0  0  0  0  0  0
  -19.3080  -29.5900   23.8320 C   0  0  0  0  0  3  0  0  0  0  0  0
  -17.9900  -30.0160   24.0820 C   0  0  0  0  0  3  0  0  0  0  0  0
  -16.9060  -29.2720   23.5850 C   0  0  0  0  0  3  0  0  0  0  0  0
  -17.1410  -28.1090   22.8300 C   0  0  0  0  0  3  0  0  0  0  0  0
  -26.0250  -32.3650   24.0230 C   0  0  0  0  0  3  0  0  0  0  0  0
  -25.6630  -33.7420   24.3870 N   0  0  0  0  0  0  0  0  0  0  0  0
  -25.9910  -34.8300   23.6760 C   0  0  0  0  0  0  0  0  0  0  0  0
  -26.6990  -34.7800   22.6650 O   0  0  0  0  0  0  0  0  0  0  0  0
  -25.0360  -33.8540   25.1700 H   0  0  0  0  0  0  0  0  0  0  0  0
  -24.2130  -36.5770   23.3330 C   0  0  0  0  0  1  0  0  0  0  0  0
  -25.4480  -36.1880   24.1600 C   0  0  0  0  0  3  0  0  0  0  0  0
  -27.5270  -37.1230   25.0730 C   0  0  0  0  0  1  0  0  0  0  0  0
  -26.4470  -37.2780   24.1030 N   0  0  0  0  0  0  0  0  0  0  0  0
  -26.0050  -38.1790   24.2600 H   0  0  0  0  0  0  0  0  0  0  0  0
  -26.4910  -31.5590   25.2970 C   0  0  1  0  0  0  0  0  0  0  0  0
  -25.3490  -31.2570   26.2960 C   0  0  0  0  0  1  0  0  0  0  0  0
  -27.1250  -30.2080   24.8870 C   0  0  0  0  0  1  0  0  0  0  0  0
  -27.5880  -32.3510   26.0490 C   0  0  0  0  0  1  0  0  0  0  0  0
  1 52  1  0
  1 51  1  0
  3  6  1  0
  3  7  1  0
  4  2  1  0
  5  7  1  0
  6  1  1  0
  6  2  1  0
  7 20  1  0
  8  4  1  0
  8  5  1  0
  9  8  1  0
 10  8  1  0
 11 18  2  0
 12 17  1  0
 13 14  1  0
 13 12  1  0
 15 14  1  0
 15 24  1  0
 15 16  1  0
 17 11  1  0
 17 16  1  0
 19 20  1  0
 20 11  1  0
 21 22  2  0
 22 23  1  0
 22 41  1  0
 23 26  1  0
 24 21  1  0
 24 25  1  0
 25 23  2  0
 26 27  1  0
 27 28  2  0
 29 32  1  0
 29 28  1  0
 30 29  2  0
 31 30  1  0
 31 26  2  0
 32 33  1  0
 33 34  1  0
 34 35  2  0
 36 35  1  0
 36 40  1  0
 37 36  2  0
 38 33  2  0
 38 37  1  0
 39 38  1  0
 41 42  1  0
 42 45  1  0
 42 44  1  0
 43 41  2  0
 46 47  1  0
 46 21  1  0
 48 46  1  0
 50 51  1  0
 51 49  1  0
 52 53  1  0
 54 52  1  0
 55 52  1  0
 56 55  1  0
 56 57  1  0
 58 69  2  0
 59 57  1  0
 59 64  1  0
 60 68  1  0
 60 70  1  0
 61 67  1  0
 61 63  1  0
 62 68  1  0
 63 62  1  0
 64 63  2  0
 65 66  1  0
 65 59  2  0
 66 61  2  0
 67 60  1  0
 68 58  1  0
 70 72  2  0
 71 70  1  0
 73 71  1  0
 74 83  2  0
 74 79  1  0
 75 71  1  0
 75 79  1  0
 76 75  1  0
 77 78  1  0
 77 76  1  0
 78 74  1  0
 79 80  2  0
 80 81  1  0
 82 81  2  0
 83 82  1  0
 84 58  1  0
 84 85  1  0
 84 94  1  0
 85 88  1  0
 86 90  1  0
 86 85  1  0
 87 86  2  0
 90 89  1  0
 92 90  1  0
 92 93  1  0
 92 91  1  0
 94 97  1  1
 94 95  1  0
 96 94  1  0
M  ISO  4  11 100  20 100  56 101  57 101
M  END
>  <TORSDO>  (57) 
F 21

>  <SCORE>  (57) 
-12.220

>  <name>  (57) 
56

>  <ligand_id>  (57) 
56

>  <original_smiles>  (57) 
[H]c1c([H])c([H])c2c(c1[H])C([H])([H])C([H])([H])C([H])([H])C2([H])N([H])C(=O)C1([H])N(C(=O)C([H])(N([H])C(=O)C([H])(N([H])C([H])([H])[H])C([H])([H])[H])C(C([H])([H])[H])(C([H])([H])[H])C([H])([H])[H])C([H])([H])c2c([H])c(OC([H])([H])C([H])([H])[N+]([H])([H])C([H])(C([H])(C([H])([H])[H])C([H])([H])[H])C3([H])C([H])([H])C([H])(N(C(=O)N4C([H])([H])C([H])([H])C([H])([H])C([H])(n5nc(-c6c([H])c([H])c(Oc7c([H])c([H])c(F)c([H])c7F)c([H])c6[H])c(C(=O)N([H])[H])c5N([H])[H])C4([H])[H])C([H])([H])[H])C([H])([H])[N+]([H])([H])C([H])([H])C3([H])[H])c([H])c([H])c2C1([H])[H]

>  <smiles>  (57) 
[H]c1c([H])c([H])c2c(c1[H])C([H])([H])C([H])([H])C([H])([H])C2([H])N([H])C(=O)C1([H])N(C(=O)C([H])(N([H])C(=O)C([H])(N([H])C([H])([H])[H])C([H])([H])[H])C(C([H])([H])[H])(C([H])([H])[H])C([H])([H])[H])C([H])([H])c2c([H])c(OC([H])([H])C([H])([H])[N+]([H])([H])C([H])(C([H])(C([H])([H])[H])C([H])([H])[H])C3([H])C([H])([H])C([H])(N(C(=O)N4C([H])([H])C([H])([H])C([H])([H])C([H])(n5nc(-c6c([H])c([H])c(Oc7c([H])c([H])c(F)c([H])c7F)c([H])c6[H])c(C(=O)N([H])[H])c5N([H])[H])C4([H])[H])C([H])([H])[H])C([H])([H])[N+]([H])([H])C([H])([H])C3([H])[H])c([H])c([H])c2C1([H])[H]

$$$$
57:0:0
     RDKit          3D

 93101  0  0  1  0  0  0  0  0999 V2000
  -28.6740  -20.7540   18.5660 C   0  0  0  0  0  3  0  0  0  0  0  0
  -29.0080  -20.5480   19.8710 C   0  0  0  0  0  0  0  0  0  0  0  0
  -29.2270  -19.0250   19.9920 C   0  0  0  0  0  0  0  0  0  0  0  0
  -28.8180  -18.5320   18.7620 C   0  0  0  0  0  0  0  0  0  0  0  0
  -28.6730  -17.1060   18.3020 C   0  0  0  0  0  1  0  0  0  0  0  0
  -28.6070  -19.5760   17.8650 N   0  0  0  0  0  0  0  0  0  0  0  0
  -29.7420  -19.0780   15.7320 C   0  0  0  0  0  1  0  0  0  0  0  0
  -27.8400  -20.7450   15.7540 C   0  0  0  0  0  1  0  0  0  0  0  0
  -28.4140  -19.4710   16.4070 C   0  0  0  0  0  3  0  0  0  0  0  0
  -29.0020  -21.5000   22.1990 C   0  0  0  0  0  1  0  0  0  0  0  0
  -29.1280  -21.9430   20.7300 C   0  0  0  0  0  3  0  0  0  0  0  0
  -28.1830  -23.3690   20.5260 C   0  0  0  0  0  2  0  0  0  0  0  0
  -28.4090  -24.8090   19.6590 C   0  0  0  0  0  2  0  0  0  0  0  0
  -28.3270  -26.3160   20.0960 O   0  0  0  0  0  0  0  0  0  0  0  0
  -24.6620  -31.9240   23.1330 C   0  0  0  0  0  0  0  0  0  0  0  0
  -27.2370  -27.2600   20.0010 C   0  0  0  0  0  0  0  0  0  0  0  0
  -23.4470  -30.5280   21.5020 C   0  0  0  0  0  3  0  0  0  0  0  0
  -24.8840  -28.9770   20.0260 C   0  0  0  0  0  0  0  0  0  0  0  0
  -25.9900  -30.8230   21.2890 C   0  0  0  0  0  2  0  0  0  0  0  0
  -26.0660  -29.4350   20.6220 C   0  0  0  0  0  0  0  0  0  0  0  0
  -27.2370  -28.5860   20.5950 C   0  0  0  0  0  3  0  0  0  0  0  0
  -26.0290  -26.9020   19.3640 C   0  0  0  0  0  3  0  0  0  0  0  0
  -24.8780  -27.7260   19.3850 C   0  0  0  0  0  3  0  0  0  0  0  0
  -23.6480  -29.8640   20.1110 C   0  0  0  0  0  2  0  0  0  0  0  0
  -24.7210  -31.1160   22.0310 N   0  0  0  0  0  0  0  0  0  0  0  0
  -23.5830  -32.1910   23.6870 O   0  0  0  0  0  0  0  0  0  0  0  0
  -22.8000  -29.5090   22.4700 C   0  0  0  0  0  0  0  0  0  0  0  0
  -21.4730  -29.3260   22.3670 N   0  0  0  0  0  0  0  0  0  0  0  0
  -23.4950  -28.8830   23.2740 O   0  0  0  0  0  0  0  0  0  0  0  0
  -20.9690  -29.8870   21.6950 H   0  0  0  0  0  0  0  0  0  0  0  0
  -18.1180  -28.0760   22.9160 C   0  0  0  0  0  0  0  0  0  0  0  0
  -20.6770  -28.3710   23.1410 C   0  0  0  0  0  3  0  0  0  0  0  0
  -20.7860  -26.9450   22.5530 C   0  0  0  0  0  2  0  0  0  0  0  0
  -19.6730  -26.6170   21.5530 C   0  0  0  0  0  2  0  0  0  0  0  0
  -18.3000  -26.7350   22.2240 C   0  0  0  0  0  2  0  0  0  0  0  0
  -19.2340  -28.8490   23.3320 C   0  0  0  0  0  0  0  0  0  0  0  0
  -19.0060  -30.1010   23.9440 C   0  0  0  0  0  3  0  0  0  0  0  0
  -17.6990  -30.5810   24.1420 C   0  0  0  0  0  3  0  0  0  0  0  0
  -16.5970  -29.8070   23.7390 C   0  0  0  0  0  3  0  0  0  0  0  0
  -16.8080  -28.5550   23.1310 C   0  0  0  0  0  3  0  0  0  0  0  0
  -25.9450  -32.5690   23.7410 C   0  0  0  0  0  3  0  0  0  0  0  0
  -25.6140  -33.9520   24.1220 N   0  0  0  0  0  0  0  0  0  0  0  0
  -25.9330  -35.0400   23.4060 C   0  0  0  0  0  0  0  0  0  0  0  0
  -26.6050  -34.9840   22.3730 O   0  0  0  0  0  0  0  0  0  0  0  0
  -25.0070  -34.0650   24.9210 H   0  0  0  0  0  0  0  0  0  0  0  0
  -24.1900  -36.8360   23.1220 C   0  0  0  0  0  1  0  0  0  0  0  0
  -25.4320  -36.4050   23.9200 C   0  0  0  0  0  3  0  0  0  0  0  0
  -27.5600  -37.2760   24.7920 C   0  0  0  0  0  1  0  0  0  0  0  0
  -26.4570  -37.4730   23.8540 N   0  0  0  0  0  0  0  0  0  0  0  0
  -26.0420  -38.3820   24.0410 H   0  0  0  0  0  0  0  0  0  0  0  0
  -26.5050  -31.7770   24.9870 C   0  0  1  0  0  0  0  0  0  0  0  0
  -25.4430  -31.4970   26.0770 C   0  0  0  0  0  1  0  0  0  0  0  0
  -27.0980  -30.4170   24.5520 C   0  0  0  0  0  1  0  0  0  0  0  0
  -27.6590  -32.5760   25.6360 C   0  0  0  0  0  1  0  0  0  0  0  0
  -29.8380  -17.9290   21.0880 C   0  0  0  0  0  2  0  0  0  0  0  0
  -30.5960  -15.2210   21.1520 C   0  0  0  0  0  0  0  0  0  0  0  0
  -30.7350  -12.7970   20.4150 C   0  0  0  0  0  2  0  0  0  0  0  0
  -29.9630  -12.5800   19.0920 C   0  0  0  0  0  2  0  0  0  0  0  0
  -28.4680  -12.3280   19.3590 C   0  0  0  0  0  2  0  0  0  0  0  0
  -27.8720  -13.3410   20.3690 C   0  0  0  0  0  3  0  0  0  0  0  0
  -28.7670  -13.5000   21.6150 C   0  0  0  0  0  2  0  0  0  0  0  0
  -30.0850  -13.9270   21.1360 N   0  0  0  0  0  0  0  0  0  0  0  0
  -31.8260  -15.3410   21.0790 O   0  0  0  0  0  0  0  0  0  0  0  0
  -29.7200  -16.3420   21.0500 N   0  0  0  0  0  0  0  0  0  0  0  0
  -28.7540  -16.0500   21.0420 H   0  0  0  0  0  0  0  0  0  0  0  0
  -25.4120  -13.9010   20.7900 C   0  0  0  0  0  0  0  0  0  0  0  0
  -24.3230  -13.1130   21.0450 C   0  0  0  0  0  0  0  0  0  0  0  0
  -24.8110  -11.7740   21.1140 C   0  0  0  0  0  0  0  0  0  0  0  0
  -26.4910  -13.0350   20.7100 N   0  0  0  0  0  0  0  0  0  0  0  0
  -26.1300  -11.7550   20.9740 N   0  0  0  0  0  0  0  0  0  0  0  0
  -24.0860  -10.5020   21.2440 C   0  0  0  0  0  0  0  0  0  0  0  0
  -24.4280   -9.5550   22.2330 C   0  0  0  0  0  3  0  0  0  0  0  0
  -23.7040   -8.3490   22.3540 C   0  0  0  0  0  3  0  0  0  0  0  0
  -22.6240   -8.0820   21.4810 C   0  0  0  0  0  0  0  0  0  0  0  0
  -22.3010   -9.0180   20.4800 C   0  0  0  0  0  3  0  0  0  0  0  0
  -23.0260  -10.2150   20.3590 C   0  0  0  0  0  3  0  0  0  0  0  0
  -21.8800   -6.9270   21.5070 O   0  0  0  0  0  0  0  0  0  0  0  0
  -21.7300   -6.1920   22.6560 C   0  0  0  0  0  0  0  0  0  0  0  0
  -21.1810   -6.7500   23.8300 C   0  0  0  0  0  3  0  0  0  0  0  0
  -20.9810   -5.9400   24.9650 C   0  0  0  0  0  3  0  0  0  0  0  0
  -21.3210   -4.5740   24.9260 C   0  0  0  0  0  0  0  0  0  0  0  0
  -21.8650   -4.0180   23.7560 C   0  0  0  0  0  3  0  0  0  0  0  0
  -22.0660   -4.8230   22.6220 C   0  0  0  0  0  0  0  0  0  0  0  0
  -22.5700   -4.2770   21.4890 F   0  0  0  0  0  0  0  0  0  0  0  0
  -21.1200   -3.7950   26.0150 F   0  0  0  0  0  0  0  0  0  0  0  0
  -22.8940  -13.5690   21.1190 C   0  0  0  0  0  0  0  0  0  0  0  0
  -22.0750  -12.8840   21.9090 N   0  0  0  0  0  0  0  0  0  0  0  0
  -22.5090  -14.5650   20.5090 O   0  0  0  0  0  0  0  0  0  0  0  0
  -22.4000  -12.0800   22.4230 H   0  0  0  0  0  0  0  0  0  0  0  0
  -21.1110  -13.1690   22.0010 H   0  0  0  0  0  0  0  0  0  0  0  0
  -25.5700  -15.2700   20.5940 N   0  0  0  0  0  0  0  0  0  0  0  0
  -24.7730  -15.8960   20.5830 H   0  0  0  0  0  0  0  0  0  0  0  0
  -26.4300  -15.7280   20.3230 H   0  0  0  0  0  0  0  0  0  0  0  0
  1  2  2  0
  2  3  1  0
  2 11  1  0
  3 55  1  0
  4  3  2  0
  5  4  1  0
  6  1  1  0
  6  4  1  0
  7  9  1  0
  8  9  1  0
  9  6  1  0
 11 10  1  0
 12 11  1  0
 13 14  1  0
 13 12  1  0
 15 26  2  0
 16 14  1  0
 16 21  1  0
 17 25  1  0
 17 27  1  0
 18 24  1  0
 18 20  1  0
 19 25  1  0
 20 19  1  0
 21 20  2  0
 22 23  1  0
 22 16  2  0
 23 18  2  0
 24 17  1  0
 25 15  1  0
 27 29  2  0
 28 27  1  0
 30 28  1  0
 31 40  2  0
 31 36  1  0
 32 28  1  0
 32 36  1  0
 33 32  1  0
 34 35  1  0
 34 33  1  0
 35 31  1  0
 36 37  2  0
 37 38  1  0
 39 38  2  0
 40 39  1  0
 41 15  1  0
 41 42  1  0
 41 51  1  0
 42 45  1  0
 43 47  1  0
 43 42  1  0
 44 43  2  0
 47 46  1  0
 49 47  1  0
 49 50  1  0
 49 48  1  0
 51 54  1  1
 51 52  1  0
 53 51  1  0
 57 62  1  0
 58 59  1  0
 58 57  1  0
 60 59  1  0
 60 69  1  0
 60 61  1  0
 62 56  1  0
 62 61  1  0
 63 56  2  0
 64 55  1  0
 64 56  1  0
 65 64  1  0
 66 67  2  0
 67 68  1  0
 67 86  1  0
 68 71  1  0
 69 66  1  0
 69 70  1  0
 70 68  2  0
 71 72  1  0
 72 73  2  0
 74 77  1  0
 74 73  1  0
 75 74  2  0
 76 75  1  0
 76 71  2  0
 77 78  1  0
 78 79  1  0
 79 80  2  0
 81 80  1  0
 81 85  1  0
 82 81  2  0
 83 78  2  0
 83 82  1  0
 84 83  1  0
 86 87  1  0
 87 90  1  0
 87 89  1  0
 88 86  2  0
 91 66  1  0
 92 91  1  0
 93 91  1  0
M  ISO  4  13 101  14 101  56 100  64 100
M  END
>  <TORSDO>  (58) 
F 21

>  <SCORE>  (58) 
-12.236

>  <name>  (58) 
57

>  <ligand_id>  (58) 
57

>  <original_smiles>  (58) 
[H]c1c([H])c([H])c2c(c1[H])C([H])([H])C([H])([H])C([H])([H])C2([H])N([H])C(=O)C1([H])N(C(=O)C([H])(N([H])C(=O)C([H])(N([H])C([H])([H])[H])C([H])([H])[H])C(C([H])([H])[H])(C([H])([H])[H])C([H])([H])[H])C([H])([H])c2c([H])c(OC([H])([H])C([H])([H])C([H])(c3c(C([H])([H])N([H])C(=O)N4C([H])([H])C([H])([H])C([H])([H])C([H])(n5nc(-c6c([H])c([H])c(Oc7c([H])c([H])c(F)c([H])c7F)c([H])c6[H])c(C(=O)N([H])[H])c5N([H])[H])C4([H])[H])c(C([H])([H])[H])n(C([H])(C([H])([H])[H])C([H])([H])[H])c3[H])C([H])([H])[H])c([H])c([H])c2C1([H])[H]

>  <smiles>  (58) 
[H]c1c([H])c([H])c2c(c1[H])C([H])([H])C([H])([H])C([H])([H])C2([H])N([H])C(=O)C1([H])N(C(=O)C([H])(N([H])C(=O)C([H])(N([H])C([H])([H])[H])C([H])([H])[H])C(C([H])([H])[H])(C([H])([H])[H])C([H])([H])[H])C([H])([H])c2c([H])c(OC([H])([H])C([H])([H])C([H])(c3c(C([H])([H])N([H])C(=O)N4C([H])([H])C([H])([H])C([H])([H])C([H])(n5nc(-c6c([H])c([H])c(Oc7c([H])c([H])c(F)c([H])c7F)c([H])c6[H])c(C(=O)N([H])[H])c5N([H])[H])C4([H])[H])c(C([H])([H])[H])n(C([H])(C([H])([H])[H])C([H])([H])[H])c3[H])C([H])([H])[H])c([H])c([H])c2C1([H])[H]

$$$$
58:0:0
     RDKit          3D

 92100  0  0  1  0  0  0  0  0999 V2000
  -30.0180  -21.2240   21.7940 C   0  0  0  0  0  3  0  0  0  0  0  0
  -30.5670  -20.0990   22.4450 C   0  0  0  0  0  3  0  0  0  0  0  0
  -29.4530  -19.7860   19.9310 C   0  0  0  0  0  3  0  0  0  0  0  0
  -29.4380  -21.1140   20.5130 C   0  0  0  0  0  0  0  0  0  0  0  0
  -30.5850  -18.8150   21.8510 C   0  0  0  0  0  0  0  0  0  0  0  0
  -30.0200  -18.6180   20.5650 C   0  0  0  0  0  0  0  0  0  0  0  0
  -31.2540  -17.6790   22.6040 C   0  0  0  0  0  1  0  0  0  0  0  0
  -29.3560  -22.4460   18.3640 C   0  0  0  0  0  1  0  0  0  0  0  0
  -27.2710  -22.0910   19.7130 C   0  0  0  0  0  1  0  0  0  0  0  0
  -28.7850  -22.3770   19.7970 C   0  0  1  0  0  0  0  0  0  0  0  0
  -28.9900  -23.8510   20.4530 C   0  0  0  0  0  3  0  0  0  0  0  0
  -28.0670  -25.0590   19.9320 C   0  0  0  0  0  3  0  0  0  0  0  0
  -28.2810  -26.4910   20.2830 O   0  0  0  0  0  0  0  0  0  0  0  0
  -24.5860  -31.9510   23.2440 C   0  0  0  0  0  0  0  0  0  0  0  0
  -27.1770  -27.3670   20.1990 C   0  0  0  0  0  0  0  0  0  0  0  0
  -23.3770  -30.5510   21.6110 C   0  0  0  0  0  3  0  0  0  0  0  0
  -24.8200  -29.0000   20.1830 C   0  0  0  0  0  0  0  0  0  0  0  0
  -25.9180  -30.8580   21.4250 C   0  0  0  0  0  2  0  0  0  0  0  0
  -25.9920  -29.4790   20.7820 C   0  0  0  0  0  0  0  0  0  0  0  0
  -27.1730  -28.6740   20.7840 C   0  0  0  0  0  3  0  0  0  0  0  0
  -25.9840  -26.9600   19.5530 C   0  0  0  0  0  3  0  0  0  0  0  0
  -24.8190  -27.7460   19.5580 C   0  0  0  0  0  3  0  0  0  0  0  0
  -23.5860  -29.8770   20.2310 C   0  0  0  0  0  2  0  0  0  0  0  0
  -24.6460  -31.1380   22.1490 N   0  0  0  0  0  0  0  0  0  0  0  0
  -23.5040  -32.2360   23.7770 O   0  0  0  0  0  0  0  0  0  0  0  0
  -22.7110  -29.5380   22.5740 C   0  0  0  0  0  0  0  0  0  0  0  0
  -21.3850  -29.3620   22.4440 N   0  0  0  0  0  0  0  0  0  0  0  0
  -23.3870  -28.9170   23.3970 O   0  0  0  0  0  0  0  0  0  0  0  0
  -20.8990  -29.9180   21.7550 H   0  0  0  0  0  0  0  0  0  0  0  0
  -18.0010  -28.1830   22.9470 C   0  0  0  0  0  0  0  0  0  0  0  0
  -20.5620  -28.4320   23.2190 C   0  0  0  0  0  3  0  0  0  0  0  0
  -20.6570  -26.9980   22.6480 C   0  0  0  0  0  2  0  0  0  0  0  0
  -19.5550  -26.6750   21.6360 C   0  0  0  0  0  2  0  0  0  0  0  0
  -18.1720  -26.8290   22.2780 C   0  0  0  0  0  2  0  0  0  0  0  0
  -19.1240  -28.9410   23.3750 C   0  0  0  0  0  0  0  0  0  0  0  0
  -18.9090  -30.2070   23.9620 C   0  0  0  0  0  3  0  0  0  0  0  0
  -17.6060  -30.7150   24.1240 C   0  0  0  0  0  3  0  0  0  0  0  0
  -16.4990  -29.9530   23.7130 C   0  0  0  0  0  3  0  0  0  0  0  0
  -16.6980  -28.6880   23.1310 C   0  0  0  0  0  3  0  0  0  0  0  0
  -25.8720  -32.5800   23.8640 C   0  0  0  0  0  3  0  0  0  0  0  0
  -26.3870  -31.8110   25.1410 C   0  0  1  0  0  0  0  0  0  0  0  0
  -25.2930  -31.5790   26.2100 C   0  0  0  0  0  1  0  0  0  0  0  0
  -26.9650  -30.4300   24.7520 C   0  0  0  0  0  1  0  0  0  0  0  0
  -27.5410  -32.6020   25.7990 C   0  0  0  0  0  1  0  0  0  0  0  0
  -25.5680  -33.9810   24.1910 N   0  0  0  0  0  0  0  0  0  0  0  0
  -25.8970  -35.0310   23.4260 C   0  0  0  0  0  0  0  0  0  0  0  0
  -26.5590  -34.9220   22.3900 O   0  0  0  0  0  0  0  0  0  0  0  0
  -24.9810  -34.1390   24.9960 H   0  0  0  0  0  0  0  0  0  0  0  0
  -24.1700  -36.8250   23.0810 C   0  0  0  0  0  1  0  0  0  0  0  0
  -25.4170  -36.4210   23.8840 C   0  0  0  0  0  3  0  0  0  0  0  0
  -27.5580  -37.3050   24.6960 C   0  0  0  0  0  1  0  0  0  0  0  0
  -26.4500  -37.4710   23.7590 N   0  0  0  0  0  0  0  0  0  0  0  0
  -26.0470  -38.3930   23.9060 H   0  0  0  0  0  0  0  0  0  0  0  0
  -30.1450  -17.2400   19.7950 C   0  0  0  0  0  2  0  0  0  0  0  0
  -30.6750  -14.7470   20.2000 C   0  0  0  0  0  0  0  0  0  0  0  0
  -30.4060  -12.5060   19.1700 C   0  0  0  0  0  2  0  0  0  0  0  0
  -29.4530  -12.6400   17.9620 C   0  0  0  0  0  2  0  0  0  0  0  0
  -27.9860  -12.4860   18.4100 C   0  0  0  0  0  2  0  0  0  0  0  0
  -27.6460  -13.3450   19.6580 C   0  0  0  0  0  3  0  0  0  0  0  0
  -28.7240  -13.2150   20.7600 C   0  0  0  0  0  2  0  0  0  0  0  0
  -30.0230  -13.5390   20.1550 N   0  0  0  0  0  0  0  0  0  0  0  0
  -31.8390  -14.8430   19.8080 O   0  0  0  0  0  0  0  0  0  0  0  0
  -29.9240  -15.8780   20.4270 N   0  0  0  0  0  0  0  0  0  0  0  0
  -28.9930  -15.7120   20.7730 H   0  0  0  0  0  0  0  0  0  0  0  0
  -25.2640  -13.9320   20.4180 C   0  0  0  0  0  0  0  0  0  0  0  0
  -24.2070  -13.1550   20.8070 C   0  0  0  0  0  0  0  0  0  0  0  0
  -24.6740  -11.8050   20.7700 C   0  0  0  0  0  0  0  0  0  0  0  0
  -26.3080  -13.0560   20.1680 N   0  0  0  0  0  0  0  0  0  0  0  0
  -25.9600  -11.7710   20.4420 N   0  0  0  0  0  0  0  0  0  0  0  0
  -23.9530  -10.5410   20.9730 C   0  0  0  0  0  0  0  0  0  0  0  0
  -24.3990   -9.5770   21.9050 C   0  0  0  0  0  3  0  0  0  0  0  0
  -23.6790   -8.3780   22.0960 C   0  0  0  0  0  3  0  0  0  0  0  0
  -22.4990   -8.1340   21.3540 C   0  0  0  0  0  0  0  0  0  0  0  0
  -22.0710   -9.0850   20.4110 C   0  0  0  0  0  3  0  0  0  0  0  0
  -22.7920  -10.2760   20.2190 C   0  0  0  0  0  3  0  0  0  0  0  0
  -21.7480   -6.9870   21.4550 O   0  0  0  0  0  0  0  0  0  0  0  0
  -21.7110   -6.2490   22.6110 C   0  0  0  0  0  0  0  0  0  0  0  0
  -21.2890   -6.8060   23.8370 C   0  0  0  0  0  3  0  0  0  0  0  0
  -21.1990   -5.9950   24.9860 C   0  0  0  0  0  3  0  0  0  0  0  0
  -21.5220   -4.6260   24.9090 C   0  0  0  0  0  0  0  0  0  0  0  0
  -21.9380   -4.0690   23.6870 C   0  0  0  0  0  3  0  0  0  0  0  0
  -22.0290   -4.8780   22.5410 C   0  0  0  0  0  0  0  0  0  0  0  0
  -22.4090   -4.3310   21.3620 F   0  0  0  0  0  0  0  0  0  0  0  0
  -21.4290   -3.8440   26.0100 F   0  0  0  0  0  0  0  0  0  0  0  0
  -22.8120  -13.6280   21.0970 C   0  0  0  0  0  0  0  0  0  0  0  0
  -22.0970  -12.9310   21.9740 N   0  0  0  0  0  0  0  0  0  0  0  0
  -22.3640  -14.6500   20.5800 O   0  0  0  0  0  0  0  0  0  0  0  0
  -22.4720  -12.1050   22.4140 H   0  0  0  0  0  0  0  0  0  0  0  0
  -21.1620  -13.2300   22.2090 H   0  0  0  0  0  0  0  0  0  0  0  0
  -25.4190  -15.3030   20.2340 N   0  0  0  0  0  0  0  0  0  0  0  0
  -24.6470  -15.9510   20.3520 H   0  0  0  0  0  0  0  0  0  0  0  0
  -26.2540  -15.7460   19.8740 H   0  0  0  0  0  0  0  0  0  0  0  0
  1  2  1  0
  3  4  1  0
  3  6  2  0
  4  1  2  0
  5  2  2  0
  5  7  1  0
  6  5  1  0
 10  8  1  6
  9 10  1  0
 10 11  1  0
 10  4  1  0
 12 13  1  0
 12 11  2  0
 14 25  2  0
 15 13  1  0
 15 20  1  0
 16 24  1  0
 16 26  1  0
 17 23  1  0
 17 19  1  0
 18 24  1  0
 19 20  2  0
 19 18  1  0
 21 22  1  0
 21 15  2  0
 22 17  2  0
 23 16  1  0
 24 14  1  0
 26 28  2  0
 27 26  1  0
 29 27  1  0
 30 39  2  0
 30 35  1  0
 31 27  1  0
 31 35  1  0
 32 31  1  0
 33 34  1  0
 33 32  1  0
 34 30  1  0
 35 36  2  0
 36 37  1  0
 38 37  2  0
 39 38  1  0
 40 14  1  0
 40 45  1  0
 40 41  1  0
 41 44  1  1
 41 42  1  0
 43 41  1  0
 45 48  1  0
 46 50  1  0
 46 45  1  0
 47 46  2  0
 50 49  1  0
 52 50  1  0
 52 53  1  0
 52 51  1  0
 54 63  1  0
 54  6  1  0
 55 63  1  0
 56 61  1  0
 57 58  1  0
 57 56  1  0
 59 58  1  0
 59 68  1  0
 59 60  1  0
 61 55  1  0
 61 60  1  0
 62 55  2  0
 63 64  1  0
 65 66  2  0
 66 85  1  0
 67 66  1  0
 67 70  1  0
 68 65  1  0
 68 69  1  0
 69 67  2  0
 70 71  1  0
 71 72  2  0
 73 76  1  0
 73 72  1  0
 74 73  2  0
 75 74  1  0
 75 70  2  0
 76 77  1  0
 77 78  1  0
 78 79  2  0
 80 79  1  0
 80 84  1  0
 81 80  2  0
 82 77  2  0
 82 81  1  0
 83 82  1  0
 85 86  1  0
 86 89  1  0
 86 88  1  0
 87 85  2  0
 90 91  1  0
 90 65  1  0
 92 90  1  0
M  ISO  4  12 101  13 101  55 100  63 100
M  END
>  <TORSDO>  (59) 
F 20

>  <SCORE>  (59) 
-13.488

>  <name>  (59) 
58

>  <ligand_id>  (59) 
58

>  <original_smiles>  (59) 
[H]c1c([H])c([H])c2c(c1[H])C([H])([H])C([H])([H])C([H])([H])C2([H])N([H])C(=O)C1([H])N(C(=O)C([H])(N([H])C(=O)C([H])(N([H])C([H])([H])[H])C([H])([H])[H])C(C([H])([H])[H])(C([H])([H])[H])C([H])([H])[H])C([H])([H])c2c([H])c(OC([H])([H])C([H])([H])C(c3c([H])c([H])c(C([H])([H])[H])c(C([H])([H])N([H])C(=O)N4C([H])([H])C([H])([H])C([H])([H])C([H])(n5nc(-c6c([H])c([H])c(Oc7c([H])c([H])c(F)c([H])c7F)c([H])c6[H])c(C(=O)N([H])[H])c5N([H])[H])C4([H])[H])c3[H])(C([H])([H])[H])C([H])([H])[H])c([H])c([H])c2C1([H])[H]

>  <smiles>  (59) 
[H]c1c([H])c([H])c2c(c1[H])C([H])([H])C([H])([H])C([H])([H])C2([H])N([H])C(=O)C1([H])N(C(=O)C([H])(N([H])C(=O)C([H])(N([H])C([H])([H])[H])C([H])([H])[H])C(C([H])([H])[H])(C([H])([H])[H])C([H])([H])[H])C([H])([H])c2c([H])c(OC([H])([H])C([H])([H])C(c3c([H])c([H])c(C([H])([H])[H])c(C([H])([H])N([H])C(=O)N4C([H])([H])C([H])([H])C([H])([H])C([H])(n5nc(-c6c([H])c([H])c(Oc7c([H])c([H])c(F)c([H])c7F)c([H])c6[H])c(C(=O)N([H])[H])c5N([H])[H])C4([H])[H])c3[H])(C([H])([H])[H])C([H])([H])[H])c([H])c([H])c2C1([H])[H]

$$$$
59:0:0
     RDKit          3D

 91 99  0  0  1  0  0  0  0  0999 V2000
  -28.3550  -20.4370   19.7760 C   0  0  0  0  0  3  0  0  0  0  0  0
  -30.1540  -21.3570   20.8390 C   0  0  0  0  0  3  0  0  0  0  0  0
  -29.5460  -20.0670   20.4940 C   0  0  0  0  0  0  0  0  0  0  0  0
  -27.9010  -21.8160   19.4810 C   0  0  0  0  0  0  0  0  0  0  0  0
  -28.5930  -23.0540   19.8680 C   0  0  0  0  0  0  0  0  0  0  0  0
  -29.7420  -22.7000   20.5670 N   0  0  0  0  0  0  0  0  0  0  0  0
  -26.4410  -20.7280   17.7200 C   0  0  0  0  0  1  0  0  0  0  0  0
  -26.5910  -21.9110   18.6890 C   0  0  0  0  0  3  0  0  0  0  0  0
  -25.3560  -23.3570   20.4330 C   0  0  0  0  0  1  0  0  0  0  0  0
  -25.3510  -22.0670   19.5970 C   0  0  0  0  0  2  0  0  0  0  0  0
  -30.2550  -18.5100   20.8400 C   0  0  0  0  0  2  0  0  0  0  0  0
  -30.5750  -15.6450   20.8870 C   0  0  0  0  0  0  0  0  0  0  0  0
  -30.6250  -13.1960   20.0690 C   0  0  0  0  0  2  0  0  0  0  0  0
  -29.8300  -12.9660   18.7600 C   0  0  0  0  0  2  0  0  0  0  0  0
  -28.3460  -12.6990   19.0650 C   0  0  0  0  0  2  0  0  0  0  0  0
  -27.7830  -13.6860   20.1180 C   0  0  0  0  0  3  0  0  0  0  0  0
  -28.7170  -13.8660   21.3340 C   0  0  0  0  0  2  0  0  0  0  0  0
  -30.0040  -14.3500   20.8110 N   0  0  0  0  0  0  0  0  0  0  0  0
  -31.8080  -15.6460   20.7770 O   0  0  0  0  0  0  0  0  0  0  0  0
  -29.8240  -16.9160   20.8860 N   0  0  0  0  0  0  0  0  0  0  0  0
  -28.8270  -16.7680   20.9250 H   0  0  0  0  0  0  0  0  0  0  0  0
  -25.3610  -14.2400   20.7010 C   0  0  0  0  0  0  0  0  0  0  0  0
  -24.2670  -13.4600   20.9470 C   0  0  0  0  0  0  0  0  0  0  0  0
  -24.7250  -12.1070   20.8960 C   0  0  0  0  0  0  0  0  0  0  0  0
  -26.4150  -13.3640   20.5050 N   0  0  0  0  0  0  0  0  0  0  0  0
  -26.0370  -12.0720   20.6910 N   0  0  0  0  0  0  0  0  0  0  0  0
  -23.9750  -10.8450   20.9680 C   0  0  0  0  0  0  0  0  0  0  0  0
  -24.3500   -9.8120   21.8540 C   0  0  0  0  0  3  0  0  0  0  0  0
  -23.5970   -8.6190   21.9220 C   0  0  0  0  0  3  0  0  0  0  0  0
  -22.4550   -8.4510   21.1020 C   0  0  0  0  0  0  0  0  0  0  0  0
  -22.1000   -9.4750   20.2050 C   0  0  0  0  0  3  0  0  0  0  0  0
  -22.8530  -10.6580   20.1360 C   0  0  0  0  0  3  0  0  0  0  0  0
  -21.6800   -7.3170   21.0800 O   0  0  0  0  0  0  0  0  0  0  0  0
  -21.6130   -6.4720   22.1570 C   0  0  0  0  0  0  0  0  0  0  0  0
  -21.2070   -6.9210   23.4330 C   0  0  0  0  0  3  0  0  0  0  0  0
  -21.0840   -6.0050   24.4970 C   0  0  0  0  0  3  0  0  0  0  0  0
  -21.3560   -4.6400   24.2850 C   0  0  0  0  0  0  0  0  0  0  0  0
  -21.7550   -4.1880   23.0150 C   0  0  0  0  0  3  0  0  0  0  0  0
  -21.8800   -5.1020   21.9530 C   0  0  0  0  0  0  0  0  0  0  0  0
  -22.2440   -4.6590   20.7260 F   0  0  0  0  0  0  0  0  0  0  0  0
  -21.2310   -3.7580   25.3050 F   0  0  0  0  0  0  0  0  0  0  0  0
  -22.8570  -13.9410   21.1200 C   0  0  0  0  0  0  0  0  0  0  0  0
  -22.0560  -13.2250   21.9010 N   0  0  0  0  0  0  0  0  0  0  0  0
  -22.4710  -14.9870   20.6000 O   0  0  0  0  0  0  0  0  0  0  0  0
  -22.3800  -12.3760   22.3410 H   0  0  0  0  0  0  0  0  0  0  0  0
  -21.1070  -13.5310   22.0630 H   0  0  0  0  0  0  0  0  0  0  0  0
  -25.5460  -15.6160   20.5960 N   0  0  0  0  0  0  0  0  0  0  0  0
  -24.7720  -16.2670   20.6610 H   0  0  0  0  0  0  0  0  0  0  0  0
  -26.4130  -16.0590   20.3230 H   0  0  0  0  0  0  0  0  0  0  0  0
  -27.9950  -24.6440   19.4340 C   0  0  0  0  0  2  0  0  0  0  0  0
  -28.3580  -26.2190   19.6240 O   0  0  0  0  0  0  0  0  0  0  0  0
  -24.5880  -31.7870   23.0200 C   0  0  0  0  0  0  0  0  0  0  0  0
  -27.3140  -27.2800   19.6390 C   0  0  0  0  0  0  0  0  0  0  0  0
  -23.4290  -30.4470   21.3130 C   0  0  0  0  0  3  0  0  0  0  0  0
  -24.9250  -29.0280   19.7580 C   0  0  0  0  0  0  0  0  0  0  0  0
  -25.9780  -30.8060   21.1350 C   0  0  0  0  0  2  0  0  0  0  0  0
  -26.1040  -29.4500   20.3850 C   0  0  0  0  0  0  0  0  0  0  0  0
  -27.2920  -28.5970   20.3070 C   0  0  0  0  0  3  0  0  0  0  0  0
  -26.0970  -27.0130   18.9680 C   0  0  0  0  0  3  0  0  0  0  0  0
  -24.9440  -27.8330   19.0280 C   0  0  0  0  0  3  0  0  0  0  0  0
  -23.6620  -29.8770   19.8880 C   0  0  0  0  0  2  0  0  0  0  0  0
  -24.6870  -31.0360   21.8770 N   0  0  0  0  0  0  0  0  0  0  0  0
  -23.4970  -31.9840   23.5790 O   0  0  0  0  0  0  0  0  0  0  0  0
  -22.8080  -29.3520   22.2180 C   0  0  0  0  0  0  0  0  0  0  0  0
  -21.4850  -29.1310   22.1080 N   0  0  0  0  0  0  0  0  0  0  0  0
  -23.5230  -28.7030   22.9870 O   0  0  0  0  0  0  0  0  0  0  0  0
  -20.9600  -29.7080   21.4670 H   0  0  0  0  0  0  0  0  0  0  0  0
  -18.1690  -27.7500   22.6240 C   0  0  0  0  0  0  0  0  0  0  0  0
  -20.7250  -28.1040   22.8300 C   0  0  0  0  0  3  0  0  0  0  0  0
  -20.8650  -26.7250   22.1460 C   0  0  0  0  0  2  0  0  0  0  0  0
  -19.7420  -26.4310   21.1440 C   0  0  0  0  0  2  0  0  0  0  0  0
  -18.3780  -26.4670   21.8380 C   0  0  0  0  0  2  0  0  0  0  0  0
  -19.2700  -28.5270   23.0760 C   0  0  0  0  0  0  0  0  0  0  0  0
  -19.0170  -29.7270   23.7750 C   0  0  0  0  0  3  0  0  0  0  0  0
  -17.6980  -30.1520   24.0240 C   0  0  0  0  0  3  0  0  0  0  0  0
  -16.6140  -29.3730   23.5840 C   0  0  0  0  0  3  0  0  0  0  0  0
  -16.8500  -28.1730   22.8910 C   0  0  0  0  0  3  0  0  0  0  0  0
  -25.8400  -32.4490   23.6730 C   0  0  0  0  0  3  0  0  0  0  0  0
  -26.3900  -31.6420   24.9130 C   0  0  1  0  0  0  0  0  0  0  0  0
  -25.3130  -31.3220   25.9760 C   0  0  0  0  0  1  0  0  0  0  0  0
  -27.0180  -30.3030   24.4660 C   0  0  0  0  0  1  0  0  0  0  0  0
  -27.5170  -32.4470   25.6020 C   0  0  0  0  0  1  0  0  0  0  0  0
  -25.4700  -33.8150   24.0800 N   0  0  0  0  0  0  0  0  0  0  0  0
  -25.7500  -34.9250   23.3860 C   0  0  0  0  0  0  0  0  0  0  0  0
  -26.4130  -34.9100   22.3450 O   0  0  0  0  0  0  0  0  0  0  0  0
  -24.8780  -33.8980   24.8930 H   0  0  0  0  0  0  0  0  0  0  0  0
  -23.9340  -36.6590   23.1760 C   0  0  0  0  0  1  0  0  0  0  0  0
  -25.2150  -36.2660   23.9310 C   0  0  0  0  0  3  0  0  0  0  0  0
  -27.3280  -37.2070   24.7570 C   0  0  0  0  0  1  0  0  0  0  0  0
  -26.1960  -37.3710   23.8500 N   0  0  0  0  0  0  0  0  0  0  0  0
  -25.7520  -38.2620   24.0550 H   0  0  0  0  0  0  0  0  0  0  0  0
  1  3  1  0
  3  2  2  0
  3 11  1  0
  4  1  2  0
  4  5  1  0
  5  6  2  0
  6  2  1  0
  8  7  1  0
  8  4  1  0
  8 10  1  0
 10  9  1  0
 11 20  1  0
 13 18  1  0
 14 15  1  0
 14 13  1  0
 16 15  1  0
 16 25  1  0
 16 17  1  0
 18 12  1  0
 18 17  1  0
 19 12  2  0
 20 12  1  0
 20 21  1  0
 22 23  2  0
 23 42  1  0
 24 23  1  0
 24 27  1  0
 25 26  1  0
 25 22  1  0
 26 24  2  0
 27 28  1  0
 28 29  2  0
 30 29  1  0
 31 30  2  0
 32 31  1  0
 32 27  2  0
 33 30  1  0
 33 34  1  0
 34 35  1  0
 35 36  2  0
 37 36  1  0
 37 41  1  0
 38 37  2  0
 39 34  2  0
 39 38  1  0
 40 39  1  0
 42 43  1  0
 43 46  1  0
 43 45  1  0
 44 42  2  0
 47 48  1  0
 47 22  1  0
 49 47  1  0
 50 51  1  0
 50  5  1  0
 51 53  1  0
 52 63  2  0
 53 58  1  0
 54 62  1  0
 54 64  1  0
 55 61  1  0
 55 57  1  0
 56 62  1  0
 57 56  1  0
 58 57  2  0
 59 60  1  0
 59 53  2  0
 60 55  2  0
 61 54  1  0
 62 52  1  0
 64 66  2  0
 65 64  1  0
 67 65  1  0
 68 77  2  0
 68 73  1  0
 69 65  1  0
 69 73  1  0
 70 69  1  0
 71 72  1  0
 71 70  1  0
 72 68  1  0
 73 74  2  0
 74 75  1  0
 76 75  2  0
 77 76  1  0
 78 52  1  0
 78 83  1  0
 78 79  1  0
 79 82  1  1
 79 80  1  0
 81 79  1  0
 83 86  1  0
 84 88  1  0
 84 83  1  0
 85 84  2  0
 88 87  1  0
 90 88  1  0
 90 91  1  0
 90 89  1  0
M  ISO  4  12 100  20 100  50 101  51 101
M  END
>  <TORSDO>  (60) 
F 20

>  <SCORE>  (60) 
-13.951

>  <name>  (60) 
59

>  <ligand_id>  (60) 
59

>  <original_smiles>  (60) 
[H]c1nc(C([H])([H])Oc2c([H])c([H])c3c(c2[H])C([H])([H])N(C(=O)C([H])(N([H])C(=O)C([H])(N([H])C([H])([H])[H])C([H])([H])[H])C(C([H])([H])[H])(C([H])([H])[H])C([H])([H])[H])C([H])(C(=O)N([H])C2([H])c4c([H])c([H])c([H])c([H])c4C([H])([H])C([H])([H])C2([H])[H])C3([H])[H])c(C([H])(C([H])([H])[H])C([H])([H])C([H])([H])[H])c([H])c1C([H])([H])N([H])C(=O)N1C([H])([H])C([H])([H])C([H])([H])C([H])(n2nc(-c3c([H])c([H])c(Oc4c([H])c([H])c(F)c([H])c4F)c([H])c3[H])c(C(=O)N([H])[H])c2N([H])[H])C1([H])[H]

>  <smiles>  (60) 
[H]c1nc(C([H])([H])Oc2c([H])c([H])c3c(c2[H])C([H])([H])N(C(=O)C([H])(N([H])C(=O)C([H])(N([H])C([H])([H])[H])C([H])([H])[H])C(C([H])([H])[H])(C([H])([H])[H])C([H])([H])[H])C([H])(C(=O)N([H])C2([H])c4c([H])c([H])c([H])c([H])c4C([H])([H])C([H])([H])C2([H])[H])C3([H])[H])c(C([H])(C([H])([H])[H])C([H])([H])C([H])([H])[H])c([H])c1C([H])([H])N([H])C(=O)N1C([H])([H])C([H])([H])C([H])([H])C([H])(n2nc(-c3c([H])c([H])c(Oc4c([H])c([H])c(F)c([H])c4F)c([H])c3[H])c(C(=O)N([H])[H])c2N([H])[H])C1([H])[H]

$$$$
60:0:0
     RDKit          3D

 95103  0  0  1  0  0  0  0  0999 V2000
  -26.7850  -21.5640   19.2710 C   0  0  0  0  0  3  0  0  0  0  0  0
  -27.0960  -22.9120   19.5700 C   0  0  0  0  0  3  0  0  0  0  0  0
  -29.2530  -22.1190   20.3360 C   0  0  0  0  0  3  0  0  0  0  0  0
  -27.6750  -20.4810   19.4830 C   0  0  0  0  0  0  0  0  0  0  0  0
  -28.3300  -23.2900   20.1320 C   0  0  0  0  0  0  0  0  0  0  0  0
  -28.9870  -20.6720   20.0070 C   0  0  0  0  0  0  0  0  0  0  0  0
  -27.2090  -19.1480   19.1130 C   0  0  0  0  0  0  0  0  0  0  0  0
  -26.8500  -18.0840   18.8220 N   0  0  0  0  0  0  0  0  0  0  0  0
  -27.6450  -24.9540   22.0130 C   0  0  0  0  0  1  0  0  0  0  0  0
  -28.4460  -24.8590   20.7050 C   0  0  0  0  0  3  0  0  0  0  0  0
  -28.2810  -26.2480   19.9720 O   0  0  0  0  0  0  0  0  0  0  0  0
  -24.6140  -31.9070   23.1450 C   0  0  0  0  0  0  0  0  0  0  0  0
  -27.1930  -27.2020   20.0640 C   0  0  0  0  0  0  0  0  0  0  0  0
  -23.4060  -30.5080   21.5150 C   0  0  0  0  0  3  0  0  0  0  0  0
  -24.8500  -28.9420   20.0710 C   0  0  0  0  0  0  0  0  0  0  0  0
  -25.9580  -30.7910   21.3150 C   0  0  0  0  0  2  0  0  0  0  0  0
  -26.0360  -29.3960   20.6620 C   0  0  0  0  0  0  0  0  0  0  0  0
  -27.2090  -28.5450   20.6340 C   0  0  0  0  0  3  0  0  0  0  0  0
  -25.9770  -26.8540   19.4430 C   0  0  0  0  0  3  0  0  0  0  0  0
  -24.8330  -27.6850   19.4470 C   0  0  0  0  0  3  0  0  0  0  0  0
  -23.6170  -29.8340   20.1330 C   0  0  0  0  0  2  0  0  0  0  0  0
  -24.6810  -31.0920   22.0460 N   0  0  0  0  0  0  0  0  0  0  0  0
  -23.5320  -32.1780   23.6880 O   0  0  0  0  0  0  0  0  0  0  0  0
  -22.7500  -29.4900   22.4830 C   0  0  0  0  0  0  0  0  0  0  0  0
  -21.4230  -29.3040   22.3740 N   0  0  0  0  0  0  0  0  0  0  0  0
  -23.4390  -28.8680   23.2950 O   0  0  0  0  0  0  0  0  0  0  0  0
  -20.9210  -29.8570   21.6920 H   0  0  0  0  0  0  0  0  0  0  0  0
  -18.0640  -28.0560   22.9150 C   0  0  0  0  0  0  0  0  0  0  0  0
  -20.6230  -28.3530   23.1510 C   0  0  0  0  0  3  0  0  0  0  0  0
  -20.7370  -26.9240   22.5710 C   0  0  0  0  0  2  0  0  0  0  0  0
  -19.6270  -26.5890   21.5700 C   0  0  0  0  0  2  0  0  0  0  0  0
  -18.2520  -26.7130   22.2290 C   0  0  0  0  0  2  0  0  0  0  0  0
  -19.1780  -28.8320   23.3330 C   0  0  0  0  0  0  0  0  0  0  0  0
  -18.9470  -30.0870   23.9380 C   0  0  0  0  0  3  0  0  0  0  0  0
  -17.6370  -30.5670   24.1260 C   0  0  0  0  0  3  0  0  0  0  0  0
  -16.5390  -29.7880   23.7220 C   0  0  0  0  0  3  0  0  0  0  0  0
  -16.7530  -28.5340   23.1230 C   0  0  0  0  0  3  0  0  0  0  0  0
  -25.8930  -32.5560   23.7580 C   0  0  0  0  0  3  0  0  0  0  0  0
  -25.5700  -33.9510   24.1010 N   0  0  0  0  0  0  0  0  0  0  0  0
  -25.9040  -35.0170   23.3630 C   0  0  0  0  0  0  0  0  0  0  0  0
  -26.5840  -34.9310   22.3370 O   0  0  0  0  0  0  0  0  0  0  0  0
  -24.9700  -34.0920   24.9010 H   0  0  0  0  0  0  0  0  0  0  0  0
  -24.1920  -36.8270   23.0010 C   0  0  0  0  0  1  0  0  0  0  0  0
  -25.4090  -36.3980   23.8370 C   0  0  0  0  0  3  0  0  0  0  0  0
  -27.5190  -37.2620   24.7480 C   0  0  0  0  0  1  0  0  0  0  0  0
  -26.4480  -37.4510   23.7750 N   0  0  0  0  0  0  0  0  0  0  0  0
  -26.0390  -38.3700   23.9270 H   0  0  0  0  0  0  0  0  0  0  0  0
  -26.4250  -31.7890   25.0320 C   0  0  1  0  0  0  0  0  0  0  0  0
  -25.3420  -31.5450   26.1080 C   0  0  0  0  0  1  0  0  0  0  0  0
  -27.0150  -30.4150   24.6410 C   0  0  0  0  0  1  0  0  0  0  0  0
  -27.5770  -32.5910   25.6820 C   0  0  0  0  0  1  0  0  0  0  0  0
  -30.0170  -19.3330   19.9510 C   0  0  0  0  0  3  0  0  0  0  0  0
  -31.4000  -19.8270   20.0180 N   0  0  0  0  0  4  0  0  0  0  0  0
  -31.6290  -20.1350   20.9440 H   0  0  0  0  0  0  0  0  0  0  0  0
  -31.5260  -20.5900   19.3790 H   0  0  0  0  0  0  0  0  0  0  0  0
  -32.0350  -19.0950   19.7570 H   0  0  0  0  0  0  0  0  0  0  0  0
  -29.9350  -17.8710   20.8260 C   0  0  0  0  0  2  0  0  0  0  0  0
  -30.7530  -15.1860   20.3010 C   0  0  0  0  0  0  0  0  0  0  0  0
  -30.6790  -12.8260   19.3370 C   0  0  0  0  0  2  0  0  0  0  0  0
  -29.7440  -12.7530   18.1070 C   0  0  0  0  0  2  0  0  0  0  0  0
  -28.2790  -12.5370   18.5370 C   0  0  0  0  0  2  0  0  0  0  0  0
  -27.8620  -13.4670   19.7060 C   0  0  0  0  0  3  0  0  0  0  0  0
  -28.9150  -13.4850   20.8310 C   0  0  0  0  0  2  0  0  0  0  0  0
  -30.1770  -13.9180   20.2160 N   0  0  0  0  0  0  0  0  0  0  0  0
  -31.9770  -15.2630   20.1500 O   0  0  0  0  0  0  0  0  0  0  0  0
  -29.9170  -16.3470   20.3310 N   0  0  0  0  0  0  0  0  0  0  0  0
  -28.9630  -16.0530   20.1860 H   0  0  0  0  0  0  0  0  0  0  0  0
  -25.4810  -14.0530   20.4320 C   0  0  0  0  0  0  0  0  0  0  0  0
  -24.4140  -13.2800   20.7990 C   0  0  0  0  0  0  0  0  0  0  0  0
  -24.8790  -11.9300   20.7800 C   0  0  0  0  0  0  0  0  0  0  0  0
  -26.5240  -13.1720   20.2020 N   0  0  0  0  0  0  0  0  0  0  0  0
  -26.1720  -11.8910   20.4800 N   0  0  0  0  0  0  0  0  0  0  0  0
  -24.1490  -10.6690   20.9680 C   0  0  0  0  0  0  0  0  0  0  0  0
  -24.5550   -9.7160   21.9270 C   0  0  0  0  0  3  0  0  0  0  0  0
  -23.8240   -8.5200   22.1030 C   0  0  0  0  0  3  0  0  0  0  0  0
  -22.6720   -8.2710   21.3200 C   0  0  0  0  0  0  0  0  0  0  0  0
  -22.2850   -9.2130   20.3500 C   0  0  0  0  0  3  0  0  0  0  0  0
  -23.0180  -10.3990   20.1720 C   0  0  0  0  0  3  0  0  0  0  0  0
  -21.9150   -7.1270   21.4050 O   0  0  0  0  0  0  0  0  0  0  0  0
  -21.8080   -6.4200   22.5740 C   0  0  0  0  0  0  0  0  0  0  0  0
  -21.3000   -7.0060   23.7550 C   0  0  0  0  0  3  0  0  0  0  0  0
  -21.1420   -6.2240   24.9170 C   0  0  0  0  0  3  0  0  0  0  0  0
  -21.4810   -4.8580   24.8990 C   0  0  0  0  0  0  0  0  0  0  0  0
  -21.9800   -4.2720   23.7230 C   0  0  0  0  0  3  0  0  0  0  0  0
  -22.1410   -5.0510   22.5640 C   0  0  0  0  0  0  0  0  0  0  0  0
  -22.6040   -4.4760   21.4270 F   0  0  0  0  0  0  0  0  0  0  0  0
  -21.3210   -4.1040   26.0120 F   0  0  0  0  0  0  0  0  0  0  0  0
  -23.0140  -13.7610   21.0500 C   0  0  0  0  0  0  0  0  0  0  0  0
  -22.2790  -13.0780   21.9210 N   0  0  0  0  0  0  0  0  0  0  0  0
  -22.5810  -14.7780   20.5090 O   0  0  0  0  0  0  0  0  0  0  0  0
  -22.6410  -12.2550   22.3790 H   0  0  0  0  0  0  0  0  0  0  0  0
  -21.3390  -13.3830   22.1320 H   0  0  0  0  0  0  0  0  0  0  0  0
  -25.6380  -15.4230   20.2420 N   0  0  0  0  0  0  0  0  0  0  0  0
  -24.8440  -16.0500   20.3020 H   0  0  0  0  0  0  0  0  0  0  0  0
  -26.4330  -15.8570   19.7900 H   0  0  0  0  0  0  0  0  0  0  0  0
  1  4  2  0
  1  2  1  0
  2  5  2  0
  4  6  1  0
  5  3  1  0
  5 10  1  0
  6  3  2  0
  7  4  1  0
  8  7  3  0
 10  9  1  0
 11 13  1  0
 11 10  1  0
 12 23  2  0
 13 18  1  0
 14 22  1  0
 14 24  1  0
 15 21  1  0
 15 17  1  0
 16 22  1  0
 17 16  1  0
 18 17  2  0
 19 20  1  0
 19 13  2  0
 20 15  2  0
 21 14  1  0
 22 12  1  0
 24 26  2  0
 25 24  1  0
 27 25  1  0
 28 37  2  0
 28 33  1  0
 29 25  1  0
 29 33  1  0
 30 29  1  0
 31 32  1  0
 31 30  1  0
 32 28  1  0
 33 34  2  0
 34 35  1  0
 36 35  2  0
 37 36  1  0
 38 12  1  0
 38 39  1  0
 38 48  1  0
 39 42  1  0
 40 44  1  0
 40 39  1  0
 41 40  2  0
 44 43  1  0
 46 44  1  0
 46 47  1  0
 46 45  1  0
 48 51  1  1
 48 49  1  0
 50 48  1  0
 52  6  1  0
 52 53  1  0
 52 57  1  0
 53 54  1  0
 55 53  1  0
 56 53  1  0
 58 66  1  0
 59 64  1  0
 60 61  1  0
 60 59  1  0
 62 61  1  0
 62 71  1  0
 62 63  1  0
 64 58  1  0
 64 63  1  0
 65 58  2  0
 66 57  1  0
 67 66  1  0
 68 69  2  0
 69 88  1  0
 70 69  1  0
 70 73  1  0
 71 68  1  0
 71 72  1  0
 72 70  2  0
 73 74  1  0
 74 75  2  0
 76 79  1  0
 76 75  1  0
 77 76  2  0
 78 77  1  0
 78 73  2  0
 79 80  1  0
 80 81  1  0
 81 82  2  0
 83 82  1  0
 83 87  1  0
 84 83  2  0
 85 80  2  0
 85 84  1  0
 86 85  1  0
 88 89  1  0
 89 92  1  0
 89 91  1  0
 90 88  2  0
 93 94  1  0
 93 68  1  0
 95 93  1  0
M  ISO  4  10 101  11 101  58 100  66 100
M  END
>  <TORSDO>  (61) 
F 21

>  <SCORE>  (61) 
-13.822

>  <name>  (61) 
60

>  <ligand_id>  (61) 
60

>  <original_smiles>  (61) 
[H]c1c([H])c([H])c2c(c1[H])C([H])([H])C([H])([H])C([H])([H])C2([H])N([H])C(=O)C1([H])N(C(=O)C([H])(N([H])C(=O)C([H])(N([H])C([H])([H])[H])C([H])([H])[H])C(C([H])([H])[H])(C([H])([H])[H])C([H])([H])[H])C([H])([H])c2c([H])c(OC([H])(c3c([H])c([H])c(C#N)c(C([H])(C([H])([H])N([H])C(=O)N4C([H])([H])C([H])([H])C([H])([H])C([H])(n5nc(-c6c([H])c([H])c(Oc7c([H])c([H])c(F)c([H])c7F)c([H])c6[H])c(C(=O)N([H])[H])c5N([H])[H])C4([H])[H])[N+]([H])([H])[H])c3[H])C([H])([H])[H])c([H])c([H])c2C1([H])[H]

>  <smiles>  (61) 
[H]c1c([H])c([H])c2c(c1[H])C([H])([H])C([H])([H])C([H])([H])C2([H])N([H])C(=O)C1([H])N(C(=O)C([H])(N([H])C(=O)C([H])(N([H])C([H])([H])[H])C([H])([H])[H])C(C([H])([H])[H])(C([H])([H])[H])C([H])([H])[H])C([H])([H])c2c([H])c(OC([H])(c3c([H])c([H])c(C#N)c(C([H])(C([H])([H])N([H])C(=O)N4C([H])([H])C([H])([H])C([H])([H])C([H])(n5nc(-c6c([H])c([H])c(Oc7c([H])c([H])c(F)c([H])c7F)c([H])c6[H])c(C(=O)N([H])[H])c5N([H])[H])C4([H])[H])[N+]([H])([H])[H])c3[H])C([H])([H])[H])c([H])c([H])c2C1([H])[H]

$$$$
61:0:0
     RDKit          3D

 86 93  0  0  1  0  0  0  0  0999 V2000
  -27.7320  -24.1560   18.4250 C   0  0  0  0  0  1  0  0  0  0  0  0
  -28.4480  -24.3490   19.7680 C   0  0  0  0  0  3  0  0  0  0  0  0
  -27.2090  -22.3300   21.0520 C   0  0  0  0  0  1  0  0  0  0  0  0
  -28.5950  -22.7160   20.5280 C   0  0  0  0  0  3  0  0  0  0  0  0
  -29.2360  -21.2940   20.0020 O   0  0  0  0  0  0  0  0  0  0  0  0
  -29.1270  -19.7290   20.4970 C   0  0  0  0  0  3  0  0  0  0  0  0
  -30.0110  -18.2180   20.0630 C   0  0  0  0  0  3  0  0  0  0  0  0
  -30.4870  -15.3170   20.2050 C   0  0  0  0  0  0  0  0  0  0  0  0
  -30.4340  -12.8800   19.3230 C   0  0  0  0  0  2  0  0  0  0  0  0
  -29.5080  -12.6990   18.0940 C   0  0  0  0  0  2  0  0  0  0  0  0
  -28.0580  -12.4410   18.5370 C   0  0  0  0  0  2  0  0  0  0  0  0
  -27.6210  -13.3960   19.6750 C   0  0  0  0  0  3  0  0  0  0  0  0
  -28.6760  -13.5250   20.7960 C   0  0  0  0  0  2  0  0  0  0  0  0
  -29.9090  -14.0180   20.1650 N   0  0  0  0  0  0  0  0  0  0  0  0
  -31.6970  -15.3160   19.9380 O   0  0  0  0  0  0  0  0  0  0  0  0
  -29.7420  -16.5910   20.3380 N   0  0  0  0  0  0  0  0  0  0  0  0
  -28.7730  -16.4110   20.5620 H   0  0  0  0  0  0  0  0  0  0  0  0
  -25.2530  -13.9600   20.4340 C   0  0  0  0  0  0  0  0  0  0  0  0
  -24.1910  -13.1850   20.8070 C   0  0  0  0  0  0  0  0  0  0  0  0
  -24.6570  -11.8350   20.7780 C   0  0  0  0  0  0  0  0  0  0  0  0
  -26.2940  -13.0830   20.1890 N   0  0  0  0  0  0  0  0  0  0  0  0
  -25.9470  -11.7980   20.4650 N   0  0  0  0  0  0  0  0  0  0  0  0
  -23.9270  -10.5730   20.9710 C   0  0  0  0  0  0  0  0  0  0  0  0
  -24.3640   -9.6010   21.8970 C   0  0  0  0  0  3  0  0  0  0  0  0
  -23.6310   -8.4070   22.0800 C   0  0  0  0  0  3  0  0  0  0  0  0
  -22.4490   -8.1780   21.3370 C   0  0  0  0  0  0  0  0  0  0  0  0
  -22.0330   -9.1390   20.3990 C   0  0  0  0  0  3  0  0  0  0  0  0
  -22.7660  -10.3230   20.2140 C   0  0  0  0  0  3  0  0  0  0  0  0
  -21.6880   -7.0370   21.4300 O   0  0  0  0  0  0  0  0  0  0  0  0
  -21.6550   -6.2860   22.5770 C   0  0  0  0  0  0  0  0  0  0  0  0
  -21.2690   -6.8370   23.8180 C   0  0  0  0  0  3  0  0  0  0  0  0
  -21.1810   -6.0130   24.9580 C   0  0  0  0  0  3  0  0  0  0  0  0
  -21.4690   -4.6400   24.8580 C   0  0  0  0  0  0  0  0  0  0  0  0
  -21.8500   -4.0870   23.6220 C   0  0  0  0  0  3  0  0  0  0  0  0
  -21.9390   -4.9080   22.4840 C   0  0  0  0  0  0  0  0  0  0  0  0
  -22.2850   -4.3670   21.2920 F   0  0  0  0  0  0  0  0  0  0  0  0
  -21.3780   -3.8460   25.9500 F   0  0  0  0  0  0  0  0  0  0  0  0
  -22.7950  -13.6650   21.0740 C   0  0  0  0  0  0  0  0  0  0  0  0
  -22.0650  -12.9750   21.9440 N   0  0  0  0  0  0  0  0  0  0  0  0
  -22.3600  -14.6880   20.5470 O   0  0  0  0  0  0  0  0  0  0  0  0
  -22.4300  -12.1490   22.3920 H   0  0  0  0  0  0  0  0  0  0  0  0
  -21.1280  -13.2790   22.1650 H   0  0  0  0  0  0  0  0  0  0  0  0
  -25.4140  -15.3310   20.2520 N   0  0  0  0  0  0  0  0  0  0  0  0
  -24.6440  -15.9820   20.3610 H   0  0  0  0  0  0  0  0  0  0  0  0
  -26.2500  -15.7670   19.8840 H   0  0  0  0  0  0  0  0  0  0  0  0
  -28.2980  -25.9350   20.2410 O   0  0  0  0  0  0  0  0  0  0  0  0
  -24.6750  -31.8710   23.1420 C   0  0  0  0  0  0  0  0  0  0  0  0
  -27.2490  -26.9930   20.1320 C   0  0  0  0  0  0  0  0  0  0  0  0
  -23.4800  -30.4540   21.5240 C   0  0  0  0  0  3  0  0  0  0  0  0
  -24.9290  -28.8560   20.0980 C   0  0  0  0  0  0  0  0  0  0  0  0
  -26.0440  -30.6860   21.3550 C   0  0  0  0  0  2  0  0  0  0  0  0
  -26.1190  -29.2740   20.7050 C   0  0  0  0  0  0  0  0  0  0  0  0
  -27.2670  -28.3630   20.7000 C   0  0  0  0  0  3  0  0  0  0  0  0
  -26.0210  -26.7260   19.4860 C   0  0  0  0  0  3  0  0  0  0  0  0
  -24.9050  -27.6020   19.4690 C   0  0  0  0  0  3  0  0  0  0  0  0
  -23.7030  -29.7650   20.1500 C   0  0  0  0  0  2  0  0  0  0  0  0
  -24.7550  -31.0310   22.0590 N   0  0  0  0  0  0  0  0  0  0  0  0
  -23.5890  -32.1550   23.6700 O   0  0  0  0  0  0  0  0  0  0  0  0
  -22.8030  -29.4590   22.5020 C   0  0  0  0  0  0  0  0  0  0  0  0
  -21.4710  -29.2930   22.3980 N   0  0  0  0  0  0  0  0  0  0  0  0
  -23.4820  -28.8360   23.3220 O   0  0  0  0  0  0  0  0  0  0  0  0
  -20.9760  -29.8460   21.7120 H   0  0  0  0  0  0  0  0  0  0  0  0
  -18.0990  -28.0750   22.9560 C   0  0  0  0  0  0  0  0  0  0  0  0
  -20.6620  -28.3560   23.1850 C   0  0  0  0  0  3  0  0  0  0  0  0
  -20.7620  -26.9210   22.6170 C   0  0  0  0  0  2  0  0  0  0  0  0
  -19.6480  -26.5870   21.6180 C   0  0  0  0  0  2  0  0  0  0  0  0
  -18.2740  -26.7260   22.2800 C   0  0  0  0  0  2  0  0  0  0  0  0
  -19.2190  -28.8480   23.3670 C   0  0  0  0  0  0  0  0  0  0  0  0
  -18.9980  -30.1080   23.9620 C   0  0  0  0  0  3  0  0  0  0  0  0
  -17.6920  -30.5970   24.1500 C   0  0  0  0  0  3  0  0  0  0  0  0
  -16.5870  -29.8240   23.7520 C   0  0  0  0  0  3  0  0  0  0  0  0
  -16.7920  -28.5640   23.1620 C   0  0  0  0  0  3  0  0  0  0  0  0
  -25.9460  -32.5300   23.7600 C   0  0  0  0  0  3  0  0  0  0  0  0
  -26.4870  -31.7600   25.0280 C   0  0  1  0  0  0  0  0  0  0  0  0
  -25.4090  -31.5040   26.1090 C   0  0  0  0  0  1  0  0  0  0  0  0
  -27.0850  -30.3910   24.6330 C   0  0  0  0  0  1  0  0  0  0  0  0
  -27.6330  -32.5670   25.6810 C   0  0  0  0  0  1  0  0  0  0  0  0
  -25.6090  -33.9180   24.1180 N   0  0  0  0  0  0  0  0  0  0  0  0
  -25.9140  -34.9970   23.3830 C   0  0  0  0  0  0  0  0  0  0  0  0
  -26.5710  -34.9270   22.3410 O   0  0  0  0  0  0  0  0  0  0  0  0
  -25.0200  -34.0440   24.9280 H   0  0  0  0  0  0  0  0  0  0  0  0
  -24.1530  -36.7750   23.0980 C   0  0  0  0  0  1  0  0  0  0  0  0
  -25.4130  -36.3690   23.8800 C   0  0  0  0  0  3  0  0  0  0  0  0
  -27.5480  -37.2700   24.6960 C   0  0  0  0  0  1  0  0  0  0  0  0
  -26.4280  -37.4410   23.7750 N   0  0  0  0  0  0  0  0  0  0  0  0
  -26.0090  -38.3510   23.9490 H   0  0  0  0  0  0  0  0  0  0  0  0
  2  1  1  0
  2 46  1  0
  2  4  1  0
  4  3  1  0
  5  6  1  0
  5  4  1  0
  7 16  1  0
  7  6  2  0
  8 16  1  0
  9 14  1  0
 10 11  1  0
 10  9  1  0
 12 11  1  0
 12 21  1  0
 12 13  1  0
 14  8  1  0
 14 13  1  0
 15  8  2  0
 16 17  1  0
 18 19  2  0
 19 38  1  0
 20 19  1  0
 20 23  1  0
 21 18  1  0
 21 22  1  0
 22 20  2  0
 23 24  1  0
 24 25  2  0
 26 29  1  0
 26 25  1  0
 27 26  2  0
 28 27  1  0
 28 23  2  0
 29 30  1  0
 30 31  1  0
 31 32  2  0
 33 32  1  0
 33 37  1  0
 34 33  2  0
 35 30  2  0
 35 34  1  0
 36 35  1  0
 38 39  1  0
 39 42  1  0
 39 41  1  0
 40 38  2  0
 43 44  1  0
 43 18  1  0
 45 43  1  0
 47 58  2  0
 48 46  1  0
 48 53  1  0
 49 57  1  0
 49 59  1  0
 50 56  1  0
 50 52  1  0
 51 57  1  0
 52 51  1  0
 53 52  2  0
 54 48  2  0
 55 54  1  0
 55 50  2  0
 56 49  1  0
 57 47  1  0
 59 61  2  0
 60 59  1  0
 62 60  1  0
 63 72  2  0
 63 68  1  0
 64 60  1  0
 64 68  1  0
 65 64  1  0
 66 67  1  0
 66 65  1  0
 67 63  1  0
 68 69  2  0
 69 70  1  0
 71 70  2  0
 72 71  1  0
 73 47  1  0
 73 78  1  0
 73 74  1  0
 74 77  1  1
 74 75  1  0
 76 74  1  0
 78 81  1  0
 79 83  1  0
 79 78  1  0
 80 79  2  0
 83 82  1  0
 85 83  1  0
 85 86  1  0
 85 84  1  0
M  ISO  4   2 101   8 100  16 100  46 101
M  END
>  <TORSDO>  (62) 
F 20

>  <SCORE>  (62) 
-15.353

>  <name>  (62) 
61

>  <ligand_id>  (62) 
61

>  <original_smiles>  (62) 
[H]c1c([H])c([H])c2c(c1[H])C([H])([H])C([H])([H])C([H])([H])C2([H])N([H])C(=O)C1([H])N(C(=O)C([H])(N([H])C(=O)C([H])(N([H])C([H])([H])[H])C([H])([H])[H])C(C([H])([H])[H])(C([H])([H])[H])C([H])([H])[H])C([H])([H])c2c([H])c(OC([H])(C([H])([H])[H])C([H])(OC([H])([H])C([H])([H])N([H])C(=O)N3C([H])([H])C([H])([H])C([H])([H])C([H])(n4nc(-c5c([H])c([H])c(Oc6c([H])c([H])c(F)c([H])c6F)c([H])c5[H])c(C(=O)N([H])[H])c4N([H])[H])C3([H])[H])C([H])([H])[H])c([H])c([H])c2C1([H])[H]

>  <smiles>  (62) 
[H]c1c([H])c([H])c2c(c1[H])C([H])([H])C([H])([H])C([H])([H])C2([H])N([H])C(=O)C1([H])N(C(=O)C([H])(N([H])C(=O)C([H])(N([H])C([H])([H])[H])C([H])([H])[H])C(C([H])([H])[H])(C([H])([H])[H])C([H])([H])[H])C([H])([H])c2c([H])c(OC([H])(C([H])([H])[H])C([H])(OC([H])([H])C([H])([H])N([H])C(=O)N3C([H])([H])C([H])([H])C([H])([H])C([H])(n4nc(-c5c([H])c([H])c(Oc6c([H])c([H])c(F)c([H])c6F)c([H])c5[H])c(C(=O)N([H])[H])c4N([H])[H])C3([H])[H])C([H])([H])[H])c([H])c([H])c2C1([H])[H]

$$$$
62:0:0
     RDKit          3D

 95102  0  0  1  0  0  0  0  0999 V2000
  -30.1850  -20.3180   20.1690 C   0  0  0  0  0  3  0  0  0  0  0  0
  -30.0580  -19.2090   21.2450 C   0  0  0  0  0  3  0  0  0  0  0  0
  -30.4700  -17.9040   21.2760 C   0  0  0  0  0  0  0  0  0  0  0  0
  -30.1430  -17.0560   22.4960 C   0  0  0  0  0  1  0  0  0  0  0  0
  -31.2980  -17.1220   20.2280 C   0  0  0  0  0  2  0  0  0  0  0  0
  -31.4020  -14.6410   19.7910 C   0  0  0  0  0  0  0  0  0  0  0  0
  -31.0670  -12.3210   18.9880 C   0  0  0  0  0  2  0  0  0  0  0  0
  -30.0980  -12.3240   17.7860 C   0  0  0  0  0  2  0  0  0  0  0  0
  -28.6330  -12.2380   18.2640 C   0  0  0  0  0  2  0  0  0  0  0  0
  -28.3100  -13.2320   19.4100 C   0  0  0  0  0  3  0  0  0  0  0  0
  -29.4070  -13.2390   20.5000 C   0  0  0  0  0  2  0  0  0  0  0  0
  -30.7010  -13.4630   19.8420 N   0  0  0  0  0  0  0  0  0  0  0  0
  -32.6110  -14.6520   19.5450 O   0  0  0  0  0  0  0  0  0  0  0  0
  -29.8300  -16.1200   18.6410 C   0  0  0  0  0  1  0  0  0  0  0  0
  -30.6980  -15.8230   19.7920 N   0  0  0  0  0  0  0  0  0  0  0  0
  -25.9900  -13.9790   20.1960 C   0  0  0  0  0  0  0  0  0  0  0  0
  -24.8960  -13.2740   20.6190 C   0  0  0  0  0  0  0  0  0  0  0  0
  -25.2910  -11.9000   20.6170 C   0  0  0  0  0  0  0  0  0  0  0  0
  -26.9780  -13.0380   19.9600 N   0  0  0  0  0  0  0  0  0  0  0  0
  -26.5690  -11.7850   20.2780 N   0  0  0  0  0  0  0  0  0  0  0  0
  -24.5170  -10.6810   20.8610 C   0  0  0  0  0  0  0  0  0  0  0  0
  -24.8780   -9.7780   21.8850 C   0  0  0  0  0  3  0  0  0  0  0  0
  -24.1080   -8.6160   22.1150 C   0  0  0  0  0  3  0  0  0  0  0  0
  -22.9680   -8.3520   21.3200 C   0  0  0  0  0  0  0  0  0  0  0  0
  -22.6290   -9.2450   20.2870 C   0  0  0  0  0  3  0  0  0  0  0  0
  -23.3950  -10.3980   20.0580 C   0  0  0  0  0  3  0  0  0  0  0  0
  -22.1730   -7.2410   21.4540 O   0  0  0  0  0  0  0  0  0  0  0  0
  -21.9690   -6.6490   22.6750 C   0  0  0  0  0  0  0  0  0  0  0  0
  -21.3970   -7.3540   23.7570 C   0  0  0  0  0  3  0  0  0  0  0  0
  -21.1470   -6.6880   24.9740 C   0  0  0  0  0  3  0  0  0  0  0  0
  -21.4480   -5.3180   25.1030 C   0  0  0  0  0  0  0  0  0  0  0  0
  -22.0100   -4.6150   24.0230 C   0  0  0  0  0  3  0  0  0  0  0  0
  -22.2670   -5.2780   22.8110 C   0  0  0  0  0  0  0  0  0  0  0  0
  -22.7870   -4.5910   21.7660 F   0  0  0  0  0  0  0  0  0  0  0  0
  -21.1990   -4.6760   26.2670 F   0  0  0  0  0  0  0  0  0  0  0  0
  -23.5330  -13.8260   20.9100 C   0  0  0  0  0  0  0  0  0  0  0  0
  -22.8030  -13.2060   21.8320 N   0  0  0  0  0  0  0  0  0  0  0  0
  -23.1240  -14.8430   20.3530 O   0  0  0  0  0  0  0  0  0  0  0  0
  -23.1480  -12.3860   22.3060 H   0  0  0  0  0  0  0  0  0  0  0  0
  -21.8890  -13.5670   22.0700 H   0  0  0  0  0  0  0  0  0  0  0  0
  -26.2190  -15.3320   19.9680 N   0  0  0  0  0  0  0  0  0  0  0  0
  -25.4910  -16.0310   20.0710 H   0  0  0  0  0  0  0  0  0  0  0  0
  -27.0990  -15.7170   19.6500 H   0  0  0  0  0  0  0  0  0  0  0  0
  -27.8940  -21.1590   21.1930 C   0  0  0  0  0  1  0  0  0  0  0  0
  -28.9930  -21.4110   20.1350 C   0  0  0  0  0  3  0  0  0  0  0  0
  -29.3120  -22.9760   20.0510 C   0  0  0  0  0  2  0  0  0  0  0  0
  -27.4180  -23.3980   18.3600 C   0  0  0  0  0  1  0  0  0  0  0  0
  -28.1530  -23.9710   19.5940 C   0  0  0  0  0  3  0  0  0  0  0  0
  -28.5920  -25.4490   19.2190 C   0  0  0  0  0  2  0  0  0  0  0  0
  -28.3620  -26.5580   20.1240 O   0  0  0  0  0  0  0  0  0  0  0  0
  -24.6080  -31.7900   23.2210 C   0  0  0  0  0  0  0  0  0  0  0  0
  -27.1940  -27.3130   20.0770 C   0  0  0  0  0  0  0  0  0  0  0  0
  -23.3750  -30.3940   21.5940 C   0  0  0  0  0  3  0  0  0  0  0  0
  -24.8020  -28.8560   20.1300 C   0  0  0  0  0  0  0  0  0  0  0  0
  -25.9010  -30.7360   21.3620 C   0  0  0  0  0  2  0  0  0  0  0  0
  -25.9700  -29.3640   20.7100 C   0  0  0  0  0  0  0  0  0  0  0  0
  -27.1620  -28.5960   20.6860 C   0  0  0  0  0  3  0  0  0  0  0  0
  -26.0040  -26.8340   19.4840 C   0  0  0  0  0  3  0  0  0  0  0  0
  -24.8160  -27.5930   19.5140 C   0  0  0  0  0  3  0  0  0  0  0  0
  -23.5590  -29.7180   20.2090 C   0  0  0  0  0  2  0  0  0  0  0  0
  -24.6470  -30.9900   22.1160 N   0  0  0  0  0  0  0  0  0  0  0  0
  -23.5360  -32.0630   23.7800 O   0  0  0  0  0  0  0  0  0  0  0  0
  -22.7360  -29.3730   22.5640 C   0  0  0  0  0  0  0  0  0  0  0  0
  -21.4220  -29.1390   22.4100 N   0  0  0  0  0  0  0  0  0  0  0  0
  -23.4210  -28.7940   23.4110 O   0  0  0  0  0  0  0  0  0  0  0  0
  -20.9280  -29.6610   21.6990 H   0  0  0  0  0  0  0  0  0  0  0  0
  -18.0980  -27.7740   22.8070 C   0  0  0  0  0  0  0  0  0  0  0  0
  -20.6230  -28.1900   23.1830 C   0  0  0  0  0  3  0  0  0  0  0  0
  -20.8290  -26.7450   22.6720 C   0  0  0  0  0  2  0  0  0  0  0  0
  -19.7960  -26.3190   21.6230 C   0  0  0  0  0  2  0  0  0  0  0  0
  -18.3800  -26.4110   22.1960 C   0  0  0  0  0  2  0  0  0  0  0  0
  -19.1510  -28.6150   23.2540 C   0  0  0  0  0  0  0  0  0  0  0  0
  -18.8350  -29.8870   23.7810 C   0  0  0  0  0  3  0  0  0  0  0  0
  -17.4990  -30.3200   23.8650 C   0  0  0  0  0  3  0  0  0  0  0  0
  -16.4590  -29.4770   23.4350 C   0  0  0  0  0  3  0  0  0  0  0  0
  -16.7600  -28.2060   22.9130 C   0  0  0  0  0  3  0  0  0  0  0  0
  -25.9040  -32.4180   23.8230 C   0  0  0  0  0  3  0  0  0  0  0  0
  -26.4520  -31.6330   25.0770 C   0  0  1  0  0  0  0  0  0  0  0  0
  -25.3800  -31.3630   26.1590 C   0  0  0  0  0  1  0  0  0  0  0  0
  -27.0490  -30.2710   24.6530 C   0  0  0  0  0  1  0  0  0  0  0  0
  -27.6050  -32.4320   25.7330 C   0  0  0  0  0  1  0  0  0  0  0  0
  -25.6010  -33.8120   24.1750 N   0  0  0  0  0  0  0  0  0  0  0  0
  -25.9330  -34.8760   23.4320 C   0  0  0  0  0  0  0  0  0  0  0  0
  -26.5980  -34.7880   22.3960 O   0  0  0  0  0  0  0  0  0  0  0  0
  -25.0090  -33.9540   24.9790 H   0  0  0  0  0  0  0  0  0  0  0  0
  -24.2150  -36.6820   23.1010 C   0  0  0  0  0  1  0  0  0  0  0  0
  -25.4490  -36.2580   23.9140 C   0  0  0  0  0  3  0  0  0  0  0  0
  -27.5790  -37.1180   24.7820 C   0  0  0  0  0  1  0  0  0  0  0  0
  -26.4880  -37.3070   23.8290 N   0  0  0  0  0  0  0  0  0  0  0  0
  -26.0840  -38.2270   23.9880 H   0  0  0  0  0  0  0  0  0  0  0  0
  -31.6190  -20.9020   20.2080 C   0  0  0  0  0  2  0  0  0  0  0  0
  -33.1270  -22.5070   19.1130 C   0  0  0  0  0  1  0  0  0  0  0  0
  -32.3950  -20.5230   17.8740 C   0  0  0  0  0  1  0  0  0  0  0  0
  -32.0470  -21.5130   18.9230 N   0  0  1  0  0  4  0  0  0  0  0  0
  -31.2530  -22.0310   18.5800 H   0  0  0  0  0  0  0  0  0  0  0  0
  1 91  1  0
  1  2  1  0
  2  3  2  0
  3  4  1  0
  5  3  1  0
  6 15  1  0
  6 12  1  0
  7 12  1  0
  8  9  1  0
  8  7  1  0
 10  9  1  0
 10 19  1  0
 10 11  1  0
 12 11  1  0
 13  6  2  0
 14 15  1  0
 15  5  1  0
 16 17  2  0
 17 36  1  0
 18 17  1  0
 18 21  1  0
 19 16  1  0
 19 20  1  0
 20 18  2  0
 21 22  1  0
 22 23  2  0
 24 27  1  0
 24 23  1  0
 25 24  2  0
 26 25  1  0
 26 21  2  0
 27 28  1  0
 28 33  2  0
 28 29  1  0
 29 30  2  0
 30 31  1  0
 31 35  1  0
 32 31  2  0
 33 32  1  0
 34 33  1  0
 36 37  1  0
 37 40  1  0
 37 39  1  0
 38 36  2  0
 41 42  1  0
 41 16  1  0
 43 41  1  0
 45  1  1  0
 45 44  1  0
 46 45  1  0
 48 47  1  0
 48 46  1  0
 49 48  1  0
 49 50  1  0
 51 62  2  0
 52 50  1  0
 52 57  1  0
 53 61  1  0
 53 63  1  0
 54 60  1  0
 54 56  1  0
 55 61  1  0
 56 55  1  0
 57 56  2  0
 58 59  1  0
 58 52  2  0
 59 54  2  0
 60 53  1  0
 61 51  1  0
 63 65  2  0
 64 63  1  0
 66 64  1  0
 67 76  2  0
 67 72  1  0
 68 64  1  0
 68 72  1  0
 69 68  1  0
 70 71  1  0
 70 69  1  0
 71 67  1  0
 72 73  2  0
 73 74  1  0
 75 74  2  0
 76 75  1  0
 77 51  1  0
 77 82  1  0
 77 78  1  0
 78 81  1  1
 78 79  1  0
 80 78  1  0
 82 85  1  0
 83 87  1  0
 83 82  1  0
 84 83  2  0
 87 86  1  0
 89 87  1  0
 89 90  1  0
 89 88  1  0
 93 94  1  0
 94 92  1  0
 94 91  1  0
 94 95  1  6
M  ISO  4   6 100  15 100  49 101  50 101
M  END
>  <TORSDO>  (63) 
F 24

>  <SCORE>  (63) 
-10.954

>  <name>  (63) 
62

>  <ligand_id>  (63) 
62

>  <original_smiles>  (63) 
[H]C(=C(C([H])([H])[H])C([H])([H])N(C(=O)N1C([H])([H])C([H])([H])C([H])([H])C([H])(n2nc(-c3c([H])c([H])c(Oc4c([H])c([H])c(F)c([H])c4F)c([H])c3[H])c(C(=O)N([H])[H])c2N([H])[H])C1([H])[H])C([H])([H])[H])C([H])(C([H])(C([H])([H])[H])C([H])([H])C([H])(C([H])([H])[H])C([H])([H])Oc1c([H])c([H])c2c(c1[H])C([H])([H])N(C(=O)C([H])(N([H])C(=O)C([H])(N([H])C([H])([H])[H])C([H])([H])[H])C(C([H])([H])[H])(C([H])([H])[H])C([H])([H])[H])C([H])(C(=O)N([H])C1([H])c3c([H])c([H])c([H])c([H])c3C([H])([H])C([H])([H])C1([H])[H])C2([H])[H])C([H])([H])[N+]([H])(C([H])([H])[H])C([H])([H])[H]

>  <smiles>  (63) 
[H]C(=C(C([H])([H])[H])C([H])([H])N(C(=O)N1C([H])([H])C([H])([H])C([H])([H])C([H])(n2nc(-c3c([H])c([H])c(Oc4c([H])c([H])c(F)c([H])c4F)c([H])c3[H])c(C(=O)N([H])[H])c2N([H])[H])C1([H])[H])C([H])([H])[H])C([H])(C([H])(C([H])([H])[H])C([H])([H])C([H])(C([H])([H])[H])C([H])([H])Oc1c([H])c([H])c2c(c1[H])C([H])([H])N(C(=O)C([H])(N([H])C(=O)C([H])(N([H])C([H])([H])[H])C([H])([H])[H])C(C([H])([H])[H])(C([H])([H])[H])C([H])([H])[H])C([H])(C(=O)N([H])C1([H])c3c([H])c([H])c([H])c([H])c3C([H])([H])C([H])([H])C1([H])[H])C2([H])[H])C([H])([H])[N+]([H])(C([H])([H])[H])C([H])([H])[H]

$$$$
63:0:0
     RDKit          3D

 94102  0  0  1  0  0  0  0  0999 V2000
  -28.5320  -21.0540   21.3320 C   0  0  0  0  0  3  0  0  0  0  0  0
  -28.8930  -19.8040   20.7850 C   0  0  0  0  0  0  0  0  0  0  0  0
  -29.9750  -19.7300   19.8560 C   0  0  0  0  0  0  0  0  0  0  0  0
  -29.2350  -22.2140   20.9670 C   0  0  0  0  0  0  0  0  0  0  0  0
  -30.6370  -20.9650   19.5670 C   0  0  0  0  0  0  0  0  0  0  0  0
  -28.1050  -18.5780   21.2390 C   0  0  0  0  0  1  0  0  0  0  0  0
  -30.2510  -22.1600   20.0870 N   0  0  0  0  0  0  0  0  0  0  0  0
  -32.9970  -21.8960   19.1470 C   0  0  0  0  0  1  0  0  0  0  0  0
  -31.8040  -21.1050   18.5920 C   0  0  0  0  0  2  0  0  0  0  0  0
  -30.1880  -18.3810   17.6490 C   0  0  0  0  0  1  0  0  0  0  0  0
  -30.3360  -18.3640   19.1880 C   0  0  0  0  0  3  0  0  0  0  0  0
  -31.6620  -17.7110   19.6840 C   0  0  0  0  0  2  0  0  0  0  0  0
  -32.0420  -15.2360   19.7960 C   0  0  0  0  0  0  0  0  0  0  0  0
  -31.6940  -12.9050   19.0170 C   0  0  0  0  0  2  0  0  0  0  0  0
  -30.7760  -12.8910   17.7770 C   0  0  0  0  0  2  0  0  0  0  0  0
  -29.2930  -12.8390   18.2010 C   0  0  0  0  0  2  0  0  0  0  0  0
  -28.9470  -13.8890   19.2870 C   0  0  0  0  0  3  0  0  0  0  0  0
  -29.9830  -13.8700   20.4280 C   0  0  0  0  0  2  0  0  0  0  0  0
  -31.3220  -14.0710   19.8440 N   0  0  0  0  0  0  0  0  0  0  0  0
  -33.1110  -15.3070   19.1820 O   0  0  0  0  0  0  0  0  0  0  0  0
  -31.3050  -16.4600   21.7610 C   0  0  0  0  0  1  0  0  0  0  0  0
  -31.4680  -16.3650   20.3030 N   0  0  0  0  0  0  0  0  0  0  0  0
  -26.6140  -14.6700   20.0380 C   0  0  0  0  0  0  0  0  0  0  0  0
  -25.5020  -13.9810   20.4370 C   0  0  0  0  0  0  0  0  0  0  0  0
  -25.8650  -12.5980   20.4140 C   0  0  0  0  0  0  0  0  0  0  0  0
  -27.5880  -13.7160   19.7950 N   0  0  0  0  0  0  0  0  0  0  0  0
  -27.1420  -12.4650   20.0800 N   0  0  0  0  0  0  0  0  0  0  0  0
  -25.0540  -11.3950   20.6360 C   0  0  0  0  0  0  0  0  0  0  0  0
  -25.3520  -10.4820   21.6710 C   0  0  0  0  0  3  0  0  0  0  0  0
  -24.5460   -9.3420   21.8760 C   0  0  0  0  0  3  0  0  0  0  0  0
  -23.4250   -9.1070   21.0450 C   0  0  0  0  0  0  0  0  0  0  0  0
  -23.1460  -10.0060   20.0000 C   0  0  0  0  0  3  0  0  0  0  0  0
  -23.9540  -11.1370   19.7950 C   0  0  0  0  0  3  0  0  0  0  0  0
  -22.5990   -8.0140   21.1510 O   0  0  0  0  0  0  0  0  0  0  0  0
  -22.3010   -7.4530   22.3670 C   0  0  0  0  0  0  0  0  0  0  0  0
  -21.7020   -8.2000   23.4030 C   0  0  0  0  0  3  0  0  0  0  0  0
  -21.3510   -7.5690   24.6130 C   0  0  0  0  0  3  0  0  0  0  0  0
  -21.5860   -6.1910   24.7830 C   0  0  0  0  0  0  0  0  0  0  0  0
  -22.1780   -5.4450   23.7500 C   0  0  0  0  0  3  0  0  0  0  0  0
  -22.5330   -6.0740   22.5420 C   0  0  0  0  0  0  0  0  0  0  0  0
  -23.0830   -5.3470   21.5410 F   0  0  0  0  0  0  0  0  0  0  0  0
  -21.2420   -5.5820   25.9420 F   0  0  0  0  0  0  0  0  0  0  0  0
  -24.1480  -14.5590   20.7330 C   0  0  0  0  0  0  0  0  0  0  0  0
  -23.4110  -13.9500   21.6540 N   0  0  0  0  0  0  0  0  0  0  0  0
  -23.7580  -15.5890   20.1820 O   0  0  0  0  0  0  0  0  0  0  0  0
  -23.7410  -13.1150   22.1180 H   0  0  0  0  0  0  0  0  0  0  0  0
  -22.5060  -14.3240   21.9000 H   0  0  0  0  0  0  0  0  0  0  0  0
  -26.8710  -16.0260   19.8450 N   0  0  0  0  0  0  0  0  0  0  0  0
  -26.1490  -16.7280   19.9520 H   0  0  0  0  0  0  0  0  0  0  0  0
  -27.7440  -16.4040   19.5030 H   0  0  0  0  0  0  0  0  0  0  0  0
  -28.9520  -23.5630   21.6460 C   0  0  0  0  0  2  0  0  0  0  0  0
  -28.0840  -24.5900   20.8600 C   0  0  0  0  0  2  0  0  0  0  0  0
  -28.8460  -25.5860   19.9320 C   0  0  0  0  0  2  0  0  0  0  0  0
  -28.7630  -26.9760   20.3200 O   0  0  0  0  0  0  0  0  0  0  0  0
  -24.7120  -31.9360   23.4260 C   0  0  0  0  0  0  0  0  0  0  0  0
  -27.5580  -27.6590   20.2700 C   0  0  0  0  0  0  0  0  0  0  0  0
  -23.5850  -30.5490   21.7170 C   0  0  0  0  0  3  0  0  0  0  0  0
  -25.1170  -29.1070   20.2710 C   0  0  0  0  0  0  0  0  0  0  0  0
  -26.0980  -30.9950   21.5790 C   0  0  0  0  0  2  0  0  0  0  0  0
  -26.2470  -29.6470   20.8950 C   0  0  0  0  0  0  0  0  0  0  0  0
  -27.4690  -28.9320   20.8850 C   0  0  0  0  0  3  0  0  0  0  0  0
  -26.4050  -27.1370   19.6380 C   0  0  0  0  0  3  0  0  0  0  0  0
  -25.1930  -27.8550   19.6370 C   0  0  0  0  0  3  0  0  0  0  0  0
  -23.8440  -29.9230   20.3210 C   0  0  0  0  0  2  0  0  0  0  0  0
  -24.8140  -31.1750   22.3000 N   0  0  0  0  0  0  0  0  0  0  0  0
  -23.6140  -32.1530   23.9580 O   0  0  0  0  0  0  0  0  0  0  0  0
  -22.9510  -29.4750   22.6300 C   0  0  0  0  0  0  0  0  0  0  0  0
  -21.6490  -29.2110   22.4340 N   0  0  0  0  0  0  0  0  0  0  0  0
  -23.6300  -28.8820   23.4730 O   0  0  0  0  0  0  0  0  0  0  0  0
  -21.1590  -29.7450   21.7290 H   0  0  0  0  0  0  0  0  0  0  0  0
  -18.3580  -27.7480   22.6910 C   0  0  0  0  0  0  0  0  0  0  0  0
  -20.8620  -28.2030   23.1450 C   0  0  0  0  0  3  0  0  0  0  0  0
  -21.1150  -26.7890   22.5750 C   0  0  0  0  0  2  0  0  0  0  0  0
  -20.1160  -26.3840   21.4860 C   0  0  0  0  0  2  0  0  0  0  0  0
  -18.6820  -26.4190   22.0260 C   0  0  0  0  0  2  0  0  0  0  0  0
  -19.3790  -28.5920   23.2010 C   0  0  0  0  0  0  0  0  0  0  0  0
  -19.0230  -29.8310   23.7770 C   0  0  0  0  0  3  0  0  0  0  0  0
  -17.6740  -30.2300   23.8460 C   0  0  0  0  0  3  0  0  0  0  0  0
  -16.6660  -29.3840   23.3520 C   0  0  0  0  0  3  0  0  0  0  0  0
  -17.0060  -28.1450   22.7840 C   0  0  0  0  0  3  0  0  0  0  0  0
  -25.9640  -32.5900   24.0900 C   0  0  0  0  0  3  0  0  0  0  0  0
  -25.6340  -33.9920   24.3730 N   0  0  0  0  0  0  0  0  0  0  0  0
  -25.9900  -35.0290   23.6010 C   0  0  0  0  0  0  0  0  0  0  0  0
  -26.7020  -34.9050   22.6000 O   0  0  0  0  0  0  0  0  0  0  0  0
  -25.0110  -34.1610   25.1480 H   0  0  0  0  0  0  0  0  0  0  0  0
  -24.2630  -36.7950   23.1300 C   0  0  0  0  0  1  0  0  0  0  0  0
  -25.4730  -36.4240   24.0020 C   0  0  0  0  0  3  0  0  0  0  0  0
  -27.5690  -37.3470   24.8890 C   0  0  0  0  0  1  0  0  0  0  0  0
  -26.5010  -37.4830   23.9020 N   0  0  0  0  0  0  0  0  0  0  0  0
  -26.0830  -38.4030   24.0140 H   0  0  0  0  0  0  0  0  0  0  0  0
  -26.4270  -31.8470   25.4040 C   0  0  1  0  0  0  0  0  0  0  0  0
  -25.2760  -31.5830   26.4030 C   0  0  0  0  0  1  0  0  0  0  0  0
  -27.0760  -30.4850   25.0640 C   0  0  0  0  0  1  0  0  0  0  0  0
  -27.5060  -32.6840   26.1340 C   0  0  0  0  0  1  0  0  0  0  0  0
  2  6  1  0
  2  1  2  0
  3  2  1  0
  4  1  1  0
  4 51  1  0
  5  3  2  0
  5  7  1  0
  7  4  2  0
  9  8  1  0
  9  5  1  0
 11 10  1  0
 11 12  1  0
 11  3  1  0
 12 22  1  0
 13 19  1  0
 13 22  1  0
 14 19  1  0
 15 16  1  0
 15 14  1  0
 17 16  1  0
 17 26  1  0
 17 18  1  0
 19 18  1  0
 20 13  2  0
 22 21  1  0
 23 24  2  0
 24 43  1  0
 25 24  1  0
 25 28  1  0
 26 23  1  0
 26 27  1  0
 27 25  2  0
 28 29  1  0
 29 30  2  0
 31 34  1  0
 31 30  1  0
 32 31  2  0
 33 32  1  0
 33 28  2  0
 34 35  1  0
 35 40  2  0
 35 36  1  0
 36 37  2  0
 37 38  1  0
 38 42  1  0
 39 38  2  0
 40 39  1  0
 41 40  1  0
 43 44  1  0
 44 47  1  0
 44 46  1  0
 45 43  2  0
 48 49  1  0
 48 23  1  0
 50 48  1  0
 52 51  1  0
 53 54  1  0
 53 52  1  0
 55 66  2  0
 56 54  1  0
 56 61  1  0
 57 65  1  0
 57 67  1  0
 58 64  1  0
 58 60  1  0
 59 65  1  0
 60 59  1  0
 61 60  2  0
 62 56  2  0
 63 62  1  0
 63 58  2  0
 64 57  1  0
 65 55  1  0
 67 69  2  0
 68 67  1  0
 70 68  1  0
 71 80  2  0
 71 76  1  0
 72 68  1  0
 72 76  1  0
 73 72  1  0
 74 75  1  0
 74 73  1  0
 75 71  1  0
 76 77  2  0
 77 78  1  0
 79 78  2  0
 80 79  1  0
 81 55  1  0
 81 82  1  0
 81 91  1  0
 82 85  1  0
 83 87  1  0
 83 82  1  0
 84 83  2  0
 87 86  1  0
 89 87  1  0
 89 90  1  0
 89 88  1  0
 91 94  1  1
 91 92  1  0
 93 91  1  0
M  ISO  4  13 100  22 100  53 101  54 101
M  END
>  <TORSDO>  (64) 
F 22

>  <SCORE>  (64) 
-9.910

>  <name>  (64) 
63

>  <ligand_id>  (64) 
63

>  <original_smiles>  (64) 
[H]c1c([H])c([H])c2c(c1[H])C([H])([H])C([H])([H])C([H])([H])C2([H])N([H])C(=O)C1([H])N(C(=O)C([H])(N([H])C(=O)C([H])(N([H])C([H])([H])[H])C([H])([H])[H])C(C([H])([H])[H])(C([H])([H])[H])C([H])([H])[H])C([H])([H])c2c([H])c(OC([H])([H])C([H])([H])C([H])([H])c3nc(C([H])([H])C([H])([H])[H])c(C([H])(C([H])([H])[H])C([H])([H])N(C(=O)N4C([H])([H])C([H])([H])C([H])([H])C([H])(n5nc(-c6c([H])c([H])c(Oc7c([H])c([H])c(F)c([H])c7F)c([H])c6[H])c(C(=O)N([H])[H])c5N([H])[H])C4([H])[H])C([H])([H])[H])c(C([H])([H])[H])c3[H])c([H])c([H])c2C1([H])[H]

>  <smiles>  (64) 
[H]c1c([H])c([H])c2c(c1[H])C([H])([H])C([H])([H])C([H])([H])C2([H])N([H])C(=O)C1([H])N(C(=O)C([H])(N([H])C(=O)C([H])(N([H])C([H])([H])[H])C([H])([H])[H])C(C([H])([H])[H])(C([H])([H])[H])C([H])([H])[H])C([H])([H])c2c([H])c(OC([H])([H])C([H])([H])C([H])([H])c3nc(C([H])([H])C([H])([H])[H])c(C([H])(C([H])([H])[H])C([H])([H])N(C(=O)N4C([H])([H])C([H])([H])C([H])([H])C([H])(n5nc(-c6c([H])c([H])c(Oc7c([H])c([H])c(F)c([H])c7F)c([H])c6[H])c(C(=O)N([H])[H])c5N([H])[H])C4([H])[H])C([H])([H])[H])c(C([H])([H])[H])c3[H])c([H])c([H])c2C1([H])[H]

$$$$
64:0:0
     RDKit          3D

 93101  0  0  1  0  0  0  0  0999 V2000
  -28.6220  -19.4800   20.2090 C   0  0  0  0  0  3  0  0  0  0  0  0
  -30.8060  -20.1700   19.6810 C   0  0  0  0  0  3  0  0  0  0  0  0
  -29.9540  -19.0480   19.9280 C   0  0  0  0  0  0  0  0  0  0  0  0
  -28.2150  -20.8800   20.2750 C   0  0  0  0  0  0  0  0  0  0  0  0
  -30.4330  -21.5670   19.7500 C   0  0  0  0  0  0  0  0  0  0  0  0
  -29.1020  -22.0140   20.0690 C   0  0  0  0  0  0  0  0  0  0  0  0
  -26.7580  -21.1370   20.6220 C   0  0  0  0  0  1  0  0  0  0  0  0
  -32.6610  -22.4960   20.5660 C   0  0  0  0  0  1  0  0  0  0  0  0
  -31.5550  -22.5660   19.5020 C   0  0  0  0  0  2  0  0  0  0  0  0
  -30.5890  -17.5400   19.8120 C   0  0  0  0  0  2  0  0  0  0  0  0
  -30.7010  -14.9010   19.8900 C   0  0  0  0  0  0  0  0  0  0  0  0
  -30.4370  -12.5740   18.9650 C   0  0  0  0  0  2  0  0  0  0  0  0
  -29.4450  -12.5810   17.7820 C   0  0  0  0  0  2  0  0  0  0  0  0
  -28.0010  -12.4170   18.2880 C   0  0  0  0  0  2  0  0  0  0  0  0
  -27.6820  -13.3490   19.4880 C   0  0  0  0  0  3  0  0  0  0  0  0
  -28.7940  -13.3260   20.5600 C   0  0  0  0  0  2  0  0  0  0  0  0
  -30.0460  -13.6790   19.8820 N   0  0  0  0  0  0  0  0  0  0  0  0
  -31.8860  -14.9180   19.5420 O   0  0  0  0  0  0  0  0  0  0  0  0
  -30.0070  -16.1180   20.0570 N   0  0  0  0  0  0  0  0  0  0  0  0
  -29.0280  -16.0600   20.2910 H   0  0  0  0  0  0  0  0  0  0  0  0
  -25.3640  -13.9790   20.3750 C   0  0  0  0  0  0  0  0  0  0  0  0
  -24.3010  -13.2250   20.7900 C   0  0  0  0  0  0  0  0  0  0  0  0
  -24.7250  -11.8630   20.7060 C   0  0  0  0  0  0  0  0  0  0  0  0
  -26.3670  -13.0790   20.0570 N   0  0  0  0  0  0  0  0  0  0  0  0
  -25.9950  -11.7990   20.3220 N   0  0  0  0  0  0  0  0  0  0  0  0
  -23.9740  -10.6160   20.9110 C   0  0  0  0  0  0  0  0  0  0  0  0
  -24.4270   -9.6190   21.8010 C   0  0  0  0  0  3  0  0  0  0  0  0
  -23.6770   -8.4390   21.9960 C   0  0  0  0  0  3  0  0  0  0  0  0
  -22.4600   -8.2490   21.3000 C   0  0  0  0  0  0  0  0  0  0  0  0
  -22.0250   -9.2350   20.3960 C   0  0  0  0  0  3  0  0  0  0  0  0
  -22.7750  -10.4060   20.1990 C   0  0  0  0  0  3  0  0  0  0  0  0
  -21.6780   -7.1240   21.4070 O   0  0  0  0  0  0  0  0  0  0  0  0
  -21.6850   -6.3470   22.5380 C   0  0  0  0  0  0  0  0  0  0  0  0
  -21.3420   -6.8720   23.8030 C   0  0  0  0  0  3  0  0  0  0  0  0
  -21.2940   -6.0230   24.9270 C   0  0  0  0  0  3  0  0  0  0  0  0
  -21.5790   -4.6510   24.7870 C   0  0  0  0  0  0  0  0  0  0  0  0
  -21.9140   -4.1260   23.5260 C   0  0  0  0  0  3  0  0  0  0  0  0
  -21.9630   -4.9720   22.4040 C   0  0  0  0  0  0  0  0  0  0  0  0
  -22.2660   -4.4570   21.1880 F   0  0  0  0  0  0  0  0  0  0  0  0
  -21.5250   -3.8340   25.8650 F   0  0  0  0  0  0  0  0  0  0  0  0
  -22.9350  -13.7350   21.1460 C   0  0  0  0  0  0  0  0  0  0  0  0
  -22.2370  -13.0420   22.0390 N   0  0  0  0  0  0  0  0  0  0  0  0
  -22.4990  -14.7800   20.6680 O   0  0  0  0  0  0  0  0  0  0  0  0
  -22.6040  -12.1960   22.4470 H   0  0  0  0  0  0  0  0  0  0  0  0
  -21.3210  -13.3650   22.3180 H   0  0  0  0  0  0  0  0  0  0  0  0
  -25.5540  -15.3480   20.2140 N   0  0  0  0  0  0  0  0  0  0  0  0
  -24.8090  -16.0170   20.3790 H   0  0  0  0  0  0  0  0  0  0  0  0
  -26.3820  -15.7700   19.8130 H   0  0  0  0  0  0  0  0  0  0  0  0
  -28.6890  -23.5860   20.4110 C   0  0  0  0  0  3  0  0  0  0  0  0
  -29.7160  -23.1140   22.7540 C   0  0  0  0  0  1  0  0  0  0  0  0
  -29.5060  -24.1210   21.6100 C   0  0  0  0  0  2  0  0  0  0  0  0
  -28.4850  -24.8330   19.3330 C   0  0  0  0  0  2  0  0  0  0  0  0
  -28.4380  -26.3310   19.7010 O   0  0  0  0  0  0  0  0  0  0  0  0
  -24.6920  -31.6480   23.0210 C   0  0  0  0  0  0  0  0  0  0  0  0
  -27.3050  -27.2000   19.6870 C   0  0  0  0  0  0  0  0  0  0  0  0
  -23.4750  -30.2920   21.3570 C   0  0  0  0  0  3  0  0  0  0  0  0
  -24.9160  -28.8300   19.8130 C   0  0  0  0  0  0  0  0  0  0  0  0
  -26.0060  -30.6560   21.1160 C   0  0  0  0  0  2  0  0  0  0  0  0
  -26.0950  -29.3020   20.3990 C   0  0  0  0  0  0  0  0  0  0  0  0
  -27.2880  -28.5010   20.3220 C   0  0  0  0  0  3  0  0  0  0  0  0
  -26.0950  -26.8100   19.0760 C   0  0  0  0  0  3  0  0  0  0  0  0
  -24.9240  -27.5980   19.1390 C   0  0  0  0  0  3  0  0  0  0  0  0
  -23.6630  -29.6800   19.9420 C   0  0  0  0  0  2  0  0  0  0  0  0
  -24.7450  -30.8850   21.8860 N   0  0  0  0  0  0  0  0  0  0  0  0
  -23.6180  -31.8740   23.5980 O   0  0  0  0  0  0  0  0  0  0  0  0
  -22.8620  -29.2230   22.2950 C   0  0  0  0  0  0  0  0  0  0  0  0
  -21.5390  -29.0050   22.1910 N   0  0  0  0  0  0  0  0  0  0  0  0
  -23.5770  -28.5920   23.0770 O   0  0  0  0  0  0  0  0  0  0  0  0
  -21.0160  -29.5690   21.5360 H   0  0  0  0  0  0  0  0  0  0  0  0
  -18.2260  -27.6300   22.6870 C   0  0  0  0  0  0  0  0  0  0  0  0
  -20.7720  -28.0080   22.9420 C   0  0  0  0  0  3  0  0  0  0  0  0
  -20.9370  -26.5990   22.3280 C   0  0  0  0  0  2  0  0  0  0  0  0
  -19.8430  -26.2510   21.3130 C   0  0  0  0  0  2  0  0  0  0  0  0
  -18.4610  -26.3100   21.9720 C   0  0  0  0  0  2  0  0  0  0  0  0
  -19.3100  -28.4350   23.1280 C   0  0  0  0  0  0  0  0  0  0  0  0
  -19.0350  -29.6680   23.7590 C   0  0  0  0  0  3  0  0  0  0  0  0
  -17.7090  -30.0980   23.9490 C   0  0  0  0  0  3  0  0  0  0  0  0
  -16.6400  -29.2920   23.5230 C   0  0  0  0  0  3  0  0  0  0  0  0
  -16.8990  -28.0590   22.8970 C   0  0  0  0  0  3  0  0  0  0  0  0
  -25.9740  -32.2900   23.6340 C   0  0  0  0  0  3  0  0  0  0  0  0
  -25.6340  -33.6610   24.0440 N   0  0  0  0  0  0  0  0  0  0  0  0
  -25.9290  -34.7650   23.3420 C   0  0  0  0  0  0  0  0  0  0  0  0
  -26.5830  -34.7350   22.2960 O   0  0  0  0  0  0  0  0  0  0  0  0
  -25.0490  -33.7560   24.8620 H   0  0  0  0  0  0  0  0  0  0  0  0
  -24.1520  -36.5330   23.1250 C   0  0  0  0  0  1  0  0  0  0  0  0
  -25.4200  -36.1140   23.8860 C   0  0  0  0  0  3  0  0  0  0  0  0
  -27.5480  -37.0100   24.7260 C   0  0  0  0  0  1  0  0  0  0  0  0
  -26.4250  -37.1970   23.8110 N   0  0  0  0  0  0  0  0  0  0  0  0
  -25.9990  -38.0980   24.0110 H   0  0  0  0  0  0  0  0  0  0  0  0
  -26.5520  -31.4770   24.8570 C   0  0  1  0  0  0  0  0  0  0  0  0
  -25.5020  -31.1710   25.9520 C   0  0  0  0  0  1  0  0  0  0  0  0
  -27.1500  -30.1310   24.3890 C   0  0  0  0  0  1  0  0  0  0  0  0
  -27.7100  -32.2670   25.5120 C   0  0  0  0  0  1  0  0  0  0  0  0
  1  4  1  0
  2  5  2  0
  2  3  1  0
  3  1  2  0
  4  7  1  0
  5  6  1  0
  6  4  2  0
  6 49  1  0
  9  5  1  0
  9  8  1  0
 10  3  1  0
 10 19  1  0
 11 19  1  0
 12 17  1  0
 13 14  1  0
 13 12  1  0
 15 14  1  0
 15 24  1  0
 15 16  1  0
 17 11  1  0
 17 16  1  0
 18 11  2  0
 19 20  1  0
 21 22  2  0
 22 41  1  0
 23 22  1  0
 23 26  1  0
 24 25  1  0
 24 21  1  0
 25 23  2  0
 26 27  1  0
 27 28  2  0
 29 32  1  0
 29 28  1  0
 30 29  2  0
 31 30  1  0
 31 26  2  0
 32 33  1  0
 33 34  1  0
 34 35  2  0
 36 35  1  0
 36 40  1  0
 37 36  2  0
 38 33  2  0
 38 37  1  0
 39 38  1  0
 41 42  1  0
 42 45  1  0
 42 44  1  0
 43 41  2  0
 46 21  1  0
 46 47  1  0
 48 46  1  0
 49 52  1  0
 49 51  1  0
 51 50  1  0
 52 53  1  0
 54 65  2  0
 55 53  1  0
 55 60  1  0
 56 64  1  0
 56 66  1  0
 57 63  1  0
 57 59  1  0
 58 64  1  0
 59 58  1  0
 60 59  2  0
 61 62  1  0
 61 55  2  0
 62 57  2  0
 63 56  1  0
 64 54  1  0
 66 68  2  0
 67 66  1  0
 69 67  1  0
 70 79  2  0
 70 75  1  0
 71 67  1  0
 71 75  1  0
 72 71  1  0
 73 74  1  0
 73 72  1  0
 74 70  1  0
 75 76  2  0
 76 77  1  0
 78 77  2  0
 79 78  1  0
 80 54  1  0
 80 81  1  0
 80 90  1  0
 81 84  1  0
 82 86  1  0
 82 81  1  0
 83 82  2  0
 86 85  1  0
 88 86  1  0
 88 89  1  0
 88 87  1  0
 90 93  1  1
 90 91  1  0
 92 90  1  0
M  ISO  4  11 100  19 100  52 101  53 101
M  END
>  <TORSDO>  (65) 
F 21

>  <SCORE>  (65) 
-11.759

>  <name>  (65) 
64

>  <ligand_id>  (65) 
64

>  <original_smiles>  (65) 
[H]c1c([H])c([H])c2c(c1[H])C([H])([H])C([H])([H])C([H])([H])C2([H])N([H])C(=O)C1([H])N(C(=O)C([H])(N([H])C(=O)C([H])(N([H])C([H])([H])[H])C([H])([H])[H])C(C([H])([H])[H])(C([H])([H])[H])C([H])([H])[H])C([H])([H])c2c([H])c(OC([H])([H])C([H])(c3c(C([H])([H])[H])c([H])c(C([H])([H])N([H])C(=O)N4C([H])([H])C([H])([H])C([H])([H])C([H])(n5nc(-c6c([H])c([H])c(Oc7c([H])c([H])c(F)c([H])c7F)c([H])c6[H])c(C(=O)N([H])[H])c5N([H])[H])C4([H])[H])c([H])c3C([H])([H])C([H])([H])[H])C([H])([H])C([H])([H])[H])c([H])c([H])c2C1([H])[H]

>  <smiles>  (65) 
[H]c1c([H])c([H])c2c(c1[H])C([H])([H])C([H])([H])C([H])([H])C2([H])N([H])C(=O)C1([H])N(C(=O)C([H])(N([H])C(=O)C([H])(N([H])C([H])([H])[H])C([H])([H])[H])C(C([H])([H])[H])(C([H])([H])[H])C([H])([H])[H])C([H])([H])c2c([H])c(OC([H])([H])C([H])(c3c(C([H])([H])[H])c([H])c(C([H])([H])N([H])C(=O)N4C([H])([H])C([H])([H])C([H])([H])C([H])(n5nc(-c6c([H])c([H])c(Oc7c([H])c([H])c(F)c([H])c7F)c([H])c6[H])c(C(=O)N([H])[H])c5N([H])[H])C4([H])[H])c([H])c3C([H])([H])C([H])([H])[H])C([H])([H])C([H])([H])[H])c([H])c([H])c2C1([H])[H]

$$$$
65:0:0
     RDKit          3D

100109  0  0  1  0  0  0  0  0999 V2000
  -30.0530  -23.1800   21.4170 C   0  0  0  0  0  3  0  0  0  0  0  0
  -29.7590  -21.8510   21.0520 C   0  0  0  0  0  3  0  0  0  0  0  0
  -28.2330  -23.9190   20.0170 C   0  0  0  0  0  3  0  0  0  0  0  0
  -29.2720  -24.2330   20.9120 C   0  0  0  0  0  0  0  0  0  0  0  0
  -28.7130  -21.5100   20.1580 C   0  0  0  0  0  0  0  0  0  0  0  0
  -27.9150  -22.5860   19.6040 C   0  0  0  0  0  0  0  0  0  0  0  0
  -25.4170  -22.1840   19.4600 C   0  0  0  0  0  1  0  0  0  0  0  0
  -26.9860  -21.4360   17.4440 C   0  0  0  0  0  1  0  0  0  0  0  0
  -26.3230  -23.7210   17.8800 C   0  0  0  0  0  1  0  0  0  0  0  0
  -26.7050  -22.4180   18.6290 C   0  0  2  0  0  0  0  0  0  0  0  0
  -28.7910  -20.0300   19.6790 C   0  0  0  0  0  2  0  0  0  0  0  0
  -26.5550  -18.8100   20.0420 C   0  0  0  0  0  3  0  0  0  0  0  0
  -27.8320  -16.5250   19.3670 C   0  0  0  0  0  3  0  0  0  0  0  0
  -27.9620  -18.8020   20.1380 C   0  0  0  0  0  0  0  0  0  0  0  0
  -28.5600  -17.5090   20.0710 C   0  0  0  0  0  0  0  0  0  0  0  0
  -25.8540  -17.6650   19.6340 C   0  0  0  0  0  0  0  0  0  0  0  0
  -24.3350  -17.6650   19.6450 C   0  0  0  0  0  1  0  0  0  0  0  0
  -26.4950  -16.5680   19.1890 N   0  0  0  0  0  0  0  0  0  0  0  0
  -29.9100  -17.1390   20.7310 C   0  0  0  0  0  2  0  0  0  0  0  0
  -30.8790  -14.7560   20.9240 C   0  0  0  0  0  0  0  0  0  0  0  0
  -30.8540  -12.5370   19.8620 C   0  0  0  0  0  2  0  0  0  0  0  0
  -29.9530  -12.6300   18.6090 C   0  0  0  0  0  2  0  0  0  0  0  0
  -28.4650  -12.4340   18.9610 C   0  0  0  0  0  2  0  0  0  0  0  0
  -28.0170  -13.2310   20.2120 C   0  0  0  0  0  3  0  0  0  0  0  0
  -29.0330  -13.0920   21.3690 C   0  0  0  0  0  2  0  0  0  0  0  0
  -30.3500  -13.5010   20.8500 N   0  0  0  0  0  0  0  0  0  0  0  0
  -32.0180  -15.0240   20.5290 O   0  0  0  0  0  0  0  0  0  0  0  0
  -29.9680  -15.7240   21.2030 N   0  0  0  0  0  0  0  0  0  0  0  0
  -29.1230  -15.3870   21.6450 H   0  0  0  0  0  0  0  0  0  0  0  0
  -25.5740  -13.7520   20.8030 C   0  0  0  0  0  0  0  0  0  0  0  0
  -24.5060  -12.9350   21.0710 C   0  0  0  0  0  0  0  0  0  0  0  0
  -25.0160  -11.6050   21.0270 C   0  0  0  0  0  0  0  0  0  0  0  0
  -26.6500  -12.9060   20.5900 N   0  0  0  0  0  0  0  0  0  0  0  0
  -26.3180  -11.6110   20.7870 N   0  0  0  0  0  0  0  0  0  0  0  0
  -24.3310  -10.3160   21.1510 C   0  0  0  0  0  0  0  0  0  0  0  0
  -24.6920   -9.3890   22.1520 C   0  0  0  0  0  3  0  0  0  0  0  0
  -24.0060   -8.1600   22.2670 C   0  0  0  0  0  3  0  0  0  0  0  0
  -22.9510   -7.8540   21.3770 C   0  0  0  0  0  0  0  0  0  0  0  0
  -22.6090   -8.7750   20.3710 C   0  0  0  0  0  3  0  0  0  0  0  0
  -23.2940   -9.9960   20.2550 C   0  0  0  0  0  3  0  0  0  0  0  0
  -22.2470   -6.6740   21.3990 O   0  0  0  0  0  0  0  0  0  0  0  0
  -21.9970   -6.0090   22.5700 C   0  0  0  0  0  0  0  0  0  0  0  0
  -21.2790   -6.6060   23.6290 C   0  0  0  0  0  3  0  0  0  0  0  0
  -20.9810   -5.8590   24.7850 C   0  0  0  0  0  3  0  0  0  0  0  0
  -21.3910   -4.5160   24.8840 C   0  0  0  0  0  0  0  0  0  0  0  0
  -22.1050   -3.9190   23.8290 C   0  0  0  0  0  3  0  0  0  0  0  0
  -22.4020   -4.6620   22.6730 C   0  0  0  0  0  0  0  0  0  0  0  0
  -23.0690   -4.0740   21.6480 F   0  0  0  0  0  0  0  0  0  0  0  0
  -21.1030   -3.7950   25.9920 F   0  0  0  0  0  0  0  0  0  0  0  0
  -23.0830  -13.3680   21.2710 C   0  0  0  0  0  0  0  0  0  0  0  0
  -22.3350  -12.6280   22.0870 N   0  0  0  0  0  0  0  0  0  0  0  0
  -22.6320  -14.3830   20.7450 O   0  0  0  0  0  0  0  0  0  0  0  0
  -22.7140  -11.8080   22.5380 H   0  0  0  0  0  0  0  0  0  0  0  0
  -21.3780  -12.8950   22.2730 H   0  0  0  0  0  0  0  0  0  0  0  0
  -25.7030  -15.1250   20.7300 N   0  0  0  0  0  0  0  0  0  0  0  0
  -24.9440  -15.7660   20.9150 H   0  0  0  0  0  0  0  0  0  0  0  0
  -26.4990  -15.5890   20.3030 H   0  0  0  0  0  0  0  0  0  0  0  0
  -29.4360  -25.6640   21.4560 C   0  0  0  0  0  2  0  0  0  0  0  0
  -29.7360  -26.8150   20.4590 C   0  0  0  0  0  2  0  0  0  0  0  0
  -28.7860  -26.8930   19.4030 O   0  0  0  0  0  0  0  0  0  0  0  0
  -24.6140  -31.6500   22.8480 C   0  0  0  0  0  0  0  0  0  0  0  0
  -27.5950  -27.5630   19.5790 C   0  0  0  0  0  0  0  0  0  0  0  0
  -23.5150  -30.2140   21.1560 C   0  0  0  0  0  3  0  0  0  0  0  0
  -25.0770  -28.8640   19.6680 C   0  0  0  0  0  0  0  0  0  0  0  0
  -26.0030  -30.7710   20.9850 C   0  0  0  0  0  2  0  0  0  0  0  0
  -26.1900  -29.4360   20.2940 C   0  0  0  0  0  0  0  0  0  0  0  0
  -27.4440  -28.7830   20.2800 C   0  0  0  0  0  3  0  0  0  0  0  0
  -26.4670  -27.0130   18.9400 C   0  0  0  0  0  3  0  0  0  0  0  0
  -25.2050  -27.6420   18.9910 C   0  0  0  0  0  3  0  0  0  0  0  0
  -23.7720  -29.6190   19.7460 C   0  0  0  0  0  2  0  0  0  0  0  0
  -24.7250  -30.8920   21.7220 N   0  0  0  0  0  0  0  0  0  0  0  0
  -23.5180  -31.8160   23.3970 O   0  0  0  0  0  0  0  0  0  0  0  0
  -22.9580  -29.0990   22.0670 C   0  0  0  0  0  0  0  0  0  0  0  0
  -21.6410  -28.8500   21.9730 N   0  0  0  0  0  0  0  0  0  0  0  0
  -23.7010  -28.4690   22.8220 O   0  0  0  0  0  0  0  0  0  0  0  0
  -21.0990  -29.4160   21.3360 H   0  0  0  0  0  0  0  0  0  0  0  0
  -18.3430  -27.4950   22.5240 C   0  0  0  0  0  0  0  0  0  0  0  0
  -20.8970  -27.8300   22.7050 C   0  0  0  0  0  3  0  0  0  0  0  0
  -21.0260  -26.4490   22.0210 C   0  0  0  0  0  2  0  0  0  0  0  0
  -19.8860  -26.1560   21.0380 C   0  0  0  0  0  2  0  0  0  0  0  0
  -18.5310  -26.2030   21.7500 C   0  0  0  0  0  2  0  0  0  0  0  0
  -19.4540  -28.2690   22.9540 C   0  0  0  0  0  0  0  0  0  0  0  0
  -19.2140  -29.4820   23.6340 C   0  0  0  0  0  3  0  0  0  0  0  0
  -17.9020  -29.9230   23.8900 C   0  0  0  0  0  3  0  0  0  0  0  0
  -16.8080  -29.1410   23.4800 C   0  0  0  0  0  3  0  0  0  0  0  0
  -17.0300  -27.9290   22.8020 C   0  0  0  0  0  3  0  0  0  0  0  0
  -25.8480  -32.3520   23.4870 C   0  0  0  0  0  3  0  0  0  0  0  0
  -25.4420  -33.7160   23.8480 N   0  0  0  0  0  0  0  0  0  0  0  0
  -25.7150  -34.8060   23.1210 C   0  0  0  0  0  0  0  0  0  0  0  0
  -26.3990  -34.7760   22.0960 O   0  0  0  0  0  0  0  0  0  0  0  0
  -24.8300  -33.8170   24.6470 H   0  0  0  0  0  0  0  0  0  0  0  0
  -23.8610  -36.4710   22.7910 C   0  0  0  0  0  1  0  0  0  0  0  0
  -25.1230  -36.1440   23.6060 C   0  0  0  0  0  3  0  0  0  0  0  0
  -27.1840  -37.1520   24.4780 C   0  0  0  0  0  1  0  0  0  0  0  0
  -26.0800  -37.2680   23.5270 N   0  0  0  0  0  0  0  0  0  0  0  0
  -25.6150  -38.1570   23.6930 H   0  0  0  0  0  0  0  0  0  0  0  0
  -26.4230  -31.5800   24.7360 C   0  0  1  0  0  0  0  0  0  0  0  0
  -25.3460  -31.2480   25.7960 C   0  0  0  0  0  1  0  0  0  0  0  0
  -27.1000  -30.2560   24.3080 C   0  0  0  0  0  1  0  0  0  0  0  0
  -27.5240  -32.4330   25.4120 C   0  0  0  0  0  1  0  0  0  0  0  0
  2  1  1  0
  3  4  1  0
  4  1  2  0
  4 58  1  0
  5  2  2  0
  6  3  2  0
  6  5  1  0
 10  8  1  6
  9 10  1  0
 10  7  1  0
 10  6  1  0
 11 14  1  0
 11  5  1  0
 12 14  1  0
 13 15  1  0
 15 14  2  0
 15 19  1  0
 16 17  1  0
 16 12  2  0
 18 13  2  0
 18 16  1  0
 19 28  1  0
 20 28  1  0
 21 26  1  0
 22 23  1  0
 22 21  1  0
 24 23  1  0
 24 33  1  0
 24 25  1  0
 26 20  1  0
 26 25  1  0
 27 20  2  0
 28 29  1  0
 30 31  2  0
 31 50  1  0
 32 31  1  0
 32 35  1  0
 33 34  1  0
 33 30  1  0
 34 32  2  0
 35 36  1  0
 36 37  2  0
 38 41  1  0
 38 37  1  0
 39 38  2  0
 40 39  1  0
 40 35  2  0
 41 42  1  0
 42 47  2  0
 42 43  1  0
 43 44  2  0
 44 45  1  0
 45 49  1  0
 46 45  2  0
 47 46  1  0
 48 47  1  0
 50 51  1  0
 51 54  1  0
 51 53  1  0
 52 50  2  0
 55 30  1  0
 55 56  1  0
 57 55  1  0
 59 58  1  0
 60 62  1  0
 60 59  1  0
 61 72  2  0
 62 67  1  0
 63 71  1  0
 63 73  1  0
 64 70  1  0
 64 66  1  0
 65 71  1  0
 66 65  1  0
 67 66  2  0
 68 69  1  0
 68 62  2  0
 69 64  2  0
 70 63  1  0
 71 61  1  0
 73 75  2  0
 74 73  1  0
 76 74  1  0
 77 86  2  0
 77 82  1  0
 78 74  1  0
 78 82  1  0
 79 78  1  0
 80 81  1  0
 80 79  1  0
 81 77  1  0
 82 83  2  0
 83 84  1  0
 85 84  2  0
 86 85  1  0
 87 61  1  0
 87 88  1  0
 87 97  1  0
 88 91  1  0
 89 93  1  0
 89 88  1  0
 90 89  2  0
 93 92  1  0
 95 93  1  0
 95 96  1  0
 95 94  1  0
 97100  1  1
 97 98  1  0
 99 97  1  0
M  ISO  4  20 100  28 100  59 101  60 101
M  END
>  <TORSDO>  (66) 
F 22

>  <SCORE>  (66) 
-10.295

>  <name>  (66) 
65

>  <ligand_id>  (66) 
65

>  <original_smiles>  (66) 
[H]c1nc(C([H])([H])[H])c([H])c(C([H])([H])c2c([H])c([H])c(C([H])([H])C([H])([H])Oc3c([H])c([H])c4c(c3[H])C([H])([H])N(C(=O)C([H])(N([H])C(=O)C([H])(N([H])C([H])([H])[H])C([H])([H])[H])C(C([H])([H])[H])(C([H])([H])[H])C([H])([H])[H])C([H])(C(=O)N([H])C3([H])c5c([H])c([H])c([H])c([H])c5C([H])([H])C([H])([H])C3([H])[H])C4([H])[H])c([H])c2C(C([H])([H])[H])(C([H])([H])[H])C([H])([H])[H])c1C([H])([H])N([H])C(=O)N1C([H])([H])C([H])([H])C([H])([H])C([H])(n2nc(-c3c([H])c([H])c(Oc4c([H])c([H])c(F)c([H])c4F)c([H])c3[H])c(C(=O)N([H])[H])c2N([H])[H])C1([H])[H]

>  <smiles>  (66) 
[H]c1nc(C([H])([H])[H])c([H])c(C([H])([H])c2c([H])c([H])c(C([H])([H])C([H])([H])Oc3c([H])c([H])c4c(c3[H])C([H])([H])N(C(=O)C([H])(N([H])C(=O)C([H])(N([H])C([H])([H])[H])C([H])([H])[H])C(C([H])([H])[H])(C([H])([H])[H])C([H])([H])[H])C([H])(C(=O)N([H])C3([H])c5c([H])c([H])c([H])c([H])c5C([H])([H])C([H])([H])C3([H])[H])C4([H])[H])c([H])c2C(C([H])([H])[H])(C([H])([H])[H])C([H])([H])[H])c1C([H])([H])N([H])C(=O)N1C([H])([H])C([H])([H])C([H])([H])C([H])(n2nc(-c3c([H])c([H])c(Oc4c([H])c([H])c(F)c([H])c4F)c([H])c3[H])c(C(=O)N([H])[H])c2N([H])[H])C1([H])[H]

$$$$
66:0:0
     RDKit          3D

 94102  0  0  1  0  0  0  0  0999 V2000
  -29.0920  -19.7940   20.0280 C   0  0  0  0  0  3  0  0  0  0  0  0
  -30.3100  -21.2150   21.2000 C   0  0  0  0  0  3  0  0  0  0  0  0
  -30.1780  -19.0360   20.4850 C   0  0  0  0  0  0  0  0  0  0  0  0
  -30.9430  -19.9940   21.2470 C   0  0  0  0  0  0  0  0  0  0  0  0
  -29.1830  -21.1670   20.4080 N   0  0  0  0  0  0  0  0  0  0  0  0
  -33.4500  -20.0310   21.0200 C   0  0  0  0  0  1  0  0  0  0  0  0
  -32.2630  -19.7850   21.9780 C   0  0  0  0  0  3  0  0  0  0  0  0
  -31.1420  -20.7110   24.1590 C   0  0  0  0  0  1  0  0  0  0  0  0
  -32.3820  -20.6960   23.2440 C   0  0  0  0  0  2  0  0  0  0  0  0
  -30.6630  -17.5510   20.0980 C   0  0  0  0  0  2  0  0  0  0  0  0
  -30.8050  -15.0050   20.5260 C   0  0  0  0  0  0  0  0  0  0  0  0
  -30.6010  -12.6620   19.7020 C   0  0  0  0  0  2  0  0  0  0  0  0
  -29.7400  -12.5970   18.4230 C   0  0  0  0  0  2  0  0  0  0  0  0
  -28.2500  -12.4400   18.7800 C   0  0  0  0  0  2  0  0  0  0  0  0
  -27.7890  -13.4250   19.8910 C   0  0  0  0  0  3  0  0  0  0  0  0
  -28.7900  -13.4950   21.0700 C   0  0  0  0  0  2  0  0  0  0  0  0
  -30.1220  -13.8030   20.5210 N   0  0  0  0  0  0  0  0  0  0  0  0
  -31.9960  -15.0240   20.2210 O   0  0  0  0  0  0  0  0  0  0  0  0
  -30.1260  -16.2130   20.6200 N   0  0  0  0  0  0  0  0  0  0  0  0
  -29.1360  -16.1540   20.8040 H   0  0  0  0  0  0  0  0  0  0  0  0
  -25.3650  -14.0110   20.5110 C   0  0  0  0  0  0  0  0  0  0  0  0
  -24.2860  -13.2340   20.8490 C   0  0  0  0  0  0  0  0  0  0  0  0
  -24.7610  -11.8860   20.8670 C   0  0  0  0  0  0  0  0  0  0  0  0
  -26.4250  -13.1360   20.3350 N   0  0  0  0  0  0  0  0  0  0  0  0
  -26.0640  -11.8540   20.6090 N   0  0  0  0  0  0  0  0  0  0  0  0
  -24.0350  -10.6220   21.0490 C   0  0  0  0  0  0  0  0  0  0  0  0
  -24.4290   -9.6640   22.0110 C   0  0  0  0  0  3  0  0  0  0  0  0
  -23.6930   -8.4710   22.1800 C   0  0  0  0  0  3  0  0  0  0  0  0
  -22.5470   -8.2240   21.3850 C   0  0  0  0  0  0  0  0  0  0  0  0
  -22.1760   -9.1670   20.4090 C   0  0  0  0  0  3  0  0  0  0  0  0
  -22.9140  -10.3510   20.2400 C   0  0  0  0  0  3  0  0  0  0  0  0
  -21.7980   -7.0750   21.4580 O   0  0  0  0  0  0  0  0  0  0  0  0
  -21.7100   -6.3440   22.6160 C   0  0  0  0  0  0  0  0  0  0  0  0
  -21.2170   -6.9060   23.8160 C   0  0  0  0  0  3  0  0  0  0  0  0
  -21.0810   -6.1050   24.9670 C   0  0  0  0  0  3  0  0  0  0  0  0
  -21.4180   -4.7390   24.9190 C   0  0  0  0  0  0  0  0  0  0  0  0
  -21.8950   -4.1720   23.7220 C   0  0  0  0  0  3  0  0  0  0  0  0
  -22.0320   -4.9710   22.5740 C   0  0  0  0  0  0  0  0  0  0  0  0
  -22.4770   -4.4160   21.4220 F   0  0  0  0  0  0  0  0  0  0  0  0
  -21.2750   -3.9670   26.0200 F   0  0  0  0  0  0  0  0  0  0  0  0
  -22.8760  -13.7110   21.0490 C   0  0  0  0  0  0  0  0  0  0  0  0
  -22.1130  -13.0350   21.9030 N   0  0  0  0  0  0  0  0  0  0  0  0
  -22.4550  -14.7220   20.4890 O   0  0  0  0  0  0  0  0  0  0  0  0
  -22.4610  -12.2190   22.3870 H   0  0  0  0  0  0  0  0  0  0  0  0
  -21.1640  -13.3390   22.0810 H   0  0  0  0  0  0  0  0  0  0  0  0
  -25.5250  -15.3800   20.3210 N   0  0  0  0  0  0  0  0  0  0  0  0
  -24.7610  -16.0370   20.4630 H   0  0  0  0  0  0  0  0  0  0  0  0
  -26.3890  -15.8270   20.0410 H   0  0  0  0  0  0  0  0  0  0  0  0
  -28.2140  -22.3350   20.1910 C   0  0  0  0  0  2  0  0  0  0  0  0
  -30.0840  -24.1930   20.0850 C   0  0  0  0  0  1  0  0  0  0  0  0
  -28.6770  -23.7160   18.0820 C   0  0  0  0  0  1  0  0  0  0  0  0
  -28.6660  -23.8110   19.6260 C   0  0  1  0  0  0  0  0  0  0  0  0
  -27.6930  -25.0370   20.0670 C   0  0  0  0  0  2  0  0  0  0  0  0
  -27.9650  -26.4780   19.7060 O   0  0  0  0  0  0  0  0  0  0  0  0
  -24.5110  -31.8700   23.0970 C   0  0  0  0  0  0  0  0  0  0  0  0
  -26.8900  -27.3920   19.7490 C   0  0  0  0  0  0  0  0  0  0  0  0
  -23.1990  -30.5500   21.4690 C   0  0  0  0  0  3  0  0  0  0  0  0
  -24.5600  -29.0510   19.9020 C   0  0  0  0  0  0  0  0  0  0  0  0
  -25.7290  -30.8530   21.1650 C   0  0  0  0  0  2  0  0  0  0  0  0
  -25.7650  -29.4990   20.4660 C   0  0  0  0  0  0  0  0  0  0  0  0
  -26.9350  -28.6850   20.3790 C   0  0  0  0  0  3  0  0  0  0  0  0
  -25.6710  -27.0280   19.1340 C   0  0  0  0  0  3  0  0  0  0  0  0
  -24.5200  -27.8240   19.2250 C   0  0  0  0  0  3  0  0  0  0  0  0
  -23.3340  -29.9340   20.0520 C   0  0  0  0  0  2  0  0  0  0  0  0
  -24.5010  -31.1050   21.9670 N   0  0  0  0  0  0  0  0  0  0  0  0
  -23.4620  -32.1440   23.6990 O   0  0  0  0  0  0  0  0  0  0  0  0
  -22.5860  -29.5010   22.4260 C   0  0  0  0  0  0  0  0  0  0  0  0
  -21.2570  -29.3110   22.3480 N   0  0  0  0  0  0  0  0  0  0  0  0
  -23.3040  -28.8690   23.2040 O   0  0  0  0  0  0  0  0  0  0  0  0
  -20.7390  -29.8850   21.6970 H   0  0  0  0  0  0  0  0  0  0  0  0
  -17.9300  -28.0200   22.9030 C   0  0  0  0  0  0  0  0  0  0  0  0
  -20.4810  -28.3430   23.1260 C   0  0  0  0  0  3  0  0  0  0  0  0
  -20.6100  -26.9220   22.5300 C   0  0  0  0  0  2  0  0  0  0  0  0
  -19.4950  -26.5830   21.5350 C   0  0  0  0  0  2  0  0  0  0  0  0
  -18.1240  -26.6870   22.2050 C   0  0  0  0  0  2  0  0  0  0  0  0
  -19.0360  -28.8060   23.3230 C   0  0  0  0  0  0  0  0  0  0  0  0
  -18.7970  -30.0530   23.9370 C   0  0  0  0  0  3  0  0  0  0  0  0
  -17.4840  -30.5180   24.1360 C   0  0  0  0  0  3  0  0  0  0  0  0
  -16.3900  -29.7300   23.7340 C   0  0  0  0  0  3  0  0  0  0  0  0
  -16.6180  -28.4840   23.1240 C   0  0  0  0  0  3  0  0  0  0  0  0
  -25.8330  -32.4700   23.6680 C   0  0  0  0  0  3  0  0  0  0  0  0
  -25.5590  -33.8580   24.0640 N   0  0  0  0  0  0  0  0  0  0  0  0
  -25.8770  -34.9360   23.3350 C   0  0  0  0  0  0  0  0  0  0  0  0
  -26.5130  -34.8670   22.2780 O   0  0  0  0  0  0  0  0  0  0  0  0
  -25.0020  -33.9820   24.8980 H   0  0  0  0  0  0  0  0  0  0  0  0
  -24.1780  -36.7750   23.1070 C   0  0  0  0  0  1  0  0  0  0  0  0
  -25.4290  -36.3100   23.8690 C   0  0  0  0  0  3  0  0  0  0  0  0
  -27.5940  -37.1230   24.6920 C   0  0  0  0  0  1  0  0  0  0  0  0
  -26.4750  -37.3490   23.7780 N   0  0  0  0  0  0  0  0  0  0  0  0
  -26.0830  -38.2650   23.9790 H   0  0  0  0  0  0  0  0  0  0  0  0
  -26.4110  -31.6480   24.8870 C   0  0  1  0  0  0  0  0  0  0  0  0
  -25.3780  -31.4010   26.0090 C   0  0  0  0  0  1  0  0  0  0  0  0
  -26.9530  -30.2730   24.4270 C   0  0  0  0  0  1  0  0  0  0  0  0
  -27.6040  -32.4080   25.5190 C   0  0  0  0  0  1  0  0  0  0  0  0
  1  5  1  0
  1  3  2  0
  2  4  2  0
  3  4  1  0
  4  7  1  0
  5  2  1  0
  7  6  1  0
  7  9  1  0
  9  8  1  0
 10  3  1  0
 10 19  1  0
 11 19  1  0
 12 17  1  0
 13 14  1  0
 13 12  1  0
 15 14  1  0
 15 24  1  0
 15 16  1  0
 17 11  1  0
 17 16  1  0
 18 11  2  0
 19 20  1  0
 21 22  2  0
 22 23  1  0
 22 41  1  0
 23 26  1  0
 24 21  1  0
 24 25  1  0
 25 23  2  0
 26 27  1  0
 27 28  2  0
 29 32  1  0
 29 28  1  0
 30 29  2  0
 31 30  1  0
 31 26  2  0
 32 33  1  0
 33 34  1  0
 34 35  2  0
 36 35  1  0
 36 40  1  0
 37 36  2  0
 38 33  2  0
 38 37  1  0
 39 38  1  0
 41 42  1  0
 42 45  1  0
 42 44  1  0
 43 41  2  0
 46 47  1  0
 46 21  1  0
 48 46  1  0
 49  5  1  0
 52 51  1  6
 52 53  1  0
 52 50  1  0
 52 49  1  0
 54 56  1  0
 54 53  1  0
 55 66  2  0
 56 61  1  0
 57 65  1  0
 57 67  1  0
 58 64  1  0
 58 60  1  0
 59 65  1  0
 60 59  1  0
 61 60  2  0
 62 63  1  0
 62 56  2  0
 63 58  2  0
 64 57  1  0
 65 55  1  0
 67 69  2  0
 68 67  1  0
 70 68  1  0
 71 80  2  0
 71 76  1  0
 72 68  1  0
 72 76  1  0
 73 72  1  0
 74 75  1  0
 74 73  1  0
 75 71  1  0
 76 77  2  0
 77 78  1  0
 79 78  2  0
 80 79  1  0
 81 55  1  0
 81 82  1  0
 81 91  1  0
 82 85  1  0
 83 87  1  0
 83 82  1  0
 84 83  2  0
 87 86  1  0
 89 87  1  0
 89 90  1  0
 89 88  1  0
 91 94  1  1
 91 92  1  0
 93 91  1  0
M  ISO  4  11 100  19 100  53 101  54 101
M  END
>  <TORSDO>  (67) 
F 22

>  <SCORE>  (67) 
-13.550

>  <name>  (67) 
66

>  <ligand_id>  (67) 
66

>  <original_smiles>  (67) 
[H]c1c([H])c([H])c2c(c1[H])C([H])([H])C([H])([H])C([H])([H])C2([H])N([H])C(=O)C1([H])N(C(=O)C([H])(N([H])C(=O)C([H])(N([H])C([H])([H])[H])C([H])([H])[H])C(C([H])([H])[H])(C([H])([H])[H])C([H])([H])[H])C([H])([H])c2c([H])c(OC([H])([H])C(C([H])([H])[H])(C([H])([H])[H])C([H])([H])n3c([H])c(C([H])([H])N([H])C(=O)N4C([H])([H])C([H])([H])C([H])([H])C([H])(n5nc(-c6c([H])c([H])c(Oc7c([H])c([H])c(F)c([H])c7F)c([H])c6[H])c(C(=O)N([H])[H])c5N([H])[H])C4([H])[H])c(C([H])(C([H])([H])[H])C([H])([H])C([H])([H])[H])c3[H])c([H])c([H])c2C1([H])[H]

>  <smiles>  (67) 
[H]c1c([H])c([H])c2c(c1[H])C([H])([H])C([H])([H])C([H])([H])C2([H])N([H])C(=O)C1([H])N(C(=O)C([H])(N([H])C(=O)C([H])(N([H])C([H])([H])[H])C([H])([H])[H])C(C([H])([H])[H])(C([H])([H])[H])C([H])([H])[H])C([H])([H])c2c([H])c(OC([H])([H])C(C([H])([H])[H])(C([H])([H])[H])C([H])([H])n3c([H])c(C([H])([H])N([H])C(=O)N4C([H])([H])C([H])([H])C([H])([H])C([H])(n5nc(-c6c([H])c([H])c(Oc7c([H])c([H])c(F)c([H])c7F)c([H])c6[H])c(C(=O)N([H])[H])c5N([H])[H])C4([H])[H])c(C([H])(C([H])([H])[H])C([H])([H])C([H])([H])[H])c3[H])c([H])c([H])c2C1([H])[H]

$$$$
68:0:0
     RDKit          3D

 88 96  0  0  1  0  0  0  0  0999 V2000
  -29.2780  -22.1710   21.2740 C   0  0  0  0  0  3  0  0  0  0  0  0
  -29.6910  -20.7480   21.3480 C   0  0  0  0  0  3  0  0  0  0  0  0
  -28.4870  -22.7760   20.2170 C   0  0  0  0  0  0  0  0  0  0  0  0
  -29.3600  -19.6960   20.4000 C   0  0  0  0  0  0  0  0  0  0  0  0
  -28.1990  -21.6480   19.3160 C   0  0  0  0  0  0  0  0  0  0  0  0
  -27.3090  -21.9030   18.1140 C   0  0  0  0  0  1  0  0  0  0  0  0
  -28.6120  -20.2840   19.3880 N   0  0  0  0  0  0  0  0  0  0  0  0
  -27.7320  -24.3500   20.1100 C   0  0  0  0  0  2  0  0  0  0  0  0
  -28.1310  -25.9150   20.3290 O   0  0  0  0  0  0  0  0  0  0  0  0
  -24.6250  -31.9110   23.2530 C   0  0  0  0  0  0  0  0  0  0  0  0
  -27.1440  -27.0280   20.2520 C   0  0  0  0  0  0  0  0  0  0  0  0
  -23.4190  -30.5190   21.6220 C   0  0  0  0  0  3  0  0  0  0  0  0
  -24.8550  -28.9090   20.2020 C   0  0  0  0  0  0  0  0  0  0  0  0
  -25.9870  -30.7190   21.4700 C   0  0  0  0  0  2  0  0  0  0  0  0
  -26.0470  -29.3110   20.8190 C   0  0  0  0  0  0  0  0  0  0  0  0
  -27.1880  -28.3910   20.8210 C   0  0  0  0  0  3  0  0  0  0  0  0
  -25.9220  -26.7780   19.5850 C   0  0  0  0  0  3  0  0  0  0  0  0
  -24.8170  -27.6620   19.5640 C   0  0  0  0  0  3  0  0  0  0  0  0
  -23.6420  -29.8330   20.2480 C   0  0  0  0  0  2  0  0  0  0  0  0
  -24.6990  -31.0760   22.1680 N   0  0  0  0  0  0  0  0  0  0  0  0
  -23.5390  -32.2100   23.7740 O   0  0  0  0  0  0  0  0  0  0  0  0
  -22.7210  -29.5300   22.5920 C   0  0  0  0  0  0  0  0  0  0  0  0
  -21.3910  -29.3680   22.4640 N   0  0  0  0  0  0  0  0  0  0  0  0
  -23.3830  -28.9080   23.4260 O   0  0  0  0  0  0  0  0  0  0  0  0
  -20.9120  -29.9210   21.7660 H   0  0  0  0  0  0  0  0  0  0  0  0
  -18.0020  -28.1740   22.9680 C   0  0  0  0  0  0  0  0  0  0  0  0
  -20.5620  -28.4390   23.2400 C   0  0  0  0  0  3  0  0  0  0  0  0
  -20.6630  -27.0020   22.6790 C   0  0  0  0  0  2  0  0  0  0  0  0
  -19.5640  -26.6710   21.6640 C   0  0  0  0  0  2  0  0  0  0  0  0
  -18.1800  -26.8210   22.3010 C   0  0  0  0  0  2  0  0  0  0  0  0
  -19.1200  -28.9400   23.3940 C   0  0  0  0  0  0  0  0  0  0  0  0
  -18.8970  -30.2050   23.9820 C   0  0  0  0  0  3  0  0  0  0  0  0
  -17.5900  -30.7040   24.1440 C   0  0  0  0  0  3  0  0  0  0  0  0
  -16.4880  -29.9350   23.7310 C   0  0  0  0  0  3  0  0  0  0  0  0
  -16.6940  -28.6720   23.1490 C   0  0  0  0  0  3  0  0  0  0  0  0
  -25.9020  -32.5470   23.8820 C   0  0  0  0  0  3  0  0  0  0  0  0
  -25.5950  -33.9500   24.2110 N   0  0  0  0  0  0  0  0  0  0  0  0
  -25.9090  -35.0050   23.4470 C   0  0  0  0  0  0  0  0  0  0  0  0
  -26.5540  -34.8990   22.4010 O   0  0  0  0  0  0  0  0  0  0  0  0
  -25.0180  -34.1050   25.0250 H   0  0  0  0  0  0  0  0  0  0  0  0
  -24.1660  -36.7980   23.1570 C   0  0  0  0  0  1  0  0  0  0  0  0
  -25.4400  -36.3970   23.9170 C   0  0  0  0  0  3  0  0  0  0  0  0
  -27.6030  -37.2960   24.6590 C   0  0  0  0  0  1  0  0  0  0  0  0
  -26.4650  -37.4520   23.7560 N   0  0  0  0  0  0  0  0  0  0  0  0
  -26.0620  -38.3730   23.9100 H   0  0  0  0  0  0  0  0  0  0  0  0
  -26.4030  -31.7840   25.1700 C   0  0  1  0  0  0  0  0  0  0  0  0
  -25.3010  -31.5650   26.2340 C   0  0  0  0  0  1  0  0  0  0  0  0
  -26.9790  -30.3980   24.8010 C   0  0  0  0  0  1  0  0  0  0  0  0
  -27.5560  -32.5750   25.8300 C   0  0  0  0  0  1  0  0  0  0  0  0
  -30.1120  -18.1290   20.3020 C   0  0  0  0  0  2  0  0  0  0  0  0
  -30.4140  -15.2720   20.2880 C   0  0  0  0  0  0  0  0  0  0  0  0
  -30.3530  -12.8540   19.3770 C   0  0  0  0  0  2  0  0  0  0  0  0
  -29.4170  -12.6760   18.1560 C   0  0  0  0  0  2  0  0  0  0  0  0
  -27.9730  -12.4050   18.6150 C   0  0  0  0  0  2  0  0  0  0  0  0
  -27.5380  -13.3540   19.7590 C   0  0  0  0  0  3  0  0  0  0  0  0
  -28.6010  -13.4840   20.8700 C   0  0  0  0  0  2  0  0  0  0  0  0
  -29.8270  -13.9820   20.2270 N   0  0  0  0  0  0  0  0  0  0  0  0
  -31.6280  -15.2710   20.0400 O   0  0  0  0  0  0  0  0  0  0  0  0
  -29.6820  -16.5420   20.4140 N   0  0  0  0  0  0  0  0  0  0  0  0
  -28.6920  -16.4170   20.5630 H   0  0  0  0  0  0  0  0  0  0  0  0
  -25.1730  -13.8920   20.5480 C   0  0  0  0  0  0  0  0  0  0  0  0
  -24.1210  -13.1040   20.9210 C   0  0  0  0  0  0  0  0  0  0  0  0
  -24.5970  -11.7580   20.8710 C   0  0  0  0  0  0  0  0  0  0  0  0
  -26.2190  -13.0270   20.2820 N   0  0  0  0  0  0  0  0  0  0  0  0
  -25.8850  -11.7360   20.5450 N   0  0  0  0  0  0  0  0  0  0  0  0
  -23.8800  -10.4880   21.0540 C   0  0  0  0  0  0  0  0  0  0  0  0
  -24.3190   -9.5170   21.9810 C   0  0  0  0  0  3  0  0  0  0  0  0
  -23.5990   -8.3150   22.1540 C   0  0  0  0  0  3  0  0  0  0  0  0
  -22.4250   -8.0760   21.4000 C   0  0  0  0  0  0  0  0  0  0  0  0
  -22.0050   -9.0360   20.4620 C   0  0  0  0  0  3  0  0  0  0  0  0
  -22.7270  -10.2280   20.2870 C   0  0  0  0  0  3  0  0  0  0  0  0
  -21.6750   -6.9280   21.4830 O   0  0  0  0  0  0  0  0  0  0  0  0
  -21.6220   -6.1850   22.6350 C   0  0  0  0  0  0  0  0  0  0  0  0
  -21.1670   -6.7320   23.8550 C   0  0  0  0  0  3  0  0  0  0  0  0
  -21.0630   -5.9150   24.9980 C   0  0  0  0  0  3  0  0  0  0  0  0
  -21.4030   -4.5520   24.9230 C   0  0  0  0  0  0  0  0  0  0  0  0
  -21.8510   -4.0030   23.7080 C   0  0  0  0  0  3  0  0  0  0  0  0
  -21.9570   -4.8180   22.5670 C   0  0  0  0  0  0  0  0  0  0  0  0
  -22.3690   -4.2800   21.3940 F   0  0  0  0  0  0  0  0  0  0  0  0
  -21.2960   -3.7640   26.0180 F   0  0  0  0  0  0  0  0  0  0  0  0
  -22.7240  -13.5690   21.2080 C   0  0  0  0  0  0  0  0  0  0  0  0
  -22.0080  -12.8640   22.0770 N   0  0  0  0  0  0  0  0  0  0  0  0
  -22.2740  -14.5940   20.6950 O   0  0  0  0  0  0  0  0  0  0  0  0
  -22.3840  -12.0340   22.5100 H   0  0  0  0  0  0  0  0  0  0  0  0
  -21.0720  -13.1600   22.3140 H   0  0  0  0  0  0  0  0  0  0  0  0
  -25.3220  -15.2660   20.3810 N   0  0  0  0  0  0  0  0  0  0  0  0
  -24.5470  -15.9100   20.5040 H   0  0  0  0  0  0  0  0  0  0  0  0
  -26.1530  -15.7130   20.0180 H   0  0  0  0  0  0  0  0  0  0  0  0
  1  2  1  0
  3  1  2  0
  4  2  2  0
  5  7  2  0
  5  3  1  0
  6  5  1  0
  7  4  1  0
  8  3  1  0
  8  9  1  0
 10 21  2  0
 11  9  1  0
 11 16  1  0
 12 20  1  0
 12 22  1  0
 13 19  1  0
 13 15  1  0
 14 20  1  0
 15 16  2  0
 15 14  1  0
 17 11  2  0
 18 17  1  0
 18 13  2  0
 19 12  1  0
 20 10  1  0
 22 24  2  0
 23 22  1  0
 25 23  1  0
 26 35  2  0
 26 31  1  0
 27 23  1  0
 27 31  1  0
 28 27  1  0
 29 30  1  0
 29 28  1  0
 30 26  1  0
 31 32  2  0
 32 33  1  0
 34 33  2  0
 35 34  1  0
 36 10  1  0
 36 37  1  0
 36 46  1  0
 37 40  1  0
 38 42  1  0
 38 37  1  0
 39 38  2  0
 42 41  1  0
 44 45  1  0
 44 42  1  0
 44 43  1  0
 46 49  1  1
 46 47  1  0
 48 46  1  0
 50  4  1  0
 50 59  1  0
 51 59  1  0
 52 57  1  0
 53 54  1  0
 53 52  1  0
 55 54  1  0
 55 64  1  0
 55 56  1  0
 57 51  1  0
 57 56  1  0
 58 51  2  0
 59 60  1  0
 61 62  2  0
 62 81  1  0
 63 62  1  0
 63 66  1  0
 64 65  1  0
 64 61  1  0
 65 63  2  0
 66 67  1  0
 67 68  2  0
 69 72  1  0
 69 68  1  0
 70 69  2  0
 71 70  1  0
 71 66  2  0
 72 73  1  0
 73 74  1  0
 74 75  2  0
 76 75  1  0
 76 80  1  0
 77 76  2  0
 78 73  2  0
 78 77  1  0
 79 78  1  0
 81 82  1  0
 82 85  1  0
 82 84  1  0
 83 81  2  0
 86 87  1  0
 86 61  1  0
 88 86  1  0
M  ISO  4   8 101   9 101  51 100  59 100
M  END
>  <TORSDO>  (68) 
F 18

>  <SCORE>  (68) 
-15.957

>  <name>  (68) 
68

>  <ligand_id>  (68) 
68

>  <original_smiles>  (68) 
[H]c1c(C([H])([H])N([H])C(=O)N2C([H])([H])C([H])([H])C([H])([H])C([H])(n3nc(-c4c([H])c([H])c(Oc5c([H])c([H])c(F)c([H])c5F)c([H])c4[H])c(C(=O)N([H])[H])c3N([H])[H])C2([H])[H])nc(C([H])([H])[H])c(C([H])([H])Oc2c([H])c([H])c3c(c2[H])C([H])([H])N(C(=O)C([H])(N([H])C(=O)C([H])(N([H])C([H])([H])[H])C([H])([H])[H])C(C([H])([H])[H])(C([H])([H])[H])C([H])([H])[H])C([H])(C(=O)N([H])C2([H])c4c([H])c([H])c([H])c([H])c4C([H])([H])C([H])([H])C2([H])[H])C3([H])[H])c1[H]

>  <smiles>  (68) 
[H]c1c(C([H])([H])N([H])C(=O)N2C([H])([H])C([H])([H])C([H])([H])C([H])(n3nc(-c4c([H])c([H])c(Oc5c([H])c([H])c(F)c([H])c5F)c([H])c4[H])c(C(=O)N([H])[H])c3N([H])[H])C2([H])[H])nc(C([H])([H])[H])c(C([H])([H])Oc2c([H])c([H])c3c(c2[H])C([H])([H])N(C(=O)C([H])(N([H])C(=O)C([H])(N([H])C([H])([H])[H])C([H])([H])[H])C(C([H])([H])[H])(C([H])([H])[H])C([H])([H])[H])C([H])(C(=O)N([H])C2([H])c4c([H])c([H])c([H])c([H])c4C([H])([H])C([H])([H])C2([H])[H])C3([H])[H])c1[H]

$$$$
69:0:0
     RDKit          3D

 97105  0  0  1  0  0  0  0  0999 V2000
  -28.2600  -21.2020   21.0930 C   0  0  0  0  0  2  0  0  0  0  0  0
  -28.7470  -18.8020   20.4680 C   0  0  0  0  0  3  0  0  0  0  0  0
  -29.3510  -20.5220   18.8890 C   0  0  0  0  0  3  0  0  0  0  0  0
  -28.8050  -20.1630   20.1320 C   0  0  0  0  0  0  0  0  0  0  0  0
  -29.2010  -17.8440   19.5440 C   0  0  0  0  0  0  0  0  0  0  0  0
  -29.6930  -18.3010   18.2970 C   0  0  0  0  0  0  0  0  0  0  0  0
  -30.0750  -17.3550   17.1680 C   0  0  0  0  0  1  0  0  0  0  0  0
  -29.7890  -19.6130   17.9930 N   0  0  0  0  0  0  0  0  0  0  0  0
  -29.0240  -16.3630   19.8780 C   0  0  0  0  0  2  0  0  0  0  0  0
  -30.6990  -14.5910   19.7290 C   0  0  0  0  0  0  0  0  0  0  0  0
  -30.2600  -12.4410   18.5930 C   0  0  0  0  0  2  0  0  0  0  0  0
  -29.2430  -12.6100   17.4480 C   0  0  0  0  0  2  0  0  0  0  0  0
  -27.8020  -12.4610   17.9810 C   0  0  0  0  0  2  0  0  0  0  0  0
  -27.5350  -13.3180   19.2400 C   0  0  0  0  0  3  0  0  0  0  0  0
  -28.6700  -13.1710   20.2840 C   0  0  0  0  0  2  0  0  0  0  0  0
  -29.9560  -13.4520   19.6220 N   0  0  0  0  0  0  0  0  0  0  0  0
  -31.7920  -14.7150   19.1730 O   0  0  0  0  0  0  0  0  0  0  0  0
  -30.1660  -15.6160   20.4440 N   0  0  0  0  0  0  0  0  0  0  0  0
  -25.2140  -13.9670   20.1210 C   0  0  0  0  0  0  0  0  0  0  0  0
  -24.1690  -13.2060   20.5730 C   0  0  0  0  0  0  0  0  0  0  0  0
  -24.6180  -11.8510   20.5230 C   0  0  0  0  0  0  0  0  0  0  0  0
  -26.2280  -13.0670   19.8250 N   0  0  0  0  0  0  0  0  0  0  0  0
  -25.8800  -11.7940   20.1220 N   0  0  0  0  0  0  0  0  0  0  0  0
  -23.9000  -10.5990   20.7740 C   0  0  0  0  0  0  0  0  0  0  0  0
  -24.3650   -9.6620   21.7230 C   0  0  0  0  0  3  0  0  0  0  0  0
  -23.6510   -8.4670   21.9570 C   0  0  0  0  0  3  0  0  0  0  0  0
  -22.4580   -8.2050   21.2410 C   0  0  0  0  0  0  0  0  0  0  0  0
  -22.0120   -9.1310   20.2810 C   0  0  0  0  0  3  0  0  0  0  0  0
  -22.7280  -10.3160   20.0450 C   0  0  0  0  0  3  0  0  0  0  0  0
  -21.7130   -7.0590   21.3830 O   0  0  0  0  0  0  0  0  0  0  0  0
  -21.6770   -6.3670   22.5670 C   0  0  0  0  0  0  0  0  0  0  0  0
  -21.2640   -6.9750   23.7740 C   0  0  0  0  0  3  0  0  0  0  0  0
  -21.1710   -6.2100   24.9520 C   0  0  0  0  0  3  0  0  0  0  0  0
  -21.4820   -4.8380   24.9290 C   0  0  0  0  0  0  0  0  0  0  0  0
  -21.8890   -4.2280   23.7300 C   0  0  0  0  0  3  0  0  0  0  0  0
  -21.9840   -4.9920   22.5510 C   0  0  0  0  0  0  0  0  0  0  0  0
  -22.3550   -4.3920   21.3940 F   0  0  0  0  0  0  0  0  0  0  0  0
  -21.3860   -4.1010   26.0620 F   0  0  0  0  0  0  0  0  0  0  0  0
  -22.7980  -13.7000   20.9330 C   0  0  0  0  0  0  0  0  0  0  0  0
  -22.1430  -13.0410   21.8840 N   0  0  0  0  0  0  0  0  0  0  0  0
  -22.3170  -14.7040   20.4090 O   0  0  0  0  0  0  0  0  0  0  0  0
  -22.5520  -12.2290   22.3230 H   0  0  0  0  0  0  0  0  0  0  0  0
  -21.2230  -13.3480   22.1650 H   0  0  0  0  0  0  0  0  0  0  0  0
  -25.3780  -15.3310   19.9130 N   0  0  0  0  0  0  0  0  0  0  0  0
  -24.6220  -15.9890   20.0700 H   0  0  0  0  0  0  0  0  0  0  0  0
  -26.1830  -15.7520   19.4680 H   0  0  0  0  0  0  0  0  0  0  0  0
  -31.4270  -15.2900   22.5880 C   0  0  0  0  0  1  0  0  0  0  0  0
  -31.9640  -17.2660   21.0960 C   0  0  0  0  0  1  0  0  0  0  0  0
  -30.8670  -16.2910   21.5620 C   0  0  0  0  0  3  0  0  0  0  0  0
  -29.3180  -22.2330   21.5120 C   0  0  0  0  0  2  0  0  0  0  0  0
  -28.8890  -23.1000   22.7050 C   0  0  0  0  0  2  0  0  0  0  0  0
  -27.7290  -23.9800   22.4280 N   0  0  0  0  0  4  0  0  0  0  0  0
  -27.2710  -24.0960   23.3210 H   0  0  0  0  0  0  0  0  0  0  0  0
  -27.0490  -23.5280   21.8360 H   0  0  0  0  0  0  0  0  0  0  0  0
  -28.0390  -25.3520   21.9540 C   0  0  0  0  0  2  0  0  0  0  0  0
  -28.3660  -25.4540   20.4460 C   0  0  0  0  0  2  0  0  0  0  0  0
  -28.4300  -26.8220   20.0240 O   0  0  0  0  0  0  0  0  0  0  0  0
  -24.5100  -31.8490   23.1380 C   0  0  0  0  0  0  0  0  0  0  0  0
  -27.2410  -27.5140   20.0080 C   0  0  0  0  0  0  0  0  0  0  0  0
  -23.3300  -30.4390   21.4850 C   0  0  0  0  0  3  0  0  0  0  0  0
  -24.8120  -28.9570   20.0350 C   0  0  0  0  0  0  0  0  0  0  0  0
  -25.8440  -30.8640   21.2830 C   0  0  0  0  0  2  0  0  0  0  0  0
  -25.9580  -29.5060   20.6230 C   0  0  0  0  0  0  0  0  0  0  0  0
  -27.1770  -28.7920   20.6020 C   0  0  0  0  0  3  0  0  0  0  0  0
  -26.0810  -26.9780   19.4030 C   0  0  0  0  0  3  0  0  0  0  0  0
  -24.8700  -27.6940   19.4200 C   0  0  0  0  0  3  0  0  0  0  0  0
  -23.5460  -29.7810   20.0970 C   0  0  0  0  0  2  0  0  0  0  0  0
  -24.5790  -31.0640   22.0270 N   0  0  0  0  0  0  0  0  0  0  0  0
  -23.4260  -32.0900   23.6850 O   0  0  0  0  0  0  0  0  0  0  0  0
  -22.7070  -29.3890   22.4340 C   0  0  0  0  0  0  0  0  0  0  0  0
  -21.3850  -29.1910   22.3180 N   0  0  0  0  0  0  0  0  0  0  0  0
  -23.4090  -28.7590   23.2280 O   0  0  0  0  0  0  0  0  0  0  0  0
  -20.8790  -29.7540   21.6480 H   0  0  0  0  0  0  0  0  0  0  0  0
  -18.0260  -27.9690   22.8380 C   0  0  0  0  0  0  0  0  0  0  0  0
  -20.5860  -28.2300   23.0780 C   0  0  0  0  0  3  0  0  0  0  0  0
  -20.6890  -26.8140   22.4670 C   0  0  0  0  0  2  0  0  0  0  0  0
  -19.5730  -26.5100   21.4630 C   0  0  0  0  0  2  0  0  0  0  0  0
  -18.2010  -26.6350   22.1320 C   0  0  0  0  0  2  0  0  0  0  0  0
  -19.1470  -28.7260   23.2670 C   0  0  0  0  0  0  0  0  0  0  0  0
  -18.9320  -29.9770   23.8840 C   0  0  0  0  0  3  0  0  0  0  0  0
  -17.6280  -30.4670   24.0810 C   0  0  0  0  0  3  0  0  0  0  0  0
  -16.5200  -29.7040   23.6730 C   0  0  0  0  0  3  0  0  0  0  0  0
  -16.7220  -28.4570   23.0530 C   0  0  0  0  0  3  0  0  0  0  0  0
  -25.7850  -32.5000   23.7620 C   0  0  0  0  0  3  0  0  0  0  0  0
  -25.4460  -33.8830   24.1170 N   0  0  0  0  0  0  0  0  0  0  0  0
  -25.7490  -34.9550   23.3710 C   0  0  0  0  0  0  0  0  0  0  0  0
  -26.4160  -34.8840   22.3350 O   0  0  0  0  0  0  0  0  0  0  0  0
  -24.8520  -34.0130   24.9220 H   0  0  0  0  0  0  0  0  0  0  0  0
  -23.9750  -36.7080   23.0500 C   0  0  0  0  0  1  0  0  0  0  0  0
  -25.2280  -36.3220   23.8530 C   0  0  0  0  0  3  0  0  0  0  0  0
  -27.3410  -37.2410   24.6970 C   0  0  0  0  0  1  0  0  0  0  0  0
  -26.2330  -37.4020   23.7570 N   0  0  0  0  0  0  0  0  0  0  0  0
  -25.8060  -38.3090   23.9220 H   0  0  0  0  0  0  0  0  0  0  0  0
  -26.3320  -31.7180   25.0190 C   0  0  1  0  0  0  0  0  0  0  0  0
  -25.2550  -31.4290   26.0890 C   0  0  0  0  0  1  0  0  0  0  0  0
  -26.9490  -30.3650   24.5940 C   0  0  0  0  0  1  0  0  0  0  0  0
  -27.4660  -32.5290   25.6880 C   0  0  0  0  0  1  0  0  0  0  0  0
  1 50  1  0
  3  4  2  0
  4  2  1  0
  4  1  1  0
  5  9  1  0
  5  2  2  0
  6  5  1  0
  7  6  1  0
  8  6  2  0
  8  3  1  0
  9 18  1  0
 10 18  1  0
 11 16  1  0
 12 13  1  0
 12 11  1  0
 14 13  1  0
 14 22  1  0
 14 15  1  0
 16 10  1  0
 16 15  1  0
 17 10  2  0
 18 49  1  0
 19 20  2  0
 20 39  1  0
 21 20  1  0
 21 24  1  0
 22 19  1  0
 22 23  1  0
 23 21  2  0
 24 25  1  0
 25 26  2  0
 27 30  1  0
 27 26  1  0
 28 27  2  0
 29 28  1  0
 29 24  2  0
 30 31  1  0
 31 32  1  0
 32 33  2  0
 34 33  1  0
 34 38  1  0
 35 34  2  0
 36 31  2  0
 36 35  1  0
 37 36  1  0
 39 40  1  0
 40 43  1  0
 40 42  1  0
 41 39  2  0
 44 45  1  0
 44 19  1  0
 46 44  1  0
 48 49  1  0
 49 47  1  0
 50 51  1  0
 52 51  1  0
 52 53  1  0
 54 52  1  0
 55 52  1  0
 56 55  1  0
 57 56  1  0
 58 69  2  0
 59 57  1  0
 59 64  1  0
 60 68  1  0
 60 70  1  0
 61 67  1  0
 61 63  1  0
 62 68  1  0
 63 62  1  0
 64 63  2  0
 65 66  1  0
 65 59  2  0
 66 61  2  0
 67 60  1  0
 68 58  1  0
 70 72  2  0
 71 70  1  0
 73 71  1  0
 74 83  2  0
 74 79  1  0
 75 71  1  0
 75 79  1  0
 76 75  1  0
 77 78  1  0
 77 76  1  0
 78 74  1  0
 79 80  2  0
 80 81  1  0
 82 81  2  0
 83 82  1  0
 84 58  1  0
 84 85  1  0
 84 94  1  0
 85 88  1  0
 86 90  1  0
 86 85  1  0
 87 86  2  0
 90 89  1  0
 92 90  1  0
 92 93  1  0
 92 91  1  0
 94 97  1  1
 94 95  1  0
 96 94  1  0
M  ISO  4  10 100  18 100  56 101  57 101
M  END
>  <TORSDO>  (69) 
F 24

>  <SCORE>  (69) 
-10.375

>  <name>  (69) 
69

>  <ligand_id>  (69) 
69

>  <original_smiles>  (69) 
[H]c1nc(C([H])([H])[H])c(C([H])([H])N(C(=O)N2C([H])([H])C([H])([H])C([H])([H])C([H])(n3nc(-c4c([H])c([H])c(Oc5c([H])c([H])c(F)c([H])c5F)c([H])c4[H])c(C(=O)N([H])[H])c3N([H])[H])C2([H])[H])C([H])(C([H])([H])[H])C([H])([H])[H])c([H])c1C([H])([H])C([H])([H])C([H])([H])[N+]([H])([H])C([H])([H])C([H])([H])Oc1c([H])c([H])c2c(c1[H])C([H])([H])N(C(=O)C([H])(N([H])C(=O)C([H])(N([H])C([H])([H])[H])C([H])([H])[H])C(C([H])([H])[H])(C([H])([H])[H])C([H])([H])[H])C([H])(C(=O)N([H])C1([H])c3c([H])c([H])c([H])c([H])c3C([H])([H])C([H])([H])C1([H])[H])C2([H])[H]

>  <smiles>  (69) 
[H]c1nc(C([H])([H])[H])c(C([H])([H])N(C(=O)N2C([H])([H])C([H])([H])C([H])([H])C([H])(n3nc(-c4c([H])c([H])c(Oc5c([H])c([H])c(F)c([H])c5F)c([H])c4[H])c(C(=O)N([H])[H])c3N([H])[H])C2([H])[H])C([H])(C([H])([H])[H])C([H])([H])[H])c([H])c1C([H])([H])C([H])([H])C([H])([H])[N+]([H])([H])C([H])([H])C([H])([H])Oc1c([H])c([H])c2c(c1[H])C([H])([H])N(C(=O)C([H])(N([H])C(=O)C([H])(N([H])C([H])([H])[H])C([H])([H])[H])C(C([H])([H])[H])(C([H])([H])[H])C([H])([H])[H])C([H])(C(=O)N([H])C1([H])c3c([H])c([H])c([H])c([H])c3C([H])([H])C([H])([H])C1([H])[H])C2([H])[H]

$$$$
70:0:0
     RDKit          3D

 97106  0  0  1  0  0  0  0  0999 V2000
  -31.4510  -23.2130   19.1250 C   0  0  0  0  0  3  0  0  0  0  0  0
  -28.7620  -21.1310   20.3700 C   0  0  0  0  0  3  0  0  0  0  0  0
  -30.9140  -20.8880   19.8070 C   0  0  0  0  0  0  0  0  0  0  0  0
  -29.7510  -20.1290   20.2940 C   0  0  0  0  0  0  0  0  0  0  0  0
  -30.5290  -22.2710   19.6150 C   0  0  0  0  0  0  0  0  0  0  0  0
  -32.7260  -22.7930   18.7630 C   0  0  0  0  0  0  0  0  0  0  0  0
  -32.2880  -20.6090   19.5080 C   0  0  0  0  0  0  0  0  0  0  0  0
  -33.7440  -23.7380   18.1430 C   0  0  0  0  0  1  0  0  0  0  0  0
  -32.9670  -19.2910   19.7810 C   0  0  0  0  0  1  0  0  0  0  0  0
  -33.1230  -21.5320   18.9720 N   0  0  0  0  0  0  0  0  0  0  0  0
  -29.1830  -22.4250   19.9310 N   0  0  0  0  0  0  0  0  0  0  0  0
  -29.5780  -18.5960   20.7450 C   0  0  0  0  0  3  0  0  0  0  0  0
  -30.1140  -17.2960   19.9340 C   0  0  0  0  0  3  0  0  0  0  0  0
  -30.5920  -14.7290   20.2550 C   0  0  0  0  0  0  0  0  0  0  0  0
  -30.3500  -12.4580   19.2640 C   0  0  0  0  0  2  0  0  0  0  0  0
  -29.3950  -12.5590   18.0520 C   0  0  0  0  0  2  0  0  0  0  0  0
  -27.9300  -12.4160   18.5100 C   0  0  0  0  0  2  0  0  0  0  0  0
  -27.5880  -13.2890   19.7470 C   0  0  0  0  0  3  0  0  0  0  0  0
  -28.6680  -13.1630   20.8440 C   0  0  0  0  0  2  0  0  0  0  0  0
  -29.9540  -13.5070   20.2310 N   0  0  0  0  0  0  0  0  0  0  0  0
  -31.7600  -14.8190   19.8760 O   0  0  0  0  0  0  0  0  0  0  0  0
  -29.8380  -15.8760   20.4590 N   0  0  0  0  0  0  0  0  0  0  0  0
  -28.9100  -15.7080   20.8220 H   0  0  0  0  0  0  0  0  0  0  0  0
  -25.2040  -13.8970   20.4840 C   0  0  0  0  0  0  0  0  0  0  0  0
  -24.1330  -13.1290   20.8620 C   0  0  0  0  0  0  0  0  0  0  0  0
  -24.5850  -11.7760   20.8270 C   0  0  0  0  0  0  0  0  0  0  0  0
  -26.2430  -13.0110   20.2480 N   0  0  0  0  0  0  0  0  0  0  0  0
  -25.8760  -11.7300   20.5090 N   0  0  0  0  0  0  0  0  0  0  0  0
  -23.8490  -10.5190   21.0220 C   0  0  0  0  0  0  0  0  0  0  0  0
  -24.2840   -9.5520   21.9550 C   0  0  0  0  0  3  0  0  0  0  0  0
  -23.5550   -8.3570   22.1410 C   0  0  0  0  0  3  0  0  0  0  0  0
  -22.3750   -8.1230   21.3930 C   0  0  0  0  0  0  0  0  0  0  0  0
  -21.9610   -9.0790   20.4490 C   0  0  0  0  0  3  0  0  0  0  0  0
  -22.6900  -10.2660   20.2620 C   0  0  0  0  0  3  0  0  0  0  0  0
  -21.6200   -6.9780   21.4850 O   0  0  0  0  0  0  0  0  0  0  0  0
  -21.5750   -6.2330   22.6370 C   0  0  0  0  0  0  0  0  0  0  0  0
  -21.1560   -6.7900   23.8660 C   0  0  0  0  0  3  0  0  0  0  0  0
  -21.0630   -5.9750   25.0110 C   0  0  0  0  0  3  0  0  0  0  0  0
  -21.3710   -4.6030   24.9280 C   0  0  0  0  0  0  0  0  0  0  0  0
  -21.7810   -4.0470   23.7040 C   0  0  0  0  0  3  0  0  0  0  0  0
  -21.8790   -4.8580   22.5610 C   0  0  0  0  0  0  0  0  0  0  0  0
  -22.2530   -4.3130   21.3780 F   0  0  0  0  0  0  0  0  0  0  0  0
  -21.2730   -3.8190   26.0260 F   0  0  0  0  0  0  0  0  0  0  0  0
  -22.7410  -13.6170   21.1430 C   0  0  0  0  0  0  0  0  0  0  0  0
  -22.0170  -12.9180   22.0110 N   0  0  0  0  0  0  0  0  0  0  0  0
  -22.3080  -14.6490   20.6340 O   0  0  0  0  0  0  0  0  0  0  0  0
  -22.3830  -12.0810   22.4420 H   0  0  0  0  0  0  0  0  0  0  0  0
  -21.0830  -13.2170   22.2460 H   0  0  0  0  0  0  0  0  0  0  0  0
  -25.3740  -15.2660   20.2990 N   0  0  0  0  0  0  0  0  0  0  0  0
  -24.6280  -15.9350   20.4510 H   0  0  0  0  0  0  0  0  0  0  0  0
  -26.1930  -15.6840   19.8780 H   0  0  0  0  0  0  0  0  0  0  0  0
  -28.3300  -23.6910   19.6700 C   0  0  0  0  0  3  0  0  0  0  0  0
  -28.4360  -22.7090   17.2260 C   0  0  0  0  0  1  0  0  0  0  0  0
  -28.8600  -25.1780   17.5490 C   0  0  0  0  0  1  0  0  0  0  0  0
  -28.1450  -23.9360   18.1220 C   0  0  0  0  0  3  0  0  0  0  0  0
  -28.5650  -25.0350   20.5730 C   0  0  0  0  0  2  0  0  0  0  0  0
  -28.4510  -26.4800   20.1620 O   0  0  0  0  0  0  0  0  0  0  0  0
  -24.6260  -31.8690   23.2560 C   0  0  0  0  0  0  0  0  0  0  0  0
  -27.2850  -27.2720   20.2330 C   0  0  0  0  0  0  0  0  0  0  0  0
  -23.4360  -30.4480   21.6250 C   0  0  0  0  0  3  0  0  0  0  0  0
  -24.8990  -28.8790   20.2220 C   0  0  0  0  0  0  0  0  0  0  0  0
  -25.9790  -30.7730   21.4440 C   0  0  0  0  0  2  0  0  0  0  0  0
  -26.0680  -29.3850   20.8050 C   0  0  0  0  0  0  0  0  0  0  0  0
  -27.2660  -28.6020   20.7770 C   0  0  0  0  0  3  0  0  0  0  0  0
  -26.0850  -26.8100   19.6580 C   0  0  0  0  0  3  0  0  0  0  0  0
  -24.9140  -27.6010   19.6330 C   0  0  0  0  0  3  0  0  0  0  0  0
  -23.6590  -29.7530   20.2570 C   0  0  0  0  0  2  0  0  0  0  0  0
  -24.7010  -31.0490   22.1650 N   0  0  0  0  0  0  0  0  0  0  0  0
  -23.5400  -32.1470   23.7840 O   0  0  0  0  0  0  0  0  0  0  0  0
  -22.7720  -29.4400   22.5950 C   0  0  0  0  0  0  0  0  0  0  0  0
  -21.4460  -29.2620   22.4680 N   0  0  0  0  0  0  0  0  0  0  0  0
  -23.4480  -28.8220   23.4200 O   0  0  0  0  0  0  0  0  0  0  0  0
  -20.9580  -29.8140   21.7760 H   0  0  0  0  0  0  0  0  0  0  0  0
  -18.0670  -28.0570   22.9700 C   0  0  0  0  0  0  0  0  0  0  0  0
  -20.6260  -28.3250   23.2410 C   0  0  0  0  0  3  0  0  0  0  0  0
  -20.7300  -26.8910   22.6710 C   0  0  0  0  0  2  0  0  0  0  0  0
  -19.6300  -26.5620   21.6580 C   0  0  0  0  0  2  0  0  0  0  0  0
  -18.2480  -26.7060   22.3000 C   0  0  0  0  0  2  0  0  0  0  0  0
  -19.1840  -28.8240   23.3980 C   0  0  0  0  0  0  0  0  0  0  0  0
  -18.9600  -30.0900   23.9840 C   0  0  0  0  0  3  0  0  0  0  0  0
  -17.6520  -30.5860   24.1490 C   0  0  0  0  0  3  0  0  0  0  0  0
  -16.5510  -29.8160   23.7370 C   0  0  0  0  0  3  0  0  0  0  0  0
  -16.7600  -28.5540   23.1540 C   0  0  0  0  0  3  0  0  0  0  0  0
  -25.9010  -32.5170   23.8810 C   0  0  0  0  0  3  0  0  0  0  0  0
  -25.5850  -33.9190   24.1910 N   0  0  0  0  0  0  0  0  0  0  0  0
  -25.9220  -34.9620   23.4240 C   0  0  0  0  0  0  0  0  0  0  0  0
  -26.5980  -34.8460   22.3980 O   0  0  0  0  0  0  0  0  0  0  0  0
  -24.9930  -34.0840   24.9920 H   0  0  0  0  0  0  0  0  0  0  0  0
  -24.1940  -36.7490   23.0370 C   0  0  0  0  0  1  0  0  0  0  0  0
  -25.4320  -36.3570   23.8600 C   0  0  0  0  0  3  0  0  0  0  0  0
  -27.5620  -37.2510   24.6940 C   0  0  0  0  0  1  0  0  0  0  0  0
  -26.4650  -37.4090   23.7410 N   0  0  0  0  0  0  0  0  0  0  0  0
  -26.0600  -38.3300   23.8770 H   0  0  0  0  0  0  0  0  0  0  0  0
  -26.4080  -31.7660   25.1730 C   0  0  1  0  0  0  0  0  0  0  0  0
  -25.3070  -31.5370   26.2370 C   0  0  0  0  0  1  0  0  0  0  0  0
  -26.9960  -30.3820   24.8050 C   0  0  0  0  0  1  0  0  0  0  0  0
  -27.5550  -32.5730   25.8270 C   0  0  0  0  0  1  0  0  0  0  0  0
  1  5  1  0
  3  4  1  0
  4  2  2  0
  4 12  1  0
  5  3  2  0
  5 11  1  0
  6 10  1  0
  6  1  2  0
  7  9  1  0
  7  3  1  0
  8  6  1  0
 10  7  2  0
 11  2  1  0
 13 22  1  0
 13 12  2  0
 14 22  1  0
 15 20  1  0
 16 17  1  0
 16 15  1  0
 18 17  1  0
 18 27  1  0
 18 19  1  0
 20 14  1  0
 20 19  1  0
 21 14  2  0
 22 23  1  0
 24 25  2  0
 25 44  1  0
 26 25  1  0
 26 29  1  0
 27 24  1  0
 27 28  1  0
 28 26  2  0
 29 30  1  0
 30 31  2  0
 32 35  1  0
 32 31  1  0
 33 32  2  0
 34 33  1  0
 34 29  2  0
 35 36  1  0
 36 37  1  0
 37 38  2  0
 39 38  1  0
 39 43  1  0
 40 39  2  0
 41 36  2  0
 41 40  1  0
 42 41  1  0
 44 45  1  0
 45 48  1  0
 45 47  1  0
 46 44  2  0
 49 50  1  0
 49 24  1  0
 51 49  1  0
 52 11  1  0
 52 56  1  0
 53 55  1  0
 54 55  1  0
 55 52  1  0
 57 59  1  0
 57 56  1  0
 58 69  2  0
 59 64  1  0
 60 68  1  0
 60 70  1  0
 61 67  1  0
 61 63  1  0
 62 68  1  0
 63 62  1  0
 64 63  2  0
 65 59  2  0
 66 65  1  0
 66 61  2  0
 67 60  1  0
 68 58  1  0
 70 72  2  0
 71 70  1  0
 73 71  1  0
 74 83  2  0
 74 79  1  0
 75 71  1  0
 75 79  1  0
 76 75  1  0
 77 78  1  0
 77 76  1  0
 78 74  1  0
 79 80  2  0
 80 81  1  0
 82 81  2  0
 83 82  1  0
 84 58  1  0
 84 85  1  0
 84 94  1  0
 85 88  1  0
 86 90  1  0
 86 85  1  0
 87 86  2  0
 90 89  1  0
 92 90  1  0
 92 93  1  0
 92 91  1  0
 94 97  1  1
 94 95  1  0
 96 94  1  0
M  ISO  4  14 100  22 100  56 101  57 101
M  END
>  <TORSDO>  (70) 
F 21

>  <SCORE>  (70) 
-13.380

>  <name>  (70) 
70

>  <ligand_id>  (70) 
70

>  <original_smiles>  (70) 
[H]c1c([H])c([H])c2c(c1[H])C([H])([H])C([H])([H])C([H])([H])C2([H])N([H])C(=O)C1([H])N(C(=O)C([H])(N([H])C(=O)C([H])(N([H])C([H])([H])[H])C([H])([H])[H])C(C([H])([H])[H])(C([H])([H])[H])C([H])([H])[H])C([H])([H])c2c([H])c(OC([H])([H])C([H])(n3c([H])c(C([H])([H])C([H])([H])N([H])C(=O)N4C([H])([H])C([H])([H])C([H])([H])C([H])(n5nc(-c6c([H])c([H])c(Oc7c([H])c([H])c(F)c([H])c7F)c([H])c6[H])c(C(=O)N([H])[H])c5N([H])[H])C4([H])[H])c4c(C([H])([H])[H])nc(C([H])([H])[H])c([H])c43)C([H])(C([H])([H])[H])C([H])([H])[H])c([H])c([H])c2C1([H])[H]

>  <smiles>  (70) 
[H]c1c([H])c([H])c2c(c1[H])C([H])([H])C([H])([H])C([H])([H])C2([H])N([H])C(=O)C1([H])N(C(=O)C([H])(N([H])C(=O)C([H])(N([H])C([H])([H])[H])C([H])([H])[H])C(C([H])([H])[H])(C([H])([H])[H])C([H])([H])[H])C([H])([H])c2c([H])c(OC([H])([H])C([H])(n3c([H])c(C([H])([H])C([H])([H])N([H])C(=O)N4C([H])([H])C([H])([H])C([H])([H])C([H])(n5nc(-c6c([H])c([H])c(Oc7c([H])c([H])c(F)c([H])c7F)c([H])c6[H])c(C(=O)N([H])[H])c5N([H])[H])C4([H])[H])c4c(C([H])([H])[H])nc(C([H])([H])[H])c([H])c43)C([H])(C([H])([H])[H])C([H])([H])[H])c([H])c([H])c2C1([H])[H]

$$$$
71:0:0
     RDKit          3D

 94101  0  0  1  0  0  0  0  0999 V2000
  -28.5390  -22.7770   20.0830 C   0  0  0  0  0  3  0  0  0  0  0  0
  -29.8130  -21.8480   21.8930 C   0  0  0  0  0  1  0  0  0  0  0  0
  -29.5490  -21.7400   20.4510 N   0  0  0  0  0  0  0  0  0  0  0  0
  -29.1420  -20.3460   20.1380 C   0  0  0  0  0  2  0  0  0  0  0  0
  -31.4210  -19.4740   19.7640 C   0  0  0  0  0  1  0  0  0  0  0  0
  -30.1330  -19.2710   20.4770 N   0  0  2  0  0  4  0  0  0  0  0  0
  -30.3250  -19.3800   21.4610 H   0  0  0  0  0  0  0  0  0  0  0  0
  -28.1120  -17.6840   20.3370 C   0  0  0  0  0  1  0  0  0  0  0  0
  -29.6510  -17.8440   20.3240 C   0  0  0  0  0  3  0  0  0  0  0  0
  -30.3090  -16.8980   21.3790 C   0  0  0  0  0  2  0  0  0  0  0  0
  -30.6470  -14.5280   20.5900 C   0  0  0  0  0  0  0  0  0  0  0  0
  -30.3740  -12.4070   19.3580 C   0  0  0  0  0  2  0  0  0  0  0  0
  -29.4330  -12.6420   18.1580 C   0  0  0  0  0  2  0  0  0  0  0  0
  -27.9600  -12.4790   18.5780 C   0  0  0  0  0  2  0  0  0  0  0  0
  -27.6130  -13.2810   19.8610 C   0  0  0  0  0  3  0  0  0  0  0  0
  -28.6620  -13.0190   20.9670 C   0  0  0  0  0  2  0  0  0  0  0  0
  -29.9910  -13.3490   20.4190 N   0  0  0  0  0  0  0  0  0  0  0  0
  -31.7540  -14.7680   20.0990 O   0  0  0  0  0  0  0  0  0  0  0  0
  -29.9410  -15.4800   21.2210 N   0  0  0  0  0  0  0  0  0  0  0  0
  -29.0430  -15.1930   21.5870 H   0  0  0  0  0  0  0  0  0  0  0  0
  -25.1960  -13.8650   20.5390 C   0  0  0  0  0  0  0  0  0  0  0  0
  -24.1330  -13.0840   20.9010 C   0  0  0  0  0  0  0  0  0  0  0  0
  -24.6100  -11.7370   20.8700 C   0  0  0  0  0  0  0  0  0  0  0  0
  -26.2550  -12.9950   20.3210 N   0  0  0  0  0  0  0  0  0  0  0  0
  -25.9040  -11.7100   20.5790 N   0  0  0  0  0  0  0  0  0  0  0  0
  -23.9000  -10.4670   21.0510 C   0  0  0  0  0  0  0  0  0  0  0  0
  -24.3110   -9.5200   22.0140 C   0  0  0  0  0  3  0  0  0  0  0  0
  -23.5990   -8.3120   22.1780 C   0  0  0  0  0  3  0  0  0  0  0  0
  -22.4610   -8.0440   21.3800 C   0  0  0  0  0  0  0  0  0  0  0  0
  -22.0720   -8.9800   20.4060 C   0  0  0  0  0  3  0  0  0  0  0  0
  -22.7840  -10.1790   20.2390 C   0  0  0  0  0  3  0  0  0  0  0  0
  -21.7250   -6.8870   21.4500 O   0  0  0  0  0  0  0  0  0  0  0  0
  -21.6230   -6.1690   22.6150 C   0  0  0  0  0  0  0  0  0  0  0  0
  -21.0860   -6.7350   23.7930 C   0  0  0  0  0  3  0  0  0  0  0  0
  -20.9340   -5.9420   24.9460 C   0  0  0  0  0  3  0  0  0  0  0  0
  -21.3080   -4.5840   24.9240 C   0  0  0  0  0  0  0  0  0  0  0  0
  -21.8370   -4.0190   23.7500 C   0  0  0  0  0  3  0  0  0  0  0  0
  -21.9880   -4.8090   22.5970 C   0  0  0  0  0  0  0  0  0  0  0  0
  -22.4790   -4.2550   21.4620 F   0  0  0  0  0  0  0  0  0  0  0  0
  -21.1550   -3.8190   26.0300 F   0  0  0  0  0  0  0  0  0  0  0  0
  -22.7260  -13.5470   21.1570 C   0  0  0  0  0  0  0  0  0  0  0  0
  -21.9920  -12.8320   22.0010 N   0  0  0  0  0  0  0  0  0  0  0  0
  -22.2850  -14.5740   20.6450 O   0  0  0  0  0  0  0  0  0  0  0  0
  -22.3640  -12.0040   22.4420 H   0  0  0  0  0  0  0  0  0  0  0  0
  -21.0460  -13.1200   22.2110 H   0  0  0  0  0  0  0  0  0  0  0  0
  -25.3460  -15.2330   20.3460 N   0  0  0  0  0  0  0  0  0  0  0  0
  -24.5670  -15.8760   20.4320 H   0  0  0  0  0  0  0  0  0  0  0  0
  -26.1500  -15.6410   19.8900 H   0  0  0  0  0  0  0  0  0  0  0  0
  -29.1270  -24.2380   20.1420 C   0  0  0  0  0  2  0  0  0  0  0  0
  -28.1170  -25.2870   20.6840 C   0  0  0  0  0  2  0  0  0  0  0  0
  -28.3540  -26.6660   20.2910 O   0  0  0  0  0  0  0  0  0  0  0  0
  -24.5690  -31.9580   23.2720 C   0  0  0  0  0  0  0  0  0  0  0  0
  -27.2210  -27.4620   20.2490 C   0  0  0  0  0  0  0  0  0  0  0  0
  -23.3790  -30.5520   21.6270 C   0  0  0  0  0  3  0  0  0  0  0  0
  -24.8430  -29.0060   20.2220 C   0  0  0  0  0  0  0  0  0  0  0  0
  -25.9130  -30.8920   21.4600 C   0  0  0  0  0  2  0  0  0  0  0  0
  -26.0010  -29.5160   20.8250 C   0  0  0  0  0  0  0  0  0  0  0  0
  -27.1960  -28.7500   20.8370 C   0  0  0  0  0  3  0  0  0  0  0  0
  -26.0510  -26.9900   19.6120 C   0  0  0  0  0  3  0  0  0  0  0  0
  -24.8640  -27.7420   19.6110 C   0  0  0  0  0  3  0  0  0  0  0  0
  -23.6020  -29.8690   20.2520 C   0  0  0  0  0  2  0  0  0  0  0  0
  -24.6390  -31.1490   22.1780 N   0  0  0  0  0  0  0  0  0  0  0  0
  -23.4830  -32.2360   23.7980 O   0  0  0  0  0  0  0  0  0  0  0  0
  -22.7150  -29.5350   22.5840 C   0  0  0  0  0  0  0  0  0  0  0  0
  -21.3900  -29.3600   22.4470 N   0  0  0  0  0  0  0  0  0  0  0  0
  -23.3880  -28.9090   23.4070 O   0  0  0  0  0  0  0  0  0  0  0  0
  -20.9080  -29.9140   21.7530 H   0  0  0  0  0  0  0  0  0  0  0  0
  -17.9990  -28.2130   22.9480 C   0  0  0  0  0  0  0  0  0  0  0  0
  -20.5610  -28.4310   23.2160 C   0  0  0  0  0  3  0  0  0  0  0  0
  -20.6420  -27.0010   22.6340 C   0  0  0  0  0  2  0  0  0  0  0  0
  -19.5350  -26.7040   21.6180 C   0  0  0  0  0  2  0  0  0  0  0  0
  -18.1560  -26.8660   22.2620 C   0  0  0  0  0  2  0  0  0  0  0  0
  -19.1300  -28.9550   23.3800 C   0  0  0  0  0  0  0  0  0  0  0  0
  -18.9320  -30.2200   23.9770 C   0  0  0  0  0  3  0  0  0  0  0  0
  -17.6350  -30.7390   24.1480 C   0  0  0  0  0  3  0  0  0  0  0  0
  -16.5190  -29.9920   23.7340 C   0  0  0  0  0  3  0  0  0  0  0  0
  -16.7020  -28.7310   23.1390 C   0  0  0  0  0  3  0  0  0  0  0  0
  -25.8510  -32.5900   23.9030 C   0  0  0  0  0  3  0  0  0  0  0  0
  -26.3440  -31.8340   25.1970 C   0  0  1  0  0  0  0  0  0  0  0  0
  -25.2340  -31.6100   26.2490 C   0  0  0  0  0  1  0  0  0  0  0  0
  -26.9340  -30.4520   24.8300 C   0  0  0  0  0  1  0  0  0  0  0  0
  -27.4830  -32.6360   25.8690 C   0  0  0  0  0  1  0  0  0  0  0  0
  -25.5460  -33.9950   24.2070 N   0  0  0  0  0  0  0  0  0  0  0  0
  -25.8930  -35.0320   23.4330 C   0  0  0  0  0  0  0  0  0  0  0  0
  -26.5770  -34.9080   22.4130 O   0  0  0  0  0  0  0  0  0  0  0  0
  -24.9440  -34.1660   24.9990 H   0  0  0  0  0  0  0  0  0  0  0  0
  -24.1860  -36.8320   23.0180 C   0  0  0  0  0  1  0  0  0  0  0  0
  -25.4080  -36.4300   23.8620 C   0  0  0  0  0  3  0  0  0  0  0  0
  -27.5280  -37.3160   24.7290 C   0  0  0  0  0  1  0  0  0  0  0  0
  -26.4500  -37.4740   23.7540 N   0  0  0  0  0  0  0  0  0  0  0  0
  -26.0480  -38.3990   23.8740 H   0  0  0  0  0  0  0  0  0  0  0  0
  -27.8810  -22.5880   18.6790 C   0  0  0  0  0  2  0  0  0  0  0  0
  -25.4030  -22.1140   18.3520 C   0  0  0  0  0  2  0  0  0  0  0  0
  -26.6480  -21.6950   18.6220 C   0  0  0  0  0  3  0  0  0  0  0  0
  1 92  1  0
  1 49  1  0
  1  3  1  0
  3  2  1  0
  4  3  1  0
  4  6  1  0
  5  6  1  0
  6  7  1  1
  9  8  1  0
  9  6  1  0
  9 10  1  0
 11 19  1  0
 12 17  1  0
 13 14  1  0
 13 12  1  0
 15 14  1  0
 15 24  1  0
 15 16  1  0
 17 11  1  0
 17 16  1  0
 18 11  2  0
 19 10  1  0
 19 20  1  0
 21 22  2  0
 22 41  1  0
 23 22  1  0
 23 26  1  0
 24 21  1  0
 24 25  1  0
 25 23  2  0
 26 27  1  0
 27 28  2  0
 29 32  1  0
 29 28  1  0
 30 29  2  0
 31 30  1  0
 31 26  2  0
 32 33  1  0
 33 34  1  0
 34 35  2  0
 36 35  1  0
 36 40  1  0
 37 36  2  0
 38 33  2  0
 38 37  1  0
 39 38  1  0
 41 42  1  0
 42 45  1  0
 42 44  1  0
 43 41  2  0
 46 47  1  0
 46 21  1  0
 48 46  1  0
 49 50  1  0
 51 50  1  0
 52 63  2  0
 53 51  1  0
 53 58  1  0
 54 62  1  0
 54 64  1  0
 55 61  1  0
 55 57  1  0
 56 62  1  0
 57 58  2  0
 57 56  1  0
 59 53  2  0
 60 59  1  0
 60 55  2  0
 61 54  1  0
 62 52  1  0
 64 66  2  0
 65 64  1  0
 67 65  1  0
 68 77  2  0
 68 73  1  0
 69 65  1  0
 69 73  1  0
 70 69  1  0
 71 72  1  0
 71 70  1  0
 72 68  1  0
 73 74  2  0
 74 75  1  0
 76 75  2  0
 77 76  1  0
 78 52  1  0
 78 83  1  0
 78 79  1  0
 79 82  1  1
 79 80  1  0
 81 79  1  0
 83 86  1  0
 84 88  1  0
 84 83  1  0
 85 84  2  0
 88 87  1  0
 90 88  1  0
 90 91  1  0
 90 89  1  0
 93 94  2  0
 94 92  1  0
M  ISO  4  11 100  19 100  50 101  51 101
M  END
>  <TORSDO>  (71) 
F 25

>  <SCORE>  (71) 
-12.633

>  <name>  (71) 
71

>  <ligand_id>  (71) 
71

>  <original_smiles>  (71) 
[H]C([H])=C([H])C([H])([H])C([H])(N(C([H])([H])[H])C([H])([H])[N+]([H])(C([H])([H])[H])C([H])(C([H])([H])[H])C([H])([H])N([H])C(=O)N1C([H])([H])C([H])([H])C([H])([H])C([H])(n2nc(-c3c([H])c([H])c(Oc4c([H])c([H])c(F)c([H])c4F)c([H])c3[H])c(C(=O)N([H])[H])c2N([H])[H])C1([H])[H])C([H])([H])C([H])([H])Oc1c([H])c([H])c2c(c1[H])C([H])([H])N(C(=O)C([H])(N([H])C(=O)C([H])(N([H])C([H])([H])[H])C([H])([H])[H])C(C([H])([H])[H])(C([H])([H])[H])C([H])([H])[H])C([H])(C(=O)N([H])C1([H])c3c([H])c([H])c([H])c([H])c3C([H])([H])C([H])([H])C1([H])[H])C2([H])[H]

>  <smiles>  (71) 
[H]C([H])=C([H])C([H])([H])C([H])(N(C([H])([H])[H])C([H])([H])[N+]([H])(C([H])([H])[H])C([H])(C([H])([H])[H])C([H])([H])N([H])C(=O)N1C([H])([H])C([H])([H])C([H])([H])C([H])(n2nc(-c3c([H])c([H])c(Oc4c([H])c([H])c(F)c([H])c4F)c([H])c3[H])c(C(=O)N([H])[H])c2N([H])[H])C1([H])[H])C([H])([H])C([H])([H])Oc1c([H])c([H])c2c(c1[H])C([H])([H])N(C(=O)C([H])(N([H])C(=O)C([H])(N([H])C([H])([H])[H])C([H])([H])[H])C(C([H])([H])[H])(C([H])([H])[H])C([H])([H])[H])C([H])(C(=O)N([H])C1([H])c3c([H])c([H])c([H])c([H])c3C([H])([H])C([H])([H])C1([H])[H])C2([H])[H]

$$$$
72:0:0
     RDKit          3D

 90 98  0  0  1  0  0  0  0  0999 V2000
  -29.6380  -22.1320   19.1820 C   0  0  0  0  0  3  0  0  0  0  0  0
  -29.5780  -21.1450   21.0800 C   0  0  0  0  0  3  0  0  0  0  0  0
  -29.9530  -20.7450   19.8320 C   0  0  0  0  0  0  0  0  0  0  0  0
  -29.1110  -23.2700   19.9690 C   0  0  0  0  0  0  0  0  0  0  0  0
  -29.0770  -22.4790   21.1850 N   0  0  0  0  0  0  0  0  0  0  0  0
  -29.4070  -25.8070   20.9130 C   0  0  0  0  0  1  0  0  0  0  0  0
  -27.0270  -24.7680   20.6540 C   0  0  0  0  0  1  0  0  0  0  0  0
  -28.4350  -24.9650   20.0450 C   0  0  2  0  0  0  0  0  0  0  0  0
  -28.2290  -26.2980   19.0340 O   0  0  0  0  0  0  0  0  0  0  0  0
  -24.6760  -31.9230   22.8500 C   0  0  0  0  0  0  0  0  0  0  0  0
  -27.2310  -27.4360   19.2110 C   0  0  0  0  0  0  0  0  0  0  0  0
  -23.4420  -30.6200   21.1700 C   0  0  0  0  0  3  0  0  0  0  0  0
  -24.8660  -29.2480   19.4980 C   0  0  0  0  0  0  0  0  0  0  0  0
  -25.9850  -30.9670   20.8840 C   0  0  0  0  0  2  0  0  0  0  0  0
  -26.0770  -29.6230   20.0950 C   0  0  0  0  0  0  0  0  0  0  0  0
  -27.2510  -28.7370   19.9410 C   0  0  0  0  0  3  0  0  0  0  0  0
  -26.0030  -27.2920   18.5220 C   0  0  0  0  0  3  0  0  0  0  0  0
  -24.8560  -28.1070   18.6890 C   0  0  0  0  0  3  0  0  0  0  0  0
  -23.6120  -30.0930   19.7190 C   0  0  0  0  0  2  0  0  0  0  0  0
  -24.7240  -31.1970   21.6870 N   0  0  0  0  0  0  0  0  0  0  0  0
  -23.6120  -32.1020   23.4670 O   0  0  0  0  0  0  0  0  0  0  0  0
  -22.8700  -29.4970   22.0760 C   0  0  0  0  0  0  0  0  0  0  0  0
  -21.5520  -29.2330   21.9930 N   0  0  0  0  0  0  0  0  0  0  0  0
  -23.6190  -28.8670   22.8260 O   0  0  0  0  0  0  0  0  0  0  0  0
  -20.9940  -29.7960   21.3660 H   0  0  0  0  0  0  0  0  0  0  0  0
  -18.2930  -27.7600   22.6050 C   0  0  0  0  0  0  0  0  0  0  0  0
  -20.8430  -28.1760   22.7200 C   0  0  0  0  0  3  0  0  0  0  0  0
  -20.9890  -26.8140   22.0010 C   0  0  0  0  0  2  0  0  0  0  0  0
  -19.8370  -26.5160   21.0360 C   0  0  0  0  0  2  0  0  0  0  0  0
  -18.5010  -26.5000   21.7820 C   0  0  0  0  0  2  0  0  0  0  0  0
  -19.3900  -28.5550   23.0320 C   0  0  0  0  0  0  0  0  0  0  0  0
  -19.1350  -29.7310   23.7700 C   0  0  0  0  0  3  0  0  0  0  0  0
  -17.8160  -30.1150   24.0800 C   0  0  0  0  0  3  0  0  0  0  0  0
  -16.7350  -29.3200   23.6650 C   0  0  0  0  0  3  0  0  0  0  0  0
  -16.9740  -28.1440   22.9330 C   0  0  0  0  0  3  0  0  0  0  0  0
  -25.9520  -32.5810   23.4550 C   0  0  0  0  0  3  0  0  0  0  0  0
  -26.6670  -31.6690   24.5270 C   0  0  1  0  0  0  0  0  0  0  0  0
  -25.7220  -31.1580   25.6400 C   0  0  0  0  0  1  0  0  0  0  0  0
  -27.3150  -30.4320   23.8650 C   0  0  0  0  0  1  0  0  0  0  0  0
  -27.8160  -32.4560   25.1990 C   0  0  0  0  0  1  0  0  0  0  0  0
  -25.5570  -33.8650   24.0640 N   0  0  0  0  0  0  0  0  0  0  0  0
  -25.7200  -35.0670   23.4960 C   0  0  0  0  0  0  0  0  0  0  0  0
  -26.2820  -35.2190   22.4090 O   0  0  0  0  0  0  0  0  0  0  0  0
  -25.0430  -33.8100   24.9310 H   0  0  0  0  0  0  0  0  0  0  0  0
  -23.8280  -36.7210   23.6590 C   0  0  0  0  0  1  0  0  0  0  0  0
  -25.1800  -36.2970   24.2550 C   0  0  0  0  0  3  0  0  0  0  0  0
  -27.3100  -37.2320   25.0450 C   0  0  0  0  0  1  0  0  0  0  0  0
  -26.1070  -37.4510   24.2460 N   0  0  0  0  0  0  0  0  0  0  0  0
  -25.6450  -38.2880   24.5910 H   0  0  0  0  0  0  0  0  0  0  0  0
  -27.2380  -22.4270   22.9460 C   0  0  0  0  0  1  0  0  0  0  0  0
  -28.6480  -22.8920   22.5370 C   0  0  0  0  0  2  0  0  0  0  0  0
  -30.6410  -19.1330   19.4050 C   0  0  0  0  0  2  0  0  0  0  0  0
  -31.1890  -16.2110   19.7470 C   0  0  0  0  0  0  0  0  0  0  0  0
  -31.1900  -13.6950   19.0340 C   0  0  0  0  0  2  0  0  0  0  0  0
  -30.2430  -13.3750   17.8460 C   0  0  0  0  0  2  0  0  0  0  0  0
  -28.8160  -13.0990   18.3440 C   0  0  0  0  0  2  0  0  0  0  0  0
  -28.3780  -14.1170   19.4250 C   0  0  0  0  0  3  0  0  0  0  0  0
  -29.4560  -14.3720   20.5030 C   0  0  0  0  0  2  0  0  0  0  0  0
  -30.6470  -14.8840   19.8010 N   0  0  0  0  0  0  0  0  0  0  0  0
  -32.3910  -16.1940   19.4370 O   0  0  0  0  0  0  0  0  0  0  0  0
  -30.4330  -17.5050   19.8360 N   0  0  0  0  0  0  0  0  0  0  0  0
  -29.4830  -17.3280   20.1270 H   0  0  0  0  0  0  0  0  0  0  0  0
  -26.0820  -14.6850   20.3680 C   0  0  0  0  0  0  0  0  0  0  0  0
  -25.0180  -13.9170   20.7490 C   0  0  0  0  0  0  0  0  0  0  0  0
  -25.4350  -12.5600   20.5940 C   0  0  0  0  0  0  0  0  0  0  0  0
  -27.0760  -13.7990   19.9960 N   0  0  0  0  0  0  0  0  0  0  0  0
  -26.7030  -12.5080   20.1990 N   0  0  0  0  0  0  0  0  0  0  0  0
  -24.6740  -11.3100   20.7410 C   0  0  0  0  0  0  0  0  0  0  0  0
  -25.0550  -10.3170   21.6700 C   0  0  0  0  0  3  0  0  0  0  0  0
  -24.2940   -9.1360   21.8090 C   0  0  0  0  0  3  0  0  0  0  0  0
  -23.1370   -8.9400   21.0180 C   0  0  0  0  0  0  0  0  0  0  0  0
  -22.7760   -9.9220   20.0780 C   0  0  0  0  0  3  0  0  0  0  0  0
  -23.5370  -11.0930   19.9360 C   0  0  0  0  0  3  0  0  0  0  0  0
  -22.3510   -7.8130   21.0650 O   0  0  0  0  0  0  0  0  0  0  0  0
  -22.1420   -7.1320   22.2370 C   0  0  0  0  0  0  0  0  0  0  0  0
  -21.5350   -7.7400   23.3560 C   0  0  0  0  0  3  0  0  0  0  0  0
  -21.2760   -6.9830   24.5160 C   0  0  0  0  0  3  0  0  0  0  0  0
  -21.6140   -5.6180   24.5560 C   0  0  0  0  0  0  0  0  0  0  0  0
  -22.2130   -5.0070   23.4390 C   0  0  0  0  0  3  0  0  0  0  0  0
  -22.4730   -5.7610   22.2830 C   0  0  0  0  0  0  0  0  0  0  0  0
  -23.0310   -5.1630   21.2020 F   0  0  0  0  0  0  0  0  0  0  0  0
  -21.3570   -4.8880   25.6670 F   0  0  0  0  0  0  0  0  0  0  0  0
  -23.6590  -14.4190   21.1360 C   0  0  0  0  0  0  0  0  0  0  0  0
  -22.9560  -13.6850   21.9910 N   0  0  0  0  0  0  0  0  0  0  0  0
  -23.2310  -15.4950   20.7170 O   0  0  0  0  0  0  0  0  0  0  0  0
  -23.3150  -12.8120   22.3460 H   0  0  0  0  0  0  0  0  0  0  0  0
  -22.0460  -14.0020   22.2940 H   0  0  0  0  0  0  0  0  0  0  0  0
  -26.2780  -16.0610   20.2760 N   0  0  0  0  0  0  0  0  0  0  0  0
  -25.5370  -16.7230   20.4760 H   0  0  0  0  0  0  0  0  0  0  0  0
  -27.1030  -16.4980   19.8890 H   0  0  0  0  0  0  0  0  0  0  0  0
  1  3  1  0
  1  4  2  0
  2  5  1  0
  3  2  2  0
  4  8  1  0
  4  5  1  0
  5 51  1  0
  8  7  1  1
  8  6  1  0
  9 11  1  0
  9  8  1  0
 10 21  2  0
 11 16  1  0
 12 20  1  0
 12 22  1  0
 13 19  1  0
 13 15  1  0
 14 20  1  0
 15 14  1  0
 16 15  2  0
 17 18  1  0
 17 11  2  0
 18 13  2  0
 19 12  1  0
 20 10  1  0
 22 24  2  0
 23 22  1  0
 25 23  1  0
 26 35  2  0
 26 31  1  0
 27 23  1  0
 27 31  1  0
 28 27  1  0
 29 30  1  0
 29 28  1  0
 30 26  1  0
 31 32  2  0
 32 33  1  0
 34 33  2  0
 35 34  1  0
 36 10  1  0
 36 41  1  0
 36 37  1  0
 37 40  1  1
 37 38  1  0
 39 37  1  0
 41 44  1  0
 42 41  1  0
 42 46  1  0
 43 42  2  0
 46 45  1  0
 48 46  1  0
 48 49  1  0
 48 47  1  0
 51 50  1  0
 52  3  1  0
 52 61  1  0
 53 59  1  0
 53 61  1  0
 54 59  1  0
 55 56  1  0
 55 54  1  0
 57 56  1  0
 57 66  1  0
 57 58  1  0
 59 58  1  0
 60 53  2  0
 61 62  1  0
 63 64  2  0
 64 83  1  0
 65 68  1  0
 65 64  1  0
 66 67  1  0
 66 63  1  0
 67 65  2  0
 68 69  1  0
 69 70  2  0
 71 74  1  0
 71 70  1  0
 72 71  2  0
 73 72  1  0
 73 68  2  0
 74 75  1  0
 75 80  2  0
 75 76  1  0
 76 77  2  0
 77 78  1  0
 78 82  1  0
 79 78  2  0
 80 79  1  0
 81 80  1  0
 83 84  1  0
 84 87  1  0
 84 86  1  0
 85 83  2  0
 88 63  1  0
 88 89  1  0
 90 88  1  0
M  ISO  4   8 101   9 101  53 100  61 100
M  END
>  <TORSDO>  (72) 
F 19

>  <SCORE>  (72) 
-9.385

>  <name>  (72) 
72

>  <ligand_id>  (72) 
72

>  <original_smiles>  (72) 
[H]c1c([H])c([H])c2c(c1[H])C([H])([H])C([H])([H])C([H])([H])C2([H])N([H])C(=O)C1([H])N(C(=O)C([H])(N([H])C(=O)C([H])(N([H])C([H])([H])[H])C([H])([H])[H])C(C([H])([H])[H])(C([H])([H])[H])C([H])([H])[H])C([H])([H])c2c([H])c(OC(c3c([H])c(C([H])([H])N([H])C(=O)N4C([H])([H])C([H])([H])C([H])([H])C([H])(n5nc(-c6c([H])c([H])c(Oc7c([H])c([H])c(F)c([H])c7F)c([H])c6[H])c(C(=O)N([H])[H])c5N([H])[H])C4([H])[H])c([H])n3C([H])([H])C([H])([H])[H])(C([H])([H])[H])C([H])([H])[H])c([H])c([H])c2C1([H])[H]

>  <smiles>  (72) 
[H]c1c([H])c([H])c2c(c1[H])C([H])([H])C([H])([H])C([H])([H])C2([H])N([H])C(=O)C1([H])N(C(=O)C([H])(N([H])C(=O)C([H])(N([H])C([H])([H])[H])C([H])([H])[H])C(C([H])([H])[H])(C([H])([H])[H])C([H])([H])[H])C([H])([H])c2c([H])c(OC(c3c([H])c(C([H])([H])N([H])C(=O)N4C([H])([H])C([H])([H])C([H])([H])C([H])(n5nc(-c6c([H])c([H])c(Oc7c([H])c([H])c(F)c([H])c7F)c([H])c6[H])c(C(=O)N([H])[H])c5N([H])[H])C4([H])[H])c([H])n3C([H])([H])C([H])([H])[H])(C([H])([H])[H])C([H])([H])[H])c([H])c([H])c2C1([H])[H]

$$$$
73:0:0
     RDKit          3D

 94102  0  0  1  0  0  0  0  0999 V2000
  -27.8480  -21.8710   18.4870 C   0  0  0  0  0  3  0  0  0  0  0  0
  -28.7900  -21.6760   19.5220 C   0  0  0  0  0  0  0  0  0  0  0  0
  -29.5090  -20.3280   19.4420 C   0  0  0  0  0  0  0  0  0  0  0  0
  -29.6270  -19.8540   18.1000 C   0  0  0  0  0  0  0  0  0  0  0  0
  -28.6980  -20.2480   17.1190 C   0  0  0  0  0  0  0  0  0  0  0  0
  -30.8460  -19.0490   17.6410 C   0  0  0  0  0  1  0  0  0  0  0  0
  -28.7140  -19.6930   15.7040 C   0  0  0  0  0  1  0  0  0  0  0  0
  -27.7480  -21.1560   17.3590 N   0  0  0  0  0  0  0  0  0  0  0  0
  -28.9150  -23.0810   20.3980 C   0  0  1  0  0  0  0  0  0  0  0  0
  -28.5020  -22.8020   21.6330 F   0  0  0  0  0  0  0  0  0  0  0  0
  -30.2190  -23.3460   20.4510 F   0  0  0  0  0  0  0  0  0  0  0  0
  -28.1420  -24.5430   19.9040 C   0  0  0  0  0  2  0  0  0  0  0  0
  -28.3250  -26.0600   20.2750 O   0  0  0  0  0  0  0  0  0  0  0  0
  -24.5840  -31.7680   23.1200 C   0  0  0  0  0  0  0  0  0  0  0  0
  -27.2720  -27.0520   20.1530 C   0  0  0  0  0  0  0  0  0  0  0  0
  -23.4320  -30.3530   21.4640 C   0  0  0  0  0  3  0  0  0  0  0  0
  -24.9260  -28.7890   20.0680 C   0  0  0  0  0  0  0  0  0  0  0  0
  -25.9870  -30.6380   21.3510 C   0  0  0  0  0  2  0  0  0  0  0  0
  -26.0870  -29.2430   20.7060 C   0  0  0  0  0  0  0  0  0  0  0  0
  -27.2570  -28.3880   20.7340 C   0  0  0  0  0  3  0  0  0  0  0  0
  -26.0890  -26.7210   19.4510 C   0  0  0  0  0  3  0  0  0  0  0  0
  -24.9430  -27.5440   19.4230 C   0  0  0  0  0  3  0  0  0  0  0  0
  -23.6850  -29.6700   20.0930 C   0  0  0  0  0  2  0  0  0  0  0  0
  -24.6870  -30.9420   22.0330 N   0  0  0  0  0  0  0  0  0  0  0  0
  -23.4840  -32.0430   23.6240 O   0  0  0  0  0  0  0  0  0  0  0  0
  -22.7400  -29.3460   22.4170 C   0  0  0  0  0  0  0  0  0  0  0  0
  -21.4130  -29.1760   22.2750 N   0  0  0  0  0  0  0  0  0  0  0  0
  -23.4020  -28.7200   23.2500 O   0  0  0  0  0  0  0  0  0  0  0  0
  -20.9370  -29.7290   21.5760 H   0  0  0  0  0  0  0  0  0  0  0  0
  -18.0260  -27.9810   22.7460 C   0  0  0  0  0  0  0  0  0  0  0  0
  -20.5830  -28.2390   23.0360 C   0  0  0  0  0  3  0  0  0  0  0  0
  -20.6880  -26.8090   22.4580 C   0  0  0  0  0  2  0  0  0  0  0  0
  -19.5960  -26.4900   21.4320 C   0  0  0  0  0  2  0  0  0  0  0  0
  -18.2080  -26.6350   22.0640 C   0  0  0  0  0  2  0  0  0  0  0  0
  -19.1420  -28.7410   23.1880 C   0  0  0  0  0  0  0  0  0  0  0  0
  -18.9180  -30.0000   23.7870 C   0  0  0  0  0  3  0  0  0  0  0  0
  -17.6120  -30.4990   23.9470 C   0  0  0  0  0  3  0  0  0  0  0  0
  -16.5100  -29.7380   23.5210 C   0  0  0  0  0  3  0  0  0  0  0  0
  -16.7180  -28.4800   22.9260 C   0  0  0  0  0  3  0  0  0  0  0  0
  -25.8420  -32.4200   23.7710 C   0  0  0  0  0  3  0  0  0  0  0  0
  -26.3500  -31.6480   25.0520 C   0  0  1  0  0  0  0  0  0  0  0  0
  -25.2420  -31.3800   26.0970 C   0  0  0  0  0  1  0  0  0  0  0  0
  -26.9640  -30.2820   24.6650 C   0  0  0  0  0  1  0  0  0  0  0  0
  -27.4740  -32.4580   25.7380 C   0  0  0  0  0  1  0  0  0  0  0  0
  -25.5020  -33.8100   24.1120 N   0  0  0  0  0  0  0  0  0  0  0  0
  -25.8400  -34.8820   23.3840 C   0  0  0  0  0  0  0  0  0  0  0  0
  -26.5390  -34.8070   22.3700 O   0  0  0  0  0  0  0  0  0  0  0  0
  -24.8850  -33.9450   24.9000 H   0  0  0  0  0  0  0  0  0  0  0  0
  -24.1120  -36.6730   23.0090 C   0  0  0  0  0  1  0  0  0  0  0  0
  -25.3250  -36.2570   23.8570 C   0  0  0  0  0  3  0  0  0  0  0  0
  -27.4130  -37.1450   24.7930 C   0  0  0  0  0  1  0  0  0  0  0  0
  -26.3510  -37.3210   23.8060 N   0  0  0  0  0  0  0  0  0  0  0  0
  -25.9290  -38.2340   23.9520 H   0  0  0  0  0  0  0  0  0  0  0  0
  -30.2550  -19.3040   20.4980 C   0  0  0  0  0  2  0  0  0  0  0  0
  -30.3590  -17.4020   22.2970 C   0  0  0  0  0  1  0  0  0  0  0  0
  -29.9190  -17.6320   20.8390 C   0  0  0  0  0  3  0  0  0  0  0  0
  -30.9200  -15.0190   20.3370 C   0  0  0  0  0  0  0  0  0  0  0  0
  -30.7540  -12.6670   19.3830 C   0  0  0  0  0  2  0  0  0  0  0  0
  -29.8310  -12.6090   18.1460 C   0  0  0  0  0  2  0  0  0  0  0  0
  -28.3550  -12.4360   18.5650 C   0  0  0  0  0  2  0  0  0  0  0  0
  -27.9450  -13.3470   19.7530 C   0  0  0  0  0  3  0  0  0  0  0  0
  -29.0040  -13.3740   20.8740 C   0  0  0  0  0  2  0  0  0  0  0  0
  -30.2710  -13.7810   20.2470 N   0  0  0  0  0  0  0  0  0  0  0  0
  -32.1540  -14.9930   20.2630 O   0  0  0  0  0  0  0  0  0  0  0  0
  -29.8080  -16.3570   18.6650 C   0  0  0  0  0  1  0  0  0  0  0  0
  -30.2300  -16.2570   20.0630 N   0  0  0  0  0  0  0  0  0  0  0  0
  -25.5620  -13.9480   20.4410 C   0  0  0  0  0  0  0  0  0  0  0  0
  -24.4850  -13.1810   20.7880 C   0  0  0  0  0  0  0  0  0  0  0  0
  -24.9430  -11.8280   20.7800 C   0  0  0  0  0  0  0  0  0  0  0  0
  -26.6050  -13.0590   20.2380 N   0  0  0  0  0  0  0  0  0  0  0  0
  -26.2410  -11.7800   20.5070 N   0  0  0  0  0  0  0  0  0  0  0  0
  -24.2050  -10.5730   20.9610 C   0  0  0  0  0  0  0  0  0  0  0  0
  -24.5800   -9.6270   21.9410 C   0  0  0  0  0  3  0  0  0  0  0  0
  -23.8420   -8.4370   22.1090 C   0  0  0  0  0  3  0  0  0  0  0  0
  -22.7110   -8.1830   21.2960 C   0  0  0  0  0  0  0  0  0  0  0  0
  -22.3560   -9.1160   20.3060 C   0  0  0  0  0  3  0  0  0  0  0  0
  -23.0960  -10.2980   20.1350 C   0  0  0  0  0  3  0  0  0  0  0  0
  -21.9490   -7.0420   21.3710 O   0  0  0  0  0  0  0  0  0  0  0  0
  -21.7940   -6.3590   22.5500 C   0  0  0  0  0  0  0  0  0  0  0  0
  -21.2230   -6.9620   23.6920 C   0  0  0  0  0  3  0  0  0  0  0  0
  -21.0170   -6.2030   24.8610 C   0  0  0  0  0  3  0  0  0  0  0  0
  -21.3710   -4.8410   24.8880 C   0  0  0  0  0  0  0  0  0  0  0  0
  -21.9350   -4.2370   23.7500 C   0  0  0  0  0  3  0  0  0  0  0  0
  -22.1420   -4.9940   22.5840 C   0  0  0  0  0  0  0  0  0  0  0  0
  -22.6660   -4.4020   21.4840 F   0  0  0  0  0  0  0  0  0  0  0  0
  -21.1670   -4.1080   26.0090 F   0  0  0  0  0  0  0  0  0  0  0  0
  -23.0840  -13.6700   21.0170 C   0  0  0  0  0  0  0  0  0  0  0  0
  -22.3350  -12.9930   21.8800 N   0  0  0  0  0  0  0  0  0  0  0  0
  -22.6650  -14.6870   20.4680 O   0  0  0  0  0  0  0  0  0  0  0  0
  -22.6880  -12.1680   22.3440 H   0  0  0  0  0  0  0  0  0  0  0  0
  -21.3940  -13.3030   22.0780 H   0  0  0  0  0  0  0  0  0  0  0  0
  -25.7400  -15.3160   20.2560 N   0  0  0  0  0  0  0  0  0  0  0  0
  -24.9810  -15.9820   20.3480 H   0  0  0  0  0  0  0  0  0  0  0  0
  -26.6160  -15.7480   19.9930 H   0  0  0  0  0  0  0  0  0  0  0  0
  1  2  1  0
  2  9  1  0
  3  2  2  0
  3 54  1  0
  4  3  1  0
  5  8  1  0
  5  4  2  0
  6  4  1  0
  7  5  1  0
  8  1  2  0
  9 11  1  1
  9 10  1  0
 12 13  1  0
 12  9  1  0
 14 25  2  0
 15 13  1  0
 15 20  1  0
 16 24  1  0
 16 26  1  0
 17 23  1  0
 17 19  1  0
 18 24  1  0
 19 20  2  0
 19 18  1  0
 21 15  2  0
 22 21  1  0
 22 17  2  0
 23 16  1  0
 24 14  1  0
 26 28  2  0
 27 26  1  0
 29 27  1  0
 30 39  2  0
 30 35  1  0
 31 27  1  0
 31 35  1  0
 32 31  1  0
 33 34  1  0
 33 32  1  0
 34 30  1  0
 35 36  2  0
 36 37  1  0
 38 37  2  0
 39 38  1  0
 40 14  1  0
 40 45  1  0
 40 41  1  0
 41 44  1  1
 41 42  1  0
 43 41  1  0
 45 48  1  0
 46 50  1  0
 46 45  1  0
 47 46  2  0
 50 49  1  0
 52 50  1  0
 52 53  1  0
 52 51  1  0
 54 56  1  0
 56 55  1  0
 58 63  1  0
 59 60  1  0
 59 58  1  0
 61 60  1  0
 61 70  1  0
 61 62  1  0
 63 57  1  0
 63 62  1  0
 64 57  2  0
 65 66  1  0
 66 57  1  0
 66 56  1  0
 67 68  2  0
 68 87  1  0
 69 68  1  0
 69 72  1  0
 70 67  1  0
 70 71  1  0
 71 69  2  0
 72 73  1  0
 73 74  2  0
 75 78  1  0
 75 74  1  0
 76 75  2  0
 77 76  1  0
 77 72  2  0
 78 79  1  0
 79 84  2  0
 79 80  1  0
 80 81  2  0
 81 82  1  0
 82 86  1  0
 83 82  2  0
 84 83  1  0
 85 84  1  0
 87 88  1  0
 88 91  1  0
 88 90  1  0
 89 87  2  0
 92 93  1  0
 92 67  1  0
 94 92  1  0
M  ISO  4  12 101  13 101  57 100  66 100
M  END
>  <TORSDO>  (73) 
F 20

>  <SCORE>  (73) 
-14.886

>  <name>  (73) 
73

>  <ligand_id>  (73) 
73

>  <original_smiles>  (73) 
[H]c1nc(C([H])([H])[H])c(C([H])([H])[H])c(C([H])([H])C([H])(N(C(=O)N2C([H])([H])C([H])([H])C([H])([H])C([H])(n3nc(-c4c([H])c([H])c(Oc5c([H])c([H])c(F)c([H])c5F)c([H])c4[H])c(C(=O)N([H])[H])c3N([H])[H])C2([H])[H])C([H])([H])[H])C([H])([H])[H])c1C(F)(F)C([H])([H])Oc1c([H])c([H])c2c(c1[H])C([H])([H])N(C(=O)C([H])(N([H])C(=O)C([H])(N([H])C([H])([H])[H])C([H])([H])[H])C(C([H])([H])[H])(C([H])([H])[H])C([H])([H])[H])C([H])(C(=O)N([H])C1([H])c3c([H])c([H])c([H])c([H])c3C([H])([H])C([H])([H])C1([H])[H])C2([H])[H]

>  <smiles>  (73) 
[H]c1nc(C([H])([H])[H])c(C([H])([H])[H])c(C([H])([H])C([H])(N(C(=O)N2C([H])([H])C([H])([H])C([H])([H])C([H])(n3nc(-c4c([H])c([H])c(Oc5c([H])c([H])c(F)c([H])c5F)c([H])c4[H])c(C(=O)N([H])[H])c3N([H])[H])C2([H])[H])C([H])([H])[H])C([H])([H])[H])c1C(F)(F)C([H])([H])Oc1c([H])c([H])c2c(c1[H])C([H])([H])N(C(=O)C([H])(N([H])C(=O)C([H])(N([H])C([H])([H])[H])C([H])([H])[H])C(C([H])([H])[H])(C([H])([H])[H])C([H])([H])[H])C([H])(C(=O)N([H])C1([H])c3c([H])c([H])c([H])c([H])c3C([H])([H])C([H])([H])C1([H])[H])C2([H])[H]

$$$$
74:0:0
     RDKit          3D

 91 99  0  0  1  0  0  0  0  0999 V2000
  -30.8060  -20.2390   19.3950 C   0  0  0  0  0  2  0  0  0  0  0  0
  -29.0220  -20.4090   20.5820 C   0  0  0  0  0  3  0  0  0  0  0  0
  -29.9680  -19.3980   20.2020 C   0  0  0  0  0  0  0  0  0  0  0  0
  -30.5770  -21.6070   19.5480 C   0  0  0  0  0  3  0  0  0  0  0  0
  -29.3280  -21.8020   20.1800 N   0  0  0  0  0  0  0  0  0  0  0  0
  -32.9940  -22.1070   19.0170 C   0  0  0  0  0  1  0  0  0  0  0  0
  -31.7700  -23.7770   20.2730 C   0  0  0  0  0  1  0  0  0  0  0  0
  -31.2460  -23.3400   17.7960 C   0  0  0  0  0  1  0  0  0  0  0  0
  -31.5730  -22.7070   19.1640 C   0  0  2  0  0  0  0  0  0  0  0  0
  -30.4250  -17.8130   20.6270 C   0  0  0  0  0  2  0  0  0  0  0  0
  -30.5260  -15.0700   20.2910 C   0  0  0  0  0  0  0  0  0  0  0  0
  -30.3480  -12.7050   19.3550 C   0  0  0  0  0  2  0  0  0  0  0  0
  -29.4130  -12.6270   18.1260 C   0  0  0  0  0  2  0  0  0  0  0  0
  -27.9510  -12.4140   18.5620 C   0  0  0  0  0  2  0  0  0  0  0  0
  -27.5460  -13.3340   19.7450 C   0  0  0  0  0  3  0  0  0  0  0  0
  -28.6150  -13.4000   20.8550 C   0  0  0  0  0  2  0  0  0  0  0  0
  -29.8730  -13.8270   20.2200 N   0  0  0  0  0  0  0  0  0  0  0  0
  -31.7400  -15.0470   20.0670 O   0  0  0  0  0  0  0  0  0  0  0  0
  -29.8520  -16.3360   20.4030 N   0  0  0  0  0  0  0  0  0  0  0  0
  -28.8460  -16.2590   20.4890 H   0  0  0  0  0  0  0  0  0  0  0  0
  -25.1680  -13.8780   20.5080 C   0  0  0  0  0  0  0  0  0  0  0  0
  -24.1150  -13.0920   20.8830 C   0  0  0  0  0  0  0  0  0  0  0  0
  -24.5920  -11.7460   20.8480 C   0  0  0  0  0  0  0  0  0  0  0  0
  -26.2190  -13.0120   20.2600 N   0  0  0  0  0  0  0  0  0  0  0  0
  -25.8830  -11.7250   20.5340 N   0  0  0  0  0  0  0  0  0  0  0  0
  -23.8760  -10.4790   21.0360 C   0  0  0  0  0  0  0  0  0  0  0  0
  -24.3140   -9.5100   21.9650 C   0  0  0  0  0  3  0  0  0  0  0  0
  -23.5960   -8.3090   22.1430 C   0  0  0  0  0  3  0  0  0  0  0  0
  -22.4210   -8.0650   21.3910 C   0  0  0  0  0  0  0  0  0  0  0  0
  -22.0000   -9.0210   20.4500 C   0  0  0  0  0  3  0  0  0  0  0  0
  -22.7210  -10.2150   20.2710 C   0  0  0  0  0  3  0  0  0  0  0  0
  -21.6700   -6.9150   21.4800 O   0  0  0  0  0  0  0  0  0  0  0  0
  -21.6290   -6.1720   22.6320 C   0  0  0  0  0  0  0  0  0  0  0  0
  -21.1930   -6.7160   23.8590 C   0  0  0  0  0  3  0  0  0  0  0  0
  -21.1010   -5.8970   25.0000 C   0  0  0  0  0  3  0  0  0  0  0  0
  -21.4310   -4.5310   24.9160 C   0  0  0  0  0  0  0  0  0  0  0  0
  -21.8610   -3.9850   23.6940 C   0  0  0  0  0  3  0  0  0  0  0  0
  -21.9590   -4.8030   22.5550 C   0  0  0  0  0  0  0  0  0  0  0  0
  -22.3480   -4.2650   21.3750 F   0  0  0  0  0  0  0  0  0  0  0  0
  -21.3340   -3.7420   26.0120 F   0  0  0  0  0  0  0  0  0  0  0  0
  -22.7130  -13.5570   21.1530 C   0  0  0  0  0  0  0  0  0  0  0  0
  -21.9910  -12.8550   22.0190 N   0  0  0  0  0  0  0  0  0  0  0  0
  -22.2690  -14.5820   20.6370 O   0  0  0  0  0  0  0  0  0  0  0  0
  -22.3660  -12.0290   22.4630 H   0  0  0  0  0  0  0  0  0  0  0  0
  -21.0500  -13.1480   22.2410 H   0  0  0  0  0  0  0  0  0  0  0  0
  -25.3170  -15.2470   20.3200 N   0  0  0  0  0  0  0  0  0  0  0  0
  -24.5410  -15.8920   20.4130 H   0  0  0  0  0  0  0  0  0  0  0  0
  -26.1420  -15.6820   19.9260 H   0  0  0  0  0  0  0  0  0  0  0  0
  -28.5950  -23.1860   20.6090 C   0  0  0  0  0  2  0  0  0  0  0  0
  -28.3640  -24.6710   19.7670 C   0  0  0  0  0  2  0  0  0  0  0  0
  -28.2830  -26.1620   20.2950 O   0  0  0  0  0  0  0  0  0  0  0  0
  -24.6140  -31.8840   23.2170 C   0  0  0  0  0  0  0  0  0  0  0  0
  -27.2050  -27.1340   20.1880 C   0  0  0  0  0  0  0  0  0  0  0  0
  -23.4190  -30.4800   21.5860 C   0  0  0  0  0  3  0  0  0  0  0  0
  -24.8680  -28.8940   20.1590 C   0  0  0  0  0  0  0  0  0  0  0  0
  -25.9730  -30.7360   21.4190 C   0  0  0  0  0  2  0  0  0  0  0  0
  -26.0480  -29.3390   20.7680 C   0  0  0  0  0  0  0  0  0  0  0  0
  -27.2100  -28.4750   20.7650 C   0  0  0  0  0  3  0  0  0  0  0  0
  -25.9960  -26.7970   19.5400 C   0  0  0  0  0  3  0  0  0  0  0  0
  -24.8590  -27.6390   19.5290 C   0  0  0  0  0  3  0  0  0  0  0  0
  -23.6420  -29.7940   20.2070 C   0  0  0  0  0  2  0  0  0  0  0  0
  -24.6900  -31.0560   22.1290 N   0  0  0  0  0  0  0  0  0  0  0  0
  -23.5260  -32.1710   23.7410 O   0  0  0  0  0  0  0  0  0  0  0  0
  -22.7370  -29.4790   22.5530 C   0  0  0  0  0  0  0  0  0  0  0  0
  -21.4080  -29.3070   22.4250 N   0  0  0  0  0  0  0  0  0  0  0  0
  -23.4070  -28.8580   23.3820 O   0  0  0  0  0  0  0  0  0  0  0  0
  -20.9240  -29.8620   21.7330 H   0  0  0  0  0  0  0  0  0  0  0  0
  -18.0250  -28.1090   22.9350 C   0  0  0  0  0  0  0  0  0  0  0  0
  -20.5860  -28.3730   23.1980 C   0  0  0  0  0  3  0  0  0  0  0  0
  -20.6870  -26.9390   22.6270 C   0  0  0  0  0  2  0  0  0  0  0  0
  -19.5820  -26.6140   21.6150 C   0  0  0  0  0  2  0  0  0  0  0  0
  -18.2010  -26.7600   22.2600 C   0  0  0  0  0  2  0  0  0  0  0  0
  -19.1440  -28.8740   23.3610 C   0  0  0  0  0  0  0  0  0  0  0  0
  -18.9230  -30.1360   23.9530 C   0  0  0  0  0  3  0  0  0  0  0  0
  -17.6180  -30.6350   24.1230 C   0  0  0  0  0  3  0  0  0  0  0  0
  -16.5140  -29.8670   23.7120 C   0  0  0  0  0  3  0  0  0  0  0  0
  -16.7190  -28.6070   23.1240 C   0  0  0  0  0  3  0  0  0  0  0  0
  -25.8900  -32.5270   23.8430 C   0  0  0  0  0  3  0  0  0  0  0  0
  -26.3940  -31.7700   25.1330 C   0  0  1  0  0  0  0  0  0  0  0  0
  -25.2950  -31.5460   26.2000 C   0  0  0  0  0  1  0  0  0  0  0  0
  -26.9770  -30.3870   24.7660 C   0  0  0  0  0  1  0  0  0  0  0  0
  -27.5420  -32.5690   25.7940 C   0  0  0  0  0  1  0  0  0  0  0  0
  -25.5740  -33.9300   24.1660 N   0  0  0  0  0  0  0  0  0  0  0  0
  -25.9060  -34.9830   23.4090 C   0  0  0  0  0  0  0  0  0  0  0  0
  -26.5760  -34.8760   22.3780 O   0  0  0  0  0  0  0  0  0  0  0  0
  -24.9740  -34.0830   24.9630 H   0  0  0  0  0  0  0  0  0  0  0  0
  -24.1800  -36.7820   23.0570 C   0  0  0  0  0  1  0  0  0  0  0  0
  -25.4230  -36.3750   23.8660 C   0  0  0  0  0  3  0  0  0  0  0  0
  -27.5590  -37.2610   24.6920 C   0  0  0  0  0  1  0  0  0  0  0  0
  -26.4560  -37.4270   23.7480 N   0  0  0  0  0  0  0  0  0  0  0  0
  -26.0510  -38.3480   23.8930 H   0  0  0  0  0  0  0  0  0  0  0  0
  1  4  1  0
  1  3  1  0
  3  2  2  0
  3 10  1  0
  4  9  1  0
  4  5  1  0
  5  2  1  0
  5 49  1  0
  9  6  1  6
  8  9  1  0
  9  7  1  0
 11 19  1  0
 12 17  1  0
 13 14  1  0
 13 12  1  0
 15 14  1  0
 15 24  1  0
 15 16  1  0
 17 11  1  0
 17 16  1  0
 18 11  2  0
 19 20  1  0
 19 10  1  0
 21 22  2  0
 22 41  1  0
 23 22  1  0
 23 26  1  0
 24 21  1  0
 24 25  1  0
 25 23  2  0
 26 27  1  0
 27 28  2  0
 29 32  1  0
 29 28  1  0
 30 29  2  0
 31 30  1  0
 31 26  2  0
 32 33  1  0
 33 34  1  0
 34 35  2  0
 36 35  1  0
 36 40  1  0
 37 36  2  0
 38 33  2  0
 38 37  1  0
 39 38  1  0
 41 42  1  0
 42 45  1  0
 42 44  1  0
 43 41  2  0
 46 47  1  0
 46 21  1  0
 48 46  1  0
 50 51  1  0
 50 49  1  0
 52 63  2  0
 53 51  1  0
 53 58  1  0
 54 62  1  0
 54 64  1  0
 55 61  1  0
 55 57  1  0
 56 62  1  0
 57 56  1  0
 58 57  2  0
 59 53  2  0
 60 59  1  0
 60 55  2  0
 61 54  1  0
 62 52  1  0
 64 66  2  0
 65 64  1  0
 67 65  1  0
 68 77  2  0
 68 73  1  0
 69 65  1  0
 69 73  1  0
 70 69  1  0
 71 72  1  0
 71 70  1  0
 72 68  1  0
 73 74  2  0
 74 75  1  0
 76 75  2  0
 77 76  1  0
 78 52  1  0
 78 83  1  0
 78 79  1  0
 79 82  1  1
 79 80  1  0
 81 79  1  0
 83 86  1  0
 84 88  1  0
 84 83  1  0
 85 84  2  0
 88 87  1  0
 90 88  1  0
 90 91  1  0
 90 89  1  0
M  ISO  4  11 100  19 100  50 101  51 101
M  END
>  <TORSDO>  (74) 
F 20

>  <SCORE>  (74) 
-15.200

>  <name>  (74) 
74

>  <ligand_id>  (74) 
74

>  <original_smiles>  (74) 
[H]c1c([H])c([H])c2c(c1[H])C([H])([H])C([H])([H])C([H])([H])C2([H])N([H])C(=O)C1([H])N(C(=O)C([H])(N([H])C(=O)C([H])(N([H])C([H])([H])[H])C([H])([H])[H])C(C([H])([H])[H])(C([H])([H])[H])C([H])([H])[H])C([H])([H])c2c([H])c(OC([H])([H])C([H])([H])n3c([H])c(C([H])([H])N([H])C(=O)N4C([H])([H])C([H])([H])C([H])([H])C([H])(n5nc(-c6c([H])c([H])c(Oc7c([H])c([H])c(F)c([H])c7F)c([H])c6[H])c(C(=O)N([H])[H])c5N([H])[H])C4([H])[H])c([H])c3C(C([H])([H])[H])(C([H])([H])[H])C([H])([H])[H])c([H])c([H])c2C1([H])[H]

>  <smiles>  (74) 
[H]c1c([H])c([H])c2c(c1[H])C([H])([H])C([H])([H])C([H])([H])C2([H])N([H])C(=O)C1([H])N(C(=O)C([H])(N([H])C(=O)C([H])(N([H])C([H])([H])[H])C([H])([H])[H])C(C([H])([H])[H])(C([H])([H])[H])C([H])([H])[H])C([H])([H])c2c([H])c(OC([H])([H])C([H])([H])n3c([H])c(C([H])([H])N([H])C(=O)N4C([H])([H])C([H])([H])C([H])([H])C([H])(n5nc(-c6c([H])c([H])c(Oc7c([H])c([H])c(F)c([H])c7F)c([H])c6[H])c(C(=O)N([H])[H])c5N([H])[H])C4([H])[H])c([H])c3C(C([H])([H])[H])(C([H])([H])[H])C([H])([H])[H])c([H])c([H])c2C1([H])[H]

$$$$
75:0:0
     RDKit          3D

 95103  0  0  1  0  0  0  0  0999 V2000
  -29.7600  -21.0080   19.1300 C   0  0  0  0  0  3  0  0  0  0  0  0
  -30.7150  -14.4540   20.1710 C   0  0  0  0  0  0  0  0  0  0  0  0
  -30.3540  -12.3240   18.9910 C   0  0  0  0  0  2  0  0  0  0  0  0
  -29.3620  -12.5870   17.8380 C   0  0  0  0  0  2  0  0  0  0  0  0
  -27.9060  -12.4540   18.3280 C   0  0  0  0  0  2  0  0  0  0  0  0
  -27.6360  -13.2470   19.6350 C   0  0  0  0  0  3  0  0  0  0  0  0
  -28.7380  -12.9700   20.6840 C   0  0  0  0  0  2  0  0  0  0  0  0
  -30.0400  -13.2750   20.0680 N   0  0  0  0  0  0  0  0  0  0  0  0
  -31.8440  -14.6030   19.6920 O   0  0  0  0  0  0  0  0  0  0  0  0
  -28.8970  -19.0160   20.5130 C   0  0  0  0  0  3  0  0  0  0  0  0
  -28.9830  -17.6510   20.8730 C   0  0  0  0  0  3  0  0  0  0  0  0
  -29.8840  -19.5760   19.6760 C   0  0  0  0  0  0  0  0  0  0  0  0
  -30.9480  -18.7260   19.2870 C   0  0  0  0  0  0  0  0  0  0  0  0
  -30.0490  -16.8570   20.3990 C   0  0  0  0  0  0  0  0  0  0  0  0
  -32.0970  -19.2030   18.4130 C   0  0  0  0  0  1  0  0  0  0  0  0
  -31.0190  -17.4230   19.6440 N   0  0  0  0  0  0  0  0  0  0  0  0
  -30.0040  -15.4660   20.7170 N   0  0  0  0  0  0  0  0  0  0  0  0
  -29.1660  -15.1660   21.1850 H   0  0  0  0  0  0  0  0  0  0  0  0
  -25.2740  -13.8540   20.4560 C   0  0  0  0  0  0  0  0  0  0  0  0
  -24.2170  -13.0810   20.8560 C   0  0  0  0  0  0  0  0  0  0  0  0
  -24.6690  -11.7270   20.7830 C   0  0  0  0  0  0  0  0  0  0  0  0
  -26.3030  -12.9720   20.1650 N   0  0  0  0  0  0  0  0  0  0  0  0
  -25.9450  -11.6870   20.4200 N   0  0  0  0  0  0  0  0  0  0  0  0
  -23.9460  -10.4660   20.9840 C   0  0  0  0  0  0  0  0  0  0  0  0
  -24.3920   -9.5000   21.9140 C   0  0  0  0  0  3  0  0  0  0  0  0
  -23.6700   -8.3020   22.1040 C   0  0  0  0  0  3  0  0  0  0  0  0
  -22.4880   -8.0610   21.3630 C   0  0  0  0  0  0  0  0  0  0  0  0
  -22.0600   -9.0160   20.4230 C   0  0  0  0  0  3  0  0  0  0  0  0
  -22.7840  -10.2050   20.2320 C   0  0  0  0  0  3  0  0  0  0  0  0
  -21.7370   -6.9140   21.4620 O   0  0  0  0  0  0  0  0  0  0  0  0
  -21.6800   -6.1880   22.6230 C   0  0  0  0  0  0  0  0  0  0  0  0
  -21.2080   -6.7490   23.8300 C   0  0  0  0  0  3  0  0  0  0  0  0
  -21.1000   -5.9470   24.9840 C   0  0  0  0  0  3  0  0  0  0  0  0
  -21.4550   -4.5860   24.9320 C   0  0  0  0  0  0  0  0  0  0  0  0
  -21.9200   -4.0240   23.7300 C   0  0  0  0  0  3  0  0  0  0  0  0
  -22.0290   -4.8230   22.5790 C   0  0  0  0  0  0  0  0  0  0  0  0
  -22.4580   -4.2730   21.4180 F   0  0  0  0  0  0  0  0  0  0  0  0
  -21.3450   -3.8140   26.0380 F   0  0  0  0  0  0  0  0  0  0  0  0
  -22.8360  -13.5600   21.1940 C   0  0  0  0  0  0  0  0  0  0  0  0
  -22.1390  -12.8490   22.0750 N   0  0  0  0  0  0  0  0  0  0  0  0
  -22.3830  -14.5970   20.7140 O   0  0  0  0  0  0  0  0  0  0  0  0
  -22.5170  -12.0100   22.4880 H   0  0  0  0  0  0  0  0  0  0  0  0
  -21.2130  -13.1510   22.3420 H   0  0  0  0  0  0  0  0  0  0  0  0
  -25.4410  -15.2270   20.2950 N   0  0  0  0  0  0  0  0  0  0  0  0
  -24.6860  -15.8850   20.4550 H   0  0  0  0  0  0  0  0  0  0  0  0
  -26.2710  -15.6650   19.9200 H   0  0  0  0  0  0  0  0  0  0  0  0
  -29.4170  -22.2890   16.9280 C   0  0  0  0  0  1  0  0  0  0  0  0
  -27.5870  -20.7500   17.7670 C   0  0  0  0  0  1  0  0  0  0  0  0
  -29.1030  -21.0130   17.7250 C   0  0  0  0  0  3  0  0  0  0  0  0
  -29.0290  -21.9050   19.9800 O   0  0  0  0  0  0  0  0  0  0  0  0
  -29.6910  -23.1560   20.2210 C   0  0  0  0  0  2  0  0  0  0  0  0
  -27.3640  -23.8460   21.1000 C   0  0  0  0  0  1  0  0  0  0  0  0
  -28.7570  -24.3230   20.6590 C   0  0  0  0  0  3  0  0  0  0  0  0
  -28.6800  -25.4700   19.6130 C   0  0  0  0  0  2  0  0  0  0  0  0
  -28.4670  -26.7470   20.2310 O   0  0  0  0  0  0  0  0  0  0  0  0
  -24.5380  -31.8600   23.2040 C   0  0  0  0  0  0  0  0  0  0  0  0
  -27.2530  -27.4050   20.1890 C   0  0  0  0  0  0  0  0  0  0  0  0
  -23.3650  -30.4490   21.5440 C   0  0  0  0  0  3  0  0  0  0  0  0
  -24.8470  -28.9030   20.1570 C   0  0  0  0  0  0  0  0  0  0  0  0
  -25.8930  -30.8090   21.3930 C   0  0  0  0  0  2  0  0  0  0  0  0
  -25.9900  -29.4350   20.7620 C   0  0  0  0  0  0  0  0  0  0  0  0
  -27.1910  -28.6910   20.7760 C   0  0  0  0  0  3  0  0  0  0  0  0
  -26.0820  -26.8800   19.5940 C   0  0  0  0  0  3  0  0  0  0  0  0
  -24.8880  -27.6250   19.5740 C   0  0  0  0  0  3  0  0  0  0  0  0
  -23.6010  -29.7610   20.1730 C   0  0  0  0  0  2  0  0  0  0  0  0
  -24.6150  -31.0550   22.1050 N   0  0  0  0  0  0  0  0  0  0  0  0
  -23.4470  -32.1340   23.7210 O   0  0  0  0  0  0  0  0  0  0  0  0
  -22.6980  -29.4310   22.4970 C   0  0  0  0  0  0  0  0  0  0  0  0
  -21.3710  -29.2710   22.3660 N   0  0  0  0  0  0  0  0  0  0  0  0
  -23.3710  -28.7900   23.3100 O   0  0  0  0  0  0  0  0  0  0  0  0
  -20.8910  -29.8390   21.6830 H   0  0  0  0  0  0  0  0  0  0  0  0
  -17.9710  -28.1680   22.8880 C   0  0  0  0  0  0  0  0  0  0  0  0
  -20.5390  -28.3410   23.1280 C   0  0  0  0  0  3  0  0  0  0  0  0
  -20.5880  -26.9210   22.5160 C   0  0  0  0  0  2  0  0  0  0  0  0
  -19.4620  -26.6570   21.5110 C   0  0  0  0  0  2  0  0  0  0  0  0
  -18.0950  -26.8310   22.1800 C   0  0  0  0  0  2  0  0  0  0  0  0
  -19.1190  -28.8850   23.3190 C   0  0  0  0  0  0  0  0  0  0  0  0
  -18.9490  -30.1410   23.9420 C   0  0  0  0  0  3  0  0  0  0  0  0
  -17.6630  -30.6800   24.1350 C   0  0  0  0  0  3  0  0  0  0  0  0
  -16.5290  -29.9600   23.7220 C   0  0  0  0  0  3  0  0  0  0  0  0
  -16.6840  -28.7050   23.1040 C   0  0  0  0  0  3  0  0  0  0  0  0
  -25.8120  -32.4940   23.8460 C   0  0  0  0  0  3  0  0  0  0  0  0
  -25.4940  -33.8900   24.1730 N   0  0  0  0  0  0  0  0  0  0  0  0
  -25.8280  -34.9440   23.4160 C   0  0  0  0  0  0  0  0  0  0  0  0
  -26.5090  -34.8430   22.3920 O   0  0  0  0  0  0  0  0  0  0  0  0
  -24.8890  -34.0420   24.9670 H   0  0  0  0  0  0  0  0  0  0  0  0
  -24.0980  -36.7290   23.0370 C   0  0  0  0  0  1  0  0  0  0  0  0
  -25.3280  -36.3290   23.8680 C   0  0  0  0  0  3  0  0  0  0  0  0
  -27.4420  -37.2250   24.7370 C   0  0  0  0  0  1  0  0  0  0  0  0
  -26.3580  -37.3870   23.7720 N   0  0  0  0  0  0  0  0  0  0  0  0
  -25.9450  -38.3050   23.9090 H   0  0  0  0  0  0  0  0  0  0  0  0
  -26.3150  -31.7210   25.1270 C   0  0  1  0  0  0  0  0  0  0  0  0
  -25.2060  -31.4730   26.1770 C   0  0  0  0  0  1  0  0  0  0  0  0
  -26.9120  -30.3490   24.7370 C   0  0  0  0  0  1  0  0  0  0  0  0
  -27.4500  -32.5200   25.8100 C   0  0  0  0  0  1  0  0  0  0  0  0
  1 49  1  0
  1 12  1  0
  1 50  1  0
  2 17  1  0
  3  8  1  0
  4  5  1  0
  4  3  1  0
  6  5  1  0
  6 22  1  0
  6  7  1  0
  8  2  1  0
  8  7  1  0
  9  2  2  0
 10 11  1  0
 12 10  2  0
 13 16  2  0
 13 12  1  0
 14 17  1  0
 14 11  2  0
 15 13  1  0
 16 14  1  0
 17 18  1  0
 19 20  2  0
 20 39  1  0
 21 20  1  0
 21 24  1  0
 22 23  1  0
 22 19  1  0
 23 21  2  0
 24 25  1  0
 25 26  2  0
 27 30  1  0
 27 26  1  0
 28 27  2  0
 29 28  1  0
 29 24  2  0
 30 31  1  0
 31 32  1  0
 32 33  2  0
 34 33  1  0
 34 38  1  0
 35 34  2  0
 36 31  2  0
 36 35  1  0
 37 36  1  0
 39 40  1  0
 40 43  1  0
 40 42  1  0
 41 39  2  0
 44 45  1  0
 44 19  1  0
 46 44  1  0
 47 49  1  0
 49 48  1  0
 50 51  1  0
 51 53  1  0
 53 52  1  0
 54 55  1  0
 54 53  1  0
 56 67  2  0
 57 55  1  0
 57 62  1  0
 58 66  1  0
 58 68  1  0
 59 65  1  0
 59 61  1  0
 60 66  1  0
 61 62  2  0
 61 60  1  0
 63 57  2  0
 64 63  1  0
 64 59  2  0
 65 58  1  0
 66 56  1  0
 68 70  2  0
 69 68  1  0
 71 69  1  0
 72 81  2  0
 72 77  1  0
 73 69  1  0
 73 77  1  0
 74 73  1  0
 75 76  1  0
 75 74  1  0
 76 72  1  0
 77 78  2  0
 78 79  1  0
 80 79  2  0
 81 80  1  0
 82 56  1  0
 82 83  1  0
 82 92  1  0
 83 86  1  0
 84 88  1  0
 84 83  1  0
 85 84  2  0
 88 87  1  0
 90 88  1  0
 90 91  1  0
 90 89  1  0
 92 95  1  1
 92 93  1  0
 94 92  1  0
M  ISO  4   2 100  17 100  54 101  55 101
M  END
>  <TORSDO>  (75) 
F 21

>  <SCORE>  (75) 
-13.738

>  <name>  (75) 
75

>  <ligand_id>  (75) 
75

>  <original_smiles>  (75) 
[H]c1c(N([H])C(=O)N2C([H])([H])C([H])([H])C([H])([H])C([H])(n3nc(-c4c([H])c([H])c(Oc5c([H])c([H])c(F)c([H])c5F)c([H])c4[H])c(C(=O)N([H])[H])c3N([H])[H])C2([H])[H])nc(C([H])([H])[H])c(C([H])(OC([H])([H])C([H])(C([H])([H])[H])C([H])([H])Oc2c([H])c([H])c3c(c2[H])C([H])([H])N(C(=O)C([H])(N([H])C(=O)C([H])(N([H])C([H])([H])[H])C([H])([H])[H])C(C([H])([H])[H])(C([H])([H])[H])C([H])([H])[H])C([H])(C(=O)N([H])C2([H])c4c([H])c([H])c([H])c([H])c4C([H])([H])C([H])([H])C2([H])[H])C3([H])[H])C([H])(C([H])([H])[H])C([H])([H])[H])c1[H]

>  <smiles>  (75) 
[H]c1c(N([H])C(=O)N2C([H])([H])C([H])([H])C([H])([H])C([H])(n3nc(-c4c([H])c([H])c(Oc5c([H])c([H])c(F)c([H])c5F)c([H])c4[H])c(C(=O)N([H])[H])c3N([H])[H])C2([H])[H])nc(C([H])([H])[H])c(C([H])(OC([H])([H])C([H])(C([H])([H])[H])C([H])([H])Oc2c([H])c([H])c3c(c2[H])C([H])([H])N(C(=O)C([H])(N([H])C(=O)C([H])(N([H])C([H])([H])[H])C([H])([H])[H])C(C([H])([H])[H])(C([H])([H])[H])C([H])([H])[H])C([H])(C(=O)N([H])C2([H])c4c([H])c([H])c([H])c([H])c4C([H])([H])C([H])([H])C2([H])[H])C3([H])[H])C([H])(C([H])([H])[H])C([H])([H])[H])c1[H]

$$$$
76:0:0
     RDKit          3D

 93101  0  0  1  0  0  0  0  0999 V2000
  -29.0320  -21.2860   21.3310 C   0  0  0  0  0  3  0  0  0  0  0  0
  -29.2940  -19.8620   21.3330 C   0  0  0  0  0  3  0  0  0  0  0  0
  -29.3980  -22.1560   20.2510 C   0  0  0  0  0  0  0  0  0  0  0  0
  -29.9370  -19.1990   20.2460 C   0  0  0  0  0  0  0  0  0  0  0  0
  -29.9880  -21.3910   19.1750 C   0  0  0  0  0  0  0  0  0  0  0  0
  -30.2310  -20.0230   19.1950 N   0  0  0  0  0  0  0  0  0  0  0  0
  -31.7850  -22.8080   17.9790 C   0  0  0  0  0  1  0  0  0  0  0  0
  -29.3480  -22.7430   17.0880 C   0  0  0  0  0  1  0  0  0  0  0  0
  -30.4640  -22.0230   17.8600 C   0  0  0  0  0  3  0  0  0  0  0  0
  -29.3850  -23.8040   20.3460 C   0  0  0  0  0  2  0  0  0  0  0  0
  -27.7690  -24.9010   22.0170 C   0  0  0  0  0  1  0  0  0  0  0  0
  -26.9340  -24.1300   19.8110 C   0  0  0  0  0  1  0  0  0  0  0  0
  -28.1060  -24.8440   20.5170 C   0  0  2  0  0  0  0  0  0  0  0  0
  -28.2880  -26.3560   20.1500 O   0  0  0  0  0  0  0  0  0  0  0  0
  -24.6370  -31.9620   23.2320 C   0  0  0  0  0  0  0  0  0  0  0  0
  -27.2250  -27.3270   20.1280 C   0  0  0  0  0  0  0  0  0  0  0  0
  -23.4340  -30.5700   21.5940 C   0  0  0  0  0  3  0  0  0  0  0  0
  -24.8850  -29.0420   20.1370 C   0  0  0  0  0  0  0  0  0  0  0  0
  -25.9830  -30.8690   21.4090 C   0  0  0  0  0  2  0  0  0  0  0  0
  -26.0620  -29.4860   20.7510 C   0  0  0  0  0  0  0  0  0  0  0  0
  -27.2320  -28.6410   20.7430 C   0  0  0  0  0  3  0  0  0  0  0  0
  -26.0460  -27.0280   19.4130 C   0  0  0  0  0  3  0  0  0  0  0  0
  -24.8890  -27.8230   19.4500 C   0  0  0  0  0  3  0  0  0  0  0  0
  -23.6480  -29.9180   20.2030 C   0  0  0  0  0  2  0  0  0  0  0  0
  -24.7040  -31.1550   22.1330 N   0  0  0  0  0  0  0  0  0  0  0  0
  -23.5540  -32.2290   23.7750 O   0  0  0  0  0  0  0  0  0  0  0  0
  -22.7820  -29.5390   22.5500 C   0  0  0  0  0  0  0  0  0  0  0  0
  -21.4600  -29.3330   22.4160 N   0  0  0  0  0  0  0  0  0  0  0  0
  -23.4660  -28.9300   23.3770 O   0  0  0  0  0  0  0  0  0  0  0  0
  -20.9610  -29.8790   21.7270 H   0  0  0  0  0  0  0  0  0  0  0  0
  -18.1030  -28.0720   22.9290 C   0  0  0  0  0  0  0  0  0  0  0  0
  -20.6580  -28.3780   23.1860 C   0  0  0  0  0  3  0  0  0  0  0  0
  -20.7830  -26.9500   22.6040 C   0  0  0  0  0  2  0  0  0  0  0  0
  -19.6810  -26.6150   21.5920 C   0  0  0  0  0  2  0  0  0  0  0  0
  -18.3010  -26.7290   22.2450 C   0  0  0  0  0  2  0  0  0  0  0  0
  -19.2090  -28.8520   23.3580 C   0  0  0  0  0  0  0  0  0  0  0  0
  -18.9710  -30.1050   23.9620 C   0  0  0  0  0  3  0  0  0  0  0  0
  -17.6570  -30.5800   24.1410 C   0  0  0  0  0  3  0  0  0  0  0  0
  -16.5650  -29.7980   23.7260 C   0  0  0  0  0  3  0  0  0  0  0  0
  -16.7890  -28.5460   23.1260 C   0  0  0  0  0  3  0  0  0  0  0  0
  -25.9170  -32.6060   23.8480 C   0  0  0  0  0  3  0  0  0  0  0  0
  -26.4410  -31.8460   25.1280 C   0  0  1  0  0  0  0  0  0  0  0  0
  -25.3480  -31.6050   26.1940 C   0  0  0  0  0  1  0  0  0  0  0  0
  -27.0330  -30.4680   24.7490 C   0  0  0  0  0  1  0  0  0  0  0  0
  -27.5840  -32.6520   25.7870 C   0  0  0  0  0  1  0  0  0  0  0  0
  -25.5990  -34.0040   24.1740 N   0  0  0  0  0  0  0  0  0  0  0  0
  -25.9180  -35.0600   23.4120 C   0  0  0  0  0  0  0  0  0  0  0  0
  -26.5800  -34.9590   22.3750 O   0  0  0  0  0  0  0  0  0  0  0  0
  -25.0100  -34.1560   24.9800 H   0  0  0  0  0  0  0  0  0  0  0  0
  -24.1880  -36.8540   23.0610 C   0  0  0  0  0  1  0  0  0  0  0  0
  -25.4280  -36.4470   23.8740 C   0  0  0  0  0  3  0  0  0  0  0  0
  -27.5480  -37.3420   24.7300 C   0  0  0  0  0  1  0  0  0  0  0  0
  -26.4600  -37.5010   23.7670 N   0  0  0  0  0  0  0  0  0  0  0  0
  -26.0520  -38.4210   23.9010 H   0  0  0  0  0  0  0  0  0  0  0  0
  -30.6630  -17.7320   20.2910 C   0  0  0  0  0  2  0  0  0  0  0  0
  -30.7550  -15.0920   20.0540 C   0  0  0  0  0  0  0  0  0  0  0  0
  -30.5280  -12.7960   19.0450 C   0  0  0  0  0  2  0  0  0  0  0  0
  -29.5330  -12.7870   17.8650 C   0  0  0  0  0  2  0  0  0  0  0  0
  -28.0920  -12.5730   18.3650 C   0  0  0  0  0  2  0  0  0  0  0  0
  -27.7470  -13.4710   19.5830 C   0  0  0  0  0  3  0  0  0  0  0  0
  -28.8610  -13.4680   20.6550 C   0  0  0  0  0  2  0  0  0  0  0  0
  -30.1070  -13.8680   19.9900 N   0  0  0  0  0  0  0  0  0  0  0  0
  -31.9330  -15.1360   19.6930 O   0  0  0  0  0  0  0  0  0  0  0  0
  -30.0680  -16.2930   20.3210 N   0  0  0  0  0  0  0  0  0  0  0  0
  -29.0910  -16.2250   20.5590 H   0  0  0  0  0  0  0  0  0  0  0  0
  -25.4070  -14.0100   20.4760 C   0  0  0  0  0  0  0  0  0  0  0  0
  -24.3680  -13.2160   20.8790 C   0  0  0  0  0  0  0  0  0  0  0  0
  -24.8340  -11.8700   20.7750 C   0  0  0  0  0  0  0  0  0  0  0  0
  -26.4390  -13.1470   20.1470 N   0  0  0  0  0  0  0  0  0  0  0  0
  -26.1060  -11.8520   20.3930 N   0  0  0  0  0  0  0  0  0  0  0  0
  -24.1220  -10.5970   20.9590 C   0  0  0  0  0  0  0  0  0  0  0  0
  -24.5550   -9.6360   21.8980 C   0  0  0  0  0  3  0  0  0  0  0  0
  -23.8410   -8.4310   22.0730 C   0  0  0  0  0  3  0  0  0  0  0  0
  -22.6780   -8.1780   21.3080 C   0  0  0  0  0  0  0  0  0  0  0  0
  -22.2630   -9.1280   20.3570 C   0  0  0  0  0  3  0  0  0  0  0  0
  -22.9780  -10.3240   20.1820 C   0  0  0  0  0  3  0  0  0  0  0  0
  -21.9360   -7.0250   21.3920 O   0  0  0  0  0  0  0  0  0  0  0  0
  -21.8200   -6.3260   22.5670 C   0  0  0  0  0  0  0  0  0  0  0  0
  -21.2290   -6.8950   23.7160 C   0  0  0  0  0  3  0  0  0  0  0  0
  -21.0650   -6.1190   24.8820 C   0  0  0  0  0  3  0  0  0  0  0  0
  -21.4830   -4.7750   24.8980 C   0  0  0  0  0  0  0  0  0  0  0  0
  -22.0660   -4.2040   23.7520 C   0  0  0  0  0  3  0  0  0  0  0  0
  -22.2290   -4.9770   22.5900 C   0  0  0  0  0  0  0  0  0  0  0  0
  -22.7720   -4.4160   21.4820 F   0  0  0  0  0  0  0  0  0  0  0  0
  -21.3180   -4.0270   26.0150 F   0  0  0  0  0  0  0  0  0  0  0  0
  -22.9840  -13.6760   21.2390 C   0  0  0  0  0  0  0  0  0  0  0  0
  -22.2990  -12.9420   22.1080 N   0  0  0  0  0  0  0  0  0  0  0  0
  -22.5210  -14.7200   20.7840 O   0  0  0  0  0  0  0  0  0  0  0  0
  -22.6860  -12.0980   22.5040 H   0  0  0  0  0  0  0  0  0  0  0  0
  -21.3710  -13.2290   22.3850 H   0  0  0  0  0  0  0  0  0  0  0  0
  -25.5550  -15.3870   20.3380 N   0  0  0  0  0  0  0  0  0  0  0  0
  -24.7890  -16.0320   20.5100 H   0  0  0  0  0  0  0  0  0  0  0  0
  -26.3720  -15.8430   19.9550 H   0  0  0  0  0  0  0  0  0  0  0  0
  1  2  1  0
  3 10  1  0
  3  1  2  0
  4 55  1  0
  4  2  2  0
  5  6  2  0
  5  3  1  0
  6  4  1  0
  8  9  1  0
  9  7  1  0
  9  5  1  0
 10 13  1  0
 13 12  1  6
 13 11  1  0
 14 13  1  0
 15 26  2  0
 16 14  1  0
 16 21  1  0
 17 25  1  0
 17 27  1  0
 18 24  1  0
 18 20  1  0
 19 25  1  0
 20 19  1  0
 21 20  2  0
 22 23  1  0
 22 16  2  0
 23 18  2  0
 24 17  1  0
 25 15  1  0
 27 29  2  0
 28 27  1  0
 30 28  1  0
 31 40  2  0
 31 36  1  0
 32 28  1  0
 32 36  1  0
 33 32  1  0
 34 35  1  0
 34 33  1  0
 35 31  1  0
 36 37  2  0
 37 38  1  0
 39 38  2  0
 40 39  1  0
 41 15  1  0
 41 46  1  0
 41 42  1  0
 42 45  1  1
 42 43  1  0
 44 42  1  0
 46 49  1  0
 47 51  1  0
 47 46  1  0
 48 47  2  0
 51 50  1  0
 53 51  1  0
 53 54  1  0
 53 52  1  0
 55 64  1  0
 56 64  1  0
 57 62  1  0
 58 59  1  0
 58 57  1  0
 60 59  1  0
 60 69  1  0
 60 61  1  0
 62 56  1  0
 62 61  1  0
 63 56  2  0
 64 65  1  0
 66 67  2  0
 67 86  1  0
 68 67  1  0
 68 71  1  0
 69 70  1  0
 69 66  1  0
 70 68  2  0
 71 72  1  0
 72 73  2  0
 74 77  1  0
 74 73  1  0
 75 74  2  0
 76 75  1  0
 76 71  2  0
 77 78  1  0
 78 83  2  0
 78 79  1  0
 79 80  2  0
 80 81  1  0
 81 85  1  0
 82 81  2  0
 83 82  1  0
 84 83  1  0
 86 87  1  0
 87 90  1  0
 87 89  1  0
 88 86  2  0
 91 66  1  0
 91 92  1  0
 93 91  1  0
M  ISO  4  13 101  14 101  56 100  64 100
M  END
>  <TORSDO>  (76) 
F 20

>  <SCORE>  (76) 
-13.564

>  <name>  (76) 
76

>  <ligand_id>  (76) 
76

>  <original_smiles>  (76) 
[H]c1c(C([H])([H])N([H])C(=O)N2C([H])([H])C([H])([H])C([H])([H])C([H])(n3nc(-c4c([H])c([H])c(Oc5c([H])c([H])c(F)c([H])c5F)c([H])c4[H])c(C(=O)N([H])[H])c3N([H])[H])C2([H])[H])nc(C([H])(C([H])([H])[H])C([H])([H])[H])c(C([H])([H])C(Oc2c([H])c([H])c3c(c2[H])C([H])([H])N(C(=O)C([H])(N([H])C(=O)C([H])(N([H])C([H])([H])[H])C([H])([H])[H])C(C([H])([H])[H])(C([H])([H])[H])C([H])([H])[H])C([H])(C(=O)N([H])C2([H])c4c([H])c([H])c([H])c([H])c4C([H])([H])C([H])([H])C2([H])[H])C3([H])[H])(C([H])([H])[H])C([H])([H])[H])c1[H]

>  <smiles>  (76) 
[H]c1c(C([H])([H])N([H])C(=O)N2C([H])([H])C([H])([H])C([H])([H])C([H])(n3nc(-c4c([H])c([H])c(Oc5c([H])c([H])c(F)c([H])c5F)c([H])c4[H])c(C(=O)N([H])[H])c3N([H])[H])C2([H])[H])nc(C([H])(C([H])([H])[H])C([H])([H])[H])c(C([H])([H])C(Oc2c([H])c([H])c3c(c2[H])C([H])([H])N(C(=O)C([H])(N([H])C(=O)C([H])(N([H])C([H])([H])[H])C([H])([H])[H])C(C([H])([H])[H])(C([H])([H])[H])C([H])([H])[H])C([H])(C(=O)N([H])C2([H])c4c([H])c([H])c([H])c([H])c4C([H])([H])C([H])([H])C2([H])[H])C3([H])[H])(C([H])([H])[H])C([H])([H])[H])c1[H]

$$$$
77:0:0
     RDKit          3D

 93101  0  0  1  0  0  0  0  0999 V2000
  -30.3040  -19.5060   18.6990 C   0  0  0  0  0  3  0  0  0  0  0  0
  -30.7860  -21.0540   20.4380 C   0  0  0  0  0  3  0  0  0  0  0  0
  -30.2340  -20.8670   19.1710 C   0  0  0  0  0  0  0  0  0  0  0  0
  -30.7940  -18.4060   19.5110 C   0  0  0  0  0  0  0  0  0  0  0  0
  -30.9990  -18.7400   20.8960 C   0  0  0  0  0  0  0  0  0  0  0  0
  -31.1130  -20.0440   21.2620 N   0  0  0  0  0  0  0  0  0  0  0  0
  -31.4390  -18.4060   23.4170 C   0  0  0  0  0  1  0  0  0  0  0  0
  -30.9310  -16.3980   22.1580 C   0  0  0  0  0  1  0  0  0  0  0  0
  -29.1320  -18.0060   22.4360 C   0  0  0  0  0  1  0  0  0  0  0  0
  -30.6600  -17.8960   22.1770 C   0  0  2  0  0  0  0  0  0  0  0  0
  -29.5610  -22.0810   18.3880 C   0  0  0  0  0  2  0  0  0  0  0  0
  -29.5480  -23.5850   18.9970 C   0  0  0  0  0  3  0  0  0  0  0  0
  -28.6250  -24.7150   18.3060 C   0  0  0  0  0  3  0  0  0  0  0  0
  -28.5930  -26.1440   18.7890 O   0  0  0  0  0  0  0  0  0  0  0  0
  -24.7750  -31.1300   22.4460 C   0  0  0  0  0  0  0  0  0  0  0  0
  -27.4100  -26.9230   18.8720 C   0  0  0  0  0  0  0  0  0  0  0  0
  -23.5250  -29.7750   20.8060 C   0  0  0  0  0  3  0  0  0  0  0  0
  -24.9530  -28.4080   19.1740 C   0  0  0  0  0  0  0  0  0  0  0  0
  -26.0330  -30.2460   20.4630 C   0  0  0  0  0  2  0  0  0  0  0  0
  -26.1340  -28.9170   19.7140 C   0  0  0  0  0  0  0  0  0  0  0  0
  -27.3580  -28.1880   19.5620 C   0  0  0  0  0  3  0  0  0  0  0  0
  -26.1890  -26.4820   18.3150 C   0  0  0  0  0  3  0  0  0  0  0  0
  -24.9860  -27.1960   18.4730 C   0  0  0  0  0  3  0  0  0  0  0  0
  -23.6730  -29.2030   19.3680 C   0  0  0  0  0  2  0  0  0  0  0  0
  -24.7990  -30.4020   21.2910 N   0  0  0  0  0  0  0  0  0  0  0  0
  -23.7180  -31.3030   23.0700 O   0  0  0  0  0  0  0  0  0  0  0  0
  -22.9960  -28.6570   21.7340 C   0  0  0  0  0  0  0  0  0  0  0  0
  -21.6800  -28.3940   21.6830 N   0  0  0  0  0  0  0  0  0  0  0  0
  -23.7680  -28.0330   22.4700 O   0  0  0  0  0  0  0  0  0  0  0  0
  -21.1120  -28.9610   21.0670 H   0  0  0  0  0  0  0  0  0  0  0  0
  -18.4310  -26.9330   22.3120 C   0  0  0  0  0  0  0  0  0  0  0  0
  -20.9800  -27.3540   22.4410 C   0  0  0  0  0  3  0  0  0  0  0  0
  -21.1360  -25.9660   21.7750 C   0  0  0  0  0  2  0  0  0  0  0  0
  -20.0000  -25.6390   20.8030 C   0  0  0  0  0  2  0  0  0  0  0  0
  -18.6510  -25.6470   21.5360 C   0  0  0  0  0  2  0  0  0  0  0  0
  -19.5220  -27.7410   22.7190 C   0  0  0  0  0  0  0  0  0  0  0  0
  -19.2620  -28.9420   23.4140 C   0  0  0  0  0  3  0  0  0  0  0  0
  -17.9400  -29.3380   23.6990 C   0  0  0  0  0  3  0  0  0  0  0  0
  -16.8610  -28.5290   23.3020 C   0  0  0  0  0  3  0  0  0  0  0  0
  -17.1100  -27.3260   22.6180 C   0  0  0  0  0  3  0  0  0  0  0  0
  -26.0620  -31.7990   23.0230 C   0  0  0  0  0  3  0  0  0  0  0  0
  -25.6510  -33.0380   23.7020 N   0  0  0  0  0  0  0  0  0  0  0  0
  -25.7760  -34.2680   23.1920 C   0  0  0  0  0  0  0  0  0  0  0  0
  -26.3250  -34.4840   22.1090 O   0  0  0  0  0  0  0  0  0  0  0  0
  -25.1490  -32.9280   24.5690 H   0  0  0  0  0  0  0  0  0  0  0  0
  -23.8600  -35.8900   23.4200 C   0  0  0  0  0  1  0  0  0  0  0  0
  -25.2060  -35.4450   24.0140 C   0  0  0  0  0  3  0  0  0  0  0  0
  -27.3170  -36.3460   24.8880 C   0  0  0  0  0  1  0  0  0  0  0  0
  -26.1190  -36.6070   24.0930 N   0  0  0  0  0  0  0  0  0  0  0  0
  -25.6400  -37.4190   24.4780 H   0  0  0  0  0  0  0  0  0  0  0  0
  -26.8520  -30.8650   24.0190 C   0  0  1  0  0  0  0  0  0  0  0  0
  -25.9790  -30.2500   25.1380 C   0  0  0  0  0  1  0  0  0  0  0  0
  -27.5340  -29.7070   23.2580 C   0  0  0  0  0  1  0  0  0  0  0  0
  -27.9840  -31.6710   24.6980 C   0  0  0  0  0  1  0  0  0  0  0  0
  -31.0510  -17.0150   18.7830 C   0  0  0  0  0  2  0  0  0  0  0  0
  -31.8240  -14.5560   19.2850 C   0  0  0  0  0  0  0  0  0  0  0  0
  -31.3900  -12.2690   18.4420 C   0  0  0  0  0  2  0  0  0  0  0  0
  -30.3230  -12.4370   17.3390 C   0  0  0  0  0  2  0  0  0  0  0  0
  -28.8990  -12.3930   17.9360 C   0  0  0  0  0  2  0  0  0  0  0  0
  -28.7330  -13.3200   19.1730 C   0  0  0  0  0  3  0  0  0  0  0  0
  -29.9110  -13.1150   20.1500 C   0  0  0  0  0  2  0  0  0  0  0  0
  -31.1620  -13.3560   19.4110 N   0  0  0  0  0  0  0  0  0  0  0  0
  -32.9570  -14.6270   18.8040 O   0  0  0  0  0  0  0  0  0  0  0  0
  -31.0390  -15.6620   19.4430 N   0  0  0  0  0  0  0  0  0  0  0  0
  -30.1440  -15.4120   19.8250 H   0  0  0  0  0  0  0  0  0  0  0  0
  -26.5240  -14.0790   20.2570 C   0  0  0  0  0  0  0  0  0  0  0  0
  -25.4540  -13.3770   20.7460 C   0  0  0  0  0  0  0  0  0  0  0  0
  -25.7730  -12.0010   20.5670 C   0  0  0  0  0  0  0  0  0  0  0  0
  -27.4410  -13.1310   19.8310 N   0  0  0  0  0  0  0  0  0  0  0  0
  -26.9970  -11.8710   20.0700 N   0  0  0  0  0  0  0  0  0  0  0  0
  -24.9520  -10.7970   20.7640 C   0  0  0  0  0  0  0  0  0  0  0  0
  -25.2720   -9.8400   21.7510 C   0  0  0  0  0  3  0  0  0  0  0  0
  -24.4480   -8.7130   21.9480 C   0  0  0  0  0  3  0  0  0  0  0  0
  -23.2920   -8.5230   21.1570 C   0  0  0  0  0  0  0  0  0  0  0  0
  -22.9960   -9.4640   20.1510 C   0  0  0  0  0  3  0  0  0  0  0  0
  -23.8200  -10.5850   19.9520 C   0  0  0  0  0  3  0  0  0  0  0  0
  -22.4540   -7.4400   21.2640 O   0  0  0  0  0  0  0  0  0  0  0  0
  -22.1230   -6.9010   22.4800 C   0  0  0  0  0  0  0  0  0  0  0  0
  -21.5080   -7.6750   23.4850 C   0  0  0  0  0  3  0  0  0  0  0  0
  -21.1140   -7.0630   24.6910 C   0  0  0  0  0  3  0  0  0  0  0  0
  -21.3280   -5.6860   24.8870 C   0  0  0  0  0  0  0  0  0  0  0  0
  -21.9430   -4.9180   23.8850 C   0  0  0  0  0  3  0  0  0  0  0  0
  -22.3340   -5.5220   22.6760 C   0  0  0  0  0  0  0  0  0  0  0  0
  -22.8990   -4.7740   21.6960 F   0  0  0  0  0  0  0  0  0  0  0  0
  -20.9390   -5.0950   26.0430 F   0  0  0  0  0  0  0  0  0  0  0  0
  -24.1640  -13.9650   21.2330 C   0  0  0  0  0  0  0  0  0  0  0  0
  -23.5260  -13.3010   22.1930 N   0  0  0  0  0  0  0  0  0  0  0  0
  -23.7400  -15.0340   20.7980 O   0  0  0  0  0  0  0  0  0  0  0  0
  -23.8960  -12.4320   22.5530 H   0  0  0  0  0  0  0  0  0  0  0  0
  -22.6480  -13.6610   22.5430 H   0  0  0  0  0  0  0  0  0  0  0  0
  -26.7480  -15.4380   20.1230 N   0  0  0  0  0  0  0  0  0  0  0  0
  -26.0260  -16.0940   20.4000 H   0  0  0  0  0  0  0  0  0  0  0  0
  -27.4660  -15.8650   19.5590 H   0  0  0  0  0  0  0  0  0  0  0  0
  1  3  2  0
  1  4  1  0
  2  6  2  0
  3  2  1  0
  4  5  2  0
  5  6  1  0
  5 10  1  0
 10  8  1  6
 10  9  1  0
 10  7  1  0
 11 12  1  0
 11  3  1  0
 13 14  1  0
 13 12  2  0
 14 16  1  0
 15 26  2  0
 16 21  1  0
 17 25  1  0
 17 27  1  0
 18 24  1  0
 18 20  1  0
 19 25  1  0
 20 19  1  0
 21 20  2  0
 22 23  1  0
 22 16  2  0
 23 18  2  0
 24 17  1  0
 25 15  1  0
 27 29  2  0
 28 27  1  0
 30 28  1  0
 31 40  2  0
 31 36  1  0
 32 28  1  0
 32 36  1  0
 33 32  1  0
 34 35  1  0
 34 33  1  0
 35 31  1  0
 36 37  2  0
 37 38  1  0
 39 38  2  0
 40 39  1  0
 41 15  1  0
 41 42  1  0
 41 51  1  0
 42 45  1  0
 43 42  1  0
 43 47  1  0
 44 43  2  0
 47 46  1  0
 47 49  1  0
 49 50  1  0
 49 48  1  0
 51 54  1  1
 51 52  1  0
 53 51  1  0
 55 64  1  0
 55  4  1  0
 56 62  1  0
 56 64  1  0
 57 62  1  0
 58 59  1  0
 58 57  1  0
 60 59  1  0
 60 69  1  0
 60 61  1  0
 62 61  1  0
 63 56  2  0
 64 65  1  0
 66 67  2  0
 67 86  1  0
 68 67  1  0
 68 71  1  0
 69 70  1  0
 69 66  1  0
 70 68  2  0
 71 72  1  0
 72 73  2  0
 74 77  1  0
 74 73  1  0
 75 74  2  0
 76 75  1  0
 76 71  2  0
 77 78  1  0
 78 83  2  0
 78 79  1  0
 79 80  2  0
 80 81  1  0
 81 85  1  0
 82 81  2  0
 83 82  1  0
 84 83  1  0
 86 87  1  0
 87 90  1  0
 87 89  1  0
 88 86  2  0
 91 66  1  0
 91 92  1  0
 93 91  1  0
M  ISO  4  13 101  14 101  56 100  64 100
M  END
>  <TORSDO>  (77) 
F 21

>  <SCORE>  (77) 
-6.648

>  <name>  (77) 
77

>  <ligand_id>  (77) 
77

>  <original_smiles>  (77) 
[H]c1nc(C(C([H])([H])[H])(C([H])([H])[H])C([H])([H])[H])c(C([H])([H])N([H])C(=O)N2C([H])([H])C([H])([H])C([H])([H])C([H])(n3nc(-c4c([H])c([H])c(Oc5c([H])c([H])c(F)c([H])c5F)c([H])c4[H])c(C(=O)N([H])[H])c3N([H])[H])C2([H])[H])c([H])c1C([H])([H])C([H])([H])C([H])([H])Oc1c([H])c([H])c2c(c1[H])C([H])([H])N(C(=O)C([H])(N([H])C(=O)C([H])(N([H])C([H])([H])[H])C([H])([H])[H])C(C([H])([H])[H])(C([H])([H])[H])C([H])([H])[H])C([H])(C(=O)N([H])C1([H])c3c([H])c([H])c([H])c([H])c3C([H])([H])C([H])([H])C1([H])[H])C2([H])[H]

>  <smiles>  (77) 
[H]c1nc(C(C([H])([H])[H])(C([H])([H])[H])C([H])([H])[H])c(C([H])([H])N([H])C(=O)N2C([H])([H])C([H])([H])C([H])([H])C([H])(n3nc(-c4c([H])c([H])c(Oc5c([H])c([H])c(F)c([H])c5F)c([H])c4[H])c(C(=O)N([H])[H])c3N([H])[H])C2([H])[H])c([H])c1C([H])([H])C([H])([H])C([H])([H])Oc1c([H])c([H])c2c(c1[H])C([H])([H])N(C(=O)C([H])(N([H])C(=O)C([H])(N([H])C([H])([H])[H])C([H])([H])[H])C(C([H])([H])[H])(C([H])([H])[H])C([H])([H])[H])C([H])(C(=O)N([H])C1([H])c3c([H])c([H])c([H])c([H])c3C([H])([H])C([H])([H])C1([H])[H])C2([H])[H]

$$$$
78:0:0
     RDKit          3D

 90 97  0  0  1  0  0  0  0  0999 V2000
  -29.7220  -20.1020   20.6550 C   0  0  0  0  0  0  0  0  0  0  0  0
  -29.4740  -21.2940   19.9740 N   0  0  0  0  0  0  0  0  0  0  0  0
  -29.6590  -20.1140   21.8840 O   0  0  0  0  0  0  0  0  0  0  0  0
  -29.5780  -21.2580   18.9660 H   0  0  0  0  0  0  0  0  0  0  0  0
  -31.5890  -19.0530   19.3530 C   0  0  0  0  0  1  0  0  0  0  0  0
  -29.2570  -18.3130   18.7950 C   0  0  0  0  0  1  0  0  0  0  0  0
  -30.1990  -18.7110   19.9550 C   0  0  2  0  0  0  0  0  0  0  0  0
  -30.4190  -17.4050   20.9380 C   0  0  0  0  0  2  0  0  0  0  0  0
  -30.6320  -14.8050   20.4040 C   0  0  0  0  0  0  0  0  0  0  0  0
  -30.3900  -12.5410   19.3680 C   0  0  0  0  0  2  0  0  0  0  0  0
  -29.4600  -12.6100   18.1380 C   0  0  0  0  0  2  0  0  0  0  0  0
  -27.9840  -12.4320   18.5500 C   0  0  0  0  0  2  0  0  0  0  0  0
  -27.5990  -13.2980   19.7800 C   0  0  0  0  0  3  0  0  0  0  0  0
  -28.6650  -13.2310   20.8960 C   0  0  0  0  0  2  0  0  0  0  0  0
  -29.9580  -13.6050   20.3020 N   0  0  0  0  0  0  0  0  0  0  0  0
  -31.8290  -14.8600   20.1170 O   0  0  0  0  0  0  0  0  0  0  0  0
  -29.9260  -15.9760   20.6280 N   0  0  0  0  0  0  0  0  0  0  0  0
  -28.9340  -15.8420   20.7590 H   0  0  0  0  0  0  0  0  0  0  0  0
  -25.2130  -13.8830   20.5140 C   0  0  0  0  0  0  0  0  0  0  0  0
  -24.1480  -13.1130   20.8870 C   0  0  0  0  0  0  0  0  0  0  0  0
  -24.6050  -11.7600   20.8560 C   0  0  0  0  0  0  0  0  0  0  0  0
  -26.2540  -13.0010   20.2730 N   0  0  0  0  0  0  0  0  0  0  0  0
  -25.9000  -11.7150   20.5420 N   0  0  0  0  0  0  0  0  0  0  0  0
  -23.8700  -10.5000   21.0510 C   0  0  0  0  0  0  0  0  0  0  0  0
  -24.3090   -9.5290   21.9770 C   0  0  0  0  0  3  0  0  0  0  0  0
  -23.5810   -8.3330   22.1670 C   0  0  0  0  0  3  0  0  0  0  0  0
  -22.3970   -8.0990   21.4230 C   0  0  0  0  0  0  0  0  0  0  0  0
  -21.9730   -9.0620   20.4880 C   0  0  0  0  0  3  0  0  0  0  0  0
  -22.7020  -10.2500   20.2990 C   0  0  0  0  0  3  0  0  0  0  0  0
  -21.6420   -6.9550   21.5160 O   0  0  0  0  0  0  0  0  0  0  0  0
  -21.6140   -6.1990   22.6610 C   0  0  0  0  0  0  0  0  0  0  0  0
  -21.2370   -6.7440   23.9060 C   0  0  0  0  0  3  0  0  0  0  0  0
  -21.1570   -5.9150   25.0440 C   0  0  0  0  0  3  0  0  0  0  0  0
  -21.4460   -4.5420   24.9340 C   0  0  0  0  0  0  0  0  0  0  0  0
  -21.8150   -3.9930   23.6930 C   0  0  0  0  0  3  0  0  0  0  0  0
  -21.8980   -4.8230   22.5580 C   0  0  0  0  0  0  0  0  0  0  0  0
  -22.2310   -4.2870   21.3570 F   0  0  0  0  0  0  0  0  0  0  0  0
  -21.3650   -3.7410   26.0220 F   0  0  0  0  0  0  0  0  0  0  0  0
  -22.7470  -13.5930   21.1580 C   0  0  0  0  0  0  0  0  0  0  0  0
  -22.0150  -12.9050   22.0260 N   0  0  0  0  0  0  0  0  0  0  0  0
  -22.3100  -14.6100   20.6310 O   0  0  0  0  0  0  0  0  0  0  0  0
  -22.3730  -12.0800   22.4830 H   0  0  0  0  0  0  0  0  0  0  0  0
  -21.0730  -13.2080   22.2340 H   0  0  0  0  0  0  0  0  0  0  0  0
  -25.3810  -15.2530   20.3360 N   0  0  0  0  0  0  0  0  0  0  0  0
  -24.6140  -15.9100   20.4250 H   0  0  0  0  0  0  0  0  0  0  0  0
  -26.2370  -15.6850   20.0160 H   0  0  0  0  0  0  0  0  0  0  0  0
  -29.3610  -22.7090   20.5670 C   0  0  0  0  0  2  0  0  0  0  0  0
  -28.2160  -23.7710   20.1250 C   0  0  0  0  0  2  0  0  0  0  0  0
  -28.5690  -25.2280   19.5230 C   0  0  0  0  0  2  0  0  0  0  0  0
  -28.3840  -26.5190   20.2410 O   0  0  0  0  0  0  0  0  0  0  0  0
  -24.6220  -31.8910   23.2350 C   0  0  0  0  0  0  0  0  0  0  0  0
  -27.2330  -27.3240   20.1670 C   0  0  0  0  0  0  0  0  0  0  0  0
  -23.4060  -30.4810   21.6090 C   0  0  0  0  0  3  0  0  0  0  0  0
  -24.8480  -28.9200   20.1770 C   0  0  0  0  0  0  0  0  0  0  0  0
  -25.9450  -30.8010   21.4050 C   0  0  0  0  0  2  0  0  0  0  0  0
  -26.0220  -29.4260   20.7510 C   0  0  0  0  0  0  0  0  0  0  0  0
  -27.2090  -28.6380   20.7340 C   0  0  0  0  0  3  0  0  0  0  0  0
  -26.0280  -26.8540   19.6010 C   0  0  0  0  0  3  0  0  0  0  0  0
  -24.8530  -27.6350   19.6020 C   0  0  0  0  0  3  0  0  0  0  0  0
  -23.6040  -29.7860   20.2370 C   0  0  0  0  0  2  0  0  0  0  0  0
  -24.6790  -31.0790   22.1380 N   0  0  0  0  0  0  0  0  0  0  0  0
  -23.5420  -32.1690   23.7790 O   0  0  0  0  0  0  0  0  0  0  0  0
  -22.7520  -29.4720   22.5810 C   0  0  0  0  0  0  0  0  0  0  0  0
  -21.4270  -29.2860   22.4540 N   0  0  0  0  0  0  0  0  0  0  0  0
  -23.4380  -28.8560   23.4030 O   0  0  0  0  0  0  0  0  0  0  0  0
  -20.9360  -29.8280   21.7550 H   0  0  0  0  0  0  0  0  0  0  0  0
  -18.0620  -28.0640   22.9520 C   0  0  0  0  0  0  0  0  0  0  0  0
  -20.6170  -28.3500   23.2300 C   0  0  0  0  0  3  0  0  0  0  0  0
  -20.7350  -26.9140   22.6660 C   0  0  0  0  0  2  0  0  0  0  0  0
  -19.6400  -26.5720   21.6520 C   0  0  0  0  0  2  0  0  0  0  0  0
  -18.2540  -26.7110   22.2880 C   0  0  0  0  0  2  0  0  0  0  0  0
  -19.1720  -28.8430   23.3780 C   0  0  0  0  0  0  0  0  0  0  0  0
  -18.9380  -30.1100   23.9520 C   0  0  0  0  0  3  0  0  0  0  0  0
  -17.6260  -30.6000   24.1120 C   0  0  0  0  0  3  0  0  0  0  0  0
  -16.5320  -29.8170   23.7050 C   0  0  0  0  0  3  0  0  0  0  0  0
  -16.7490  -28.5530   23.1300 C   0  0  0  0  0  3  0  0  0  0  0  0
  -25.9070  -32.5260   23.8530 C   0  0  0  0  0  3  0  0  0  0  0  0
  -25.5970  -33.9230   24.1860 N   0  0  0  0  0  0  0  0  0  0  0  0
  -25.9190  -34.9810   23.4300 C   0  0  0  0  0  0  0  0  0  0  0  0
  -26.5730  -34.8810   22.3890 O   0  0  0  0  0  0  0  0  0  0  0  0
  -25.0220  -34.0750   25.0020 H   0  0  0  0  0  0  0  0  0  0  0  0
  -24.1740  -36.7640   23.1050 C   0  0  0  0  0  1  0  0  0  0  0  0
  -25.4310  -36.3660   23.8960 C   0  0  0  0  0  3  0  0  0  0  0  0
  -27.5740  -37.2560   24.6930 C   0  0  0  0  0  1  0  0  0  0  0  0
  -26.4550  -37.4240   23.7710 N   0  0  0  0  0  0  0  0  0  0  0  0
  -26.0480  -38.3400   23.9300 H   0  0  0  0  0  0  0  0  0  0  0  0
  -26.4330  -31.7590   25.1290 C   0  0  1  0  0  0  0  0  0  0  0  0
  -25.3470  -31.5210   26.2070 C   0  0  0  0  0  1  0  0  0  0  0  0
  -27.0130  -30.3810   24.7390 C   0  0  0  0  0  1  0  0  0  0  0  0
  -27.5890  -32.5550   25.7820 C   0  0  0  0  0  1  0  0  0  0  0  0
  1  3  2  0
  2 47  1  0
  2  1  1  0
  4  2  1  0
  7  5  1  6
  6  7  1  0
  7  1  1  0
  7  8  1  0
  9 17  1  0
 10 15  1  0
 11 12  1  0
 11 10  1  0
 13 12  1  0
 13 22  1  0
 13 14  1  0
 15  9  1  0
 15 14  1  0
 16  9  2  0
 17 18  1  0
 17  8  1  0
 19 20  2  0
 20 39  1  0
 21 20  1  0
 21 24  1  0
 22 19  1  0
 22 23  1  0
 23 21  2  0
 24 25  1  0
 25 26  2  0
 27 30  1  0
 27 26  1  0
 28 27  2  0
 29 28  1  0
 29 24  2  0
 30 31  1  0
 31 32  1  0
 32 33  2  0
 34 33  1  0
 34 38  1  0
 35 34  2  0
 36 31  2  0
 36 35  1  0
 37 36  1  0
 39 40  1  0
 40 43  1  0
 40 42  1  0
 41 39  2  0
 44 45  1  0
 44 19  1  0
 46 44  1  0
 48 47  1  0
 49 48  1  0
 49 50  1  0
 51 62  2  0
 52 50  1  0
 52 57  1  0
 53 61  1  0
 53 63  1  0
 54 60  1  0
 54 56  1  0
 55 61  1  0
 56 55  1  0
 57 56  2  0
 58 59  1  0
 58 52  2  0
 59 54  2  0
 60 53  1  0
 61 51  1  0
 63 65  2  0
 64 63  1  0
 66 64  1  0
 67 76  2  0
 67 72  1  0
 68 64  1  0
 68 72  1  0
 69 68  1  0
 70 71  1  0
 70 69  1  0
 71 67  1  0
 72 73  2  0
 73 74  1  0
 75 74  2  0
 76 75  1  0
 77 51  1  0
 77 78  1  0
 77 87  1  0
 78 81  1  0
 79 83  1  0
 79 78  1  0
 80 79  2  0
 83 82  1  0
 85 83  1  0
 85 86  1  0
 85 84  1  0
 87 90  1  1
 87 88  1  0
 89 87  1  0
M  ISO  4   9 100  17 100  49 101  50 101
M  END
>  <TORSDO>  (78) 
F 21

>  <SCORE>  (78) 
-13.213

>  <name>  (78) 
78

>  <ligand_id>  (78) 
78

>  <original_smiles>  (78) 
[H]c1c([H])c([H])c2c(c1[H])C([H])([H])C([H])([H])C([H])([H])C2([H])N([H])C(=O)C1([H])N(C(=O)C([H])(N([H])C(=O)C([H])(N([H])C([H])([H])[H])C([H])([H])[H])C(C([H])([H])[H])(C([H])([H])[H])C([H])([H])[H])C([H])([H])c2c([H])c(OC([H])([H])C([H])([H])C([H])([H])N([H])C(=O)C(C([H])([H])[H])(C([H])([H])[H])C([H])([H])N([H])C(=O)N3C([H])([H])C([H])([H])C([H])([H])C([H])(n4nc(-c5c([H])c([H])c(Oc6c([H])c([H])c(F)c([H])c6F)c([H])c5[H])c(C(=O)N([H])[H])c4N([H])[H])C3([H])[H])c([H])c([H])c2C1([H])[H]

>  <smiles>  (78) 
[H]c1c([H])c([H])c2c(c1[H])C([H])([H])C([H])([H])C([H])([H])C2([H])N([H])C(=O)C1([H])N(C(=O)C([H])(N([H])C(=O)C([H])(N([H])C([H])([H])[H])C([H])([H])[H])C(C([H])([H])[H])(C([H])([H])[H])C([H])([H])[H])C([H])([H])c2c([H])c(OC([H])([H])C([H])([H])C([H])([H])N([H])C(=O)C(C([H])([H])[H])(C([H])([H])[H])C([H])([H])N([H])C(=O)N3C([H])([H])C([H])([H])C([H])([H])C([H])(n4nc(-c5c([H])c([H])c(Oc6c([H])c([H])c(F)c([H])c6F)c([H])c5[H])c(C(=O)N([H])[H])c4N([H])[H])C3([H])[H])c([H])c([H])c2C1([H])[H]

$$$$
79:0:0
     RDKit          3D

 90 97  0  0  1  0  0  0  0  0999 V2000
  -28.8700  -21.2510   20.6850 C   0  0  0  0  0  2  0  0  0  0  0  0
  -28.7660  -22.8640   18.5280 C   0  0  0  0  0  1  0  0  0  0  0  0
  -30.4350  -23.3190   20.2930 C   0  0  0  0  0  1  0  0  0  0  0  0
  -28.9670  -22.9240   20.0480 C   0  0  2  0  0  0  0  0  0  0  0  0
  -28.0640  -24.3810   20.5470 C   0  0  0  0  0  2  0  0  0  0  0  0
  -28.2930  -25.9900   20.3730 O   0  0  0  0  0  0  0  0  0  0  0  0
  -24.6100  -31.8990   23.2460 C   0  0  0  0  0  0  0  0  0  0  0  0
  -27.2540  -27.0440   20.3310 C   0  0  0  0  0  0  0  0  0  0  0  0
  -23.4530  -30.4750   21.6040 C   0  0  0  0  0  3  0  0  0  0  0  0
  -24.9370  -28.8750   20.2230 C   0  0  0  0  0  0  0  0  0  0  0  0
  -26.0160  -30.7200   21.4920 C   0  0  0  0  0  2  0  0  0  0  0  0
  -26.1100  -29.3070   20.8550 C   0  0  0  0  0  0  0  0  0  0  0  0
  -27.2680  -28.4130   20.8800 C   0  0  0  0  0  3  0  0  0  0  0  0
  -26.0530  -26.7520   19.6520 C   0  0  0  0  0  3  0  0  0  0  0  0
  -24.9320  -27.6180   19.5990 C   0  0  0  0  0  3  0  0  0  0  0  0
  -23.7100  -29.7810   20.2390 C   0  0  0  0  0  2  0  0  0  0  0  0
  -24.7130  -31.0590   22.1680 N   0  0  0  0  0  0  0  0  0  0  0  0
  -23.5110  -32.1830   23.7500 O   0  0  0  0  0  0  0  0  0  0  0  0
  -22.7580  -29.4790   22.5690 C   0  0  0  0  0  0  0  0  0  0  0  0
  -21.4290  -29.3110   22.4360 N   0  0  0  0  0  0  0  0  0  0  0  0
  -23.4180  -28.8580   23.4040 O   0  0  0  0  0  0  0  0  0  0  0  0
  -20.9480  -29.8630   21.7380 H   0  0  0  0  0  0  0  0  0  0  0  0
  -18.0410  -28.1210   22.9410 C   0  0  0  0  0  0  0  0  0  0  0  0
  -20.6020  -28.3770   23.2050 C   0  0  0  0  0  3  0  0  0  0  0  0
  -20.6980  -26.9450   22.6290 C   0  0  0  0  0  2  0  0  0  0  0  0
  -19.5950  -26.6270   21.6140 C   0  0  0  0  0  2  0  0  0  0  0  0
  -18.2140  -26.7730   22.2590 C   0  0  0  0  0  2  0  0  0  0  0  0
  -19.1620  -28.8810   23.3710 C   0  0  0  0  0  0  0  0  0  0  0  0
  -18.9440  -30.1400   23.9710 C   0  0  0  0  0  3  0  0  0  0  0  0
  -17.6400  -30.6390   24.1450 C   0  0  0  0  0  3  0  0  0  0  0  0
  -16.5340  -29.8780   23.7290 C   0  0  0  0  0  3  0  0  0  0  0  0
  -16.7360  -28.6200   23.1330 C   0  0  0  0  0  3  0  0  0  0  0  0
  -25.8660  -32.5580   23.8930 C   0  0  0  0  0  3  0  0  0  0  0  0
  -25.5390  -33.9650   24.1850 N   0  0  0  0  0  0  0  0  0  0  0  0
  -25.8900  -35.0080   23.4220 C   0  0  0  0  0  0  0  0  0  0  0  0
  -26.5860  -34.8900   22.4100 O   0  0  0  0  0  0  0  0  0  0  0  0
  -24.9210  -34.1300   24.9660 H   0  0  0  0  0  0  0  0  0  0  0  0
  -24.1840  -36.8100   22.9850 C   0  0  0  0  0  1  0  0  0  0  0  0
  -25.3920  -36.4060   23.8460 C   0  0  0  0  0  3  0  0  0  0  0  0
  -27.4940  -37.3020   24.7510 C   0  0  0  0  0  1  0  0  0  0  0  0
  -26.4330  -37.4540   23.7590 N   0  0  0  0  0  0  0  0  0  0  0  0
  -26.0240  -38.3790   23.8720 H   0  0  0  0  0  0  0  0  0  0  0  0
  -26.3420  -31.8260   25.2080 C   0  0  1  0  0  0  0  0  0  0  0  0
  -25.2150  -31.6150   26.2460 C   0  0  0  0  0  1  0  0  0  0  0  0
  -26.9430  -30.4390   24.8840 C   0  0  0  0  0  1  0  0  0  0  0  0
  -27.4650  -32.6460   25.8850 C   0  0  0  0  0  1  0  0  0  0  0  0
  -28.9980  -19.5160   20.1870 C   0  0  0  0  0  3  0  0  0  0  0  0
  -26.8450  -19.7640   18.9030 C   0  0  0  0  0  1  0  0  0  0  0  0
  -28.9610  -19.3290   17.6950 C   0  0  0  0  0  1  0  0  0  0  0  0
  -28.2140  -19.1950   18.9630 N   0  0  1  0  0  4  0  0  0  0  0  0
  -28.0590  -18.2030   19.0450 H   0  0  0  0  0  0  0  0  0  0  0  0
  -30.0940  -18.1480   20.4830 C   0  0  0  0  0  2  0  0  0  0  0  0
  -30.5830  -15.2790   20.2940 C   0  0  0  0  0  0  0  0  0  0  0  0
  -30.5380  -12.8790   19.3460 C   0  0  0  0  0  2  0  0  0  0  0  0
  -29.6040  -12.7330   18.1200 C   0  0  0  0  0  2  0  0  0  0  0  0
  -28.1510  -12.4720   18.5570 C   0  0  0  0  0  2  0  0  0  0  0  0
  -27.7200  -13.3970   19.7220 C   0  0  0  0  0  3  0  0  0  0  0  0
  -28.7780  -13.4900   20.8420 C   0  0  0  0  0  2  0  0  0  0  0  0
  -30.0130  -13.9850   20.2180 N   0  0  0  0  0  0  0  0  0  0  0  0
  -31.7970  -15.3080   20.0460 O   0  0  0  0  0  0  0  0  0  0  0  0
  -29.8070  -16.5160   20.4470 N   0  0  0  0  0  0  0  0  0  0  0  0
  -28.8410  -16.2860   20.6330 H   0  0  0  0  0  0  0  0  0  0  0  0
  -25.3470  -13.9390   20.4850 C   0  0  0  0  0  0  0  0  0  0  0  0
  -24.2940  -13.1530   20.8580 C   0  0  0  0  0  0  0  0  0  0  0  0
  -24.7690  -11.8070   20.8170 C   0  0  0  0  0  0  0  0  0  0  0  0
  -26.3950  -13.0710   20.2330 N   0  0  0  0  0  0  0  0  0  0  0  0
  -26.0600  -11.7830   20.5020 N   0  0  0  0  0  0  0  0  0  0  0  0
  -24.0520  -10.5380   21.0000 C   0  0  0  0  0  0  0  0  0  0  0  0
  -24.4790   -9.5770   21.9440 C   0  0  0  0  0  3  0  0  0  0  0  0
  -23.7580   -8.3750   22.1180 C   0  0  0  0  0  3  0  0  0  0  0  0
  -22.5970   -8.1240   21.3470 C   0  0  0  0  0  0  0  0  0  0  0  0
  -22.1910   -9.0740   20.3940 C   0  0  0  0  0  3  0  0  0  0  0  0
  -22.9110  -10.2680   20.2180 C   0  0  0  0  0  3  0  0  0  0  0  0
  -21.8480   -6.9750   21.4310 O   0  0  0  0  0  0  0  0  0  0  0  0
  -21.7720   -6.2490   22.5920 C   0  0  0  0  0  0  0  0  0  0  0  0
  -21.2680   -6.8070   23.7880 C   0  0  0  0  0  3  0  0  0  0  0  0
  -21.1420   -6.0060   24.9400 C   0  0  0  0  0  3  0  0  0  0  0  0
  -21.5060   -4.6460   24.8970 C   0  0  0  0  0  0  0  0  0  0  0  0
  -22.0040   -4.0880   23.7060 C   0  0  0  0  0  3  0  0  0  0  0  0
  -22.1320   -4.8870   22.5570 C   0  0  0  0  0  0  0  0  0  0  0  0
  -22.5900   -4.3390   21.4050 F   0  0  0  0  0  0  0  0  0  0  0  0
  -21.3780   -3.8740   26.0010 F   0  0  0  0  0  0  0  0  0  0  0  0
  -22.8930  -13.6170   21.1320 C   0  0  0  0  0  0  0  0  0  0  0  0
  -22.1700  -12.9130   21.9950 N   0  0  0  0  0  0  0  0  0  0  0  0
  -22.4500  -14.6430   20.6150 O   0  0  0  0  0  0  0  0  0  0  0  0
  -22.5420  -12.0850   22.4360 H   0  0  0  0  0  0  0  0  0  0  0  0
  -21.2290  -13.2060   22.2190 H   0  0  0  0  0  0  0  0  0  0  0  0
  -25.4960  -15.3110   20.3050 N   0  0  0  0  0  0  0  0  0  0  0  0
  -24.7090  -15.9460   20.3870 H   0  0  0  0  0  0  0  0  0  0  0  0
  -26.3010  -15.7260   19.8610 H   0  0  0  0  0  0  0  0  0  0  0  0
  4  2  1  6
  4  3  1  0
  4  5  1  0
  4  1  1  0
  6  5  1  0
  7 18  2  0
  8  6  1  0
  8 13  1  0
  9 17  1  0
  9 19  1  0
 10 16  1  0
 10 12  1  0
 11 17  1  0
 12 13  2  0
 12 11  1  0
 14  8  2  0
 15 14  1  0
 15 10  2  0
 16  9  1  0
 17  7  1  0
 19 21  2  0
 20 19  1  0
 22 20  1  0
 23 32  2  0
 23 28  1  0
 24 20  1  0
 24 28  1  0
 25 24  1  0
 26 27  1  0
 26 25  1  0
 27 23  1  0
 28 29  2  0
 29 30  1  0
 31 30  2  0
 32 31  1  0
 33  7  1  0
 33 34  1  0
 33 43  1  0
 34 37  1  0
 35 39  1  0
 35 34  1  0
 36 35  2  0
 39 38  1  0
 41 39  1  0
 41 42  1  0
 41 40  1  0
 43 46  1  1
 43 44  1  0
 45 43  1  0
 47 52  1  0
 47  1  1  0
 48 50  1  0
 49 50  1  0
 50 51  1  1
 50 47  1  0
 53 61  1  0
 54 59  1  0
 55 56  1  0
 55 54  1  0
 57 56  1  0
 57 66  1  0
 57 58  1  0
 59 53  1  0
 59 58  1  0
 60 53  2  0
 61 52  1  0
 61 62  1  0
 63 64  2  0
 64 83  1  0
 65 64  1  0
 65 68  1  0
 66 63  1  0
 66 67  1  0
 67 65  2  0
 68 69  1  0
 69 70  2  0
 71 74  1  0
 71 70  1  0
 72 71  2  0
 73 72  1  0
 73 68  2  0
 74 75  1  0
 75 76  1  0
 76 77  2  0
 78 77  1  0
 78 82  1  0
 79 78  2  0
 80 75  2  0
 80 79  1  0
 81 80  1  0
 83 84  1  0
 84 87  1  0
 84 86  1  0
 85 83  2  0
 88 89  1  0
 88 63  1  0
 90 88  1  0
M  ISO  4   5 101   6 101  53 100  61 100
M  END
>  <TORSDO>  (79) 
F 21

>  <SCORE>  (79) 
-15.655

>  <name>  (79) 
79

>  <ligand_id>  (79) 
79

>  <original_smiles>  (79) 
[H]c1c([H])c([H])c2c(c1[H])C([H])([H])C([H])([H])C([H])([H])C2([H])N([H])C(=O)C1([H])N(C(=O)C([H])(N([H])C(=O)C([H])(N([H])C([H])([H])[H])C([H])([H])[H])C(C([H])([H])[H])(C([H])([H])[H])C([H])([H])[H])C([H])([H])c2c([H])c(OC([H])([H])C(C([H])([H])[H])(C([H])([H])[H])C([H])([H])C([H])(C([H])([H])N([H])C(=O)N3C([H])([H])C([H])([H])C([H])([H])C([H])(n4nc(-c5c([H])c([H])c(Oc6c([H])c([H])c(F)c([H])c6F)c([H])c5[H])c(C(=O)N([H])[H])c4N([H])[H])C3([H])[H])[N+]([H])(C([H])([H])[H])C([H])([H])[H])c([H])c([H])c2C1([H])[H]

>  <smiles>  (79) 
[H]c1c([H])c([H])c2c(c1[H])C([H])([H])C([H])([H])C([H])([H])C2([H])N([H])C(=O)C1([H])N(C(=O)C([H])(N([H])C(=O)C([H])(N([H])C([H])([H])[H])C([H])([H])[H])C(C([H])([H])[H])(C([H])([H])[H])C([H])([H])[H])C([H])([H])c2c([H])c(OC([H])([H])C(C([H])([H])[H])(C([H])([H])[H])C([H])([H])C([H])(C([H])([H])N([H])C(=O)N3C([H])([H])C([H])([H])C([H])([H])C([H])(n4nc(-c5c([H])c([H])c(Oc6c([H])c([H])c(F)c([H])c6F)c([H])c5[H])c(C(=O)N([H])[H])c4N([H])[H])C3([H])[H])[N+]([H])(C([H])([H])[H])C([H])([H])[H])c([H])c([H])c2C1([H])[H]

$$$$
80:0:0
     RDKit          3D

 92100  0  0  1  0  0  0  0  0999 V2000
  -30.3910  -15.3540   20.3820 C   0  0  0  0  0  0  0  0  0  0  0  0
  -30.4540  -12.8960   19.4880 C   0  0  0  0  0  2  0  0  0  0  0  0
  -29.5460  -12.5880   18.2750 C   0  0  0  0  0  2  0  0  0  0  0  0
  -28.0990  -12.3040   18.7160 C   0  0  0  0  0  2  0  0  0  0  0  0
  -27.6090  -13.2820   19.8110 C   0  0  0  0  0  3  0  0  0  0  0  0
  -28.6520  -13.5020   20.9250 C   0  0  0  0  0  2  0  0  0  0  0  0
  -29.8450  -14.0430   20.2560 N   0  0  0  0  0  0  0  0  0  0  0  0
  -31.6330  -15.3330   20.3470 O   0  0  0  0  0  0  0  0  0  0  0  0
  -29.3440  -19.5940   20.2470 C   0  0  0  0  0  3  0  0  0  0  0  0
  -27.6080  -19.0270   22.1640 C   0  0  0  0  0  3  0  0  0  0  0  0
  -28.5970  -20.8610   20.7940 C   0  0  0  0  0  0  0  0  0  0  0  0
  -27.6590  -20.3900   21.7620 C   0  0  0  0  0  0  0  0  0  0  0  0
  -29.2170  -18.0960   20.6860 C   0  0  0  0  0  0  0  0  0  0  0  0
  -28.3270  -17.9790   21.6870 N   0  0  0  0  0  0  0  0  0  0  0  0
  -29.6400  -16.6250   20.1110 N   0  0  0  0  0  0  0  0  0  0  0  0
  -28.8460  -16.2930   19.5870 H   0  0  0  0  0  0  0  0  0  0  0  0
  -25.2420  -13.8270   20.5780 C   0  0  0  0  0  0  0  0  0  0  0  0
  -24.1770  -13.0440   20.9240 C   0  0  0  0  0  0  0  0  0  0  0  0
  -24.6450  -11.6940   20.8730 C   0  0  0  0  0  0  0  0  0  0  0  0
  -26.2840  -12.9530   20.3210 N   0  0  0  0  0  0  0  0  0  0  0  0
  -25.9390  -11.6620   20.5690 N   0  0  0  0  0  0  0  0  0  0  0  0
  -23.9110  -10.4300   21.0380 C   0  0  0  0  0  0  0  0  0  0  0  0
  -24.3630   -9.4220   21.9190 C   0  0  0  0  0  3  0  0  0  0  0  0
  -23.6290   -8.2250   22.0770 C   0  0  0  0  0  3  0  0  0  0  0  0
  -22.4290   -8.0290   21.3550 C   0  0  0  0  0  0  0  0  0  0  0  0
  -21.9930   -9.0270   20.4670 C   0  0  0  0  0  3  0  0  0  0  0  0
  -22.7250  -10.2140   20.3070 C   0  0  0  0  0  3  0  0  0  0  0  0
  -21.6640   -6.8890   21.4250 O   0  0  0  0  0  0  0  0  0  0  0  0
  -21.6870   -6.0750   22.5270 C   0  0  0  0  0  0  0  0  0  0  0  0
  -21.4020   -6.5640   23.8220 C   0  0  0  0  0  3  0  0  0  0  0  0
  -21.3650   -5.6780   24.9170 C   0  0  0  0  0  3  0  0  0  0  0  0
  -21.6050   -4.3060   24.7220 C   0  0  0  0  0  0  0  0  0  0  0  0
  -21.8810   -3.8150   23.4350 C   0  0  0  0  0  3  0  0  0  0  0  0
  -21.9200   -4.6970   22.3400 C   0  0  0  0  0  0  0  0  0  0  0  0
  -22.1660   -4.2150   21.0990 F   0  0  0  0  0  0  0  0  0  0  0  0
  -21.5630   -3.4540   25.7740 F   0  0  0  0  0  0  0  0  0  0  0  0
  -22.7800  -13.5200   21.1870 C   0  0  0  0  0  0  0  0  0  0  0  0
  -22.0430  -12.8200   22.0440 N   0  0  0  0  0  0  0  0  0  0  0  0
  -22.3490  -14.5490   20.6720 O   0  0  0  0  0  0  0  0  0  0  0  0
  -22.3980  -11.9850   22.4810 H   0  0  0  0  0  0  0  0  0  0  0  0
  -21.1080  -13.1300   22.2630 H   0  0  0  0  0  0  0  0  0  0  0  0
  -25.4050  -15.1980   20.4290 N   0  0  0  0  0  0  0  0  0  0  0  0
  -24.6470  -15.8520   20.5750 H   0  0  0  0  0  0  0  0  0  0  0  0
  -26.2690  -15.6550   20.1730 H   0  0  0  0  0  0  0  0  0  0  0  0
  -30.3020  -22.9950   20.8770 C   0  0  0  0  0  1  0  0  0  0  0  0
  -28.8190  -22.6360   20.7350 C   0  0  0  0  0  3  0  0  0  0  0  0
  -27.8810  -24.1430   20.2550 C   0  0  0  0  0  2  0  0  0  0  0  0
  -28.1610  -25.7850   20.3440 O   0  0  0  0  0  0  0  0  0  0  0  0
  -24.6680  -31.8270   23.1680 C   0  0  0  0  0  0  0  0  0  0  0  0
  -27.1840  -26.9130   20.2200 C   0  0  0  0  0  0  0  0  0  0  0  0
  -23.4730  -30.4450   21.5150 C   0  0  0  0  0  3  0  0  0  0  0  0
  -24.9220  -28.8320   20.1110 C   0  0  0  0  0  0  0  0  0  0  0  0
  -26.0420  -30.6300   21.4030 C   0  0  0  0  0  2  0  0  0  0  0  0
  -26.1030  -29.2260   20.7520 C   0  0  0  0  0  0  0  0  0  0  0  0
  -27.2290  -28.2870   20.7720 C   0  0  0  0  0  3  0  0  0  0  0  0
  -25.9720  -26.6800   19.5280 C   0  0  0  0  0  3  0  0  0  0  0  0
  -24.8890  -27.5920   19.4630 C   0  0  0  0  0  3  0  0  0  0  0  0
  -23.7040  -29.7490   20.1430 C   0  0  0  0  0  2  0  0  0  0  0  0
  -24.7480  -31.0060   22.0740 N   0  0  0  0  0  0  0  0  0  0  0  0
  -23.5730  -32.1230   23.6770 O   0  0  0  0  0  0  0  0  0  0  0  0
  -22.7740  -29.4500   22.4830 C   0  0  0  0  0  0  0  0  0  0  0  0
  -21.4430  -29.3140   22.3720 N   0  0  0  0  0  0  0  0  0  0  0  0
  -23.4480  -28.7960   23.2880 O   0  0  0  0  0  0  0  0  0  0  0  0
  -20.9570  -29.9240   21.7310 H   0  0  0  0  0  0  0  0  0  0  0  0
  -18.0350  -28.1500   22.8440 C   0  0  0  0  0  0  0  0  0  0  0  0
  -20.6020  -28.3660   23.1160 C   0  0  0  0  0  3  0  0  0  0  0  0
  -20.6860  -26.9340   22.5320 C   0  0  0  0  0  2  0  0  0  0  0  0
  -19.5750  -26.6240   21.5320 C   0  0  0  0  0  2  0  0  0  0  0  0
  -18.1890  -26.8010   22.1660 C   0  0  0  0  0  2  0  0  0  0  0  0
  -19.1640  -28.8900   23.2740 C   0  0  0  0  0  0  0  0  0  0  0  0
  -18.9680  -30.1520   23.8740 C   0  0  0  0  0  3  0  0  0  0  0  0
  -17.6700  -30.6690   24.0530 C   0  0  0  0  0  3  0  0  0  0  0  0
  -16.5580  -29.9270   23.6370 C   0  0  0  0  0  3  0  0  0  0  0  0
  -16.7390  -28.6640   23.0460 C   0  0  0  0  0  3  0  0  0  0  0  0
  -25.9350  -32.4530   23.8190 C   0  0  0  0  0  3  0  0  0  0  0  0
  -26.4630  -31.6490   25.0750 C   0  0  1  0  0  0  0  0  0  0  0  0
  -25.3710  -31.3770   26.1350 C   0  0  0  0  0  1  0  0  0  0  0  0
  -27.0560  -30.2840   24.6550 C   0  0  0  0  0  1  0  0  0  0  0  0
  -27.6100  -32.4340   25.7550 C   0  0  0  0  0  1  0  0  0  0  0  0
  -25.6020  -33.8370   24.2040 N   0  0  0  0  0  0  0  0  0  0  0  0
  -25.9140  -34.9300   23.4960 C   0  0  0  0  0  0  0  0  0  0  0  0
  -26.5760  -34.8830   22.4560 O   0  0  0  0  0  0  0  0  0  0  0  0
  -25.0030  -33.9400   25.0100 H   0  0  0  0  0  0  0  0  0  0  0  0
  -24.1520  -36.7140   23.2660 C   0  0  0  0  0  1  0  0  0  0  0  0
  -25.4150  -36.2880   24.0300 C   0  0  0  0  0  3  0  0  0  0  0  0
  -27.5560  -37.1720   24.8470 C   0  0  0  0  0  1  0  0  0  0  0  0
  -26.4260  -37.3610   23.9420 N   0  0  0  0  0  0  0  0  0  0  0  0
  -26.0100  -38.2660   24.1430 H   0  0  0  0  0  0  0  0  0  0  0  0
  -26.6550  -21.3190   22.4520 C   0  0  0  0  0  2  0  0  0  0  0  0
  -27.1500  -23.1410   24.2050 C   0  0  0  0  0  1  0  0  0  0  0  0
  -26.0280  -21.0030   24.8810 C   0  0  0  0  0  1  0  0  0  0  0  0
  -27.0350  -21.6360   23.9170 C   0  0  0  0  0  3  0  0  0  0  0  0
  2  7  1  0
  3  4  1  0
  3  2  1  0
  5  4  1  0
  5 20  1  0
  5  6  1  0
  7  1  1  0
  7  6  1  0
  8  1  2  0
  9 13  2  0
  9 11  1  0
 11 12  2  0
 12 10  1  0
 12 89  1  0
 13 14  1  0
 14 10  2  0
 15  1  1  0
 15 13  1  0
 16 15  1  0
 17 18  2  0
 18 37  1  0
 19 18  1  0
 19 22  1  0
 20 21  1  0
 20 17  1  0
 21 19  2  0
 22 23  1  0
 23 24  2  0
 25 28  1  0
 25 24  1  0
 26 25  2  0
 27 26  1  0
 27 22  2  0
 28 29  1  0
 29 30  1  0
 30 31  2  0
 32 31  1  0
 32 36  1  0
 33 32  2  0
 34 29  2  0
 34 33  1  0
 35 34  1  0
 37 38  1  0
 38 41  1  0
 38 40  1  0
 39 37  2  0
 42 43  1  0
 42 17  1  0
 44 42  1  0
 46 11  1  0
 46 45  1  0
 47 48  1  0
 47 46  1  0
 49 60  2  0
 50 48  1  0
 50 55  1  0
 51 59  1  0
 51 61  1  0
 52 58  1  0
 52 54  1  0
 53 59  1  0
 54 55  2  0
 54 53  1  0
 56 50  2  0
 57 56  1  0
 57 52  2  0
 58 51  1  0
 59 49  1  0
 61 63  2  0
 62 61  1  0
 64 62  1  0
 65 74  2  0
 65 70  1  0
 66 62  1  0
 66 70  1  0
 67 66  1  0
 68 69  1  0
 68 67  1  0
 69 65  1  0
 70 71  2  0
 71 72  1  0
 73 72  2  0
 74 73  1  0
 75 49  1  0
 75 80  1  0
 75 76  1  0
 76 79  1  1
 76 77  1  0
 78 76  1  0
 80 83  1  0
 81 85  1  0
 81 80  1  0
 82 81  2  0
 85 84  1  0
 87 85  1  0
 87 88  1  0
 87 86  1  0
 89 92  1  0
 92 90  1  0
 92 91  1  0
M  ISO  4   1 100  15 100  47 101  48 101
M  END
>  <TORSDO>  (80) 
F 19

>  <SCORE>  (80) 
27.645

>  <name>  (80) 
80

>  <ligand_id>  (80) 
80

>  <original_smiles>  (80) 
[H]c1nc(N([H])C(=O)N2C([H])([H])C([H])([H])C([H])([H])C([H])(n3nc(-c4c([H])c([H])c(Oc5c([H])c([H])c(F)c([H])c5F)c([H])c4[H])c(C(=O)N([H])[H])c3N([H])[H])C2([H])[H])c([H])c(C([H])(C([H])([H])[H])C([H])([H])Oc2c([H])c([H])c3c(c2[H])C([H])([H])N(C(=O)C([H])(N([H])C(=O)C([H])(N([H])C([H])([H])[H])C([H])([H])[H])C(C([H])([H])[H])(C([H])([H])[H])C([H])([H])[H])C([H])(C(=O)N([H])C2([H])c4c([H])c([H])c([H])c([H])c4C([H])([H])C([H])([H])C2([H])[H])C3([H])[H])c1C([H])([H])C([H])(C([H])([H])[H])C([H])([H])[H]

>  <smiles>  (80) 
[H]c1nc(N([H])C(=O)N2C([H])([H])C([H])([H])C([H])([H])C([H])(n3nc(-c4c([H])c([H])c(Oc5c([H])c([H])c(F)c([H])c5F)c([H])c4[H])c(C(=O)N([H])[H])c3N([H])[H])C2([H])[H])c([H])c(C([H])(C([H])([H])[H])C([H])([H])Oc2c([H])c([H])c3c(c2[H])C([H])([H])N(C(=O)C([H])(N([H])C(=O)C([H])(N([H])C([H])([H])[H])C([H])([H])[H])C(C([H])([H])[H])(C([H])([H])[H])C([H])([H])[H])C([H])(C(=O)N([H])C2([H])c4c([H])c([H])c([H])c([H])c4C([H])([H])C([H])([H])C2([H])[H])C3([H])[H])c1C([H])([H])C([H])(C([H])([H])[H])C([H])([H])[H]

$$$$
81:0:0
     RDKit          3D

 93101  0  0  1  0  0  0  0  0999 V2000
  -30.2840  -19.9840   19.2750 C   0  0  0  0  0  3  0  0  0  0  0  0
  -28.7540  -20.4290   20.7270 C   0  0  0  0  0  3  0  0  0  0  0  0
  -29.5660  -19.3180   20.3160 C   0  0  0  0  0  0  0  0  0  0  0  0
  -29.9600  -21.3340   19.1050 C   0  0  0  0  0  0  0  0  0  0  0  0
  -28.9420  -21.7070   20.0200 N   0  0  0  0  0  0  0  0  0  0  0  0
  -31.7580  -21.5510   17.3410 C   0  0  0  0  0  1  0  0  0  0  0  0
  -29.5440  -22.5320   16.9230 C   0  0  0  0  0  1  0  0  0  0  0  0
  -30.5720  -22.2640   18.0450 C   0  0  1  0  0  0  0  0  0  0  0  0
  -31.8360  -24.5460   17.6620 C   0  0  0  0  0  1  0  0  0  0  0  0
  -31.9550  -23.4400   19.9200 C   0  0  0  0  0  1  0  0  0  0  0  0
  -31.0980  -23.6150   18.6480 C   0  0  0  0  0  3  0  0  0  0  0  0
  -29.9220  -17.7650   20.9060 C   0  0  0  0  0  2  0  0  0  0  0  0
  -30.4390  -15.0550   20.3230 C   0  0  0  0  0  0  0  0  0  0  0  0
  -30.3480  -12.6880   19.3620 C   0  0  0  0  0  2  0  0  0  0  0  0
  -29.4070  -12.5900   18.1390 C   0  0  0  0  0  2  0  0  0  0  0  0
  -27.9500  -12.3600   18.5850 C   0  0  0  0  0  2  0  0  0  0  0  0
  -27.5350  -13.2950   19.7520 C   0  0  0  0  0  3  0  0  0  0  0  0
  -28.5980  -13.3430   20.8680 C   0  0  0  0  0  2  0  0  0  0  0  0
  -29.8450  -13.7900   20.2350 N   0  0  0  0  0  0  0  0  0  0  0  0
  -31.6620  -15.0920   20.1440 O   0  0  0  0  0  0  0  0  0  0  0  0
  -29.6570  -16.2630   20.4090 N   0  0  0  0  0  0  0  0  0  0  0  0
  -28.6710  -16.0620   20.3480 H   0  0  0  0  0  0  0  0  0  0  0  0
  -25.1610  -13.8650   20.5060 C   0  0  0  0  0  0  0  0  0  0  0  0
  -24.1000  -13.0880   20.8790 C   0  0  0  0  0  0  0  0  0  0  0  0
  -24.5700  -11.7390   20.8520 C   0  0  0  0  0  0  0  0  0  0  0  0
  -26.2060  -12.9900   20.2620 N   0  0  0  0  0  0  0  0  0  0  0  0
  -25.8610  -11.7050   20.5400 N   0  0  0  0  0  0  0  0  0  0  0  0
  -23.8470  -10.4750   21.0450 C   0  0  0  0  0  0  0  0  0  0  0  0
  -24.2840   -9.5070   21.9760 C   0  0  0  0  0  3  0  0  0  0  0  0
  -23.5590   -8.3100   22.1580 C   0  0  0  0  0  3  0  0  0  0  0  0
  -22.3810   -8.0720   21.4090 C   0  0  0  0  0  0  0  0  0  0  0  0
  -21.9630   -9.0290   20.4670 C   0  0  0  0  0  3  0  0  0  0  0  0
  -22.6890  -10.2180   20.2840 C   0  0  0  0  0  3  0  0  0  0  0  0
  -21.6270   -6.9280   21.5000 O   0  0  0  0  0  0  0  0  0  0  0  0
  -21.5900   -6.1810   22.6500 C   0  0  0  0  0  0  0  0  0  0  0  0
  -21.1780   -6.7300   23.8830 C   0  0  0  0  0  3  0  0  0  0  0  0
  -21.0890   -5.9090   25.0260 C   0  0  0  0  0  3  0  0  0  0  0  0
  -21.4000   -4.5400   24.9350 C   0  0  0  0  0  0  0  0  0  0  0  0
  -21.8050   -3.9890   23.7070 C   0  0  0  0  0  3  0  0  0  0  0  0
  -21.8960   -4.8060   22.5660 C   0  0  0  0  0  0  0  0  0  0  0  0
  -22.2660   -4.2670   21.3800 F   0  0  0  0  0  0  0  0  0  0  0  0
  -21.3070   -3.7490   26.0300 F   0  0  0  0  0  0  0  0  0  0  0  0
  -22.7020  -13.5630   21.1470 C   0  0  0  0  0  0  0  0  0  0  0  0
  -21.9740  -12.8670   22.0130 N   0  0  0  0  0  0  0  0  0  0  0  0
  -22.2650  -14.5860   20.6220 O   0  0  0  0  0  0  0  0  0  0  0  0
  -22.3430  -12.0400   22.4590 H   0  0  0  0  0  0  0  0  0  0  0  0
  -21.0350  -13.1670   22.2350 H   0  0  0  0  0  0  0  0  0  0  0  0
  -25.3170  -15.2360   20.3220 N   0  0  0  0  0  0  0  0  0  0  0  0
  -24.5420  -15.8820   20.4300 H   0  0  0  0  0  0  0  0  0  0  0  0
  -26.1490  -15.6790   19.9530 H   0  0  0  0  0  0  0  0  0  0  0  0
  -28.0950  -23.0990   20.0490 C   0  0  0  0  0  2  0  0  0  0  0  0
  -28.3920  -24.6450   20.7430 C   0  0  0  0  0  2  0  0  0  0  0  0
  -28.3260  -26.1440   20.2260 O   0  0  0  0  0  0  0  0  0  0  0  0
  -24.6230  -31.8640   23.2450 C   0  0  0  0  0  0  0  0  0  0  0  0
  -27.2300  -27.0940   20.2810 C   0  0  0  0  0  0  0  0  0  0  0  0
  -23.4390  -30.4550   21.6050 C   0  0  0  0  0  3  0  0  0  0  0  0
  -24.8990  -28.8570   20.2120 C   0  0  0  0  0  0  0  0  0  0  0  0
  -25.9950  -30.7150   21.4570 C   0  0  0  0  0  2  0  0  0  0  0  0
  -26.0760  -29.3090   20.8230 C   0  0  0  0  0  0  0  0  0  0  0  0
  -27.2430  -28.4480   20.8270 C   0  0  0  0  0  3  0  0  0  0  0  0
  -26.0230  -26.7420   19.6450 C   0  0  0  0  0  3  0  0  0  0  0  0
  -24.8880  -27.5870   19.6080 C   0  0  0  0  0  3  0  0  0  0  0  0
  -23.6740  -29.7610   20.2350 C   0  0  0  0  0  2  0  0  0  0  0  0
  -24.7060  -31.0350   22.1570 N   0  0  0  0  0  0  0  0  0  0  0  0
  -23.5320  -32.1480   23.7620 O   0  0  0  0  0  0  0  0  0  0  0  0
  -22.7520  -29.4570   22.5700 C   0  0  0  0  0  0  0  0  0  0  0  0
  -21.4250  -29.2810   22.4320 N   0  0  0  0  0  0  0  0  0  0  0  0
  -23.4160  -28.8410   23.4070 O   0  0  0  0  0  0  0  0  0  0  0  0
  -20.9450  -29.8290   21.7320 H   0  0  0  0  0  0  0  0  0  0  0  0
  -18.0470  -28.0570   22.9020 C   0  0  0  0  0  0  0  0  0  0  0  0
  -20.6000  -28.3450   23.2010 C   0  0  0  0  0  3  0  0  0  0  0  0
  -20.7210  -26.9080   22.6440 C   0  0  0  0  0  2  0  0  0  0  0  0
  -19.6360  -26.5640   21.6170 C   0  0  0  0  0  2  0  0  0  0  0  0
  -18.2450  -26.7030   22.2400 C   0  0  0  0  0  2  0  0  0  0  0  0
  -19.1520  -28.8350   23.3380 C   0  0  0  0  0  0  0  0  0  0  0  0
  -18.9120  -30.0990   23.9170 C   0  0  0  0  0  3  0  0  0  0  0  0
  -17.6010  -30.5880   24.0630 C   0  0  0  0  0  3  0  0  0  0  0  0
  -16.5100  -29.8080   23.6420 C   0  0  0  0  0  3  0  0  0  0  0  0
  -16.7330  -28.5450   23.0670 C   0  0  0  0  0  3  0  0  0  0  0  0
  -25.8930  -32.5070   23.8800 C   0  0  0  0  0  3  0  0  0  0  0  0
  -25.5760  -33.9090   24.1990 N   0  0  0  0  0  0  0  0  0  0  0  0
  -25.9130  -34.9610   23.4400 C   0  0  0  0  0  0  0  0  0  0  0  0
  -26.5870  -34.8540   22.4140 O   0  0  0  0  0  0  0  0  0  0  0  0
  -24.9770  -34.0660   24.9950 H   0  0  0  0  0  0  0  0  0  0  0  0
  -24.1840  -36.7560   23.0780 C   0  0  0  0  0  1  0  0  0  0  0  0
  -25.4260  -36.3530   23.8910 C   0  0  0  0  0  3  0  0  0  0  0  0
  -27.5580  -37.2470   24.7190 C   0  0  0  0  0  1  0  0  0  0  0  0
  -26.4570  -37.4060   23.7730 N   0  0  0  0  0  0  0  0  0  0  0  0
  -26.0500  -38.3280   23.9130 H   0  0  0  0  0  0  0  0  0  0  0  0
  -26.3890  -31.7520   25.1740 C   0  0  1  0  0  0  0  0  0  0  0  0
  -25.2810  -31.5320   26.2320 C   0  0  0  0  0  1  0  0  0  0  0  0
  -26.9740  -30.3680   24.8140 C   0  0  0  0  0  1  0  0  0  0  0  0
  -27.5330  -32.5520   25.8420 C   0  0  0  0  0  1  0  0  0  0  0  0
  1  3  1  0
  3  2  2  0
  3 12  1  0
  4  1  2  0
  4  5  1  0
  5 51  1  0
  5  2  1  0
  8  6  1  6
  7  8  1  0
  8 11  1  0
  8  4  1  0
  9 11  1  0
 11 10  1  0
 13 21  1  0
 14 19  1  0
 15 16  1  0
 15 14  1  0
 17 16  1  0
 17 26  1  0
 17 18  1  0
 19 13  1  0
 19 18  1  0
 20 13  2  0
 21 12  1  0
 22 21  1  0
 23 24  2  0
 24 43  1  0
 25 24  1  0
 25 28  1  0
 26 23  1  0
 26 27  1  0
 27 25  2  0
 28 29  1  0
 29 30  2  0
 31 34  1  0
 31 30  1  0
 32 31  2  0
 33 32  1  0
 33 28  2  0
 34 35  1  0
 35 36  1  0
 36 37  2  0
 38 37  1  0
 38 42  1  0
 39 38  2  0
 40 35  2  0
 40 39  1  0
 41 40  1  0
 43 44  1  0
 44 47  1  0
 44 46  1  0
 45 43  2  0
 48 49  1  0
 48 23  1  0
 50 48  1  0
 51 52  1  0
 53 55  1  0
 53 52  1  0
 54 65  2  0
 55 60  1  0
 56 64  1  0
 56 66  1  0
 57 63  1  0
 57 59  1  0
 58 64  1  0
 59 60  2  0
 59 58  1  0
 61 55  2  0
 62 61  1  0
 62 57  2  0
 63 56  1  0
 64 54  1  0
 66 68  2  0
 67 66  1  0
 69 67  1  0
 70 79  2  0
 70 75  1  0
 71 67  1  0
 71 75  1  0
 72 71  1  0
 73 74  1  0
 73 72  1  0
 74 70  1  0
 75 76  2  0
 76 77  1  0
 78 77  2  0
 79 78  1  0
 80 54  1  0
 80 81  1  0
 80 90  1  0
 81 84  1  0
 82 86  1  0
 82 81  1  0
 83 82  2  0
 86 85  1  0
 88 86  1  0
 88 89  1  0
 88 87  1  0
 90 93  1  1
 90 91  1  0
 92 90  1  0
M  ISO  4  13 100  21 100  52 101  53 101
M  END
>  <TORSDO>  (81) 
F 21

>  <SCORE>  (81) 
-14.874

>  <name>  (81) 
81

>  <ligand_id>  (81) 
81

>  <original_smiles>  (81) 
[H]c1c([H])c([H])c2c(c1[H])C([H])([H])C([H])([H])C([H])([H])C2([H])N([H])C(=O)C1([H])N(C(=O)C([H])(N([H])C(=O)C([H])(N([H])C([H])([H])[H])C([H])([H])[H])C(C([H])([H])[H])(C([H])([H])[H])C([H])([H])[H])C([H])([H])c2c([H])c(OC([H])([H])C([H])([H])n3c([H])c(C([H])([H])N([H])C(=O)N4C([H])([H])C([H])([H])C([H])([H])C([H])(n5nc(-c6c([H])c([H])c(Oc7c([H])c([H])c(F)c([H])c7F)c([H])c6[H])c(C(=O)N([H])[H])c5N([H])[H])C4([H])[H])c([H])c3C(C([H])([H])[H])(C([H])([H])[H])C([H])(C([H])([H])[H])C([H])([H])[H])c([H])c([H])c2C1([H])[H]

>  <smiles>  (81) 
[H]c1c([H])c([H])c2c(c1[H])C([H])([H])C([H])([H])C([H])([H])C2([H])N([H])C(=O)C1([H])N(C(=O)C([H])(N([H])C(=O)C([H])(N([H])C([H])([H])[H])C([H])([H])[H])C(C([H])([H])[H])(C([H])([H])[H])C([H])([H])[H])C([H])([H])c2c([H])c(OC([H])([H])C([H])([H])n3c([H])c(C([H])([H])N([H])C(=O)N4C([H])([H])C([H])([H])C([H])([H])C([H])(n5nc(-c6c([H])c([H])c(Oc7c([H])c([H])c(F)c([H])c7F)c([H])c6[H])c(C(=O)N([H])[H])c5N([H])[H])C4([H])[H])c([H])c3C(C([H])([H])[H])(C([H])([H])[H])C([H])(C([H])([H])[H])C([H])([H])[H])c([H])c([H])c2C1([H])[H]

$$$$
82:0:0
     RDKit          3D

 86 94  0  0  1  0  0  0  0  0999 V2000
  -29.4430  -21.4760   18.6480 C   0  0  0  0  0  2  0  0  0  0  0  0
  -29.1760  -19.8290   18.8250 C   0  0  0  0  0  2  0  0  0  0  0  0
  -28.6300  -20.3860   21.0370 C   0  0  0  0  0  2  0  0  0  0  0  0
  -28.4300  -22.8210   18.7710 C   0  0  0  0  0  2  0  0  0  0  0  0
  -28.7150  -22.2450   21.0880 C   0  0  0  0  0  2  0  0  0  0  0  0
  -29.5010  -19.0220   20.2070 C   0  0  0  0  0  3  0  0  0  0  0  0
  -28.0760  -23.6560   20.1390 C   0  0  0  0  0  3  0  0  0  0  0  0
  -30.1920  -15.8100   20.2410 C   0  0  0  0  0  0  0  0  0  0  0  0
  -30.3400  -13.2350   19.4480 C   0  0  0  0  0  2  0  0  0  0  0  0
  -29.4740  -12.7720   18.2380 C   0  0  0  0  0  2  0  0  0  0  0  0
  -28.0550  -12.3920   18.6850 C   0  0  0  0  0  2  0  0  0  0  0  0
  -27.5150  -13.4010   19.7220 C   0  0  0  0  0  3  0  0  0  0  0  0
  -28.5270  -13.7670   20.8370 C   0  0  0  0  0  2  0  0  0  0  0  0
  -29.6850  -14.4240   20.1790 N   0  0  0  0  0  0  0  0  0  0  0  0
  -31.4270  -15.7330   20.0790 O   0  0  0  0  0  0  0  0  0  0  0  0
  -29.4270  -17.1990   20.2990 N   0  0  0  0  0  0  0  0  0  0  0  0
  -28.4540  -16.9500   20.4120 H   0  0  0  0  0  0  0  0  0  0  0  0
  -25.1440  -13.9060   20.4660 C   0  0  0  0  0  0  0  0  0  0  0  0
  -24.0890  -13.1170   20.8260 C   0  0  0  0  0  0  0  0  0  0  0  0
  -24.5750  -11.7730   20.8050 C   0  0  0  0  0  0  0  0  0  0  0  0
  -26.2000  -13.0460   20.2350 N   0  0  0  0  0  0  0  0  0  0  0  0
  -25.8720  -11.7550   20.5060 N   0  0  0  0  0  0  0  0  0  0  0  0
  -23.8570  -10.5030   20.9910 C   0  0  0  0  0  0  0  0  0  0  0  0
  -24.2780   -9.5460   21.9390 C   0  0  0  0  0  3  0  0  0  0  0  0
  -23.5530   -8.3470   22.1150 C   0  0  0  0  0  3  0  0  0  0  0  0
  -22.3950   -8.0960   21.3440 C   0  0  0  0  0  0  0  0  0  0  0  0
  -21.9920   -9.0420   20.3840 C   0  0  0  0  0  3  0  0  0  0  0  0
  -22.7170  -10.2320   20.2060 C   0  0  0  0  0  3  0  0  0  0  0  0
  -21.6450   -6.9470   21.4280 O   0  0  0  0  0  0  0  0  0  0  0  0
  -21.5730   -6.2180   22.5890 C   0  0  0  0  0  0  0  0  0  0  0  0
  -21.0960   -6.7790   23.7930 C   0  0  0  0  0  3  0  0  0  0  0  0
  -20.9730   -5.9750   24.9440 C   0  0  0  0  0  3  0  0  0  0  0  0
  -21.3180   -4.6120   24.8910 C   0  0  0  0  0  0  0  0  0  0  0  0
  -21.7880   -4.0500   23.6910 C   0  0  0  0  0  3  0  0  0  0  0  0
  -21.9120   -4.8510   22.5430 C   0  0  0  0  0  0  0  0  0  0  0  0
  -22.3460   -4.2990   21.3840 F   0  0  0  0  0  0  0  0  0  0  0  0
  -21.1940   -3.8370   25.9940 F   0  0  0  0  0  0  0  0  0  0  0  0
  -22.6840  -13.5820   21.0700 C   0  0  0  0  0  0  0  0  0  0  0  0
  -21.9530  -12.8910   21.9370 N   0  0  0  0  0  0  0  0  0  0  0  0
  -22.2440  -14.5940   20.5280 O   0  0  0  0  0  0  0  0  0  0  0  0
  -22.3240  -12.0730   22.3970 H   0  0  0  0  0  0  0  0  0  0  0  0
  -21.0100  -13.1850   22.1450 H   0  0  0  0  0  0  0  0  0  0  0  0
  -25.2900  -15.2780   20.2810 N   0  0  0  0  0  0  0  0  0  0  0  0
  -24.5090  -15.9200   20.3750 H   0  0  0  0  0  0  0  0  0  0  0  0
  -26.1250  -15.7220   19.9250 H   0  0  0  0  0  0  0  0  0  0  0  0
  -28.1330  -25.4610   20.2580 O   0  0  0  0  0  0  0  0  0  0  0  0
  -24.6350  -31.8490   23.1490 C   0  0  0  0  0  0  0  0  0  0  0  0
  -27.1590  -26.6970   20.1880 C   0  0  0  0  0  0  0  0  0  0  0  0
  -23.4540  -30.4520   21.5090 C   0  0  0  0  0  3  0  0  0  0  0  0
  -24.9030  -28.7820   20.1100 C   0  0  0  0  0  0  0  0  0  0  0  0
  -26.0360  -30.5660   21.4090 C   0  0  0  0  0  2  0  0  0  0  0  0
  -26.0980  -29.1240   20.7540 C   0  0  0  0  0  0  0  0  0  0  0  0
  -27.2060  -28.1130   20.7560 C   0  0  0  0  0  3  0  0  0  0  0  0
  -25.9290  -26.5830   19.4860 C   0  0  0  0  0  3  0  0  0  0  0  0
  -24.8620  -27.5390   19.4520 C   0  0  0  0  0  3  0  0  0  0  0  0
  -23.7020  -29.7460   20.1430 C   0  0  0  0  0  2  0  0  0  0  0  0
  -24.7330  -30.9910   22.0740 N   0  0  0  0  0  0  0  0  0  0  0  0
  -23.5380  -32.1560   23.6500 O   0  0  0  0  0  0  0  0  0  0  0  0
  -22.7220  -29.4850   22.4800 C   0  0  0  0  0  0  0  0  0  0  0  0
  -21.3860  -29.3570   22.3630 N   0  0  0  0  0  0  0  0  0  0  0  0
  -23.3710  -28.8470   23.3120 O   0  0  0  0  0  0  0  0  0  0  0  0
  -20.9120  -29.9210   21.6710 H   0  0  0  0  0  0  0  0  0  0  0  0
  -17.9780  -28.2110   22.9100 C   0  0  0  0  0  0  0  0  0  0  0  0
  -20.5480  -28.4290   23.1350 C   0  0  0  0  0  3  0  0  0  0  0  0
  -20.6100  -27.0010   22.5420 C   0  0  0  0  0  2  0  0  0  0  0  0
  -19.4880  -26.7150   21.5390 C   0  0  0  0  0  2  0  0  0  0  0  0
  -18.1200  -26.8730   22.2060 C   0  0  0  0  0  2  0  0  0  0  0  0
  -19.1170  -28.9490   23.3310 C   0  0  0  0  0  0  0  0  0  0  0  0
  -18.9270  -30.2000   23.9570 C   0  0  0  0  0  3  0  0  0  0  0  0
  -17.6320  -30.7160   24.1600 C   0  0  0  0  0  3  0  0  0  0  0  0
  -16.5090  -29.9770   23.7500 C   0  0  0  0  0  3  0  0  0  0  0  0
  -16.6830  -28.7260   23.1320 C   0  0  0  0  0  3  0  0  0  0  0  0
  -25.8930  -32.5010   23.8000 C   0  0  0  0  0  3  0  0  0  0  0  0
  -25.5690  -33.9020   24.1370 N   0  0  0  0  0  0  0  0  0  0  0  0
  -25.8990  -34.9720   23.4000 C   0  0  0  0  0  0  0  0  0  0  0  0
  -26.5640  -34.8840   22.3650 O   0  0  0  0  0  0  0  0  0  0  0  0
  -24.9750  -34.0420   24.9400 H   0  0  0  0  0  0  0  0  0  0  0  0
  -24.1650  -36.7780   23.1020 C   0  0  0  0  0  1  0  0  0  0  0  0
  -25.4210  -36.3590   23.8840 C   0  0  0  0  0  3  0  0  0  0  0  0
  -27.5670  -37.2450   24.6890 C   0  0  0  0  0  1  0  0  0  0  0  0
  -26.4500  -37.4150   23.7630 N   0  0  0  0  0  0  0  0  0  0  0  0
  -26.0440  -38.3340   23.9230 H   0  0  0  0  0  0  0  0  0  0  0  0
  -26.3800  -31.7420   25.0980 C   0  0  1  0  0  0  0  0  0  0  0  0
  -25.2650  -31.5220   26.1480 C   0  0  0  0  0  1  0  0  0  0  0  0
  -26.9630  -30.3560   24.7460 C   0  0  0  0  0  1  0  0  0  0  0  0
  -27.5220  -32.5380   25.7730 C   0  0  0  0  0  1  0  0  0  0  0  0
  1  4  1  0
  1  2  1  0
  2  6  1  0
  3  5  1  0
  4  7  1  0
  6 16  1  0
  6  3  1  0
  7 46  1  0
  7  5  1  0
  8 16  1  0
  9 14  1  0
 10 11  1  0
 10  9  1  0
 12 11  1  0
 12 21  1  0
 12 13  1  0
 14  8  1  0
 14 13  1  0
 15  8  2  0
 16 17  1  0
 18 19  2  0
 19 38  1  0
 20 19  1  0
 20 23  1  0
 21 18  1  0
 21 22  1  0
 22 20  2  0
 23 24  1  0
 24 25  2  0
 26 29  1  0
 26 25  1  0
 27 26  2  0
 28 27  1  0
 28 23  2  0
 29 30  1  0
 30 31  1  0
 31 32  2  0
 33 32  1  0
 33 37  1  0
 34 33  2  0
 35 30  2  0
 35 34  1  0
 36 35  1  0
 38 39  1  0
 39 42  1  0
 39 41  1  0
 40 38  2  0
 43 44  1  0
 43 18  1  0
 45 43  1  0
 47 58  2  0
 48 46  1  0
 48 53  1  0
 49 57  1  0
 49 59  1  0
 50 56  1  0
 50 52  1  0
 51 57  1  0
 52 53  2  0
 52 51  1  0
 54 48  2  0
 55 54  1  0
 55 50  2  0
 56 49  1  0
 57 47  1  0
 59 61  2  0
 60 59  1  0
 62 60  1  0
 63 72  2  0
 63 68  1  0
 64 60  1  0
 64 68  1  0
 65 64  1  0
 66 67  1  0
 66 65  1  0
 67 63  1  0
 68 69  2  0
 69 70  1  0
 71 70  2  0
 72 71  1  0
 73 47  1  0
 73 74  1  0
 73 83  1  0
 74 77  1  0
 75 79  1  0
 75 74  1  0
 76 75  2  0
 79 78  1  0
 81 79  1  0
 81 82  1  0
 81 80  1  0
 83 86  1  1
 83 84  1  0
 85 83  1  0
M  ISO  4   7 101   8 100  16 100  46 101
M  END
>  <TORSDO>  (82) 
F 16

>  <SCORE>  (82) 
-16.298

>  <name>  (82) 
82

>  <ligand_id>  (82) 
82

>  <original_smiles>  (82) 
[H]c1c([H])c([H])c2c(c1[H])C([H])([H])C([H])([H])C([H])([H])C2([H])N([H])C(=O)C1([H])N(C(=O)C([H])(N([H])C(=O)C([H])(N([H])C([H])([H])[H])C([H])([H])[H])C(C([H])([H])[H])(C([H])([H])[H])C([H])([H])[H])C([H])([H])c2c([H])c(OC3([H])C([H])([H])C([H])([H])C([H])([H])C([H])(N([H])C(=O)N4C([H])([H])C([H])([H])C([H])([H])C([H])(n5nc(-c6c([H])c([H])c(Oc7c([H])c([H])c(F)c([H])c7F)c([H])c6[H])c(C(=O)N([H])[H])c5N([H])[H])C4([H])[H])C([H])([H])C3([H])[H])c([H])c([H])c2C1([H])[H]

>  <smiles>  (82) 
[H]c1c([H])c([H])c2c(c1[H])C([H])([H])C([H])([H])C([H])([H])C2([H])N([H])C(=O)C1([H])N(C(=O)C([H])(N([H])C(=O)C([H])(N([H])C([H])([H])[H])C([H])([H])[H])C(C([H])([H])[H])(C([H])([H])[H])C([H])([H])[H])C([H])([H])c2c([H])c(OC3([H])C([H])([H])C([H])([H])C([H])([H])C([H])(N([H])C(=O)N4C([H])([H])C([H])([H])C([H])([H])C([H])(n5nc(-c6c([H])c([H])c(Oc7c([H])c([H])c(F)c([H])c7F)c([H])c6[H])c(C(=O)N([H])[H])c5N([H])[H])C4([H])[H])C([H])([H])C3([H])[H])c([H])c([H])c2C1([H])[H]

$$$$
83:0:0
     RDKit          3D

 91 99  0  0  1  0  0  0  0  0999 V2000
  -29.4750  -21.4680   20.4650 C   0  0  0  0  0  3  0  0  0  0  0  0
  -28.6240  -22.7230   20.1300 C   0  0  0  0  0  0  0  0  0  0  0  0
  -27.4960  -22.2620   19.3760 C   0  0  0  0  0  0  0  0  0  0  0  0
  -29.2740  -19.9890   20.0530 C   0  0  0  0  0  0  0  0  0  0  0  0
  -27.4090  -20.9050   18.8920 C   0  0  0  0  0  0  0  0  0  0  0  0
  -26.3220  -20.4920   17.9130 C   0  0  0  0  0  1  0  0  0  0  0  0
  -28.2320  -19.8580   19.2080 N   0  0  0  0  0  0  0  0  0  0  0  0
  -25.4610  -22.9800   20.6490 C   0  0  0  0  0  1  0  0  0  0  0  0
  -25.4700  -23.4160   18.0340 C   0  0  0  0  0  1  0  0  0  0  0  0
  -26.2760  -23.2010   19.3480 C   0  0  0  0  0  3  0  0  0  0  0  0
  -28.6580  -24.4100   20.7230 C   0  0  0  0  0  2  0  0  0  0  0  0
  -28.3870  -25.9620   20.1200 O   0  0  0  0  0  0  0  0  0  0  0  0
  -24.6420  -31.9140   23.1750 C   0  0  0  0  0  0  0  0  0  0  0  0
  -27.3130  -27.0210   20.2280 C   0  0  0  0  0  0  0  0  0  0  0  0
  -23.4890  -30.4980   21.5250 C   0  0  0  0  0  3  0  0  0  0  0  0
  -24.9790  -28.9070   20.1350 C   0  0  0  0  0  0  0  0  0  0  0  0
  -26.0570  -30.7280   21.4230 C   0  0  0  0  0  2  0  0  0  0  0  0
  -26.1520  -29.3100   20.7850 C   0  0  0  0  0  0  0  0  0  0  0  0
  -27.3090  -28.3960   20.7990 C   0  0  0  0  0  3  0  0  0  0  0  0
  -26.1130  -26.8050   19.5090 C   0  0  0  0  0  3  0  0  0  0  0  0
  -24.9920  -27.6760   19.4620 C   0  0  0  0  0  3  0  0  0  0  0  0
  -23.7550  -29.8240   20.1510 C   0  0  0  0  0  2  0  0  0  0  0  0
  -24.7480  -31.0780   22.0910 N   0  0  0  0  0  0  0  0  0  0  0  0
  -23.5420  -32.1900   23.6790 O   0  0  0  0  0  0  0  0  0  0  0  0
  -22.7950  -29.4910   22.4870 C   0  0  0  0  0  0  0  0  0  0  0  0
  -21.4600  -29.3330   22.3810 N   0  0  0  0  0  0  0  0  0  0  0  0
  -23.4650  -28.8590   23.3070 O   0  0  0  0  0  0  0  0  0  0  0  0
  -20.9710  -29.9200   21.7200 H   0  0  0  0  0  0  0  0  0  0  0  0
  -18.0730  -28.1300   22.9160 C   0  0  0  0  0  0  0  0  0  0  0  0
  -20.6390  -28.3890   23.1520 C   0  0  0  0  0  3  0  0  0  0  0  0
  -20.7260  -26.9600   22.5640 C   0  0  0  0  0  2  0  0  0  0  0  0
  -19.6110  -26.6510   21.5620 C   0  0  0  0  0  2  0  0  0  0  0  0
  -18.2360  -26.7890   22.2230 C   0  0  0  0  0  2  0  0  0  0  0  0
  -19.1980  -28.8870   23.3390 C   0  0  0  0  0  0  0  0  0  0  0  0
  -18.9850  -30.1380   23.9560 C   0  0  0  0  0  3  0  0  0  0  0  0
  -17.6820  -30.6350   24.1470 C   0  0  0  0  0  3  0  0  0  0  0  0
  -16.5710  -29.8750   23.7390 C   0  0  0  0  0  3  0  0  0  0  0  0
  -16.7680  -28.6230   23.1310 C   0  0  0  0  0  3  0  0  0  0  0  0
  -25.8930  -32.5850   23.8210 C   0  0  0  0  0  3  0  0  0  0  0  0
  -26.3960  -31.8320   25.1160 C   0  0  1  0  0  0  0  0  0  0  0  0
  -25.2860  -31.5920   26.1680 C   0  0  0  0  0  1  0  0  0  0  0  0
  -27.0090  -30.4610   24.7610 C   0  0  0  0  0  1  0  0  0  0  0  0
  -27.5380  -32.6400   25.7780 C   0  0  0  0  0  1  0  0  0  0  0  0
  -25.5490  -33.9820   24.1540 N   0  0  0  0  0  0  0  0  0  0  0  0
  -25.8700  -35.0500   23.4110 C   0  0  0  0  0  0  0  0  0  0  0  0
  -26.5430  -34.9600   22.3820 O   0  0  0  0  0  0  0  0  0  0  0  0
  -24.9500  -34.1240   24.9520 H   0  0  0  0  0  0  0  0  0  0  0  0
  -24.1120  -36.8230   23.0830 C   0  0  0  0  0  1  0  0  0  0  0  0
  -25.3670  -36.4320   23.8790 C   0  0  0  0  0  3  0  0  0  0  0  0
  -27.4980  -37.3460   24.6910 C   0  0  0  0  0  1  0  0  0  0  0  0
  -26.3860  -37.5010   23.7580 N   0  0  0  0  0  0  0  0  0  0  0  0
  -25.9720  -38.4190   23.9070 H   0  0  0  0  0  0  0  0  0  0  0  0
  -30.1470  -18.4700   20.3340 C   0  0  0  0  0  2  0  0  0  0  0  0
  -30.4690  -15.4970   20.1510 C   0  0  0  0  0  0  0  0  0  0  0  0
  -30.3850  -13.0430   19.2400 C   0  0  0  0  0  2  0  0  0  0  0  0
  -29.4440  -12.8250   18.0270 C   0  0  0  0  0  2  0  0  0  0  0  0
  -28.0140  -12.5190   18.5080 C   0  0  0  0  0  2  0  0  0  0  0  0
  -27.5740  -13.4900   19.6320 C   0  0  0  0  0  3  0  0  0  0  0  0
  -28.6530  -13.6710   20.7260 C   0  0  0  0  0  2  0  0  0  0  0  0
  -29.8610  -14.2000   20.0650 N   0  0  0  0  0  0  0  0  0  0  0  0
  -31.6910  -15.4360   19.9490 O   0  0  0  0  0  0  0  0  0  0  0  0
  -29.7730  -16.8210   20.2600 N   0  0  0  0  0  0  0  0  0  0  0  0
  -28.7730  -16.6970   20.3050 H   0  0  0  0  0  0  0  0  0  0  0  0
  -25.2180  -14.0200   20.4520 C   0  0  0  0  0  0  0  0  0  0  0  0
  -24.1700  -13.2370   20.8350 C   0  0  0  0  0  0  0  0  0  0  0  0
  -24.6490  -11.8860   20.7950 C   0  0  0  0  0  0  0  0  0  0  0  0
  -26.2640  -13.1570   20.1810 N   0  0  0  0  0  0  0  0  0  0  0  0
  -25.9360  -11.8670   20.4580 N   0  0  0  0  0  0  0  0  0  0  0  0
  -23.9340  -10.6180   20.9880 C   0  0  0  0  0  0  0  0  0  0  0  0
  -24.3800   -9.6410   21.9070 C   0  0  0  0  0  3  0  0  0  0  0  0
  -23.6520   -8.4440   22.0890 C   0  0  0  0  0  3  0  0  0  0  0  0
  -22.4670   -8.2140   21.3530 C   0  0  0  0  0  0  0  0  0  0  0  0
  -22.0410   -9.1770   20.4190 C   0  0  0  0  0  3  0  0  0  0  0  0
  -22.7700  -10.3640   20.2330 C   0  0  0  0  0  3  0  0  0  0  0  0
  -21.7110   -7.0690   21.4480 O   0  0  0  0  0  0  0  0  0  0  0  0
  -21.6940   -6.3100   22.5940 C   0  0  0  0  0  0  0  0  0  0  0  0
  -21.2960   -6.8490   23.8360 C   0  0  0  0  0  3  0  0  0  0  0  0
  -21.2240   -6.0190   24.9730 C   0  0  0  0  0  3  0  0  0  0  0  0
  -21.5390   -4.6510   24.8670 C   0  0  0  0  0  0  0  0  0  0  0  0
  -21.9330   -4.1130   23.6300 C   0  0  0  0  0  3  0  0  0  0  0  0
  -22.0070   -4.9390   22.4950 C   0  0  0  0  0  0  0  0  0  0  0  0
  -22.3630   -4.4100   21.3010 F   0  0  0  0  0  0  0  0  0  0  0  0
  -21.4640   -3.8520   25.9570 F   0  0  0  0  0  0  0  0  0  0  0  0
  -22.7700  -13.6980   21.1260 C   0  0  0  0  0  0  0  0  0  0  0  0
  -22.0560  -12.9980   21.9960 N   0  0  0  0  0  0  0  0  0  0  0  0
  -22.3230  -14.7250   20.6130 O   0  0  0  0  0  0  0  0  0  0  0  0
  -22.4240  -12.1630   22.4270 H   0  0  0  0  0  0  0  0  0  0  0  0
  -21.1210  -13.3020   22.2390 H   0  0  0  0  0  0  0  0  0  0  0  0
  -25.3690  -15.3960   20.2780 N   0  0  0  0  0  0  0  0  0  0  0  0
  -24.6120  -16.0530   20.4200 H   0  0  0  0  0  0  0  0  0  0  0  0
  -26.2090  -15.8370   19.9280 H   0  0  0  0  0  0  0  0  0  0  0  0
  2  1  1  0
  2 11  1  0
  3  2  2  0
  4 53  1  0
  4  1  2  0
  5  7  2  0
  5  3  1  0
  6  5  1  0
  7  4  1  0
  9 10  1  0
 10  3  1  0
 10  8  1  0
 12 14  1  0
 12 11  1  0
 13 24  2  0
 14 19  1  0
 15 23  1  0
 15 25  1  0
 16 22  1  0
 16 18  1  0
 17 23  1  0
 18 19  2  0
 18 17  1  0
 20 14  2  0
 21 20  1  0
 21 16  2  0
 22 15  1  0
 23 13  1  0
 25 27  2  0
 26 25  1  0
 28 26  1  0
 29 38  2  0
 29 34  1  0
 30 26  1  0
 30 34  1  0
 31 30  1  0
 32 33  1  0
 32 31  1  0
 33 29  1  0
 34 35  2  0
 35 36  1  0
 37 36  2  0
 38 37  1  0
 39 13  1  0
 39 44  1  0
 39 40  1  0
 40 43  1  1
 40 41  1  0
 42 40  1  0
 44 47  1  0
 45 49  1  0
 45 44  1  0
 46 45  2  0
 49 48  1  0
 51 49  1  0
 51 52  1  0
 51 50  1  0
 54 62  1  0
 55 60  1  0
 56 57  1  0
 56 55  1  0
 58 57  1  0
 58 67  1  0
 58 59  1  0
 60 54  1  0
 60 59  1  0
 61 54  2  0
 62 63  1  0
 62 53  1  0
 64 65  2  0
 65 84  1  0
 66 65  1  0
 66 69  1  0
 67 64  1  0
 67 68  1  0
 68 66  2  0
 69 70  1  0
 70 71  2  0
 72 75  1  0
 72 71  1  0
 73 72  2  0
 74 73  1  0
 74 69  2  0
 75 76  1  0
 76 77  1  0
 77 78  2  0
 79 78  1  0
 79 83  1  0
 80 79  2  0
 81 76  2  0
 81 80  1  0
 82 81  1  0
 84 85  1  0
 85 88  1  0
 85 87  1  0
 86 84  2  0
 89 90  1  0
 89 64  1  0
 91 89  1  0
M  ISO  4  11 101  12 101  54 100  62 100
M  END
>  <TORSDO>  (83) 
F 19

>  <SCORE>  (83) 
-16.356

>  <name>  (83) 
83

>  <ligand_id>  (83) 
83

>  <original_smiles>  (83) 
[H]c1c([H])c([H])c2c(c1[H])C([H])([H])C([H])([H])C([H])([H])C2([H])N([H])C(=O)C1([H])N(C(=O)C([H])(N([H])C(=O)C([H])(N([H])C([H])([H])[H])C([H])([H])[H])C(C([H])([H])[H])(C([H])([H])[H])C([H])([H])[H])C([H])([H])c2c([H])c(OC([H])([H])c3c([H])c(C([H])([H])N([H])C(=O)N4C([H])([H])C([H])([H])C([H])([H])C([H])(n5nc(-c6c([H])c([H])c(Oc7c([H])c([H])c(F)c([H])c7F)c([H])c6[H])c(C(=O)N([H])[H])c5N([H])[H])C4([H])[H])nc(C([H])([H])[H])c3C([H])(C([H])([H])[H])C([H])([H])[H])c([H])c([H])c2C1([H])[H]

>  <smiles>  (83) 
[H]c1c([H])c([H])c2c(c1[H])C([H])([H])C([H])([H])C([H])([H])C2([H])N([H])C(=O)C1([H])N(C(=O)C([H])(N([H])C(=O)C([H])(N([H])C([H])([H])[H])C([H])([H])[H])C(C([H])([H])[H])(C([H])([H])[H])C([H])([H])[H])C([H])([H])c2c([H])c(OC([H])([H])c3c([H])c(C([H])([H])N([H])C(=O)N4C([H])([H])C([H])([H])C([H])([H])C([H])(n5nc(-c6c([H])c([H])c(Oc7c([H])c([H])c(F)c([H])c7F)c([H])c6[H])c(C(=O)N([H])[H])c5N([H])[H])C4([H])[H])nc(C([H])([H])[H])c3C([H])(C([H])([H])[H])C([H])([H])[H])c([H])c([H])c2C1([H])[H]

$$$$
84:0:0
     RDKit          3D

 95103  0  0  1  0  0  0  0  0999 V2000
  -29.8640  -19.7930   20.7020 C   0  0  0  0  0  3  0  0  0  0  0  0
  -30.0660  -21.1820   18.7310 C   0  0  0  0  0  3  0  0  0  0  0  0
  -29.6420  -21.0820   20.0740 C   0  0  0  0  0  0  0  0  0  0  0  0
  -30.4400  -18.6500   20.0300 C   0  0  0  0  0  0  0  0  0  0  0  0
  -30.7740  -18.8150   18.6640 C   0  0  0  0  0  0  0  0  0  0  0  0
  -30.6200  -20.0760   18.0320 C   0  0  0  0  0  0  0  0  0  0  0  0
  -31.3800  -17.6620   17.8700 C   0  0  0  0  0  1  0  0  0  0  0  0
  -27.3720  -21.9840   20.5530 C   0  0  0  0  0  1  0  0  0  0  0  0
  -29.1480  -22.2780   22.2850 C   0  0  0  0  0  1  0  0  0  0  0  0
  -28.8680  -22.3020   20.7660 C   0  0  1  0  0  0  0  0  0  0  0  0
  -29.1450  -23.8230   20.2400 C   0  0  0  0  0  3  0  0  0  0  0  0
  -28.2360  -25.0610   20.7680 C   0  0  0  0  0  3  0  0  0  0  0  0
  -28.4570  -26.4860   20.3540 O   0  0  0  0  0  0  0  0  0  0  0  0
  -24.6440  -31.9240   23.2910 C   0  0  0  0  0  0  0  0  0  0  0  0
  -27.3400  -27.3480   20.3120 C   0  0  0  0  0  0  0  0  0  0  0  0
  -23.4750  -30.5030   21.6460 C   0  0  0  0  0  3  0  0  0  0  0  0
  -24.9630  -28.9530   20.2490 C   0  0  0  0  0  0  0  0  0  0  0  0
  -26.0140  -30.8380   21.4960 C   0  0  0  0  0  2  0  0  0  0  0  0
  -26.1180  -29.4530   20.8610 C   0  0  0  0  0  0  0  0  0  0  0  0
  -27.3100  -28.6630   20.8810 C   0  0  0  0  0  3  0  0  0  0  0  0
  -26.1630  -26.9130   19.6620 C   0  0  0  0  0  3  0  0  0  0  0  0
  -24.9900  -27.6900   19.6380 C   0  0  0  0  0  3  0  0  0  0  0  0
  -23.7150  -29.8160   20.2750 C   0  0  0  0  0  2  0  0  0  0  0  0
  -24.7290  -31.1060   22.2010 N   0  0  0  0  0  0  0  0  0  0  0  0
  -23.5500  -32.1980   23.8080 O   0  0  0  0  0  0  0  0  0  0  0  0
  -22.8060  -29.4890   22.6060 C   0  0  0  0  0  0  0  0  0  0  0  0
  -21.4830  -29.3060   22.4680 N   0  0  0  0  0  0  0  0  0  0  0  0
  -23.4790  -28.8700   23.4330 O   0  0  0  0  0  0  0  0  0  0  0  0
  -20.9970  -29.8560   21.7720 H   0  0  0  0  0  0  0  0  0  0  0  0
  -18.1040  -28.1110   22.9630 C   0  0  0  0  0  0  0  0  0  0  0  0
  -20.6610  -28.3690   23.2360 C   0  0  0  0  0  3  0  0  0  0  0  0
  -20.7640  -26.9390   22.6620 C   0  0  0  0  0  2  0  0  0  0  0  0
  -19.6670  -26.6160   21.6450 C   0  0  0  0  0  2  0  0  0  0  0  0
  -18.2820  -26.7620   22.2860 C   0  0  0  0  0  2  0  0  0  0  0  0
  -19.2220  -28.8720   23.3940 C   0  0  0  0  0  0  0  0  0  0  0  0
  -19.0040  -30.1330   23.9900 C   0  0  0  0  0  3  0  0  0  0  0  0
  -17.7000  -30.6350   24.1570 C   0  0  0  0  0  3  0  0  0  0  0  0
  -16.5950  -29.8730   23.7400 C   0  0  0  0  0  3  0  0  0  0  0  0
  -16.7970  -28.6120   23.1500 C   0  0  0  0  0  3  0  0  0  0  0  0
  -25.9130  -32.5750   23.9250 C   0  0  0  0  0  3  0  0  0  0  0  0
  -25.5920  -33.9790   24.2190 N   0  0  0  0  0  0  0  0  0  0  0  0
  -25.9370  -35.0190   23.4470 C   0  0  0  0  0  0  0  0  0  0  0  0
  -26.6300  -34.8980   22.4340 O   0  0  0  0  0  0  0  0  0  0  0  0
  -24.9810  -34.1470   25.0060 H   0  0  0  0  0  0  0  0  0  0  0  0
  -24.2210  -36.8070   23.0180 C   0  0  0  0  0  1  0  0  0  0  0  0
  -25.4390  -36.4160   23.8700 C   0  0  0  0  0  3  0  0  0  0  0  0
  -27.5480  -37.3160   24.7460 C   0  0  0  0  0  1  0  0  0  0  0  0
  -26.4760  -37.4660   23.7690 N   0  0  0  0  0  0  0  0  0  0  0  0
  -26.0640  -38.3890   23.8890 H   0  0  0  0  0  0  0  0  0  0  0  0
  -26.4070  -31.8330   25.2270 C   0  0  1  0  0  0  0  0  0  0  0  0
  -25.2920  -31.6130   26.2750 C   0  0  0  0  0  1  0  0  0  0  0  0
  -27.0040  -30.4500   24.8770 C   0  0  0  0  0  1  0  0  0  0  0  0
  -27.5380  -32.6480   25.8970 C   0  0  0  0  0  1  0  0  0  0  0  0
  -30.8780  -17.3250   20.7850 C   0  0  0  0  0  2  0  0  0  0  0  0
  -30.7430  -14.7910   20.2780 C   0  0  0  0  0  0  0  0  0  0  0  0
  -30.4540  -12.5790   19.1300 C   0  0  0  0  0  2  0  0  0  0  0  0
  -29.4770  -12.6800   17.9380 C   0  0  0  0  0  2  0  0  0  0  0  0
  -28.0150  -12.4860   18.3990 C   0  0  0  0  0  2  0  0  0  0  0  0
  -27.6820  -13.3260   19.6520 C   0  0  0  0  0  3  0  0  0  0  0  0
  -28.7750  -13.1560   20.7310 C   0  0  0  0  0  2  0  0  0  0  0  0
  -30.0460  -13.5980   20.1330 N   0  0  0  0  0  0  0  0  0  0  0  0
  -31.9120  -14.8190   19.8820 O   0  0  0  0  0  0  0  0  0  0  0  0
  -28.8010  -16.1980   21.2230 C   0  0  0  0  0  1  0  0  0  0  0  0
  -30.1360  -16.0040   20.6500 N   0  0  0  0  0  0  0  0  0  0  0  0
  -25.3040  -13.9300   20.4170 C   0  0  0  0  0  0  0  0  0  0  0  0
  -24.2460  -13.1570   20.8100 C   0  0  0  0  0  0  0  0  0  0  0  0
  -24.7130  -11.8070   20.7760 C   0  0  0  0  0  0  0  0  0  0  0  0
  -26.3470  -13.0490   20.1660 N   0  0  0  0  0  0  0  0  0  0  0  0
  -25.9970  -11.7690   20.4450 N   0  0  0  0  0  0  0  0  0  0  0  0
  -23.9930  -10.5460   20.9770 C   0  0  0  0  0  0  0  0  0  0  0  0
  -24.4350   -9.5810   21.9090 C   0  0  0  0  0  3  0  0  0  0  0  0
  -23.7100   -8.3840   22.0960 C   0  0  0  0  0  3  0  0  0  0  0  0
  -22.5310   -8.1440   21.3520 C   0  0  0  0  0  0  0  0  0  0  0  0
  -22.1100   -9.0980   20.4080 C   0  0  0  0  0  3  0  0  0  0  0  0
  -22.8350  -10.2860   20.2200 C   0  0  0  0  0  3  0  0  0  0  0  0
  -21.7770   -6.9990   21.4490 O   0  0  0  0  0  0  0  0  0  0  0  0
  -21.7340   -6.2640   22.6060 C   0  0  0  0  0  0  0  0  0  0  0  0
  -21.3000   -6.8240   23.8280 C   0  0  0  0  0  3  0  0  0  0  0  0
  -21.2090   -6.0140   24.9780 C   0  0  0  0  0  3  0  0  0  0  0  0
  -21.5390   -4.6480   24.9070 C   0  0  0  0  0  0  0  0  0  0  0  0
  -21.9670   -4.0890   23.6900 C   0  0  0  0  0  3  0  0  0  0  0  0
  -22.0600   -4.8960   22.5430 C   0  0  0  0  0  0  0  0  0  0  0  0
  -22.4530   -4.3470   21.3680 F   0  0  0  0  0  0  0  0  0  0  0  0
  -21.4410   -3.8710   26.0100 F   0  0  0  0  0  0  0  0  0  0  0  0
  -22.8530  -13.6330   21.1030 C   0  0  0  0  0  0  0  0  0  0  0  0
  -22.1400  -12.9390   21.9840 N   0  0  0  0  0  0  0  0  0  0  0  0
  -22.4050  -14.6560   20.5870 O   0  0  0  0  0  0  0  0  0  0  0  0
  -22.5100  -12.1110   22.4270 H   0  0  0  0  0  0  0  0  0  0  0  0
  -21.2070  -13.2410   22.2180 H   0  0  0  0  0  0  0  0  0  0  0  0
  -25.4500  -15.3020   20.2310 N   0  0  0  0  0  0  0  0  0  0  0  0
  -24.6790  -15.9460   20.3740 H   0  0  0  0  0  0  0  0  0  0  0  0
  -26.2780  -15.7560   19.8690 H   0  0  0  0  0  0  0  0  0  0  0  0
  -31.0150  -20.1700   16.7190 O   0  0  0  0  0  0  0  0  0  0  0  0
  -32.4510  -21.0800   15.0570 C   0  0  0  0  0  1  0  0  0  0  0  0
  -31.6020  -21.3920   16.2910 C   0  0  0  0  0  2  0  0  0  0  0  0
  2  3  2  0
  3  1  1  0
  3 10  1  0
  4  1  2  0
  4 54  1  0
  5  4  1  0
  6  5  2  0
  6  2  1  0
  7  5  1  0
 10  8  1  1
 10  9  1  0
 11 10  1  0
 11 12  2  0
 13 12  1  0
 14 25  2  0
 15 13  1  0
 15 20  1  0
 16 24  1  0
 16 26  1  0
 17 23  1  0
 17 19  1  0
 18 24  1  0
 19 20  2  0
 19 18  1  0
 21 15  2  0
 22 21  1  0
 22 17  2  0
 23 16  1  0
 24 14  1  0
 26 28  2  0
 27 26  1  0
 29 27  1  0
 30 39  2  0
 30 35  1  0
 31 27  1  0
 31 35  1  0
 32 31  1  0
 33 34  1  0
 33 32  1  0
 34 30  1  0
 35 36  2  0
 36 37  1  0
 38 37  2  0
 39 38  1  0
 40 14  1  0
 40 41  1  0
 40 50  1  0
 41 44  1  0
 42 46  1  0
 42 41  1  0
 43 42  2  0
 46 45  1  0
 48 46  1  0
 48 49  1  0
 48 47  1  0
 50 53  1  1
 50 51  1  0
 52 50  1  0
 55 64  1  0
 56 61  1  0
 57 58  1  0
 57 56  1  0
 59 58  1  0
 59 68  1  0
 59 60  1  0
 61 55  1  0
 61 60  1  0
 62 55  2  0
 64 54  1  0
 64 63  1  0
 65 66  2  0
 66 85  1  0
 67 66  1  0
 67 70  1  0
 68 65  1  0
 68 69  1  0
 69 67  2  0
 70 71  1  0
 71 72  2  0
 73 76  1  0
 73 72  1  0
 74 73  2  0
 75 74  1  0
 75 70  2  0
 76 77  1  0
 77 78  1  0
 78 79  2  0
 80 79  1  0
 80 84  1  0
 81 80  2  0
 82 77  2  0
 82 81  1  0
 83 82  1  0
 85 86  1  0
 86 89  1  0
 86 88  1  0
 87 85  2  0
 90 91  1  0
 90 65  1  0
 92 90  1  0
 93  6  1  0
 94 95  1  0
 95 93  1  0
M  ISO  4  12 101  13 101  55 100  64 100
M  END
>  <TORSDO>  (84) 
F 22

>  <SCORE>  (84) 
-13.107

>  <name>  (84) 
84

>  <ligand_id>  (84) 
84

>  <original_smiles>  (84) 
[H]c1c([H])c([H])c2c(c1[H])C([H])([H])C([H])([H])C([H])([H])C2([H])N([H])C(=O)C1([H])N(C(=O)C([H])(N([H])C(=O)C([H])(N([H])C([H])([H])[H])C([H])([H])[H])C(C([H])([H])[H])(C([H])([H])[H])C([H])([H])[H])C([H])([H])c2c([H])c(OC([H])([H])C([H])([H])C(c3c([H])c(OC([H])([H])C([H])([H])[H])c(C([H])([H])[H])c(C([H])([H])N(C(=O)N4C([H])([H])C([H])([H])C([H])([H])C([H])(n5nc(-c6c([H])c([H])c(Oc7c([H])c([H])c(F)c([H])c7F)c([H])c6[H])c(C(=O)N([H])[H])c5N([H])[H])C4([H])[H])C([H])([H])[H])c3[H])(C([H])([H])[H])C([H])([H])[H])c([H])c([H])c2C1([H])[H]

>  <smiles>  (84) 
[H]c1c([H])c([H])c2c(c1[H])C([H])([H])C([H])([H])C([H])([H])C2([H])N([H])C(=O)C1([H])N(C(=O)C([H])(N([H])C(=O)C([H])(N([H])C([H])([H])[H])C([H])([H])[H])C(C([H])([H])[H])(C([H])([H])[H])C([H])([H])[H])C([H])([H])c2c([H])c(OC([H])([H])C([H])([H])C(c3c([H])c(OC([H])([H])C([H])([H])[H])c(C([H])([H])[H])c(C([H])([H])N(C(=O)N4C([H])([H])C([H])([H])C([H])([H])C([H])(n5nc(-c6c([H])c([H])c(Oc7c([H])c([H])c(F)c([H])c7F)c([H])c6[H])c(C(=O)N([H])[H])c5N([H])[H])C4([H])[H])C([H])([H])[H])c3[H])(C([H])([H])[H])C([H])([H])[H])c([H])c([H])c2C1([H])[H]

$$$$
85:0:0
     RDKit          3D

 95103  0  0  1  0  0  0  0  0999 V2000
  -28.7680  -21.1910   20.8000 C   0  0  0  0  0  2  0  0  0  0  0  0
  -29.0010  -18.5450   20.2440 C   0  0  0  0  0  3  0  0  0  0  0  0
  -29.8840  -17.5000   20.5780 C   0  0  0  0  0  0  0  0  0  0  0  0
  -30.6480  -19.4610   21.3890 C   0  0  0  0  0  3  0  0  0  0  0  0
  -29.4920  -19.7790   20.7400 N   0  0  0  0  0  0  0  0  0  0  0  0
  -30.9070  -18.1370   21.2250 N   0  0  0  0  0  0  0  0  0  0  0  0
  -31.7120  -17.6730   21.6260 H   0  0  0  0  0  0  0  0  0  0  0  0
  -30.5660  -14.9150   20.3810 C   0  0  0  0  0  0  0  0  0  0  0  0
  -30.4580  -12.6090   19.3870 C   0  0  0  0  0  2  0  0  0  0  0  0
  -29.5240  -12.6210   18.1560 C   0  0  0  0  0  2  0  0  0  0  0  0
  -28.0530  -12.4230   18.5760 C   0  0  0  0  0  2  0  0  0  0  0  0
  -27.6480  -13.3220   19.7730 C   0  0  0  0  0  3  0  0  0  0  0  0
  -28.6990  -13.2740   20.9030 C   0  0  0  0  0  2  0  0  0  0  0  0
  -29.9850  -13.6640   20.3110 N   0  0  0  0  0  0  0  0  0  0  0  0
  -31.7720  -15.0420   20.1440 O   0  0  0  0  0  0  0  0  0  0  0  0
  -29.7070  -16.0160   20.4320 N   0  0  0  0  0  0  0  0  0  0  0  0
  -28.7430  -15.7310   20.3810 H   0  0  0  0  0  0  0  0  0  0  0  0
  -25.2510  -13.8940   20.4840 C   0  0  0  0  0  0  0  0  0  0  0  0
  -24.1910  -13.1120   20.8480 C   0  0  0  0  0  0  0  0  0  0  0  0
  -24.6660  -11.7650   20.8260 C   0  0  0  0  0  0  0  0  0  0  0  0
  -26.3040  -13.0230   20.2570 N   0  0  0  0  0  0  0  0  0  0  0  0
  -25.9600  -11.7380   20.5280 N   0  0  0  0  0  0  0  0  0  0  0  0
  -23.9500  -10.4970   21.0130 C   0  0  0  0  0  0  0  0  0  0  0  0
  -24.3730   -9.5430   21.9640 C   0  0  0  0  0  3  0  0  0  0  0  0
  -23.6560   -8.3400   22.1380 C   0  0  0  0  0  3  0  0  0  0  0  0
  -22.5020   -8.0820   21.3600 C   0  0  0  0  0  0  0  0  0  0  0  0
  -22.0980   -9.0250   20.3980 C   0  0  0  0  0  3  0  0  0  0  0  0
  -22.8160  -10.2190   20.2220 C   0  0  0  0  0  3  0  0  0  0  0  0
  -21.7580   -6.9300   21.4430 O   0  0  0  0  0  0  0  0  0  0  0  0
  -21.6800   -6.2060   22.6050 C   0  0  0  0  0  0  0  0  0  0  0  0
  -21.1820   -6.7670   23.8010 C   0  0  0  0  0  3  0  0  0  0  0  0
  -21.0550   -5.9670   24.9540 C   0  0  0  0  0  3  0  0  0  0  0  0
  -21.4150   -4.6070   24.9120 C   0  0  0  0  0  0  0  0  0  0  0  0
  -21.9040   -4.0450   23.7200 C   0  0  0  0  0  3  0  0  0  0  0  0
  -22.0340   -4.8410   22.5690 C   0  0  0  0  0  0  0  0  0  0  0  0
  -22.4870   -4.2900   21.4180 F   0  0  0  0  0  0  0  0  0  0  0  0
  -21.2840   -3.8360   26.0170 F   0  0  0  0  0  0  0  0  0  0  0  0
  -22.7860  -13.5770   21.1020 C   0  0  0  0  0  0  0  0  0  0  0  0
  -22.0510  -12.8730   21.9550 N   0  0  0  0  0  0  0  0  0  0  0  0
  -22.3480  -14.6010   20.5780 O   0  0  0  0  0  0  0  0  0  0  0  0
  -22.4200  -12.0460   22.4010 H   0  0  0  0  0  0  0  0  0  0  0  0
  -21.1090  -13.1660   22.1660 H   0  0  0  0  0  0  0  0  0  0  0  0
  -25.4000  -15.2660   20.2990 N   0  0  0  0  0  0  0  0  0  0  0  0
  -24.6130  -15.8990   20.3880 H   0  0  0  0  0  0  0  0  0  0  0  0
  -26.2150  -15.7080   19.8970 H   0  0  0  0  0  0  0  0  0  0  0  0
  -32.9570  -20.3670   21.8360 C   0  0  0  0  0  1  0  0  0  0  0  0
  -31.3790  -19.8580   23.7520 C   0  0  0  0  0  1  0  0  0  0  0  0
  -31.4890  -20.3200   22.2900 C   0  0  0  0  0  3  0  0  0  0  0  0
  -30.5770  -23.1120   20.5230 C   0  0  0  0  0  1  0  0  0  0  0  0
  -29.4690  -22.1070   18.5640 C   0  0  0  0  0  1  0  0  0  0  0  0
  -29.2300  -22.5720   20.0160 C   0  0  1  0  0  0  0  0  0  0  0  0
  -28.2250  -23.8890   19.8940 C   0  0  0  0  0  2  0  0  0  0  0  0
  -28.2270  -25.0980   20.8230 N   0  0  0  0  0  0  0  0  0  0  0  0
  -27.3610  -25.1190   21.3530 H   0  0  0  0  0  0  0  0  0  0  0  0
  -28.2980  -26.4580   20.0940 O   0  0  0  0  0  0  0  0  0  0  0  0
  -24.5910  -31.9480   23.2400 C   0  0  0  0  0  0  0  0  0  0  0  0
  -27.1800  -27.3210   20.1960 C   0  0  0  0  0  0  0  0  0  0  0  0
  -23.3790  -30.5460   21.6090 C   0  0  0  0  0  3  0  0  0  0  0  0
  -24.8230  -28.9750   20.1870 C   0  0  0  0  0  0  0  0  0  0  0  0
  -25.9220  -30.8450   21.4180 C   0  0  0  0  0  2  0  0  0  0  0  0
  -25.9970  -29.4530   20.7830 C   0  0  0  0  0  0  0  0  0  0  0  0
  -27.1790  -28.6380   20.7780 C   0  0  0  0  0  3  0  0  0  0  0  0
  -25.9820  -26.9090   19.5780 C   0  0  0  0  0  3  0  0  0  0  0  0
  -24.8200  -27.7100   19.5770 C   0  0  0  0  0  3  0  0  0  0  0  0
  -23.5900  -29.8610   20.2320 C   0  0  0  0  0  2  0  0  0  0  0  0
  -24.6500  -31.1330   22.1450 N   0  0  0  0  0  0  0  0  0  0  0  0
  -23.5090  -32.2280   23.7790 O   0  0  0  0  0  0  0  0  0  0  0  0
  -22.7170  -29.5360   22.5780 C   0  0  0  0  0  0  0  0  0  0  0  0
  -21.3910  -29.3560   22.4560 N   0  0  0  0  0  0  0  0  0  0  0  0
  -23.3980  -28.9150   23.3980 O   0  0  0  0  0  0  0  0  0  0  0  0
  -20.8990  -29.9070   21.7670 H   0  0  0  0  0  0  0  0  0  0  0  0
  -18.0180  -28.1490   22.9730 C   0  0  0  0  0  0  0  0  0  0  0  0
  -20.5770  -28.4190   23.2330 C   0  0  0  0  0  3  0  0  0  0  0  0
  -20.6810  -26.9850   22.6610 C   0  0  0  0  0  2  0  0  0  0  0  0
  -19.5770  -26.6560   21.6520 C   0  0  0  0  0  2  0  0  0  0  0  0
  -18.1970  -26.7980   22.3010 C   0  0  0  0  0  2  0  0  0  0  0  0
  -19.1360  -28.9160   23.3970 C   0  0  0  0  0  0  0  0  0  0  0  0
  -18.9140  -30.1790   23.9870 C   0  0  0  0  0  3  0  0  0  0  0  0
  -17.6080  -30.6750   24.1570 C   0  0  0  0  0  3  0  0  0  0  0  0
  -16.5050  -29.9050   23.7490 C   0  0  0  0  0  3  0  0  0  0  0  0
  -16.7110  -28.6440   23.1630 C   0  0  0  0  0  3  0  0  0  0  0  0
  -25.8750  -32.5830   23.8550 C   0  0  0  0  0  3  0  0  0  0  0  0
  -25.5680  -33.9840   24.1790 N   0  0  0  0  0  0  0  0  0  0  0  0
  -25.8990  -35.0350   23.4160 C   0  0  0  0  0  0  0  0  0  0  0  0
  -26.5650  -34.9260   22.3820 O   0  0  0  0  0  0  0  0  0  0  0  0
  -24.9760  -34.1430   24.9820 H   0  0  0  0  0  0  0  0  0  0  0  0
  -24.1850  -36.8400   23.0520 C   0  0  0  0  0  1  0  0  0  0  0  0
  -25.4190  -36.4260   23.8710 C   0  0  0  0  0  3  0  0  0  0  0  0
  -27.5510  -37.3020   24.7180 C   0  0  0  0  0  1  0  0  0  0  0  0
  -26.4580  -37.4740   23.7650 N   0  0  0  0  0  0  0  0  0  0  0  0
  -26.0560  -38.3960   23.9060 H   0  0  0  0  0  0  0  0  0  0  0  0
  -26.3920  -31.8210   25.1370 C   0  0  1  0  0  0  0  0  0  0  0  0
  -25.3010  -31.5940   26.2080 C   0  0  0  0  0  1  0  0  0  0  0  0
  -26.9720  -30.4390   24.7570 C   0  0  0  0  0  1  0  0  0  0  0  0
  -27.5440  -32.6190   25.7920 C   0  0  0  0  0  1  0  0  0  0  0  0
  2  3  2  0
  2  5  1  0
  3  6  1  0
  4 48  1  0
  5  1  1  0
  5  4  1  0
  6  4  1  0
  6  7  1  0
  8 16  1  0
  9 14  1  0
 10 11  1  0
 10  9  1  0
 12 11  1  0
 12 21  1  0
 12 13  1  0
 14  8  1  0
 14 13  1  0
 15  8  2  0
 16  3  1  0
 17 16  1  0
 18 19  2  0
 19 38  1  0
 20 19  1  0
 20 23  1  0
 21 18  1  0
 21 22  1  0
 22 20  2  0
 23 24  1  0
 24 25  2  0
 26 29  1  0
 26 25  1  0
 27 26  2  0
 28 27  1  0
 28 23  2  0
 29 30  1  0
 30 31  1  0
 31 32  2  0
 33 32  1  0
 33 37  1  0
 34 33  2  0
 35 30  2  0
 35 34  1  0
 36 35  1  0
 38 39  1  0
 39 42  1  0
 39 41  1  0
 40 38  2  0
 43 44  1  0
 43 18  1  0
 45 43  1  0
 46 48  1  0
 48 47  1  0
 51 50  1  6
 51 49  1  0
 51  1  1  0
 52 51  1  0
 52 53  1  0
 53 54  1  0
 55 57  1  0
 55 53  1  0
 56 67  2  0
 57 62  1  0
 58 66  1  0
 58 68  1  0
 59 65  1  0
 59 61  1  0
 60 66  1  0
 61 60  1  0
 62 61  2  0
 63 57  2  0
 64 63  1  0
 64 59  2  0
 65 58  1  0
 66 56  1  0
 68 70  2  0
 69 68  1  0
 71 69  1  0
 72 81  2  0
 72 77  1  0
 73 69  1  0
 73 77  1  0
 74 73  1  0
 75 76  1  0
 75 74  1  0
 76 72  1  0
 77 78  2  0
 78 79  1  0
 80 79  2  0
 81 80  1  0
 82 56  1  0
 82 83  1  0
 82 92  1  0
 83 86  1  0
 84 88  1  0
 84 83  1  0
 85 84  2  0
 88 87  1  0
 90 88  1  0
 90 91  1  0
 90 89  1  0
 92 95  1  1
 92 93  1  0
 94 92  1  0
M  ISO  4   8 100  16 100  53 101  55 101
M  END
>  <TORSDO>  (85) 
F 21

>  <SCORE>  (85) 
-13.984

>  <name>  (85) 
85

>  <ligand_id>  (85) 
85

>  <original_smiles>  (85) 
[H]c1c([H])c([H])c2c(c1[H])C([H])([H])C([H])([H])C([H])([H])C2([H])N([H])C(=O)C1([H])N(C(=O)C([H])(N([H])C(=O)C([H])(N([H])C([H])([H])[H])C([H])([H])[H])C(C([H])([H])[H])(C([H])([H])[H])C([H])([H])[H])C([H])([H])c2c([H])c(ON([H])C([H])([H])C(C([H])([H])[H])(C([H])([H])[H])C([H])([H])n3c([H])c(N([H])C(=O)N4C([H])([H])C([H])([H])C([H])([H])C([H])(n5nc(-c6c([H])c([H])c(Oc7c([H])c([H])c(F)c([H])c7F)c([H])c6[H])c(C(=O)N([H])[H])c5N([H])[H])C4([H])[H])[n+]([H])c3C([H])(C([H])([H])[H])C([H])([H])[H])c([H])c([H])c2C1([H])[H]

>  <smiles>  (85) 
[H]c1c([H])c([H])c2c(c1[H])C([H])([H])C([H])([H])C([H])([H])C2([H])N([H])C(=O)C1([H])N(C(=O)C([H])(N([H])C(=O)C([H])(N([H])C([H])([H])[H])C([H])([H])[H])C(C([H])([H])[H])(C([H])([H])[H])C([H])([H])[H])C([H])([H])c2c([H])c(ON([H])C([H])([H])C(C([H])([H])[H])(C([H])([H])[H])C([H])([H])n3c([H])c(N([H])C(=O)N4C([H])([H])C([H])([H])C([H])([H])C([H])(n5nc(-c6c([H])c([H])c(Oc7c([H])c([H])c(F)c([H])c7F)c([H])c6[H])c(C(=O)N([H])[H])c5N([H])[H])C4([H])[H])[n+]([H])c3C([H])(C([H])([H])[H])C([H])([H])[H])c([H])c([H])c2C1([H])[H]

$$$$
86:0:0
     RDKit          3D

 92100  0  0  1  0  0  0  0  0999 V2000
  -29.9580  -23.7300   19.6770 C   0  0  0  0  0  3  0  0  0  0  0  0
  -30.4350  -22.4150   19.4240 C   0  0  0  0  0  0  0  0  0  0  0  0
  -29.6240  -21.2700   19.7010 C   0  0  0  0  0  0  0  0  0  0  0  0
  -28.6660  -23.9290   20.2000 C   0  0  0  0  0  0  0  0  0  0  0  0
  -28.3060  -21.5730   20.1510 C   0  0  0  0  0  0  0  0  0  0  0  0
  -31.8400  -22.2580   18.8620 C   0  0  0  0  0  1  0  0  0  0  0  0
  -27.2650  -20.5010   20.4030 C   0  0  0  0  0  1  0  0  0  0  0  0
  -27.8670  -22.8430   20.3950 N   0  0  0  0  0  0  0  0  0  0  0  0
  -30.2620  -19.8340   19.5040 C   0  0  0  0  0  2  0  0  0  0  0  0
  -29.6400  -18.4310   19.9270 C   0  0  0  0  0  2  0  0  0  0  0  0
  -31.7350  -17.5260   21.1090 C   0  0  0  0  0  1  0  0  0  0  0  0
  -30.7040  -17.2430   19.9940 C   0  0  0  0  0  3  0  0  0  0  0  0
  -30.8790  -14.7030   19.7760 C   0  0  0  0  0  0  0  0  0  0  0  0
  -30.5610  -12.4370   18.8260 C   0  0  0  0  0  2  0  0  0  0  0  0
  -29.5390  -12.5070   17.6730 C   0  0  0  0  0  2  0  0  0  0  0  0
  -28.1030  -12.3600   18.2110 C   0  0  0  0  0  2  0  0  0  0  0  0
  -27.8220  -13.2750   19.4330 C   0  0  0  0  0  3  0  0  0  0  0  0
  -28.9590  -13.2040   20.4770 C   0  0  0  0  0  2  0  0  0  0  0  0
  -30.2190  -13.5060   19.7860 N   0  0  0  0  0  0  0  0  0  0  0  0
  -32.0070  -14.7980   19.2840 O   0  0  0  0  0  0  0  0  0  0  0  0
  -30.1960  -15.8320   20.1460 N   0  0  0  0  0  0  0  0  0  0  0  0
  -29.2620  -15.7010   20.5040 H   0  0  0  0  0  0  0  0  0  0  0  0
  -25.5100  -13.8730   20.3780 C   0  0  0  0  0  0  0  0  0  0  0  0
  -24.4680  -13.0980   20.8120 C   0  0  0  0  0  0  0  0  0  0  0  0
  -24.9080  -11.7440   20.6960 C   0  0  0  0  0  0  0  0  0  0  0  0
  -26.5180  -12.9900   20.0250 N   0  0  0  0  0  0  0  0  0  0  0  0
  -26.1670  -11.7020   20.2770 N   0  0  0  0  0  0  0  0  0  0  0  0
  -24.1820  -10.4830   20.9050 C   0  0  0  0  0  0  0  0  0  0  0  0
  -24.6140   -9.5290   21.8520 C   0  0  0  0  0  3  0  0  0  0  0  0
  -23.8880   -8.3350   22.0490 C   0  0  0  0  0  3  0  0  0  0  0  0
  -22.7160   -8.0850   21.2980 C   0  0  0  0  0  0  0  0  0  0  0  0
  -22.3020   -9.0270   20.3400 C   0  0  0  0  0  3  0  0  0  0  0  0
  -23.0280  -10.2130   20.1420 C   0  0  0  0  0  3  0  0  0  0  0  0
  -21.9610   -6.9410   21.4010 O   0  0  0  0  0  0  0  0  0  0  0  0
  -21.8480   -6.2600   22.5870 C   0  0  0  0  0  0  0  0  0  0  0  0
  -21.2960   -6.8590   23.7400 C   0  0  0  0  0  3  0  0  0  0  0  0
  -21.1340   -6.1010   24.9170 C   0  0  0  0  0  3  0  0  0  0  0  0
  -21.5140   -4.7450   24.9410 C   0  0  0  0  0  0  0  0  0  0  0  0
  -22.0580   -4.1460   23.7930 C   0  0  0  0  0  3  0  0  0  0  0  0
  -22.2210   -4.9020   22.6170 C   0  0  0  0  0  0  0  0  0  0  0  0
  -22.7270   -4.3130   21.5070 F   0  0  0  0  0  0  0  0  0  0  0  0
  -21.3510   -4.0160   26.0700 F   0  0  0  0  0  0  0  0  0  0  0  0
  -23.1070  -13.5810   21.2180 C   0  0  0  0  0  0  0  0  0  0  0  0
  -22.4420  -12.8570   22.1110 N   0  0  0  0  0  0  0  0  0  0  0  0
  -22.6460  -14.6340   20.7810 O   0  0  0  0  0  0  0  0  0  0  0  0
  -22.8300  -12.0030   22.4830 H   0  0  0  0  0  0  0  0  0  0  0  0
  -21.5320  -13.1610   22.4290 H   0  0  0  0  0  0  0  0  0  0  0  0
  -25.6790  -15.2460   20.2310 N   0  0  0  0  0  0  0  0  0  0  0  0
  -24.9350  -15.9070   20.4280 H   0  0  0  0  0  0  0  0  0  0  0  0
  -26.4970  -15.6840   19.8250 H   0  0  0  0  0  0  0  0  0  0  0  0
  -28.1420  -25.3000   20.7590 C   0  0  0  0  0  2  0  0  0  0  0  0
  -28.3720  -26.5710   20.0570 O   0  0  0  0  0  0  0  0  0  0  0  0
  -24.6020  -31.8150   23.2770 C   0  0  0  0  0  0  0  0  0  0  0  0
  -27.2740  -27.4290   20.0620 C   0  0  0  0  0  0  0  0  0  0  0  0
  -23.4270  -30.4840   21.5610 C   0  0  0  0  0  3  0  0  0  0  0  0
  -24.9020  -29.0010   20.0930 C   0  0  0  0  0  0  0  0  0  0  0  0
  -25.9630  -30.8270   21.4240 C   0  0  0  0  0  2  0  0  0  0  0  0
  -26.0590  -29.4780   20.7220 C   0  0  0  0  0  0  0  0  0  0  0  0
  -27.2540  -28.7030   20.7020 C   0  0  0  0  0  3  0  0  0  0  0  0
  -26.1000  -26.9930   19.4160 C   0  0  0  0  0  3  0  0  0  0  0  0
  -24.9210  -27.7620   19.4330 C   0  0  0  0  0  3  0  0  0  0  0  0
  -23.6590  -29.8650   20.1590 C   0  0  0  0  0  2  0  0  0  0  0  0
  -24.6820  -31.0560   22.1460 N   0  0  0  0  0  0  0  0  0  0  0  0
  -23.5110  -32.0660   23.8080 O   0  0  0  0  0  0  0  0  0  0  0  0
  -22.7540  -29.4280   22.4690 C   0  0  0  0  0  0  0  0  0  0  0  0
  -21.4280  -29.2670   22.3270 N   0  0  0  0  0  0  0  0  0  0  0  0
  -23.4240  -28.7550   23.2580 O   0  0  0  0  0  0  0  0  0  0  0  0
  -20.9480  -29.8620   21.6670 H   0  0  0  0  0  0  0  0  0  0  0  0
  -18.0320  -28.1060   22.7800 C   0  0  0  0  0  0  0  0  0  0  0  0
  -20.5960  -28.3010   23.0460 C   0  0  0  0  0  3  0  0  0  0  0  0
  -20.6670  -26.9050   22.3840 C   0  0  0  0  0  2  0  0  0  0  0  0
  -19.5520  -26.6640   21.3620 C   0  0  0  0  0  2  0  0  0  0  0  0
  -18.1770  -26.7960   22.0240 C   0  0  0  0  0  2  0  0  0  0  0  0
  -19.1670  -28.8210   23.2450 C   0  0  0  0  0  0  0  0  0  0  0  0
  -18.9760  -30.0490   23.9140 C   0  0  0  0  0  3  0  0  0  0  0  0
  -17.6830  -30.5640   24.1190 C   0  0  0  0  0  3  0  0  0  0  0  0
  -16.5620  -29.8470   23.6700 C   0  0  0  0  0  3  0  0  0  0  0  0
  -16.7370  -28.6180   23.0070 C   0  0  0  0  0  3  0  0  0  0  0  0
  -25.8740  -32.4220   23.9450 C   0  0  0  0  0  3  0  0  0  0  0  0
  -26.3590  -31.6120   25.2100 C   0  0  1  0  0  0  0  0  0  0  0  0
  -25.2390  -31.3450   26.2430 C   0  0  0  0  0  1  0  0  0  0  0  0
  -26.9490  -30.2470   24.7900 C   0  0  0  0  0  1  0  0  0  0  0  0
  -27.4950  -32.3850   25.9220 C   0  0  0  0  0  1  0  0  0  0  0  0
  -25.5650  -33.8120   24.3080 N   0  0  0  0  0  0  0  0  0  0  0  0
  -25.9060  -34.8830   23.5800 C   0  0  0  0  0  0  0  0  0  0  0  0
  -26.5840  -34.8050   22.5530 O   0  0  0  0  0  0  0  0  0  0  0  0
  -24.9630  -33.9480   25.1070 H   0  0  0  0  0  0  0  0  0  0  0  0
  -24.1830  -36.6880   23.2630 C   0  0  0  0  0  1  0  0  0  0  0  0
  -25.4180  -36.2590   24.0700 C   0  0  0  0  0  3  0  0  0  0  0  0
  -27.5430  -37.1250   24.9450 C   0  0  0  0  0  1  0  0  0  0  0  0
  -26.4520  -37.3140   23.9930 N   0  0  0  0  0  0  0  0  0  0  0  0
  -26.0440  -38.2310   24.1550 H   0  0  0  0  0  0  0  0  0  0  0  0
  1  4  1  0
  2  1  2  0
  2  3  1  0
  3  5  2  0
  4  8  2  0
  4 51  1  0
  5  8  1  0
  5  7  1  0
  6  2  1  0
  9  3  1  0
  9 10  1  0
 10 12  1  0
 12 21  1  0
 12 11  1  0
 13 19  1  0
 13 21  1  0
 14 19  1  0
 15 16  1  0
 15 14  1  0
 17 16  1  0
 17 26  1  0
 17 18  1  0
 19 18  1  0
 20 13  2  0
 21 22  1  0
 23 24  2  0
 24 43  1  0
 25 24  1  0
 25 28  1  0
 26 27  1  0
 26 23  1  0
 27 25  2  0
 28 29  1  0
 29 30  2  0
 31 34  1  0
 31 30  1  0
 32 31  2  0
 33 32  1  0
 33 28  2  0
 34 35  1  0
 35 40  2  0
 35 36  1  0
 36 37  2  0
 37 38  1  0
 38 42  1  0
 39 38  2  0
 40 39  1  0
 41 40  1  0
 43 44  1  0
 44 47  1  0
 44 46  1  0
 45 43  2  0
 48 23  1  0
 48 49  1  0
 50 48  1  0
 52 54  1  0
 52 51  1  0
 53 64  2  0
 54 59  1  0
 55 63  1  0
 55 65  1  0
 56 62  1  0
 56 58  1  0
 57 63  1  0
 58 57  1  0
 59 58  2  0
 60 61  1  0
 60 54  2  0
 61 56  2  0
 62 55  1  0
 63 53  1  0
 65 67  2  0
 66 65  1  0
 68 66  1  0
 69 78  2  0
 69 74  1  0
 70 66  1  0
 70 74  1  0
 71 70  1  0
 72 73  1  0
 72 71  1  0
 73 69  1  0
 74 75  2  0
 75 76  1  0
 77 76  2  0
 78 77  1  0
 79 53  1  0
 79 84  1  0
 79 80  1  0
 80 83  1  1
 80 81  1  0
 82 80  1  0
 84 87  1  0
 85 89  1  0
 85 84  1  0
 86 85  2  0
 89 88  1  0
 91 89  1  0
 91 92  1  0
 91 90  1  0
M  ISO  4  13 100  21 100  51 101  52 101
M  END
>  <TORSDO>  (86) 
F 20

>  <SCORE>  (86) 
-12.901

>  <name>  (86) 
86

>  <ligand_id>  (86) 
86

>  <original_smiles>  (86) 
[H]c1c([H])c([H])c2c(c1[H])C([H])([H])C([H])([H])C([H])([H])C2([H])N([H])C(=O)C1([H])N(C(=O)C([H])(N([H])C(=O)C([H])(N([H])C([H])([H])[H])C([H])([H])[H])C(C([H])([H])[H])(C([H])([H])[H])C([H])([H])[H])C([H])([H])c2c([H])c(OC([H])([H])c3nc(C([H])([H])[H])c(C([H])([H])C([H])([H])C([H])(N([H])C(=O)N4C([H])([H])C([H])([H])C([H])([H])C([H])(n5nc(-c6c([H])c([H])c(Oc7c([H])c([H])c(F)c([H])c7F)c([H])c6[H])c(C(=O)N([H])[H])c5N([H])[H])C4([H])[H])C([H])([H])[H])c(C([H])([H])[H])c3[H])c([H])c([H])c2C1([H])[H]

>  <smiles>  (86) 
[H]c1c([H])c([H])c2c(c1[H])C([H])([H])C([H])([H])C([H])([H])C2([H])N([H])C(=O)C1([H])N(C(=O)C([H])(N([H])C(=O)C([H])(N([H])C([H])([H])[H])C([H])([H])[H])C(C([H])([H])[H])(C([H])([H])[H])C([H])([H])[H])C([H])([H])c2c([H])c(OC([H])([H])c3nc(C([H])([H])[H])c(C([H])([H])C([H])([H])C([H])(N([H])C(=O)N4C([H])([H])C([H])([H])C([H])([H])C([H])(n5nc(-c6c([H])c([H])c(Oc7c([H])c([H])c(F)c([H])c7F)c([H])c6[H])c(C(=O)N([H])[H])c5N([H])[H])C4([H])[H])C([H])([H])[H])c(C([H])([H])[H])c3[H])c([H])c([H])c2C1([H])[H]

$$$$
87:0:0
     RDKit          3D

102110  0  0  1  0  0  0  0  0999 V2000
  -27.3460  -19.3420   18.9080 C   0  0  0  0  0  3  0  0  0  0  0  0
  -28.0620  -19.9660   17.8800 C   0  0  0  0  0  3  0  0  0  0  0  0
  -28.0470  -18.6500   19.9000 C   0  0  0  0  0  3  0  0  0  0  0  0
  -29.4580  -19.7850   17.7510 C   0  0  0  0  0  0  0  0  0  0  0  0
  -29.4470  -18.4690   19.8170 C   0  0  0  0  0  0  0  0  0  0  0  0
  -30.1490  -18.9010   18.6460 C   0  0  0  0  0  0  0  0  0  0  0  0
  -29.3420  -16.9810   21.9230 C   0  0  0  0  0  1  0  0  0  0  0  0
  -30.5900  -19.2090   21.8960 C   0  0  0  0  0  1  0  0  0  0  0  0
  -30.1640  -17.9760   21.0790 C   0  0  0  0  0  3  0  0  0  0  0  0
  -30.1410  -20.5910   16.6440 C   0  0  0  0  0  2  0  0  0  0  0  0
  -32.0620  -22.1950   16.2160 C   0  0  0  0  0  1  0  0  0  0  0  0
  -30.9190  -21.8180   17.1840 C   0  0  0  0  0  3  0  0  0  0  0  0
  -29.9790  -23.0220   17.5000 C   0  0  0  0  0  2  0  0  0  0  0  0
  -30.4150  -23.4700   19.9870 C   0  0  0  0  0  1  0  0  0  0  0  0
  -30.5180  -24.0220   18.5540 C   0  0  0  0  0  3  0  0  0  0  0  0
  -29.9280  -25.4520   18.4540 C   0  0  0  0  0  2  0  0  0  0  0  0
  -28.4460  -25.6770   18.8350 C   0  0  0  0  0  2  0  0  0  0  0  0
  -28.3010  -27.0930   18.9350 O   0  0  0  0  0  0  0  0  0  0  0  0
  -24.4960  -31.5170   22.9810 C   0  0  0  0  0  0  0  0  0  0  0  0
  -27.0610  -27.6510   19.1580 C   0  0  0  0  0  0  0  0  0  0  0  0
  -23.2080  -30.2660   21.2720 C   0  0  0  0  0  3  0  0  0  0  0  0
  -24.5990  -28.9840   19.5560 C   0  0  0  0  0  0  0  0  0  0  0  0
  -25.6840  -30.7850   20.9150 C   0  0  0  0  0  2  0  0  0  0  0  0
  -25.7750  -29.5070   20.1090 C   0  0  0  0  0  0  0  0  0  0  0  0
  -27.0040  -28.8500   19.9050 C   0  0  0  0  0  3  0  0  0  0  0  0
  -25.8680  -27.1240   18.6190 C   0  0  0  0  0  3  0  0  0  0  0  0
  -24.6380  -27.7910   18.8120 C   0  0  0  0  0  3  0  0  0  0  0  0
  -23.3240  -29.7580   19.8080 C   0  0  0  0  0  2  0  0  0  0  0  0
  -24.4850  -30.8660   21.7820 N   0  0  0  0  0  0  0  0  0  0  0  0
  -23.4570  -31.6610   23.6380 O   0  0  0  0  0  0  0  0  0  0  0  0
  -22.6850  -29.1070   22.1490 C   0  0  0  0  0  0  0  0  0  0  0  0
  -21.3730  -28.8430   22.0650 N   0  0  0  0  0  0  0  0  0  0  0  0
  -23.4550  -28.4490   22.8530 O   0  0  0  0  0  0  0  0  0  0  0  0
  -20.8070  -29.4320   21.4730 H   0  0  0  0  0  0  0  0  0  0  0  0
  -18.1410  -27.2890   22.4950 C   0  0  0  0  0  0  0  0  0  0  0  0
  -20.6670  -27.7700   22.7640 C   0  0  0  0  0  3  0  0  0  0  0  0
  -20.8970  -26.4090   22.0680 C   0  0  0  0  0  2  0  0  0  0  0  0
  -19.8140  -26.0650   21.0410 C   0  0  0  0  0  2  0  0  0  0  0  0
  -18.4340  -26.0240   21.7050 C   0  0  0  0  0  2  0  0  0  0  0  0
  -19.1890  -28.1170   22.9770 C   0  0  0  0  0  0  0  0  0  0  0  0
  -18.8610  -29.3010   23.6730 C   0  0  0  0  0  3  0  0  0  0  0  0
  -17.5170  -29.6580   23.8920 C   0  0  0  0  0  3  0  0  0  0  0  0
  -16.4840  -28.8250   23.4280 C   0  0  0  0  0  3  0  0  0  0  0  0
  -16.7960  -27.6430   22.7320 C   0  0  0  0  0  3  0  0  0  0  0  0
  -25.8060  -32.1250   23.5730 C   0  0  0  0  0  3  0  0  0  0  0  0
  -26.4210  -31.2640   24.7440 C   0  0  1  0  0  0  0  0  0  0  0  0
  -25.4110  -30.9250   25.8630 C   0  0  0  0  0  1  0  0  0  0  0  0
  -26.9880  -29.9330   24.2000 C   0  0  0  0  0  1  0  0  0  0  0  0
  -27.6100  -32.0220   25.3840 C   0  0  0  0  0  1  0  0  0  0  0  0
  -25.4930  -33.4840   24.0360 N   0  0  0  0  0  0  0  0  0  0  0  0
  -25.7730  -34.6020   23.3540 C   0  0  0  0  0  0  0  0  0  0  0  0
  -26.3930  -34.5990   22.2870 O   0  0  0  0  0  0  0  0  0  0  0  0
  -24.9430  -33.5600   24.8780 H   0  0  0  0  0  0  0  0  0  0  0  0
  -23.9970  -36.3760   23.2370 C   0  0  0  0  0  1  0  0  0  0  0  0
  -25.2870  -35.9380   23.9480 C   0  0  0  0  0  3  0  0  0  0  0  0
  -27.4470  -36.7980   24.7400 C   0  0  0  0  0  1  0  0  0  0  0  0
  -26.2930  -37.0190   23.8700 N   0  0  0  0  0  0  0  0  0  0  0  0
  -25.8810  -37.9160   24.1130 H   0  0  0  0  0  0  0  0  0  0  0  0
  -31.5830  -18.3970   18.3220 C   0  0  0  0  0  3  0  0  0  0  0  0
  -32.5200  -19.5350   18.3200 N   0  0  0  0  0  4  0  0  0  0  0  0
  -32.7430  -19.8570   19.2450 H   0  0  0  0  0  0  0  0  0  0  0  0
  -32.1010  -20.3030   17.8250 H   0  0  0  0  0  0  0  0  0  0  0  0
  -33.3720  -19.2950   17.8440 H   0  0  0  0  0  0  0  0  0  0  0  0
  -32.0930  -17.1610   19.1740 C   0  0  0  0  0  2  0  0  0  0  0  0
  -32.7870  -14.7700   19.0210 C   0  0  0  0  0  0  0  0  0  0  0  0
  -32.5740  -12.3260   19.3230 C   0  0  0  0  0  2  0  0  0  0  0  0
  -31.6330  -11.7800   18.2280 C   0  0  0  0  0  2  0  0  0  0  0  0
  -30.1650  -11.8780   18.6850 C   0  0  0  0  0  2  0  0  0  0  0  0
  -29.7990  -13.2700   19.2610 C   0  0  0  0  0  3  0  0  0  0  0  0
  -30.8590  -13.7520   20.2780 C   0  0  0  0  0  2  0  0  0  0  0  0
  -32.1640  -13.7090   19.6050 N   0  0  0  0  0  0  0  0  0  0  0  0
  -33.9540  -14.7230   18.6210 O   0  0  0  0  0  0  0  0  0  0  0  0
  -31.3750  -15.6390   17.2820 C   0  0  0  0  0  1  0  0  0  0  0  0
  -31.9650  -15.7790   18.6200 N   0  0  0  0  0  0  0  0  0  0  0  0
  -27.6440  -14.3870   20.0930 C   0  0  0  0  0  0  0  0  0  0  0  0
  -26.4500  -13.8690   20.5030 C   0  0  0  0  0  0  0  0  0  0  0  0
  -26.5980  -12.4460   20.4410 C   0  0  0  0  0  0  0  0  0  0  0  0
  -28.4530  -13.2990   19.8100 N   0  0  0  0  0  0  0  0  0  0  0  0
  -27.8280  -12.1260   20.0720 N   0  0  0  0  0  0  0  0  0  0  0  0
  -25.6250  -11.3710   20.6530 C   0  0  0  0  0  0  0  0  0  0  0  0
  -25.8090  -10.3810   21.6460 C   0  0  0  0  0  3  0  0  0  0  0  0
  -24.8460   -9.3660   21.8290 C   0  0  0  0  0  3  0  0  0  0  0  0
  -23.6840   -9.3400   21.0260 C   0  0  0  0  0  0  0  0  0  0  0  0
  -23.5150  -10.3130   20.0240 C   0  0  0  0  0  3  0  0  0  0  0  0
  -24.4780  -11.3170   19.8350 C   0  0  0  0  0  3  0  0  0  0  0  0
  -22.7050   -8.3840   21.1250 O   0  0  0  0  0  0  0  0  0  0  0  0
  -22.3760   -7.8140   22.3300 C   0  0  0  0  0  0  0  0  0  0  0  0
  -21.9000   -8.5810   23.4140 C   0  0  0  0  0  3  0  0  0  0  0  0
  -21.5120   -7.9440   24.6110 C   0  0  0  0  0  3  0  0  0  0  0  0
  -21.5950   -6.5420   24.7200 C   0  0  0  0  0  0  0  0  0  0  0  0
  -22.0700   -5.7780   23.6410 C   0  0  0  0  0  3  0  0  0  0  0  0
  -22.4560   -6.4110   22.4470 C   0  0  0  0  0  0  0  0  0  0  0  0
  -22.8950   -5.6670   21.4020 F   0  0  0  0  0  0  0  0  0  0  0  0
  -21.2180   -5.9280   25.8660 F   0  0  0  0  0  0  0  0  0  0  0  0
  -25.2120  -14.6420   20.8530 C   0  0  0  0  0  0  0  0  0  0  0  0
  -24.4150  -14.1280   21.7820 N   0  0  0  0  0  0  0  0  0  0  0  0
  -24.9690  -15.7360   20.3410 O   0  0  0  0  0  0  0  0  0  0  0  0
  -24.6120  -13.2270   22.1910 H   0  0  0  0  0  0  0  0  0  0  0  0
  -23.6060  -14.6430   22.0980 H   0  0  0  0  0  0  0  0  0  0  0  0
  -28.1040  -15.6900   19.9210 N   0  0  0  0  0  0  0  0  0  0  0  0
  -27.5260  -16.4950   20.1330 H   0  0  0  0  0  0  0  0  0  0  0  0
  -29.0530  -15.9350   19.6660 H   0  0  0  0  0  0  0  0  0  0  0  0
  1  3  1  0
  2  1  2  0
  4  2  1  0
  4  6  2  0
  5  3  2  0
  5  9  1  0
  6  5  1  0
  9  8  1  0
  9  7  1  0
 10 12  1  0
 10  4  1  0
 12 11  1  0
 12 13  1  0
 13 15  1  0
 15 14  1  0
 16 15  1  0
 16 17  1  0
 17 18  1  0
 18 20  1  0
 19 30  2  0
 20 25  1  0
 21 29  1  0
 21 31  1  0
 22 28  1  0
 22 24  1  0
 23 29  1  0
 24 23  1  0
 25 24  2  0
 26 27  1  0
 26 20  2  0
 27 22  2  0
 28 21  1  0
 29 19  1  0
 31 33  2  0
 32 31  1  0
 34 32  1  0
 35 44  2  0
 35 40  1  0
 36 32  1  0
 36 40  1  0
 37 36  1  0
 38 39  1  0
 38 37  1  0
 39 35  1  0
 40 41  2  0
 41 42  1  0
 43 42  2  0
 44 43  1  0
 45 19  1  0
 45 50  1  0
 45 46  1  0
 46 49  1  1
 46 47  1  0
 48 46  1  0
 50 53  1  0
 51 55  1  0
 51 50  1  0
 52 51  2  0
 55 54  1  0
 57 55  1  0
 57 58  1  0
 57 56  1  0
 59  6  1  0
 59 64  1  0
 60 59  1  0
 60 61  1  0
 62 60  1  0
 63 60  1  0
 65 71  1  0
 66 71  1  0
 67 68  1  0
 67 66  1  0
 69 68  1  0
 69 78  1  0
 69 70  1  0
 71 70  1  0
 72 65  2  0
 73 74  1  0
 74 65  1  0
 74 64  1  0
 75 76  2  0
 76 95  1  0
 77 76  1  0
 77 80  1  0
 78 79  1  0
 78 75  1  0
 79 77  2  0
 80 81  1  0
 81 82  2  0
 83 86  1  0
 83 82  1  0
 84 83  2  0
 85 84  1  0
 85 80  2  0
 86 87  1  0
 87 92  2  0
 87 88  1  0
 88 89  2  0
 89 90  1  0
 90 94  1  0
 91 90  2  0
 92 91  1  0
 93 92  1  0
 95 96  1  0
 96 99  1  0
 96 98  1  0
 97 95  2  0
100 75  1  0
100101  1  0
102100  1  0
M  ISO  4  17 101  18 101  65 100  74 100
M  END
>  <TORSDO>  (87) 
F 26

>  <SCORE>  (87) 
-8.032

>  <name>  (87) 
87

>  <ligand_id>  (87) 
87

>  <original_smiles>  (87) 
[H]c1c([H])c([H])c2c(c1[H])C([H])([H])C([H])([H])C([H])([H])C2([H])N([H])C(=O)C1([H])N(C(=O)C([H])(N([H])C(=O)C([H])(N([H])C([H])([H])[H])C([H])([H])[H])C(C([H])([H])[H])(C([H])([H])[H])C([H])([H])[H])C([H])([H])c2c([H])c(OC([H])([H])C([H])([H])C([H])(C([H])([H])[H])C([H])([H])C([H])(C([H])([H])[H])C([H])([H])c3c([H])c([H])c([H])c(C([H])(C([H])([H])[H])C([H])([H])[H])c3C([H])(C([H])([H])N(C(=O)N3C([H])([H])C([H])([H])C([H])([H])C([H])(n4nc(-c5c([H])c([H])c(Oc6c([H])c([H])c(F)c([H])c6F)c([H])c5[H])c(C(=O)N([H])[H])c4N([H])[H])C3([H])[H])C([H])([H])[H])[N+]([H])([H])[H])c([H])c([H])c2C1([H])[H]

>  <smiles>  (87) 
[H]c1c([H])c([H])c2c(c1[H])C([H])([H])C([H])([H])C([H])([H])C2([H])N([H])C(=O)C1([H])N(C(=O)C([H])(N([H])C(=O)C([H])(N([H])C([H])([H])[H])C([H])([H])[H])C(C([H])([H])[H])(C([H])([H])[H])C([H])([H])[H])C([H])([H])c2c([H])c(OC([H])([H])C([H])([H])C([H])(C([H])([H])[H])C([H])([H])C([H])(C([H])([H])[H])C([H])([H])c3c([H])c([H])c([H])c(C([H])(C([H])([H])[H])C([H])([H])[H])c3C([H])(C([H])([H])N(C(=O)N3C([H])([H])C([H])([H])C([H])([H])C([H])(n4nc(-c5c([H])c([H])c(Oc6c([H])c([H])c(F)c([H])c6F)c([H])c5[H])c(C(=O)N([H])[H])c4N([H])[H])C3([H])[H])C([H])([H])[H])[N+]([H])([H])[H])c([H])c([H])c2C1([H])[H]

$$$$
88:0:0
     RDKit          3D

 91 99  0  0  1  0  0  0  0  0999 V2000
  -30.1520  -19.1360   18.9070 C   0  0  0  0  0  3  0  0  0  0  0  0
  -27.8630  -20.5830   19.5610 C   0  0  0  0  0  3  0  0  0  0  0  0
  -28.9090  -20.5430   20.4900 C   0  0  0  0  0  0  0  0  0  0  0  0
  -29.7820  -19.1460   20.2730 C   0  0  0  0  0  0  0  0  0  0  0  0
  -29.2610  -19.6730   17.9490 C   0  0  0  0  0  0  0  0  0  0  0  0
  -28.0970  -20.2730   18.2780 N   0  0  0  0  0  0  0  0  0  0  0  0
  -30.5450  -16.0900   20.4690 C   0  0  0  0  0  0  0  0  0  0  0  0
  -30.6930  -13.5410   19.6400 C   0  0  0  0  0  2  0  0  0  0  0  0
  -29.8470  -13.1580   18.3880 C   0  0  0  0  0  2  0  0  0  0  0  0
  -28.4240  -12.7620   18.7990 C   0  0  0  0  0  2  0  0  0  0  0  0
  -27.8690  -13.7380   19.8600 C   0  0  0  0  0  3  0  0  0  0  0  0
  -28.8570  -14.0610   21.0100 C   0  0  0  0  0  2  0  0  0  0  0  0
  -30.0450  -14.7080   20.4060 N   0  0  0  0  0  0  0  0  0  0  0  0
  -31.7730  -16.0330   20.2580 O   0  0  0  0  0  0  0  0  0  0  0  0
  -29.7740  -17.4530   20.6560 N   0  0  0  0  0  0  0  0  0  0  0  0
  -28.8770  -17.2080   21.0440 H   0  0  0  0  0  0  0  0  0  0  0  0
  -25.4880  -14.2160   20.5890 C   0  0  0  0  0  0  0  0  0  0  0  0
  -24.4340  -13.4150   20.9160 C   0  0  0  0  0  0  0  0  0  0  0  0
  -24.9200  -12.0730   20.8510 C   0  0  0  0  0  0  0  0  0  0  0  0
  -26.5470  -13.3650   20.3420 N   0  0  0  0  0  0  0  0  0  0  0  0
  -26.2200  -12.0650   20.5700 N   0  0  0  0  0  0  0  0  0  0  0  0
  -24.2020  -10.7970   20.9830 C   0  0  0  0  0  0  0  0  0  0  0  0
  -24.5700   -9.8390   21.9540 C   0  0  0  0  0  3  0  0  0  0  0  0
  -23.8510   -8.6300   22.0750 C   0  0  0  0  0  3  0  0  0  0  0  0
  -22.7510   -8.3690   21.2240 C   0  0  0  0  0  0  0  0  0  0  0  0
  -22.4010   -9.3170   20.2470 C   0  0  0  0  0  3  0  0  0  0  0  0
  -23.1200  -10.5180   20.1250 C   0  0  0  0  0  3  0  0  0  0  0  0
  -22.0070   -7.2130   21.2550 O   0  0  0  0  0  0  0  0  0  0  0  0
  -21.7860   -6.5300   22.4230 C   0  0  0  0  0  0  0  0  0  0  0  0
  -21.1360   -7.1260   23.5250 C   0  0  0  0  0  3  0  0  0  0  0  0
  -20.8680   -6.3650   24.6800 C   0  0  0  0  0  3  0  0  0  0  0  0
  -21.2390   -5.0090   24.7340 C   0  0  0  0  0  0  0  0  0  0  0  0
  -21.8800   -4.4110   23.6350 C   0  0  0  0  0  3  0  0  0  0  0  0
  -22.1490   -5.1700   22.4830 C   0  0  0  0  0  0  0  0  0  0  0  0
  -22.7520   -4.5830   21.4200 F   0  0  0  0  0  0  0  0  0  0  0  0
  -20.9710   -4.2760   25.8390 F   0  0  0  0  0  0  0  0  0  0  0  0
  -23.0270  -13.8700   21.1640 C   0  0  0  0  0  0  0  0  0  0  0  0
  -22.2920  -13.1500   22.0040 N   0  0  0  0  0  0  0  0  0  0  0  0
  -22.5900  -14.9000   20.6510 O   0  0  0  0  0  0  0  0  0  0  0  0
  -22.6610  -12.3200   22.4420 H   0  0  0  0  0  0  0  0  0  0  0  0
  -21.3480  -13.4400   22.2140 H   0  0  0  0  0  0  0  0  0  0  0  0
  -25.6380  -15.5910   20.4440 N   0  0  0  0  0  0  0  0  0  0  0  0
  -24.8250  -16.1970   20.4330 H   0  0  0  0  0  0  0  0  0  0  0  0
  -26.4520  -16.0110   20.0150 H   0  0  0  0  0  0  0  0  0  0  0  0
  -29.1060  -22.3720   20.8280 C   0  0  0  0  0  3  0  0  0  0  0  0
  -28.1790  -24.0700   20.4840 C   0  0  0  0  0  3  0  0  0  0  0  0
  -28.3160  -25.8330   20.6640 O   0  0  0  0  0  0  0  0  0  0  0  0
  -24.7640  -32.1590   23.4930 C   0  0  0  0  0  0  0  0  0  0  0  0
  -27.3380  -27.0460   20.5770 C   0  0  0  0  0  0  0  0  0  0  0  0
  -23.5940  -30.7360   21.8640 C   0  0  0  0  0  3  0  0  0  0  0  0
  -25.0600  -29.0760   20.4770 C   0  0  0  0  0  0  0  0  0  0  0  0
  -26.1740  -30.8880   21.7560 C   0  0  0  0  0  2  0  0  0  0  0  0
  -26.2490  -29.4450   21.1180 C   0  0  0  0  0  0  0  0  0  0  0  0
  -27.3730  -28.4580   21.1300 C   0  0  0  0  0  3  0  0  0  0  0  0
  -26.1130  -26.8920   19.8790 C   0  0  0  0  0  3  0  0  0  0  0  0
  -25.0300  -27.8250   19.8360 C   0  0  0  0  0  3  0  0  0  0  0  0
  -23.8480  -30.0230   20.5020 C   0  0  0  0  0  2  0  0  0  0  0  0
  -24.8670  -31.2970   22.4210 N   0  0  0  0  0  0  0  0  0  0  0  0
  -23.6670  -32.4580   23.9950 O   0  0  0  0  0  0  0  0  0  0  0  0
  -22.8780  -29.7650   22.8440 C   0  0  0  0  0  0  0  0  0  0  0  0
  -21.5780  -29.4870   22.6250 N   0  0  0  0  0  0  0  0  0  0  0  0
  -23.5080  -29.2600   23.7770 O   0  0  0  0  0  0  0  0  0  0  0  0
  -21.1150  -29.9480   21.8520 H   0  0  0  0  0  0  0  0  0  0  0  0
  -18.2910  -27.9570   22.9150 C   0  0  0  0  0  0  0  0  0  0  0  0
  -20.7680  -28.5340   23.3980 C   0  0  0  0  0  3  0  0  0  0  0  0
  -21.0740  -27.0760   22.9780 C   0  0  0  0  0  2  0  0  0  0  0  0
  -20.1300  -26.5490   21.8940 C   0  0  0  0  0  2  0  0  0  0  0  0
  -18.6780  -26.5880   22.3800 C   0  0  0  0  0  2  0  0  0  0  0  0
  -19.2720  -28.8770   23.3760 C   0  0  0  0  0  0  0  0  0  0  0  0
  -18.8560  -30.1450   23.8370 C   0  0  0  0  0  3  0  0  0  0  0  0
  -17.4930  -30.5010   23.8350 C   0  0  0  0  0  3  0  0  0  0  0  0
  -16.5270  -29.5840   23.3830 C   0  0  0  0  0  3  0  0  0  0  0  0
  -16.9260  -28.3140   22.9320 C   0  0  0  0  0  3  0  0  0  0  0  0
  -26.0210  -32.8240   24.1350 C   0  0  0  0  0  3  0  0  0  0  0  0
  -26.5050  -32.0950   25.4500 C   0  0  1  0  0  0  0  0  0  0  0  0
  -25.3690  -31.8110   26.4610 C   0  0  0  0  0  1  0  0  0  0  0  0
  -27.1790  -30.7440   25.1220 C   0  0  0  0  0  1  0  0  0  0  0  0
  -27.5780  -32.9530   26.1590 C   0  0  0  0  0  1  0  0  0  0  0  0
  -25.6950  -34.2330   24.4380 N   0  0  0  0  0  0  0  0  0  0  0  0
  -25.9900  -35.2800   23.6530 C   0  0  0  0  0  0  0  0  0  0  0  0
  -26.6240  -35.1620   22.6020 O   0  0  0  0  0  0  0  0  0  0  0  0
  -25.1300  -34.3980   25.2570 H   0  0  0  0  0  0  0  0  0  0  0  0
  -24.2260  -37.0540   23.3480 C   0  0  0  0  0  1  0  0  0  0  0  0
  -25.5120  -36.6770   24.1010 C   0  0  0  0  0  3  0  0  0  0  0  0
  -27.6710  -37.6190   24.8040 C   0  0  0  0  0  1  0  0  0  0  0  0
  -26.5240  -37.7400   23.9050 N   0  0  0  0  0  0  0  0  0  0  0  0
  -26.1120  -38.6590   24.0400 H   0  0  0  0  0  0  0  0  0  0  0  0
  -29.4530  -19.4220   16.4600 C   0  0  0  0  0  2  0  0  0  0  0  0
  -27.7330  -17.4930   16.8560 C   0  0  0  0  0  1  0  0  0  0  0  0
  -27.3940  -19.1560   14.9740 C   0  0  0  0  0  1  0  0  0  0  0  0
  -28.4340  -18.4250   15.8400 C   0  0  0  0  0  3  0  0  0  0  0  0
  1  4  1  0
  2  3  1  0
  3 45  1  0
  4  3  2  3
  4 15  1  0
  5  6  1  0
  5  1  2  0
  6  2  2  0
  7 15  1  0
  8 13  1  0
  9 10  1  0
  9  8  1  0
 11 10  1  0
 11 20  1  0
 11 12  1  0
 13  7  1  0
 13 12  1  0
 14  7  2  0
 15 16  1  0
 17 18  2  0
 18 37  1  0
 19 18  1  0
 19 22  1  0
 20 21  1  0
 20 17  1  0
 21 19  2  0
 22 23  1  0
 23 24  2  0
 25 28  1  0
 25 24  1  0
 26 25  2  0
 27 26  1  0
 27 22  2  0
 28 29  1  0
 29 34  2  0
 29 30  1  0
 30 31  2  0
 31 32  1  0
 32 36  1  0
 33 32  2  0
 34 33  1  0
 35 34  1  0
 37 38  1  0
 38 41  1  0
 38 40  1  0
 39 37  2  0
 42 17  1  0
 43 42  1  0
 44 42  1  0
 46 47  1  0
 46 45  2  0
 48 59  2  0
 49 47  1  0
 49 54  1  0
 50 58  1  0
 50 60  1  0
 51 57  1  0
 51 53  1  0
 52 58  1  0
 53 54  2  0
 53 52  1  0
 55 49  2  0
 56 55  1  0
 56 51  2  0
 57 50  1  0
 58 48  1  0
 60 62  2  0
 61 60  1  0
 63 61  1  0
 64 73  2  0
 64 69  1  0
 65 61  1  0
 66 65  1  0
 67 68  1  0
 67 66  1  0
 68 64  1  0
 69 65  1  0
 69 70  2  0
 71 70  1  0
 72 71  2  0
 73 72  1  0
 74 48  1  0
 74 79  1  0
 74 75  1  0
 75 78  1  1
 75 76  1  0
 77 75  1  0
 79 82  1  0
 80 84  1  0
 80 79  1  0
 81 80  2  0
 84 83  1  0
 86 87  1  0
 86 84  1  0
 86 85  1  0
 88  5  1  0
 90 91  1  0
 91 88  1  0
 91 89  1  0
M  ISO  4   7 100  15 100  46 101  47 101
M  END
>  <TORSDO>  (88) 
F 20

>  <SCORE>  (88) 
-11.852

>  <name>  (88) 
88

>  <ligand_id>  (88) 
88

>  <original_smiles>  (88) 
[H]c1nc(C([H])([H])C([H])(C([H])([H])[H])C([H])([H])[H])c([H])c(N([H])C(=O)N2C([H])([H])C([H])([H])C([H])([H])C([H])(n3nc(-c4c([H])c([H])c(Oc5c([H])c([H])c(F)c([H])c5F)c([H])c4[H])c(C(=O)N([H])[H])c3N([H])[H])C2([H])[H])c1C([H])([H])C([H])([H])Oc1c([H])c([H])c2c(c1[H])C([H])([H])N(C(=O)C([H])(N([H])C(=O)C([H])(N([H])C([H])([H])[H])C([H])([H])[H])C(C([H])([H])[H])(C([H])([H])[H])C([H])([H])[H])C([H])(C(=O)N([H])C1([H])c3c([H])c([H])c([H])c([H])c3C([H])([H])C([H])([H])C1([H])[H])C2([H])[H]

>  <smiles>  (88) 
[H]c1nc(C([H])([H])C([H])(C([H])([H])[H])C([H])([H])[H])c([H])c(N([H])C(=O)N2C([H])([H])C([H])([H])C([H])([H])C([H])(n3nc(-c4c([H])c([H])c(Oc5c([H])c([H])c(F)c([H])c5F)c([H])c4[H])c(C(=O)N([H])[H])c3N([H])[H])C2([H])[H])c1C([H])([H])C([H])([H])Oc1c([H])c([H])c2c(c1[H])C([H])([H])N(C(=O)C([H])(N([H])C(=O)C([H])(N([H])C([H])([H])[H])C([H])([H])[H])C(C([H])([H])[H])(C([H])([H])[H])C([H])([H])[H])C([H])(C(=O)N([H])C1([H])c3c([H])c([H])c([H])c([H])c3C([H])([H])C([H])([H])C1([H])[H])C2([H])[H]

$$$$
89:0:0
     RDKit          3D

 89 97  0  0  1  0  0  0  0  0999 V2000
  -28.9780  -18.9520   20.1410 C   0  0  0  0  0  3  0  0  0  0  0  0
  -30.5210  -20.5700   21.0060 C   0  0  0  0  0  3  0  0  0  0  0  0
  -29.2690  -20.3920   20.4050 C   0  0  0  0  0  0  0  0  0  0  0  0
  -29.8730  -17.8040   20.4720 C   0  0  0  0  0  0  0  0  0  0  0  0
  -31.0530  -18.2570   21.1300 C   0  0  0  0  0  0  0  0  0  0  0  0
  -32.0780  -17.3280   21.7540 C   0  0  0  0  0  1  0  0  0  0  0  0
  -31.3540  -19.5620   21.3510 N   0  0  0  0  0  0  0  0  0  0  0  0
  -30.3640  -15.1140   20.0350 C   0  0  0  0  0  0  0  0  0  0  0  0
  -30.2110  -12.7970   19.0030 C   0  0  0  0  0  2  0  0  0  0  0  0
  -29.2010  -12.7750   17.8330 C   0  0  0  0  0  2  0  0  0  0  0  0
  -27.7740  -12.5160   18.3520 C   0  0  0  0  0  2  0  0  0  0  0  0
  -27.4270  -13.3880   19.5870 C   0  0  0  0  0  3  0  0  0  0  0  0
  -28.5550  -13.3880   20.6420 C   0  0  0  0  0  2  0  0  0  0  0  0
  -29.7720  -13.8510   19.9640 N   0  0  0  0  0  0  0  0  0  0  0  0
  -31.5390  -15.1880   19.6660 O   0  0  0  0  0  0  0  0  0  0  0  0
  -29.5850  -16.2910   20.2790 N   0  0  0  0  0  0  0  0  0  0  0  0
  -28.6030  -16.0660   20.3360 H   0  0  0  0  0  0  0  0  0  0  0  0
  -25.0900  -13.8840   20.5000 C   0  0  0  0  0  0  0  0  0  0  0  0
  -24.0680  -13.0730   20.9080 C   0  0  0  0  0  0  0  0  0  0  0  0
  -24.5570  -11.7340   20.7960 C   0  0  0  0  0  0  0  0  0  0  0  0
  -26.1330  -13.0390   20.1610 N   0  0  0  0  0  0  0  0  0  0  0  0
  -25.8260  -11.7390   20.4050 N   0  0  0  0  0  0  0  0  0  0  0  0
  -23.8690  -10.4500   20.9830 C   0  0  0  0  0  0  0  0  0  0  0  0
  -24.3500   -9.4790   21.8880 C   0  0  0  0  0  3  0  0  0  0  0  0
  -23.6580   -8.2600   22.0660 C   0  0  0  0  0  3  0  0  0  0  0  0
  -22.4720   -8.0050   21.3370 C   0  0  0  0  0  0  0  0  0  0  0  0
  -22.0110   -8.9660   20.4200 C   0  0  0  0  0  3  0  0  0  0  0  0
  -22.7030  -10.1750   20.2410 C   0  0  0  0  0  3  0  0  0  0  0  0
  -21.7480   -6.8410   21.4260 O   0  0  0  0  0  0  0  0  0  0  0  0
  -21.7210   -6.0950   22.5770 C   0  0  0  0  0  0  0  0  0  0  0  0
  -21.2310   -6.6210   23.7930 C   0  0  0  0  0  3  0  0  0  0  0  0
  -21.1560   -5.7980   24.9350 C   0  0  0  0  0  3  0  0  0  0  0  0
  -21.5610   -4.4520   24.8620 C   0  0  0  0  0  0  0  0  0  0  0  0
  -22.0440   -3.9260   23.6510 C   0  0  0  0  0  3  0  0  0  0  0  0
  -22.1200   -4.7450   22.5110 C   0  0  0  0  0  0  0  0  0  0  0  0
  -22.5670   -4.2270   21.3420 F   0  0  0  0  0  0  0  0  0  0  0  0
  -21.4810   -3.6600   25.9580 F   0  0  0  0  0  0  0  0  0  0  0  0
  -22.6810  -13.5090   21.2810 C   0  0  0  0  0  0  0  0  0  0  0  0
  -22.0210  -12.7650   22.1610 N   0  0  0  0  0  0  0  0  0  0  0  0
  -22.1940  -14.5420   20.8270 O   0  0  0  0  0  0  0  0  0  0  0  0
  -22.4310  -11.9280   22.5510 H   0  0  0  0  0  0  0  0  0  0  0  0
  -21.0930  -13.0370   22.4530 H   0  0  0  0  0  0  0  0  0  0  0  0
  -25.2120  -15.2640   20.3610 N   0  0  0  0  0  0  0  0  0  0  0  0
  -24.4340  -15.8900   20.5390 H   0  0  0  0  0  0  0  0  0  0  0  0
  -26.0100  -15.7340   19.9570 H   0  0  0  0  0  0  0  0  0  0  0  0
  -28.3420  -21.7390   20.1070 C   0  0  0  0  0  2  0  0  0  0  0  0
  -28.7470  -23.3700   20.3870 C   0  0  0  0  0  3  0  0  0  0  0  0
  -27.7690  -24.7230   20.0610 C   0  0  0  0  0  3  0  0  0  0  0  0
  -28.0630  -26.2510   20.2560 O   0  0  0  0  0  0  0  0  0  0  0  0
  -24.5760  -32.0350   23.2480 C   0  0  0  0  0  0  0  0  0  0  0  0
  -27.0240  -27.2570   20.1960 C   0  0  0  0  0  0  0  0  0  0  0  0
  -23.3240  -30.6450   21.6440 C   0  0  0  0  0  3  0  0  0  0  0  0
  -24.7200  -29.0420   20.1970 C   0  0  0  0  0  0  0  0  0  0  0  0
  -25.8780  -30.8720   21.4240 C   0  0  0  0  0  2  0  0  0  0  0  0
  -25.9200  -29.4750   20.7790 C   0  0  0  0  0  0  0  0  0  0  0  0
  -27.0710  -28.5990   20.7590 C   0  0  0  0  0  3  0  0  0  0  0  0
  -25.7990  -26.9320   19.5720 C   0  0  0  0  0  3  0  0  0  0  0  0
  -24.6740  -27.7850   19.5770 C   0  0  0  0  0  3  0  0  0  0  0  0
  -23.5070  -29.9560   20.2650 C   0  0  0  0  0  2  0  0  0  0  0  0
  -24.6150  -31.2060   22.1600 N   0  0  0  0  0  0  0  0  0  0  0  0
  -23.5050  -32.3380   23.7960 O   0  0  0  0  0  0  0  0  0  0  0  0
  -22.6520  -29.6540   22.6270 C   0  0  0  0  0  0  0  0  0  0  0  0
  -21.3270  -29.4640   22.4980 N   0  0  0  0  0  0  0  0  0  0  0  0
  -23.3260  -29.0570   23.4710 O   0  0  0  0  0  0  0  0  0  0  0  0
  -20.8380  -29.9960   21.7910 H   0  0  0  0  0  0  0  0  0  0  0  0
  -17.9610  -28.2190   22.9990 C   0  0  0  0  0  0  0  0  0  0  0  0
  -20.5120  -28.5360   23.2870 C   0  0  0  0  0  3  0  0  0  0  0  0
  -20.6450  -27.0890   22.7590 C   0  0  0  0  0  2  0  0  0  0  0  0
  -19.5620  -26.7150   21.7420 C   0  0  0  0  0  2  0  0  0  0  0  0
  -18.1710  -26.8530   22.3650 C   0  0  0  0  0  2  0  0  0  0  0  0
  -19.0600  -29.0150   23.4160 C   0  0  0  0  0  0  0  0  0  0  0  0
  -18.8100  -30.2890   23.9700 C   0  0  0  0  0  3  0  0  0  0  0  0
  -17.4930  -30.7690   24.1080 C   0  0  0  0  0  3  0  0  0  0  0  0
  -16.4090  -29.9710   23.7050 C   0  0  0  0  0  3  0  0  0  0  0  0
  -16.6430  -28.6980   23.1560 C   0  0  0  0  0  3  0  0  0  0  0  0
  -25.8750  -32.6580   23.8440 C   0  0  0  0  0  3  0  0  0  0  0  0
  -26.4140  -31.8780   25.1060 C   0  0  1  0  0  0  0  0  0  0  0  0
  -25.3380  -31.6170   26.1860 C   0  0  0  0  0  1  0  0  0  0  0  0
  -27.0060  -30.5090   24.6950 C   0  0  0  0  0  1  0  0  0  0  0  0
  -27.5660  -32.6750   25.7610 C   0  0  0  0  0  1  0  0  0  0  0  0
  -25.5810  -34.0570   24.1960 N   0  0  0  0  0  0  0  0  0  0  0  0
  -25.8810  -35.1170   23.4340 C   0  0  0  0  0  0  0  0  0  0  0  0
  -26.5030  -35.0200   22.3730 O   0  0  0  0  0  0  0  0  0  0  0  0
  -25.0210  -34.2050   25.0230 H   0  0  0  0  0  0  0  0  0  0  0  0
  -24.1420  -36.9200   23.1820 C   0  0  0  0  0  1  0  0  0  0  0  0
  -25.4220  -36.5050   23.9260 C   0  0  0  0  0  3  0  0  0  0  0  0
  -27.5910  -37.3890   24.6640 C   0  0  0  0  0  1  0  0  0  0  0  0
  -26.4500  -37.5560   23.7680 N   0  0  0  0  0  0  0  0  0  0  0  0
  -26.0520  -38.4770   23.9300 H   0  0  0  0  0  0  0  0  0  0  0  0
  1  3  2  0
  1  4  1  0
  2  7  2  0
  3  2  1  0
  4  5  2  0
  5  7  1  0
  5  6  1  0
  8 16  1  0
  9 14  1  0
 10 11  1  0
 10  9  1  0
 12 11  1  0
 12 21  1  0
 12 13  1  0
 14  8  1  0
 14 13  1  0
 15  8  2  0
 16 17  1  0
 16  4  1  0
 18 19  2  0
 19 38  1  0
 20 19  1  0
 20 23  1  0
 21 22  1  0
 21 18  1  0
 22 20  2  0
 23 24  1  0
 24 25  2  0
 26 29  1  0
 26 25  1  0
 27 26  2  0
 28 27  1  0
 28 23  2  0
 29 30  1  0
 30 31  1  0
 31 32  2  0
 33 32  1  0
 33 37  1  0
 34 33  2  0
 35 30  2  0
 35 34  1  0
 36 35  1  0
 38 39  1  0
 39 42  1  0
 39 41  1  0
 40 38  2  0
 43 18  1  0
 43 44  1  0
 45 43  1  0
 46 47  1  0
 46  3  1  0
 48 49  1  0
 48 47  2  0
 50 61  2  0
 51 49  1  0
 51 56  1  0
 52 60  1  0
 52 62  1  0
 53 59  1  0
 53 55  1  0
 54 60  1  0
 55 54  1  0
 56 55  2  0
 57 58  1  0
 57 51  2  0
 58 53  2  0
 59 52  1  0
 60 50  1  0
 62 64  2  0
 63 62  1  0
 65 63  1  0
 66 75  2  0
 66 71  1  0
 67 63  1  0
 67 71  1  0
 68 67  1  0
 69 70  1  0
 69 68  1  0
 70 66  1  0
 71 72  2  0
 72 73  1  0
 74 73  2  0
 75 74  1  0
 76 50  1  0
 76 81  1  0
 76 77  1  0
 77 80  1  1
 77 78  1  0
 79 77  1  0
 81 84  1  0
 82 86  1  0
 82 81  1  0
 83 82  2  0
 86 85  1  0
 88 86  1  0
 88 89  1  0
 88 87  1  0
M  ISO  4   8 100  16 100  48 101  49 101
M  END
>  <TORSDO>  (89) 
F 19

>  <SCORE>  (89) 
-14.632

>  <name>  (89) 
89

>  <ligand_id>  (89) 
89

>  <original_smiles>  (89) 
[H]c1nc(C([H])([H])[H])c(N([H])C(=O)N2C([H])([H])C([H])([H])C([H])([H])C([H])(n3nc(-c4c([H])c([H])c(Oc5c([H])c([H])c(F)c([H])c5F)c([H])c4[H])c(C(=O)N([H])[H])c3N([H])[H])C2([H])[H])c([H])c1C([H])([H])C([H])([H])C([H])([H])Oc1c([H])c([H])c2c(c1[H])C([H])([H])N(C(=O)C([H])(N([H])C(=O)C([H])(N([H])C([H])([H])[H])C([H])([H])[H])C(C([H])([H])[H])(C([H])([H])[H])C([H])([H])[H])C([H])(C(=O)N([H])C1([H])c3c([H])c([H])c([H])c([H])c3C([H])([H])C([H])([H])C1([H])[H])C2([H])[H]

>  <smiles>  (89) 
[H]c1nc(C([H])([H])[H])c(N([H])C(=O)N2C([H])([H])C([H])([H])C([H])([H])C([H])(n3nc(-c4c([H])c([H])c(Oc5c([H])c([H])c(F)c([H])c5F)c([H])c4[H])c(C(=O)N([H])[H])c3N([H])[H])C2([H])[H])c([H])c1C([H])([H])C([H])([H])C([H])([H])Oc1c([H])c([H])c2c(c1[H])C([H])([H])N(C(=O)C([H])(N([H])C(=O)C([H])(N([H])C([H])([H])[H])C([H])([H])[H])C(C([H])([H])[H])(C([H])([H])[H])C([H])([H])[H])C([H])(C(=O)N([H])C1([H])c3c([H])c([H])c([H])c([H])c3C([H])([H])C([H])([H])C1([H])[H])C2([H])[H]

$$$$
90:0:0
     RDKit          3D

 94102  0  0  1  0  0  0  0  0999 V2000
  -32.2880  -18.9750   19.5580 C   0  0  0  0  0  2  0  0  0  0  0  0
  -31.5760  -20.2270   19.9470 C   0  0  0  0  0  2  0  0  0  0  0  0
  -30.2290  -18.2340   19.9120 C   0  0  0  0  0  3  0  0  0  0  0  0
  -31.5830  -17.9290   19.5010 N   0  0  0  0  0  2  0  0  0  0  0  0
  -30.2700  -19.7150   20.4090 N   0  0  2  0  0  4  0  0  0  0  0  0
  -30.3830  -19.6360   21.4120 H   0  0  0  0  0  0  0  0  0  0  0  0
  -30.6920  -14.6480   20.0670 C   0  0  0  0  0  0  0  0  0  0  0  0
  -30.4250  -12.4540   18.8740 C   0  0  0  0  0  2  0  0  0  0  0  0
  -29.3980  -12.6490   17.7310 C   0  0  0  0  0  2  0  0  0  0  0  0
  -27.9450  -12.4940   18.2370 C   0  0  0  0  0  2  0  0  0  0  0  0
  -27.6910  -13.2800   19.5500 C   0  0  0  0  0  3  0  0  0  0  0  0
  -28.8160  -13.0140   20.5800 C   0  0  0  0  0  2  0  0  0  0  0  0
  -30.0940  -13.4100   19.9570 N   0  0  0  0  0  0  0  0  0  0  0  0
  -31.7780  -14.8740   19.5180 O   0  0  0  0  0  0  0  0  0  0  0  0
  -29.7520  -17.0820   20.8740 C   0  0  0  0  0  0  0  0  0  0  0  0
  -29.9110  -15.6850   20.8070 N   0  0  0  0  0  0  0  0  0  0  0  0
  -28.9590  -17.5110   21.8780 N   0  0  0  0  0  4  0  0  0  0  0  0
  -29.1790  -15.2860   21.3600 H   0  0  0  0  0  0  0  0  0  0  0  0
  -28.4120  -18.3500   21.7850 H   0  0  0  0  0  0  0  0  0  0  0  0
  -28.7510  -16.9470   22.6890 H   0  0  0  0  0  0  0  0  0  0  0  0
  -25.3580  -13.9110   20.4220 C   0  0  0  0  0  0  0  0  0  0  0  0
  -24.3020  -13.1510   20.8500 C   0  0  0  0  0  0  0  0  0  0  0  0
  -24.7320  -11.7920   20.7570 C   0  0  0  0  0  0  0  0  0  0  0  0
  -26.3650  -13.0140   20.1030 N   0  0  0  0  0  0  0  0  0  0  0  0
  -25.9990  -11.7350   20.3670 N   0  0  0  0  0  0  0  0  0  0  0  0
  -23.9880  -10.5440   20.9660 C   0  0  0  0  0  0  0  0  0  0  0  0
  -24.4370   -9.5630   21.8770 C   0  0  0  0  0  3  0  0  0  0  0  0
  -23.6980   -8.3770   22.0730 C   0  0  0  0  0  3  0  0  0  0  0  0
  -22.4950   -8.1630   21.3580 C   0  0  0  0  0  0  0  0  0  0  0  0
  -22.0640   -9.1340   20.4360 C   0  0  0  0  0  3  0  0  0  0  0  0
  -22.8030  -10.3120   20.2390 C   0  0  0  0  0  3  0  0  0  0  0  0
  -21.7230   -7.0320   21.4700 O   0  0  0  0  0  0  0  0  0  0  0  0
  -21.6940   -6.2870   22.6210 C   0  0  0  0  0  0  0  0  0  0  0  0
  -21.2810   -6.8380   23.8530 C   0  0  0  0  0  3  0  0  0  0  0  0
  -21.2020   -6.0200   24.9970 C   0  0  0  0  0  3  0  0  0  0  0  0
  -21.5260   -4.6530   24.9120 C   0  0  0  0  0  0  0  0  0  0  0  0
  -21.9290   -4.1000   23.6830 C   0  0  0  0  0  3  0  0  0  0  0  0
  -22.0110   -4.9150   22.5390 C   0  0  0  0  0  0  0  0  0  0  0  0
  -22.3830   -4.3750   21.3530 F   0  0  0  0  0  0  0  0  0  0  0  0
  -21.4400   -3.8630   26.0090 F   0  0  0  0  0  0  0  0  0  0  0  0
  -22.9340  -13.6530   21.2160 C   0  0  0  0  0  0  0  0  0  0  0  0
  -22.2420  -12.9580   22.1110 N   0  0  0  0  0  0  0  0  0  0  0  0
  -22.4900  -14.7010   20.7430 O   0  0  0  0  0  0  0  0  0  0  0  0
  -22.6110  -12.1140   22.5230 H   0  0  0  0  0  0  0  0  0  0  0  0
  -21.3240  -13.2790   22.3890 H   0  0  0  0  0  0  0  0  0  0  0  0
  -25.5340  -15.2820   20.2600 N   0  0  0  0  0  0  0  0  0  0  0  0
  -24.7540  -15.9150   20.4060 H   0  0  0  0  0  0  0  0  0  0  0  0
  -26.2820  -15.7030   19.7250 H   0  0  0  0  0  0  0  0  0  0  0  0
  -29.1150  -20.7320   20.1880 C   0  0  0  0  0  3  0  0  0  0  0  0
  -29.4210  -22.3410   20.0650 C   0  0  0  0  0  3  0  0  0  0  0  0
  -26.9060  -22.9830   19.8980 C   0  0  0  0  0  1  0  0  0  0  0  0
  -28.3010  -23.5080   20.2970 C   0  0  0  0  0  3  0  0  0  0  0  0
  -28.5340  -24.9720   19.6130 C   0  0  0  0  0  2  0  0  0  0  0  0
  -28.3380  -26.3100   20.2690 O   0  0  0  0  0  0  0  0  0  0  0  0
  -24.5020  -31.6920   23.1970 C   0  0  0  0  0  0  0  0  0  0  0  0
  -27.2060  -27.1450   20.1490 C   0  0  0  0  0  0  0  0  0  0  0  0
  -23.3450  -30.3020   21.5150 C   0  0  0  0  0  3  0  0  0  0  0  0
  -24.8360  -28.7700   20.0940 C   0  0  0  0  0  0  0  0  0  0  0  0
  -25.8870  -30.6260   21.3960 C   0  0  0  0  0  2  0  0  0  0  0  0
  -25.9870  -29.2520   20.7300 C   0  0  0  0  0  0  0  0  0  0  0  0
  -27.1690  -28.4510   20.7470 C   0  0  0  0  0  3  0  0  0  0  0  0
  -26.0350  -26.7210   19.4900 C   0  0  0  0  0  3  0  0  0  0  0  0
  -24.8660  -27.5150   19.4640 C   0  0  0  0  0  3  0  0  0  0  0  0
  -23.5920  -29.6390   20.1320 C   0  0  0  0  0  2  0  0  0  0  0  0
  -24.5950  -30.8930   22.0920 N   0  0  0  0  0  0  0  0  0  0  0  0
  -23.4060  -31.9600   23.7080 O   0  0  0  0  0  0  0  0  0  0  0  0
  -22.6620  -29.2790   22.4520 C   0  0  0  0  0  0  0  0  0  0  0  0
  -21.3370  -29.1110   22.3060 N   0  0  0  0  0  0  0  0  0  0  0  0
  -23.3260  -28.6350   23.2680 O   0  0  0  0  0  0  0  0  0  0  0  0
  -20.8610  -29.6790   21.6180 H   0  0  0  0  0  0  0  0  0  0  0  0
  -17.9430  -27.9460   22.7610 C   0  0  0  0  0  0  0  0  0  0  0  0
  -20.5020  -28.1650   23.0500 C   0  0  0  0  0  3  0  0  0  0  0  0
  -20.5900  -26.7490   22.4370 C   0  0  0  0  0  2  0  0  0  0  0  0
  -19.4890  -26.4660   21.4110 C   0  0  0  0  0  2  0  0  0  0  0  0
  -18.1070  -26.6120   22.0520 C   0  0  0  0  0  2  0  0  0  0  0  0
  -19.0690  -28.6820   23.2150 C   0  0  0  0  0  0  0  0  0  0  0  0
  -18.8610  -29.9320   23.8390 C   0  0  0  0  0  3  0  0  0  0  0  0
  -17.5620  -30.4440   24.0120 C   0  0  0  0  0  3  0  0  0  0  0  0
  -16.4500  -29.7020   23.5730 C   0  0  0  0  0  3  0  0  0  0  0  0
  -16.6430  -28.4550   22.9530 C   0  0  0  0  0  3  0  0  0  0  0  0
  -25.7670  -32.3230   23.8580 C   0  0  0  0  0  3  0  0  0  0  0  0
  -26.2300  -31.5630   25.1620 C   0  0  1  0  0  0  0  0  0  0  0  0
  -25.0950  -31.3460   26.1900 C   0  0  0  0  0  1  0  0  0  0  0  0
  -26.8190  -30.1780   24.8100 C   0  0  0  0  0  1  0  0  0  0  0  0
  -27.3620  -32.3590   25.8540 C   0  0  0  0  0  1  0  0  0  0  0  0
  -25.4540  -33.7270   24.1640 N   0  0  0  0  0  0  0  0  0  0  0  0
  -25.8270  -34.7710   23.4140 C   0  0  0  0  0  0  0  0  0  0  0  0
  -26.5380  -34.6550   22.4110 O   0  0  0  0  0  0  0  0  0  0  0  0
  -24.8220  -33.8910   24.9330 H   0  0  0  0  0  0  0  0  0  0  0  0
  -24.1390  -36.5830   22.9740 C   0  0  0  0  0  1  0  0  0  0  0  0
  -25.3370  -36.1680   23.8420 C   0  0  0  0  0  3  0  0  0  0  0  0
  -27.4360  -37.0370   24.7750 C   0  0  0  0  0  1  0  0  0  0  0  0
  -26.3870  -37.2090   23.7740 N   0  0  0  0  0  0  0  0  0  0  0  0
  -25.9850  -38.1360   23.8910 H   0  0  0  0  0  0  0  0  0  0  0  0
  1  2  1  0
  2  5  1  0
  3  5  1  0
  3 15  1  0
  4  1  1  0
  4  3  1  0
  5  6  1  1
  7 16  1  0
  8 13  1  0
  9 10  1  0
  9  8  1  0
 11 10  1  0
 11 24  1  0
 11 12  1  0
 13  7  1  0
 13 12  1  0
 14  7  2  0
 15 17  2  0
 16 15  1  0
 16 18  1  0
 17 20  1  0
 19 17  1  0
 21 22  2  0
 22 41  1  0
 23 22  1  0
 23 26  1  0
 24 25  1  0
 24 21  1  0
 25 23  2  0
 26 27  1  0
 27 28  2  0
 29 32  1  0
 29 28  1  0
 30 29  2  0
 31 30  1  0
 31 26  2  0
 32 33  1  0
 33 34  1  0
 34 35  2  0
 36 35  1  0
 36 40  1  0
 37 36  2  0
 38 33  2  0
 38 37  1  0
 39 38  1  0
 41 42  1  0
 42 45  1  0
 42 44  1  0
 43 41  2  0
 46 47  1  0
 46 21  1  0
 48 46  1  0
 49  5  1  0
 50 49  2  0
 50 52  1  0
 52 51  1  0
 53 54  1  0
 53 52  1  0
 55 66  2  0
 56 54  1  0
 56 61  1  0
 57 65  1  0
 57 67  1  0
 58 64  1  0
 58 60  1  0
 59 65  1  0
 60 61  2  0
 60 59  1  0
 62 56  2  0
 63 62  1  0
 63 58  2  0
 64 57  1  0
 65 55  1  0
 67 69  2  0
 68 67  1  0
 70 68  1  0
 71 80  2  0
 71 76  1  0
 72 68  1  0
 72 76  1  0
 73 72  1  0
 74 75  1  0
 74 73  1  0
 75 71  1  0
 76 77  2  0
 77 78  1  0
 79 78  2  0
 80 79  1  0
 81 55  1  0
 81 86  1  0
 81 82  1  0
 82 85  1  1
 82 83  1  0
 84 82  1  0
 86 89  1  0
 87 91  1  0
 87 86  1  0
 88 87  2  0
 91 90  1  0
 93 91  1  0
 93 94  1  0
 93 92  1  0
M  ISO  4   7 100  16 100  53 101  54 101
M  END
>  <TORSDO>  (90) 
F 20

>  <SCORE>  (90) 
-12.959

>  <name>  (90) 
90

>  <ligand_id>  (90) 
90

>  <original_smiles>  (90) 
[H]C1=NC([H])(C(N([H])C(=O)N2C([H])([H])C([H])([H])C([H])([H])C([H])(n3nc(-c4c([H])c([H])c(Oc5c([H])c([H])c(F)c([H])c5F)c([H])c4[H])c(C(=O)N([H])[H])c3N([H])[H])C2([H])[H])=[N+]([H])[H])[N+]([H])(C([H])([H])C([H])([H])C([H])(C([H])([H])[H])C([H])([H])Oc2c([H])c([H])c3c(c2[H])C([H])([H])N(C(=O)C([H])(N([H])C(=O)C([H])(N([H])C([H])([H])[H])C([H])([H])[H])C(C([H])([H])[H])(C([H])([H])[H])C([H])([H])[H])C([H])(C(=O)N([H])C2([H])c4c([H])c([H])c([H])c([H])c4C([H])([H])C([H])([H])C2([H])[H])C3([H])[H])C1([H])[H]

>  <smiles>  (90) 
[H]C1=NC([H])(C(N([H])C(=O)N2C([H])([H])C([H])([H])C([H])([H])C([H])(n3nc(-c4c([H])c([H])c(Oc5c([H])c([H])c(F)c([H])c5F)c([H])c4[H])c(C(=O)N([H])[H])c3N([H])[H])C2([H])[H])=[N+]([H])[H])[N+]([H])(C([H])([H])C([H])([H])C([H])(C([H])([H])[H])C([H])([H])Oc2c([H])c([H])c3c(c2[H])C([H])([H])N(C(=O)C([H])(N([H])C(=O)C([H])(N([H])C([H])([H])[H])C([H])([H])[H])C(C([H])([H])[H])(C([H])([H])[H])C([H])([H])[H])C([H])(C(=O)N([H])C2([H])c4c([H])c([H])c([H])c([H])c4C([H])([H])C([H])([H])C2([H])[H])C3([H])[H])C1([H])[H]

$$$$
91:0:0
     RDKit          3D

 84 88  0  0  1  0  0  0  0  0999 V2000
  -28.3930  -23.3790   19.8880 C   0  0  0  0  0 15  0  0  0  0  0  0
  -30.0310  -21.6830   21.4170 C   0  0  0  0  0  1  0  0  0  0  0  0
  -27.6180  -21.0420   21.2730 C   0  0  0  0  0  1  0  0  0  0  0  0
  -28.8670  -21.3980   20.4560 C   0  0  0  0  0  2  0  0  0  0  0  0
  -29.4560  -19.4750   19.8290 C   0  0  0  0  0  1  0  0  0  0  0  0
  -30.2070  -16.1150   20.0280 C   0  0  0  0  0  0  0  0  0  0  0  0
  -30.3640  -13.4810   19.2300 C   0  0  0  0  0  2  0  0  0  0  0  0
  -29.4800  -12.9230   18.0630 C   0  0  0  0  0  2  0  0  0  0  0  0
  -28.0950  -12.4960   18.5650 C   0  0  0  0  0  2  0  0  0  0  0  0
  -27.5700  -13.5120   19.5980 C   0  0  0  0  0  3  0  0  0  0  0  0
  -28.6050  -13.9520   20.6720 C   0  0  0  0  0  2  0  0  0  0  0  0
  -29.7120  -14.6880   19.9790 N   0  0  0  0  0  0  0  0  0  0  0  0
  -31.4310  -15.9810   19.7820 O   0  0  0  0  0  0  0  0  0  0  0  0
  -29.4850  -17.5910   20.1660 N   0  0  0  0  0  0  0  0  0  0  0  0
  -28.5490  -17.3600   20.4680 H   0  0  0  0  0  0  0  0  0  0  0  0
  -25.2340  -14.0180   20.4290 C   0  0  0  0  0  0  0  0  0  0  0  0
  -24.1850  -13.2370   20.8160 C   0  0  0  0  0  0  0  0  0  0  0  0
  -24.6540  -11.8870   20.7660 C   0  0  0  0  0  0  0  0  0  0  0  0
  -26.2730  -13.1520   20.1550 N   0  0  0  0  0  0  0  0  0  0  0  0
  -25.9410  -11.8590   20.4230 N   0  0  0  0  0  0  0  0  0  0  0  0
  -23.9260  -10.6250   20.9680 C   0  0  0  0  0  0  0  0  0  0  0  0
  -24.3690   -9.6540   21.8950 C   0  0  0  0  0  3  0  0  0  0  0  0
  -23.6340   -8.4640   22.0920 C   0  0  0  0  0  3  0  0  0  0  0  0
  -22.4440   -8.2350   21.3610 C   0  0  0  0  0  0  0  0  0  0  0  0
  -22.0190   -9.1950   20.4250 C   0  0  0  0  0  3  0  0  0  0  0  0
  -22.7530  -10.3760   20.2260 C   0  0  0  0  0  3  0  0  0  0  0  0
  -21.6810   -7.0960   21.4650 O   0  0  0  0  0  0  0  0  0  0  0  0
  -21.6450   -6.3560   22.6190 C   0  0  0  0  0  0  0  0  0  0  0  0
  -21.2390   -6.9140   23.8500 C   0  0  0  0  0  3  0  0  0  0  0  0
  -21.1520   -6.1010   24.9970 C   0  0  0  0  0  3  0  0  0  0  0  0
  -21.4600   -4.7300   24.9150 C   0  0  0  0  0  0  0  0  0  0  0  0
  -21.8580   -4.1710   23.6880 C   0  0  0  0  0  3  0  0  0  0  0  0
  -21.9490   -4.9810   22.5430 C   0  0  0  0  0  0  0  0  0  0  0  0
  -22.3130   -4.4320   21.3580 F   0  0  0  0  0  0  0  0  0  0  0  0
  -21.3680   -3.9470   26.0160 F   0  0  0  0  0  0  0  0  0  0  0  0
  -22.7950  -13.7160   21.1110 C   0  0  0  0  0  0  0  0  0  0  0  0
  -22.0850  -13.0310   21.9980 N   0  0  0  0  0  0  0  0  0  0  0  0
  -22.3500  -14.7400   20.5910 O   0  0  0  0  0  0  0  0  0  0  0  0
  -22.4620  -12.2080   22.4430 H   0  0  0  0  0  0  0  0  0  0  0  0
  -21.1530  -13.3370   22.2370 H   0  0  0  0  0  0  0  0  0  0  0  0
  -25.3910  -15.3880   20.2500 N   0  0  0  0  0  0  0  0  0  0  0  0
  -24.6260  -16.0420   20.3740 H   0  0  0  0  0  0  0  0  0  0  0  0
  -26.2260  -15.8190   19.8760 H   0  0  0  0  0  0  0  0  0  0  0  0
  -28.2260  -25.2270   20.3080 O   0  0  0  0  0  1  0  0  0  0  0  0
  -24.7120  -31.8280   23.1410 C   0  0  0  0  0  0  0  0  0  0  0  0
  -27.2760  -26.5470   20.1900 C   0  0  0  0  0  0  0  0  0  0  0  0
  -23.5420  -30.4050   21.5170 C   0  0  0  0  0  3  0  0  0  0  0  0
  -25.0060  -28.7140   20.1230 C   0  0  0  0  0  0  0  0  0  0  0  0
  -26.1300  -30.4980   21.4210 C   0  0  0  0  0  2  0  0  0  0  0  0
  -26.2030  -29.0370   20.7690 C   0  0  0  0  0  0  0  0  0  0  0  0
  -27.3030  -27.9880   20.7700 C   0  0  0  0  0  3  0  0  0  0  0  0
  -26.0430  -26.5040   19.4680 C   0  0  0  0  0  3  0  0  0  0  0  0
  -24.9800  -27.4770   19.4470 C   0  0  0  0  0  3  0  0  0  0  0  0
  -23.7980  -29.6820   20.1590 C   0  0  0  0  0  2  0  0  0  0  0  0
  -24.8210  -30.9510   22.0760 N   0  0  0  0  0  0  0  0  0  0  0  0
  -23.6130  -32.1310   23.6400 O   0  0  0  0  0  0  0  0  0  0  0  0
  -22.8120  -29.4500   22.5020 C   0  0  0  0  0  0  0  0  0  0  0  0
  -21.4760  -29.3040   22.3900 N   0  0  0  0  0  0  0  0  0  0  0  0
  -23.4660  -28.8330   23.3460 O   0  0  0  0  0  0  0  0  0  0  0  0
  -20.9930  -29.8530   21.6920 H   0  0  0  0  0  0  0  0  0  0  0  0
  -18.0920  -28.0800   22.9390 C   0  0  0  0  0  0  0  0  0  0  0  0
  -20.6540  -28.3700   23.1740 C   0  0  0  0  0  3  0  0  0  0  0  0
  -20.7580  -26.9340   22.6090 C   0  0  0  0  0  2  0  0  0  0  0  0
  -19.6510  -26.6010   21.6030 C   0  0  0  0  0  2  0  0  0  0  0  0
  -18.2740  -26.7340   22.2580 C   0  0  0  0  0  2  0  0  0  0  0  0
  -19.2090  -28.8560   23.3540 C   0  0  0  0  0  0  0  0  0  0  0  0
  -18.9800  -30.1110   23.9600 C   0  0  0  0  0  3  0  0  0  0  0  0
  -17.6700  -30.5930   24.1470 C   0  0  0  0  0  3  0  0  0  0  0  0
  -16.5700  -29.8170   23.7420 C   0  0  0  0  0  3  0  0  0  0  0  0
  -16.7820  -28.5600   23.1460 C   0  0  0  0  0  3  0  0  0  0  0  0
  -25.9590  -32.5060   23.7860 C   0  0  0  0  0  3  0  0  0  0  0  0
  -25.6110  -33.9030   24.1290 N   0  0  0  0  0  0  0  0  0  0  0  0
  -25.9300  -34.9840   23.4050 C   0  0  0  0  0  0  0  0  0  0  0  0
  -26.5950  -34.9120   22.3700 O   0  0  0  0  0  0  0  0  0  0  0  0
  -25.0140  -34.0310   24.9330 H   0  0  0  0  0  0  0  0  0  0  0  0
  -24.1730  -36.7730   23.1230 C   0  0  0  0  0  1  0  0  0  0  0  0
  -25.4350  -36.3620   23.8990 C   0  0  0  0  0  3  0  0  0  0  0  0
  -27.5710  -37.2690   24.7100 C   0  0  0  0  0  1  0  0  0  0  0  0
  -26.4520  -37.4330   23.7870 N   0  0  0  0  0  0  0  0  0  0  0  0
  -26.0360  -38.3460   23.9520 H   0  0  0  0  0  0  0  0  0  0  0  0
  -26.4680  -31.7590   25.0820 C   0  0  1  0  0  0  0  0  0  0  0  0
  -25.3620  -31.5250   26.1400 C   0  0  0  0  0  1  0  0  0  0  0  0
  -27.0660  -30.3780   24.7330 C   0  0  0  0  0  1  0  0  0  0  0  0
  -27.6060  -32.5710   25.7450 C   0  0  0  0  0  1  0  0  0  0  0  0
  4  3  1  0
  4  2  1  0
  5 14  1  0
  6 14  1  0
  7 12  1  0
  8  9  1  0
  8  7  1  0
 10  9  1  0
 10 19  1  0
 10 11  1  0
 12  6  1  0
 12 11  1  0
 13  6  2  0
 14 15  1  0
 16 17  2  0
 17 36  1  0
 18 17  1  0
 18 21  1  0
 19 20  1  0
 19 16  1  0
 20 18  2  0
 21 22  1  0
 22 23  2  0
 24 27  1  0
 24 23  1  0
 25 24  2  0
 26 25  1  0
 26 21  2  0
 27 28  1  0
 28 29  1  0
 29 30  2  0
 31 30  1  0
 31 35  1  0
 32 31  2  0
 33 28  2  0
 33 32  1  0
 34 33  1  0
 36 37  1  0
 37 40  1  0
 37 39  1  0
 38 36  2  0
 41 42  1  0
 41 16  1  0
 43 41  1  0
 45 56  2  0
 46 44  1  0
 46 51  1  0
 47 55  1  0
 47 57  1  0
 48 54  1  0
 48 50  1  0
 49 55  1  0
 50 51  2  0
 50 49  1  0
 52 46  2  0
 53 52  1  0
 53 48  2  0
 54 47  1  0
 55 45  1  0
 57 59  2  0
 58 57  1  0
 60 58  1  0
 61 70  2  0
 61 66  1  0
 62 58  1  0
 62 66  1  0
 63 62  1  0
 64 65  1  0
 64 63  1  0
 65 61  1  0
 66 67  2  0
 67 68  1  0
 69 68  2  0
 70 69  1  0
 71 45  1  0
 71 72  1  0
 71 81  1  0
 72 75  1  0
 73 77  1  0
 73 72  1  0
 74 73  2  0
 77 76  1  0
 79 77  1  0
 79 80  1  0
 79 78  1  0
 81 84  1  1
 81 82  1  0
 83 81  1  0
M  ISO  4   1 101   6 100  14 100  44 101
M  END
>  <TORSDO>  (91) 
F 18

>  <SCORE>  (91) 
-15.543

>  <name>  (91) 
91

>  <ligand_id>  (91) 
91

>  <original_smiles>  (91) 
[H]c1c([H])c([H])c2c(c1[H])C([H])([H])C([H])([H])C([H])([H])C2([H])N([H])C(=O)C1([H])N(C(=O)C([H])(N([H])C(=O)C([H])(N([H])C([H])([H])[H])C([H])([H])[H])C(C([H])([H])[H])(C([H])([H])[H])C([H])([H])[H])C([H])([H])c2c([H])c(OC([H])([H])C(C([H])([H])[H])(C([H])([H])[H])C([H])([H])N([H])C(=O)N3C([H])([H])C([H])([H])C([H])([H])C([H])(n4nc(-c5c([H])c([H])c(Oc6c([H])c([H])c(F)c([H])c6F)c([H])c5[H])c(C(=O)N([H])[H])c4N([H])[H])C3([H])[H])c([H])c([H])c2C1([H])[H]

>  <smiles>  (91) 
[H]c1c([H])c([H])c2c(c1[H])C([H])([H])C([H])([H])C([H])([H])C2([H])N([H])C(=O)C1([H])N(C(=O)C([H])(N([H])C(=O)C([H])(N([H])C([H])([H])[H])C([H])([H])[H])C(C([H])([H])[H])(C([H])([H])[H])C([H])([H])[H])C([H])([H])c2c([H])c(OC([H])([H])C(C([H])([H])[H])(C([H])([H])[H])C([H])([H])N([H])C(=O)N3C([H])([H])C([H])([H])C([H])([H])C([H])(n4nc(-c5c([H])c([H])c(Oc6c([H])c([H])c(F)c([H])c6F)c([H])c5[H])c(C(=O)N([H])[H])c4N([H])[H])C3([H])[H])c([H])c([H])c2C1([H])[H]

$$$$
92:0:0
     RDKit          3D

 93100  0  0  1  0  0  0  0  0999 V2000
  -29.4930  -23.5360   21.7540 C   0  0  0  0  0  1  0  0  0  0  0  0
  -29.3260  -23.5060   20.2190 C   0  0  1  0  0  0  0  0  0  0  0  0
  -31.9500  -23.1950   20.1320 C   0  0  0  0  0  1  0  0  0  0  0  0
  -31.0050  -25.3310   19.3000 C   0  0  0  0  0  1  0  0  0  0  0  0
  -30.6920  -23.8330   19.4930 C   0  0  0  0  0  3  0  0  0  0  0  0
  -28.9140  -21.9000   19.8120 C   0  0  0  0  0  2  0  0  0  0  0  0
  -29.8300  -20.6170   20.0660 N   0  0  0  0  0  4  0  0  0  0  0  0
  -30.0530  -20.6210   21.0490 H   0  0  0  0  0  0  0  0  0  0  0  0
  -30.6980  -20.8010   19.5880 H   0  0  0  0  0  0  0  0  0  0  0  0
  -28.1160  -18.7820   20.4300 C   0  0  0  0  0  1  0  0  0  0  0  0
  -29.1920  -19.0280   18.1900 C   0  0  0  0  0  1  0  0  0  0  0  0
  -29.4370  -19.1110   19.7090 C   0  0  1  0  0  0  0  0  0  0  0  0
  -30.4860  -17.8320   20.0660 C   0  0  0  0  0  2  0  0  0  0  0  0
  -30.8130  -15.1010   20.0220 C   0  0  0  0  0  0  0  0  0  0  0  0
  -30.6350  -12.7230   19.1740 C   0  0  0  0  0  2  0  0  0  0  0  0
  -29.6890  -12.6470   17.9540 C   0  0  0  0  0  2  0  0  0  0  0  0
  -28.2250  -12.4830   18.4070 C   0  0  0  0  0  2  0  0  0  0  0  0
  -27.8460  -13.4570   19.5530 C   0  0  0  0  0  3  0  0  0  0  0  0
  -28.9140  -13.4970   20.6660 C   0  0  0  0  0  2  0  0  0  0  0  0
  -30.1850  -13.8590   20.0250 N   0  0  0  0  0  0  0  0  0  0  0  0
  -32.0160  -15.1300   19.7450 O   0  0  0  0  0  0  0  0  0  0  0  0
  -30.0700  -16.3060   20.1210 N   0  0  0  0  0  0  0  0  0  0  0  0
  -29.0850  -16.1560   20.2770 H   0  0  0  0  0  0  0  0  0  0  0  0
  -25.4930  -14.1050   20.3220 C   0  0  0  0  0  0  0  0  0  0  0  0
  -24.4130  -13.3610   20.7120 C   0  0  0  0  0  0  0  0  0  0  0  0
  -24.8410  -11.9970   20.6830 C   0  0  0  0  0  0  0  0  0  0  0  0
  -26.5090  -13.1970   20.0740 N   0  0  0  0  0  0  0  0  0  0  0  0
  -26.1270  -11.9240   20.3560 N   0  0  0  0  0  0  0  0  0  0  0  0
  -24.0820  -10.7570   20.8890 C   0  0  0  0  0  0  0  0  0  0  0  0
  -24.4830   -9.7950   21.8410 C   0  0  0  0  0  3  0  0  0  0  0  0
  -23.7250   -8.6200   22.0350 C   0  0  0  0  0  3  0  0  0  0  0  0
  -22.5510   -8.3990   21.2770 C   0  0  0  0  0  0  0  0  0  0  0  0
  -22.1680   -9.3480   20.3140 C   0  0  0  0  0  3  0  0  0  0  0  0
  -22.9270  -10.5150   20.1180 C   0  0  0  0  0  3  0  0  0  0  0  0
  -21.7670   -7.2760   21.3800 O   0  0  0  0  0  0  0  0  0  0  0  0
  -21.6690   -6.5700   22.5520 C   0  0  0  0  0  0  0  0  0  0  0  0
  -21.2290   -7.1740   23.7500 C   0  0  0  0  0  3  0  0  0  0  0  0
  -21.0770   -6.3960   24.9160 C   0  0  0  0  0  3  0  0  0  0  0  0
  -21.3540   -5.0160   24.8840 C   0  0  0  0  0  0  0  0  0  0  0  0
  -21.7880   -4.4120   23.6900 C   0  0  0  0  0  3  0  0  0  0  0  0
  -21.9410   -5.1870   22.5270 C   0  0  0  0  0  0  0  0  0  0  0  0
  -22.3390   -4.5960   21.3740 F   0  0  0  0  0  0  0  0  0  0  0  0
  -21.2010   -4.2670   26.0010 F   0  0  0  0  0  0  0  0  0  0  0  0
  -23.0340  -13.8780   20.9960 C   0  0  0  0  0  0  0  0  0  0  0  0
  -22.3050  -13.2180   21.8890 N   0  0  0  0  0  0  0  0  0  0  0  0
  -22.6150  -14.9040   20.4610 O   0  0  0  0  0  0  0  0  0  0  0  0
  -22.6580  -12.3880   22.3400 H   0  0  0  0  0  0  0  0  0  0  0  0
  -21.3790  -13.5480   22.1230 H   0  0  0  0  0  0  0  0  0  0  0  0
  -25.6910  -15.4680   20.1320 N   0  0  0  0  0  0  0  0  0  0  0  0
  -24.9330  -16.1360   20.2330 H   0  0  0  0  0  0  0  0  0  0  0  0
  -26.5210  -15.8740   19.7220 H   0  0  0  0  0  0  0  0  0  0  0  0
  -28.2330  -24.7780   19.9130 C   0  0  0  0  0  2  0  0  0  0  0  0
  -28.4040  -26.2980   20.2290 O   0  0  0  0  0  0  0  0  0  0  0  0
  -24.6530  -31.8760   23.2460 C   0  0  0  0  0  0  0  0  0  0  0  0
  -27.3220  -27.2510   20.1640 C   0  0  0  0  0  0  0  0  0  0  0  0
  -23.4820  -30.4860   21.5810 C   0  0  0  0  0  3  0  0  0  0  0  0
  -24.9600  -28.9530   20.1410 C   0  0  0  0  0  0  0  0  0  0  0  0
  -26.0320  -30.7940   21.4310 C   0  0  0  0  0  2  0  0  0  0  0  0
  -26.1300  -29.4130   20.7600 C   0  0  0  0  0  0  0  0  0  0  0  0
  -27.3090  -28.5790   20.7540 C   0  0  0  0  0  3  0  0  0  0  0  0
  -26.1230  -26.8900   19.5090 C   0  0  0  0  0  3  0  0  0  0  0  0
  -24.9710  -27.7050   19.5000 C   0  0  0  0  0  3  0  0  0  0  0  0
  -23.7190  -29.8300   20.1940 C   0  0  0  0  0  2  0  0  0  0  0  0
  -24.7410  -31.0740   22.1400 N   0  0  0  0  0  0  0  0  0  0  0  0
  -23.5600  -32.1340   23.7730 O   0  0  0  0  0  0  0  0  0  0  0  0
  -22.8160  -29.4550   22.5260 C   0  0  0  0  0  0  0  0  0  0  0  0
  -21.4920  -29.2640   22.3900 N   0  0  0  0  0  0  0  0  0  0  0  0
  -23.4940  -28.8310   23.3460 O   0  0  0  0  0  0  0  0  0  0  0  0
  -21.0000  -29.8200   21.7040 H   0  0  0  0  0  0  0  0  0  0  0  0
  -18.1270  -28.0050   22.8600 C   0  0  0  0  0  0  0  0  0  0  0  0
  -20.6810  -28.3040   23.1430 C   0  0  0  0  0  3  0  0  0  0  0  0
  -20.8080  -26.8810   22.5510 C   0  0  0  0  0  2  0  0  0  0  0  0
  -19.7170  -26.5540   21.5270 C   0  0  0  0  0  2  0  0  0  0  0  0
  -18.3290  -26.6700   22.1630 C   0  0  0  0  0  2  0  0  0  0  0  0
  -19.2320  -28.7790   23.3050 C   0  0  0  0  0  0  0  0  0  0  0  0
  -18.9890  -30.0300   23.9160 C   0  0  0  0  0  3  0  0  0  0  0  0
  -17.6750  -30.5060   24.0830 C   0  0  0  0  0  3  0  0  0  0  0  0
  -16.5850  -29.7290   23.6510 C   0  0  0  0  0  3  0  0  0  0  0  0
  -16.8120  -28.4810   23.0460 C   0  0  0  0  0  3  0  0  0  0  0  0
  -25.9190  -32.5210   23.8880 C   0  0  0  0  0  3  0  0  0  0  0  0
  -25.5950  -33.9210   24.2080 N   0  0  0  0  0  0  0  0  0  0  0  0
  -25.9260  -34.9750   23.4500 C   0  0  0  0  0  0  0  0  0  0  0  0
  -26.6020  -34.8720   22.4230 O   0  0  0  0  0  0  0  0  0  0  0  0
  -24.9970  -34.0740   25.0060 H   0  0  0  0  0  0  0  0  0  0  0  0
  -24.1810  -36.7510   23.0950 C   0  0  0  0  0  1  0  0  0  0  0  0
  -25.4310  -36.3630   23.9020 C   0  0  0  0  0  3  0  0  0  0  0  0
  -27.5600  -37.2730   24.7170 C   0  0  0  0  0  1  0  0  0  0  0  0
  -26.4540  -37.4240   23.7750 N   0  0  0  0  0  0  0  0  0  0  0  0
  -26.0410  -38.3420   23.9150 H   0  0  0  0  0  0  0  0  0  0  0  0
  -26.4110  -31.7630   25.1830 C   0  0  1  0  0  0  0  0  0  0  0  0
  -25.2990  -31.5330   26.2320 C   0  0  0  0  0  1  0  0  0  0  0  0
  -27.0080  -30.3850   24.8150 C   0  0  0  0  0  1  0  0  0  0  0  0
  -27.5470  -32.5680   25.8590 C   0  0  0  0  0  1  0  0  0  0  0  0
  2  1  1  1
  4  5  1  0
  5  3  1  0
  5  2  1  0
  6  7  1  0
  6  2  1  0
  7  8  1  0
  9  7  1  0
 12 11  1  6
 12 13  1  0
 12  7  1  0
 12 10  1  0
 13 22  1  0
 14 20  1  0
 14 22  1  0
 15 20  1  0
 16 17  1  0
 16 15  1  0
 18 17  1  0
 18 27  1  0
 18 19  1  0
 20 19  1  0
 21 14  2  0
 22 23  1  0
 24 25  2  0
 25 44  1  0
 26 25  1  0
 26 29  1  0
 27 24  1  0
 27 28  1  0
 28 26  2  0
 29 30  1  0
 30 31  2  0
 32 35  1  0
 32 31  1  0
 33 32  2  0
 34 33  1  0
 34 29  2  0
 35 36  1  0
 36 37  1  0
 37 38  2  0
 39 38  1  0
 39 43  1  0
 40 39  2  0
 41 36  2  0
 41 40  1  0
 42 41  1  0
 44 45  1  0
 45 48  1  0
 45 47  1  0
 46 44  2  0
 49 50  1  0
 49 24  1  0
 51 49  1  0
 52  2  1  0
 52 53  1  0
 54 65  2  0
 55 53  1  0
 55 60  1  0
 56 64  1  0
 56 66  1  0
 57 63  1  0
 57 59  1  0
 58 64  1  0
 59 58  1  0
 60 59  2  0
 61 55  2  0
 62 61  1  0
 62 57  2  0
 63 56  1  0
 64 54  1  0
 66 68  2  0
 67 66  1  0
 69 67  1  0
 70 79  2  0
 70 75  1  0
 71 67  1  0
 71 75  1  0
 72 71  1  0
 73 74  1  0
 73 72  1  0
 74 70  1  0
 75 76  2  0
 76 77  1  0
 78 77  2  0
 79 78  1  0
 80 54  1  0
 80 81  1  0
 80 90  1  0
 81 84  1  0
 82 86  1  0
 82 81  1  0
 83 82  2  0
 86 85  1  0
 88 86  1  0
 88 89  1  0
 88 87  1  0
 90 93  1  1
 90 91  1  0
 92 90  1  0
M  ISO  4  14 100  22 100  52 101  53 101
M  END
>  <TORSDO>  (92) 
F 22

>  <SCORE>  (92) 
-14.017

>  <name>  (92) 
92

>  <ligand_id>  (92) 
92

>  <original_smiles>  (92) 
[H]c1c([H])c([H])c2c(c1[H])C([H])([H])C([H])([H])C([H])([H])C2([H])N([H])C(=O)C1([H])N(C(=O)C([H])(N([H])C(=O)C([H])(N([H])C([H])([H])[H])C([H])([H])[H])C(C([H])([H])[H])(C([H])([H])[H])C([H])([H])[H])C([H])([H])c2c([H])c(OC([H])([H])C(C([H])([H])[H])(C([H])(C([H])([H])[H])C([H])([H])[H])C([H])([H])[N+]([H])([H])C(C([H])([H])[H])(C([H])([H])[H])C([H])([H])N([H])C(=O)N3C([H])([H])C([H])([H])C([H])([H])C([H])(n4nc(-c5c([H])c([H])c(Oc6c([H])c([H])c(F)c([H])c6F)c([H])c5[H])c(C(=O)N([H])[H])c4N([H])[H])C3([H])[H])c([H])c([H])c2C1([H])[H]

>  <smiles>  (92) 
[H]c1c([H])c([H])c2c(c1[H])C([H])([H])C([H])([H])C([H])([H])C2([H])N([H])C(=O)C1([H])N(C(=O)C([H])(N([H])C(=O)C([H])(N([H])C([H])([H])[H])C([H])([H])[H])C(C([H])([H])[H])(C([H])([H])[H])C([H])([H])[H])C([H])([H])c2c([H])c(OC([H])([H])C(C([H])([H])[H])(C([H])(C([H])([H])[H])C([H])([H])[H])C([H])([H])[N+]([H])([H])C(C([H])([H])[H])(C([H])([H])[H])C([H])([H])N([H])C(=O)N3C([H])([H])C([H])([H])C([H])([H])C([H])(n4nc(-c5c([H])c([H])c(Oc6c([H])c([H])c(F)c([H])c6F)c([H])c5[H])c(C(=O)N([H])[H])c4N([H])[H])C3([H])[H])c([H])c([H])c2C1([H])[H]

$$$$
93:0:0
     RDKit          3D

 91 99  0  0  1  0  0  0  0  0999 V2000
  -32.1240  -21.0120   20.1040 C   0  0  0  0  0  2  0  0  0  0  0  0
  -31.5710  -20.4280   21.4000 C   0  0  0  0  0  2  0  0  0  0  0  0
  -31.1130  -22.1260   19.8530 C   0  0  0  0  0  2  0  0  0  0  0  0
  -30.0760  -20.2690   21.0790 C   0  0  0  0  0  3  0  0  0  0  0  0
  -29.7940  -21.5340   20.2310 N   0  0  1  0  0  4  0  0  0  0  0  0
  -29.4650  -21.1330   19.3650 H   0  0  0  0  0  0  0  0  0  0  0  0
  -27.6660  -22.0480   21.5980 C   0  0  0  0  0  1  0  0  0  0  0  0
  -28.6820  -22.5570   20.5530 C   0  0  0  0  0  3  0  0  0  0  0  0
  -28.9900  -24.1320   20.8030 C   0  0  0  0  0  3  0  0  0  0  0  0
  -28.4110  -25.1940   19.7680 C   0  0  0  0  0  3  0  0  0  0  0  0
  -28.4640  -26.6440   20.1010 O   0  0  0  0  0  0  0  0  0  0  0  0
  -24.6920  -31.9370   23.2170 C   0  0  0  0  0  0  0  0  0  0  0  0
  -27.3200  -27.4620   20.0430 C   0  0  0  0  0  0  0  0  0  0  0  0
  -23.4830  -30.5560   21.5660 C   0  0  0  0  0  3  0  0  0  0  0  0
  -24.9340  -29.0480   20.0930 C   0  0  0  0  0  0  0  0  0  0  0  0
  -26.0160  -30.9010   21.3600 C   0  0  0  0  0  2  0  0  0  0  0  0
  -26.1020  -29.5340   20.6920 C   0  0  0  0  0  0  0  0  0  0  0  0
  -27.2930  -28.7510   20.6610 C   0  0  0  0  0  3  0  0  0  0  0  0
  -26.1360  -27.0480   19.3850 C   0  0  0  0  0  3  0  0  0  0  0  0
  -24.9540  -27.8120   19.4310 C   0  0  0  0  0  3  0  0  0  0  0  0
  -23.6890  -29.9100   20.1720 C   0  0  0  0  0  2  0  0  0  0  0  0
  -24.7510  -31.1480   22.1050 N   0  0  0  0  0  0  0  0  0  0  0  0
  -23.6140  -32.1950   23.7680 O   0  0  0  0  0  0  0  0  0  0  0  0
  -22.8460  -29.5120   22.5130 C   0  0  0  0  0  0  0  0  0  0  0  0
  -21.5210  -29.3180   22.4000 N   0  0  0  0  0  0  0  0  0  0  0  0
  -23.5440  -28.8800   23.3120 O   0  0  0  0  0  0  0  0  0  0  0  0
  -21.0150  -29.8910   21.7390 H   0  0  0  0  0  0  0  0  0  0  0  0
  -18.1670  -28.0660   22.9170 C   0  0  0  0  0  0  0  0  0  0  0  0
  -20.7240  -28.3570   23.1650 C   0  0  0  0  0  3  0  0  0  0  0  0
  -20.8370  -26.9340   22.5680 C   0  0  0  0  0  2  0  0  0  0  0  0
  -19.7320  -26.6120   21.5580 C   0  0  0  0  0  2  0  0  0  0  0  0
  -18.3550  -26.7290   22.2200 C   0  0  0  0  0  2  0  0  0  0  0  0
  -19.2800  -28.8380   23.3470 C   0  0  0  0  0  0  0  0  0  0  0  0
  -19.0520  -30.0880   23.9600 C   0  0  0  0  0  3  0  0  0  0  0  0
  -17.7420  -30.5700   24.1470 C   0  0  0  0  0  3  0  0  0  0  0  0
  -16.6440  -29.7960   23.7340 C   0  0  0  0  0  3  0  0  0  0  0  0
  -16.8590  -28.5470   23.1240 C   0  0  0  0  0  3  0  0  0  0  0  0
  -25.9770  -32.5750   23.8330 C   0  0  0  0  0  3  0  0  0  0  0  0
  -25.6580  -33.9670   24.1770 N   0  0  0  0  0  0  0  0  0  0  0  0
  -25.9660  -35.0320   23.4230 C   0  0  0  0  0  0  0  0  0  0  0  0
  -26.6210  -34.9430   22.3800 O   0  0  0  0  0  0  0  0  0  0  0  0
  -25.0760  -34.1100   24.9910 H   0  0  0  0  0  0  0  0  0  0  0  0
  -24.2130  -36.8110   23.1120 C   0  0  0  0  0  1  0  0  0  0  0  0
  -25.4710  -36.4100   23.8990 C   0  0  0  0  0  3  0  0  0  0  0  0
  -27.6090  -37.3120   24.7040 C   0  0  0  0  0  1  0  0  0  0  0  0
  -26.4900  -37.4750   23.7810 N   0  0  0  0  0  0  0  0  0  0  0  0
  -26.0760  -38.3890   23.9440 H   0  0  0  0  0  0  0  0  0  0  0  0
  -26.5110  -31.7990   25.1000 C   0  0  1  0  0  0  0  0  0  0  0  0
  -25.4320  -31.5450   26.1780 C   0  0  0  0  0  1  0  0  0  0  0  0
  -27.0970  -30.4270   24.6950 C   0  0  0  0  0  1  0  0  0  0  0  0
  -27.6650  -32.5950   25.7560 C   0  0  0  0  0  1  0  0  0  0  0  0
  -29.7850  -18.8070   20.4000 C   0  0  0  0  0  3  0  0  0  0  0  0
  -30.4580  -17.4450   20.9920 C   0  0  0  0  0  3  0  0  0  0  0  0
  -30.5980  -14.8900   20.2900 C   0  0  0  0  0  0  0  0  0  0  0  0
  -30.3290  -12.6380   19.2090 C   0  0  0  0  0  2  0  0  0  0  0  0
  -29.3700  -12.7420   18.0040 C   0  0  0  0  0  2  0  0  0  0  0  0
  -27.9110  -12.5390   18.4590 C   0  0  0  0  0  2  0  0  0  0  0  0
  -27.5600  -13.3970   19.7030 C   0  0  0  0  0  3  0  0  0  0  0  0
  -28.6480  -13.3130   20.7990 C   0  0  0  0  0  2  0  0  0  0  0  0
  -29.9300  -13.6860   20.1830 N   0  0  0  0  0  0  0  0  0  0  0  0
  -31.7630  -14.9790   19.8920 O   0  0  0  0  0  0  0  0  0  0  0  0
  -29.9210  -16.0360   20.6830 N   0  0  0  0  0  0  0  0  0  0  0  0
  -28.9600  -15.8770   20.9420 H   0  0  0  0  0  0  0  0  0  0  0  0
  -25.1720  -13.9460   20.4690 C   0  0  0  0  0  0  0  0  0  0  0  0
  -24.1250  -13.1560   20.8520 C   0  0  0  0  0  0  0  0  0  0  0  0
  -24.6070  -11.8110   20.8110 C   0  0  0  0  0  0  0  0  0  0  0  0
  -26.2280  -13.0840   20.2180 N   0  0  0  0  0  0  0  0  0  0  0  0
  -25.8960  -11.7950   20.4870 N   0  0  0  0  0  0  0  0  0  0  0  0
  -23.9010  -10.5390   21.0070 C   0  0  0  0  0  0  0  0  0  0  0  0
  -24.3560   -9.5780   21.9400 C   0  0  0  0  0  3  0  0  0  0  0  0
  -23.6450   -8.3730   22.1290 C   0  0  0  0  0  3  0  0  0  0  0  0
  -22.4710   -8.1190   21.3820 C   0  0  0  0  0  0  0  0  0  0  0  0
  -22.0350   -9.0650   20.4390 C   0  0  0  0  0  3  0  0  0  0  0  0
  -22.7440  -10.2620   20.2490 C   0  0  0  0  0  3  0  0  0  0  0  0
  -21.7310   -6.9630   21.4750 O   0  0  0  0  0  0  0  0  0  0  0  0
  -21.6940   -6.2230   22.6280 C   0  0  0  0  0  0  0  0  0  0  0  0
  -21.2600   -6.7740   23.8540 C   0  0  0  0  0  3  0  0  0  0  0  0
  -21.1760   -5.9620   25.0010 C   0  0  0  0  0  3  0  0  0  0  0  0
  -21.5140   -4.5960   24.9230 C   0  0  0  0  0  0  0  0  0  0  0  0
  -21.9380   -4.0430   23.7020 C   0  0  0  0  0  3  0  0  0  0  0  0
  -22.0240   -4.8540   22.5580 C   0  0  0  0  0  0  0  0  0  0  0  0
  -22.4160   -4.3110   21.3780 F   0  0  0  0  0  0  0  0  0  0  0  0
  -21.4230   -3.8150   26.0240 F   0  0  0  0  0  0  0  0  0  0  0  0
  -22.7260  -13.6130   21.1440 C   0  0  0  0  0  0  0  0  0  0  0  0
  -22.0220  -12.9040   22.0180 N   0  0  0  0  0  0  0  0  0  0  0  0
  -22.2680  -14.6370   20.6370 O   0  0  0  0  0  0  0  0  0  0  0  0
  -22.4130  -12.0770   22.4440 H   0  0  0  0  0  0  0  0  0  0  0  0
  -21.0850  -13.1920   22.2600 H   0  0  0  0  0  0  0  0  0  0  0  0
  -25.3070  -15.3210   20.2910 N   0  0  0  0  0  0  0  0  0  0  0  0
  -24.5060  -15.9390   20.3740 H   0  0  0  0  0  0  0  0  0  0  0  0
  -26.1260  -15.7850   19.9190 H   0  0  0  0  0  0  0  0  0  0  0  0
  1  2  1  0
  3  1  1  0
  3  5  1  0
  4 52  1  0
  4  2  1  0
  5  8  1  0
  5  4  1  0
  5  6  1  6
  8  9  1  0
  8  7  1  0
 10 11  1  0
 10  9  2  0
 12 23  2  0
 13 11  1  0
 13 18  1  0
 14 22  1  0
 14 24  1  0
 15 21  1  0
 15 17  1  0
 16 22  1  0
 17 16  1  0
 18 17  2  0
 19 20  1  0
 19 13  2  0
 20 15  2  0
 21 14  1  0
 22 12  1  0
 24 26  2  0
 25 24  1  0
 27 25  1  0
 28 37  2  0
 28 33  1  0
 29 25  1  0
 29 33  1  0
 30 29  1  0
 31 32  1  0
 31 30  1  0
 32 28  1  0
 33 34  2  0
 34 35  1  0
 36 35  2  0
 37 36  1  0
 38 12  1  0
 38 39  1  0
 38 48  1  0
 39 42  1  0
 40 44  1  0
 40 39  1  0
 41 40  2  0
 44 43  1  0
 46 44  1  0
 46 47  1  0
 46 45  1  0
 48 51  1  1
 48 49  1  0
 50 48  1  0
 52 53  2  0
 54 62  1  0
 55 60  1  0
 56 57  1  0
 56 55  1  0
 58 57  1  0
 58 67  1  0
 58 59  1  0
 60 54  1  0
 60 59  1  0
 61 54  2  0
 62 63  1  0
 62 53  1  0
 64 65  2  0
 65 84  1  0
 66 65  1  0
 66 69  1  0
 67 64  1  0
 67 68  1  0
 68 66  2  0
 69 70  1  0
 70 71  2  0
 72 75  1  0
 72 71  1  0
 73 72  2  0
 74 73  1  0
 74 69  2  0
 75 76  1  0
 76 77  1  0
 77 78  2  0
 79 78  1  0
 79 83  1  0
 80 79  2  0
 81 76  2  0
 81 80  1  0
 82 81  1  0
 84 85  1  0
 85 88  1  0
 85 87  1  0
 86 84  2  0
 89 90  1  0
 89 64  1  0
 91 89  1  0
M  ISO  4  10 101  11 101  54 100  62 100
M  END
>  <TORSDO>  (93) 
F 21

>  <SCORE>  (93) 
-13.406

>  <name>  (93) 
93

>  <ligand_id>  (93) 
93

>  <original_smiles>  (93) 
[H]c1c([H])c([H])c2c(c1[H])C([H])([H])C([H])([H])C([H])([H])C2([H])N([H])C(=O)C1([H])N(C(=O)C([H])(N([H])C(=O)C([H])(N([H])C([H])([H])[H])C([H])([H])[H])C(C([H])([H])[H])(C([H])([H])[H])C([H])([H])[H])C([H])([H])c2c([H])c(OC([H])([H])C([H])([H])C([H])(C([H])([H])[H])[N+]3([H])C([H])([H])C([H])([H])C([H])([H])C3([H])C([H])([H])C([H])([H])N([H])C(=O)N3C([H])([H])C([H])([H])C([H])([H])C([H])(n4nc(-c5c([H])c([H])c(Oc6c([H])c([H])c(F)c([H])c6F)c([H])c5[H])c(C(=O)N([H])[H])c4N([H])[H])C3([H])[H])c([H])c([H])c2C1([H])[H]

>  <smiles>  (93) 
[H]c1c([H])c([H])c2c(c1[H])C([H])([H])C([H])([H])C([H])([H])C2([H])N([H])C(=O)C1([H])N(C(=O)C([H])(N([H])C(=O)C([H])(N([H])C([H])([H])[H])C([H])([H])[H])C(C([H])([H])[H])(C([H])([H])[H])C([H])([H])[H])C([H])([H])c2c([H])c(OC([H])([H])C([H])([H])C([H])(C([H])([H])[H])[N+]3([H])C([H])([H])C([H])([H])C([H])([H])C3([H])C([H])([H])C([H])([H])N([H])C(=O)N3C([H])([H])C([H])([H])C([H])([H])C([H])(n4nc(-c5c([H])c([H])c(Oc6c([H])c([H])c(F)c([H])c6F)c([H])c5[H])c(C(=O)N([H])[H])c4N([H])[H])C3([H])[H])c([H])c([H])c2C1([H])[H]

$$$$
94:0:0
     RDKit          3D

 98107  0  0  1  0  0  0  0  0999 V2000
  -29.1260  -22.0100   19.1350 C   0  0  0  0  0  3  0  0  0  0  0  0
  -29.2040  -21.2660   21.2050 C   0  0  0  0  0  3  0  0  0  0  0  0
  -29.2380  -20.6320   19.0800 C   0  0  0  0  0  0  0  0  0  0  0  0
  -29.2790  -20.1110   20.4190 C   0  0  0  0  0  0  0  0  0  0  0  0
  -29.0580  -22.4600   20.4430 N   0  0  0  0  0  0  0  0  0  0  0  0
  -27.9350  -19.9340   17.0320 C   0  0  0  0  0  2  0  0  0  0  0  0
  -30.4390  -20.1520   16.8760 C   0  0  0  0  0  2  0  0  0  0  0  0
  -27.9530  -19.0870   15.7450 C   0  0  0  0  0  2  0  0  0  0  0  0
  -30.4080  -19.2970   15.5950 C   0  0  0  0  0  2  0  0  0  0  0  0
  -29.2580  -19.8050   17.8080 C   0  0  0  0  0  3  0  0  0  0  0  0
  -29.1140  -19.4300   14.8930 N   0  0  0  0  0  4  0  0  0  0  0  0
  -29.0130  -20.3740   14.5560 H   0  0  0  0  0  0  0  0  0  0  0  0
  -29.1170  -18.8280   14.0850 H   0  0  0  0  0  0  0  0  0  0  0  0
  -28.4670  -23.9500   22.3620 C   0  0  0  0  0  1  0  0  0  0  0  0
  -30.4530  -24.4450   20.9200 C   0  0  0  0  0  1  0  0  0  0  0  0
  -29.0060  -23.9280   20.9180 C   0  0  1  0  0  0  0  0  0  0  0  0
  -28.1110  -24.9950   20.0830 C   0  0  0  0  0  2  0  0  0  0  0  0
  -28.2920  -26.4780   20.2900 O   0  0  0  0  0  0  0  0  0  0  0  0
  -24.5750  -31.9700   23.2330 C   0  0  0  0  0  0  0  0  0  0  0  0
  -27.1840  -27.3540   20.2130 C   0  0  0  0  0  0  0  0  0  0  0  0
  -23.3690  -30.5480   21.6160 C   0  0  0  0  0  3  0  0  0  0  0  0
  -24.8190  -28.9880   20.1940 C   0  0  0  0  0  0  0  0  0  0  0  0
  -25.9100  -30.8640   21.4200 C   0  0  0  0  0  2  0  0  0  0  0  0
  -25.9900  -29.4770   20.7840 C   0  0  0  0  0  0  0  0  0  0  0  0
  -27.1740  -28.6720   20.7830 C   0  0  0  0  0  3  0  0  0  0  0  0
  -25.9900  -26.9360   19.5820 C   0  0  0  0  0  3  0  0  0  0  0  0
  -24.8240  -27.7250   19.5800 C   0  0  0  0  0  3  0  0  0  0  0  0
  -23.5790  -29.8590   20.2420 C   0  0  0  0  0  2  0  0  0  0  0  0
  -24.6370  -31.1460   22.1450 N   0  0  0  0  0  0  0  0  0  0  0  0
  -23.4930  -32.2500   23.7700 O   0  0  0  0  0  0  0  0  0  0  0  0
  -22.7140  -29.5410   22.5920 C   0  0  0  0  0  0  0  0  0  0  0  0
  -21.3910  -29.3420   22.4620 N   0  0  0  0  0  0  0  0  0  0  0  0
  -23.3960  -28.9400   23.4280 O   0  0  0  0  0  0  0  0  0  0  0  0
  -20.8990  -29.8770   21.7610 H   0  0  0  0  0  0  0  0  0  0  0  0
  -18.0250  -28.1220   22.9860 C   0  0  0  0  0  0  0  0  0  0  0  0
  -20.5820  -28.4060   23.2460 C   0  0  0  0  0  3  0  0  0  0  0  0
  -20.6940  -26.9690   22.6870 C   0  0  0  0  0  2  0  0  0  0  0  0
  -19.5920  -26.6260   21.6800 C   0  0  0  0  0  2  0  0  0  0  0  0
  -18.2110  -26.7660   22.3260 C   0  0  0  0  0  2  0  0  0  0  0  0
  -19.1380  -28.8980   23.4040 C   0  0  0  0  0  0  0  0  0  0  0  0
  -18.9090  -30.1650   23.9830 C   0  0  0  0  0  3  0  0  0  0  0  0
  -17.6010  -30.6570   24.1490 C   0  0  0  0  0  3  0  0  0  0  0  0
  -16.5020  -29.8780   23.7470 C   0  0  0  0  0  3  0  0  0  0  0  0
  -16.7140  -28.6120   23.1710 C   0  0  0  0  0  3  0  0  0  0  0  0
  -25.8580  -32.6160   23.8420 C   0  0  0  0  0  3  0  0  0  0  0  0
  -25.5390  -34.0140   24.1690 N   0  0  0  0  0  0  0  0  0  0  0  0
  -25.8820  -35.0700   23.4200 C   0  0  0  0  0  0  0  0  0  0  0  0
  -26.5690  -34.9710   22.3990 O   0  0  0  0  0  0  0  0  0  0  0  0
  -24.9320  -34.1650   24.9610 H   0  0  0  0  0  0  0  0  0  0  0  0
  -24.1590  -36.8640   23.0430 C   0  0  0  0  0  1  0  0  0  0  0  0
  -25.3860  -36.4570   23.8740 C   0  0  0  0  0  3  0  0  0  0  0  0
  -27.4990  -37.3460   24.7540 C   0  0  0  0  0  1  0  0  0  0  0  0
  -26.4210  -37.5110   23.7840 N   0  0  0  0  0  0  0  0  0  0  0  0
  -26.0100  -38.4300   23.9190 H   0  0  0  0  0  0  0  0  0  0  0  0
  -26.3900  -31.8550   25.1180 C   0  0  1  0  0  0  0  0  0  0  0  0
  -25.3000  -31.5890   26.1810 C   0  0  0  0  0  1  0  0  0  0  0  0
  -27.0100  -30.4940   24.7270 C   0  0  0  0  0  1  0  0  0  0  0  0
  -27.5160  -32.6800   25.7860 C   0  0  0  0  0  1  0  0  0  0  0  0
  -29.2340  -18.5730   20.8680 C   0  0  0  0  0  3  0  0  0  0  0  0
  -30.3170  -17.4500   20.4430 C   0  0  0  0  0  3  0  0  0  0  0  0
  -30.7740  -14.8580   20.4740 C   0  0  0  0  0  0  0  0  0  0  0  0
  -30.5560  -12.6220   19.3890 C   0  0  0  0  0  2  0  0  0  0  0  0
  -29.6260  -12.7650   18.1640 C   0  0  0  0  0  2  0  0  0  0  0  0
  -28.1510  -12.5920   18.5780 C   0  0  0  0  0  2  0  0  0  0  0  0
  -27.7830  -13.4280   19.8340 C   0  0  0  0  0  3  0  0  0  0  0  0
  -28.8360  -13.2810   20.9540 C   0  0  0  0  0  2  0  0  0  0  0  0
  -30.1400  -13.6390   20.3830 N   0  0  0  0  0  0  0  0  0  0  0  0
  -31.9480  -14.9740   20.1160 O   0  0  0  0  0  0  0  0  0  0  0  0
  -30.0090  -15.9790   20.7420 N   0  0  0  0  0  0  0  0  0  0  0  0
  -29.0640  -15.7800   21.0320 H   0  0  0  0  0  0  0  0  0  0  0  0
  -25.3850  -14.0000   20.5430 C   0  0  0  0  0  0  0  0  0  0  0  0
  -24.3180  -13.2190   20.8930 C   0  0  0  0  0  0  0  0  0  0  0  0
  -24.7870  -11.8690   20.8510 C   0  0  0  0  0  0  0  0  0  0  0  0
  -26.4340  -13.1280   20.3070 N   0  0  0  0  0  0  0  0  0  0  0  0
  -26.0810  -11.8400   20.5540 N   0  0  0  0  0  0  0  0  0  0  0  0
  -24.0630  -10.6020   21.0200 C   0  0  0  0  0  0  0  0  0  0  0  0
  -24.4590   -9.6460   21.9810 C   0  0  0  0  0  3  0  0  0  0  0  0
  -23.7340   -8.4450   22.1360 C   0  0  0  0  0  3  0  0  0  0  0  0
  -22.6000   -8.1900   21.3300 C   0  0  0  0  0  0  0  0  0  0  0  0
  -22.2240   -9.1350   20.3580 C   0  0  0  0  0  3  0  0  0  0  0  0
  -22.9500  -10.3270   20.2010 C   0  0  0  0  0  3  0  0  0  0  0  0
  -21.8520   -7.0400   21.3920 O   0  0  0  0  0  0  0  0  0  0  0  0
  -21.7200   -6.3290   22.5590 C   0  0  0  0  0  0  0  0  0  0  0  0
  -21.1480   -6.8990   23.7170 C   0  0  0  0  0  3  0  0  0  0  0  0
  -20.9670   -6.1120   24.8720 C   0  0  0  0  0  3  0  0  0  0  0  0
  -21.3490   -4.7580   24.8700 C   0  0  0  0  0  0  0  0  0  0  0  0
  -21.9130   -4.1870   23.7150 C   0  0  0  0  0  3  0  0  0  0  0  0
  -22.0950   -4.9710   22.5630 C   0  0  0  0  0  0  0  0  0  0  0  0
  -22.6200   -4.4100   21.4460 F   0  0  0  0  0  0  0  0  0  0  0  0
  -21.1680   -4.0000   25.9770 F   0  0  0  0  0  0  0  0  0  0  0  0
  -22.9170  -13.6870   21.1580 C   0  0  0  0  0  0  0  0  0  0  0  0
  -22.1860  -12.9800   22.0130 N   0  0  0  0  0  0  0  0  0  0  0  0
  -22.4790  -14.7140   20.6410 O   0  0  0  0  0  0  0  0  0  0  0  0
  -22.5550  -12.1500   22.4520 H   0  0  0  0  0  0  0  0  0  0  0  0
  -21.2450  -13.2760   22.2340 H   0  0  0  0  0  0  0  0  0  0  0  0
  -25.5430  -15.3740   20.3800 N   0  0  0  0  0  0  0  0  0  0  0  0
  -24.7700  -16.0210   20.4960 H   0  0  0  0  0  0  0  0  0  0  0  0
  -26.3890  -15.8240   20.0580 H   0  0  0  0  0  0  0  0  0  0  0  0
  1  5  1  0
  3  1  2  0
  3  4  1  0
  4 59  1  0
  4  2  2  0
  5 16  1  0
  5  2  1  0
  6 10  1  0
  7 10  1  0
  8  6  1  0
  9  7  1  0
 10  3  1  0
 11  9  1  0
 11  8  1  0
 12 11  1  0
 13 11  1  0
 16 15  1  1
 16 14  1  0
 17 18  1  0
 17 16  1  0
 19 30  2  0
 20 18  1  0
 20 25  1  0
 21 29  1  0
 21 31  1  0
 22 28  1  0
 22 24  1  0
 23 29  1  0
 24 23  1  0
 25 24  2  0
 26 20  2  0
 27 26  1  0
 27 22  2  0
 28 21  1  0
 29 19  1  0
 31 33  2  0
 32 31  1  0
 34 32  1  0
 35 44  2  0
 35 40  1  0
 36 32  1  0
 36 40  1  0
 37 36  1  0
 38 39  1  0
 38 37  1  0
 39 35  1  0
 40 41  2  0
 41 42  1  0
 43 42  2  0
 44 43  1  0
 45 19  1  0
 45 46  1  0
 45 55  1  0
 46 49  1  0
 47 51  1  0
 47 46  1  0
 48 47  2  0
 51 50  1  0
 53 51  1  0
 53 54  1  0
 53 52  1  0
 55 58  1  1
 55 56  1  0
 57 55  1  0
 60 69  1  0
 60 59  2  0
 61 69  1  0
 62 67  1  0
 63 64  1  0
 63 62  1  0
 65 64  1  0
 65 74  1  0
 65 66  1  0
 67 61  1  0
 67 66  1  0
 68 61  2  0
 69 70  1  0
 71 72  2  0
 72 91  1  0
 73 72  1  0
 73 76  1  0
 74 71  1  0
 74 75  1  0
 75 73  2  0
 76 77  1  0
 77 78  2  0
 79 82  1  0
 79 78  1  0
 80 79  2  0
 81 80  1  0
 81 76  2  0
 82 83  1  0
 83 88  2  0
 83 84  1  0
 84 85  2  0
 86 85  1  0
 86 90  1  0
 87 86  2  0
 88 87  1  0
 89 88  1  0
 91 92  1  0
 92 95  1  0
 92 94  1  0
 93 91  2  0
 96 97  1  0
 96 71  1  0
 98 96  1  0
M  ISO  4  17 101  18 101  61 100  69 100
M  END
>  <TORSDO>  (94) 
F 21

>  <SCORE>  (94) 
-13.534

>  <name>  (94) 
94

>  <ligand_id>  (94) 
94

>  <original_smiles>  (94) 
[H]c1c([H])c([H])c2c(c1[H])C([H])([H])C([H])([H])C([H])([H])C2([H])N([H])C(=O)C1([H])N(C(=O)C([H])(N([H])C(=O)C([H])(N([H])C([H])([H])[H])C([H])([H])[H])C(C([H])([H])[H])(C([H])([H])[H])C([H])([H])[H])C([H])([H])c2c([H])c(OC([H])([H])C(n3c([H])c(C([H])([H])C([H])([H])N([H])C(=O)N4C([H])([H])C([H])([H])C([H])([H])C([H])(n5nc(-c6c([H])c([H])c(Oc7c([H])c([H])c(F)c([H])c7F)c([H])c6[H])c(C(=O)N([H])[H])c5N([H])[H])C4([H])[H])c(C4([H])C([H])([H])C([H])([H])[N+]([H])([H])C([H])([H])C4([H])[H])c3[H])(C([H])([H])[H])C([H])([H])[H])c([H])c([H])c2C1([H])[H]

>  <smiles>  (94) 
[H]c1c([H])c([H])c2c(c1[H])C([H])([H])C([H])([H])C([H])([H])C2([H])N([H])C(=O)C1([H])N(C(=O)C([H])(N([H])C(=O)C([H])(N([H])C([H])([H])[H])C([H])([H])[H])C(C([H])([H])[H])(C([H])([H])[H])C([H])([H])[H])C([H])([H])c2c([H])c(OC([H])([H])C(n3c([H])c(C([H])([H])C([H])([H])N([H])C(=O)N4C([H])([H])C([H])([H])C([H])([H])C([H])(n5nc(-c6c([H])c([H])c(Oc7c([H])c([H])c(F)c([H])c7F)c([H])c6[H])c(C(=O)N([H])[H])c5N([H])[H])C4([H])[H])c(C4([H])C([H])([H])C([H])([H])[N+]([H])([H])C([H])([H])C4([H])[H])c3[H])(C([H])([H])[H])C([H])([H])[H])c([H])c([H])c2C1([H])[H]

$$$$
95:0:0
     RDKit          3D

 94102  0  0  1  0  0  0  0  0999 V2000
  -30.0490  -22.3270   21.8550 C   0  0  0  0  0  3  0  0  0  0  0  0
  -30.3430  -20.1360   21.8330 C   0  0  0  0  0  3  0  0  0  0  0  0
  -30.6230  -21.2450   22.5660 C   0  0  0  0  0  0  0  0  0  0  0  0
  -29.4070  -21.9180   20.7130 C   0  0  0  0  0  0  0  0  0  0  0  0
  -29.6140  -20.4150   20.6820 N   0  0  0  0  0  0  0  0  0  0  0  0
  -30.8930  -22.4370   24.7650 C   0  0  0  0  0  1  0  0  0  0  0  0
  -32.9020  -21.5660   23.5280 C   0  0  0  0  0  1  0  0  0  0  0  0
  -31.3140  -19.9760   24.6360 C   0  0  0  0  0  1  0  0  0  0  0  0
  -31.4220  -21.3060   23.8620 C   0  0  2  0  0  0  0  0  0  0  0  0
  -27.6120  -22.5160   18.9940 C   0  0  0  0  0  1  0  0  0  0  0  0
  -29.8670  -23.5340   18.7780 C   0  0  0  0  0  1  0  0  0  0  0  0
  -28.7840  -23.1210   19.7860 C   0  0  2  0  0  0  0  0  0  0  0  0
  -28.2050  -24.5950   20.4650 C   0  0  0  0  0  2  0  0  0  0  0  0
  -28.3740  -26.0960   20.0530 O   0  0  0  0  0  0  0  0  0  0  0  0
  -24.5800  -31.6910   23.0800 C   0  0  0  0  0  0  0  0  0  0  0  0
  -27.2870  -27.0470   20.0530 C   0  0  0  0  0  0  0  0  0  0  0  0
  -23.4290  -30.2940   21.4070 C   0  0  0  0  0  3  0  0  0  0  0  0
  -24.9270  -28.7520   19.9940 C   0  0  0  0  0  0  0  0  0  0  0  0
  -25.9800  -30.6040   21.2840 C   0  0  0  0  0  2  0  0  0  0  0  0
  -26.0900  -29.2180   20.6210 C   0  0  0  0  0  0  0  0  0  0  0  0
  -27.2730  -28.3840   20.6260 C   0  0  0  0  0  3  0  0  0  0  0  0
  -26.0950  -26.6790   19.3950 C   0  0  0  0  0  3  0  0  0  0  0  0
  -24.9420  -27.4970   19.3630 C   0  0  0  0  0  3  0  0  0  0  0  0
  -23.6840  -29.6310   20.0260 C   0  0  0  0  0  2  0  0  0  0  0  0
  -24.6820  -30.8850   21.9790 N   0  0  0  0  0  0  0  0  0  0  0  0
  -23.4810  -31.9520   23.5940 O   0  0  0  0  0  0  0  0  0  0  0  0
  -22.7510  -29.2670   22.3490 C   0  0  0  0  0  0  0  0  0  0  0  0
  -21.4280  -29.0790   22.2000 N   0  0  0  0  0  0  0  0  0  0  0  0
  -23.4190  -28.6430   23.1760 O   0  0  0  0  0  0  0  0  0  0  0  0
  -20.9450  -29.6350   21.5070 H   0  0  0  0  0  0  0  0  0  0  0  0
  -18.0540  -27.8390   22.6520 C   0  0  0  0  0  0  0  0  0  0  0  0
  -20.6080  -28.1220   22.9470 C   0  0  0  0  0  3  0  0  0  0  0  0
  -20.7280  -26.7010   22.3500 C   0  0  0  0  0  2  0  0  0  0  0  0
  -19.6380  -26.3840   21.3200 C   0  0  0  0  0  2  0  0  0  0  0  0
  -18.2490  -26.5040   21.9540 C   0  0  0  0  0  2  0  0  0  0  0  0
  -19.1600  -28.6060   23.1050 C   0  0  0  0  0  0  0  0  0  0  0  0
  -18.9220  -29.8540   23.7190 C   0  0  0  0  0  3  0  0  0  0  0  0
  -17.6090  -30.3360   23.8850 C   0  0  0  0  0  3  0  0  0  0  0  0
  -16.5180  -29.5680   23.4470 C   0  0  0  0  0  3  0  0  0  0  0  0
  -16.7400  -28.3200   22.8370 C   0  0  0  0  0  3  0  0  0  0  0  0
  -25.8370  -32.3410   23.7360 C   0  0  0  0  0  3  0  0  0  0  0  0
  -25.4940  -33.7280   24.0880 N   0  0  0  0  0  0  0  0  0  0  0  0
  -25.8160  -34.8030   23.3570 C   0  0  0  0  0  0  0  0  0  0  0  0
  -26.4990  -34.7340   22.3320 O   0  0  0  0  0  0  0  0  0  0  0  0
  -24.8860  -33.8550   24.8830 H   0  0  0  0  0  0  0  0  0  0  0  0
  -24.0560  -36.5730   23.0300 C   0  0  0  0  0  1  0  0  0  0  0  0
  -25.3020  -36.1750   23.8380 C   0  0  0  0  0  3  0  0  0  0  0  0
  -27.4130  -37.0880   24.6990 C   0  0  0  0  0  1  0  0  0  0  0  0
  -26.3150  -37.2490   23.7500 N   0  0  0  0  0  0  0  0  0  0  0  0
  -25.8910  -38.1590   23.9080 H   0  0  0  0  0  0  0  0  0  0  0  0
  -26.3430  -31.5600   25.0110 C   0  0  1  0  0  0  0  0  0  0  0  0
  -25.2340  -31.2900   26.0560 C   0  0  0  0  0  1  0  0  0  0  0  0
  -26.9570  -30.1990   24.6170 C   0  0  0  0  0  1  0  0  0  0  0  0
  -27.4670  -32.3660   25.7050 C   0  0  0  0  0  1  0  0  0  0  0  0
  -29.2900  -19.1240   19.8210 C   0  0  0  0  0  3  0  0  0  0  0  0
  -30.0120  -17.5970   20.1640 C   0  0  0  0  0  3  0  0  0  0  0  0
  -30.3130  -14.9070   19.5870 C   0  0  0  0  0  0  0  0  0  0  0  0
  -30.0460  -12.5780   18.5980 C   0  0  0  0  0  2  0  0  0  0  0  0
  -28.9590  -12.5340   17.5020 C   0  0  0  0  0  2  0  0  0  0  0  0
  -27.5660  -12.3000   18.1200 C   0  0  0  0  0  2  0  0  0  0  0  0
  -27.3080  -13.1850   19.3660 C   0  0  0  0  0  3  0  0  0  0  0  0
  -28.5100  -13.2190   20.3320 C   0  0  0  0  0  2  0  0  0  0  0  0
  -29.6750  -13.6620   19.5520 N   0  0  0  0  0  0  0  0  0  0  0  0
  -31.5260  -14.9070   19.3510 O   0  0  0  0  0  0  0  0  0  0  0  0
  -28.5000  -16.3320   18.6800 C   0  0  0  0  0  1  0  0  0  0  0  0
  -29.5830  -16.1540   19.6500 N   0  0  0  0  0  0  0  0  0  0  0  0
  -25.0380  -13.7480   20.3950 C   0  0  0  0  0  0  0  0  0  0  0  0
  -24.0300  -12.9620   20.8760 C   0  0  0  0  0  0  0  0  0  0  0  0
  -24.5020  -11.6160   20.7850 C   0  0  0  0  0  0  0  0  0  0  0  0
  -26.0520  -12.8760   20.0300 N   0  0  0  0  0  0  0  0  0  0  0  0
  -25.7480  -11.5900   20.3320 N   0  0  0  0  0  0  0  0  0  0  0  0
  -23.8150  -10.3470   21.0470 C   0  0  0  0  0  0  0  0  0  0  0  0
  -24.3190   -9.4170   21.9820 C   0  0  0  0  0  3  0  0  0  0  0  0
  -23.6300   -8.2110   22.2310 C   0  0  0  0  0  3  0  0  0  0  0  0
  -22.4250   -7.9270   21.5440 C   0  0  0  0  0  0  0  0  0  0  0  0
  -21.9420   -8.8460   20.5960 C   0  0  0  0  0  3  0  0  0  0  0  0
  -22.6310  -10.0440   20.3450 C   0  0  0  0  0  3  0  0  0  0  0  0
  -21.7010   -6.7700   21.7040 O   0  0  0  0  0  0  0  0  0  0  0  0
  -21.6870   -6.0910   22.8960 C   0  0  0  0  0  0  0  0  0  0  0  0
  -21.2550   -6.7000   24.0950 C   0  0  0  0  0  3  0  0  0  0  0  0
  -21.1870   -5.9440   25.2820 C   0  0  0  0  0  3  0  0  0  0  0  0
  -21.5420   -4.5820   25.2720 C   0  0  0  0  0  0  0  0  0  0  0  0
  -21.9690   -3.9730   24.0780 C   0  0  0  0  0  3  0  0  0  0  0  0
  -22.0360   -4.7260   22.8930 C   0  0  0  0  0  0  0  0  0  0  0  0
  -22.4260   -4.1300   21.7400 F   0  0  0  0  0  0  0  0  0  0  0  0
  -21.4710   -3.8540   26.4110 F   0  0  0  0  0  0  0  0  0  0  0  0
  -22.6680  -13.4240   21.3040 C   0  0  0  0  0  0  0  0  0  0  0  0
  -22.0540  -12.7250   22.2510 N   0  0  0  0  0  0  0  0  0  0  0  0
  -22.1610  -14.4410   20.8320 O   0  0  0  0  0  0  0  0  0  0  0  0
  -22.4810  -11.9020   22.6520 H   0  0  0  0  0  0  0  0  0  0  0  0
  -21.1440  -13.0160   22.5810 H   0  0  0  0  0  0  0  0  0  0  0  0
  -25.1680  -15.1210   20.2130 N   0  0  0  0  0  0  0  0  0  0  0  0
  -24.4160  -15.7660   20.4310 H   0  0  0  0  0  0  0  0  0  0  0  0
  -25.9840  -15.5770   19.8270 H   0  0  0  0  0  0  0  0  0  0  0  0
  1  3  1  0
  2  3  2  0
  3  9  1  0
  4  1  2  0
  5  4  1  0
  5  2  1  0
  9  7  1  6
  9  8  1  0
  9  6  1  0
 12 10  1  6
 11 12  1  0
 12 13  1  0
 12  4  1  0
 14 16  1  0
 14 13  1  0
 15 26  2  0
 16 21  1  0
 17 25  1  0
 17 27  1  0
 18 24  1  0
 18 20  1  0
 19 25  1  0
 20 21  2  0
 20 19  1  0
 22 16  2  0
 23 22  1  0
 23 18  2  0
 24 17  1  0
 25 15  1  0
 27 29  2  0
 28 27  1  0
 30 28  1  0
 31 40  2  0
 31 36  1  0
 32 28  1  0
 32 36  1  0
 33 32  1  0
 34 35  1  0
 34 33  1  0
 35 31  1  0
 36 37  2  0
 37 38  1  0
 39 38  2  0
 40 39  1  0
 41 15  1  0
 41 42  1  0
 41 51  1  0
 42 45  1  0
 43 47  1  0
 43 42  1  0
 44 43  2  0
 47 46  1  0
 49 47  1  0
 49 50  1  0
 49 48  1  0
 51 54  1  1
 51 52  1  0
 53 51  1  0
 55 56  2  0
 55  5  1  0
 57 66  1  0
 58 63  1  0
 59 60  1  0
 59 58  1  0
 61 60  1  0
 61 70  1  0
 61 62  1  0
 63 57  1  0
 63 62  1  0
 64 57  2  0
 65 66  1  0
 66 56  1  0
 67 68  2  0
 68 87  1  0
 69 68  1  0
 69 72  1  0
 70 71  1  0
 70 67  1  0
 71 69  2  0
 72 73  1  0
 73 74  2  0
 75 78  1  0
 75 74  1  0
 76 75  2  0
 77 76  1  0
 77 72  2  0
 78 79  1  0
 79 80  1  0
 80 81  2  0
 82 81  1  0
 82 86  1  0
 83 82  2  0
 84 79  2  0
 84 83  1  0
 85 84  1  0
 87 88  1  0
 88 91  1  0
 88 90  1  0
 89 87  2  0
 92 67  1  0
 92 93  1  0
 94 92  1  0
M  ISO  4  13 101  14 101  57 100  66 100
M  END
>  <TORSDO>  (95) 
F 21

>  <SCORE>  (95) 
-12.602

>  <name>  (95) 
95

>  <ligand_id>  (95) 
95

>  <original_smiles>  (95) 
[H]c1c([H])c([H])c2c(c1[H])C([H])([H])C([H])([H])C([H])([H])C2([H])N([H])C(=O)C1([H])N(C(=O)C([H])(N([H])C(=O)C([H])(N([H])C([H])([H])[H])C([H])([H])[H])C(C([H])([H])[H])(C([H])([H])[H])C([H])([H])[H])C([H])([H])c2c([H])c(OC([H])([H])C(c3c([H])c(C(C([H])([H])[H])(C([H])([H])[H])C([H])([H])[H])c([H])n3C([H])([H])C([H])([H])N(C(=O)N3C([H])([H])C([H])([H])C([H])([H])C([H])(n4nc(-c5c([H])c([H])c(Oc6c([H])c([H])c(F)c([H])c6F)c([H])c5[H])c(C(=O)N([H])[H])c4N([H])[H])C3([H])[H])C([H])([H])[H])(C([H])([H])[H])C([H])([H])[H])c([H])c([H])c2C1([H])[H]

>  <smiles>  (95) 
[H]c1c([H])c([H])c2c(c1[H])C([H])([H])C([H])([H])C([H])([H])C2([H])N([H])C(=O)C1([H])N(C(=O)C([H])(N([H])C(=O)C([H])(N([H])C([H])([H])[H])C([H])([H])[H])C(C([H])([H])[H])(C([H])([H])[H])C([H])([H])[H])C([H])([H])c2c([H])c(OC([H])([H])C(c3c([H])c(C(C([H])([H])[H])(C([H])([H])[H])C([H])([H])[H])c([H])n3C([H])([H])C([H])([H])N(C(=O)N3C([H])([H])C([H])([H])C([H])([H])C([H])(n4nc(-c5c([H])c([H])c(Oc6c([H])c([H])c(F)c([H])c6F)c([H])c5[H])c(C(=O)N([H])[H])c4N([H])[H])C3([H])[H])C([H])([H])[H])(C([H])([H])[H])C([H])([H])[H])c([H])c([H])c2C1([H])[H]

$$$$
96:0:0
     RDKit          3D

 90 98  0  0  1  0  0  0  0  0999 V2000
  -26.9600  -23.5440   20.9580 C   0  0  0  0  0  1  0  0  0  0  0  0
  -29.4520  -24.1770   21.0290 C   0  0  0  0  0  1  0  0  0  0  0  0
  -28.3250  -23.4810   20.2230 C   0  0  1  0  0  0  0  0  0  0  0  0
  -29.5400  -19.8610   21.1210 C   0  0  0  0  0  3  0  0  0  0  0  0
  -28.9310  -20.7650   19.2390 C   0  0  0  0  0  3  0  0  0  0  0  0
  -29.4250  -19.5050   19.7580 C   0  0  0  0  0  0  0  0  0  0  0  0
  -29.2190  -21.1830   21.3660 C   0  0  0  0  0  0  0  0  0  0  0  0
  -29.4280  -21.7450   22.7540 C   0  0  0  0  0  1  0  0  0  0  0  0
  -28.7630  -21.8780   20.1960 N   0  0  0  0  0  0  0  0  0  0  0  0
  -29.8790  -18.0040   19.1270 C   0  0  0  0  0  2  0  0  0  0  0  0
  -30.5660  -15.3490   19.6460 C   0  0  0  0  0  0  0  0  0  0  0  0
  -30.5910  -12.8750   19.0200 C   0  0  0  0  0  2  0  0  0  0  0  0
  -29.6180  -12.6140   17.8440 C   0  0  0  0  0  2  0  0  0  0  0  0
  -28.1920  -12.3590   18.3650 C   0  0  0  0  0  2  0  0  0  0  0  0
  -27.7740  -13.3780   19.4580 C   0  0  0  0  0  3  0  0  0  0  0  0
  -28.8700  -13.6060   20.5180 C   0  0  0  0  0  2  0  0  0  0  0  0
  -30.0710  -14.0450   19.7980 N   0  0  0  0  0  0  0  0  0  0  0  0
  -31.7380  -15.4320   19.2610 O   0  0  0  0  0  0  0  0  0  0  0  0
  -29.7270  -16.5160   19.7130 N   0  0  0  0  0  0  0  0  0  0  0  0
  -28.7980  -16.3180   20.0550 H   0  0  0  0  0  0  0  0  0  0  0  0
  -25.4770  -13.9220   20.4320 C   0  0  0  0  0  0  0  0  0  0  0  0
  -24.4430  -13.1320   20.8500 C   0  0  0  0  0  0  0  0  0  0  0  0
  -24.8870  -11.7820   20.7030 C   0  0  0  0  0  0  0  0  0  0  0  0
  -26.4850  -13.0520   20.0540 N   0  0  0  0  0  0  0  0  0  0  0  0
  -26.1460  -11.7550   20.2800 N   0  0  0  0  0  0  0  0  0  0  0  0
  -24.1630  -10.5170   20.8880 C   0  0  0  0  0  0  0  0  0  0  0  0
  -24.5700   -9.5690   21.8540 C   0  0  0  0  0  3  0  0  0  0  0  0
  -23.8480   -8.3690   22.0260 C   0  0  0  0  0  3  0  0  0  0  0  0
  -22.7030   -8.1090   21.2360 C   0  0  0  0  0  0  0  0  0  0  0  0
  -22.3150   -9.0470   20.2630 C   0  0  0  0  0  3  0  0  0  0  0  0
  -23.0370  -10.2380   20.0890 C   0  0  0  0  0  3  0  0  0  0  0  0
  -21.9540   -6.9600   21.3160 O   0  0  0  0  0  0  0  0  0  0  0  0
  -21.7490   -6.3190   22.5120 C   0  0  0  0  0  0  0  0  0  0  0  0
  -21.1380   -6.9640   23.6080 C   0  0  0  0  0  3  0  0  0  0  0  0
  -20.8810   -6.2450   24.7930 C   0  0  0  0  0  3  0  0  0  0  0  0
  -21.2270   -4.8840   24.8840 C   0  0  0  0  0  0  0  0  0  0  0  0
  -21.8320   -4.2390   23.7900 C   0  0  0  0  0  3  0  0  0  0  0  0
  -22.0890   -4.9550   22.6080 C   0  0  0  0  0  0  0  0  0  0  0  0
  -22.6520   -4.3210   21.5500 F   0  0  0  0  0  0  0  0  0  0  0  0
  -20.9750   -4.1930   26.0200 F   0  0  0  0  0  0  0  0  0  0  0  0
  -23.0820  -13.6040   21.2680 C   0  0  0  0  0  0  0  0  0  0  0  0
  -22.4430  -12.8930   22.1910 N   0  0  0  0  0  0  0  0  0  0  0  0
  -22.5960  -14.6370   20.8100 O   0  0  0  0  0  0  0  0  0  0  0  0
  -22.8510  -12.0590   22.5820 H   0  0  0  0  0  0  0  0  0  0  0  0
  -21.5330  -13.1940   22.5110 H   0  0  0  0  0  0  0  0  0  0  0  0
  -25.6350  -15.2990   20.3100 N   0  0  0  0  0  0  0  0  0  0  0  0
  -24.8810  -15.9490   20.5100 H   0  0  0  0  0  0  0  0  0  0  0  0
  -26.4380  -15.7520   19.8940 H   0  0  0  0  0  0  0  0  0  0  0  0
  -28.0190  -24.6650   19.0120 C   0  0  0  0  0  2  0  0  0  0  0  0
  -28.0040  -26.2620   19.1360 O   0  0  0  0  0  0  0  0  0  0  0  0
  -24.6760  -31.6740   22.9040 C   0  0  0  0  0  0  0  0  0  0  0  0
  -26.9220  -27.2340   19.2140 C   0  0  0  0  0  0  0  0  0  0  0  0
  -23.3100  -30.4210   21.2790 C   0  0  0  0  0  3  0  0  0  0  0  0
  -24.5980  -28.9860   19.5630 C   0  0  0  0  0  0  0  0  0  0  0  0
  -25.8290  -30.7180   20.8640 C   0  0  0  0  0  2  0  0  0  0  0  0
  -25.8340  -29.3860   20.0850 C   0  0  0  0  0  0  0  0  0  0  0  0
  -26.9850  -28.5280   19.8920 C   0  0  0  0  0  3  0  0  0  0  0  0
  -25.6600  -26.9540   18.6470 C   0  0  0  0  0  3  0  0  0  0  0  0
  -24.5270  -27.7900   18.8230 C   0  0  0  0  0  3  0  0  0  0  0  0
  -23.3820  -29.8680   19.8270 C   0  0  0  0  0  2  0  0  0  0  0  0
  -24.6310  -30.9570   21.7380 N   0  0  0  0  0  0  0  0  0  0  0  0
  -23.6530  -31.8950   23.5690 O   0  0  0  0  0  0  0  0  0  0  0  0
  -22.7370  -29.3270   22.2150 C   0  0  0  0  0  0  0  0  0  0  0  0
  -21.4090  -29.1190   22.1810 N   0  0  0  0  0  0  0  0  0  0  0  0
  -23.4900  -28.6680   22.9360 O   0  0  0  0  0  0  0  0  0  0  0  0
  -20.8540  -29.7010   21.5680 H   0  0  0  0  0  0  0  0  0  0  0  0
  -18.1360  -27.6850   22.7660 C   0  0  0  0  0  0  0  0  0  0  0  0
  -20.6820  -28.0990   22.9400 C   0  0  0  0  0  3  0  0  0  0  0  0
  -20.8480  -26.7050   22.2920 C   0  0  0  0  0  2  0  0  0  0  0  0
  -19.7260  -26.3590   21.3100 C   0  0  0  0  0  2  0  0  0  0  0  0
  -18.3690  -26.3830   22.0160 C   0  0  0  0  0  2  0  0  0  0  0  0
  -19.2220  -28.4970   23.1860 C   0  0  0  0  0  0  0  0  0  0  0  0
  -18.9480  -29.7120   23.8520 C   0  0  0  0  0  3  0  0  0  0  0  0
  -17.6220  -30.1150   24.1020 C   0  0  0  0  0  3  0  0  0  0  0  0
  -16.5520  -29.2990   23.6960 C   0  0  0  0  0  3  0  0  0  0  0  0
  -16.8100  -28.0860   23.0340 C   0  0  0  0  0  3  0  0  0  0  0  0
  -26.0130  -32.2640   23.4480 C   0  0  0  0  0  3  0  0  0  0  0  0
  -26.6910  -31.3550   24.5460 C   0  0  1  0  0  0  0  0  0  0  0  0
  -25.7420  -30.9640   25.7020 C   0  0  0  0  0  1  0  0  0  0  0  0
  -27.2280  -30.0470   23.9180 C   0  0  0  0  0  1  0  0  0  0  0  0
  -27.9120  -32.0880   25.1490 C   0  0  0  0  0  1  0  0  0  0  0  0
  -25.7250  -33.5990   24.0020 N   0  0  0  0  0  0  0  0  0  0  0  0
  -26.0140  -34.7590   23.3970 C   0  0  0  0  0  0  0  0  0  0  0  0
  -26.6200  -34.8180   22.3240 O   0  0  0  0  0  0  0  0  0  0  0  0
  -25.1820  -33.6240   24.8520 H   0  0  0  0  0  0  0  0  0  0  0  0
  -24.2910  -36.5960   23.4070 C   0  0  0  0  0  1  0  0  0  0  0  0
  -25.5600  -36.0610   24.0890 C   0  0  0  0  0  3  0  0  0  0  0  0
  -27.7380  -36.7990   24.9560 C   0  0  0  0  0  1  0  0  0  0  0  0
  -26.5990  -37.1160   24.1000 N   0  0  0  0  0  0  0  0  0  0  0  0
  -26.2070  -38.0040   24.4040 H   0  0  0  0  0  0  0  0  0  0  0  0
  3  1  1  1
  3  2  1  0
  4  7  2  0
  5  6  2  0
  5  9  1  0
  6  4  1  0
  7  8  1  0
  9  3  1  0
  9  7  1  0
 10 19  1  0
 10  6  1  0
 11 19  1  0
 11 17  1  0
 12 17  1  0
 13 14  1  0
 13 12  1  0
 15 14  1  0
 15 24  1  0
 15 16  1  0
 17 16  1  0
 18 11  2  0
 19 20  1  0
 21 22  2  0
 22 41  1  0
 23 22  1  0
 23 26  1  0
 24 25  1  0
 24 21  1  0
 25 23  2  0
 26 27  1  0
 27 28  2  0
 29 32  1  0
 29 28  1  0
 30 29  2  0
 31 30  1  0
 31 26  2  0
 32 33  1  0
 33 38  2  0
 33 34  1  0
 34 35  2  0
 35 36  1  0
 36 40  1  0
 37 36  2  0
 38 37  1  0
 39 38  1  0
 41 42  1  0
 42 45  1  0
 42 44  1  0
 43 41  2  0
 46 21  1  0
 46 47  1  0
 48 46  1  0
 49 50  1  0
 49  3  1  0
 50 52  1  0
 51 62  2  0
 52 57  1  0
 53 61  1  0
 53 63  1  0
 54 60  1  0
 54 56  1  0
 55 61  1  0
 56 55  1  0
 57 56  2  0
 58 59  1  0
 58 52  2  0
 59 54  2  0
 60 53  1  0
 61 51  1  0
 63 65  2  0
 64 63  1  0
 66 64  1  0
 67 76  2  0
 67 72  1  0
 68 64  1  0
 68 72  1  0
 69 68  1  0
 70 71  1  0
 70 69  1  0
 71 67  1  0
 72 73  2  0
 73 74  1  0
 75 74  2  0
 76 75  1  0
 77 51  1  0
 77 82  1  0
 77 78  1  0
 78 81  1  1
 78 79  1  0
 80 78  1  0
 82 85  1  0
 83 82  1  0
 83 87  1  0
 84 83  2  0
 87 86  1  0
 87 89  1  0
 89 90  1  0
 89 88  1  0
M  ISO  4  11 100  19 100  49 101  50 101
M  END
>  <TORSDO>  (96) 
F 19

>  <SCORE>  (96) 
-13.562

>  <name>  (96) 
96

>  <ligand_id>  (96) 
96

>  <original_smiles>  (96) 
[H]c1c([H])c([H])c2c(c1[H])C([H])([H])C([H])([H])C([H])([H])C2([H])N([H])C(=O)C1([H])N(C(=O)C([H])(N([H])C(=O)C([H])(N([H])C([H])([H])[H])C([H])([H])[H])C(C([H])([H])[H])(C([H])([H])[H])C([H])([H])[H])C([H])([H])c2c([H])c(OC([H])([H])C(n3c([H])c(C([H])([H])N([H])C(=O)N4C([H])([H])C([H])([H])C([H])([H])C([H])(n5nc(-c6c([H])c([H])c(Oc7c([H])c([H])c(F)c([H])c7F)c([H])c6[H])c(C(=O)N([H])[H])c5N([H])[H])C4([H])[H])c([H])c3C([H])([H])[H])(C([H])([H])[H])C([H])([H])[H])c([H])c([H])c2C1([H])[H]

>  <smiles>  (96) 
[H]c1c([H])c([H])c2c(c1[H])C([H])([H])C([H])([H])C([H])([H])C2([H])N([H])C(=O)C1([H])N(C(=O)C([H])(N([H])C(=O)C([H])(N([H])C([H])([H])[H])C([H])([H])[H])C(C([H])([H])[H])(C([H])([H])[H])C([H])([H])[H])C([H])([H])c2c([H])c(OC([H])([H])C(n3c([H])c(C([H])([H])N([H])C(=O)N4C([H])([H])C([H])([H])C([H])([H])C([H])(n5nc(-c6c([H])c([H])c(Oc7c([H])c([H])c(F)c([H])c7F)c([H])c6[H])c(C(=O)N([H])[H])c5N([H])[H])C4([H])[H])c([H])c3C([H])([H])[H])(C([H])([H])[H])C([H])([H])[H])c([H])c([H])c2C1([H])[H]

$$$$
97:0:0
     RDKit          3D

 94102  0  0  1  0  0  0  0  0999 V2000
  -27.9680  -21.3520   20.9720 C   0  0  0  0  0  3  0  0  0  0  0  0
  -29.5160  -22.3100   19.8210 C   0  0  0  0  0  3  0  0  0  0  0  0
  -29.2080  -21.0040   20.3430 C   0  0  0  0  0  0  0  0  0  0  0  0
  -27.6150  -22.6950   20.8540 C   0  0  0  0  0  0  0  0  0  0  0  0
  -28.5630  -23.4070   20.0940 N   0  0  0  0  0  0  0  0  0  0  0  0
  -25.2610  -23.5060   20.3590 C   0  0  0  0  0  1  0  0  0  0  0  0
  -26.5630  -24.4800   22.3500 C   0  0  0  0  0  1  0  0  0  0  0  0
  -26.3490  -23.2820   21.4190 C   0  0  0  0  0  3  0  0  0  0  0  0
  -28.4470  -24.9080   19.4640 C   0  0  0  0  0  2  0  0  0  0  0  0
  -28.3710  -26.2690   20.2200 O   0  0  0  0  0  0  0  0  0  0  0  0
  -24.6850  -31.9560   23.2310 C   0  0  0  0  0  0  0  0  0  0  0  0
  -27.3180  -27.2800   20.0930 C   0  0  0  0  0  0  0  0  0  0  0  0
  -23.4940  -30.5690   21.5780 C   0  0  0  0  0  3  0  0  0  0  0  0
  -24.9590  -29.0360   20.1140 C   0  0  0  0  0  0  0  0  0  0  0  0
  -26.0480  -30.8530   21.4140 C   0  0  0  0  0  2  0  0  0  0  0  0
  -26.1370  -29.4700   20.7330 C   0  0  0  0  0  0  0  0  0  0  0  0
  -27.3050  -28.6050   20.7160 C   0  0  0  0  0  3  0  0  0  0  0  0
  -26.1130  -26.9800   19.4150 C   0  0  0  0  0  3  0  0  0  0  0  0
  -24.9650  -27.8050   19.4430 C   0  0  0  0  0  3  0  0  0  0  0  0
  -23.7180  -29.9170   20.1870 C   0  0  0  0  0  2  0  0  0  0  0  0
  -24.7610  -31.1490   22.1270 N   0  0  0  0  0  0  0  0  0  0  0  0
  -23.5980  -32.2200   23.7690 O   0  0  0  0  0  0  0  0  0  0  0  0
  -22.8340  -29.5410   22.5320 C   0  0  0  0  0  0  0  0  0  0  0  0
  -21.5090  -29.3430   22.4060 N   0  0  0  0  0  0  0  0  0  0  0  0
  -23.5180  -28.9220   23.3510 O   0  0  0  0  0  0  0  0  0  0  0  0
  -21.0070  -29.8910   21.7200 H   0  0  0  0  0  0  0  0  0  0  0  0
  -18.1620  -28.0480   22.8920 C   0  0  0  0  0  0  0  0  0  0  0  0
  -20.7110  -28.3800   23.1700 C   0  0  0  0  0  3  0  0  0  0  0  0
  -20.8550  -26.9540   22.5930 C   0  0  0  0  0  2  0  0  0  0  0  0
  -19.7670  -26.6030   21.5740 C   0  0  0  0  0  2  0  0  0  0  0  0
  -18.3780  -26.7080   22.2110 C   0  0  0  0  0  2  0  0  0  0  0  0
  -19.2560  -28.8390   23.3290 C   0  0  0  0  0  0  0  0  0  0  0  0
  -18.9990  -30.0910   23.9280 C   0  0  0  0  0  3  0  0  0  0  0  0
  -17.6790  -30.5530   24.0940 C   0  0  0  0  0  3  0  0  0  0  0  0
  -16.6000  -29.7590   23.6700 C   0  0  0  0  0  3  0  0  0  0  0  0
  -16.8420  -28.5090   23.0770 C   0  0  0  0  0  3  0  0  0  0  0  0
  -25.9580  -32.6020   23.8570 C   0  0  0  0  0  3  0  0  0  0  0  0
  -25.6340  -34.0000   24.1830 N   0  0  0  0  0  0  0  0  0  0  0  0
  -25.9580  -35.0570   23.4270 C   0  0  0  0  0  0  0  0  0  0  0  0
  -26.6250  -34.9600   22.3930 O   0  0  0  0  0  0  0  0  0  0  0  0
  -25.0390  -34.1510   24.9840 H   0  0  0  0  0  0  0  0  0  0  0  0
  -24.2170  -36.8460   23.0890 C   0  0  0  0  0  1  0  0  0  0  0  0
  -25.4640  -36.4440   23.8910 C   0  0  0  0  0  3  0  0  0  0  0  0
  -27.5930  -37.3490   24.7170 C   0  0  0  0  0  1  0  0  0  0  0  0
  -26.4890  -37.5040   23.7740 N   0  0  0  0  0  0  0  0  0  0  0  0
  -26.0750  -38.4210   23.9180 H   0  0  0  0  0  0  0  0  0  0  0  0
  -26.4710  -31.8420   25.1430 C   0  0  1  0  0  0  0  0  0  0  0  0
  -25.3710  -31.6090   26.2050 C   0  0  0  0  0  1  0  0  0  0  0  0
  -27.0660  -30.4640   24.7750 C   0  0  0  0  0  1  0  0  0  0  0  0
  -27.6090  -32.6500   25.8090 C   0  0  0  0  0  1  0  0  0  0  0  0
  -29.9970  -19.4910   20.4840 C   0  0  0  0  0  3  0  0  0  0  0  0
  -30.3420  -19.3170   21.9000 N   0  0  0  0  0  4  0  0  0  0  0  0
  -30.9650  -18.5390   22.0080 H   0  0  0  0  0  0  0  0  0  0  0  0
  -29.5180  -19.1520   22.4480 H   0  0  0  0  0  0  0  0  0  0  0  0
  -30.7970  -20.1420   22.2430 H   0  0  0  0  0  0  0  0  0  0  0  0
  -29.6010  -17.9430   19.8520 C   0  0  0  0  0  2  0  0  0  0  0  0
  -30.6050  -15.2730   20.1640 C   0  0  0  0  0  0  0  0  0  0  0  0
  -30.5240  -12.8780   19.2860 C   0  0  0  0  0  2  0  0  0  0  0  0
  -29.5870  -12.7940   18.0560 C   0  0  0  0  0  2  0  0  0  0  0  0
  -28.1340  -12.5480   18.4980 C   0  0  0  0  0  2  0  0  0  0  0  0
  -27.7160  -13.4840   19.6600 C   0  0  0  0  0  3  0  0  0  0  0  0
  -28.7760  -13.5560   20.7840 C   0  0  0  0  0  2  0  0  0  0  0  0
  -30.0440  -13.9850   20.1750 N   0  0  0  0  0  0  0  0  0  0  0  0
  -31.7690  -15.3560   19.7600 O   0  0  0  0  0  0  0  0  0  0  0  0
  -29.8200  -16.4470   20.4420 N   0  0  0  0  0  0  0  0  0  0  0  0
  -28.9860  -16.1470   20.9250 H   0  0  0  0  0  0  0  0  0  0  0  0
  -25.3420  -14.0400   20.4250 C   0  0  0  0  0  0  0  0  0  0  0  0
  -24.2860  -13.2590   20.8050 C   0  0  0  0  0  0  0  0  0  0  0  0
  -24.7590  -11.9100   20.7700 C   0  0  0  0  0  0  0  0  0  0  0  0
  -26.3870  -13.1700   20.1720 N   0  0  0  0  0  0  0  0  0  0  0  0
  -26.0460  -11.8830   20.4450 N   0  0  0  0  0  0  0  0  0  0  0  0
  -24.0400  -10.6450   20.9660 C   0  0  0  0  0  0  0  0  0  0  0  0
  -24.4720   -9.6860   21.9090 C   0  0  0  0  0  3  0  0  0  0  0  0
  -23.7500   -8.4880   22.0950 C   0  0  0  0  0  3  0  0  0  0  0  0
  -22.5820   -8.2380   21.3360 C   0  0  0  0  0  0  0  0  0  0  0  0
  -22.1680   -9.1860   20.3820 C   0  0  0  0  0  3  0  0  0  0  0  0
  -22.8910  -10.3750   20.1950 C   0  0  0  0  0  3  0  0  0  0  0  0
  -21.8310   -7.0920   21.4300 O   0  0  0  0  0  0  0  0  0  0  0  0
  -21.7680   -6.3650   22.5920 C   0  0  0  0  0  0  0  0  0  0  0  0
  -21.2960   -6.9280   23.7980 C   0  0  0  0  0  3  0  0  0  0  0  0
  -21.1830   -6.1270   24.9520 C   0  0  0  0  0  3  0  0  0  0  0  0
  -21.5310   -4.7640   24.9000 C   0  0  0  0  0  0  0  0  0  0  0  0
  -21.9940   -4.1990   23.6990 C   0  0  0  0  0  3  0  0  0  0  0  0
  -22.1090   -4.9990   22.5470 C   0  0  0  0  0  0  0  0  0  0  0  0
  -22.5370   -4.4450   21.3870 F   0  0  0  0  0  0  0  0  0  0  0  0
  -21.4130   -3.9920   26.0060 F   0  0  0  0  0  0  0  0  0  0  0  0
  -22.8890  -13.7290   21.0880 C   0  0  0  0  0  0  0  0  0  0  0  0
  -22.1740  -13.0310   21.9620 N   0  0  0  0  0  0  0  0  0  0  0  0
  -22.4420  -14.7530   20.5700 O   0  0  0  0  0  0  0  0  0  0  0  0
  -22.5500  -12.2010   22.3970 H   0  0  0  0  0  0  0  0  0  0  0  0
  -21.2390  -13.3290   22.1990 H   0  0  0  0  0  0  0  0  0  0  0  0
  -25.4960  -15.4130   20.2450 N   0  0  0  0  0  0  0  0  0  0  0  0
  -24.7250  -16.0630   20.3670 H   0  0  0  0  0  0  0  0  0  0  0  0
  -26.3250  -15.8530   19.8690 H   0  0  0  0  0  0  0  0  0  0  0  0
  2  5  1  0
  2  3  2  0
  3 51  1  0
  3  1  1  0
  4  1  2  0
  4  8  1  0
  5  4  1  0
  6  8  1  0
  8  7  1  0
  9  5  1  0
  9 10  1  0
 11 22  2  0
 12 10  1  0
 12 17  1  0
 13 21  1  0
 13 23  1  0
 14 20  1  0
 14 16  1  0
 15 21  1  0
 16 15  1  0
 17 16  2  0
 18 19  1  0
 18 12  2  0
 19 14  2  0
 20 13  1  0
 21 11  1  0
 23 25  2  0
 24 23  1  0
 26 24  1  0
 27 36  2  0
 27 32  1  0
 28 24  1  0
 28 32  1  0
 29 28  1  0
 30 31  1  0
 30 29  1  0
 31 27  1  0
 32 33  2  0
 33 34  1  0
 35 34  2  0
 36 35  1  0
 37 11  1  0
 37 38  1  0
 37 47  1  0
 38 41  1  0
 39 43  1  0
 39 38  1  0
 40 39  2  0
 43 42  1  0
 45 43  1  0
 45 46  1  0
 45 44  1  0
 47 50  1  1
 47 48  1  0
 49 47  1  0
 51 56  1  0
 51 52  1  0
 52 53  1  0
 52 55  1  0
 52 54  1  0
 56 65  1  0
 57 63  1  0
 57 65  1  0
 58 63  1  0
 59 60  1  0
 59 58  1  0
 61 60  1  0
 61 70  1  0
 61 62  1  0
 63 62  1  0
 64 57  2  0
 65 66  1  0
 67 68  2  0
 68 87  1  0
 69 68  1  0
 69 72  1  0
 70 67  1  0
 70 71  1  0
 71 69  2  0
 72 73  1  0
 73 74  2  0
 75 78  1  0
 75 74  1  0
 76 75  2  0
 77 76  1  0
 77 72  2  0
 78 79  1  0
 79 80  1  0
 80 81  2  0
 82 81  1  0
 82 86  1  0
 83 82  2  0
 84 79  2  0
 84 83  1  0
 85 84  1  0
 87 88  1  0
 88 91  1  0
 88 90  1  0
 89 87  2  0
 92 93  1  0
 92 67  1  0
 94 92  1  0
M  ISO  4   9 101  10 101  57 100  65 100
M  END
>  <TORSDO>  (97) 
F 21

>  <SCORE>  (97) 
-14.937

>  <name>  (97) 
97

>  <ligand_id>  (97) 
97

>  <original_smiles>  (97) 
[H]c1c([H])c([H])c2c(c1[H])C([H])([H])C([H])([H])C([H])([H])C2([H])N([H])C(=O)C1([H])N(C(=O)C([H])(N([H])C(=O)C([H])(N([H])C([H])([H])[H])C([H])([H])[H])C(C([H])([H])[H])(C([H])([H])[H])C([H])([H])[H])C([H])([H])c2c([H])c(OC([H])([H])n3c([H])c(C([H])(C([H])([H])N([H])C(=O)N4C([H])([H])C([H])([H])C([H])([H])C([H])(n5nc(-c6c([H])c([H])c(Oc7c([H])c([H])c(F)c([H])c7F)c([H])c6[H])c(C(=O)N([H])[H])c5N([H])[H])C4([H])[H])[N+]([H])([H])[H])c([H])c3C([H])(C([H])([H])[H])C([H])([H])[H])c([H])c([H])c2C1([H])[H]

>  <smiles>  (97) 
[H]c1c([H])c([H])c2c(c1[H])C([H])([H])C([H])([H])C([H])([H])C2([H])N([H])C(=O)C1([H])N(C(=O)C([H])(N([H])C(=O)C([H])(N([H])C([H])([H])[H])C([H])([H])[H])C(C([H])([H])[H])(C([H])([H])[H])C([H])([H])[H])C([H])([H])c2c([H])c(OC([H])([H])n3c([H])c(C([H])(C([H])([H])N([H])C(=O)N4C([H])([H])C([H])([H])C([H])([H])C([H])(n5nc(-c6c([H])c([H])c(Oc7c([H])c([H])c(F)c([H])c7F)c([H])c6[H])c(C(=O)N([H])[H])c5N([H])[H])C4([H])[H])[N+]([H])([H])[H])c([H])c3C([H])(C([H])([H])[H])C([H])([H])[H])c([H])c([H])c2C1([H])[H]

$$$$
