0:0:0
     RDKit          3D

 91 98  0  0  1  0  0  0  0  0999 V2000
  -30.9100  -21.6600   21.5800 C   0  0  0  0  0  1  0  0  0  0  0  0
  -29.7250  -21.2410   20.7710 N   0  0  1  0  0  4  0  0  0  0  0  0
  -29.0140  -21.0250   21.4570 H   0  0  0  0  0  0  0  0  0  0  0  0
  -29.1350  -22.3940   19.9460 C   0  0  0  0  0  2  0  0  0  0  0  0
  -30.5790  -24.5630   19.6720 C   0  0  0  0  0  1  0  0  0  0  0  0
  -29.3680  -23.9350   20.3790 C   0  0  0  0  0  3  0  0  0  0  0  0
  -28.1420  -24.9270   20.1630 C   0  0  0  0  0  2  0  0  0  0  0  0
  -28.3920  -26.3860   19.9750 O   0  0  0  0  0  0  0  0  0  0  0  0
  -24.5300  -31.6160   23.0420 C   0  0  0  0  0  0  0  0  0  0  0  0
  -27.2670  -27.2230   19.8980 C   0  0  0  0  0  0  0  0  0  0  0  0
  -23.3710  -30.2400   21.3650 C   0  0  0  0  0  3  0  0  0  0  0  0
  -24.8630  -28.7810   19.9010 C   0  0  0  0  0  0  0  0  0  0  0  0
  -25.8970  -30.6530   21.1650 C   0  0  0  0  0  2  0  0  0  0  0  0
  -26.0240  -29.2930   20.4900 C   0  0  0  0  0  0  0  0  0  0  0  0
  -27.2410  -28.5420   20.4500 C   0  0  0  0  0  3  0  0  0  0  0  0
  -26.0770  -26.7640   19.2820 C   0  0  0  0  0  3  0  0  0  0  0  0
  -24.8920  -27.5200   19.2850 C   0  0  0  0  0  3  0  0  0  0  0  0
  -23.6030  -29.6270   19.9690 C   0  0  0  0  0  2  0  0  0  0  0  0
  -24.6240  -30.8470   21.9200 N   0  0  0  0  0  0  0  0  0  0  0  0
  -23.4400  -31.8380   23.5840 O   0  0  0  0  0  0  0  0  0  0  0  0
  -22.7380  -29.1650   22.2800 C   0  0  0  0  0  0  0  0  0  0  0  0
  -21.4110  -28.9710   22.1660 N   0  0  0  0  0  0  0  0  0  0  0  0
  -23.4400  -28.5080   23.0590 O   0  0  0  0  0  0  0  0  0  0  0  0
  -20.8960  -29.5580   21.5210 H   0  0  0  0  0  0  0  0  0  0  0  0
  -18.0530  -27.7290   22.6870 C   0  0  0  0  0  0  0  0  0  0  0  0
  -20.6180  -27.9890   22.9070 C   0  0  0  0  0  3  0  0  0  0  0  0
  -20.7100  -26.5860   22.2600 C   0  0  0  0  0  2  0  0  0  0  0  0
  -19.5850  -26.3070   21.2580 C   0  0  0  0  0  2  0  0  0  0  0  0
  -18.2170  -26.4150   21.9380 C   0  0  0  0  0  2  0  0  0  0  0  0
  -19.1770  -28.4730   23.1290 C   0  0  0  0  0  0  0  0  0  0  0  0
  -18.9670  -29.7040   23.7870 C   0  0  0  0  0  3  0  0  0  0  0  0
  -17.6640  -30.1920   24.0010 C   0  0  0  0  0  3  0  0  0  0  0  0
  -16.5540  -29.4440   23.5730 C   0  0  0  0  0  3  0  0  0  0  0  0
  -16.7490  -28.2130   22.9230 C   0  0  0  0  0  3  0  0  0  0  0  0
  -25.7870  -32.2620   23.6900 C   0  0  0  0  0  3  0  0  0  0  0  0
  -25.4350  -33.6370   24.0710 N   0  0  0  0  0  0  0  0  0  0  0  0
  -25.7330  -34.7250   23.3490 C   0  0  0  0  0  0  0  0  0  0  0  0
  -26.4080  -34.6770   22.3160 O   0  0  0  0  0  0  0  0  0  0  0  0
  -24.8500  -33.7420   24.8870 H   0  0  0  0  0  0  0  0  0  0  0  0
  -23.9550  -36.4740   23.0370 C   0  0  0  0  0  1  0  0  0  0  0  0
  -25.2010  -36.0820   23.8500 C   0  0  0  0  0  3  0  0  0  0  0  0
  -27.3010  -37.0010   24.7310 C   0  0  0  0  0  1  0  0  0  0  0  0
  -26.2040  -37.1680   23.7820 N   0  0  0  0  0  0  0  0  0  0  0  0
  -25.7720  -38.0720   23.9540 H   0  0  0  0  0  0  0  0  0  0  0  0
  -26.3150  -31.4560   24.9380 C   0  0  1  0  0  0  0  0  0  0  0  0
  -25.2160  -31.1600   25.9850 C   0  0  0  0  0  1  0  0  0  0  0  0
  -26.9380  -30.1150   24.4880 C   0  0  0  0  0  1  0  0  0  0  0  0
  -27.4420  -32.2560   25.6330 C   0  0  0  0  0  1  0  0  0  0  0  0
  -29.9320  -19.9440   19.9770 C   0  0  0  0  0  2  0  0  0  0  0  0
  -30.5200  -18.4180   22.0410 C   0  0  0  0  0  1  0  0  0  0  0  0
  -28.3030  -18.2440   20.9380 C   0  0  0  0  0  1  0  0  0  0  0  0
  -29.8060  -18.4860   20.6800 C   0  0  1  0  0  0  0  0  0  0  0  0
  -30.3860  -17.2710   19.7920 C   0  0  0  0  0  2  0  0  0  0  0  0
  -30.8840  -14.7020   19.9570 C   0  0  0  0  0  0  0  0  0  0  0  0
  -30.5660  -12.4520   18.9640 C   0  0  0  0  0  2  0  0  0  0  0  0
  -29.6100  -12.6220   17.7670 C   0  0  0  0  0  2  0  0  0  0  0  0
  -28.1520  -12.4530   18.2320 C   0  0  0  0  0  2  0  0  0  0  0  0
  -27.8270  -13.3170   19.4840 C   0  0  0  0  0  3  0  0  0  0  0  0
  -28.9230  -13.2110   20.5710 C   0  0  0  0  0  2  0  0  0  0  0  0
  -30.2210  -13.4990   19.9450 N   0  0  0  0  0  0  0  0  0  0  0  0
  -32.0280  -14.7950   19.4980 O   0  0  0  0  0  0  0  0  0  0  0  0
  -30.1600  -15.8370   20.2580 N   0  0  0  0  0  0  0  0  0  0  0  0
  -29.2650  -15.6590   20.6860 H   0  0  0  0  0  0  0  0  0  0  0  0
  -25.4730  -13.9230   20.3100 C   0  0  0  0  0  0  0  0  0  0  0  0
  -24.4180  -13.1570   20.7160 C   0  0  0  0  0  0  0  0  0  0  0  0
  -24.8650  -11.7980   20.6580 C   0  0  0  0  0  0  0  0  0  0  0  0
  -26.4960  -13.0350   20.0210 N   0  0  0  0  0  0  0  0  0  0  0  0
  -26.1420  -11.7510   20.2950 N   0  0  0  0  0  0  0  0  0  0  0  0
  -24.1330  -10.5430   20.8680 C   0  0  0  0  0  0  0  0  0  0  0  0
  -24.5610   -9.5820   21.8100 C   0  0  0  0  0  3  0  0  0  0  0  0
  -23.8250   -8.3960   22.0100 C   0  0  0  0  0  3  0  0  0  0  0  0
  -22.6460   -8.1570   21.2610 C   0  0  0  0  0  0  0  0  0  0  0  0
  -22.2410   -9.1040   20.3060 C   0  0  0  0  0  3  0  0  0  0  0  0
  -22.9780  -10.2810   20.1050 C   0  0  0  0  0  3  0  0  0  0  0  0
  -21.8780   -7.0230   21.3710 O   0  0  0  0  0  0  0  0  0  0  0  0
  -21.7820   -6.3250   22.5480 C   0  0  0  0  0  0  0  0  0  0  0  0
  -21.3260   -6.9330   23.7400 C   0  0  0  0  0  3  0  0  0  0  0  0
  -21.1800   -6.1630   24.9110 C   0  0  0  0  0  3  0  0  0  0  0  0
  -21.4750   -4.7880   24.8910 C   0  0  0  0  0  0  0  0  0  0  0  0
  -21.9260   -4.1790   23.7060 C   0  0  0  0  0  3  0  0  0  0  0  0
  -22.0770   -4.9480   22.5360 C   0  0  0  0  0  0  0  0  0  0  0  0
  -22.4840   -4.3520   21.3900 F   0  0  0  0  0  0  0  0  0  0  0  0
  -21.3310   -4.0440   26.0120 F   0  0  0  0  0  0  0  0  0  0  0  0
  -23.0370  -13.6410   21.0510 C   0  0  0  0  0  0  0  0  0  0  0  0
  -22.3370  -12.9600   21.9490 N   0  0  0  0  0  0  0  0  0  0  0  0
  -22.5870  -14.6690   20.5470 O   0  0  0  0  0  0  0  0  0  0  0  0
  -22.7120  -12.1300   22.3860 H   0  0  0  0  0  0  0  0  0  0  0  0
  -21.4110  -13.2730   22.2060 H   0  0  0  0  0  0  0  0  0  0  0  0
  -25.6460  -15.3000   20.1440 N   0  0  0  0  0  0  0  0  0  0  0  0
  -24.8950  -15.9660   20.2990 H   0  0  0  0  0  0  0  0  0  0  0  0
  -26.5010  -15.7430   19.8380 H   0  0  0  0  0  0  0  0  0  0  0  0
  2  3  1  1
  2  1  1  0
  4  6  1  0
  4  2  1  0
  6  5  1  0
  7  6  1  0
  8  7  1  0
  9 20  2  0
 10  8  1  0
 10 15  1  0
 11 19  1  0
 11 21  1  0
 12 18  1  0
 12 14  1  0
 13 19  1  0
 14 13  1  0
 15 14  2  0
 16 17  1  0
 16 10  2  0
 17 12  2  0
 18 11  1  0
 19  9  1  0
 21 23  2  0
 22 21  1  0
 24 22  1  0
 25 34  2  0
 25 30  1  0
 26 22  1  0
 26 30  1  0
 27 26  1  0
 28 29  1  0
 28 27  1  0
 29 25  1  0
 30 31  2  0
 31 32  1  0
 33 32  2  0
 34 33  1  0
 35  9  1  0
 35 36  1  0
 35 45  1  0
 36 39  1  0
 37 41  1  0
 37 36  1  0
 38 37  2  0
 41 40  1  0
 43 41  1  0
 43 44  1  0
 43 42  1  0
 45 48  1  1
 45 46  1  0
 47 45  1  0
 49 52  1  0
 49  2  1  0
 52 51  1  1
 52 50  1  0
 53 62  1  0
 53 52  1  0
 54 62  1  0
 55 60  1  0
 56 57  1  0
 56 55  1  0
 58 57  1  0
 58 67  1  0
 58 59  1  0
 60 54  1  0
 60 59  1  0
 61 54  2  0
 62 63  1  0
 64 65  2  0
 65 84  1  0
 66 65  1  0
 66 69  1  0
 67 68  1  0
 67 64  1  0
 68 66  2  0
 69 70  1  0
 70 71  2  0
 72 75  1  0
 72 71  1  0
 73 72  2  0
 74 73  1  0
 74 69  2  0
 75 76  1  0
 76 77  1  0
 77 78  2  0
 79 78  1  0
 79 83  1  0
 80 79  2  0
 81 76  2  0
 81 80  1  0
 82 81  1  0
 84 85  1  0
 85 88  1  0
 85 87  1  0
 86 84  2  0
 89 90  1  0
 89 64  1  0
 91 89  1  0
M  ISO  4   7 101   8 101  54 100  62 100
M  END
>  <TORSDO>  (1) 
F 22

>  <SCORE>  (1) 
-12.079

>  <name>  (1) 
0

>  <ligand_id>  (1) 
0

>  <original_smiles>  (1) 
[H]c1c([H])c([H])c2c(c1[H])C([H])([H])C([H])([H])C([H])([H])C2([H])N([H])C(=O)C1([H])N(C(=O)C([H])(N([H])C(=O)C([H])(N([H])C([H])([H])[H])C([H])([H])[H])C(C([H])([H])[H])(C([H])([H])[H])C([H])([H])[H])C([H])([H])c2c([H])c(OC([H])([H])C([H])(C([H])([H])[H])C([H])([H])[N+]([H])(C([H])([H])[H])C([H])([H])C(C([H])([H])[H])(C([H])([H])[H])C([H])([H])N([H])C(=O)N3C([H])([H])C([H])([H])C([H])([H])C([H])(n4nc(-c5c([H])c([H])c(Oc6c([H])c([H])c(F)c([H])c6F)c([H])c5[H])c(C(=O)N([H])[H])c4N([H])[H])C3([H])[H])c([H])c([H])c2C1([H])[H]

>  <smiles>  (1) 
[H]c1c([H])c([H])c2c(c1[H])C([H])([H])C([H])([H])C([H])([H])C2([H])N([H])C(=O)C1([H])N(C(=O)C([H])(N([H])C(=O)C([H])(N([H])C([H])([H])[H])C([H])([H])[H])C(C([H])([H])[H])(C([H])([H])[H])C([H])([H])[H])C([H])([H])c2c([H])c(OC([H])([H])C([H])(C([H])([H])[H])C([H])([H])[N+]([H])(C([H])([H])[H])C([H])([H])C(C([H])([H])[H])(C([H])([H])[H])C([H])([H])N([H])C(=O)N3C([H])([H])C([H])([H])C([H])([H])C([H])(n4nc(-c5c([H])c([H])c(Oc6c([H])c([H])c(F)c([H])c6F)c([H])c5[H])c(C(=O)N([H])[H])c4N([H])[H])C3([H])[H])c([H])c([H])c2C1([H])[H]

$$$$
1:0:0
     RDKit          3D

 87 94  0  0  1  0  0  0  0  0999 V2000
  -29.9430  -22.4670   19.1210 C   0  0  0  0  0  1  0  0  0  0  0  0
  -28.9840  -22.2390   20.3050 C   0  0  2  0  0  0  0  0  0  0  0  0
  -29.8100  -23.7780   22.2890 C   0  0  0  0  0  1  0  0  0  0  0  0
  -31.1780  -21.7910   21.6680 C   0  0  0  0  0  1  0  0  0  0  0  0
  -29.7440  -22.3630   21.6760 C   0  0  0  0  0  3  0  0  0  0  0  0
  -28.7010  -20.3300   20.2110 C   0  0  0  0  0  3  0  0  0  0  0  0
  -29.7150  -18.6910   20.2760 C   0  0  0  0  0  3  0  0  0  0  0  0
  -30.2370  -15.5940   20.1710 C   0  0  0  0  0  0  0  0  0  0  0  0
  -30.3040  -13.0760   19.3210 C   0  0  0  0  0  2  0  0  0  0  0  0
  -29.3860  -12.7130   18.1220 C   0  0  0  0  0  2  0  0  0  0  0  0
  -27.9660  -12.3710   18.5990 C   0  0  0  0  0  2  0  0  0  0  0  0
  -27.4850  -13.3530   19.6920 C   0  0  0  0  0  3  0  0  0  0  0  0
  -28.5400  -13.6310   20.7850 C   0  0  0  0  0  2  0  0  0  0  0  0
  -29.7040  -14.2410   20.1070 N   0  0  0  0  0  0  0  0  0  0  0  0
  -31.4660  -15.5450   19.9810 O   0  0  0  0  0  0  0  0  0  0  0  0
  -29.4810  -16.9430   20.2550 N   0  0  0  0  0  0  0  0  0  0  0  0
  -28.4960  -16.7340   20.3420 H   0  0  0  0  0  0  0  0  0  0  0  0
  -25.1380  -13.8680   20.5160 C   0  0  0  0  0  0  0  0  0  0  0  0
  -24.0890  -13.0780   20.8940 C   0  0  0  0  0  0  0  0  0  0  0  0
  -24.5650  -11.7310   20.8310 C   0  0  0  0  0  0  0  0  0  0  0  0
  -26.1800  -13.0050   20.2350 N   0  0  0  0  0  0  0  0  0  0  0  0
  -25.8520  -11.7110   20.4930 N   0  0  0  0  0  0  0  0  0  0  0  0
  -23.8470  -10.4620   21.0150 C   0  0  0  0  0  0  0  0  0  0  0  0
  -24.2960   -9.4830   21.9280 C   0  0  0  0  0  3  0  0  0  0  0  0
  -23.5740   -8.2830   22.1030 C   0  0  0  0  0  3  0  0  0  0  0  0
  -22.3890   -8.0530   21.3650 C   0  0  0  0  0  0  0  0  0  0  0  0
  -21.9590   -9.0200   20.4400 C   0  0  0  0  0  3  0  0  0  0  0  0
  -22.6810  -10.2130   20.2640 C   0  0  0  0  0  3  0  0  0  0  0  0
  -21.6370   -6.9060   21.4500 O   0  0  0  0  0  0  0  0  0  0  0  0
  -21.6030   -6.1510   22.5950 C   0  0  0  0  0  0  0  0  0  0  0  0
  -21.1800   -6.6890   23.8300 C   0  0  0  0  0  3  0  0  0  0  0  0
  -21.0930   -5.8600   24.9660 C   0  0  0  0  0  3  0  0  0  0  0  0
  -21.4220   -4.4950   24.8700 C   0  0  0  0  0  0  0  0  0  0  0  0
  -21.8380   -3.9560   23.6400 C   0  0  0  0  0  3  0  0  0  0  0  0
  -21.9250   -4.7810   22.5050 C   0  0  0  0  0  0  0  0  0  0  0  0
  -22.3070   -4.2530   21.3170 F   0  0  0  0  0  0  0  0  0  0  0  0
  -21.3320   -3.6960   25.9590 F   0  0  0  0  0  0  0  0  0  0  0  0
  -22.6960  -13.5430   21.1930 C   0  0  0  0  0  0  0  0  0  0  0  0
  -21.9870  -12.8370   22.0660 N   0  0  0  0  0  0  0  0  0  0  0  0
  -22.2430  -14.5700   20.6870 O   0  0  0  0  0  0  0  0  0  0  0  0
  -22.3680  -12.0080   22.4980 H   0  0  0  0  0  0  0  0  0  0  0  0
  -21.0510  -13.1300   22.3080 H   0  0  0  0  0  0  0  0  0  0  0  0
  -25.2840  -15.2430   20.3550 N   0  0  0  0  0  0  0  0  0  0  0  0
  -24.5120  -15.8840   20.4910 H   0  0  0  0  0  0  0  0  0  0  0  0
  -26.1100  -15.6910   19.9820 H   0  0  0  0  0  0  0  0  0  0  0  0
  -27.9380  -23.8580   20.1660 C   0  0  0  0  0  2  0  0  0  0  0  0
  -28.1310  -25.5920   20.2610 O   0  0  0  0  0  0  0  0  0  0  0  0
  -24.6520  -31.8420   23.2050 C   0  0  0  0  0  0  0  0  0  0  0  0
  -27.1540  -26.7860   20.2110 C   0  0  0  0  0  0  0  0  0  0  0  0
  -23.4570  -30.4570   21.5630 C   0  0  0  0  0  3  0  0  0  0  0  0
  -24.8950  -28.8060   20.1510 C   0  0  0  0  0  0  0  0  0  0  0  0
  -26.0360  -30.5920   21.4430 C   0  0  0  0  0  2  0  0  0  0  0  0
  -26.0910  -29.1640   20.7840 C   0  0  0  0  0  0  0  0  0  0  0  0
  -27.2080  -28.1810   20.7810 C   0  0  0  0  0  3  0  0  0  0  0  0
  -25.9240  -26.6260   19.5250 C   0  0  0  0  0  3  0  0  0  0  0  0
  -24.8480  -27.5630   19.4980 C   0  0  0  0  0  3  0  0  0  0  0  0
  -23.6930  -29.7610   20.1910 C   0  0  0  0  0  2  0  0  0  0  0  0
  -24.7390  -30.9950   22.1240 N   0  0  0  0  0  0  0  0  0  0  0  0
  -23.5610  -32.1490   23.7140 O   0  0  0  0  0  0  0  0  0  0  0  0
  -22.7340  -29.4810   22.5290 C   0  0  0  0  0  0  0  0  0  0  0  0
  -21.4000  -29.3420   22.4060 N   0  0  0  0  0  0  0  0  0  0  0  0
  -23.3840  -28.8450   23.3620 O   0  0  0  0  0  0  0  0  0  0  0  0
  -20.9250  -29.9040   21.7130 H   0  0  0  0  0  0  0  0  0  0  0  0
  -17.9970  -28.1760   22.9250 C   0  0  0  0  0  0  0  0  0  0  0  0
  -20.5630  -28.4130   23.1760 C   0  0  0  0  0  3  0  0  0  0  0  0
  -20.6430  -26.9820   22.5940 C   0  0  0  0  0  2  0  0  0  0  0  0
  -19.5340  -26.6780   21.5830 C   0  0  0  0  0  2  0  0  0  0  0  0
  -18.1560  -26.8320   22.2340 C   0  0  0  0  0  2  0  0  0  0  0  0
  -19.1270  -28.9250   23.3520 C   0  0  0  0  0  0  0  0  0  0  0  0
  -18.9210  -30.1820   23.9640 C   0  0  0  0  0  3  0  0  0  0  0  0
  -17.6210  -30.6900   24.1470 C   0  0  0  0  0  3  0  0  0  0  0  0
  -16.5080  -29.9390   23.7320 C   0  0  0  0  0  3  0  0  0  0  0  0
  -16.6970  -28.6830   23.1260 C   0  0  0  0  0  3  0  0  0  0  0  0
  -25.9200  -32.4800   23.8490 C   0  0  0  0  0  3  0  0  0  0  0  0
  -26.4140  -31.7080   25.1360 C   0  0  1  0  0  0  0  0  0  0  0  0
  -25.3070  -31.4830   26.1940 C   0  0  0  0  0  1  0  0  0  0  0  0
  -26.9900  -30.3240   24.7650 C   0  0  0  0  0  1  0  0  0  0  0  0
  -27.5640  -32.4950   25.8080 C   0  0  0  0  0  1  0  0  0  0  0  0
  -25.6030  -33.8790   24.1970 N   0  0  0  0  0  0  0  0  0  0  0  0
  -25.9230  -34.9500   23.4590 C   0  0  0  0  0  0  0  0  0  0  0  0
  -26.5740  -34.8640   22.4150 O   0  0  0  0  0  0  0  0  0  0  0  0
  -25.0200  -34.0180   25.0100 H   0  0  0  0  0  0  0  0  0  0  0  0
  -24.1820  -36.7530   23.1910 C   0  0  0  0  0  1  0  0  0  0  0  0
  -25.4500  -36.3350   23.9520 C   0  0  0  0  0  3  0  0  0  0  0  0
  -27.6070  -37.2210   24.7240 C   0  0  0  0  0  1  0  0  0  0  0  0
  -26.4760  -37.3930   23.8180 N   0  0  0  0  0  0  0  0  0  0  0  0
  -26.0720  -38.3110   23.9850 H   0  0  0  0  0  0  0  0  0  0  0  0
  2  1  1  6
  2  5  1  0
  4  5  1  0
  5  3  1  0
  6  7  2  0
  6  2  1  0
  8 16  1  0
  9 14  1  0
 10 11  1  0
 10  9  1  0
 12 11  1  0
 12 21  1  0
 12 13  1  0
 14  8  1  0
 14 13  1  0
 15  8  2  0
 16  7  1  0
 16 17  1  0
 18 19  2  0
 19 38  1  0
 20 19  1  0
 20 23  1  0
 21 22  1  0
 21 18  1  0
 22 20  2  0
 23 24  1  0
 24 25  2  0
 26 29  1  0
 26 25  1  0
 27 26  2  0
 28 27  1  0
 28 23  2  0
 29 30  1  0
 30 31  1  0
 31 32  2  0
 33 32  1  0
 33 37  1  0
 34 33  2  0
 35 30  2  0
 35 34  1  0
 36 35  1  0
 38 39  1  0
 39 42  1  0
 39 41  1  0
 40 38  2  0
 43 44  1  0
 43 18  1  0
 45 43  1  0
 46 47  1  0
 46  2  1  0
 48 59  2  0
 49 47  1  0
 49 54  1  0
 50 58  1  0
 50 60  1  0
 51 57  1  0
 51 53  1  0
 52 58  1  0
 53 52  1  0
 54 53  2  0
 55 49  2  0
 56 55  1  0
 56 51  2  0
 57 50  1  0
 58 48  1  0
 60 62  2  0
 61 60  1  0
 63 61  1  0
 64 73  2  0
 64 69  1  0
 65 61  1  0
 65 69  1  0
 66 65  1  0
 67 68  1  0
 67 66  1  0
 68 64  1  0
 69 70  2  0
 70 71  1  0
 72 71  2  0
 73 72  1  0
 74 48  1  0
 74 79  1  0
 74 75  1  0
 75 78  1  1
 75 76  1  0
 77 75  1  0
 79 82  1  0
 80 84  1  0
 80 79  1  0
 81 80  2  0
 84 83  1  0
 86 84  1  0
 86 87  1  0
 86 85  1  0
M  ISO  4   8 100  16 100  46 101  47 101
M  END
>  <TORSDO>  (2) 
F 20

>  <SCORE>  (2) 
-16.132

>  <name>  (2) 
1

>  <ligand_id>  (2) 
1

>  <original_smiles>  (2) 
[H]c1c([H])c([H])c2c(c1[H])C([H])([H])C([H])([H])C([H])([H])C2([H])N([H])C(=O)C1([H])N(C(=O)C([H])(N([H])C(=O)C([H])(N([H])C([H])([H])[H])C([H])([H])[H])C(C([H])([H])[H])(C([H])([H])[H])C([H])([H])[H])C([H])([H])c2c([H])c(OC([H])([H])C(C([H])([H])[H])(C([H])([H])C([H])([H])N([H])C(=O)N3C([H])([H])C([H])([H])C([H])([H])C([H])(n4nc(-c5c([H])c([H])c(Oc6c([H])c([H])c(F)c([H])c6F)c([H])c5[H])c(C(=O)N([H])[H])c4N([H])[H])C3([H])[H])C([H])(C([H])([H])[H])C([H])([H])[H])c([H])c([H])c2C1([H])[H]

>  <smiles>  (2) 
[H]c1c([H])c([H])c2c(c1[H])C([H])([H])C([H])([H])C([H])([H])C2([H])N([H])C(=O)C1([H])N(C(=O)C([H])(N([H])C(=O)C([H])(N([H])C([H])([H])[H])C([H])([H])[H])C(C([H])([H])[H])(C([H])([H])[H])C([H])([H])[H])C([H])([H])c2c([H])c(OC([H])([H])C(C([H])([H])[H])(C([H])([H])C([H])([H])N([H])C(=O)N3C([H])([H])C([H])([H])C([H])([H])C([H])(n4nc(-c5c([H])c([H])c(Oc6c([H])c([H])c(F)c([H])c6F)c([H])c5[H])c(C(=O)N([H])[H])c4N([H])[H])C3([H])[H])C([H])(C([H])([H])[H])C([H])([H])[H])c([H])c([H])c2C1([H])[H]

$$$$
2:0:0
     RDKit          3D

 98106  0  0  1  0  0  0  0  0999 V2000
  -30.4100  -22.1560   22.5470 C   0  0  0  0  0  3  0  0  0  0  0  0
  -29.7150  -22.6730   21.4430 C   0  0  0  0  0  3  0  0  0  0  0  0
  -30.5440  -20.0280   21.4310 C   0  0  0  0  0  3  0  0  0  0  0  0
  -30.8320  -20.8240   22.5530 C   0  0  0  0  0  0  0  0  0  0  0  0
  -29.4080  -21.9250   20.2760 C   0  0  0  0  0  0  0  0  0  0  0  0
  -29.8500  -20.5010   20.2810 C   0  0  0  0  0  0  0  0  0  0  0  0
  -32.8610  -19.5400   23.4420 C   0  0  0  0  0  1  0  0  0  0  0  0
  -31.5230  -20.2290   23.7820 C   0  0  0  0  0  3  0  0  0  0  0  0
  -30.4170  -21.6340   25.6450 C   0  0  0  0  0  1  0  0  0  0  0  0
  -31.7130  -21.2810   24.8980 C   0  0  0  0  0  2  0  0  0  0  0  0
  -28.5180  -22.7610   19.2340 C   0  0  0  0  0  2  0  0  0  0  0  0
  -28.8740  -24.3110   18.8050 C   0  0  0  0  0  3  0  0  0  0  0  0
  -27.7020  -25.4040   18.5440 C   0  0  0  0  0  3  0  0  0  0  0  0
  -27.9530  -26.8900   18.4570 O   0  0  0  0  0  0  0  0  0  0  0  0
  -25.3560  -31.3180   23.5750 C   0  0  0  0  0  0  0  0  0  0  0  0
  -26.9370  -27.7940   18.8610 C   0  0  0  0  0  0  0  0  0  0  0  0
  -23.7490  -30.5160   21.8830 C   0  0  0  0  0  3  0  0  0  0  0  0
  -24.7660  -29.4320   19.7980 C   0  0  0  0  0  0  0  0  0  0  0  0
  -26.2280  -30.8050   21.2790 C   0  0  0  0  0  2  0  0  0  0  0  0
  -26.0670  -29.6810   20.2540 C   0  0  0  0  0  0  0  0  0  0  0  0
  -27.1540  -28.8810   19.7750 C   0  0  0  0  0  3  0  0  0  0  0  0
  -25.6110  -27.6210   18.3980 C   0  0  0  0  0  3  0  0  0  0  0  0
  -24.5420  -28.4150   18.8590 C   0  0  0  0  0  3  0  0  0  0  0  0
  -23.6410  -30.2830   20.3540 C   0  0  0  0  0  2  0  0  0  0  0  0
  -25.1420  -30.8820   22.2990 N   0  0  0  0  0  0  0  0  0  0  0  0
  -24.4210  -31.4460   24.3800 O   0  0  0  0  0  0  0  0  0  0  0  0
  -23.1940  -29.2740   22.6220 C   0  0  0  0  0  0  0  0  0  0  0  0
  -21.8840  -29.0130   22.4750 N   0  0  0  0  0  0  0  0  0  0  0  0
  -23.9420  -28.5530   23.2890 O   0  0  0  0  0  0  0  0  0  0  0  0
  -21.3350  -29.6540   21.9170 H   0  0  0  0  0  0  0  0  0  0  0  0
  -18.6860  -27.3160   22.5490 C   0  0  0  0  0  0  0  0  0  0  0  0
  -21.1640  -27.8710   23.0440 C   0  0  0  0  0  3  0  0  0  0  0  0
  -21.4990  -26.5670   22.2850 C   0  0  0  0  0  2  0  0  0  0  0  0
  -20.5120  -26.2540   21.1550 C   0  0  0  0  0  2  0  0  0  0  0  0
  -19.0900  -26.1190   21.7080 C   0  0  0  0  0  2  0  0  0  0  0  0
  -19.6590  -28.1490   23.1640 C   0  0  0  0  0  0  0  0  0  0  0  0
  -19.2310  -29.2690   23.9070 C   0  0  0  0  0  3  0  0  0  0  0  0
  -17.8600  -29.5600   24.0460 C   0  0  0  0  0  3  0  0  0  0  0  0
  -16.8990  -28.7250   23.4490 C   0  0  0  0  0  3  0  0  0  0  0  0
  -17.3140  -27.6050   22.7060 C   0  0  0  0  0  3  0  0  0  0  0  0
  -26.7830  -31.7010   24.0780 C   0  0  0  0  0  3  0  0  0  0  0  0
  -27.3220  -30.7410   25.2090 C   0  0  1  0  0  0  0  0  0  0  0  0
  -26.3010  -30.4820   26.3430 C   0  0  0  0  0  1  0  0  0  0  0  0
  -27.7260  -29.3700   24.6180 C   0  0  0  0  0  1  0  0  0  0  0  0
  -28.5980  -31.3430   25.8440 C   0  0  0  0  0  1  0  0  0  0  0  0
  -26.7270  -33.0890   24.5610 N   0  0  0  0  0  0  0  0  0  0  0  0
  -27.1730  -34.1520   23.8820 C   0  0  0  0  0  0  0  0  0  0  0  0
  -27.7450  -34.0570   22.7910 O   0  0  0  0  0  0  0  0  0  0  0  0
  -26.2220  -33.2460   25.4220 H   0  0  0  0  0  0  0  0  0  0  0  0
  -25.7550  -36.2300   23.8380 C   0  0  0  0  0  1  0  0  0  0  0  0
  -26.9540  -35.5420   24.5100 C   0  0  0  0  0  3  0  0  0  0  0  0
  -29.2360  -35.9980   25.2930 C   0  0  0  0  0  1  0  0  0  0  0  0
  -28.1410  -36.4220   24.4260 N   0  0  0  0  0  0  0  0  0  0  0  0
  -27.8970  -37.3790   24.6630 H   0  0  0  0  0  0  0  0  0  0  0  0
  -29.6310  -19.3390   19.2210 C   0  0  0  0  0  3  0  0  0  0  0  0
  -29.6770  -19.9690   17.8960 N   0  0  0  0  0  4  0  0  0  0  0  0
  -30.5580  -20.4290   17.7520 H   0  0  0  0  0  0  0  0  0  0  0  0
  -28.9380  -20.6420   17.8210 H   0  0  0  0  0  0  0  0  0  0  0  0
  -29.5430  -19.2790   17.1760 H   0  0  0  0  0  0  0  0  0  0  0  0
  -30.6670  -18.0630   19.1990 C   0  0  0  0  0  2  0  0  0  0  0  0
  -31.2120  -15.5860   19.6460 C   0  0  0  0  0  0  0  0  0  0  0  0
  -31.1380  -13.1840   18.9960 C   0  0  0  0  0  2  0  0  0  0  0  0
  -30.0810  -12.9990   17.8840 C   0  0  0  0  0  2  0  0  0  0  0  0
  -28.6880  -12.7550   18.5010 C   0  0  0  0  0  2  0  0  0  0  0  0
  -28.3450  -13.7650   19.6310 C   0  0  0  0  0  3  0  0  0  0  0  0
  -29.5180  -13.9480   20.6250 C   0  0  0  0  0  2  0  0  0  0  0  0
  -30.7040  -14.3240   19.8410 N   0  0  0  0  0  0  0  0  0  0  0  0
  -32.3080  -15.7290   19.0990 O   0  0  0  0  0  0  0  0  0  0  0  0
  -30.4090  -16.6980   19.8410 N   0  0  0  0  0  0  0  0  0  0  0  0
  -29.5270  -16.5600   20.3100 H   0  0  0  0  0  0  0  0  0  0  0  0
  -26.1880  -14.2460   20.9380 C   0  0  0  0  0  0  0  0  0  0  0  0
  -25.1650  -13.4380   21.3550 C   0  0  0  0  0  0  0  0  0  0  0  0
  -25.5160  -12.1160   20.9500 C   0  0  0  0  0  0  0  0  0  0  0  0
  -27.1020  -13.4120   20.3130 N   0  0  0  0  0  0  0  0  0  0  0  0
  -26.7130  -12.1120   20.3730 N   0  0  0  0  0  0  0  0  0  0  0  0
  -24.7520  -10.8620   21.0230 C   0  0  0  0  0  0  0  0  0  0  0  0
  -25.1450   -9.8070   21.8740 C   0  0  0  0  0  3  0  0  0  0  0  0
  -24.3860   -8.6190   21.9400 C   0  0  0  0  0  3  0  0  0  0  0  0
  -23.2190   -8.4790   21.1540 C   0  0  0  0  0  0  0  0  0  0  0  0
  -22.8420   -9.5230   20.2920 C   0  0  0  0  0  3  0  0  0  0  0  0
  -23.6020  -10.7020   20.2220 C   0  0  0  0  0  3  0  0  0  0  0  0
  -22.4310   -7.3530   21.1380 O   0  0  0  0  0  0  0  0  0  0  0  0
  -22.1370   -6.6600   22.2850 C   0  0  0  0  0  0  0  0  0  0  0  0
  -21.3530   -7.2240   23.3140 C   0  0  0  0  0  3  0  0  0  0  0  0
  -21.0150   -6.4550   24.4440 C   0  0  0  0  0  3  0  0  0  0  0  0
  -21.4480   -5.1190   24.5430 C   0  0  0  0  0  0  0  0  0  0  0  0
  -22.2220   -4.5510   23.5160 C   0  0  0  0  0  3  0  0  0  0  0  0
  -22.5620   -5.3200   22.3890 C   0  0  0  0  0  0  0  0  0  0  0  0
  -23.2900   -4.7620   21.3940 F   0  0  0  0  0  0  0  0  0  0  0  0
  -21.1180   -4.3760   25.6260 F   0  0  0  0  0  0  0  0  0  0  0  0
  -23.8860  -13.8860   22.0030 C   0  0  0  0  0  0  0  0  0  0  0  0
  -23.3190  -13.0600   22.8760 N   0  0  0  0  0  0  0  0  0  0  0  0
  -23.4090  -14.9980   21.7780 O   0  0  0  0  0  0  0  0  0  0  0  0
  -23.7260  -12.1600   23.0850 H   0  0  0  0  0  0  0  0  0  0  0  0
  -22.4640  -13.3320   23.3400 H   0  0  0  0  0  0  0  0  0  0  0  0
  -26.4120  -15.6180   21.0180 N   0  0  0  0  0  0  0  0  0  0  0  0
  -25.7260  -16.2550   21.4060 H   0  0  0  0  0  0  0  0  0  0  0  0
  -27.1920  -16.0890   20.5820 H   0  0  0  0  0  0  0  0  0  0  0  0
  1  4  1  0
  2  1  2  0
  3  4  2  0
  4  8  1  0
  5  6  2  0
  5  2  1  0
  6  3  1  0
  8  7  1  0
  8 10  1  0
 10  9  1  0
 11  5  1  0
 12 11  1  0
 13 12  2  0
 14 13  1  0
 14 16  1  0
 15 26  2  0
 16 21  1  0
 17 25  1  0
 17 27  1  0
 18 20  1  0
 18 24  1  0
 19 25  1  0
 20 19  1  0
 21 20  2  0
 22 23  1  0
 22 16  2  0
 23 18  2  0
 24 17  1  0
 25 15  1  0
 27 29  2  0
 28 27  1  0
 30 28  1  0
 31 40  2  0
 31 36  1  0
 32 28  1  0
 32 36  1  0
 33 32  1  0
 34 35  1  0
 34 33  1  0
 35 31  1  0
 36 37  2  0
 37 38  1  0
 39 38  2  0
 40 39  1  0
 41 15  1  0
 41 46  1  0
 41 42  1  0
 42 45  1  1
 42 43  1  0
 44 42  1  0
 46 49  1  0
 47 51  1  0
 47 46  1  0
 48 47  2  0
 51 50  1  0
 53 51  1  0
 53 54  1  0
 53 52  1  0
 55 60  1  0
 55  6  1  0
 56 55  1  0
 57 56  1  0
 58 56  1  0
 59 56  1  0
 60 69  1  0
 61 67  1  0
 61 69  1  0
 62 67  1  0
 63 64  1  0
 63 62  1  0
 65 64  1  0
 65 74  1  0
 65 66  1  0
 67 66  1  0
 68 61  2  0
 69 70  1  0
 71 96  1  0
 71 72  2  0
 72 91  1  0
 73 76  1  0
 73 72  1  0
 74 75  1  0
 74 71  1  0
 75 73  2  0
 76 77  1  0
 77 78  2  0
 79 78  1  0
 80 79  2  0
 81 80  1  0
 81 76  2  0
 82 79  1  0
 82 83  1  0
 83 88  2  0
 83 84  1  0
 84 85  2  0
 85 86  1  0
 86 90  1  0
 87 86  2  0
 88 87  1  0
 89 88  1  0
 91 92  1  0
 92 94  1  0
 92 95  1  0
 93 91  2  0
 96 97  1  0
 98 96  1  0
M  ISO  4  13 101  14 101  61 100  69 100
M  END
>  <TORSDO>  (3) 
F 24

>  <SCORE>  (3) 
-6.100

>  <name>  (3) 
2

>  <ligand_id>  (3) 
2

>  <original_smiles>  (3) 
[H]c1c([H])c([H])c2c(c1[H])C([H])([H])C([H])([H])C([H])([H])C2([H])N([H])C(=O)C1([H])N(C(=O)C([H])(N([H])C(=O)C([H])(N([H])C([H])([H])[H])C([H])([H])[H])C(C([H])([H])[H])(C([H])([H])[H])C([H])([H])[H])C([H])([H])c2c([H])c(OC([H])([H])C([H])([H])C([H])([H])c3c([H])c([H])c(C([H])(C([H])([H])[H])C([H])([H])C([H])([H])[H])c([H])c3C([H])(C([H])([H])N([H])C(=O)N3C([H])([H])C([H])([H])C([H])([H])C([H])(n4nc(-c5c([H])c([H])c(Oc6c([H])c([H])c(F)c([H])c6F)c([H])c5[H])c(C(=O)N([H])[H])c4N([H])[H])C3([H])[H])[N+]([H])([H])[H])c([H])c([H])c2C1([H])[H]

>  <smiles>  (3) 
[H]c1c([H])c([H])c2c(c1[H])C([H])([H])C([H])([H])C([H])([H])C2([H])N([H])C(=O)C1([H])N(C(=O)C([H])(N([H])C(=O)C([H])(N([H])C([H])([H])[H])C([H])([H])[H])C(C([H])([H])[H])(C([H])([H])[H])C([H])([H])[H])C([H])([H])c2c([H])c(OC([H])([H])C([H])([H])C([H])([H])c3c([H])c([H])c(C([H])(C([H])([H])[H])C([H])([H])C([H])([H])[H])c([H])c3C([H])(C([H])([H])N([H])C(=O)N3C([H])([H])C([H])([H])C([H])([H])C([H])(n4nc(-c5c([H])c([H])c(Oc6c([H])c([H])c(F)c([H])c6F)c([H])c5[H])c(C(=O)N([H])[H])c4N([H])[H])C3([H])[H])[N+]([H])([H])[H])c([H])c([H])c2C1([H])[H]

$$$$
3:0:0
     RDKit          3D

 95103  0  0  1  0  0  0  0  0999 V2000
  -29.1990  -21.3720   21.1290 C   0  0  0  0  0  3  0  0  0  0  0  0
  -28.5490  -19.9350   19.3040 C   0  0  0  0  0  3  0  0  0  0  0  0
  -28.4220  -21.2170   19.9690 C   0  0  0  0  0  0  0  0  0  0  0  0
  -30.0910  -20.3670   21.5710 C   0  0  0  0  0  0  0  0  0  0  0  0
  -29.4050  -18.8490   19.7460 C   0  0  0  0  0  0  0  0  0  0  0  0
  -30.2270  -19.1240   20.8800 C   0  0  0  0  0  0  0  0  0  0  0  0
  -30.9360  -20.6850   22.7960 C   0  0  0  0  0  1  0  0  0  0  0  0
  -31.3260  -18.1440   21.3100 C   0  0  0  0  0  2  0  0  0  0  0  0
  -33.3970  -16.8920   20.4300 C   0  0  0  0  0  1  0  0  0  0  0  0
  -32.4960  -18.1280   20.3080 C   0  0  0  0  0  2  0  0  0  0  0  0
  -29.5250  -17.5020   18.8950 C   0  0  0  0  0  2  0  0  0  0  0  0
  -30.2060  -15.0290   19.3200 C   0  0  0  0  0  0  0  0  0  0  0  0
  -30.1680  -12.6160   18.7060 C   0  0  0  0  0  2  0  0  0  0  0  0
  -29.1050  -12.4040   17.6050 C   0  0  0  0  0  2  0  0  0  0  0  0
  -27.7170  -12.1610   18.2300 C   0  0  0  0  0  2  0  0  0  0  0  0
  -27.3740  -13.1870   19.3420 C   0  0  0  0  0  3  0  0  0  0  0  0
  -28.5480  -13.3890   20.3280 C   0  0  0  0  0  2  0  0  0  0  0  0
  -29.7250  -13.7610   19.5340 N   0  0  0  0  0  0  0  0  0  0  0  0
  -31.3160  -15.1900   18.8070 O   0  0  0  0  0  0  0  0  0  0  0  0
  -29.3440  -16.0980   19.4580 N   0  0  0  0  0  0  0  0  0  0  0  0
  -28.4390  -15.8930   19.8520 H   0  0  0  0  0  0  0  0  0  0  0  0
  -25.1290  -13.6820   20.4760 C   0  0  0  0  0  0  0  0  0  0  0  0
  -24.1500  -12.8640   20.9740 C   0  0  0  0  0  0  0  0  0  0  0  0
  -24.6220  -11.5280   20.7920 C   0  0  0  0  0  0  0  0  0  0  0  0
  -26.1330  -12.8410   20.0270 N   0  0  0  0  0  0  0  0  0  0  0  0
  -25.8460  -11.5370   20.2770 N   0  0  0  0  0  0  0  0  0  0  0  0
  -23.9550  -10.2400   21.0300 C   0  0  0  0  0  0  0  0  0  0  0  0
  -24.4660   -9.3040   21.9570 C   0  0  0  0  0  3  0  0  0  0  0  0
  -23.7970   -8.0820   22.1820 C   0  0  0  0  0  3  0  0  0  0  0  0
  -22.6020   -7.7890   21.4830 C   0  0  0  0  0  0  0  0  0  0  0  0
  -22.1100   -8.7140   20.5450 C   0  0  0  0  0  3  0  0  0  0  0  0
  -22.7790   -9.9280   20.3180 C   0  0  0  0  0  3  0  0  0  0  0  0
  -21.8980   -6.6170   21.6180 O   0  0  0  0  0  0  0  0  0  0  0  0
  -21.8260   -5.9550   22.8160 C   0  0  0  0  0  0  0  0  0  0  0  0
  -21.2890   -6.5620   23.9730 C   0  0  0  0  0  3  0  0  0  0  0  0
  -21.1710   -5.8220   25.1660 C   0  0  0  0  0  3  0  0  0  0  0  0
  -21.5780   -4.4750   25.2030 C   0  0  0  0  0  0  0  0  0  0  0  0
  -22.1070   -3.8670   24.0530 C   0  0  0  0  0  3  0  0  0  0  0  0
  -22.2280   -4.6040   22.8610 C   0  0  0  0  0  0  0  0  0  0  0  0
  -22.7190   -4.0080   21.7480 F   0  0  0  0  0  0  0  0  0  0  0  0
  -21.4570   -3.7620   26.3480 F   0  0  0  0  0  0  0  0  0  0  0  0
  -22.8110  -13.2940   21.4970 C   0  0  0  0  0  0  0  0  0  0  0  0
  -22.2660  -12.5590   22.4610 N   0  0  0  0  0  0  0  0  0  0  0  0
  -22.2600  -14.3140   21.0870 O   0  0  0  0  0  0  0  0  0  0  0  0
  -22.7270  -11.7310   22.8090 H   0  0  0  0  0  0  0  0  0  0  0  0
  -21.3780  -12.8280   22.8590 H   0  0  0  0  0  0  0  0  0  0  0  0
  -25.2390  -15.0640   20.3450 N   0  0  0  0  0  0  0  0  0  0  0  0
  -24.4870  -15.6910   20.6130 H   0  0  0  0  0  0  0  0  0  0  0  0
  -25.9980  -15.5360   19.8720 H   0  0  0  0  0  0  0  0  0  0  0  0
  -27.4720  -22.4080   19.4860 C   0  0  0  0  0  3  0  0  0  0  0  0
  -25.4710  -20.7510   19.1040 C   0  0  0  0  0  1  0  0  0  0  0  0
  -25.9750  -22.0640   19.7210 C   0  0  0  0  0  2  0  0  0  0  0  0
  -27.7310  -23.9160   20.0290 C   0  0  0  0  0  3  0  0  0  0  0  0
  -27.3750  -25.1730   19.0810 C   0  0  0  0  0  3  0  0  0  0  0  0
  -27.6160  -26.5840   19.4970 O   0  0  0  0  0  0  0  0  0  0  0  0
  -25.0370  -31.8700   23.6760 C   0  0  0  0  0  0  0  0  0  0  0  0
  -26.6000  -27.5370   19.6980 C   0  0  0  0  0  0  0  0  0  0  0  0
  -23.4620  -30.8900   22.0460 C   0  0  0  0  0  3  0  0  0  0  0  0
  -24.4980  -29.4110   20.2360 C   0  0  0  0  0  0  0  0  0  0  0  0
  -25.9780  -30.9270   21.5530 C   0  0  0  0  0  2  0  0  0  0  0  0
  -25.7850  -29.6610   20.7230 C   0  0  0  0  0  0  0  0  0  0  0  0
  -26.8340  -28.7350   20.4470 C   0  0  0  0  0  3  0  0  0  0  0  0
  -25.2880  -27.3420   19.2100 C   0  0  0  0  0  3  0  0  0  0  0  0
  -24.2520  -28.2600   19.4710 C   0  0  0  0  0  3  0  0  0  0  0  0
  -23.4090  -30.4100   20.5720 C   0  0  0  0  0  2  0  0  0  0  0  0
  -24.8540  -31.2370   22.4810 N   0  0  0  0  0  0  0  0  0  0  0  0
  -24.0760  -32.1920   24.3880 O   0  0  0  0  0  0  0  0  0  0  0  0
  -22.7870  -29.8270   22.9460 C   0  0  0  0  0  0  0  0  0  0  0  0
  -21.4780  -29.6030   22.7390 N   0  0  0  0  0  0  0  0  0  0  0  0
  -23.4420  -29.2070   23.7880 O   0  0  0  0  0  0  0  0  0  0  0  0
  -21.0060  -30.1610   22.0410 H   0  0  0  0  0  0  0  0  0  0  0  0
  -18.2290  -28.0100   22.7750 C   0  0  0  0  0  0  0  0  0  0  0  0
  -20.6540  -28.6140   23.4400 C   0  0  0  0  0  3  0  0  0  0  0  0
  -21.0200  -27.1750   23.0110 C   0  0  0  0  0  2  0  0  0  0  0  0
  -20.1580  -26.6510   21.8580 C   0  0  0  0  0  2  0  0  0  0  0  0
  -18.6770  -26.6570   22.2490 C   0  0  0  0  0  2  0  0  0  0  0  0
  -19.1590  -28.9360   23.3190 C   0  0  0  0  0  0  0  0  0  0  0  0
  -18.6950  -30.1940   23.7580 C   0  0  0  0  0  3  0  0  0  0  0  0
  -17.3310  -30.5310   23.6620 C   0  0  0  0  0  3  0  0  0  0  0  0
  -16.4130  -29.6040   23.1380 C   0  0  0  0  0  3  0  0  0  0  0  0
  -16.8620  -28.3460   22.7010 C   0  0  0  0  0  3  0  0  0  0  0  0
  -26.4610  -32.2430   24.1940 C   0  0  0  0  0  3  0  0  0  0  0  0
  -26.3850  -33.5930   24.7720 N   0  0  0  0  0  0  0  0  0  0  0  0
  -26.7800  -34.7120   24.1520 C   0  0  0  0  0  0  0  0  0  0  0  0
  -27.3180  -34.7050   23.0410 O   0  0  0  0  0  0  0  0  0  0  0  0
  -25.9060  -33.6790   25.6560 H   0  0  0  0  0  0  0  0  0  0  0  0
  -25.2960  -36.7350   24.2980 C   0  0  0  0  0  1  0  0  0  0  0  0
  -26.5430  -36.0510   24.8770 C   0  0  0  0  0  3  0  0  0  0  0  0
  -28.8510  -36.5160   25.5710 C   0  0  0  0  0  1  0  0  0  0  0  0
  -27.6960  -36.9730   24.8030 N   0  0  0  0  0  0  0  0  0  0  0  0
  -27.4400  -37.8990   25.1370 H   0  0  0  0  0  0  0  0  0  0  0  0
  -27.0280  -31.2160   25.2490 C   0  0  1  0  0  0  0  0  0  0  0  0
  -26.0440  -30.8990   26.3990 C   0  0  0  0  0  1  0  0  0  0  0  0
  -27.3960  -29.8780   24.5670 C   0  0  0  0  0  1  0  0  0  0  0  0
  -28.3330  -31.7670   25.8710 C   0  0  0  0  0  1  0  0  0  0  0  0
  1  4  1  0
  2  5  2  0
  2  3  1  0
  3  1  2  0
  4  7  1  0
  5  6  1  0
  6  8  1  0
  6  4  2  0
 10  9  1  0
 10  8  1  0
 11 20  1  0
 11  5  1  0
 12 20  1  0
 12 18  1  0
 13 18  1  0
 14 15  1  0
 14 13  1  0
 16 15  1  0
 16 25  1  0
 16 17  1  0
 18 17  1  0
 19 12  2  0
 20 21  1  0
 22 23  2  0
 23 42  1  0
 24 23  1  0
 24 27  1  0
 25 26  1  0
 25 22  1  0
 26 24  2  0
 27 28  1  0
 28 29  2  0
 30 33  1  0
 30 29  1  0
 31 30  2  0
 32 31  1  0
 32 27  2  0
 33 34  1  0
 34 39  2  0
 34 35  1  0
 35 36  2  0
 36 37  1  0
 37 41  1  0
 38 37  2  0
 39 38  1  0
 40 39  1  0
 42 43  1  0
 43 45  1  0
 43 46  1  0
 44 42  2  0
 47 22  1  0
 47 48  1  0
 49 47  1  0
 50 52  1  0
 50  3  1  0
 50 53  1  0
 51 52  1  0
 54 55  1  0
 54 53  2  0
 55 57  1  0
 56 67  2  0
 57 62  1  0
 58 66  1  0
 58 68  1  0
 59 65  1  0
 59 61  1  0
 60 66  1  0
 61 60  1  0
 62 61  2  0
 63 64  1  0
 63 57  2  0
 64 59  2  0
 65 58  1  0
 66 56  1  0
 68 70  2  0
 69 68  1  0
 71 69  1  0
 72 77  1  0
 73 69  1  0
 74 73  1  0
 75 76  1  0
 75 74  1  0
 76 72  1  0
 77 73  1  0
 77 78  2  0
 79 78  1  0
 80 79  2  0
 81 72  2  0
 81 80  1  0
 82 56  1  0
 82 83  1  0
 82 92  1  0
 83 86  1  0
 84 83  1  0
 84 88  1  0
 85 84  2  0
 88 87  1  0
 90 88  1  0
 90 91  1  0
 90 89  1  0
 92 95  1  1
 92 93  1  0
 94 92  1  0
M  ISO  4  12 100  20 100  54 101  55 101
M  END
>  <TORSDO>  (4) 
F 23

>  <SCORE>  (4) 
-10.071

>  <name>  (4) 
3

>  <ligand_id>  (4) 
3

>  <original_smiles>  (4) 
[H]c1c([H])c([H])c2c(c1[H])C([H])([H])C([H])([H])C([H])([H])C2([H])N([H])C(=O)C1([H])N(C(=O)C([H])(N([H])C(=O)C([H])(N([H])C([H])([H])[H])C([H])([H])[H])C(C([H])([H])[H])(C([H])([H])[H])C([H])([H])[H])C([H])([H])c2c([H])c(OC([H])([H])C([H])([H])C([H])(c3c([H])c(C([H])([H])[H])c(C([H])([H])C([H])([H])C([H])([H])[H])c(C([H])([H])N([H])C(=O)N4C([H])([H])C([H])([H])C([H])([H])C([H])(n5nc(-c6c([H])c([H])c(Oc7c([H])c([H])c(F)c([H])c7F)c([H])c6[H])c(C(=O)N([H])[H])c5N([H])[H])C4([H])[H])c3[H])C([H])([H])C([H])([H])[H])c([H])c([H])c2C1([H])[H]

>  <smiles>  (4) 
[H]c1c([H])c([H])c2c(c1[H])C([H])([H])C([H])([H])C([H])([H])C2([H])N([H])C(=O)C1([H])N(C(=O)C([H])(N([H])C(=O)C([H])(N([H])C([H])([H])[H])C([H])([H])[H])C(C([H])([H])[H])(C([H])([H])[H])C([H])([H])[H])C([H])([H])c2c([H])c(OC([H])([H])C([H])([H])C([H])(c3c([H])c(C([H])([H])[H])c(C([H])([H])C([H])([H])C([H])([H])[H])c(C([H])([H])N([H])C(=O)N4C([H])([H])C([H])([H])C([H])([H])C([H])(n5nc(-c6c([H])c([H])c(Oc7c([H])c([H])c(F)c([H])c7F)c([H])c6[H])c(C(=O)N([H])[H])c5N([H])[H])C4([H])[H])c3[H])C([H])([H])C([H])([H])[H])c([H])c([H])c2C1([H])[H]

$$$$
4:0:0
     RDKit          3D

 92100  0  0  1  0  0  0  0  0999 V2000
  -30.8740  -18.5220   19.1980 C   0  0  0  0  0  3  0  0  0  0  0  0
  -31.0010  -19.7110   18.4550 C   0  0  0  0  0  3  0  0  0  0  0  0
  -29.4360  -19.7190   20.7420 C   0  0  0  0  0  3  0  0  0  0  0  0
  -30.0980  -18.4840   20.3660 C   0  0  0  0  0  0  0  0  0  0  0  0
  -30.3400  -20.9150   18.8150 C   0  0  0  0  0  0  0  0  0  0  0  0
  -29.5240  -20.9560   19.9850 C   0  0  0  0  0  0  0  0  0  0  0  0
  -30.5150  -22.1570   17.9360 C   0  0  0  0  0  2  0  0  0  0  0  0
  -31.1320  -23.2600   15.7270 C   0  0  0  0  0  1  0  0  0  0  0  0
  -31.0620  -21.9440   16.5120 C   0  0  0  0  0  2  0  0  0  0  0  0
  -28.6150  -22.2300   20.3210 C   0  0  0  0  0  2  0  0  0  0  0  0
  -29.1230  -23.7690   20.4240 C   0  0  0  0  0  3  0  0  0  0  0  0
  -28.0290  -24.9160   20.1300 C   0  0  0  0  0  3  0  0  0  0  0  0
  -28.2920  -26.3860   20.2680 O   0  0  0  0  0  0  0  0  0  0  0  0
  -24.6110  -31.8800   23.2460 C   0  0  0  0  0  0  0  0  0  0  0  0
  -27.1890  -27.2710   20.2030 C   0  0  0  0  0  0  0  0  0  0  0  0
  -23.3980  -30.4850   21.6130 C   0  0  0  0  0  3  0  0  0  0  0  0
  -24.8370  -28.9220   20.1870 C   0  0  0  0  0  0  0  0  0  0  0  0
  -25.9430  -30.7800   21.4270 C   0  0  0  0  0  2  0  0  0  0  0  0
  -26.0130  -29.3980   20.7800 C   0  0  0  0  0  0  0  0  0  0  0  0
  -27.1920  -28.5870   20.7740 C   0  0  0  0  0  3  0  0  0  0  0  0
  -25.9840  -26.8600   19.5830 C   0  0  0  0  0  3  0  0  0  0  0  0
  -24.8270  -27.6600   19.5780 C   0  0  0  0  0  3  0  0  0  0  0  0
  -23.6070  -29.8050   20.2340 C   0  0  0  0  0  2  0  0  0  0  0  0
  -24.6700  -31.0670   22.1510 N   0  0  0  0  0  0  0  0  0  0  0  0
  -23.5300  -32.1630   23.7830 O   0  0  0  0  0  0  0  0  0  0  0  0
  -22.7300  -29.4740   22.5750 C   0  0  0  0  0  0  0  0  0  0  0  0
  -21.4020  -29.3030   22.4500 N   0  0  0  0  0  0  0  0  0  0  0  0
  -23.4050  -28.8480   23.3960 O   0  0  0  0  0  0  0  0  0  0  0  0
  -20.9160  -29.8580   21.7580 H   0  0  0  0  0  0  0  0  0  0  0  0
  -18.0210  -28.1160   22.9530 C   0  0  0  0  0  0  0  0  0  0  0  0
  -20.5800  -28.3730   23.2250 C   0  0  0  0  0  3  0  0  0  0  0  0
  -20.6790  -26.9360   22.6610 C   0  0  0  0  0  2  0  0  0  0  0  0
  -19.5780  -26.6070   21.6460 C   0  0  0  0  0  2  0  0  0  0  0  0
  -18.1960  -26.7610   22.2870 C   0  0  0  0  0  2  0  0  0  0  0  0
  -19.1400  -28.8790   23.3790 C   0  0  0  0  0  0  0  0  0  0  0  0
  -18.9230  -30.1460   23.9620 C   0  0  0  0  0  3  0  0  0  0  0  0
  -17.6180  -30.6510   24.1220 C   0  0  0  0  0  3  0  0  0  0  0  0
  -16.5130  -29.8850   23.7110 C   0  0  0  0  0  3  0  0  0  0  0  0
  -16.7150  -28.6190   23.1330 C   0  0  0  0  0  3  0  0  0  0  0  0
  -25.8960  -32.5100   23.8630 C   0  0  0  0  0  3  0  0  0  0  0  0
  -25.5900  -33.9090   24.1960 N   0  0  0  0  0  0  0  0  0  0  0  0
  -25.9150  -34.9640   23.4360 C   0  0  0  0  0  0  0  0  0  0  0  0
  -26.5740  -34.8620   22.3980 O   0  0  0  0  0  0  0  0  0  0  0  0
  -25.0060  -34.0610   25.0050 H   0  0  0  0  0  0  0  0  0  0  0  0
  -24.1830  -36.7570   23.1070 C   0  0  0  0  0  1  0  0  0  0  0  0
  -25.4350  -36.3510   23.9020 C   0  0  0  0  0  3  0  0  0  0  0  0
  -27.5820  -37.2340   24.7030 C   0  0  0  0  0  1  0  0  0  0  0  0
  -26.4660  -37.4050   23.7760 N   0  0  0  0  0  0  0  0  0  0  0  0
  -26.0630  -38.3250   23.9310 H   0  0  0  0  0  0  0  0  0  0  0  0
  -26.4150  -31.7390   25.1390 C   0  0  1  0  0  0  0  0  0  0  0  0
  -25.3260  -31.5080   26.2120 C   0  0  0  0  0  1  0  0  0  0  0  0
  -26.9900  -30.3590   24.7490 C   0  0  0  0  0  1  0  0  0  0  0  0
  -27.5700  -32.5310   25.7950 C   0  0  0  0  0  1  0  0  0  0  0  0
  -30.1350  -17.1670   21.2420 C   0  0  0  0  0  2  0  0  0  0  0  0
  -30.5980  -14.6930   20.4400 C   0  0  0  0  0  0  0  0  0  0  0  0
  -30.3950  -12.4490   19.3630 C   0  0  0  0  0  2  0  0  0  0  0  0
  -29.4490  -12.5370   18.1460 C   0  0  0  0  0  2  0  0  0  0  0  0
  -27.9770  -12.3690   18.5770 C   0  0  0  0  0  2  0  0  0  0  0  0
  -27.6080  -13.2460   19.8050 C   0  0  0  0  0  3  0  0  0  0  0  0
  -28.6670  -13.1240   20.9200 C   0  0  0  0  0  2  0  0  0  0  0  0
  -29.9650  -13.4810   20.3280 N   0  0  0  0  0  0  0  0  0  0  0  0
  -31.7900  -14.8150   20.1500 O   0  0  0  0  0  0  0  0  0  0  0  0
  -29.8070  -15.7860   20.7070 N   0  0  0  0  0  0  0  0  0  0  0  0
  -28.8270  -15.5540   20.7620 H   0  0  0  0  0  0  0  0  0  0  0  0
  -25.2160  -13.8460   20.5220 C   0  0  0  0  0  0  0  0  0  0  0  0
  -24.1470  -13.0730   20.8910 C   0  0  0  0  0  0  0  0  0  0  0  0
  -24.6110  -11.7220   20.8690 C   0  0  0  0  0  0  0  0  0  0  0  0
  -26.2610  -12.9650   20.2930 N   0  0  0  0  0  0  0  0  0  0  0  0
  -25.9030  -11.6830   20.5650 N   0  0  0  0  0  0  0  0  0  0  0  0
  -23.8850  -10.4600   21.0620 C   0  0  0  0  0  0  0  0  0  0  0  0
  -24.3270   -9.4880   21.9860 C   0  0  0  0  0  3  0  0  0  0  0  0
  -23.6020   -8.2900   22.1660 C   0  0  0  0  0  3  0  0  0  0  0  0
  -22.4210   -8.0570   21.4220 C   0  0  0  0  0  0  0  0  0  0  0  0
  -21.9980   -9.0170   20.4870 C   0  0  0  0  0  3  0  0  0  0  0  0
  -22.7230  -10.2070   20.3050 C   0  0  0  0  0  3  0  0  0  0  0  0
  -21.6650   -6.9130   21.5140 O   0  0  0  0  0  0  0  0  0  0  0  0
  -21.6390   -6.1570   22.6590 C   0  0  0  0  0  0  0  0  0  0  0  0
  -21.2520   -6.7010   23.9030 C   0  0  0  0  0  3  0  0  0  0  0  0
  -21.1730   -5.8720   25.0400 C   0  0  0  0  0  3  0  0  0  0  0  0
  -21.4710   -4.5000   24.9330 C   0  0  0  0  0  0  0  0  0  0  0  0
  -21.8500   -3.9560   23.6940 C   0  0  0  0  0  3  0  0  0  0  0  0
  -21.9310   -4.7820   22.5590 C   0  0  0  0  0  0  0  0  0  0  0  0
  -22.2770   -4.2490   21.3630 F   0  0  0  0  0  0  0  0  0  0  0  0
  -21.3860   -3.7010   26.0220 F   0  0  0  0  0  0  0  0  0  0  0  0
  -22.7490  -13.5510   21.1530 C   0  0  0  0  0  0  0  0  0  0  0  0
  -22.0170  -12.8580   22.0190 N   0  0  0  0  0  0  0  0  0  0  0  0
  -22.3130  -14.5720   20.6230 O   0  0  0  0  0  0  0  0  0  0  0  0
  -22.3830  -12.0350   22.4720 H   0  0  0  0  0  0  0  0  0  0  0  0
  -21.0760  -13.1600   22.2340 H   0  0  0  0  0  0  0  0  0  0  0  0
  -25.3790  -15.2160   20.3340 N   0  0  0  0  0  0  0  0  0  0  0  0
  -24.6030  -15.8640   20.4240 H   0  0  0  0  0  0  0  0  0  0  0  0
  -26.2110  -15.6500   19.9590 H   0  0  0  0  0  0  0  0  0  0  0  0
  1  4  1  0
  2  5  1  0
  2  1  2  0
  4  3  2  0
  4 54  1  0
  5  6  2  0
  6 10  1  0
  6  3  1  0
  7  5  1  0
  8  9  1  0
  9  7  1  0
 10 11  1  0
 12 13  1  0
 12 11  2  0
 14 25  2  0
 15 13  1  0
 15 20  1  0
 16 24  1  0
 16 26  1  0
 17 23  1  0
 17 19  1  0
 18 24  1  0
 19 18  1  0
 20 19  2  0
 21 15  2  0
 22 21  1  0
 22 17  2  0
 23 16  1  0
 24 14  1  0
 26 28  2  0
 27 26  1  0
 29 27  1  0
 30 39  2  0
 30 35  1  0
 31 27  1  0
 31 35  1  0
 32 31  1  0
 33 34  1  0
 33 32  1  0
 34 30  1  0
 35 36  2  0
 36 37  1  0
 38 37  2  0
 39 38  1  0
 40 14  1  0
 40 41  1  0
 40 50  1  0
 41 44  1  0
 42 46  1  0
 42 41  1  0
 43 42  2  0
 46 45  1  0
 48 46  1  0
 48 49  1  0
 48 47  1  0
 50 53  1  1
 50 51  1  0
 52 50  1  0
 55 63  1  0
 56 61  1  0
 57 58  1  0
 57 56  1  0
 59 58  1  0
 59 68  1  0
 59 60  1  0
 61 55  1  0
 61 60  1  0
 62 55  2  0
 63 64  1  0
 63 54  1  0
 65 66  2  0
 66 85  1  0
 67 66  1  0
 67 70  1  0
 68 65  1  0
 68 69  1  0
 69 67  2  0
 70 71  1  0
 71 72  2  0
 73 76  1  0
 73 72  1  0
 74 73  2  0
 75 74  1  0
 75 70  2  0
 76 77  1  0
 77 78  1  0
 78 79  2  0
 80 79  1  0
 80 84  1  0
 81 80  2  0
 82 77  2  0
 82 81  1  0
 83 82  1  0
 85 86  1  0
 86 89  1  0
 86 88  1  0
 87 85  2  0
 90 91  1  0
 90 65  1  0
 92 90  1  0
M  ISO  4  12 101  13 101  55 100  63 100
M  END
>  <TORSDO>  (5) 
F 22

>  <SCORE>  (5) 
-13.152

>  <name>  (5) 
4

>  <ligand_id>  (5) 
4

>  <original_smiles>  (5) 
[H]c1c([H])c([H])c2c(c1[H])C([H])([H])C([H])([H])C([H])([H])C2([H])N([H])C(=O)C1([H])N(C(=O)C([H])(N([H])C(=O)C([H])(N([H])C([H])([H])[H])C([H])([H])[H])C(C([H])([H])[H])(C([H])([H])[H])C([H])([H])[H])C([H])([H])c2c([H])c(OC([H])([H])C([H])([H])C([H])([H])c3c([H])c(C([H])([H])N([H])C(=O)N4C([H])([H])C([H])([H])C([H])([H])C([H])(n5nc(-c6c([H])c([H])c(Oc7c([H])c([H])c(F)c([H])c7F)c([H])c6[H])c(C(=O)N([H])[H])c5N([H])[H])C4([H])[H])c([H])c([H])c3C([H])([H])C([H])([H])C([H])([H])[H])c([H])c([H])c2C1([H])[H]

>  <smiles>  (5) 
[H]c1c([H])c([H])c2c(c1[H])C([H])([H])C([H])([H])C([H])([H])C2([H])N([H])C(=O)C1([H])N(C(=O)C([H])(N([H])C(=O)C([H])(N([H])C([H])([H])[H])C([H])([H])[H])C(C([H])([H])[H])(C([H])([H])[H])C([H])([H])[H])C([H])([H])c2c([H])c(OC([H])([H])C([H])([H])C([H])([H])c3c([H])c(C([H])([H])N([H])C(=O)N4C([H])([H])C([H])([H])C([H])([H])C([H])(n5nc(-c6c([H])c([H])c(Oc7c([H])c([H])c(F)c([H])c7F)c([H])c6[H])c(C(=O)N([H])[H])c5N([H])[H])C4([H])[H])c([H])c([H])c3C([H])([H])C([H])([H])C([H])([H])[H])c([H])c([H])c2C1([H])[H]

$$$$
5:0:0
     RDKit          3D

 99107  0  0  1  0  0  0  0  0999 V2000
  -29.4510  -20.6990   21.5340 C   0  0  0  0  0  2  0  0  0  0  0  0
  -29.5500  -19.5980   20.7050 C   0  0  0  0  0  0  0  0  0  0  0  0
  -29.9880  -20.1240   19.4410 C   0  0  0  0  0  0  0  0  0  0  0  0
  -30.4040  -21.4230   19.6550 C   0  0  0  0  0  3  0  0  0  0  0  0
  -31.1690  -22.3790   18.7780 C   0  0  0  0  0  1  0  0  0  0  0  0
  -29.8930  -21.8460   20.8730 N   0  0  0  0  0  0  0  0  0  0  0  0
  -31.2690  -19.4690   17.3170 C   0  0  0  0  0  1  0  0  0  0  0  0
  -29.9390  -19.4230   18.0880 C   0  0  0  0  0  3  0  0  0  0  0  0
  -28.7950  -20.0300   17.2320 C   0  0  0  0  0  2  0  0  0  0  0  0
  -26.3210  -20.0330   16.8050 C   0  0  0  0  0  1  0  0  0  0  0  0
  -27.5660  -19.1510   16.9860 C   0  0  0  0  0  2  0  0  0  0  0  0
  -29.1590  -18.1380   21.0410 C   0  0  0  0  0  3  0  0  0  0  0  0
  -30.3080  -17.0660   20.9540 C   0  0  0  0  0  3  0  0  0  0  0  0
  -30.6380  -14.5700   20.5250 C   0  0  0  0  0  0  0  0  0  0  0  0
  -30.3500  -12.4480   19.2810 C   0  0  0  0  0  2  0  0  0  0  0  0
  -29.4020  -12.7060   18.0890 C   0  0  0  0  0  2  0  0  0  0  0  0
  -27.9310  -12.5560   18.5250 C   0  0  0  0  0  2  0  0  0  0  0  0
  -27.6070  -13.3360   19.8270 C   0  0  0  0  0  3  0  0  0  0  0  0
  -28.6640  -13.0540   20.9180 C   0  0  0  0  0  2  0  0  0  0  0  0
  -29.9790  -13.3890   20.3540 N   0  0  0  0  0  0  0  0  0  0  0  0
  -31.8010  -14.7260   20.1370 O   0  0  0  0  0  0  0  0  0  0  0  0
  -29.8890  -15.6290   20.9440 N   0  0  0  0  0  0  0  0  0  0  0  0
  -28.9290  -15.4280   21.1980 H   0  0  0  0  0  0  0  0  0  0  0  0
  -25.2060  -13.9380   20.5350 C   0  0  0  0  0  0  0  0  0  0  0  0
  -24.1370  -13.1680   20.8940 C   0  0  0  0  0  0  0  0  0  0  0  0
  -24.5960  -11.8140   20.8550 C   0  0  0  0  0  0  0  0  0  0  0  0
  -26.2520  -13.0570   20.2990 N   0  0  0  0  0  0  0  0  0  0  0  0
  -25.8870  -11.7740   20.5520 N   0  0  0  0  0  0  0  0  0  0  0  0
  -23.8670  -10.5540   21.0330 C   0  0  0  0  0  0  0  0  0  0  0  0
  -24.2980   -9.5760   21.9560 C   0  0  0  0  0  3  0  0  0  0  0  0
  -23.5720   -8.3770   22.1230 C   0  0  0  0  0  3  0  0  0  0  0  0
  -22.3960   -8.1490   21.3680 C   0  0  0  0  0  0  0  0  0  0  0  0
  -21.9850   -9.1150   20.4340 C   0  0  0  0  0  3  0  0  0  0  0  0
  -22.7130  -10.3050   20.2650 C   0  0  0  0  0  3  0  0  0  0  0  0
  -21.6410   -7.0040   21.4430 O   0  0  0  0  0  0  0  0  0  0  0  0
  -21.5930   -6.2480   22.5860 C   0  0  0  0  0  0  0  0  0  0  0  0
  -21.1530   -6.7820   23.8160 C   0  0  0  0  0  3  0  0  0  0  0  0
  -21.0560   -5.9510   24.9500 C   0  0  0  0  0  3  0  0  0  0  0  0
  -21.3880   -4.5880   24.8550 C   0  0  0  0  0  0  0  0  0  0  0  0
  -21.8210   -4.0510   23.6310 C   0  0  0  0  0  3  0  0  0  0  0  0
  -21.9220   -4.8800   22.4980 C   0  0  0  0  0  0  0  0  0  0  0  0
  -22.3220   -4.3530   21.3150 F   0  0  0  0  0  0  0  0  0  0  0  0
  -21.2870   -3.7870   25.9420 F   0  0  0  0  0  0  0  0  0  0  0  0
  -22.7390  -13.6430   21.1630 C   0  0  0  0  0  0  0  0  0  0  0  0
  -22.0080  -12.9470   22.0240 N   0  0  0  0  0  0  0  0  0  0  0  0
  -22.3060  -14.6710   20.6400 O   0  0  0  0  0  0  0  0  0  0  0  0
  -22.3710  -12.1150   22.4670 H   0  0  0  0  0  0  0  0  0  0  0  0
  -21.0700  -13.2510   22.2450 H   0  0  0  0  0  0  0  0  0  0  0  0
  -25.3760  -15.3120   20.3680 N   0  0  0  0  0  0  0  0  0  0  0  0
  -24.6100  -15.9640   20.4840 H   0  0  0  0  0  0  0  0  0  0  0  0
  -26.2150  -15.7520   20.0130 H   0  0  0  0  0  0  0  0  0  0  0  0
  -29.8880  -23.2500   21.3620 C   0  0  0  0  0  2  0  0  0  0  0  0
  -28.0080  -23.7900   19.6020 C   0  0  0  0  0  1  0  0  0  0  0  0
  -28.6310  -24.1380   20.9720 C   0  0  0  0  0  3  0  0  0  0  0  0
  -30.1910  -26.2130   21.4660 C   0  0  0  0  0  1  0  0  0  0  0  0
  -28.7380  -25.7270   21.2320 C   0  0  2  0  0  0  0  0  0  0  0  0
  -28.2550  -25.5090   23.8300 C   0  0  0  0  0  1  0  0  0  0  0  0
  -27.8750  -26.1290   22.4760 C   0  0  0  0  0  2  0  0  0  0  0  0
  -28.4040  -26.5210   20.0360 O   0  0  0  0  0  0  0  0  0  0  0  0
  -24.7010  -31.7320   23.2260 C   0  0  0  0  0  0  0  0  0  0  0  0
  -27.2890  -27.3490   20.0360 C   0  0  0  0  0  0  0  0  0  0  0  0
  -23.4750  -30.3910   21.5450 C   0  0  0  0  0  3  0  0  0  0  0  0
  -24.9130  -28.8980   20.0680 C   0  0  0  0  0  0  0  0  0  0  0  0
  -26.0050  -30.7410   21.3560 C   0  0  0  0  0  2  0  0  0  0  0  0
  -26.0800  -29.3940   20.6680 C   0  0  0  0  0  0  0  0  0  0  0  0
  -27.2750  -28.6300   20.6450 C   0  0  0  0  0  3  0  0  0  0  0  0
  -26.1130  -26.8990   19.3960 C   0  0  0  0  0  3  0  0  0  0  0  0
  -24.9270  -27.6490   19.4310 C   0  0  0  0  0  3  0  0  0  0  0  0
  -23.6730  -29.7620   20.1430 C   0  0  0  0  0  2  0  0  0  0  0  0
  -24.7440  -30.9640   22.1020 N   0  0  0  0  0  0  0  0  0  0  0  0
  -23.6220  -31.9990   23.7760 O   0  0  0  0  0  0  0  0  0  0  0  0
  -22.8260  -29.3390   22.4710 C   0  0  0  0  0  0  0  0  0  0  0  0
  -21.4990  -29.1610   22.3370 N   0  0  0  0  0  0  0  0  0  0  0  0
  -23.5100  -28.6960   23.2680 O   0  0  0  0  0  0  0  0  0  0  0  0
  -21.0070  -29.7090   21.6450 H   0  0  0  0  0  0  0  0  0  0  0  0
  -18.1170  -28.0110   22.8450 C   0  0  0  0  0  0  0  0  0  0  0  0
  -20.6840  -28.2130   23.0970 C   0  0  0  0  0  3  0  0  0  0  0  0
  -20.7550  -26.8090   22.4620 C   0  0  0  0  0  2  0  0  0  0  0  0
  -19.6350  -26.5590   21.4500 C   0  0  0  0  0  2  0  0  0  0  0  0
  -18.2640  -26.6850   22.1200 C   0  0  0  0  0  2  0  0  0  0  0  0
  -19.2540  -28.7360   23.2920 C   0  0  0  0  0  0  0  0  0  0  0  0
  -19.0650  -29.9810   23.9300 C   0  0  0  0  0  3  0  0  0  0  0  0
  -17.7720  -30.5020   24.1300 C   0  0  0  0  0  3  0  0  0  0  0  0
  -16.6470  -29.7780   23.6910 C   0  0  0  0  0  3  0  0  0  0  0  0
  -16.8240  -28.5360   23.0510 C   0  0  0  0  0  3  0  0  0  0  0  0
  -25.9960  -32.3370   23.8570 C   0  0  0  0  0  3  0  0  0  0  0  0
  -26.5510  -31.4990   25.0730 C   0  0  1  0  0  0  0  0  0  0  0  0
  -25.4770  -31.2210   26.1490 C   0  0  0  0  0  1  0  0  0  0  0  0
  -27.1160  -30.1340   24.6000 C   0  0  0  0  0  1  0  0  0  0  0  0
  -27.7350  -32.2450   25.7310 C   0  0  0  0  0  1  0  0  0  0  0  0
  -25.6760  -33.7100   24.2740 N   0  0  0  0  0  0  0  0  0  0  0  0
  -26.0110  -34.8070   23.5850 C   0  0  0  0  0  0  0  0  0  0  0  0
  -26.6900  -34.7700   22.5560 O   0  0  0  0  0  0  0  0  0  0  0  0
  -25.0570  -33.8130   25.0680 H   0  0  0  0  0  0  0  0  0  0  0  0
  -24.2720  -36.6130   23.3490 C   0  0  0  0  0  1  0  0  0  0  0  0
  -25.5190  -36.1650   24.1280 C   0  0  0  0  0  3  0  0  0  0  0  0
  -27.6480  -37.0020   25.0180 C   0  0  0  0  0  1  0  0  0  0  0  0
  -26.5510  -37.2240   24.0800 N   0  0  0  0  0  0  0  0  0  0  0  0
  -26.1450  -38.1350   24.2740 H   0  0  0  0  0  0  0  0  0  0  0  0
  2 12  1  0
  2  1  1  0
  3  4  1  0
  3  2  2  0
  4  5  1  0
  4  6  1  0
  6 52  1  0
  6  1  1  0
  8  7  1  0
  8  3  1  0
  9  8  1  0
 10 11  1  0
 11  9  1  0
 13 12  2  0
 14 22  1  0
 15 20  1  0
 16 17  1  0
 16 15  1  0
 18 17  1  0
 18 27  1  0
 18 19  1  0
 20 14  1  0
 20 19  1  0
 21 14  2  0
 22 13  1  0
 22 23  1  0
 24 25  2  0
 25 44  1  0
 26 25  1  0
 26 29  1  0
 27 24  1  0
 27 28  1  0
 28 26  2  0
 29 30  1  0
 30 31  2  0
 32 35  1  0
 32 31  1  0
 33 32  2  0
 34 33  1  0
 34 29  2  0
 35 36  1  0
 36 37  1  0
 37 38  2  0
 39 38  1  0
 39 43  1  0
 40 39  2  0
 41 36  2  0
 41 40  1  0
 42 41  1  0
 44 45  1  0
 45 48  1  0
 45 47  1  0
 46 44  2  0
 49 50  1  0
 49 24  1  0
 51 49  1  0
 54 53  1  0
 54 56  1  0
 54 52  1  0
 56 55  1  1
 56 58  1  0
 58 57  1  0
 59 61  1  0
 59 56  1  0
 60 71  2  0
 61 66  1  0
 62 70  1  0
 62 72  1  0
 63 69  1  0
 63 65  1  0
 64 70  1  0
 65 64  1  0
 66 65  2  0
 67 68  1  0
 67 61  2  0
 68 63  2  0
 69 62  1  0
 70 60  1  0
 72 74  2  0
 73 72  1  0
 75 73  1  0
 76 85  2  0
 76 81  1  0
 77 73  1  0
 77 81  1  0
 78 77  1  0
 79 80  1  0
 79 78  1  0
 80 76  1  0
 81 82  2  0
 82 83  1  0
 84 83  2  0
 85 84  1  0
 86 60  1  0
 86 91  1  0
 86 87  1  0
 87 90  1  1
 87 88  1  0
 89 87  1  0
 91 94  1  0
 92 96  1  0
 92 91  1  0
 93 92  2  0
 96 95  1  0
 98 96  1  0
 98 99  1  0
 98 97  1  0
M  ISO  4  14 100  22 100  56 101  59 101
M  END
>  <TORSDO>  (6) 
F 25

>  <SCORE>  (6) 
-11.889

>  <name>  (6) 
5

>  <ligand_id>  (6) 
5

>  <original_smiles>  (6) 
[H]c1c([H])c([H])c2c(c1[H])C([H])([H])C([H])([H])C([H])([H])C2([H])N([H])C(=O)C1([H])N(C(=O)C([H])(N([H])C(=O)C([H])(N([H])C([H])([H])[H])C([H])([H])[H])C(C([H])([H])[H])(C([H])([H])[H])C([H])([H])[H])C([H])([H])c2c([H])c(OC(C([H])([H])[H])(C([H])([H])C([H])([H])[H])C([H])(C([H])([H])[H])C([H])([H])n3c([H])c(C([H])([H])C([H])([H])N([H])C(=O)N4C([H])([H])C([H])([H])C([H])([H])C([H])(n5nc(-c6c([H])c([H])c(Oc7c([H])c([H])c(F)c([H])c7F)c([H])c6[H])c(C(=O)N([H])[H])c5N([H])[H])C4([H])[H])c(C([H])(C([H])([H])[H])C([H])([H])C([H])([H])C([H])([H])[H])c3C([H])([H])[H])c([H])c([H])c2C1([H])[H]

>  <smiles>  (6) 
[H]c1c([H])c([H])c2c(c1[H])C([H])([H])C([H])([H])C([H])([H])C2([H])N([H])C(=O)C1([H])N(C(=O)C([H])(N([H])C(=O)C([H])(N([H])C([H])([H])[H])C([H])([H])[H])C(C([H])([H])[H])(C([H])([H])[H])C([H])([H])[H])C([H])([H])c2c([H])c(OC(C([H])([H])[H])(C([H])([H])C([H])([H])[H])C([H])(C([H])([H])[H])C([H])([H])n3c([H])c(C([H])([H])C([H])([H])N([H])C(=O)N4C([H])([H])C([H])([H])C([H])([H])C([H])(n5nc(-c6c([H])c([H])c(Oc7c([H])c([H])c(F)c([H])c7F)c([H])c6[H])c(C(=O)N([H])[H])c5N([H])[H])C4([H])[H])c(C([H])(C([H])([H])[H])C([H])([H])C([H])([H])C([H])([H])[H])c3C([H])([H])[H])c([H])c([H])c2C1([H])[H]

$$$$
6:0:0
     RDKit          3D

 93100  0  0  1  0  0  0  0  0999 V2000
  -29.1230  -19.5430   20.3400 C   0  0  0  0  0  3  0  0  0  0  0  0
  -28.4310  -19.4380   19.0300 N   0  0  0  0  0  4  0  0  0  0  0  0
  -28.9360  -20.0020   18.3640 H   0  0  0  0  0  0  0  0  0  0  0  0
  -28.5050  -18.4850   18.7160 H   0  0  0  0  0  0  0  0  0  0  0  0
  -26.0440  -18.6480   19.2140 C   0  0  0  0  0  1  0  0  0  0  0  0
  -26.9960  -19.8470   18.9670 C   0  0  0  0  0  3  0  0  0  0  0  0
  -27.8390  -21.5670   17.2610 C   0  0  0  0  0  1  0  0  0  0  0  0
  -26.4300  -19.6400   16.4610 C   0  0  0  0  0  1  0  0  0  0  0  0
  -25.4210  -21.4960   17.8120 C   0  0  0  0  0  1  0  0  0  0  0  0
  -26.6800  -20.6130   17.6360 C   0  0  1  0  0  0  0  0  0  0  0  0
  -29.2680  -21.2580   20.8480 C   0  0  0  0  0  2  0  0  0  0  0  0
  -28.9320  -22.8730   20.1580 C   0  0  0  0  0  2  0  0  0  0  0  0
  -28.3350  -24.4070   20.8380 C   0  0  0  0  0  2  0  0  0  0  0  0
  -28.4890  -25.9960   20.5050 O   0  0  0  0  0  0  0  0  0  0  0  0
  -24.7180  -31.9170   23.2370 C   0  0  0  0  0  0  0  0  0  0  0  0
  -27.4310  -27.0270   20.4620 C   0  0  0  0  0  0  0  0  0  0  0  0
  -23.5860  -30.4480   21.6160 C   0  0  0  0  0  3  0  0  0  0  0  0
  -25.0970  -28.8240   20.2940 C   0  0  0  0  0  0  0  0  0  0  0  0
  -26.1480  -30.7150   21.5180 C   0  0  0  0  0  2  0  0  0  0  0  0
  -26.2610  -29.2880   20.9190 C   0  0  0  0  0  0  0  0  0  0  0  0
  -27.4300  -28.4100   20.9700 C   0  0  0  0  0  3  0  0  0  0  0  0
  -26.2330  -26.6930   19.7970 C   0  0  0  0  0  3  0  0  0  0  0  0
  -25.1030  -27.5460   19.7120 C   0  0  0  0  0  3  0  0  0  0  0  0
  -23.8600  -29.7200   20.2720 C   0  0  0  0  0  2  0  0  0  0  0  0
  -24.8370  -31.0540   22.1780 N   0  0  0  0  0  0  0  0  0  0  0  0
  -23.6130  -32.2020   23.7240 O   0  0  0  0  0  0  0  0  0  0  0  0
  -22.8870  -29.4690   22.5960 C   0  0  0  0  0  0  0  0  0  0  0  0
  -21.5610  -29.2890   22.4530 N   0  0  0  0  0  0  0  0  0  0  0  0
  -23.5460  -28.8720   23.4510 O   0  0  0  0  0  0  0  0  0  0  0  0
  -21.0820  -29.8260   21.7430 H   0  0  0  0  0  0  0  0  0  0  0  0
  -18.1730  -28.1090   22.9760 C   0  0  0  0  0  0  0  0  0  0  0  0
  -20.7330  -28.3640   23.2360 C   0  0  0  0  0  3  0  0  0  0  0  0
  -20.8270  -26.9250   22.6790 C   0  0  0  0  0  2  0  0  0  0  0  0
  -19.7230  -26.5950   21.6680 C   0  0  0  0  0  2  0  0  0  0  0  0
  -18.3420  -26.7520   22.3120 C   0  0  0  0  0  2  0  0  0  0  0  0
  -19.2940  -28.8720   23.3950 C   0  0  0  0  0  0  0  0  0  0  0  0
  -19.0800  -30.1400   23.9800 C   0  0  0  0  0  3  0  0  0  0  0  0
  -17.7770  -30.6460   24.1450 C   0  0  0  0  0  3  0  0  0  0  0  0
  -16.6700  -29.8800   23.7410 C   0  0  0  0  0  3  0  0  0  0  0  0
  -16.8680  -28.6130   23.1640 C   0  0  0  0  0  3  0  0  0  0  0  0
  -25.9630  -32.6000   23.8770 C   0  0  0  0  0  3  0  0  0  0  0  0
  -25.6000  -33.9900   24.2020 N   0  0  0  0  0  0  0  0  0  0  0  0
  -25.9060  -35.0570   23.4520 C   0  0  0  0  0  0  0  0  0  0  0  0
  -26.5840  -34.9760   22.4250 O   0  0  0  0  0  0  0  0  0  0  0  0
  -24.9950  -34.1240   24.9980 H   0  0  0  0  0  0  0  0  0  0  0  0
  -24.1220  -36.8000   23.1010 C   0  0  0  0  0  1  0  0  0  0  0  0
  -25.3750  -36.4310   23.9110 C   0  0  0  0  0  3  0  0  0  0  0  0
  -27.4780  -37.3860   24.7460 C   0  0  0  0  0  1  0  0  0  0  0  0
  -26.3720  -37.5180   23.8000 N   0  0  0  0  0  0  0  0  0  0  0  0
  -25.9360  -38.4230   23.9490 H   0  0  0  0  0  0  0  0  0  0  0  0
  -26.4800  -31.8570   25.1720 C   0  0  1  0  0  0  0  0  0  0  0  0
  -25.3680  -31.5660   26.2090 C   0  0  0  0  0  1  0  0  0  0  0  0
  -27.1420  -30.5090   24.8080 C   0  0  0  0  0  1  0  0  0  0  0  0
  -27.5690  -32.7090   25.8670 C   0  0  0  0  0  1  0  0  0  0  0  0
  -30.1860  -18.1270   20.5510 C   0  0  0  0  0  2  0  0  0  0  0  0
  -30.6430  -15.2480   20.4070 C   0  0  0  0  0  0  0  0  0  0  0  0
  -30.5900  -12.8390   19.4760 C   0  0  0  0  0  2  0  0  0  0  0  0
  -29.6690  -12.6980   18.2380 C   0  0  0  0  0  2  0  0  0  0  0  0
  -28.2130  -12.4400   18.6710 C   0  0  0  0  0  2  0  0  0  0  0  0
  -27.7770  -13.3720   19.8300 C   0  0  0  0  0  3  0  0  0  0  0  0
  -28.8280  -13.4690   20.9560 C   0  0  0  0  0  2  0  0  0  0  0  0
  -30.0660  -13.9580   20.3340 N   0  0  0  0  0  0  0  0  0  0  0  0
  -31.8600  -15.2640   20.1770 O   0  0  0  0  0  0  0  0  0  0  0  0
  -29.8750  -16.4980   20.5360 N   0  0  0  0  0  0  0  0  0  0  0  0
  -28.9010  -16.2880   20.6920 H   0  0  0  0  0  0  0  0  0  0  0  0
  -25.4090  -13.9280   20.5900 C   0  0  0  0  0  0  0  0  0  0  0  0
  -24.3460  -13.1510   20.9540 C   0  0  0  0  0  0  0  0  0  0  0  0
  -24.8110  -11.8000   20.9080 C   0  0  0  0  0  0  0  0  0  0  0  0
  -26.4490  -13.0530   20.3350 N   0  0  0  0  0  0  0  0  0  0  0  0
  -26.1020  -11.7660   20.5970 N   0  0  0  0  0  0  0  0  0  0  0  0
  -24.0810  -10.5370   21.0810 C   0  0  0  0  0  0  0  0  0  0  0  0
  -24.4960   -9.5670   22.0170 C   0  0  0  0  0  3  0  0  0  0  0  0
  -23.7640   -8.3700   22.1790 C   0  0  0  0  0  3  0  0  0  0  0  0
  -22.6030   -8.1370   21.4050 C   0  0  0  0  0  0  0  0  0  0  0  0
  -22.2070   -9.0970   20.4580 C   0  0  0  0  0  3  0  0  0  0  0  0
  -22.9400  -10.2840   20.2930 C   0  0  0  0  0  3  0  0  0  0  0  0
  -21.8420   -6.9950   21.4780 O   0  0  0  0  0  0  0  0  0  0  0  0
  -21.7640   -6.2550   22.6310 C   0  0  0  0  0  0  0  0  0  0  0  0
  -21.2950   -6.8100   23.8430 C   0  0  0  0  0  3  0  0  0  0  0  0
  -21.1640   -5.9940   24.9840 C   0  0  0  0  0  3  0  0  0  0  0  0
  -21.4920   -4.6280   24.9180 C   0  0  0  0  0  0  0  0  0  0  0  0
  -21.9560   -4.0730   23.7100 C   0  0  0  0  0  3  0  0  0  0  0  0
  -22.0870   -4.8850   22.5700 C   0  0  0  0  0  0  0  0  0  0  0  0
  -22.5120   -4.3410   21.4050 F   0  0  0  0  0  0  0  0  0  0  0  0
  -21.3600   -3.8430   26.0120 F   0  0  0  0  0  0  0  0  0  0  0  0
  -22.9510  -13.6280   21.2240 C   0  0  0  0  0  0  0  0  0  0  0  0
  -22.2200  -12.9300   22.0860 N   0  0  0  0  0  0  0  0  0  0  0  0
  -22.5180  -14.6560   20.7050 O   0  0  0  0  0  0  0  0  0  0  0  0
  -22.5840  -12.0990   22.5270 H   0  0  0  0  0  0  0  0  0  0  0  0
  -21.2820  -13.2320   22.3090 H   0  0  0  0  0  0  0  0  0  0  0  0
  -25.5710  -15.2980   20.4200 N   0  0  0  0  0  0  0  0  0  0  0  0
  -24.7850  -15.9330   20.5010 H   0  0  0  0  0  0  0  0  0  0  0  0
  -26.3840  -15.7150   19.9910 H   0  0  0  0  0  0  0  0  0  0  0  0
  1 55  1  0
  1 11  1  0
  2  1  1  0
  3  2  1  0
  4  2  1  0
  6  2  1  0
  6  5  1  0
 10  7  1  6
  8 10  1  0
 10  9  1  0
 10  6  1  0
 12 13  1  0
 12 11  1  0
 14 13  1  0
 15 26  2  0
 16 14  1  0
 16 21  1  0
 17 25  1  0
 17 27  1  0
 18 20  1  0
 19 25  1  0
 20 21  2  0
 20 19  1  0
 22 16  2  0
 23 22  1  0
 23 18  2  0
 24 18  1  0
 24 17  1  0
 25 15  1  0
 27 29  2  0
 28 27  1  0
 30 28  1  0
 31 40  2  0
 31 36  1  0
 32 28  1  0
 32 36  1  0
 33 32  1  0
 34 35  1  0
 34 33  1  0
 35 31  1  0
 36 37  2  0
 37 38  1  0
 39 38  2  0
 40 39  1  0
 41 15  1  0
 41 42  1  0
 41 51  1  0
 42 45  1  0
 43 47  1  0
 43 42  1  0
 44 43  2  0
 47 46  1  0
 49 47  1  0
 49 50  1  0
 49 48  1  0
 51 54  1  1
 51 52  1  0
 53 51  1  0
 56 64  1  0
 57 62  1  0
 58 59  1  0
 58 57  1  0
 60 59  1  0
 60 69  1  0
 60 61  1  0
 62 56  1  0
 62 61  1  0
 63 56  2  0
 64 55  1  0
 64 65  1  0
 66 67  2  0
 67 86  1  0
 68 67  1  0
 68 71  1  0
 69 66  1  0
 69 70  1  0
 70 68  2  0
 71 72  1  0
 72 73  2  0
 74 77  1  0
 74 73  1  0
 75 74  2  0
 76 75  1  0
 76 71  2  0
 77 78  1  0
 78 79  1  0
 79 80  2  0
 81 80  1  0
 81 85  1  0
 82 81  2  0
 83 78  2  0
 83 82  1  0
 84 83  1  0
 86 87  1  0
 87 90  1  0
 87 89  1  0
 88 86  2  0
 91 92  1  0
 91 66  1  0
 93 91  1  0
M  ISO  4  13 101  14 101  56 100  64 100
M  END
>  <TORSDO>  (7) 
F 23

>  <SCORE>  (7) 
-13.665

>  <name>  (7) 
6

>  <ligand_id>  (7) 
6

>  <original_smiles>  (7) 
[H]c1c([H])c([H])c2c(c1[H])C([H])([H])C([H])([H])C([H])([H])C2([H])N([H])C(=O)C1([H])N(C(=O)C([H])(N([H])C(=O)C([H])(N([H])C([H])([H])[H])C([H])([H])[H])C(C([H])([H])[H])(C([H])([H])[H])C([H])([H])[H])C([H])([H])c2c([H])c(OC([H])([H])C([H])([H])C([H])([H])C([H])(C([H])([H])N([H])C(=O)N3C([H])([H])C([H])([H])C([H])([H])C([H])(n4nc(-c5c([H])c([H])c(Oc6c([H])c([H])c(F)c([H])c6F)c([H])c5[H])c(C(=O)N([H])[H])c4N([H])[H])C3([H])[H])[N+]([H])([H])C([H])(C([H])([H])[H])C(C([H])([H])[H])(C([H])([H])[H])C([H])([H])[H])c([H])c([H])c2C1([H])[H]

>  <smiles>  (7) 
[H]c1c([H])c([H])c2c(c1[H])C([H])([H])C([H])([H])C([H])([H])C2([H])N([H])C(=O)C1([H])N(C(=O)C([H])(N([H])C(=O)C([H])(N([H])C([H])([H])[H])C([H])([H])[H])C(C([H])([H])[H])(C([H])([H])[H])C([H])([H])[H])C([H])([H])c2c([H])c(OC([H])([H])C([H])([H])C([H])([H])C([H])(C([H])([H])N([H])C(=O)N3C([H])([H])C([H])([H])C([H])([H])C([H])(n4nc(-c5c([H])c([H])c(Oc6c([H])c([H])c(F)c([H])c6F)c([H])c5[H])c(C(=O)N([H])[H])c4N([H])[H])C3([H])[H])[N+]([H])([H])C([H])(C([H])([H])[H])C(C([H])([H])[H])(C([H])([H])[H])C([H])([H])[H])c([H])c([H])c2C1([H])[H]

$$$$
7:0:0
     RDKit          3D

103106  0  0  1  0  0  0  0  0999 V2000
  -31.5780  -13.1850   21.4200 C   0  0  0  0  0  3  0  0  0  0  0  0
  -30.4380  -14.1480   20.5080 C   0  0  0  0  0  2  0  0  0  0  0  0
  -32.7150  -12.4000   20.5130 C   0  0  0  0  0  0  0  0  0  0  0  0
  -31.1990  -13.6760   18.5890 C   0  0  0  0  0  3  0  0  0  0  0  0
  -31.0680  -13.9090   17.0470 C   0  0  0  0  0  1  0  0  0  0  0  0
  -32.5830  -12.7090   18.8250 N   0  0  0  0  0  0  0  0  0  0  0  0
  -34.2310  -10.2950   19.9830 C   0  0  0  0  0  1  0  0  0  0  0  0
  -33.8000  -10.9510   22.4290 C   0  0  0  0  0  1  0  0  0  0  0  0
  -33.8550  -11.4670   20.9550 C   0  0  0  0  0  3  0  0  0  0  0  0
  -29.6800  -16.6300   22.5950 C   0  0  0  0  0  1  0  0  0  0  0  0
  -29.5120  -16.5780   21.0790 C   0  0  0  0  0  1  0  0  0  0  0  0
  -29.3920  -19.1390   20.7220 C   0  0  0  0  0 15  0  0  0  0  0  0
  -28.5270  -21.5850   20.5830 C   0  0  0  0  0 15  0  0  0  0  0  0
  -28.4820  -23.8860   20.5720 O   0  0  0  0  0  1  0  0  0  0  0  0
  -24.9040  -31.3320   23.1870 C   0  0  0  0  0  0  0  0  0  0  0  0
  -27.6480  -25.5280   20.4650 C   0  0  0  0  0  0  0  0  0  0  0  0
  -23.8900  -29.9130   21.4720 C   0  0  0  0  0  3  0  0  0  0  0  0
  -25.4680  -28.1170   20.2040 C   0  0  0  0  0  0  0  0  0  0  0  0
  -26.4990  -29.8440   21.6310 C   0  0  0  0  0  2  0  0  0  0  0  0
  -26.6200  -28.3240   20.9690 C   0  0  0  0  0  0  0  0  0  0  0  0
  -27.6600  -27.1050   21.0170 C   0  0  0  0  0  3  0  0  0  0  0  0
  -26.5040  -25.8100   19.5880 C   0  0  0  0  0  3  0  0  0  0  0  0
  -25.5110  -26.9010   19.4780 C   0  0  0  0  0  3  0  0  0  0  0  0
  -24.2770  -29.1590   20.1540 C   0  0  0  0  0  2  0  0  0  0  0  0
  -25.1300  -30.4240   22.1440 N   0  0  0  0  0  0  0  0  0  0  0  0
  -23.7570  -31.6320   23.5800 O   0  0  0  0  0  0  0  0  0  0  0  0
  -23.0530  -28.9770   22.4000 C   0  0  0  0  0  0  0  0  0  0  0  0
  -21.7170  -28.8880   22.2360 N   0  0  0  0  0  0  0  0  0  0  0  0
  -23.6400  -28.3280   23.2610 O   0  0  0  0  0  0  0  0  0  0  0  0
  -21.2850  -29.4630   21.5260 H   0  0  0  0  0  0  0  0  0  0  0  0
  -18.2760  -27.7090   22.6380 C   0  0  0  0  0  0  0  0  0  0  0  0
  -20.8440  -27.9430   22.9480 C   0  0  0  0  0  3  0  0  0  0  0  0
  -20.9290  -26.5310   22.3200 C   0  0  0  0  0  2  0  0  0  0  0  0
  -19.8400  -26.2730   21.2680 C   0  0  0  0  0  2  0  0  0  0  0  0
  -18.4470  -26.4040   21.8900 C   0  0  0  0  0  2  0  0  0  0  0  0
  -19.3970  -28.4410   23.1190 C   0  0  0  0  0  0  0  0  0  0  0  0
  -19.1660  -29.6600   23.7950 C   0  0  0  0  0  3  0  0  0  0  0  0
  -17.8540  -30.1420   23.9890 C   0  0  0  0  0  3  0  0  0  0  0  0
  -16.7530  -29.4060   23.5150 C   0  0  0  0  0  3  0  0  0  0  0  0
  -16.9680  -28.1930   22.8430 C   0  0  0  0  0  3  0  0  0  0  0  0
  -26.0540  -32.0650   23.9470 C   0  0  0  0  0  3  0  0  0  0  0  0
  -26.4700  -31.3300   25.2850 C   0  0  1  0  0  0  0  0  0  0  0  0
  -25.2840  -31.0720   26.2490 C   0  0  0  0  0  1  0  0  0  0  0  0
  -27.1340  -29.9670   25.0110 C   0  0  0  0  0  1  0  0  0  0  0  0
  -27.5430  -32.1710   26.0260 C   0  0  0  0  0  1  0  0  0  0  0  0
  -25.6300  -33.4550   24.2870 N   0  0  0  0  0  0  0  0  0  0  0  0
  -26.0290  -34.5760   23.6690 C   0  0  0  0  0  0  0  0  0  0  0  0
  -26.8170  -34.5590   22.7230 O   0  0  0  0  0  0  0  0  0  0  0  0
  -24.9190  -33.5320   25.0000 H   0  0  0  0  0  0  0  0  0  0  0  0
  -24.3070  -36.3800   23.2740 C   0  0  0  0  0  1  0  0  0  0  0  0
  -25.4740  -35.9310   24.1710 C   0  0  0  0  0  3  0  0  0  0  0  0
  -27.4920  -36.8140   25.2680 C   0  0  0  0  0  1  0  0  0  0  0  0
  -26.4920  -37.0080   24.2240 N   0  0  0  0  0  0  0  0  0  0  0  0
  -26.0550  -37.9170   24.3640 H   0  0  0  0  0  0  0  0  0  0  0  0
  -33.7430  -12.9000   17.7820 C   0  0  0  0  0  2  0  0  0  0  0  0
  -34.8420  -13.7770   15.4740 C   0  0  0  0  0  1  0  0  0  0  0  0
  -33.8580  -14.1570   16.6500 C   0  0  0  0  0  3  0  0  0  0  0  0
  -34.0750  -15.7050   17.0800 C   0  0  0  0  0  2  0  0  0  0  0  0
  -33.4220  -16.8090   16.2270 N   0  0  0  0  0  4  0  0  0  0  0  0
  -33.0920  -16.3690   15.3770 H   0  0  0  0  0  0  0  0  0  0  0  0
  -34.2020  -17.3380   15.8450 H   0  0  0  0  0  0  0  0  0  0  0  0
  -32.9030  -19.2260   15.9180 C   0  0  0  0  0  1  0  0  0  0  0  0
  -31.0300  -17.7190   16.2700 C   0  0  0  0  0  1  0  0  0  0  0  0
  -32.5030  -17.9470   16.7140 C   0  0  1  0  0  0  0  0  0  0  0  0
  -32.5040  -18.3610   18.2510 C   0  0  0  0  0  2  0  0  0  0  0  0
  -30.7610  -17.2930   19.5720 C   0  0  1  0  0  0  0  0  0  0  0  0
  -31.0550  -15.4980   19.1070 C   0  0  0  0  0  3  0  0  0  0  0  0
  -29.2240  -12.8340   20.1320 C   0  0  0  0  0  2  0  0  0  0  0  0
  -27.8220  -12.7180   19.3400 C   0  0  0  0  0  2  0  0  0  0  0  0
  -27.0840  -14.2720   19.2640 C   0  0  0  0  0  2  0  0  0  0  0  0
  -27.9110  -16.0480   18.6970 C   0  0  0  0  0 15  0  0  0  0  0  0
  -29.8630  -16.5960   18.7250 N   0  0  0  0  0  2  0  0  0  0  0  0
  -31.3820  -17.0740   20.6540 O   0  0  0  0  0  1  0  0  0  0  0  0
  -31.1820  -18.3220   18.8680 N   0  0  0  0  0  0  0  0  0  0  0  0
  -30.4150  -18.7030   18.3660 H   0  0  0  0  0  0  0  0  0  0  0  0
  -24.8250  -14.7180   20.2080 C   0  0  0  0  0  3  0  0  0  0  0  0
  -23.8020  -13.8630   20.5460 C   0  0  0  0  0  0  0  0  0  0  0  0
  -24.3360  -12.5450   20.6820 C   0  0  0  0  0  0  0  0  0  0  0  0
  -25.9400  -13.9880   20.1450 N   0  0  0  0  0  0  0  0  0  0  0  0
  -25.6280  -12.7160   20.6280 N   0  0  0  0  0  2  0  0  0  0  0  0
  -23.6750  -11.1990   20.8130 C   0  0  0  0  0  0  0  0  0  0  0  0
  -24.1590  -10.2350   21.7190 C   0  0  0  0  0  3  0  0  0  0  0  0
  -23.4730   -9.0140   21.9100 C   0  0  0  0  0  3  0  0  0  0  0  0
  -22.2840   -8.7310   21.1990 C   0  0  0  0  0  0  0  0  0  0  0  0
  -21.8340   -9.6700   20.2680 C   0  0  0  0  0  3  0  0  0  0  0  0
  -22.5090  -10.8810   20.0700 C   0  0  0  0  0  3  0  0  0  0  0  0
  -21.5260   -7.5840   21.3270 O   0  0  0  0  0  0  0  0  0  0  0  0
  -21.6010   -6.7960   22.4550 C   0  0  0  0  0  0  0  0  0  0  0  0
  -21.3530   -7.3060   23.7490 C   0  0  0  0  0  3  0  0  0  0  0  0
  -21.3840   -6.4470   24.8640 C   0  0  0  0  0  3  0  0  0  0  0  0
  -21.6560   -5.0770   24.6950 C   0  0  0  0  0  0  0  0  0  0  0  0
  -21.8910   -4.5620   23.4060 C   0  0  0  0  0  3  0  0  0  0  0  0
  -21.8690   -5.4210   22.2920 C   0  0  0  0  0  0  0  0  0  0  0  0
  -22.0890   -4.9140   21.0580 F   0  0  0  0  0  0  0  0  0  0  0  0
  -21.6570   -4.2500   25.7690 F   0  0  0  0  0  0  0  0  0  0  0  0
  -22.3610  -14.2300   20.5840 C   0  0  0  0  0  0  0  0  0  0  0  0
  -21.6140  -13.5720   21.4690 N   0  0  0  0  0  0  0  0  0  0  0  0
  -21.9430  -15.1660   19.9070 O   0  0  0  0  0  0  0  0  0  0  0  0
  -22.0120  -12.8310   22.0580 H   0  0  0  0  0  0  0  0  0  0  0  0
  -20.6570  -13.8390   21.6090 H   0  0  0  0  0  0  0  0  0  0  0  0
  -24.9430  -16.0500   19.8780 N   0  0  0  0  0  0  0  0  0  0  0  0
  -24.1330  -16.6430   19.7600 H   0  0  0  0  0  0  0  0  0  0  0  0
  -25.8590  -16.4720   19.7550 H   0  0  0  0  0  0  0  0  0  0  0  0
  2  1  1  0
  3  9  1  0
  3  1  2  0
  4  5  1  0
  4  6  1  0
  4 67  1  0
  6  3  1  0
  7  9  1  0
  9  8  1  0
 11 10  1  0
 15 26  2  0
 16 14  1  0
 16 21  1  0
 17 25  1  0
 17 27  1  0
 18 20  1  0
 19 25  1  0
 20 21  2  0
 20 19  1  0
 22 16  2  0
 23 22  1  0
 23 18  2  0
 24 18  1  0
 24 17  1  0
 25 15  1  0
 27 29  2  0
 28 27  1  0
 30 28  1  0
 31 40  2  0
 31 36  1  0
 32 28  1  0
 32 36  1  0
 33 32  1  0
 34 35  1  0
 34 33  1  0
 35 31  1  0
 36 37  2  0
 37 38  1  0
 39 38  2  0
 40 39  1  0
 41 15  1  0
 41 46  1  0
 41 42  1  0
 42 45  1  1
 42 43  1  0
 44 42  1  0
 46 49  1  0
 47 51  1  0
 47 46  1  0
 48 47  2  0
 51 50  1  0
 51 53  1  0
 53 54  1  0
 53 52  1  0
 55  6  1  0
 57 56  1  0
 57 58  1  0
 57 55  1  0
 59 64  1  0
 59 58  1  0
 60 59  1  0
 61 59  1  0
 64 62  1  6
 63 64  1  0
 64 65  1  0
 65 74  1  0
 66 73  1  1
 67 72  1  0
 67 66  1  0
 68  2  1  0
 69 68  1  0
 70 69  1  0
 70 79  1  0
 72 66  1  0
 74 66  1  0
 75 74  1  0
 76101  1  0
 76 77  1  0
 77 96  1  0
 77 78  2  0
 78 81  1  0
 79 76  1  0
 79 80  1  0
 80 78  1  0
 81 82  1  0
 82 83  2  0
 84 87  1  0
 84 83  1  0
 85 84  2  0
 86 85  1  0
 86 81  2  0
 87 88  1  0
 88 89  1  0
 89 90  2  0
 91 90  1  0
 91 95  1  0
 92 91  2  0
 93 88  2  0
 93 92  1  0
 94 93  1  0
 96 97  1  0
 97100  1  0
 97 99  1  0
 98 96  2  0
102101  1  0
103101  1  0
M  ISO  4  13 101  14 101  66 100  74 100
M  END
>  <TORSDO>  (8) 
F 26

>  <SCORE>  (8) 
-9.275

>  <name>  (8) 
7

>  <ligand_id>  (8) 
7

>  <original_smiles>  (8) 
[H]c1c([H])c([H])c2c(c1[H])C([H])([H])C([H])([H])C([H])([H])C2([H])N([H])C(=O)C1([H])N(C(=O)C([H])(N([H])C(=O)C([H])(N([H])C([H])([H])[H])C([H])([H])[H])C(C([H])([H])[H])(C([H])([H])[H])C([H])([H])[H])C([H])([H])c2c([H])c(OC([H])([H])C([H])([H])C([H])(c3c([H])c(C([H])(C([H])([H])[H])C([H])([H])[H])n(C([H])([H])C([H])(C([H])([H])[H])C([H])([H])[N+]([H])([H])C(C([H])([H])[H])(C([H])([H])[H])C([H])([H])N([H])C(=O)N4C([H])([H])C([H])([H])C([H])([H])C([H])(n5nc(-c6c([H])c([H])c(Oc7c([H])c([H])c(F)c([H])c7F)c([H])c6[H])c(C(=O)N([H])[H])c5N([H])[H])C4([H])[H])c3C([H])([H])[H])C([H])([H])[H])c([H])c([H])c2C1([H])[H]

>  <smiles>  (8) 
[H]c1c([H])c([H])c2c(c1[H])C([H])([H])C([H])([H])C([H])([H])C2([H])N([H])C(=O)C1([H])N(C(=O)C([H])(N([H])C(=O)C([H])(N([H])C([H])([H])[H])C([H])([H])[H])C(C([H])([H])[H])(C([H])([H])[H])C([H])([H])[H])C([H])([H])c2c([H])c(OC([H])([H])C([H])([H])C([H])(c3c([H])c(C([H])(C([H])([H])[H])C([H])([H])[H])n(C([H])([H])C([H])(C([H])([H])[H])C([H])([H])[N+]([H])([H])C(C([H])([H])[H])(C([H])([H])[H])C([H])([H])N([H])C(=O)N4C([H])([H])C([H])([H])C([H])([H])C([H])(n5nc(-c6c([H])c([H])c(Oc7c([H])c([H])c(F)c([H])c7F)c([H])c6[H])c(C(=O)N([H])[H])c5N([H])[H])C4([H])[H])c3C([H])([H])[H])C([H])([H])[H])c([H])c([H])c2C1([H])[H]

$$$$
8:0:0
     RDKit          3D

 89 97  0  0  1  0  0  0  0  0999 V2000
  -29.2150  -20.7570   20.9520 C   0  0  0  0  0  3  0  0  0  0  0  0
  -29.4180  -18.6320   19.2570 C   0  0  0  0  0  3  0  0  0  0  0  0
  -29.7270  -17.2450   19.0040 C   0  0  0  0  0  0  0  0  0  0  0  0
  -29.4480  -19.1930   20.5600 C   0  0  0  0  0  0  0  0  0  0  0  0
  -30.0800  -16.3220   20.0600 C   0  0  0  0  0  0  0  0  0  0  0  0
  -29.7640  -18.2000   21.5500 C   0  0  0  0  0  0  0  0  0  0  0  0
  -29.6750  -16.7860   17.5510 C   0  0  0  0  0  1  0  0  0  0  0  0
  -29.8330  -18.5860   23.0170 C   0  0  0  0  0  1  0  0  0  0  0  0
  -30.0670  -16.8720   21.3120 N   0  0  0  0  0  0  0  0  0  0  0  0
  -30.7440  -14.8950   19.7870 C   0  0  0  0  0  0  0  0  0  0  0  0
  -30.4300  -12.6410   18.7380 C   0  0  0  0  0  2  0  0  0  0  0  0
  -29.3910  -12.7500   17.6010 C   0  0  0  0  0  2  0  0  0  0  0  0
  -27.9670  -12.5590   18.1540 C   0  0  0  0  0  2  0  0  0  0  0  0
  -27.7010  -13.3900   19.4370 C   0  0  0  0  0  3  0  0  0  0  0  0
  -28.8600  -13.2950   20.4490 C   0  0  0  0  0  2  0  0  0  0  0  0
  -30.0900  -13.6740   19.7520 N   0  0  0  0  0  0  0  0  0  0  0  0
  -31.9120  -14.9160   19.3770 O   0  0  0  0  0  0  0  0  0  0  0  0
  -25.4020  -13.9120   20.4360 C   0  0  0  0  0  0  0  0  0  0  0  0
  -24.3790  -13.1140   20.8630 C   0  0  0  0  0  0  0  0  0  0  0  0
  -24.8420  -11.7680   20.7210 C   0  0  0  0  0  0  0  0  0  0  0  0
  -26.4180  -13.0560   20.0460 N   0  0  0  0  0  0  0  0  0  0  0  0
  -26.0950  -11.7570   20.2840 N   0  0  0  0  0  0  0  0  0  0  0  0
  -24.1380  -10.4930   20.9160 C   0  0  0  0  0  0  0  0  0  0  0  0
  -24.5900   -9.5330   21.8480 C   0  0  0  0  0  3  0  0  0  0  0  0
  -23.8860   -8.3250   22.0300 C   0  0  0  0  0  3  0  0  0  0  0  0
  -22.7130   -8.0670   21.2800 C   0  0  0  0  0  0  0  0  0  0  0  0
  -22.2810   -9.0140   20.3370 C   0  0  0  0  0  3  0  0  0  0  0  0
  -22.9870  -10.2150   20.1530 C   0  0  0  0  0  3  0  0  0  0  0  0
  -21.9770   -6.9100   21.3730 O   0  0  0  0  0  0  0  0  0  0  0  0
  -21.8370   -6.2360   22.5600 C   0  0  0  0  0  0  0  0  0  0  0  0
  -21.2850   -6.8520   23.7050 C   0  0  0  0  0  3  0  0  0  0  0  0
  -21.0950   -6.1040   24.8840 C   0  0  0  0  0  3  0  0  0  0  0  0
  -21.4500   -4.7410   24.9190 C   0  0  0  0  0  0  0  0  0  0  0  0
  -21.9960   -4.1260   23.7800 C   0  0  0  0  0  3  0  0  0  0  0  0
  -22.1870   -4.8710   22.6030 C   0  0  0  0  0  0  0  0  0  0  0  0
  -22.6930   -4.2680   21.5000 F   0  0  0  0  0  0  0  0  0  0  0  0
  -21.2610   -4.0210   26.0490 F   0  0  0  0  0  0  0  0  0  0  0  0
  -23.0120  -13.5670   21.2880 C   0  0  0  0  0  0  0  0  0  0  0  0
  -22.3770  -12.8360   22.1970 N   0  0  0  0  0  0  0  0  0  0  0  0
  -22.5190  -14.6060   20.8490 O   0  0  0  0  0  0  0  0  0  0  0  0
  -22.7880  -11.9940   22.5730 H   0  0  0  0  0  0  0  0  0  0  0  0
  -21.4660  -13.1260   22.5240 H   0  0  0  0  0  0  0  0  0  0  0  0
  -25.5500  -15.2920   20.3200 N   0  0  0  0  0  0  0  0  0  0  0  0
  -24.8110  -15.9410   20.5660 H   0  0  0  0  0  0  0  0  0  0  0  0
  -26.3800  -15.7500   19.9680 H   0  0  0  0  0  0  0  0  0  0  0  0
  -28.9520  -22.0480   19.9740 C   0  0  0  0  0  3  0  0  0  0  0  0
  -28.7610  -23.5640   20.6130 C   0  0  0  0  0  3  0  0  0  0  0  0
  -28.4760  -24.9040   19.7010 C   0  0  0  0  0  3  0  0  0  0  0  0
  -28.4160  -26.3480   20.2090 O   0  0  0  0  0  0  0  0  0  0  0  0
  -24.5680  -31.8220   23.0980 C   0  0  0  0  0  0  0  0  0  0  0  0
  -27.3040  -27.2330   20.0910 C   0  0  0  0  0  0  0  0  0  0  0  0
  -23.4240  -30.4050   21.4360 C   0  0  0  0  0  3  0  0  0  0  0  0
  -24.9270  -28.8800   20.0250 C   0  0  0  0  0  0  0  0  0  0  0  0
  -25.9670  -30.7420   21.3110 C   0  0  0  0  0  2  0  0  0  0  0  0
  -26.0790  -29.3610   20.6580 C   0  0  0  0  0  0  0  0  0  0  0  0
  -27.2640  -28.5500   20.6830 C   0  0  0  0  0  3  0  0  0  0  0  0
  -26.1260  -26.8390   19.4180 C   0  0  0  0  0  3  0  0  0  0  0  0
  -24.9590  -27.6280   19.3940 C   0  0  0  0  0  3  0  0  0  0  0  0
  -23.6780  -29.7410   20.0560 C   0  0  0  0  0  2  0  0  0  0  0  0
  -24.6710  -31.0100   22.0040 N   0  0  0  0  0  0  0  0  0  0  0  0
  -23.4690  -32.0820   23.6120 O   0  0  0  0  0  0  0  0  0  0  0  0
  -22.7610  -29.3770   22.3840 C   0  0  0  0  0  0  0  0  0  0  0  0
  -21.4380  -29.1800   22.2390 N   0  0  0  0  0  0  0  0  0  0  0  0
  -23.4350  -28.7590   23.2120 O   0  0  0  0  0  0  0  0  0  0  0  0
  -20.9520  -29.7300   21.5450 H   0  0  0  0  0  0  0  0  0  0  0  0
  -18.0730  -27.9240   22.6980 C   0  0  0  0  0  0  0  0  0  0  0  0
  -20.6240  -28.2240   22.9930 C   0  0  0  0  0  3  0  0  0  0  0  0
  -20.7550  -26.8000   22.4070 C   0  0  0  0  0  2  0  0  0  0  0  0
  -19.6640  -26.4670   21.3820 C   0  0  0  0  0  2  0  0  0  0  0  0
  -18.2750  -26.5850   22.0120 C   0  0  0  0  0  2  0  0  0  0  0  0
  -19.1740  -28.7030   23.1430 C   0  0  0  0  0  0  0  0  0  0  0  0
  -18.9250  -29.9570   23.7410 C   0  0  0  0  0  3  0  0  0  0  0  0
  -17.6100  -30.4340   23.8970 C   0  0  0  0  0  3  0  0  0  0  0  0
  -16.5240  -29.6530   23.4630 C   0  0  0  0  0  3  0  0  0  0  0  0
  -16.7560  -28.4000   22.8690 C   0  0  0  0  0  3  0  0  0  0  0  0
  -25.8250  -32.4780   23.7470 C   0  0  0  0  0  3  0  0  0  0  0  0
  -26.3500  -31.6920   25.0120 C   0  0  1  0  0  0  0  0  0  0  0  0
  -25.2500  -31.3910   26.0580 C   0  0  0  0  0  1  0  0  0  0  0  0
  -26.9900  -30.3470   24.5960 C   0  0  0  0  0  1  0  0  0  0  0  0
  -27.4630  -32.5100   25.7070 C   0  0  0  0  0  1  0  0  0  0  0  0
  -25.4700  -33.8580   24.1130 N   0  0  0  0  0  0  0  0  0  0  0  0
  -25.7680  -34.9410   23.3830 C   0  0  0  0  0  0  0  0  0  0  0  0
  -26.4410  -34.8880   22.3500 O   0  0  0  0  0  0  0  0  0  0  0  0
  -24.8740  -33.9700   24.9190 H   0  0  0  0  0  0  0  0  0  0  0  0
  -23.9840  -36.6860   23.0780 C   0  0  0  0  0  1  0  0  0  0  0  0
  -25.2400  -36.3040   23.8770 C   0  0  0  0  0  3  0  0  0  0  0  0
  -27.3480  -37.2340   24.7250 C   0  0  0  0  0  1  0  0  0  0  0  0
  -26.2400  -37.3910   23.7860 N   0  0  0  0  0  0  0  0  0  0  0  0
  -25.8070  -38.2960   23.9480 H   0  0  0  0  0  0  0  0  0  0  0  0
  2  4  1  0
  3  2  2  0
  3  5  1  0
  4  1  1  0
  4  6  2  0
  5  9  2  0
  6  8  1  0
  7  3  1  0
  9  6  1  0
 10  5  1  0
 11 16  1  0
 12 13  1  0
 12 11  1  0
 14 13  1  0
 14 21  1  0
 14 15  1  0
 16 10  1  0
 16 15  1  0
 17 10  2  0
 18 19  2  0
 19 38  1  0
 20 19  1  0
 20 23  1  0
 21 22  1  0
 21 18  1  0
 22 20  2  0
 23 24  1  0
 24 25  2  0
 26 29  1  0
 26 25  1  0
 27 26  2  0
 28 27  1  0
 28 23  2  0
 29 30  1  0
 30 35  2  0
 30 31  1  0
 31 32  2  0
 32 33  1  0
 33 37  1  0
 34 33  2  0
 35 34  1  0
 36 35  1  0
 38 39  1  0
 39 42  1  0
 39 41  1  0
 40 38  2  0
 43 18  1  0
 43 44  1  0
 45 43  1  0
 46 47  1  0
 46  1  2  0
 48 49  1  0
 48 47  2  0
 50 61  2  0
 51 49  1  0
 51 56  1  0
 52 60  1  0
 52 62  1  0
 53 59  1  0
 53 55  1  0
 54 60  1  0
 55 56  2  0
 55 54  1  0
 57 51  2  0
 58 57  1  0
 58 53  2  0
 59 52  1  0
 60 50  1  0
 62 64  2  0
 63 62  1  0
 65 63  1  0
 66 75  2  0
 66 71  1  0
 67 63  1  0
 67 71  1  0
 68 67  1  0
 69 70  1  0
 69 68  1  0
 70 66  1  0
 71 72  2  0
 72 73  1  0
 74 73  2  0
 75 74  1  0
 76 50  1  0
 76 81  1  0
 76 77  1  0
 77 80  1  1
 77 78  1  0
 79 77  1  0
 81 84  1  0
 82 86  1  0
 82 81  1  0
 83 82  2  0
 86 85  1  0
 88 86  1  0
 88 89  1  0
 88 87  1  0
M  ISO  4   5 100  10 100  48 101  49 101
M  END
>  <TORSDO>  (9) 
F 20

>  <SCORE>  (9) 
-10.538

>  <name>  (9) 
8

>  <ligand_id>  (9) 
8

>  <original_smiles>  (9) 
[H]c1c([H])c([H])c2c(c1[H])C([H])([H])C([H])([H])C([H])([H])C2([H])N([H])C(=O)C1([H])N(C(=O)C([H])(N([H])C(=O)C([H])(N([H])C([H])([H])[H])C([H])([H])[H])C(C([H])([H])[H])(C([H])([H])[H])C([H])([H])[H])C([H])([H])c2c([H])c(OC([H])([H])C([H])([H])C([H])([H])C([H])([H])c3c(C([H])([H])[H])nc(C(=O)N4C([H])([H])C([H])([H])C([H])([H])C([H])(n5nc(-c6c([H])c([H])c(Oc7c([H])c([H])c(F)c([H])c7F)c([H])c6[H])c(C(=O)N([H])[H])c5N([H])[H])C4([H])[H])c(C([H])([H])[H])c3[H])c([H])c([H])c2C1([H])[H]

>  <smiles>  (9) 
[H]c1c([H])c([H])c2c(c1[H])C([H])([H])C([H])([H])C([H])([H])C2([H])N([H])C(=O)C1([H])N(C(=O)C([H])(N([H])C(=O)C([H])(N([H])C([H])([H])[H])C([H])([H])[H])C(C([H])([H])[H])(C([H])([H])[H])C([H])([H])[H])C([H])([H])c2c([H])c(OC([H])([H])C([H])([H])C([H])([H])C([H])([H])c3c(C([H])([H])[H])nc(C(=O)N4C([H])([H])C([H])([H])C([H])([H])C([H])(n5nc(-c6c([H])c([H])c(Oc7c([H])c([H])c(F)c([H])c7F)c([H])c6[H])c(C(=O)N([H])[H])c5N([H])[H])C4([H])[H])c(C([H])([H])[H])c3[H])c([H])c([H])c2C1([H])[H]

$$$$
9:0:0
     RDKit          3D

 94102  0  0  1  0  0  0  0  0999 V2000
  -29.1920  -20.4720   21.4000 C   0  0  0  0  0  3  0  0  0  0  0  0
  -28.8530  -21.8600   21.2960 C   0  0  0  0  0  3  0  0  0  0  0  0
  -29.6500  -19.9910   20.2000 C   0  0  0  0  0  0  0  0  0  0  0  0
  -29.0950  -22.3190   20.0290 C   0  0  0  0  0  0  0  0  0  0  0  0
  -29.6190  -21.1600   19.3550 N   0  0  0  0  0  0  0  0  0  0  0  0
  -31.4570  -18.4070   19.1480 C   0  0  0  0  0  1  0  0  0  0  0  0
  -30.0740  -18.4950   19.8230 C   0  0  0  0  0  3  0  0  0  0  0  0
  -30.0750  -17.3530   20.9710 C   0  0  0  0  0  2  0  0  0  0  0  0
  -30.7050  -14.7680   20.5340 C   0  0  0  0  0  0  0  0  0  0  0  0
  -30.5430  -12.4970   19.5070 C   0  0  0  0  0  2  0  0  0  0  0  0
  -29.6260  -12.5630   18.2640 C   0  0  0  0  0  2  0  0  0  0  0  0
  -28.1430  -12.4070   18.6580 C   0  0  0  0  0  2  0  0  0  0  0  0
  -27.7450  -13.3080   19.8570 C   0  0  0  0  0  3  0  0  0  0  0  0
  -28.7720  -13.2040   21.0050 C   0  0  0  0  0  2  0  0  0  0  0  0
  -30.0860  -13.5450   20.4410 N   0  0  0  0  0  0  0  0  0  0  0  0
  -31.9170  -14.8770   20.3320 O   0  0  0  0  0  0  0  0  0  0  0  0
  -29.8770  -15.8700   20.6450 N   0  0  0  0  0  0  0  0  0  0  0  0
  -28.9060  -15.5970   20.6530 H   0  0  0  0  0  0  0  0  0  0  0  0
  -25.3380  -13.9370   20.4920 C   0  0  0  0  0  0  0  0  0  0  0  0
  -24.2520  -13.1780   20.8380 C   0  0  0  0  0  0  0  0  0  0  0  0
  -24.7050  -11.8230   20.8480 C   0  0  0  0  0  0  0  0  0  0  0  0
  -26.3820  -13.0440   20.3080 N   0  0  0  0  0  0  0  0  0  0  0  0
  -26.0060  -11.7700   20.5870 N   0  0  0  0  0  0  0  0  0  0  0  0
  -23.9610  -10.5700   21.0310 C   0  0  0  0  0  0  0  0  0  0  0  0
  -24.3590   -9.6090   21.9850 C   0  0  0  0  0  3  0  0  0  0  0  0
  -23.6170   -8.4200   22.1570 C   0  0  0  0  0  3  0  0  0  0  0  0
  -22.4610   -8.1860   21.3740 C   0  0  0  0  0  0  0  0  0  0  0  0
  -22.0820   -9.1370   20.4110 C   0  0  0  0  0  3  0  0  0  0  0  0
  -22.8240  -10.3160   20.2370 C   0  0  0  0  0  3  0  0  0  0  0  0
  -21.6930   -7.0490   21.4550 O   0  0  0  0  0  0  0  0  0  0  0  0
  -21.6190   -6.3110   22.6090 C   0  0  0  0  0  0  0  0  0  0  0  0
  -21.1910   -6.8780   23.8290 C   0  0  0  0  0  3  0  0  0  0  0  0
  -21.0610   -6.0670   24.9740 C   0  0  0  0  0  3  0  0  0  0  0  0
  -21.3510   -4.6920   24.9010 C   0  0  0  0  0  0  0  0  0  0  0  0
  -21.7710   -4.1250   23.6850 C   0  0  0  0  0  3  0  0  0  0  0  0
  -21.9010   -4.9320   22.5410 C   0  0  0  0  0  0  0  0  0  0  0  0
  -22.2870   -4.3780   21.3670 F   0  0  0  0  0  0  0  0  0  0  0  0
  -21.2190   -3.9110   25.9980 F   0  0  0  0  0  0  0  0  0  0  0  0
  -22.8500  -13.6720   21.0440 C   0  0  0  0  0  0  0  0  0  0  0  0
  -22.0850  -12.9980   21.8980 N   0  0  0  0  0  0  0  0  0  0  0  0
  -22.4410  -14.6890   20.4850 O   0  0  0  0  0  0  0  0  0  0  0  0
  -22.4300  -12.1780   22.3720 H   0  0  0  0  0  0  0  0  0  0  0  0
  -21.1420  -13.3100   22.0800 H   0  0  0  0  0  0  0  0  0  0  0  0
  -25.5190  -15.3010   20.2910 N   0  0  0  0  0  0  0  0  0  0  0  0
  -24.7470  -15.9560   20.3550 H   0  0  0  0  0  0  0  0  0  0  0  0
  -26.3620  -15.7250   19.9280 H   0  0  0  0  0  0  0  0  0  0  0  0
  -27.9390  -23.8030   18.2260 C   0  0  0  0  0  1  0  0  0  0  0  0
  -28.8920  -23.7920   19.4400 C   0  0  0  0  0  3  0  0  0  0  0  0
  -28.4130  -24.9900   20.4230 C   0  0  0  0  0  2  0  0  0  0  0  0
  -28.4850  -26.4450   20.0530 O   0  0  0  0  0  0  0  0  0  0  0  0
  -24.6360  -31.8090   23.1510 C   0  0  0  0  0  0  0  0  0  0  0  0
  -27.3420  -27.2700   20.0890 C   0  0  0  0  0  0  0  0  0  0  0  0
  -23.4730  -30.4090   21.4870 C   0  0  0  0  0  3  0  0  0  0  0  0
  -24.9590  -28.8730   20.0790 C   0  0  0  0  0  0  0  0  0  0  0  0
  -26.0170  -30.7440   21.3450 C   0  0  0  0  0  2  0  0  0  0  0  0
  -26.1200  -29.3680   20.6870 C   0  0  0  0  0  0  0  0  0  0  0  0
  -27.3170  -28.5830   20.6720 C   0  0  0  0  0  3  0  0  0  0  0  0
  -26.1480  -26.8240   19.4870 C   0  0  0  0  0  3  0  0  0  0  0  0
  -24.9760  -27.6070   19.4720 C   0  0  0  0  0  3  0  0  0  0  0  0
  -23.7130  -29.7370   20.1110 C   0  0  0  0  0  2  0  0  0  0  0  0
  -24.7270  -31.0060   22.0510 N   0  0  0  0  0  0  0  0  0  0  0  0
  -23.5390  -32.0720   23.6690 O   0  0  0  0  0  0  0  0  0  0  0  0
  -22.8050  -29.3830   22.4340 C   0  0  0  0  0  0  0  0  0  0  0  0
  -21.4780  -29.2040   22.2990 N   0  0  0  0  0  0  0  0  0  0  0  0
  -23.4800  -28.7480   23.2480 O   0  0  0  0  0  0  0  0  0  0  0  0
  -20.9920  -29.7680   21.6160 H   0  0  0  0  0  0  0  0  0  0  0  0
  -18.0970  -28.0090   22.7830 C   0  0  0  0  0  0  0  0  0  0  0  0
  -20.6560  -28.2550   23.0530 C   0  0  0  0  0  3  0  0  0  0  0  0
  -20.7530  -26.8330   22.4510 C   0  0  0  0  0  2  0  0  0  0  0  0
  -19.6480  -26.5320   21.4340 C   0  0  0  0  0  2  0  0  0  0  0  0
  -18.2690  -26.6720   22.0820 C   0  0  0  0  0  2  0  0  0  0  0  0
  -19.2180  -28.7600   23.2250 C   0  0  0  0  0  0  0  0  0  0  0  0
  -19.0030  -30.0120   23.8400 C   0  0  0  0  0  3  0  0  0  0  0  0
  -17.7000  -30.5160   24.0130 C   0  0  0  0  0  3  0  0  0  0  0  0
  -16.5920  -29.7590   23.5900 C   0  0  0  0  0  3  0  0  0  0  0  0
  -16.7920  -28.5090   22.9800 C   0  0  0  0  0  3  0  0  0  0  0  0
  -25.8990  -32.4550   23.7980 C   0  0  0  0  0  3  0  0  0  0  0  0
  -25.5620  -33.8460   24.1330 N   0  0  0  0  0  0  0  0  0  0  0  0
  -25.8970  -34.9110   23.3920 C   0  0  0  0  0  0  0  0  0  0  0  0
  -26.5860  -34.8250   22.3720 O   0  0  0  0  0  0  0  0  0  0  0  0
  -24.9410  -33.9850   24.9170 H   0  0  0  0  0  0  0  0  0  0  0  0
  -24.1570  -36.6950   23.0270 C   0  0  0  0  0  1  0  0  0  0  0  0
  -25.3880  -36.2890   23.8560 C   0  0  0  0  0  3  0  0  0  0  0  0
  -27.5000  -37.1860   24.7370 C   0  0  0  0  0  1  0  0  0  0  0  0
  -26.4130  -37.3530   23.7760 N   0  0  0  0  0  0  0  0  0  0  0  0
  -25.9960  -38.2690   23.9190 H   0  0  0  0  0  0  0  0  0  0  0  0
  -26.4020  -31.6850   25.0810 C   0  0  1  0  0  0  0  0  0  0  0  0
  -25.2940  -31.4320   26.1330 C   0  0  0  0  0  1  0  0  0  0  0  0
  -27.0080  -30.3160   24.6950 C   0  0  0  0  0  1  0  0  0  0  0  0
  -27.5340  -32.4910   25.7600 C   0  0  0  0  0  1  0  0  0  0  0  0
  -30.1280  -21.2040   17.9840 C   0  0  0  0  0  2  0  0  0  0  0  0
  -29.8320  -20.6720   15.5240 C   0  0  0  0  0  1  0  0  0  0  0  0
  -27.8700  -20.2350   17.0700 C   0  0  0  0  0  1  0  0  0  0  0  0
  -29.4080  -20.2950   16.9540 C   0  0  0  0  0  3  0  0  0  0  0  0
  2  1  1  0
  3  1  2  0
  4  2  2  0
  5  4  1  0
  5  3  1  0
  7  6  1  0
  7  3  1  0
  7  8  1  0
  9 17  1  0
 10 15  1  0
 11 12  1  0
 11 10  1  0
 13 12  1  0
 13 22  1  0
 13 14  1  0
 15  9  1  0
 15 14  1  0
 16  9  2  0
 17 18  1  0
 17  8  1  0
 19 20  2  0
 20 21  1  0
 20 39  1  0
 21 24  1  0
 22 19  1  0
 22 23  1  0
 23 21  2  0
 24 25  1  0
 25 26  2  0
 27 30  1  0
 27 26  1  0
 28 27  2  0
 29 28  1  0
 29 24  2  0
 30 31  1  0
 31 32  1  0
 32 33  2  0
 34 33  1  0
 34 38  1  0
 35 34  2  0
 36 31  2  0
 36 35  1  0
 37 36  1  0
 39 40  1  0
 40 43  1  0
 40 42  1  0
 41 39  2  0
 44 45  1  0
 44 19  1  0
 46 44  1  0
 48 47  1  0
 48  4  1  0
 48 49  1  0
 50 52  1  0
 50 49  1  0
 51 62  2  0
 52 57  1  0
 53 61  1  0
 53 63  1  0
 54 60  1  0
 54 56  1  0
 55 61  1  0
 56 55  1  0
 57 56  2  0
 58 52  2  0
 59 58  1  0
 59 54  2  0
 60 53  1  0
 61 51  1  0
 63 65  2  0
 64 63  1  0
 66 64  1  0
 67 76  2  0
 67 72  1  0
 68 64  1  0
 68 72  1  0
 69 68  1  0
 70 71  1  0
 70 69  1  0
 71 67  1  0
 72 73  2  0
 73 74  1  0
 75 74  2  0
 76 75  1  0
 77 51  1  0
 77 78  1  0
 77 87  1  0
 78 81  1  0
 79 83  1  0
 79 78  1  0
 80 79  2  0
 83 82  1  0
 85 83  1  0
 85 86  1  0
 85 84  1  0
 87 90  1  1
 87 88  1  0
 89 87  1  0
 91  5  1  0
 92 94  1  0
 94 93  1  0
 94 91  1  0
M  ISO  4   9 100  17 100  49 101  50 101
M  END
>  <TORSDO>  (10) 
F 22

>  <SCORE>  (10) 
-13.236

>  <name>  (10) 
9

>  <ligand_id>  (10) 
9

>  <original_smiles>  (10) 
[H]c1c([H])c([H])c2c(c1[H])C([H])([H])C([H])([H])C([H])([H])C2([H])N([H])C(=O)C1([H])N(C(=O)C([H])(N([H])C(=O)C([H])(N([H])C([H])([H])[H])C([H])([H])[H])C(C([H])([H])[H])(C([H])([H])[H])C([H])([H])[H])C([H])([H])c2c([H])c(OC([H])([H])C([H])(c3c([H])c([H])c(C([H])(C([H])([H])[H])C([H])([H])N([H])C(=O)N4C([H])([H])C([H])([H])C([H])([H])C([H])(n5nc(-c6c([H])c([H])c(Oc7c([H])c([H])c(F)c([H])c7F)c([H])c6[H])c(C(=O)N([H])[H])c5N([H])[H])C4([H])[H])n3C([H])([H])C([H])(C([H])([H])[H])C([H])([H])[H])C([H])([H])[H])c([H])c([H])c2C1([H])[H]

>  <smiles>  (10) 
[H]c1c([H])c([H])c2c(c1[H])C([H])([H])C([H])([H])C([H])([H])C2([H])N([H])C(=O)C1([H])N(C(=O)C([H])(N([H])C(=O)C([H])(N([H])C([H])([H])[H])C([H])([H])[H])C(C([H])([H])[H])(C([H])([H])[H])C([H])([H])[H])C([H])([H])c2c([H])c(OC([H])([H])C([H])(c3c([H])c([H])c(C([H])(C([H])([H])[H])C([H])([H])N([H])C(=O)N4C([H])([H])C([H])([H])C([H])([H])C([H])(n5nc(-c6c([H])c([H])c(Oc7c([H])c([H])c(F)c([H])c7F)c([H])c6[H])c(C(=O)N([H])[H])c5N([H])[H])C4([H])[H])n3C([H])([H])C([H])(C([H])([H])[H])C([H])([H])[H])C([H])([H])[H])c([H])c([H])c2C1([H])[H]

$$$$
10:0:0
     RDKit          3D

 97105  0  0  1  0  0  0  0  0999 V2000
  -31.7530  -20.9290   19.6260 C   0  0  0  0  0  3  0  0  0  0  0  0
  -32.8670  -20.0790   19.6240 C   0  0  0  0  0  3  0  0  0  0  0  0
  -30.4660  -19.1650   20.6910 C   0  0  0  0  0  3  0  0  0  0  0  0
  -30.5530  -20.5250   20.2360 C   0  0  0  0  0  0  0  0  0  0  0  0
  -32.8270  -18.7930   20.1980 C   0  0  0  0  0  0  0  0  0  0  0  0
  -31.5800  -18.2560   20.6630 C   0  0  0  0  0  0  0  0  0  0  0  0
  -34.8010  -17.5900   19.0520 C   0  0  0  0  0  1  0  0  0  0  0  0
  -34.2090  -18.1390   20.3580 C   0  0  0  0  0  2  0  0  0  0  0  0
  -29.4240  -21.5690   20.4950 C   0  0  0  0  0  3  0  0  0  0  0  0
  -29.4540  -22.9640   19.7320 C   0  0  0  0  0  3  0  0  0  0  0  0
  -28.4770  -24.1430   20.1550 C   0  0  0  0  0  3  0  0  0  0  0  0
  -26.6240  -23.0700   21.6520 C   0  0  0  0  0  1  0  0  0  0  0  0
  -27.0070  -23.7100   20.3110 C   0  0  0  0  0  2  0  0  0  0  0  0
  -28.5140  -25.3720   19.1730 C   0  0  0  0  0  2  0  0  0  0  0  0
  -28.3010  -26.6760   19.7920 O   0  0  0  0  0  0  0  0  0  0  0  0
  -24.4980  -31.7460   23.0680 C   0  0  0  0  0  0  0  0  0  0  0  0
  -27.0940  -27.3760   19.8000 C   0  0  0  0  0  0  0  0  0  0  0  0
  -23.2530  -30.3850   21.4290 C   0  0  0  0  0  3  0  0  0  0  0  0
  -24.6770  -28.8890   19.9160 C   0  0  0  0  0  0  0  0  0  0  0  0
  -25.7690  -30.7570   21.1580 C   0  0  0  0  0  2  0  0  0  0  0  0
  -25.8470  -29.3940   20.4940 C   0  0  0  0  0  0  0  0  0  0  0  0
  -27.0490  -28.6450   20.4410 C   0  0  0  0  0  3  0  0  0  0  0  0
  -25.9060  -26.9000   19.2050 C   0  0  0  0  0  3  0  0  0  0  0  0
  -24.7050  -27.6410   19.2630 C   0  0  0  0  0  3  0  0  0  0  0  0
  -23.4290  -29.7450   20.0280 C   0  0  0  0  0  2  0  0  0  0  0  0
  -24.5310  -30.9680   21.9510 N   0  0  0  0  0  0  0  0  0  0  0  0
  -23.4310  -32.0090   23.6380 O   0  0  0  0  0  0  0  0  0  0  0  0
  -22.6230  -29.3400   22.3780 C   0  0  0  0  0  0  0  0  0  0  0  0
  -21.2940  -29.1560   22.2810 N   0  0  0  0  0  0  0  0  0  0  0  0
  -23.3240  -28.6930   23.1590 O   0  0  0  0  0  0  0  0  0  0  0  0
  -20.7760  -29.7340   21.6320 H   0  0  0  0  0  0  0  0  0  0  0  0
  -17.9420  -27.9330   22.8270 C   0  0  0  0  0  0  0  0  0  0  0  0
  -20.5030  -28.1930   23.0460 C   0  0  0  0  0  3  0  0  0  0  0  0
  -20.5990  -26.7750   22.4330 C   0  0  0  0  0  2  0  0  0  0  0  0
  -19.4760  -26.4790   21.4370 C   0  0  0  0  0  2  0  0  0  0  0  0
  -18.1080  -26.6000   22.1160 C   0  0  0  0  0  2  0  0  0  0  0  0
  -19.0660  -28.6880   23.2490 C   0  0  0  0  0  0  0  0  0  0  0  0
  -18.8550  -29.9390   23.8710 C   0  0  0  0  0  3  0  0  0  0  0  0
  -17.5530  -30.4320   24.0740 C   0  0  0  0  0  3  0  0  0  0  0  0
  -16.4430  -29.6710   23.6680 C   0  0  0  0  0  3  0  0  0  0  0  0
  -16.6380  -28.4260   23.0460 C   0  0  0  0  0  3  0  0  0  0  0  0
  -25.7990  -32.3660   23.6670 C   0  0  0  0  0  3  0  0  0  0  0  0
  -25.4910  -33.7450   24.0650 N   0  0  0  0  0  0  0  0  0  0  0  0
  -25.7940  -34.8310   23.3390 C   0  0  0  0  0  0  0  0  0  0  0  0
  -26.4280  -34.7750   22.2820 O   0  0  0  0  0  0  0  0  0  0  0  0
  -24.9150  -33.8600   24.8870 H   0  0  0  0  0  0  0  0  0  0  0  0
  -24.0430  -36.6210   23.1230 C   0  0  0  0  0  1  0  0  0  0  0  0
  -25.3200  -36.1990   23.8660 C   0  0  0  0  0  3  0  0  0  0  0  0
  -27.4840  -37.0720   24.6320 C   0  0  0  0  0  1  0  0  0  0  0  0
  -26.3400  -37.2630   23.7440 N   0  0  0  0  0  0  0  0  0  0  0  0
  -25.9370  -38.1760   23.9390 H   0  0  0  0  0  0  0  0  0  0  0  0
  -26.3750  -31.5420   24.8840 C   0  0  1  0  0  0  0  0  0  0  0  0
  -25.3270  -31.2210   25.9770 C   0  0  0  0  0  1  0  0  0  0  0  0
  -26.9710  -30.2030   24.3930 C   0  0  0  0  0  1  0  0  0  0  0  0
  -27.5370  -32.3210   25.5410 C   0  0  0  0  0  1  0  0  0  0  0  0
  -31.4940  -16.8070   21.2680 C   0  0  0  0  0  0  0  0  0  0  0  0
  -31.1900  -14.6770   19.9220 C   0  0  0  0  0  0  0  0  0  0  0  0
  -30.7430  -12.5060   18.8050 C   0  0  0  0  0  2  0  0  0  0  0  0
  -29.7630  -12.6660   17.6270 C   0  0  0  0  0  2  0  0  0  0  0  0
  -28.3070  -12.5770   18.1210 C   0  0  0  0  0  2  0  0  0  0  0  0
  -28.0380  -13.4630   19.3670 C   0  0  0  0  0  3  0  0  0  0  0  0
  -29.1330  -13.2870   20.4420 C   0  0  0  0  0  2  0  0  0  0  0  0
  -30.4290  -13.5500   19.8020 N   0  0  0  0  0  0  0  0  0  0  0  0
  -32.2920  -14.7500   19.3800 O   0  0  0  0  0  0  0  0  0  0  0  0
  -30.6850  -15.7320   20.6110 N   0  0  0  0  0  4  0  0  0  0  0  0
  -29.7320  -15.6380   20.9270 H   0  0  0  0  0  0  0  0  0  0  0  0
  -25.6980  -14.1510   20.1710 C   0  0  0  0  0  0  0  0  0  0  0  0
  -24.6200  -13.4150   20.5940 C   0  0  0  0  0  0  0  0  0  0  0  0
  -25.0350  -12.0500   20.5590 C   0  0  0  0  0  0  0  0  0  0  0  0
  -26.7010  -13.2320   19.9090 N   0  0  0  0  0  0  0  0  0  0  0  0
  -26.3090  -11.9630   20.1990 N   0  0  0  0  0  0  0  0  0  0  0  0
  -24.2740  -10.8150   20.7960 C   0  0  0  0  0  0  0  0  0  0  0  0
  -24.6620   -9.8860   21.7860 C   0  0  0  0  0  3  0  0  0  0  0  0
  -23.9020   -8.7180   22.0090 C   0  0  0  0  0  3  0  0  0  0  0  0
  -22.7400   -8.4710   21.2390 C   0  0  0  0  0  0  0  0  0  0  0  0
  -22.3710   -9.3870   20.2390 C   0  0  0  0  0  3  0  0  0  0  0  0
  -23.1320  -10.5460   20.0160 C   0  0  0  0  0  3  0  0  0  0  0  0
  -21.9550   -7.3500   21.3680 O   0  0  0  0  0  0  0  0  0  0  0  0
  -21.7890   -6.7200   22.5760 C   0  0  0  0  0  0  0  0  0  0  0  0
  -21.2780   -7.3960   23.7060 C   0  0  0  0  0  3  0  0  0  0  0  0
  -21.0580   -6.6960   24.9070 C   0  0  0  0  0  3  0  0  0  0  0  0
  -21.3400   -5.3180   24.9800 C   0  0  0  0  0  0  0  0  0  0  0  0
  -21.8420   -4.6410   23.8550 C   0  0  0  0  0  3  0  0  0  0  0  0
  -22.0630   -5.3400   22.6560 C   0  0  0  0  0  0  0  0  0  0  0  0
  -22.5280   -4.6770   21.5690 F   0  0  0  0  0  0  0  0  0  0  0  0
  -21.1210   -4.6420   26.1320 F   0  0  0  0  0  0  0  0  0  0  0  0
  -23.2550  -13.9450   20.9200 C   0  0  0  0  0  0  0  0  0  0  0  0
  -22.5490  -13.2870   21.8320 N   0  0  0  0  0  0  0  0  0  0  0  0
  -22.8290  -14.9780   20.4070 O   0  0  0  0  0  0  0  0  0  0  0  0
  -22.9100  -12.4520   22.2660 H   0  0  0  0  0  0  0  0  0  0  0  0
  -21.6330  -13.6230   22.0970 H   0  0  0  0  0  0  0  0  0  0  0  0
  -25.9000  -15.5110   19.9720 N   0  0  0  0  0  0  0  0  0  0  0  0
  -25.1570  -16.1920   20.1050 H   0  0  0  0  0  0  0  0  0  0  0  0
  -26.7530  -15.9210   19.6070 H   0  0  0  0  0  0  0  0  0  0  0  0
  -29.8670  -16.8560   23.3110 C   0  0  0  0  0  1  0  0  0  0  0  0
  -32.0270  -15.5520   23.4200 C   0  0  0  0  0  1  0  0  0  0  0  0
  -31.3250  -16.7840   22.8160 C   0  0  0  0  0  3  0  0  0  0  0  0
  1  4  1  0
  2  1  2  0
  2  5  1  0
  4  9  1  0
  4  3  2  0
  5  8  1  0
  5  6  2  0
  6  3  1  0
  6 56  1  0
  7  8  1  0
 10 11  1  0
 10  9  2  0
 11 14  1  0
 11 13  1  0
 13 12  1  0
 14 15  1  0
 15 17  1  0
 16 27  2  0
 17 22  1  0
 18 26  1  0
 18 28  1  0
 19 25  1  0
 19 21  1  0
 20 26  1  0
 21 20  1  0
 22 21  2  0
 23 24  1  0
 23 17  2  0
 24 19  2  0
 25 18  1  0
 26 16  1  0
 28 30  2  0
 29 28  1  0
 31 29  1  0
 32 41  2  0
 32 37  1  0
 33 29  1  0
 33 37  1  0
 34 33  1  0
 35 36  1  0
 35 34  1  0
 36 32  1  0
 37 38  2  0
 38 39  1  0
 40 39  2  0
 41 40  1  0
 42 16  1  0
 42 43  1  0
 42 52  1  0
 43 46  1  0
 44 48  1  0
 44 43  1  0
 45 44  2  0
 48 47  1  0
 50 48  1  0
 50 51  1  0
 50 49  1  0
 52 55  1  1
 52 53  1  0
 54 52  1  0
 56 97  1  0
 57 65  1  0
 58 63  1  0
 59 60  1  0
 59 58  1  0
 61 60  1  0
 61 70  1  0
 61 62  1  0
 63 57  1  0
 63 62  1  0
 64 57  2  0
 65 66  1  0
 65 56  2  3
 67 68  2  0
 68 87  1  0
 69 68  1  0
 69 72  1  0
 70 67  1  0
 70 71  1  0
 71 69  2  0
 72 73  1  0
 73 74  2  0
 75 78  1  0
 75 74  1  0
 76 75  2  0
 77 76  1  0
 77 72  2  0
 78 79  1  0
 79 84  2  0
 79 80  1  0
 80 81  2  0
 81 82  1  0
 82 86  1  0
 83 82  2  0
 84 83  1  0
 85 84  1  0
 87 88  1  0
 88 91  1  0
 88 90  1  0
 89 87  2  0
 92 93  1  0
 92 67  1  0
 94 92  1  0
 97 95  1  0
 97 96  1  0
M  ISO  4  14 101  15 101  57 100  65 100
M  END
>  <TORSDO>  (11) 
F 24

>  <SCORE>  (11) 
-6.408

>  <name>  (11) 
10

>  <ligand_id>  (11) 
10

>  <original_smiles>  (11) 
[H]c1c([H])c([H])c2c(c1[H])C([H])([H])C([H])([H])C([H])([H])C2([H])N([H])C(=O)C1([H])N(C(=O)C([H])(N([H])C(=O)C([H])(N([H])C([H])([H])[H])C([H])([H])[H])C(C([H])([H])[H])(C([H])([H])[H])C([H])([H])[H])C([H])([H])c2c([H])c(OC([H])([H])C([H])(C([H])([H])C([H])([H])[H])C([H])([H])C([H])([H])c3c([H])c([H])c(C([H])([H])C([H])([H])[H])c(C([H])(N([H])C(=O)N4C([H])([H])C([H])([H])C([H])([H])C([H])(n5nc(-c6c([H])c([H])c(Oc7c([H])c([H])c(F)c([H])c7F)c([H])c6[H])c(C(=O)N([H])[H])c5N([H])[H])C4([H])[H])C([H])(C([H])([H])[H])C([H])([H])[H])c3[H])c([H])c([H])c2C1([H])[H]

>  <smiles>  (11) 
[H]c1c([H])c([H])c2c(c1[H])C([H])([H])C([H])([H])C([H])([H])C2([H])N([H])C(=O)C1([H])N(C(=O)C([H])(N([H])C(=O)C([H])(N([H])C([H])([H])[H])C([H])([H])[H])C(C([H])([H])[H])(C([H])([H])[H])C([H])([H])[H])C([H])([H])c2c([H])c(OC([H])([H])C([H])(C([H])([H])C([H])([H])[H])C([H])([H])C([H])([H])c3c([H])c([H])c(C([H])([H])C([H])([H])[H])c(C([H])(N([H])C(=O)N4C([H])([H])C([H])([H])C([H])([H])C([H])(n5nc(-c6c([H])c([H])c(Oc7c([H])c([H])c(F)c([H])c7F)c([H])c6[H])c(C(=O)N([H])[H])c5N([H])[H])C4([H])[H])C([H])(C([H])([H])[H])C([H])([H])[H])c3[H])c([H])c([H])c2C1([H])[H]

$$$$
11:0:0
     RDKit          3D

 95103  0  0  1  0  0  0  0  0999 V2000
  -29.9440  -21.4600   21.1590 C   0  0  0  0  0  3  0  0  0  0  0  0
  -29.2700  -20.6230   20.2130 C   0  0  0  0  0  0  0  0  0  0  0  0
  -28.3830  -21.4130   19.3920 C   0  0  0  0  0  0  0  0  0  0  0  0
  -28.3010  -22.8660   19.4880 C   0  0  0  0  0  0  0  0  0  0  0  0
  -28.9580  -23.6060   20.5250 C   0  0  0  0  0  0  0  0  0  0  0  0
  -27.4320  -23.6720   18.5230 C   0  0  0  0  0  1  0  0  0  0  0  0
  -29.7690  -22.8330   21.3300 N   0  0  0  0  0  0  0  0  0  0  0  0
  -29.3260  -18.9760   20.0760 C   0  0  0  0  0  3  0  0  0  0  0  0
  -30.4650  -17.8470   20.4690 C   0  0  0  0  0  3  0  0  0  0  0  0
  -30.8550  -15.1520   20.1400 C   0  0  0  0  0  0  0  0  0  0  0  0
  -30.6210  -12.8710   19.0770 C   0  0  0  0  0  2  0  0  0  0  0  0
  -29.6650  -12.9400   17.8640 C   0  0  0  0  0  2  0  0  0  0  0  0
  -28.2000  -12.7800   18.3090 C   0  0  0  0  0  2  0  0  0  0  0  0
  -27.8550  -13.6610   19.5390 C   0  0  0  0  0  3  0  0  0  0  0  0
  -28.9250  -13.5520   20.6440 C   0  0  0  0  0  2  0  0  0  0  0  0
  -30.2100  -13.9270   20.0390 N   0  0  0  0  0  0  0  0  0  0  0  0
  -32.0490  -15.2110   19.8250 O   0  0  0  0  0  0  0  0  0  0  0  0
  -30.1120  -16.3190   20.4020 N   0  0  0  0  0  0  0  0  0  0  0  0
  -29.1460  -16.1200   20.6190 H   0  0  0  0  0  0  0  0  0  0  0  0
  -25.5030  -14.3040   20.3210 C   0  0  0  0  0  0  0  0  0  0  0  0
  -24.4160  -13.5620   20.6820 C   0  0  0  0  0  0  0  0  0  0  0  0
  -24.8290  -12.1960   20.6060 C   0  0  0  0  0  0  0  0  0  0  0  0
  -26.5100  -13.3980   20.0400 N   0  0  0  0  0  0  0  0  0  0  0  0
  -26.1130  -12.1210   20.2770 N   0  0  0  0  0  0  0  0  0  0  0  0
  -24.0610  -10.9560   20.7700 C   0  0  0  0  0  0  0  0  0  0  0  0
  -24.4420   -9.9730   21.7100 C   0  0  0  0  0  3  0  0  0  0  0  0
  -23.6760   -8.7980   21.8660 C   0  0  0  0  0  3  0  0  0  0  0  0
  -22.5170   -8.5980   21.0790 C   0  0  0  0  0  0  0  0  0  0  0  0
  -22.1520   -9.5700   20.1310 C   0  0  0  0  0  3  0  0  0  0  0  0
  -22.9190  -10.7380   19.9720 C   0  0  0  0  0  3  0  0  0  0  0  0
  -21.7290   -7.4760   21.1420 O   0  0  0  0  0  0  0  0  0  0  0  0
  -21.5850   -6.7590   22.3040 C   0  0  0  0  0  0  0  0  0  0  0  0
  -21.1110   -7.3570   23.4920 C   0  0  0  0  0  3  0  0  0  0  0  0
  -20.9130   -6.5710   24.6430 C   0  0  0  0  0  3  0  0  0  0  0  0
  -21.1800   -5.1890   24.6080 C   0  0  0  0  0  0  0  0  0  0  0  0
  -21.6510   -4.5910   23.4250 C   0  0  0  0  0  3  0  0  0  0  0  0
  -21.8490   -5.3750   22.2750 C   0  0  0  0  0  0  0  0  0  0  0  0
  -22.2800   -4.7910   21.1310 F   0  0  0  0  0  0  0  0  0  0  0  0
  -20.9850   -4.4310   25.7130 F   0  0  0  0  0  0  0  0  0  0  0  0
  -23.0380  -14.0820   20.9750 C   0  0  0  0  0  0  0  0  0  0  0  0
  -22.3030  -13.4090   21.8540 N   0  0  0  0  0  0  0  0  0  0  0  0
  -22.6230  -15.1190   20.4600 O   0  0  0  0  0  0  0  0  0  0  0  0
  -22.6500  -12.5690   22.2920 H   0  0  0  0  0  0  0  0  0  0  0  0
  -21.3780  -13.7410   22.0900 H   0  0  0  0  0  0  0  0  0  0  0  0
  -25.7160  -15.6700   20.1820 N   0  0  0  0  0  0  0  0  0  0  0  0
  -24.9520  -16.3300   20.2750 H   0  0  0  0  0  0  0  0  0  0  0  0
  -26.5510  -16.0880   19.7990 H   0  0  0  0  0  0  0  0  0  0  0  0
  -27.3650  -20.6930   18.4960 C   0  0  0  0  0  2  0  0  0  0  0  0
  -25.9520  -21.3060   18.6720 C   0  0  0  0  0  2  0  0  0  0  0  0
  -23.6830  -21.7950   17.7450 C   0  0  0  0  0  1  0  0  0  0  0  0
  -24.2450  -19.4410   18.3150 C   0  0  0  0  0  1  0  0  0  0  0  0
  -25.3270  -20.5700   16.3240 C   0  0  0  0  0  1  0  0  0  0  0  0
  -24.8220  -20.7580   17.7650 C   0  0  2  0  0  0  0  0  0  0  0  0
  -28.4510  -25.0970   21.0380 C   0  0  0  0  0  2  0  0  0  0  0  0
  -28.6770  -26.5020   20.4410 O   0  0  0  0  0  0  0  0  0  0  0  0
  -24.6340  -31.9860   23.2880 C   0  0  0  0  0  0  0  0  0  0  0  0
  -27.5750  -27.4220   20.4030 C   0  0  0  0  0  0  0  0  0  0  0  0
  -23.5640  -30.4950   21.6390 C   0  0  0  0  0  3  0  0  0  0  0  0
  -25.1430  -28.9960   20.2840 C   0  0  0  0  0  0  0  0  0  0  0  0
  -26.0940  -30.9270   21.5310 C   0  0  0  0  0  2  0  0  0  0  0  0
  -26.2770  -29.5310   20.9120 C   0  0  0  0  0  0  0  0  0  0  0  0
  -27.4970  -28.7600   20.9550 C   0  0  0  0  0  3  0  0  0  0  0  0
  -26.4140  -26.9790   19.7360 C   0  0  0  0  0  3  0  0  0  0  0  0
  -25.2230  -27.7330   19.6820 C   0  0  0  0  0  3  0  0  0  0  0  0
  -23.8620  -29.8130   20.2790 C   0  0  0  0  0  2  0  0  0  0  0  0
  -24.7820  -31.1600   22.2090 N   0  0  0  0  0  0  0  0  0  0  0  0
  -23.5190  -32.2110   23.7850 O   0  0  0  0  0  0  0  0  0  0  0  0
  -22.9280  -29.4580   22.5990 C   0  0  0  0  0  0  0  0  0  0  0  0
  -21.6140  -29.2130   22.4520 N   0  0  0  0  0  0  0  0  0  0  0  0
  -23.6210  -28.8770   23.4390 O   0  0  0  0  0  0  0  0  0  0  0  0
  -21.1080  -29.7420   21.7540 H   0  0  0  0  0  0  0  0  0  0  0  0
  -18.2830  -27.8730   22.9450 C   0  0  0  0  0  0  0  0  0  0  0  0
  -20.8290  -28.2400   23.2190 C   0  0  0  0  0  3  0  0  0  0  0  0
  -20.9930  -26.8140   22.6460 C   0  0  0  0  0  2  0  0  0  0  0  0
  -19.9070  -26.4460   21.6290 C   0  0  0  0  0  2  0  0  0  0  0  0
  -18.5190  -26.5330   22.2690 C   0  0  0  0  0  2  0  0  0  0  0  0
  -19.3680  -28.6810   23.3770 C   0  0  0  0  0  0  0  0  0  0  0  0
  -19.0930  -29.9300   23.9730 C   0  0  0  0  0  3  0  0  0  0  0  0
  -17.7680  -30.3750   24.1380 C   0  0  0  0  0  3  0  0  0  0  0  0
  -16.6980  -29.5660   23.7190 C   0  0  0  0  0  3  0  0  0  0  0  0
  -16.9570  -28.3160   23.1310 C   0  0  0  0  0  3  0  0  0  0  0  0
  -25.8560  -32.7070   23.9380 C   0  0  0  0  0  3  0  0  0  0  0  0
  -25.4630  -34.1000   24.2060 N   0  0  0  0  0  0  0  0  0  0  0  0
  -25.7500  -35.1390   23.4110 C   0  0  0  0  0  0  0  0  0  0  0  0
  -26.4410  -35.0320   22.3950 O   0  0  0  0  0  0  0  0  0  0  0  0
  -24.8460  -34.2530   24.9910 H   0  0  0  0  0  0  0  0  0  0  0  0
  -23.9280  -36.8180   22.9700 C   0  0  0  0  0  1  0  0  0  0  0  0
  -25.1810  -36.5150   23.8070 C   0  0  0  0  0  3  0  0  0  0  0  0
  -27.2480  -37.5630   24.6210 C   0  0  0  0  0  1  0  0  0  0  0  0
  -26.1530  -37.6210   23.6570 N   0  0  0  0  0  0  0  0  0  0  0  0
  -25.6910  -38.5220   23.7550 H   0  0  0  0  0  0  0  0  0  0  0  0
  -26.3540  -32.0110   25.2650 C   0  0  1  0  0  0  0  0  0  0  0  0
  -25.2260  -31.7420   26.2870 C   0  0  0  0  0  1  0  0  0  0  0  0
  -27.0370  -30.6580   24.9540 C   0  0  0  0  0  1  0  0  0  0  0  0
  -27.4180  -32.8970   25.9530 C   0  0  0  0  0  1  0  0  0  0  0  0
  1  7  1  0
  2  1  2  0
  3  4  2  0
  3  2  1  0
  4  5  1  0
  5 54  1  0
  5  7  2  0
  6  4  1  0
  8  2  1  0
  8  9  2  0
 10 18  1  0
 11 16  1  0
 12 13  1  0
 12 11  1  0
 14 13  1  0
 14 23  1  0
 14 15  1  0
 16 10  1  0
 16 15  1  0
 17 10  2  0
 18  9  1  0
 18 19  1  0
 20 21  2  0
 21 40  1  0
 22 21  1  0
 22 25  1  0
 23 24  1  0
 23 20  1  0
 24 22  2  0
 25 26  1  0
 26 27  2  0
 28 31  1  0
 28 27  1  0
 29 28  2  0
 30 29  1  0
 30 25  2  0
 31 32  1  0
 32 33  1  0
 33 34  2  0
 35 34  1  0
 35 39  1  0
 36 35  2  0
 37 32  2  0
 37 36  1  0
 38 37  1  0
 40 41  1  0
 41 44  1  0
 41 43  1  0
 42 40  2  0
 45 46  1  0
 45 20  1  0
 47 45  1  0
 48 49  1  0
 48  3  1  0
 53 50  1  6
 52 53  1  0
 53 51  1  0
 53 49  1  0
 55 54  1  0
 56 67  2  0
 57 55  1  0
 57 62  1  0
 58 66  1  0
 58 68  1  0
 59 61  1  0
 60 66  1  0
 61 62  2  0
 61 60  1  0
 63 57  2  0
 64 63  1  0
 64 59  2  0
 65 59  1  0
 65 58  1  0
 66 56  1  0
 68 70  2  0
 69 68  1  0
 71 69  1  0
 72 81  2  0
 72 77  1  0
 73 69  1  0
 73 77  1  0
 74 73  1  0
 75 76  1  0
 75 74  1  0
 76 72  1  0
 77 78  2  0
 78 79  1  0
 80 79  2  0
 81 80  1  0
 82 56  1  0
 82 83  1  0
 82 92  1  0
 83 86  1  0
 84 88  1  0
 84 83  1  0
 85 84  2  0
 88 87  1  0
 90 91  1  0
 90 88  1  0
 90 89  1  0
 92 95  1  1
 92 93  1  0
 94 92  1  0
M  ISO  4  10 100  18 100  54 101  55 101
M  END
>  <TORSDO>  (12) 
F 22

>  <SCORE>  (12) 
-10.165

>  <name>  (12) 
11

>  <ligand_id>  (12) 
11

>  <original_smiles>  (12) 
[H]c1nc(C([H])([H])Oc2c([H])c([H])c3c(c2[H])C([H])([H])N(C(=O)C([H])(N([H])C(=O)C([H])(N([H])C([H])([H])[H])C([H])([H])[H])C(C([H])([H])[H])(C([H])([H])[H])C([H])([H])[H])C([H])(C(=O)N([H])C2([H])c4c([H])c([H])c([H])c([H])c4C([H])([H])C([H])([H])C2([H])[H])C3([H])[H])c(C([H])([H])[H])c(C([H])([H])C([H])([H])C(C([H])([H])[H])(C([H])([H])[H])C([H])([H])[H])c1C([H])([H])C([H])([H])N([H])C(=O)N1C([H])([H])C([H])([H])C([H])([H])C([H])(n2nc(-c3c([H])c([H])c(Oc4c([H])c([H])c(F)c([H])c4F)c([H])c3[H])c(C(=O)N([H])[H])c2N([H])[H])C1([H])[H]

>  <smiles>  (12) 
[H]c1nc(C([H])([H])Oc2c([H])c([H])c3c(c2[H])C([H])([H])N(C(=O)C([H])(N([H])C(=O)C([H])(N([H])C([H])([H])[H])C([H])([H])[H])C(C([H])([H])[H])(C([H])([H])[H])C([H])([H])[H])C([H])(C(=O)N([H])C2([H])c4c([H])c([H])c([H])c([H])c4C([H])([H])C([H])([H])C2([H])[H])C3([H])[H])c(C([H])([H])[H])c(C([H])([H])C([H])([H])C(C([H])([H])[H])(C([H])([H])[H])C([H])([H])[H])c1C([H])([H])C([H])([H])N([H])C(=O)N1C([H])([H])C([H])([H])C([H])([H])C([H])(n2nc(-c3c([H])c([H])c(Oc4c([H])c([H])c(F)c([H])c4F)c([H])c3[H])c(C(=O)N([H])[H])c2N([H])[H])C1([H])[H]

$$$$
12:0:0
     RDKit          3D

 98106  0  0  1  0  0  0  0  0999 V2000
  -28.8670  -21.1890   19.4630 C   0  0  0  0  0  3  0  0  0  0  0  0
  -30.9530  -20.6130   21.1210 C   0  0  0  0  0  3  0  0  0  0  0  0
  -29.0990  -19.8320   19.7950 C   0  0  0  0  0  0  0  0  0  0  0  0
  -30.1880  -19.5170   20.6540 C   0  0  0  0  0  0  0  0  0  0  0  0
  -29.6810  -22.2000   20.0000 C   0  0  0  0  0  0  0  0  0  0  0  0
  -30.7120  -21.9090   20.8180 N   0  0  0  0  0  0  0  0  0  0  0  0
  -28.1470  -18.7830   19.2200 C   0  0  0  0  0  2  0  0  0  0  0  0
  -26.0540  -20.1680   19.9020 C   0  0  0  0  0  1  0  0  0  0  0  0
  -25.8040  -17.7840   19.1150 C   0  0  0  0  0  1  0  0  0  0  0  0
  -26.7230  -18.7820   19.8380 C   0  0  0  0  0  3  0  0  0  0  0  0
  -29.4670  -23.6790   19.6470 C   0  0  0  0  0  2  0  0  0  0  0  0
  -28.6870  -24.5030   20.7030 C   0  0  0  0  0  2  0  0  0  0  0  0
  -28.9190  -26.0370   20.6310 C   0  0  0  0  0  2  0  0  0  0  0  0
  -28.4020  -26.6280   19.4370 O   0  0  0  0  0  0  0  0  0  0  0  0
  -24.6410  -31.6310   22.9030 C   0  0  0  0  0  0  0  0  0  0  0  0
  -27.2410  -27.3490   19.5760 C   0  0  0  0  0  0  0  0  0  0  0  0
  -23.3970  -30.2720   21.2510 C   0  0  0  0  0  3  0  0  0  0  0  0
  -24.8230  -28.8020   19.7310 C   0  0  0  0  0  0  0  0  0  0  0  0
  -25.9070  -30.6760   20.9790 C   0  0  0  0  0  2  0  0  0  0  0  0
  -25.9920  -29.3250   20.2990 C   0  0  0  0  0  0  0  0  0  0  0  0
  -27.2060  -28.6040   20.2270 C   0  0  0  0  0  3  0  0  0  0  0  0
  -26.0610  -26.8390   19.0000 C   0  0  0  0  0  3  0  0  0  0  0  0
  -24.8500  -27.5540   19.0820 C   0  0  0  0  0  3  0  0  0  0  0  0
  -23.5680  -29.6390   19.8450 C   0  0  0  0  0  2  0  0  0  0  0  0
  -24.6690  -30.8740   21.7680 N   0  0  0  0  0  0  0  0  0  0  0  0
  -23.5750  -31.8650   23.4900 O   0  0  0  0  0  0  0  0  0  0  0  0
  -22.7950  -29.2070   22.1990 C   0  0  0  0  0  0  0  0  0  0  0  0
  -21.4660  -29.0280   22.1270 N   0  0  0  0  0  0  0  0  0  0  0  0
  -23.5180  -28.5490   22.9520 O   0  0  0  0  0  0  0  0  0  0  0  0
  -20.9440  -29.6150   21.4940 H   0  0  0  0  0  0  0  0  0  0  0  0
  -18.1180  -27.8190   22.7530 C   0  0  0  0  0  0  0  0  0  0  0  0
  -20.6880  -28.0540   22.8900 C   0  0  0  0  0  3  0  0  0  0  0  0
  -20.7500  -26.6530   22.2390 C   0  0  0  0  0  2  0  0  0  0  0  0
  -19.5910  -26.3830   21.2730 C   0  0  0  0  0  2  0  0  0  0  0  0
  -18.2480  -26.5040   22.0010 C   0  0  0  0  0  2  0  0  0  0  0  0
  -19.2630  -28.5550   23.1570 C   0  0  0  0  0  0  0  0  0  0  0  0
  -19.0870  -29.7860   23.8210 C   0  0  0  0  0  3  0  0  0  0  0  0
  -17.7980  -30.2860   24.0840 C   0  0  0  0  0  3  0  0  0  0  0  0
  -16.6680  -29.5460   23.6960 C   0  0  0  0  0  3  0  0  0  0  0  0
  -16.8280  -28.3140   23.0370 C   0  0  0  0  0  3  0  0  0  0  0  0
  -25.9400  -32.2590   23.4970 C   0  0  0  0  0  3  0  0  0  0  0  0
  -26.5590  -31.4090   24.6740 C   0  0  1  0  0  0  0  0  0  0  0  0
  -25.5420  -31.0410   25.7810 C   0  0  0  0  0  1  0  0  0  0  0  0
  -27.1680  -30.0930   24.1350 C   0  0  0  0  0  1  0  0  0  0  0  0
  -27.7140  -32.1980   25.3380 C   0  0  0  0  0  1  0  0  0  0  0  0
  -25.6000  -33.6110   23.9540 N   0  0  0  0  0  0  0  0  0  0  0  0
  -25.8670  -34.7340   23.2730 C   0  0  0  0  0  0  0  0  0  0  0  0
  -26.4910  -34.7380   22.2080 O   0  0  0  0  0  0  0  0  0  0  0  0
  -25.0420  -33.6770   24.7920 H   0  0  0  0  0  0  0  0  0  0  0  0
  -24.0750  -36.4950   23.1370 C   0  0  0  0  0  1  0  0  0  0  0  0
  -25.3580  -36.0630   23.8640 C   0  0  0  0  0  3  0  0  0  0  0  0
  -27.4990  -36.9480   24.6800 C   0  0  0  0  0  1  0  0  0  0  0  0
  -26.3530  -37.1550   23.8000 N   0  0  0  0  0  0  0  0  0  0  0  0
  -25.9260  -38.0460   24.0360 H   0  0  0  0  0  0  0  0  0  0  0  0
  -30.5150  -18.0670   21.1180 C   0  0  0  0  0  3  0  0  0  0  0  0
  -31.2710  -19.1080   23.3910 C   0  0  0  0  0  1  0  0  0  0  0  0
  -31.4700  -18.0000   22.3420 C   0  0  0  0  0  2  0  0  0  0  0  0
  -30.9670  -17.0900   19.9740 C   0  0  0  0  0  3  0  0  0  0  0  0
  -31.3940  -14.5660   19.9370 C   0  0  0  0  0  0  0  0  0  0  0  0
  -30.9840  -12.3310   19.0000 C   0  0  0  0  0  2  0  0  0  0  0  0
  -30.0090  -12.5000   17.8170 C   0  0  0  0  0  2  0  0  0  0  0  0
  -28.5460  -12.4520   18.3020 C   0  0  0  0  0  2  0  0  0  0  0  0
  -28.2900  -13.3710   19.5290 C   0  0  0  0  0  3  0  0  0  0  0  0
  -29.3840  -13.1910   20.6090 C   0  0  0  0  0  2  0  0  0  0  0  0
  -30.6920  -13.4020   19.9660 N   0  0  0  0  0  0  0  0  0  0  0  0
  -32.5060  -14.6430   19.4100 O   0  0  0  0  0  0  0  0  0  0  0  0
  -30.7260  -15.6690   20.3450 N   0  0  0  0  0  0  0  0  0  0  0  0
  -29.8330  -15.4830   20.7760 H   0  0  0  0  0  0  0  0  0  0  0  0
  -25.9920  -14.1170   20.4130 C   0  0  0  0  0  0  0  0  0  0  0  0
  -24.8890  -13.4100   20.8090 C   0  0  0  0  0  0  0  0  0  0  0  0
  -25.2350  -12.0300   20.6770 C   0  0  0  0  0  0  0  0  0  0  0  0
  -26.9480  -13.1710   20.0740 N   0  0  0  0  0  0  0  0  0  0  0  0
  -26.4990  -11.9080   20.2910 N   0  0  0  0  0  0  0  0  0  0  0  0
  -24.4190  -10.8200   20.8460 C   0  0  0  0  0  0  0  0  0  0  0  0
  -24.7570   -9.8260   21.7920 C   0  0  0  0  0  3  0  0  0  0  0  0
  -23.9490   -8.6800   21.9450 C   0  0  0  0  0  3  0  0  0  0  0  0
  -22.7850   -8.5200   21.1560 C   0  0  0  0  0  0  0  0  0  0  0  0
  -22.4660   -9.4990   20.1990 C   0  0  0  0  0  3  0  0  0  0  0  0
  -23.2750  -10.6370   20.0420 C   0  0  0  0  0  3  0  0  0  0  0  0
  -21.9490   -7.4300   21.2220 O   0  0  0  0  0  0  0  0  0  0  0  0
  -21.7340   -6.7590   22.3990 C   0  0  0  0  0  0  0  0  0  0  0  0
  -21.2370   -7.4100   23.5490 C   0  0  0  0  0  3  0  0  0  0  0  0
  -20.9680   -6.6690   24.7170 C   0  0  0  0  0  3  0  0  0  0  0  0
  -21.1820   -5.2790   24.7340 C   0  0  0  0  0  0  0  0  0  0  0  0
  -21.6690   -4.6280   23.5900 C   0  0  0  0  0  3  0  0  0  0  0  0
  -21.9440   -5.3660   22.4250 C   0  0  0  0  0  0  0  0  0  0  0  0
  -22.3950   -4.7300   21.3180 F   0  0  0  0  0  0  0  0  0  0  0  0
  -20.9120   -4.5640   25.8530 F   0  0  0  0  0  0  0  0  0  0  0  0
  -23.5530  -13.9790   21.1910 C   0  0  0  0  0  0  0  0  0  0  0  0
  -22.8420  -13.3190   22.0990 N   0  0  0  0  0  0  0  0  0  0  0  0
  -23.1520  -15.0430   20.7190 O   0  0  0  0  0  0  0  0  0  0  0  0
  -23.1710  -12.4560   22.5060 H   0  0  0  0  0  0  0  0  0  0  0  0
  -21.9490  -13.6860   22.3940 H   0  0  0  0  0  0  0  0  0  0  0  0
  -26.2560  -15.4780   20.2950 N   0  0  0  0  0  0  0  0  0  0  0  0
  -25.5450  -16.1760   20.4800 H   0  0  0  0  0  0  0  0  0  0  0  0
  -27.1000  -15.8660   19.8960 H   0  0  0  0  0  0  0  0  0  0  0  0
  -32.4650  -17.7640   17.9850 C   0  0  0  0  0  1  0  0  0  0  0  0
  -32.4150  -17.3660   19.4680 C   0  0  0  0  0  2  0  0  0  0  0  0
  1  3  2  0
  1  5  1  0
  3  4  1  0
  4 55  1  0
  4  2  2  0
  5  6  2  0
  6  2  1  0
  7  3  1  0
  7 10  1  0
  9 10  1  0
 10  8  1  0
 11  5  1  0
 11 12  1  0
 13 12  1  0
 14 16  1  0
 14 13  1  0
 15 26  2  0
 16 21  1  0
 17 25  1  0
 17 27  1  0
 18 24  1  0
 18 20  1  0
 19 25  1  0
 20 19  1  0
 21 20  2  0
 22 23  1  0
 22 16  2  0
 23 18  2  0
 24 17  1  0
 25 15  1  0
 27 29  2  0
 28 27  1  0
 30 28  1  0
 31 40  2  0
 31 36  1  0
 32 28  1  0
 32 36  1  0
 33 32  1  0
 34 35  1  0
 34 33  1  0
 35 31  1  0
 36 37  2  0
 37 38  1  0
 39 38  2  0
 40 39  1  0
 41 15  1  0
 41 46  1  0
 41 42  1  0
 42 45  1  1
 42 43  1  0
 44 42  1  0
 46 49  1  0
 47 51  1  0
 47 46  1  0
 48 47  2  0
 51 50  1  0
 53 51  1  0
 53 54  1  0
 53 52  1  0
 55 57  1  0
 57 56  1  0
 58 98  1  0
 58 67  1  0
 58 55  1  0
 59 65  1  0
 59 67  1  0
 60 65  1  0
 61 62  1  0
 61 60  1  0
 63 62  1  0
 63 72  1  0
 63 64  1  0
 65 64  1  0
 66 59  2  0
 67 68  1  0
 69 70  2  0
 70 89  1  0
 71 70  1  0
 71 74  1  0
 72 73  1  0
 72 69  1  0
 73 71  2  0
 74 75  1  0
 75 76  2  0
 77 80  1  0
 77 76  1  0
 78 77  2  0
 79 78  1  0
 79 74  2  0
 80 81  1  0
 81 86  2  0
 81 82  1  0
 82 83  2  0
 83 84  1  0
 84 88  1  0
 85 84  2  0
 86 85  1  0
 87 86  1  0
 89 90  1  0
 90 93  1  0
 90 92  1  0
 91 89  2  0
 94 69  1  0
 94 95  1  0
 96 94  1  0
 97 98  1  0
M  ISO  4  13 101  14 101  59 100  67 100
M  END
>  <TORSDO>  (13) 
F 25

>  <SCORE>  (13) 
-9.079

>  <name>  (13) 
12

>  <ligand_id>  (13) 
12

>  <original_smiles>  (13) 
[H]c1nc(C([H])([H])C([H])([H])C([H])([H])Oc2c([H])c([H])c3c(c2[H])C([H])([H])N(C(=O)C([H])(N([H])C(=O)C([H])(N([H])C([H])([H])[H])C([H])([H])[H])C(C([H])([H])[H])(C([H])([H])[H])C([H])([H])[H])C([H])(C(=O)N([H])C2([H])c4c([H])c([H])c([H])c([H])c4C([H])([H])C([H])([H])C2([H])[H])C3([H])[H])c([H])c(C([H])([H])C([H])(C([H])([H])[H])C([H])([H])[H])c1C([H])(C([H])([H])C([H])([H])[H])C([H])(N([H])C(=O)N1C([H])([H])C([H])([H])C([H])([H])C([H])(n2nc(-c3c([H])c([H])c(Oc4c([H])c([H])c(F)c([H])c4F)c([H])c3[H])c(C(=O)N([H])[H])c2N([H])[H])C1([H])[H])C([H])([H])C([H])([H])[H]

>  <smiles>  (13) 
[H]c1nc(C([H])([H])C([H])([H])C([H])([H])Oc2c([H])c([H])c3c(c2[H])C([H])([H])N(C(=O)C([H])(N([H])C(=O)C([H])(N([H])C([H])([H])[H])C([H])([H])[H])C(C([H])([H])[H])(C([H])([H])[H])C([H])([H])[H])C([H])(C(=O)N([H])C2([H])c4c([H])c([H])c([H])c([H])c4C([H])([H])C([H])([H])C2([H])[H])C3([H])[H])c([H])c(C([H])([H])C([H])(C([H])([H])[H])C([H])([H])[H])c1C([H])(C([H])([H])C([H])([H])[H])C([H])(N([H])C(=O)N1C([H])([H])C([H])([H])C([H])([H])C([H])(n2nc(-c3c([H])c([H])c(Oc4c([H])c([H])c(F)c([H])c4F)c([H])c3[H])c(C(=O)N([H])[H])c2N([H])[H])C1([H])[H])C([H])([H])C([H])([H])[H]

$$$$
13:0:0
     RDKit          3D

104112  0  0  1  0  0  0  0  0999 V2000
  -30.2860  -20.4300   20.2630 C   0  0  0  0  0  3  0  0  0  0  0  0
  -30.6080  -23.8630   18.3370 C   0  0  0  0  0  3  0  0  0  0  0  0
  -32.4800  -23.6400   19.8270 C   0  0  0  0  0  3  0  0  0  0  0  0
  -31.7330  -24.4540   18.9510 C   0  0  0  0  0  0  0  0  0  0  0  0
  -30.1880  -22.5390   18.6560 C   0  0  0  0  0  0  0  0  0  0  0  0
  -32.0800  -22.3210   20.1660 C   0  0  0  0  0  0  0  0  0  0  0  0
  -30.8790  -21.7530   19.6380 C   0  0  0  0  0  0  0  0  0  0  0  0
  -28.9370  -22.0520   17.9430 C   0  0  0  0  0  1  0  0  0  0  0  0
  -32.9490  -21.5760   21.1680 C   0  0  0  0  0  1  0  0  0  0  0  0
  -32.0900  -25.9570   18.8140 C   0  0  0  0  0  2  0  0  0  0  0  0
  -31.4530  -26.7070   17.7590 O   0  0  0  0  0  0  0  0  0  0  0  0
  -25.8850  -27.8230   22.1690 C   0  0  0  0  0  0  0  0  0  0  0  0
  -30.1100  -26.9760   17.9450 C   0  0  0  0  0  0  0  0  0  0  0  0
  -25.3520  -27.4310   19.7860 C   0  0  0  0  0  3  0  0  0  0  0  0
  -27.3350  -27.4990   18.1780 C   0  0  0  0  0  0  0  0  0  0  0  0
  -27.5890  -28.4750   20.4640 C   0  0  0  0  0  2  0  0  0  0  0  0
  -28.1990  -27.8380   19.2290 C   0  0  0  0  0  0  0  0  0  0  0  0
  -29.5900  -27.5820   19.1170 C   0  0  0  0  0  3  0  0  0  0  0  0
  -29.2250  -26.6600   16.8960 C   0  0  0  0  0  3  0  0  0  0  0  0
  -27.8430  -26.9070   17.0090 C   0  0  0  0  0  3  0  0  0  0  0  0
  -25.8630  -27.7980   18.3680 C   0  0  0  0  0  2  0  0  0  0  0  0
  -26.2840  -27.8920   20.8650 N   0  0  0  0  0  0  0  0  0  0  0  0
  -24.7520  -27.4230   22.4720 O   0  0  0  0  0  0  0  0  0  0  0  0
  -25.0640  -25.9120   19.8310 C   0  0  0  0  0  0  0  0  0  0  0  0
  -23.9450  -25.4950   19.2150 N   0  0  0  0  0  0  0  0  0  0  0  0
  -25.8480  -25.1380   20.3840 O   0  0  0  0  0  0  0  0  0  0  0  0
  -23.3500  -26.1920   18.7890 H   0  0  0  0  0  0  0  0  0  0  0  0
  -21.3070  -23.3880   17.9280 C   0  0  0  0  0  0  0  0  0  0  0  0
  -23.4970  -24.1080   19.0980 C   0  0  0  0  0  3  0  0  0  0  0  0
  -24.2310  -23.3810   17.9470 C   0  0  0  0  0  2  0  0  0  0  0  0
  -23.4720  -23.4380   16.6170 C   0  0  0  0  0  2  0  0  0  0  0  0
  -22.0870  -22.8000   16.7620 C   0  0  0  0  0  2  0  0  0  0  0  0
  -21.9690  -24.0160   19.0150 C   0  0  0  0  0  0  0  0  0  0  0  0
  -21.1950  -24.5760   20.0540 C   0  0  0  0  0  3  0  0  0  0  0  0
  -19.7890  -24.5120   20.0220 C   0  0  0  0  0  3  0  0  0  0  0  0
  -19.1410  -23.8750   18.9500 C   0  0  0  0  0  3  0  0  0  0  0  0
  -19.8990  -23.3110   17.9090 C   0  0  0  0  0  3  0  0  0  0  0  0
  -26.8240  -28.2650   23.3330 C   0  0  0  0  0  3  0  0  0  0  0  0
  -27.4530  -27.0500   24.1200 C   0  0  1  0  0  0  0  0  0  0  0  0
  -26.4100  -26.0170   24.6050 C   0  0  0  0  0  1  0  0  0  0  0  0
  -28.4850  -26.3060   23.2420 C   0  0  0  0  0  1  0  0  0  0  0  0
  -28.2170  -27.5680   25.3620 C   0  0  0  0  0  1  0  0  0  0  0  0
  -26.0400  -29.1180   24.2360 N   0  0  0  0  0  0  0  0  0  0  0  0
  -26.0980  -30.4550   24.2620 C   0  0  0  0  0  0  0  0  0  0  0  0
  -26.8840  -31.1050   23.5650 O   0  0  0  0  0  0  0  0  0  0  0  0
  -25.3380  -28.6560   24.7960 H   0  0  0  0  0  0  0  0  0  0  0  0
  -23.9440  -31.7440   24.4040 C   0  0  0  0  0  1  0  0  0  0  0  0
  -25.1300  -31.1890   25.2090 C   0  0  0  0  0  3  0  0  0  0  0  0
  -26.7220  -31.8100   26.9720 C   0  0  0  0  0  1  0  0  0  0  0  0
  -25.7670  -32.2840   25.9740 N   0  0  0  0  0  0  0  0  0  0  0  0
  -25.0650  -32.8450   26.4490 H   0  0  0  0  0  0  0  0  0  0  0  0
  -30.2640  -19.2280   19.3650 N   0  0  0  0  0  4  0  0  0  0  0  0
  -30.2240  -19.6010   18.4320 H   0  0  0  0  0  0  0  0  0  0  0  0
  -29.3970  -18.7410   19.5190 H   0  0  0  0  0  0  0  0  0  0  0  0
  -31.3800  -18.2180   19.4410 C   0  0  0  0  0  3  0  0  0  0  0  0
  -31.5790  -17.4870   18.0870 C   0  0  0  0  0  2  0  0  0  0  0  0
  -32.0750  -18.3420   16.8930 C   0  0  0  0  0  2  0  0  0  0  0  0
  -33.5350  -18.5770   16.8920 N   0  0  0  0  0  4  0  0  0  0  0  0
  -33.8490  -19.0910   17.6950 H   0  0  0  0  0  0  0  0  0  0  0  0
  -33.7870  -19.1080   16.0770 H   0  0  0  0  0  0  0  0  0  0  0  0
  -34.0400  -17.7080   16.8470 H   0  0  0  0  0  0  0  0  0  0  0  0
  -31.2940  -17.1990   20.6470 C   0  0  0  0  0  2  0  0  0  0  0  0
  -31.5690  -14.6890   20.2010 C   0  0  0  0  0  0  0  0  0  0  0  0
  -31.3140  -12.3270   19.5020 C   0  0  0  0  0  2  0  0  0  0  0  0
  -30.4140  -12.2570   18.2510 C   0  0  0  0  0  2  0  0  0  0  0  0
  -28.9230  -12.2160   18.6440 C   0  0  0  0  0  2  0  0  0  0  0  0
  -28.5480  -13.3040   19.6880 C   0  0  0  0  0  3  0  0  0  0  0  0
  -29.5560  -13.3190   20.8550 C   0  0  0  0  0  2  0  0  0  0  0  0
  -30.8960  -13.5070   20.2780 N   0  0  0  0  0  0  0  0  0  0  0  0
  -32.7430  -14.7570   19.8320 O   0  0  0  0  0  0  0  0  0  0  0  0
  -30.8260  -15.8040   20.4150 N   0  0  0  0  0  0  0  0  0  0  0  0
  -29.8630  -15.6160   20.6530 H   0  0  0  0  0  0  0  0  0  0  0  0
  -26.2240  -14.1190   20.4360 C   0  0  0  0  0  0  0  0  0  0  0  0
  -25.0820  -13.4450   20.7750 C   0  0  0  0  0  0  0  0  0  0  0  0
  -25.4040  -12.0570   20.6900 C   0  0  0  0  0  0  0  0  0  0  0  0
  -27.1740  -13.1480   20.1620 N   0  0  0  0  0  0  0  0  0  0  0  0
  -26.6850  -11.8980   20.3740 N   0  0  0  0  0  0  0  0  0  0  0  0
  -24.5540  -10.8670   20.8330 C   0  0  0  0  0  0  0  0  0  0  0  0
  -24.8200   -9.8850   21.8120 C   0  0  0  0  0  3  0  0  0  0  0  0
  -23.9780   -8.7610   21.9410 C   0  0  0  0  0  3  0  0  0  0  0  0
  -22.8570   -8.6100   21.0890 C   0  0  0  0  0  0  0  0  0  0  0  0
  -22.6120   -9.5800   20.1030 C   0  0  0  0  0  3  0  0  0  0  0  0
  -23.4540  -10.6980   19.9710 C   0  0  0  0  0  3  0  0  0  0  0  0
  -22.0010   -7.5370   21.1260 O   0  0  0  0  0  0  0  0  0  0  0  0
  -21.6950   -6.8990   22.3020 C   0  0  0  0  0  0  0  0  0  0  0  0
  -21.0660   -7.5710   23.3730 C   0  0  0  0  0  3  0  0  0  0  0  0
  -20.7060   -6.8610   24.5350 C   0  0  0  0  0  3  0  0  0  0  0  0
  -20.9650   -5.4810   24.6270 C   0  0  0  0  0  0  0  0  0  0  0  0
  -21.5850   -4.8080   23.5580 C   0  0  0  0  0  3  0  0  0  0  0  0
  -21.9460   -5.5160   22.3990 C   0  0  0  0  0  0  0  0  0  0  0  0
  -22.5220   -4.8600   21.3630 F   0  0  0  0  0  0  0  0  0  0  0  0
  -20.6130   -4.7950   25.7390 F   0  0  0  0  0  0  0  0  0  0  0  0
  -23.7390  -14.0520   21.0670 C   0  0  0  0  0  0  0  0  0  0  0  0
  -22.9490  -13.4110   21.9220 N   0  0  0  0  0  0  0  0  0  0  0  0
  -23.4020  -15.1260   20.5710 O   0  0  0  0  0  0  0  0  0  0  0  0
  -23.2320  -12.5400   22.3480 H   0  0  0  0  0  0  0  0  0  0  0  0
  -22.0460  -13.7990   22.1540 H   0  0  0  0  0  0  0  0  0  0  0  0
  -26.5270  -15.4730   20.3170 N   0  0  0  0  0  0  0  0  0  0  0  0
  -25.8220  -16.1890   20.4600 H   0  0  0  0  0  0  0  0  0  0  0  0
  -27.4090  -15.8430   19.9880 H   0  0  0  0  0  0  0  0  0  0  0  0
  -28.8770  -20.6420   20.8930 C   0  0  0  0  0  2  0  0  0  0  0  0
  -29.2670  -22.8450   22.1710 C   0  0  0  0  0  1  0  0  0  0  0  0
  -26.9310  -22.1680   21.5010 C   0  0  0  0  0  1  0  0  0  0  0  0
  -28.4200  -22.1100   21.1170 C   0  0  0  0  0  3  0  0  0  0  0  0
  1101  1  0
  2  5  2  0
  2  4  1  0
  3  6  1  0
  4  3  2  0
  5  7  1  0
  6  9  1  0
  7  6  2  0
  7  1  1  0
  8  5  1  0
 10  4  1  0
 11 13  1  0
 11 10  1  0
 12 23  2  0
 13 18  1  0
 14 24  1  0
 14 22  1  0
 15 21  1  0
 15 17  1  0
 16 22  1  0
 17 16  1  0
 18 17  2  0
 19 20  1  0
 19 13  2  0
 20 15  2  0
 21 14  1  0
 22 12  1  0
 24 26  2  0
 25 24  1  0
 27 25  1  0
 28 33  1  0
 29 25  1  0
 30 29  1  0
 31 32  1  0
 31 30  1  0
 32 28  1  0
 33 29  1  0
 33 34  2  0
 35 34  1  0
 36 35  2  0
 37 28  2  0
 37 36  1  0
 38 12  1  0
 38 39  1  0
 38 43  1  0
 39 40  1  1
 39 42  1  0
 41 39  1  0
 43 44  1  0
 43 46  1  0
 44 48  1  0
 45 44  2  0
 48 47  1  0
 48 50  1  0
 50 51  1  0
 50 49  1  0
 52 55  1  0
 52 54  1  0
 52  1  1  0
 53 52  1  0
 55 56  1  0
 55 62  1  0
 57 56  1  0
 58 57  1  0
 58 59  1  0
 60 58  1  0
 61 58  1  0
 63 69  1  0
 63 71  1  0
 64 69  1  0
 65 66  1  0
 65 64  1  0
 67 66  1  0
 67 76  1  0
 67 68  1  0
 69 68  1  0
 70 63  2  0
 71 62  1  0
 71 72  1  0
 73 74  2  0
 74 93  1  0
 75 74  1  0
 75 78  1  0
 76 77  1  0
 76 73  1  0
 77 75  2  0
 78 79  1  0
 79 80  2  0
 81 84  1  0
 81 80  1  0
 82 81  2  0
 83 82  1  0
 83 78  2  0
 84 85  1  0
 85 90  2  0
 85 86  1  0
 86 87  2  0
 87 88  1  0
 88 92  1  0
 89 88  2  0
 90 89  1  0
 91 90  1  0
 93 94  1  0
 94 97  1  0
 94 96  1  0
 95 93  2  0
 98 73  1  0
 98 99  1  0
100 98  1  0
101104  1  0
104103  1  0
104102  1  0
M  ISO  4  10 101  11 101  63 100  71 100
M  END
>  <TORSDO>  (14) 
F 26

>  <SCORE>  (14) 
-7.926

>  <name>  (14) 
13

>  <ligand_id>  (14) 
13

>  <original_smiles>  (14) 
[H]c1c([H])c([H])c2c(c1[H])C([H])([H])C([H])([H])C([H])([H])C2([H])N([H])C(=O)C1([H])N(C(=O)C([H])(N([H])C(=O)C([H])(N([H])C([H])([H])[H])C([H])([H])[H])C(C([H])([H])[H])(C([H])([H])[H])C([H])([H])[H])C([H])([H])c2c([H])c(OC([H])([H])c3c([H])c(C([H])([H])[H])c(C([H])(C([H])([H])C([H])(C([H])([H])[H])C([H])([H])[H])[N+]([H])([H])C([H])(C([H])([H])N([H])C(=O)N4C([H])([H])C([H])([H])C([H])([H])C([H])(n5nc(-c6c([H])c([H])c(Oc7c([H])c([H])c(F)c([H])c7F)c([H])c6[H])c(C(=O)N([H])[H])c5N([H])[H])C4([H])[H])C([H])([H])C([H])([H])[N+]([H])([H])[H])c(C([H])([H])[H])c3[H])c([H])c([H])c2C1([H])[H]

>  <smiles>  (14) 
[H]c1c([H])c([H])c2c(c1[H])C([H])([H])C([H])([H])C([H])([H])C2([H])N([H])C(=O)C1([H])N(C(=O)C([H])(N([H])C(=O)C([H])(N([H])C([H])([H])[H])C([H])([H])[H])C(C([H])([H])[H])(C([H])([H])[H])C([H])([H])[H])C([H])([H])c2c([H])c(OC([H])([H])c3c([H])c(C([H])([H])[H])c(C([H])(C([H])([H])C([H])(C([H])([H])[H])C([H])([H])[H])[N+]([H])([H])C([H])(C([H])([H])N([H])C(=O)N4C([H])([H])C([H])([H])C([H])([H])C([H])(n5nc(-c6c([H])c([H])c(Oc7c([H])c([H])c(F)c([H])c7F)c([H])c6[H])c(C(=O)N([H])[H])c5N([H])[H])C4([H])[H])C([H])([H])C([H])([H])[N+]([H])([H])[H])c(C([H])([H])[H])c3[H])c([H])c([H])c2C1([H])[H]

$$$$
14:0:0
     RDKit          3D

100108  0  0  1  0  0  0  0  0999 V2000
  -30.4400  -18.7580   20.2690 C   0  0  0  0  0  2  0  0  0  0  0  0
  -29.8720  -20.3010   20.0740 C   0  0  0  0  0  2  0  0  0  0  0  0
  -30.6060  -21.5100   20.6670 N   0  0  0  0  0  4  0  0  0  0  0  0
  -31.5720  -21.3780   20.4080 H   0  0  0  0  0  0  0  0  0  0  0  0
  -30.5930  -21.4470   21.6720 H   0  0  0  0  0  0  0  0  0  0  0  0
  -30.3090  -22.9720   20.2440 C   0  0  0  0  0  2  0  0  0  0  0  0
  -28.6810  -23.1960   22.2040 C   0  0  0  0  0  1  0  0  0  0  0  0
  -27.8710  -23.7420   19.9230 C   0  0  0  0  0  1  0  0  0  0  0  0
  -29.0850  -23.8560   20.8610 C   0  0  2  0  0  0  0  0  0  0  0  0
  -29.2880  -25.4520   21.1960 C   0  0  0  0  0  2  0  0  0  0  0  0
  -29.0740  -26.6410   20.3230 O   0  0  0  0  0  0  0  0  0  0  0  0
  -24.7680  -31.7940   23.2330 C   0  0  0  0  0  0  0  0  0  0  0  0
  -27.8950  -27.4100   20.3650 C   0  0  0  0  0  0  0  0  0  0  0  0
  -23.7930  -30.3520   21.4850 C   0  0  0  0  0  3  0  0  0  0  0  0
  -25.4500  -28.9020   20.1810 C   0  0  0  0  0  0  0  0  0  0  0  0
  -26.3190  -30.8080   21.5240 C   0  0  0  0  0  2  0  0  0  0  0  0
  -26.5340  -29.4390   20.8860 C   0  0  0  0  0  0  0  0  0  0  0  0
  -27.7610  -28.7050   20.9740 C   0  0  0  0  0  3  0  0  0  0  0  0
  -26.7880  -26.9370   19.6320 C   0  0  0  0  0  3  0  0  0  0  0  0
  -25.5800  -27.6550   19.5480 C   0  0  0  0  0  3  0  0  0  0  0  0
  -24.1660  -29.7090   20.1230 C   0  0  0  0  0  2  0  0  0  0  0  0
  -24.9750  -31.0020   22.1400 N   0  0  0  0  0  0  0  0  0  0  0  0
  -23.6290  -32.0040   23.6750 O   0  0  0  0  0  0  0  0  0  0  0  0
  -23.1060  -29.2870   22.3740 C   0  0  0  0  0  0  0  0  0  0  0  0
  -21.7850  -29.1050   22.1940 N   0  0  0  0  0  0  0  0  0  0  0  0
  -23.7560  -28.6380   23.1970 O   0  0  0  0  0  0  0  0  0  0  0  0
  -21.3210  -29.6750   21.5020 H   0  0  0  0  0  0  0  0  0  0  0  0
  -18.3830  -27.9590   22.6520 C   0  0  0  0  0  0  0  0  0  0  0  0
  -20.9490  -28.1310   22.9030 C   0  0  0  0  0  3  0  0  0  0  0  0
  -21.0020  -26.7470   22.2160 C   0  0  0  0  0  2  0  0  0  0  0  0
  -19.8840  -26.5450   21.1900 C   0  0  0  0  0  2  0  0  0  0  0  0
  -18.5150  -26.6680   21.8640 C   0  0  0  0  0  2  0  0  0  0  0  0
  -19.5250  -28.6540   23.1310 C   0  0  0  0  0  0  0  0  0  0  0  0
  -19.3490  -29.8620   23.8380 C   0  0  0  0  0  3  0  0  0  0  0  0
  -18.0600  -30.3820   24.0650 C   0  0  0  0  0  3  0  0  0  0  0  0
  -16.9310  -29.6930   23.5940 C   0  0  0  0  0  3  0  0  0  0  0  0
  -17.0940  -28.4780   22.8950 C   0  0  0  0  0  3  0  0  0  0  0  0
  -25.9570  -32.4900   23.9690 C   0  0  0  0  0  3  0  0  0  0  0  0
  -26.3900  -31.7420   25.2890 C   0  0  1  0  0  0  0  0  0  0  0  0
  -25.2160  -31.4510   26.2530 C   0  0  0  0  0  1  0  0  0  0  0  0
  -27.0700  -30.3930   24.9540 C   0  0  0  0  0  1  0  0  0  0  0  0
  -27.4330  -32.5920   26.0510 C   0  0  0  0  0  1  0  0  0  0  0  0
  -25.5480  -33.8680   24.2690 N   0  0  0  0  0  0  0  0  0  0  0  0
  -25.8870  -34.9390   23.5370 C   0  0  0  0  0  0  0  0  0  0  0  0
  -26.6380  -34.8710   22.5610 O   0  0  0  0  0  0  0  0  0  0  0  0
  -24.8880  -33.9920   25.0200 H   0  0  0  0  0  0  0  0  0  0  0  0
  -24.0840  -36.6330   23.0610 C   0  0  0  0  0  1  0  0  0  0  0  0
  -25.2930  -36.3000   23.9490 C   0  0  0  0  0  3  0  0  0  0  0  0
  -27.3150  -37.3120   24.9050 C   0  0  0  0  0  1  0  0  0  0  0  0
  -26.2680  -37.4080   23.8930 N   0  0  0  0  0  0  0  0  0  0  0  0
  -25.8010  -38.3020   24.0090 H   0  0  0  0  0  0  0  0  0  0  0  0
  -29.4100  -17.5280   20.5590 C   0  0  0  0  0  3  0  0  0  0  0  0
  -30.4550  -15.0210   19.9890 C   0  0  0  0  0  0  0  0  0  0  0  0
  -30.3370  -12.7000   19.0370 C   0  0  0  0  0  2  0  0  0  0  0  0
  -29.3220  -12.6780   17.8730 C   0  0  0  0  0  2  0  0  0  0  0  0
  -27.8820  -12.4690   18.3880 C   0  0  0  0  0  2  0  0  0  0  0  0
  -27.5380  -13.3870   19.5910 C   0  0  0  0  0  3  0  0  0  0  0  0
  -28.6580  -13.3630   20.6520 C   0  0  0  0  0  2  0  0  0  0  0  0
  -29.9020  -13.7580   19.9740 N   0  0  0  0  0  0  0  0  0  0  0  0
  -31.6470  -15.1840   19.7110 O   0  0  0  0  0  0  0  0  0  0  0  0
  -29.5430  -16.0640   20.0920 N   0  0  0  0  0  0  0  0  0  0  0  0
  -28.6180  -15.6640   20.0620 H   0  0  0  0  0  0  0  0  0  0  0  0
  -25.1910  -13.9480   20.4530 C   0  0  0  0  0  0  0  0  0  0  0  0
  -24.1420  -13.1830   20.8710 C   0  0  0  0  0  0  0  0  0  0  0  0
  -24.6090  -11.8400   20.8060 C   0  0  0  0  0  0  0  0  0  0  0  0
  -26.2260  -13.0820   20.1540 N   0  0  0  0  0  0  0  0  0  0  0  0
  -25.8840  -11.8020   20.4300 N   0  0  0  0  0  0  0  0  0  0  0  0
  -23.8910  -10.5820   21.0190 C   0  0  0  0  0  0  0  0  0  0  0  0
  -24.3610   -9.6180   21.9350 C   0  0  0  0  0  3  0  0  0  0  0  0
  -23.6430   -8.4220   22.1390 C   0  0  0  0  0  3  0  0  0  0  0  0
  -22.4430   -8.1850   21.4260 C   0  0  0  0  0  0  0  0  0  0  0  0
  -21.9920   -9.1410   20.5000 C   0  0  0  0  0  3  0  0  0  0  0  0
  -22.7130  -10.3300   20.2940 C   0  0  0  0  0  3  0  0  0  0  0  0
  -21.6970   -7.0380   21.5400 O   0  0  0  0  0  0  0  0  0  0  0  0
  -21.6770   -6.3070   22.7010 C   0  0  0  0  0  0  0  0  0  0  0  0
  -21.2770   -6.8740   23.9310 C   0  0  0  0  0  3  0  0  0  0  0  0
  -21.2020   -6.0710   25.0850 C   0  0  0  0  0  3  0  0  0  0  0  0
  -21.5190   -4.6990   25.0110 C   0  0  0  0  0  0  0  0  0  0  0  0
  -21.9130   -4.1330   23.7860 C   0  0  0  0  0  3  0  0  0  0  0  0
  -21.9890   -4.9350   22.6330 C   0  0  0  0  0  0  0  0  0  0  0  0
  -22.3480   -4.3790   21.4510 F   0  0  0  0  0  0  0  0  0  0  0  0
  -21.4400   -3.9250   26.1170 F   0  0  0  0  0  0  0  0  0  0  0  0
  -22.7650  -13.6730   21.2170 C   0  0  0  0  0  0  0  0  0  0  0  0
  -22.0980  -13.0080   22.1520 N   0  0  0  0  0  0  0  0  0  0  0  0
  -22.2940  -14.6830   20.6950 O   0  0  0  0  0  0  0  0  0  0  0  0
  -22.4910  -12.1940   22.6000 H   0  0  0  0  0  0  0  0  0  0  0  0
  -21.1780  -13.3220   22.4250 H   0  0  0  0  0  0  0  0  0  0  0  0
  -25.3290  -15.3000   20.2790 N   0  0  0  0  0  0  0  0  0  0  0  0
  -24.5840  -15.9320   20.5410 H   0  0  0  0  0  0  0  0  0  0  0  0
  -26.1960  -15.7970   20.1200 H   0  0  0  0  0  0  0  0  0  0  0  0
  -26.7750  -17.5340   20.3820 C   0  0  0  0  0  3  0  0  0  0  0  0
  -27.8850  -18.9670   19.0980 C   0  0  0  0  0  3  0  0  0  0  0  0
  -28.0740  -17.9840   20.0260 C   0  0  0  0  0  0  0  0  0  0  0  0
  -25.8490  -18.2230   19.6450 C   0  0  0  0  0  0  0  0  0  0  0  0
  -24.3780  -17.9720   19.5940 C   0  0  0  0  0  1  0  0  0  0  0  0
  -26.5370  -19.1620   18.8650 N   0  0  0  0  0  0  0  0  0  0  0  0
  -26.1210  -20.0870   17.7930 C   0  0  0  0  0  2  0  0  0  0  0  0
  -24.1600  -21.0950   16.5450 C   0  0  0  0  0  1  0  0  0  0  0  0
  -25.0730  -22.2540   18.6120 C   0  0  0  0  0  1  0  0  0  0  0  0
  -24.8180  -20.9090   17.9240 C   0  0  0  0  0  3  0  0  0  0  0  0
  2  1  1  0
  2  3  1  0
  3  5  1  0
  4  3  1  0
  6  3  1  0
  6  9  1  0
  9  8  1  6
  9 10  1  0
  9  7  1  0
 11 13  1  0
 11 10  1  0
 12 23  2  0
 13 18  1  0
 14 22  1  0
 14 24  1  0
 15 17  1  0
 16 22  1  0
 17 18  2  0
 17 16  1  0
 19 13  2  0
 20 19  1  0
 20 15  2  0
 21 15  1  0
 21 14  1  0
 22 12  1  0
 24 26  2  0
 25 24  1  0
 27 25  1  0
 28 37  2  0
 28 33  1  0
 29 25  1  0
 29 33  1  0
 30 29  1  0
 31 32  1  0
 31 30  1  0
 32 28  1  0
 33 34  2  0
 34 35  1  0
 36 35  2  0
 37 36  1  0
 38 12  1  0
 38 43  1  0
 38 39  1  0
 39 42  1  1
 39 40  1  0
 41 39  1  0
 43 46  1  0
 44 48  1  0
 44 43  1  0
 45 44  2  0
 48 47  1  0
 50 48  1  0
 50 51  1  0
 50 49  1  0
 52  1  1  0
 53 61  1  0
 54 59  1  0
 55 56  1  0
 55 54  1  0
 57 56  1  0
 57 66  1  0
 57 58  1  0
 59 53  1  0
 59 58  1  0
 60 53  2  0
 61 52  1  0
 62 61  1  0
 63 64  2  0
 64 83  1  0
 65 64  1  0
 65 68  1  0
 66 67  1  0
 66 63  1  0
 67 65  2  0
 68 69  1  0
 69 70  2  0
 71 74  1  0
 71 70  1  0
 72 71  2  0
 73 72  1  0
 73 68  2  0
 74 75  1  0
 75 76  1  0
 76 77  2  0
 78 77  1  0
 78 82  1  0
 79 78  2  0
 80 75  2  0
 80 79  1  0
 81 80  1  0
 83 84  1  0
 84 87  1  0
 84 86  1  0
 85 83  2  0
 88 63  1  0
 88 89  1  0
 90 88  1  0
 92 93  2  0
 93 91  1  0
 93 52  1  0
 94 91  2  0
 95 94  1  0
 96 92  1  0
 96 94  1  0
 97100  1  0
 97 96  1  0
 98100  1  0
100 99  1  0
M  ISO  4  10 101  11 101  53 100  61 100
M  END
>  <TORSDO>  (15) 
F 25

>  <SCORE>  (15) 
-11.178

>  <name>  (15) 
14

>  <ligand_id>  (15) 
14

>  <original_smiles>  (15) 
[H]c1c([H])c([H])c2c(c1[H])C([H])([H])C([H])([H])C([H])([H])C2([H])N([H])C(=O)C1([H])N(C(=O)C([H])(N([H])C(=O)C([H])(N([H])C([H])([H])[H])C([H])([H])[H])C(C([H])([H])[H])(C([H])([H])[H])C([H])([H])[H])C([H])([H])c2c([H])c(OC([H])([H])C(C([H])([H])[H])(C([H])([H])[H])C([H])([H])[N+]([H])([H])C([H])([H])C([H])([H])C([H])(c3c([H])c(C([H])([H])[H])n(C([H])([H])C([H])(C([H])([H])[H])C([H])([H])[H])c3[H])N([H])C(=O)N3C([H])([H])C([H])([H])C([H])([H])C([H])(n4nc(-c5c([H])c([H])c(Oc6c([H])c([H])c(F)c([H])c6F)c([H])c5[H])c(C(=O)N([H])[H])c4N([H])[H])C3([H])[H])c([H])c([H])c2C1([H])[H]

>  <smiles>  (15) 
[H]c1c([H])c([H])c2c(c1[H])C([H])([H])C([H])([H])C([H])([H])C2([H])N([H])C(=O)C1([H])N(C(=O)C([H])(N([H])C(=O)C([H])(N([H])C([H])([H])[H])C([H])([H])[H])C(C([H])([H])[H])(C([H])([H])[H])C([H])([H])[H])C([H])([H])c2c([H])c(OC([H])([H])C(C([H])([H])[H])(C([H])([H])[H])C([H])([H])[N+]([H])([H])C([H])([H])C([H])([H])C([H])(c3c([H])c(C([H])([H])[H])n(C([H])([H])C([H])(C([H])([H])[H])C([H])([H])[H])c3[H])N([H])C(=O)N3C([H])([H])C([H])([H])C([H])([H])C([H])(n4nc(-c5c([H])c([H])c(Oc6c([H])c([H])c(F)c([H])c6F)c([H])c5[H])c(C(=O)N([H])[H])c4N([H])[H])C3([H])[H])c([H])c([H])c2C1([H])[H]

$$$$
15:0:0
     RDKit          3D

 84 91  0  0  1  0  0  0  0  0999 V2000
  -28.7200  -22.8200   19.9390 C   0  0  0  0  0  2  0  0  0  0  0  0
  -28.9750  -21.2040   20.6560 C   0  0  0  0  0  2  0  0  0  0  0  0
  -29.1120  -19.5470   20.0050 C   0  0  0  0  0  2  0  0  0  0  0  0
  -29.8670  -18.0600   20.6330 C   0  0  0  0  0  2  0  0  0  0  0  0
  -30.3960  -15.2010   20.2700 C   0  0  0  0  0  0  0  0  0  0  0  0
  -30.3500  -12.7810   19.3600 C   0  0  0  0  0  2  0  0  0  0  0  0
  -29.4120  -12.6020   18.1410 C   0  0  0  0  0  2  0  0  0  0  0  0
  -27.9650  -12.3420   18.5970 C   0  0  0  0  0  2  0  0  0  0  0  0
  -27.5320  -13.3000   19.7350 C   0  0  0  0  0  3  0  0  0  0  0  0
  -28.5930  -13.4210   20.8470 C   0  0  0  0  0  2  0  0  0  0  0  0
  -29.8190  -13.9100   20.2000 N   0  0  0  0  0  0  0  0  0  0  0  0
  -31.6200  -15.2130   20.0850 O   0  0  0  0  0  0  0  0  0  0  0  0
  -29.6200  -16.4480   20.3470 N   0  0  0  0  0  0  0  0  0  0  0  0
  -28.6340  -16.2300   20.3490 H   0  0  0  0  0  0  0  0  0  0  0  0
  -25.1640  -13.8590   20.5070 C   0  0  0  0  0  0  0  0  0  0  0  0
  -24.1070  -13.0800   20.8850 C   0  0  0  0  0  0  0  0  0  0  0  0
  -24.5780  -11.7320   20.8550 C   0  0  0  0  0  0  0  0  0  0  0  0
  -26.2080  -12.9850   20.2570 N   0  0  0  0  0  0  0  0  0  0  0  0
  -25.8670  -11.7000   20.5360 N   0  0  0  0  0  0  0  0  0  0  0  0
  -23.8560  -10.4680   21.0510 C   0  0  0  0  0  0  0  0  0  0  0  0
  -24.3040   -9.4940   21.9700 C   0  0  0  0  0  3  0  0  0  0  0  0
  -23.5790   -8.2970   22.1560 C   0  0  0  0  0  3  0  0  0  0  0  0
  -22.3920   -8.0650   21.4220 C   0  0  0  0  0  0  0  0  0  0  0  0
  -21.9620   -9.0270   20.4910 C   0  0  0  0  0  3  0  0  0  0  0  0
  -22.6880  -10.2150   20.3040 C   0  0  0  0  0  3  0  0  0  0  0  0
  -21.6370   -6.9210   21.5170 O   0  0  0  0  0  0  0  0  0  0  0  0
  -21.6230   -6.1620   22.6600 C   0  0  0  0  0  0  0  0  0  0  0  0
  -21.2490   -6.7030   23.9090 C   0  0  0  0  0  3  0  0  0  0  0  0
  -21.1820   -5.8710   25.0460 C   0  0  0  0  0  3  0  0  0  0  0  0
  -21.4760   -4.4990   24.9330 C   0  0  0  0  0  0  0  0  0  0  0  0
  -21.8430   -3.9570   23.6880 C   0  0  0  0  0  3  0  0  0  0  0  0
  -21.9120   -4.7860   22.5540 C   0  0  0  0  0  0  0  0  0  0  0  0
  -22.2450   -4.2550   21.3530 F   0  0  0  0  0  0  0  0  0  0  0  0
  -21.4040   -3.6980   26.0210 F   0  0  0  0  0  0  0  0  0  0  0  0
  -22.7100  -13.5540   21.1580 C   0  0  0  0  0  0  0  0  0  0  0  0
  -21.9870  -12.8610   22.0310 N   0  0  0  0  0  0  0  0  0  0  0  0
  -22.2690  -14.5760   20.6330 O   0  0  0  0  0  0  0  0  0  0  0  0
  -22.3580  -12.0360   22.4770 H   0  0  0  0  0  0  0  0  0  0  0  0
  -21.0490  -13.1600   22.2560 H   0  0  0  0  0  0  0  0  0  0  0  0
  -25.3190  -15.2300   20.3220 N   0  0  0  0  0  0  0  0  0  0  0  0
  -24.5440  -15.8760   20.4320 H   0  0  0  0  0  0  0  0  0  0  0  0
  -26.1490  -15.6710   19.9480 H   0  0  0  0  0  0  0  0  0  0  0  0
  -28.0700  -24.3570   20.5690 C   0  0  0  0  0  2  0  0  0  0  0  0
  -28.2440  -25.9400   20.2190 O   0  0  0  0  0  0  0  0  0  0  0  0
  -24.6360  -31.8510   23.1910 C   0  0  0  0  0  0  0  0  0  0  0  0
  -27.2030  -26.9910   20.2220 C   0  0  0  0  0  0  0  0  0  0  0  0
  -23.4440  -30.4430   21.5620 C   0  0  0  0  0  3  0  0  0  0  0  0
  -24.8930  -28.8310   20.1590 C   0  0  0  0  0  0  0  0  0  0  0  0
  -26.0070  -30.6690   21.4100 C   0  0  0  0  0  2  0  0  0  0  0  0
  -26.0800  -29.2570   20.7700 C   0  0  0  0  0  0  0  0  0  0  0  0
  -27.2330  -28.3580   20.7710 C   0  0  0  0  0  3  0  0  0  0  0  0
  -25.9840  -26.6990   19.5730 C   0  0  0  0  0  3  0  0  0  0  0  0
  -24.8670  -27.5710   19.5410 C   0  0  0  0  0  3  0  0  0  0  0  0
  -23.6730  -29.7490   20.1920 C   0  0  0  0  0  2  0  0  0  0  0  0
  -24.7180  -31.0140   22.1080 N   0  0  0  0  0  0  0  0  0  0  0  0
  -23.5480  -32.1440   23.7100 O   0  0  0  0  0  0  0  0  0  0  0  0
  -22.7520  -29.4530   22.5340 C   0  0  0  0  0  0  0  0  0  0  0  0
  -21.4230  -29.2840   22.4070 N   0  0  0  0  0  0  0  0  0  0  0  0
  -23.4180  -28.8350   23.3680 O   0  0  0  0  0  0  0  0  0  0  0  0
  -20.9400  -29.8330   21.7090 H   0  0  0  0  0  0  0  0  0  0  0  0
  -18.0440  -28.0620   22.9000 C   0  0  0  0  0  0  0  0  0  0  0  0
  -20.5990  -28.3520   23.1830 C   0  0  0  0  0  3  0  0  0  0  0  0
  -20.7170  -26.9120   22.6300 C   0  0  0  0  0  2  0  0  0  0  0  0
  -19.6270  -26.5660   21.6110 C   0  0  0  0  0  2  0  0  0  0  0  0
  -18.2380  -26.7060   22.2410 C   0  0  0  0  0  2  0  0  0  0  0  0
  -19.1530  -28.8410   23.3270 C   0  0  0  0  0  0  0  0  0  0  0  0
  -18.9150  -30.1070   23.9070 C   0  0  0  0  0  3  0  0  0  0  0  0
  -17.6030  -30.5950   24.0600 C   0  0  0  0  0  3  0  0  0  0  0  0
  -16.5100  -29.8140   23.6450 C   0  0  0  0  0  3  0  0  0  0  0  0
  -16.7310  -28.5490   23.0720 C   0  0  0  0  0  3  0  0  0  0  0  0
  -25.9090  -32.4980   23.8200 C   0  0  0  0  0  3  0  0  0  0  0  0
  -26.4210  -31.7340   25.1030 C   0  0  1  0  0  0  0  0  0  0  0  0
  -25.3240  -31.5030   26.1710 C   0  0  0  0  0  1  0  0  0  0  0  0
  -27.0060  -30.3530   24.7280 C   0  0  0  0  0  1  0  0  0  0  0  0
  -27.5690  -32.5320   25.7650 C   0  0  0  0  0  1  0  0  0  0  0  0
  -25.5860  -33.8960   24.1570 N   0  0  0  0  0  0  0  0  0  0  0  0
  -25.9120  -34.9590   23.4110 C   0  0  0  0  0  0  0  0  0  0  0  0
  -26.5790  -34.8680   22.3770 O   0  0  0  0  0  0  0  0  0  0  0  0
  -24.9920  -34.0390   24.9610 H   0  0  0  0  0  0  0  0  0  0  0  0
  -24.1740  -36.7540   23.0900 C   0  0  0  0  0  1  0  0  0  0  0  0
  -25.4240  -36.3440   23.8850 C   0  0  0  0  0  3  0  0  0  0  0  0
  -27.5630  -37.2340   24.7020 C   0  0  0  0  0  1  0  0  0  0  0  0
  -26.4510  -37.4030   23.7700 N   0  0  0  0  0  0  0  0  0  0  0  0
  -26.0430  -38.3200   23.9280 H   0  0  0  0  0  0  0  0  0  0  0  0
  1 43  1  0
  1  2  1  0
  3  4  1  0
  3  2  1  0
  5 13  1  0
  6 11  1  0
  7  8  1  0
  7  6  1  0
  9  8  1  0
  9 18  1  0
  9 10  1  0
 11  5  1  0
 11 10  1  0
 12  5  2  0
 13 14  1  0
 13  4  1  0
 15 16  2  0
 16 35  1  0
 17 16  1  0
 17 20  1  0
 18 15  1  0
 18 19  1  0
 19 17  2  0
 20 21  1  0
 21 22  2  0
 23 26  1  0
 23 22  1  0
 24 23  2  0
 25 24  1  0
 25 20  2  0
 26 27  1  0
 27 28  1  0
 28 29  2  0
 30 29  1  0
 30 34  1  0
 31 30  2  0
 32 27  2  0
 32 31  1  0
 33 32  1  0
 35 36  1  0
 36 39  1  0
 36 38  1  0
 37 35  2  0
 40 41  1  0
 40 15  1  0
 42 40  1  0
 44 46  1  0
 44 43  1  0
 45 56  2  0
 46 51  1  0
 47 55  1  0
 47 57  1  0
 48 54  1  0
 48 50  1  0
 49 55  1  0
 50 51  2  0
 50 49  1  0
 52 46  2  0
 53 52  1  0
 53 48  2  0
 54 47  1  0
 55 45  1  0
 57 59  2  0
 58 57  1  0
 60 58  1  0
 61 70  2  0
 61 66  1  0
 62 58  1  0
 62 66  1  0
 63 62  1  0
 64 65  1  0
 64 63  1  0
 65 61  1  0
 66 67  2  0
 67 68  1  0
 69 68  2  0
 70 69  1  0
 71 45  1  0
 71 76  1  0
 71 72  1  0
 72 75  1  1
 72 73  1  0
 74 72  1  0
 76 79  1  0
 77 81  1  0
 77 76  1  0
 78 77  2  0
 81 80  1  0
 83 81  1  0
 83 84  1  0
 83 82  1  0
M  ISO  4   5 100  13 100  43 101  44 101
M  END
>  <TORSDO>  (16) 
F 20

>  <SCORE>  (16) 
-15.593

>  <name>  (16) 
15

>  <ligand_id>  (16) 
15

>  <original_smiles>  (16) 
[H]c1c([H])c([H])c2c(c1[H])C([H])([H])C([H])([H])C([H])([H])C2([H])N([H])C(=O)C1([H])N(C(=O)C([H])(N([H])C(=O)C([H])(N([H])C([H])([H])[H])C([H])([H])[H])C(C([H])([H])[H])(C([H])([H])[H])C([H])([H])[H])C([H])([H])c2c([H])c(OC([H])([H])C([H])([H])C([H])([H])C([H])([H])C([H])([H])N([H])C(=O)N3C([H])([H])C([H])([H])C([H])([H])C([H])(n4nc(-c5c([H])c([H])c(Oc6c([H])c([H])c(F)c([H])c6F)c([H])c5[H])c(C(=O)N([H])[H])c4N([H])[H])C3([H])[H])c([H])c([H])c2C1([H])[H]

>  <smiles>  (16) 
[H]c1c([H])c([H])c2c(c1[H])C([H])([H])C([H])([H])C([H])([H])C2([H])N([H])C(=O)C1([H])N(C(=O)C([H])(N([H])C(=O)C([H])(N([H])C([H])([H])[H])C([H])([H])[H])C(C([H])([H])[H])(C([H])([H])[H])C([H])([H])[H])C([H])([H])c2c([H])c(OC([H])([H])C([H])([H])C([H])([H])C([H])([H])C([H])([H])N([H])C(=O)N3C([H])([H])C([H])([H])C([H])([H])C([H])(n4nc(-c5c([H])c([H])c(Oc6c([H])c([H])c(F)c([H])c6F)c([H])c5[H])c(C(=O)N([H])[H])c4N([H])[H])C3([H])[H])c([H])c([H])c2C1([H])[H]

$$$$
16:0:0
     RDKit          3D

 88 96  0  0  1  0  0  0  0  0999 V2000
  -28.3370  -20.3360   20.8350 C   0  0  0  0  0  3  0  0  0  0  0  0
  -27.9140  -21.7620   20.8110 C   0  0  0  0  0  3  0  0  0  0  0  0
  -30.1580  -20.9160   19.5550 C   0  0  0  0  0  3  0  0  0  0  0  0
  -29.5080  -19.7720   20.1890 C   0  0  0  0  0  0  0  0  0  0  0  0
  -28.5640  -22.9050   20.1670 C   0  0  0  0  0  0  0  0  0  0  0  0
  -29.7390  -22.3440   19.5230 C   0  0  0  0  0  0  0  0  0  0  0  0
  -30.5960  -23.2960   18.7130 C   0  0  0  0  0  1  0  0  0  0  0  0
  -30.2220  -18.1860   20.2100 C   0  0  0  0  0  2  0  0  0  0  0  0
  -30.5080  -15.3400   20.1860 C   0  0  0  0  0  0  0  0  0  0  0  0
  -30.4290  -12.9240   19.2830 C   0  0  0  0  0  2  0  0  0  0  0  0
  -29.4750  -12.7580   18.0750 C   0  0  0  0  0  2  0  0  0  0  0  0
  -28.0380  -12.4910   18.5540 C   0  0  0  0  0  2  0  0  0  0  0  0
  -27.6230  -13.4370   19.7090 C   0  0  0  0  0  3  0  0  0  0  0  0
  -28.7030  -13.5610   20.8040 C   0  0  0  0  0  2  0  0  0  0  0  0
  -29.9210  -14.0510   20.1410 N   0  0  0  0  0  0  0  0  0  0  0  0
  -31.7160  -15.3410   19.9190 O   0  0  0  0  0  0  0  0  0  0  0  0
  -29.7760  -16.6080   20.3190 N   0  0  0  0  0  0  0  0  0  0  0  0
  -28.7890  -16.4800   20.4880 H   0  0  0  0  0  0  0  0  0  0  0  0
  -25.2760  -13.9750   20.5520 C   0  0  0  0  0  0  0  0  0  0  0  0
  -24.2270  -13.1880   20.9340 C   0  0  0  0  0  0  0  0  0  0  0  0
  -24.6940  -11.8390   20.8540 C   0  0  0  0  0  0  0  0  0  0  0  0
  -26.3120  -13.1080   20.2530 N   0  0  0  0  0  0  0  0  0  0  0  0
  -25.9750  -11.8160   20.5030 N   0  0  0  0  0  0  0  0  0  0  0  0
  -23.9740  -10.5710   21.0340 C   0  0  0  0  0  0  0  0  0  0  0  0
  -24.4140   -9.5940   21.9520 C   0  0  0  0  0  3  0  0  0  0  0  0
  -23.6910   -8.3920   22.1200 C   0  0  0  0  0  3  0  0  0  0  0  0
  -22.5120   -8.1610   21.3710 C   0  0  0  0  0  0  0  0  0  0  0  0
  -22.0910   -9.1290   20.4430 C   0  0  0  0  0  3  0  0  0  0  0  0
  -22.8150  -10.3200   20.2700 C   0  0  0  0  0  3  0  0  0  0  0  0
  -21.7610   -7.0140   21.4510 O   0  0  0  0  0  0  0  0  0  0  0  0
  -21.6920   -6.2770   22.6060 C   0  0  0  0  0  0  0  0  0  0  0  0
  -21.1950   -6.8220   23.8100 C   0  0  0  0  0  3  0  0  0  0  0  0
  -21.0770   -6.0090   24.9540 C   0  0  0  0  0  3  0  0  0  0  0  0
  -21.4460   -4.6530   24.8970 C   0  0  0  0  0  0  0  0  0  0  0  0
  -21.9360   -4.1070   23.6980 C   0  0  0  0  0  3  0  0  0  0  0  0
  -22.0560   -4.9170   22.5550 C   0  0  0  0  0  0  0  0  0  0  0  0
  -22.5090   -4.3800   21.3960 F   0  0  0  0  0  0  0  0  0  0  0  0
  -21.3260   -3.8690   25.9950 F   0  0  0  0  0  0  0  0  0  0  0  0
  -22.8380  -13.6560   21.2570 C   0  0  0  0  0  0  0  0  0  0  0  0
  -22.1380  -12.9410   22.1300 N   0  0  0  0  0  0  0  0  0  0  0  0
  -22.3850  -14.6910   20.7690 O   0  0  0  0  0  0  0  0  0  0  0  0
  -22.5200  -12.1040   22.5460 H   0  0  0  0  0  0  0  0  0  0  0  0
  -21.2070  -13.2370   22.3890 H   0  0  0  0  0  0  0  0  0  0  0  0
  -25.4300  -15.3510   20.4030 N   0  0  0  0  0  0  0  0  0  0  0  0
  -24.6610  -15.9960   20.5500 H   0  0  0  0  0  0  0  0  0  0  0  0
  -26.2530  -15.7990   20.0250 H   0  0  0  0  0  0  0  0  0  0  0  0
  -27.8180  -24.4610   19.9650 C   0  0  0  0  0  2  0  0  0  0  0  0
  -28.1980  -26.0190   20.2290 O   0  0  0  0  0  0  0  0  0  0  0  0
  -24.6420  -31.9210   23.2450 C   0  0  0  0  0  0  0  0  0  0  0  0
  -27.2010  -27.1170   20.1640 C   0  0  0  0  0  0  0  0  0  0  0  0
  -23.4460  -30.5430   21.5930 C   0  0  0  0  0  3  0  0  0  0  0  0
  -24.8960  -28.9690   20.1470 C   0  0  0  0  0  0  0  0  0  0  0  0
  -26.0110  -30.7710   21.4430 C   0  0  0  0  0  2  0  0  0  0  0  0
  -26.0840  -29.3740   20.7700 C   0  0  0  0  0  0  0  0  0  0  0  0
  -27.2330  -28.4680   20.7580 C   0  0  0  0  0  3  0  0  0  0  0  0
  -25.9850  -26.8620   19.4910 C   0  0  0  0  0  3  0  0  0  0  0  0
  -24.8690  -27.7320   19.4870 C   0  0  0  0  0  3  0  0  0  0  0  0
  -23.6740  -29.8800   20.2080 C   0  0  0  0  0  2  0  0  0  0  0  0
  -24.7210  -31.1030   22.1470 N   0  0  0  0  0  0  0  0  0  0  0  0
  -23.5540  -32.2020   23.7730 O   0  0  0  0  0  0  0  0  0  0  0  0
  -22.7600  -29.5310   22.5470 C   0  0  0  0  0  0  0  0  0  0  0  0
  -21.4360  -29.3350   22.3960 N   0  0  0  0  0  0  0  0  0  0  0  0
  -23.4230  -28.9230   23.3910 O   0  0  0  0  0  0  0  0  0  0  0  0
  -20.9540  -29.8770   21.6930 H   0  0  0  0  0  0  0  0  0  0  0  0
  -18.0720  -28.0550   22.8430 C   0  0  0  0  0  0  0  0  0  0  0  0
  -20.6190  -28.3820   23.1550 C   0  0  0  0  0  3  0  0  0  0  0  0
  -20.7650  -26.9490   22.5900 C   0  0  0  0  0  2  0  0  0  0  0  0
  -19.6910  -26.5970   21.5560 C   0  0  0  0  0  2  0  0  0  0  0  0
  -18.2940  -26.7090   22.1730 C   0  0  0  0  0  2  0  0  0  0  0  0
  -19.1630  -28.8470   23.2890 C   0  0  0  0  0  0  0  0  0  0  0  0
  -18.8990  -30.1030   23.8770 C   0  0  0  0  0  3  0  0  0  0  0  0
  -17.5780  -30.5690   24.0220 C   0  0  0  0  0  3  0  0  0  0  0  0
  -16.5030  -29.7740   23.5890 C   0  0  0  0  0  3  0  0  0  0  0  0
  -16.7490  -28.5200   23.0060 C   0  0  0  0  0  3  0  0  0  0  0  0
  -25.9150  -32.5580   23.8810 C   0  0  0  0  0  3  0  0  0  0  0  0
  -25.6000  -33.9560   24.2190 N   0  0  0  0  0  0  0  0  0  0  0  0
  -25.9030  -35.0160   23.4580 C   0  0  0  0  0  0  0  0  0  0  0  0
  -26.5390  -34.9200   22.4050 O   0  0  0  0  0  0  0  0  0  0  0  0
  -25.0290  -34.1040   25.0390 H   0  0  0  0  0  0  0  0  0  0  0  0
  -24.1430  -36.7980   23.1880 C   0  0  0  0  0  1  0  0  0  0  0  0
  -25.4250  -36.4020   23.9370 C   0  0  0  0  0  3  0  0  0  0  0  0
  -27.5820  -37.3200   24.6740 C   0  0  0  0  0  1  0  0  0  0  0  0
  -26.4410  -37.4650   23.7740 N   0  0  0  0  0  0  0  0  0  0  0  0
  -26.0310  -38.3840   23.9270 H   0  0  0  0  0  0  0  0  0  0  0  0
  -26.4160  -31.7870   25.1650 C   0  0  1  0  0  0  0  0  0  0  0  0
  -25.3100  -31.5510   26.2220 C   0  0  0  0  0  1  0  0  0  0  0  0
  -27.0030  -30.4070   24.7900 C   0  0  0  0  0  1  0  0  0  0  0  0
  -27.5590  -32.5820   25.8390 C   0  0  0  0  0  1  0  0  0  0  0  0
  2  1  1  0
  3  4  1  0
  4  8  1  0
  4  1  2  0
  5  2  2  0
  6  3  2  0
  6  5  1  0
  7  6  1  0
  8 17  1  0
  9 17  1  0
 10 15  1  0
 11 12  1  0
 11 10  1  0
 13 12  1  0
 13 22  1  0
 13 14  1  0
 15  9  1  0
 15 14  1  0
 16  9  2  0
 17 18  1  0
 19 20  2  0
 20 39  1  0
 21 20  1  0
 21 24  1  0
 22 23  1  0
 22 19  1  0
 23 21  2  0
 24 25  1  0
 25 26  2  0
 27 30  1  0
 27 26  1  0
 28 27  2  0
 29 28  1  0
 29 24  2  0
 30 31  1  0
 31 32  1  0
 32 33  2  0
 34 33  1  0
 34 38  1  0
 35 34  2  0
 36 31  2  0
 36 35  1  0
 37 36  1  0
 39 40  1  0
 40 43  1  0
 40 42  1  0
 41 39  2  0
 44 45  1  0
 44 19  1  0
 46 44  1  0
 47  5  1  0
 47 48  1  0
 49 60  2  0
 50 48  1  0
 50 55  1  0
 51 59  1  0
 51 61  1  0
 52 58  1  0
 52 54  1  0
 53 59  1  0
 54 53  1  0
 55 54  2  0
 56 50  2  0
 57 56  1  0
 57 52  2  0
 58 51  1  0
 59 49  1  0
 61 63  2  0
 62 61  1  0
 64 62  1  0
 65 74  2  0
 65 70  1  0
 66 62  1  0
 66 70  1  0
 67 66  1  0
 68 69  1  0
 68 67  1  0
 69 65  1  0
 70 71  2  0
 71 72  1  0
 73 72  2  0
 74 73  1  0
 75 49  1  0
 75 76  1  0
 75 85  1  0
 76 79  1  0
 77 81  1  0
 77 76  1  0
 78 77  2  0
 81 80  1  0
 83 84  1  0
 83 81  1  0
 83 82  1  0
 85 88  1  1
 85 86  1  0
 87 85  1  0
M  ISO  4   9 100  17 100  47 101  48 101
M  END
>  <TORSDO>  (17) 
F 18

>  <SCORE>  (17) 
-15.793

>  <name>  (17) 
16

>  <ligand_id>  (17) 
16

>  <original_smiles>  (17) 
[H]c1c([H])c([H])c2c(c1[H])C([H])([H])C([H])([H])C([H])([H])C2([H])N([H])C(=O)C1([H])N(C(=O)C([H])(N([H])C(=O)C([H])(N([H])C([H])([H])[H])C([H])([H])[H])C(C([H])([H])[H])(C([H])([H])[H])C([H])([H])[H])C([H])([H])c2c([H])c(OC([H])([H])c3c([H])c([H])c(C([H])([H])N([H])C(=O)N4C([H])([H])C([H])([H])C([H])([H])C([H])(n5nc(-c6c([H])c([H])c(Oc7c([H])c([H])c(F)c([H])c7F)c([H])c6[H])c(C(=O)N([H])[H])c5N([H])[H])C4([H])[H])c([H])c3C([H])([H])[H])c([H])c([H])c2C1([H])[H]

>  <smiles>  (17) 
[H]c1c([H])c([H])c2c(c1[H])C([H])([H])C([H])([H])C([H])([H])C2([H])N([H])C(=O)C1([H])N(C(=O)C([H])(N([H])C(=O)C([H])(N([H])C([H])([H])[H])C([H])([H])[H])C(C([H])([H])[H])(C([H])([H])[H])C([H])([H])[H])C([H])([H])c2c([H])c(OC([H])([H])c3c([H])c([H])c(C([H])([H])N([H])C(=O)N4C([H])([H])C([H])([H])C([H])([H])C([H])(n5nc(-c6c([H])c([H])c(Oc7c([H])c([H])c(F)c([H])c7F)c([H])c6[H])c(C(=O)N([H])[H])c5N([H])[H])C4([H])[H])c([H])c3C([H])([H])[H])c([H])c([H])c2C1([H])[H]

$$$$
17:0:0
     RDKit          3D

 97105  0  0  1  0  0  0  0  0999 V2000
  -29.4740  -22.1830   21.6160 C   0  0  0  0  0  3  0  0  0  0  0  0
  -29.6170  -21.2180   20.5800 C   0  0  0  0  0  0  0  0  0  0  0  0
  -29.9190  -21.6660   22.7880 C   0  0  0  0  0  0  0  0  0  0  0  0
  -30.0890  -20.0370   21.1530 C   0  0  0  0  0  0  0  0  0  0  0  0
  -30.9830  -19.5160   23.5080 C   0  0  0  0  0  1  0  0  0  0  0  0
  -30.3440  -20.3620   22.5090 N   0  0  0  0  0  0  0  0  0  0  0  0
  -31.4530  -18.6710   19.4650 C   0  0  0  0  0  1  0  0  0  0  0  0
  -30.2950  -18.6230   20.4820 C   0  0  0  0  0  3  0  0  0  0  0  0
  -30.4610  -17.2780   21.3210 C   0  0  0  0  0  2  0  0  0  0  0  0
  -31.0350  -14.9340   20.3330 C   0  0  0  0  0  0  0  0  0  0  0  0
  -30.8520  -12.6300   19.3870 C   0  0  0  0  0  2  0  0  0  0  0  0
  -29.9430  -12.6420   18.1400 C   0  0  0  0  0  2  0  0  0  0  0  0
  -28.4620  -12.5140   18.5400 C   0  0  0  0  0  2  0  0  0  0  0  0
  -28.0660  -13.5010   19.6680 C   0  0  0  0  0  3  0  0  0  0  0  0
  -29.0780  -13.4220   20.8260 C   0  0  0  0  0  2  0  0  0  0  0  0
  -30.4050  -13.7220   20.2680 N   0  0  0  0  0  0  0  0  0  0  0  0
  -32.2200  -15.0770   20.0290 O   0  0  0  0  0  0  0  0  0  0  0  0
  -30.2090  -15.9810   20.6240 N   0  0  0  0  0  0  0  0  0  0  0  0
  -29.2360  -15.7320   20.5820 H   0  0  0  0  0  0  0  0  0  0  0  0
  -25.6920  -14.1930   20.3480 C   0  0  0  0  0  0  0  0  0  0  0  0
  -24.5920  -13.4540   20.7050 C   0  0  0  0  0  0  0  0  0  0  0  0
  -25.0130  -12.0910   20.6950 C   0  0  0  0  0  0  0  0  0  0  0  0
  -26.7060  -13.2730   20.1380 N   0  0  0  0  0  0  0  0  0  0  0  0
  -26.3070  -12.0090   20.4130 N   0  0  0  0  0  0  0  0  0  0  0  0
  -24.2470  -10.8530   20.8870 C   0  0  0  0  0  0  0  0  0  0  0  0
  -24.6650   -9.8500   21.7890 C   0  0  0  0  0  3  0  0  0  0  0  0
  -23.8930   -8.6820   21.9670 C   0  0  0  0  0  3  0  0  0  0  0  0
  -22.6920   -8.5080   21.2450 C   0  0  0  0  0  0  0  0  0  0  0  0
  -22.2940   -9.4950   20.3270 C   0  0  0  0  0  3  0  0  0  0  0  0
  -23.0670  -10.6560   20.1460 C   0  0  0  0  0  3  0  0  0  0  0  0
  -21.8950   -7.3920   21.3290 O   0  0  0  0  0  0  0  0  0  0  0  0
  -21.8320   -6.6400   22.4720 C   0  0  0  0  0  0  0  0  0  0  0  0
  -21.4160   -7.1920   23.7030 C   0  0  0  0  0  3  0  0  0  0  0  0
  -21.2970   -6.3680   24.8380 C   0  0  0  0  0  3  0  0  0  0  0  0
  -21.5880   -4.9930   24.7450 C   0  0  0  0  0  0  0  0  0  0  0  0
  -22.0010   -4.4420   23.5190 C   0  0  0  0  0  3  0  0  0  0  0  0
  -22.1190   -5.2630   22.3840 C   0  0  0  0  0  0  0  0  0  0  0  0
  -22.4950   -4.7240   21.2010 F   0  0  0  0  0  0  0  0  0  0  0  0
  -21.4650   -4.1980   25.8340 F   0  0  0  0  0  0  0  0  0  0  0  0
  -23.2110  -13.9800   20.9420 C   0  0  0  0  0  0  0  0  0  0  0  0
  -22.4620  -13.3440   21.8370 N   0  0  0  0  0  0  0  0  0  0  0  0
  -22.8020  -14.9850   20.3670 O   0  0  0  0  0  0  0  0  0  0  0  0
  -22.8160  -12.5270   22.3120 H   0  0  0  0  0  0  0  0  0  0  0  0
  -21.5340  -13.6820   22.0500 H   0  0  0  0  0  0  0  0  0  0  0  0
  -25.8990  -15.5520   20.1530 N   0  0  0  0  0  0  0  0  0  0  0  0
  -25.1280  -16.2110   20.1850 H   0  0  0  0  0  0  0  0  0  0  0  0
  -26.7380  -15.9490   19.7450 H   0  0  0  0  0  0  0  0  0  0  0  0
  -29.2910  -21.5420   19.1210 C   0  0  0  0  0  2  0  0  0  0  0  0
  -28.3080  -22.7180   18.8620 C   0  0  0  0  0  2  0  0  0  0  0  0
  -28.8310  -24.1920   18.9140 C   0  0  0  0  0  2  0  0  0  0  0  0
  -27.6480  -25.1990   18.8570 C   0  0  0  0  0  2  0  0  0  0  0  0
  -27.8800  -26.6120   19.1390 O   0  0  0  0  0  0  0  0  0  0  0  0
  -24.4230  -31.5440   23.0630 C   0  0  0  0  0  0  0  0  0  0  0  0
  -26.7380  -27.4010   19.2890 C   0  0  0  0  0  0  0  0  0  0  0  0
  -23.0690  -30.2940   21.4200 C   0  0  0  0  0  3  0  0  0  0  0  0
  -24.3740  -28.9300   19.7160 C   0  0  0  0  0  0  0  0  0  0  0  0
  -25.5740  -30.6820   21.0170 C   0  0  0  0  0  2  0  0  0  0  0  0
  -25.5940  -29.3790   20.2310 C   0  0  0  0  0  0  0  0  0  0  0  0
  -26.7810  -28.6260   20.0110 C   0  0  0  0  0  3  0  0  0  0  0  0
  -25.4870  -27.0070   18.7500 C   0  0  0  0  0  3  0  0  0  0  0  0
  -24.3160  -27.7500   18.9710 C   0  0  0  0  0  3  0  0  0  0  0  0
  -23.1430  -29.7680   19.9650 C   0  0  0  0  0  2  0  0  0  0  0  0
  -24.3810  -30.8450   21.8920 N   0  0  0  0  0  0  0  0  0  0  0  0
  -23.3980  -31.7510   23.7290 O   0  0  0  0  0  0  0  0  0  0  0  0
  -22.5060  -29.1770   22.3280 C   0  0  0  0  0  0  0  0  0  0  0  0
  -21.1980  -28.8980   22.2080 N   0  0  0  0  0  0  0  0  0  0  0  0
  -23.2480  -28.5600   23.0960 O   0  0  0  0  0  0  0  0  0  0  0  0
  -20.6500  -29.4480   21.5630 H   0  0  0  0  0  0  0  0  0  0  0  0
  -17.9680  -27.3290   22.6080 C   0  0  0  0  0  0  0  0  0  0  0  0
  -20.4750  -27.8600   22.9470 C   0  0  0  0  0  3  0  0  0  0  0  0
  -20.7480  -26.4590   22.3550 C   0  0  0  0  0  2  0  0  0  0  0  0
  -19.7160  -26.0360   21.3060 C   0  0  0  0  0  2  0  0  0  0  0  0
  -18.3090  -26.0200   21.9150 C   0  0  0  0  0  2  0  0  0  0  0  0
  -18.9870  -28.1990   23.0780 C   0  0  0  0  0  0  0  0  0  0  0  0
  -18.6190  -29.4150   23.6880 C   0  0  0  0  0  3  0  0  0  0  0  0
  -17.2650  -29.7690   23.8360 C   0  0  0  0  0  3  0  0  0  0  0  0
  -16.2590  -28.8970   23.3830 C   0  0  0  0  0  3  0  0  0  0  0  0
  -16.6120  -27.6800   22.7740 C   0  0  0  0  0  3  0  0  0  0  0  0
  -25.7540  -32.1370   23.6070 C   0  0  0  0  0  3  0  0  0  0  0  0
  -26.3770  -31.2800   24.7750 C   0  0  1  0  0  0  0  0  0  0  0  0
  -25.3850  -30.9810   25.9220 C   0  0  0  0  0  1  0  0  0  0  0  0
  -26.9020  -29.9240   24.2420 C   0  0  0  0  0  1  0  0  0  0  0  0
  -27.5890  -32.0270   25.3800 C   0  0  0  0  0  1  0  0  0  0  0  0
  -25.4850  -33.5130   24.0540 N   0  0  0  0  0  0  0  0  0  0  0  0
  -25.7700  -34.6100   23.3430 C   0  0  0  0  0  0  0  0  0  0  0  0
  -26.3600  -34.5740   22.2580 O   0  0  0  0  0  0  0  0  0  0  0  0
  -24.9620  -33.6270   24.9120 H   0  0  0  0  0  0  0  0  0  0  0  0
  -24.0400  -36.4340   23.2400 C   0  0  0  0  0  1  0  0  0  0  0  0
  -25.3320  -35.9670   23.9290 C   0  0  0  0  0  3  0  0  0  0  0  0
  -27.5200  -36.7880   24.6770 C   0  0  0  0  0  1  0  0  0  0  0  0
  -26.3630  -37.0200   23.8160 N   0  0  0  0  0  0  0  0  0  0  0  0
  -25.9760  -37.9330   24.0450 H   0  0  0  0  0  0  0  0  0  0  0  0
  -30.0640  -22.3410   24.1440 C   0  0  0  0  0  2  0  0  0  0  0  0
  -30.4630  -23.8470   24.1460 C   0  0  0  0  0  2  0  0  0  0  0  0
  -28.3860  -25.3610   24.3310 C   0  0  0  0  0  1  0  0  0  0  0  0
  -30.2960  -26.0400   22.8600 C   0  0  0  0  0  1  0  0  0  0  0  0
  -29.5150  -24.8380   23.4230 C   0  0  0  0  0  3  0  0  0  0  0  0
  1  3  2  0
  2  4  2  0
  2  1  1  0
  3 93  1  0
  4  6  1  0
  6  3  1  0
  6  5  1  0
  8  7  1  0
  8  4  1  0
  8  9  1  0
 10 18  1  0
 11 16  1  0
 12 13  1  0
 12 11  1  0
 14 13  1  0
 14 23  1  0
 14 15  1  0
 16 10  1  0
 16 15  1  0
 17 10  2  0
 18  9  1  0
 19 18  1  0
 20 21  2  0
 21 40  1  0
 22 21  1  0
 22 25  1  0
 23 20  1  0
 23 24  1  0
 24 22  2  0
 25 26  1  0
 26 27  2  0
 28 31  1  0
 28 27  1  0
 29 28  2  0
 30 29  1  0
 30 25  2  0
 31 32  1  0
 32 33  1  0
 33 34  2  0
 35 34  1  0
 35 39  1  0
 36 35  2  0
 37 32  2  0
 37 36  1  0
 38 37  1  0
 40 41  1  0
 41 44  1  0
 41 43  1  0
 42 40  2  0
 45 46  1  0
 45 20  1  0
 47 45  1  0
 48  2  1  0
 49 50  1  0
 49 48  1  0
 51 50  1  0
 51 52  1  0
 52 54  1  0
 53 64  2  0
 54 59  1  0
 55 63  1  0
 55 65  1  0
 56 62  1  0
 56 58  1  0
 57 63  1  0
 58 57  1  0
 59 58  2  0
 60 61  1  0
 60 54  2  0
 61 56  2  0
 62 55  1  0
 63 53  1  0
 65 67  2  0
 66 65  1  0
 68 66  1  0
 69 78  2  0
 69 74  1  0
 70 66  1  0
 70 74  1  0
 71 70  1  0
 72 73  1  0
 72 71  1  0
 73 69  1  0
 74 75  2  0
 75 76  1  0
 77 76  2  0
 78 77  1  0
 79 53  1  0
 79 84  1  0
 79 80  1  0
 80 83  1  1
 80 81  1  0
 82 80  1  0
 84 87  1  0
 85 89  1  0
 85 84  1  0
 86 85  2  0
 89 88  1  0
 91 89  1  0
 91 92  1  0
 91 90  1  0
 93 94  1  0
 96 97  1  0
 97 94  1  0
 97 95  1  0
M  ISO  4  10 100  18 100  51 101  52 101
M  END
>  <TORSDO>  (18) 
F 25

>  <SCORE>  (18) 
-9.835

>  <name>  (18) 
17

>  <ligand_id>  (18) 
17

>  <original_smiles>  (18) 
[H]c1c([H])c([H])c2c(c1[H])C([H])([H])C([H])([H])C([H])([H])C2([H])N([H])C(=O)C1([H])N(C(=O)C([H])(N([H])C(=O)C([H])(N([H])C([H])([H])[H])C([H])([H])[H])C(C([H])([H])[H])(C([H])([H])[H])C([H])([H])[H])C([H])([H])c2c([H])c(OC([H])([H])C([H])([H])C([H])([H])C([H])([H])c3c([H])c(C([H])([H])C([H])([H])C([H])(C([H])([H])[H])C([H])([H])[H])n(C([H])([H])[H])c3C([H])(C([H])([H])[H])C([H])([H])N([H])C(=O)N3C([H])([H])C([H])([H])C([H])([H])C([H])(n4nc(-c5c([H])c([H])c(Oc6c([H])c([H])c(F)c([H])c6F)c([H])c5[H])c(C(=O)N([H])[H])c4N([H])[H])C3([H])[H])c([H])c([H])c2C1([H])[H]

>  <smiles>  (18) 
[H]c1c([H])c([H])c2c(c1[H])C([H])([H])C([H])([H])C([H])([H])C2([H])N([H])C(=O)C1([H])N(C(=O)C([H])(N([H])C(=O)C([H])(N([H])C([H])([H])[H])C([H])([H])[H])C(C([H])([H])[H])(C([H])([H])[H])C([H])([H])[H])C([H])([H])c2c([H])c(OC([H])([H])C([H])([H])C([H])([H])C([H])([H])c3c([H])c(C([H])([H])C([H])([H])C([H])(C([H])([H])[H])C([H])([H])[H])n(C([H])([H])[H])c3C([H])(C([H])([H])[H])C([H])([H])N([H])C(=O)N3C([H])([H])C([H])([H])C([H])([H])C([H])(n4nc(-c5c([H])c([H])c(Oc6c([H])c([H])c(F)c([H])c6F)c([H])c5[H])c(C(=O)N([H])[H])c4N([H])[H])C3([H])[H])c([H])c([H])c2C1([H])[H]

$$$$
18:0:0
     RDKit          3D

 89 96  0  0  1  0  0  0  0  0999 V2000
  -27.1390  -22.1000   19.5300 C   0  0  0  0  0  1  0  0  0  0  0  0
  -28.6240  -22.4400   19.7920 C   0  0  0  0  0  3  0  0  0  0  0  0
  -30.5860  -21.6790   21.3020 C   0  0  0  0  0  1  0  0  0  0  0  0
  -29.2810  -21.2240   20.6140 C   0  0  0  0  0  3  0  0  0  0  0  0
  -29.5750  -19.8530   19.8300 C   0  0  0  0  0  2  0  0  0  0  0  0
  -29.5880  -18.3990   22.0230 C   0  0  0  0  0  1  0  0  0  0  0  0
  -29.3770  -18.4050   20.5010 C   0  0  0  0  0  3  0  0  0  0  0  0
  -30.2340  -17.2200   19.8590 C   0  0  0  0  0  2  0  0  0  0  0  0
  -30.7030  -14.6920   19.9940 C   0  0  0  0  0  0  0  0  0  0  0  0
  -30.4390  -12.4480   18.9720 C   0  0  0  0  0  2  0  0  0  0  0  0
  -29.4430  -12.5640   17.7940 C   0  0  0  0  0  2  0  0  0  0  0  0
  -27.9920  -12.4130   18.2900 C   0  0  0  0  0  2  0  0  0  0  0  0
  -27.6940  -13.2850   19.5380 C   0  0  0  0  0  3  0  0  0  0  0  0
  -28.7960  -13.1470   20.6090 C   0  0  0  0  0  2  0  0  0  0  0  0
  -30.0750  -13.4770   19.9660 N   0  0  0  0  0  0  0  0  0  0  0  0
  -31.8560  -14.8200   19.5750 O   0  0  0  0  0  0  0  0  0  0  0  0
  -29.9300  -15.7970   20.2600 N   0  0  0  0  0  0  0  0  0  0  0  0
  -28.9990  -15.6190   20.6070 H   0  0  0  0  0  0  0  0  0  0  0  0
  -25.3430  -13.8880   20.3730 C   0  0  0  0  0  0  0  0  0  0  0  0
  -24.2920  -13.1150   20.7890 C   0  0  0  0  0  0  0  0  0  0  0  0
  -24.7470  -11.7640   20.7290 C   0  0  0  0  0  0  0  0  0  0  0  0
  -26.3700  -13.0050   20.0840 N   0  0  0  0  0  0  0  0  0  0  0  0
  -26.0210  -11.7220   20.3590 N   0  0  0  0  0  0  0  0  0  0  0  0
  -24.0260  -10.5020   20.9490 C   0  0  0  0  0  0  0  0  0  0  0  0
  -24.4830   -9.5450   21.8820 C   0  0  0  0  0  3  0  0  0  0  0  0
  -23.7640   -8.3470   22.0870 C   0  0  0  0  0  3  0  0  0  0  0  0
  -22.5730   -8.1020   21.3620 C   0  0  0  0  0  0  0  0  0  0  0  0
  -22.1340   -9.0490   20.4190 C   0  0  0  0  0  3  0  0  0  0  0  0
  -22.8550  -10.2380   20.2130 C   0  0  0  0  0  3  0  0  0  0  0  0
  -21.8220   -6.9570   21.4770 O   0  0  0  0  0  0  0  0  0  0  0  0
  -21.7740   -6.2420   22.6460 C   0  0  0  0  0  0  0  0  0  0  0  0
  -21.3640   -6.8290   23.8630 C   0  0  0  0  0  3  0  0  0  0  0  0
  -21.2620   -6.0410   25.0260 C   0  0  0  0  0  3  0  0  0  0  0  0
  -21.5620   -4.6670   24.9740 C   0  0  0  0  0  0  0  0  0  0  0  0
  -21.9670   -4.0780   23.7610 C   0  0  0  0  0  3  0  0  0  0  0  0
  -22.0690   -4.8640   22.6010 C   0  0  0  0  0  0  0  0  0  0  0  0
  -22.4390   -4.2880   21.4320 F   0  0  0  0  0  0  0  0  0  0  0  0
  -21.4570   -3.9080   26.0910 F   0  0  0  0  0  0  0  0  0  0  0  0
  -22.9100  -13.5940   21.1290 C   0  0  0  0  0  0  0  0  0  0  0  0
  -22.2320  -12.8980   22.0320 N   0  0  0  0  0  0  0  0  0  0  0  0
  -22.4480  -14.6200   20.6310 O   0  0  0  0  0  0  0  0  0  0  0  0
  -22.6270  -12.0710   22.4550 H   0  0  0  0  0  0  0  0  0  0  0  0
  -21.3030  -13.1920   22.3030 H   0  0  0  0  0  0  0  0  0  0  0  0
  -25.5010  -15.2570   20.1920 N   0  0  0  0  0  0  0  0  0  0  0  0
  -24.7420  -15.9110   20.3510 H   0  0  0  0  0  0  0  0  0  0  0  0
  -26.3200  -15.6950   19.7920 H   0  0  0  0  0  0  0  0  0  0  0  0
  -28.7050  -23.9240   20.4060 C   0  0  0  0  0  3  0  0  0  0  0  0
  -28.4110  -25.1600   19.4490 C   0  0  0  0  0  3  0  0  0  0  0  0
  -28.3760  -26.5310   20.0100 O   0  0  0  0  0  0  0  0  0  0  0  0
  -24.6680  -31.8460   23.1590 C   0  0  0  0  0  0  0  0  0  0  0  0
  -27.2290  -27.3400   19.9920 C   0  0  0  0  0  0  0  0  0  0  0  0
  -23.4360  -30.4650   21.5280 C   0  0  0  0  0  3  0  0  0  0  0  0
  -24.8590  -28.9440   20.0550 C   0  0  0  0  0  0  0  0  0  0  0  0
  -25.9700  -30.7950   21.3000 C   0  0  0  0  0  2  0  0  0  0  0  0
  -26.0380  -29.4290   20.6320 C   0  0  0  0  0  0  0  0  0  0  0  0
  -27.2250  -28.6390   20.5900 C   0  0  0  0  0  3  0  0  0  0  0  0
  -26.0160  -26.9040   19.4070 C   0  0  0  0  0  3  0  0  0  0  0  0
  -24.8520  -27.6880   19.4360 C   0  0  0  0  0  3  0  0  0  0  0  0
  -23.6230  -29.8120   20.1360 C   0  0  0  0  0  2  0  0  0  0  0  0
  -24.7120  -31.0530   22.0520 N   0  0  0  0  0  0  0  0  0  0  0  0
  -23.5950  -32.1150   23.7170 O   0  0  0  0  0  0  0  0  0  0  0  0
  -22.7960  -29.4320   22.4870 C   0  0  0  0  0  0  0  0  0  0  0  0
  -21.4670  -29.2550   22.3860 N   0  0  0  0  0  0  0  0  0  0  0  0
  -23.4940  -28.7940   23.2810 O   0  0  0  0  0  0  0  0  0  0  0  0
  -20.9630  -29.8220   21.7180 H   0  0  0  0  0  0  0  0  0  0  0  0
  -18.1010  -28.0470   22.9320 C   0  0  0  0  0  0  0  0  0  0  0  0
  -20.6640  -28.3080   23.1600 C   0  0  0  0  0  3  0  0  0  0  0  0
  -20.7600  -26.8820   22.5680 C   0  0  0  0  0  2  0  0  0  0  0  0
  -19.6400  -26.5680   21.5700 C   0  0  0  0  0  2  0  0  0  0  0  0
  -18.2700  -26.7040   22.2390 C   0  0  0  0  0  2  0  0  0  0  0  0
  -19.2270  -28.8060   23.3500 C   0  0  0  0  0  0  0  0  0  0  0  0
  -19.0150  -30.0650   23.9560 C   0  0  0  0  0  3  0  0  0  0  0  0
  -17.7140  -30.5610   24.1470 C   0  0  0  0  0  3  0  0  0  0  0  0
  -16.6040  -29.7970   23.7480 C   0  0  0  0  0  3  0  0  0  0  0  0
  -16.7990  -28.5410   23.1450 C   0  0  0  0  0  3  0  0  0  0  0  0
  -25.9610  -32.4760   23.7640 C   0  0  0  0  0  3  0  0  0  0  0  0
  -26.5180  -31.6760   25.0040 C   0  0  1  0  0  0  0  0  0  0  0  0
  -25.4590  -31.4010   26.0970 C   0  0  0  0  0  1  0  0  0  0  0  0
  -27.1040  -30.3140   24.5640 C   0  0  0  0  0  1  0  0  0  0  0  0
  -27.6780  -32.4670   25.6550 C   0  0  0  0  0  1  0  0  0  0  0  0
  -25.6460  -33.8610   24.1390 N   0  0  0  0  0  0  0  0  0  0  0  0
  -25.9440  -34.9380   23.4000 C   0  0  0  0  0  0  0  0  0  0  0  0
  -26.5830  -34.8710   22.3470 O   0  0  0  0  0  0  0  0  0  0  0  0
  -25.0790  -33.9880   24.9640 H   0  0  0  0  0  0  0  0  0  0  0  0
  -24.1850  -36.7170   23.1490 C   0  0  0  0  0  1  0  0  0  0  0  0
  -25.4550  -36.3060   23.9100 C   0  0  0  0  0  3  0  0  0  0  0  0
  -27.6040  -37.1950   24.6950 C   0  0  0  0  0  1  0  0  0  0  0  0
  -26.4700  -37.3760   23.7930 N   0  0  0  0  0  0  0  0  0  0  0  0
  -26.0580  -38.2870   23.9800 H   0  0  0  0  0  0  0  0  0  0  0  0
  2  1  1  0
  2 47  1  0
  2  4  1  0
  4  3  1  0
  5  7  1  0
  5  4  1  0
  7  6  1  0
  8 17  1  0
  8  7  1  0
  9 17  1  0
 10 15  1  0
 11 12  1  0
 11 10  1  0
 13 12  1  0
 13 22  1  0
 13 14  1  0
 15  9  1  0
 15 14  1  0
 16  9  2  0
 17 18  1  0
 19 20  2  0
 20 39  1  0
 21 20  1  0
 21 24  1  0
 22 23  1  0
 22 19  1  0
 23 21  2  0
 24 25  1  0
 25 26  2  0
 27 30  1  0
 27 26  1  0
 28 27  2  0
 29 28  1  0
 29 24  2  0
 30 31  1  0
 31 32  1  0
 32 33  2  0
 34 33  1  0
 34 38  1  0
 35 34  2  0
 36 31  2  0
 36 35  1  0
 37 36  1  0
 39 40  1  0
 40 43  1  0
 40 42  1  0
 41 39  2  0
 44 45  1  0
 44 19  1  0
 46 44  1  0
 48 49  1  0
 48 47  2  0
 50 61  2  0
 51 49  1  0
 51 56  1  0
 52 60  1  0
 52 62  1  0
 53 59  1  0
 53 55  1  0
 54 60  1  0
 55 54  1  0
 56 55  2  0
 57 58  1  0
 57 51  2  0
 58 53  2  0
 59 52  1  0
 60 50  1  0
 62 64  2  0
 63 62  1  0
 65 63  1  0
 66 75  2  0
 66 71  1  0
 67 63  1  0
 67 71  1  0
 68 67  1  0
 69 70  1  0
 69 68  1  0
 70 66  1  0
 71 72  2  0
 72 73  1  0
 74 73  2  0
 75 74  1  0
 76 50  1  0
 76 81  1  0
 76 77  1  0
 77 80  1  1
 77 78  1  0
 79 77  1  0
 81 84  1  0
 82 86  1  0
 82 81  1  0
 83 82  2  0
 86 85  1  0
 88 86  1  0
 88 89  1  0
 88 87  1  0
M  ISO  4   9 100  17 100  48 101  49 101
M  END
>  <TORSDO>  (19) 
F 22

>  <SCORE>  (19) 
-12.044

>  <name>  (19) 
18

>  <ligand_id>  (19) 
18

>  <original_smiles>  (19) 
[H]c1c([H])c([H])c2c(c1[H])C([H])([H])C([H])([H])C([H])([H])C2([H])N([H])C(=O)C1([H])N(C(=O)C([H])(N([H])C(=O)C([H])(N([H])C([H])([H])[H])C([H])([H])[H])C(C([H])([H])[H])(C([H])([H])[H])C([H])([H])[H])C([H])([H])c2c([H])c(OC([H])([H])C([H])([H])C([H])(C([H])([H])[H])C([H])(C([H])([H])[H])C([H])([H])C([H])(C([H])([H])[H])C([H])([H])N([H])C(=O)N3C([H])([H])C([H])([H])C([H])([H])C([H])(n4nc(-c5c([H])c([H])c(Oc6c([H])c([H])c(F)c([H])c6F)c([H])c5[H])c(C(=O)N([H])[H])c4N([H])[H])C3([H])[H])c([H])c([H])c2C1([H])[H]

>  <smiles>  (19) 
[H]c1c([H])c([H])c2c(c1[H])C([H])([H])C([H])([H])C([H])([H])C2([H])N([H])C(=O)C1([H])N(C(=O)C([H])(N([H])C(=O)C([H])(N([H])C([H])([H])[H])C([H])([H])[H])C(C([H])([H])[H])(C([H])([H])[H])C([H])([H])[H])C([H])([H])c2c([H])c(OC([H])([H])C([H])([H])C([H])(C([H])([H])[H])C([H])(C([H])([H])[H])C([H])([H])C([H])(C([H])([H])[H])C([H])([H])N([H])C(=O)N3C([H])([H])C([H])([H])C([H])([H])C([H])(n4nc(-c5c([H])c([H])c(Oc6c([H])c([H])c(F)c([H])c6F)c([H])c5[H])c(C(=O)N([H])[H])c4N([H])[H])C3([H])[H])c([H])c([H])c2C1([H])[H]

$$$$
19:0:0
     RDKit          3D

 93101  0  0  1  0  0  0  0  0999 V2000
  -28.8710  -23.2650   21.2160 C   0  0  0  0  0  3  0  0  0  0  0  0
  -29.9550  -22.4250   19.2250 C   0  0  0  0  0  3  0  0  0  0  0  0
  -29.3120  -23.5800   19.9240 C   0  0  0  0  0  0  0  0  0  0  0  0
  -28.9340  -21.9510   21.7430 C   0  0  0  0  0  0  0  0  0  0  0  0
  -30.0920  -21.0240   19.7300 C   0  0  0  0  0  0  0  0  0  0  0  0
  -29.4520  -20.8400   20.9990 C   0  0  0  0  0  0  0  0  0  0  0  0
  -28.3460  -21.7700   23.1370 C   0  0  0  0  0  1  0  0  0  0  0  0
  -30.6440  -19.6780   18.8940 C   0  0  0  0  0  2  0  0  0  0  0  0
  -31.6600  -18.3990   19.4040 C   0  0  0  0  0  2  0  0  0  0  0  0
  -31.9830  -15.6280   19.5840 C   0  0  0  0  0  0  0  0  0  0  0  0
  -31.7860  -13.1660   18.9790 C   0  0  0  0  0  2  0  0  0  0  0  0
  -30.8750  -12.9690   17.7440 C   0  0  0  0  0  2  0  0  0  0  0  0
  -29.3950  -12.8810   18.1620 C   0  0  0  0  0  2  0  0  0  0  0  0
  -29.0050  -13.9770   19.1880 C   0  0  0  0  0  3  0  0  0  0  0  0
  -30.0390  -14.1190   20.3240 C   0  0  0  0  0  2  0  0  0  0  0  0
  -31.3320  -14.3970   19.6870 N   0  0  0  0  0  0  0  0  0  0  0  0
  -33.2010  -15.5960   19.3720 O   0  0  0  0  0  0  0  0  0  0  0  0
  -31.2560  -16.8570   19.5130 N   0  0  0  0  0  0  0  0  0  0  0  0
  -30.2620  -16.7160   19.6150 H   0  0  0  0  0  0  0  0  0  0  0  0
  -26.6670  -14.7710   19.8600 C   0  0  0  0  0  0  0  0  0  0  0  0
  -25.5460  -14.0980   20.2630 C   0  0  0  0  0  0  0  0  0  0  0  0
  -25.9120  -12.7190   20.3210 C   0  0  0  0  0  0  0  0  0  0  0  0
  -27.6460  -13.8070   19.6880 N   0  0  0  0  0  0  0  0  0  0  0  0
  -27.2010  -12.5710   20.0330 N   0  0  0  0  0  0  0  0  0  0  0  0
  -25.0950  -11.5250   20.5770 C   0  0  0  0  0  0  0  0  0  0  0  0
  -25.4360  -10.5950   21.5820 C   0  0  0  0  0  3  0  0  0  0  0  0
  -24.6230   -9.4680   21.8220 C   0  0  0  0  0  3  0  0  0  0  0  0
  -23.4500   -9.2630   21.0570 C   0  0  0  0  0  0  0  0  0  0  0  0
  -23.1270  -10.1780   20.0400 C   0  0  0  0  0  3  0  0  0  0  0  0
  -23.9410  -11.2980   19.7990 C   0  0  0  0  0  3  0  0  0  0  0  0
  -22.6120   -8.1850   21.2020 O   0  0  0  0  0  0  0  0  0  0  0  0
  -22.4050   -7.5940   22.4240 C   0  0  0  0  0  0  0  0  0  0  0  0
  -21.9600   -8.3310   23.5430 C   0  0  0  0  0  3  0  0  0  0  0  0
  -21.6940   -7.6720   24.7590 C   0  0  0  0  0  3  0  0  0  0  0  0
  -21.8610   -6.2770   24.8560 C   0  0  0  0  0  0  0  0  0  0  0  0
  -22.2990   -5.5410   23.7410 C   0  0  0  0  0  3  0  0  0  0  0  0
  -22.5670   -6.1980   22.5270 C   0  0  0  0  0  0  0  0  0  0  0  0
  -22.9670   -5.4800   21.4500 F   0  0  0  0  0  0  0  0  0  0  0  0
  -21.5990   -5.6430   26.0220 F   0  0  0  0  0  0  0  0  0  0  0  0
  -24.1850  -14.6910   20.4780 C   0  0  0  0  0  0  0  0  0  0  0  0
  -23.4070  -14.1200   21.3910 N   0  0  0  0  0  0  0  0  0  0  0  0
  -23.8220  -15.6980   19.8710 O   0  0  0  0  0  0  0  0  0  0  0  0
  -23.7140  -13.3080   21.9040 H   0  0  0  0  0  0  0  0  0  0  0  0
  -22.4910  -14.5030   21.5800 H   0  0  0  0  0  0  0  0  0  0  0  0
  -26.9290  -16.1130   19.5970 N   0  0  0  0  0  0  0  0  0  0  0  0
  -26.2030  -16.8180   19.6520 H   0  0  0  0  0  0  0  0  0  0  0  0
  -27.7880  -16.4630   19.1960 H   0  0  0  0  0  0  0  0  0  0  0  0
  -29.1790  -19.4220   21.5300 C   0  0  0  0  0  2  0  0  0  0  0  0
  -27.9630  -19.0140   19.2550 C   0  0  0  0  0  1  0  0  0  0  0  0
  -28.3410  -17.1100   20.8600 C   0  0  0  0  0  1  0  0  0  0  0  0
  -28.1020  -18.6240   20.7390 C   0  0  0  0  0  3  0  0  0  0  0  0
  -28.9540  -25.0950   19.3470 C   0  0  0  0  0  2  0  0  0  0  0  0
  -28.7550  -26.4190   20.1720 O   0  0  0  0  0  0  0  0  0  0  0  0
  -24.7660  -31.8260   23.2340 C   0  0  0  0  0  0  0  0  0  0  0  0
  -27.6560  -27.3610   20.0700 C   0  0  0  0  0  0  0  0  0  0  0  0
  -23.6830  -30.4480   21.5030 C   0  0  0  0  0  3  0  0  0  0  0  0
  -25.2480  -29.0120   20.0510 C   0  0  0  0  0  0  0  0  0  0  0  0
  -26.2270  -30.8360   21.4260 C   0  0  0  0  0  2  0  0  0  0  0  0
  -26.3870  -29.4760   20.7170 C   0  0  0  0  0  0  0  0  0  0  0  0
  -27.5860  -28.6640   20.7170 C   0  0  0  0  0  3  0  0  0  0  0  0
  -26.4870  -27.0150   19.3540 C   0  0  0  0  0  3  0  0  0  0  0  0
  -25.3130  -27.7970   19.3540 C   0  0  0  0  0  3  0  0  0  0  0  0
  -23.9760  -29.8460   20.1030 C   0  0  0  0  0  2  0  0  0  0  0  0
  -24.9100  -31.0580   22.1100 N   0  0  0  0  0  0  0  0  0  0  0  0
  -23.6530  -32.0340   23.7420 O   0  0  0  0  0  0  0  0  0  0  0  0
  -23.0310  -29.3660   22.4000 C   0  0  0  0  0  0  0  0  0  0  0  0
  -21.7140  -29.1450   22.2400 N   0  0  0  0  0  0  0  0  0  0  0  0
  -23.7140  -28.7300   23.2080 O   0  0  0  0  0  0  0  0  0  0  0  0
  -21.2160  -29.7150   21.5690 H   0  0  0  0  0  0  0  0  0  0  0  0
  -18.3750  -27.7920   22.6260 C   0  0  0  0  0  0  0  0  0  0  0  0
  -20.9180  -28.1390   22.9480 C   0  0  0  0  0  3  0  0  0  0  0  0
  -21.0840  -26.7430   22.3030 C   0  0  0  0  0  2  0  0  0  0  0  0
  -20.0110  -26.4320   21.2560 C   0  0  0  0  0  2  0  0  0  0  0  0
  -18.6160  -26.4880   21.8840 C   0  0  0  0  0  2  0  0  0  0  0  0
  -19.4560  -28.5740   23.1130 C   0  0  0  0  0  0  0  0  0  0  0  0
  -19.1770  -29.7940   23.7680 C   0  0  0  0  0  3  0  0  0  0  0  0
  -17.8490  -30.2320   23.9390 C   0  0  0  0  0  3  0  0  0  0  0  0
  -16.7830  -29.4460   23.4680 C   0  0  0  0  0  3  0  0  0  0  0  0
  -17.0470  -28.2260   22.8190 C   0  0  0  0  0  3  0  0  0  0  0  0
  -25.9920  -32.4990   23.9260 C   0  0  0  0  0  3  0  0  0  0  0  0
  -25.6070  -33.8740   24.2860 N   0  0  0  0  0  0  0  0  0  0  0  0
  -25.9280  -34.9670   23.5820 C   0  0  0  0  0  0  0  0  0  0  0  0
  -26.6450  -34.9270   22.5790 O   0  0  0  0  0  0  0  0  0  0  0  0
  -24.9750  -33.9750   25.0660 H   0  0  0  0  0  0  0  0  0  0  0  0
  -24.1510  -36.7110   23.2120 C   0  0  0  0  0  1  0  0  0  0  0  0
  -25.3680  -36.3200   24.0670 C   0  0  0  0  0  3  0  0  0  0  0  0
  -27.4320  -37.2470   25.0200 C   0  0  0  0  0  1  0  0  0  0  0  0
  -26.3630  -37.4140   24.0410 N   0  0  0  0  0  0  0  0  0  0  0  0
  -25.9160  -38.3120   24.2090 H   0  0  0  0  0  0  0  0  0  0  0  0
  -26.4890  -31.7150   25.2030 C   0  0  1  0  0  0  0  0  0  0  0  0
  -25.3600  -31.3740   26.2030 C   0  0  0  0  0  1  0  0  0  0  0  0
  -27.1740  -30.3900   24.8020 C   0  0  0  0  0  1  0  0  0  0  0  0
  -27.5530  -32.5530   25.9500 C   0  0  0  0  0  1  0  0  0  0  0  0
  1  4  1  0
  2  5  2  0
  2  3  1  0
  3  1  2  0
  4  7  1  0
  5  6  1  0
  6 48  1  0
  6  4  2  0
  8  9  1  0
  8  5  1  0
  9 18  1  0
 10 16  1  0
 11 16  1  0
 12 13  1  0
 12 11  1  0
 14 13  1  0
 14 23  1  0
 14 15  1  0
 16 15  1  0
 17 10  2  0
 18 10  1  0
 18 19  1  0
 20 21  2  0
 21 22  1  0
 21 40  1  0
 22 25  1  0
 23 20  1  0
 23 24  1  0
 24 22  2  0
 25 26  1  0
 26 27  2  0
 28 31  1  0
 28 27  1  0
 29 28  2  0
 30 29  1  0
 30 25  2  0
 31 32  1  0
 32 37  2  0
 32 33  1  0
 33 34  2  0
 34 35  1  0
 35 39  1  0
 36 35  2  0
 37 36  1  0
 38 37  1  0
 40 41  1  0
 41 44  1  0
 41 43  1  0
 42 40  2  0
 45 46  1  0
 45 20  1  0
 47 45  1  0
 49 51  1  0
 51 50  1  0
 51 48  1  0
 52  3  1  0
 52 53  1  0
 54 65  2  0
 55 53  1  0
 55 60  1  0
 56 64  1  0
 56 66  1  0
 57 63  1  0
 57 59  1  0
 58 64  1  0
 59 58  1  0
 60 59  2  0
 61 62  1  0
 61 55  2  0
 62 57  2  0
 63 56  1  0
 64 54  1  0
 66 68  2  0
 67 66  1  0
 69 67  1  0
 70 79  2  0
 70 75  1  0
 71 67  1  0
 71 75  1  0
 72 71  1  0
 73 74  1  0
 73 72  1  0
 74 70  1  0
 75 76  2  0
 76 77  1  0
 78 77  2  0
 79 78  1  0
 80 54  1  0
 80 81  1  0
 80 90  1  0
 81 84  1  0
 82 86  1  0
 82 81  1  0
 83 82  2  0
 86 85  1  0
 88 86  1  0
 88 89  1  0
 88 87  1  0
 90 93  1  1
 90 91  1  0
 92 90  1  0
M  ISO  4  10 100  18 100  52 101  53 101
M  END
>  <TORSDO>  (20) 
F 21

>  <SCORE>  (20) 
-8.658

>  <name>  (20) 
19

>  <ligand_id>  (20) 
19

>  <original_smiles>  (20) 
[H]c1c([H])c([H])c2c(c1[H])C([H])([H])C([H])([H])C([H])([H])C2([H])N([H])C(=O)C1([H])N(C(=O)C([H])(N([H])C(=O)C([H])(N([H])C([H])([H])[H])C([H])([H])[H])C(C([H])([H])[H])(C([H])([H])[H])C([H])([H])[H])C([H])([H])c2c([H])c(OC([H])([H])c3c([H])c(C([H])([H])[H])c(C([H])([H])C([H])(C([H])([H])[H])C([H])([H])[H])c(C([H])([H])C([H])([H])N([H])C(=O)N4C([H])([H])C([H])([H])C([H])([H])C([H])(n5nc(-c6c([H])c([H])c(Oc7c([H])c([H])c(F)c([H])c7F)c([H])c6[H])c(C(=O)N([H])[H])c5N([H])[H])C4([H])[H])c3[H])c([H])c([H])c2C1([H])[H]

>  <smiles>  (20) 
[H]c1c([H])c([H])c2c(c1[H])C([H])([H])C([H])([H])C([H])([H])C2([H])N([H])C(=O)C1([H])N(C(=O)C([H])(N([H])C(=O)C([H])(N([H])C([H])([H])[H])C([H])([H])[H])C(C([H])([H])[H])(C([H])([H])[H])C([H])([H])[H])C([H])([H])c2c([H])c(OC([H])([H])c3c([H])c(C([H])([H])[H])c(C([H])([H])C([H])(C([H])([H])[H])C([H])([H])[H])c(C([H])([H])C([H])([H])N([H])C(=O)N4C([H])([H])C([H])([H])C([H])([H])C([H])(n5nc(-c6c([H])c([H])c(Oc7c([H])c([H])c(F)c([H])c7F)c([H])c6[H])c(C(=O)N([H])[H])c5N([H])[H])C4([H])[H])c3[H])c([H])c([H])c2C1([H])[H]

$$$$
20:0:0
     RDKit          3D

 92 99  0  0  1  0  0  0  0  0999 V2000
  -29.3920  -21.2520   19.4990 N   0  0  0  0  0  4  0  0  0  0  0  0
  -30.3620  -21.3740   19.7460 H   0  0  0  0  0  0  0  0  0  0  0  0
  -29.3670  -21.4050   18.5030 H   0  0  0  0  0  0  0  0  0  0  0  0
  -28.6460  -22.5890   20.1820 C   0  0  0  0  0  2  0  0  0  0  0  0
  -29.2910  -24.4600   18.3630 C   0  0  0  0  0  1  0  0  0  0  0  0
  -28.3270  -24.2460   19.5330 C   0  0  0  0  0  3  0  0  0  0  0  0
  -28.2850  -25.7700   20.1810 O   0  0  0  0  0  0  0  0  0  0  0  0
  -24.6790  -31.6810   23.1500 C   0  0  0  0  0  0  0  0  0  0  0  0
  -27.2790  -26.8660   20.0640 C   0  0  0  0  0  0  0  0  0  0  0  0
  -23.5090  -30.3170   21.4680 C   0  0  0  0  0  3  0  0  0  0  0  0
  -24.9790  -28.7440   20.0270 C   0  0  0  0  0  0  0  0  0  0  0  0
  -26.0750  -30.5290   21.3650 C   0  0  0  0  0  2  0  0  0  0  0  0
  -26.1550  -29.1350   20.6790 C   0  0  0  0  0  0  0  0  0  0  0  0
  -27.2940  -28.2140   20.6800 C   0  0  0  0  0  3  0  0  0  0  0  0
  -26.0800  -26.6370   19.3500 C   0  0  0  0  0  3  0  0  0  0  0  0
  -24.9670  -27.5190   19.3430 C   0  0  0  0  0  3  0  0  0  0  0  0
  -23.7560  -29.6620   20.0800 C   0  0  0  0  0  2  0  0  0  0  0  0
  -24.7740  -30.8710   22.0470 N   0  0  0  0  0  0  0  0  0  0  0  0
  -23.5840  -31.9610   23.6610 O   0  0  0  0  0  0  0  0  0  0  0  0
  -22.8010  -29.3030   22.4040 C   0  0  0  0  0  0  0  0  0  0  0  0
  -21.4690  -29.1600   22.2750 N   0  0  0  0  0  0  0  0  0  0  0  0
  -23.4600  -28.6420   23.2110 O   0  0  0  0  0  0  0  0  0  0  0  0
  -20.9930  -29.7440   21.6020 H   0  0  0  0  0  0  0  0  0  0  0  0
  -18.0670  -28.0020   22.7730 C   0  0  0  0  0  0  0  0  0  0  0  0
  -20.6340  -28.2110   23.0190 C   0  0  0  0  0  3  0  0  0  0  0  0
  -20.7010  -26.8000   22.3910 C   0  0  0  0  0  2  0  0  0  0  0  0
  -19.5840  -26.5370   21.3760 C   0  0  0  0  0  2  0  0  0  0  0  0
  -18.2110  -26.6790   22.0390 C   0  0  0  0  0  2  0  0  0  0  0  0
  -19.2040  -28.7280   23.2190 C   0  0  0  0  0  0  0  0  0  0  0  0
  -19.0120  -29.9670   23.8690 C   0  0  0  0  0  3  0  0  0  0  0  0
  -17.7170  -30.4820   24.0730 C   0  0  0  0  0  3  0  0  0  0  0  0
  -16.5960  -29.7520   23.6410 C   0  0  0  0  0  3  0  0  0  0  0  0
  -16.7710  -28.5130   22.9990 C   0  0  0  0  0  3  0  0  0  0  0  0
  -25.9410  -32.3120   23.8130 C   0  0  0  0  0  3  0  0  0  0  0  0
  -25.6220  -33.7080   24.1620 N   0  0  0  0  0  0  0  0  0  0  0  0
  -25.9750  -34.7800   23.4400 C   0  0  0  0  0  0  0  0  0  0  0  0
  -26.6660  -34.6980   22.4220 O   0  0  0  0  0  0  0  0  0  0  0  0
  -25.0100  -33.8440   24.9530 H   0  0  0  0  0  0  0  0  0  0  0  0
  -24.2550  -36.5880   23.1040 C   0  0  0  0  0  1  0  0  0  0  0  0
  -25.4860  -36.1620   23.9200 C   0  0  0  0  0  3  0  0  0  0  0  0
  -27.6110  -37.0310   24.7950 C   0  0  0  0  0  1  0  0  0  0  0  0
  -26.5230  -37.2160   23.8390 N   0  0  0  0  0  0  0  0  0  0  0  0
  -26.1180  -38.1340   23.9940 H   0  0  0  0  0  0  0  0  0  0  0  0
  -26.4210  -31.5300   25.0990 C   0  0  1  0  0  0  0  0  0  0  0  0
  -25.2990  -31.2960   26.1390 C   0  0  0  0  0  1  0  0  0  0  0  0
  -27.0000  -30.1480   24.7210 C   0  0  0  0  0  1  0  0  0  0  0  0
  -27.5630  -32.3110   25.7910 C   0  0  0  0  0  1  0  0  0  0  0  0
  -29.1380  -19.6030   19.6630 C   0  0  0  0  0  3  0  0  0  0  0  0
  -29.8130  -18.4300   17.4970 C   0  0  0  0  0  1  0  0  0  0  0  0
  -28.6350  -19.0380   18.2970 C   0  0  0  0  0  3  0  0  0  0  0  0
  -27.1970  -19.2930   16.1810 C   0  0  0  0  0  1  0  0  0  0  0  0
  -26.6230  -20.6630   18.1950 C   0  0  0  0  0  1  0  0  0  0  0  0
  -27.7820  -20.0030   17.4210 C   0  0  0  0  0  3  0  0  0  0  0  0
  -30.2420  -18.3240   20.3080 C   0  0  0  0  0  2  0  0  0  0  0  0
  -30.7670  -15.4770   20.9180 C   0  0  0  0  0  0  0  0  0  0  0  0
  -30.8860  -12.9470   20.3690 C   0  0  0  0  0  2  0  0  0  0  0  0
  -30.1640  -12.5910   19.0460 C   0  0  0  0  0  2  0  0  0  0  0  0
  -28.6640  -12.3470   19.2890 C   0  0  0  0  0  2  0  0  0  0  0  0
  -28.0450  -13.4150   20.2270 C   0  0  0  0  0  3  0  0  0  0  0  0
  -28.9150  -13.7090   21.4680 C   0  0  0  0  0  2  0  0  0  0  0  0
  -30.2240  -14.1630   20.9690 N   0  0  0  0  0  0  0  0  0  0  0  0
  -32.0040  -15.4830   20.8370 O   0  0  0  0  0  0  0  0  0  0  0  0
  -29.9870  -16.7310   20.7670 N   0  0  0  0  0  0  0  0  0  0  0  0
  -29.0030  -16.5380   20.8800 H   0  0  0  0  0  0  0  0  0  0  0  0
  -25.6050  -14.0140   20.6560 C   0  0  0  0  0  0  0  0  0  0  0  0
  -24.4950  -13.2550   20.9020 C   0  0  0  0  0  0  0  0  0  0  0  0
  -24.9460  -11.9010   20.9660 C   0  0  0  0  0  0  0  0  0  0  0  0
  -26.6600  -13.1230   20.5690 N   0  0  0  0  0  0  0  0  0  0  0  0
  -26.2670  -11.8470   20.8250 N   0  0  0  0  0  0  0  0  0  0  0  0
  -24.1840  -10.6510   21.0920 C   0  0  0  0  0  0  0  0  0  0  0  0
  -24.5200   -9.6730   22.0540 C   0  0  0  0  0  3  0  0  0  0  0  0
  -23.7580   -8.4900   22.1710 C   0  0  0  0  0  3  0  0  0  0  0  0
  -22.6440   -8.2770   21.3240 C   0  0  0  0  0  0  0  0  0  0  0  0
  -22.3270   -9.2420   20.3520 C   0  0  0  0  0  3  0  0  0  0  0  0
  -23.0900  -10.4160   20.2340 C   0  0  0  0  0  3  0  0  0  0  0  0
  -21.8610   -7.1480   21.3480 O   0  0  0  0  0  0  0  0  0  0  0  0
  -21.7260   -6.3890   22.4830 C   0  0  0  0  0  0  0  0  0  0  0  0
  -21.2540   -6.9390   23.6950 C   0  0  0  0  0  3  0  0  0  0  0  0
  -21.0650   -6.1110   24.8180 C   0  0  0  0  0  3  0  0  0  0  0  0
  -21.3360   -4.7320   24.7300 C   0  0  0  0  0  0  0  0  0  0  0  0
  -21.8010   -4.1810   23.5230 C   0  0  0  0  0  3  0  0  0  0  0  0
  -21.9930   -5.0070   22.4020 C   0  0  0  0  0  0  0  0  0  0  0  0
  -22.4200   -4.4680   21.2330 F   0  0  0  0  0  0  0  0  0  0  0  0
  -21.1480   -3.9330   25.8060 F   0  0  0  0  0  0  0  0  0  0  0  0
  -23.0820  -13.7500   20.9720 C   0  0  0  0  0  0  0  0  0  0  0  0
  -22.2490  -13.1170   21.7890 N   0  0  0  0  0  0  0  0  0  0  0  0
  -22.7210  -14.7400   20.3360 O   0  0  0  0  0  0  0  0  0  0  0  0
  -22.5540  -12.3190   22.3270 H   0  0  0  0  0  0  0  0  0  0  0  0
  -21.2930  -13.4310   21.8750 H   0  0  0  0  0  0  0  0  0  0  0  0
  -25.8030  -15.3790   20.4670 N   0  0  0  0  0  0  0  0  0  0  0  0
  -25.0310  -16.0350   20.4760 H   0  0  0  0  0  0  0  0  0  0  0  0
  -26.6820  -15.8030   20.2060 H   0  0  0  0  0  0  0  0  0  0  0  0
  1 48  1  0
  1  2  1  0
  1  4  1  0
  3  1  1  0
  6  5  1  0
  6  7  1  0
  6  4  1  0
  8 19  2  0
  9  7  1  0
  9 14  1  0
 10 18  1  0
 10 20  1  0
 11 17  1  0
 11 13  1  0
 12 18  1  0
 13 14  2  0
 13 12  1  0
 15  9  2  0
 16 15  1  0
 16 11  2  0
 17 10  1  0
 18  8  1  0
 20 22  2  0
 21 20  1  0
 23 21  1  0
 24 33  2  0
 24 29  1  0
 25 21  1  0
 25 29  1  0
 26 25  1  0
 27 28  1  0
 27 26  1  0
 28 24  1  0
 29 30  2  0
 30 31  1  0
 32 31  2  0
 33 32  1  0
 34  8  1  0
 34 35  1  0
 34 44  1  0
 35 38  1  0
 36 40  1  0
 36 35  1  0
 37 36  2  0
 40 39  1  0
 42 40  1  0
 42 43  1  0
 42 41  1  0
 44 47  1  1
 44 45  1  0
 46 44  1  0
 48 54  1  0
 50 49  1  0
 50 48  1  0
 51 53  1  0
 53 52  1  0
 53 50  1  0
 54 63  1  0
 55 61  1  0
 56 61  1  0
 57 58  1  0
 57 56  1  0
 59 58  1  0
 59 68  1  0
 59 60  1  0
 61 60  1  0
 62 55  2  0
 63 64  1  0
 63 55  1  0
 65 66  2  0
 66 67  1  0
 66 85  1  0
 67 70  1  0
 68 65  1  0
 68 69  1  0
 69 67  2  0
 70 71  1  0
 71 72  2  0
 73 76  1  0
 73 72  1  0
 74 73  2  0
 75 74  1  0
 75 70  2  0
 76 77  1  0
 77 78  1  0
 78 79  2  0
 80 79  1  0
 80 84  1  0
 81 80  2  0
 82 77  2  0
 82 81  1  0
 83 82  1  0
 85 86  1  0
 86 89  1  0
 86 88  1  0
 87 85  2  0
 90 91  1  0
 90 65  1  0
 92 90  1  0
M  ISO  4   6 101   7 101  55 100  63 100
M  END
>  <TORSDO>  (21) 
F 22

>  <SCORE>  (21) 
-15.092

>  <name>  (21) 
20

>  <ligand_id>  (21) 
20

>  <original_smiles>  (21) 
[H]c1c([H])c([H])c2c(c1[H])C([H])([H])C([H])([H])C([H])([H])C2([H])N([H])C(=O)C1([H])N(C(=O)C([H])(N([H])C(=O)C([H])(N([H])C([H])([H])[H])C([H])([H])[H])C(C([H])([H])[H])(C([H])([H])[H])C([H])([H])[H])C([H])([H])c2c([H])c(OC([H])(C([H])([H])[H])C([H])([H])[N+]([H])([H])C([H])(C([H])([H])N([H])C(=O)N3C([H])([H])C([H])([H])C([H])([H])C([H])(n4nc(-c5c([H])c([H])c(Oc6c([H])c([H])c(F)c([H])c6F)c([H])c5[H])c(C(=O)N([H])[H])c4N([H])[H])C3([H])[H])C([H])(C([H])([H])[H])C([H])(C([H])([H])[H])C([H])([H])[H])c([H])c([H])c2C1([H])[H]

>  <smiles>  (21) 
[H]c1c([H])c([H])c2c(c1[H])C([H])([H])C([H])([H])C([H])([H])C2([H])N([H])C(=O)C1([H])N(C(=O)C([H])(N([H])C(=O)C([H])(N([H])C([H])([H])[H])C([H])([H])[H])C(C([H])([H])[H])(C([H])([H])[H])C([H])([H])[H])C([H])([H])c2c([H])c(OC([H])(C([H])([H])[H])C([H])([H])[N+]([H])([H])C([H])(C([H])([H])N([H])C(=O)N3C([H])([H])C([H])([H])C([H])([H])C([H])(n4nc(-c5c([H])c([H])c(Oc6c([H])c([H])c(F)c([H])c6F)c([H])c5[H])c(C(=O)N([H])[H])c4N([H])[H])C3([H])[H])C([H])(C([H])([H])[H])C([H])(C([H])([H])[H])C([H])([H])[H])c([H])c([H])c2C1([H])[H]

$$$$
21:0:0
     RDKit          3D

 93101  0  0  1  0  0  0  0  0999 V2000
  -29.6880  -19.9710   21.2670 C   0  0  0  0  0  3  0  0  0  0  0  0
  -29.8040  -18.7800   20.5490 C   0  0  0  0  0  0  0  0  0  0  0  0
  -29.2930  -19.1310   19.2540 C   0  0  0  0  0  0  0  0  0  0  0  0
  -28.8540  -20.4540   19.2760 C   0  0  0  0  0  0  0  0  0  0  0  0
  -28.1860  -21.2680   18.2080 C   0  0  0  0  0  1  0  0  0  0  0  0
  -29.1150  -21.0270   20.5210 N   0  0  0  0  0  0  0  0  0  0  0  0
  -30.0010  -18.7400   16.8440 C   0  0  0  0  0  1  0  0  0  0  0  0
  -27.8590  -17.6770   17.7550 C   0  0  0  0  0  1  0  0  0  0  0  0
  -29.2750  -18.1740   18.0760 C   0  0  0  0  0  3  0  0  0  0  0  0
  -30.4810  -17.4160   21.0350 C   0  0  0  0  0  2  0  0  0  0  0  0
  -30.7170  -14.8770   20.4520 C   0  0  0  0  0  0  0  0  0  0  0  0
  -30.5220  -12.6220   19.3910 C   0  0  0  0  0  2  0  0  0  0  0  0
  -29.5880  -12.6980   18.1650 C   0  0  0  0  0  2  0  0  0  0  0  0
  -28.1200  -12.4990   18.5880 C   0  0  0  0  0  2  0  0  0  0  0  0
  -27.7300  -13.3780   19.8060 C   0  0  0  0  0  3  0  0  0  0  0  0
  -28.7850  -13.2970   20.9310 C   0  0  0  0  0  2  0  0  0  0  0  0
  -30.0780  -13.6630   20.3450 N   0  0  0  0  0  0  0  0  0  0  0  0
  -31.9090  -14.9670   20.1440 O   0  0  0  0  0  0  0  0  0  0  0  0
  -29.9720  -16.0090   20.7320 N   0  0  0  0  0  0  0  0  0  0  0  0
  -28.9880  -15.8570   20.8910 H   0  0  0  0  0  0  0  0  0  0  0  0
  -25.3310  -13.9380   20.5230 C   0  0  0  0  0  0  0  0  0  0  0  0
  -24.2730  -13.1500   20.8860 C   0  0  0  0  0  0  0  0  0  0  0  0
  -24.7550  -11.8050   20.8550 C   0  0  0  0  0  0  0  0  0  0  0  0
  -26.3880  -13.0720   20.2900 N   0  0  0  0  0  0  0  0  0  0  0  0
  -26.0470  -11.7840   20.5560 N   0  0  0  0  0  0  0  0  0  0  0  0
  -24.0420  -10.5330   21.0360 C   0  0  0  0  0  0  0  0  0  0  0  0
  -24.4670   -9.5780   21.9850 C   0  0  0  0  0  3  0  0  0  0  0  0
  -23.7550   -8.3700   22.1550 C   0  0  0  0  0  3  0  0  0  0  0  0
  -22.6030   -8.1100   21.3730 C   0  0  0  0  0  0  0  0  0  0  0  0
  -22.1970   -9.0560   20.4160 C   0  0  0  0  0  3  0  0  0  0  0  0
  -22.9090  -10.2560   20.2450 C   0  0  0  0  0  3  0  0  0  0  0  0
  -21.8620   -6.9560   21.4520 O   0  0  0  0  0  0  0  0  0  0  0  0
  -21.7870   -6.2270   22.6110 C   0  0  0  0  0  0  0  0  0  0  0  0
  -21.2970   -6.7860   23.8130 C   0  0  0  0  0  3  0  0  0  0  0  0
  -21.1690   -5.9810   24.9620 C   0  0  0  0  0  3  0  0  0  0  0  0
  -21.5200   -4.6180   24.9110 C   0  0  0  0  0  0  0  0  0  0  0  0
  -22.0030   -4.0590   23.7150 C   0  0  0  0  0  3  0  0  0  0  0  0
  -22.1320   -4.8620   22.5680 C   0  0  0  0  0  0  0  0  0  0  0  0
  -22.5770   -4.3120   21.4120 F   0  0  0  0  0  0  0  0  0  0  0  0
  -21.3910   -3.8440   26.0130 F   0  0  0  0  0  0  0  0  0  0  0  0
  -22.8680  -13.6090   21.1470 C   0  0  0  0  0  0  0  0  0  0  0  0
  -22.1390  -12.9000   22.0010 N   0  0  0  0  0  0  0  0  0  0  0  0
  -22.4230  -14.6320   20.6290 O   0  0  0  0  0  0  0  0  0  0  0  0
  -22.5090  -12.0720   22.4450 H   0  0  0  0  0  0  0  0  0  0  0  0
  -21.1960  -13.1920   22.2160 H   0  0  0  0  0  0  0  0  0  0  0  0
  -25.4780  -15.3110   20.3470 N   0  0  0  0  0  0  0  0  0  0  0  0
  -24.7010  -15.9550   20.4480 H   0  0  0  0  0  0  0  0  0  0  0  0
  -26.3150  -15.7630   20.0030 H   0  0  0  0  0  0  0  0  0  0  0  0
  -28.7030  -22.4040   21.0610 C   0  0  0  0  0  3  0  0  0  0  0  0
  -28.9780  -23.8280   20.3270 C   0  0  0  0  0  3  0  0  0  0  0  0
  -28.5390  -25.3300   22.4050 C   0  0  0  0  0  1  0  0  0  0  0  0
  -28.2220  -25.1470   20.9110 C   0  0  0  0  0  3  0  0  0  0  0  0
  -28.4150  -26.5180   20.3240 O   0  0  0  0  0  0  0  0  0  0  0  0
  -24.6480  -31.9970   23.2620 C   0  0  0  0  0  0  0  0  0  0  0  0
  -27.3070  -27.3950   20.2880 C   0  0  0  0  0  0  0  0  0  0  0  0
  -23.4640  -30.5670   21.6350 C   0  0  0  0  0  3  0  0  0  0  0  0
  -24.9340  -29.0060   20.2340 C   0  0  0  0  0  0  0  0  0  0  0  0
  -26.0030  -30.9000   21.4560 C   0  0  0  0  0  2  0  0  0  0  0  0
  -26.0990  -29.5100   20.8280 C   0  0  0  0  0  0  0  0  0  0  0  0
  -27.2900  -28.7180   20.8410 C   0  0  0  0  0  3  0  0  0  0  0  0
  -26.1240  -26.9540   19.6590 C   0  0  0  0  0  3  0  0  0  0  0  0
  -24.9500  -27.7340   19.6360 C   0  0  0  0  0  3  0  0  0  0  0  0
  -23.6920  -29.8730   20.2640 C   0  0  0  0  0  2  0  0  0  0  0  0
  -24.7240  -31.1730   22.1740 N   0  0  0  0  0  0  0  0  0  0  0  0
  -23.5590  -32.2700   23.7900 O   0  0  0  0  0  0  0  0  0  0  0  0
  -22.8040  -29.5590   22.6080 C   0  0  0  0  0  0  0  0  0  0  0  0
  -21.4810  -29.3640   22.4750 N   0  0  0  0  0  0  0  0  0  0  0  0
  -23.4850  -28.9540   23.4400 O   0  0  0  0  0  0  0  0  0  0  0  0
  -20.9920  -29.9060   21.7780 H   0  0  0  0  0  0  0  0  0  0  0  0
  -18.1130  -28.1370   22.9810 C   0  0  0  0  0  0  0  0  0  0  0  0
  -20.6680  -28.4290   23.2570 C   0  0  0  0  0  3  0  0  0  0  0  0
  -20.7880  -26.9900   22.7010 C   0  0  0  0  0  2  0  0  0  0  0  0
  -19.6930  -26.6420   21.6880 C   0  0  0  0  0  2  0  0  0  0  0  0
  -18.3070  -26.7810   22.3230 C   0  0  0  0  0  2  0  0  0  0  0  0
  -19.2220  -28.9170   23.4050 C   0  0  0  0  0  0  0  0  0  0  0  0
  -18.9860  -30.1850   23.9810 C   0  0  0  0  0  3  0  0  0  0  0  0
  -17.6760  -30.6730   24.1350 C   0  0  0  0  0  3  0  0  0  0  0  0
  -16.5810  -29.8910   23.7250 C   0  0  0  0  0  3  0  0  0  0  0  0
  -16.8010  -28.6250   23.1560 C   0  0  0  0  0  3  0  0  0  0  0  0
  -25.9210  -32.6500   23.8810 C   0  0  0  0  0  3  0  0  0  0  0  0
  -25.5970  -34.0500   24.1940 N   0  0  0  0  0  0  0  0  0  0  0  0
  -25.9290  -35.0980   23.4270 C   0  0  0  0  0  0  0  0  0  0  0  0
  -26.6070  -34.9880   22.4020 O   0  0  0  0  0  0  0  0  0  0  0  0
  -24.9970  -34.2090   24.9890 H   0  0  0  0  0  0  0  0  0  0  0  0
  -24.1940  -36.8770   23.0370 C   0  0  0  0  0  1  0  0  0  0  0  0
  -25.4290  -36.4890   23.8660 C   0  0  0  0  0  3  0  0  0  0  0  0
  -27.5510  -37.3910   24.7100 C   0  0  0  0  0  1  0  0  0  0  0  0
  -26.4560  -37.5480   23.7550 N   0  0  0  0  0  0  0  0  0  0  0  0
  -26.0430  -38.4660   23.8920 H   0  0  0  0  0  0  0  0  0  0  0  0
  -26.4390  -31.9040   25.1710 C   0  0  1  0  0  0  0  0  0  0  0  0
  -25.3400  -31.6550   26.2310 C   0  0  0  0  0  1  0  0  0  0  0  0
  -27.0530  -30.5350   24.7990 C   0  0  0  0  0  1  0  0  0  0  0  0
  -27.5670  -32.7280   25.8360 C   0  0  0  0  0  1  0  0  0  0  0  0
  2 10  1  0
  2  1  2  0
  3  4  2  0
  3  2  1  0
  4  6  1  0
  5  4  1  0
  6 49  1  0
  6  1  1  0
  7  9  1  0
  8  9  1  0
  9  3  1  0
 11 19  1  0
 12 17  1  0
 13 14  1  0
 13 12  1  0
 15 14  1  0
 15 24  1  0
 15 16  1  0
 17 11  1  0
 17 16  1  0
 18 11  2  0
 19 20  1  0
 19 10  1  0
 21 22  2  0
 22 41  1  0
 23 22  1  0
 23 26  1  0
 24 21  1  0
 24 25  1  0
 25 23  2  0
 26 27  1  0
 27 28  2  0
 29 32  1  0
 29 28  1  0
 30 29  2  0
 31 30  1  0
 31 26  2  0
 32 33  1  0
 33 34  1  0
 34 35  2  0
 36 35  1  0
 36 40  1  0
 37 36  2  0
 38 33  2  0
 38 37  1  0
 39 38  1  0
 41 42  1  0
 42 45  1  0
 42 44  1  0
 43 41  2  0
 46 47  1  0
 46 21  1  0
 48 46  1  0
 50 52  1  0
 50 49  2  0
 52 51  1  0
 53 52  1  0
 54 65  2  0
 55 53  1  0
 55 60  1  0
 56 64  1  0
 56 66  1  0
 57 63  1  0
 57 59  1  0
 58 64  1  0
 59 60  2  0
 59 58  1  0
 61 55  2  0
 62 61  1  0
 62 57  2  0
 63 56  1  0
 64 54  1  0
 66 68  2  0
 67 66  1  0
 69 67  1  0
 70 79  2  0
 70 75  1  0
 71 67  1  0
 71 75  1  0
 72 71  1  0
 73 74  1  0
 73 72  1  0
 74 70  1  0
 75 76  2  0
 76 77  1  0
 78 77  2  0
 79 78  1  0
 80 54  1  0
 80 81  1  0
 80 90  1  0
 81 84  1  0
 82 86  1  0
 82 81  1  0
 83 82  2  0
 86 85  1  0
 88 86  1  0
 88 89  1  0
 88 87  1  0
 90 93  1  1
 90 91  1  0
 92 90  1  0
M  ISO  4  11 100  19 100  52 101  53 101
M  END
>  <TORSDO>  (22) 
F 21

>  <SCORE>  (22) 
-13.359

>  <name>  (22) 
21

>  <ligand_id>  (22) 
21

>  <original_smiles>  (22) 
[H]c1c([H])c([H])c2c(c1[H])C([H])([H])C([H])([H])C([H])([H])C2([H])N([H])C(=O)C1([H])N(C(=O)C([H])(N([H])C(=O)C([H])(N([H])C([H])([H])[H])C([H])([H])[H])C(C([H])([H])[H])(C([H])([H])[H])C([H])([H])[H])C([H])([H])c2c([H])c(OC([H])(C([H])([H])[H])C([H])([H])C([H])([H])n3c([H])c(C([H])([H])N([H])C(=O)N4C([H])([H])C([H])([H])C([H])([H])C([H])(n5nc(-c6c([H])c([H])c(Oc7c([H])c([H])c(F)c([H])c7F)c([H])c6[H])c(C(=O)N([H])[H])c5N([H])[H])C4([H])[H])c(C([H])(C([H])([H])[H])C([H])([H])[H])c3C([H])([H])[H])c([H])c([H])c2C1([H])[H]

>  <smiles>  (22) 
[H]c1c([H])c([H])c2c(c1[H])C([H])([H])C([H])([H])C([H])([H])C2([H])N([H])C(=O)C1([H])N(C(=O)C([H])(N([H])C(=O)C([H])(N([H])C([H])([H])[H])C([H])([H])[H])C(C([H])([H])[H])(C([H])([H])[H])C([H])([H])[H])C([H])([H])c2c([H])c(OC([H])(C([H])([H])[H])C([H])([H])C([H])([H])n3c([H])c(C([H])([H])N([H])C(=O)N4C([H])([H])C([H])([H])C([H])([H])C([H])(n5nc(-c6c([H])c([H])c(Oc7c([H])c([H])c(F)c([H])c7F)c([H])c6[H])c(C(=O)N([H])[H])c5N([H])[H])C4([H])[H])c(C([H])(C([H])([H])[H])C([H])([H])[H])c3C([H])([H])[H])c([H])c([H])c2C1([H])[H]

$$$$
22:0:0
     RDKit          3D

 97105  0  0  1  0  0  0  0  0999 V2000
  -30.6230  -18.6620   21.6670 C   0  0  0  0  0  3  0  0  0  0  0  0
  -29.8590  -20.9490   21.6310 C   0  0  0  0  0  3  0  0  0  0  0  0
  -30.6630  -19.9550   22.2300 C   0  0  0  0  0  0  0  0  0  0  0  0
  -29.8520  -18.4290   20.5150 C   0  0  0  0  0  0  0  0  0  0  0  0
  -29.0980  -20.6560   20.4840 C   0  0  0  0  0  0  0  0  0  0  0  0
  -29.1240  -19.4150   19.9170 N   0  0  0  0  0  0  0  0  0  0  0  0
  -33.0510  -20.0210   22.9930 C   0  0  0  0  0  1  0  0  0  0  0  0
  -31.2490  -19.3080   24.5930 C   0  0  0  0  0  1  0  0  0  0  0  0
  -31.4690  -21.7020   23.9300 C   0  0  0  0  0  1  0  0  0  0  0  0
  -31.5890  -20.2490   23.4220 C   0  0  2  0  0  0  0  0  0  0  0  0
  -27.0730  -21.2510   18.9990 C   0  0  0  0  0  1  0  0  0  0  0  0
  -28.2280  -21.7910   19.8660 C   0  0  0  0  0  3  0  0  0  0  0  0
  -30.4630  -22.7650   18.9850 C   0  0  0  0  0  1  0  0  0  0  0  0
  -28.9490  -23.0150   19.1650 C   0  0  0  0  0  3  0  0  0  0  0  0
  -28.6360  -24.4140   19.8480 C   0  0  0  0  0  2  0  0  0  0  0  0
  -29.8880  -25.9660   18.2160 C   0  0  0  0  0  1  0  0  0  0  0  0
  -28.5670  -25.6990   18.9440 C   0  0  0  0  0  3  0  0  0  0  0  0
  -28.3520  -26.9260   19.6890 O   0  0  0  0  0  0  0  0  0  0  0  0
  -24.5330  -31.8830   23.1260 C   0  0  0  0  0  0  0  0  0  0  0  0
  -27.1420  -27.6090   19.7260 C   0  0  0  0  0  0  0  0  0  0  0  0
  -23.2910  -30.5350   21.4660 C   0  0  0  0  0  3  0  0  0  0  0  0
  -24.7160  -29.0830   19.9170 C   0  0  0  0  0  0  0  0  0  0  0  0
  -25.8010  -30.9410   21.1910 C   0  0  0  0  0  2  0  0  0  0  0  0
  -25.8860  -29.5990   20.4840 C   0  0  0  0  0  0  0  0  0  0  0  0
  -27.0930  -28.8630   20.3910 C   0  0  0  0  0  3  0  0  0  0  0  0
  -25.9470  -27.1120   19.1610 C   0  0  0  0  0  3  0  0  0  0  0  0
  -24.7410  -27.8400   19.2590 C   0  0  0  0  0  3  0  0  0  0  0  0
  -23.4600  -29.9180   20.0510 C   0  0  0  0  0  2  0  0  0  0  0  0
  -24.5630  -31.1330   21.9870 N   0  0  0  0  0  0  0  0  0  0  0  0
  -23.4670  -32.1110   23.7170 O   0  0  0  0  0  0  0  0  0  0  0  0
  -22.6880  -29.4630   22.4050 C   0  0  0  0  0  0  0  0  0  0  0  0
  -21.3700  -29.2340   22.2890 N   0  0  0  0  0  0  0  0  0  0  0  0
  -23.4050  -28.8400   23.1920 O   0  0  0  0  0  0  0  0  0  0  0  0
  -20.8450  -29.7960   21.6330 H   0  0  0  0  0  0  0  0  0  0  0  0
  -18.0630  -27.8570   22.7570 C   0  0  0  0  0  0  0  0  0  0  0  0
  -20.6030  -28.2360   23.0370 C   0  0  0  0  0  3  0  0  0  0  0  0
  -20.7760  -26.8260   22.4280 C   0  0  0  0  0  2  0  0  0  0  0  0
  -19.6930  -26.4720   21.4030 C   0  0  0  0  0  2  0  0  0  0  0  0
  -18.3060  -26.5350   22.0490 C   0  0  0  0  0  2  0  0  0  0  0  0
  -19.1420  -28.6650   23.2050 C   0  0  0  0  0  0  0  0  0  0  0  0
  -18.8600  -29.9030   23.8210 C   0  0  0  0  0  3  0  0  0  0  0  0
  -17.5320  -30.3360   23.9940 C   0  0  0  0  0  3  0  0  0  0  0  0
  -16.4680  -29.5250   23.5640 C   0  0  0  0  0  3  0  0  0  0  0  0
  -16.7340  -28.2880   22.9520 C   0  0  0  0  0  3  0  0  0  0  0  0
  -25.8280  -32.5140   23.7280 C   0  0  0  0  0  3  0  0  0  0  0  0
  -25.5140  -33.8970   24.1070 N   0  0  0  0  0  0  0  0  0  0  0  0
  -25.8170  -34.9750   23.3700 C   0  0  0  0  0  0  0  0  0  0  0  0
  -26.4580  -34.9080   22.3160 O   0  0  0  0  0  0  0  0  0  0  0  0
  -24.9420  -34.0220   24.9290 H   0  0  0  0  0  0  0  0  0  0  0  0
  -24.0570  -36.7540   23.1230 C   0  0  0  0  0  1  0  0  0  0  0  0
  -25.3300  -36.3440   23.8820 C   0  0  0  0  0  3  0  0  0  0  0  0
  -27.4790  -37.2370   24.6670 C   0  0  0  0  0  1  0  0  0  0  0  0
  -26.3460  -37.4130   23.7620 N   0  0  0  0  0  0  0  0  0  0  0  0
  -25.9340  -38.3230   23.9410 H   0  0  0  0  0  0  0  0  0  0  0  0
  -26.3930  -31.7130   24.9640 C   0  0  1  0  0  0  0  0  0  0  0  0
  -25.3390  -31.4310   26.0610 C   0  0  0  0  0  1  0  0  0  0  0  0
  -26.9800  -30.3560   24.5100 C   0  0  0  0  0  1  0  0  0  0  0  0
  -27.5560  -32.4990   25.6130 C   0  0  0  0  0  1  0  0  0  0  0  0
  -29.8710  -17.0450   19.8490 C   0  0  0  0  0  2  0  0  0  0  0  0
  -30.4710  -14.8350   20.8410 C   0  0  0  0  0  0  0  0  0  0  0  0
  -30.4590  -12.4380   20.2840 C   0  0  0  0  0  2  0  0  0  0  0  0
  -29.6780  -12.2840   18.9610 C   0  0  0  0  0  2  0  0  0  0  0  0
  -28.1740  -12.1140   19.2470 C   0  0  0  0  0  2  0  0  0  0  0  0
  -27.6240  -13.1860   20.2230 C   0  0  0  0  0  3  0  0  0  0  0  0
  -28.5360  -13.3410   21.4620 C   0  0  0  0  0  2  0  0  0  0  0  0
  -29.9000  -13.6070   20.9870 N   0  0  0  0  0  0  0  0  0  0  0  0
  -31.6650  -14.9760   20.5660 O   0  0  0  0  0  0  0  0  0  0  0  0
  -29.6120  -15.8700   20.7160 N   0  0  0  0  0  0  0  0  0  0  0  0
  -28.6510  -15.7150   20.9770 H   0  0  0  0  0  0  0  0  0  0  0  0
  -25.1830  -13.7890   20.7610 C   0  0  0  0  0  0  0  0  0  0  0  0
  -24.0890  -13.0120   21.0400 C   0  0  0  0  0  0  0  0  0  0  0  0
  -24.5510  -11.6620   21.0320 C   0  0  0  0  0  0  0  0  0  0  0  0
  -26.2410  -12.9080   20.6010 N   0  0  0  0  0  0  0  0  0  0  0  0
  -25.8610  -11.6240   20.8240 N   0  0  0  0  0  0  0  0  0  0  0  0
  -23.8100  -10.3980   21.1540 C   0  0  0  0  0  0  0  0  0  0  0  0
  -24.1880   -9.4090   22.0880 C   0  0  0  0  0  3  0  0  0  0  0  0
  -23.4500   -8.2100   22.1990 C   0  0  0  0  0  3  0  0  0  0  0  0
  -22.3230   -7.9930   21.3720 C   0  0  0  0  0  0  0  0  0  0  0  0
  -21.9660   -8.9700   20.4250 C   0  0  0  0  0  3  0  0  0  0  0  0
  -22.7040  -10.1600   20.3150 C   0  0  0  0  0  3  0  0  0  0  0  0
  -21.5620   -6.8480   21.3910 O   0  0  0  0  0  0  0  0  0  0  0  0
  -21.4880   -6.0520   22.5060 C   0  0  0  0  0  0  0  0  0  0  0  0
  -20.9880   -6.5370   23.7350 C   0  0  0  0  0  3  0  0  0  0  0  0
  -20.8650   -5.6670   24.8360 C   0  0  0  0  0  3  0  0  0  0  0  0
  -21.2290   -4.3130   24.7090 C   0  0  0  0  0  0  0  0  0  0  0  0
  -21.7220   -3.8280   23.4850 C   0  0  0  0  0  3  0  0  0  0  0  0
  -21.8480   -4.6950   22.3850 C   0  0  0  0  0  0  0  0  0  0  0  0
  -22.3040   -4.2190   21.2020 F   0  0  0  0  0  0  0  0  0  0  0  0
  -21.1030   -3.4740   25.7640 F   0  0  0  0  0  0  0  0  0  0  0  0
  -22.6760  -13.4880   21.2110 C   0  0  0  0  0  0  0  0  0  0  0  0
  -21.8890  -12.7860   22.0200 N   0  0  0  0  0  0  0  0  0  0  0  0
  -22.2750  -14.5160   20.6660 O   0  0  0  0  0  0  0  0  0  0  0  0
  -22.2260  -11.9570   22.4850 H   0  0  0  0  0  0  0  0  0  0  0  0
  -20.9370  -13.0850   22.1810 H   0  0  0  0  0  0  0  0  0  0  0  0
  -25.3580  -15.1600   20.6080 N   0  0  0  0  0  0  0  0  0  0  0  0
  -24.5790  -15.8080   20.6490 H   0  0  0  0  0  0  0  0  0  0  0  0
  -26.2230  -15.6060   20.3290 H   0  0  0  0  0  0  0  0  0  0  0  0
  1  3  1  0
  2  3  2  0
  3 10  1  0
  4  1  2  0
  5  2  1  0
  6  5  2  0
  6  4  1  0
 10  7  1  6
 10  9  1  0
 10  8  1  0
 12 11  1  0
 12  5  1  0
 14 13  1  0
 14 15  1  0
 14 12  1  0
 17 16  1  0
 17 18  1  0
 17 15  1  0
 18 20  1  0
 19 30  2  0
 20 25  1  0
 21 29  1  0
 21 31  1  0
 22 28  1  0
 22 24  1  0
 23 29  1  0
 24 23  1  0
 25 24  2  0
 26 27  1  0
 26 20  2  0
 27 22  2  0
 28 21  1  0
 29 19  1  0
 31 33  2  0
 32 31  1  0
 34 32  1  0
 35 44  2  0
 35 40  1  0
 36 32  1  0
 36 40  1  0
 37 36  1  0
 38 39  1  0
 38 37  1  0
 39 35  1  0
 40 41  2  0
 41 42  1  0
 43 42  2  0
 44 43  1  0
 45 19  1  0
 45 46  1  0
 45 55  1  0
 46 49  1  0
 47 51  1  0
 47 46  1  0
 48 47  2  0
 51 50  1  0
 53 51  1  0
 53 54  1  0
 53 52  1  0
 55 58  1  1
 55 56  1  0
 57 55  1  0
 59  4  1  0
 59 68  1  0
 60 66  1  0
 61 66  1  0
 62 63  1  0
 62 61  1  0
 64 63  1  0
 64 73  1  0
 64 65  1  0
 66 65  1  0
 67 60  2  0
 68 60  1  0
 68 69  1  0
 70 71  2  0
 71 90  1  0
 72 71  1  0
 72 75  1  0
 73 70  1  0
 73 74  1  0
 74 72  2  0
 75 76  1  0
 76 77  2  0
 78 81  1  0
 78 77  1  0
 79 78  2  0
 80 79  1  0
 80 75  2  0
 81 82  1  0
 82 83  1  0
 83 84  2  0
 85 84  1  0
 85 89  1  0
 86 85  2  0
 87 82  2  0
 87 86  1  0
 88 87  1  0
 90 91  1  0
 91 94  1  0
 91 93  1  0
 92 90  2  0
 95 96  1  0
 95 70  1  0
 97 95  1  0
M  ISO  4  17 101  18 101  60 100  68 100
M  END
>  <TORSDO>  (23) 
F 22

>  <SCORE>  (23) 
-11.941

>  <name>  (23) 
22

>  <ligand_id>  (23) 
22

>  <original_smiles>  (23) 
[H]c1c([H])c([H])c2c(c1[H])C([H])([H])C([H])([H])C([H])([H])C2([H])N([H])C(=O)C1([H])N(C(=O)C([H])(N([H])C(=O)C([H])(N([H])C([H])([H])[H])C([H])([H])[H])C(C([H])([H])[H])(C([H])([H])[H])C([H])([H])[H])C([H])([H])c2c([H])c(OC([H])(C([H])([H])[H])C([H])([H])C([H])(C([H])([H])[H])C([H])(c3nc(C([H])([H])N([H])C(=O)N4C([H])([H])C([H])([H])C([H])([H])C([H])(n5nc(-c6c([H])c([H])c(Oc7c([H])c([H])c(F)c([H])c7F)c([H])c6[H])c(C(=O)N([H])[H])c5N([H])[H])C4([H])[H])c([H])c(C(C([H])([H])[H])(C([H])([H])[H])C([H])([H])[H])c3[H])C([H])([H])[H])c([H])c([H])c2C1([H])[H]

>  <smiles>  (23) 
[H]c1c([H])c([H])c2c(c1[H])C([H])([H])C([H])([H])C([H])([H])C2([H])N([H])C(=O)C1([H])N(C(=O)C([H])(N([H])C(=O)C([H])(N([H])C([H])([H])[H])C([H])([H])[H])C(C([H])([H])[H])(C([H])([H])[H])C([H])([H])[H])C([H])([H])c2c([H])c(OC([H])(C([H])([H])[H])C([H])([H])C([H])(C([H])([H])[H])C([H])(c3nc(C([H])([H])N([H])C(=O)N4C([H])([H])C([H])([H])C([H])([H])C([H])(n5nc(-c6c([H])c([H])c(Oc7c([H])c([H])c(F)c([H])c7F)c([H])c6[H])c(C(=O)N([H])[H])c5N([H])[H])C4([H])[H])c([H])c(C(C([H])([H])[H])(C([H])([H])[H])C([H])([H])[H])c3[H])C([H])([H])[H])c([H])c([H])c2C1([H])[H]

$$$$
23:0:0
     RDKit          3D

 90 98  0  0  1  0  0  0  0  0999 V2000
  -28.9830  -22.0640   20.4600 C   0  0  0  0  0  3  0  0  0  0  0  0
  -28.6070  -23.3090   18.4460 C   0  0  0  0  0  3  0  0  0  0  0  0
  -28.5820  -23.3670   19.8510 C   0  0  0  0  0  0  0  0  0  0  0  0
  -29.3810  -20.8130   19.7330 C   0  0  0  0  0  0  0  0  0  0  0  0
  -29.2830  -21.0250   18.3330 C   0  0  0  0  0  0  0  0  0  0  0  0
  -29.6060  -19.9160   17.3660 C   0  0  0  0  0  1  0  0  0  0  0  0
  -28.9240  -22.1940   17.7380 N   0  0  0  0  0  0  0  0  0  0  0  0
  -30.1100  -19.5810   21.8680 C   0  0  0  0  0  1  0  0  0  0  0  0
  -30.0610  -19.3880   20.3410 C   0  0  0  0  0  3  0  0  0  0  0  0
  -29.6040  -17.7280   20.1330 C   0  0  0  0  0  2  0  0  0  0  0  0
  -30.9660  -15.1890   20.2570 C   0  0  0  0  0  0  0  0  0  0  0  0
  -30.7540  -12.8400   19.2960 C   0  0  0  0  0  2  0  0  0  0  0  0
  -29.8180  -12.7320   18.0700 C   0  0  0  0  0  2  0  0  0  0  0  0
  -28.3560  -12.5480   18.5170 C   0  0  0  0  0  2  0  0  0  0  0  0
  -27.9560  -13.5110   19.6650 C   0  0  0  0  0  3  0  0  0  0  0  0
  -29.0170  -13.5910   20.7780 C   0  0  0  0  0  2  0  0  0  0  0  0
  -30.2720  -13.9840   20.1240 N   0  0  0  0  0  0  0  0  0  0  0  0
  -32.1990  -15.0660   20.2070 O   0  0  0  0  0  0  0  0  0  0  0  0
  -30.9060  -16.5880   18.3300 C   0  0  0  0  0  1  0  0  0  0  0  0
  -30.4460  -16.4230   19.7130 N   0  0  0  0  0  0  0  0  0  0  0  0
  -25.5960  -14.1160   20.4290 C   0  0  0  0  0  0  0  0  0  0  0  0
  -24.5200  -13.3580   20.7970 C   0  0  0  0  0  0  0  0  0  0  0  0
  -24.9660  -11.9990   20.7730 C   0  0  0  0  0  0  0  0  0  0  0  0
  -26.6250  -13.2260   20.1860 N   0  0  0  0  0  0  0  0  0  0  0  0
  -26.2580  -11.9460   20.4620 N   0  0  0  0  0  0  0  0  0  0  0  0
  -24.2240  -10.7470   20.9610 C   0  0  0  0  0  0  0  0  0  0  0  0
  -24.6170   -9.7920   21.9230 C   0  0  0  0  0  3  0  0  0  0  0  0
  -23.8720   -8.6070   22.1020 C   0  0  0  0  0  3  0  0  0  0  0  0
  -22.7200   -8.3660   21.3160 C   0  0  0  0  0  0  0  0  0  0  0  0
  -22.3450   -9.3090   20.3430 C   0  0  0  0  0  3  0  0  0  0  0  0
  -23.0910  -10.4860   20.1640 C   0  0  0  0  0  3  0  0  0  0  0  0
  -21.9510   -7.2300   21.4020 O   0  0  0  0  0  0  0  0  0  0  0  0
  -21.8230   -6.5320   22.5770 C   0  0  0  0  0  0  0  0  0  0  0  0
  -21.2910   -7.1280   23.7420 C   0  0  0  0  0  3  0  0  0  0  0  0
  -21.1150   -6.3570   24.9080 C   0  0  0  0  0  3  0  0  0  0  0  0
  -21.4570   -4.9910   24.9090 C   0  0  0  0  0  0  0  0  0  0  0  0
  -21.9790   -4.3950   23.7470 C   0  0  0  0  0  3  0  0  0  0  0  0
  -22.1580   -5.1640   22.5830 C   0  0  0  0  0  0  0  0  0  0  0  0
  -22.6430   -4.5790   21.4600 F   0  0  0  0  0  0  0  0  0  0  0  0
  -21.2780   -4.2470   26.0270 F   0  0  0  0  0  0  0  0  0  0  0  0
  -23.1260  -13.8520   21.0520 C   0  0  0  0  0  0  0  0  0  0  0  0
  -22.3840  -13.1840   21.9250 N   0  0  0  0  0  0  0  0  0  0  0  0
  -22.7080  -14.8740   20.5090 O   0  0  0  0  0  0  0  0  0  0  0  0
  -22.7370  -12.3620   22.3950 H   0  0  0  0  0  0  0  0  0  0  0  0
  -21.4460  -13.5000   22.1250 H   0  0  0  0  0  0  0  0  0  0  0  0
  -25.7890  -15.4840   20.2480 N   0  0  0  0  0  0  0  0  0  0  0  0
  -25.0370  -16.1560   20.3510 H   0  0  0  0  0  0  0  0  0  0  0  0
  -26.6520  -15.9050   19.9310 H   0  0  0  0  0  0  0  0  0  0  0  0
  -28.0310  -24.7500   20.6020 C   0  0  0  0  0  2  0  0  0  0  0  0
  -28.2760  -26.2490   20.2320 O   0  0  0  0  0  0  0  0  0  0  0  0
  -24.5790  -31.9090   23.3130 C   0  0  0  0  0  0  0  0  0  0  0  0
  -27.2170  -27.2310   20.2580 C   0  0  0  0  0  0  0  0  0  0  0  0
  -23.4050  -30.5140   21.6530 C   0  0  0  0  0  3  0  0  0  0  0  0
  -24.8760  -28.9550   20.2440 C   0  0  0  0  0  0  0  0  0  0  0  0
  -25.9610  -30.8030   21.5100 C   0  0  0  0  0  2  0  0  0  0  0  0
  -26.0550  -29.4140   20.8480 C   0  0  0  0  0  0  0  0  0  0  0  0
  -27.2330  -28.5730   20.8260 C   0  0  0  0  0  3  0  0  0  0  0  0
  -26.0080  -26.8670   19.6330 C   0  0  0  0  0  3  0  0  0  0  0  0
  -24.8640  -27.6940   19.6250 C   0  0  0  0  0  3  0  0  0  0  0  0
  -23.6420  -29.8440   20.2790 C   0  0  0  0  0  2  0  0  0  0  0  0
  -24.6680  -31.0950   22.2150 N   0  0  0  0  0  0  0  0  0  0  0  0
  -23.4870  -32.1800   23.8330 O   0  0  0  0  0  0  0  0  0  0  0  0
  -22.7220  -29.4970   22.6030 C   0  0  0  0  0  0  0  0  0  0  0  0
  -21.3960  -29.3190   22.4660 N   0  0  0  0  0  0  0  0  0  0  0  0
  -23.3900  -28.8650   23.4270 O   0  0  0  0  0  0  0  0  0  0  0  0
  -20.9110  -29.8760   21.7760 H   0  0  0  0  0  0  0  0  0  0  0  0
  -18.0160  -28.1040   22.9390 C   0  0  0  0  0  0  0  0  0  0  0  0
  -20.5710  -28.3760   23.2270 C   0  0  0  0  0  3  0  0  0  0  0  0
  -20.6850  -26.9460   22.6480 C   0  0  0  0  0  2  0  0  0  0  0  0
  -19.5940  -26.6220   21.6230 C   0  0  0  0  0  2  0  0  0  0  0  0
  -18.2060  -26.7600   22.2550 C   0  0  0  0  0  2  0  0  0  0  0  0
  -19.1280  -28.8710   23.3810 C   0  0  0  0  0  0  0  0  0  0  0  0
  -18.8950  -30.1270   23.9790 C   0  0  0  0  0  3  0  0  0  0  0  0
  -17.5860  -30.6200   24.1370 C   0  0  0  0  0  3  0  0  0  0  0  0
  -16.4890  -29.8490   23.7130 C   0  0  0  0  0  3  0  0  0  0  0  0
  -16.7060  -28.5910   23.1210 C   0  0  0  0  0  3  0  0  0  0  0  0
  -25.8480  -32.5520   23.9540 C   0  0  0  0  0  3  0  0  0  0  0  0
  -26.3090  -31.8280   25.2780 C   0  0  1  0  0  0  0  0  0  0  0  0
  -25.1770  -31.6400   26.3150 C   0  0  0  0  0  1  0  0  0  0  0  0
  -26.8950  -30.4310   24.9660 C   0  0  0  0  0  1  0  0  0  0  0  0
  -27.4440  -32.6370   25.9520 C   0  0  0  0  0  1  0  0  0  0  0  0
  -25.5490  -33.9660   24.2220 N   0  0  0  0  0  0  0  0  0  0  0  0
  -25.9270  -34.9870   23.4400 C   0  0  0  0  0  0  0  0  0  0  0  0
  -26.6290  -34.8370   22.4380 O   0  0  0  0  0  0  0  0  0  0  0  0
  -24.9330  -34.1610   24.9980 H   0  0  0  0  0  0  0  0  0  0  0  0
  -24.2580  -36.8080   22.9550 C   0  0  0  0  0  1  0  0  0  0  0  0
  -25.4500  -36.3990   23.8350 C   0  0  0  0  0  3  0  0  0  0  0  0
  -27.5590  -37.2670   24.7480 C   0  0  0  0  0  1  0  0  0  0  0  0
  -26.5090  -37.4280   23.7430 N   0  0  0  0  0  0  0  0  0  0  0  0
  -26.1150  -38.3600   23.8500 H   0  0  0  0  0  0  0  0  0  0  0  0
  2  3  2  0
  3  1  1  0
  3 49  1  0
  4  9  1  0
  4  1  2  0
  5  4  1  0
  6  5  1  0
  7  5  2  0
  7  2  1  0
  9  8  1  0
 10  9  1  0
 12 17  1  0
 13 14  1  0
 13 12  1  0
 15 14  1  0
 15 24  1  0
 15 16  1  0
 17 11  1  0
 17 16  1  0
 18 11  2  0
 19 20  1  0
 20 10  1  0
 20 11  1  0
 21 22  2  0
 22 41  1  0
 23 22  1  0
 23 26  1  0
 24 21  1  0
 24 25  1  0
 25 23  2  0
 26 27  1  0
 27 28  2  0
 29 32  1  0
 29 28  1  0
 30 29  2  0
 31 30  1  0
 31 26  2  0
 32 33  1  0
 33 38  2  0
 33 34  1  0
 34 35  2  0
 35 36  1  0
 36 40  1  0
 37 36  2  0
 38 37  1  0
 39 38  1  0
 41 42  1  0
 42 45  1  0
 42 44  1  0
 43 41  2  0
 46 47  1  0
 46 21  1  0
 48 46  1  0
 50 52  1  0
 50 49  1  0
 51 62  2  0
 52 57  1  0
 53 61  1  0
 53 63  1  0
 54 60  1  0
 54 56  1  0
 55 61  1  0
 56 55  1  0
 57 56  2  0
 58 52  2  0
 59 58  1  0
 59 54  2  0
 60 53  1  0
 61 51  1  0
 63 65  2  0
 64 63  1  0
 66 64  1  0
 67 76  2  0
 67 72  1  0
 68 64  1  0
 68 72  1  0
 69 68  1  0
 70 71  1  0
 70 69  1  0
 71 67  1  0
 72 73  2  0
 73 74  1  0
 75 74  2  0
 76 75  1  0
 77 51  1  0
 77 82  1  0
 77 78  1  0
 78 81  1  1
 78 79  1  0
 80 78  1  0
 82 85  1  0
 83 87  1  0
 83 82  1  0
 84 83  2  0
 87 86  1  0
 89 87  1  0
 89 90  1  0
 89 88  1  0
M  ISO  4  11 100  20 100  49 101  50 101
M  END
>  <TORSDO>  (24) 
F 19

>  <SCORE>  (24) 
-14.156

>  <name>  (24) 
23

>  <ligand_id>  (24) 
23

>  <original_smiles>  (24) 
[H]c1nc(C([H])([H])[H])c(C([H])(C([H])([H])[H])C([H])([H])N(C(=O)N2C([H])([H])C([H])([H])C([H])([H])C([H])(n3nc(-c4c([H])c([H])c(Oc5c([H])c([H])c(F)c([H])c5F)c([H])c4[H])c(C(=O)N([H])[H])c3N([H])[H])C2([H])[H])C([H])([H])[H])c([H])c1C([H])([H])Oc1c([H])c([H])c2c(c1[H])C([H])([H])N(C(=O)C([H])(N([H])C(=O)C([H])(N([H])C([H])([H])[H])C([H])([H])[H])C(C([H])([H])[H])(C([H])([H])[H])C([H])([H])[H])C([H])(C(=O)N([H])C1([H])c3c([H])c([H])c([H])c([H])c3C([H])([H])C([H])([H])C1([H])[H])C2([H])[H]

>  <smiles>  (24) 
[H]c1nc(C([H])([H])[H])c(C([H])(C([H])([H])[H])C([H])([H])N(C(=O)N2C([H])([H])C([H])([H])C([H])([H])C([H])(n3nc(-c4c([H])c([H])c(Oc5c([H])c([H])c(F)c([H])c5F)c([H])c4[H])c(C(=O)N([H])[H])c3N([H])[H])C2([H])[H])C([H])([H])[H])c([H])c1C([H])([H])Oc1c([H])c([H])c2c(c1[H])C([H])([H])N(C(=O)C([H])(N([H])C(=O)C([H])(N([H])C([H])([H])[H])C([H])([H])[H])C(C([H])([H])[H])(C([H])([H])[H])C([H])([H])[H])C([H])(C(=O)N([H])C1([H])c3c([H])c([H])c([H])c([H])c3C([H])([H])C([H])([H])C1([H])[H])C2([H])[H]

$$$$
24:0:0
     RDKit          3D

 91 98  0  0  1  0  0  0  0  0999 V2000
  -29.2440  -21.9230   19.6100 N   0  0  1  0  0  4  0  0  0  0  0  0
  -30.1910  -22.0650   19.2920 H   0  0  0  0  0  0  0  0  0  0  0  0
  -29.4300  -22.4680   17.1550 C   0  0  0  0  0  1  0  0  0  0  0  0
  -27.1270  -21.9430   18.1510 C   0  0  0  0  0  1  0  0  0  0  0  0
  -28.6470  -21.7140   18.2490 C   0  0  0  0  0  3  0  0  0  0  0  0
  -29.0350  -23.3500   20.3230 C   0  0  0  0  0  3  0  0  0  0  0  0
  -28.2450  -24.7190   19.7080 C   0  0  0  0  0  3  0  0  0  0  0  0
  -28.2780  -26.1720   20.2780 O   0  0  0  0  0  0  0  0  0  0  0  0
  -24.5670  -31.8420   23.2460 C   0  0  0  0  0  0  0  0  0  0  0  0
  -27.1940  -27.1290   20.2090 C   0  0  0  0  0  0  0  0  0  0  0  0
  -23.3880  -30.4480   21.5900 C   0  0  0  0  0  3  0  0  0  0  0  0
  -24.8510  -28.8710   20.1840 C   0  0  0  0  0  0  0  0  0  0  0  0
  -25.9450  -30.7050   21.4620 C   0  0  0  0  0  2  0  0  0  0  0  0
  -26.0250  -29.3140   20.8060 C   0  0  0  0  0  0  0  0  0  0  0  0
  -27.1910  -28.4580   20.8040 C   0  0  0  0  0  3  0  0  0  0  0  0
  -25.9840  -26.7880   19.5560 C   0  0  0  0  0  3  0  0  0  0  0  0
  -24.8430  -27.6190   19.5520 C   0  0  0  0  0  3  0  0  0  0  0  0
  -23.6240  -29.7660   20.2150 C   0  0  0  0  0  2  0  0  0  0  0  0
  -24.6540  -31.0170   22.1570 N   0  0  0  0  0  0  0  0  0  0  0  0
  -23.4740  -32.1300   23.7550 O   0  0  0  0  0  0  0  0  0  0  0  0
  -22.6880  -29.4420   22.5370 C   0  0  0  0  0  0  0  0  0  0  0  0
  -21.3610  -29.2800   22.3940 N   0  0  0  0  0  0  0  0  0  0  0  0
  -23.3450  -28.8140   23.3710 O   0  0  0  0  0  0  0  0  0  0  0  0
  -20.8890  -29.8510   21.7060 H   0  0  0  0  0  0  0  0  0  0  0  0
  -17.9690  -28.0960   22.8410 C   0  0  0  0  0  0  0  0  0  0  0  0
  -20.5240  -28.3460   23.1490 C   0  0  0  0  0  3  0  0  0  0  0  0
  -20.6220  -26.9110   22.5770 C   0  0  0  0  0  2  0  0  0  0  0  0
  -19.5350  -26.5940   21.5450 C   0  0  0  0  0  2  0  0  0  0  0  0
  -18.1450  -26.7470   22.1680 C   0  0  0  0  0  2  0  0  0  0  0  0
  -19.0830  -28.8540   23.2890 C   0  0  0  0  0  0  0  0  0  0  0  0
  -18.8580  -30.1160   23.8820 C   0  0  0  0  0  3  0  0  0  0  0  0
  -17.5520  -30.6230   24.0230 C   0  0  0  0  0  3  0  0  0  0  0  0
  -16.4520  -29.8620   23.5890 C   0  0  0  0  0  3  0  0  0  0  0  0
  -16.6620  -28.6000   23.0070 C   0  0  0  0  0  3  0  0  0  0  0  0
  -25.8360  -32.4740   23.8970 C   0  0  0  0  0  3  0  0  0  0  0  0
  -25.5220  -33.8780   24.2170 N   0  0  0  0  0  0  0  0  0  0  0  0
  -25.8670  -34.9270   23.4600 C   0  0  0  0  0  0  0  0  0  0  0  0
  -26.5480  -34.8190   22.4360 O   0  0  0  0  0  0  0  0  0  0  0  0
  -24.9080  -34.0310   25.0050 H   0  0  0  0  0  0  0  0  0  0  0  0
  -24.1470  -36.7300   23.0970 C   0  0  0  0  0  1  0  0  0  0  0  0
  -25.3850  -36.3210   23.9110 C   0  0  0  0  0  3  0  0  0  0  0  0
  -27.5230  -37.2050   24.7420 C   0  0  0  0  0  1  0  0  0  0  0  0
  -26.4250  -37.3690   23.7940 N   0  0  0  0  0  0  0  0  0  0  0  0
  -26.0220  -38.2920   23.9300 H   0  0  0  0  0  0  0  0  0  0  0  0
  -26.3140  -31.7090   25.1930 C   0  0  1  0  0  0  0  0  0  0  0  0
  -25.1920  -31.4880   26.2360 C   0  0  0  0  0  1  0  0  0  0  0  0
  -26.8940  -30.3210   24.8320 C   0  0  0  0  0  1  0  0  0  0  0  0
  -27.4530  -32.5010   25.8780 C   0  0  0  0  0  1  0  0  0  0  0  0
  -29.5470  -20.5880   20.4440 C   0  0  0  0  0  2  0  0  0  0  0  0
  -27.9360  -18.5830   19.9030 C   0  0  0  0  0  1  0  0  0  0  0  0
  -29.4260  -18.9720   19.9050 C   0  0  0  0  0  3  0  0  0  0  0  0
  -30.3820  -17.8580   22.0910 C   0  0  0  0  0  1  0  0  0  0  0  0
  -30.2620  -17.6530   20.5680 C   0  0  0  0  0  3  0  0  0  0  0  0
  -30.5880  -14.9200   20.1940 C   0  0  0  0  0  0  0  0  0  0  0  0
  -30.3840  -12.5770   19.2400 C   0  0  0  0  0  2  0  0  0  0  0  0
  -29.4110  -12.5560   18.0350 C   0  0  0  0  0  2  0  0  0  0  0  0
  -27.9540  -12.3740   18.5010 C   0  0  0  0  0  2  0  0  0  0  0  0
  -27.5880  -13.2920   19.6960 C   0  0  0  0  0  3  0  0  0  0  0  0
  -28.6790  -13.2990   20.7900 C   0  0  0  0  0  2  0  0  0  0  0  0
  -29.9440  -13.6830   20.1400 N   0  0  0  0  0  0  0  0  0  0  0  0
  -31.7900  -14.9470   19.9210 O   0  0  0  0  0  0  0  0  0  0  0  0
  -29.8630  -16.1280   20.3570 N   0  0  0  0  0  0  0  0  0  0  0  0
  -28.8840  -15.9530   20.5140 H   0  0  0  0  0  0  0  0  0  0  0  0
  -25.2310  -13.8870   20.4830 C   0  0  0  0  0  0  0  0  0  0  0  0
  -24.1660  -13.1230   20.8690 C   0  0  0  0  0  0  0  0  0  0  0  0
  -24.6090  -11.7660   20.8170 C   0  0  0  0  0  0  0  0  0  0  0  0
  -26.2580  -12.9990   20.2210 N   0  0  0  0  0  0  0  0  0  0  0  0
  -25.8970  -11.7170   20.4890 N   0  0  0  0  0  0  0  0  0  0  0  0
  -23.8690  -10.5120   21.0080 C   0  0  0  0  0  0  0  0  0  0  0  0
  -24.2960   -9.5330   21.9320 C   0  0  0  0  0  3  0  0  0  0  0  0
  -23.5550   -8.3440   22.1110 C   0  0  0  0  0  3  0  0  0  0  0  0
  -22.3710   -8.1220   21.3670 C   0  0  0  0  0  0  0  0  0  0  0  0
  -21.9680   -9.0900   20.4300 C   0  0  0  0  0  3  0  0  0  0  0  0
  -22.7070  -10.2700   20.2490 C   0  0  0  0  0  3  0  0  0  0  0  0
  -21.5980   -6.9890   21.4580 O   0  0  0  0  0  0  0  0  0  0  0  0
  -21.5400   -6.2500   22.6120 C   0  0  0  0  0  0  0  0  0  0  0  0
  -21.1000   -6.8040   23.8350 C   0  0  0  0  0  3  0  0  0  0  0  0
  -20.9960   -5.9900   24.9810 C   0  0  0  0  0  3  0  0  0  0  0  0
  -21.3130   -4.6190   24.9050 C   0  0  0  0  0  0  0  0  0  0  0  0
  -21.7420   -4.0640   23.6870 C   0  0  0  0  0  3  0  0  0  0  0  0
  -21.8560   -4.8780   22.5460 C   0  0  0  0  0  0  0  0  0  0  0  0
  -22.2510   -4.3330   21.3700 F   0  0  0  0  0  0  0  0  0  0  0  0
  -21.2040   -3.8350   26.0040 F   0  0  0  0  0  0  0  0  0  0  0  0
  -22.7750  -13.6100   21.1650 C   0  0  0  0  0  0  0  0  0  0  0  0
  -22.0620  -12.9150   22.0390 N   0  0  0  0  0  0  0  0  0  0  0  0
  -22.3440  -14.6460   20.6600 O   0  0  0  0  0  0  0  0  0  0  0  0
  -22.4260  -12.0760   22.4740 H   0  0  0  0  0  0  0  0  0  0  0  0
  -21.1300  -13.2130   22.2830 H   0  0  0  0  0  0  0  0  0  0  0  0
  -25.4070  -15.2580   20.3030 N   0  0  0  0  0  0  0  0  0  0  0  0
  -24.6490  -15.9230   20.4190 H   0  0  0  0  0  0  0  0  0  0  0  0
  -26.2330  -15.6670   19.8860 H   0  0  0  0  0  0  0  0  0  0  0  0
  1  6  1  0
  1 49  1  0
  1  2  1  6
  3  5  1  0
  4  5  1  0
  5  1  1  0
  7  8  1  0
  7  6  2  0
  9 20  2  0
 10  8  1  0
 10 15  1  0
 11 19  1  0
 11 21  1  0
 12 18  1  0
 12 14  1  0
 13 19  1  0
 14 13  1  0
 15 14  2  0
 16 10  2  0
 17 16  1  0
 17 12  2  0
 18 11  1  0
 19  9  1  0
 21 23  2  0
 22 21  1  0
 24 22  1  0
 25 34  2  0
 25 30  1  0
 26 22  1  0
 26 30  1  0
 27 26  1  0
 28 29  1  0
 28 27  1  0
 29 25  1  0
 30 31  2  0
 31 32  1  0
 33 32  2  0
 34 33  1  0
 35  9  1  0
 35 36  1  0
 35 45  1  0
 36 39  1  0
 37 41  1  0
 37 36  1  0
 38 37  2  0
 41 40  1  0
 43 41  1  0
 43 44  1  0
 43 42  1  0
 45 48  1  1
 45 46  1  0
 47 45  1  0
 51 50  1  0
 51 49  1  0
 51 53  1  0
 53 52  1  0
 54 62  1  0
 55 60  1  0
 56 57  1  0
 56 55  1  0
 58 57  1  0
 58 67  1  0
 58 59  1  0
 60 54  1  0
 60 59  1  0
 61 54  2  0
 62 63  1  0
 62 53  1  0
 64 65  2  0
 65 84  1  0
 66 65  1  0
 66 69  1  0
 67 64  1  0
 67 68  1  0
 68 66  2  0
 69 70  1  0
 70 71  2  0
 72 75  1  0
 72 71  1  0
 73 72  2  0
 74 73  1  0
 74 69  2  0
 75 76  1  0
 76 77  1  0
 77 78  2  0
 79 78  1  0
 79 83  1  0
 80 79  2  0
 81 76  2  0
 81 80  1  0
 82 81  1  0
 84 85  1  0
 85 88  1  0
 85 87  1  0
 86 84  2  0
 89 90  1  0
 89 64  1  0
 91 89  1  0
M  ISO  4   7 101   8 101  54 100  62 100
M  END
>  <TORSDO>  (25) 
F 22

>  <SCORE>  (25) 
-14.778

>  <name>  (25) 
24

>  <ligand_id>  (25) 
24

>  <original_smiles>  (25) 
[H]c1c([H])c([H])c2c(c1[H])C([H])([H])C([H])([H])C([H])([H])C2([H])N([H])C(=O)C1([H])N(C(=O)C([H])(N([H])C(=O)C([H])(N([H])C([H])([H])[H])C([H])([H])[H])C(C([H])([H])[H])(C([H])([H])[H])C([H])([H])[H])C([H])([H])c2c([H])c(OC([H])([H])C([H])([H])[N+]([H])(C([H])([H])C([H])(C([H])([H])[H])C([H])(N([H])C(=O)N3C([H])([H])C([H])([H])C([H])([H])C([H])(n4nc(-c5c([H])c([H])c(Oc6c([H])c([H])c(F)c([H])c6F)c([H])c5[H])c(C(=O)N([H])[H])c4N([H])[H])C3([H])[H])C([H])([H])[H])C([H])(C([H])([H])[H])C([H])([H])[H])c([H])c([H])c2C1([H])[H]

>  <smiles>  (25) 
[H]c1c([H])c([H])c2c(c1[H])C([H])([H])C([H])([H])C([H])([H])C2([H])N([H])C(=O)C1([H])N(C(=O)C([H])(N([H])C(=O)C([H])(N([H])C([H])([H])[H])C([H])([H])[H])C(C([H])([H])[H])(C([H])([H])[H])C([H])([H])[H])C([H])([H])c2c([H])c(OC([H])([H])C([H])([H])[N+]([H])(C([H])([H])C([H])(C([H])([H])[H])C([H])(N([H])C(=O)N3C([H])([H])C([H])([H])C([H])([H])C([H])(n4nc(-c5c([H])c([H])c(Oc6c([H])c([H])c(F)c([H])c6F)c([H])c5[H])c(C(=O)N([H])[H])c4N([H])[H])C3([H])[H])C([H])([H])[H])C([H])(C([H])([H])[H])C([H])([H])[H])c([H])c([H])c2C1([H])[H]

$$$$
25:0:0
     RDKit          3D

101110  0  0  1  0  0  0  0  0999 V2000
  -29.9010  -22.2550   20.2700 C   0  0  0  0  0  3  0  0  0  0  0  0
  -29.5750  -23.5070   20.8010 C   0  0  0  0  0  3  0  0  0  0  0  0
  -29.2400  -20.1670   19.2380 C   0  0  0  0  0  3  0  0  0  0  0  0
  -26.6270  -21.0980   18.9580 C   0  0  0  0  0  3  0  0  0  0  0  0
  -28.9050  -21.4610   19.6850 C   0  0  0  0  0  0  0  0  0  0  0  0
  -27.5790  -21.9470   19.5780 C   0  0  0  0  0  0  0  0  0  0  0  0
  -28.2570  -24.0120   20.7530 C   0  0  0  0  0  0  0  0  0  0  0  0
  -28.2670  -19.3180   18.6800 C   0  0  0  0  0  0  0  0  0  0  0  0
  -26.9530  -19.8090   18.4950 C   0  0  0  0  0  0  0  0  0  0  0  0
  -27.2400  -23.2340   20.1050 C   0  0  0  0  0  0  0  0  0  0  0  0
  -27.9550  -25.3090   21.5250 C   0  0  0  0  0  2  0  0  0  0  0  0
  -28.9680  -26.4850   21.4190 C   0  0  0  0  0  2  0  0  0  0  0  0
  -28.8740  -27.2210   20.1970 O   0  0  0  0  0  0  0  0  0  0  0  0
  -24.7590  -31.9980   23.4470 C   0  0  0  0  0  0  0  0  0  0  0  0
  -27.7240  -27.9630   20.1510 C   0  0  0  0  0  0  0  0  0  0  0  0
  -23.6810  -30.6750   21.6490 C   0  0  0  0  0  3  0  0  0  0  0  0
  -25.2640  -29.3250   20.1700 C   0  0  0  0  0  0  0  0  0  0  0  0
  -26.1880  -31.1660   21.5940 C   0  0  0  0  0  2  0  0  0  0  0  0
  -26.3670  -29.8570   20.8580 C   0  0  0  0  0  0  0  0  0  0  0  0
  -27.5990  -29.1730   20.8600 C   0  0  0  0  0  3  0  0  0  0  0  0
  -26.6330  -27.4690   19.4220 C   0  0  0  0  0  3  0  0  0  0  0  0
  -25.3890  -28.1240   19.4490 C   0  0  0  0  0  3  0  0  0  0  0  0
  -23.9790  -30.1160   20.2320 C   0  0  0  0  0  2  0  0  0  0  0  0
  -24.8890  -31.2890   22.2900 N   0  0  0  0  0  0  0  0  0  0  0  0
  -23.6500  -32.1830   23.9610 O   0  0  0  0  0  0  0  0  0  0  0  0
  -23.0420  -29.5550   22.5040 C   0  0  0  0  0  0  0  0  0  0  0  0
  -21.7250  -29.3540   22.3310 N   0  0  0  0  0  0  0  0  0  0  0  0
  -23.7250  -28.8750   23.2720 O   0  0  0  0  0  0  0  0  0  0  0  0
  -21.2320  -29.9600   21.6890 H   0  0  0  0  0  0  0  0  0  0  0  0
  -18.3580  -28.1010   22.7000 C   0  0  0  0  0  0  0  0  0  0  0  0
  -20.9140  -28.3370   22.9980 C   0  0  0  0  0  3  0  0  0  0  0  0
  -21.0230  -26.9750   22.2710 C   0  0  0  0  0  2  0  0  0  0  0  0
  -19.9230  -26.7630   21.2280 C   0  0  0  0  0  2  0  0  0  0  0  0
  -18.5420  -26.8320   21.8850 C   0  0  0  0  0  2  0  0  0  0  0  0
  -19.4740  -28.8160   23.2080 C   0  0  0  0  0  0  0  0  0  0  0  0
  -19.2540  -30.0120   23.9280 C   0  0  0  0  0  3  0  0  0  0  0  0
  -17.9480  -30.4870   24.1490 C   0  0  0  0  0  3  0  0  0  0  0  0
  -16.8450  -29.7670   23.6580 C   0  0  0  0  0  3  0  0  0  0  0  0
  -17.0520  -28.5740   22.9390 C   0  0  0  0  0  3  0  0  0  0  0  0
  -25.9960  -32.6310   24.1580 C   0  0  0  0  0  3  0  0  0  0  0  0
  -25.6460  -34.0150   24.5040 N   0  0  0  0  0  0  0  0  0  0  0  0
  -25.9970  -35.0870   23.7800 C   0  0  0  0  0  0  0  0  0  0  0  0
  -26.7230  -35.0160   22.7850 O   0  0  0  0  0  0  0  0  0  0  0  0
  -25.0140  -34.1410   25.2790 H   0  0  0  0  0  0  0  0  0  0  0  0
  -24.2530  -36.8490   23.3620 C   0  0  0  0  0  1  0  0  0  0  0  0
  -25.4580  -36.4590   24.2330 C   0  0  0  0  0  3  0  0  0  0  0  0
  -27.5330  -37.3640   25.1860 C   0  0  0  0  0  1  0  0  0  0  0  0
  -26.4750  -37.5360   24.1960 N   0  0  0  0  0  0  0  0  0  0  0  0
  -26.0420  -38.4420   24.3500 H   0  0  0  0  0  0  0  0  0  0  0  0
  -26.4460  -31.8330   25.4430 C   0  0  1  0  0  0  0  0  0  0  0  0
  -25.2880  -31.5330   26.4240 C   0  0  0  0  0  1  0  0  0  0  0  0
  -27.0860  -30.4790   25.0490 C   0  0  0  0  0  1  0  0  0  0  0  0
  -27.5240  -32.6320   26.2100 C   0  0  0  0  0  1  0  0  0  0  0  0
  -28.6900  -17.9030   18.3250 C   0  0  0  0  0  2  0  0  0  0  0  0
  -28.8630  -17.0060   19.5710 C   0  0  0  0  0  2  0  0  0  0  0  0
  -30.4250  -15.1050   20.0050 C   0  0  0  0  0  0  0  0  0  0  0  0
  -30.2980  -12.8150   19.2150 C   0  0  0  0  0  2  0  0  0  0  0  0
  -29.3360  -12.8300   18.0060 C   0  0  0  0  0  2  0  0  0  0  0  0
  -27.8800  -12.6360   18.4870 C   0  0  0  0  0  2  0  0  0  0  0  0
  -27.4800  -13.5660   19.6660 C   0  0  0  0  0  3  0  0  0  0  0  0
  -28.5730  -13.5990   20.7620 C   0  0  0  0  0  2  0  0  0  0  0  0
  -29.8630  -13.8800   20.1190 N   0  0  0  0  0  0  0  0  0  0  0  0
  -31.6300  -15.2920   19.8730 O   0  0  0  0  0  0  0  0  0  0  0  0
  -29.6830  -15.8680   19.1980 N   0  0  0  0  0  0  0  0  0  0  0  0
  -30.1840  -16.0490   18.3410 H   0  0  0  0  0  0  0  0  0  0  0  0
  -25.1050  -14.0480   20.5300 C   0  0  0  0  0  0  0  0  0  0  0  0
  -24.0810  -13.2240   20.9080 C   0  0  0  0  0  0  0  0  0  0  0  0
  -24.5960  -11.8950   20.8160 C   0  0  0  0  0  0  0  0  0  0  0  0
  -26.1680  -13.2210   20.2070 N   0  0  0  0  0  0  0  0  0  0  0  0
  -25.8710  -11.9220   20.4490 N   0  0  0  0  0  0  0  0  0  0  0  0
  -23.9330  -10.6000   20.9910 C   0  0  0  0  0  0  0  0  0  0  0  0
  -24.4010   -9.6560   21.9300 C   0  0  0  0  0  3  0  0  0  0  0  0
  -23.7380   -8.4210   22.0950 C   0  0  0  0  0  3  0  0  0  0  0  0
  -22.5910   -8.1230   21.3220 C   0  0  0  0  0  0  0  0  0  0  0  0
  -22.1430   -9.0580   20.3690 C   0  0  0  0  0  3  0  0  0  0  0  0
  -22.8110  -10.2820   20.2010 C   0  0  0  0  0  3  0  0  0  0  0  0
  -21.8950   -6.9410   21.3980 O   0  0  0  0  0  0  0  0  0  0  0  0
  -21.8130   -6.2330   22.5710 C   0  0  0  0  0  0  0  0  0  0  0  0
  -21.2860   -6.8010   23.7500 C   0  0  0  0  0  3  0  0  0  0  0  0
  -21.1570   -6.0160   24.9130 C   0  0  0  0  0  3  0  0  0  0  0  0
  -21.5410   -4.6610   24.8970 C   0  0  0  0  0  0  0  0  0  0  0  0
  -22.0600   -4.0920   23.7210 C   0  0  0  0  0  3  0  0  0  0  0  0
  -22.1930   -4.8750   22.5590 C   0  0  0  0  0  0  0  0  0  0  0  0
  -22.6760   -4.3170   21.4230 F   0  0  0  0  0  0  0  0  0  0  0  0
  -21.4060   -3.9020   26.0110 F   0  0  0  0  0  0  0  0  0  0  0  0
  -22.6760  -13.6350   21.2470 C   0  0  0  0  0  0  0  0  0  0  0  0
  -22.0170  -12.8880   22.1270 N   0  0  0  0  0  0  0  0  0  0  0  0
  -22.1710  -14.6490   20.7660 O   0  0  0  0  0  0  0  0  0  0  0  0
  -22.4420  -12.0770   22.5520 H   0  0  0  0  0  0  0  0  0  0  0  0
  -21.0770  -13.1440   22.3890 H   0  0  0  0  0  0  0  0  0  0  0  0
  -25.2170  -15.4250   20.4150 N   0  0  0  0  0  0  0  0  0  0  0  0
  -24.4610  -16.0530   20.6580 H   0  0  0  0  0  0  0  0  0  0  0  0
  -26.0690  -15.8990   20.1500 H   0  0  0  0  0  0  0  0  0  0  0  0
  -25.8520  -19.0070   17.8160 C   0  0  0  0  0  2  0  0  0  0  0  0
  -26.1100  -18.8810   15.2810 C   0  0  0  0  0  1  0  0  0  0  0  0
  -23.8880  -19.5100   16.2590 C   0  0  0  0  0  1  0  0  0  0  0  0
  -25.4110  -19.5860   16.4500 C   0  0  0  0  0  3  0  0  0  0  0  0
  -25.7870  -23.7330   20.0220 C   0  0  0  0  0  2  0  0  0  0  0  0
  -25.4910  -23.7480   17.4230 C   0  0  0  0  0  1  0  0  0  0  0  0
  -24.1380  -25.3130   18.8590 C   0  0  0  0  0  1  0  0  0  0  0  0
  -25.4640  -24.5480   18.7380 C   0  0  0  0  0  3  0  0  0  0  0  0
  1  2  1  0
  3  5  1  0
  4  6  1  0
  5  1  2  0
  6  5  1  0
  6 10  2  0
  7  2  2  0
  7 11  1  0
  8  3  2  0
  9  8  1  0
  9  4  2  0
 10  7  1  0
 12 11  1  0
 13 12  1  0
 14 25  2  0
 15 13  1  0
 15 20  1  0
 16 24  1  0
 16 26  1  0
 17 23  1  0
 17 19  1  0
 18 24  1  0
 19 20  2  0
 19 18  1  0
 21 22  1  0
 21 15  2  0
 22 17  2  0
 23 16  1  0
 24 14  1  0
 26 28  2  0
 27 26  1  0
 29 27  1  0
 30 39  2  0
 30 35  1  0
 31 27  1  0
 31 35  1  0
 32 31  1  0
 33 34  1  0
 33 32  1  0
 34 30  1  0
 35 36  2  0
 36 37  1  0
 38 37  2  0
 39 38  1  0
 40 14  1  0
 40 41  1  0
 40 50  1  0
 41 44  1  0
 42 46  1  0
 42 41  1  0
 43 42  2  0
 46 45  1  0
 48 46  1  0
 48 49  1  0
 48 47  1  0
 50 53  1  1
 50 51  1  0
 52 50  1  0
 54  8  1  0
 54 55  1  0
 56 62  1  0
 57 62  1  0
 58 59  1  0
 58 57  1  0
 60 59  1  0
 60 69  1  0
 60 61  1  0
 62 61  1  0
 63 56  2  0
 64 55  1  0
 64 56  1  0
 65 64  1  0
 66 67  2  0
 67 86  1  0
 68 67  1  0
 68 71  1  0
 69 70  1  0
 69 66  1  0
 70 68  2  0
 71 72  1  0
 72 73  2  0
 74 77  1  0
 74 73  1  0
 75 74  2  0
 76 75  1  0
 76 71  2  0
 77 78  1  0
 78 79  1  0
 79 80  2  0
 81 80  1  0
 81 85  1  0
 82 81  2  0
 83 78  2  0
 83 82  1  0
 84 83  1  0
 86 87  1  0
 87 90  1  0
 87 89  1  0
 88 86  2  0
 91 66  1  0
 91 92  1  0
 93 91  1  0
 94  9  1  0
 95 97  1  0
 96 97  1  0
 97 94  1  0
 98 10  1  0
 99101  1  0
101100  1  0
101 98  1  0
M  ISO  4  12 101  13 101  56 100  64 100
M  END
>  <TORSDO>  (26) 
F 24

>  <SCORE>  (26) 
-9.386

>  <name>  (26) 
25

>  <ligand_id>  (26) 
25

>  <original_smiles>  (26) 
[H]c1c([H])c([H])c2c(c1[H])C([H])([H])C([H])([H])C([H])([H])C2([H])N([H])C(=O)C1([H])N(C(=O)C([H])(N([H])C(=O)C([H])(N([H])C([H])([H])[H])C([H])([H])[H])C(C([H])([H])[H])(C([H])([H])[H])C([H])([H])[H])C([H])([H])c2c([H])c(OC([H])([H])C([H])([H])c3c([H])c([H])c4c([H])c(C([H])([H])C([H])([H])N([H])C(=O)N5C([H])([H])C([H])([H])C([H])([H])C([H])(n6nc(-c7c([H])c([H])c(Oc8c([H])c([H])c(F)c([H])c8F)c([H])c7[H])c(C(=O)N([H])[H])c6N([H])[H])C5([H])[H])c(C([H])([H])C([H])(C([H])([H])[H])C([H])([H])[H])c([H])c4c3C([H])([H])C([H])(C([H])([H])[H])C([H])([H])[H])c([H])c([H])c2C1([H])[H]

>  <smiles>  (26) 
[H]c1c([H])c([H])c2c(c1[H])C([H])([H])C([H])([H])C([H])([H])C2([H])N([H])C(=O)C1([H])N(C(=O)C([H])(N([H])C(=O)C([H])(N([H])C([H])([H])[H])C([H])([H])[H])C(C([H])([H])[H])(C([H])([H])[H])C([H])([H])[H])C([H])([H])c2c([H])c(OC([H])([H])C([H])([H])c3c([H])c([H])c4c([H])c(C([H])([H])C([H])([H])N([H])C(=O)N5C([H])([H])C([H])([H])C([H])([H])C([H])(n6nc(-c7c([H])c([H])c(Oc8c([H])c([H])c(F)c([H])c8F)c([H])c7[H])c(C(=O)N([H])[H])c6N([H])[H])C5([H])[H])c(C([H])([H])C([H])(C([H])([H])[H])C([H])([H])[H])c([H])c4c3C([H])([H])C([H])(C([H])([H])[H])C([H])([H])[H])c([H])c([H])c2C1([H])[H]

$$$$
26:0:0
     RDKit          3D

 84 88  0  0  1  0  0  0  0  0999 V2000
  -28.9170  -21.4610   19.5990 C   0  0  0  0  0 15  0  0  0  0  0  0
  -29.4910  -19.5500   21.5430 C   0  0  0  0  0  1  0  0  0  0  0  0
  -31.2320  -19.8790   19.7960 C   0  0  0  0  0  1  0  0  0  0  0  0
  -29.7450  -19.5740   20.0290 C   0  0  0  0  0  3  0  0  0  0  0  0
  -30.4530  -16.2160   19.6660 C   0  0  0  0  0  0  0  0  0  0  0  0
  -30.6050  -13.5860   18.8560 C   0  0  0  0  0  2  0  0  0  0  0  0
  -29.6800  -12.9640   17.7570 C   0  0  0  0  0  2  0  0  0  0  0  0
  -28.3270  -12.5320   18.3350 C   0  0  0  0  0  2  0  0  0  0  0  0
  -27.8220  -13.5740   19.3520 C   0  0  0  0  0  3  0  0  0  0  0  0
  -28.9000  -14.0630   20.3590 C   0  0  0  0  0  2  0  0  0  0  0  0
  -29.9460  -14.7990   19.5780 N   0  0  0  0  0  0  0  0  0  0  0  0
  -31.6940  -16.0660   19.5620 O   0  0  0  0  0  0  0  0  0  0  0  0
  -29.7180  -17.6950   19.6770 N   0  0  0  0  0  0  0  0  0  0  0  0
  -28.7460  -17.4630   19.5220 H   0  0  0  0  0  0  0  0  0  0  0  0
  -25.5350  -14.0830   20.3070 C   0  0  0  0  0  0  0  0  0  0  0  0
  -24.4990  -13.3010   20.7260 C   0  0  0  0  0  0  0  0  0  0  0  0
  -24.9560  -11.9500   20.6310 C   0  0  0  0  0  0  0  0  0  0  0  0
  -26.5550  -13.2150   19.9720 N   0  0  0  0  0  0  0  0  0  0  0  0
  -26.2260  -11.9200   20.2300 N   0  0  0  0  0  0  0  0  0  0  0  0
  -24.2290  -10.6900   20.8400 C   0  0  0  0  0  0  0  0  0  0  0  0
  -24.6520   -9.7380   21.7940 C   0  0  0  0  0  3  0  0  0  0  0  0
  -23.9180   -8.5490   21.9940 C   0  0  0  0  0  3  0  0  0  0  0  0
  -22.7460   -8.3020   21.2420 C   0  0  0  0  0  0  0  0  0  0  0  0
  -22.3390   -9.2410   20.2790 C   0  0  0  0  0  3  0  0  0  0  0  0
  -23.0740  -10.4220   20.0760 C   0  0  0  0  0  3  0  0  0  0  0  0
  -21.9850   -7.1630   21.3520 O   0  0  0  0  0  0  0  0  0  0  0  0
  -21.8690   -6.4840   22.5390 C   0  0  0  0  0  0  0  0  0  0  0  0
  -21.3100   -7.0860   23.6880 C   0  0  0  0  0  3  0  0  0  0  0  0
  -21.1440   -6.3310   24.8660 C   0  0  0  0  0  3  0  0  0  0  0  0
  -21.5280   -4.9770   24.8970 C   0  0  0  0  0  0  0  0  0  0  0  0
  -22.0830   -4.3760   23.7530 C   0  0  0  0  0  3  0  0  0  0  0  0
  -22.2490   -5.1270   22.5760 C   0  0  0  0  0  0  0  0  0  0  0  0
  -22.7630   -4.5370   21.4700 F   0  0  0  0  0  0  0  0  0  0  0  0
  -21.3630   -4.2500   26.0270 F   0  0  0  0  0  0  0  0  0  0  0  0
  -23.1260  -13.7830   21.0910 C   0  0  0  0  0  0  0  0  0  0  0  0
  -22.4560  -13.0910   22.0050 N   0  0  0  0  0  0  0  0  0  0  0  0
  -22.6610  -14.8120   20.6010 O   0  0  0  0  0  0  0  0  0  0  0  0
  -22.8480  -12.2600   22.4210 H   0  0  0  0  0  0  0  0  0  0  0  0
  -21.5380  -13.4000   22.2940 H   0  0  0  0  0  0  0  0  0  0  0  0
  -25.6860  -15.4570   20.1480 N   0  0  0  0  0  0  0  0  0  0  0  0
  -24.9250  -16.1030   20.3260 H   0  0  0  0  0  0  0  0  0  0  0  0
  -26.5080  -15.9070   19.7650 H   0  0  0  0  0  0  0  0  0  0  0  0
  -28.4070  -23.3990   20.2720 C   0  0  0  0  0 15  0  0  0  0  0  0
  -28.3200  -25.2880   20.0760 O   0  0  0  0  0  1  0  0  0  0  0  0
  -24.5610  -31.7740   23.0230 C   0  0  0  0  0  0  0  0  0  0  0  0
  -27.3040  -26.5620   20.1160 C   0  0  0  0  0  0  0  0  0  0  0  0
  -23.4570  -30.3210   21.3820 C   0  0  0  0  0  3  0  0  0  0  0  0
  -24.9810  -28.6720   20.0170 C   0  0  0  0  0  0  0  0  0  0  0  0
  -26.0430  -30.4870   21.3190 C   0  0  0  0  0  2  0  0  0  0  0  0
  -26.1640  -29.0270   20.6730 C   0  0  0  0  0  0  0  0  0  0  0  0
  -27.2990  -28.0110   20.6750 C   0  0  0  0  0  3  0  0  0  0  0  0
  -26.0670  -26.4800   19.4040 C   0  0  0  0  0  3  0  0  0  0  0  0
  -24.9860  -27.4290   19.3560 C   0  0  0  0  0  3  0  0  0  0  0  0
  -23.7520  -29.6120   20.0270 C   0  0  0  0  0  2  0  0  0  0  0  0
  -24.7120  -30.9020   21.9600 N   0  0  0  0  0  0  0  0  0  0  0  0
  -23.4460  -32.0450   23.5060 O   0  0  0  0  0  0  0  0  0  0  0  0
  -22.7400  -29.3430   22.3550 C   0  0  0  0  0  0  0  0  0  0  0  0
  -21.4090  -29.1730   22.2360 N   0  0  0  0  0  0  0  0  0  0  0  0
  -23.4030  -28.7270   23.1940 O   0  0  0  0  0  0  0  0  0  0  0  0
  -20.9200  -29.7200   21.5400 H   0  0  0  0  0  0  0  0  0  0  0  0
  -18.0380  -27.9110   22.7850 C   0  0  0  0  0  0  0  0  0  0  0  0
  -20.6000  -28.2160   23.0050 C   0  0  0  0  0  3  0  0  0  0  0  0
  -20.7100  -26.7930   22.4070 C   0  0  0  0  0  2  0  0  0  0  0  0
  -19.5970  -26.4720   21.4050 C   0  0  0  0  0  2  0  0  0  0  0  0
  -18.2240  -26.5800   22.0740 C   0  0  0  0  0  2  0  0  0  0  0  0
  -19.1520  -28.6870   23.2070 C   0  0  0  0  0  0  0  0  0  0  0  0
  -18.9190  -29.9260   23.8400 C   0  0  0  0  0  3  0  0  0  0  0  0
  -17.6090  -30.3950   24.0480 C   0  0  0  0  0  3  0  0  0  0  0  0
  -16.5100  -29.6180   23.6370 C   0  0  0  0  0  3  0  0  0  0  0  0
  -16.7260  -28.3780   23.0120 C   0  0  0  0  0  3  0  0  0  0  0  0
  -25.7780  -32.4880   23.6860 C   0  0  0  0  0  3  0  0  0  0  0  0
  -25.3960  -33.8840   23.9940 N   0  0  0  0  0  0  0  0  0  0  0  0
  -25.7140  -34.9580   23.2580 C   0  0  0  0  0  0  0  0  0  0  0  0
  -26.4120  -34.8800   22.2450 O   0  0  0  0  0  0  0  0  0  0  0  0
  -24.7720  -34.0120   24.7780 H   0  0  0  0  0  0  0  0  0  0  0  0
  -23.9490  -36.7210   22.8780 C   0  0  0  0  0  1  0  0  0  0  0  0
  -25.1810  -36.3350   23.7140 C   0  0  0  0  0  3  0  0  0  0  0  0
  -27.2580  -37.2920   24.6150 C   0  0  0  0  0  1  0  0  0  0  0  0
  -26.1870  -37.4180   23.6300 N   0  0  0  0  0  0  0  0  0  0  0  0
  -25.7500  -38.3270   23.7510 H   0  0  0  0  0  0  0  0  0  0  0  0
  -26.2630  -31.7730   25.0100 C   0  0  1  0  0  0  0  0  0  0  0  0
  -25.1320  -31.5180   26.0340 C   0  0  0  0  0  1  0  0  0  0  0  0
  -26.9210  -30.4110   24.6990 C   0  0  0  0  0  1  0  0  0  0  0  0
  -27.3470  -32.6330   25.7030 C   0  0  0  0  0  1  0  0  0  0  0  0
  3  4  1  0
  4  2  1  0
  5 13  1  0
  6 11  1  0
  7  8  1  0
  7  6  1  0
  9  8  1  0
  9 18  1  0
  9 10  1  0
 11  5  1  0
 11 10  1  0
 12  5  2  0
 13  4  1  0
 14 13  1  0
 15 16  2  0
 16 35  1  0
 17 16  1  0
 17 20  1  0
 18 19  1  0
 18 15  1  0
 19 17  2  0
 20 21  1  0
 21 22  2  0
 23 26  1  0
 23 22  1  0
 24 23  2  0
 25 24  1  0
 25 20  2  0
 26 27  1  0
 27 32  2  0
 27 28  1  0
 28 29  2  0
 29 30  1  0
 30 34  1  0
 31 30  2  0
 32 31  1  0
 33 32  1  0
 35 36  1  0
 36 39  1  0
 36 38  1  0
 37 35  2  0
 40 15  1  0
 40 41  1  0
 42 40  1  0
 44 46  1  0
 45 56  2  0
 46 51  1  0
 47 55  1  0
 47 57  1  0
 48 54  1  0
 48 50  1  0
 49 55  1  0
 50 51  2  0
 50 49  1  0
 52 46  2  0
 53 52  1  0
 53 48  2  0
 54 47  1  0
 55 45  1  0
 57 59  2  0
 58 57  1  0
 60 58  1  0
 61 70  2  0
 61 66  1  0
 62 58  1  0
 62 66  1  0
 63 62  1  0
 64 65  1  0
 64 63  1  0
 65 61  1  0
 66 67  2  0
 67 68  1  0
 69 68  2  0
 70 69  1  0
 71 45  1  0
 71 72  1  0
 71 81  1  0
 72 75  1  0
 73 77  1  0
 73 72  1  0
 74 73  2  0
 77 76  1  0
 79 77  1  0
 79 80  1  0
 79 78  1  0
 81 84  1  1
 81 82  1  0
 83 81  1  0
M  ISO  4   5 100  13 100  43 101  44 101
M  END
>  <TORSDO>  (27) 
F 18

>  <SCORE>  (27) 
-15.259

>  <name>  (27) 
26

>  <ligand_id>  (27) 
26

>  <original_smiles>  (27) 
[H]c1c([H])c([H])c2c(c1[H])C([H])([H])C([H])([H])C([H])([H])C2([H])N([H])C(=O)C1([H])N(C(=O)C([H])(N([H])C(=O)C([H])(N([H])C([H])([H])[H])C([H])([H])[H])C(C([H])([H])[H])(C([H])([H])[H])C([H])([H])[H])C([H])([H])c2c([H])c(OC([H])([H])C([H])([H])C(N([H])C(=O)N3C([H])([H])C([H])([H])C([H])([H])C([H])(n4nc(-c5c([H])c([H])c(Oc6c([H])c([H])c(F)c([H])c6F)c([H])c5[H])c(C(=O)N([H])[H])c4N([H])[H])C3([H])[H])(C([H])([H])[H])C([H])([H])[H])c([H])c([H])c2C1([H])[H]

>  <smiles>  (27) 
[H]c1c([H])c([H])c2c(c1[H])C([H])([H])C([H])([H])C([H])([H])C2([H])N([H])C(=O)C1([H])N(C(=O)C([H])(N([H])C(=O)C([H])(N([H])C([H])([H])[H])C([H])([H])[H])C(C([H])([H])[H])(C([H])([H])[H])C([H])([H])[H])C([H])([H])c2c([H])c(OC([H])([H])C([H])([H])C(N([H])C(=O)N3C([H])([H])C([H])([H])C([H])([H])C([H])(n4nc(-c5c([H])c([H])c(Oc6c([H])c([H])c(F)c([H])c6F)c([H])c5[H])c(C(=O)N([H])[H])c4N([H])[H])C3([H])[H])(C([H])([H])[H])C([H])([H])[H])c([H])c([H])c2C1([H])[H]

$$$$
27:0:0
     RDKit          3D

 93101  0  0  1  0  0  0  0  0999 V2000
  -28.7700  -21.8500   20.3420 C   0  0  0  0  0  2  0  0  0  0  0  0
  -29.5410  -19.4820   19.7260 C   0  0  0  0  0  3  0  0  0  0  0  0
  -30.2330  -18.4300   20.2860 C   0  0  0  0  0  0  0  0  0  0  0  0
  -30.5680  -18.8560   21.6080 C   0  0  0  0  0  0  0  0  0  0  0  0
  -30.1200  -20.1490   21.7720 C   0  0  0  0  0  0  0  0  0  0  0  0
  -31.3330  -18.0600   22.6380 C   0  0  0  0  0  1  0  0  0  0  0  0
  -30.3110  -21.0420   22.9660 C   0  0  0  0  0  1  0  0  0  0  0  0
  -29.4630  -20.5550   20.6110 N   0  0  0  0  0  0  0  0  0  0  0  0
  -30.6460  -17.1340   19.5550 C   0  0  0  0  0  2  0  0  0  0  0  0
  -30.9660  -14.6860   19.8420 C   0  0  0  0  0  0  0  0  0  0  0  0
  -30.6880  -12.3930   18.9790 C   0  0  0  0  0  2  0  0  0  0  0  0
  -29.7230  -12.4400   17.7750 C   0  0  0  0  0  2  0  0  0  0  0  0
  -28.2590  -12.3350   18.2450 C   0  0  0  0  0  2  0  0  0  0  0  0
  -27.9340  -13.2950   19.4220 C   0  0  0  0  0  3  0  0  0  0  0  0
  -29.0150  -13.2330   20.5240 C   0  0  0  0  0  2  0  0  0  0  0  0
  -30.3130  -13.4900   19.8900 N   0  0  0  0  0  0  0  0  0  0  0  0
  -32.1130  -14.7790   19.3990 O   0  0  0  0  0  0  0  0  0  0  0  0
  -30.2270  -15.8040   20.0630 N   0  0  0  0  0  0  0  0  0  0  0  0
  -29.2770  -15.7010   20.3810 H   0  0  0  0  0  0  0  0  0  0  0  0
  -25.5960  -13.9650   20.2460 C   0  0  0  0  0  0  0  0  0  0  0  0
  -24.5230  -13.2220   20.6610 C   0  0  0  0  0  0  0  0  0  0  0  0
  -24.9440  -11.8580   20.6050 C   0  0  0  0  0  0  0  0  0  0  0  0
  -26.5990  -13.0550   19.9620 N   0  0  0  0  0  0  0  0  0  0  0  0
  -26.2160  -11.7810   20.2380 N   0  0  0  0  0  0  0  0  0  0  0  0
  -24.1900  -10.6150   20.8190 C   0  0  0  0  0  0  0  0  0  0  0  0
  -24.5940   -9.6650   21.7830 C   0  0  0  0  0  3  0  0  0  0  0  0
  -23.8440   -8.4850   21.9870 C   0  0  0  0  0  3  0  0  0  0  0  0
  -22.6740   -8.2510   21.2270 C   0  0  0  0  0  0  0  0  0  0  0  0
  -22.2890   -9.1860   20.2500 C   0  0  0  0  0  3  0  0  0  0  0  0
  -23.0410  -10.3560   20.0460 C   0  0  0  0  0  3  0  0  0  0  0  0
  -21.8960   -7.1230   21.3380 O   0  0  0  0  0  0  0  0  0  0  0  0
  -21.7610   -6.4570   22.5290 C   0  0  0  0  0  0  0  0  0  0  0  0
  -21.2740   -7.0950   23.6910 C   0  0  0  0  0  3  0  0  0  0  0  0
  -21.0860   -6.3530   24.8730 C   0  0  0  0  0  3  0  0  0  0  0  0
  -21.3730   -4.9760   24.8950 C   0  0  0  0  0  0  0  0  0  0  0  0
  -21.8530   -4.3380   23.7380 C   0  0  0  0  0  3  0  0  0  0  0  0
  -22.0440   -5.0760   22.5580 C   0  0  0  0  0  0  0  0  0  0  0  0
  -22.4860   -4.4520   21.4390 F   0  0  0  0  0  0  0  0  0  0  0  0
  -21.1880   -4.2610   26.0300 F   0  0  0  0  0  0  0  0  0  0  0  0
  -23.1530  -13.7350   20.9950 C   0  0  0  0  0  0  0  0  0  0  0  0
  -22.4530  -13.0720   21.9080 N   0  0  0  0  0  0  0  0  0  0  0  0
  -22.7120  -14.7610   20.4790 O   0  0  0  0  0  0  0  0  0  0  0  0
  -22.8190  -12.2410   22.3490 H   0  0  0  0  0  0  0  0  0  0  0  0
  -21.5320  -13.3980   22.1680 H   0  0  0  0  0  0  0  0  0  0  0  0
  -25.7930  -15.3300   20.0640 N   0  0  0  0  0  0  0  0  0  0  0  0
  -25.0580  -16.0110   20.2200 H   0  0  0  0  0  0  0  0  0  0  0  0
  -26.6400  -15.7470   19.6980 H   0  0  0  0  0  0  0  0  0  0  0  0
  -30.5900  -23.4940   21.1580 C   0  0  0  0  0  1  0  0  0  0  0  0
  -29.6880  -23.0670   19.9820 C   0  0  0  0  0  3  0  0  0  0  0  0
  -30.0640  -25.0140   18.3630 C   0  0  0  0  0  1  0  0  0  0  0  0
  -29.0080  -24.2960   19.2340 C   0  0  0  0  0  3  0  0  0  0  0  0
  -28.2130  -25.3440   20.0950 C   0  0  0  0  0  2  0  0  0  0  0  0
  -28.1720  -26.6780   19.5170 O   0  0  0  0  0  0  0  0  0  0  0  0
  -24.4940  -31.7180   23.0360 C   0  0  0  0  0  0  0  0  0  0  0  0
  -27.0020  -27.4110   19.6390 C   0  0  0  0  0  0  0  0  0  0  0  0
  -23.2150  -30.3870   21.3900 C   0  0  0  0  0  3  0  0  0  0  0  0
  -24.6050  -28.9200   19.8300 C   0  0  0  0  0  0  0  0  0  0  0  0
  -25.7300  -30.7650   21.0880 C   0  0  0  0  0  2  0  0  0  0  0  0
  -25.7910  -29.4220   20.3800 C   0  0  0  0  0  0  0  0  0  0  0  0
  -26.9940  -28.6800   20.2730 C   0  0  0  0  0  3  0  0  0  0  0  0
  -25.7980  -26.9310   19.0800 C   0  0  0  0  0  3  0  0  0  0  0  0
  -24.6050  -27.6740   19.1760 C   0  0  0  0  0  3  0  0  0  0  0  0
  -23.3610  -29.7720   19.9730 C   0  0  0  0  0  2  0  0  0  0  0  0
  -24.5000  -30.9700   21.8950 N   0  0  0  0  0  0  0  0  0  0  0  0
  -23.4380  -31.9570   23.6390 O   0  0  0  0  0  0  0  0  0  0  0  0
  -22.6150  -29.3190   22.3330 C   0  0  0  0  0  0  0  0  0  0  0  0
  -21.2910  -29.1080   22.2350 N   0  0  0  0  0  0  0  0  0  0  0  0
  -23.3360  -28.6840   23.1070 O   0  0  0  0  0  0  0  0  0  0  0  0
  -20.7680  -29.6750   21.5820 H   0  0  0  0  0  0  0  0  0  0  0  0
  -17.9750  -27.7600   22.7270 C   0  0  0  0  0  0  0  0  0  0  0  0
  -20.5200  -28.1230   22.9930 C   0  0  0  0  0  3  0  0  0  0  0  0
  -20.6820  -26.7070   22.3910 C   0  0  0  0  0  2  0  0  0  0  0  0
  -19.5900  -26.3550   21.3750 C   0  0  0  0  0  2  0  0  0  0  0  0
  -18.2060  -26.4300   22.0270 C   0  0  0  0  0  2  0  0  0  0  0  0
  -19.0620  -28.5610   23.1660 C   0  0  0  0  0  0  0  0  0  0  0  0
  -18.7920  -29.8050   23.7780 C   0  0  0  0  0  3  0  0  0  0  0  0
  -17.4690  -30.2470   23.9570 C   0  0  0  0  0  3  0  0  0  0  0  0
  -16.3960  -29.4430   23.5350 C   0  0  0  0  0  3  0  0  0  0  0  0
  -16.6500  -28.2010   22.9270 C   0  0  0  0  0  3  0  0  0  0  0  0
  -25.8040  -32.3280   23.6230 C   0  0  0  0  0  3  0  0  0  0  0  0
  -25.5020  -33.7050   24.0410 N   0  0  0  0  0  0  0  0  0  0  0  0
  -25.8100  -34.8000   23.3340 C   0  0  0  0  0  0  0  0  0  0  0  0
  -26.4480  -34.7580   22.2780 O   0  0  0  0  0  0  0  0  0  0  0  0
  -24.9300  -33.8100   24.8660 H   0  0  0  0  0  0  0  0  0  0  0  0
  -24.0630  -36.5990   23.1420 C   0  0  0  0  0  1  0  0  0  0  0  0
  -25.3340  -36.1590   23.8860 C   0  0  0  0  0  3  0  0  0  0  0  0
  -27.4970  -37.0040   24.6830 C   0  0  0  0  0  1  0  0  0  0  0  0
  -26.3580  -37.2210   23.7950 N   0  0  0  0  0  0  0  0  0  0  0  0
  -25.9560  -38.1290   24.0120 H   0  0  0  0  0  0  0  0  0  0  0  0
  -26.3940  -31.4960   24.8270 C   0  0  1  0  0  0  0  0  0  0  0  0
  -25.3620  -31.1950   25.9390 C   0  0  0  0  0  1  0  0  0  0  0  0
  -26.9610  -30.1450   24.3310 C   0  0  0  0  0  1  0  0  0  0  0  0
  -27.5750  -32.2640   25.4670 C   0  0  0  0  0  1  0  0  0  0  0  0
  1  8  1  0
  2  3  2  0
  2  8  1  0
  3  4  1  0
  4  5  2  0
  4  6  1  0
  5  7  1  0
  8  5  1  0
  9 18  1  0
  9  3  1  0
 10 16  1  0
 10 18  1  0
 11 16  1  0
 12 13  1  0
 12 11  1  0
 14 13  1  0
 14 23  1  0
 14 15  1  0
 16 15  1  0
 17 10  2  0
 18 19  1  0
 20 21  2  0
 21 40  1  0
 22 21  1  0
 22 25  1  0
 23 24  1  0
 23 20  1  0
 24 22  2  0
 25 26  1  0
 26 27  2  0
 28 31  1  0
 28 27  1  0
 29 28  2  0
 30 29  1  0
 30 25  2  0
 31 32  1  0
 32 37  2  0
 32 33  1  0
 33 34  2  0
 34 35  1  0
 35 39  1  0
 36 35  2  0
 37 36  1  0
 38 37  1  0
 40 41  1  0
 41 44  1  0
 41 43  1  0
 42 40  2  0
 45 46  1  0
 45 20  1  0
 47 45  1  0
 49  1  1  0
 49 48  1  0
 51 50  1  0
 51 49  1  0
 51 52  1  0
 53 55  1  0
 53 52  1  0
 54 65  2  0
 55 60  1  0
 56 64  1  0
 56 66  1  0
 57 63  1  0
 57 59  1  0
 58 64  1  0
 59 58  1  0
 60 59  2  0
 61 62  1  0
 61 55  2  0
 62 57  2  0
 63 56  1  0
 64 54  1  0
 66 68  2  0
 67 66  1  0
 69 67  1  0
 70 79  2  0
 70 75  1  0
 71 67  1  0
 71 75  1  0
 72 71  1  0
 73 74  1  0
 73 72  1  0
 74 70  1  0
 75 76  2  0
 76 77  1  0
 78 77  2  0
 79 78  1  0
 80 54  1  0
 80 81  1  0
 80 90  1  0
 81 84  1  0
 82 86  1  0
 82 81  1  0
 83 82  2  0
 86 85  1  0
 88 86  1  0
 88 89  1  0
 88 87  1  0
 90 93  1  1
 90 91  1  0
 92 90  1  0
M  ISO  4  10 100  18 100  52 101  53 101
M  END
>  <TORSDO>  (28) 
F 21

>  <SCORE>  (28) 
-12.618

>  <name>  (28) 
27

>  <ligand_id>  (28) 
27

>  <original_smiles>  (28) 
[H]c1c([H])c([H])c2c(c1[H])C([H])([H])C([H])([H])C([H])([H])C2([H])N([H])C(=O)C1([H])N(C(=O)C([H])(N([H])C(=O)C([H])(N([H])C([H])([H])[H])C([H])([H])[H])C(C([H])([H])[H])(C([H])([H])[H])C([H])([H])[H])C([H])([H])c2c([H])c(OC([H])([H])C([H])(C([H])([H])[H])C([H])(C([H])([H])[H])C([H])([H])n3c([H])c(C([H])([H])N([H])C(=O)N4C([H])([H])C([H])([H])C([H])([H])C([H])(n5nc(-c6c([H])c([H])c(Oc7c([H])c([H])c(F)c([H])c7F)c([H])c6[H])c(C(=O)N([H])[H])c5N([H])[H])C4([H])[H])c(C([H])([H])[H])c3C([H])([H])[H])c([H])c([H])c2C1([H])[H]

>  <smiles>  (28) 
[H]c1c([H])c([H])c2c(c1[H])C([H])([H])C([H])([H])C([H])([H])C2([H])N([H])C(=O)C1([H])N(C(=O)C([H])(N([H])C(=O)C([H])(N([H])C([H])([H])[H])C([H])([H])[H])C(C([H])([H])[H])(C([H])([H])[H])C([H])([H])[H])C([H])([H])c2c([H])c(OC([H])([H])C([H])(C([H])([H])[H])C([H])(C([H])([H])[H])C([H])([H])n3c([H])c(C([H])([H])N([H])C(=O)N4C([H])([H])C([H])([H])C([H])([H])C([H])(n5nc(-c6c([H])c([H])c(Oc7c([H])c([H])c(F)c([H])c7F)c([H])c6[H])c(C(=O)N([H])[H])c5N([H])[H])C4([H])[H])c(C([H])([H])[H])c3C([H])([H])[H])c([H])c([H])c2C1([H])[H]

$$$$
28:0:0
     RDKit          3D

 92100  0  0  1  0  0  0  0  0999 V2000
  -28.4170  -17.7040   18.3350 C   0  0  0  0  0  3  0  0  0  0  0  0
  -27.8810  -18.9210   20.3600 C   0  0  0  0  0  3  0  0  0  0  0  0
  -27.4520  -18.2910   19.1790 C   0  0  0  0  0  0  0  0  0  0  0  0
  -29.7420  -17.5210   18.7900 C   0  0  0  0  0  0  0  0  0  0  0  0
  -29.2580  -18.9400   20.6520 C   0  0  0  0  0  3  0  0  0  0  0  0
  -30.0090  -17.7270   20.1680 C   0  0  0  0  0  3  0  0  0  0  0  0
  -26.0100  -18.4200   18.7290 C   0  0  0  0  0  1  0  0  0  0  0  0
  -30.7630  -16.9120   17.8430 C   0  0  0  0  0  1  0  0  0  0  0  0
  -30.7190  -15.1390   20.5850 C   0  0  0  0  0  0  0  0  0  0  0  0
  -30.6410  -12.7820   19.6590 C   0  0  0  0  0  2  0  0  0  0  0  0
  -29.7450  -12.7260   18.3990 C   0  0  0  0  0  2  0  0  0  0  0  0
  -28.2730  -12.5000   18.7890 C   0  0  0  0  0  2  0  0  0  0  0  0
  -27.8210  -13.4210   19.9540 C   0  0  0  0  0  3  0  0  0  0  0  0
  -28.8480  -13.4520   21.1110 C   0  0  0  0  0  2  0  0  0  0  0  0
  -30.1340  -13.8730   20.5450 N   0  0  0  0  0  0  0  0  0  0  0  0
  -31.9200  -15.1990   20.2990 O   0  0  0  0  0  0  0  0  0  0  0  0
  -29.9500  -16.3220   20.7920 N   0  0  0  0  0  0  0  0  0  0  0  0
  -29.0580  -16.1250   21.2210 H   0  0  0  0  0  0  0  0  0  0  0  0
  -25.4170  -13.9470   20.6630 C   0  0  0  0  0  0  0  0  0  0  0  0
  -24.3610  -13.1530   21.0040 C   0  0  0  0  0  0  0  0  0  0  0  0
  -24.8480  -11.8100   20.9700 C   0  0  0  0  0  0  0  0  0  0  0  0
  -26.4790  -13.0910   20.4250 N   0  0  0  0  0  0  0  0  0  0  0  0
  -26.1440  -11.7990   20.6770 N   0  0  0  0  0  0  0  0  0  0  0  0
  -24.1380  -10.5320   21.1310 C   0  0  0  0  0  0  0  0  0  0  0  0
  -24.5590   -9.5620   22.0670 C   0  0  0  0  0  3  0  0  0  0  0  0
  -23.8400   -8.3560   22.2170 C   0  0  0  0  0  3  0  0  0  0  0  0
  -22.6910   -8.1070   21.4280 C   0  0  0  0  0  0  0  0  0  0  0  0
  -22.2930   -9.0640   20.4780 C   0  0  0  0  0  3  0  0  0  0  0  0
  -23.0130  -10.2620   20.3260 C   0  0  0  0  0  3  0  0  0  0  0  0
  -21.9550   -6.9490   21.4820 O   0  0  0  0  0  0  0  0  0  0  0  0
  -21.8580   -6.2150   22.6360 C   0  0  0  0  0  0  0  0  0  0  0  0
  -21.3270   -6.7610   23.8250 C   0  0  0  0  0  3  0  0  0  0  0  0
  -21.1840   -5.9520   24.9690 C   0  0  0  0  0  3  0  0  0  0  0  0
  -21.5570   -4.5950   24.9240 C   0  0  0  0  0  0  0  0  0  0  0  0
  -22.0780   -4.0490   23.7380 C   0  0  0  0  0  3  0  0  0  0  0  0
  -22.2270   -4.8570   22.5990 C   0  0  0  0  0  0  0  0  0  0  0  0
  -22.7140   -4.3180   21.4560 F   0  0  0  0  0  0  0  0  0  0  0  0
  -21.4100   -3.8160   26.0200 F   0  0  0  0  0  0  0  0  0  0  0  0
  -22.9490  -13.6080   21.2430 C   0  0  0  0  0  0  0  0  0  0  0  0
  -22.2080  -12.8980   22.0870 N   0  0  0  0  0  0  0  0  0  0  0  0
  -22.5110  -14.6300   20.7180 O   0  0  0  0  0  0  0  0  0  0  0  0
  -22.5680  -12.0650   22.5270 H   0  0  0  0  0  0  0  0  0  0  0  0
  -21.2590  -13.1820   22.2830 H   0  0  0  0  0  0  0  0  0  0  0  0
  -25.5580  -15.3220   20.5030 N   0  0  0  0  0  0  0  0  0  0  0  0
  -24.7940  -15.9650   20.6750 H   0  0  0  0  0  0  0  0  0  0  0  0
  -26.3830  -15.7810   20.1400 H   0  0  0  0  0  0  0  0  0  0  0  0
  -29.7800  -20.4930   20.8610 C   0  0  0  0  0  3  0  0  0  0  0  0
  -28.7950  -21.8710   20.6790 C   0  0  0  0  0  3  0  0  0  0  0  0
  -29.9550  -23.7250   22.1240 C   0  0  0  0  0  1  0  0  0  0  0  0
  -29.2180  -23.5110   20.7900 C   0  0  0  0  0  3  0  0  0  0  0  0
  -28.1300  -24.7900   20.5460 C   0  0  0  0  0  2  0  0  0  0  0  0
  -28.3870  -26.3320   20.5880 O   0  0  0  0  0  0  0  0  0  0  0  0
  -24.7020  -32.0550   23.4080 C   0  0  0  0  0  0  0  0  0  0  0  0
  -27.3220  -27.3050   20.4830 C   0  0  0  0  0  0  0  0  0  0  0  0
  -23.5240  -30.6450   21.7640 C   0  0  0  0  0  3  0  0  0  0  0  0
  -24.9900  -29.0490   20.3790 C   0  0  0  0  0  0  0  0  0  0  0  0
  -26.0780  -30.9080   21.6290 C   0  0  0  0  0  2  0  0  0  0  0  0
  -26.1610  -29.5080   20.9960 C   0  0  0  0  0  0  0  0  0  0  0  0
  -27.3290  -28.6540   21.0260 C   0  0  0  0  0  3  0  0  0  0  0  0
  -26.1250  -26.9480   19.8210 C   0  0  0  0  0  3  0  0  0  0  0  0
  -24.9860  -27.7830   19.7750 C   0  0  0  0  0  3  0  0  0  0  0  0
  -23.7620  -29.9500   20.3980 C   0  0  0  0  0  2  0  0  0  0  0  0
  -24.7870  -31.2250   22.3240 N   0  0  0  0  0  0  0  0  0  0  0  0
  -23.6070  -32.3490   23.9150 O   0  0  0  0  0  0  0  0  0  0  0  0
  -22.8260  -29.6510   22.7290 C   0  0  0  0  0  0  0  0  0  0  0  0
  -21.5080  -29.4480   22.5540 N   0  0  0  0  0  0  0  0  0  0  0  0
  -23.4740  -29.0630   23.5960 O   0  0  0  0  0  0  0  0  0  0  0  0
  -21.0400  -29.9750   21.8300 H   0  0  0  0  0  0  0  0  0  0  0  0
  -18.1410  -28.1640   22.9340 C   0  0  0  0  0  0  0  0  0  0  0  0
  -20.6740  -28.5160   23.3170 C   0  0  0  0  0  3  0  0  0  0  0  0
  -20.8460  -27.0670   22.8020 C   0  0  0  0  0  2  0  0  0  0  0  0
  -19.8070  -26.6750   21.7480 C   0  0  0  0  0  2  0  0  0  0  0  0
  -18.3900  -26.7990   22.3180 C   0  0  0  0  0  2  0  0  0  0  0  0
  -19.2140  -28.9770   23.3890 C   0  0  0  0  0  0  0  0  0  0  0  0
  -18.9270  -30.2500   23.9270 C   0  0  0  0  0  3  0  0  0  0  0  0
  -17.6000  -30.7150   24.0130 C   0  0  0  0  0  3  0  0  0  0  0  0
  -16.5410  -29.9010   23.5720 C   0  0  0  0  0  3  0  0  0  0  0  0
  -16.8130  -28.6280   23.0400 C   0  0  0  0  0  3  0  0  0  0  0  0
  -25.9720  -32.6950   24.0480 C   0  0  0  0  0  3  0  0  0  0  0  0
  -26.4460  -31.9500   25.3570 C   0  0  1  0  0  0  0  0  0  0  0  0
  -25.3220  -31.7420   26.3990 C   0  0  0  0  0  1  0  0  0  0  0  0
  -27.0350  -30.5610   25.0180 C   0  0  0  0  0  1  0  0  0  0  0  0
  -27.5790  -32.7540   26.0340 C   0  0  0  0  0  1  0  0  0  0  0  0
  -25.6650  -34.1030   24.3400 N   0  0  0  0  0  0  0  0  0  0  0  0
  -25.9920  -35.1370   23.5520 C   0  0  0  0  0  0  0  0  0  0  0  0
  -26.6490  -35.0040   22.5160 O   0  0  0  0  0  0  0  0  0  0  0  0
  -25.0800  -34.2810   25.1430 H   0  0  0  0  0  0  0  0  0  0  0  0
  -24.2480  -36.9170   23.2020 C   0  0  0  0  0  1  0  0  0  0  0  0
  -25.5180  -36.5390   23.9810 C   0  0  0  0  0  3  0  0  0  0  0  0
  -27.6750  -37.4640   24.7070 C   0  0  0  0  0  1  0  0  0  0  0  0
  -26.5440  -37.5900   23.7950 N   0  0  0  0  0  0  0  0  0  0  0  0
  -26.1390  -38.5150   23.9160 H   0  0  0  0  0  0  0  0  0  0  0  0
  1  4  2  0
  1  3  1  0
  2  5  1  0
  3  2  2  0
  4  6  1  0
  5 47  1  0
  6  5  1  0
  6 17  1  0
  7  3  1  0
  8  4  1  0
  9 17  1  0
 10 15  1  0
 11 12  1  0
 11 10  1  0
 13 12  1  0
 13 22  1  0
 13 14  1  0
 15  9  1  0
 15 14  1  0
 16  9  2  0
 17 18  1  0
 19 20  2  0
 20 39  1  0
 21 20  1  0
 21 24  1  0
 22 19  1  0
 22 23  1  0
 23 21  2  0
 24 25  1  0
 25 26  2  0
 27 30  1  0
 27 26  1  0
 28 27  2  0
 29 28  1  0
 29 24  2  0
 30 31  1  0
 31 32  1  0
 32 33  2  0
 34 33  1  0
 34 38  1  0
 35 34  2  0
 36 31  2  0
 36 35  1  0
 37 36  1  0
 39 40  1  0
 40 43  1  0
 40 42  1  0
 41 39  2  0
 44 19  1  0
 44 45  1  0
 46 44  1  0
 48 50  1  0
 48 47  2  0
 50 49  1  0
 51 52  1  0
 51 50  1  0
 53 64  2  0
 54 52  1  0
 54 59  1  0
 55 63  1  0
 55 65  1  0
 56 62  1  0
 56 58  1  0
 57 63  1  0
 58 59  2  0
 58 57  1  0
 60 54  2  0
 61 60  1  0
 61 56  2  0
 62 55  1  0
 63 53  1  0
 65 67  2  0
 66 65  1  0
 68 66  1  0
 69 78  2  0
 69 74  1  0
 70 66  1  0
 70 74  1  0
 71 70  1  0
 72 73  1  0
 72 71  1  0
 73 69  1  0
 74 75  2  0
 75 76  1  0
 77 76  2  0
 78 77  1  0
 79 53  1  0
 79 84  1  0
 79 80  1  0
 80 83  1  1
 80 81  1  0
 82 80  1  0
 84 87  1  0
 85 89  1  0
 85 84  1  0
 86 85  2  0
 89 88  1  0
 91 92  1  0
 91 89  1  0
 91 90  1  0
M  ISO  4   9 100  17 100  51 101  52 101
M  END
>  <TORSDO>  (29) 
F 20

>  <SCORE>  (29) 
-14.591

>  <name>  (29) 
28

>  <ligand_id>  (29) 
28

>  <original_smiles>  (29) 
[H]c1c([H])c([H])c2c(c1[H])C([H])([H])C([H])([H])C([H])([H])C2([H])N([H])C(=O)C1([H])N(C(=O)C([H])(N([H])C(=O)C([H])(N([H])C([H])([H])[H])C([H])([H])[H])C(C([H])([H])[H])(C([H])([H])[H])C([H])([H])[H])C([H])([H])c2c([H])c(OC([H])([H])C([H])(C([H])([H])[H])C([H])([H])C([H])([H])c3c([H])c(C([H])([H])[H])c([H])c(C([H])([H])[H])c3N([H])C(=O)N3C([H])([H])C([H])([H])C([H])([H])C([H])(n4nc(-c5c([H])c([H])c(Oc6c([H])c([H])c(F)c([H])c6F)c([H])c5[H])c(C(=O)N([H])[H])c4N([H])[H])C3([H])[H])c([H])c([H])c2C1([H])[H]

>  <smiles>  (29) 
[H]c1c([H])c([H])c2c(c1[H])C([H])([H])C([H])([H])C([H])([H])C2([H])N([H])C(=O)C1([H])N(C(=O)C([H])(N([H])C(=O)C([H])(N([H])C([H])([H])[H])C([H])([H])[H])C(C([H])([H])[H])(C([H])([H])[H])C([H])([H])[H])C([H])([H])c2c([H])c(OC([H])([H])C([H])(C([H])([H])[H])C([H])([H])C([H])([H])c3c([H])c(C([H])([H])[H])c([H])c(C([H])([H])[H])c3N([H])C(=O)N3C([H])([H])C([H])([H])C([H])([H])C([H])(n4nc(-c5c([H])c([H])c(Oc6c([H])c([H])c(F)c([H])c6F)c([H])c5[H])c(C(=O)N([H])[H])c4N([H])[H])C3([H])[H])c([H])c([H])c2C1([H])[H]

$$$$
29:0:0
     RDKit          3D

 93101  0  0  1  0  0  0  0  0999 V2000
  -30.5020  -21.4240   20.2820 C   0  0  0  0  0  3  0  0  0  0  0  0
  -30.8780  -20.0370   20.3430 C   0  0  0  0  0  0  0  0  0  0  0  0
  -30.0230  -18.9790   19.8750 C   0  0  0  0  0  0  0  0  0  0  0  0
  -29.2570  -21.8810   19.7690 C   0  0  0  0  0  0  0  0  0  0  0  0
  -28.7480  -19.5150   19.4520 C   0  0  0  0  0  0  0  0  0  0  0  0
  -32.2730  -19.7330   20.8660 C   0  0  0  0  0  1  0  0  0  0  0  0
  -28.3990  -20.8700   19.4020 N   0  0  0  0  0  0  0  0  0  0  0  0
  -26.3500  -18.6540   19.6890 C   0  0  0  0  0  1  0  0  0  0  0  0
  -27.6720  -18.5860   18.9020 C   0  0  0  0  0  2  0  0  0  0  0  0
  -30.6170  -17.4530   19.6140 C   0  0  0  0  0  2  0  0  0  0  0  0
  -30.9570  -14.8420   20.0100 C   0  0  0  0  0  0  0  0  0  0  0  0
  -30.6590  -12.5670   18.9410 C   0  0  0  0  0  2  0  0  0  0  0  0
  -29.6480  -12.6400   17.7750 C   0  0  0  0  0  2  0  0  0  0  0  0
  -28.2130  -12.4380   18.2950 C   0  0  0  0  0  2  0  0  0  0  0  0
  -27.9160  -13.3030   19.5480 C   0  0  0  0  0  3  0  0  0  0  0  0
  -29.0420  -13.1930   20.5960 C   0  0  0  0  0  2  0  0  0  0  0  0
  -30.2840  -13.6180   19.9340 N   0  0  0  0  0  0  0  0  0  0  0  0
  -32.1030  -14.8620   19.5480 O   0  0  0  0  0  0  0  0  0  0  0  0
  -29.7010  -16.3120   21.6110 C   0  0  0  0  0  1  0  0  0  0  0  0
  -30.2970  -16.0800   20.2950 N   0  0  0  0  0  0  0  0  0  0  0  0
  -25.6010  -13.8980   20.4680 C   0  0  0  0  0  0  0  0  0  0  0  0
  -24.5460  -13.1310   20.8760 C   0  0  0  0  0  0  0  0  0  0  0  0
  -24.9740  -11.7730   20.7540 C   0  0  0  0  0  0  0  0  0  0  0  0
  -26.6060  -13.0090   20.1190 N   0  0  0  0  0  0  0  0  0  0  0  0
  -26.2400  -11.7220   20.3560 N   0  0  0  0  0  0  0  0  0  0  0  0
  -24.2300  -10.5210   20.9400 C   0  0  0  0  0  0  0  0  0  0  0  0
  -24.6600   -9.5340   21.8550 C   0  0  0  0  0  3  0  0  0  0  0  0
  -23.9140   -8.3460   22.0290 C   0  0  0  0  0  3  0  0  0  0  0  0
  -22.7260   -8.1390   21.2880 C   0  0  0  0  0  0  0  0  0  0  0  0
  -22.3160   -9.1150   20.3640 C   0  0  0  0  0  3  0  0  0  0  0  0
  -23.0610  -10.2910   20.1870 C   0  0  0  0  0  3  0  0  0  0  0  0
  -21.9520   -7.0080   21.3760 O   0  0  0  0  0  0  0  0  0  0  0  0
  -21.8510   -6.2930   22.5420 C   0  0  0  0  0  0  0  0  0  0  0  0
  -21.3920   -6.8830   23.7410 C   0  0  0  0  0  3  0  0  0  0  0  0
  -21.2340   -6.0940   24.8980 C   0  0  0  0  0  3  0  0  0  0  0  0
  -21.5280   -4.7190   24.8590 C   0  0  0  0  0  0  0  0  0  0  0  0
  -21.9800   -4.1290   23.6640 C   0  0  0  0  0  3  0  0  0  0  0  0
  -22.1380   -4.9140   22.5100 C   0  0  0  0  0  0  0  0  0  0  0  0
  -22.5550   -4.3370   21.3580 F   0  0  0  0  0  0  0  0  0  0  0  0
  -21.3700   -3.9600   25.9680 F   0  0  0  0  0  0  0  0  0  0  0  0
  -23.1830  -13.6250   21.2620 C   0  0  0  0  0  0  0  0  0  0  0  0
  -22.5060  -12.9200   22.1620 N   0  0  0  0  0  0  0  0  0  0  0  0
  -22.7310  -14.6730   20.8050 O   0  0  0  0  0  0  0  0  0  0  0  0
  -22.8890  -12.0720   22.5540 H   0  0  0  0  0  0  0  0  0  0  0  0
  -21.5910  -13.2300   22.4600 H   0  0  0  0  0  0  0  0  0  0  0  0
  -25.7870  -15.2710   20.3400 N   0  0  0  0  0  0  0  0  0  0  0  0
  -25.0370  -15.9300   20.5180 H   0  0  0  0  0  0  0  0  0  0  0  0
  -26.6260  -15.7010   19.9780 H   0  0  0  0  0  0  0  0  0  0  0  0
  -29.0500  -23.4580   19.3400 C   0  0  0  0  0  3  0  0  0  0  0  0
  -29.8640  -22.8680   16.9560 C   0  0  0  0  0  1  0  0  0  0  0  0
  -28.7960  -23.5620   17.8200 C   0  0  0  0  0  2  0  0  0  0  0  0
  -28.1300  -24.6160   20.0740 C   0  0  0  0  0  2  0  0  0  0  0  0
  -28.3250  -26.1240   19.8070 O   0  0  0  0  0  0  0  0  0  0  0  0
  -24.6720  -31.6310   22.9790 C   0  0  0  0  0  0  0  0  0  0  0  0
  -27.2380  -27.0500   19.8170 C   0  0  0  0  0  0  0  0  0  0  0  0
  -23.4650  -30.2780   21.3070 C   0  0  0  0  0  3  0  0  0  0  0  0
  -24.9050  -28.7460   19.8370 C   0  0  0  0  0  0  0  0  0  0  0  0
  -26.0150  -30.5660   21.1310 C   0  0  0  0  0  2  0  0  0  0  0  0
  -26.0830  -29.1950   20.4500 C   0  0  0  0  0  0  0  0  0  0  0  0
  -27.2570  -28.3620   20.4170 C   0  0  0  0  0  3  0  0  0  0  0  0
  -26.0360  -26.6810   19.1820 C   0  0  0  0  0  3  0  0  0  0  0  0
  -24.8890  -27.5020   19.1900 C   0  0  0  0  0  3  0  0  0  0  0  0
  -23.6780  -29.6370   19.9110 C   0  0  0  0  0  2  0  0  0  0  0  0
  -24.7360  -30.8460   21.8620 N   0  0  0  0  0  0  0  0  0  0  0  0
  -23.5880  -31.8930   23.5230 O   0  0  0  0  0  0  0  0  0  0  0  0
  -22.8000  -29.2390   22.2470 C   0  0  0  0  0  0  0  0  0  0  0  0
  -21.4610  -29.1090   22.1640 N   0  0  0  0  0  0  0  0  0  0  0  0
  -23.4860  -28.5570   23.0100 O   0  0  0  0  0  0  0  0  0  0  0  0
  -20.9710  -29.7190   21.5250 H   0  0  0  0  0  0  0  0  0  0  0  0
  -18.0670  -28.0040   22.7650 C   0  0  0  0  0  0  0  0  0  0  0  0
  -20.6450  -28.1530   22.9150 C   0  0  0  0  0  3  0  0  0  0  0  0
  -20.6610  -26.7570   22.2510 C   0  0  0  0  0  2  0  0  0  0  0  0
  -19.5000  -26.5380   21.2770 C   0  0  0  0  0  2  0  0  0  0  0  0
  -18.1580  -26.6930   22.0000 C   0  0  0  0  0  2  0  0  0  0  0  0
  -19.2370  -28.6950   23.1830 C   0  0  0  0  0  0  0  0  0  0  0  0
  -19.0970  -29.9250   23.8640 C   0  0  0  0  0  3  0  0  0  0  0  0
  -17.8230  -30.4590   24.1350 C   0  0  0  0  0  3  0  0  0  0  0  0
  -16.6730  -29.7610   23.7350 C   0  0  0  0  0  3  0  0  0  0  0  0
  -16.7930  -28.5380   23.0530 C   0  0  0  0  0  3  0  0  0  0  0  0
  -25.9530  -32.2510   23.6180 C   0  0  0  0  0  3  0  0  0  0  0  0
  -25.6300  -33.6260   24.0300 N   0  0  0  0  0  0  0  0  0  0  0  0
  -25.9400  -34.7260   23.3340 C   0  0  0  0  0  0  0  0  0  0  0  0
  -26.5960  -34.6940   22.2870 O   0  0  0  0  0  0  0  0  0  0  0  0
  -25.0550  -33.7280   24.8530 H   0  0  0  0  0  0  0  0  0  0  0  0
  -24.1920  -36.5240   23.1110 C   0  0  0  0  0  1  0  0  0  0  0  0
  -25.4460  -36.0800   23.8810 C   0  0  0  0  0  3  0  0  0  0  0  0
  -27.5780  -36.9430   24.7390 C   0  0  0  0  0  1  0  0  0  0  0  0
  -26.4650  -37.1500   23.8170 N   0  0  0  0  0  0  0  0  0  0  0  0
  -26.0520  -38.0550   24.0200 H   0  0  0  0  0  0  0  0  0  0  0  0
  -26.5000  -31.4250   24.8490 C   0  0  1  0  0  0  0  0  0  0  0  0
  -25.4240  -31.1210   25.9200 C   0  0  0  0  0  1  0  0  0  0  0  0
  -27.0950  -30.0760   24.3830 C   0  0  0  0  0  1  0  0  0  0  0  0
  -27.6560  -32.1990   25.5290 C   0  0  0  0  0  1  0  0  0  0  0  0
  1  2  1  0
  2  6  1  0
  3  2  2  0
  4  1  2  0
  5  3  1  0
  7  5  2  0
  7  4  1  0
  9  5  1  0
  9  8  1  0
 10  3  1  0
 10 20  1  0
 11 20  1  0
 12 17  1  0
 13 14  1  0
 13 12  1  0
 15 14  1  0
 15 24  1  0
 15 16  1  0
 17 11  1  0
 17 16  1  0
 18 11  2  0
 20 19  1  0
 21 22  2  0
 22 41  1  0
 23 22  1  0
 23 26  1  0
 24 25  1  0
 24 21  1  0
 25 23  2  0
 26 27  1  0
 27 28  2  0
 29 32  1  0
 29 28  1  0
 30 29  2  0
 31 30  1  0
 31 26  2  0
 32 33  1  0
 33 34  1  0
 34 35  2  0
 36 35  1  0
 36 40  1  0
 37 36  2  0
 38 33  2  0
 38 37  1  0
 39 38  1  0
 41 42  1  0
 42 45  1  0
 42 44  1  0
 43 41  2  0
 46 21  1  0
 46 47  1  0
 48 46  1  0
 49 51  1  0
 49  4  1  0
 49 52  1  0
 50 51  1  0
 53 55  1  0
 53 52  1  0
 54 65  2  0
 55 60  1  0
 56 64  1  0
 56 66  1  0
 57 63  1  0
 57 59  1  0
 58 64  1  0
 59 58  1  0
 60 59  2  0
 61 62  1  0
 61 55  2  0
 62 57  2  0
 63 56  1  0
 64 54  1  0
 66 68  2  0
 67 66  1  0
 69 67  1  0
 70 79  2  0
 70 75  1  0
 71 67  1  0
 71 75  1  0
 72 71  1  0
 73 74  1  0
 73 72  1  0
 74 70  1  0
 75 76  2  0
 76 77  1  0
 78 77  2  0
 79 78  1  0
 80 54  1  0
 80 81  1  0
 80 90  1  0
 81 84  1  0
 82 86  1  0
 82 81  1  0
 83 82  2  0
 86 85  1  0
 88 86  1  0
 88 89  1  0
 88 87  1  0
 90 93  1  1
 90 91  1  0
 92 90  1  0
M  ISO  4  11 100  20 100  52 101  53 101
M  END
>  <TORSDO>  (30) 
F 21

>  <SCORE>  (30) 
-12.764

>  <name>  (30) 
29

>  <ligand_id>  (30) 
29

>  <original_smiles>  (30) 
[H]c1c([H])c([H])c2c(c1[H])C([H])([H])C([H])([H])C([H])([H])C2([H])N([H])C(=O)C1([H])N(C(=O)C([H])(N([H])C(=O)C([H])(N([H])C([H])([H])[H])C([H])([H])[H])C(C([H])([H])[H])(C([H])([H])[H])C([H])([H])[H])C([H])([H])c2c([H])c(OC([H])([H])C([H])(c3nc(C([H])([H])C([H])([H])[H])c(C([H])([H])N(C(=O)N4C([H])([H])C([H])([H])C([H])([H])C([H])(n5nc(-c6c([H])c([H])c(Oc7c([H])c([H])c(F)c([H])c7F)c([H])c6[H])c(C(=O)N([H])[H])c5N([H])[H])C4([H])[H])C([H])([H])[H])c(C([H])([H])[H])c3[H])C([H])([H])C([H])([H])[H])c([H])c([H])c2C1([H])[H]

>  <smiles>  (30) 
[H]c1c([H])c([H])c2c(c1[H])C([H])([H])C([H])([H])C([H])([H])C2([H])N([H])C(=O)C1([H])N(C(=O)C([H])(N([H])C(=O)C([H])(N([H])C([H])([H])[H])C([H])([H])[H])C(C([H])([H])[H])(C([H])([H])[H])C([H])([H])[H])C([H])([H])c2c([H])c(OC([H])([H])C([H])(c3nc(C([H])([H])C([H])([H])[H])c(C([H])([H])N(C(=O)N4C([H])([H])C([H])([H])C([H])([H])C([H])(n5nc(-c6c([H])c([H])c(Oc7c([H])c([H])c(F)c([H])c7F)c([H])c6[H])c(C(=O)N([H])[H])c5N([H])[H])C4([H])[H])C([H])([H])[H])c(C([H])([H])[H])c3[H])C([H])([H])C([H])([H])[H])c([H])c([H])c2C1([H])[H]

$$$$
30:0:0
     RDKit          3D

 94102  0  0  1  0  0  0  0  0999 V2000
  -28.3450  -19.9340   20.3870 C   0  0  0  0  0  3  0  0  0  0  0  0
  -31.0290  -19.5320   20.4860 C   0  0  0  0  0  3  0  0  0  0  0  0
  -28.8300  -18.5940   20.2970 C   0  0  0  0  0  0  0  0  0  0  0  0
  -30.2310  -18.3640   20.3760 C   0  0  0  0  0  0  0  0  0  0  0  0
  -29.2250  -21.0300   20.5980 C   0  0  0  0  0  0  0  0  0  0  0  0
  -30.5580  -20.8030   20.6220 N   0  0  0  0  0  0  0  0  0  0  0  0
  -26.1720  -16.2550   20.7420 C   0  0  0  0  0  1  0  0  0  0  0  0
  -27.5050  -16.5750   21.4270 C   0  0  0  0  0  1  0  0  0  0  0  0
  -26.3420  -17.5830   19.9930 C   0  0  0  0  0  1  0  0  0  0  0  0
  -27.8610  -17.4240   20.1930 C   0  0  0  0  0  3  0  0  0  0  0  0
  -30.9290  -16.9660   20.5790 C   0  0  0  0  0  2  0  0  0  0  0  0
  -30.9590  -14.4870   20.0450 C   0  0  0  0  0  0  0  0  0  0  0  0
  -30.6160  -12.2790   18.9690 C   0  0  0  0  0  2  0  0  0  0  0  0
  -29.6720  -12.4290   17.7560 C   0  0  0  0  0  2  0  0  0  0  0  0
  -28.1990  -12.3330   18.1980 C   0  0  0  0  0  2  0  0  0  0  0  0
  -27.8820  -13.2250   19.4260 C   0  0  0  0  0  3  0  0  0  0  0  0
  -28.9370  -13.0480   20.5390 C   0  0  0  0  0  2  0  0  0  0  0  0
  -30.2500  -13.3230   19.9460 N   0  0  0  0  0  0  0  0  0  0  0  0
  -32.1370  -14.5440   19.6850 O   0  0  0  0  0  0  0  0  0  0  0  0
  -30.2790  -15.6280   20.3780 N   0  0  0  0  0  0  0  0  0  0  0  0
  -29.2990  -15.5310   20.5910 H   0  0  0  0  0  0  0  0  0  0  0  0
  -25.5030  -13.9090   20.1060 C   0  0  0  0  0  0  0  0  0  0  0  0
  -24.4190  -13.1770   20.5080 C   0  0  0  0  0  0  0  0  0  0  0  0
  -24.8530  -11.8170   20.5430 C   0  0  0  0  0  0  0  0  0  0  0  0
  -26.5290  -12.9970   19.9200 N   0  0  0  0  0  0  0  0  0  0  0  0
  -26.1440  -11.7360   20.2450 N   0  0  0  0  0  0  0  0  0  0  0  0
  -24.1000  -10.5790   20.7830 C   0  0  0  0  0  0  0  0  0  0  0  0
  -24.4680   -9.6770   21.8060 C   0  0  0  0  0  3  0  0  0  0  0  0
  -23.7160   -8.5030   22.0280 C   0  0  0  0  0  3  0  0  0  0  0  0
  -22.5830   -8.2240   21.2270 C   0  0  0  0  0  0  0  0  0  0  0  0
  -22.2370   -9.1120   20.1940 C   0  0  0  0  0  3  0  0  0  0  0  0
  -22.9890  -10.2770   19.9700 C   0  0  0  0  0  3  0  0  0  0  0  0
  -21.8080   -7.0970   21.3540 O   0  0  0  0  0  0  0  0  0  0  0  0
  -21.6390   -6.4730   22.5650 C   0  0  0  0  0  0  0  0  0  0  0  0
  -21.1130   -7.1500   23.6860 C   0  0  0  0  0  3  0  0  0  0  0  0
  -20.8910   -6.4520   24.8910 C   0  0  0  0  0  3  0  0  0  0  0  0
  -21.1880   -5.0790   24.9740 C   0  0  0  0  0  0  0  0  0  0  0  0
  -21.7090   -4.4020   23.8580 C   0  0  0  0  0  3  0  0  0  0  0  0
  -21.9310   -5.0960   22.6560 C   0  0  0  0  0  0  0  0  0  0  0  0
  -22.4130   -4.4340   21.5760 F   0  0  0  0  0  0  0  0  0  0  0  0
  -20.9690   -4.4070   26.1280 F   0  0  0  0  0  0  0  0  0  0  0  0
  -23.0310  -13.6960   20.7460 C   0  0  0  0  0  0  0  0  0  0  0  0
  -22.2930  -13.0690   21.6530 N   0  0  0  0  0  0  0  0  0  0  0  0
  -22.6110  -14.6920   20.1580 O   0  0  0  0  0  0  0  0  0  0  0  0
  -22.6480  -12.2650   22.1490 H   0  0  0  0  0  0  0  0  0  0  0  0
  -21.3600  -13.3990   21.8580 H   0  0  0  0  0  0  0  0  0  0  0  0
  -25.6970  -15.2640   19.8570 N   0  0  0  0  0  4  0  0  0  0  0  0
  -24.9350  -15.9290   19.9180 H   0  0  0  0  0  0  0  0  0  0  0  0
  -26.5270  -15.6480   19.4300 H   0  0  0  0  0  0  0  0  0  0  0  0
  -28.6790  -22.4020   21.1320 C   0  0  0  0  0  2  0  0  0  0  0  0
  -30.5830  -24.0690   20.5620 C   0  0  0  0  0  1  0  0  0  0  0  0
  -29.0650  -23.8290   20.5440 C   0  0  0  0  0  3  0  0  0  0  0  0
  -28.3310  -24.9980   21.3260 C   0  0  0  0  0  2  0  0  0  0  0  0
  -28.5920  -26.4000   20.9720 O   0  0  0  0  0  0  0  0  0  0  0  0
  -24.6420  -31.8920   23.4220 C   0  0  0  0  0  0  0  0  0  0  0  0
  -27.4750  -27.2150   20.8310 C   0  0  0  0  0  0  0  0  0  0  0  0
  -23.5600  -30.3890   21.7880 C   0  0  0  0  0  3  0  0  0  0  0  0
  -25.1090  -28.7670   20.5650 C   0  0  0  0  0  0  0  0  0  0  0  0
  -26.1020  -30.7250   21.7590 C   0  0  0  0  0  2  0  0  0  0  0  0
  -26.2300  -29.3150   21.2040 C   0  0  0  0  0  0  0  0  0  0  0  0
  -27.4230  -28.5500   21.3230 C   0  0  0  0  0  3  0  0  0  0  0  0
  -26.3390  -26.7020   20.1750 C   0  0  0  0  0  3  0  0  0  0  0  0
  -25.1630  -27.4630   20.0440 C   0  0  0  0  0  3  0  0  0  0  0  0
  -23.8700  -29.6310   20.4710 C   0  0  0  0  0  2  0  0  0  0  0  0
  -24.7820  -31.0240   22.3800 N   0  0  0  0  0  0  0  0  0  0  0  0
  -23.5240  -32.1910   23.8630 O   0  0  0  0  0  0  0  0  0  0  0  0
  -22.8390  -29.4240   22.7590 C   0  0  0  0  0  0  0  0  0  0  0  0
  -21.5250  -29.2300   22.5530 N   0  0  0  0  0  0  0  0  0  0  0  0
  -23.4620  -28.8550   23.6580 O   0  0  0  0  0  0  0  0  0  0  0  0
  -21.0850  -29.7430   21.8020 H   0  0  0  0  0  0  0  0  0  0  0  0
  -18.1140  -28.0820   22.9210 C   0  0  0  0  0  0  0  0  0  0  0  0
  -20.6570  -28.3350   23.3190 C   0  0  0  0  0  3  0  0  0  0  0  0
  -20.7750  -26.8770   22.8170 C   0  0  0  0  0  2  0  0  0  0  0  0
  -19.7260  -26.5180   21.7600 C   0  0  0  0  0  2  0  0  0  0  0  0
  -18.3130  -26.7020   22.3190 C   0  0  0  0  0  2  0  0  0  0  0  0
  -19.2170  -28.8540   23.3750 C   0  0  0  0  0  0  0  0  0  0  0  0
  -18.9770  -30.1460   23.8950 C   0  0  0  0  0  3  0  0  0  0  0  0
  -17.6700  -30.6640   23.9660 C   0  0  0  0  0  3  0  0  0  0  0  0
  -16.5820  -29.8880   23.5260 C   0  0  0  0  0  3  0  0  0  0  0  0
  -16.8060  -28.6000   23.0090 C   0  0  0  0  0  3  0  0  0  0  0  0
  -25.8760  -32.5670   24.0960 C   0  0  0  0  0  3  0  0  0  0  0  0
  -25.5330  -33.9750   24.3360 N   0  0  0  0  0  0  0  0  0  0  0  0
  -25.8860  -34.9920   23.5390 C   0  0  0  0  0  0  0  0  0  0  0  0
  -26.6010  -34.8440   22.5430 O   0  0  0  0  0  0  0  0  0  0  0  0
  -24.8980  -34.1620   25.0980 H   0  0  0  0  0  0  0  0  0  0  0  0
  -24.1370  -36.7260   23.0390 C   0  0  0  0  0  1  0  0  0  0  0  0
  -25.3640  -36.3940   23.9030 C   0  0  0  0  0  3  0  0  0  0  0  0
  -27.4650  -37.3580   24.7320 C   0  0  0  0  0  1  0  0  0  0  0  0
  -26.3800  -37.4600   23.7590 N   0  0  0  0  0  0  0  0  0  0  0  0
  -25.9550  -38.3790   23.8520 H   0  0  0  0  0  0  0  0  0  0  0  0
  -26.3160  -31.8640   25.4380 C   0  0  1  0  0  0  0  0  0  0  0  0
  -25.1490  -31.6160   26.4230 C   0  0  0  0  0  1  0  0  0  0  0  0
  -26.9860  -30.5010   25.1490 C   0  0  0  0  0  1  0  0  0  0  0  0
  -27.3740  -32.7360   26.1580 C   0  0  0  0  0  1  0  0  0  0  0  0
  1  5  1  0
  2  6  1  0
  3  4  1  0
  3  1  2  0
  4  2  2  0
  4 11  1  0
  5  6  2  0
  5 50  1  0
  9 10  1  0
 10  3  1  0
 10  8  1  0
 12 20  1  0
 13 18  1  0
 14 15  1  0
 14 13  1  0
 16 15  1  0
 16 25  1  0
 16 17  1  0
 18 12  1  0
 18 17  1  0
 19 12  2  0
 20 11  1  0
 20 21  1  0
 22 23  2  0
 23 24  1  0
 23 42  1  0
 24 27  1  0
 25 22  1  0
 25 26  1  0
 26 24  2  0
 27 28  1  0
 28 29  2  0
 30 33  1  0
 30 29  1  0
 31 30  2  0
 32 31  1  0
 32 27  2  0
 33 34  1  0
 34 39  2  0
 34 35  1  0
 35 36  2  0
 36 37  1  0
 37 41  1  0
 38 37  2  0
 39 38  1  0
 40 39  1  0
 42 43  1  0
 43 46  1  0
 43 45  1  0
 44 42  2  0
 47 48  1  0
 47 22  1  0
 47  7  1  0
 49 47  1  0
 52 51  1  0
 52 50  1  0
 52 53  1  0
 54 53  1  0
 55 66  2  0
 56 54  1  0
 56 61  1  0
 57 65  1  0
 57 67  1  0
 58 60  1  0
 59 65  1  0
 60 61  2  0
 60 59  1  0
 62 56  2  0
 63 62  1  0
 63 58  2  0
 64 58  1  0
 64 57  1  0
 65 55  1  0
 67 69  2  0
 68 67  1  0
 70 68  1  0
 71 80  2  0
 71 76  1  0
 72 68  1  0
 72 76  1  0
 73 72  1  0
 74 75  1  0
 74 73  1  0
 75 71  1  0
 76 77  2  0
 77 78  1  0
 79 78  2  0
 80 79  1  0
 81 55  1  0
 81 82  1  0
 81 91  1  0
 82 85  1  0
 83 87  1  0
 83 82  1  0
 84 83  2  0
 87 86  1  0
 89 90  1  0
 89 87  1  0
 89 88  1  0
 91 94  1  1
 91 92  1  0
 93 91  1  0
M  ISO  4  12 100  20 100  53 101  54 101
M  END
>  <TORSDO>  (31) 
F 21

>  <SCORE>  (31) 
-11.201

>  <name>  (31) 
30

>  <ligand_id>  (31) 
30

>  <original_smiles>  (31) 
[H]c1nc(C([H])([H])C([H])(C([H])([H])[H])C([H])([H])Oc2c([H])c([H])c3c(c2[H])C([H])([H])N(C(=O)C([H])(N([H])C(=O)C([H])(N([H])C([H])([H])[H])C([H])([H])[H])C(C([H])([H])[H])(C([H])([H])[H])C([H])([H])[H])C([H])(C(=O)N([H])C2([H])c4c([H])c([H])c([H])c([H])c4C([H])([H])C([H])([H])C2([H])[H])C3([H])[H])c([H])c(C2([H])C([H])([H])C([H])([H])C2([H])[H])c1C([H])([H])N([H])C(=O)N1C([H])([H])C([H])([H])C([H])([H])C([H])(n2nc(-c3c([H])c([H])c(Oc4c([H])c([H])c(F)c([H])c4F)c([H])c3[H])c(C(=O)N([H])[H])c2N([H])[H])C1([H])[H]

>  <smiles>  (31) 
[H]c1nc(C([H])([H])C([H])(C([H])([H])[H])C([H])([H])Oc2c([H])c([H])c3c(c2[H])C([H])([H])N(C(=O)C([H])(N([H])C(=O)C([H])(N([H])C([H])([H])[H])C([H])([H])[H])C(C([H])([H])[H])(C([H])([H])[H])C([H])([H])[H])C([H])(C(=O)N([H])C2([H])c4c([H])c([H])c([H])c([H])c4C([H])([H])C([H])([H])C2([H])[H])C3([H])[H])c([H])c(C2([H])C([H])([H])C([H])([H])C2([H])[H])c1C([H])([H])N([H])C(=O)N1C([H])([H])C([H])([H])C([H])([H])C([H])(n2nc(-c3c([H])c([H])c(Oc4c([H])c([H])c(F)c([H])c4F)c([H])c3[H])c(C(=O)N([H])[H])c2N([H])[H])C1([H])[H]

$$$$
31:0:0
     RDKit          3D

 98106  0  0  1  0  0  0  0  0999 V2000
  -29.1440  -22.5030   21.3660 C   0  0  0  0  0  3  0  0  0  0  0  0
  -29.3860  -23.8790   21.1750 C   0  0  0  0  0  3  0  0  0  0  0  0
  -28.4690  -21.7250   20.4030 C   0  0  0  0  0  0  0  0  0  0  0  0
  -29.0990  -24.5050   19.9450 C   0  0  0  0  0  0  0  0  0  0  0  0
  -28.4950  -23.7150   18.9200 C   0  0  0  0  0  0  0  0  0  0  0  0
  -28.0350  -22.3920   19.2170 C   0  0  0  0  0  0  0  0  0  0  0  0
  -28.3740  -24.2540   17.4900 C   0  0  0  0  0  1  0  0  0  0  0  0
  -28.1550  -20.2440   20.7510 C   0  0  0  0  0  2  0  0  0  0  0  0
  -27.9970  -18.0690   19.4220 C   0  0  0  0  0  1  0  0  0  0  0  0
  -28.9760  -19.0920   20.0140 C   0  0  0  0  0  3  0  0  0  0  0  0
  -30.4380  -19.0450   22.1380 C   0  0  0  0  0  1  0  0  0  0  0  0
  -31.4660  -18.6160   19.9290 C   0  0  0  0  0  1  0  0  0  0  0  0
  -30.1980  -18.3760   20.7720 C   0  0  2  0  0  0  0  0  0  0  0  0
  -30.1100  -16.8140   21.0910 C   0  0  0  0  0  2  0  0  0  0  0  0
  -30.9820  -14.7700   19.8640 C   0  0  0  0  0  0  0  0  0  0  0  0
  -30.7200  -12.4750   18.9670 C   0  0  0  0  0  2  0  0  0  0  0  0
  -29.7360  -12.5070   17.7790 C   0  0  0  0  0  2  0  0  0  0  0  0
  -28.2850  -12.3820   18.2750 C   0  0  0  0  0  2  0  0  0  0  0  0
  -27.9680  -13.3620   19.4320 C   0  0  0  0  0  3  0  0  0  0  0  0
  -29.0530  -13.2960   20.5250 C   0  0  0  0  0  2  0  0  0  0  0  0
  -30.3400  -13.5680   19.8800 N   0  0  0  0  0  0  0  0  0  0  0  0
  -32.1300  -14.8930   19.4350 O   0  0  0  0  0  0  0  0  0  0  0  0
  -30.1800  -15.8660   19.9550 N   0  0  0  0  0  0  0  0  0  0  0  0
  -30.2850  -16.4110   19.1140 H   0  0  0  0  0  0  0  0  0  0  0  0
  -25.6460  -14.0560   20.2730 C   0  0  0  0  0  0  0  0  0  0  0  0
  -24.5650  -13.3280   20.6740 C   0  0  0  0  0  0  0  0  0  0  0  0
  -24.9660  -11.9550   20.6020 C   0  0  0  0  0  0  0  0  0  0  0  0
  -26.6380  -13.1350   19.9770 N   0  0  0  0  0  0  0  0  0  0  0  0
  -26.2350  -11.8650   20.2330 N   0  0  0  0  0  0  0  0  0  0  0  0
  -24.1970  -10.7260   20.8090 C   0  0  0  0  0  0  0  0  0  0  0  0
  -24.6240   -9.7350   21.7210 C   0  0  0  0  0  3  0  0  0  0  0  0
  -23.8550   -8.5670   21.9180 C   0  0  0  0  0  3  0  0  0  0  0  0
  -22.6480   -8.3860   21.2000 C   0  0  0  0  0  0  0  0  0  0  0  0
  -22.2390   -9.3670   20.2810 C   0  0  0  0  0  3  0  0  0  0  0  0
  -23.0080  -10.5250   20.0820 C   0  0  0  0  0  3  0  0  0  0  0  0
  -21.8480   -7.2750   21.3060 O   0  0  0  0  0  0  0  0  0  0  0  0
  -21.7900   -6.5370   22.4590 C   0  0  0  0  0  0  0  0  0  0  0  0
  -21.4270   -7.1150   23.6950 C   0  0  0  0  0  3  0  0  0  0  0  0
  -21.3120   -6.3070   24.8430 C   0  0  0  0  0  3  0  0  0  0  0  0
  -21.5520   -4.9220   24.7560 C   0  0  0  0  0  0  0  0  0  0  0  0
  -21.9110   -4.3440   23.5260 C   0  0  0  0  0  3  0  0  0  0  0  0
  -22.0270   -5.1500   22.3790 C   0  0  0  0  0  0  0  0  0  0  0  0
  -22.3500   -4.5860   21.1910 F   0  0  0  0  0  0  0  0  0  0  0  0
  -21.4340   -4.1430   25.8570 F   0  0  0  0  0  0  0  0  0  0  0  0
  -23.2080  -13.8620   21.0220 C   0  0  0  0  0  0  0  0  0  0  0  0
  -22.5080  -13.1950   21.9270 N   0  0  0  0  0  0  0  0  0  0  0  0
  -22.7840  -14.9070   20.5280 O   0  0  0  0  0  0  0  0  0  0  0  0
  -22.8710  -12.3470   22.3390 H   0  0  0  0  0  0  0  0  0  0  0  0
  -21.5990  -13.5330   22.2050 H   0  0  0  0  0  0  0  0  0  0  0  0
  -25.8650  -15.4190   20.1220 N   0  0  0  0  0  0  0  0  0  0  0  0
  -25.1450  -16.1000   20.3380 H   0  0  0  0  0  0  0  0  0  0  0  0
  -26.7600  -15.8360   19.9020 H   0  0  0  0  0  0  0  0  0  0  0  0
  -26.9860  -21.7480   18.3020 C   0  0  0  0  0  2  0  0  0  0  0  0
  -24.5710  -21.7910   17.5350 C   0  0  0  0  0  1  0  0  0  0  0  0
  -25.2850  -23.5000   19.2530 C   0  0  0  0  0  1  0  0  0  0  0  0
  -25.7380  -22.6410   18.0480 C   0  0  0  0  0  3  0  0  0  0  0  0
  -29.5860  -25.9600   19.7410 C   0  0  0  0  0  2  0  0  0  0  0  0
  -29.1370  -26.9630   20.6850 O   0  0  0  0  0  0  0  0  0  0  0  0
  -24.6660  -31.8660   23.3270 C   0  0  0  0  0  0  0  0  0  0  0  0
  -27.9110  -27.6000   20.5360 C   0  0  0  0  0  0  0  0  0  0  0  0
  -23.7280  -30.3770   21.5930 C   0  0  0  0  0  3  0  0  0  0  0  0
  -25.4170  -28.9540   20.3160 C   0  0  0  0  0  0  0  0  0  0  0  0
  -26.2330  -30.9150   21.6310 C   0  0  0  0  0  2  0  0  0  0  0  0
  -26.4760  -29.5540   21.0060 C   0  0  0  0  0  0  0  0  0  0  0  0
  -27.7210  -28.8850   21.1100 C   0  0  0  0  0  3  0  0  0  0  0  0
  -26.8190  -27.0170   19.8570 C   0  0  0  0  0  3  0  0  0  0  0  0
  -25.5840  -27.6850   19.7410 C   0  0  0  0  0  3  0  0  0  0  0  0
  -24.1170  -29.7180   20.2430 C   0  0  0  0  0  2  0  0  0  0  0  0
  -24.8900  -31.0670   22.2460 N   0  0  0  0  0  0  0  0  0  0  0  0
  -23.5210  -32.0590   23.7600 O   0  0  0  0  0  0  0  0  0  0  0  0
  -23.0720  -29.3080   22.4930 C   0  0  0  0  0  0  0  0  0  0  0  0
  -21.7650  -29.0780   22.2910 N   0  0  0  0  0  0  0  0  0  0  0  0
  -23.7350  -28.6880   23.3260 O   0  0  0  0  0  0  0  0  0  0  0  0
  -21.2850  -29.6400   21.6060 H   0  0  0  0  0  0  0  0  0  0  0  0
  -18.4140  -27.7850   22.6470 C   0  0  0  0  0  0  0  0  0  0  0  0
  -20.9550  -28.0850   22.9960 C   0  0  0  0  0  3  0  0  0  0  0  0
  -21.1130  -26.6850   22.3600 C   0  0  0  0  0  2  0  0  0  0  0  0
  -20.0450  -26.3870   21.3020 C   0  0  0  0  0  2  0  0  0  0  0  0
  -18.6410  -26.4720   21.9120 C   0  0  0  0  0  2  0  0  0  0  0  0
  -19.5030  -28.5500   23.1400 C   0  0  0  0  0  0  0  0  0  0  0  0
  -19.2410  -29.7800   23.7810 C   0  0  0  0  0  3  0  0  0  0  0  0
  -17.9230  -30.2510   23.9280 C   0  0  0  0  0  3  0  0  0  0  0  0
  -16.8470  -29.4840   23.4500 C   0  0  0  0  0  3  0  0  0  0  0  0
  -17.0920  -28.2510   22.8190 C   0  0  0  0  0  3  0  0  0  0  0  0
  -25.8350  -32.5930   24.0590 C   0  0  0  0  0  3  0  0  0  0  0  0
  -25.4130  -33.9800   24.2960 N   0  0  0  0  0  0  0  0  0  0  0  0
  -25.7560  -35.0200   23.5270 C   0  0  0  0  0  0  0  0  0  0  0  0
  -26.5310  -34.9200   22.5710 O   0  0  0  0  0  0  0  0  0  0  0  0
  -24.7300  -34.1280   25.0260 H   0  0  0  0  0  0  0  0  0  0  0  0
  -23.9570  -36.6750   22.9400 C   0  0  0  0  0  1  0  0  0  0  0  0
  -25.1450  -36.3920   23.8720 C   0  0  0  0  0  3  0  0  0  0  0  0
  -27.1450  -37.4460   24.8280 C   0  0  0  0  0  1  0  0  0  0  0  0
  -26.1150  -37.5040   23.7930 N   0  0  0  0  0  0  0  0  0  0  0  0
  -25.6430  -38.4010   23.8730 H   0  0  0  0  0  0  0  0  0  0  0  0
  -26.2540  -31.8950   25.4120 C   0  0  1  0  0  0  0  0  0  0  0  0
  -25.0660  -31.6050   26.3600 C   0  0  0  0  0  1  0  0  0  0  0  0
  -26.9740  -30.5560   25.1320 C   0  0  0  0  0  1  0  0  0  0  0  0
  -27.2710  -32.7870   26.1650 C   0  0  0  0  0  1  0  0  0  0  0  0
  2  1  1  0
  3  8  1  0
  3  1  2  0
  4  2  2  0
  5  6  2  0
  5  4  1  0
  6  3  1  0
  7  5  1  0
 10  9  1  0
 10  8  1  0
 10 13  1  0
 13 12  1  6
 13 14  1  0
 13 11  1  0
 15 21  1  0
 15 23  1  0
 16 21  1  0
 17 18  1  0
 17 16  1  0
 19 18  1  0
 19 28  1  0
 19 20  1  0
 21 20  1  0
 22 15  2  0
 23 14  1  0
 24 23  1  0
 25 26  2  0
 26 45  1  0
 27 26  1  0
 27 30  1  0
 28 29  1  0
 28 25  1  0
 29 27  2  0
 30 31  1  0
 31 32  2  0
 33 36  1  0
 33 32  1  0
 34 33  2  0
 35 34  1  0
 35 30  2  0
 36 37  1  0
 37 38  1  0
 38 39  2  0
 40 39  1  0
 40 44  1  0
 41 40  2  0
 42 37  2  0
 42 41  1  0
 43 42  1  0
 45 46  1  0
 46 49  1  0
 46 48  1  0
 47 45  2  0
 50 25  1  0
 50 51  1  0
 52 50  1  0
 53  6  1  0
 54 56  1  0
 56 53  1  0
 56 55  1  0
 57  4  1  0
 57 58  1  0
 59 70  2  0
 60 58  1  0
 60 65  1  0
 61 69  1  0
 61 71  1  0
 62 64  1  0
 63 69  1  0
 64 65  2  0
 64 63  1  0
 66 60  2  0
 67 66  1  0
 67 62  2  0
 68 62  1  0
 68 61  1  0
 69 59  1  0
 71 73  2  0
 72 71  1  0
 74 72  1  0
 75 84  2  0
 75 80  1  0
 76 72  1  0
 76 80  1  0
 77 76  1  0
 78 79  1  0
 78 77  1  0
 79 75  1  0
 80 81  2  0
 81 82  1  0
 83 82  2  0
 84 83  1  0
 85 59  1  0
 85 86  1  0
 85 95  1  0
 86 89  1  0
 87 91  1  0
 87 86  1  0
 88 87  2  0
 91 90  1  0
 93 91  1  0
 93 94  1  0
 93 92  1  0
 95 98  1  1
 95 96  1  0
 97 95  1  0
M  ISO  4  15 100  23 100  57 101  58 101
M  END
>  <TORSDO>  (32) 
F 23

>  <SCORE>  (32) 
-12.548

>  <name>  (32) 
31

>  <ligand_id>  (32) 
31

>  <original_smiles>  (32) 
[H]c1c([H])c([H])c2c(c1[H])C([H])([H])C([H])([H])C([H])([H])C2([H])N([H])C(=O)C1([H])N(C(=O)C([H])(N([H])C(=O)C([H])(N([H])C([H])([H])[H])C([H])([H])[H])C(C([H])([H])[H])(C([H])([H])[H])C([H])([H])[H])C([H])([H])c2c([H])c(OC([H])([H])c3c([H])c([H])c(C([H])([H])C([H])(C([H])([H])[H])C(C([H])([H])[H])(C([H])([H])[H])C([H])([H])N([H])C(=O)N4C([H])([H])C([H])([H])C([H])([H])C([H])(n5nc(-c6c([H])c([H])c(Oc7c([H])c([H])c(F)c([H])c7F)c([H])c6[H])c(C(=O)N([H])[H])c5N([H])[H])C4([H])[H])c(C([H])([H])C([H])(C([H])([H])[H])C([H])([H])[H])c3C([H])([H])[H])c([H])c([H])c2C1([H])[H]

>  <smiles>  (32) 
[H]c1c([H])c([H])c2c(c1[H])C([H])([H])C([H])([H])C([H])([H])C2([H])N([H])C(=O)C1([H])N(C(=O)C([H])(N([H])C(=O)C([H])(N([H])C([H])([H])[H])C([H])([H])[H])C(C([H])([H])[H])(C([H])([H])[H])C([H])([H])[H])C([H])([H])c2c([H])c(OC([H])([H])c3c([H])c([H])c(C([H])([H])C([H])(C([H])([H])[H])C(C([H])([H])[H])(C([H])([H])[H])C([H])([H])N([H])C(=O)N4C([H])([H])C([H])([H])C([H])([H])C([H])(n5nc(-c6c([H])c([H])c(Oc7c([H])c([H])c(F)c([H])c7F)c([H])c6[H])c(C(=O)N([H])[H])c5N([H])[H])C4([H])[H])c(C([H])([H])C([H])(C([H])([H])[H])C([H])([H])[H])c3C([H])([H])[H])c([H])c([H])c2C1([H])[H]

$$$$
32:0:0
     RDKit          3D

 90 98  0  0  1  0  0  0  0  0999 V2000
  -28.6040  -21.8710   20.6020 C   0  0  0  0  0  3  0  0  0  0  0  0
  -29.4490  -20.6960   20.2370 C   0  0  0  0  0  0  0  0  0  0  0  0
  -30.6070  -21.1150   19.5190 C   0  0  0  0  0  0  0  0  0  0  0  0
  -28.8850  -23.2980   20.2710 C   0  0  0  0  0  0  0  0  0  0  0  0
  -30.8460  -22.4990   19.2550 C   0  0  0  0  0  0  0  0  0  0  0  0
  -32.1150  -22.9180   18.5280 C   0  0  0  0  0  1  0  0  0  0  0  0
  -30.0360  -23.5370   19.6080 N   0  0  0  0  0  0  0  0  0  0  0  0
  -31.7740  -19.9740   18.9360 Cl  0  0  0  0  0  0  0  0  0  0  0  0
  -29.1420  -19.0800   20.5750 C   0  0  0  0  0  3  0  0  0  0  0  0
  -30.0970  -17.7100   20.2140 C   0  0  0  0  0  3  0  0  0  0  0  0
  -30.5360  -14.9880   20.3180 C   0  0  0  0  0  0  0  0  0  0  0  0
  -30.4110  -12.6350   19.3760 C   0  0  0  0  0  2  0  0  0  0  0  0
  -29.4780  -12.6100   18.1430 C   0  0  0  0  0  2  0  0  0  0  0  0
  -28.0170  -12.3880   18.5780 C   0  0  0  0  0  2  0  0  0  0  0  0
  -27.6150  -13.3030   19.7650 C   0  0  0  0  0  3  0  0  0  0  0  0
  -28.6740  -13.3080   20.8900 C   0  0  0  0  0  2  0  0  0  0  0  0
  -29.9420  -13.7260   20.2820 N   0  0  0  0  0  0  0  0  0  0  0  0
  -31.7250  -15.0520   19.9840 O   0  0  0  0  0  0  0  0  0  0  0  0
  -29.7740  -16.1800   20.5180 N   0  0  0  0  0  0  0  0  0  0  0  0
  -28.8330  -16.0070   20.8330 H   0  0  0  0  0  0  0  0  0  0  0  0
  -25.2290  -13.8670   20.4990 C   0  0  0  0  0  0  0  0  0  0  0  0
  -24.1710  -13.0850   20.8700 C   0  0  0  0  0  0  0  0  0  0  0  0
  -24.6440  -11.7360   20.8430 C   0  0  0  0  0  0  0  0  0  0  0  0
  -26.2780  -12.9950   20.2620 N   0  0  0  0  0  0  0  0  0  0  0  0
  -25.9360  -11.7090   20.5330 N   0  0  0  0  0  0  0  0  0  0  0  0
  -23.9230  -10.4690   21.0300 C   0  0  0  0  0  0  0  0  0  0  0  0
  -24.3590   -9.5050   21.9650 C   0  0  0  0  0  3  0  0  0  0  0  0
  -23.6390   -8.3040   22.1450 C   0  0  0  0  0  3  0  0  0  0  0  0
  -22.4680   -8.0590   21.3890 C   0  0  0  0  0  0  0  0  0  0  0  0
  -22.0520   -9.0130   20.4410 C   0  0  0  0  0  3  0  0  0  0  0  0
  -22.7740  -10.2040   20.2600 C   0  0  0  0  0  3  0  0  0  0  0  0
  -21.7200   -6.9100   21.4770 O   0  0  0  0  0  0  0  0  0  0  0  0
  -21.6700   -6.1690   22.6310 C   0  0  0  0  0  0  0  0  0  0  0  0
  -21.2270   -6.7220   23.8520 C   0  0  0  0  0  3  0  0  0  0  0  0
  -21.1260   -5.9090   24.9970 C   0  0  0  0  0  3  0  0  0  0  0  0
  -21.4550   -4.5420   24.9240 C   0  0  0  0  0  0  0  0  0  0  0  0
  -21.8920   -3.9880   23.7090 C   0  0  0  0  0  3  0  0  0  0  0  0
  -21.9960   -4.7990   22.5640 C   0  0  0  0  0  0  0  0  0  0  0  0
  -22.3940   -4.2550   21.3890 F   0  0  0  0  0  0  0  0  0  0  0  0
  -21.3520   -3.7580   26.0230 F   0  0  0  0  0  0  0  0  0  0  0  0
  -22.7710  -13.5530   21.1400 C   0  0  0  0  0  0  0  0  0  0  0  0
  -22.0470  -12.8530   22.0070 N   0  0  0  0  0  0  0  0  0  0  0  0
  -22.3260  -14.5750   20.6180 O   0  0  0  0  0  0  0  0  0  0  0  0
  -22.4220  -12.0270   22.4490 H   0  0  0  0  0  0  0  0  0  0  0  0
  -21.1060  -13.1460   22.2290 H   0  0  0  0  0  0  0  0  0  0  0  0
  -25.3850  -15.2380   20.3110 N   0  0  0  0  0  0  0  0  0  0  0  0
  -24.6080  -15.8860   20.3870 H   0  0  0  0  0  0  0  0  0  0  0  0
  -26.2210  -15.6670   19.9340 H   0  0  0  0  0  0  0  0  0  0  0  0
  -27.9480  -24.6360   20.5900 C   0  0  0  0  0  2  0  0  0  0  0  0
  -28.2520  -26.1450   20.2640 O   0  0  0  0  0  0  0  0  0  0  0  0
  -24.6200  -31.8810   23.2290 C   0  0  0  0  0  0  0  0  0  0  0  0
  -27.1980  -27.1410   20.2250 C   0  0  0  0  0  0  0  0  0  0  0  0
  -23.4180  -30.4780   21.5940 C   0  0  0  0  0  3  0  0  0  0  0  0
  -24.8690  -28.8950   20.1750 C   0  0  0  0  0  0  0  0  0  0  0  0
  -25.9730  -30.7410   21.4260 C   0  0  0  0  0  2  0  0  0  0  0  0
  -26.0490  -29.3430   20.7810 C   0  0  0  0  0  0  0  0  0  0  0  0
  -27.2140  -28.4840   20.7830 C   0  0  0  0  0  3  0  0  0  0  0  0
  -25.9950  -26.8030   19.5690 C   0  0  0  0  0  3  0  0  0  0  0  0
  -24.8550  -27.6400   19.5480 C   0  0  0  0  0  3  0  0  0  0  0  0
  -23.6400  -29.7920   20.2190 C   0  0  0  0  0  2  0  0  0  0  0  0
  -24.6910  -31.0580   22.1360 N   0  0  0  0  0  0  0  0  0  0  0  0
  -23.5350  -32.1680   23.7590 O   0  0  0  0  0  0  0  0  0  0  0  0
  -22.7410  -29.4750   22.5650 C   0  0  0  0  0  0  0  0  0  0  0  0
  -21.4130  -29.3030   22.4430 N   0  0  0  0  0  0  0  0  0  0  0  0
  -23.4130  -28.8540   23.3910 O   0  0  0  0  0  0  0  0  0  0  0  0
  -20.9280  -29.8540   21.7490 H   0  0  0  0  0  0  0  0  0  0  0  0
  -18.0300  -28.1060   22.9560 C   0  0  0  0  0  0  0  0  0  0  0  0
  -20.5910  -28.3690   23.2190 C   0  0  0  0  0  3  0  0  0  0  0  0
  -20.6900  -26.9350   22.6450 C   0  0  0  0  0  2  0  0  0  0  0  0
  -19.5840  -26.6110   21.6350 C   0  0  0  0  0  2  0  0  0  0  0  0
  -18.2060  -26.7560   22.2840 C   0  0  0  0  0  2  0  0  0  0  0  0
  -19.1510  -28.8720   23.3800 C   0  0  0  0  0  0  0  0  0  0  0  0
  -18.9300  -30.1330   23.9710 C   0  0  0  0  0  3  0  0  0  0  0  0
  -17.6260  -30.6320   24.1430 C   0  0  0  0  0  3  0  0  0  0  0  0
  -16.5200  -29.8650   23.7350 C   0  0  0  0  0  3  0  0  0  0  0  0
  -16.7240  -28.6040   23.1470 C   0  0  0  0  0  3  0  0  0  0  0  0
  -25.8990  -32.5200   23.8530 C   0  0  0  0  0  3  0  0  0  0  0  0
  -26.4100  -31.7550   25.1340 C   0  0  1  0  0  0  0  0  0  0  0  0
  -25.3160  -31.5280   26.2020 C   0  0  0  0  0  1  0  0  0  0  0  0
  -26.9890  -30.3730   24.7570 C   0  0  0  0  0  1  0  0  0  0  0  0
  -27.5630  -32.5470   25.7940 C   0  0  0  0  0  1  0  0  0  0  0  0
  -25.5880  -33.9190   24.1840 N   0  0  0  0  0  0  0  0  0  0  0  0
  -25.9110  -34.9760   23.4270 C   0  0  0  0  0  0  0  0  0  0  0  0
  -26.5710  -34.8730   22.3890 O   0  0  0  0  0  0  0  0  0  0  0  0
  -25.0100  -34.0700   24.9980 H   0  0  0  0  0  0  0  0  0  0  0  0
  -24.1830  -36.7700   23.0830 C   0  0  0  0  0  1  0  0  0  0  0  0
  -25.4280  -36.3650   23.8910 C   0  0  0  0  0  3  0  0  0  0  0  0
  -27.5690  -37.2470   24.7090 C   0  0  0  0  0  1  0  0  0  0  0  0
  -26.4610  -37.4180   23.7730 N   0  0  0  0  0  0  0  0  0  0  0  0
  -26.0560  -38.3360   23.9290 H   0  0  0  0  0  0  0  0  0  0  0  0
  2  9  1  0
  2  1  2  0
  3  2  1  0
  4 49  1  0
  4  1  1  0
  5  3  2  0
  5  7  1  0
  6  5  1  0
  7  4  2  0
  8  3  1  0
 10 19  1  0
 10  9  2  0
 11 19  1  0
 12 17  1  0
 13 14  1  0
 13 12  1  0
 15 14  1  0
 15 24  1  0
 15 16  1  0
 17 11  1  0
 17 16  1  0
 18 11  2  0
 19 20  1  0
 21 22  2  0
 22 41  1  0
 23 22  1  0
 23 26  1  0
 24 21  1  0
 24 25  1  0
 25 23  2  0
 26 27  1  0
 27 28  2  0
 29 32  1  0
 29 28  1  0
 30 29  2  0
 31 30  1  0
 31 26  2  0
 32 33  1  0
 33 34  1  0
 34 35  2  0
 36 35  1  0
 36 40  1  0
 37 36  2  0
 38 33  2  0
 38 37  1  0
 39 38  1  0
 41 42  1  0
 42 45  1  0
 42 44  1  0
 43 41  2  0
 46 47  1  0
 46 21  1  0
 48 46  1  0
 50 49  1  0
 51 62  2  0
 52 50  1  0
 52 57  1  0
 53 61  1  0
 53 63  1  0
 54 60  1  0
 54 56  1  0
 55 61  1  0
 56 57  2  0
 56 55  1  0
 58 52  2  0
 59 58  1  0
 59 54  2  0
 60 53  1  0
 61 51  1  0
 63 65  2  0
 64 63  1  0
 66 64  1  0
 67 76  2  0
 67 72  1  0
 68 64  1  0
 68 72  1  0
 69 68  1  0
 70 71  1  0
 70 69  1  0
 71 67  1  0
 72 73  2  0
 73 74  1  0
 75 74  2  0
 76 75  1  0
 77 51  1  0
 77 82  1  0
 77 78  1  0
 78 81  1  1
 78 79  1  0
 80 78  1  0
 82 85  1  0
 83 87  1  0
 83 82  1  0
 84 83  2  0
 87 86  1  0
 89 87  1  0
 89 90  1  0
 89 88  1  0
M  ISO  4  11 100  19 100  49 101  50 101
M  END
>  <TORSDO>  (33) 
F 19

>  <SCORE>  (33) 
-14.912

>  <name>  (33) 
32

>  <ligand_id>  (33) 
32

>  <original_smiles>  (33) 
[H]c1c([H])c([H])c2c(c1[H])C([H])([H])C([H])([H])C([H])([H])C2([H])N([H])C(=O)C1([H])N(C(=O)C([H])(N([H])C(=O)C([H])(N([H])C([H])([H])[H])C([H])([H])[H])C(C([H])([H])[H])(C([H])([H])[H])C([H])([H])[H])C([H])([H])c2c([H])c(OC([H])([H])c3nc(C([H])([H])[H])c(Cl)c(C([H])([H])C([H])([H])N([H])C(=O)N4C([H])([H])C([H])([H])C([H])([H])C([H])(n5nc(-c6c([H])c([H])c(Oc7c([H])c([H])c(F)c([H])c7F)c([H])c6[H])c(C(=O)N([H])[H])c5N([H])[H])C4([H])[H])c3[H])c([H])c([H])c2C1([H])[H]

>  <smiles>  (33) 
[H]c1c([H])c([H])c2c(c1[H])C([H])([H])C([H])([H])C([H])([H])C2([H])N([H])C(=O)C1([H])N(C(=O)C([H])(N([H])C(=O)C([H])(N([H])C([H])([H])[H])C([H])([H])[H])C(C([H])([H])[H])(C([H])([H])[H])C([H])([H])[H])C([H])([H])c2c([H])c(OC([H])([H])c3nc(C([H])([H])[H])c(Cl)c(C([H])([H])C([H])([H])N([H])C(=O)N4C([H])([H])C([H])([H])C([H])([H])C([H])(n5nc(-c6c([H])c([H])c(Oc7c([H])c([H])c(F)c([H])c7F)c([H])c6[H])c(C(=O)N([H])[H])c5N([H])[H])C4([H])[H])c3[H])c([H])c([H])c2C1([H])[H]

$$$$
33:0:0
     RDKit          3D

 93101  0  0  1  0  0  0  0  0999 V2000
  -31.4370  -26.6450   13.5530 C   0  0  0  0  0  3  0  0  0  0  0  0
  -32.4830  -25.9700   12.8750 C   0  0  0  0  0  0  0  0  0  0  0  0
  -30.0950  -26.4150   13.2000 C   0  0  0  0  0  0  0  0  0  0  0  0
  -32.0250  -25.0520   11.7990 C   0  0  0  0  0  0  0  0  0  0  0  0
  -28.9590  -27.1930   13.8290 C   0  0  0  0  0  1  0  0  0  0  0  0
  -29.7470  -25.5430   12.2400 N   0  0  0  0  0  0  0  0  0  0  0  0
  -30.6930  -24.9010   11.5660 N   0  0  0  0  0  0  0  0  0  0  0  0
  -34.1680  -23.8280   11.0740 C   0  0  0  0  0  1  0  0  0  0  0  0
  -33.0150  -25.3180    9.4790 C   0  0  0  0  0  1  0  0  0  0  0  0
  -32.7770  -24.3000   10.6120 C   0  0  2  0  0  0  0  0  0  0  0  0
  -32.0060  -22.9950    9.9950 C   0  0  0  0  0  2  0  0  0  0  0  0
  -29.7240  -21.9000    9.3050 C   0  0  0  0  0  0  0  0  0  0  0  0
  -27.5250  -21.5510    8.1860 C   0  0  0  0  0  2  0  0  0  0  0  0
  -27.1770  -22.7740    7.3140 C   0  0  0  0  0  2  0  0  0  0  0  0
  -26.4790  -23.8640    8.1500 C   0  0  0  0  0  2  0  0  0  0  0  0
  -27.1970  -24.1480    9.4940 C   0  0  0  0  0  3  0  0  0  0  0  0
  -27.5550  -22.8420   10.2320 C   0  0  0  0  0  2  0  0  0  0  0  0
  -28.3570  -22.0230    9.3140 N   0  0  0  0  0  0  0  0  0  0  0  0
  -30.2640  -21.0230    8.6250 O   0  0  0  0  0  0  0  0  0  0  0  0
  -30.4850  -22.8830    9.9080 N   0  0  0  0  0  0  0  0  0  0  0  0
  -29.9670  -23.5780   10.4200 H   0  0  0  0  0  0  0  0  0  0  0  0
  -26.3450  -26.4440   10.2660 C   0  0  0  0  0  0  0  0  0  0  0  0
  -25.4380  -26.8130   11.2190 C   0  0  0  0  0  0  0  0  0  0  0  0
  -24.9970  -25.6020   11.8380 C   0  0  0  0  0  0  0  0  0  0  0  0
  -26.4290  -25.0630   10.3340 N   0  0  0  0  0  0  0  0  0  0  0  0
  -25.6520  -24.5640   11.3300 N   0  0  0  0  0  0  0  0  0  0  0  0
  -23.9500  -25.3670   12.8380 C   0  0  0  0  0  0  0  0  0  0  0  0
  -24.1800  -24.5560   13.9710 C   0  0  0  0  0  3  0  0  0  0  0  0
  -23.1650  -24.3610   14.9320 C   0  0  0  0  0  3  0  0  0  0  0  0
  -21.9030  -24.9800   14.7660 C   0  0  0  0  0  0  0  0  0  0  0  0
  -21.6710  -25.7710   13.6270 C   0  0  0  0  0  3  0  0  0  0  0  0
  -22.6830  -25.9600   12.6710 C   0  0  0  0  0  3  0  0  0  0  0  0
  -20.8470  -24.8240   15.6330 O   0  0  0  0  0  0  0  0  0  0  0  0
  -21.0120  -24.9220   16.9910 C   0  0  0  0  0  0  0  0  0  0  0  0
  -20.9860  -26.1660   17.6580 C   0  0  0  0  0  3  0  0  0  0  0  0
  -21.0910  -26.2140   19.0620 C   0  0  0  0  0  3  0  0  0  0  0  0
  -21.2140  -25.0210   19.7990 C   0  0  0  0  0  0  0  0  0  0  0  0
  -21.2340  -23.7800   19.1370 C   0  0  0  0  0  3  0  0  0  0  0  0
  -21.1310  -23.7320   17.7350 C   0  0  0  0  0  0  0  0  0  0  0  0
  -21.1310  -22.5350   17.1020 F   0  0  0  0  0  0  0  0  0  0  0  0
  -21.3040  -25.0640   21.1490 F   0  0  0  0  0  0  0  0  0  0  0  0
  -24.9280  -28.2000   11.4740 C   0  0  0  0  0  0  0  0  0  0  0  0
  -24.8440  -28.6000   12.7370 N   0  0  0  0  0  0  0  0  0  0  0  0
  -24.6480  -28.9600   10.5460 O   0  0  0  0  0  0  0  0  0  0  0  0
  -25.0950  -27.9830   13.4970 H   0  0  0  0  0  0  0  0  0  0  0  0
  -24.5260  -29.5350   12.9490 H   0  0  0  0  0  0  0  0  0  0  0  0
  -27.0890  -27.1630    9.3330 N   0  0  0  0  0  0  0  0  0  0  0  0
  -26.9980  -28.1690    9.2420 H   0  0  0  0  0  0  0  0  0  0  0  0
  -27.7090  -26.7600    8.6450 H   0  0  0  0  0  0  0  0  0  0  0  0
  -33.9360  -26.4300   13.3320 C   0  0  0  0  0  3  0  0  0  0  0  0
  -34.8270  -25.5760   14.4100 C   0  0  0  0  0  3  0  0  0  0  0  0
  -34.3830  -24.0910   14.9050 C   0  0  0  0  0  2  0  0  0  0  0  0
  -34.5840  -23.5950   16.3240 O   0  0  0  0  0  0  0  0  0  0  0  0
  -38.7770  -22.2530   22.0920 C   0  0  0  0  0  0  0  0  0  0  0  0
  -35.7470  -23.9340   17.0640 C   0  0  0  0  0  0  0  0  0  0  0  0
  -38.9580  -24.4950   21.0760 C   0  0  0  0  0  3  0  0  0  0  0  0
  -37.9330  -24.7600   18.7430 C   0  0  0  0  0  0  0  0  0  0  0  0
  -38.3320  -22.4670   19.6330 C   0  0  0  0  0  2  0  0  0  0  0  0
  -37.5550  -23.4120   18.7160 C   0  0  0  0  0  0  0  0  0  0  0  0
  -36.4730  -22.9950   17.8760 C   0  0  0  0  0  3  0  0  0  0  0  0
  -36.2260  -25.2620   17.0710 C   0  0  0  0  0  3  0  0  0  0  0  0
  -37.2810  -25.6790   17.9070 C   0  0  0  0  0  3  0  0  0  0  0  0
  -39.0560  -25.1670   19.6810 C   0  0  0  0  0  2  0  0  0  0  0  0
  -38.6710  -23.0280   20.9720 N   0  0  0  0  0  0  0  0  0  0  0  0
  -39.1290  -22.7350   23.1790 O   0  0  0  0  0  0  0  0  0  0  0  0
  -37.9280  -25.2610   21.9420 C   0  0  0  0  0  0  0  0  0  0  0  0
  -38.3760  -26.3410   22.6050 N   0  0  0  0  0  0  0  0  0  0  0  0
  -36.7510  -24.8940   21.9920 O   0  0  0  0  0  0  0  0  0  0  0  0
  -39.3550  -26.5740   22.5250 H   0  0  0  0  0  0  0  0  0  0  0  0
  -38.5300  -29.0810   24.9690 C   0  0  0  0  0  0  0  0  0  0  0  0
  -37.5670  -27.2320   23.4390 C   0  0  0  0  0  3  0  0  0  0  0  0
  -36.9620  -28.3800   22.6020 C   0  0  0  0  0  2  0  0  0  0  0  0
  -37.8270  -29.6450   22.6030 C   0  0  0  0  0  2  0  0  0  0  0  0
  -38.0180  -30.1640   24.0320 C   0  0  0  0  0  2  0  0  0  0  0  0
  -38.3330  -27.7040   24.6800 C   0  0  0  0  0  0  0  0  0  0  0  0
  -38.8540  -26.7370   25.5670 C   0  0  0  0  0  3  0  0  0  0  0  0
  -39.5620  -27.1240   26.7200 C   0  0  0  0  0  3  0  0  0  0  0  0
  -39.7460  -28.4880   27.0060 C   0  0  0  0  0  3  0  0  0  0  0  0
  -39.2270  -29.4630   26.1340 C   0  0  0  0  0  3  0  0  0  0  0  0
  -38.4810  -20.7210   22.0540 C   0  0  0  0  0  3  0  0  0  0  0  0
  -39.4630  -20.0600   22.9290 N   0  0  0  0  0  0  0  0  0  0  0  0
  -40.5910  -19.4750   22.5060 C   0  0  0  0  0  0  0  0  0  0  0  0
  -40.8800  -19.3700   21.3100 O   0  0  0  0  0  0  0  0  0  0  0  0
  -39.3090  -20.1410   23.9240 H   0  0  0  0  0  0  0  0  0  0  0  0
  -42.7400  -19.8670   23.7600 C   0  0  0  0  0  1  0  0  0  0  0  0
  -41.5490  -18.9120   23.5750 C   0  0  0  0  0  3  0  0  0  0  0  0
  -41.0580  -16.5070   23.4890 C   0  0  0  0  0  1  0  0  0  0  0  0
  -42.0490  -17.5550   23.2610 N   0  0  0  0  0  0  0  0  0  0  0  0
  -42.8740  -17.3380   23.8160 H   0  0  0  0  0  0  0  0  0  0  0  0
  -37.0090  -20.3580   22.5010 C   0  0  1  0  0  0  0  0  0  0  0  0
  -36.8700  -20.0730   24.0140 C   0  0  0  0  0  1  0  0  0  0  0  0
  -36.0230  -21.4980   22.1480 C   0  0  0  0  0  1  0  0  0  0  0  0
  -36.5230  -19.1060   21.7320 C   0  0  0  0  0  1  0  0  0  0  0  0
  2 50  1  0
  2  1  2  0
  3  1  1  0
  3  5  1  0
  4  2  1  0
  6  3  2  0
  7  4  2  0
  7  6  1  0
 10  9  1  6
 10  8  1  0
 10  4  1  0
 11 10  1  0
 12 18  1  0
 12 20  1  0
 13 18  1  0
 14 15  1  0
 14 13  1  0
 16 15  1  0
 16 17  1  0
 16 25  1  0
 18 17  1  0
 19 12  2  0
 20 11  1  0
 20 21  1  0
 22 25  1  0
 22 23  2  0
 23 42  1  0
 23 24  1  0
 24 27  1  0
 25 26  1  0
 26 24  2  0
 27 28  1  0
 28 29  2  0
 30 29  1  0
 30 33  1  0
 31 30  2  0
 32 27  2  0
 32 31  1  0
 33 34  1  0
 34 35  2  0
 34 39  1  0
 35 36  1  0
 36 37  2  0
 37 41  1  0
 38 37  1  0
 39 38  2  0
 40 39  1  0
 42 43  1  0
 43 46  1  0
 43 45  1  0
 44 42  2  0
 47 22  1  0
 48 47  1  0
 49 47  1  0
 50 51  2  0
 51 52  1  0
 52 53  1  0
 53 55  1  0
 54 65  2  0
 55 61  2  0
 55 60  1  0
 56 66  1  0
 57 63  1  0
 58 64  1  0
 59 57  1  0
 59 58  1  0
 60 59  2  0
 61 62  1  0
 62 57  2  0
 63 56  1  0
 64 56  1  0
 64 54  1  0
 66 68  2  0
 66 67  1  0
 69 67  1  0
 70 79  1  0
 71 67  1  0
 71 75  1  0
 72 73  1  0
 72 71  1  0
 73 74  1  0
 74 70  1  0
 75 70  2  0
 75 76  1  0
 76 77  2  0
 77 78  1  0
 79 78  2  0
 80 54  1  0
 80 90  1  0
 80 81  1  0
 81 84  1  0
 82 81  1  0
 82 86  1  0
 83 82  2  0
 86 85  1  0
 88 87  1  0
 88 86  1  0
 88 89  1  0
 90 91  1  1
 92 90  1  0
 93 90  1  0
M  ISO  4  12 100  20 100  52 101  53 101
M  END
>  <TORSDO>  (34) 
F 21

>  <SCORE>  (34) 
-4.279

>  <name>  (34) 
33

>  <ligand_id>  (34) 
33

>  <original_smiles>  (34) 
[H]c1c([H])c([H])c2c(c1[H])C([H])([H])C([H])([H])C([H])([H])C2([H])N([H])C(=O)C1([H])N(C(=O)C([H])(N([H])C(=O)C([H])(N([H])C([H])([H])[H])C([H])([H])[H])C(C([H])([H])[H])(C([H])([H])[H])C([H])([H])[H])C([H])([H])c2c([H])c(OC([H])([H])C([H])([H])C([H])([H])c3c(C(C([H])([H])[H])(C([H])([H])[H])C([H])([H])N([H])C(=O)N4C([H])([H])C([H])([H])C([H])([H])C([H])(n5nc(-c6c([H])c([H])c(Oc7c([H])c([H])c(F)c([H])c7F)c([H])c6[H])c(C(=O)N([H])[H])c5N([H])[H])C4([H])[H])nnc(C([H])([H])[H])c3[H])c([H])c([H])c2C1([H])[H]

>  <smiles>  (34) 
[H]c1c([H])c([H])c2c(c1[H])C([H])([H])C([H])([H])C([H])([H])C2([H])N([H])C(=O)C1([H])N(C(=O)C([H])(N([H])C(=O)C([H])(N([H])C([H])([H])[H])C([H])([H])[H])C(C([H])([H])[H])(C([H])([H])[H])C([H])([H])[H])C([H])([H])c2c([H])c(OC([H])([H])C([H])([H])C([H])([H])c3c(C(C([H])([H])[H])(C([H])([H])[H])C([H])([H])N([H])C(=O)N4C([H])([H])C([H])([H])C([H])([H])C([H])(n5nc(-c6c([H])c([H])c(Oc7c([H])c([H])c(F)c([H])c7F)c([H])c6[H])c(C(=O)N([H])[H])c5N([H])[H])C4([H])[H])nnc(C([H])([H])[H])c3[H])c([H])c([H])c2C1([H])[H]

$$$$
34:0:0
     RDKit          3D

101109  0  0  1  0  0  0  0  0999 V2000
  -28.8260  -22.0550   20.3650 N   0  0  0  0  0  0  0  0  0  0  0  0
  -28.5900  -21.2440   19.8050 H   0  0  0  0  0  0  0  0  0  0  0  0
  -30.6590  -22.2630   23.6920 C   0  0  0  0  0  3  0  0  0  0  0  0
  -31.0220  -20.1130   22.6570 C   0  0  0  0  0  3  0  0  0  0  0  0
  -31.2540  -21.0000   23.7130 C   0  0  0  0  0  0  0  0  0  0  0  0
  -29.8400  -22.6820   22.6190 C   0  0  0  0  0  0  0  0  0  0  0  0
  -30.1650  -20.4540   21.5840 C   0  0  0  0  0  0  0  0  0  0  0  0
  -29.5960  -21.7740   21.5240 C   0  0  0  0  0  0  0  0  0  0  0  0
  -32.1380  -20.6140   24.8840 C   0  0  0  0  0  1  0  0  0  0  0  0
  -29.7440  -25.0120   23.8580 C   0  0  0  0  0  1  0  0  0  0  0  0
  -29.2440  -24.0920   22.7270 C   0  0  0  0  0  2  0  0  0  0  0  0
  -29.8350  -19.3830   20.5130 C   0  0  0  0  0  2  0  0  0  0  0  0
  -30.7340  -18.1090   20.3750 C   0  0  0  0  0  2  0  0  0  0  0  0
  -30.6200  -17.0050   21.4680 C   0  0  0  0  0  2  0  0  0  0  0  0
  -30.9270  -14.7040   20.4060 C   0  0  0  0  0  0  0  0  0  0  0  0
  -30.7080  -12.4620   19.3710 C   0  0  0  0  0  2  0  0  0  0  0  0
  -29.7370  -12.5300   18.1730 C   0  0  0  0  0  2  0  0  0  0  0  0
  -28.2740  -12.3730   18.6340 C   0  0  0  0  0  2  0  0  0  0  0  0
  -27.9240  -13.2970   19.8300 C   0  0  0  0  0  3  0  0  0  0  0  0
  -28.9970  -13.1730   20.9340 C   0  0  0  0  0  2  0  0  0  0  0  0
  -30.3010  -13.4980   20.3300 N   0  0  0  0  0  0  0  0  0  0  0  0
  -32.0250  -14.9310   19.8900 O   0  0  0  0  0  0  0  0  0  0  0  0
  -30.2080  -15.6670   21.0180 N   0  0  0  0  0  0  0  0  0  0  0  0
  -29.2990  -15.3690   21.3410 H   0  0  0  0  0  0  0  0  0  0  0  0
  -25.5900  -13.9260   20.7180 C   0  0  0  0  0  0  0  0  0  0  0  0
  -24.5110  -13.1610   21.0690 C   0  0  0  0  0  0  0  0  0  0  0  0
  -24.9150  -11.8020   20.8950 C   0  0  0  0  0  0  0  0  0  0  0  0
  -26.5850  -13.0320   20.3500 N   0  0  0  0  0  0  0  0  0  0  0  0
  -26.1840  -11.7450   20.5130 N   0  0  0  0  0  0  0  0  0  0  0  0
  -24.1500  -10.5550   21.0040 C   0  0  0  0  0  0  0  0  0  0  0  0
  -24.5880   -9.4910   21.8240 C   0  0  0  0  0  3  0  0  0  0  0  0
  -23.8250   -8.3090   21.9310 C   0  0  0  0  0  3  0  0  0  0  0  0
  -22.6120   -8.1800   21.2150 C   0  0  0  0  0  0  0  0  0  0  0  0
  -22.1920   -9.2330   20.3830 C   0  0  0  0  0  3  0  0  0  0  0  0
  -22.9540  -10.4070   20.2750 C   0  0  0  0  0  3  0  0  0  0  0  0
  -21.8170   -7.0600   21.2350 O   0  0  0  0  0  0  0  0  0  0  0  0
  -21.7950   -6.2140   22.3140 C   0  0  0  0  0  0  0  0  0  0  0  0
  -21.4430   -6.6640   23.6070 C   0  0  0  0  0  3  0  0  0  0  0  0
  -21.3660   -5.7460   24.6740 C   0  0  0  0  0  3  0  0  0  0  0  0
  -21.6300   -4.3810   24.4510 C   0  0  0  0  0  0  0  0  0  0  0  0
  -21.9740   -3.9310   23.1640 C   0  0  0  0  0  3  0  0  0  0  0  0
  -22.0530   -4.8460   22.0990 C   0  0  0  0  0  0  0  0  0  0  0  0
  -22.3650   -4.4040   20.8560 F   0  0  0  0  0  0  0  0  0  0  0  0
  -21.5470   -3.4980   25.4730 F   0  0  0  0  0  0  0  0  0  0  0  0
  -23.1480  -13.6610   21.4550 C   0  0  0  0  0  0  0  0  0  0  0  0
  -22.4380  -12.9190   22.2990 N   0  0  0  0  0  0  0  0  0  0  0  0
  -22.7220  -14.7400   21.0460 O   0  0  0  0  0  0  0  0  0  0  0  0
  -22.7970  -12.0450   22.6540 H   0  0  0  0  0  0  0  0  0  0  0  0
  -21.5230  -13.2300   22.5940 H   0  0  0  0  0  0  0  0  0  0  0  0
  -25.8020  -15.2990   20.6610 N   0  0  0  0  0  0  0  0  0  0  0  0
  -25.0710  -15.9650   20.8870 H   0  0  0  0  0  0  0  0  0  0  0  0
  -26.6560  -15.7380   20.3370 H   0  0  0  0  0  0  0  0  0  0  0  0
  -28.1680  -23.2980   19.9370 C   0  0  0  0  0  3  0  0  0  0  0  0
  -27.6230  -23.1260   18.4970 C   0  0  0  0  0  2  0  0  0  0  0  0
  -26.4480  -22.1260   18.3470 C   0  0  0  0  0  2  0  0  0  0  0  0
  -25.5300  -19.7680   18.1700 C   0  0  0  0  0  1  0  0  0  0  0  0
  -27.7390  -20.3070   17.0880 C   0  0  0  0  0  1  0  0  0  0  0  0
  -26.8050  -20.6220   18.2660 C   0  0  0  0  0  3  0  0  0  0  0  0
  -29.0970  -24.5500   20.0510 C   0  0  0  0  0  2  0  0  0  0  0  0
  -28.3770  -25.7950   20.6360 C   0  0  0  0  0  2  0  0  0  0  0  0
  -28.6250  -27.0520   19.9700 O   0  0  0  0  0  0  0  0  0  0  0  0
  -24.6650  -31.9430   23.3000 C   0  0  0  0  0  0  0  0  0  0  0  0
  -27.4830  -27.8160   19.9450 C   0  0  0  0  0  0  0  0  0  0  0  0
  -23.5230  -30.5760   21.5880 C   0  0  0  0  0  3  0  0  0  0  0  0
  -25.0350  -29.2090   20.0610 C   0  0  0  0  0  0  0  0  0  0  0  0
  -26.0250  -31.0710   21.4010 C   0  0  0  0  0  2  0  0  0  0  0  0
  -26.1740  -29.7490   20.6740 C   0  0  0  0  0  0  0  0  0  0  0  0
  -27.4090  -29.0580   20.6190 C   0  0  0  0  0  3  0  0  0  0  0  0
  -26.3370  -27.3020   19.3080 C   0  0  0  0  0  3  0  0  0  0  0  0
  -25.1100  -27.9830   19.3770 C   0  0  0  0  0  3  0  0  0  0  0  0
  -23.7530  -29.9990   20.1680 C   0  0  0  0  0  2  0  0  0  0  0  0
  -24.7560  -31.2090   22.1560 N   0  0  0  0  0  0  0  0  0  0  0  0
  -23.5750  -32.1310   23.8560 O   0  0  0  0  0  0  0  0  0  0  0  0
  -22.9260  -29.4700   22.4860 C   0  0  0  0  0  0  0  0  0  0  0  0
  -21.6170  -29.2120   22.3330 N   0  0  0  0  0  0  0  0  0  0  0  0
  -23.6390  -28.8480   23.2790 O   0  0  0  0  0  0  0  0  0  0  0  0
  -21.0970  -29.7710   21.6730 H   0  0  0  0  0  0  0  0  0  0  0  0
  -18.3210  -27.7860   22.7320 C   0  0  0  0  0  0  0  0  0  0  0  0
  -20.8550  -28.1890   23.0490 C   0  0  0  0  0  3  0  0  0  0  0  0
  -21.0530  -26.7960   22.4100 C   0  0  0  0  0  2  0  0  0  0  0  0
  -19.9850  -26.4540   21.3660 C   0  0  0  0  0  2  0  0  0  0  0  0
  -18.5890  -26.4820   21.9980 C   0  0  0  0  0  2  0  0  0  0  0  0
  -19.3860  -28.5940   23.2110 C   0  0  0  0  0  0  0  0  0  0  0  0
  -19.0820  -29.8140   23.8550 C   0  0  0  0  0  3  0  0  0  0  0  0
  -17.7470  -30.2250   24.0290 C   0  0  0  0  0  3  0  0  0  0  0  0
  -16.6970  -29.4130   23.5670 C   0  0  0  0  0  3  0  0  0  0  0  0
  -16.9840  -28.1950   22.9240 C   0  0  0  0  0  3  0  0  0  0  0  0
  -25.9230  -32.5990   23.9480 C   0  0  0  0  0  3  0  0  0  0  0  0
  -25.5700  -33.9860   24.2880 N   0  0  0  0  0  0  0  0  0  0  0  0
  -25.8670  -35.0500   23.5320 C   0  0  0  0  0  0  0  0  0  0  0  0
  -26.5410  -34.9730   22.5010 O   0  0  0  0  0  0  0  0  0  0  0  0
  -24.9710  -34.1180   25.0900 H   0  0  0  0  0  0  0  0  0  0  0  0
  -24.0730  -36.7810   23.2020 C   0  0  0  0  0  1  0  0  0  0  0  0
  -25.3380  -36.4200   23.9970 C   0  0  0  0  0  3  0  0  0  0  0  0
  -27.4600  -37.3700   24.7890 C   0  0  0  0  0  1  0  0  0  0  0  0
  -26.3310  -37.5090   23.8710 N   0  0  0  0  0  0  0  0  0  0  0  0
  -25.8990  -38.4120   24.0440 H   0  0  0  0  0  0  0  0  0  0  0  0
  -26.4420  -31.8270   25.2220 C   0  0  1  0  0  0  0  0  0  0  0  0
  -25.3300  -31.4990   26.2470 C   0  0  0  0  0  1  0  0  0  0  0  0
  -27.1150  -30.4960   24.8130 C   0  0  0  0  0  1  0  0  0  0  0  0
  -27.5270  -32.6670   25.9390 C   0  0  0  0  0  1  0  0  0  0  0  0
  1  8  1  0
  2  1  1  0
  3  5  1  0
  4  5  2  0
  5  9  1  0
  6 11  1  0
  6  3  2  0
  7  4  1  0
  8  7  2  0
  8  6  1  0
 11 10  1  0
 12  7  1  0
 13 12  1  0
 13 14  1  0
 15 23  1  0
 16 21  1  0
 17 18  1  0
 17 16  1  0
 19 18  1  0
 19 28  1  0
 19 20  1  0
 21 15  1  0
 21 20  1  0
 22 15  2  0
 23 24  1  0
 23 14  1  0
 25 26  2  0
 26 45  1  0
 27 30  1  0
 27 26  1  0
 28 29  1  0
 28 25  1  0
 29 27  2  0
 30 31  1  0
 31 32  2  0
 33 36  1  0
 33 32  1  0
 34 33  2  0
 35 34  1  0
 35 30  2  0
 36 37  1  0
 37 38  1  0
 38 39  2  0
 40 39  1  0
 40 44  1  0
 41 40  2  0
 42 37  2  0
 42 41  1  0
 43 42  1  0
 45 46  1  0
 46 49  1  0
 46 48  1  0
 47 45  2  0
 50 25  1  0
 50 51  1  0
 52 50  1  0
 53 54  1  0
 53 59  1  0
 53  1  1  0
 55 54  1  0
 56 58  1  0
 57 58  1  0
 58 55  1  0
 59 60  1  0
 61 60  1  0
 62 73  2  0
 63 61  1  0
 63 68  1  0
 64 72  1  0
 64 74  1  0
 65 71  1  0
 65 67  1  0
 66 72  1  0
 67 66  1  0
 68 67  2  0
 69 70  1  0
 69 63  2  0
 70 65  2  0
 71 64  1  0
 72 62  1  0
 74 76  2  0
 75 74  1  0
 77 75  1  0
 78 87  2  0
 78 83  1  0
 79 75  1  0
 79 83  1  0
 80 79  1  0
 81 82  1  0
 81 80  1  0
 82 78  1  0
 83 84  2  0
 84 85  1  0
 86 85  2  0
 87 86  1  0
 88 62  1  0
 88 89  1  0
 88 98  1  0
 89 92  1  0
 90 94  1  0
 90 89  1  0
 91 90  2  0
 94 93  1  0
 96 94  1  0
 96 97  1  0
 96 95  1  0
 98101  1  1
 98 99  1  0
100 98  1  0
M  ISO  4  15 100  23 100  60 101  61 101
M  END
>  <TORSDO>  (35) 
F 27

>  <SCORE>  (35) 
-10.026

>  <name>  (35) 
34

>  <ligand_id>  (35) 
34

>  <original_smiles>  (35) 
[H]c1c([H])c([H])c2c(c1[H])C([H])([H])C([H])([H])C([H])([H])C2([H])N([H])C(=O)C1([H])N(C(=O)C([H])(N([H])C(=O)C([H])(N([H])C([H])([H])[H])C([H])([H])[H])C(C([H])([H])[H])(C([H])([H])[H])C([H])([H])[H])C([H])([H])c2c([H])c(OC([H])([H])C([H])([H])C([H])(N([H])c3c(C([H])([H])C([H])([H])[H])c([H])c(C([H])([H])[H])c([H])c3C([H])([H])C([H])([H])C([H])([H])N([H])C(=O)N3C([H])([H])C([H])([H])C([H])([H])C([H])(n4nc(-c5c([H])c([H])c(Oc6c([H])c([H])c(F)c([H])c6F)c([H])c5[H])c(C(=O)N([H])[H])c4N([H])[H])C3([H])[H])C([H])([H])C([H])([H])C([H])(C([H])([H])[H])C([H])([H])[H])c([H])c([H])c2C1([H])[H]

>  <smiles>  (35) 
[H]c1c([H])c([H])c2c(c1[H])C([H])([H])C([H])([H])C([H])([H])C2([H])N([H])C(=O)C1([H])N(C(=O)C([H])(N([H])C(=O)C([H])(N([H])C([H])([H])[H])C([H])([H])[H])C(C([H])([H])[H])(C([H])([H])[H])C([H])([H])[H])C([H])([H])c2c([H])c(OC([H])([H])C([H])([H])C([H])(N([H])c3c(C([H])([H])C([H])([H])[H])c([H])c(C([H])([H])[H])c([H])c3C([H])([H])C([H])([H])C([H])([H])N([H])C(=O)N3C([H])([H])C([H])([H])C([H])([H])C([H])(n4nc(-c5c([H])c([H])c(Oc6c([H])c([H])c(F)c([H])c6F)c([H])c5[H])c(C(=O)N([H])[H])c4N([H])[H])C3([H])[H])C([H])([H])C([H])([H])C([H])(C([H])([H])[H])C([H])([H])[H])c([H])c([H])c2C1([H])[H]

$$$$
35:0:0
     RDKit          3D

 88 96  0  0  1  0  0  0  0  0999 V2000
  -28.4420  -21.8770   20.2370 C   0  0  0  0  0  3  0  0  0  0  0  0
  -30.6880  -21.1370   20.5960 C   0  0  0  0  0  3  0  0  0  0  0  0
  -30.2120  -23.4650   20.5240 C   0  0  0  0  0  3  0  0  0  0  0  0
  -29.3610  -20.7160   20.3890 C   0  0  0  0  0  0  0  0  0  0  0  0
  -28.8330  -23.3130   20.2990 C   0  0  0  0  0  0  0  0  0  0  0  0
  -31.0900  -22.4340   20.6620 N   0  0  0  0  0  0  0  0  0  0  0  0
  -29.0080  -19.0880   20.3570 C   0  0  0  0  0  3  0  0  0  0  0  0
  -30.0980  -17.7820   20.4310 C   0  0  0  0  0  3  0  0  0  0  0  0
  -30.4870  -15.0380   20.3310 C   0  0  0  0  0  0  0  0  0  0  0  0
  -30.3640  -12.6890   19.3730 C   0  0  0  0  0  2  0  0  0  0  0  0
  -29.4280  -12.6500   18.1430 C   0  0  0  0  0  2  0  0  0  0  0  0
  -27.9660  -12.4290   18.5790 C   0  0  0  0  0  2  0  0  0  0  0  0
  -27.5620  -13.3400   19.7680 C   0  0  0  0  0  3  0  0  0  0  0  0
  -28.6220  -13.3550   20.8880 C   0  0  0  0  0  2  0  0  0  0  0  0
  -29.8850  -13.7800   20.2720 N   0  0  0  0  0  0  0  0  0  0  0  0
  -31.6910  -15.0930   20.0630 O   0  0  0  0  0  0  0  0  0  0  0  0
  -29.7210  -16.2350   20.4810 N   0  0  0  0  0  0  0  0  0  0  0  0
  -28.7410  -16.0550   20.6380 H   0  0  0  0  0  0  0  0  0  0  0  0
  -25.1820  -13.8970   20.5260 C   0  0  0  0  0  0  0  0  0  0  0  0
  -24.1250  -13.1140   20.8940 C   0  0  0  0  0  0  0  0  0  0  0  0
  -24.5960  -11.7660   20.8510 C   0  0  0  0  0  0  0  0  0  0  0  0
  -26.2290  -13.0270   20.2720 N   0  0  0  0  0  0  0  0  0  0  0  0
  -25.8860  -11.7390   20.5350 N   0  0  0  0  0  0  0  0  0  0  0  0
  -23.8760  -10.4980   21.0330 C   0  0  0  0  0  0  0  0  0  0  0  0
  -24.3050   -9.5330   21.9700 C   0  0  0  0  0  3  0  0  0  0  0  0
  -23.5840   -8.3310   22.1420 C   0  0  0  0  0  3  0  0  0  0  0  0
  -22.4200   -8.0870   21.3740 C   0  0  0  0  0  0  0  0  0  0  0  0
  -22.0120   -9.0400   20.4250 C   0  0  0  0  0  3  0  0  0  0  0  0
  -22.7330  -10.2330   20.2520 C   0  0  0  0  0  3  0  0  0  0  0  0
  -21.6710   -6.9380   21.4550 O   0  0  0  0  0  0  0  0  0  0  0  0
  -21.5980   -6.2050   22.6120 C   0  0  0  0  0  0  0  0  0  0  0  0
  -21.1080   -6.7580   23.8150 C   0  0  0  0  0  3  0  0  0  0  0  0
  -20.9850   -5.9490   24.9630 C   0  0  0  0  0  3  0  0  0  0  0  0
  -21.3440   -4.5900   24.9080 C   0  0  0  0  0  0  0  0  0  0  0  0
  -21.8270   -4.0360   23.7110 C   0  0  0  0  0  3  0  0  0  0  0  0
  -21.9520   -4.8410   22.5650 C   0  0  0  0  0  0  0  0  0  0  0  0
  -22.3980   -4.2980   21.4070 F   0  0  0  0  0  0  0  0  0  0  0  0
  -21.2190   -3.8110   26.0080 F   0  0  0  0  0  0  0  0  0  0  0  0
  -22.7250  -13.5820   21.1680 C   0  0  0  0  0  0  0  0  0  0  0  0
  -22.0040  -12.8790   22.0350 N   0  0  0  0  0  0  0  0  0  0  0  0
  -22.2810  -14.6050   20.6500 O   0  0  0  0  0  0  0  0  0  0  0  0
  -22.3800  -12.0530   22.4780 H   0  0  0  0  0  0  0  0  0  0  0  0
  -21.0640  -13.1720   22.2590 H   0  0  0  0  0  0  0  0  0  0  0  0
  -25.3360  -15.2700   20.3570 N   0  0  0  0  0  0  0  0  0  0  0  0
  -24.5580  -15.9110   20.4670 H   0  0  0  0  0  0  0  0  0  0  0  0
  -26.1640  -15.7150   19.9830 H   0  0  0  0  0  0  0  0  0  0  0  0
  -27.8670  -24.6460   20.0830 C   0  0  0  0  0  2  0  0  0  0  0  0
  -28.2130  -26.1630   20.2950 O   0  0  0  0  0  0  0  0  0  0  0  0
  -24.6310  -31.9180   23.2750 C   0  0  0  0  0  0  0  0  0  0  0  0
  -27.1820  -27.1820   20.2260 C   0  0  0  0  0  0  0  0  0  0  0  0
  -23.4270  -30.5380   21.6290 C   0  0  0  0  0  3  0  0  0  0  0  0
  -24.8690  -28.9630   20.1970 C   0  0  0  0  0  0  0  0  0  0  0  0
  -25.9870  -30.7810   21.4740 C   0  0  0  0  0  2  0  0  0  0  0  0
  -26.0530  -29.3900   20.8130 C   0  0  0  0  0  0  0  0  0  0  0  0
  -27.2100  -28.5170   20.8100 C   0  0  0  0  0  3  0  0  0  0  0  0
  -25.9730  -26.8690   19.5640 C   0  0  0  0  0  3  0  0  0  0  0  0
  -24.8450  -27.7170   19.5550 C   0  0  0  0  0  3  0  0  0  0  0  0
  -23.6480  -29.8680   20.2470 C   0  0  0  0  0  2  0  0  0  0  0  0
  -24.7020  -31.1000   22.1810 N   0  0  0  0  0  0  0  0  0  0  0  0
  -23.5450  -32.2060   23.8010 O   0  0  0  0  0  0  0  0  0  0  0  0
  -22.7400  -29.5300   22.5840 C   0  0  0  0  0  0  0  0  0  0  0  0
  -21.4120  -29.3640   22.4490 N   0  0  0  0  0  0  0  0  0  0  0  0
  -23.4040  -28.8990   23.4100 O   0  0  0  0  0  0  0  0  0  0  0  0
  -20.9310  -29.9240   21.7590 H   0  0  0  0  0  0  0  0  0  0  0  0
  -18.0220  -28.1780   22.9350 C   0  0  0  0  0  0  0  0  0  0  0  0
  -20.5820  -28.4280   23.2140 C   0  0  0  0  0  3  0  0  0  0  0  0
  -20.6790  -26.9960   22.6370 C   0  0  0  0  0  2  0  0  0  0  0  0
  -19.5790  -26.6810   21.6180 C   0  0  0  0  0  2  0  0  0  0  0  0
  -18.1960  -26.8300   22.2560 C   0  0  0  0  0  2  0  0  0  0  0  0
  -19.1420  -28.9350   23.3710 C   0  0  0  0  0  0  0  0  0  0  0  0
  -18.9230  -30.1950   23.9690 C   0  0  0  0  0  3  0  0  0  0  0  0
  -17.6190  -30.6980   24.1340 C   0  0  0  0  0  3  0  0  0  0  0  0
  -16.5140  -29.9380   23.7120 C   0  0  0  0  0  3  0  0  0  0  0  0
  -16.7170  -28.6800   23.1190 C   0  0  0  0  0  3  0  0  0  0  0  0
  -25.9090  -32.5450   23.9090 C   0  0  0  0  0  3  0  0  0  0  0  0
  -26.4040  -31.7760   25.1950 C   0  0  1  0  0  0  0  0  0  0  0  0
  -25.2960  -31.5520   26.2520 C   0  0  0  0  0  1  0  0  0  0  0  0
  -26.9790  -30.3910   24.8210 C   0  0  0  0  0  1  0  0  0  0  0  0
  -27.5550  -32.5620   25.8660 C   0  0  0  0  0  1  0  0  0  0  0  0
  -25.6070  -33.9470   24.2370 N   0  0  0  0  0  0  0  0  0  0  0  0
  -25.9230  -34.9990   23.4700 C   0  0  0  0  0  0  0  0  0  0  0  0
  -26.5670  -34.8900   22.4230 O   0  0  0  0  0  0  0  0  0  0  0  0
  -25.0340  -34.1050   25.0530 H   0  0  0  0  0  0  0  0  0  0  0  0
  -24.1800  -36.7900   23.1710 C   0  0  0  0  0  1  0  0  0  0  0  0
  -25.4540  -36.3910   23.9350 C   0  0  0  0  0  3  0  0  0  0  0  0
  -27.6140  -37.2920   24.6770 C   0  0  0  0  0  1  0  0  0  0  0  0
  -26.4790  -37.4450   23.7710 N   0  0  0  0  0  0  0  0  0  0  0  0
  -26.0770  -38.3670   23.9190 H   0  0  0  0  0  0  0  0  0  0  0  0
  1  5  2  0
  1  4  1  0
  2  6  1  0
  3  6  2  0
  4  2  2  0
  5  3  1  0
  7  4  1  0
  7  8  2  0
  8 17  1  0
  9 17  1  0
 10 15  1  0
 11 12  1  0
 11 10  1  0
 13 12  1  0
 13 22  1  0
 13 14  1  0
 15  9  1  0
 15 14  1  0
 16  9  2  0
 17 18  1  0
 19 20  2  0
 20 39  1  0
 21 20  1  0
 21 24  1  0
 22 19  1  0
 22 23  1  0
 23 21  2  0
 24 25  1  0
 25 26  2  0
 27 30  1  0
 27 26  1  0
 28 27  2  0
 29 28  1  0
 29 24  2  0
 30 31  1  0
 31 32  1  0
 32 33  2  0
 34 33  1  0
 34 38  1  0
 35 34  2  0
 36 31  2  0
 36 35  1  0
 37 36  1  0
 39 40  1  0
 40 43  1  0
 40 42  1  0
 41 39  2  0
 44 45  1  0
 44 19  1  0
 46 44  1  0
 47 48  1  0
 47  5  1  0
 49 60  2  0
 50 48  1  0
 50 55  1  0
 51 59  1  0
 51 61  1  0
 52 58  1  0
 52 54  1  0
 53 59  1  0
 54 53  1  0
 55 54  2  0
 56 50  2  0
 57 56  1  0
 57 52  2  0
 58 51  1  0
 59 49  1  0
 61 63  2  0
 62 61  1  0
 64 62  1  0
 65 74  2  0
 65 70  1  0
 66 62  1  0
 66 70  1  0
 67 66  1  0
 68 69  1  0
 68 67  1  0
 69 65  1  0
 70 71  2  0
 71 72  1  0
 73 72  2  0
 74 73  1  0
 75 49  1  0
 75 80  1  0
 75 76  1  0
 76 79  1  1
 76 77  1  0
 78 76  1  0
 80 83  1  0
 81 85  1  0
 81 80  1  0
 82 81  2  0
 85 84  1  0
 87 88  1  0
 87 85  1  0
 87 86  1  0
M  ISO  4   9 100  17 100  47 101  48 101
M  END
>  <TORSDO>  (36) 
F 19

>  <SCORE>  (36) 
-14.999

>  <name>  (36) 
35

>  <ligand_id>  (36) 
35

>  <original_smiles>  (36) 
[H]c1nc([H])c(C([H])([H])C([H])([H])N([H])C(=O)N2C([H])([H])C([H])([H])C([H])([H])C([H])(n3nc(-c4c([H])c([H])c(Oc5c([H])c([H])c(F)c([H])c5F)c([H])c4[H])c(C(=O)N([H])[H])c3N([H])[H])C2([H])[H])c([H])c1C([H])([H])Oc1c([H])c([H])c2c(c1[H])C([H])([H])N(C(=O)C([H])(N([H])C(=O)C([H])(N([H])C([H])([H])[H])C([H])([H])[H])C(C([H])([H])[H])(C([H])([H])[H])C([H])([H])[H])C([H])(C(=O)N([H])C1([H])c3c([H])c([H])c([H])c([H])c3C([H])([H])C([H])([H])C1([H])[H])C2([H])[H]

>  <smiles>  (36) 
[H]c1nc([H])c(C([H])([H])C([H])([H])N([H])C(=O)N2C([H])([H])C([H])([H])C([H])([H])C([H])(n3nc(-c4c([H])c([H])c(Oc5c([H])c([H])c(F)c([H])c5F)c([H])c4[H])c(C(=O)N([H])[H])c3N([H])[H])C2([H])[H])c([H])c1C([H])([H])Oc1c([H])c([H])c2c(c1[H])C([H])([H])N(C(=O)C([H])(N([H])C(=O)C([H])(N([H])C([H])([H])[H])C([H])([H])[H])C(C([H])([H])[H])(C([H])([H])[H])C([H])([H])[H])C([H])(C(=O)N([H])C1([H])c3c([H])c([H])c([H])c([H])c3C([H])([H])C([H])([H])C1([H])[H])C2([H])[H]

$$$$
36:0:0
     RDKit          3D

 93101  0  0  1  0  0  0  0  0999 V2000
  -30.4680  -21.5120   22.6280 C   0  0  0  0  0  2  0  0  0  0  0  0
  -30.5880  -19.0710   22.1150 C   0  0  0  0  0  0  0  0  0  0  0  0
  -30.3520  -20.3450   21.7560 N   0  0  0  0  0  0  0  0  0  0  0  0
  -30.7640  -18.7430   23.2890 O   0  0  0  0  0  0  0  0  0  0  0  0
  -30.1870  -20.5220   20.7750 H   0  0  0  0  0  0  0  0  0  0  0  0
  -30.7850  -14.6510   20.1670 C   0  0  0  0  0  0  0  0  0  0  0  0
  -30.4990  -12.4640   19.0760 C   0  0  0  0  0  2  0  0  0  0  0  0
  -29.5330  -12.6540   17.8860 C   0  0  0  0  0  2  0  0  0  0  0  0
  -28.0610  -12.5570   18.3440 C   0  0  0  0  0  2  0  0  0  0  0  0
  -27.7490  -13.3820   19.6230 C   0  0  0  0  0  3  0  0  0  0  0  0
  -28.8320  -13.1710   20.7050 C   0  0  0  0  0  2  0  0  0  0  0  0
  -30.1400  -13.4570   20.0950 N   0  0  0  0  0  0  0  0  0  0  0  0
  -31.9710  -14.7960   19.8550 O   0  0  0  0  0  0  0  0  0  0  0  0
  -30.3350  -17.5030   18.5270 C   0  0  0  0  0  2  0  0  0  0  0  0
  -30.2910  -18.5800   19.6080 C   0  0  0  0  0  2  0  0  0  0  0  0
  -29.4650  -16.3190   18.9540 C   0  0  0  0  0  2  0  0  0  0  0  0
  -29.9100  -16.6970   21.3210 C   0  0  0  0  0  2  0  0  0  0  0  0
  -30.6900  -18.0110   20.9920 C   0  0  0  0  0  3  0  0  0  0  0  0
  -29.9500  -15.7240   20.2110 N   0  0  0  0  0  0  0  0  0  0  0  0
  -25.3880  -14.0170   20.4130 C   0  0  0  0  0  0  0  0  0  0  0  0
  -24.3230  -13.2500   20.8040 C   0  0  0  0  0  0  0  0  0  0  0  0
  -24.7720  -11.8960   20.7510 C   0  0  0  0  0  0  0  0  0  0  0  0
  -26.4130  -13.1240   20.1410 N   0  0  0  0  0  0  0  0  0  0  0  0
  -26.0520  -11.8450   20.4090 N   0  0  0  0  0  0  0  0  0  0  0  0
  -24.0440  -10.6380   20.9480 C   0  0  0  0  0  0  0  0  0  0  0  0
  -24.4770   -9.6780   21.8890 C   0  0  0  0  0  3  0  0  0  0  0  0
  -23.7540   -8.4800   22.0700 C   0  0  0  0  0  3  0  0  0  0  0  0
  -22.5840   -8.2350   21.3110 C   0  0  0  0  0  0  0  0  0  0  0  0
  -22.1720   -9.1830   20.3570 C   0  0  0  0  0  3  0  0  0  0  0  0
  -22.8970  -10.3730   20.1740 C   0  0  0  0  0  3  0  0  0  0  0  0
  -21.8280   -7.0920   21.4060 O   0  0  0  0  0  0  0  0  0  0  0  0
  -21.7410   -6.3800   22.5750 C   0  0  0  0  0  0  0  0  0  0  0  0
  -21.2540   -6.9610   23.7670 C   0  0  0  0  0  3  0  0  0  0  0  0
  -21.1150   -6.1740   24.9280 C   0  0  0  0  0  3  0  0  0  0  0  0
  -21.4550   -4.8070   24.8970 C   0  0  0  0  0  0  0  0  0  0  0  0
  -21.9340   -4.2270   23.7100 C   0  0  0  0  0  3  0  0  0  0  0  0
  -22.0750   -5.0110   22.5520 C   0  0  0  0  0  0  0  0  0  0  0  0
  -22.5180   -4.4410   21.4050 F   0  0  0  0  0  0  0  0  0  0  0  0
  -21.3120   -4.0490   26.0090 F   0  0  0  0  0  0  0  0  0  0  0  0
  -22.9360  -13.7340   21.1150 C   0  0  0  0  0  0  0  0  0  0  0  0
  -22.2260  -13.0350   21.9920 N   0  0  0  0  0  0  0  0  0  0  0  0
  -22.4910  -14.7650   20.6120 O   0  0  0  0  0  0  0  0  0  0  0  0
  -22.5990  -12.2050   22.4280 H   0  0  0  0  0  0  0  0  0  0  0  0
  -21.2920  -13.3380   22.2340 H   0  0  0  0  0  0  0  0  0  0  0  0
  -25.5630  -15.3880   20.2470 N   0  0  0  0  0  0  0  0  0  0  0  0
  -24.8130  -16.0570   20.3870 H   0  0  0  0  0  0  0  0  0  0  0  0
  -26.4240  -15.8190   19.9320 H   0  0  0  0  0  0  0  0  0  0  0  0
  -29.6130  -22.7090   22.1730 C   0  0  0  0  0  2  0  0  0  0  0  0
  -29.9140  -23.2680   20.7620 C   0  0  0  0  0  2  0  0  0  0  0  0
  -29.7700  -24.8060   20.6030 C   0  0  0  0  0  2  0  0  0  0  0  0
  -27.8730  -25.4540   22.2170 C   0  0  0  0  0  1  0  0  0  0  0  0
  -28.3580  -25.4290   20.7460 C   0  0  0  0  0  3  0  0  0  0  0  0
  -28.4550  -26.7780   20.2570 O   0  0  0  0  0  0  0  0  0  0  0  0
  -24.5860  -31.9320   23.2450 C   0  0  0  0  0  0  0  0  0  0  0  0
  -27.2870  -27.5090   20.1970 C   0  0  0  0  0  0  0  0  0  0  0  0
  -23.4030  -30.5210   21.5910 C   0  0  0  0  0  3  0  0  0  0  0  0
  -24.8780  -28.9890   20.1820 C   0  0  0  0  0  0  0  0  0  0  0  0
  -25.9290  -30.8990   21.4130 C   0  0  0  0  0  2  0  0  0  0  0  0
  -26.0280  -29.5290   20.7750 C   0  0  0  0  0  0  0  0  0  0  0  0
  -27.2360  -28.7980   20.7720 C   0  0  0  0  0  3  0  0  0  0  0  0
  -26.1200  -26.9810   19.5950 C   0  0  0  0  0  3  0  0  0  0  0  0
  -24.9200  -27.7160   19.5890 C   0  0  0  0  0  3  0  0  0  0  0  0
  -23.6280  -29.8390   20.2150 C   0  0  0  0  0  2  0  0  0  0  0  0
  -24.6580  -31.1340   22.1410 N   0  0  0  0  0  0  0  0  0  0  0  0
  -23.4980  -32.2010   23.7700 O   0  0  0  0  0  0  0  0  0  0  0  0
  -22.7450  -29.5000   22.5470 C   0  0  0  0  0  0  0  0  0  0  0  0
  -21.4280  -29.2890   22.3840 N   0  0  0  0  0  0  0  0  0  0  0  0
  -23.4180  -28.8950   23.3880 O   0  0  0  0  0  0  0  0  0  0  0  0
  -20.9450  -29.8310   21.6810 H   0  0  0  0  0  0  0  0  0  0  0  0
  -18.0670  -28.0310   22.7870 C   0  0  0  0  0  0  0  0  0  0  0  0
  -20.6080  -28.3450   23.1410 C   0  0  0  0  0  3  0  0  0  0  0  0
  -20.7600  -26.9090   22.5890 C   0  0  0  0  0  2  0  0  0  0  0  0
  -19.6990  -26.5490   21.5450 C   0  0  0  0  0  2  0  0  0  0  0  0
  -18.2930  -26.6760   22.1380 C   0  0  0  0  0  2  0  0  0  0  0  0
  -19.1550  -28.8220   23.2430 C   0  0  0  0  0  0  0  0  0  0  0  0
  -18.8890  -30.0910   23.8030 C   0  0  0  0  0  3  0  0  0  0  0  0
  -17.5690  -30.5660   23.9150 C   0  0  0  0  0  3  0  0  0  0  0  0
  -16.4970  -29.7720   23.4750 C   0  0  0  0  0  3  0  0  0  0  0  0
  -16.7460  -28.5050   22.9160 C   0  0  0  0  0  3  0  0  0  0  0  0
  -25.8620  -32.5650   23.8820 C   0  0  0  0  0  3  0  0  0  0  0  0
  -25.5540  -33.9670   24.1850 N   0  0  0  0  0  0  0  0  0  0  0  0
  -25.9170  -35.0080   23.4230 C   0  0  0  0  0  0  0  0  0  0  0  0
  -26.6180  -34.8860   22.4150 O   0  0  0  0  0  0  0  0  0  0  0  0
  -24.9400  -34.1420   24.9690 H   0  0  0  0  0  0  0  0  0  0  0  0
  -24.2190  -36.8100   22.9840 C   0  0  0  0  0  1  0  0  0  0  0  0
  -25.4240  -36.4050   23.8490 C   0  0  0  0  0  3  0  0  0  0  0  0
  -27.5340  -37.2770   24.7540 C   0  0  0  0  0  1  0  0  0  0  0  0
  -26.4710  -37.4460   23.7670 N   0  0  0  0  0  0  0  0  0  0  0  0
  -26.0680  -38.3730   23.8900 H   0  0  0  0  0  0  0  0  0  0  0  0
  -26.3550  -31.8060   25.1740 C   0  0  1  0  0  0  0  0  0  0  0  0
  -25.2450  -31.5800   26.2270 C   0  0  0  0  0  1  0  0  0  0  0  0
  -26.9390  -30.4240   24.8000 C   0  0  0  0  0  1  0  0  0  0  0  0
  -27.4960  -32.6070   25.8470 C   0  0  0  0  0  1  0  0  0  0  0  0
  2  4  2  0
  3  2  1  0
  3  1  1  0
  5  3  1  0
  6 19  1  0
  7 12  1  0
  8  9  1  0
  8  7  1  0
 10  9  1  0
 10 23  1  0
 10 11  1  0
 12  6  1  0
 12 11  1  0
 13  6  2  0
 14 16  1  0
 14 15  1  0
 15 18  1  0
 16 19  1  0
 18 17  1  0
 18  2  1  0
 19 17  1  0
 20 21  2  0
 21 40  1  0
 22 21  1  0
 22 25  1  0
 23 24  1  0
 23 20  1  0
 24 22  2  0
 25 26  1  0
 26 27  2  0
 28 31  1  0
 28 27  1  0
 29 28  2  0
 30 29  1  0
 30 25  2  0
 31 32  1  0
 32 33  1  0
 33 34  2  0
 35 34  1  0
 35 39  1  0
 36 35  2  0
 37 32  2  0
 37 36  1  0
 38 37  1  0
 40 41  1  0
 41 44  1  0
 41 43  1  0
 42 40  2  0
 45 46  1  0
 45 20  1  0
 47 45  1  0
 48  1  1  0
 49 48  1  0
 50 52  1  0
 50 49  1  0
 52 51  1  0
 53 52  1  0
 54 65  2  0
 55 53  1  0
 55 60  1  0
 56 64  1  0
 56 66  1  0
 57 63  1  0
 57 59  1  0
 58 64  1  0
 59 58  1  0
 60 59  2  0
 61 55  2  0
 62 61  1  0
 62 57  2  0
 63 56  1  0
 64 54  1  0
 66 68  2  0
 67 66  1  0
 69 67  1  0
 70 79  2  0
 70 75  1  0
 71 67  1  0
 71 75  1  0
 72 71  1  0
 73 74  1  0
 73 72  1  0
 74 70  1  0
 75 76  2  0
 76 77  1  0
 78 77  2  0
 79 78  1  0
 80 54  1  0
 80 81  1  0
 80 90  1  0
 81 84  1  0
 82 86  1  0
 82 81  1  0
 83 82  2  0
 86 85  1  0
 88 86  1  0
 88 89  1  0
 88 87  1  0
 90 93  1  1
 90 91  1  0
 92 90  1  0
M  ISO  4   6 100  19 100  52 101  53 101
M  END
>  <TORSDO>  (37) 
F 21

>  <SCORE>  (37) 
-13.387

>  <name>  (37) 
36

>  <ligand_id>  (37) 
36

>  <original_smiles>  (37) 
[H]c1c([H])c([H])c2c(c1[H])C([H])([H])C([H])([H])C([H])([H])C2([H])N([H])C(=O)C1([H])N(C(=O)C([H])(N([H])C(=O)C([H])(N([H])C([H])([H])[H])C([H])([H])[H])C(C([H])([H])[H])(C([H])([H])[H])C([H])([H])[H])C([H])([H])c2c([H])c(OC([H])(C([H])([H])[H])C([H])([H])C([H])([H])C([H])([H])C([H])([H])N([H])C(=O)C3([H])C([H])([H])N(C(=O)N4C([H])([H])C([H])([H])C([H])([H])C([H])(n5nc(-c6c([H])c([H])c(Oc7c([H])c([H])c(F)c([H])c7F)c([H])c6[H])c(C(=O)N([H])[H])c5N([H])[H])C4([H])[H])C([H])([H])C([H])([H])C3([H])[H])c([H])c([H])c2C1([H])[H]

>  <smiles>  (37) 
[H]c1c([H])c([H])c2c(c1[H])C([H])([H])C([H])([H])C([H])([H])C2([H])N([H])C(=O)C1([H])N(C(=O)C([H])(N([H])C(=O)C([H])(N([H])C([H])([H])[H])C([H])([H])[H])C(C([H])([H])[H])(C([H])([H])[H])C([H])([H])[H])C([H])([H])c2c([H])c(OC([H])(C([H])([H])[H])C([H])([H])C([H])([H])C([H])([H])C([H])([H])N([H])C(=O)C3([H])C([H])([H])N(C(=O)N4C([H])([H])C([H])([H])C([H])([H])C([H])(n5nc(-c6c([H])c([H])c(Oc7c([H])c([H])c(F)c([H])c7F)c([H])c6[H])c(C(=O)N([H])[H])c5N([H])[H])C4([H])[H])C([H])([H])C([H])([H])C3([H])[H])c([H])c([H])c2C1([H])[H]

$$$$
37:0:0
     RDKit          3D

 96104  0  0  1  0  0  0  0  0999 V2000
  -29.6000  -21.1310   19.9510 C   0  0  0  0  0  3  0  0  0  0  0  0
  -27.6570  -22.0600   19.4970 C   0  0  0  0  0  3  0  0  0  0  0  0
  -28.9080  -22.4260   19.8760 C   0  0  0  0  0  0  0  0  0  0  0  0
  -28.7840  -20.0400   19.6110 C   0  0  0  0  0  0  0  0  0  0  0  0
  -27.5520  -20.6850   19.2980 N   0  0  0  0  0  0  0  0  0  0  0  0
  -27.9250  -17.6890   20.3330 C   0  0  0  0  0  1  0  0  0  0  0  0
  -28.7300  -18.1190   17.9510 C   0  0  0  0  0  1  0  0  0  0  0  0
  -28.9730  -18.4350   19.4490 C   0  0  1  0  0  0  0  0  0  0  0  0
  -30.3490  -17.6290   19.7780 C   0  0  0  0  0  2  0  0  0  0  0  0
  -31.0180  -15.0190   19.9090 C   0  0  0  0  0  0  0  0  0  0  0  0
  -30.8540  -12.6410   19.1640 C   0  0  0  0  0  2  0  0  0  0  0  0
  -29.9060  -12.5770   17.9470 C   0  0  0  0  0  2  0  0  0  0  0  0
  -28.4330  -12.4610   18.3960 C   0  0  0  0  0  2  0  0  0  0  0  0
  -28.0640  -13.4730   19.5140 C   0  0  0  0  0  3  0  0  0  0  0  0
  -29.1290  -13.4890   20.6310 C   0  0  0  0  0  2  0  0  0  0  0  0
  -30.4240  -13.7830   19.9990 N   0  0  0  0  0  0  0  0  0  0  0  0
  -32.1960  -15.1280   19.5580 O   0  0  0  0  0  0  0  0  0  0  0  0
  -30.1850  -16.1150   20.0120 N   0  0  0  0  0  0  0  0  0  0  0  0
  -29.2460  -15.8580   20.2720 H   0  0  0  0  0  0  0  0  0  0  0  0
  -25.7260  -14.1620   20.3270 C   0  0  0  0  0  0  0  0  0  0  0  0
  -24.6370  -13.4310   20.7150 C   0  0  0  0  0  0  0  0  0  0  0  0
  -25.0330  -12.0610   20.6410 C   0  0  0  0  0  0  0  0  0  0  0  0
  -26.7200  -13.2390   20.0380 N   0  0  0  0  0  0  0  0  0  0  0  0
  -26.3100  -11.9690   20.2900 N   0  0  0  0  0  0  0  0  0  0  0  0
  -24.2520  -10.8320   20.8250 C   0  0  0  0  0  0  0  0  0  0  0  0
  -24.6580   -9.8270   21.7310 C   0  0  0  0  0  3  0  0  0  0  0  0
  -23.8790   -8.6630   21.9060 C   0  0  0  0  0  3  0  0  0  0  0  0
  -22.6780   -8.4970   21.1770 C   0  0  0  0  0  0  0  0  0  0  0  0
  -22.2890   -9.4880   20.2610 C   0  0  0  0  0  3  0  0  0  0  0  0
  -23.0690  -10.6430   20.0820 C   0  0  0  0  0  3  0  0  0  0  0  0
  -21.8710   -7.3880   21.2640 O   0  0  0  0  0  0  0  0  0  0  0  0
  -21.8080   -6.6330   22.4060 C   0  0  0  0  0  0  0  0  0  0  0  0
  -21.4450   -7.1930   23.6510 C   0  0  0  0  0  3  0  0  0  0  0  0
  -21.3250   -6.3670   24.7860 C   0  0  0  0  0  3  0  0  0  0  0  0
  -21.5580   -4.9830   24.6790 C   0  0  0  0  0  0  0  0  0  0  0  0
  -21.9150   -4.4220   23.4400 C   0  0  0  0  0  3  0  0  0  0  0  0
  -22.0380   -5.2460   22.3070 C   0  0  0  0  0  0  0  0  0  0  0  0
  -22.3640   -4.6980   21.1120 F   0  0  0  0  0  0  0  0  0  0  0  0
  -21.4340   -4.1880   25.7670 F   0  0  0  0  0  0  0  0  0  0  0  0
  -23.2730  -13.9690   21.0380 C   0  0  0  0  0  0  0  0  0  0  0  0
  -22.5430  -13.3040   21.9270 N   0  0  0  0  0  0  0  0  0  0  0  0
  -22.8640  -15.0140   20.5340 O   0  0  0  0  0  0  0  0  0  0  0  0
  -22.8820  -12.4540   22.3530 H   0  0  0  0  0  0  0  0  0  0  0  0
  -21.6280  -13.6490   22.1820 H   0  0  0  0  0  0  0  0  0  0  0  0
  -25.9380  -15.5270   20.1750 N   0  0  0  0  0  0  0  0  0  0  0  0
  -25.1830  -16.1900   20.3110 H   0  0  0  0  0  0  0  0  0  0  0  0
  -26.7600  -15.9440   19.7620 H   0  0  0  0  0  0  0  0  0  0  0  0
  -30.6070  -24.2510   19.3320 C   0  0  0  0  0  1  0  0  0  0  0  0
  -29.3450  -23.9420   20.1470 C   0  0  0  0  0  3  0  0  0  0  0  0
  -28.2410  -25.1100   19.9120 C   0  0  0  0  0  2  0  0  0  0  0  0
  -28.4940  -26.5910   20.0810 O   0  0  0  0  0  0  0  0  0  0  0  0
  -24.6590  -31.9130   23.2570 C   0  0  0  0  0  0  0  0  0  0  0  0
  -27.3830  -27.4760   20.0620 C   0  0  0  0  0  0  0  0  0  0  0  0
  -23.5070  -30.5700   21.5420 C   0  0  0  0  0  3  0  0  0  0  0  0
  -25.0040  -29.1010   20.0770 C   0  0  0  0  0  0  0  0  0  0  0  0
  -26.0520  -30.9140   21.4240 C   0  0  0  0  0  2  0  0  0  0  0  0
  -26.1610  -29.5630   20.7160 C   0  0  0  0  0  0  0  0  0  0  0  0
  -27.3540  -28.7660   20.6960 C   0  0  0  0  0  3  0  0  0  0  0  0
  -26.1970  -27.0920   19.3930 C   0  0  0  0  0  3  0  0  0  0  0  0
  -25.0280  -27.8710   19.4060 C   0  0  0  0  0  3  0  0  0  0  0  0
  -23.7560  -29.9600   20.1390 C   0  0  0  0  0  2  0  0  0  0  0  0
  -24.7580  -31.1490   22.1300 N   0  0  0  0  0  0  0  0  0  0  0  0
  -23.5610  -32.1550   23.7810 O   0  0  0  0  0  0  0  0  0  0  0  0
  -22.8400  -29.5030   22.4430 C   0  0  0  0  0  0  0  0  0  0  0  0
  -21.5150  -29.3290   22.2980 N   0  0  0  0  0  0  0  0  0  0  0  0
  -23.5130  -28.8420   23.2380 O   0  0  0  0  0  0  0  0  0  0  0  0
  -21.0300  -29.9160   21.6340 H   0  0  0  0  0  0  0  0  0  0  0  0
  -18.1300  -28.1310   22.7550 C   0  0  0  0  0  0  0  0  0  0  0  0
  -20.6930  -28.3510   23.0160 C   0  0  0  0  0  3  0  0  0  0  0  0
  -20.7770  -26.9580   22.3500 C   0  0  0  0  0  2  0  0  0  0  0  0
  -19.6610  -26.7070   21.3310 C   0  0  0  0  0  2  0  0  0  0  0  0
  -18.2880  -26.8230   21.9970 C   0  0  0  0  0  2  0  0  0  0  0  0
  -19.2590  -28.8550   23.2200 C   0  0  0  0  0  0  0  0  0  0  0  0
  -19.0560  -30.0800   23.8920 C   0  0  0  0  0  3  0  0  0  0  0  0
  -17.7570  -30.5810   24.1020 C   0  0  0  0  0  3  0  0  0  0  0  0
  -16.6420  -29.8530   23.6510 C   0  0  0  0  0  3  0  0  0  0  0  0
  -16.8300  -28.6290   22.9850 C   0  0  0  0  0  3  0  0  0  0  0  0
  -25.9200  -32.5380   23.9300 C   0  0  0  0  0  3  0  0  0  0  0  0
  -25.6130  -33.9450   24.2240 N   0  0  0  0  0  0  0  0  0  0  0  0
  -25.9760  -34.9800   23.4550 C   0  0  0  0  0  0  0  0  0  0  0  0
  -26.6700  -34.8510   22.4430 O   0  0  0  0  0  0  0  0  0  0  0  0
  -24.9990  -34.1190   25.0050 H   0  0  0  0  0  0  0  0  0  0  0  0
  -24.2620  -36.7750   23.0400 C   0  0  0  0  0  1  0  0  0  0  0  0
  -25.4910  -36.3830   23.8750 C   0  0  0  0  0  3  0  0  0  0  0  0
  -27.6230  -37.2710   24.7090 C   0  0  0  0  0  1  0  0  0  0  0  0
  -26.5320  -37.4270   23.7510 N   0  0  0  0  0  0  0  0  0  0  0  0
  -26.1290  -38.3520   23.8760 H   0  0  0  0  0  0  0  0  0  0  0  0
  -26.3590  -31.7810   25.2450 C   0  0  1  0  0  0  0  0  0  0  0  0
  -25.2100  -31.5830   26.2620 C   0  0  0  0  0  1  0  0  0  0  0  0
  -26.9380  -30.3870   24.9090 C   0  0  0  0  0  1  0  0  0  0  0  0
  -27.4880  -32.5700   25.9480 C   0  0  0  0  0  1  0  0  0  0  0  0
  -26.2750  -20.0670   18.8960 C   0  0  0  0  0  2  0  0  0  0  0  0
  -23.9150  -20.1330   18.0140 C   0  0  0  0  0  1  0  0  0  0  0  0
  -25.1630  -20.9830   18.3190 C   0  0  0  0  0  3  0  0  0  0  0  0
  -24.6690  -22.8900   16.6470 C   0  0  0  0  0  1  0  0  0  0  0  0
  -25.6230  -21.7610   17.0660 C   0  0  0  0  0  2  0  0  0  0  0  0
  2  3  2  0
  3  1  1  0
  3 49  1  0
  4  1  2  0
  5  2  1  0
  5  4  1  0
  8  7  1  6
  8  4  1  0
  8  9  1  0
  8  6  1  0
  9 18  1  0
 10 16  1  0
 10 18  1  0
 11 16  1  0
 12 13  1  0
 12 11  1  0
 14 13  1  0
 14 23  1  0
 14 15  1  0
 16 15  1  0
 17 10  2  0
 18 19  1  0
 20 21  2  0
 21 40  1  0
 22 21  1  0
 22 25  1  0
 23 24  1  0
 23 20  1  0
 24 22  2  0
 25 26  1  0
 26 27  2  0
 28 31  1  0
 28 27  1  0
 29 28  2  0
 30 29  1  0
 30 25  2  0
 31 32  1  0
 32 33  1  0
 33 34  2  0
 35 34  1  0
 35 39  1  0
 36 35  2  0
 37 32  2  0
 37 36  1  0
 38 37  1  0
 40 41  1  0
 41 44  1  0
 41 43  1  0
 42 40  2  0
 45 46  1  0
 45 20  1  0
 47 45  1  0
 49 48  1  0
 50 51  1  0
 50 49  1  0
 52 63  2  0
 53 51  1  0
 53 58  1  0
 54 62  1  0
 54 64  1  0
 55 61  1  0
 55 57  1  0
 56 62  1  0
 57 56  1  0
 58 57  2  0
 59 60  1  0
 59 53  2  0
 60 55  2  0
 61 54  1  0
 62 52  1  0
 64 66  2  0
 65 64  1  0
 67 65  1  0
 68 77  2  0
 68 73  1  0
 69 65  1  0
 69 73  1  0
 70 69  1  0
 71 72  1  0
 71 70  1  0
 72 68  1  0
 73 74  2  0
 74 75  1  0
 76 75  2  0
 77 76  1  0
 78 52  1  0
 78 79  1  0
 78 88  1  0
 79 82  1  0
 80 84  1  0
 80 79  1  0
 81 80  2  0
 84 83  1  0
 86 84  1  0
 86 87  1  0
 86 85  1  0
 88 91  1  1
 88 89  1  0
 90 88  1  0
 92  5  1  0
 94 93  1  0
 94 92  1  0
 95 96  1  0
 96 94  1  0
M  ISO  4  10 100  18 100  50 101  51 101
M  END
>  <TORSDO>  (38) 
F 23

>  <SCORE>  (38) 
-10.922

>  <name>  (38) 
37

>  <ligand_id>  (38) 
37

>  <original_smiles>  (38) 
[H]c1c([H])c([H])c2c(c1[H])C([H])([H])C([H])([H])C([H])([H])C2([H])N([H])C(=O)C1([H])N(C(=O)C([H])(N([H])C(=O)C([H])(N([H])C([H])([H])[H])C([H])([H])[H])C(C([H])([H])[H])(C([H])([H])[H])C([H])([H])[H])C([H])([H])c2c([H])c(OC([H])([H])C([H])(c3c([H])c(C(C([H])([H])[H])(C([H])([H])[H])C([H])([H])N([H])C(=O)N4C([H])([H])C([H])([H])C([H])([H])C([H])(n5nc(-c6c([H])c([H])c(Oc7c([H])c([H])c(F)c([H])c7F)c([H])c6[H])c(C(=O)N([H])[H])c5N([H])[H])C4([H])[H])n(C([H])([H])C([H])(C([H])([H])[H])C([H])([H])C([H])([H])[H])c3[H])C([H])([H])[H])c([H])c([H])c2C1([H])[H]

>  <smiles>  (38) 
[H]c1c([H])c([H])c2c(c1[H])C([H])([H])C([H])([H])C([H])([H])C2([H])N([H])C(=O)C1([H])N(C(=O)C([H])(N([H])C(=O)C([H])(N([H])C([H])([H])[H])C([H])([H])[H])C(C([H])([H])[H])(C([H])([H])[H])C([H])([H])[H])C([H])([H])c2c([H])c(OC([H])([H])C([H])(c3c([H])c(C(C([H])([H])[H])(C([H])([H])[H])C([H])([H])N([H])C(=O)N4C([H])([H])C([H])([H])C([H])([H])C([H])(n5nc(-c6c([H])c([H])c(Oc7c([H])c([H])c(F)c([H])c7F)c([H])c6[H])c(C(=O)N([H])[H])c5N([H])[H])C4([H])[H])n(C([H])([H])C([H])(C([H])([H])[H])C([H])([H])C([H])([H])[H])c3[H])C([H])([H])[H])c([H])c([H])c2C1([H])[H]

$$$$
38:0:0
     RDKit          3D

 97105  0  0  1  0  0  0  0  0999 V2000
  -30.6740  -21.8800   20.2560 C   0  0  0  0  0  3  0  0  0  0  0  0
  -31.0960  -19.4310   20.3210 C   0  0  0  0  0  3  0  0  0  0  0  0
  -28.8380  -20.3250   20.3440 C   0  0  0  0  0  3  0  0  0  0  0  0
  -31.5600  -20.7700   20.2740 C   0  0  0  0  0  0  0  0  0  0  0  0
  -29.2520  -21.7670   20.3020 C   0  0  0  0  0  0  0  0  0  0  0  0
  -29.7230  -19.1180   20.3230 C   0  0  0  0  0  0  0  0  0  0  0  0
  -33.5690  -20.7110   18.7530 C   0  0  0  0  0  1  0  0  0  0  0  0
  -33.8820  -20.3220   21.2410 C   0  0  0  0  0  1  0  0  0  0  0  0
  -33.0610  -21.0440   20.1630 C   0  0  0  0  0  3  0  0  0  0  0  0
  -27.4000  -22.7210   19.0700 C   0  0  0  0  0  1  0  0  0  0  0  0
  -28.2710  -23.1620   20.2810 C   0  0  0  0  0  3  0  0  0  0  0  0
  -28.4220  -24.8140   19.7090 C   0  0  0  0  0  2  0  0  0  0  0  0
  -28.3010  -26.2230   20.3740 O   0  0  0  0  0  0  0  0  0  0  0  0
  -24.6450  -31.9190   23.2670 C   0  0  0  0  0  0  0  0  0  0  0  0
  -27.2320  -27.1890   20.2470 C   0  0  0  0  0  0  0  0  0  0  0  0
  -23.4480  -30.5180   21.6280 C   0  0  0  0  0  3  0  0  0  0  0  0
  -24.8990  -28.9380   20.2040 C   0  0  0  0  0  0  0  0  0  0  0  0
  -26.0010  -30.7810   21.4670 C   0  0  0  0  0  2  0  0  0  0  0  0
  -26.0740  -29.3850   20.8170 C   0  0  0  0  0  0  0  0  0  0  0  0
  -27.2360  -28.5240   20.8270 C   0  0  0  0  0  3  0  0  0  0  0  0
  -26.0270  -26.8410   19.5980 C   0  0  0  0  0  3  0  0  0  0  0  0
  -24.8880  -27.6800   19.5800 C   0  0  0  0  0  3  0  0  0  0  0  0
  -23.6710  -29.8370   20.2500 C   0  0  0  0  0  2  0  0  0  0  0  0
  -24.7180  -31.0950   22.1760 N   0  0  0  0  0  0  0  0  0  0  0  0
  -23.5580  -32.2040   23.7940 O   0  0  0  0  0  0  0  0  0  0  0  0
  -22.7680  -29.5150   22.5930 C   0  0  0  0  0  0  0  0  0  0  0  0
  -21.4410  -29.3410   22.4650 N   0  0  0  0  0  0  0  0  0  0  0  0
  -23.4380  -28.8920   23.4210 O   0  0  0  0  0  0  0  0  0  0  0  0
  -20.9540  -29.8940   21.7740 H   0  0  0  0  0  0  0  0  0  0  0  0
  -18.0610  -28.1340   22.9670 C   0  0  0  0  0  0  0  0  0  0  0  0
  -20.6190  -28.4060   23.2400 C   0  0  0  0  0  3  0  0  0  0  0  0
  -20.7260  -26.9710   22.6750 C   0  0  0  0  0  2  0  0  0  0  0  0
  -19.6280  -26.6390   21.6580 C   0  0  0  0  0  2  0  0  0  0  0  0
  -18.2440  -26.7830   22.2960 C   0  0  0  0  0  2  0  0  0  0  0  0
  -19.1760  -28.9030   23.3960 C   0  0  0  0  0  0  0  0  0  0  0  0
  -18.9490  -30.1670   23.9840 C   0  0  0  0  0  3  0  0  0  0  0  0
  -17.6420  -30.6620   24.1460 C   0  0  0  0  0  3  0  0  0  0  0  0
  -16.5420  -29.8910   23.7320 C   0  0  0  0  0  3  0  0  0  0  0  0
  -16.7530  -28.6290   23.1490 C   0  0  0  0  0  3  0  0  0  0  0  0
  -25.9220  -32.5590   23.8920 C   0  0  0  0  0  3  0  0  0  0  0  0
  -25.6110  -33.9620   24.2130 N   0  0  0  0  0  0  0  0  0  0  0  0
  -25.9470  -35.0120   23.4530 C   0  0  0  0  0  0  0  0  0  0  0  0
  -26.6180  -34.9040   22.4230 O   0  0  0  0  0  0  0  0  0  0  0  0
  -25.0160  -34.1200   25.0120 H   0  0  0  0  0  0  0  0  0  0  0  0
  -24.2280  -36.8150   23.0910 C   0  0  0  0  0  1  0  0  0  0  0  0
  -25.4650  -36.4060   23.9060 C   0  0  0  0  0  3  0  0  0  0  0  0
  -27.6010  -37.2880   24.7400 C   0  0  0  0  0  1  0  0  0  0  0  0
  -26.5030  -37.4550   23.7920 N   0  0  0  0  0  0  0  0  0  0  0  0
  -26.0990  -38.3770   23.9330 H   0  0  0  0  0  0  0  0  0  0  0  0
  -26.4250  -31.8020   25.1830 C   0  0  1  0  0  0  0  0  0  0  0  0
  -25.3220  -31.5850   26.2460 C   0  0  0  0  0  1  0  0  0  0  0  0
  -27.0050  -30.4170   24.8170 C   0  0  0  0  0  1  0  0  0  0  0  0
  -27.5720  -32.6000   25.8450 C   0  0  0  0  0  1  0  0  0  0  0  0
  -29.3000  -17.5400   20.0080 C   0  0  0  0  0  0  0  0  0  0  0  0
  -30.4730  -15.0310   20.4780 C   0  0  0  0  0  0  0  0  0  0  0  0
  -30.4190  -12.6630   19.5790 C   0  0  0  0  0  2  0  0  0  0  0  0
  -29.5210  -12.6220   18.3190 C   0  0  0  0  0  2  0  0  0  0  0  0
  -28.0460  -12.4030   18.7030 C   0  0  0  0  0  2  0  0  0  0  0  0
  -27.6050  -13.3090   19.8830 C   0  0  0  0  0  3  0  0  0  0  0  0
  -28.6330  -13.3170   21.0380 C   0  0  0  0  0  2  0  0  0  0  0  0
  -29.9220  -13.7470   20.4770 N   0  0  0  0  0  0  0  0  0  0  0  0
  -31.6370  -15.1420   20.0820 O   0  0  0  0  0  0  0  0  0  0  0  0
  -29.6730  -16.1800   20.7480 N   0  0  0  0  0  4  0  0  0  0  0  0
  -28.8940  -15.8990   21.3250 H   0  0  0  0  0  0  0  0  0  0  0  0
  -25.1950  -13.8550   20.5520 C   0  0  0  0  0  0  0  0  0  0  0  0
  -24.1330  -13.0670   20.9020 C   0  0  0  0  0  0  0  0  0  0  0  0
  -24.6170  -11.7230   20.8910 C   0  0  0  0  0  0  0  0  0  0  0  0
  -26.2570  -12.9920   20.3430 N   0  0  0  0  0  0  0  0  0  0  0  0
  -25.9160  -11.7030   20.6120 N   0  0  0  0  0  0  0  0  0  0  0  0
  -23.9020  -10.4520   21.0710 C   0  0  0  0  0  0  0  0  0  0  0  0
  -24.3270   -9.4940   22.0160 C   0  0  0  0  0  3  0  0  0  0  0  0
  -23.6110   -8.2880   22.1850 C   0  0  0  0  0  3  0  0  0  0  0  0
  -22.4580   -8.0330   21.4070 C   0  0  0  0  0  0  0  0  0  0  0  0
  -22.0510   -8.9820   20.4510 C   0  0  0  0  0  3  0  0  0  0  0  0
  -22.7670  -10.1780   20.2810 C   0  0  0  0  0  3  0  0  0  0  0  0
  -21.7130   -6.8820   21.4860 O   0  0  0  0  0  0  0  0  0  0  0  0
  -21.6530   -6.1380   22.6390 C   0  0  0  0  0  0  0  0  0  0  0  0
  -21.1920   -6.6870   23.8550 C   0  0  0  0  0  3  0  0  0  0  0  0
  -21.0810   -5.8710   24.9980 C   0  0  0  0  0  3  0  0  0  0  0  0
  -21.4210   -4.5060   24.9250 C   0  0  0  0  0  0  0  0  0  0  0  0
  -21.8740   -3.9570   23.7130 C   0  0  0  0  0  3  0  0  0  0  0  0
  -21.9870   -4.7710   22.5730 C   0  0  0  0  0  0  0  0  0  0  0  0
  -22.4030   -4.2310   21.4030 F   0  0  0  0  0  0  0  0  0  0  0  0
  -21.3090   -3.7200   26.0220 F   0  0  0  0  0  0  0  0  0  0  0  0
  -22.7220  -13.5270   21.1350 C   0  0  0  0  0  0  0  0  0  0  0  0
  -21.9790  -12.8250   21.9820 N   0  0  0  0  0  0  0  0  0  0  0  0
  -22.2860  -14.5450   20.6000 O   0  0  0  0  0  0  0  0  0  0  0  0
  -22.3420  -12.0030   22.4420 H   0  0  0  0  0  0  0  0  0  0  0  0
  -21.0310  -13.1160   22.1790 H   0  0  0  0  0  0  0  0  0  0  0  0
  -25.3460  -15.2260   20.3680 N   0  0  0  0  0  0  0  0  0  0  0  0
  -24.5700  -15.8750   20.4610 H   0  0  0  0  0  0  0  0  0  0  0  0
  -26.1950  -15.6680   20.0440 H   0  0  0  0  0  0  0  0  0  0  0  0
  -29.4740  -17.2820   18.4870 C   0  0  0  0  0  2  0  0  0  0  0  0
  -28.8960  -18.3480   17.6510 N   0  0  0  0  0  4  0  0  0  0  0  0
  -27.9010  -18.4070   17.7760 H   0  0  0  0  0  0  0  0  0  0  0  0
  -29.0840  -18.1710   16.6800 H   0  0  0  0  0  0  0  0  0  0  0  0
  -29.3100  -19.2300   17.9000 H   0  0  0  0  0  0  0  0  0  0  0  0
  1  4  2  0
  1  5  1  0
  2  6  2  0
  4  2  1  0
  5  3  2  0
  6  3  1  0
  7  9  1  0
  9  4  1  0
  9  8  1  0
 11 10  1  0
 11  5  1  0
 12 11  1  0
 12 13  1  0
 14 25  2  0
 15 13  1  0
 15 20  1  0
 16 24  1  0
 16 26  1  0
 17 23  1  0
 17 19  1  0
 18 24  1  0
 19 20  2  0
 19 18  1  0
 21 15  2  0
 22 21  1  0
 22 17  2  0
 23 16  1  0
 24 14  1  0
 26 28  2  0
 27 26  1  0
 29 27  1  0
 30 39  2  0
 30 35  1  0
 31 27  1  0
 31 35  1  0
 32 31  1  0
 33 34  1  0
 33 32  1  0
 34 30  1  0
 35 36  2  0
 36 37  1  0
 38 37  2  0
 39 38  1  0
 40 14  1  0
 40 41  1  0
 40 50  1  0
 41 44  1  0
 42 46  1  0
 42 41  1  0
 43 42  2  0
 46 45  1  0
 48 46  1  0
 48 49  1  0
 48 47  1  0
 50 53  1  1
 50 51  1  0
 52 50  1  0
 54  6  1  0
 54 63  2  3
 55 63  1  0
 56 61  1  0
 57 58  1  0
 57 56  1  0
 59 58  1  0
 59 68  1  0
 59 60  1  0
 61 55  1  0
 61 60  1  0
 62 55  2  0
 63 64  1  0
 65 66  2  0
 66 85  1  0
 67 66  1  0
 67 70  1  0
 68 65  1  0
 68 69  1  0
 69 67  2  0
 70 71  1  0
 71 72  2  0
 73 76  1  0
 73 72  1  0
 74 73  2  0
 75 74  1  0
 75 70  2  0
 76 77  1  0
 77 78  1  0
 78 79  2  0
 80 79  1  0
 80 84  1  0
 81 80  2  0
 82 77  2  0
 82 81  1  0
 83 82  1  0
 85 86  1  0
 86 89  1  0
 86 88  1  0
 87 85  2  0
 90 91  1  0
 90 65  1  0
 92 90  1  0
 93 54  1  0
 94 95  1  0
 94 97  1  0
 94 93  1  0
 96 94  1  0
M  ISO  4  12 101  13 101  55 100  63 100
M  END
>  <TORSDO>  (39) 
F 22

>  <SCORE>  (39) 
-14.506

>  <name>  (39) 
38

>  <ligand_id>  (39) 
38

>  <original_smiles>  (39) 
[H]c1c([H])c([H])c2c(c1[H])C([H])([H])C([H])([H])C([H])([H])C2([H])N([H])C(=O)C1([H])N(C(=O)C([H])(N([H])C(=O)C([H])(N([H])C([H])([H])[H])C([H])([H])[H])C(C([H])([H])[H])(C([H])([H])[H])C([H])([H])[H])C([H])([H])c2c([H])c(OC([H])([H])C([H])(c3c([H])c(C([H])(N([H])C(=O)N4C([H])([H])C([H])([H])C([H])([H])C([H])(n5nc(-c6c([H])c([H])c(Oc7c([H])c([H])c(F)c([H])c7F)c([H])c6[H])c(C(=O)N([H])[H])c5N([H])[H])C4([H])[H])C([H])([H])[N+]([H])([H])[H])c([H])c(C([H])(C([H])([H])[H])C([H])([H])[H])c3[H])C([H])([H])[H])c([H])c([H])c2C1([H])[H]

>  <smiles>  (39) 
[H]c1c([H])c([H])c2c(c1[H])C([H])([H])C([H])([H])C([H])([H])C2([H])N([H])C(=O)C1([H])N(C(=O)C([H])(N([H])C(=O)C([H])(N([H])C([H])([H])[H])C([H])([H])[H])C(C([H])([H])[H])(C([H])([H])[H])C([H])([H])[H])C([H])([H])c2c([H])c(OC([H])([H])C([H])(c3c([H])c(C([H])(N([H])C(=O)N4C([H])([H])C([H])([H])C([H])([H])C([H])(n5nc(-c6c([H])c([H])c(Oc7c([H])c([H])c(F)c([H])c7F)c([H])c6[H])c(C(=O)N([H])[H])c5N([H])[H])C4([H])[H])C([H])([H])[N+]([H])([H])[H])c([H])c(C([H])(C([H])([H])[H])C([H])([H])[H])c3[H])C([H])([H])[H])c([H])c([H])c2C1([H])[H]

$$$$
39:0:0
     RDKit          3D

 93101  0  0  1  0  0  0  0  0999 V2000
  -27.9480  -19.6570   20.7570 C   0  0  0  0  0  3  0  0  0  0  0  0
  -28.2530  -21.0010   20.4600 C   0  0  0  0  0  0  0  0  0  0  0  0
  -29.5480  -21.3410   19.9910 C   0  0  0  0  0  0  0  0  0  0  0  0
  -30.4610  -20.2150   19.8620 C   0  0  0  0  0  0  0  0  0  0  0  0
  -30.0440  -18.8530   20.1550 C   0  0  0  0  0  0  0  0  0  0  0  0
  -31.8750  -20.4710   19.3570 C   0  0  0  0  0  1  0  0  0  0  0  0
  -28.7930  -18.6250   20.5900 N   0  0  0  0  0  0  0  0  0  0  0  0
  -27.1220  -22.0150   20.6000 C   0  0  0  0  0  2  0  0  0  0  0  0
  -25.6190  -23.6690   19.3630 C   0  0  0  0  0  1  0  0  0  0  0  0
  -26.5820  -22.4830   19.2390 C   0  0  0  0  0  2  0  0  0  0  0  0
  -29.8230  -22.8090   19.4360 C   0  0  0  0  0  2  0  0  0  0  0  0
  -29.7970  -24.1590   20.3150 C   0  0  0  0  0  3  0  0  0  0  0  0
  -28.8940  -25.3610   19.7460 C   0  0  0  0  0  3  0  0  0  0  0  0
  -28.9570  -26.7710   20.2440 O   0  0  0  0  0  0  0  0  0  0  0  0
  -24.7740  -31.8270   23.3050 C   0  0  0  0  0  0  0  0  0  0  0  0
  -27.8010  -27.5810   20.1540 C   0  0  0  0  0  0  0  0  0  0  0  0
  -23.7330  -30.4290   21.5600 C   0  0  0  0  0  3  0  0  0  0  0  0
  -25.3370  -29.0530   20.1210 C   0  0  0  0  0  0  0  0  0  0  0  0
  -26.2530  -30.9190   21.4960 C   0  0  0  0  0  2  0  0  0  0  0  0
  -26.4500  -29.5800   20.7900 C   0  0  0  0  0  0  0  0  0  0  0  0
  -27.6830  -28.8560   20.8010 C   0  0  0  0  0  3  0  0  0  0  0  0
  -26.6640  -27.1300   19.4410 C   0  0  0  0  0  3  0  0  0  0  0  0
  -25.4480  -27.8340   19.4400 C   0  0  0  0  0  3  0  0  0  0  0  0
  -24.0420  -29.8390   20.1600 C   0  0  0  0  0  2  0  0  0  0  0  0
  -24.9350  -31.0740   22.1770 N   0  0  0  0  0  0  0  0  0  0  0  0
  -23.6550  -32.0070   23.8070 O   0  0  0  0  0  0  0  0  0  0  0  0
  -23.1070  -29.3250   22.4460 C   0  0  0  0  0  0  0  0  0  0  0  0
  -21.7990  -29.0750   22.2680 N   0  0  0  0  0  0  0  0  0  0  0  0
  -23.8000  -28.7000   23.2530 O   0  0  0  0  0  0  0  0  0  0  0  0
  -21.2970  -29.6360   21.5940 H   0  0  0  0  0  0  0  0  0  0  0  0
  -18.4820  -27.6760   22.6270 C   0  0  0  0  0  0  0  0  0  0  0  0
  -21.0170  -28.0530   22.9660 C   0  0  0  0  0  3  0  0  0  0  0  0
  -21.2060  -26.6640   22.3130 C   0  0  0  0  0  2  0  0  0  0  0  0
  -20.1420  -26.3430   21.2580 C   0  0  0  0  0  2  0  0  0  0  0  0
  -18.7430  -26.3790   21.8790 C   0  0  0  0  0  2  0  0  0  0  0  0
  -19.5500  -28.4690   23.1240 C   0  0  0  0  0  0  0  0  0  0  0  0
  -19.2530  -29.6820   23.7830 C   0  0  0  0  0  3  0  0  0  0  0  0
  -17.9210  -30.1030   23.9500 C   0  0  0  0  0  3  0  0  0  0  0  0
  -16.8670  -29.3070   23.4700 C   0  0  0  0  0  3  0  0  0  0  0  0
  -17.1470  -28.0940   22.8150 C   0  0  0  0  0  3  0  0  0  0  0  0
  -25.9870  -32.5160   24.0040 C   0  0  0  0  0  3  0  0  0  0  0  0
  -25.6050  -33.9070   24.2870 N   0  0  0  0  0  0  0  0  0  0  0  0
  -25.9410  -34.9590   23.5300 C   0  0  0  0  0  0  0  0  0  0  0  0
  -26.6740  -34.8650   22.5420 O   0  0  0  0  0  0  0  0  0  0  0  0
  -24.9570  -34.0510   25.0480 H   0  0  0  0  0  0  0  0  0  0  0  0
  -24.1620  -36.6720   23.0480 C   0  0  0  0  0  1  0  0  0  0  0  0
  -25.3740  -36.3350   23.9320 C   0  0  0  0  0  3  0  0  0  0  0  0
  -27.4220  -37.3250   24.8550 C   0  0  0  0  0  1  0  0  0  0  0  0
  -26.3680  -37.4270   23.8500 N   0  0  0  0  0  0  0  0  0  0  0  0
  -25.9170  -38.3330   23.9540 H   0  0  0  0  0  0  0  0  0  0  0  0
  -26.4380  -31.7850   25.3280 C   0  0  1  0  0  0  0  0  0  0  0  0
  -25.2800  -31.5250   26.3190 C   0  0  0  0  0  1  0  0  0  0  0  0
  -27.0980  -30.4230   25.0060 C   0  0  0  0  0  1  0  0  0  0  0  0
  -27.5070  -32.6320   26.0550 C   0  0  0  0  0  1  0  0  0  0  0  0
  -30.9370  -17.5510   19.9510 C   0  0  0  0  0  2  0  0  0  0  0  0
  -31.2780  -15.0430   20.1780 C   0  0  0  0  0  0  0  0  0  0  0  0
  -30.9940  -12.7600   19.1970 C   0  0  0  0  0  2  0  0  0  0  0  0
  -30.0500  -12.8200   17.9780 C   0  0  0  0  0  2  0  0  0  0  0  0
  -28.5790  -12.6930   18.4160 C   0  0  0  0  0  2  0  0  0  0  0  0
  -28.2340  -13.6180   19.6150 C   0  0  0  0  0  3  0  0  0  0  0  0
  -29.2950  -13.5090   20.7290 C   0  0  0  0  0  2  0  0  0  0  0  0
  -30.6000  -13.8400   20.1340 N   0  0  0  0  0  0  0  0  0  0  0  0
  -32.3950  -15.1250   19.6570 O   0  0  0  0  0  0  0  0  0  0  0  0
  -30.3350  -16.2950   22.0320 C   0  0  0  0  0  1  0  0  0  0  0  0
  -30.6310  -16.1970   20.5950 N   0  0  0  0  0  0  0  0  0  0  0  0
  -25.8890  -14.2820   20.4220 C   0  0  0  0  0  0  0  0  0  0  0  0
  -24.7960  -13.5400   20.7800 C   0  0  0  0  0  0  0  0  0  0  0  0
  -25.1960  -12.1720   20.6730 C   0  0  0  0  0  0  0  0  0  0  0  0
  -26.8860  -13.3690   20.1190 N   0  0  0  0  0  0  0  0  0  0  0  0
  -26.4750  -12.0920   20.3300 N   0  0  0  0  0  0  0  0  0  0  0  0
  -24.4160  -10.9370   20.8210 C   0  0  0  0  0  0  0  0  0  0  0  0
  -24.8060   -9.9190   21.7200 C   0  0  0  0  0  3  0  0  0  0  0  0
  -24.0300   -8.7500   21.8600 C   0  0  0  0  0  3  0  0  0  0  0  0
  -22.8470   -8.5870   21.0980 C   0  0  0  0  0  0  0  0  0  0  0  0
  -22.4750   -9.5930   20.1890 C   0  0  0  0  0  3  0  0  0  0  0  0
  -23.2520  -10.7550   20.0470 C   0  0  0  0  0  3  0  0  0  0  0  0
  -22.0440   -7.4740   21.1500 O   0  0  0  0  0  0  0  0  0  0  0  0
  -21.9300   -6.7190   22.2890 C   0  0  0  0  0  0  0  0  0  0  0  0
  -21.4870   -7.2730   23.5100 C   0  0  0  0  0  3  0  0  0  0  0  0
  -21.3190   -6.4460   24.6380 C   0  0  0  0  0  3  0  0  0  0  0  0
  -21.5830   -5.0670   24.5470 C   0  0  0  0  0  0  0  0  0  0  0  0
  -22.0190   -4.5120   23.3310 C   0  0  0  0  0  3  0  0  0  0  0  0
  -22.1890   -5.3360   22.2040 C   0  0  0  0  0  0  0  0  0  0  0  0
  -22.5890   -4.7930   21.0280 F   0  0  0  0  0  0  0  0  0  0  0  0
  -21.4150   -4.2690   25.6270 F   0  0  0  0  0  0  0  0  0  0  0  0
  -23.4300  -14.0660   21.1110 C   0  0  0  0  0  0  0  0  0  0  0  0
  -22.6990  -13.3730   21.9770 N   0  0  0  0  0  0  0  0  0  0  0  0
  -23.0210  -15.1250   20.6390 O   0  0  0  0  0  0  0  0  0  0  0  0
  -23.0420  -12.5160   22.3840 H   0  0  0  0  0  0  0  0  0  0  0  0
  -21.7820  -13.7050   22.2390 H   0  0  0  0  0  0  0  0  0  0  0  0
  -26.1110  -15.6510   20.3100 N   0  0  0  0  0  0  0  0  0  0  0  0
  -25.3830  -16.3340   20.4920 H   0  0  0  0  0  0  0  0  0  0  0  0
  -26.9970  -16.0750   20.0600 H   0  0  0  0  0  0  0  0  0  0  0  0
  2  8  1  0
  2  1  2  0
  3  2  1  0
  4  3  2  0
  4  5  1  0
  5  7  2  0
  6  4  1  0
  7  1  1  0
 10  9  1  0
 10  8  1  0
 11  3  1  0
 11 12  1  0
 13 14  1  0
 13 12  2  0
 15 26  2  0
 16 14  1  0
 16 21  1  0
 17 25  1  0
 17 27  1  0
 18 24  1  0
 18 20  1  0
 19 25  1  0
 20 21  2  0
 20 19  1  0
 22 16  2  0
 23 22  1  0
 23 18  2  0
 24 17  1  0
 25 15  1  0
 27 29  2  0
 28 27  1  0
 30 28  1  0
 31 40  2  0
 31 36  1  0
 32 28  1  0
 32 36  1  0
 33 32  1  0
 34 35  1  0
 34 33  1  0
 35 31  1  0
 36 37  2  0
 37 38  1  0
 39 38  2  0
 40 39  1  0
 41 15  1  0
 41 42  1  0
 41 51  1  0
 42 45  1  0
 43 47  1  0
 43 42  1  0
 44 43  2  0
 47 46  1  0
 49 47  1  0
 49 50  1  0
 49 48  1  0
 51 54  1  1
 51 52  1  0
 53 51  1  0
 55  5  1  0
 55 65  1  0
 56 65  1  0
 57 62  1  0
 58 59  1  0
 58 57  1  0
 60 59  1  0
 60 69  1  0
 60 61  1  0
 62 56  1  0
 62 61  1  0
 63 56  2  0
 65 64  1  0
 66 67  2  0
 67 86  1  0
 68 67  1  0
 68 71  1  0
 69 70  1  0
 69 66  1  0
 70 68  2  0
 71 72  1  0
 72 73  2  0
 74 77  1  0
 74 73  1  0
 75 74  2  0
 76 75  1  0
 76 71  2  0
 77 78  1  0
 78 79  1  0
 79 80  2  0
 81 80  1  0
 81 85  1  0
 82 81  2  0
 83 78  2  0
 83 82  1  0
 84 83  1  0
 86 87  1  0
 87 90  1  0
 87 89  1  0
 88 86  2  0
 91 66  1  0
 91 92  1  0
 93 91  1  0
M  ISO  4  13 101  14 101  56 100  65 100
M  END
>  <TORSDO>  (40) 
F 22

>  <SCORE>  (40) 
-11.812

>  <name>  (40) 
39

>  <ligand_id>  (40) 
39

>  <original_smiles>  (40) 
[H]c1nc(C([H])([H])N(C(=O)N2C([H])([H])C([H])([H])C([H])([H])C([H])(n3nc(-c4c([H])c([H])c(Oc5c([H])c([H])c(F)c([H])c5F)c([H])c4[H])c(C(=O)N([H])[H])c3N([H])[H])C2([H])[H])C([H])([H])[H])c(C([H])([H])[H])c(C([H])([H])C([H])([H])C([H])([H])Oc2c([H])c([H])c3c(c2[H])C([H])([H])N(C(=O)C([H])(N([H])C(=O)C([H])(N([H])C([H])([H])[H])C([H])([H])[H])C(C([H])([H])[H])(C([H])([H])[H])C([H])([H])[H])C([H])(C(=O)N([H])C2([H])c4c([H])c([H])c([H])c([H])c4C([H])([H])C([H])([H])C2([H])[H])C3([H])[H])c1C([H])([H])C([H])([H])C([H])([H])[H]

>  <smiles>  (40) 
[H]c1nc(C([H])([H])N(C(=O)N2C([H])([H])C([H])([H])C([H])([H])C([H])(n3nc(-c4c([H])c([H])c(Oc5c([H])c([H])c(F)c([H])c5F)c([H])c4[H])c(C(=O)N([H])[H])c3N([H])[H])C2([H])[H])C([H])([H])[H])c(C([H])([H])[H])c(C([H])([H])C([H])([H])C([H])([H])Oc2c([H])c([H])c3c(c2[H])C([H])([H])N(C(=O)C([H])(N([H])C(=O)C([H])(N([H])C([H])([H])[H])C([H])([H])[H])C(C([H])([H])[H])(C([H])([H])[H])C([H])([H])[H])C([H])(C(=O)N([H])C2([H])c4c([H])c([H])c([H])c([H])c4C([H])([H])C([H])([H])C2([H])[H])C3([H])[H])c1C([H])([H])C([H])([H])C([H])([H])[H]

$$$$
40:0:0
     RDKit          3D

 97104  0  0  1  0  0  0  0  0999 V2000
  -29.2970  -20.5790   19.6280 C   0  0  0  0  0  3  0  0  0  0  0  0
  -28.8980  -21.9310   20.5700 C   0  0  0  0  0  2  0  0  0  0  0  0
  -28.9730  -23.6760   18.5000 C   0  0  0  0  0  1  0  0  0  0  0  0
  -29.0080  -23.5570   20.0340 C   0  0  0  0  0  3  0  0  0  0  0  0
  -28.1020  -24.8550   20.6060 C   0  0  0  0  0  2  0  0  0  0  0  0
  -28.3160  -26.3670   20.2920 O   0  0  0  0  0  0  0  0  0  0  0  0
  -24.6110  -31.9750   23.3380 C   0  0  0  0  0  0  0  0  0  0  0  0
  -27.2330  -27.3160   20.2800 C   0  0  0  0  0  0  0  0  0  0  0  0
  -23.4240  -30.5790   21.6890 C   0  0  0  0  0  3  0  0  0  0  0  0
  -24.8850  -29.0230   20.2590 C   0  0  0  0  0  0  0  0  0  0  0  0
  -25.9740  -30.8710   21.5260 C   0  0  0  0  0  2  0  0  0  0  0  0
  -26.0600  -29.4820   20.8690 C   0  0  0  0  0  0  0  0  0  0  0  0
  -27.2360  -28.6450   20.8610 C   0  0  0  0  0  3  0  0  0  0  0  0
  -26.0360  -26.9540   19.6290 C   0  0  0  0  0  3  0  0  0  0  0  0
  -24.8850  -27.7710   19.6250 C   0  0  0  0  0  3  0  0  0  0  0  0
  -23.6510  -29.9100   20.3080 C   0  0  0  0  0  2  0  0  0  0  0  0
  -24.6890  -31.1630   22.2390 N   0  0  0  0  0  0  0  0  0  0  0  0
  -23.5210  -32.2470   23.8660 O   0  0  0  0  0  0  0  0  0  0  0  0
  -22.7520  -29.5620   22.6440 C   0  0  0  0  0  0  0  0  0  0  0  0
  -21.4320  -29.3550   22.4880 N   0  0  0  0  0  0  0  0  0  0  0  0
  -23.4210  -28.9570   23.4860 O   0  0  0  0  0  0  0  0  0  0  0  0
  -20.9490  -29.8920   21.7820 H   0  0  0  0  0  0  0  0  0  0  0  0
  -18.0770  -28.0500   22.9040 C   0  0  0  0  0  0  0  0  0  0  0  0
  -20.6160  -28.4040   23.2480 C   0  0  0  0  0  3  0  0  0  0  0  0
  -20.7850  -26.9690   22.7000 C   0  0  0  0  0  2  0  0  0  0  0  0
  -19.7280  -26.5910   21.6580 C   0  0  0  0  0  2  0  0  0  0  0  0
  -18.3220  -26.6970   22.2550 C   0  0  0  0  0  2  0  0  0  0  0  0
  -19.1560  -28.8580   23.3550 C   0  0  0  0  0  0  0  0  0  0  0  0
  -18.8740  -30.1190   23.9220 C   0  0  0  0  0  3  0  0  0  0  0  0
  -17.5490  -30.5780   24.0370 C   0  0  0  0  0  3  0  0  0  0  0  0
  -16.4840  -29.7690   23.6000 C   0  0  0  0  0  3  0  0  0  0  0  0
  -16.7490  -28.5060   23.0400 C   0  0  0  0  0  3  0  0  0  0  0  0
  -25.8840  -32.6150   23.9700 C   0  0  0  0  0  3  0  0  0  0  0  0
  -26.3870  -31.8490   25.2560 C   0  0  1  0  0  0  0  0  0  0  0  0
  -25.2860  -31.6190   26.3160 C   0  0  0  0  0  1  0  0  0  0  0  0
  -26.9760  -30.4690   24.8800 C   0  0  0  0  0  1  0  0  0  0  0  0
  -27.5290  -32.6500   25.9260 C   0  0  0  0  0  1  0  0  0  0  0  0
  -25.5650  -34.0130   24.2970 N   0  0  0  0  0  0  0  0  0  0  0  0
  -25.9080  -35.0710   23.5480 C   0  0  0  0  0  0  0  0  0  0  0  0
  -26.5950  -34.9710   22.5280 O   0  0  0  0  0  0  0  0  0  0  0  0
  -24.9530  -34.1630   25.0860 H   0  0  0  0  0  0  0  0  0  0  0  0
  -24.1810  -36.8650   23.1820 C   0  0  0  0  0  1  0  0  0  0  0  0
  -25.4130  -36.4570   24.0050 C   0  0  0  0  0  3  0  0  0  0  0  0
  -27.5380  -37.3430   24.8620 C   0  0  0  0  0  1  0  0  0  0  0  0
  -26.4450  -37.5120   23.9090 N   0  0  0  0  0  0  0  0  0  0  0  0
  -26.0350  -38.4300   24.0580 H   0  0  0  0  0  0  0  0  0  0  0  0
  -28.1790  -20.7660   18.5140 C   0  0  0  0  0  2  0  0  0  0  0  0
  -26.1480  -18.9730   18.6390 C   0  0  0  0  0  1  0  0  0  0  0  0
  -27.4160  -19.2960   16.4760 C   0  0  0  0  0  1  0  0  0  0  0  0
  -25.9980  -21.0980   17.3970 C   0  0  0  0  0  1  0  0  0  0  0  0
  -26.9880  -19.9860   17.7980 C   0  0  2  0  0  0  0  0  0  0  0  0
  -29.6000  -18.8770   19.8560 C   0  0  0  0  0  3  0  0  0  0  0  0
  -30.5330  -18.5980   18.7130 N   0  0  0  0  0  4  0  0  0  0  0  0
  -30.0790  -18.9700   17.8910 H   0  0  0  0  0  0  0  0  0  0  0  0
  -31.3550  -19.1630   18.8650 H   0  0  0  0  0  0  0  0  0  0  0  0
  -31.9400  -17.2820   17.1340 C   0  0  0  0  0  1  0  0  0  0  0  0
  -29.8920  -16.2110   18.1780 C   0  0  0  0  0  1  0  0  0  0  0  0
  -31.0230  -17.2360   18.3690 C   0  0  0  0  0  3  0  0  0  0  0  0
  -30.1750  -17.9390   21.1230 C   0  0  0  0  0  2  0  0  0  0  0  0
  -30.7520  -15.2270   21.3340 C   0  0  0  0  0  0  0  0  0  0  0  0
  -30.8200  -12.8150   20.5800 C   0  0  0  0  0  2  0  0  0  0  0  0
  -30.0960  -12.6400   19.2270 C   0  0  0  0  0  2  0  0  0  0  0  0
  -28.5790  -12.4480   19.4280 C   0  0  0  0  0  2  0  0  0  0  0  0
  -27.9740  -13.4490   20.4460 C   0  0  0  0  0  3  0  0  0  0  0  0
  -28.8370  -13.5750   21.7180 C   0  0  0  0  0  2  0  0  0  0  0  0
  -30.1880  -13.9580   21.2890 N   0  0  0  0  0  0  0  0  0  0  0  0
  -31.9800  -15.3180   21.2540 O   0  0  0  0  0  0  0  0  0  0  0  0
  -29.9320  -16.3750   21.2230 N   0  0  0  0  0  0  0  0  0  0  0  0
  -28.9540  -16.1380   21.2810 H   0  0  0  0  0  0  0  0  0  0  0  0
  -25.5140  -14.0370   20.8530 C   0  0  0  0  0  0  0  0  0  0  0  0
  -24.4050  -13.2610   21.0570 C   0  0  0  0  0  0  0  0  0  0  0  0
  -24.8670  -11.9080   21.0810 C   0  0  0  0  0  0  0  0  0  0  0  0
  -26.5780  -13.1550   20.7530 N   0  0  0  0  0  0  0  0  0  0  0  0
  -26.1900  -11.8710   20.9590 N   0  0  0  0  0  0  0  0  0  0  0  0
  -24.1190  -10.6440   21.1550 C   0  0  0  0  0  0  0  0  0  0  0  0
  -24.4430   -9.6500   22.1050 C   0  0  0  0  0  3  0  0  0  0  0  0
  -23.6930   -8.4530   22.1690 C   0  0  0  0  0  3  0  0  0  0  0  0
  -22.6080   -8.2460   21.2850 C   0  0  0  0  0  0  0  0  0  0  0  0
  -22.3040   -9.2300   20.3290 C   0  0  0  0  0  3  0  0  0  0  0  0
  -23.0530  -10.4180   20.2620 C   0  0  0  0  0  3  0  0  0  0  0  0
  -21.8460   -7.1030   21.2560 O   0  0  0  0  0  0  0  0  0  0  0  0
  -21.6770   -6.3230   22.3710 C   0  0  0  0  0  0  0  0  0  0  0  0
  -21.1300   -6.8400   23.5670 C   0  0  0  0  0  3  0  0  0  0  0  0
  -20.9060   -5.9880   24.6660 C   0  0  0  0  0  3  0  0  0  0  0  0
  -21.2220   -4.6190   24.5710 C   0  0  0  0  0  0  0  0  0  0  0  0
  -21.7650   -4.1030   23.3800 C   0  0  0  0  0  3  0  0  0  0  0  0
  -21.9870   -4.9520   22.2830 C   0  0  0  0  0  0  0  0  0  0  0  0
  -22.4910   -4.4450   21.1320 F   0  0  0  0  0  0  0  0  0  0  0  0
  -21.0050   -3.7980   25.6240 F   0  0  0  0  0  0  0  0  0  0  0  0
  -22.9840  -13.7390   21.1260 C   0  0  0  0  0  0  0  0  0  0  0  0
  -22.1380  -13.0470   21.8840 N   0  0  0  0  0  0  0  0  0  0  0  0
  -22.6250  -14.7600   20.5430 O   0  0  0  0  0  0  0  0  0  0  0  0
  -22.4380  -12.2260   22.3860 H   0  0  0  0  0  0  0  0  0  0  0  0
  -21.1790  -13.3520   21.9760 H   0  0  0  0  0  0  0  0  0  0  0  0
  -25.7080  -15.4080   20.7180 N   0  0  0  0  0  0  0  0  0  0  0  0
  -24.9420  -16.0720   20.7570 H   0  0  0  0  0  0  0  0  0  0  0  0
  -26.6010  -15.8460   20.5390 H   0  0  0  0  0  0  0  0  0  0  0  0
  1 47  1  0
  1 52  1  0
  1  2  1  0
  4  3  1  0
  4  2  1  0
  4  5  1  0
  6  5  1  0
  7 18  2  0
  8  6  1  0
  8 13  1  0
  9 17  1  0
  9 19  1  0
 10 16  1  0
 10 12  1  0
 11 17  1  0
 12 11  1  0
 13 12  2  0
 14  8  2  0
 15 14  1  0
 15 10  2  0
 16  9  1  0
 17  7  1  0
 19 21  2  0
 20 19  1  0
 22 20  1  0
 23 32  2  0
 23 28  1  0
 24 20  1  0
 24 28  1  0
 25 24  1  0
 26 27  1  0
 26 25  1  0
 27 23  1  0
 28 29  2  0
 29 30  1  0
 31 30  2  0
 32 31  1  0
 33  7  1  0
 33 38  1  0
 33 34  1  0
 34 37  1  1
 34 35  1  0
 36 34  1  0
 38 41  1  0
 39 43  1  0
 39 38  1  0
 40 39  2  0
 43 42  1  0
 45 43  1  0
 45 46  1  0
 45 44  1  0
 51 49  1  6
 50 51  1  0
 51 47  1  0
 51 48  1  0
 52 59  1  0
 53 55  1  0
 53 52  1  0
 54 53  1  0
 56 58  1  0
 57 58  1  0
 58 53  1  0
 59 68  1  0
 61 66  1  0
 62 63  1  0
 62 61  1  0
 64 63  1  0
 64 73  1  0
 64 65  1  0
 66 60  1  0
 66 65  1  0
 67 60  2  0
 68 69  1  0
 68 60  1  0
 70 71  2  0
 71 72  1  0
 71 90  1  0
 72 75  1  0
 73 70  1  0
 73 74  1  0
 74 72  2  0
 75 76  1  0
 76 77  2  0
 78 77  1  0
 79 78  2  0
 80 79  1  0
 80 75  2  0
 81 78  1  0
 81 82  1  0
 82 83  1  0
 83 84  2  0
 85 84  1  0
 85 89  1  0
 86 85  2  0
 87 82  2  0
 87 86  1  0
 88 87  1  0
 90 91  1  0
 91 94  1  0
 91 93  1  0
 92 90  2  0
 95 96  1  0
 95 70  1  0
 97 95  1  0
M  ISO  4   5 101   6 101  60 100  68 100
M  END
>  <TORSDO>  (41) 
F 25

>  <SCORE>  (41) 
-11.672

>  <name>  (41) 
40

>  <ligand_id>  (41) 
40

>  <original_smiles>  (41) 
[H]c1c([H])c([H])c2c(c1[H])C([H])([H])C([H])([H])C([H])([H])C2([H])N([H])C(=O)C1([H])N(C(=O)C([H])(N([H])C(=O)C([H])(N([H])C([H])([H])[H])C([H])([H])[H])C(C([H])([H])[H])(C([H])([H])[H])C([H])([H])[H])C([H])([H])c2c([H])c(OC([H])([H])C([H])(C([H])([H])[H])C([H])([H])C([H])(C([H])([H])C(C([H])([H])[H])(C([H])([H])[H])C([H])([H])[H])C([H])(C([H])([H])N([H])C(=O)N3C([H])([H])C([H])([H])C([H])([H])C([H])(n4nc(-c5c([H])c([H])c(Oc6c([H])c([H])c(F)c([H])c6F)c([H])c5[H])c(C(=O)N([H])[H])c4N([H])[H])C3([H])[H])[N+]([H])([H])C([H])(C([H])([H])[H])C([H])([H])[H])c([H])c([H])c2C1([H])[H]

>  <smiles>  (41) 
[H]c1c([H])c([H])c2c(c1[H])C([H])([H])C([H])([H])C([H])([H])C2([H])N([H])C(=O)C1([H])N(C(=O)C([H])(N([H])C(=O)C([H])(N([H])C([H])([H])[H])C([H])([H])[H])C(C([H])([H])[H])(C([H])([H])[H])C([H])([H])[H])C([H])([H])c2c([H])c(OC([H])([H])C([H])(C([H])([H])[H])C([H])([H])C([H])(C([H])([H])C(C([H])([H])[H])(C([H])([H])[H])C([H])([H])[H])C([H])(C([H])([H])N([H])C(=O)N3C([H])([H])C([H])([H])C([H])([H])C([H])(n4nc(-c5c([H])c([H])c(Oc6c([H])c([H])c(F)c([H])c6F)c([H])c5[H])c(C(=O)N([H])[H])c4N([H])[H])C3([H])[H])[N+]([H])([H])C([H])(C([H])([H])[H])C([H])([H])[H])c([H])c([H])c2C1([H])[H]

$$$$
41:0:0
     RDKit          3D

 90 98  0  0  1  0  0  0  0  0999 V2000
  -28.8190  -21.4990   19.0140 C   0  0  0  0  0  3  0  0  0  0  0  0
  -29.1660  -20.0230   19.0440 C   0  0  0  0  0  0  0  0  0  0  0  0
  -29.6970  -19.2310   20.1740 C   0  0  0  0  0  0  0  0  0  0  0  0
  -28.9050  -22.5220   20.0750 C   0  0  0  0  0  0  0  0  0  0  0  0
  -29.7600  -20.3160   21.1960 C   0  0  0  0  0  0  0  0  0  0  0  0
  -30.2190  -19.8970   22.5780 C   0  0  0  0  0  1  0  0  0  0  0  0
  -29.4020  -21.7340   21.1500 N   0  0  0  0  0  0  0  0  0  0  0  0
  -29.8040  -17.4010   20.4110 C   0  0  0  0  0  2  0  0  0  0  0  0
  -30.7120  -15.8480   20.0270 C   0  0  0  0  0  0  0  0  0  0  0  0
  -30.7920  -13.3600   19.0890 C   0  0  0  0  0  2  0  0  0  0  0  0
  -29.8220  -13.0960   17.9010 C   0  0  0  0  0  2  0  0  0  0  0  0
  -28.4090  -12.7470   18.4010 C   0  0  0  0  0  2  0  0  0  0  0  0
  -27.9780  -13.6770   19.5580 C   0  0  0  0  0  3  0  0  0  0  0  0
  -29.0720  -13.8630   20.6330 C   0  0  0  0  0  2  0  0  0  0  0  0
  -30.2450  -14.4740   19.9740 N   0  0  0  0  0  0  0  0  0  0  0  0
  -31.9120  -15.8690   19.6950 O   0  0  0  0  0  0  0  0  0  0  0  0
  -25.6580  -14.1720   20.4790 C   0  0  0  0  0  0  0  0  0  0  0  0
  -24.6200  -13.3740   20.8650 C   0  0  0  0  0  0  0  0  0  0  0  0
  -25.0850  -12.0290   20.7380 C   0  0  0  0  0  0  0  0  0  0  0  0
  -26.6860  -13.3160   20.1280 N   0  0  0  0  0  0  0  0  0  0  0  0
  -26.3580  -12.0160   20.3510 N   0  0  0  0  0  0  0  0  0  0  0  0
  -24.3680  -10.7570   20.9030 C   0  0  0  0  0  0  0  0  0  0  0  0
  -24.7780   -9.7930   21.8500 C   0  0  0  0  0  3  0  0  0  0  0  0
  -24.0550   -8.5890   22.0060 C   0  0  0  0  0  3  0  0  0  0  0  0
  -22.9100   -8.3400   21.2130 C   0  0  0  0  0  0  0  0  0  0  0  0
  -22.5190   -9.2940   20.2570 C   0  0  0  0  0  3  0  0  0  0  0  0
  -23.2410  -10.4880   20.0990 C   0  0  0  0  0  3  0  0  0  0  0  0
  -22.1630   -7.1880   21.2760 O   0  0  0  0  0  0  0  0  0  0  0  0
  -21.9510   -6.5310   22.4610 C   0  0  0  0  0  0  0  0  0  0  0  0
  -21.3130   -7.1550   23.5550 C   0  0  0  0  0  3  0  0  0  0  0  0
  -21.0530   -6.4220   24.7300 C   0  0  0  0  0  3  0  0  0  0  0  0
  -21.4200   -5.0660   24.8100 C   0  0  0  0  0  0  0  0  0  0  0  0
  -22.0500   -4.4410   23.7200 C   0  0  0  0  0  3  0  0  0  0  0  0
  -22.3130   -5.1720   22.5480 C   0  0  0  0  0  0  0  0  0  0  0  0
  -22.9000   -4.5580   21.4930 F   0  0  0  0  0  0  0  0  0  0  0  0
  -21.1630   -4.3590   25.9360 F   0  0  0  0  0  0  0  0  0  0  0  0
  -23.2390  -13.8340   21.2320 C   0  0  0  0  0  0  0  0  0  0  0  0
  -22.5660  -13.1070   22.1150 N   0  0  0  0  0  0  0  0  0  0  0  0
  -22.7690  -14.8730   20.7700 O   0  0  0  0  0  0  0  0  0  0  0  0
  -22.9600  -12.2660   22.5090 H   0  0  0  0  0  0  0  0  0  0  0  0
  -21.6420  -13.3970   22.4030 H   0  0  0  0  0  0  0  0  0  0  0  0
  -25.8090  -15.5520   20.3660 N   0  0  0  0  0  0  0  0  0  0  0  0
  -25.0460  -16.1930   20.5590 H   0  0  0  0  0  0  0  0  0  0  0  0
  -26.6330  -16.0150   20.0080 H   0  0  0  0  0  0  0  0  0  0  0  0
  -28.8560  -19.2370   17.7770 C   0  0  0  0  0  2  0  0  0  0  0  0
  -29.7610  -18.0810   15.7060 C   0  0  0  0  0  1  0  0  0  0  0  0
  -30.6170  -20.3810   16.3220 C   0  0  0  0  0  1  0  0  0  0  0  0
  -30.0820  -19.0450   16.8600 C   0  0  0  0  0  3  0  0  0  0  0  0
  -28.0720  -24.1660   20.1410 C   0  0  0  0  0  2  0  0  0  0  0  0
  -28.3770  -25.8640   20.1670 O   0  0  0  0  0  0  0  0  0  0  0  0
  -24.7630  -31.9490   23.2310 C   0  0  0  0  0  0  0  0  0  0  0  0
  -27.3820  -27.0340   20.1400 C   0  0  0  0  0  0  0  0  0  0  0  0
  -23.5930  -30.5600   21.5740 C   0  0  0  0  0  3  0  0  0  0  0  0
  -25.0670  -28.9790   20.1250 C   0  0  0  0  0  0  0  0  0  0  0  0
  -26.1650  -30.7740   21.4380 C   0  0  0  0  0  2  0  0  0  0  0  0
  -26.2560  -29.3620   20.7580 C   0  0  0  0  0  0  0  0  0  0  0  0
  -27.4020  -28.4170   20.7340 C   0  0  0  0  0  3  0  0  0  0  0  0
  -26.1540  -26.8460   19.4580 C   0  0  0  0  0  3  0  0  0  0  0  0
  -25.0500  -27.7470   19.4520 C   0  0  0  0  0  3  0  0  0  0  0  0
  -23.8390  -29.8970   20.1880 C   0  0  0  0  0  2  0  0  0  0  0  0
  -24.8640  -31.1250   22.1340 N   0  0  0  0  0  0  0  0  0  0  0  0
  -23.6680  -32.2160   23.7540 O   0  0  0  0  0  0  0  0  0  0  0  0
  -22.9060  -29.5470   22.5280 C   0  0  0  0  0  0  0  0  0  0  0  0
  -21.5770  -29.3620   22.4010 N   0  0  0  0  0  0  0  0  0  0  0  0
  -23.5780  -28.9250   23.3540 O   0  0  0  0  0  0  0  0  0  0  0  0
  -21.0840  -29.9150   21.7130 H   0  0  0  0  0  0  0  0  0  0  0  0
  -18.2150  -28.0820   22.9070 C   0  0  0  0  0  0  0  0  0  0  0  0
  -20.7720  -28.3980   23.1600 C   0  0  0  0  0  3  0  0  0  0  0  0
  -20.8980  -26.9770   22.5610 C   0  0  0  0  0  2  0  0  0  0  0  0
  -19.7970  -26.6510   21.5470 C   0  0  0  0  0  2  0  0  0  0  0  0
  -18.4160  -26.7520   22.2000 C   0  0  0  0  0  2  0  0  0  0  0  0
  -19.3200  -28.8620   23.3430 C   0  0  0  0  0  0  0  0  0  0  0  0
  -19.0750  -30.1030   23.9690 C   0  0  0  0  0  3  0  0  0  0  0  0
  -17.7590  -30.5680   24.1590 C   0  0  0  0  0  3  0  0  0  0  0  0
  -16.6700  -29.7860   23.7360 C   0  0  0  0  0  3  0  0  0  0  0  0
  -16.9000  -28.5450   23.1160 C   0  0  0  0  0  3  0  0  0  0  0  0
  -26.0200  -32.6090   23.8760 C   0  0  0  0  0  3  0  0  0  0  0  0
  -26.5390  -31.8340   25.1500 C   0  0  1  0  0  0  0  0  0  0  0  0
  -25.4440  -31.5680   26.2100 C   0  0  0  0  0  1  0  0  0  0  0  0
  -27.1480  -30.4680   24.7580 C   0  0  0  0  0  1  0  0  0  0  0  0
  -27.6730  -32.6390   25.8270 C   0  0  0  0  0  1  0  0  0  0  0  0
  -25.6730  -33.9960   24.2420 N   0  0  0  0  0  0  0  0  0  0  0  0
  -25.9430  -35.0790   23.5020 C   0  0  0  0  0  0  0  0  0  0  0  0
  -26.5710  -35.0200   22.4430 O   0  0  0  0  0  0  0  0  0  0  0  0
  -25.1060  -34.1130   25.0700 H   0  0  0  0  0  0  0  0  0  0  0  0
  -24.1320  -36.8190   23.3030 C   0  0  0  0  0  1  0  0  0  0  0  0
  -25.4410  -36.4460   24.0150 C   0  0  0  0  0  3  0  0  0  0  0  0
  -27.5910  -37.4110   24.7130 C   0  0  0  0  0  1  0  0  0  0  0  0
  -26.4240  -37.5410   23.8440 N   0  0  0  0  0  0  0  0  0  0  0  0
  -25.9930  -38.4430   24.0270 H   0  0  0  0  0  0  0  0  0  0  0  0
  1  2  2  0
  1  4  1  0
  2  3  1  0
  3  8  1  0
  3  5  2  0
  4 49  1  0
  4  7  2  0
  5  6  1  0
  7  5  1  0
  9  8  1  0
 10 15  1  0
 11 12  1  0
 11 10  1  0
 13 12  1  0
 13 20  1  0
 13 14  1  0
 15  9  1  0
 15 14  1  0
 16  9  2  0
 17 18  2  0
 18 37  1  0
 19 18  1  0
 19 22  1  0
 20 21  1  0
 20 17  1  0
 21 19  2  0
 22 23  1  0
 23 24  2  0
 25 28  1  0
 25 24  1  0
 26 25  2  0
 27 26  1  0
 27 22  2  0
 28 29  1  0
 29 34  2  0
 29 30  1  0
 30 31  2  0
 31 32  1  0
 32 36  1  0
 33 32  2  0
 34 33  1  0
 35 34  1  0
 37 38  1  0
 38 41  1  0
 38 40  1  0
 39 37  2  0
 42 17  1  0
 42 43  1  0
 44 42  1  0
 45  2  1  0
 46 48  1  0
 47 48  1  0
 48 45  1  0
 49 50  1  0
 51 62  2  0
 52 50  1  0
 52 57  1  0
 53 61  1  0
 53 63  1  0
 54 60  1  0
 54 56  1  0
 55 61  1  0
 56 55  1  0
 57 56  2  0
 58 52  2  0
 59 58  1  0
 59 54  2  0
 60 53  1  0
 61 51  1  0
 63 65  2  0
 64 63  1  0
 66 64  1  0
 67 76  2  0
 67 72  1  0
 68 64  1  0
 68 72  1  0
 69 68  1  0
 70 71  1  0
 70 69  1  0
 71 67  1  0
 72 73  2  0
 73 74  1  0
 75 74  2  0
 76 75  1  0
 77 51  1  0
 77 82  1  0
 77 78  1  0
 78 81  1  1
 78 79  1  0
 80 78  1  0
 82 85  1  0
 83 87  1  0
 83 82  1  0
 84 83  2  0
 87 86  1  0
 89 87  1  0
 89 90  1  0
 89 88  1  0
M  ISO  4   8 100   9 100  49 101  50 101
M  END
>  <TORSDO>  (42) 
F 20

>  <SCORE>  (42) 
-14.298

>  <name>  (42) 
41

>  <ligand_id>  (42) 
41

>  <original_smiles>  (42) 
[H]c1c([H])c([H])c2c(c1[H])C([H])([H])C([H])([H])C([H])([H])C2([H])N([H])C(=O)C1([H])N(C(=O)C([H])(N([H])C(=O)C([H])(N([H])C([H])([H])[H])C([H])([H])[H])C(C([H])([H])[H])(C([H])([H])[H])C([H])([H])[H])C([H])([H])c2c([H])c(OC([H])([H])c3nc(C([H])([H])[H])c(C([H])([H])C(=O)N4C([H])([H])C([H])([H])C([H])([H])C([H])(n5nc(-c6c([H])c([H])c(Oc7c([H])c([H])c(F)c([H])c7F)c([H])c6[H])c(C(=O)N([H])[H])c5N([H])[H])C4([H])[H])c(C([H])([H])C([H])(C([H])([H])[H])C([H])([H])[H])c3[H])c([H])c([H])c2C1([H])[H]

>  <smiles>  (42) 
[H]c1c([H])c([H])c2c(c1[H])C([H])([H])C([H])([H])C([H])([H])C2([H])N([H])C(=O)C1([H])N(C(=O)C([H])(N([H])C(=O)C([H])(N([H])C([H])([H])[H])C([H])([H])[H])C(C([H])([H])[H])(C([H])([H])[H])C([H])([H])[H])C([H])([H])c2c([H])c(OC([H])([H])c3nc(C([H])([H])[H])c(C([H])([H])C(=O)N4C([H])([H])C([H])([H])C([H])([H])C([H])(n5nc(-c6c([H])c([H])c(Oc7c([H])c([H])c(F)c([H])c7F)c([H])c6[H])c(C(=O)N([H])[H])c5N([H])[H])C4([H])[H])c(C([H])([H])C([H])(C([H])([H])[H])C([H])([H])[H])c3[H])c([H])c([H])c2C1([H])[H]

$$$$
42:0:0
     RDKit          3D

 92100  0  0  1  0  0  0  0  0999 V2000
  -28.7940  -22.4120   19.2090 C   0  0  0  0  0  2  0  0  0  0  0  0
  -29.9210  -20.0000   19.2580 C   0  0  0  0  0  3  0  0  0  0  0  0
  -29.6060  -18.6650   19.5440 C   0  0  0  0  0  0  0  0  0  0  0  0
  -28.3180  -18.7660   20.1550 C   0  0  0  0  0  0  0  0  0  0  0  0
  -27.8800  -20.0780   20.0950 C   0  0  0  0  0  0  0  0  0  0  0  0
  -27.5280  -17.6200   20.7350 C   0  0  0  0  0  1  0  0  0  0  0  0
  -26.5100  -20.5640   20.4520 C   0  0  0  0  0  1  0  0  0  0  0  0
  -28.8810  -20.9120   19.5830 N   0  0  0  0  0  0  0  0  0  0  0  0
  -30.4850  -17.3570   19.2840 C   0  0  0  0  0  2  0  0  0  0  0  0
  -30.7710  -14.7850   19.4090 C   0  0  0  0  0  0  0  0  0  0  0  0
  -30.4400  -12.4940   18.4840 C   0  0  0  0  0  2  0  0  0  0  0  0
  -29.3690  -12.5610   17.3740 C   0  0  0  0  0  2  0  0  0  0  0  0
  -27.9600  -12.4020   17.9760 C   0  0  0  0  0  2  0  0  0  0  0  0
  -27.7310  -13.2990   19.2230 C   0  0  0  0  0  3  0  0  0  0  0  0
  -28.9190  -13.2310   20.2100 C   0  0  0  0  0  2  0  0  0  0  0  0
  -30.1310  -13.5660   19.4550 N   0  0  0  0  0  0  0  0  0  0  0  0
  -31.9140  -14.8580   18.9490 O   0  0  0  0  0  0  0  0  0  0  0  0
  -30.0520  -15.9390   19.6480 N   0  0  0  0  0  0  0  0  0  0  0  0
  -29.1060  -15.8260   19.9760 H   0  0  0  0  0  0  0  0  0  0  0  0
  -25.4690  -13.8960   20.2830 C   0  0  0  0  0  0  0  0  0  0  0  0
  -24.4430  -13.1260   20.7560 C   0  0  0  0  0  0  0  0  0  0  0  0
  -24.8670  -11.7700   20.6080 C   0  0  0  0  0  0  0  0  0  0  0  0
  -26.4550  -13.0120   19.8740 N   0  0  0  0  0  0  0  0  0  0  0  0
  -26.1050  -11.7240   20.1290 N   0  0  0  0  0  0  0  0  0  0  0  0
  -24.1410  -10.5130   20.8360 C   0  0  0  0  0  0  0  0  0  0  0  0
  -24.6130   -9.5410   21.7450 C   0  0  0  0  0  3  0  0  0  0  0  0
  -23.8860   -8.3500   21.9620 C   0  0  0  0  0  3  0  0  0  0  0  0
  -22.6740   -8.1210   21.2700 C   0  0  0  0  0  0  0  0  0  0  0  0
  -22.2200   -9.0810   20.3480 C   0  0  0  0  0  3  0  0  0  0  0  0
  -22.9470  -10.2650   20.1290 C   0  0  0  0  0  3  0  0  0  0  0  0
  -21.9140   -6.9820   21.3990 O   0  0  0  0  0  0  0  0  0  0  0  0
  -21.8440   -6.2960   22.5850 C   0  0  0  0  0  0  0  0  0  0  0  0
  -21.3980   -6.9090   23.7760 C   0  0  0  0  0  3  0  0  0  0  0  0
  -21.2710   -6.1480   24.9540 C   0  0  0  0  0  3  0  0  0  0  0  0
  -21.5820   -4.7740   24.9460 C   0  0  0  0  0  0  0  0  0  0  0  0
  -22.0230   -4.1620   23.7590 C   0  0  0  0  0  3  0  0  0  0  0  0
  -22.1510   -4.9200   22.5830 C   0  0  0  0  0  0  0  0  0  0  0  0
  -22.5540   -4.3200   21.4360 F   0  0  0  0  0  0  0  0  0  0  0  0
  -21.4540   -4.0410   26.0750 F   0  0  0  0  0  0  0  0  0  0  0  0
  -23.1040  -13.6170   21.2240 C   0  0  0  0  0  0  0  0  0  0  0  0
  -22.4860  -12.9140   22.1660 N   0  0  0  0  0  0  0  0  0  0  0  0
  -22.6180  -14.6600   20.7880 O   0  0  0  0  0  0  0  0  0  0  0  0
  -22.8950  -12.0760   22.5500 H   0  0  0  0  0  0  0  0  0  0  0  0
  -21.5900  -13.2260   22.5130 H   0  0  0  0  0  0  0  0  0  0  0  0
  -25.6300  -15.2710   20.1380 N   0  0  0  0  0  0  0  0  0  0  0  0
  -24.8760  -15.9160   20.3450 H   0  0  0  0  0  0  0  0  0  0  0  0
  -26.4000  -15.7100   19.6520 H   0  0  0  0  0  0  0  0  0  0  0  0
  -27.5930  -23.6930   21.1700 C   0  0  0  0  0  1  0  0  0  0  0  0
  -30.0840  -23.5870   21.1000 C   0  0  0  0  0  1  0  0  0  0  0  0
  -28.8150  -23.6940   20.2310 C   0  0  1  0  0  0  0  0  0  0  0  0
  -28.8030  -25.1420   19.4830 C   0  0  0  0  0  2  0  0  0  0  0  0
  -28.5700  -26.4550   20.1860 O   0  0  0  0  0  0  0  0  0  0  0  0
  -24.3950  -31.6220   23.0840 C   0  0  0  0  0  0  0  0  0  0  0  0
  -27.3940  -27.2360   20.0740 C   0  0  0  0  0  0  0  0  0  0  0  0
  -23.3430  -30.1800   21.3790 C   0  0  0  0  0  3  0  0  0  0  0  0
  -24.9390  -28.7380   19.9890 C   0  0  0  0  0  0  0  0  0  0  0  0
  -25.8670  -30.6430   21.3020 C   0  0  0  0  0  2  0  0  0  0  0  0
  -26.0550  -29.2800   20.6370 C   0  0  0  0  0  0  0  0  0  0  0  0
  -27.2820  -28.5390   20.6680 C   0  0  0  0  0  3  0  0  0  0  0  0
  -26.2410  -26.7550   19.4090 C   0  0  0  0  0  3  0  0  0  0  0  0
  -25.0380  -27.4850   19.3670 C   0  0  0  0  0  3  0  0  0  0  0  0
  -23.6500  -29.5350   20.0020 C   0  0  0  0  0  2  0  0  0  0  0  0
  -24.5500  -30.8340   21.9780 N   0  0  0  0  0  0  0  0  0  0  0  0
  -23.2760  -31.8260   23.5790 O   0  0  0  0  0  0  0  0  0  0  0  0
  -22.7010  -29.1140   22.3000 C   0  0  0  0  0  0  0  0  0  0  0  0
  -21.3920  -28.8630   22.1210 N   0  0  0  0  0  0  0  0  0  0  0  0
  -23.3820  -28.5150   23.1360 O   0  0  0  0  0  0  0  0  0  0  0  0
  -20.8960  -29.3970   21.4200 H   0  0  0  0  0  0  0  0  0  0  0  0
  -18.0740  -27.4790   22.5030 C   0  0  0  0  0  0  0  0  0  0  0  0
  -20.6050  -27.8650   22.8480 C   0  0  0  0  0  3  0  0  0  0  0  0
  -20.7990  -26.4540   22.2420 C   0  0  0  0  0  2  0  0  0  0  0  0
  -19.7450  -26.0980   21.1890 C   0  0  0  0  0  2  0  0  0  0  0  0
  -18.3420  -26.1550   21.8020 C   0  0  0  0  0  2  0  0  0  0  0  0
  -19.1380  -28.2870   22.9810 C   0  0  0  0  0  0  0  0  0  0  0  0
  -18.8370  -29.5210   23.5980 C   0  0  0  0  0  3  0  0  0  0  0  0
  -17.5050  -29.9510   23.7390 C   0  0  0  0  0  3  0  0  0  0  0  0
  -16.4540  -29.1390   23.2780 C   0  0  0  0  0  3  0  0  0  0  0  0
  -16.7380  -27.9040   22.6680 C   0  0  0  0  0  3  0  0  0  0  0  0
  -25.6100  -32.3220   23.7660 C   0  0  0  0  0  3  0  0  0  0  0  0
  -26.0670  -31.6130   25.1010 C   0  0  1  0  0  0  0  0  0  0  0  0
  -24.9130  -31.3580   26.1000 C   0  0  0  0  0  1  0  0  0  0  0  0
  -26.7360  -30.2530   24.7960 C   0  0  0  0  0  1  0  0  0  0  0  0
  -27.1360  -32.4750   25.8140 C   0  0  0  0  0  1  0  0  0  0  0  0
  -25.2290  -33.7160   24.0340 N   0  0  0  0  0  0  0  0  0  0  0  0
  -25.5490  -34.7590   23.2560 C   0  0  0  0  0  0  0  0  0  0  0  0
  -26.2710  -34.6510   22.2610 O   0  0  0  0  0  0  0  0  0  0  0  0
  -24.5950  -33.8680   24.8060 H   0  0  0  0  0  0  0  0  0  0  0  0
  -23.7720  -36.4670   22.7600 C   0  0  0  0  0  1  0  0  0  0  0  0
  -24.9860  -36.1400   23.6450 C   0  0  0  0  0  3  0  0  0  0  0  0
  -27.0390  -37.1390   24.5500 C   0  0  0  0  0  1  0  0  0  0  0  0
  -25.9830  -37.2300   23.5450 N   0  0  0  0  0  0  0  0  0  0  0  0
  -25.5340  -38.1390   23.6400 H   0  0  0  0  0  0  0  0  0  0  0  0
  1  8  1  0
  1 50  1  0
  2  3  2  0
  2  8  1  0
  3  4  1  0
  4  6  1  0
  5  4  2  0
  5  7  1  0
  8  5  1  0
  9  3  1  0
  9 18  1  0
 10 16  1  0
 10 18  1  0
 11 16  1  0
 12 13  1  0
 12 11  1  0
 14 13  1  0
 14 23  1  0
 14 15  1  0
 16 15  1  0
 17 10  2  0
 18 19  1  0
 20 21  2  0
 21 40  1  0
 22 21  1  0
 22 25  1  0
 23 24  1  0
 23 20  1  0
 24 22  2  0
 25 26  1  0
 26 27  2  0
 28 31  1  0
 28 27  1  0
 29 28  2  0
 30 29  1  0
 30 25  2  0
 31 32  1  0
 32 33  1  0
 33 34  2  0
 35 34  1  0
 35 39  1  0
 36 35  2  0
 37 32  2  0
 37 36  1  0
 38 37  1  0
 40 41  1  0
 41 44  1  0
 41 43  1  0
 42 40  2  0
 45 20  1  0
 45 46  1  0
 47 45  1  0
 50 49  1  1
 50 48  1  0
 51 52  1  0
 51 50  1  0
 53 64  2  0
 54 52  1  0
 54 59  1  0
 55 63  1  0
 55 65  1  0
 56 62  1  0
 56 58  1  0
 57 63  1  0
 58 59  2  0
 58 57  1  0
 60 54  2  0
 61 60  1  0
 61 56  2  0
 62 55  1  0
 63 53  1  0
 65 67  2  0
 66 65  1  0
 68 66  1  0
 69 78  2  0
 69 74  1  0
 70 66  1  0
 70 74  1  0
 71 70  1  0
 72 73  1  0
 72 71  1  0
 73 69  1  0
 74 75  2  0
 75 76  1  0
 77 76  2  0
 78 77  1  0
 79 53  1  0
 79 84  1  0
 79 80  1  0
 80 83  1  1
 80 81  1  0
 82 80  1  0
 84 87  1  0
 85 89  1  0
 85 84  1  0
 86 85  2  0
 89 88  1  0
 91 92  1  0
 91 89  1  0
 91 90  1  0
M  ISO  4  10 100  18 100  51 101  52 101
M  END
>  <TORSDO>  (43) 
F 20

>  <SCORE>  (43) 
-10.562

>  <name>  (43) 
42

>  <ligand_id>  (43) 
42

>  <original_smiles>  (43) 
[H]c1c([H])c([H])c2c(c1[H])C([H])([H])C([H])([H])C([H])([H])C2([H])N([H])C(=O)C1([H])N(C(=O)C([H])(N([H])C(=O)C([H])(N([H])C([H])([H])[H])C([H])([H])[H])C(C([H])([H])[H])(C([H])([H])[H])C([H])([H])[H])C([H])([H])c2c([H])c(OC([H])([H])C(C([H])([H])[H])(C([H])([H])[H])C([H])([H])n3c([H])c(C([H])([H])N([H])C(=O)N4C([H])([H])C([H])([H])C([H])([H])C([H])(n5nc(-c6c([H])c([H])c(Oc7c([H])c([H])c(F)c([H])c7F)c([H])c6[H])c(C(=O)N([H])[H])c5N([H])[H])C4([H])[H])c(C([H])([H])[H])c3C([H])([H])[H])c([H])c([H])c2C1([H])[H]

>  <smiles>  (43) 
[H]c1c([H])c([H])c2c(c1[H])C([H])([H])C([H])([H])C([H])([H])C2([H])N([H])C(=O)C1([H])N(C(=O)C([H])(N([H])C(=O)C([H])(N([H])C([H])([H])[H])C([H])([H])[H])C(C([H])([H])[H])(C([H])([H])[H])C([H])([H])[H])C([H])([H])c2c([H])c(OC([H])([H])C(C([H])([H])[H])(C([H])([H])[H])C([H])([H])n3c([H])c(C([H])([H])N([H])C(=O)N4C([H])([H])C([H])([H])C([H])([H])C([H])(n5nc(-c6c([H])c([H])c(Oc7c([H])c([H])c(F)c([H])c7F)c([H])c6[H])c(C(=O)N([H])[H])c5N([H])[H])C4([H])[H])c(C([H])([H])[H])c3C([H])([H])[H])c([H])c([H])c2C1([H])[H]

$$$$
43:0:0
     RDKit          3D

 84 88  0  0  1  0  0  0  0  0999 V2000
  -28.3930  -23.3790   19.8880 C   0  0  0  0  0 15  0  0  0  0  0  0
  -30.0310  -21.6830   21.4170 C   0  0  0  0  0  1  0  0  0  0  0  0
  -27.6180  -21.0420   21.2730 C   0  0  0  0  0  1  0  0  0  0  0  0
  -28.8670  -21.3980   20.4560 C   0  0  0  0  0  2  0  0  0  0  0  0
  -29.4560  -19.4750   19.8290 C   0  0  0  0  0  1  0  0  0  0  0  0
  -30.2070  -16.1150   20.0280 C   0  0  0  0  0  0  0  0  0  0  0  0
  -30.3640  -13.4810   19.2300 C   0  0  0  0  0  2  0  0  0  0  0  0
  -29.4800  -12.9230   18.0630 C   0  0  0  0  0  2  0  0  0  0  0  0
  -28.0950  -12.4960   18.5650 C   0  0  0  0  0  2  0  0  0  0  0  0
  -27.5700  -13.5120   19.5980 C   0  0  0  0  0  3  0  0  0  0  0  0
  -28.6050  -13.9520   20.6720 C   0  0  0  0  0  2  0  0  0  0  0  0
  -29.7120  -14.6880   19.9790 N   0  0  0  0  0  0  0  0  0  0  0  0
  -31.4310  -15.9810   19.7820 O   0  0  0  0  0  0  0  0  0  0  0  0
  -29.4850  -17.5910   20.1660 N   0  0  0  0  0  0  0  0  0  0  0  0
  -28.5490  -17.3600   20.4680 H   0  0  0  0  0  0  0  0  0  0  0  0
  -25.2340  -14.0180   20.4290 C   0  0  0  0  0  0  0  0  0  0  0  0
  -24.1850  -13.2370   20.8160 C   0  0  0  0  0  0  0  0  0  0  0  0
  -24.6540  -11.8870   20.7660 C   0  0  0  0  0  0  0  0  0  0  0  0
  -26.2730  -13.1520   20.1550 N   0  0  0  0  0  0  0  0  0  0  0  0
  -25.9410  -11.8590   20.4230 N   0  0  0  0  0  0  0  0  0  0  0  0
  -23.9260  -10.6250   20.9680 C   0  0  0  0  0  0  0  0  0  0  0  0
  -24.3690   -9.6540   21.8950 C   0  0  0  0  0  3  0  0  0  0  0  0
  -23.6340   -8.4640   22.0920 C   0  0  0  0  0  3  0  0  0  0  0  0
  -22.4440   -8.2350   21.3610 C   0  0  0  0  0  0  0  0  0  0  0  0
  -22.0190   -9.1950   20.4250 C   0  0  0  0  0  3  0  0  0  0  0  0
  -22.7530  -10.3760   20.2260 C   0  0  0  0  0  3  0  0  0  0  0  0
  -21.6810   -7.0960   21.4650 O   0  0  0  0  0  0  0  0  0  0  0  0
  -21.6450   -6.3560   22.6190 C   0  0  0  0  0  0  0  0  0  0  0  0
  -21.2390   -6.9140   23.8500 C   0  0  0  0  0  3  0  0  0  0  0  0
  -21.1520   -6.1010   24.9970 C   0  0  0  0  0  3  0  0  0  0  0  0
  -21.4600   -4.7300   24.9150 C   0  0  0  0  0  0  0  0  0  0  0  0
  -21.8580   -4.1710   23.6880 C   0  0  0  0  0  3  0  0  0  0  0  0
  -21.9490   -4.9810   22.5430 C   0  0  0  0  0  0  0  0  0  0  0  0
  -22.3130   -4.4320   21.3580 F   0  0  0  0  0  0  0  0  0  0  0  0
  -21.3680   -3.9470   26.0160 F   0  0  0  0  0  0  0  0  0  0  0  0
  -22.7950  -13.7160   21.1110 C   0  0  0  0  0  0  0  0  0  0  0  0
  -22.0850  -13.0310   21.9980 N   0  0  0  0  0  0  0  0  0  0  0  0
  -22.3500  -14.7400   20.5910 O   0  0  0  0  0  0  0  0  0  0  0  0
  -22.4620  -12.2080   22.4430 H   0  0  0  0  0  0  0  0  0  0  0  0
  -21.1530  -13.3370   22.2370 H   0  0  0  0  0  0  0  0  0  0  0  0
  -25.3910  -15.3880   20.2500 N   0  0  0  0  0  0  0  0  0  0  0  0
  -24.6260  -16.0420   20.3740 H   0  0  0  0  0  0  0  0  0  0  0  0
  -26.2260  -15.8190   19.8760 H   0  0  0  0  0  0  0  0  0  0  0  0
  -28.2260  -25.2270   20.3080 O   0  0  0  0  0  1  0  0  0  0  0  0
  -24.7120  -31.8280   23.1410 C   0  0  0  0  0  0  0  0  0  0  0  0
  -27.2760  -26.5470   20.1900 C   0  0  0  0  0  0  0  0  0  0  0  0
  -23.5420  -30.4050   21.5170 C   0  0  0  0  0  3  0  0  0  0  0  0
  -25.0060  -28.7140   20.1230 C   0  0  0  0  0  0  0  0  0  0  0  0
  -26.1300  -30.4980   21.4210 C   0  0  0  0  0  2  0  0  0  0  0  0
  -26.2030  -29.0370   20.7690 C   0  0  0  0  0  0  0  0  0  0  0  0
  -27.3030  -27.9880   20.7700 C   0  0  0  0  0  3  0  0  0  0  0  0
  -26.0430  -26.5040   19.4680 C   0  0  0  0  0  3  0  0  0  0  0  0
  -24.9800  -27.4770   19.4470 C   0  0  0  0  0  3  0  0  0  0  0  0
  -23.7980  -29.6820   20.1590 C   0  0  0  0  0  2  0  0  0  0  0  0
  -24.8210  -30.9510   22.0760 N   0  0  0  0  0  0  0  0  0  0  0  0
  -23.6130  -32.1310   23.6400 O   0  0  0  0  0  0  0  0  0  0  0  0
  -22.8120  -29.4500   22.5020 C   0  0  0  0  0  0  0  0  0  0  0  0
  -21.4760  -29.3040   22.3900 N   0  0  0  0  0  0  0  0  0  0  0  0
  -23.4660  -28.8330   23.3460 O   0  0  0  0  0  0  0  0  0  0  0  0
  -20.9930  -29.8530   21.6920 H   0  0  0  0  0  0  0  0  0  0  0  0
  -18.0920  -28.0800   22.9390 C   0  0  0  0  0  0  0  0  0  0  0  0
  -20.6540  -28.3700   23.1740 C   0  0  0  0  0  3  0  0  0  0  0  0
  -20.7580  -26.9340   22.6090 C   0  0  0  0  0  2  0  0  0  0  0  0
  -19.6510  -26.6010   21.6030 C   0  0  0  0  0  2  0  0  0  0  0  0
  -18.2740  -26.7340   22.2580 C   0  0  0  0  0  2  0  0  0  0  0  0
  -19.2090  -28.8560   23.3540 C   0  0  0  0  0  0  0  0  0  0  0  0
  -18.9800  -30.1110   23.9600 C   0  0  0  0  0  3  0  0  0  0  0  0
  -17.6700  -30.5930   24.1470 C   0  0  0  0  0  3  0  0  0  0  0  0
  -16.5700  -29.8170   23.7420 C   0  0  0  0  0  3  0  0  0  0  0  0
  -16.7820  -28.5600   23.1460 C   0  0  0  0  0  3  0  0  0  0  0  0
  -25.9590  -32.5060   23.7860 C   0  0  0  0  0  3  0  0  0  0  0  0
  -25.6110  -33.9030   24.1290 N   0  0  0  0  0  0  0  0  0  0  0  0
  -25.9300  -34.9840   23.4050 C   0  0  0  0  0  0  0  0  0  0  0  0
  -26.5950  -34.9120   22.3700 O   0  0  0  0  0  0  0  0  0  0  0  0
  -25.0140  -34.0310   24.9330 H   0  0  0  0  0  0  0  0  0  0  0  0
  -24.1730  -36.7730   23.1230 C   0  0  0  0  0  1  0  0  0  0  0  0
  -25.4350  -36.3620   23.8990 C   0  0  0  0  0  3  0  0  0  0  0  0
  -27.5710  -37.2690   24.7100 C   0  0  0  0  0  1  0  0  0  0  0  0
  -26.4520  -37.4330   23.7870 N   0  0  0  0  0  0  0  0  0  0  0  0
  -26.0360  -38.3460   23.9520 H   0  0  0  0  0  0  0  0  0  0  0  0
  -26.4680  -31.7590   25.0820 C   0  0  1  0  0  0  0  0  0  0  0  0
  -25.3620  -31.5250   26.1400 C   0  0  0  0  0  1  0  0  0  0  0  0
  -27.0660  -30.3780   24.7330 C   0  0  0  0  0  1  0  0  0  0  0  0
  -27.6060  -32.5710   25.7450 C   0  0  0  0  0  1  0  0  0  0  0  0
  4  3  1  0
  4  2  1  0
  5 14  1  0
  6 14  1  0
  7 12  1  0
  8  9  1  0
  8  7  1  0
 10  9  1  0
 10 19  1  0
 10 11  1  0
 12  6  1  0
 12 11  1  0
 13  6  2  0
 14 15  1  0
 16 17  2  0
 17 36  1  0
 18 17  1  0
 18 21  1  0
 19 20  1  0
 19 16  1  0
 20 18  2  0
 21 22  1  0
 22 23  2  0
 24 27  1  0
 24 23  1  0
 25 24  2  0
 26 25  1  0
 26 21  2  0
 27 28  1  0
 28 29  1  0
 29 30  2  0
 31 30  1  0
 31 35  1  0
 32 31  2  0
 33 28  2  0
 33 32  1  0
 34 33  1  0
 36 37  1  0
 37 40  1  0
 37 39  1  0
 38 36  2  0
 41 42  1  0
 41 16  1  0
 43 41  1  0
 45 56  2  0
 46 44  1  0
 46 51  1  0
 47 55  1  0
 47 57  1  0
 48 54  1  0
 48 50  1  0
 49 55  1  0
 50 51  2  0
 50 49  1  0
 52 46  2  0
 53 52  1  0
 53 48  2  0
 54 47  1  0
 55 45  1  0
 57 59  2  0
 58 57  1  0
 60 58  1  0
 61 70  2  0
 61 66  1  0
 62 58  1  0
 62 66  1  0
 63 62  1  0
 64 65  1  0
 64 63  1  0
 65 61  1  0
 66 67  2  0
 67 68  1  0
 69 68  2  0
 70 69  1  0
 71 45  1  0
 71 72  1  0
 71 81  1  0
 72 75  1  0
 73 77  1  0
 73 72  1  0
 74 73  2  0
 77 76  1  0
 79 77  1  0
 79 80  1  0
 79 78  1  0
 81 84  1  1
 81 82  1  0
 83 81  1  0
M  ISO  4   1 101   6 100  14 100  44 101
M  END
>  <TORSDO>  (44) 
F 18

>  <SCORE>  (44) 
-15.543

>  <name>  (44) 
43

>  <ligand_id>  (44) 
43

>  <original_smiles>  (44) 
[H]c1c([H])c([H])c2c(c1[H])C([H])([H])C([H])([H])C([H])([H])C2([H])N([H])C(=O)C1([H])N(C(=O)C([H])(N([H])C(=O)C([H])(N([H])C([H])([H])[H])C([H])([H])[H])C(C([H])([H])[H])(C([H])([H])[H])C([H])([H])[H])C([H])([H])c2c([H])c(OC([H])([H])C(C([H])([H])[H])(C([H])([H])[H])C([H])([H])N([H])C(=O)N3C([H])([H])C([H])([H])C([H])([H])C([H])(n4nc(-c5c([H])c([H])c(Oc6c([H])c([H])c(F)c([H])c6F)c([H])c5[H])c(C(=O)N([H])[H])c4N([H])[H])C3([H])[H])c([H])c([H])c2C1([H])[H]

>  <smiles>  (44) 
[H]c1c([H])c([H])c2c(c1[H])C([H])([H])C([H])([H])C([H])([H])C2([H])N([H])C(=O)C1([H])N(C(=O)C([H])(N([H])C(=O)C([H])(N([H])C([H])([H])[H])C([H])([H])[H])C(C([H])([H])[H])(C([H])([H])[H])C([H])([H])[H])C([H])([H])c2c([H])c(OC([H])([H])C(C([H])([H])[H])(C([H])([H])[H])C([H])([H])N([H])C(=O)N3C([H])([H])C([H])([H])C([H])([H])C([H])(n4nc(-c5c([H])c([H])c(Oc6c([H])c([H])c(F)c([H])c6F)c([H])c5[H])c(C(=O)N([H])[H])c4N([H])[H])C3([H])[H])c([H])c([H])c2C1([H])[H]

$$$$
44:0:0
     RDKit          3D

 83 87  0  0  1  0  0  0  0  0999 V2000
  -28.4490  -23.3580   21.9660 C   0  0  0  0  0  1  0  0  0  0  0  0
  -28.2200  -23.3530   20.4530 C   0  0  0  0  0  1  0  0  0  0  0  0
  -28.2180  -25.2350   20.2090 O   0  0  0  0  0  1  0  0  0  0  0  0
  -24.6900  -31.8550   23.1320 C   0  0  0  0  0  0  0  0  0  0  0  0
  -27.2430  -26.5410   20.2450 C   0  0  0  0  0  0  0  0  0  0  0  0
  -23.5190  -30.4160   21.5240 C   0  0  0  0  0  3  0  0  0  0  0  0
  -24.9780  -28.7100   20.1550 C   0  0  0  0  0  0  0  0  0  0  0  0
  -26.1080  -30.5110   21.4200 C   0  0  0  0  0  2  0  0  0  0  0  0
  -26.1810  -29.0400   20.7890 C   0  0  0  0  0  0  0  0  0  0  0  0
  -27.2870  -27.9940   20.7870 C   0  0  0  0  0  3  0  0  0  0  0  0
  -25.9950  -26.4830   19.5530 C   0  0  0  0  0  3  0  0  0  0  0  0
  -24.9390  -27.4600   19.5100 C   0  0  0  0  0  3  0  0  0  0  0  0
  -23.7750  -29.6810   20.1740 C   0  0  0  0  0  2  0  0  0  0  0  0
  -24.8000  -30.9680   22.0770 N   0  0  0  0  0  0  0  0  0  0  0  0
  -23.5900  -32.1610   23.6290 O   0  0  0  0  0  0  0  0  0  0  0  0
  -22.7920  -29.4670   22.5180 C   0  0  0  0  0  0  0  0  0  0  0  0
  -21.4570  -29.3140   22.4020 N   0  0  0  0  0  0  0  0  0  0  0  0
  -23.4460  -28.8640   23.3710 O   0  0  0  0  0  0  0  0  0  0  0  0
  -20.9750  -29.8500   21.6950 H   0  0  0  0  0  0  0  0  0  0  0  0
  -18.0760  -28.0860   22.9590 C   0  0  0  0  0  0  0  0  0  0  0  0
  -20.6370  -28.3840   23.1930 C   0  0  0  0  0  3  0  0  0  0  0  0
  -20.7440  -26.9440   22.6390 C   0  0  0  0  0  2  0  0  0  0  0  0
  -19.6380  -26.5990   21.6370 C   0  0  0  0  0  2  0  0  0  0  0  0
  -18.2600  -26.7340   22.2900 C   0  0  0  0  0  2  0  0  0  0  0  0
  -19.1910  -28.8670   23.3670 C   0  0  0  0  0  0  0  0  0  0  0  0
  -18.9590  -30.1270   23.9610 C   0  0  0  0  0  3  0  0  0  0  0  0
  -17.6490  -30.6080   24.1450 C   0  0  0  0  0  3  0  0  0  0  0  0
  -16.5490  -29.8260   23.7470 C   0  0  0  0  0  3  0  0  0  0  0  0
  -16.7640  -28.5660   23.1610 C   0  0  0  0  0  3  0  0  0  0  0  0
  -25.9370  -32.5390   23.7690 C   0  0  0  0  0  3  0  0  0  0  0  0
  -25.5870  -33.9370   24.1030 N   0  0  0  0  0  0  0  0  0  0  0  0
  -25.9110  -35.0160   23.3780 C   0  0  0  0  0  0  0  0  0  0  0  0
  -26.5880  -34.9400   22.3500 O   0  0  0  0  0  0  0  0  0  0  0  0
  -24.9810  -34.0660   24.9010 H   0  0  0  0  0  0  0  0  0  0  0  0
  -24.1750  -36.8170   23.0520 C   0  0  0  0  0  1  0  0  0  0  0  0
  -25.4130  -36.3960   23.8620 C   0  0  0  0  0  3  0  0  0  0  0  0
  -27.5290  -37.2900   24.7350 C   0  0  0  0  0  1  0  0  0  0  0  0
  -26.4380  -37.4600   23.7790 N   0  0  0  0  0  0  0  0  0  0  0  0
  -26.0210  -38.3750   23.9320 H   0  0  0  0  0  0  0  0  0  0  0  0
  -26.4470  -31.8010   25.0700 C   0  0  1  0  0  0  0  0  0  0  0  0
  -25.3440  -31.5700   26.1320 C   0  0  0  0  0  1  0  0  0  0  0  0
  -27.0550  -30.4240   24.7280 C   0  0  0  0  0  1  0  0  0  0  0  0
  -27.5790  -32.6240   25.7300 C   0  0  0  0  0  1  0  0  0  0  0  0
  -28.8670  -21.4210   19.9000 C   0  0  0  0  0 15  0  0  0  0  0  0
  -29.4460  -19.4780   20.4720 C   0  0  0  0  0  1  0  0  0  0  0  0
  -30.2560  -16.1340   20.1100 C   0  0  0  0  0  0  0  0  0  0  0  0
  -30.4650  -13.5090   19.2880 C   0  0  0  0  0  2  0  0  0  0  0  0
  -29.5950  -12.8960   18.1420 C   0  0  0  0  0  2  0  0  0  0  0  0
  -28.2190  -12.4500   18.6530 C   0  0  0  0  0  2  0  0  0  0  0  0
  -27.6670  -13.4730   19.6630 C   0  0  0  0  0  3  0  0  0  0  0  0
  -28.6960  -13.9590   20.7200 C   0  0  0  0  0  2  0  0  0  0  0  0
  -29.7700  -14.7110   19.9940 N   0  0  0  0  0  0  0  0  0  0  0  0
  -31.5020  -16.0040   20.0460 O   0  0  0  0  0  0  0  0  0  0  0  0
  -29.5000  -17.5990   20.1120 N   0  0  0  0  0  0  0  0  0  0  0  0
  -28.5360  -17.3440   19.9440 H   0  0  0  0  0  0  0  0  0  0  0  0
  -25.3350  -13.9530   20.5210 C   0  0  0  0  0  0  0  0  0  0  0  0
  -24.2910  -13.1580   20.8960 C   0  0  0  0  0  0  0  0  0  0  0  0
  -24.7670  -11.8130   20.8190 C   0  0  0  0  0  0  0  0  0  0  0  0
  -26.3780  -13.0970   20.2280 N   0  0  0  0  0  0  0  0  0  0  0  0
  -26.0530  -11.7980   20.4700 N   0  0  0  0  0  0  0  0  0  0  0  0
  -24.0470  -10.5430   20.9970 C   0  0  0  0  0  0  0  0  0  0  0  0
  -24.4740   -9.5730   21.9290 C   0  0  0  0  0  3  0  0  0  0  0  0
  -23.7470   -8.3740   22.1000 C   0  0  0  0  0  3  0  0  0  0  0  0
  -22.5770   -8.1370   21.3390 C   0  0  0  0  0  0  0  0  0  0  0  0
  -22.1680   -9.0970   20.3970 C   0  0  0  0  0  3  0  0  0  0  0  0
  -22.8960  -10.2870   20.2240 C   0  0  0  0  0  3  0  0  0  0  0  0
  -21.8240   -6.9910   21.4190 O   0  0  0  0  0  0  0  0  0  0  0  0
  -21.7350   -6.2660   22.5810 C   0  0  0  0  0  0  0  0  0  0  0  0
  -21.2390   -6.8310   23.7750 C   0  0  0  0  0  3  0  0  0  0  0  0
  -21.1010   -6.0320   24.9280 C   0  0  0  0  0  3  0  0  0  0  0  0
  -21.4480   -4.6680   24.8860 C   0  0  0  0  0  0  0  0  0  0  0  0
  -21.9370   -4.1020   23.6950 C   0  0  0  0  0  3  0  0  0  0  0  0
  -22.0770   -4.8980   22.5460 C   0  0  0  0  0  0  0  0  0  0  0  0
  -22.5280   -4.3420   21.3950 F   0  0  0  0  0  0  0  0  0  0  0  0
  -21.3090   -3.8980   25.9900 F   0  0  0  0  0  0  0  0  0  0  0  0
  -22.8980  -13.6240   21.2050 C   0  0  0  0  0  0  0  0  0  0  0  0
  -22.1880  -12.9020   22.0630 N   0  0  0  0  0  0  0  0  0  0  0  0
  -22.4520  -14.6640   20.7220 O   0  0  0  0  0  0  0  0  0  0  0  0
  -22.5640  -12.0610   22.4750 H   0  0  0  0  0  0  0  0  0  0  0  0
  -21.2540  -13.1960   22.3130 H   0  0  0  0  0  0  0  0  0  0  0  0
  -25.4800  -15.3290   20.3690 N   0  0  0  0  0  0  0  0  0  0  0  0
  -24.7100  -15.9730   20.5130 H   0  0  0  0  0  0  0  0  0  0  0  0
  -26.3140  -15.7800   20.0180 H   0  0  0  0  0  0  0  0  0  0  0  0
  2  1  1  0
  3  5  1  0
  4 15  2  0
  5 10  1  0
  6 14  1  0
  6 16  1  0
  7 13  1  0
  7  9  1  0
  8 14  1  0
  9  8  1  0
 10  9  2  0
 11  5  2  0
 12 11  1  0
 12  7  2  0
 13  6  1  0
 14  4  1  0
 16 18  2  0
 17 16  1  0
 19 17  1  0
 20 29  2  0
 20 25  1  0
 21 17  1  0
 21 25  1  0
 22 21  1  0
 23 24  1  0
 23 22  1  0
 24 20  1  0
 25 26  2  0
 26 27  1  0
 28 27  2  0
 29 28  1  0
 30  4  1  0
 30 31  1  0
 30 40  1  0
 31 34  1  0
 32 36  1  0
 32 31  1  0
 33 32  2  0
 36 35  1  0
 38 36  1  0
 38 39  1  0
 38 37  1  0
 40 43  1  1
 40 41  1  0
 42 40  1  0
 46 54  1  0
 47 52  1  0
 48 49  1  0
 48 47  1  0
 50 49  1  0
 50 59  1  0
 50 51  1  0
 52 46  1  0
 52 51  1  0
 53 46  2  0
 54 45  1  0
 55 54  1  0
 56 57  2  0
 57 76  1  0
 58 57  1  0
 58 61  1  0
 59 60  1  0
 59 56  1  0
 60 58  2  0
 61 62  1  0
 62 63  2  0
 64 67  1  0
 64 63  1  0
 65 64  2  0
 66 65  1  0
 66 61  2  0
 67 68  1  0
 68 69  1  0
 69 70  2  0
 71 70  1  0
 71 75  1  0
 72 71  2  0
 73 68  2  0
 73 72  1  0
 74 73  1  0
 76 77  1  0
 77 80  1  0
 77 79  1  0
 78 76  2  0
 81 82  1  0
 81 56  1  0
 83 81  1  0
M  ISO  4   2 101   3 101  46 100  54 100
M  END
>  <TORSDO>  (45) 
F 18

>  <SCORE>  (45) 
-16.120

>  <name>  (45) 
44

>  <ligand_id>  (45) 
44

>  <original_smiles>  (45) 
[H]c1c([H])c([H])c2c(c1[H])C([H])([H])C([H])([H])C([H])([H])C2([H])N([H])C(=O)C1([H])N(C(=O)C([H])(N([H])C(=O)C([H])(N([H])C([H])([H])[H])C([H])([H])[H])C(C([H])([H])[H])(C([H])([H])[H])C([H])([H])[H])C([H])([H])c2c([H])c(OC([H])(C([H])([H])[H])C([H])([H])C([H])([H])N([H])C(=O)N3C([H])([H])C([H])([H])C([H])([H])C([H])(n4nc(-c5c([H])c([H])c(Oc6c([H])c([H])c(F)c([H])c6F)c([H])c5[H])c(C(=O)N([H])[H])c4N([H])[H])C3([H])[H])c([H])c([H])c2C1([H])[H]

>  <smiles>  (45) 
[H]c1c([H])c([H])c2c(c1[H])C([H])([H])C([H])([H])C([H])([H])C2([H])N([H])C(=O)C1([H])N(C(=O)C([H])(N([H])C(=O)C([H])(N([H])C([H])([H])[H])C([H])([H])[H])C(C([H])([H])[H])(C([H])([H])[H])C([H])([H])[H])C([H])([H])c2c([H])c(OC([H])(C([H])([H])[H])C([H])([H])C([H])([H])N([H])C(=O)N3C([H])([H])C([H])([H])C([H])([H])C([H])(n4nc(-c5c([H])c([H])c(Oc6c([H])c([H])c(F)c([H])c6F)c([H])c5[H])c(C(=O)N([H])[H])c4N([H])[H])C3([H])[H])c([H])c([H])c2C1([H])[H]

$$$$
45:0:0
     RDKit          3D

 98106  0  0  1  0  0  0  0  0999 V2000
  -30.5310  -21.5160   20.1360 C   0  0  0  0  0  3  0  0  0  0  0  0
  -30.6020  -20.1070   20.1250 C   0  0  0  0  0  3  0  0  0  0  0  0
  -32.8470  -21.6010   20.8210 C   0  0  0  0  0  3  0  0  0  0  0  0
  -31.6660  -22.2820   20.4540 C   0  0  0  0  0  0  0  0  0  0  0  0
  -31.7970  -19.4080   20.4400 C   0  0  0  0  0  0  0  0  0  0  0  0
  -32.9390  -20.1850   20.8190 C   0  0  0  0  0  0  0  0  0  0  0  0
  -34.7540  -20.0030   22.5780 C   0  0  0  0  0  1  0  0  0  0  0  0
  -35.3740  -19.9320   20.1180 C   0  0  0  0  0  1  0  0  0  0  0  0
  -34.3080  -19.5820   21.1690 C   0  0  0  0  0  3  0  0  0  0  0  0
  -31.6930  -23.8030   20.2700 C   0  0  0  0  0  2  0  0  0  0  0  0
  -30.4260  -24.5980   20.6780 C   0  0  0  0  0  2  0  0  0  0  0  0
  -30.5540  -26.0990   20.3110 C   0  0  0  0  0  2  0  0  0  0  0  0
  -29.3710  -27.0050   20.7220 C   0  0  0  0  0  2  0  0  0  0  0  0
  -28.1920  -26.6570   20.0040 O   0  0  0  0  0  0  0  0  0  0  0  0
  -24.5040  -31.9080   23.2370 C   0  0  0  0  0  0  0  0  0  0  0  0
  -27.0710  -27.4600   20.1070 C   0  0  0  0  0  0  0  0  0  0  0  0
  -23.2530  -30.5130   21.6180 C   0  0  0  0  0  3  0  0  0  0  0  0
  -24.6720  -28.9660   20.1680 C   0  0  0  0  0  0  0  0  0  0  0  0
  -25.7740  -30.8590   21.3710 C   0  0  0  0  0  2  0  0  0  0  0  0
  -25.8400  -29.4860   20.7360 C   0  0  0  0  0  0  0  0  0  0  0  0
  -27.0410  -28.7410   20.7140 C   0  0  0  0  0  3  0  0  0  0  0  0
  -25.8840  -26.9540   19.5400 C   0  0  0  0  0  3  0  0  0  0  0  0
  -24.6860  -27.6950   19.5690 C   0  0  0  0  0  3  0  0  0  0  0  0
  -23.4300  -29.8280   20.2370 C   0  0  0  0  0  2  0  0  0  0  0  0
  -24.5290  -31.1100   22.1330 N   0  0  0  0  0  0  0  0  0  0  0  0
  -23.4370  -32.1870   23.7990 O   0  0  0  0  0  0  0  0  0  0  0  0
  -22.6130  -29.5010   22.5920 C   0  0  0  0  0  0  0  0  0  0  0  0
  -21.2880  -29.3170   22.4760 N   0  0  0  0  0  0  0  0  0  0  0  0
  -23.3030  -28.8830   23.4070 O   0  0  0  0  0  0  0  0  0  0  0  0
  -20.7920  -29.8660   21.7880 H   0  0  0  0  0  0  0  0  0  0  0  0
  -17.9250  -28.0980   22.9830 C   0  0  0  0  0  0  0  0  0  0  0  0
  -20.4790  -28.3850   23.2610 C   0  0  0  0  0  3  0  0  0  0  0  0
  -20.5970  -26.9450   22.7100 C   0  0  0  0  0  2  0  0  0  0  0  0
  -19.5050  -26.5940   21.6960 C   0  0  0  0  0  2  0  0  0  0  0  0
  -18.1180  -26.7390   22.3300 C   0  0  0  0  0  2  0  0  0  0  0  0
  -19.0340  -28.8790   23.4050 C   0  0  0  0  0  0  0  0  0  0  0  0
  -18.8000  -30.1510   23.9710 C   0  0  0  0  0  3  0  0  0  0  0  0
  -17.4890  -30.6420   24.1190 C   0  0  0  0  0  3  0  0  0  0  0  0
  -16.3950  -29.8600   23.7130 C   0  0  0  0  0  3  0  0  0  0  0  0
  -16.6140  -28.5880   23.1540 C   0  0  0  0  0  3  0  0  0  0  0  0
  -25.8080  -32.5280   23.8290 C   0  0  0  0  0  3  0  0  0  0  0  0
  -26.3490  -31.7460   25.0880 C   0  0  1  0  0  0  0  0  0  0  0  0
  -25.2780  -31.5140   26.1790 C   0  0  0  0  0  1  0  0  0  0  0  0
  -26.9130  -30.3670   24.6740 C   0  0  0  0  0  1  0  0  0  0  0  0
  -27.5190  -32.5280   25.7280 C   0  0  0  0  0  1  0  0  0  0  0  0
  -25.5180  -33.9260   24.1700 N   0  0  0  0  0  0  0  0  0  0  0  0
  -25.8580  -34.9770   23.4130 C   0  0  0  0  0  0  0  0  0  0  0  0
  -26.5180  -34.8710   22.3740 O   0  0  0  0  0  0  0  0  0  0  0  0
  -24.9360  -34.0840   24.9800 H   0  0  0  0  0  0  0  0  0  0  0  0
  -24.1440  -36.7860   23.0820 C   0  0  0  0  0  1  0  0  0  0  0  0
  -25.3890  -36.3690   23.8790 C   0  0  0  0  0  3  0  0  0  0  0  0
  -27.5440  -37.2250   24.6880 C   0  0  0  0  0  1  0  0  0  0  0  0
  -26.4320  -37.4110   23.7580 N   0  0  0  0  0  0  0  0  0  0  0  0
  -26.0370  -38.3340   23.9190 H   0  0  0  0  0  0  0  0  0  0  0  0
  -31.8480  -17.8760   20.1800 C   0  0  0  0  0  3  0  0  0  0  0  0
  -30.4970  -16.8960   22.1400 C   0  0  0  0  0  1  0  0  0  0  0  0
  -30.5460  -17.0660   20.6050 C   0  0  0  0  0  3  0  0  0  0  0  0
  -30.9820  -14.6030   20.2310 C   0  0  0  0  0  0  0  0  0  0  0  0
  -30.6160  -12.3640   19.3090 C   0  0  0  0  0  2  0  0  0  0  0  0
  -29.7030  -12.4800   18.0730 C   0  0  0  0  0  2  0  0  0  0  0  0
  -28.2140  -12.4490   18.4860 C   0  0  0  0  0  2  0  0  0  0  0  0
  -27.8660  -13.3500   19.7080 C   0  0  0  0  0  3  0  0  0  0  0  0
  -28.9270  -13.2440   20.8250 C   0  0  0  0  0  2  0  0  0  0  0  0
  -30.2490  -13.4560   20.2160 N   0  0  0  0  0  0  0  0  0  0  0  0
  -32.2080  -14.6010   20.1400 O   0  0  0  0  0  0  0  0  0  0  0  0
  -29.9710  -15.9580   18.5090 C   0  0  0  0  0  1  0  0  0  0  0  0
  -30.3100  -15.7510   19.9340 N   0  0  0  0  0  0  0  0  0  0  0  0
  -25.4880  -14.0220   20.3980 C   0  0  0  0  0  0  0  0  0  0  0  0
  -24.3990  -13.2810   20.7670 C   0  0  0  0  0  0  0  0  0  0  0  0
  -24.8310  -11.9200   20.7660 C   0  0  0  0  0  0  0  0  0  0  0  0
  -26.5140  -13.1130   20.1940 N   0  0  0  0  0  0  0  0  0  0  0  0
  -26.1220  -11.8450   20.4760 N   0  0  0  0  0  0  0  0  0  0  0  0
  -24.0760  -10.6760   20.9660 C   0  0  0  0  0  0  0  0  0  0  0  0
  -24.4860   -9.7060   21.9080 C   0  0  0  0  0  3  0  0  0  0  0  0
  -23.7310   -8.5280   22.0930 C   0  0  0  0  0  3  0  0  0  0  0  0
  -22.5550   -8.3110   21.3370 C   0  0  0  0  0  0  0  0  0  0  0  0
  -22.1660   -9.2680   20.3840 C   0  0  0  0  0  3  0  0  0  0  0  0
  -22.9210  -10.4380   20.1960 C   0  0  0  0  0  3  0  0  0  0  0  0
  -21.7760   -7.1840   21.4340 O   0  0  0  0  0  0  0  0  0  0  0  0
  -21.7100   -6.4510   22.5910 C   0  0  0  0  0  0  0  0  0  0  0  0
  -21.3170   -7.0290   23.8180 C   0  0  0  0  0  3  0  0  0  0  0  0
  -21.1950   -6.2260   24.9690 C   0  0  0  0  0  3  0  0  0  0  0  0
  -21.4580   -4.8450   24.8960 C   0  0  0  0  0  0  0  0  0  0  0  0
  -21.8450   -4.2670   23.6740 C   0  0  0  0  0  3  0  0  0  0  0  0
  -21.9680   -5.0670   22.5250 C   0  0  0  0  0  0  0  0  0  0  0  0
  -22.3200   -4.5020   21.3450 F   0  0  0  0  0  0  0  0  0  0  0  0
  -21.3350   -4.0700   25.9980 F   0  0  0  0  0  0  0  0  0  0  0  0
  -23.0090  -13.7940   21.0120 C   0  0  0  0  0  0  0  0  0  0  0  0
  -22.2580  -13.1340   21.8860 N   0  0  0  0  0  0  0  0  0  0  0  0
  -22.5980  -14.8150   20.4620 O   0  0  0  0  0  0  0  0  0  0  0  0
  -22.6040  -12.3120   22.3580 H   0  0  0  0  0  0  0  0  0  0  0  0
  -21.3210  -13.4550   22.0890 H   0  0  0  0  0  0  0  0  0  0  0  0
  -25.6830  -15.3880   20.2010 N   0  0  0  0  0  0  0  0  0  0  0  0
  -24.9290  -16.0600   20.2950 H   0  0  0  0  0  0  0  0  0  0  0  0
  -26.5560  -15.8080   19.9090 H   0  0  0  0  0  0  0  0  0  0  0  0
  -32.4780  -17.6670   18.7680 C   0  0  0  0  0  2  0  0  0  0  0  0
  -31.7500  -18.2600   17.7020 O   0  0  0  0  0  0  0  0  0  0  0  0
  -30.8820  -17.8720   17.6870 H   0  0  0  0  0  0  0  0  0  0  0  0
  1  4  1  0
  2  1  2  0
  2  5  1  0
  4  3  2  0
  5  6  2  0
  6  3  1  0
  6  9  1  0
  8  9  1  0
  9  7  1  0
 10  4  1  0
 10 11  1  0
 12 11  1  0
 12 13  1  0
 14 16  1  0
 14 13  1  0
 15 26  2  0
 16 21  1  0
 17 25  1  0
 17 27  1  0
 18 24  1  0
 18 20  1  0
 19 25  1  0
 20 19  1  0
 21 20  2  0
 22 23  1  0
 22 16  2  0
 23 18  2  0
 24 17  1  0
 25 15  1  0
 27 29  2  0
 28 27  1  0
 30 28  1  0
 31 40  2  0
 31 36  1  0
 32 28  1  0
 32 36  1  0
 33 32  1  0
 34 35  1  0
 34 33  1  0
 35 31  1  0
 36 37  2  0
 37 38  1  0
 39 38  2  0
 40 39  1  0
 41 15  1  0
 41 46  1  0
 41 42  1  0
 42 45  1  1
 42 43  1  0
 44 42  1  0
 46 49  1  0
 47 51  1  0
 47 46  1  0
 48 47  2  0
 51 50  1  0
 53 51  1  0
 53 54  1  0
 53 52  1  0
 55 96  1  0
 55  5  1  0
 55 57  1  0
 57 56  1  0
 59 64  1  0
 60 61  1  0
 60 59  1  0
 62 61  1  0
 62 71  1  0
 62 63  1  0
 64 58  1  0
 64 63  1  0
 65 58  2  0
 66 67  1  0
 67 58  1  0
 67 57  1  0
 68 69  2  0
 69 88  1  0
 70 69  1  0
 70 73  1  0
 71 68  1  0
 71 72  1  0
 72 70  2  0
 73 74  1  0
 74 75  2  0
 76 79  1  0
 76 75  1  0
 77 76  2  0
 78 77  1  0
 78 73  2  0
 79 80  1  0
 80 81  1  0
 81 82  2  0
 83 82  1  0
 83 87  1  0
 84 83  2  0
 85 80  2  0
 85 84  1  0
 86 85  1  0
 88 89  1  0
 89 92  1  0
 89 91  1  0
 90 88  2  0
 93 94  1  0
 93 68  1  0
 95 93  1  0
 97 96  1  0
 98 97  1  0
M  ISO  4  13 101  14 101  58 100  67 100
M  END
>  <TORSDO>  (46) 
F 25

>  <SCORE>  (46) 
-12.357

>  <name>  (46) 
45

>  <ligand_id>  (46) 
45

>  <original_smiles>  (46) 
[H]OC([H])([H])C([H])(c1c([H])c([H])c(C([H])([H])C([H])([H])C([H])([H])C([H])([H])Oc2c([H])c([H])c3c(c2[H])C([H])([H])N(C(=O)C([H])(N([H])C(=O)C([H])(N([H])C([H])([H])[H])C([H])([H])[H])C(C([H])([H])[H])(C([H])([H])[H])C([H])([H])[H])C([H])(C(=O)N([H])C2([H])c4c([H])c([H])c([H])c([H])c4C([H])([H])C([H])([H])C2([H])[H])C3([H])[H])c([H])c1C([H])(C([H])([H])[H])C([H])([H])[H])C([H])(N(C(=O)N1C([H])([H])C([H])([H])C([H])([H])C([H])(n2nc(-c3c([H])c([H])c(Oc4c([H])c([H])c(F)c([H])c4F)c([H])c3[H])c(C(=O)N([H])[H])c2N([H])[H])C1([H])[H])C([H])([H])[H])C([H])([H])[H]

>  <smiles>  (46) 
[H]OC([H])([H])C([H])(c1c([H])c([H])c(C([H])([H])C([H])([H])C([H])([H])C([H])([H])Oc2c([H])c([H])c3c(c2[H])C([H])([H])N(C(=O)C([H])(N([H])C(=O)C([H])(N([H])C([H])([H])[H])C([H])([H])[H])C(C([H])([H])[H])(C([H])([H])[H])C([H])([H])[H])C([H])(C(=O)N([H])C2([H])c4c([H])c([H])c([H])c([H])c4C([H])([H])C([H])([H])C2([H])[H])C3([H])[H])c([H])c1C([H])(C([H])([H])[H])C([H])([H])[H])C([H])(N(C(=O)N1C([H])([H])C([H])([H])C([H])([H])C([H])(n2nc(-c3c([H])c([H])c(Oc4c([H])c([H])c(F)c([H])c4F)c([H])c3[H])c(C(=O)N([H])[H])c2N([H])[H])C1([H])[H])C([H])([H])[H])C([H])([H])[H]

$$$$
46:0:0
     RDKit          3D

 91 99  0  0  1  0  0  0  0  0999 V2000
  -28.5510  -21.9840   20.5020 C   0  0  0  0  0  2  0  0  0  0  0  0
  -29.5610  -20.8320   20.2330 N   0  0  0  0  0  4  0  0  0  0  0  0
  -29.8030  -20.8590   19.2560 H   0  0  0  0  0  0  0  0  0  0  0  0
  -30.3880  -21.1410   20.7190 H   0  0  0  0  0  0  0  0  0  0  0  0
  -30.6220  -14.8650   20.3540 C   0  0  0  0  0  0  0  0  0  0  0  0
  -30.3920  -12.5700   19.3560 C   0  0  0  0  0  2  0  0  0  0  0  0
  -29.4540  -12.5770   18.1310 C   0  0  0  0  0  2  0  0  0  0  0  0
  -27.9940  -12.3750   18.5770 C   0  0  0  0  0  2  0  0  0  0  0  0
  -27.6040  -13.2900   19.7670 C   0  0  0  0  0  3  0  0  0  0  0  0
  -28.6690  -13.2920   20.8840 C   0  0  0  0  0  2  0  0  0  0  0  0
  -29.9470  -13.6600   20.2630 N   0  0  0  0  0  0  0  0  0  0  0  0
  -31.8300  -14.8680   20.0930 O   0  0  0  0  0  0  0  0  0  0  0  0
  -30.6500  -18.6300   21.1820 C   0  0  0  0  0  2  0  0  0  0  0  0
  -28.9410  -18.3040   19.5380 C   0  0  0  0  0  2  0  0  0  0  0  0
  -30.5620  -17.0960   21.6080 C   0  0  0  0  0  2  0  0  0  0  0  0
  -28.8540  -16.7410   19.9140 C   0  0  0  0  0  2  0  0  0  0  0  0
  -29.3510  -19.3380   20.6580 C   0  0  0  0  0  3  0  0  0  0  0  0
  -29.9820  -16.0900   20.6590 N   0  0  0  0  0  0  0  0  0  0  0  0
  -25.2270  -13.8680   20.5190 C   0  0  0  0  0  0  0  0  0  0  0  0
  -24.1650  -13.0900   20.8870 C   0  0  0  0  0  0  0  0  0  0  0  0
  -24.6330  -11.7410   20.8490 C   0  0  0  0  0  0  0  0  0  0  0  0
  -26.2700  -12.9930   20.2730 N   0  0  0  0  0  0  0  0  0  0  0  0
  -25.9230  -11.7070   20.5370 N   0  0  0  0  0  0  0  0  0  0  0  0
  -23.9090  -10.4760   21.0310 C   0  0  0  0  0  0  0  0  0  0  0  0
  -24.3290   -9.5150   21.9760 C   0  0  0  0  0  3  0  0  0  0  0  0
  -23.6040   -8.3150   22.1460 C   0  0  0  0  0  3  0  0  0  0  0  0
  -22.4460   -8.0700   21.3710 C   0  0  0  0  0  0  0  0  0  0  0  0
  -22.0470   -9.0200   20.4130 C   0  0  0  0  0  3  0  0  0  0  0  0
  -22.7720  -10.2110   20.2420 C   0  0  0  0  0  3  0  0  0  0  0  0
  -21.6940   -6.9220   21.4500 O   0  0  0  0  0  0  0  0  0  0  0  0
  -21.6070   -6.1980   22.6120 C   0  0  0  0  0  0  0  0  0  0  0  0
  -21.1210   -6.7670   23.8090 C   0  0  0  0  0  3  0  0  0  0  0  0
  -20.9830   -5.9680   24.9630 C   0  0  0  0  0  3  0  0  0  0  0  0
  -21.3210   -4.6030   24.9190 C   0  0  0  0  0  0  0  0  0  0  0  0
  -21.8000   -4.0340   23.7250 C   0  0  0  0  0  3  0  0  0  0  0  0
  -21.9400   -4.8290   22.5740 C   0  0  0  0  0  0  0  0  0  0  0  0
  -22.3820   -4.2720   21.4220 F   0  0  0  0  0  0  0  0  0  0  0  0
  -21.1810   -3.8330   26.0230 F   0  0  0  0  0  0  0  0  0  0  0  0
  -22.7680  -13.5640   21.1610 C   0  0  0  0  0  0  0  0  0  0  0  0
  -22.0400  -12.8590   22.0190 N   0  0  0  0  0  0  0  0  0  0  0  0
  -22.3310  -14.5940   20.6500 O   0  0  0  0  0  0  0  0  0  0  0  0
  -22.4060  -12.0250   22.4530 H   0  0  0  0  0  0  0  0  0  0  0  0
  -21.1010  -13.1590   22.2450 H   0  0  0  0  0  0  0  0  0  0  0  0
  -25.3870  -15.2400   20.3460 N   0  0  0  0  0  0  0  0  0  0  0  0
  -24.6160  -15.8900   20.4580 H   0  0  0  0  0  0  0  0  0  0  0  0
  -26.2290  -15.6790   20.0020 H   0  0  0  0  0  0  0  0  0  0  0  0
  -29.0130  -23.5560   20.2530 C   0  0  0  0  0  3  0  0  0  0  0  0
  -30.1480  -23.7360   21.0890 O   0  0  0  0  0  0  0  0  0  0  0  0
  -29.8370  -23.9170   21.9720 H   0  0  0  0  0  0  0  0  0  0  0  0
  -27.9970  -24.8260   20.5450 C   0  0  0  0  0  2  0  0  0  0  0  0
  -28.2770  -26.3020   20.2340 O   0  0  0  0  0  0  0  0  0  0  0  0
  -24.6170  -31.8890   23.2410 C   0  0  0  0  0  0  0  0  0  0  0  0
  -27.2000  -27.2380   20.2010 C   0  0  0  0  0  0  0  0  0  0  0  0
  -23.4140  -30.4940   21.6020 C   0  0  0  0  0  3  0  0  0  0  0  0
  -24.8610  -28.9320   20.1760 C   0  0  0  0  0  0  0  0  0  0  0  0
  -25.9620  -30.7810   21.4260 C   0  0  0  0  0  2  0  0  0  0  0  0
  -26.0380  -29.3950   20.7800 C   0  0  0  0  0  0  0  0  0  0  0  0
  -27.2120  -28.5630   20.7770 C   0  0  0  0  0  3  0  0  0  0  0  0
  -26.0020  -26.8670   19.5510 C   0  0  0  0  0  3  0  0  0  0  0  0
  -24.8510  -27.6790   19.5480 C   0  0  0  0  0  3  0  0  0  0  0  0
  -23.6290  -29.8190   20.2230 C   0  0  0  0  0  2  0  0  0  0  0  0
  -24.6840  -31.0740   22.1460 N   0  0  0  0  0  0  0  0  0  0  0  0
  -23.5330  -32.1700   23.7720 O   0  0  0  0  0  0  0  0  0  0  0  0
  -22.7430  -29.4810   22.5630 C   0  0  0  0  0  0  0  0  0  0  0  0
  -21.4160  -29.3050   22.4350 N   0  0  0  0  0  0  0  0  0  0  0  0
  -23.4180  -28.8560   23.3850 O   0  0  0  0  0  0  0  0  0  0  0  0
  -20.9300  -29.8610   21.7450 H   0  0  0  0  0  0  0  0  0  0  0  0
  -18.0370  -28.1060   22.9350 C   0  0  0  0  0  0  0  0  0  0  0  0
  -20.5950  -28.3680   23.2060 C   0  0  0  0  0  3  0  0  0  0  0  0
  -20.6980  -26.9360   22.6310 C   0  0  0  0  0  2  0  0  0  0  0  0
  -19.5960  -26.6130   21.6160 C   0  0  0  0  0  2  0  0  0  0  0  0
  -18.2150  -26.7570   22.2590 C   0  0  0  0  0  2  0  0  0  0  0  0
  -19.1550  -28.8690   23.3640 C   0  0  0  0  0  0  0  0  0  0  0  0
  -18.9340  -30.1320   23.9570 C   0  0  0  0  0  3  0  0  0  0  0  0
  -17.6290  -30.6320   24.1230 C   0  0  0  0  0  3  0  0  0  0  0  0
  -16.5260  -29.8650   23.7100 C   0  0  0  0  0  3  0  0  0  0  0  0
  -16.7300  -28.6050   23.1200 C   0  0  0  0  0  3  0  0  0  0  0  0
  -25.8970  -32.5240   23.8650 C   0  0  0  0  0  3  0  0  0  0  0  0
  -26.4060  -31.7580   25.1480 C   0  0  1  0  0  0  0  0  0  0  0  0
  -25.3070  -31.5280   26.2130 C   0  0  0  0  0  1  0  0  0  0  0  0
  -26.9870  -30.3760   24.7680 C   0  0  0  0  0  1  0  0  0  0  0  0
  -27.5560  -32.5520   25.8100 C   0  0  0  0  0  1  0  0  0  0  0  0
  -25.5880  -33.9240   24.1900 N   0  0  0  0  0  0  0  0  0  0  0  0
  -25.9180  -34.9750   23.4280 C   0  0  0  0  0  0  0  0  0  0  0  0
  -26.5830  -34.8680   22.3940 O   0  0  0  0  0  0  0  0  0  0  0  0
  -24.9960  -34.0810   24.9920 H   0  0  0  0  0  0  0  0  0  0  0  0
  -24.1930  -36.7730   23.0770 C   0  0  0  0  0  1  0  0  0  0  0  0
  -25.4360  -36.3660   23.8840 C   0  0  0  0  0  3  0  0  0  0  0  0
  -27.5740  -37.2510   24.7080 C   0  0  0  0  0  1  0  0  0  0  0  0
  -26.4710  -37.4170   23.7650 N   0  0  0  0  0  0  0  0  0  0  0  0
  -26.0660  -38.3380   23.9100 H   0  0  0  0  0  0  0  0  0  0  0  0
  2  1  1  0
  2  4  1  0
  3  2  1  0
  5 18  1  0
  6 11  1  0
  7  8  1  0
  7  6  1  0
  9  8  1  0
  9 22  1  0
  9 10  1  0
 11  5  1  0
 11 10  1  0
 12  5  2  0
 13 15  1  0
 14 16  1  0
 14 17  1  0
 16 18  1  0
 17  2  1  0
 17 13  1  0
 18 15  1  0
 19 20  2  0
 20 39  1  0
 21 20  1  0
 21 24  1  0
 22 19  1  0
 22 23  1  0
 23 21  2  0
 24 25  1  0
 25 26  2  0
 27 30  1  0
 27 26  1  0
 28 27  2  0
 29 28  1  0
 29 24  2  0
 30 31  1  0
 31 32  1  0
 32 33  2  0
 34 33  1  0
 34 38  1  0
 35 34  2  0
 36 31  2  0
 36 35  1  0
 37 36  1  0
 39 40  1  0
 40 43  1  0
 40 42  1  0
 41 39  2  0
 44 45  1  0
 44 19  1  0
 46 44  1  0
 47  1  1  0
 47 50  1  0
 47 48  1  0
 48 49  1  0
 51 50  1  0
 52 63  2  0
 53 51  1  0
 53 58  1  0
 54 62  1  0
 54 64  1  0
 55 61  1  0
 55 57  1  0
 56 62  1  0
 57 56  1  0
 58 57  2  0
 59 53  2  0
 60 59  1  0
 60 55  2  0
 61 54  1  0
 62 52  1  0
 64 66  2  0
 65 64  1  0
 67 65  1  0
 68 77  2  0
 68 73  1  0
 69 65  1  0
 69 73  1  0
 70 69  1  0
 71 72  1  0
 71 70  1  0
 72 68  1  0
 73 74  2  0
 74 75  1  0
 76 75  2  0
 77 76  1  0
 78 52  1  0
 78 83  1  0
 78 79  1  0
 79 82  1  1
 79 80  1  0
 81 79  1  0
 83 86  1  0
 84 88  1  0
 84 83  1  0
 85 84  2  0
 88 87  1  0
 90 88  1  0
 90 91  1  0
 90 89  1  0
M  ISO  4   5 100  18 100  50 101  51 101
M  END
>  <TORSDO>  (47) 
F 20

>  <SCORE>  (47) 
-14.114

>  <name>  (47) 
46

>  <ligand_id>  (47) 
46

>  <original_smiles>  (47) 
[H]OC([H])(C([H])([H])Oc1c([H])c([H])c2c(c1[H])C([H])([H])N(C(=O)C([H])(N([H])C(=O)C([H])(N([H])C([H])([H])[H])C([H])([H])[H])C(C([H])([H])[H])(C([H])([H])[H])C([H])([H])[H])C([H])(C(=O)N([H])C1([H])c3c([H])c([H])c([H])c([H])c3C([H])([H])C([H])([H])C1([H])[H])C2([H])[H])C([H])([H])[N+]([H])([H])C1([H])C([H])([H])C([H])([H])N(C(=O)N2C([H])([H])C([H])([H])C([H])([H])C([H])(n3nc(-c4c([H])c([H])c(Oc5c([H])c([H])c(F)c([H])c5F)c([H])c4[H])c(C(=O)N([H])[H])c3N([H])[H])C2([H])[H])C([H])([H])C1([H])[H]

>  <smiles>  (47) 
[H]OC([H])(C([H])([H])Oc1c([H])c([H])c2c(c1[H])C([H])([H])N(C(=O)C([H])(N([H])C(=O)C([H])(N([H])C([H])([H])[H])C([H])([H])[H])C(C([H])([H])[H])(C([H])([H])[H])C([H])([H])[H])C([H])(C(=O)N([H])C1([H])c3c([H])c([H])c([H])c([H])c3C([H])([H])C([H])([H])C1([H])[H])C2([H])[H])C([H])([H])[N+]([H])([H])C1([H])C([H])([H])C([H])([H])N(C(=O)N2C([H])([H])C([H])([H])C([H])([H])C([H])(n3nc(-c4c([H])c([H])c(Oc5c([H])c([H])c(F)c([H])c5F)c([H])c4[H])c(C(=O)N([H])[H])c3N([H])[H])C2([H])[H])C([H])([H])C1([H])[H]

$$$$
47:0:0
     RDKit          3D

 92100  0  0  1  0  0  0  0  0999 V2000
  -27.9270  -21.3910   18.3850 C   0  0  0  0  0  3  0  0  0  0  0  0
  -27.7490  -20.0440   18.0470 C   0  0  0  0  0  3  0  0  0  0  0  0
  -29.0340  -20.6670   20.3990 C   0  0  0  0  0  3  0  0  0  0  0  0
  -28.3800  -21.8070   19.6560 C   0  0  0  0  0  0  0  0  0  0  0  0
  -28.1120  -18.9970   18.9170 C   0  0  0  0  0  0  0  0  0  0  0  0
  -29.0090  -19.2060   19.9950 C   0  0  0  0  0  0  0  0  0  0  0  0
  -26.0250  -18.2000   19.8960 C   0  0  0  0  0  1  0  0  0  0  0  0
  -27.1490  -17.8340   18.9020 C   0  0  0  0  0  2  0  0  0  0  0  0
  -29.8660  -17.8910   20.6090 C   0  0  0  0  0  2  0  0  0  0  0  0
  -30.4660  -15.1340   20.3370 C   0  0  0  0  0  0  0  0  0  0  0  0
  -30.4460  -12.7720   19.3670 C   0  0  0  0  0  2  0  0  0  0  0  0
  -29.4860  -12.6640   18.1570 C   0  0  0  0  0  2  0  0  0  0  0  0
  -28.0380  -12.4190   18.6130 C   0  0  0  0  0  2  0  0  0  0  0  0
  -27.6300  -13.3230   19.8010 C   0  0  0  0  0  3  0  0  0  0  0  0
  -28.7000  -13.3500   20.9060 C   0  0  0  0  0  2  0  0  0  0  0  0
  -29.9290  -13.8420   20.2710 N   0  0  0  0  0  0  0  0  0  0  0  0
  -31.6770  -15.2300   20.0940 O   0  0  0  0  0  0  0  0  0  0  0  0
  -29.6290  -16.3020   20.4770 N   0  0  0  0  0  0  0  0  0  0  0  0
  -28.6610  -16.0540   20.6060 H   0  0  0  0  0  0  0  0  0  0  0  0
  -25.2650  -13.8340   20.6020 C   0  0  0  0  0  0  0  0  0  0  0  0
  -24.2150  -13.0440   20.9710 C   0  0  0  0  0  0  0  0  0  0  0  0
  -24.6990  -11.7040   20.8990 C   0  0  0  0  0  0  0  0  0  0  0  0
  -26.3110  -12.9810   20.3200 N   0  0  0  0  0  0  0  0  0  0  0  0
  -25.9840  -11.6870   20.5650 N   0  0  0  0  0  0  0  0  0  0  0  0
  -23.9890  -10.4350   21.0690 C   0  0  0  0  0  0  0  0  0  0  0  0
  -24.4190   -9.4750   22.0090 C   0  0  0  0  0  3  0  0  0  0  0  0
  -23.7070   -8.2680   22.1710 C   0  0  0  0  0  3  0  0  0  0  0  0
  -22.5520   -8.0170   21.3920 C   0  0  0  0  0  0  0  0  0  0  0  0
  -22.1440   -8.9680   20.4410 C   0  0  0  0  0  3  0  0  0  0  0  0
  -22.8560  -10.1670   20.2780 C   0  0  0  0  0  3  0  0  0  0  0  0
  -21.8100   -6.8620   21.4640 O   0  0  0  0  0  0  0  0  0  0  0  0
  -21.7180   -6.1400   22.6260 C   0  0  0  0  0  0  0  0  0  0  0  0
  -21.1550   -6.6840   23.8010 C   0  0  0  0  0  3  0  0  0  0  0  0
  -21.0160   -5.8820   24.9510 C   0  0  0  0  0  3  0  0  0  0  0  0
  -21.4320   -4.5370   24.9280 C   0  0  0  0  0  0  0  0  0  0  0  0
  -21.9880   -3.9930   23.7560 C   0  0  0  0  0  3  0  0  0  0  0  0
  -22.1290   -4.7930   22.6080 C   0  0  0  0  0  0  0  0  0  0  0  0
  -22.6460   -4.2570   21.4770 F   0  0  0  0  0  0  0  0  0  0  0  0
  -21.2920   -3.7650   26.0300 F   0  0  0  0  0  0  0  0  0  0  0  0
  -22.8190  -13.5070   21.2700 C   0  0  0  0  0  0  0  0  0  0  0  0
  -22.1100  -12.7880   22.1330 N   0  0  0  0  0  0  0  0  0  0  0  0
  -22.3660  -14.5400   20.7780 O   0  0  0  0  0  0  0  0  0  0  0  0
  -22.4930  -11.9560   22.5550 H   0  0  0  0  0  0  0  0  0  0  0  0
  -21.1720  -13.0750   22.3730 H   0  0  0  0  0  0  0  0  0  0  0  0
  -25.3990  -15.1970   20.4560 N   0  0  0  0  0  0  0  0  0  0  0  0
  -24.5920  -15.8040   20.5400 H   0  0  0  0  0  0  0  0  0  0  0  0
  -26.1930  -15.6420   20.0210 H   0  0  0  0  0  0  0  0  0  0  0  0
  -27.8080  -23.3650   19.9850 C   0  0  0  0  0  3  0  0  0  0  0  0
  -25.2310  -23.0440   19.6610 C   0  0  0  0  0  1  0  0  0  0  0  0
  -26.4080  -23.2420   20.6430 C   0  0  0  0  0  2  0  0  0  0  0  0
  -28.5190  -24.7730   20.5540 C   0  0  0  0  0  2  0  0  0  0  0  0
  -28.3240  -26.2990   20.2210 O   0  0  0  0  0  0  0  0  0  0  0  0
  -24.5550  -31.9110   23.2500 C   0  0  0  0  0  0  0  0  0  0  0  0
  -27.1860  -27.1810   20.2930 C   0  0  0  0  0  0  0  0  0  0  0  0
  -23.3750  -30.5070   21.6030 C   0  0  0  0  0  3  0  0  0  0  0  0
  -24.8420  -28.9140   20.2160 C   0  0  0  0  0  0  0  0  0  0  0  0
  -25.9290  -30.7800   21.4570 C   0  0  0  0  0  2  0  0  0  0  0  0
  -26.0130  -29.3760   20.8280 C   0  0  0  0  0  0  0  0  0  0  0  0
  -27.1850  -28.5300   20.8370 C   0  0  0  0  0  3  0  0  0  0  0  0
  -25.9860  -26.8050   19.6560 C   0  0  0  0  0  3  0  0  0  0  0  0
  -24.8400  -27.6390   19.6190 C   0  0  0  0  0  3  0  0  0  0  0  0
  -23.6120  -29.8110   20.2350 C   0  0  0  0  0  2  0  0  0  0  0  0
  -24.6410  -31.0900   22.1580 N   0  0  0  0  0  0  0  0  0  0  0  0
  -23.4630  -32.1950   23.7650 O   0  0  0  0  0  0  0  0  0  0  0  0
  -22.6820  -29.5120   22.5660 C   0  0  0  0  0  0  0  0  0  0  0  0
  -21.3560  -29.3370   22.4160 N   0  0  0  0  0  0  0  0  0  0  0  0
  -23.3430  -28.8950   23.4070 O   0  0  0  0  0  0  0  0  0  0  0  0
  -20.8850  -29.8750   21.7030 H   0  0  0  0  0  0  0  0  0  0  0  0
  -17.9590  -28.1880   22.9290 C   0  0  0  0  0  0  0  0  0  0  0  0
  -20.5230  -28.4080   23.1810 C   0  0  0  0  0  3  0  0  0  0  0  0
  -20.5970  -26.9790   22.5970 C   0  0  0  0  0  2  0  0  0  0  0  0
  -19.4830  -26.6680   21.5940 C   0  0  0  0  0  2  0  0  0  0  0  0
  -18.1090  -26.8410   22.2440 C   0  0  0  0  0  2  0  0  0  0  0  0
  -19.0910  -28.9290   23.3570 C   0  0  0  0  0  0  0  0  0  0  0  0
  -18.8940  -30.1900   23.9610 C   0  0  0  0  0  3  0  0  0  0  0  0
  -17.5980  -30.7080   24.1400 C   0  0  0  0  0  3  0  0  0  0  0  0
  -16.4810  -29.9590   23.7320 C   0  0  0  0  0  3  0  0  0  0  0  0
  -16.6620  -28.7040   23.1270 C   0  0  0  0  0  3  0  0  0  0  0  0
  -25.8230  -32.5530   23.8960 C   0  0  0  0  0  3  0  0  0  0  0  0
  -25.5120  -33.9600   24.1930 N   0  0  0  0  0  0  0  0  0  0  0  0
  -25.8750  -35.0010   23.4330 C   0  0  0  0  0  0  0  0  0  0  0  0
  -26.5710  -34.8750   22.4230 O   0  0  0  0  0  0  0  0  0  0  0  0
  -24.8870  -34.1340   24.9660 H   0  0  0  0  0  0  0  0  0  0  0  0
  -24.1830  -36.8140   23.0040 C   0  0  0  0  0  1  0  0  0  0  0  0
  -25.3910  -36.4020   23.8590 C   0  0  0  0  0  3  0  0  0  0  0  0
  -27.4980  -37.2780   24.7650 C   0  0  0  0  0  1  0  0  0  0  0  0
  -26.4400  -37.4410   23.7720 N   0  0  0  0  0  0  0  0  0  0  0  0
  -26.0410  -38.3700   23.8810 H   0  0  0  0  0  0  0  0  0  0  0  0
  -26.2940  -31.8080   25.2070 C   0  0  1  0  0  0  0  0  0  0  0  0
  -25.1660  -31.5950   26.2440 C   0  0  0  0  0  1  0  0  0  0  0  0
  -26.8800  -30.4210   24.8660 C   0  0  0  0  0  1  0  0  0  0  0  0
  -27.4250  -32.6120   25.8910 C   0  0  0  0  0  1  0  0  0  0  0  0
  1  4  1  0
  2  1  2  0
  2  5  1  0
  4 48  1  0
  4  3  2  0
  5  6  2  0
  6  3  1  0
  6  9  1  0
  8  5  1  0
  8  7  1  0
 10 18  1  0
 11 16  1  0
 12 13  1  0
 12 11  1  0
 14 13  1  0
 14 23  1  0
 14 15  1  0
 16 10  1  0
 16 15  1  0
 17 10  2  0
 18 19  1  0
 18  9  1  0
 20 21  2  0
 21 40  1  0
 22 21  1  0
 22 25  1  0
 23 24  1  0
 23 20  1  0
 24 22  2  0
 25 26  1  0
 26 27  2  0
 28 31  1  0
 28 27  1  0
 29 28  2  0
 30 29  1  0
 30 25  2  0
 31 32  1  0
 32 33  1  0
 33 34  2  0
 35 34  1  0
 35 39  1  0
 36 35  2  0
 37 32  2  0
 37 36  1  0
 38 37  1  0
 40 41  1  0
 41 44  1  0
 41 43  1  0
 42 40  2  0
 45 46  1  0
 45 20  1  0
 47 45  1  0
 48 51  1  0
 48 50  1  0
 49 50  1  0
 52 54  1  0
 52 51  1  0
 53 64  2  0
 54 59  1  0
 55 63  1  0
 55 65  1  0
 56 62  1  0
 56 58  1  0
 57 63  1  0
 58 59  2  0
 58 57  1  0
 60 54  2  0
 61 60  1  0
 61 56  2  0
 62 55  1  0
 63 53  1  0
 65 67  2  0
 66 65  1  0
 68 66  1  0
 69 78  2  0
 69 74  1  0
 70 66  1  0
 70 74  1  0
 71 70  1  0
 72 73  1  0
 72 71  1  0
 73 69  1  0
 74 75  2  0
 75 76  1  0
 77 76  2  0
 78 77  1  0
 79 53  1  0
 79 80  1  0
 79 89  1  0
 80 83  1  0
 81 85  1  0
 81 80  1  0
 82 81  2  0
 85 84  1  0
 87 85  1  0
 87 88  1  0
 87 86  1  0
 89 92  1  1
 89 90  1  0
 91 89  1  0
M  ISO  4  10 100  18 100  51 101  52 101
M  END
>  <TORSDO>  (48) 
F 21

>  <SCORE>  (48) 
-13.404

>  <name>  (48) 
47

>  <ligand_id>  (48) 
47

>  <original_smiles>  (48) 
[H]c1c([H])c([H])c2c(c1[H])C([H])([H])C([H])([H])C([H])([H])C2([H])N([H])C(=O)C1([H])N(C(=O)C([H])(N([H])C(=O)C([H])(N([H])C([H])([H])[H])C([H])([H])[H])C(C([H])([H])[H])(C([H])([H])[H])C([H])([H])[H])C([H])([H])c2c([H])c(OC([H])([H])C([H])(c3c([H])c([H])c(C([H])([H])C([H])([H])[H])c(C([H])([H])N([H])C(=O)N4C([H])([H])C([H])([H])C([H])([H])C([H])(n5nc(-c6c([H])c([H])c(Oc7c([H])c([H])c(F)c([H])c7F)c([H])c6[H])c(C(=O)N([H])[H])c5N([H])[H])C4([H])[H])c3[H])C([H])([H])C([H])([H])[H])c([H])c([H])c2C1([H])[H]

>  <smiles>  (48) 
[H]c1c([H])c([H])c2c(c1[H])C([H])([H])C([H])([H])C([H])([H])C2([H])N([H])C(=O)C1([H])N(C(=O)C([H])(N([H])C(=O)C([H])(N([H])C([H])([H])[H])C([H])([H])[H])C(C([H])([H])[H])(C([H])([H])[H])C([H])([H])[H])C([H])([H])c2c([H])c(OC([H])([H])C([H])(c3c([H])c([H])c(C([H])([H])C([H])([H])[H])c(C([H])([H])N([H])C(=O)N4C([H])([H])C([H])([H])C([H])([H])C([H])(n5nc(-c6c([H])c([H])c(Oc7c([H])c([H])c(F)c([H])c7F)c([H])c6[H])c(C(=O)N([H])[H])c5N([H])[H])C4([H])[H])c3[H])C([H])([H])C([H])([H])[H])c([H])c([H])c2C1([H])[H]

$$$$
48:0:0
     RDKit          3D

 88 96  0  0  1  0  0  0  0  0999 V2000
  -28.9380  -21.2840   20.6540 C   0  0  0  0  0  3  0  0  0  0  0  0
  -28.2760  -22.4270   18.6720 C   0  0  0  0  0  3  0  0  0  0  0  0
  -28.5040  -22.6450   20.0410 C   0  0  0  0  0  0  0  0  0  0  0  0
  -29.1270  -19.8950   19.9800 C   0  0  0  0  0  0  0  0  0  0  0  0
  -28.8030  -20.0640   18.6100 C   0  0  0  0  0  0  0  0  0  0  0  0
  -28.9000  -18.9010   17.6410 C   0  0  0  0  0  1  0  0  0  0  0  0
  -28.4120  -21.2360   18.0230 N   0  0  0  0  0  0  0  0  0  0  0  0
  -29.7760  -18.3300   20.5450 C   0  0  0  0  0  2  0  0  0  0  0  0
  -30.3340  -15.3770   20.2320 C   0  0  0  0  0  0  0  0  0  0  0  0
  -30.3400  -12.9110   19.3670 C   0  0  0  0  0  2  0  0  0  0  0  0
  -29.4170  -12.6470   18.1490 C   0  0  0  0  0  2  0  0  0  0  0  0
  -27.9700  -12.3740   18.5990 C   0  0  0  0  0  2  0  0  0  0  0  0
  -27.5170  -13.3420   19.7180 C   0  0  0  0  0  3  0  0  0  0  0  0
  -28.5710  -13.5300   20.8250 C   0  0  0  0  0  2  0  0  0  0  0  0
  -29.7730  -14.0640   20.1620 N   0  0  0  0  0  0  0  0  0  0  0  0
  -31.5670  -15.3550   20.0950 O   0  0  0  0  0  0  0  0  0  0  0  0
  -29.5630  -16.6680   20.2550 N   0  0  0  0  0  0  0  0  0  0  0  0
  -28.5790  -16.4510   20.1950 H   0  0  0  0  0  0  0  0  0  0  0  0
  -25.1570  -13.8940   20.4930 C   0  0  0  0  0  0  0  0  0  0  0  0
  -24.1000  -13.1170   20.8670 C   0  0  0  0  0  0  0  0  0  0  0  0
  -24.5690  -11.7670   20.8360 C   0  0  0  0  0  0  0  0  0  0  0  0
  -26.1990  -13.0220   20.2430 N   0  0  0  0  0  0  0  0  0  0  0  0
  -25.8580  -11.7360   20.5180 N   0  0  0  0  0  0  0  0  0  0  0  0
  -23.8440  -10.5030   21.0290 C   0  0  0  0  0  0  0  0  0  0  0  0
  -24.2840   -9.5360   21.9590 C   0  0  0  0  0  3  0  0  0  0  0  0
  -23.5570   -8.3390   22.1430 C   0  0  0  0  0  3  0  0  0  0  0  0
  -22.3770   -8.1030   21.3970 C   0  0  0  0  0  0  0  0  0  0  0  0
  -21.9580   -9.0600   20.4550 C   0  0  0  0  0  3  0  0  0  0  0  0
  -22.6850  -10.2480   20.2690 C   0  0  0  0  0  3  0  0  0  0  0  0
  -21.6220   -6.9590   21.4900 O   0  0  0  0  0  0  0  0  0  0  0  0
  -21.5820   -6.2150   22.6410 C   0  0  0  0  0  0  0  0  0  0  0  0
  -21.1730   -6.7690   23.8720 C   0  0  0  0  0  3  0  0  0  0  0  0
  -21.0810   -5.9500   25.0160 C   0  0  0  0  0  3  0  0  0  0  0  0
  -21.3890   -4.5780   24.9270 C   0  0  0  0  0  0  0  0  0  0  0  0
  -21.7920   -4.0250   23.7000 C   0  0  0  0  0  3  0  0  0  0  0  0
  -21.8850   -4.8410   22.5590 C   0  0  0  0  0  0  0  0  0  0  0  0
  -22.2530   -4.2970   21.3730 F   0  0  0  0  0  0  0  0  0  0  0  0
  -21.2920   -3.7910   26.0240 F   0  0  0  0  0  0  0  0  0  0  0  0
  -22.7020  -13.5910   21.1370 C   0  0  0  0  0  0  0  0  0  0  0  0
  -21.9780  -12.8940   22.0050 N   0  0  0  0  0  0  0  0  0  0  0  0
  -22.2630  -14.6150   20.6140 O   0  0  0  0  0  0  0  0  0  0  0  0
  -22.3500  -12.0680   22.4480 H   0  0  0  0  0  0  0  0  0  0  0  0
  -21.0390  -13.1920   22.2300 H   0  0  0  0  0  0  0  0  0  0  0  0
  -25.3170  -15.2660   20.3110 N   0  0  0  0  0  0  0  0  0  0  0  0
  -24.5580  -15.9260   20.4420 H   0  0  0  0  0  0  0  0  0  0  0  0
  -26.1460  -15.6930   19.9250 H   0  0  0  0  0  0  0  0  0  0  0  0
  -28.0330  -24.2240   20.6850 C   0  0  0  0  0  2  0  0  0  0  0  0
  -28.2180  -25.8190   20.2360 O   0  0  0  0  0  0  0  0  0  0  0  0
  -24.6440  -31.8630   23.1990 C   0  0  0  0  0  0  0  0  0  0  0  0
  -27.2070  -26.9290   20.2540 C   0  0  0  0  0  0  0  0  0  0  0  0
  -23.4570  -30.4520   21.5730 C   0  0  0  0  0  3  0  0  0  0  0  0
  -24.9070  -28.8270   20.1780 C   0  0  0  0  0  0  0  0  0  0  0  0
  -26.0260  -30.6580   21.4280 C   0  0  0  0  0  2  0  0  0  0  0  0
  -26.0980  -29.2350   20.7950 C   0  0  0  0  0  0  0  0  0  0  0  0
  -27.2440  -28.3130   20.7990 C   0  0  0  0  0  3  0  0  0  0  0  0
  -25.9860  -26.6810   19.5870 C   0  0  0  0  0  3  0  0  0  0  0  0
  -24.8810  -27.5720   19.5510 C   0  0  0  0  0  3  0  0  0  0  0  0
  -23.6910  -29.7540   20.2060 C   0  0  0  0  0  2  0  0  0  0  0  0
  -24.7320  -31.0200   22.1210 N   0  0  0  0  0  0  0  0  0  0  0  0
  -23.5520  -32.1570   23.7150 O   0  0  0  0  0  0  0  0  0  0  0  0
  -22.7600  -29.4650   22.5490 C   0  0  0  0  0  0  0  0  0  0  0  0
  -21.4280  -29.3050   22.4310 N   0  0  0  0  0  0  0  0  0  0  0  0
  -23.4260  -28.8460   23.3820 O   0  0  0  0  0  0  0  0  0  0  0  0
  -20.9450  -29.8550   21.7350 H   0  0  0  0  0  0  0  0  0  0  0  0
  -18.0460  -28.1050   22.9600 C   0  0  0  0  0  0  0  0  0  0  0  0
  -20.6050  -28.3760   23.2120 C   0  0  0  0  0  3  0  0  0  0  0  0
  -20.7040  -26.9380   22.6510 C   0  0  0  0  0  2  0  0  0  0  0  0
  -19.5990  -26.6050   21.6450 C   0  0  0  0  0  2  0  0  0  0  0  0
  -18.2200  -26.7520   22.2910 C   0  0  0  0  0  2  0  0  0  0  0  0
  -19.1640  -28.8730   23.3800 C   0  0  0  0  0  0  0  0  0  0  0  0
  -18.9430  -30.1360   23.9700 C   0  0  0  0  0  3  0  0  0  0  0  0
  -17.6350  -30.6300   24.1450 C   0  0  0  0  0  3  0  0  0  0  0  0
  -16.5320  -29.8610   23.7400 C   0  0  0  0  0  3  0  0  0  0  0  0
  -16.7380  -28.6010   23.1510 C   0  0  0  0  0  3  0  0  0  0  0  0
  -25.9110  -32.5180   23.8290 C   0  0  0  0  0  3  0  0  0  0  0  0
  -25.5860  -33.9190   24.1550 N   0  0  0  0  0  0  0  0  0  0  0  0
  -25.9110  -34.9780   23.4020 C   0  0  0  0  0  0  0  0  0  0  0  0
  -26.5800  -34.8800   22.3710 O   0  0  0  0  0  0  0  0  0  0  0  0
  -24.9930  -34.0670   24.9570 H   0  0  0  0  0  0  0  0  0  0  0  0
  -24.1770  -36.7740   23.0630 C   0  0  0  0  0  1  0  0  0  0  0  0
  -25.4220  -36.3660   23.8660 C   0  0  0  0  0  3  0  0  0  0  0  0
  -27.5570  -37.2620   24.6870 C   0  0  0  0  0  1  0  0  0  0  0  0
  -26.4490  -37.4240   23.7500 N   0  0  0  0  0  0  0  0  0  0  0  0
  -26.0390  -38.3420   23.8990 H   0  0  0  0  0  0  0  0  0  0  0  0
  -26.4140  -31.7660   25.1240 C   0  0  1  0  0  0  0  0  0  0  0  0
  -25.3130  -31.5420   26.1870 C   0  0  0  0  0  1  0  0  0  0  0  0
  -27.0010  -30.3810   24.7640 C   0  0  0  0  0  1  0  0  0  0  0  0
  -27.5580  -32.5720   25.7810 C   0  0  0  0  0  1  0  0  0  0  0  0
  2  3  2  0
  3  1  1  0
  3 47  1  0
  4  8  1  0
  4  1  2  0
  5  4  1  0
  6  5  1  0
  7  5  2  0
  7  2  1  0
  9 17  1  0
 10 15  1  0
 11 12  1  0
 11 10  1  0
 13 12  1  0
 13 22  1  0
 13 14  1  0
 15  9  1  0
 15 14  1  0
 16  9  2  0
 17  8  1  0
 18 17  1  0
 19 20  2  0
 20 39  1  0
 21 20  1  0
 21 24  1  0
 22 19  1  0
 22 23  1  0
 23 21  2  0
 24 25  1  0
 25 26  2  0
 27 30  1  0
 27 26  1  0
 28 27  2  0
 29 28  1  0
 29 24  2  0
 30 31  1  0
 31 32  1  0
 32 33  2  0
 34 33  1  0
 34 38  1  0
 35 34  2  0
 36 31  2  0
 36 35  1  0
 37 36  1  0
 39 40  1  0
 40 43  1  0
 40 42  1  0
 41 39  2  0
 44 45  1  0
 44 19  1  0
 46 44  1  0
 48 50  1  0
 48 47  1  0
 49 60  2  0
 50 55  1  0
 51 59  1  0
 51 61  1  0
 52 58  1  0
 52 54  1  0
 53 59  1  0
 54 55  2  0
 54 53  1  0
 56 50  2  0
 57 56  1  0
 57 52  2  0
 58 51  1  0
 59 49  1  0
 61 63  2  0
 62 61  1  0
 64 62  1  0
 65 74  2  0
 65 70  1  0
 66 62  1  0
 66 70  1  0
 67 66  1  0
 68 69  1  0
 68 67  1  0
 69 65  1  0
 70 71  2  0
 71 72  1  0
 73 72  2  0
 74 73  1  0
 75 49  1  0
 75 76  1  0
 75 85  1  0
 76 79  1  0
 77 81  1  0
 77 76  1  0
 78 77  2  0
 81 80  1  0
 83 81  1  0
 83 84  1  0
 83 82  1  0
 85 88  1  1
 85 86  1  0
 87 85  1  0
M  ISO  4   9 100  17 100  47 101  48 101
M  END
>  <TORSDO>  (49) 
F 18

>  <SCORE>  (49) 
-16.736

>  <name>  (49) 
48

>  <ligand_id>  (49) 
48

>  <original_smiles>  (49) 
[H]c1nc(C([H])([H])[H])c(C([H])([H])N([H])C(=O)N2C([H])([H])C([H])([H])C([H])([H])C([H])(n3nc(-c4c([H])c([H])c(Oc5c([H])c([H])c(F)c([H])c5F)c([H])c4[H])c(C(=O)N([H])[H])c3N([H])[H])C2([H])[H])c([H])c1C([H])([H])Oc1c([H])c([H])c2c(c1[H])C([H])([H])N(C(=O)C([H])(N([H])C(=O)C([H])(N([H])C([H])([H])[H])C([H])([H])[H])C(C([H])([H])[H])(C([H])([H])[H])C([H])([H])[H])C([H])(C(=O)N([H])C1([H])c3c([H])c([H])c([H])c([H])c3C([H])([H])C([H])([H])C1([H])[H])C2([H])[H]

>  <smiles>  (49) 
[H]c1nc(C([H])([H])[H])c(C([H])([H])N([H])C(=O)N2C([H])([H])C([H])([H])C([H])([H])C([H])(n3nc(-c4c([H])c([H])c(Oc5c([H])c([H])c(F)c([H])c5F)c([H])c4[H])c(C(=O)N([H])[H])c3N([H])[H])C2([H])[H])c([H])c1C([H])([H])Oc1c([H])c([H])c2c(c1[H])C([H])([H])N(C(=O)C([H])(N([H])C(=O)C([H])(N([H])C([H])([H])[H])C([H])([H])[H])C(C([H])([H])[H])(C([H])([H])[H])C([H])([H])[H])C([H])(C(=O)N([H])C1([H])c3c([H])c([H])c([H])c([H])c3C([H])([H])C([H])([H])C1([H])[H])C2([H])[H]

$$$$
49:0:0
     RDKit          3D

104112  0  0  1  0  0  0  0  0999 V2000
  -31.0390  -22.6800   21.5130 C   0  0  0  0  0  3  0  0  0  0  0  0
  -29.2610  -24.2300   21.0770 C   0  0  0  0  0  3  0  0  0  0  0  0
  -30.1470  -23.6400   21.9880 C   0  0  0  0  0  0  0  0  0  0  0  0
  -30.8990  -22.1140   20.2320 C   0  0  0  0  0  0  0  0  0  0  0  0
  -29.1010  -23.7520   19.7510 C   0  0  0  0  0  0  0  0  0  0  0  0
  -29.7670  -22.4590   19.4170 C   0  0  0  0  0  0  0  0  0  0  0  0
  -33.4230  -21.5060   20.3110 C   0  0  0  0  0  1  0  0  0  0  0  0
  -32.0060  -21.1320   19.8190 C   0  0  0  0  0  2  0  0  0  0  0  0
  -30.1890  -24.0580   23.4530 C   0  0  0  0  0  2  0  0  0  0  0  0
  -30.4220  -22.8780   24.4330 C   0  0  0  0  0  2  0  0  0  0  0  0
  -29.9560  -21.4910   23.9310 C   0  0  0  0  0  2  0  0  0  0  0  0
  -30.5920  -19.0820   24.0420 C   0  0  0  0  0  1  0  0  0  0  0  0
  -30.5800  -20.3980   24.7080 N   0  0  0  0  0  4  0  0  0  0  0  0
  -31.5350  -20.6480   24.9110 H   0  0  0  0  0  0  0  0  0  0  0  0
  -30.1000  -20.3040   25.5880 H   0  0  0  0  0  0  0  0  0  0  0  0
  -29.1710  -21.2800   18.5000 C   0  0  0  0  0  2  0  0  0  0  0  0
  -29.9830  -20.0110   18.0690 N   0  0  2  0  0  4  0  0  0  0  0  0
  -30.9000  -20.2220   18.4290 H   0  0  0  0  0  0  0  0  0  0  0  0
  -31.1030  -18.8600   16.0830 C   0  0  0  0  0  1  0  0  0  0  0  0
  -28.7770  -19.6690   15.8420 C   0  0  0  0  0  1  0  0  0  0  0  0
  -30.6550  -21.3120   16.0010 C   0  0  0  0  0  1  0  0  0  0  0  0
  -30.1230  -19.9620   16.5560 C   0  0  1  0  0  0  0  0  0  0  0  0
  -29.6610  -18.6110   18.7020 C   0  0  0  0  0  3  0  0  0  0  0  0
  -30.8370  -17.4830   18.9310 C   0  0  0  0  0  3  0  0  0  0  0  0
  -31.3170  -14.9470   19.5430 C   0  0  0  0  0  0  0  0  0  0  0  0
  -31.0750  -12.5320   18.9670 C   0  0  0  0  0  2  0  0  0  0  0  0
  -30.0960  -12.4430   17.7750 C   0  0  0  0  0  2  0  0  0  0  0  0
  -28.6350  -12.3830   18.2730 C   0  0  0  0  0  2  0  0  0  0  0  0
  -28.3280  -13.4630   19.3490 C   0  0  0  0  0  3  0  0  0  0  0  0
  -29.4240  -13.5160   20.4340 C   0  0  0  0  0  2  0  0  0  0  0  0
  -30.7010  -13.7360   19.7450 N   0  0  0  0  0  0  0  0  0  0  0  0
  -32.4890  -14.9760   19.1590 O   0  0  0  0  0  0  0  0  0  0  0  0
  -30.5320  -16.1010   19.5400 N   0  0  0  0  0  0  0  0  0  0  0  0
  -29.5890  -15.9670   19.8750 H   0  0  0  0  0  0  0  0  0  0  0  0
  -26.0900  -14.2810   20.3160 C   0  0  0  0  0  0  0  0  0  0  0  0
  -24.9700  -13.6160   20.7330 C   0  0  0  0  0  0  0  0  0  0  0  0
  -25.2550  -12.2250   20.5730 C   0  0  0  0  0  0  0  0  0  0  0  0
  -26.9950  -13.3040   19.9330 N   0  0  0  0  0  0  0  0  0  0  0  0
  -26.5030  -12.0580   20.1490 N   0  0  0  0  0  0  0  0  0  0  0  0
  -24.3960  -11.0460   20.7440 C   0  0  0  0  0  0  0  0  0  0  0  0
  -24.7610   -9.9840   21.6030 C   0  0  0  0  0  3  0  0  0  0  0  0
  -23.9070   -8.8720   21.7680 C   0  0  0  0  0  3  0  0  0  0  0  0
  -22.6760   -8.8130   21.0740 C   0  0  0  0  0  0  0  0  0  0  0  0
  -22.3290   -9.8630   20.2040 C   0  0  0  0  0  3  0  0  0  0  0  0
  -23.1830  -10.9660   20.0350 C   0  0  0  0  0  3  0  0  0  0  0  0
  -21.7930   -7.7600   21.1510 O   0  0  0  0  0  0  0  0  0  0  0  0
  -21.6890   -6.9910   22.2800 C   0  0  0  0  0  0  0  0  0  0  0  0
  -21.3620   -7.5490   23.5370 C   0  0  0  0  0  3  0  0  0  0  0  0
  -21.1950   -6.7090   24.6570 C   0  0  0  0  0  3  0  0  0  0  0  0
  -21.3460   -5.3160   24.5230 C   0  0  0  0  0  0  0  0  0  0  0  0
  -21.6710   -4.7610   23.2740 C   0  0  0  0  0  3  0  0  0  0  0  0
  -21.8380   -5.5960   22.1550 C   0  0  0  0  0  0  0  0  0  0  0  0
  -22.1270   -5.0500   20.9480 F   0  0  0  0  0  0  0  0  0  0  0  0
  -21.1790   -4.5090   25.5990 F   0  0  0  0  0  0  0  0  0  0  0  0
  -23.6650  -14.2370   21.1460 C   0  0  0  0  0  0  0  0  0  0  0  0
  -22.9300  -13.5820   22.0390 N   0  0  0  0  0  0  0  0  0  0  0  0
  -23.3140  -15.3320   20.7100 O   0  0  0  0  0  0  0  0  0  0  0  0
  -23.2230  -12.6960   22.4220 H   0  0  0  0  0  0  0  0  0  0  0  0
  -22.0550  -13.9810   22.3490 H   0  0  0  0  0  0  0  0  0  0  0  0
  -26.4050  -15.6310   20.2050 N   0  0  0  0  0  0  0  0  0  0  0  0
  -25.7170  -16.3490   20.4090 H   0  0  0  0  0  0  0  0  0  0  0  0
  -27.2280  -15.9920   19.7420 H   0  0  0  0  0  0  0  0  0  0  0  0
  -28.1760  -24.7440   18.9090 C   0  0  0  0  0  2  0  0  0  0  0  0
  -28.3350  -26.2420   19.1580 O   0  0  0  0  0  0  0  0  0  0  0  0
  -24.5220  -31.2510   22.7810 C   0  0  0  0  0  0  0  0  0  0  0  0
  -27.2150  -27.1100   19.1910 C   0  0  0  0  0  0  0  0  0  0  0  0
  -23.3360  -29.9960   21.0180 C   0  0  0  0  0  3  0  0  0  0  0  0
  -24.8100  -28.6750   19.3910 C   0  0  0  0  0  0  0  0  0  0  0  0
  -25.8600  -30.4280   20.8200 C   0  0  0  0  0  2  0  0  0  0  0  0
  -25.9760  -29.1280   20.0160 C   0  0  0  0  0  0  0  0  0  0  0  0
  -27.1830  -28.3650   19.9010 C   0  0  0  0  0  3  0  0  0  0  0  0
  -26.0260  -26.7380   18.5290 C   0  0  0  0  0  3  0  0  0  0  0  0
  -24.8400  -27.4940   18.6300 C   0  0  0  0  0  3  0  0  0  0  0  0
  -23.5440  -29.4930   19.5660 C   0  0  0  0  0  2  0  0  0  0  0  0
  -24.5940  -30.5710   21.5970 N   0  0  0  0  0  0  0  0  0  0  0  0
  -23.4400  -31.4200   23.3620 O   0  0  0  0  0  0  0  0  0  0  0  0
  -22.7370  -28.8500   21.8720 C   0  0  0  0  0  0  0  0  0  0  0  0
  -21.4100  -28.6530   21.7780 N   0  0  0  0  0  0  0  0  0  0  0  0
  -23.4640  -28.1470   22.5790 O   0  0  0  0  0  0  0  0  0  0  0  0
  -20.8810  -29.2780   21.1870 H   0  0  0  0  0  0  0  0  0  0  0  0
  -18.0830  -27.3090   22.2730 C   0  0  0  0  0  0  0  0  0  0  0  0
  -20.6460  -27.6050   22.4580 C   0  0  0  0  0  3  0  0  0  0  0  0
  -20.7490  -26.2580   21.7030 C   0  0  0  0  0  2  0  0  0  0  0  0
  -19.6080  -26.0360   20.7060 C   0  0  0  0  0  2  0  0  0  0  0  0
  -18.2550  -26.0620   21.4230 C   0  0  0  0  0  2  0  0  0  0  0  0
  -19.2050  -28.0420   22.7450 C   0  0  0  0  0  0  0  0  0  0  0  0
  -18.9870  -29.2140   23.5030 C   0  0  0  0  0  3  0  0  0  0  0  0
  -17.6810  -29.6520   23.7910 C   0  0  0  0  0  3  0  0  0  0  0  0
  -16.5740  -28.9150   23.3340 C   0  0  0  0  0  3  0  0  0  0  0  0
  -16.7780  -27.7460   22.5800 C   0  0  0  0  0  3  0  0  0  0  0  0
  -25.7900  -31.8670   23.4450 C   0  0  0  0  0  3  0  0  0  0  0  0
  -25.4300  -33.2050   23.9380 N   0  0  0  0  0  0  0  0  0  0  0  0
  -25.7420  -34.3540   23.3230 C   0  0  0  0  0  0  0  0  0  0  0  0
  -26.4320  -34.3990   22.3000 O   0  0  0  0  0  0  0  0  0  0  0  0
  -24.8150  -33.2400   24.7370 H   0  0  0  0  0  0  0  0  0  0  0  0
  -23.9620  -36.1250   23.1660 C   0  0  0  0  0  1  0  0  0  0  0  0
  -25.2050  -35.6600   23.9390 C   0  0  0  0  0  3  0  0  0  0  0  0
  -27.3010  -36.5010   24.9050 C   0  0  0  0  0  1  0  0  0  0  0  0
  -26.2040  -36.7500   23.9730 N   0  0  0  0  0  0  0  0  0  0  0  0
  -25.7650  -37.6330   24.2260 H   0  0  0  0  0  0  0  0  0  0  0  0
  -26.3690  -30.9840   24.6200 C   0  0  1  0  0  0  0  0  0  0  0  0
  -25.3120  -30.5940   25.6810 C   0  0  0  0  0  1  0  0  0  0  0  0
  -26.9910  -29.6790   24.0710 C   0  0  0  0  0  1  0  0  0  0  0  0
  -27.5090  -31.7450   25.3360 C   0  0  0  0  0  1  0  0  0  0  0  0
  1  3  1  0
  2  3  2  0
  3  9  1  0
  4  1  2  0
  5  2  1  0
  6  5  2  0
  6  4  1  0
  8  4  1  0
  8  7  1  0
  9 10  1  0
 11 10  1  0
 11 13  1  0
 12 13  1  0
 13 14  1  0
 13 15  1  0
 16  6  1  0
 17 18  1  1
 17 16  1  0
 17 23  1  0
 22 19  1  1
 20 22  1  0
 21 22  1  0
 22 17  1  0
 23 24  2  0
 24 33  1  0
 25 31  1  0
 26 31  1  0
 27 28  1  0
 27 26  1  0
 29 28  1  0
 29 38  1  0
 29 30  1  0
 31 30  1  0
 32 25  2  0
 33 25  1  0
 33 34  1  0
 35 36  2  0
 36 55  1  0
 37 36  1  0
 37 40  1  0
 38 39  1  0
 38 35  1  0
 39 37  2  0
 40 41  1  0
 41 42  2  0
 43 46  1  0
 43 42  1  0
 44 43  2  0
 45 44  1  0
 45 40  2  0
 46 47  1  0
 47 48  1  0
 48 49  2  0
 50 49  1  0
 50 54  1  0
 51 50  2  0
 52 47  2  0
 52 51  1  0
 53 52  1  0
 55 56  1  0
 56 59  1  0
 56 58  1  0
 57 55  2  0
 60 35  1  0
 60 61  1  0
 62 60  1  0
 63 64  1  0
 63  5  1  0
 64 66  1  0
 65 76  2  0
 66 71  1  0
 67 75  1  0
 67 77  1  0
 68 74  1  0
 68 70  1  0
 69 75  1  0
 70 69  1  0
 71 70  2  0
 72 73  1  0
 72 66  2  0
 73 68  2  0
 74 67  1  0
 75 65  1  0
 77 79  2  0
 78 77  1  0
 80 78  1  0
 81 90  2  0
 81 86  1  0
 82 78  1  0
 82 86  1  0
 83 82  1  0
 84 85  1  0
 84 83  1  0
 85 81  1  0
 86 87  2  0
 87 88  1  0
 89 88  2  0
 90 89  1  0
 91 65  1  0
 91 92  1  0
 91101  1  0
 92 95  1  0
 93 92  1  0
 93 97  1  0
 94 93  2  0
 97 96  1  0
 97 99  1  0
 99100  1  0
 99 98  1  0
101104  1  1
101102  1  0
103101  1  0
M  ISO  4  25 100  33 100  63 101  64 101
M  END
>  <TORSDO>  (50) 
F 27

>  <SCORE>  (50) 
-9.103

>  <name>  (50) 
49

>  <ligand_id>  (50) 
49

>  <original_smiles>  (50) 
[H]c1c([H])c([H])c2c(c1[H])C([H])([H])C([H])([H])C([H])([H])C2([H])N([H])C(=O)C1([H])N(C(=O)C([H])(N([H])C(=O)C([H])(N([H])C([H])([H])[H])C([H])([H])[H])C(C([H])([H])[H])(C([H])([H])[H])C([H])([H])[H])C([H])([H])c2c([H])c(OC([H])([H])c3c([H])c(C([H])([H])C([H])([H])C([H])([H])[N+]([H])([H])C([H])([H])[H])c([H])c(C([H])([H])C([H])([H])[H])c3C([H])([H])[N+]([H])(C([H])([H])C([H])([H])N([H])C(=O)N3C([H])([H])C([H])([H])C([H])([H])C([H])(n4nc(-c5c([H])c([H])c(Oc6c([H])c([H])c(F)c([H])c6F)c([H])c5[H])c(C(=O)N([H])[H])c4N([H])[H])C3([H])[H])C(C([H])([H])[H])(C([H])([H])[H])C([H])([H])[H])c([H])c([H])c2C1([H])[H]

>  <smiles>  (50) 
[H]c1c([H])c([H])c2c(c1[H])C([H])([H])C([H])([H])C([H])([H])C2([H])N([H])C(=O)C1([H])N(C(=O)C([H])(N([H])C(=O)C([H])(N([H])C([H])([H])[H])C([H])([H])[H])C(C([H])([H])[H])(C([H])([H])[H])C([H])([H])[H])C([H])([H])c2c([H])c(OC([H])([H])c3c([H])c(C([H])([H])C([H])([H])C([H])([H])[N+]([H])([H])C([H])([H])[H])c([H])c(C([H])([H])C([H])([H])[H])c3C([H])([H])[N+]([H])(C([H])([H])C([H])([H])N([H])C(=O)N3C([H])([H])C([H])([H])C([H])([H])C([H])(n4nc(-c5c([H])c([H])c(Oc6c([H])c([H])c(F)c([H])c6F)c([H])c5[H])c(C(=O)N([H])[H])c4N([H])[H])C3([H])[H])C(C([H])([H])[H])(C([H])([H])[H])C([H])([H])[H])c([H])c([H])c2C1([H])[H]

$$$$
50:0:0
     RDKit          3D

 99107  0  0  1  0  0  0  0  0999 V2000
  -29.7580  -19.1800   20.7590 C   0  0  0  0  0  3  0  0  0  0  0  0
  -30.1270  -19.1510   22.1960 N   0  0  0  0  0  4  0  0  0  0  0  0
  -29.8230  -18.2630   22.5600 H   0  0  0  0  0  0  0  0  0  0  0  0
  -31.1290  -19.1700   22.2860 H   0  0  0  0  0  0  0  0  0  0  0  0
  -29.5490  -20.1420   23.1140 C   0  0  0  0  0  2  0  0  0  0  0  0
  -28.9950  -18.6260   26.6110 C   0  0  0  0  0  3  0  0  0  0  0  0
  -31.3840  -18.9250   26.2780 C   0  0  0  0  0  3  0  0  0  0  0  0
  -30.3150  -18.4650   27.0670 C   0  0  0  0  0  0  0  0  0  0  0  0
  -28.7380  -19.2120   25.3560 C   0  0  0  0  0  0  0  0  0  0  0  0
  -31.1470  -19.5150   25.0190 C   0  0  0  0  0  0  0  0  0  0  0  0
  -29.8150  -19.6430   24.5350 C   0  0  0  0  0  0  0  0  0  0  0  0
  -30.5910  -17.7990   28.3990 C   0  0  0  0  0  1  0  0  0  0  0  0
  -27.2900  -19.3500   24.9150 C   0  0  0  0  0  1  0  0  0  0  0  0
  -32.3520  -19.9770   24.2100 C   0  0  0  0  0  1  0  0  0  0  0  0
  -32.0560  -17.9080   20.4620 C   0  0  0  0  0  1  0  0  0  0  0  0
  -30.5580  -17.8740   20.0930 C   0  0  0  0  0  3  0  0  0  0  0  0
  -28.7050  -16.3500   19.3030 C   0  0  0  0  0  1  0  0  0  0  0  0
  -29.9360  -16.3330   20.2460 C   0  0  0  0  0  3  0  0  0  0  0  0
  -30.7460  -14.9140   19.9930 C   0  0  0  0  0  0  0  0  0  0  0  0
  -30.4970  -12.6540   18.9070 C   0  0  0  0  0  2  0  0  0  0  0  0
  -29.4980  -12.7690   17.7320 C   0  0  0  0  0  2  0  0  0  0  0  0
  -28.0500  -12.5670   18.2210 C   0  0  0  0  0  2  0  0  0  0  0  0
  -27.7320  -13.3850   19.4970 C   0  0  0  0  0  3  0  0  0  0  0  0
  -28.8540  -13.2790   20.5550 C   0  0  0  0  0  2  0  0  0  0  0  0
  -30.1240  -13.6720   19.9270 N   0  0  0  0  0  0  0  0  0  0  0  0
  -31.9270  -14.9710   19.6470 O   0  0  0  0  0  0  0  0  0  0  0  0
  -25.4130  -13.9790   20.4060 C   0  0  0  0  0  0  0  0  0  0  0  0
  -24.3430  -13.2080   20.7690 C   0  0  0  0  0  0  0  0  0  0  0  0
  -24.7610  -11.8530   20.5910 C   0  0  0  0  0  0  0  0  0  0  0  0
  -26.4140  -13.0920   20.0410 N   0  0  0  0  0  0  0  0  0  0  0  0
  -26.0320  -11.8030   20.2120 N   0  0  0  0  0  0  0  0  0  0  0  0
  -24.0050  -10.6020   20.7020 C   0  0  0  0  0  0  0  0  0  0  0  0
  -24.4790   -9.5230   21.4790 C   0  0  0  0  0  3  0  0  0  0  0  0
  -23.7250   -8.3340   21.5880 C   0  0  0  0  0  3  0  0  0  0  0  0
  -22.4840   -8.2190   20.9180 C   0  0  0  0  0  0  0  0  0  0  0  0
  -22.0270   -9.2880   20.1270 C   0  0  0  0  0  3  0  0  0  0  0  0
  -22.7810  -10.4680   20.0160 C   0  0  0  0  0  3  0  0  0  0  0  0
  -21.6970   -7.0930   20.9440 O   0  0  0  0  0  0  0  0  0  0  0  0
  -21.7730   -6.1870   21.9710 C   0  0  0  0  0  0  0  0  0  0  0  0
  -21.5550   -6.5660   23.3140 C   0  0  0  0  0  3  0  0  0  0  0  0
  -21.5720   -5.5900   24.3320 C   0  0  0  0  0  3  0  0  0  0  0  0
  -21.7980   -4.2390   24.0080 C   0  0  0  0  0  0  0  0  0  0  0  0
  -22.0120   -3.8600   22.6710 C   0  0  0  0  0  3  0  0  0  0  0  0
  -21.9970   -4.8320   21.6550 C   0  0  0  0  0  0  0  0  0  0  0  0
  -22.1810   -4.4600   20.3660 F   0  0  0  0  0  0  0  0  0  0  0  0
  -21.8080   -3.3010   24.9840 F   0  0  0  0  0  0  0  0  0  0  0  0
  -22.9800  -13.7010   21.1570 C   0  0  0  0  0  0  0  0  0  0  0  0
  -22.2850  -12.9610   22.0130 N   0  0  0  0  0  0  0  0  0  0  0  0
  -22.5450  -14.7720   20.7410 O   0  0  0  0  0  0  0  0  0  0  0  0
  -22.6510  -12.0900   22.3690 H   0  0  0  0  0  0  0  0  0  0  0  0
  -21.3710  -13.2680   22.3160 H   0  0  0  0  0  0  0  0  0  0  0  0
  -25.6070  -15.3520   20.3260 N   0  0  0  0  0  0  0  0  0  0  0  0
  -24.8480  -16.0050   20.4840 H   0  0  0  0  0  0  0  0  0  0  0  0
  -26.4330  -15.7820   19.9350 H   0  0  0  0  0  0  0  0  0  0  0  0
  -29.8990  -20.7350   20.1750 C   0  0  0  0  0  2  0  0  0  0  0  0
  -28.8960  -22.0040   20.5520 C   0  0  0  0  0  2  0  0  0  0  0  0
  -29.2830  -23.6040   20.3710 C   0  0  0  0  0  3  0  0  0  0  0  0
  -28.1480  -24.8030   20.3490 C   0  0  0  0  0  3  0  0  0  0  0  0
  -28.4180  -26.3070   20.3180 O   0  0  0  0  0  0  0  0  0  0  0  0
  -24.7260  -31.9220   23.1840 C   0  0  0  0  0  0  0  0  0  0  0  0
  -27.3300  -27.2290   20.2300 C   0  0  0  0  0  0  0  0  0  0  0  0
  -23.5250  -30.4870   21.5780 C   0  0  0  0  0  3  0  0  0  0  0  0
  -24.9750  -28.9050   20.1750 C   0  0  0  0  0  0  0  0  0  0  0  0
  -26.0700  -30.7850   21.3860 C   0  0  0  0  0  2  0  0  0  0  0  0
  -26.1500  -29.3890   20.7620 C   0  0  0  0  0  0  0  0  0  0  0  0
  -27.3300  -28.5670   20.7730 C   0  0  0  0  0  3  0  0  0  0  0  0
  -26.1270  -26.8280   19.6050 C   0  0  0  0  0  3  0  0  0  0  0  0
  -24.9730  -27.6350   19.5800 C   0  0  0  0  0  3  0  0  0  0  0  0
  -23.7390  -29.7860   20.2100 C   0  0  0  0  0  2  0  0  0  0  0  0
  -24.7940  -31.0850   22.1050 N   0  0  0  0  0  0  0  0  0  0  0  0
  -23.6420  -32.2050   23.7130 O   0  0  0  0  0  0  0  0  0  0  0  0
  -22.8630  -29.4910   22.5610 C   0  0  0  0  0  0  0  0  0  0  0  0
  -21.5430  -29.2760   22.4210 N   0  0  0  0  0  0  0  0  0  0  0  0
  -23.5410  -28.9130   23.4150 O   0  0  0  0  0  0  0  0  0  0  0  0
  -21.0500  -29.7960   21.7090 H   0  0  0  0  0  0  0  0  0  0  0  0
  -18.2080  -27.9320   22.8450 C   0  0  0  0  0  0  0  0  0  0  0  0
  -20.7350  -28.3420   23.2120 C   0  0  0  0  0  3  0  0  0  0  0  0
  -20.9360  -26.8860   22.7320 C   0  0  0  0  0  2  0  0  0  0  0  0
  -19.9020  -26.4450   21.6910 C   0  0  0  0  0  2  0  0  0  0  0  0
  -18.4850  -26.5570   22.2600 C   0  0  0  0  0  2  0  0  0  0  0  0
  -19.2660  -28.7760   23.2780 C   0  0  0  0  0  0  0  0  0  0  0  0
  -18.9540  -30.0580   23.7800 C   0  0  0  0  0  3  0  0  0  0  0  0
  -17.6200  -30.4980   23.8570 C   0  0  0  0  0  3  0  0  0  0  0  0
  -16.5760  -29.6520   23.4400 C   0  0  0  0  0  3  0  0  0  0  0  0
  -16.8720  -28.3720   22.9400 C   0  0  0  0  0  3  0  0  0  0  0  0
  -26.0060  -32.5740   23.7900 C   0  0  0  0  0  3  0  0  0  0  0  0
  -26.5360  -31.8240   25.0730 C   0  0  1  0  0  0  0  0  0  0  0  0
  -25.4530  -31.5970   26.1540 C   0  0  0  0  0  1  0  0  0  0  0  0
  -27.1210  -30.4450   24.6950 C   0  0  0  0  0  1  0  0  0  0  0  0
  -27.6950  -32.6260   25.7060 C   0  0  0  0  0  1  0  0  0  0  0  0
  -25.6860  -33.9740   24.1110 N   0  0  0  0  0  0  0  0  0  0  0  0
  -26.0370  -35.0260   23.3620 C   0  0  0  0  0  0  0  0  0  0  0  0
  -26.7300  -34.9230   22.3450 O   0  0  0  0  0  0  0  0  0  0  0  0
  -25.0770  -34.1290   24.9000 H   0  0  0  0  0  0  0  0  0  0  0  0
  -24.3100  -36.8120   22.9800 C   0  0  0  0  0  1  0  0  0  0  0  0
  -25.5430  -36.4170   23.8080 C   0  0  0  0  0  3  0  0  0  0  0  0
  -27.6690  -37.3110   24.6530 C   0  0  0  0  0  1  0  0  0  0  0  0
  -26.5750  -37.4720   23.6990 N   0  0  0  0  0  0  0  0  0  0  0  0
  -26.1660  -38.3920   23.8370 H   0  0  0  0  0  0  0  0  0  0  0  0
  1 55  1  0
  1  2  1  0
  2  4  1  0
  2  3  1  0
  2  5  1  0
  5 11  1  0
  6  8  1  0
  7  8  2  0
  8 12  1  0
  9  6  2  0
 10  7  1  0
 11 10  2  0
 11  9  1  0
 13  9  1  0
 14 10  1  0
 16 18  1  0
 16 15  1  0
 16  1  1  0
 18 17  1  0
 19 18  1  0
 20 25  1  0
 21 22  1  0
 21 20  1  0
 23 22  1  0
 23 30  1  0
 23 24  1  0
 25 19  1  0
 25 24  1  0
 26 19  2  0
 27 28  2  0
 28 47  1  0
 29 32  1  0
 29 28  1  0
 30 31  1  0
 30 27  1  0
 31 29  2  0
 32 33  1  0
 33 34  2  0
 35 38  1  0
 35 34  1  0
 36 35  2  0
 37 36  1  0
 37 32  2  0
 38 39  1  0
 39 40  1  0
 40 41  2  0
 42 41  1  0
 42 46  1  0
 43 42  2  0
 44 39  2  0
 44 43  1  0
 45 44  1  0
 47 48  1  0
 48 51  1  0
 48 50  1  0
 49 47  2  0
 52 27  1  0
 52 53  1  0
 54 52  1  0
 55 56  1  0
 57 56  1  0
 58 57  2  0
 59 58  1  0
 60 71  2  0
 61 59  1  0
 61 66  1  0
 62 70  1  0
 62 72  1  0
 63 69  1  0
 63 65  1  0
 64 70  1  0
 65 66  2  0
 65 64  1  0
 67 61  2  0
 68 67  1  0
 68 63  2  0
 69 62  1  0
 70 60  1  0
 72 74  2  0
 73 72  1  0
 75 73  1  0
 76 85  2  0
 76 81  1  0
 77 73  1  0
 77 81  1  0
 78 77  1  0
 79 80  1  0
 79 78  1  0
 80 76  1  0
 81 82  2  0
 82 83  1  0
 84 83  2  0
 85 84  1  0
 86 60  1  0
 86 91  1  0
 86 87  1  0
 87 90  1  1
 87 88  1  0
 89 87  1  0
 91 94  1  0
 92 96  1  0
 92 91  1  0
 93 92  2  0
 96 95  1  0
 98 96  1  0
 98 99  1  0
 98 97  1  0
M  ISO  4  18 100  19 100  58 101  59 101
M  END
>  <TORSDO>  (51) 
F 25

>  <SCORE>  (51) 
19.485

>  <name>  (51) 
50

>  <ligand_id>  (51) 
50

>  <original_smiles>  (51) 
[H]c1c([H])c([H])c2c(c1[H])C([H])([H])C([H])([H])C([H])([H])C2([H])N([H])C(=O)C1([H])N(C(=O)C([H])(N([H])C(=O)C([H])(N([H])C([H])([H])[H])C([H])([H])[H])C(C([H])([H])[H])(C([H])([H])[H])C([H])([H])[H])C([H])([H])c2c([H])c(OC([H])([H])C([H])([H])C([H])([H])C([H])([H])C([H])(C([H])(C([H])([H])[H])C([H])(C(=O)N3C([H])([H])C([H])([H])C([H])([H])C([H])(n4nc(-c5c([H])c([H])c(Oc6c([H])c([H])c(F)c([H])c6F)c([H])c5[H])c(C(=O)N([H])[H])c4N([H])[H])C3([H])[H])C([H])([H])[H])[N+]([H])([H])C([H])([H])c3c(C([H])([H])[H])c([H])c(C([H])([H])[H])c([H])c3C([H])([H])[H])c([H])c([H])c2C1([H])[H]

>  <smiles>  (51) 
[H]c1c([H])c([H])c2c(c1[H])C([H])([H])C([H])([H])C([H])([H])C2([H])N([H])C(=O)C1([H])N(C(=O)C([H])(N([H])C(=O)C([H])(N([H])C([H])([H])[H])C([H])([H])[H])C(C([H])([H])[H])(C([H])([H])[H])C([H])([H])[H])C([H])([H])c2c([H])c(OC([H])([H])C([H])([H])C([H])([H])C([H])([H])C([H])(C([H])(C([H])([H])[H])C([H])(C(=O)N3C([H])([H])C([H])([H])C([H])([H])C([H])(n4nc(-c5c([H])c([H])c(Oc6c([H])c([H])c(F)c([H])c6F)c([H])c5[H])c(C(=O)N([H])[H])c4N([H])[H])C3([H])[H])C([H])([H])[H])[N+]([H])([H])C([H])([H])c3c(C([H])([H])[H])c([H])c(C([H])([H])[H])c([H])c3C([H])([H])[H])c([H])c([H])c2C1([H])[H]

$$$$
51:0:0
     RDKit          3D

 97 94  0  0  1  0  0  0  0  0999 V2000
  -20.7650  -26.6370   21.7130 C   0  0  0  0  0  1  0  0  0  0  0  0
  -22.7370  -25.6300   22.0660 C   0  0  0  0  0  2  0  0  0  0  0  0
  -23.8760  -25.4160   23.1910 C   0  0  0  0  0  1  0  0  0  0  0  0
  -22.9650  -26.8120   24.4450 C   0  0  0  0  0  1  0  0  0  0  0  0
  -20.4820  -27.9640   23.6310 C   0  0  0  0  0  2  0  0  0  0  0  0
  -19.9420  -27.5540   22.3890 N   0  0  0  0  0  2  0  0  0  0  0  0
  -17.9240  -28.2760   24.2240 C   0  0  0  0  0  1  0  0  0  0  0  0
  -19.1790  -30.2230   23.1350 C   0  0  0  0  0  1  0  0  0  0  0  0
  -19.2890  -28.9870   24.0580 C   0  0  0  0  0  3  0  0  0  0  0  0
  -23.3880  -27.3410   27.0830 C   0  0  0  0  0  1  0  0  0  0  0  0
  -25.1200  -27.9180   25.3000 C   0  0  0  0  0  1  0  0  0  0  0  0
  -23.9040  -27.0490   25.6590 C   0  0  0  0  0  3  0  0  0  0  0  0
  -23.8390  -24.8280   21.0320 C   0  0  0  0  0  2  0  0  0  0  0  0
  -24.9660  -25.0710   19.8370 C   0  0  0  0  0  2  0  0  0  0  0  0
  -26.5780  -25.0330   20.0390 C   0  0  0  0  0  2  0  0  0  0  0  0
  -27.5390  -24.1500   19.0320 C   0  0  0  0  0  2  0  0  0  0  0  0
  -28.4330  -24.7110   17.9500 O   0  0  0  0  0  0  0  0  0  0  0  0
  -23.2610  -29.2140   19.0080 C   0  0  0  0  0  0  0  0  0  0  0  0
  -27.7550  -25.6490   17.2470 C   0  0  0  0  0  0  0  0  0  0  0  0
  -23.2410  -27.8280   17.0270 C   0  0  0  0  0  3  0  0  0  0  0  0
  -25.4370  -26.7810   16.2410 C   0  0  0  0  0  0  0  0  0  0  0  0
  -25.4500  -28.6460   17.9150 C   0  0  0  0  0  2  0  0  0  0  0  0
  -26.0760  -27.3900   17.3300 C   0  0  0  0  0  0  0  0  0  0  0  0
  -27.2560  -26.8210   17.8570 C   0  0  0  0  0  3  0  0  0  0  0  0
  -27.2630  -25.2120   16.0120 C   0  0  0  0  0  3  0  0  0  0  0  0
  -26.0650  -25.7420   15.5370 C   0  0  0  0  0  3  0  0  0  0  0  0
  -24.1210  -27.3830   15.8210 C   0  0  0  0  0  2  0  0  0  0  0  0
  -23.9780  -28.6080   18.0240 N   0  0  0  0  0  0  0  0  0  0  0  0
  -22.0200  -29.1520   19.0510 O   0  0  0  0  0  0  0  0  0  0  0  0
  -22.6800  -26.6330   17.7490 C   0  0  0  0  0  0  0  0  0  0  0  0
  -21.4130  -26.5380   17.5760 N   0  0  0  0  0  0  0  0  0  0  0  0
  -23.3720  -25.7650   18.3120 O   0  0  0  0  0  0  0  0  0  0  0  0
  -20.8710  -27.2930   17.1760 H   0  0  0  0  0  0  0  0  0  0  0  0
  -17.6040  -24.2000   16.8350 C   0  0  0  0  0  2  0  0  0  0  0  0
  -21.1740  -25.2240   17.1680 C   0  0  0  0  0  2  0  0  0  0  0  0
  -21.2090  -24.9710   15.1780 C   0  0  0  0  0 15  0  0  0  0  0  0
  -19.4750  -24.2260   14.1170 C   0  0  0  0  0 15  0  0  0  0  0  0
  -17.7000  -23.9180   15.0940 C   0  0  0  0  0  1  0  0  0  0  0  0
  -19.7750  -25.0000   18.0620 C   0  0  0  0  0  2  0  0  0  0  0  0
  -19.3870  -25.5950   19.6050 C   0  0  0  0  0  3  0  0  0  0  0  0
  -17.8520  -25.6380   20.1900 C   0  0  0  0  0  3  0  0  0  0  0  0
  -16.4650  -25.1400   19.4480 C   0  0  0  0  0  3  0  0  0  0  0  0
  -16.2800  -24.4600   17.9280 C   0  0  0  0  0  3  0  0  0  0  0  0
  -23.9810  -30.0270   20.0990 C   0  0  0  0  0  3  0  0  0  0  0  0
  -23.4130  -31.3730   20.0260 N   0  0  0  0  0  0  0  0  0  0  0  0
  -23.4170  -32.1170   18.9170 C   0  0  0  0  0  0  0  0  0  0  0  0
  -23.9950  -31.7750   17.8830 O   0  0  0  0  0  0  0  0  0  0  0  0
  -22.8780  -31.6920   20.8210 H   0  0  0  0  0  0  0  0  0  0  0  0
  -21.3610  -33.3610   18.1790 C   0  0  0  0  0  1  0  0  0  0  0  0
  -22.6740  -33.4620   18.9720 C   0  0  0  0  0  3  0  0  0  0  0  0
  -24.5810  -34.9550   19.3560 C   0  0  0  0  0  1  0  0  0  0  0  0
  -23.4810  -34.5920   18.4660 N   0  0  0  0  0  0  0  0  0  0  0  0
  -22.9000  -35.4150   18.3270 H   0  0  0  0  0  0  0  0  0  0  0  0
  -23.8270  -29.4120   21.5390 C   0  0  1  0  0  0  0  0  0  0  0  0
  -22.3870  -28.9800   21.8950 C   0  0  0  0  0  1  0  0  0  0  0  0
  -24.7430  -28.1790   21.7210 C   0  0  0  0  0  1  0  0  0  0  0  0
  -24.2850  -30.4600   22.5760 C   0  0  0  0  0  1  0  0  0  0  0  0
  -25.8300  -23.5730   22.4780 C   0  0  0  0  0 15  0  0  0  0  0  0
  -27.9740  -22.0470   21.0580 C   0  0  0  0  0 15  0  0  0  0  0  0
  -31.3370  -19.1530   19.4000 C   0  0  0  0  0  2  0  0  0  0  0  0
  -33.1980  -16.9990   17.7920 C   0  0  0  0  0  2  0  0  0  0  0  0
  -33.0340  -15.7010   16.7570 C   0  0  0  0  0  2  0  0  0  0  0  0
  -32.2360  -14.5480   17.3490 C   0  0  0  0  0  2  0  0  0  0  0  0
  -31.4040  -15.2980   18.3710 C   0  0  0  0  0  3  0  0  0  0  0  0
  -32.0980  -16.2110   19.4340 C   0  0  0  0  0  2  0  0  0  0  0  0
  -31.9980  -17.6250   18.8850 N   0  0  0  0  0  0  0  0  0  0  0  0
  -32.5360  -19.4600   18.8750 O   0  0  0  0  0  1  0  0  0  0  0  0
  -29.7230  -20.2930   20.2050 N   0  0  0  0  0  1  0  0  0  0  0  0
  -30.3680  -21.0630   20.0840 H   0  0  0  0  0  0  0  0  0  0  0  0
  -29.2100  -15.2360   19.3490 C   0  0  0  0  0  0  0  0  0  0  0  0
  -28.5370  -14.3000   20.0430 C   0  0  0  0  0  0  0  0  0  0  0  0
  -29.3920  -13.1530   20.1000 C   0  0  0  0  0  0  0  0  0  0  0  0
  -30.3950  -14.6250   19.0360 N   0  0  0  0  0  0  0  0  0  0  0  0
  -30.5640  -13.3920   19.5380 N   0  0  0  0  0  0  0  0  0  0  0  0
  -29.1180  -11.8150   20.5870 C   0  0  0  0  0  0  0  0  0  0  0  0
  -30.1420  -10.9830   21.0830 C   0  0  0  0  0  3  0  0  0  0  0  0
  -29.8270   -9.7000   21.5710 C   0  0  0  0  0  3  0  0  0  0  0  0
  -28.4840   -9.2530   21.5680 C   0  0  0  0  0  0  0  0  0  0  0  0
  -27.4760  -10.0820   21.0440 C   0  0  0  0  0  3  0  0  0  0  0  0
  -27.7910  -11.3530   20.5520 C   0  0  0  0  0  3  0  0  0  0  0  0
  -28.0830   -8.0170   22.0050 O   0  0  0  0  0  0  0  0  0  0  0  0
  -28.9880   -7.0980   22.4670 C   0  0  0  0  0  0  0  0  0  0  0  0
  -30.0250   -7.4540   23.3570 C   0  0  0  0  0  3  0  0  0  0  0  0
  -30.8870   -6.4610   23.8620 C   0  0  0  0  0  3  0  0  0  0  0  0
  -30.7090   -5.1160   23.4850 C   0  0  0  0  0  0  0  0  0  0  0  0
  -29.6770   -4.7610   22.5980 C   0  0  0  0  0  3  0  0  0  0  0  0
  -28.8170   -5.7510   22.0930 C   0  0  0  0  0  0  0  0  0  0  0  0
  -27.8080   -5.4050   21.2570 F   0  0  0  0  0  0  0  0  0  0  0  0
  -31.5330   -4.1610   23.9750 F   0  0  0  0  0  0  0  0  0  0  0  0
  -27.1380  -14.4590   20.5200 C   0  0  0  0  0  0  0  0  0  0  0  0
  -26.7740  -13.7400   21.5710 N   0  0  0  0  0  0  0  0  0  0  0  0
  -26.3830  -15.2780   19.9960 O   0  0  0  0  0  0  0  0  0  0  0  0
  -27.4120  -13.0900   22.0050 H   0  0  0  0  0  0  0  0  0  0  0  0
  -25.8430  -13.8450   21.9480 H   0  0  0  0  0  0  0  0  0  0  0  0
  -28.9110  -16.5420   18.9480 N   0  0  0  0  0  0  0  0  0  0  0  0
  -27.9800  -16.9280   19.0590 H   0  0  0  0  0  0  0  0  0  0  0  0
  -29.4370  -16.9810   18.2070 H   0  0  0  0  0  0  0  0  0  0  0  0
  1  6  1  0
  2  3  1  0
  4 12  1  0
  5  9  1  0
  6  5  1  0
  8  9  1  0
  9  7  1  0
 11 12  1  0
 12 10  1  0
 13  2  1  0
 14 15  1  0
 14 13  1  0
 16 15  1  0
 17 16  1  0
 18 29  2  0
 19 24  1  0
 19 17  1  0
 20 30  1  0
 20 28  1  0
 21 23  1  0
 22 28  1  0
 23 24  2  0
 23 22  1  0
 25 19  2  0
 26 25  1  0
 26 21  2  0
 27 21  1  0
 27 20  1  0
 28 18  1  0
 30 32  2  0
 31 30  1  0
 33 31  1  0
 34 43  1  0
 35 31  1  0
 35 39  1  0
 38 34  1  0
 39 40  1  0
 40 41  2  0
 42 41  1  0
 43 42  2  0
 44 18  1  0
 44 54  1  0
 45 44  1  0
 45 48  1  0
 46 50  1  0
 46 45  1  0
 47 46  2  0
 50 49  1  0
 52 50  1  0
 52 51  1  0
 53 52  1  0
 54 56  1  6
 54 55  1  0
 54 57  1  0
 61 66  1  0
 62 63  1  0
 62 61  1  0
 64 63  1  0
 64 73  1  0
 64 65  1  0
 66 60  1  0
 66 65  1  0
 67 60  1  0
 69 68  1  0
 70 71  2  0
 71 72  1  0
 71 90  1  0
 72 75  1  0
 73 70  1  0
 73 74  1  0
 74 72  2  0
 75 76  1  0
 76 77  2  0
 78 77  1  0
 78 81  1  0
 79 78  2  0
 80 75  2  0
 80 79  1  0
 81 82  1  0
 82 83  1  0
 83 84  2  0
 85 84  1  0
 85 89  1  0
 86 85  2  0
 87 82  2  0
 87 86  1  0
 88 87  1  0
 90 91  1  0
 91 94  1  0
 91 93  1  0
 92 90  2  0
 95 96  1  0
 95 70  1  0
 97 95  1  0
M  ISO  4  16 101  17 101  60 100  68 100
M  END
>  <TORSDO>  (52) 
F 24

>  <SCORE>  (52) 
15.992

>  <name>  (52) 
51

>  <ligand_id>  (52) 
51

>  <original_smiles>  (52) 
[H]c1nc(C([H])(C([H])([H])[H])C([H])([H])[H])c(C([H])(C([H])([H])[H])C([H])([H])[H])c(C([H])([H])C([H])([H])N([H])C(=O)N2C([H])([H])C([H])([H])C([H])([H])C([H])(n3nc(-c4c([H])c([H])c(Oc5c([H])c([H])c(F)c([H])c5F)c([H])c4[H])c(C(=O)N([H])[H])c3N([H])[H])C2([H])[H])c1C([H])([H])C([H])([H])C([H])([H])C([H])([H])Oc1c([H])c([H])c2c(c1[H])C([H])([H])N(C(=O)C([H])(N([H])C(=O)C([H])(N([H])C([H])([H])[H])C([H])([H])[H])C(C([H])([H])[H])(C([H])([H])[H])C([H])([H])[H])C([H])(C(=O)N([H])C1([H])c3c([H])c([H])c([H])c([H])c3C([H])([H])C([H])([H])C1([H])[H])C2([H])[H]

>  <smiles>  (52) 
[H]c1nc(C([H])(C([H])([H])[H])C([H])([H])[H])c(C([H])(C([H])([H])[H])C([H])([H])[H])c(C([H])([H])C([H])([H])N([H])C(=O)N2C([H])([H])C([H])([H])C([H])([H])C([H])(n3nc(-c4c([H])c([H])c(Oc5c([H])c([H])c(F)c([H])c5F)c([H])c4[H])c(C(=O)N([H])[H])c3N([H])[H])C2([H])[H])c1C([H])([H])C([H])([H])C([H])([H])C([H])([H])Oc1c([H])c([H])c2c(c1[H])C([H])([H])N(C(=O)C([H])(N([H])C(=O)C([H])(N([H])C([H])([H])[H])C([H])([H])[H])C(C([H])([H])[H])(C([H])([H])[H])C([H])([H])[H])C([H])(C(=O)N([H])C1([H])c3c([H])c([H])c([H])c([H])c3C([H])([H])C([H])([H])C1([H])[H])C2([H])[H]

$$$$
52:0:0
     RDKit          3D

 97105  0  0  1  0  0  0  0  0999 V2000
  -30.3800  -23.6390   19.5850 C   0  0  0  0  0  3  0  0  0  0  0  0
  -31.4080  -22.6820   19.4970 C   0  0  0  0  0  3  0  0  0  0  0  0
  -28.9670  -21.8330   20.3140 C   0  0  0  0  0  3  0  0  0  0  0  0
  -29.1100  -23.3030   20.0490 C   0  0  0  0  0  0  0  0  0  0  0  0
  -31.3240  -21.3080   19.8890 C   0  0  0  0  0  0  0  0  0  0  0  0
  -30.0210  -20.7590   20.2460 C   0  0  0  0  0  0  0  0  0  0  0  0
  -33.3060  -21.2240   21.4110 C   0  0  0  0  0  1  0  0  0  0  0  0
  -33.7520  -21.0450   18.9550 C   0  0  0  0  0  1  0  0  0  0  0  0
  -32.8950  -19.1420   20.1750 C   0  0  0  0  0  1  0  0  0  0  0  0
  -32.7490  -20.6660   20.0880 C   0  0  2  0  0  0  0  0  0  0  0  0
  -29.8050  -19.1630   20.7440 C   0  0  0  0  0  2  0  0  0  0  0  0
  -30.0120  -17.6940   19.8830 C   0  0  0  0  0  3  0  0  0  0  0  0
  -30.5480  -14.9930   20.2940 C   0  0  0  0  0  0  0  0  0  0  0  0
  -30.3730  -12.6250   19.3870 C   0  0  0  0  0  2  0  0  0  0  0  0
  -29.4300  -12.5790   18.1630 C   0  0  0  0  0  2  0  0  0  0  0  0
  -27.9710  -12.3890   18.6050 C   0  0  0  0  0  2  0  0  0  0  0  0
  -27.5830  -13.2980   19.7970 C   0  0  0  0  0  3  0  0  0  0  0  0
  -28.6610  -13.3320   20.9070 C   0  0  0  0  0  2  0  0  0  0  0  0
  -29.9260  -13.7370   20.2810 N   0  0  0  0  0  0  0  0  0  0  0  0
  -31.7320  -15.0200   19.9430 O   0  0  0  0  0  0  0  0  0  0  0  0
  -29.8260  -16.2150   20.4680 N   0  0  0  0  0  0  0  0  0  0  0  0
  -28.9080  -16.0580   20.8580 H   0  0  0  0  0  0  0  0  0  0  0  0
  -25.2090  -13.8670   20.5640 C   0  0  0  0  0  0  0  0  0  0  0  0
  -24.1480  -13.0910   20.9370 C   0  0  0  0  0  0  0  0  0  0  0  0
  -24.6090  -11.7360   20.8920 C   0  0  0  0  0  0  0  0  0  0  0  0
  -26.2520  -12.9900   20.3110 N   0  0  0  0  0  0  0  0  0  0  0  0
  -25.8980  -11.7020   20.5720 N   0  0  0  0  0  0  0  0  0  0  0  0
  -23.8780  -10.4750   21.0760 C   0  0  0  0  0  0  0  0  0  0  0  0
  -24.3160   -9.4940   21.9940 C   0  0  0  0  0  3  0  0  0  0  0  0
  -23.5810   -8.3020   22.1690 C   0  0  0  0  0  3  0  0  0  0  0  0
  -22.3950   -8.0820   21.4290 C   0  0  0  0  0  0  0  0  0  0  0  0
  -21.9780   -9.0510   20.4980 C   0  0  0  0  0  3  0  0  0  0  0  0
  -22.7120  -10.2350   20.3210 C   0  0  0  0  0  3  0  0  0  0  0  0
  -21.6330   -6.9410   21.5140 O   0  0  0  0  0  0  0  0  0  0  0  0
  -21.5990   -6.1810   22.6570 C   0  0  0  0  0  0  0  0  0  0  0  0
  -21.2000   -6.7220   23.8990 C   0  0  0  0  0  3  0  0  0  0  0  0
  -21.1160   -5.8930   25.0360 C   0  0  0  0  0  3  0  0  0  0  0  0
  -21.4180   -4.5220   24.9300 C   0  0  0  0  0  0  0  0  0  0  0  0
  -21.8080   -3.9790   23.6930 C   0  0  0  0  0  3  0  0  0  0  0  0
  -21.8960   -4.8070   22.5590 C   0  0  0  0  0  0  0  0  0  0  0  0
  -22.2540   -4.2760   21.3660 F   0  0  0  0  0  0  0  0  0  0  0  0
  -21.3270   -3.7210   26.0170 F   0  0  0  0  0  0  0  0  0  0  0  0
  -22.7550  -13.5690   21.2210 C   0  0  0  0  0  0  0  0  0  0  0  0
  -22.0340  -12.8670   22.0870 N   0  0  0  0  0  0  0  0  0  0  0  0
  -22.3160  -14.6020   20.7100 O   0  0  0  0  0  0  0  0  0  0  0  0
  -22.4070  -12.0380   22.5250 H   0  0  0  0  0  0  0  0  0  0  0  0
  -21.0950  -13.1620   22.3130 H   0  0  0  0  0  0  0  0  0  0  0  0
  -25.3790  -15.2380   20.3870 N   0  0  0  0  0  0  0  0  0  0  0  0
  -24.6220  -15.9010   20.5030 H   0  0  0  0  0  0  0  0  0  0  0  0
  -26.2190  -15.6620   20.0180 H   0  0  0  0  0  0  0  0  0  0  0  0
  -29.1330  -17.8060   18.6190 C   0  0  0  0  0  2  0  0  0  0  0  0
  -29.5490  -18.8990   17.7180 N   0  0  0  0  0  4  0  0  0  0  0  0
  -29.6160  -19.7720   18.2170 H   0  0  0  0  0  0  0  0  0  0  0  0
  -28.8910  -19.0050   16.9650 H   0  0  0  0  0  0  0  0  0  0  0  0
  -30.4470  -18.6870   17.3180 H   0  0  0  0  0  0  0  0  0  0  0  0
  -27.9920  -24.5320   20.1160 C   0  0  0  0  0  2  0  0  0  0  0  0
  -28.2680  -26.0840   20.2000 O   0  0  0  0  0  0  0  0  0  0  0  0
  -24.6110  -31.8290   23.2030 C   0  0  0  0  0  0  0  0  0  0  0  0
  -27.2040  -27.0760   20.1690 C   0  0  0  0  0  0  0  0  0  0  0  0
  -23.4190  -30.4330   21.5610 C   0  0  0  0  0  3  0  0  0  0  0  0
  -24.8720  -28.8460   20.1420 C   0  0  0  0  0  0  0  0  0  0  0  0
  -25.9760  -30.6790   21.4100 C   0  0  0  0  0  2  0  0  0  0  0  0
  -26.0530  -29.2840   20.7560 C   0  0  0  0  0  0  0  0  0  0  0  0
  -27.2170  -28.4160   20.7480 C   0  0  0  0  0  3  0  0  0  0  0  0
  -25.9830  -26.7440   19.5370 C   0  0  0  0  0  3  0  0  0  0  0  0
  -24.8530  -27.5910   19.5170 C   0  0  0  0  0  3  0  0  0  0  0  0
  -23.6460  -29.7500   20.1840 C   0  0  0  0  0  2  0  0  0  0  0  0
  -24.6890  -31.0030   22.1140 N   0  0  0  0  0  0  0  0  0  0  0  0
  -23.5210  -32.1160   23.7230 O   0  0  0  0  0  0  0  0  0  0  0  0
  -22.7280  -29.4300   22.5220 C   0  0  0  0  0  0  0  0  0  0  0  0
  -21.3980  -29.2720   22.3960 N   0  0  0  0  0  0  0  0  0  0  0  0
  -23.3930  -28.7960   23.3460 O   0  0  0  0  0  0  0  0  0  0  0  0
  -20.9160  -29.8380   21.7110 H   0  0  0  0  0  0  0  0  0  0  0  0
  -18.0070  -28.0980   22.9060 C   0  0  0  0  0  0  0  0  0  0  0  0
  -20.5690  -28.3350   23.1610 C   0  0  0  0  0  3  0  0  0  0  0  0
  -20.6530  -26.9060   22.5770 C   0  0  0  0  0  2  0  0  0  0  0  0
  -19.5440  -26.6020   21.5640 C   0  0  0  0  0  2  0  0  0  0  0  0
  -18.1670  -26.7540   22.2170 C   0  0  0  0  0  2  0  0  0  0  0  0
  -19.1340  -28.8480   23.3360 C   0  0  0  0  0  0  0  0  0  0  0  0
  -18.9290  -30.1070   23.9430 C   0  0  0  0  0  3  0  0  0  0  0  0
  -17.6270  -30.6150   24.1200 C   0  0  0  0  0  3  0  0  0  0  0  0
  -16.5140  -29.8630   23.7070 C   0  0  0  0  0  3  0  0  0  0  0  0
  -16.7050  -28.6060   23.1070 C   0  0  0  0  0  3  0  0  0  0  0  0
  -25.8830  -32.4660   23.8430 C   0  0  0  0  0  3  0  0  0  0  0  0
  -25.5630  -33.8590   24.1920 N   0  0  0  0  0  0  0  0  0  0  0  0
  -25.8730  -34.9270   23.4450 C   0  0  0  0  0  0  0  0  0  0  0  0
  -26.5240  -34.8440   22.4010 O   0  0  0  0  0  0  0  0  0  0  0  0
  -24.9820  -33.9980   25.0070 H   0  0  0  0  0  0  0  0  0  0  0  0
  -24.1150  -36.7080   23.1630 C   0  0  0  0  0  1  0  0  0  0  0  0
  -25.3840  -36.3080   23.9330 C   0  0  0  0  0  3  0  0  0  0  0  0
  -27.5310  -37.2080   24.7130 C   0  0  0  0  0  1  0  0  0  0  0  0
  -26.4010  -37.3740   23.8030 N   0  0  0  0  0  0  0  0  0  0  0  0
  -25.9890  -38.2880   23.9730 H   0  0  0  0  0  0  0  0  0  0  0  0
  -26.3950  -31.6860   25.1160 C   0  0  1  0  0  0  0  0  0  0  0  0
  -25.2990  -31.4330   26.1800 C   0  0  0  0  0  1  0  0  0  0  0  0
  -26.9840  -30.3150   24.7180 C   0  0  0  0  0  1  0  0  0  0  0  0
  -27.5450  -32.4750   25.7880 C   0  0  0  0  0  1  0  0  0  0  0  0
  1  4  1  0
  2  1  2  0
  2  5  1  0
  4 56  1  0
  4  3  2  0
  5 10  1  0
  5  6  2  0
  6  3  1  0
  6 11  1  0
 10  8  1  6
 10  9  1  0
 10  7  1  0
 12 51  1  0
 12 21  1  0
 12 11  1  0
 13 21  1  0
 14 19  1  0
 15 16  1  0
 15 14  1  0
 17 16  1  0
 17 26  1  0
 17 18  1  0
 19 13  1  0
 19 18  1  0
 20 13  2  0
 21 22  1  0
 23 24  2  0
 24 43  1  0
 25 24  1  0
 25 28  1  0
 26 23  1  0
 26 27  1  0
 27 25  2  0
 28 29  1  0
 29 30  2  0
 31 34  1  0
 31 30  1  0
 32 31  2  0
 33 32  1  0
 33 28  2  0
 34 35  1  0
 35 36  1  0
 36 37  2  0
 38 37  1  0
 38 42  1  0
 39 38  2  0
 40 35  2  0
 40 39  1  0
 41 40  1  0
 43 44  1  0
 44 47  1  0
 44 46  1  0
 45 43  2  0
 48 49  1  0
 48 23  1  0
 50 48  1  0
 52 53  1  0
 52 51  1  0
 54 52  1  0
 55 52  1  0
 56 57  1  0
 58 69  2  0
 59 57  1  0
 59 64  1  0
 60 68  1  0
 60 70  1  0
 61 67  1  0
 61 63  1  0
 62 68  1  0
 63 62  1  0
 64 63  2  0
 65 59  2  0
 66 65  1  0
 66 61  2  0
 67 60  1  0
 68 58  1  0
 70 72  2  0
 71 70  1  0
 73 71  1  0
 74 83  2  0
 74 79  1  0
 75 71  1  0
 75 79  1  0
 76 75  1  0
 77 78  1  0
 77 76  1  0
 78 74  1  0
 79 80  2  0
 80 81  1  0
 82 81  2  0
 83 82  1  0
 84 58  1  0
 84 85  1  0
 84 94  1  0
 85 88  1  0
 86 90  1  0
 86 85  1  0
 87 86  2  0
 90 89  1  0
 92 90  1  0
 92 93  1  0
 92 91  1  0
 94 97  1  1
 94 95  1  0
 96 94  1  0
M  ISO  4  13 100  21 100  56 101  57 101
M  END
>  <TORSDO>  (53) 
F 22

>  <SCORE>  (53) 
-13.877

>  <name>  (53) 
52

>  <ligand_id>  (53) 
52

>  <original_smiles>  (53) 
[H]c1c([H])c([H])c2c(c1[H])C([H])([H])C([H])([H])C([H])([H])C2([H])N([H])C(=O)C1([H])N(C(=O)C([H])(N([H])C(=O)C([H])(N([H])C([H])([H])[H])C([H])([H])[H])C(C([H])([H])[H])(C([H])([H])[H])C([H])([H])[H])C([H])([H])c2c([H])c(OC([H])([H])c3c([H])c([H])c(C(C([H])([H])[H])(C([H])([H])[H])C([H])([H])[H])c(C([H])([H])C([H])(N([H])C(=O)N4C([H])([H])C([H])([H])C([H])([H])C([H])(n5nc(-c6c([H])c([H])c(Oc7c([H])c([H])c(F)c([H])c7F)c([H])c6[H])c(C(=O)N([H])[H])c5N([H])[H])C4([H])[H])C([H])([H])[N+]([H])([H])[H])c3[H])c([H])c([H])c2C1([H])[H]

>  <smiles>  (53) 
[H]c1c([H])c([H])c2c(c1[H])C([H])([H])C([H])([H])C([H])([H])C2([H])N([H])C(=O)C1([H])N(C(=O)C([H])(N([H])C(=O)C([H])(N([H])C([H])([H])[H])C([H])([H])[H])C(C([H])([H])[H])(C([H])([H])[H])C([H])([H])[H])C([H])([H])c2c([H])c(OC([H])([H])c3c([H])c([H])c(C(C([H])([H])[H])(C([H])([H])[H])C([H])([H])[H])c(C([H])([H])C([H])(N([H])C(=O)N4C([H])([H])C([H])([H])C([H])([H])C([H])(n5nc(-c6c([H])c([H])c(Oc7c([H])c([H])c(F)c([H])c7F)c([H])c6[H])c(C(=O)N([H])[H])c5N([H])[H])C4([H])[H])C([H])([H])[N+]([H])([H])[H])c3[H])c([H])c([H])c2C1([H])[H]

$$$$
53:0:0
     RDKit          3D

 96104  0  0  1  0  0  0  0  0999 V2000
  -29.8790  -19.9300   20.8250 C   0  0  0  0  0  3  0  0  0  0  0  0
  -29.3080  -18.5200   18.9620 C   0  0  0  0  0  3  0  0  0  0  0  0
  -29.9040  -18.6100   20.2280 C   0  0  0  0  0  0  0  0  0  0  0  0
  -29.2090  -21.0680   20.2180 C   0  0  0  0  0  0  0  0  0  0  0  0
  -28.5960  -20.7640   18.9690 C   0  0  0  0  0  0  0  0  0  0  0  0
  -28.7160  -19.5630   18.3490 N   0  0  0  0  0  0  0  0  0  0  0  0
  -30.6060  -17.3380   20.8680 C   0  0  0  0  0  2  0  0  0  0  0  0
  -30.7780  -14.8170   20.2490 C   0  0  0  0  0  0  0  0  0  0  0  0
  -30.4350  -12.6860   19.0050 C   0  0  0  0  0  2  0  0  0  0  0  0
  -29.4580  -12.9340   17.8310 C   0  0  0  0  0  2  0  0  0  0  0  0
  -27.9970  -12.7780   18.2940 C   0  0  0  0  0  2  0  0  0  0  0  0
  -27.7100  -13.5390   19.6150 C   0  0  0  0  0  3  0  0  0  0  0  0
  -28.7990  -13.2880   20.6790 C   0  0  0  0  0  2  0  0  0  0  0  0
  -30.0920  -13.6420   20.0800 N   0  0  0  0  0  0  0  0  0  0  0  0
  -31.9470  -14.9210   19.8690 O   0  0  0  0  0  0  0  0  0  0  0  0
  -30.0770  -15.9270   20.6690 N   0  0  0  0  0  0  0  0  0  0  0  0
  -29.1180  -15.7590   20.9310 H   0  0  0  0  0  0  0  0  0  0  0  0
  -25.3560  -14.1320   20.4410 C   0  0  0  0  0  0  0  0  0  0  0  0
  -24.2830  -13.3610   20.7870 C   0  0  0  0  0  0  0  0  0  0  0  0
  -24.7100  -12.0040   20.6460 C   0  0  0  0  0  0  0  0  0  0  0  0
  -26.3740  -13.2500   20.1210 N   0  0  0  0  0  0  0  0  0  0  0  0
  -25.9930  -11.9590   20.3050 N   0  0  0  0  0  0  0  0  0  0  0  0
  -23.9550  -10.7530   20.7590 C   0  0  0  0  0  0  0  0  0  0  0  0
  -24.4240   -9.6790   21.5460 C   0  0  0  0  0  3  0  0  0  0  0  0
  -23.6770   -8.4870   21.6560 C   0  0  0  0  0  3  0  0  0  0  0  0
  -22.4420   -8.3600   20.9740 C   0  0  0  0  0  0  0  0  0  0  0  0
  -21.9880   -9.4250   20.1740 C   0  0  0  0  0  3  0  0  0  0  0  0
  -22.7370  -10.6090   20.0650 C   0  0  0  0  0  3  0  0  0  0  0  0
  -21.6580   -7.2310   21.0030 O   0  0  0  0  0  0  0  0  0  0  0  0
  -21.7050   -6.3460   22.0520 C   0  0  0  0  0  0  0  0  0  0  0  0
  -21.4600   -6.7520   23.3830 C   0  0  0  0  0  3  0  0  0  0  0  0
  -21.4500   -5.8000   24.4200 C   0  0  0  0  0  3  0  0  0  0  0  0
  -21.6730   -4.4400   24.1290 C   0  0  0  0  0  0  0  0  0  0  0  0
  -21.9080   -4.0320   22.8060 C   0  0  0  0  0  3  0  0  0  0  0  0
  -21.9210   -4.9800   21.7700 C   0  0  0  0  0  0  0  0  0  0  0  0
  -22.1250   -4.5790   20.4920 F   0  0  0  0  0  0  0  0  0  0  0  0
  -21.6590   -3.5230   25.1250 F   0  0  0  0  0  0  0  0  0  0  0  0
  -22.9080  -13.8470   21.1360 C   0  0  0  0  0  0  0  0  0  0  0  0
  -22.2140  -13.1360   22.0140 N   0  0  0  0  0  0  0  0  0  0  0  0
  -22.4610  -14.8960   20.6690 O   0  0  0  0  0  0  0  0  0  0  0  0
  -22.6060  -12.3060   22.4340 H   0  0  0  0  0  0  0  0  0  0  0  0
  -21.2980  -13.4490   22.3020 H   0  0  0  0  0  0  0  0  0  0  0  0
  -25.5400  -15.5070   20.3390 N   0  0  0  0  0  0  0  0  0  0  0  0
  -24.7570  -16.1440   20.4220 H   0  0  0  0  0  0  0  0  0  0  0  0
  -26.3530  -15.9320   19.9150 H   0  0  0  0  0  0  0  0  0  0  0  0
  -27.7170  -21.7620   18.2160 C   0  0  0  0  0  2  0  0  0  0  0  0
  -26.6330  -21.1500   17.3030 C   0  0  0  0  0  2  0  0  0  0  0  0
  -24.3080  -20.2330   16.9950 C   0  0  0  0  0  1  0  0  0  0  0  0
  -25.7100  -19.3550   18.9200 C   0  0  0  0  0  1  0  0  0  0  0  0
  -25.3950  -20.5710   18.0250 C   0  0  0  0  0  3  0  0  0  0  0  0
  -28.9950  -22.5110   20.9130 C   0  0  0  0  0  3  0  0  0  0  0  0
  -29.5970  -21.8580   23.4070 C   0  0  0  0  0  1  0  0  0  0  0  0
  -29.8830  -22.7320   22.1690 C   0  0  0  0  0  2  0  0  0  0  0  0
  -29.0010  -23.8870   20.0330 C   0  0  0  0  0  3  0  0  0  0  0  0
  -28.3990  -25.2540   20.6650 C   0  0  0  0  0  3  0  0  0  0  0  0
  -28.4420  -26.5640   19.9510 O   0  0  0  0  0  0  0  0  0  0  0  0
  -24.6310  -31.8180   23.1560 C   0  0  0  0  0  0  0  0  0  0  0  0
  -27.3050  -27.3900   19.9830 C   0  0  0  0  0  0  0  0  0  0  0  0
  -23.4390  -30.4450   21.4810 C   0  0  0  0  0  3  0  0  0  0  0  0
  -24.9080  -28.9570   20.0050 C   0  0  0  0  0  0  0  0  0  0  0  0
  -25.9660  -30.8270   21.2750 C   0  0  0  0  0  2  0  0  0  0  0  0
  -26.0730  -29.4630   20.5990 C   0  0  0  0  0  0  0  0  0  0  0  0
  -27.2780  -28.6990   20.5650 C   0  0  0  0  0  3  0  0  0  0  0  0
  -26.1160  -26.9280   19.3810 C   0  0  0  0  0  3  0  0  0  0  0  0
  -24.9340  -27.6970   19.3840 C   0  0  0  0  0  3  0  0  0  0  0  0
  -23.6540  -29.8040   20.0820 C   0  0  0  0  0  2  0  0  0  0  0  0
  -24.6990  -31.0460   22.0290 N   0  0  0  0  0  0  0  0  0  0  0  0
  -23.5460  -32.0530   23.7070 O   0  0  0  0  0  0  0  0  0  0  0  0
  -22.8040  -29.3920   22.4200 C   0  0  0  0  0  0  0  0  0  0  0  0
  -21.4840  -29.1820   22.2930 N   0  0  0  0  0  0  0  0  0  0  0  0
  -23.5030  -28.7650   23.2210 O   0  0  0  0  0  0  0  0  0  0  0  0
  -20.9800  -29.7400   21.6190 H   0  0  0  0  0  0  0  0  0  0  0  0
  -18.1460  -27.8590   22.7350 C   0  0  0  0  0  0  0  0  0  0  0  0
  -20.6910  -28.2040   23.0420 C   0  0  0  0  0  3  0  0  0  0  0  0
  -20.8480  -26.7860   22.4430 C   0  0  0  0  0  2  0  0  0  0  0  0
  -19.7700  -26.4430   21.4120 C   0  0  0  0  0  2  0  0  0  0  0  0
  -18.3780  -26.5290   22.0420 C   0  0  0  0  0  2  0  0  0  0  0  0
  -19.2310  -28.6550   23.1900 C   0  0  0  0  0  0  0  0  0  0  0  0
  -18.9570  -29.9030   23.7940 C   0  0  0  0  0  3  0  0  0  0  0  0
  -17.6310  -30.3490   23.9550 C   0  0  0  0  0  3  0  0  0  0  0  0
  -16.5620  -29.5500   23.5150 C   0  0  0  0  0  3  0  0  0  0  0  0
  -16.8200  -28.3080   22.9110 C   0  0  0  0  0  3  0  0  0  0  0  0
  -25.9040  -32.4580   23.7870 C   0  0  0  0  0  3  0  0  0  0  0  0
  -25.5790  -33.8480   24.1370 N   0  0  0  0  0  0  0  0  0  0  0  0
  -25.8990  -34.9150   23.3940 C   0  0  0  0  0  0  0  0  0  0  0  0
  -26.5640  -34.8320   22.3600 O   0  0  0  0  0  0  0  0  0  0  0  0
  -24.9900  -33.9860   24.9470 H   0  0  0  0  0  0  0  0  0  0  0  0
  -24.1380  -36.6820   23.0840 C   0  0  0  0  0  1  0  0  0  0  0  0
  -25.3980  -36.2920   23.8750 C   0  0  0  0  0  3  0  0  0  0  0  0
  -27.5290  -37.2000   24.6870 C   0  0  0  0  0  1  0  0  0  0  0  0
  -26.4100  -37.3640   23.7600 N   0  0  0  0  0  0  0  0  0  0  0  0
  -25.9900  -38.2750   23.9230 H   0  0  0  0  0  0  0  0  0  0  0  0
  -26.4280  -31.6760   25.0530 C   0  0  1  0  0  0  0  0  0  0  0  0
  -25.3430  -31.4230   26.1250 C   0  0  0  0  0  1  0  0  0  0  0  0
  -27.0090  -30.3060   24.6410 C   0  0  0  0  0  1  0  0  0  0  0  0
  -27.5810  -32.4640   25.7170 C   0  0  0  0  0  1  0  0  0  0  0  0
  2  3  2  0
  3  1  1  0
  3  7  1  0
  4  1  2  0
  4 51  1  0
  5  4  1  0
  6  2  1  0
  6  5  2  0
  8 16  1  0
  9 14  1  0
 10 11  1  0
 10  9  1  0
 12 11  1  0
 12 21  1  0
 12 13  1  0
 14  8  1  0
 14 13  1  0
 15  8  2  0
 16  7  1  0
 16 17  1  0
 18 19  2  0
 19 38  1  0
 20 23  1  0
 20 19  1  0
 21 22  1  0
 21 18  1  0
 22 20  2  0
 23 24  1  0
 24 25  2  0
 26 29  1  0
 26 25  1  0
 27 26  2  0
 28 27  1  0
 28 23  2  0
 29 30  1  0
 30 31  1  0
 31 32  2  0
 33 32  1  0
 33 37  1  0
 34 33  2  0
 35 30  2  0
 35 34  1  0
 36 35  1  0
 38 39  1  0
 39 42  1  0
 39 41  1  0
 40 38  2  0
 43 44  1  0
 43 18  1  0
 45 43  1  0
 46  5  1  0
 47 50  1  0
 47 46  1  0
 48 50  1  0
 50 49  1  0
 51 54  1  0
 51 53  1  0
 53 52  1  0
 54 55  2  0
 56 58  1  0
 56 55  1  0
 57 68  2  0
 58 63  1  0
 59 67  1  0
 59 69  1  0
 60 66  1  0
 60 62  1  0
 61 67  1  0
 62 61  1  0
 63 62  2  0
 64 65  1  0
 64 58  2  0
 65 60  2  0
 66 59  1  0
 67 57  1  0
 69 71  2  0
 70 69  1  0
 72 70  1  0
 73 82  2  0
 73 78  1  0
 74 70  1  0
 74 78  1  0
 75 74  1  0
 76 77  1  0
 76 75  1  0
 77 73  1  0
 78 79  2  0
 79 80  1  0
 81 80  2  0
 82 81  1  0
 83 57  1  0
 83 84  1  0
 83 93  1  0
 84 87  1  0
 85 89  1  0
 85 84  1  0
 86 85  2  0
 89 88  1  0
 91 89  1  0
 91 92  1  0
 91 90  1  0
 93 96  1  1
 93 94  1  0
 95 93  1  0
M  ISO  4   8 100  16 100  55 101  56 101
M  END
>  <TORSDO>  (54) 
F 24

>  <SCORE>  (54) 
-11.490

>  <name>  (54) 
53

>  <ligand_id>  (54) 
53

>  <original_smiles>  (54) 
[H]c1nc(C([H])([H])C([H])([H])C([H])(C([H])([H])[H])C([H])([H])[H])c(C([H])(C([H])([H])C([H])([H])[H])C([H])([H])C([H])([H])Oc2c([H])c([H])c3c(c2[H])C([H])([H])N(C(=O)C([H])(N([H])C(=O)C([H])(N([H])C([H])([H])[H])C([H])([H])[H])C(C([H])([H])[H])(C([H])([H])[H])C([H])([H])[H])C([H])(C(=O)N([H])C2([H])c4c([H])c([H])c([H])c([H])c4C([H])([H])C([H])([H])C2([H])[H])C3([H])[H])c([H])c1C([H])([H])N([H])C(=O)N1C([H])([H])C([H])([H])C([H])([H])C([H])(n2nc(-c3c([H])c([H])c(Oc4c([H])c([H])c(F)c([H])c4F)c([H])c3[H])c(C(=O)N([H])[H])c2N([H])[H])C1([H])[H]

>  <smiles>  (54) 
[H]c1nc(C([H])([H])C([H])([H])C([H])(C([H])([H])[H])C([H])([H])[H])c(C([H])(C([H])([H])C([H])([H])[H])C([H])([H])C([H])([H])Oc2c([H])c([H])c3c(c2[H])C([H])([H])N(C(=O)C([H])(N([H])C(=O)C([H])(N([H])C([H])([H])[H])C([H])([H])[H])C(C([H])([H])[H])(C([H])([H])[H])C([H])([H])[H])C([H])(C(=O)N([H])C2([H])c4c([H])c([H])c([H])c([H])c4C([H])([H])C([H])([H])C2([H])[H])C3([H])[H])c([H])c1C([H])([H])N([H])C(=O)N1C([H])([H])C([H])([H])C([H])([H])C([H])(n2nc(-c3c([H])c([H])c(Oc4c([H])c([H])c(F)c([H])c4F)c([H])c3[H])c(C(=O)N([H])[H])c2N([H])[H])C1([H])[H]

$$$$
54:0:0
     RDKit          3D

 94102  0  0  1  0  0  0  0  0999 V2000
  -30.6150  -21.1220   21.1280 C   0  0  0  0  0  2  0  0  0  0  0  0
  -29.5590  -22.1880   21.5200 C   0  0  0  0  0  2  0  0  0  0  0  0
  -28.6730  -22.2520   19.2690 C   0  0  0  0  0  2  0  0  0  0  0  0
  -30.2690  -20.2990   19.8570 C   0  0  0  0  0  3  0  0  0  0  0  0
  -29.7390  -21.2550   18.7340 C   0  0  0  0  0  3  0  0  0  0  0  0
  -29.2420  -23.0700   20.3660 N   0  0  1  0  0  4  0  0  0  0  0  0
  -30.1370  -23.4020   20.0380 H   0  0  0  0  0  0  0  0  0  0  0  0
  -29.1600  -21.5960   16.2550 C   0  0  0  0  0  1  0  0  0  0  0  0
  -30.3360  -19.5000   16.9410 C   0  0  0  0  0  1  0  0  0  0  0  0
  -29.3230  -20.5710   17.3980 C   0  0  0  0  0  3  0  0  0  0  0  0
  -29.4470  -19.0040   20.1630 C   0  0  0  0  0  2  0  0  0  0  0  0
  -30.3390  -17.7760   20.5220 C   0  0  0  0  0  2  0  0  0  0  0  0
  -29.5570  -16.4650   20.8190 C   0  0  0  0  0  2  0  0  0  0  0  0
  -30.8250  -14.4220   20.1380 C   0  0  0  0  0  0  0  0  0  0  0  0
  -30.4000  -12.3050   18.9180 C   0  0  0  0  0  2  0  0  0  0  0  0
  -29.4050  -12.5250   17.7610 C   0  0  0  0  0  2  0  0  0  0  0  0
  -27.9530  -12.4040   18.2600 C   0  0  0  0  0  2  0  0  0  0  0  0
  -27.6900  -13.2420   19.5390 C   0  0  0  0  0  3  0  0  0  0  0  0
  -28.7880  -12.9980   20.5970 C   0  0  0  0  0  2  0  0  0  0  0  0
  -30.0940  -13.2800   19.9780 N   0  0  0  0  0  0  0  0  0  0  0  0
  -31.8540  -14.6480   19.4940 O   0  0  0  0  0  0  0  0  0  0  0  0
  -31.1330  -15.3420   22.3650 C   0  0  0  0  0  1  0  0  0  0  0  0
  -30.4010  -15.2800   21.1000 N   0  0  0  0  0  0  0  0  0  0  0  0
  -25.3390  -13.8950   20.3530 C   0  0  0  0  0  0  0  0  0  0  0  0
  -24.2730  -13.1450   20.7680 C   0  0  0  0  0  0  0  0  0  0  0  0
  -24.7040  -11.7830   20.7160 C   0  0  0  0  0  0  0  0  0  0  0  0
  -26.3550  -12.9940   20.0770 N   0  0  0  0  0  0  0  0  0  0  0  0
  -25.9780  -11.7180   20.3500 N   0  0  0  0  0  0  0  0  0  0  0  0
  -23.9610  -10.5350   20.9370 C   0  0  0  0  0  0  0  0  0  0  0  0
  -24.3940   -9.5730   21.8770 C   0  0  0  0  0  3  0  0  0  0  0  0
  -23.6520   -8.3910   22.0840 C   0  0  0  0  0  3  0  0  0  0  0  0
  -22.4630   -8.1610   21.3520 C   0  0  0  0  0  0  0  0  0  0  0  0
  -22.0490   -9.1110   20.4010 C   0  0  0  0  0  3  0  0  0  0  0  0
  -22.7920  -10.2840   20.1910 C   0  0  0  0  0  3  0  0  0  0  0  0
  -21.6920   -7.0290   21.4680 O   0  0  0  0  0  0  0  0  0  0  0  0
  -21.6270   -6.3210   22.6400 C   0  0  0  0  0  0  0  0  0  0  0  0
  -21.2100   -6.9170   23.8510 C   0  0  0  0  0  3  0  0  0  0  0  0
  -21.0910   -6.1350   25.0170 C   0  0  0  0  0  3  0  0  0  0  0  0
  -21.3800   -4.7570   24.9750 C   0  0  0  0  0  0  0  0  0  0  0  0
  -21.7890   -4.1610   23.7690 C   0  0  0  0  0  3  0  0  0  0  0  0
  -21.9090   -4.9390   22.6050 C   0  0  0  0  0  0  0  0  0  0  0  0
  -22.2840   -4.3550   21.4420 F   0  0  0  0  0  0  0  0  0  0  0  0
  -21.2570   -4.0050   26.0920 F   0  0  0  0  0  0  0  0  0  0  0  0
  -22.8980  -13.6470   21.1030 C   0  0  0  0  0  0  0  0  0  0  0  0
  -22.1970  -12.9640   22.0010 N   0  0  0  0  0  0  0  0  0  0  0  0
  -22.4560  -14.6810   20.6020 O   0  0  0  0  0  0  0  0  0  0  0  0
  -22.5650  -12.1280   22.4270 H   0  0  0  0  0  0  0  0  0  0  0  0
  -21.2740  -13.2830   22.2650 H   0  0  0  0  0  0  0  0  0  0  0  0
  -25.5250  -15.2620   20.1680 N   0  0  0  0  0  0  0  0  0  0  0  0
  -24.7850  -15.9390   20.3200 H   0  0  0  0  0  0  0  0  0  0  0  0
  -26.3740  -15.6800   19.8090 H   0  0  0  0  0  0  0  0  0  0  0  0
  -28.4660  -24.3090   20.7010 C   0  0  0  0  0  2  0  0  0  0  0  0
  -28.6630  -25.4480   19.6580 C   0  0  0  0  0  2  0  0  0  0  0  0
  -28.4900  -26.7680   20.2050 O   0  0  0  0  0  0  0  0  0  0  0  0
  -24.5900  -31.8760   23.2260 C   0  0  0  0  0  0  0  0  0  0  0  0
  -27.2760  -27.4300   20.1750 C   0  0  0  0  0  0  0  0  0  0  0  0
  -23.3970  -30.4660   21.5800 C   0  0  0  0  0  3  0  0  0  0  0  0
  -24.8650  -28.9270   20.1690 C   0  0  0  0  0  0  0  0  0  0  0  0
  -25.9200  -30.8340   21.3930 C   0  0  0  0  0  2  0  0  0  0  0  0
  -26.0150  -29.4590   20.7610 C   0  0  0  0  0  0  0  0  0  0  0  0
  -27.2180  -28.7180   20.7610 C   0  0  0  0  0  3  0  0  0  0  0  0
  -26.1000  -26.9070   19.5860 C   0  0  0  0  0  3  0  0  0  0  0  0
  -24.9030  -27.6500   19.5820 C   0  0  0  0  0  3  0  0  0  0  0  0
  -23.6170  -29.7800   20.2040 C   0  0  0  0  0  2  0  0  0  0  0  0
  -24.6540  -31.0750   22.1260 N   0  0  0  0  0  0  0  0  0  0  0  0
  -23.5050  -32.1470   23.7600 O   0  0  0  0  0  0  0  0  0  0  0  0
  -22.7460  -29.4440   22.5400 C   0  0  0  0  0  0  0  0  0  0  0  0
  -21.4220  -29.2650   22.4150 N   0  0  0  0  0  0  0  0  0  0  0  0
  -23.4290  -28.8150   23.3530 O   0  0  0  0  0  0  0  0  0  0  0  0
  -20.9320  -29.8280   21.7340 H   0  0  0  0  0  0  0  0  0  0  0  0
  -18.0430  -28.0910   22.9240 C   0  0  0  0  0  0  0  0  0  0  0  0
  -20.6050  -28.3270   23.1820 C   0  0  0  0  0  3  0  0  0  0  0  0
  -20.6920  -26.9010   22.5930 C   0  0  0  0  0  2  0  0  0  0  0  0
  -19.5820  -26.5960   21.5810 C   0  0  0  0  0  2  0  0  0  0  0  0
  -18.2050  -26.7450   22.2360 C   0  0  0  0  0  2  0  0  0  0  0  0
  -19.1710  -28.8400   23.3520 C   0  0  0  0  0  0  0  0  0  0  0  0
  -18.9660  -30.1000   23.9550 C   0  0  0  0  0  3  0  0  0  0  0  0
  -17.6670  -30.6120   24.1300 C   0  0  0  0  0  3  0  0  0  0  0  0
  -16.5540  -29.8610   23.7170 C   0  0  0  0  0  3  0  0  0  0  0  0
  -16.7430  -28.6020   23.1200 C   0  0  0  0  0  3  0  0  0  0  0  0
  -25.8700  -32.5100   23.8530 C   0  0  0  0  0  3  0  0  0  0  0  0
  -25.5570  -33.9090   24.1770 N   0  0  0  0  0  0  0  0  0  0  0  0
  -25.8960  -34.9600   23.4180 C   0  0  0  0  0  0  0  0  0  0  0  0
  -26.5780  -34.8550   22.3950 O   0  0  0  0  0  0  0  0  0  0  0  0
  -24.9500  -34.0670   24.9690 H   0  0  0  0  0  0  0  0  0  0  0  0
  -24.1670  -36.7470   23.0400 C   0  0  0  0  0  1  0  0  0  0  0  0
  -25.3990  -36.3470   23.8670 C   0  0  0  0  0  3  0  0  0  0  0  0
  -27.5230  -37.2350   24.7210 C   0  0  0  0  0  1  0  0  0  0  0  0
  -26.4310  -37.4030   23.7650 N   0  0  0  0  0  0  0  0  0  0  0  0
  -26.0210  -38.3220   23.9120 H   0  0  0  0  0  0  0  0  0  0  0  0
  -26.3870  -31.7420   25.1310 C   0  0  1  0  0  0  0  0  0  0  0  0
  -25.2900  -31.4980   26.1950 C   0  0  0  0  0  1  0  0  0  0  0  0
  -26.9780  -30.3680   24.7410 C   0  0  0  0  0  1  0  0  0  0  0  0
  -27.5310  -32.5420   25.7990 C   0  0  0  0  0  1  0  0  0  0  0  0
  1  2  1  0
  3  6  1  0
  4 11  1  0
  4  1  1  0
  5 10  1  0
  5  3  1  0
  5  4  1  0
  6 52  1  0
  6  2  1  0
  6  7  1  6
  8 10  1  0
  9 10  1  0
 11 12  1  0
 12 13  1  0
 13 23  1  0
 14 23  1  0
 15 20  1  0
 16 17  1  0
 16 15  1  0
 18 17  1  0
 18 27  1  0
 18 19  1  0
 20 14  1  0
 20 19  1  0
 21 14  2  0
 23 22  1  0
 24 25  2  0
 25 44  1  0
 26 25  1  0
 26 29  1  0
 27 28  1  0
 27 24  1  0
 28 26  2  0
 29 30  1  0
 30 31  2  0
 32 35  1  0
 32 31  1  0
 33 32  2  0
 34 33  1  0
 34 29  2  0
 35 36  1  0
 36 37  1  0
 37 38  2  0
 39 38  1  0
 39 43  1  0
 40 39  2  0
 41 36  2  0
 41 40  1  0
 42 41  1  0
 44 45  1  0
 45 48  1  0
 45 47  1  0
 46 44  2  0
 49 50  1  0
 49 24  1  0
 51 49  1  0
 53 54  1  0
 53 52  1  0
 55 66  2  0
 56 54  1  0
 56 61  1  0
 57 65  1  0
 57 67  1  0
 58 64  1  0
 58 60  1  0
 59 65  1  0
 60 59  1  0
 61 60  2  0
 62 56  2  0
 63 62  1  0
 63 58  2  0
 64 57  1  0
 65 55  1  0
 67 69  2  0
 68 67  1  0
 70 68  1  0
 71 80  2  0
 71 76  1  0
 72 68  1  0
 72 76  1  0
 73 72  1  0
 74 75  1  0
 74 73  1  0
 75 71  1  0
 76 77  2  0
 77 78  1  0
 79 78  2  0
 80 79  1  0
 81 55  1  0
 81 82  1  0
 81 91  1  0
 82 85  1  0
 83 87  1  0
 83 82  1  0
 84 83  2  0
 87 86  1  0
 89 87  1  0
 89 90  1  0
 89 88  1  0
 91 94  1  1
 91 92  1  0
 93 91  1  0
M  ISO  4  14 100  23 100  53 101  54 101
M  END
>  <TORSDO>  (55) 
F 22

>  <SCORE>  (55) 
-12.487

>  <name>  (55) 
54

>  <ligand_id>  (55) 
54

>  <original_smiles>  (55) 
[H]c1c([H])c([H])c2c(c1[H])C([H])([H])C([H])([H])C([H])([H])C2([H])N([H])C(=O)C1([H])N(C(=O)C([H])(N([H])C(=O)C([H])(N([H])C([H])([H])[H])C([H])([H])[H])C(C([H])([H])[H])(C([H])([H])[H])C([H])([H])[H])C([H])([H])c2c([H])c(OC([H])([H])C([H])([H])[N+]3([H])C([H])([H])C([H])([H])C([H])(C([H])([H])C([H])([H])C([H])([H])N(C(=O)N4C([H])([H])C([H])([H])C([H])([H])C([H])(n5nc(-c6c([H])c([H])c(Oc7c([H])c([H])c(F)c([H])c7F)c([H])c6[H])c(C(=O)N([H])[H])c5N([H])[H])C4([H])[H])C([H])([H])[H])C([H])(C([H])(C([H])([H])[H])C([H])([H])[H])C3([H])[H])c([H])c([H])c2C1([H])[H]

>  <smiles>  (55) 
[H]c1c([H])c([H])c2c(c1[H])C([H])([H])C([H])([H])C([H])([H])C2([H])N([H])C(=O)C1([H])N(C(=O)C([H])(N([H])C(=O)C([H])(N([H])C([H])([H])[H])C([H])([H])[H])C(C([H])([H])[H])(C([H])([H])[H])C([H])([H])[H])C([H])([H])c2c([H])c(OC([H])([H])C([H])([H])[N+]3([H])C([H])([H])C([H])([H])C([H])(C([H])([H])C([H])([H])C([H])([H])N(C(=O)N4C([H])([H])C([H])([H])C([H])([H])C([H])(n5nc(-c6c([H])c([H])c(Oc7c([H])c([H])c(F)c([H])c7F)c([H])c6[H])c(C(=O)N([H])[H])c5N([H])[H])C4([H])[H])C([H])([H])[H])C([H])(C([H])(C([H])([H])[H])C([H])([H])[H])C3([H])[H])c([H])c([H])c2C1([H])[H]

$$$$
55:0:0
     RDKit          3D

 99107  0  0  1  0  0  0  0  0999 V2000
  -30.4270  -21.1620   21.5460 C   0  0  0  0  0  3  0  0  0  0  0  0
  -30.6270  -19.8230   21.1560 C   0  0  0  0  0  3  0  0  0  0  0  0
  -29.2510  -21.8370   21.1720 C   0  0  0  0  0  0  0  0  0  0  0  0
  -29.6510  -19.1790   20.3730 C   0  0  0  0  0  0  0  0  0  0  0  0
  -28.3060  -21.1080   20.4010 C   0  0  0  0  0  0  0  0  0  0  0  0
  -28.5240  -19.8350   20.0140 N   0  0  0  0  0  0  0  0  0  0  0  0
  -29.8250  -17.7550   19.7670 C   0  0  2  0  0  0  0  0  0  0  0  0
  -30.8200  -19.0050   17.6670 C   0  0  0  0  0  1  0  0  0  0  0  0
  -29.9320  -17.8760   18.2180 C   0  0  0  0  0  2  0  0  0  0  0  0
  -28.3910  -16.3920   21.5190 C   0  0  0  0  0  1  0  0  0  0  0  0
  -28.5740  -16.8610   20.0700 C   0  0  0  0  0  2  0  0  0  0  0  0
  -31.1230  -17.0210   20.2730 C   0  0  0  0  0  2  0  0  0  0  0  0
  -31.5010  -14.5490   19.7730 C   0  0  0  0  0  0  0  0  0  0  0  0
  -31.1120  -12.2630   18.9180 C   0  0  0  0  0  2  0  0  0  0  0  0
  -30.1420  -12.3440   17.7230 C   0  0  0  0  0  2  0  0  0  0  0  0
  -28.6770  -12.2980   18.2000 C   0  0  0  0  0  2  0  0  0  0  0  0
  -28.3960  -13.3220   19.3280 C   0  0  0  0  0  3  0  0  0  0  0  0
  -29.4690  -13.2130   20.4360 C   0  0  0  0  0  2  0  0  0  0  0  0
  -30.8020  -13.3830   19.8240 N   0  0  0  0  0  0  0  0  0  0  0  0
  -32.5240  -14.7040   19.1060 O   0  0  0  0  0  0  0  0  0  0  0  0
  -30.9310  -15.5640   20.4490 N   0  0  0  0  0  0  0  0  0  0  0  0
  -30.1680  -15.2870   21.0450 H   0  0  0  0  0  0  0  0  0  0  0  0
  -26.0970  -14.1520   20.1450 C   0  0  0  0  0  0  0  0  0  0  0  0
  -24.9800  -13.4800   20.5660 C   0  0  0  0  0  0  0  0  0  0  0  0
  -25.3110  -12.0950   20.5170 C   0  0  0  0  0  0  0  0  0  0  0  0
  -27.0430  -13.1760   19.8660 N   0  0  0  0  0  0  0  0  0  0  0  0
  -26.5750  -11.9320   20.1430 N   0  0  0  0  0  0  0  0  0  0  0  0
  -24.4810  -10.9080   20.7450 C   0  0  0  0  0  0  0  0  0  0  0  0
  -24.8450   -9.9260   21.6880 C   0  0  0  0  0  3  0  0  0  0  0  0
  -24.0210   -8.8020   21.9040 C   0  0  0  0  0  3  0  0  0  0  0  0
  -22.8160   -8.6560   21.1780 C   0  0  0  0  0  0  0  0  0  0  0  0
  -22.4660   -9.6310   20.2290 C   0  0  0  0  0  3  0  0  0  0  0  0
  -23.2900  -10.7460   20.0110 C   0  0  0  0  0  3  0  0  0  0  0  0
  -21.9680   -7.5830   21.2990 O   0  0  0  0  0  0  0  0  0  0  0  0
  -21.8170   -6.9140   22.4880 C   0  0  0  0  0  0  0  0  0  0  0  0
  -21.3980   -7.5680   23.6660 C   0  0  0  0  0  3  0  0  0  0  0  0
  -21.1860   -6.8310   24.8460 C   0  0  0  0  0  3  0  0  0  0  0  0
  -21.3870   -5.4360   24.8530 C   0  0  0  0  0  0  0  0  0  0  0  0
  -21.8010   -4.7780   23.6810 C   0  0  0  0  0  3  0  0  0  0  0  0
  -22.0040   -5.5150   22.4990 C   0  0  0  0  0  0  0  0  0  0  0  0
  -22.3790   -4.8720   21.3680 F   0  0  0  0  0  0  0  0  0  0  0  0
  -21.1820   -4.7260   25.9860 F   0  0  0  0  0  0  0  0  0  0  0  0
  -23.6520  -14.0920   20.9120 C   0  0  0  0  0  0  0  0  0  0  0  0
  -22.9310  -13.4890   21.8510 N   0  0  0  0  0  0  0  0  0  0  0  0
  -23.2770  -15.1390   20.3870 O   0  0  0  0  0  0  0  0  0  0  0  0
  -23.2560  -12.6430   22.3020 H   0  0  0  0  0  0  0  0  0  0  0  0
  -22.0430  -13.8870   22.1290 H   0  0  0  0  0  0  0  0  0  0  0  0
  -26.3690  -15.4990   19.9450 N   0  0  0  0  0  0  0  0  0  0  0  0
  -25.6340  -16.1920   20.0250 H   0  0  0  0  0  0  0  0  0  0  0  0
  -27.2290  -15.8700   19.5640 H   0  0  0  0  0  0  0  0  0  0  0  0
  -26.9230  -21.6150   20.0030 C   0  0  0  0  0  2  0  0  0  0  0  0
  -26.9330  -22.3520   18.6460 C   0  0  0  0  0  2  0  0  0  0  0  0
  -25.7540  -24.0160   17.1800 C   0  0  0  0  0  1  0  0  0  0  0  0
  -24.7460  -21.7040   17.4840 C   0  0  0  0  0  1  0  0  0  0  0  0
  -25.5590  -22.8370   18.1450 C   0  0  0  0  0  3  0  0  0  0  0  0
  -29.0100  -23.2450   21.7290 C   0  0  0  0  0  2  0  0  0  0  0  0
  -29.4070  -24.4480   20.8410 C   0  0  0  0  0  2  0  0  0  0  0  0
  -28.3330  -25.5570   20.9420 C   0  0  0  0  0  2  0  0  0  0  0  0
  -28.6240  -26.8220   20.3200 O   0  0  0  0  0  0  0  0  0  0  0  0
  -24.6880  -31.9140   23.4040 C   0  0  0  0  0  0  0  0  0  0  0  0
  -27.4900  -27.6050   20.2570 C   0  0  0  0  0  0  0  0  0  0  0  0
  -23.5410  -30.5330   21.7010 C   0  0  0  0  0  3  0  0  0  0  0  0
  -25.0600  -29.0540   20.2790 C   0  0  0  0  0  0  0  0  0  0  0  0
  -26.0730  -30.9350   21.5880 C   0  0  0  0  0  2  0  0  0  0  0  0
  -26.2060  -29.5920   20.8940 C   0  0  0  0  0  0  0  0  0  0  0  0
  -27.4320  -28.8790   20.8710 C   0  0  0  0  0  3  0  0  0  0  0  0
  -26.3390  -27.1130   19.6010 C   0  0  0  0  0  3  0  0  0  0  0  0
  -25.1180  -27.8070   19.6400 C   0  0  0  0  0  3  0  0  0  0  0  0
  -23.8050  -29.8980   20.3120 C   0  0  0  0  0  2  0  0  0  0  0  0
  -24.7830  -31.1380   22.2860 N   0  0  0  0  0  0  0  0  0  0  0  0
  -23.5890  -32.1610   23.9170 O   0  0  0  0  0  0  0  0  0  0  0  0
  -22.8830  -29.4810   22.6230 C   0  0  0  0  0  0  0  0  0  0  0  0
  -21.5590  -29.2930   22.4710 N   0  0  0  0  0  0  0  0  0  0  0  0
  -23.5570  -28.8360   23.4310 O   0  0  0  0  0  0  0  0  0  0  0  0
  -21.0730  -29.8700   21.8000 H   0  0  0  0  0  0  0  0  0  0  0  0
  -18.1870  -28.0660   22.8960 C   0  0  0  0  0  0  0  0  0  0  0  0
  -20.7400  -28.3380   23.2140 C   0  0  0  0  0  3  0  0  0  0  0  0
  -20.8560  -26.9230   22.6100 C   0  0  0  0  0  2  0  0  0  0  0  0
  -19.7810  -26.6280   21.5610 C   0  0  0  0  0  2  0  0  0  0  0  0
  -18.3880  -26.7340   22.1810 C   0  0  0  0  0  2  0  0  0  0  0  0
  -19.2940  -28.8260   23.3610 C   0  0  0  0  0  0  0  0  0  0  0  0
  -19.0600  -30.0780   23.9740 C   0  0  0  0  0  3  0  0  0  0  0  0
  -17.7510  -30.5650   24.1310 C   0  0  0  0  0  3  0  0  0  0  0  0
  -16.6590  -29.8020   23.6810 C   0  0  0  0  0  3  0  0  0  0  0  0
  -16.8760  -28.5580   23.0720 C   0  0  0  0  0  3  0  0  0  0  0  0
  -25.9500  -32.5470   24.0680 C   0  0  0  0  0  3  0  0  0  0  0  0
  -26.3970  -31.8020   25.3830 C   0  0  1  0  0  0  0  0  0  0  0  0
  -25.2490  -31.5960   26.3980 C   0  0  0  0  0  1  0  0  0  0  0  0
  -27.0020  -30.4140   25.0640 C   0  0  0  0  0  1  0  0  0  0  0  0
  -27.5180  -32.6100   26.0760 C   0  0  0  0  0  1  0  0  0  0  0  0
  -25.6360  -33.9550   24.3440 N   0  0  0  0  0  0  0  0  0  0  0  0
  -26.0120  -34.9830   23.5710 C   0  0  0  0  0  0  0  0  0  0  0  0
  -26.7230  -34.8440   22.5740 O   0  0  0  0  0  0  0  0  0  0  0  0
  -25.0200  -34.1460   25.1200 H   0  0  0  0  0  0  0  0  0  0  0  0
  -24.3130  -36.7670   23.0790 C   0  0  0  0  0  1  0  0  0  0  0  0
  -25.5120  -36.3850   23.9600 C   0  0  0  0  0  3  0  0  0  0  0  0
  -27.6160  -37.2750   24.8570 C   0  0  0  0  0  1  0  0  0  0  0  0
  -26.5560  -37.4250   23.8620 N   0  0  0  0  0  0  0  0  0  0  0  0
  -26.1530  -38.3510   23.9680 H   0  0  0  0  0  0  0  0  0  0  0  0
  2  1  2  0
  3  1  1  0
  3 56  1  0
  4  2  1  0
  5  3  2  0
  6  4  2  0
  6  5  1  0
  7 11  1  6
  7 12  1  0
  7  4  1  0
  8  9  1  0
  9  7  1  0
 11 10  1  0
 12 21  1  0
 13 19  1  0
 13 21  1  0
 14 19  1  0
 15 16  1  0
 15 14  1  0
 17 16  1  0
 17 26  1  0
 17 18  1  0
 19 18  1  0
 20 13  2  0
 21 22  1  0
 23 24  2  0
 24 43  1  0
 25 24  1  0
 25 28  1  0
 26 27  1  0
 26 23  1  0
 27 25  2  0
 28 29  1  0
 29 30  2  0
 31 34  1  0
 31 30  1  0
 32 31  2  0
 33 32  1  0
 33 28  2  0
 34 35  1  0
 35 40  2  0
 35 36  1  0
 36 37  2  0
 37 38  1  0
 38 42  1  0
 39 38  2  0
 40 39  1  0
 41 40  1  0
 43 44  1  0
 44 47  1  0
 44 46  1  0
 45 43  2  0
 48 49  1  0
 48 23  1  0
 50 48  1  0
 51  5  1  0
 52 51  1  0
 53 55  1  0
 54 55  1  0
 55 52  1  0
 57 58  1  0
 57 56  1  0
 59 58  1  0
 60 71  2  0
 61 59  1  0
 61 66  1  0
 62 70  1  0
 62 72  1  0
 63 69  1  0
 63 65  1  0
 64 70  1  0
 65 64  1  0
 66 65  2  0
 67 68  1  0
 67 61  2  0
 68 63  2  0
 69 62  1  0
 70 60  1  0
 72 74  2  0
 73 72  1  0
 75 73  1  0
 76 85  2  0
 76 81  1  0
 77 73  1  0
 77 81  1  0
 78 77  1  0
 79 80  1  0
 79 78  1  0
 80 76  1  0
 81 82  2  0
 82 83  1  0
 84 83  2  0
 85 84  1  0
 86 60  1  0
 86 91  1  0
 86 87  1  0
 87 90  1  1
 87 88  1  0
 89 87  1  0
 91 94  1  0
 92 96  1  0
 92 91  1  0
 93 92  2  0
 96 95  1  0
 98 96  1  0
 98 99  1  0
 98 97  1  0
M  ISO  4  13 100  21 100  58 101  59 101
M  END
>  <TORSDO>  (56) 
F 26

>  <SCORE>  (56) 
-10.718

>  <name>  (56) 
55

>  <ligand_id>  (56) 
55

>  <original_smiles>  (56) 
[H]c1c(C(C([H])([H])N([H])C(=O)N2C([H])([H])C([H])([H])C([H])([H])C([H])(n3nc(-c4c([H])c([H])c(Oc5c([H])c([H])c(F)c([H])c5F)c([H])c4[H])c(C(=O)N([H])[H])c3N([H])[H])C2([H])[H])(C([H])([H])C([H])([H])[H])C([H])([H])C([H])([H])[H])nc(C([H])([H])C([H])([H])C([H])(C([H])([H])[H])C([H])([H])[H])c(C([H])([H])C([H])([H])C([H])([H])Oc2c([H])c([H])c3c(c2[H])C([H])([H])N(C(=O)C([H])(N([H])C(=O)C([H])(N([H])C([H])([H])[H])C([H])([H])[H])C(C([H])([H])[H])(C([H])([H])[H])C([H])([H])[H])C([H])(C(=O)N([H])C2([H])c4c([H])c([H])c([H])c([H])c4C([H])([H])C([H])([H])C2([H])[H])C3([H])[H])c1[H]

>  <smiles>  (56) 
[H]c1c(C(C([H])([H])N([H])C(=O)N2C([H])([H])C([H])([H])C([H])([H])C([H])(n3nc(-c4c([H])c([H])c(Oc5c([H])c([H])c(F)c([H])c5F)c([H])c4[H])c(C(=O)N([H])[H])c3N([H])[H])C2([H])[H])(C([H])([H])C([H])([H])[H])C([H])([H])C([H])([H])[H])nc(C([H])([H])C([H])([H])C([H])(C([H])([H])[H])C([H])([H])[H])c(C([H])([H])C([H])([H])C([H])([H])Oc2c([H])c([H])c3c(c2[H])C([H])([H])N(C(=O)C([H])(N([H])C(=O)C([H])(N([H])C([H])([H])[H])C([H])([H])[H])C(C([H])([H])[H])(C([H])([H])[H])C([H])([H])[H])C([H])(C(=O)N([H])C2([H])c4c([H])c([H])c([H])c([H])c4C([H])([H])C([H])([H])C2([H])[H])C3([H])[H])c1[H]

$$$$
56:0:0
     RDKit          3D

 91 99  0  0  1  0  0  0  0  0999 V2000
  -30.9090  -20.5840   18.5880 C   0  0  0  0  0  1  0  0  0  0  0  0
  -30.2770  -20.2340   19.8910 N   0  0  2  0  0  4  0  0  0  0  0  0
  -30.9900  -20.4770   20.5640 H   0  0  0  0  0  0  0  0  0  0  0  0
  -30.6900  -14.5390   20.0400 C   0  0  0  0  0  0  0  0  0  0  0  0
  -30.3270  -12.3640   18.9260 C   0  0  0  0  0  2  0  0  0  0  0  0
  -29.3300  -12.5810   17.7710 C   0  0  0  0  0  2  0  0  0  0  0  0
  -27.8820  -12.4240   18.2790 C   0  0  0  0  0  2  0  0  0  0  0  0
  -27.6080  -13.2400   19.5740 C   0  0  0  0  0  3  0  0  0  0  0  0
  -28.7290  -13.0540   20.6200 C   0  0  0  0  0  2  0  0  0  0  0  0
  -30.0030  -13.3620   19.9610 N   0  0  0  0  0  0  0  0  0  0  0  0
  -31.8670  -14.6180   19.6750 O   0  0  0  0  0  0  0  0  0  0  0  0
  -29.2750  -17.9610   19.0550 C   0  0  0  0  0  2  0  0  0  0  0  0
  -29.6710  -16.4560   18.9430 C   0  0  0  0  0  2  0  0  0  0  0  0
  -30.1960  -16.5180   21.4260 C   0  0  0  0  0  2  0  0  0  0  0  0
  -29.8960  -18.0720   21.4180 C   0  0  0  0  0  3  0  0  0  0  0  0
  -30.1900  -18.7110   20.0390 C   0  0  0  0  0  3  0  0  0  0  0  0
  -30.6670  -18.7360   22.5740 C   0  0  0  0  0  1  0  0  0  0  0  0
  -29.9580  -15.7010   20.1990 N   0  0  0  0  0  0  0  0  0  0  0  0
  -25.2690  -13.8340   20.4440 C   0  0  0  0  0  0  0  0  0  0  0  0
  -24.2180  -13.0580   20.8540 C   0  0  0  0  0  0  0  0  0  0  0  0
  -24.6720  -11.7060   20.7730 C   0  0  0  0  0  0  0  0  0  0  0  0
  -26.2920  -12.9540   20.1340 N   0  0  0  0  0  0  0  0  0  0  0  0
  -25.9440  -11.6680   20.3940 N   0  0  0  0  0  0  0  0  0  0  0  0
  -23.9510  -10.4430   20.9780 C   0  0  0  0  0  0  0  0  0  0  0  0
  -24.4180   -9.4670   21.8840 C   0  0  0  0  0  3  0  0  0  0  0  0
  -23.7010   -8.2670   22.0780 C   0  0  0  0  0  3  0  0  0  0  0  0
  -22.4990   -8.0370   21.3660 C   0  0  0  0  0  0  0  0  0  0  0  0
  -22.0490   -9.0020   20.4490 C   0  0  0  0  0  3  0  0  0  0  0  0
  -22.7690  -10.1930   20.2530 C   0  0  0  0  0  3  0  0  0  0  0  0
  -21.7460   -6.8920   21.4700 O   0  0  0  0  0  0  0  0  0  0  0  0
  -21.7210   -6.1520   22.6250 C   0  0  0  0  0  0  0  0  0  0  0  0
  -21.3210   -6.7060   23.8610 C   0  0  0  0  0  3  0  0  0  0  0  0
  -21.2440   -5.8890   25.0060 C   0  0  0  0  0  3  0  0  0  0  0  0
  -21.5550   -4.5190   24.9180 C   0  0  0  0  0  0  0  0  0  0  0  0
  -21.9490   -3.9640   23.6870 C   0  0  0  0  0  3  0  0  0  0  0  0
  -22.0290   -4.7780   22.5440 C   0  0  0  0  0  0  0  0  0  0  0  0
  -22.3870   -4.2340   21.3550 F   0  0  0  0  0  0  0  0  0  0  0  0
  -21.4770   -3.7320   26.0170 F   0  0  0  0  0  0  0  0  0  0  0  0
  -22.8400  -13.5360   21.2090 C   0  0  0  0  0  0  0  0  0  0  0  0
  -22.1590  -12.8310   22.1040 N   0  0  0  0  0  0  0  0  0  0  0  0
  -22.3790  -14.5700   20.7290 O   0  0  0  0  0  0  0  0  0  0  0  0
  -22.5490  -12.0000   22.5230 H   0  0  0  0  0  0  0  0  0  0  0  0
  -21.2320  -13.1250   22.3740 H   0  0  0  0  0  0  0  0  0  0  0  0
  -25.4320  -15.2060   20.2860 N   0  0  0  0  0  0  0  0  0  0  0  0
  -24.6790  -15.8650   20.4570 H   0  0  0  0  0  0  0  0  0  0  0  0
  -26.2800  -15.6510   19.9640 H   0  0  0  0  0  0  0  0  0  0  0  0
  -29.1340  -21.1720   20.2570 C   0  0  0  0  0  2  0  0  0  0  0  0
  -29.3680  -22.6990   19.8310 C   0  0  0  0  0  2  0  0  0  0  0  0
  -28.5420  -23.9040   20.4450 C   0  0  0  0  0  2  0  0  0  0  0  0
  -28.7070  -25.2750   19.6610 C   0  0  0  0  0  2  0  0  0  0  0  0
  -28.4930  -26.5510   20.3460 O   0  0  0  0  0  0  0  0  0  0  0  0
  -24.6460  -31.8490   23.2420 C   0  0  0  0  0  0  0  0  0  0  0  0
  -27.3180  -27.2970   20.2610 C   0  0  0  0  0  0  0  0  0  0  0  0
  -23.4580  -30.4220   21.6090 C   0  0  0  0  0  3  0  0  0  0  0  0
  -24.9260  -28.8540   20.2180 C   0  0  0  0  0  0  0  0  0  0  0  0
  -25.9910  -30.7610   21.4330 C   0  0  0  0  0  2  0  0  0  0  0  0
  -26.0800  -29.3730   20.8130 C   0  0  0  0  0  0  0  0  0  0  0  0
  -27.2730  -28.6010   20.8330 C   0  0  0  0  0  3  0  0  0  0  0  0
  -26.1390  -26.8070   19.6530 C   0  0  0  0  0  3  0  0  0  0  0  0
  -24.9550  -27.5730   19.6340 C   0  0  0  0  0  3  0  0  0  0  0  0
  -23.6830  -29.7190   20.2420 C   0  0  0  0  0  2  0  0  0  0  0  0
  -24.7170  -31.0290   22.1530 N   0  0  0  0  0  0  0  0  0  0  0  0
  -23.5590  -32.1300   23.7650 O   0  0  0  0  0  0  0  0  0  0  0  0
  -22.7930  -29.4190   22.5820 C   0  0  0  0  0  0  0  0  0  0  0  0
  -21.4690  -29.2400   22.4460 N   0  0  0  0  0  0  0  0  0  0  0  0
  -23.4690  -28.8070   23.4120 O   0  0  0  0  0  0  0  0  0  0  0  0
  -20.9880  -29.7830   21.7440 H   0  0  0  0  0  0  0  0  0  0  0  0
  -18.0890  -28.0480   22.9250 C   0  0  0  0  0  0  0  0  0  0  0  0
  -20.6440  -28.3150   23.2230 C   0  0  0  0  0  3  0  0  0  0  0  0
  -20.7540  -26.8750   22.6700 C   0  0  0  0  0  2  0  0  0  0  0  0
  -19.6650  -26.5340   21.6490 C   0  0  0  0  0  2  0  0  0  0  0  0
  -18.2760  -26.6900   22.2720 C   0  0  0  0  0  2  0  0  0  0  0  0
  -19.2010  -28.8190   23.3570 C   0  0  0  0  0  0  0  0  0  0  0  0
  -18.9730  -30.0900   23.9260 C   0  0  0  0  0  3  0  0  0  0  0  0
  -17.6660  -30.5910   24.0660 C   0  0  0  0  0  3  0  0  0  0  0  0
  -16.5680  -29.8180   23.6520 C   0  0  0  0  0  3  0  0  0  0  0  0
  -16.7790  -28.5480   23.0870 C   0  0  0  0  0  3  0  0  0  0  0  0
  -25.9230  -32.4920   23.8670 C   0  0  0  0  0  3  0  0  0  0  0  0
  -26.4370  -31.7340   25.1520 C   0  0  1  0  0  0  0  0  0  0  0  0
  -25.3390  -31.4970   26.2160 C   0  0  0  0  0  1  0  0  0  0  0  0
  -27.0270  -30.3570   24.7730 C   0  0  0  0  0  1  0  0  0  0  0  0
  -27.5840  -32.5360   25.8120 C   0  0  0  0  0  1  0  0  0  0  0  0
  -25.6060  -33.8910   24.1840 N   0  0  0  0  0  0  0  0  0  0  0  0
  -25.9380  -34.9390   23.4180 C   0  0  0  0  0  0  0  0  0  0  0  0
  -26.6120  -34.8310   22.3900 O   0  0  0  0  0  0  0  0  0  0  0  0
  -25.0030  -34.0500   24.9780 H   0  0  0  0  0  0  0  0  0  0  0  0
  -24.1990  -36.7180   23.0450 C   0  0  0  0  0  1  0  0  0  0  0  0
  -25.4420  -36.3290   23.8630 C   0  0  0  0  0  3  0  0  0  0  0  0
  -27.5760  -37.2260   24.6800 C   0  0  0  0  0  1  0  0  0  0  0  0
  -26.4670  -37.3890   23.7450 N   0  0  0  0  0  0  0  0  0  0  0  0
  -26.0550  -38.3050   23.9020 H   0  0  0  0  0  0  0  0  0  0  0  0
  1  2  1  0
  2 47  1  0
  2  3  1  1
  4 18  1  0
  5 10  1  0
  6  7  1  0
  6  5  1  0
  8  7  1  0
  8 22  1  0
  8  9  1  0
 10  4  1  0
 10  9  1  0
 11  4  2  0
 12 16  1  0
 13 12  1  0
 13 18  1  0
 15 14  1  0
 15 17  1  0
 16  2  1  0
 16 15  1  0
 18 14  1  0
 19 20  2  0
 20 39  1  0
 21 20  1  0
 21 24  1  0
 22 23  1  0
 22 19  1  0
 23 21  2  0
 24 25  1  0
 25 26  2  0
 27 30  1  0
 27 26  1  0
 28 27  2  0
 29 28  1  0
 29 24  2  0
 30 31  1  0
 31 32  1  0
 32 33  2  0
 34 33  1  0
 34 38  1  0
 35 34  2  0
 36 31  2  0
 36 35  1  0
 37 36  1  0
 39 40  1  0
 40 43  1  0
 40 42  1  0
 41 39  2  0
 44 19  1  0
 44 45  1  0
 46 44  1  0
 48 47  1  0
 48 49  1  0
 50 51  1  0
 50 49  1  0
 52 63  2  0
 53 51  1  0
 53 58  1  0
 54 62  1  0
 54 64  1  0
 55 61  1  0
 55 57  1  0
 56 62  1  0
 57 58  2  0
 57 56  1  0
 59 53  2  0
 60 59  1  0
 60 55  2  0
 61 54  1  0
 62 52  1  0
 64 66  2  0
 65 64  1  0
 67 65  1  0
 68 77  2  0
 68 73  1  0
 69 65  1  0
 69 73  1  0
 70 69  1  0
 71 72  1  0
 71 70  1  0
 72 68  1  0
 73 74  2  0
 74 75  1  0
 76 75  2  0
 77 76  1  0
 78 52  1  0
 78 83  1  0
 78 79  1  0
 79 82  1  1
 79 80  1  0
 81 79  1  0
 83 86  1  0
 84 88  1  0
 84 83  1  0
 85 84  2  0
 88 87  1  0
 90 88  1  0
 90 91  1  0
 90 89  1  0
M  ISO  4   4 100  18 100  50 101  51 101
M  END
>  <TORSDO>  (57) 
F 20

>  <SCORE>  (57) 
-13.321

>  <name>  (57) 
56

>  <ligand_id>  (57) 
56

>  <original_smiles>  (57) 
[H]c1c([H])c([H])c2c(c1[H])C([H])([H])C([H])([H])C([H])([H])C2([H])N([H])C(=O)C1([H])N(C(=O)C([H])(N([H])C(=O)C([H])(N([H])C([H])([H])[H])C([H])([H])[H])C(C([H])([H])[H])(C([H])([H])[H])C([H])([H])[H])C([H])([H])c2c([H])c(OC([H])([H])C([H])([H])C([H])([H])C([H])([H])[N+]([H])(C([H])([H])[H])C3([H])C([H])([H])C([H])([H])N(C(=O)N4C([H])([H])C([H])([H])C([H])([H])C([H])(n5nc(-c6c([H])c([H])c(Oc7c([H])c([H])c(F)c([H])c7F)c([H])c6[H])c(C(=O)N([H])[H])c5N([H])[H])C4([H])[H])C([H])([H])C3([H])C([H])([H])[H])c([H])c([H])c2C1([H])[H]

>  <smiles>  (57) 
[H]c1c([H])c([H])c2c(c1[H])C([H])([H])C([H])([H])C([H])([H])C2([H])N([H])C(=O)C1([H])N(C(=O)C([H])(N([H])C(=O)C([H])(N([H])C([H])([H])[H])C([H])([H])[H])C(C([H])([H])[H])(C([H])([H])[H])C([H])([H])[H])C([H])([H])c2c([H])c(OC([H])([H])C([H])([H])C([H])([H])C([H])([H])[N+]([H])(C([H])([H])[H])C3([H])C([H])([H])C([H])([H])N(C(=O)N4C([H])([H])C([H])([H])C([H])([H])C([H])(n5nc(-c6c([H])c([H])c(Oc7c([H])c([H])c(F)c([H])c7F)c([H])c6[H])c(C(=O)N([H])[H])c5N([H])[H])C4([H])[H])C([H])([H])C3([H])C([H])([H])[H])c([H])c([H])c2C1([H])[H]

$$$$
57:0:0
     RDKit          3D

 95103  0  0  1  0  0  0  0  0999 V2000
  -28.5070  -21.5470   18.3060 C   0  0  0  0  0  1  0  0  0  0  0  0
  -29.6810  -21.6500   19.2970 C   0  0  0  0  0  3  0  0  0  0  0  0
  -31.3310  -19.6890   19.8980 C   0  0  0  0  0  3  0  0  0  0  0  0
  -29.2230  -18.1280   20.6180 C   0  0  0  0  0  3  0  0  0  0  0  0
  -31.5850  -18.3360   20.2870 C   0  0  0  0  0  0  0  0  0  0  0  0
  -30.4890  -17.4870   20.6160 C   0  0  0  0  0  0  0  0  0  0  0  0
  -30.0190  -20.2210   19.8850 C   0  0  0  0  0  0  0  0  0  0  0  0
  -28.9950  -19.4350   20.2950 N   0  0  0  0  0  0  0  0  0  0  0  0
  -33.8920  -18.7640   21.2670 C   0  0  0  0  0  1  0  0  0  0  0  0
  -33.6610  -17.7080   18.9750 C   0  0  0  0  0  1  0  0  0  0  0  0
  -33.0370  -17.8560   20.3690 C   0  0  0  0  0  3  0  0  0  0  0  0
  -30.5930  -15.9970   21.1410 C   0  0  0  0  0  2  0  0  0  0  0  0
  -31.1020  -14.8140   20.2140 C   0  0  0  0  0  0  0  0  0  0  0  0
  -30.7390  -12.6580   18.9940 C   0  0  0  0  0  2  0  0  0  0  0  0
  -29.7730  -12.8820   17.8130 C   0  0  0  0  0  2  0  0  0  0  0  0
  -28.3070  -12.7660   18.2710 C   0  0  0  0  0  2  0  0  0  0  0  0
  -28.0250  -13.5740   19.5660 C   0  0  0  0  0  3  0  0  0  0  0  0
  -29.1000  -13.3000   20.6390 C   0  0  0  0  0  2  0  0  0  0  0  0
  -30.4080  -13.6370   20.0560 N   0  0  0  0  0  0  0  0  0  0  0  0
  -32.1710  -14.9750   19.6220 O   0  0  0  0  0  0  0  0  0  0  0  0
  -25.6640  -14.2390   20.3220 C   0  0  0  0  0  0  0  0  0  0  0  0
  -24.5800  -13.4920   20.6980 C   0  0  0  0  0  0  0  0  0  0  0  0
  -24.9990  -12.1280   20.6420 C   0  0  0  0  0  0  0  0  0  0  0  0
  -26.6760  -13.3280   20.0640 N   0  0  0  0  0  0  0  0  0  0  0  0
  -26.2820  -12.0540   20.3140 N   0  0  0  0  0  0  0  0  0  0  0  0
  -24.2380  -10.8860   20.8260 C   0  0  0  0  0  0  0  0  0  0  0  0
  -24.6310   -9.9120   21.7690 C   0  0  0  0  0  3  0  0  0  0  0  0
  -23.8690   -8.7360   21.9430 C   0  0  0  0  0  3  0  0  0  0  0  0
  -22.7010   -8.5260   21.1730 C   0  0  0  0  0  0  0  0  0  0  0  0
  -22.3250   -9.4910   20.2220 C   0  0  0  0  0  3  0  0  0  0  0  0
  -23.0860  -10.6590   20.0460 C   0  0  0  0  0  3  0  0  0  0  0  0
  -21.9160   -7.4010   21.2530 O   0  0  0  0  0  0  0  0  0  0  0  0
  -21.7920   -6.6920   22.4200 C   0  0  0  0  0  0  0  0  0  0  0  0
  -21.3290   -7.2920   23.6110 C   0  0  0  0  0  3  0  0  0  0  0  0
  -21.1500   -6.5110   24.7700 C   0  0  0  0  0  3  0  0  0  0  0  0
  -21.4230   -5.1300   24.7420 C   0  0  0  0  0  0  0  0  0  0  0  0
  -21.8760   -4.5300   23.5540 C   0  0  0  0  0  3  0  0  0  0  0  0
  -22.0590   -5.3080   22.3970 C   0  0  0  0  0  0  0  0  0  0  0  0
  -22.4740   -4.7200   21.2500 F   0  0  0  0  0  0  0  0  0  0  0  0
  -21.2440   -4.3780   25.8520 F   0  0  0  0  0  0  0  0  0  0  0  0
  -23.2050  -14.0090   20.9990 C   0  0  0  0  0  0  0  0  0  0  0  0
  -22.4750  -13.3250   21.8750 N   0  0  0  0  0  0  0  0  0  0  0  0
  -22.7850  -15.0520   20.4970 O   0  0  0  0  0  0  0  0  0  0  0  0
  -22.8300  -12.4800   22.3010 H   0  0  0  0  0  0  0  0  0  0  0  0
  -21.5520  -13.6490   22.1200 H   0  0  0  0  0  0  0  0  0  0  0  0
  -25.8720  -15.6040   20.1590 N   0  0  0  0  0  0  0  0  0  0  0  0
  -25.1230  -16.2790   20.2610 H   0  0  0  0  0  0  0  0  0  0  0  0
  -26.7270  -16.0170   19.8090 H   0  0  0  0  0  0  0  0  0  0  0  0
  -29.4560  -22.8710   20.2920 C   0  0  0  0  0  2  0  0  0  0  0  0
  -29.5540  -24.4060   19.8110 C   0  0  0  0  0  3  0  0  0  0  0  0
  -30.4240  -24.5950   18.5390 C   0  0  0  0  0  2  0  0  0  0  0  0
  -31.7980  -26.1080   17.0120 C   0  0  0  0  0  1  0  0  0  0  0  0
  -30.8260  -26.0480   18.2010 C   0  0  0  0  0  2  0  0  0  0  0  0
  -28.2160  -25.2430   19.7260 C   0  0  0  0  0  2  0  0  0  0  0  0
  -28.3490  -26.6860   19.9740 O   0  0  0  0  0  0  0  0  0  0  0  0
  -24.6280  -31.9350   23.2050 C   0  0  0  0  0  0  0  0  0  0  0  0
  -27.1970  -27.4770   19.9940 C   0  0  0  0  0  0  0  0  0  0  0  0
  -23.3900  -30.5500   21.5800 C   0  0  0  0  0  3  0  0  0  0  0  0
  -24.8120  -29.0390   20.0910 C   0  0  0  0  0  0  0  0  0  0  0  0
  -25.9200  -30.9030   21.3230 C   0  0  0  0  0  2  0  0  0  0  0  0
  -25.9910  -29.5370   20.6560 C   0  0  0  0  0  0  0  0  0  0  0  0
  -27.1880  -28.7680   20.5970 C   0  0  0  0  0  3  0  0  0  0  0  0
  -25.9880  -27.0180   19.4210 C   0  0  0  0  0  3  0  0  0  0  0  0
  -24.8090  -27.7830   19.4670 C   0  0  0  0  0  3  0  0  0  0  0  0
  -23.5680  -29.8970   20.1860 C   0  0  0  0  0  2  0  0  0  0  0  0
  -24.6670  -31.1440   22.0940 N   0  0  0  0  0  0  0  0  0  0  0  0
  -23.5580  -32.1960   23.7710 O   0  0  0  0  0  0  0  0  0  0  0  0
  -22.7630  -29.5130   22.5410 C   0  0  0  0  0  0  0  0  0  0  0  0
  -21.4370  -29.3190   22.4380 N   0  0  0  0  0  0  0  0  0  0  0  0
  -23.4670  -28.8860   23.3360 O   0  0  0  0  0  0  0  0  0  0  0  0
  -20.9280  -29.8830   21.7720 H   0  0  0  0  0  0  0  0  0  0  0  0
  -18.0850  -28.0610   22.9590 C   0  0  0  0  0  0  0  0  0  0  0  0
  -20.6410  -28.3640   23.2110 C   0  0  0  0  0  3  0  0  0  0  0  0
  -20.7630  -26.9360   22.6270 C   0  0  0  0  0  2  0  0  0  0  0  0
  -19.6550  -26.5990   21.6230 C   0  0  0  0  0  2  0  0  0  0  0  0
  -18.2770  -26.7180   22.2780 C   0  0  0  0  0  2  0  0  0  0  0  0
  -19.1940  -28.8430   23.3810 C   0  0  0  0  0  0  0  0  0  0  0  0
  -18.9570  -30.1030   23.9740 C   0  0  0  0  0  3  0  0  0  0  0  0
  -17.6430  -30.5790   24.1510 C   0  0  0  0  0  3  0  0  0  0  0  0
  -16.5500  -29.7950   23.7440 C   0  0  0  0  0  3  0  0  0  0  0  0
  -16.7730  -28.5380   23.1530 C   0  0  0  0  0  3  0  0  0  0  0  0
  -25.9220  -32.5670   23.8030 C   0  0  0  0  0  3  0  0  0  0  0  0
  -25.6100  -33.9570   24.1680 N   0  0  0  0  0  0  0  0  0  0  0  0
  -25.9140  -35.0260   23.4200 C   0  0  0  0  0  0  0  0  0  0  0  0
  -26.5570  -34.9460   22.3700 O   0  0  0  0  0  0  0  0  0  0  0  0
  -25.0380  -34.0920   24.9900 H   0  0  0  0  0  0  0  0  0  0  0  0
  -24.1640  -36.8120   23.1390 C   0  0  0  0  0  1  0  0  0  0  0  0
  -25.4270  -36.4020   23.9130 C   0  0  0  0  0  3  0  0  0  0  0  0
  -27.5750  -37.2890   24.7040 C   0  0  0  0  0  1  0  0  0  0  0  0
  -26.4480  -37.4650   23.7930 N   0  0  0  0  0  0  0  0  0  0  0  0
  -26.0390  -38.3780   23.9680 H   0  0  0  0  0  0  0  0  0  0  0  0
  -26.4760  -31.7730   25.0500 C   0  0  1  0  0  0  0  0  0  0  0  0
  -25.4190  -31.5020   26.1460 C   0  0  0  0  0  1  0  0  0  0  0  0
  -27.0550  -30.4080   24.6100 C   0  0  0  0  0  1  0  0  0  0  0  0
  -27.6340  -32.5670   25.7000 C   0  0  0  0  0  1  0  0  0  0  0  0
  2  1  1  0
  2  7  1  0
  2 49  1  0
  3  5  1  0
  5 11  1  0
  5  6  2  0
  6  4  1  0
  6 12  1  0
  7  3  2  0
  7  8  1  0
  8  4  2  0
 10 11  1  0
 11  9  1  0
 13 12  1  0
 14 19  1  0
 15 16  1  0
 15 14  1  0
 17 16  1  0
 17 24  1  0
 17 18  1  0
 19 13  1  0
 19 18  1  0
 20 13  2  0
 21 22  2  0
 22 41  1  0
 23 22  1  0
 23 26  1  0
 24 25  1  0
 24 21  1  0
 25 23  2  0
 26 27  1  0
 27 28  2  0
 29 32  1  0
 29 28  1  0
 30 29  2  0
 31 30  1  0
 31 26  2  0
 32 33  1  0
 33 34  1  0
 34 35  2  0
 36 35  1  0
 36 40  1  0
 37 36  2  0
 38 33  2  0
 38 37  1  0
 39 38  1  0
 41 42  1  0
 42 45  1  0
 42 44  1  0
 43 41  2  0
 46 47  1  0
 46 21  1  0
 48 46  1  0
 50 51  1  0
 50 49  1  0
 52 53  1  0
 53 51  1  0
 54 50  1  0
 54 55  1  0
 55 57  1  0
 56 67  2  0
 57 62  1  0
 58 66  1  0
 58 68  1  0
 59 65  1  0
 59 61  1  0
 60 66  1  0
 61 60  1  0
 62 61  2  0
 63 64  1  0
 63 57  2  0
 64 59  2  0
 65 58  1  0
 66 56  1  0
 68 70  2  0
 69 68  1  0
 71 69  1  0
 72 81  2  0
 72 77  1  0
 73 69  1  0
 73 77  1  0
 74 73  1  0
 75 76  1  0
 75 74  1  0
 76 72  1  0
 77 78  2  0
 78 79  1  0
 80 79  2  0
 81 80  1  0
 82 56  1  0
 82 83  1  0
 82 92  1  0
 83 86  1  0
 84 88  1  0
 84 83  1  0
 85 84  2  0
 88 87  1  0
 90 88  1  0
 90 91  1  0
 90 89  1  0
 92 95  1  1
 92 93  1  0
 94 92  1  0
M  ISO  4  12 100  13 100  54 101  55 101
M  END
>  <TORSDO>  (58) 
F 24

>  <SCORE>  (58) 
-11.947

>  <name>  (58) 
57

>  <ligand_id>  (58) 
57

>  <original_smiles>  (58) 
[H]c1nc(C([H])(C([H])([H])[H])C([H])([H])C([H])(C([H])([H])Oc2c([H])c([H])c3c(c2[H])C([H])([H])N(C(=O)C([H])(N([H])C(=O)C([H])(N([H])C([H])([H])[H])C([H])([H])[H])C(C([H])([H])[H])(C([H])([H])[H])C([H])([H])[H])C([H])(C(=O)N([H])C2([H])c4c([H])c([H])c([H])c([H])c4C([H])([H])C([H])([H])C2([H])[H])C3([H])[H])C([H])([H])C([H])([H])C([H])([H])[H])c([H])c(C([H])(C([H])([H])[H])C([H])([H])[H])c1C([H])([H])C(=O)N1C([H])([H])C([H])([H])C([H])([H])C([H])(n2nc(-c3c([H])c([H])c(Oc4c([H])c([H])c(F)c([H])c4F)c([H])c3[H])c(C(=O)N([H])[H])c2N([H])[H])C1([H])[H]

>  <smiles>  (58) 
[H]c1nc(C([H])(C([H])([H])[H])C([H])([H])C([H])(C([H])([H])Oc2c([H])c([H])c3c(c2[H])C([H])([H])N(C(=O)C([H])(N([H])C(=O)C([H])(N([H])C([H])([H])[H])C([H])([H])[H])C(C([H])([H])[H])(C([H])([H])[H])C([H])([H])[H])C([H])(C(=O)N([H])C2([H])c4c([H])c([H])c([H])c([H])c4C([H])([H])C([H])([H])C2([H])[H])C3([H])[H])C([H])([H])C([H])([H])C([H])([H])[H])c([H])c(C([H])(C([H])([H])[H])C([H])([H])[H])c1C([H])([H])C(=O)N1C([H])([H])C([H])([H])C([H])([H])C([H])(n2nc(-c3c([H])c([H])c(Oc4c([H])c([H])c(F)c([H])c4F)c([H])c3[H])c(C(=O)N([H])[H])c2N([H])[H])C1([H])[H]

$$$$
58:0:0
     RDKit          3D

 95103  0  0  1  0  0  0  0  0999 V2000
  -29.8090  -22.7980   19.0560 C   0  0  0  0  0  3  0  0  0  0  0  0
  -30.6150  -21.7210   18.6020 C   0  0  0  0  0  0  0  0  0  0  0  0
  -30.4360  -20.3620   19.0430 C   0  0  0  0  0  0  0  0  0  0  0  0
  -28.7760  -22.6450   19.9850 C   0  0  0  0  0  0  0  0  0  0  0  0
  -29.4310  -20.0120   19.9850 C   0  0  0  0  0  0  0  0  0  0  0  0
  -31.3790  -19.2560   18.5670 C   0  0  0  0  0  1  0  0  0  0  0  0
  -28.6400  -21.2110   20.4070 N   0  0  0  0  0  0  0  0  0  0  0  0
  -31.7640  -22.1350   17.6870 C   0  0  0  0  0  2  0  0  0  0  0  0
  -33.0430  -22.4390   18.5000 C   0  0  0  0  0  2  0  0  0  0  0  0
  -34.7260  -24.1750   19.2630 C   0  0  0  0  0  1  0  0  0  0  0  0
  -34.3100  -23.8470   16.7880 C   0  0  0  0  0  1  0  0  0  0  0  0
  -33.6880  -23.8060   18.1910 C   0  0  0  0  0  3  0  0  0  0  0  0
  -29.5200  -18.3580   20.6570 C   0  0  0  0  0  2  0  0  0  0  0  0
  -30.3290  -15.4500   20.1660 C   0  0  0  0  0  0  0  0  0  0  0  0
  -30.3750  -12.9830   19.2760 C   0  0  0  0  0  2  0  0  0  0  0  0
  -29.4460  -12.6780   18.0730 C   0  0  0  0  0  2  0  0  0  0  0  0
  -28.0110  -12.3700   18.5400 C   0  0  0  0  0  2  0  0  0  0  0  0
  -27.5430  -13.3430   19.6490 C   0  0  0  0  0  3  0  0  0  0  0  0
  -28.6030  -13.5620   20.7470 C   0  0  0  0  0  2  0  0  0  0  0  0
  -29.7860  -14.1270   20.0700 N   0  0  0  0  0  0  0  0  0  0  0  0
  -31.5660  -15.4430   20.0670 O   0  0  0  0  0  0  0  0  0  0  0  0
  -29.5360  -16.7290   20.1520 N   0  0  0  0  0  0  0  0  0  0  0  0
  -28.5860  -16.4820   19.9230 H   0  0  0  0  0  0  0  0  0  0  0  0
  -25.1780  -13.8620   20.4410 C   0  0  0  0  0  0  0  0  0  0  0  0
  -24.1320  -13.0710   20.8230 C   0  0  0  0  0  0  0  0  0  0  0  0
  -24.6190  -11.7270   20.7880 C   0  0  0  0  0  0  0  0  0  0  0  0
  -26.2310  -13.0020   20.1850 N   0  0  0  0  0  0  0  0  0  0  0  0
  -25.9090  -11.7110   20.4630 N   0  0  0  0  0  0  0  0  0  0  0  0
  -23.9120  -10.4550   20.9840 C   0  0  0  0  0  0  0  0  0  0  0  0
  -24.3440   -9.5060   21.9370 C   0  0  0  0  0  3  0  0  0  0  0  0
  -23.6330   -8.3020   22.1210 C   0  0  0  0  0  3  0  0  0  0  0  0
  -22.4740   -8.0370   21.3520 C   0  0  0  0  0  0  0  0  0  0  0  0
  -22.0610   -8.9750   20.3900 C   0  0  0  0  0  3  0  0  0  0  0  0
  -22.7730  -10.1700   20.2040 C   0  0  0  0  0  3  0  0  0  0  0  0
  -21.7320   -6.8830   21.4470 O   0  0  0  0  0  0  0  0  0  0  0  0
  -21.6630   -6.1650   22.6140 C   0  0  0  0  0  0  0  0  0  0  0  0
  -21.1630   -6.7290   23.8090 C   0  0  0  0  0  3  0  0  0  0  0  0
  -21.0430   -5.9350   24.9660 C   0  0  0  0  0  3  0  0  0  0  0  0
  -21.4140   -4.5780   24.9320 C   0  0  0  0  0  0  0  0  0  0  0  0
  -21.9070   -4.0120   23.7440 C   0  0  0  0  0  3  0  0  0  0  0  0
  -22.0290   -4.8030   22.5880 C   0  0  0  0  0  0  0  0  0  0  0  0
  -22.4840   -4.2480   21.4380 F   0  0  0  0  0  0  0  0  0  0  0  0
  -21.2930   -3.8130   26.0430 F   0  0  0  0  0  0  0  0  0  0  0  0
  -22.7310  -13.5290   21.0990 C   0  0  0  0  0  0  0  0  0  0  0  0
  -22.0120  -12.8230   21.9660 N   0  0  0  0  0  0  0  0  0  0  0  0
  -22.2800  -14.5510   20.5830 O   0  0  0  0  0  0  0  0  0  0  0  0
  -22.3890  -11.9970   22.4070 H   0  0  0  0  0  0  0  0  0  0  0  0
  -21.0730  -13.1150   22.1910 H   0  0  0  0  0  0  0  0  0  0  0  0
  -25.3170  -15.2350   20.2560 N   0  0  0  0  0  0  0  0  0  0  0  0
  -24.5380  -15.8760   20.3680 H   0  0  0  0  0  0  0  0  0  0  0  0
  -26.1420  -15.6790   19.8760 H   0  0  0  0  0  0  0  0  0  0  0  0
  -27.8290  -24.1160   20.3440 C   0  0  0  0  0  3  0  0  0  0  0  0
  -26.2120  -24.7340   22.3150 C   0  0  0  0  0  1  0  0  0  0  0  0
  -27.5000  -24.0300   21.8540 C   0  0  0  0  0  2  0  0  0  0  0  0
  -28.1060  -25.7640   20.0950 O   0  0  0  0  0  0  0  0  0  0  0  0
  -24.5570  -31.8220   23.1020 C   0  0  0  0  0  0  0  0  0  0  0  0
  -27.1150  -26.9070   20.0720 C   0  0  0  0  0  0  0  0  0  0  0  0
  -23.3760  -30.4420   21.4440 C   0  0  0  0  0  3  0  0  0  0  0  0
  -24.8330  -28.8390   20.0210 C   0  0  0  0  0  0  0  0  0  0  0  0
  -25.9490  -30.6330   21.3230 C   0  0  0  0  0  2  0  0  0  0  0  0
  -26.0210  -29.2220   20.6550 C   0  0  0  0  0  0  0  0  0  0  0  0
  -27.1580  -28.2830   20.6490 C   0  0  0  0  0  3  0  0  0  0  0  0
  -25.8970  -26.6940   19.3890 C   0  0  0  0  0  3  0  0  0  0  0  0
  -24.8000  -27.5980   19.3640 C   0  0  0  0  0  3  0  0  0  0  0  0
  -23.6200  -29.7720   20.0640 C   0  0  0  0  0  2  0  0  0  0  0  0
  -24.6490  -30.9940   22.0100 N   0  0  0  0  0  0  0  0  0  0  0  0
  -23.4630  -32.1100   23.6140 O   0  0  0  0  0  0  0  0  0  0  0  0
  -22.6680  -29.4420   22.3950 C   0  0  0  0  0  0  0  0  0  0  0  0
  -21.3330  -29.3040   22.2800 N   0  0  0  0  0  0  0  0  0  0  0  0
  -23.3280  -28.7910   23.2090 O   0  0  0  0  0  0  0  0  0  0  0  0
  -20.8510  -29.8840   21.6060 H   0  0  0  0  0  0  0  0  0  0  0  0
  -17.9270  -28.1690   22.8300 C   0  0  0  0  0  0  0  0  0  0  0  0
  -20.5000  -28.3650   23.0400 C   0  0  0  0  0  3  0  0  0  0  0  0
  -20.5510  -26.9480   22.4200 C   0  0  0  0  0  2  0  0  0  0  0  0
  -19.4180  -26.6850   21.4220 C   0  0  0  0  0  2  0  0  0  0  0  0
  -18.0550  -26.8400   22.1020 C   0  0  0  0  0  2  0  0  0  0  0  0
  -19.0750  -28.8910   23.2560 C   0  0  0  0  0  0  0  0  0  0  0  0
  -18.8970  -30.1340   23.9010 C   0  0  0  0  0  3  0  0  0  0  0  0
  -17.6080  -30.6560   24.1200 C   0  0  0  0  0  3  0  0  0  0  0  0
  -16.4770  -29.9310   23.7070 C   0  0  0  0  0  3  0  0  0  0  0  0
  -16.6370  -28.6880   23.0690 C   0  0  0  0  0  3  0  0  0  0  0  0
  -25.8210  -32.4610   23.7520 C   0  0  0  0  0  3  0  0  0  0  0  0
  -25.4990  -33.8570   24.1010 N   0  0  0  0  0  0  0  0  0  0  0  0
  -25.8540  -34.9300   23.3810 C   0  0  0  0  0  0  0  0  0  0  0  0
  -26.5470  -34.8490   22.3650 O   0  0  0  0  0  0  0  0  0  0  0  0
  -24.8860  -33.9930   24.8920 H   0  0  0  0  0  0  0  0  0  0  0  0
  -24.1590  -36.7590   23.0230 C   0  0  0  0  0  1  0  0  0  0  0  0
  -25.3660  -36.3130   23.8640 C   0  0  0  0  0  3  0  0  0  0  0  0
  -27.4740  -37.1560   24.8010 C   0  0  0  0  0  1  0  0  0  0  0  0
  -26.4130  -37.3570   23.8180 N   0  0  0  0  0  0  0  0  0  0  0  0
  -26.0110  -38.2790   23.9700 H   0  0  0  0  0  0  0  0  0  0  0  0
  -26.3150  -31.6830   25.0350 C   0  0  1  0  0  0  0  0  0  0  0  0
  -25.2060  -31.4450   26.0880 C   0  0  0  0  0  1  0  0  0  0  0  0
  -26.9030  -30.3050   24.6560 C   0  0  0  0  0  1  0  0  0  0  0  0
  -27.4590  -32.4720   25.7160 C   0  0  0  0  0  1  0  0  0  0  0  0
  1  4  1  0
  2  3  1  0
  2  1  2  0
  3  5  2  0
  4 52  1  0
  4  7  2  0
  5  7  1  0
  5 13  1  0
  6  3  1  0
  8  9  1  0
  8  2  1  0
 11 12  1  0
 12  9  1  0
 12 10  1  0
 15 20  1  0
 16 17  1  0
 16 15  1  0
 18 17  1  0
 18 27  1  0
 18 19  1  0
 20 14  1  0
 20 19  1  0
 21 14  2  0
 22 14  1  0
 22 13  1  0
 23 22  1  0
 24 25  2  0
 25 44  1  0
 26 25  1  0
 26 29  1  0
 27 24  1  0
 27 28  1  0
 28 26  2  0
 29 30  1  0
 30 31  2  0
 32 35  1  0
 32 31  1  0
 33 32  2  0
 34 33  1  0
 34 29  2  0
 35 36  1  0
 36 37  1  0
 37 38  2  0
 39 38  1  0
 39 43  1  0
 40 39  2  0
 41 36  2  0
 41 40  1  0
 42 41  1  0
 44 45  1  0
 45 48  1  0
 45 47  1  0
 46 44  2  0
 49 50  1  0
 49 24  1  0
 51 49  1  0
 52 54  1  0
 54 53  1  0
 55 52  1  0
 56 67  2  0
 57 55  1  0
 57 62  1  0
 58 66  1  0
 58 68  1  0
 59 65  1  0
 59 61  1  0
 60 66  1  0
 61 60  1  0
 62 61  2  0
 63 57  2  0
 64 63  1  0
 64 59  2  0
 65 58  1  0
 66 56  1  0
 68 70  2  0
 69 68  1  0
 71 69  1  0
 72 81  2  0
 72 77  1  0
 73 69  1  0
 73 77  1  0
 74 73  1  0
 75 76  1  0
 75 74  1  0
 76 72  1  0
 77 78  2  0
 78 79  1  0
 80 79  2  0
 81 80  1  0
 82 56  1  0
 82 83  1  0
 82 92  1  0
 83 86  1  0
 84 88  1  0
 84 83  1  0
 85 84  2  0
 88 87  1  0
 90 88  1  0
 90 91  1  0
 90 89  1  0
 92 95  1  1
 92 93  1  0
 94 92  1  0
M  ISO  4  14 100  22 100  52 101  55 101
M  END
>  <TORSDO>  (59) 
F 22

>  <SCORE>  (59) 
-14.904

>  <name>  (59) 
58

>  <ligand_id>  (59) 
58

>  <original_smiles>  (59) 
[H]c1c([H])c([H])c2c(c1[H])C([H])([H])C([H])([H])C([H])([H])C2([H])N([H])C(=O)C1([H])N(C(=O)C([H])(N([H])C(=O)C([H])(N([H])C([H])([H])[H])C([H])([H])[H])C(C([H])([H])[H])(C([H])([H])[H])C([H])([H])[H])C([H])([H])c2c([H])c(OC([H])(c3nc(C([H])([H])N([H])C(=O)N4C([H])([H])C([H])([H])C([H])([H])C([H])(n5nc(-c6c([H])c([H])c(Oc7c([H])c([H])c(F)c([H])c7F)c([H])c6[H])c(C(=O)N([H])[H])c5N([H])[H])C4([H])[H])c(C([H])([H])[H])c(C([H])([H])C([H])([H])C([H])(C([H])([H])[H])C([H])([H])[H])c3[H])C([H])([H])C([H])([H])[H])c([H])c([H])c2C1([H])[H]

>  <smiles>  (59) 
[H]c1c([H])c([H])c2c(c1[H])C([H])([H])C([H])([H])C([H])([H])C2([H])N([H])C(=O)C1([H])N(C(=O)C([H])(N([H])C(=O)C([H])(N([H])C([H])([H])[H])C([H])([H])[H])C(C([H])([H])[H])(C([H])([H])[H])C([H])([H])[H])C([H])([H])c2c([H])c(OC([H])(c3nc(C([H])([H])N([H])C(=O)N4C([H])([H])C([H])([H])C([H])([H])C([H])(n5nc(-c6c([H])c([H])c(Oc7c([H])c([H])c(F)c([H])c7F)c([H])c6[H])c(C(=O)N([H])[H])c5N([H])[H])C4([H])[H])c(C([H])([H])[H])c(C([H])([H])C([H])([H])C([H])(C([H])([H])[H])C([H])([H])[H])c3[H])C([H])([H])C([H])([H])[H])c([H])c([H])c2C1([H])[H]

$$$$
59:0:0
     RDKit          3D

102110  0  0  1  0  0  0  0  0999 V2000
  -29.2240  -20.8130   22.0180 C   0  0  0  0  0  3  0  0  0  0  0  0
  -30.6270  -20.7860   22.2450 C   0  0  0  0  0  0  0  0  0  0  0  0
  -28.8910  -19.9540   21.0160 C   0  0  0  0  0  0  0  0  0  0  0  0
  -31.1280  -19.8470   21.3680 C   0  0  0  0  0  0  0  0  0  0  0  0
  -30.0510  -19.2290   20.7140 N   0  0  0  0  0  0  0  0  0  0  0  0
  -32.0860  -20.7530   24.2880 C   0  0  0  0  0  1  0  0  0  0  0  0
  -30.3600  -22.5130   24.0760 C   0  0  0  0  0  1  0  0  0  0  0  0
  -31.3640  -21.6580   23.2670 C   0  0  2  0  0  0  0  0  0  0  0  0
  -31.8470  -23.3480   21.3400 C   0  0  0  0  0  1  0  0  0  0  0  0
  -32.3780  -22.6150   22.5840 C   0  0  0  0  0  2  0  0  0  0  0  0
  -27.5230  -19.7760   20.4000 C   0  0  0  0  0  2  0  0  0  0  0  0
  -27.1280  -20.8170   19.3080 C   0  0  0  0  0  3  0  0  0  0  0  0
  -26.8210  -22.2550   19.8070 C   0  0  0  0  0  3  0  0  0  0  0  0
  -28.2600  -23.7360   18.3260 C   0  0  0  0  0  1  0  0  0  0  0  0
  -26.8210  -23.3810   18.7320 C   0  0  0  0  0  3  0  0  0  0  0  0
  -26.0470  -24.6190   19.2620 C   0  0  0  0  0  2  0  0  0  0  0  0
  -26.3550  -25.8900   18.6420 O   0  0  0  0  0  0  0  0  0  0  0  0
  -25.0060  -30.9190   23.5330 C   0  0  0  0  0  0  0  0  0  0  0  0
  -25.5370  -26.9350   19.0390 C   0  0  0  0  0  0  0  0  0  0  0  0
  -23.1810  -30.4350   21.9400 C   0  0  0  0  0  3  0  0  0  0  0  0
  -23.8210  -29.0180   19.9180 C   0  0  0  0  0  0  0  0  0  0  0  0
  -25.6280  -30.0950   21.2620 C   0  0  0  0  0  2  0  0  0  0  0  0
  -25.1600  -28.9960   20.3290 C   0  0  0  0  0  0  0  0  0  0  0  0
  -26.0250  -27.9650   19.8810 C   0  0  0  0  0  3  0  0  0  0  0  0
  -24.1860  -27.0020   18.6190 C   0  0  0  0  0  3  0  0  0  0  0  0
  -23.3310  -28.0260   19.0590 C   0  0  0  0  0  3  0  0  0  0  0  0
  -22.9540  -30.1450   20.4330 C   0  0  0  0  0  2  0  0  0  0  0  0
  -24.6360  -30.4750   22.3000 N   0  0  0  0  0  0  0  0  0  0  0  0
  -24.1660  -31.3280   24.3480 O   0  0  0  0  0  0  0  0  0  0  0  0
  -22.3710  -29.4130   22.7710 C   0  0  0  0  0  0  0  0  0  0  0  0
  -21.0340  -29.4850   22.6740 N   0  0  0  0  0  0  0  0  0  0  0  0
  -22.9440  -28.5650   23.4620 O   0  0  0  0  0  0  0  0  0  0  0  0
  -20.6420  -30.2160   22.0980 H   0  0  0  0  0  0  0  0  0  0  0  0
  -17.5300  -28.6170   22.8710 C   0  0  0  0  0  0  0  0  0  0  0  0
  -20.0730  -28.6030   23.3380 C   0  0  0  0  0  3  0  0  0  0  0  0
  -20.0790  -27.1940   22.7020 C   0  0  0  0  0  2  0  0  0  0  0  0
  -19.0300  -27.0260   21.5980 C   0  0  0  0  0  2  0  0  0  0  0  0
  -17.6230  -27.2850   22.1470 C   0  0  0  0  0  2  0  0  0  0  0  0
  -18.6830  -29.2440   23.4160 C   0  0  0  0  0  0  0  0  0  0  0  0
  -18.5440  -30.4990   24.0460 C   0  0  0  0  0  3  0  0  0  0  0  0
  -17.2860  -31.1230   24.1430 C   0  0  0  0  0  3  0  0  0  0  0  0
  -16.1470  -30.4910   23.6150 C   0  0  0  0  0  3  0  0  0  0  0  0
  -16.2700  -29.2410   22.9830 C   0  0  0  0  0  3  0  0  0  0  0  0
  -26.5030  -30.9620   23.9700 C   0  0  0  0  0  3  0  0  0  0  0  0
  -26.7110  -32.2100   24.7160 N   0  0  0  0  0  0  0  0  0  0  0  0
  -27.3080  -33.3010   24.2190 C   0  0  0  0  0  0  0  0  0  0  0  0
  -27.8090  -33.3350   23.0930 O   0  0  0  0  0  0  0  0  0  0  0  0
  -26.2720  -32.2750   25.6230 H   0  0  0  0  0  0  0  0  0  0  0  0
  -26.2740  -35.5500   24.6700 C   0  0  0  0  0  1  0  0  0  0  0  0
  -27.3570  -34.5540   25.1140 C   0  0  0  0  0  3  0  0  0  0  0  0
  -29.7180  -34.4410   25.7830 C   0  0  0  0  0  1  0  0  0  0  0  0
  -28.6770  -35.2220   25.1200 N   0  0  0  0  0  0  0  0  0  0  0  0
  -28.6200  -36.1270   25.5800 H   0  0  0  0  0  0  0  0  0  0  0  0
  -26.9310  -29.7150   24.8370 C   0  0  1  0  0  0  0  0  0  0  0  0
  -25.9910  -29.4400   26.0340 C   0  0  0  0  0  1  0  0  0  0  0  0
  -26.9770  -28.4360   23.9670 C   0  0  0  0  0  1  0  0  0  0  0  0
  -28.3610  -29.9300   25.3880 C   0  0  0  0  0  1  0  0  0  0  0  0
  -32.5620  -19.4640   21.0850 C   0  0  0  0  0  2  0  0  0  0  0  0
  -33.2070  -20.2650   19.9340 C   0  0  0  0  0  2  0  0  0  0  0  0
  -35.4150  -20.6320   18.7280 C   0  0  0  0  0  1  0  0  0  0  0  0
  -35.0700  -21.6570   21.0080 C   0  0  0  0  0  1  0  0  0  0  0  0
  -34.7300  -20.4690   20.0930 C   0  0  0  0  0  3  0  0  0  0  0  0
  -30.1680  -18.0410   19.8490 C   0  0  0  0  0  2  0  0  0  0  0  0
  -29.5490  -16.7730   20.5030 C   0  0  0  0  0  2  0  0  0  0  0  0
  -30.8640  -14.8150   19.7620 C   0  0  0  0  0  0  0  0  0  0  0  0
  -30.6250  -12.5010   18.9260 C   0  0  0  0  0  2  0  0  0  0  0  0
  -29.6160  -12.4040   17.7670 C   0  0  0  0  0  2  0  0  0  0  0  0
  -28.1750  -12.2600   18.2970 C   0  0  0  0  0  2  0  0  0  0  0  0
  -27.8320  -13.3070   19.3890 C   0  0  0  0  0  3  0  0  0  0  0  0
  -28.9370  -13.3430   20.4640 C   0  0  0  0  0  2  0  0  0  0  0  0
  -30.2260  -13.6130   19.7990 N   0  0  0  0  0  0  0  0  0  0  0  0
  -31.8090  -15.0640   19.0080 O   0  0  0  0  0  0  0  0  0  0  0  0
  -31.3610  -15.7480   21.9210 C   0  0  0  0  0  1  0  0  0  0  0  0
  -30.5080  -15.6760   20.7340 N   0  0  0  0  0  0  0  0  0  0  0  0
  -25.5230  -13.9510   20.3340 C   0  0  0  0  0  0  0  0  0  0  0  0
  -24.4660  -13.1910   20.7600 C   0  0  0  0  0  0  0  0  0  0  0  0
  -24.8780  -11.8300   20.6280 C   0  0  0  0  0  0  0  0  0  0  0  0
  -26.5150  -13.0520   19.9730 N   0  0  0  0  0  0  0  0  0  0  0  0
  -26.1340  -11.7700   20.2040 N   0  0  0  0  0  0  0  0  0  0  0  0
  -24.1320  -10.5810   20.8260 C   0  0  0  0  0  0  0  0  0  0  0  0
  -24.4940   -9.6560   21.8300 C   0  0  0  0  0  3  0  0  0  0  0  0
  -23.7500   -8.4700   22.0140 C   0  0  0  0  0  3  0  0  0  0  0  0
  -22.6320   -8.1990   21.1900 C   0  0  0  0  0  0  0  0  0  0  0  0
  -22.2890   -9.1120   20.1780 C   0  0  0  0  0  3  0  0  0  0  0  0
  -23.0320  -10.2890   19.9930 C   0  0  0  0  0  3  0  0  0  0  0  0
  -21.8670   -7.0600   21.2780 O   0  0  0  0  0  0  0  0  0  0  0  0
  -21.5560   -6.4940   22.4870 C   0  0  0  0  0  0  0  0  0  0  0  0
  -20.8550   -7.2070   23.4860 C   0  0  0  0  0  3  0  0  0  0  0  0
  -20.4940   -6.5650   24.6860 C   0  0  0  0  0  3  0  0  0  0  0  0
  -20.8220   -5.2110   24.8900 C   0  0  0  0  0  0  0  0  0  0  0  0
  -21.5150   -4.4980   23.8950 C   0  0  0  0  0  3  0  0  0  0  0  0
  -21.8770   -5.1380   22.6960 C   0  0  0  0  0  0  0  0  0  0  0  0
  -22.5260   -4.4400   21.7330 F   0  0  0  0  0  0  0  0  0  0  0  0
  -20.4690   -4.5920   26.0400 F   0  0  0  0  0  0  0  0  0  0  0  0
  -23.1130  -13.6930   21.1780 C   0  0  0  0  0  0  0  0  0  0  0  0
  -22.4620  -12.9950   22.1050 N   0  0  0  0  0  0  0  0  0  0  0  0
  -22.6480  -14.7350   20.7220 O   0  0  0  0  0  0  0  0  0  0  0  0
  -22.8530  -12.1490   22.4910 H   0  0  0  0  0  0  0  0  0  0  0  0
  -21.5610  -13.3160   22.4330 H   0  0  0  0  0  0  0  0  0  0  0  0
  -25.7140  -15.3220   20.2040 N   0  0  0  0  0  0  0  0  0  0  0  0
  -24.9880  -15.9960   20.4290 H   0  0  0  0  0  0  0  0  0  0  0  0
  -26.5550  -15.7550   19.8420 H   0  0  0  0  0  0  0  0  0  0  0  0
  1  2  1  0
  2  8  1  0
  3  1  2  0
  4  2  2  0
  5  3  1  0
  5  4  1  0
  8  7  1  1
  8  6  1  0
  9 10  1  0
 10  8  1  0
 11  3  1  0
 12 13  2  0
 12 11  1  0
 15 14  1  0
 15 16  1  0
 15 13  1  0
 17 19  1  0
 17 16  1  0
 18 29  2  0
 19 24  1  0
 20 28  1  0
 20 30  1  0
 21 23  1  0
 21 27  1  0
 22 28  1  0
 23 22  1  0
 24 23  2  0
 25 19  2  0
 25 26  1  0
 26 21  2  0
 27 20  1  0
 28 18  1  0
 30 32  2  0
 31 30  1  0
 33 31  1  0
 34 43  2  0
 34 39  1  0
 35 31  1  0
 35 39  1  0
 36 35  1  0
 37 38  1  0
 37 36  1  0
 38 34  1  0
 39 40  2  0
 40 41  1  0
 42 41  2  0
 43 42  1  0
 44 18  1  0
 44 45  1  0
 44 54  1  0
 45 48  1  0
 46 45  1  0
 46 50  1  0
 47 46  2  0
 50 49  1  0
 50 52  1  0
 52 53  1  0
 52 51  1  0
 54 57  1  1
 54 55  1  0
 56 54  1  0
 58  4  1  0
 59 62  1  0
 59 58  1  0
 60 62  1  0
 62 61  1  0
 63 64  1  0
 63  5  1  0
 64 74  1  0
 65 71  1  0
 65 74  1  0
 66 71  1  0
 67 68  1  0
 67 66  1  0
 69 68  1  0
 69 78  1  0
 69 70  1  0
 71 70  1  0
 72 65  2  0
 74 73  1  0
 75 76  2  0
 76 95  1  0
 77 76  1  0
 77 80  1  0
 78 79  1  0
 78 75  1  0
 79 77  2  0
 80 81  1  0
 81 82  2  0
 83 86  1  0
 83 82  1  0
 84 83  2  0
 85 84  1  0
 85 80  2  0
 86 87  1  0
 87 92  2  0
 87 88  1  0
 88 89  2  0
 89 90  1  0
 90 94  1  0
 91 90  2  0
 92 91  1  0
 93 92  1  0
 95 96  1  0
 96 99  1  0
 96 98  1  0
 97 95  2  0
100 75  1  0
100101  1  0
102100  1  0
M  ISO  4  16 101  17 101  65 100  74 100
M  END
>  <TORSDO>  (60) 
F 28

>  <SCORE>  (60) 
-6.716

>  <name>  (60) 
59

>  <ligand_id>  (60) 
59

>  <original_smiles>  (60) 
[H]c1c([H])c([H])c2c(c1[H])C([H])([H])C([H])([H])C([H])([H])C2([H])N([H])C(=O)C1([H])N(C(=O)C([H])(N([H])C(=O)C([H])(N([H])C([H])([H])[H])C([H])([H])[H])C(C([H])([H])[H])(C([H])([H])[H])C([H])([H])[H])C([H])([H])c2c([H])c(OC([H])([H])C([H])(C([H])([H])[H])C([H])([H])C([H])([H])C([H])([H])c3c([H])c(C(C([H])([H])[H])(C([H])([H])[H])C([H])([H])C([H])([H])[H])c(C([H])([H])C([H])([H])C([H])(C([H])([H])[H])C([H])([H])[H])n3C([H])([H])C([H])([H])N(C(=O)N3C([H])([H])C([H])([H])C([H])([H])C([H])(n4nc(-c5c([H])c([H])c(Oc6c([H])c([H])c(F)c([H])c6F)c([H])c5[H])c(C(=O)N([H])[H])c4N([H])[H])C3([H])[H])C([H])([H])[H])c([H])c([H])c2C1([H])[H]

>  <smiles>  (60) 
[H]c1c([H])c([H])c2c(c1[H])C([H])([H])C([H])([H])C([H])([H])C2([H])N([H])C(=O)C1([H])N(C(=O)C([H])(N([H])C(=O)C([H])(N([H])C([H])([H])[H])C([H])([H])[H])C(C([H])([H])[H])(C([H])([H])[H])C([H])([H])[H])C([H])([H])c2c([H])c(OC([H])([H])C([H])(C([H])([H])[H])C([H])([H])C([H])([H])C([H])([H])c3c([H])c(C(C([H])([H])[H])(C([H])([H])[H])C([H])([H])C([H])([H])[H])c(C([H])([H])C([H])([H])C([H])(C([H])([H])[H])C([H])([H])[H])n3C([H])([H])C([H])([H])N(C(=O)N3C([H])([H])C([H])([H])C([H])([H])C([H])(n4nc(-c5c([H])c([H])c(Oc6c([H])c([H])c(F)c([H])c6F)c([H])c5[H])c(C(=O)N([H])[H])c4N([H])[H])C3([H])[H])C([H])([H])[H])c([H])c([H])c2C1([H])[H]

$$$$
60:0:0
     RDKit          3D

 93101  0  0  1  0  0  0  0  0999 V2000
  -31.2990  -19.4150   17.5340 C   0  0  0  0  0  3  0  0  0  0  0  0
  -30.2810  -21.2860   18.6090 C   0  0  0  0  0  3  0  0  0  0  0  0
  -31.1270  -20.7900   17.6220 C   0  0  0  0  0  0  0  0  0  0  0  0
  -30.6300  -18.5390   18.4030 C   0  0  0  0  0  0  0  0  0  0  0  0
  -29.6110  -20.5040   19.5840 C   0  0  0  0  0  0  0  0  0  0  0  0
  -29.8370  -18.9720   19.5270 C   0  0  0  0  0  0  0  0  0  0  0  0
  -30.7620  -17.0910   17.9540 C   0  0  0  0  0  1  0  0  0  0  0  0
  -31.1660  -21.5320   15.2070 C   0  0  0  0  0  1  0  0  0  0  0  0
  -33.2960  -21.6120   16.5890 C   0  0  0  0  0  1  0  0  0  0  0  0
  -31.7670  -21.7320   16.6050 C   0  0  0  0  0  3  0  0  0  0  0  0
  -28.6940  -21.5930   20.4270 C   0  0  0  0  0  2  0  0  0  0  0  0
  -28.9710  -23.3050   20.5120 C   0  0  0  0  0  3  0  0  0  0  0  0
  -28.0090  -24.6360   20.0440 C   0  0  0  0  0  3  0  0  0  0  0  0
  -28.2660  -26.1760   20.2680 O   0  0  0  0  0  0  0  0  0  0  0  0
  -24.6700  -31.9030   23.2690 C   0  0  0  0  0  0  0  0  0  0  0  0
  -27.2240  -27.1830   20.1950 C   0  0  0  0  0  0  0  0  0  0  0  0
  -23.4620  -30.5150   21.6290 C   0  0  0  0  0  3  0  0  0  0  0  0
  -24.9020  -28.9510   20.1800 C   0  0  0  0  0  0  0  0  0  0  0  0
  -26.0160  -30.7780   21.4500 C   0  0  0  0  0  2  0  0  0  0  0  0
  -26.0860  -29.3870   20.7890 C   0  0  0  0  0  0  0  0  0  0  0  0
  -27.2470  -28.5200   20.7780 C   0  0  0  0  0  3  0  0  0  0  0  0
  -26.0170  -26.8600   19.5400 C   0  0  0  0  0  3  0  0  0  0  0  0
  -24.8830  -27.7040   19.5380 C   0  0  0  0  0  3  0  0  0  0  0  0
  -23.6730  -29.8470   20.2440 C   0  0  0  0  0  2  0  0  0  0  0  0
  -24.7380  -31.0880   22.1700 N   0  0  0  0  0  0  0  0  0  0  0  0
  -23.5870  -32.1830   23.8050 O   0  0  0  0  0  0  0  0  0  0  0  0
  -22.7920  -29.5010   22.5910 C   0  0  0  0  0  0  0  0  0  0  0  0
  -21.4650  -29.3180   22.4680 N   0  0  0  0  0  0  0  0  0  0  0  0
  -23.4700  -28.8800   23.4150 O   0  0  0  0  0  0  0  0  0  0  0  0
  -20.9730  -29.8730   21.7810 H   0  0  0  0  0  0  0  0  0  0  0  0
  -18.0990  -28.0680   22.9550 C   0  0  0  0  0  0  0  0  0  0  0  0
  -20.6530  -28.3730   23.2390 C   0  0  0  0  0  3  0  0  0  0  0  0
  -20.7800  -26.9380   22.6750 C   0  0  0  0  0  2  0  0  0  0  0  0
  -19.6910  -26.5920   21.6560 C   0  0  0  0  0  2  0  0  0  0  0  0
  -18.3020  -26.7190   22.2880 C   0  0  0  0  0  2  0  0  0  0  0  0
  -19.2030  -28.8510   23.3880 C   0  0  0  0  0  0  0  0  0  0  0  0
  -18.9590  -30.1120   23.9750 C   0  0  0  0  0  3  0  0  0  0  0  0
  -17.6440  -30.5900   24.1330 C   0  0  0  0  0  3  0  0  0  0  0  0
  -16.5560  -29.8060   23.7160 C   0  0  0  0  0  3  0  0  0  0  0  0
  -16.7840  -28.5460   23.1320 C   0  0  0  0  0  3  0  0  0  0  0  0
  -25.9500  -32.5400   23.8900 C   0  0  0  0  0  3  0  0  0  0  0  0
  -25.6410  -33.9430   24.2130 N   0  0  0  0  0  0  0  0  0  0  0  0
  -25.9710  -34.9950   23.4510 C   0  0  0  0  0  0  0  0  0  0  0  0
  -26.6330  -34.8860   22.4160 O   0  0  0  0  0  0  0  0  0  0  0  0
  -25.0470  -34.1020   25.0130 H   0  0  0  0  0  0  0  0  0  0  0  0
  -24.2430  -36.7970   23.1140 C   0  0  0  0  0  1  0  0  0  0  0  0
  -25.4930  -36.3870   23.9100 C   0  0  0  0  0  3  0  0  0  0  0  0
  -27.6370  -37.2750   24.7140 C   0  0  0  0  0  1  0  0  0  0  0  0
  -26.5260  -37.4380   23.7810 N   0  0  0  0  0  0  0  0  0  0  0  0
  -26.1230  -38.3590   23.9250 H   0  0  0  0  0  0  0  0  0  0  0  0
  -26.4580  -31.7790   25.1770 C   0  0  1  0  0  0  0  0  0  0  0  0
  -25.3610  -31.5610   26.2450 C   0  0  0  0  0  1  0  0  0  0  0  0
  -27.0330  -30.3920   24.8070 C   0  0  0  0  0  1  0  0  0  0  0  0
  -27.6130  -32.5740   25.8310 C   0  0  0  0  0  1  0  0  0  0  0  0
  -29.2410  -17.6500   20.3480 C   0  0  0  0  0  2  0  0  0  0  0  0
  -30.5910  -15.1010   20.5360 C   0  0  0  0  0  0  0  0  0  0  0  0
  -30.4570  -12.7200   19.6510 C   0  0  0  0  0  2  0  0  0  0  0  0
  -29.5900  -12.6080   18.3790 C   0  0  0  0  0  2  0  0  0  0  0  0
  -28.1180  -12.3810   18.7600 C   0  0  0  0  0  2  0  0  0  0  0  0
  -27.6470  -13.3430   19.8830 C   0  0  0  0  0  3  0  0  0  0  0  0
  -28.6520  -13.4540   21.0500 C   0  0  0  0  0  2  0  0  0  0  0  0
  -29.9370  -13.8630   20.4720 N   0  0  0  0  0  0  0  0  0  0  0  0
  -31.7970  -15.0480   20.2700 O   0  0  0  0  0  0  0  0  0  0  0  0
  -30.7470  -16.8950   22.1180 C   0  0  0  0  0  1  0  0  0  0  0  0
  -30.0270  -16.3700   20.9510 N   0  0  0  0  0  0  0  0  0  0  0  0
  -25.2420  -13.8970   20.5330 C   0  0  0  0  0  0  0  0  0  0  0  0
  -24.1730  -13.1140   20.8690 C   0  0  0  0  0  0  0  0  0  0  0  0
  -24.6520  -11.7680   20.8720 C   0  0  0  0  0  0  0  0  0  0  0  0
  -26.3010  -13.0280   20.3410 N   0  0  0  0  0  0  0  0  0  0  0  0
  -25.9560  -11.7420   20.6140 N   0  0  0  0  0  0  0  0  0  0  0  0
  -23.9310  -10.5000   21.0490 C   0  0  0  0  0  0  0  0  0  0  0  0
  -24.3320   -9.5470   22.0110 C   0  0  0  0  0  3  0  0  0  0  0  0
  -23.6080   -8.3470   22.1760 C   0  0  0  0  0  3  0  0  0  0  0  0
  -22.4680   -8.0900   21.3790 C   0  0  0  0  0  0  0  0  0  0  0  0
  -22.0840   -9.0310   20.4070 C   0  0  0  0  0  3  0  0  0  0  0  0
  -22.8100  -10.2230   20.2400 C   0  0  0  0  0  3  0  0  0  0  0  0
  -21.7180   -6.9410   21.4520 O   0  0  0  0  0  0  0  0  0  0  0  0
  -21.6260   -6.2140   22.6110 C   0  0  0  0  0  0  0  0  0  0  0  0
  -21.1360   -6.7780   23.8090 C   0  0  0  0  0  3  0  0  0  0  0  0
  -20.9940   -5.9770   24.9580 C   0  0  0  0  0  3  0  0  0  0  0  0
  -21.3310   -4.6110   24.9120 C   0  0  0  0  0  0  0  0  0  0  0  0
  -21.8140   -4.0450   23.7180 C   0  0  0  0  0  3  0  0  0  0  0  0
  -21.9580   -4.8450   22.5710 C   0  0  0  0  0  0  0  0  0  0  0  0
  -22.4040   -4.2900   21.4180 F   0  0  0  0  0  0  0  0  0  0  0  0
  -21.1880   -3.8370   26.0130 F   0  0  0  0  0  0  0  0  0  0  0  0
  -22.7630  -13.5800   21.0760 C   0  0  0  0  0  0  0  0  0  0  0  0
  -22.0060  -12.8860   21.9170 N   0  0  0  0  0  0  0  0  0  0  0  0
  -22.3390  -14.5980   20.5280 O   0  0  0  0  0  0  0  0  0  0  0  0
  -22.3620  -12.0640   22.3820 H   0  0  0  0  0  0  0  0  0  0  0  0
  -21.0570  -13.1800   22.0990 H   0  0  0  0  0  0  0  0  0  0  0  0
  -25.4000  -15.2670   20.3470 N   0  0  0  0  0  0  0  0  0  0  0  0
  -24.6260  -15.9170   20.4280 H   0  0  0  0  0  0  0  0  0  0  0  0
  -26.2620  -15.7100   20.0560 H   0  0  0  0  0  0  0  0  0  0  0  0
  1  3  2  0
  1  4  1  0
  2  5  2  0
  3  2  1  0
  4  6  2  0
  5 11  1  0
  6  5  1  0
  6 55  1  0
  7  4  1  0
  8 10  1  0
  9 10  1  0
 10  3  1  0
 11 12  1  0
 13 14  1  0
 13 12  2  0
 15 26  2  0
 16 14  1  0
 16 21  1  0
 17 25  1  0
 17 27  1  0
 18 24  1  0
 18 20  1  0
 19 25  1  0
 20 19  1  0
 21 20  2  0
 22 16  2  0
 23 22  1  0
 23 18  2  0
 24 17  1  0
 25 15  1  0
 27 29  2  0
 28 27  1  0
 30 28  1  0
 31 40  2  0
 31 36  1  0
 32 28  1  0
 32 36  1  0
 33 32  1  0
 34 35  1  0
 34 33  1  0
 35 31  1  0
 36 37  2  0
 37 38  1  0
 39 38  2  0
 40 39  1  0
 41 15  1  0
 41 42  1  0
 41 51  1  0
 42 45  1  0
 43 47  1  0
 43 42  1  0
 44 43  2  0
 47 46  1  0
 49 47  1  0
 49 50  1  0
 49 48  1  0
 51 54  1  1
 51 52  1  0
 53 51  1  0
 55 65  1  0
 56 65  1  0
 57 62  1  0
 58 59  1  0
 58 57  1  0
 60 59  1  0
 60 69  1  0
 60 61  1  0
 62 56  1  0
 62 61  1  0
 63 56  2  0
 65 64  1  0
 66 67  2  0
 67 68  1  0
 67 86  1  0
 68 71  1  0
 69 66  1  0
 69 70  1  0
 70 68  2  0
 71 72  1  0
 72 73  2  0
 74 77  1  0
 74 73  1  0
 75 74  2  0
 76 75  1  0
 76 71  2  0
 77 78  1  0
 78 79  1  0
 79 80  2  0
 81 80  1  0
 81 85  1  0
 82 81  2  0
 83 78  2  0
 83 82  1  0
 84 83  1  0
 86 87  1  0
 87 90  1  0
 87 89  1  0
 88 86  2  0
 91 92  1  0
 91 66  1  0
 93 91  1  0
M  ISO  4  13 101  14 101  56 100  65 100
M  END
>  <TORSDO>  (61) 
F 21

>  <SCORE>  (61) 
-14.531

>  <name>  (61) 
60

>  <ligand_id>  (61) 
60

>  <original_smiles>  (61) 
[H]c1c([H])c([H])c2c(c1[H])C([H])([H])C([H])([H])C([H])([H])C2([H])N([H])C(=O)C1([H])N(C(=O)C([H])(N([H])C(=O)C([H])(N([H])C([H])([H])[H])C([H])([H])[H])C(C([H])([H])[H])(C([H])([H])[H])C([H])([H])[H])C([H])([H])c2c([H])c(OC([H])([H])C([H])([H])C([H])([H])c3c([H])c(C([H])(C([H])([H])[H])C([H])([H])[H])c([H])c(C([H])([H])[H])c3C([H])([H])N(C(=O)N3C([H])([H])C([H])([H])C([H])([H])C([H])(n4nc(-c5c([H])c([H])c(Oc6c([H])c([H])c(F)c([H])c6F)c([H])c5[H])c(C(=O)N([H])[H])c4N([H])[H])C3([H])[H])C([H])([H])[H])c([H])c([H])c2C1([H])[H]

>  <smiles>  (61) 
[H]c1c([H])c([H])c2c(c1[H])C([H])([H])C([H])([H])C([H])([H])C2([H])N([H])C(=O)C1([H])N(C(=O)C([H])(N([H])C(=O)C([H])(N([H])C([H])([H])[H])C([H])([H])[H])C(C([H])([H])[H])(C([H])([H])[H])C([H])([H])[H])C([H])([H])c2c([H])c(OC([H])([H])C([H])([H])C([H])([H])c3c([H])c(C([H])(C([H])([H])[H])C([H])([H])[H])c([H])c(C([H])([H])[H])c3C([H])([H])N(C(=O)N3C([H])([H])C([H])([H])C([H])([H])C([H])(n4nc(-c5c([H])c([H])c(Oc6c([H])c([H])c(F)c([H])c6F)c([H])c5[H])c(C(=O)N([H])[H])c4N([H])[H])C3([H])[H])C([H])([H])[H])c([H])c([H])c2C1([H])[H]

$$$$
61:0:0
     RDKit          3D

 96104  0  0  1  0  0  0  0  0999 V2000
  -29.6740  -19.8840   21.4910 C   0  0  0  0  0  3  0  0  0  0  0  0
  -30.3830  -18.7820   21.0080 C   0  0  0  0  0  0  0  0  0  0  0  0
  -30.8830  -19.2490   19.7370 C   0  0  0  0  0  0  0  0  0  0  0  0
  -30.4760  -20.5680   19.5380 C   0  0  0  0  0  0  0  0  0  0  0  0
  -29.7010  -20.9990   20.6200 N   0  0  0  0  0  0  0  0  0  0  0  0
  -30.9800  -17.2810   18.1240 C   0  0  0  0  0  1  0  0  0  0  0  0
  -33.1070  -18.0640   19.3430 C   0  0  0  0  0  1  0  0  0  0  0  0
  -31.7410  -18.4510   18.7630 C   0  0  0  0  0  3  0  0  0  0  0  0
  -32.2270  -21.8680   18.2450 C   0  0  0  0  0  1  0  0  0  0  0  0
  -30.7340  -21.4990   18.3720 C   0  0  0  0  0  3  0  0  0  0  0  0
  -30.2560  -21.9730   15.8770 C   0  0  0  0  0  1  0  0  0  0  0  0
  -30.1070  -20.9980   17.0530 C   0  0  0  0  0  2  0  0  0  0  0  0
  -30.6700  -17.3990   21.7700 C   0  0  0  0  0  2  0  0  0  0  0  0
  -30.9380  -14.8900   21.0130 C   0  0  0  0  0  0  0  0  0  0  0  0
  -30.7630  -12.7130   19.7940 C   0  0  0  0  0  2  0  0  0  0  0  0
  -29.9020  -12.8810   18.5240 C   0  0  0  0  0  2  0  0  0  0  0  0
  -28.4070  -12.6940   18.8520 C   0  0  0  0  0  2  0  0  0  0  0  0
  -27.9660  -13.4920   20.1060 C   0  0  0  0  0  3  0  0  0  0  0  0
  -28.9550  -13.3160   21.2780 C   0  0  0  0  0  2  0  0  0  0  0  0
  -30.2870  -13.6990   20.7900 N   0  0  0  0  0  0  0  0  0  0  0  0
  -32.1450  -14.9790   20.7740 O   0  0  0  0  0  0  0  0  0  0  0  0
  -30.1950  -16.0150   21.3380 N   0  0  0  0  0  0  0  0  0  0  0  0
  -29.2030  -15.8570   21.4310 H   0  0  0  0  0  0  0  0  0  0  0  0
  -25.5180  -14.0430   20.6330 C   0  0  0  0  0  0  0  0  0  0  0  0
  -24.4430  -13.2520   20.9320 C   0  0  0  0  0  0  0  0  0  0  0  0
  -24.9330  -11.9100   20.9630 C   0  0  0  0  0  0  0  0  0  0  0  0
  -26.5940  -13.1810   20.4950 N   0  0  0  0  0  0  0  0  0  0  0  0
  -26.2450  -11.8940   20.7580 N   0  0  0  0  0  0  0  0  0  0  0  0
  -24.2170  -10.6380   21.1190 C   0  0  0  0  0  0  0  0  0  0  0  0
  -24.5930   -9.6970   22.1030 C   0  0  0  0  0  3  0  0  0  0  0  0
  -23.8800   -8.4870   22.2470 C   0  0  0  0  0  3  0  0  0  0  0  0
  -22.7760   -8.2110   21.4060 C   0  0  0  0  0  0  0  0  0  0  0  0
  -22.4200   -9.1400   20.4130 C   0  0  0  0  0  3  0  0  0  0  0  0
  -23.1330  -10.3410   20.2670 C   0  0  0  0  0  3  0  0  0  0  0  0
  -22.0390   -7.0530   21.4560 O   0  0  0  0  0  0  0  0  0  0  0  0
  -21.9000   -6.3370   22.6170 C   0  0  0  0  0  0  0  0  0  0  0  0
  -21.3220   -6.9020   23.7740 C   0  0  0  0  0  3  0  0  0  0  0  0
  -21.1360   -6.1110   24.9260 C   0  0  0  0  0  3  0  0  0  0  0  0
  -21.5160   -4.7550   24.9180 C   0  0  0  0  0  0  0  0  0  0  0  0
  -22.0870   -4.1900   23.7640 C   0  0  0  0  0  3  0  0  0  0  0  0
  -22.2750   -4.9790   22.6160 C   0  0  0  0  0  0  0  0  0  0  0  0
  -22.8050   -4.4240   21.5000 F   0  0  0  0  0  0  0  0  0  0  0  0
  -21.3310   -3.9910   26.0200 F   0  0  0  0  0  0  0  0  0  0  0  0
  -23.0200  -13.7040   21.0810 C   0  0  0  0  0  0  0  0  0  0  0  0
  -22.2410  -13.0150   21.9070 N   0  0  0  0  0  0  0  0  0  0  0  0
  -22.6030  -14.7050   20.4990 O   0  0  0  0  0  0  0  0  0  0  0  0
  -22.5890  -12.2050   22.4000 H   0  0  0  0  0  0  0  0  0  0  0  0
  -21.2820  -13.2990   22.0470 H   0  0  0  0  0  0  0  0  0  0  0  0
  -25.6680  -15.4140   20.4420 N   0  0  0  0  0  0  0  0  0  0  0  0
  -24.8790  -16.0520   20.4720 H   0  0  0  0  0  0  0  0  0  0  0  0
  -26.5260  -15.8620   20.1480 H   0  0  0  0  0  0  0  0  0  0  0  0
  -28.8760  -22.2950   20.7240 C   0  0  0  0  0  2  0  0  0  0  0  0
  -30.9270  -23.9910   20.6140 C   0  0  0  0  0  1  0  0  0  0  0  0
  -29.4470  -23.8050   20.9690 C   0  0  0  0  0  3  0  0  0  0  0  0
  -28.5470  -25.0100   20.3580 C   0  0  0  0  0  2  0  0  0  0  0  0
  -28.7620  -26.4780   20.6080 O   0  0  0  0  0  0  0  0  0  0  0  0
  -24.7450  -31.8930   23.2980 C   0  0  0  0  0  0  0  0  0  0  0  0
  -27.6530  -27.3490   20.4550 C   0  0  0  0  0  0  0  0  0  0  0  0
  -23.6860  -30.4560   21.5970 C   0  0  0  0  0  3  0  0  0  0  0  0
  -25.2630  -28.9380   20.2720 C   0  0  0  0  0  0  0  0  0  0  0  0
  -26.2280  -30.8270   21.5770 C   0  0  0  0  0  2  0  0  0  0  0  0
  -26.3830  -29.4470   20.9430 C   0  0  0  0  0  0  0  0  0  0  0  0
  -27.5810  -28.6660   21.0200 C   0  0  0  0  0  3  0  0  0  0  0  0
  -26.5080  -26.9120   19.7460 C   0  0  0  0  0  3  0  0  0  0  0  0
  -25.3320  -27.6800   19.6610 C   0  0  0  0  0  3  0  0  0  0  0  0
  -24.0050  -29.7840   20.2370 C   0  0  0  0  0  2  0  0  0  0  0  0
  -24.9030  -31.0770   22.2140 N   0  0  0  0  0  0  0  0  0  0  0  0
  -23.6230  -32.1460   23.7590 O   0  0  0  0  0  0  0  0  0  0  0  0
  -22.9880  -29.4260   22.5190 C   0  0  0  0  0  0  0  0  0  0  0  0
  -21.6710  -29.2360   22.3270 N   0  0  0  0  0  0  0  0  0  0  0  0
  -23.6320  -28.8060   23.3690 O   0  0  0  0  0  0  0  0  0  0  0  0
  -21.2120  -29.7900   21.6180 H   0  0  0  0  0  0  0  0  0  0  0  0
  -18.2660  -28.0800   22.7410 C   0  0  0  0  0  0  0  0  0  0  0  0
  -20.8250  -28.2870   23.0550 C   0  0  0  0  0  3  0  0  0  0  0  0
  -20.9100  -26.8740   22.4310 C   0  0  0  0  0  2  0  0  0  0  0  0
  -19.8160  -26.6040   21.3930 C   0  0  0  0  0  2  0  0  0  0  0  0
  -18.4290  -26.7510   22.0220 C   0  0  0  0  0  2  0  0  0  0  0  0
  -19.3910  -28.8080   23.2120 C   0  0  0  0  0  0  0  0  0  0  0  0
  -19.1830  -30.0540   23.8440 C   0  0  0  0  0  3  0  0  0  0  0  0
  -17.8850  -30.5700   24.0100 C   0  0  0  0  0  3  0  0  0  0  0  0
  -16.7740  -29.8380   23.5540 C   0  0  0  0  0  3  0  0  0  0  0  0
  -16.9660  -28.5940   22.9260 C   0  0  0  0  0  3  0  0  0  0  0  0
  -25.9670  -32.5640   23.9970 C   0  0  0  0  0  3  0  0  0  0  0  0
  -25.6080  -33.9620   24.2760 N   0  0  0  0  0  0  0  0  0  0  0  0
  -25.9520  -35.0050   23.5080 C   0  0  0  0  0  0  0  0  0  0  0  0
  -26.6730  -34.8910   22.5130 O   0  0  0  0  0  0  0  0  0  0  0  0
  -24.9710  -34.1210   25.0420 H   0  0  0  0  0  0  0  0  0  0  0  0
  -24.1880  -36.7370   23.0430 C   0  0  0  0  0  1  0  0  0  0  0  0
  -25.4130  -36.3930   23.9060 C   0  0  0  0  0  3  0  0  0  0  0  0
  -27.4890  -37.3680   24.7830 C   0  0  0  0  0  1  0  0  0  0  0  0
  -26.4220  -37.4710   23.7930 N   0  0  0  0  0  0  0  0  0  0  0  0
  -25.9850  -38.3840   23.8880 H   0  0  0  0  0  0  0  0  0  0  0  0
  -26.4010  -31.8300   25.3250 C   0  0  1  0  0  0  0  0  0  0  0  0
  -25.2300  -31.5630   26.3000 C   0  0  0  0  0  1  0  0  0  0  0  0
  -27.0660  -30.4710   25.0060 C   0  0  0  0  0  1  0  0  0  0  0  0
  -27.4620  -32.6750   26.0660 C   0  0  0  0  0  1  0  0  0  0  0  0
  2  1  2  0
  2 13  1  0
  3  2  1  0
  4  3  2  0
  4  5  1  0
  5 52  1  0
  5  1  1  0
  6  8  1  0
  8  7  1  0
  8  3  1  0
 10  9  1  0
 10  4  1  0
 11 12  1  0
 12 10  1  0
 14 22  1  0
 15 20  1  0
 16 17  1  0
 16 15  1  0
 18 17  1  0
 18 27  1  0
 18 19  1  0
 20 14  1  0
 20 19  1  0
 21 14  2  0
 22 23  1  0
 22 13  1  0
 24 25  2  0
 25 26  1  0
 25 44  1  0
 26 29  1  0
 27 24  1  0
 27 28  1  0
 28 26  2  0
 29 30  1  0
 30 31  2  0
 32 35  1  0
 32 31  1  0
 33 32  2  0
 34 33  1  0
 34 29  2  0
 35 36  1  0
 36 37  1  0
 37 38  2  0
 39 38  1  0
 39 43  1  0
 40 39  2  0
 41 36  2  0
 41 40  1  0
 42 41  1  0
 44 45  1  0
 45 48  1  0
 45 47  1  0
 46 44  2  0
 49 50  1  0
 49 24  1  0
 51 49  1  0
 52 54  1  0
 54 53  1  0
 55 56  1  0
 55 54  1  0
 57 68  2  0
 58 56  1  0
 58 63  1  0
 59 67  1  0
 59 69  1  0
 60 62  1  0
 61 67  1  0
 62 63  2  0
 62 61  1  0
 64 58  2  0
 65 64  1  0
 65 60  2  0
 66 60  1  0
 66 59  1  0
 67 57  1  0
 69 71  2  0
 70 69  1  0
 72 70  1  0
 73 82  2  0
 73 78  1  0
 74 70  1  0
 74 78  1  0
 75 74  1  0
 76 77  1  0
 76 75  1  0
 77 73  1  0
 78 79  2  0
 79 80  1  0
 81 80  2  0
 82 81  1  0
 83 57  1  0
 83 84  1  0
 83 93  1  0
 84 87  1  0
 85 89  1  0
 85 84  1  0
 86 85  2  0
 89 88  1  0
 91 92  1  0
 91 89  1  0
 91 90  1  0
 93 96  1  1
 93 94  1  0
 95 93  1  0
M  ISO  4  14 100  22 100  55 101  56 101
M  END
>  <TORSDO>  (62) 
F 23

>  <SCORE>  (62) 
-12.748

>  <name>  (62) 
61

>  <ligand_id>  (62) 
61

>  <original_smiles>  (62) 
[H]c1c([H])c([H])c2c(c1[H])C([H])([H])C([H])([H])C([H])([H])C2([H])N([H])C(=O)C1([H])N(C(=O)C([H])(N([H])C(=O)C([H])(N([H])C([H])([H])[H])C([H])([H])[H])C(C([H])([H])[H])(C([H])([H])[H])C([H])([H])[H])C([H])([H])c2c([H])c(OC([H])([H])C([H])(C([H])([H])[H])C([H])([H])n3c([H])c(C([H])([H])N([H])C(=O)N4C([H])([H])C([H])([H])C([H])([H])C([H])(n5nc(-c6c([H])c([H])c(Oc7c([H])c([H])c(F)c([H])c7F)c([H])c6[H])c(C(=O)N([H])[H])c5N([H])[H])C4([H])[H])c(C([H])(C([H])([H])[H])C([H])([H])[H])c3C([H])(C([H])([H])[H])C([H])([H])C([H])([H])[H])c([H])c([H])c2C1([H])[H]

>  <smiles>  (62) 
[H]c1c([H])c([H])c2c(c1[H])C([H])([H])C([H])([H])C([H])([H])C2([H])N([H])C(=O)C1([H])N(C(=O)C([H])(N([H])C(=O)C([H])(N([H])C([H])([H])[H])C([H])([H])[H])C(C([H])([H])[H])(C([H])([H])[H])C([H])([H])[H])C([H])([H])c2c([H])c(OC([H])([H])C([H])(C([H])([H])[H])C([H])([H])n3c([H])c(C([H])([H])N([H])C(=O)N4C([H])([H])C([H])([H])C([H])([H])C([H])(n5nc(-c6c([H])c([H])c(Oc7c([H])c([H])c(F)c([H])c7F)c([H])c6[H])c(C(=O)N([H])[H])c5N([H])[H])C4([H])[H])c(C([H])(C([H])([H])[H])C([H])([H])[H])c3C([H])(C([H])([H])[H])C([H])([H])C([H])([H])[H])c([H])c([H])c2C1([H])[H]

$$$$
62:0:0
     RDKit          3D

 93101  0  0  1  0  0  0  0  0999 V2000
  -30.3960  -15.0750   20.3260 C   0  0  0  0  0  0  0  0  0  0  0  0
  -30.4310  -12.6010   19.7450 C   0  0  0  0  0  2  0  0  0  0  0  0
  -29.5510  -12.2960   18.5100 C   0  0  0  0  0  2  0  0  0  0  0  0
  -28.0890  -12.0630   18.9330 C   0  0  0  0  0  2  0  0  0  0  0  0
  -27.5780  -13.1410   19.9220 C   0  0  0  0  0  3  0  0  0  0  0  0
  -28.5860  -13.4060   21.0620 C   0  0  0  0  0  2  0  0  0  0  0  0
  -29.8510  -13.7950   20.4240 N   0  0  0  0  0  0  0  0  0  0  0  0
  -31.6170  -15.1350   20.1290 O   0  0  0  0  0  0  0  0  0  0  0  0
  -28.9440  -18.8260   19.6750 C   0  0  0  0  0  3  0  0  0  0  0  0
  -29.1340  -20.2890   19.9010 C   0  0  0  0  0  0  0  0  0  0  0  0
  -30.2140  -20.5380   20.8000 C   0  0  0  0  0  0  0  0  0  0  0  0
  -31.0100  -19.4580   21.2890 C   0  0  0  0  0  0  0  0  0  0  0  0
  -29.7890  -17.7340   20.2330 C   0  0  0  0  0  0  0  0  0  0  0  0
  -30.8170  -18.1540   20.9880 N   0  0  0  0  0  0  0  0  0  0  0  0
  -29.5600  -16.2220   20.1590 N   0  0  0  0  0  0  0  0  0  0  0  0
  -28.5890  -15.9760   20.0600 H   0  0  0  0  0  0  0  0  0  0  0  0
  -25.2010  -13.7200   20.6680 C   0  0  0  0  0  0  0  0  0  0  0  0
  -24.1320  -12.9400   21.0200 C   0  0  0  0  0  0  0  0  0  0  0  0
  -24.5930  -11.5880   20.9680 C   0  0  0  0  0  0  0  0  0  0  0  0
  -26.2410  -12.8410   20.4170 N   0  0  0  0  0  0  0  0  0  0  0  0
  -25.8860  -11.5540   20.6660 N   0  0  0  0  0  0  0  0  0  0  0  0
  -23.8630  -10.3240   21.1320 C   0  0  0  0  0  0  0  0  0  0  0  0
  -24.2840   -9.3420   22.0550 C   0  0  0  0  0  3  0  0  0  0  0  0
  -23.5520   -8.1450   22.2080 C   0  0  0  0  0  3  0  0  0  0  0  0
  -22.3860   -7.9210   21.4390 C   0  0  0  0  0  0  0  0  0  0  0  0
  -21.9860   -8.8920   20.5040 C   0  0  0  0  0  3  0  0  0  0  0  0
  -22.7190  -10.0810   20.3480 C   0  0  0  0  0  3  0  0  0  0  0  0
  -21.6260   -6.7780   21.5040 O   0  0  0  0  0  0  0  0  0  0  0  0
  -21.5470   -6.0320   22.6530 C   0  0  0  0  0  0  0  0  0  0  0  0
  -21.0910   -6.5830   23.8710 C   0  0  0  0  0  3  0  0  0  0  0  0
  -20.9580   -5.7620   25.0090 C   0  0  0  0  0  3  0  0  0  0  0  0
  -21.2720   -4.3920   24.9300 C   0  0  0  0  0  0  0  0  0  0  0  0
  -21.7220   -3.8410   23.7190 C   0  0  0  0  0  3  0  0  0  0  0  0
  -21.8560   -4.6590   22.5820 C   0  0  0  0  0  0  0  0  0  0  0  0
  -22.2690   -4.1180   21.4100 F   0  0  0  0  0  0  0  0  0  0  0  0
  -21.1390   -3.6010   26.0220 F   0  0  0  0  0  0  0  0  0  0  0  0
  -22.7350  -13.4140   21.2920 C   0  0  0  0  0  0  0  0  0  0  0  0
  -22.0060  -12.7050   22.1480 N   0  0  0  0  0  0  0  0  0  0  0  0
  -22.2990  -14.4460   20.7840 O   0  0  0  0  0  0  0  0  0  0  0  0
  -22.3760  -11.8730   22.5780 H   0  0  0  0  0  0  0  0  0  0  0  0
  -21.0660  -12.9960   22.3730 H   0  0  0  0  0  0  0  0  0  0  0  0
  -25.3670  -15.0920   20.5110 N   0  0  0  0  0  0  0  0  0  0  0  0
  -24.6030  -15.7470   20.6390 H   0  0  0  0  0  0  0  0  0  0  0  0
  -26.2050  -15.5310   20.1570 H   0  0  0  0  0  0  0  0  0  0  0  0
  -31.5530  -22.6900   20.5530 C   0  0  0  0  0  1  0  0  0  0  0  0
  -30.4640  -21.9460   21.3370 C   0  0  0  0  0  2  0  0  0  0  0  0
  -31.5220  -19.4580   23.7670 C   0  0  0  0  0  1  0  0  0  0  0  0
  -32.0960  -19.6280   22.3500 C   0  0  0  0  0  2  0  0  0  0  0  0
  -28.1070  -21.5300   19.4540 C   0  0  0  0  0  2  0  0  0  0  0  0
  -28.3960  -23.1580   19.0010 C   0  0  0  0  0  2  0  0  0  0  0  0
  -25.9600  -23.9960   19.1810 C   0  0  0  0  0  1  0  0  0  0  0  0
  -27.4060  -24.4900   19.3900 C   0  0  0  0  0  3  0  0  0  0  0  0
  -27.6340  -26.0230   19.0340 O   0  0  0  0  0  0  0  0  0  0  0  0
  -24.5960  -31.5890   22.9000 C   0  0  0  0  0  0  0  0  0  0  0  0
  -26.6530  -27.0850   19.2000 C   0  0  0  0  0  0  0  0  0  0  0  0
  -23.1910  -30.4160   21.2540 C   0  0  0  0  0  3  0  0  0  0  0  0
  -24.4330  -28.9510   19.5440 C   0  0  0  0  0  0  0  0  0  0  0  0
  -25.7340  -30.5850   20.8860 C   0  0  0  0  0  2  0  0  0  0  0  0
  -25.6820  -29.2640   20.0970 C   0  0  0  0  0  0  0  0  0  0  0  0
  -26.7910  -28.3460   19.9210 C   0  0  0  0  0  3  0  0  0  0  0  0
  -25.4060  -26.9400   18.5550 C   0  0  0  0  0  3  0  0  0  0  0  0
  -24.3100  -27.8030   18.7540 C   0  0  0  0  0  3  0  0  0  0  0  0
  -23.2560  -29.8800   19.8010 C   0  0  0  0  0  2  0  0  0  0  0  0
  -24.5320  -30.8790   21.7340 N   0  0  0  0  0  0  0  0  0  0  0  0
  -23.5770  -31.8650   23.5520 O   0  0  0  0  0  0  0  0  0  0  0  0
  -22.5560  -29.3400   22.1690 C   0  0  0  0  0  0  0  0  0  0  0  0
  -21.2170  -29.2180   22.1330 N   0  0  0  0  0  0  0  0  0  0  0  0
  -23.2670  -28.6230   22.8770 O   0  0  0  0  0  0  0  0  0  0  0  0
  -20.7030  -29.8460   21.5300 H   0  0  0  0  0  0  0  0  0  0  0  0
  -17.8500  -28.0290   22.7410 C   0  0  0  0  0  0  0  0  0  0  0  0
  -20.4230  -28.2390   22.8790 C   0  0  0  0  0  3  0  0  0  0  0  0
  -20.4700  -26.8520   22.1960 C   0  0  0  0  0  2  0  0  0  0  0  0
  -19.3070  -26.6190   21.2270 C   0  0  0  0  0  2  0  0  0  0  0  0
  -17.9650  -26.7320   21.9570 C   0  0  0  0  0  2  0  0  0  0  0  0
  -19.0030  -28.7440   23.1590 C   0  0  0  0  0  0  0  0  0  0  0  0
  -18.8390  -29.9610   23.8560 C   0  0  0  0  0  3  0  0  0  0  0  0
  -17.5540  -30.4630   24.1350 C   0  0  0  0  0  3  0  0  0  0  0  0
  -16.4160  -29.7430   23.7330 C   0  0  0  0  0  3  0  0  0  0  0  0
  -16.5650  -28.5280   23.0410 C   0  0  0  0  0  3  0  0  0  0  0  0
  -25.9550  -32.1060   23.4600 C   0  0  0  0  0  3  0  0  0  0  0  0
  -26.5630  -31.1680   24.5760 C   0  0  1  0  0  0  0  0  0  0  0  0
  -25.5730  -30.8360   25.7180 C   0  0  0  0  0  1  0  0  0  0  0  0
  -27.0380  -29.8270   23.9710 C   0  0  0  0  0  1  0  0  0  0  0  0
  -27.8100  -31.8380   25.1980 C   0  0  0  0  0  1  0  0  0  0  0  0
  -25.7300  -33.4600   23.9940 N   0  0  0  0  0  0  0  0  0  0  0  0
  -26.0510  -34.5950   23.3590 C   0  0  0  0  0  0  0  0  0  0  0  0
  -26.6350  -34.6090   22.2720 O   0  0  0  0  0  0  0  0  0  0  0  0
  -25.1970  -33.5260   24.8480 H   0  0  0  0  0  0  0  0  0  0  0  0
  -24.3870  -36.4830   23.3850 C   0  0  0  0  0  1  0  0  0  0  0  0
  -25.6630  -35.9240   24.0340 C   0  0  0  0  0  3  0  0  0  0  0  0
  -27.8900  -36.6100   24.8060 C   0  0  0  0  0  1  0  0  0  0  0  0
  -26.7320  -36.9440   23.9820 N   0  0  0  0  0  0  0  0  0  0  0  0
  -26.3800  -37.8480   24.2830 H   0  0  0  0  0  0  0  0  0  0  0  0
  1  7  1  0
  2  7  1  0
  3  4  1  0
  3  2  1  0
  5  4  1  0
  5 20  1  0
  5  6  1  0
  7  6  1  0
  8  1  2  0
  9 10  2  0
  9 13  1  0
 10 11  1  0
 11 12  2  0
 11 46  1  0
 12 48  1  0
 13 14  2  0
 14 12  1  0
 15 13  1  0
 15  1  1  0
 16 15  1  0
 17 18  2  0
 18 37  1  0
 19 18  1  0
 19 22  1  0
 20 21  1  0
 20 17  1  0
 21 19  2  0
 22 23  1  0
 23 24  2  0
 25 28  1  0
 25 24  1  0
 26 25  2  0
 27 26  1  0
 27 22  2  0
 28 29  1  0
 29 30  1  0
 30 31  2  0
 32 31  1  0
 32 36  1  0
 33 32  2  0
 34 29  2  0
 34 33  1  0
 35 34  1  0
 37 38  1  0
 38 41  1  0
 38 40  1  0
 39 37  2  0
 42 43  1  0
 42 17  1  0
 44 42  1  0
 45 46  1  0
 48 47  1  0
 49 10  1  0
 50 52  1  0
 50 49  1  0
 52 51  1  0
 53 55  1  0
 53 52  1  0
 54 65  2  0
 55 60  1  0
 56 64  1  0
 56 66  1  0
 57 63  1  0
 57 59  1  0
 58 64  1  0
 59 58  1  0
 60 59  2  0
 61 62  1  0
 61 55  2  0
 62 57  2  0
 63 56  1  0
 64 54  1  0
 66 68  2  0
 67 66  1  0
 69 67  1  0
 70 79  2  0
 70 75  1  0
 71 67  1  0
 71 75  1  0
 72 71  1  0
 73 74  1  0
 73 72  1  0
 74 70  1  0
 75 76  2  0
 76 77  1  0
 78 77  2  0
 79 78  1  0
 80 54  1  0
 80 85  1  0
 80 81  1  0
 81 84  1  1
 81 82  1  0
 83 81  1  0
 85 88  1  0
 86 85  1  0
 86 90  1  0
 87 86  2  0
 90 89  1  0
 92 90  1  0
 92 93  1  0
 92 91  1  0
M  ISO  4   1 100  15 100  52 101  53 101
M  END
>  <TORSDO>  (63) 
F 20

>  <SCORE>  (63) 
-13.784

>  <name>  (63) 
62

>  <ligand_id>  (63) 
62

>  <original_smiles>  (63) 
[H]c1c([H])c([H])c2c(c1[H])C([H])([H])C([H])([H])C([H])([H])C2([H])N([H])C(=O)C1([H])N(C(=O)C([H])(N([H])C(=O)C([H])(N([H])C([H])([H])[H])C([H])([H])[H])C(C([H])([H])[H])(C([H])([H])[H])C([H])([H])[H])C([H])([H])c2c([H])c(OC([H])(C([H])([H])[H])C([H])([H])C([H])([H])c3c([H])c(N([H])C(=O)N4C([H])([H])C([H])([H])C([H])([H])C([H])(n5nc(-c6c([H])c([H])c(Oc7c([H])c([H])c(F)c([H])c7F)c([H])c6[H])c(C(=O)N([H])[H])c5N([H])[H])C4([H])[H])nc(C([H])([H])C([H])([H])[H])c3C([H])([H])C([H])([H])[H])c([H])c([H])c2C1([H])[H]

>  <smiles>  (63) 
[H]c1c([H])c([H])c2c(c1[H])C([H])([H])C([H])([H])C([H])([H])C2([H])N([H])C(=O)C1([H])N(C(=O)C([H])(N([H])C(=O)C([H])(N([H])C([H])([H])[H])C([H])([H])[H])C(C([H])([H])[H])(C([H])([H])[H])C([H])([H])[H])C([H])([H])c2c([H])c(OC([H])(C([H])([H])[H])C([H])([H])C([H])([H])c3c([H])c(N([H])C(=O)N4C([H])([H])C([H])([H])C([H])([H])C([H])(n5nc(-c6c([H])c([H])c(Oc7c([H])c([H])c(F)c([H])c7F)c([H])c6[H])c(C(=O)N([H])[H])c5N([H])[H])C4([H])[H])nc(C([H])([H])C([H])([H])[H])c3C([H])([H])C([H])([H])[H])c([H])c([H])c2C1([H])[H]

$$$$
63:0:0
     RDKit          3D

 90 98  0  0  1  0  0  0  0  0999 V2000
  -30.7970  -20.5800   20.3050 C   0  0  0  0  0  2  0  0  0  0  0  0
  -28.4190  -20.1540   21.0130 C   0  0  0  0  0  2  0  0  0  0  0  0
  -30.3030  -21.8620   19.5650 C   0  0  0  0  0  2  0  0  0  0  0  0
  -28.5350  -21.6810   21.3730 C   0  0  0  0  0  2  0  0  0  0  0  0
  -29.7040  -19.4850   20.4260 C   0  0  0  0  0  3  0  0  0  0  0  0
  -29.0880  -22.6010   20.2370 C   0  0  0  0  0  3  0  0  0  0  0  0
  -30.6840  -24.6870   20.4780 C   0  0  0  0  0  1  0  0  0  0  0  0
  -29.2560  -24.1460   20.6500 C   0  0  0  0  0  3  0  0  0  0  0  0
  -28.2160  -25.1430   19.9930 C   0  0  0  0  0  2  0  0  0  0  0  0
  -28.3740  -26.5850   20.2350 O   0  0  0  0  0  0  0  0  0  0  0  0
  -24.6140  -31.8990   23.2320 C   0  0  0  0  0  0  0  0  0  0  0  0
  -27.2410  -27.3980   20.1540 C   0  0  0  0  0  0  0  0  0  0  0  0
  -23.4080  -30.5000   21.5920 C   0  0  0  0  0  3  0  0  0  0  0  0
  -24.8620  -28.9710   20.1480 C   0  0  0  0  0  0  0  0  0  0  0  0
  -25.9390  -30.8440   21.3950 C   0  0  0  0  0  2  0  0  0  0  0  0
  -26.0250  -29.4700   20.7470 C   0  0  0  0  0  0  0  0  0  0  0  0
  -27.2160  -28.6940   20.7430 C   0  0  0  0  0  3  0  0  0  0  0  0
  -26.0600  -26.9520   19.5120 C   0  0  0  0  0  3  0  0  0  0  0  0
  -24.8820  -27.7190   19.5190 C   0  0  0  0  0  3  0  0  0  0  0  0
  -23.6160  -29.8280   20.2090 C   0  0  0  0  0  2  0  0  0  0  0  0
  -24.6740  -31.0970   22.1310 N   0  0  0  0  0  0  0  0  0  0  0  0
  -23.5330  -32.1690   23.7720 O   0  0  0  0  0  0  0  0  0  0  0  0
  -22.7570  -29.4760   22.5510 C   0  0  0  0  0  0  0  0  0  0  0  0
  -21.4330  -29.2870   22.4160 N   0  0  0  0  0  0  0  0  0  0  0  0
  -23.4390  -28.8580   23.3720 O   0  0  0  0  0  0  0  0  0  0  0  0
  -20.9470  -29.8380   21.7240 H   0  0  0  0  0  0  0  0  0  0  0  0
  -18.0650  -28.0460   22.8760 C   0  0  0  0  0  0  0  0  0  0  0  0
  -20.6160  -28.3460   23.1820 C   0  0  0  0  0  3  0  0  0  0  0  0
  -20.7460  -26.9100   22.6220 C   0  0  0  0  0  2  0  0  0  0  0  0
  -19.6630  -26.5620   21.5950 C   0  0  0  0  0  2  0  0  0  0  0  0
  -18.2700  -26.6930   22.2170 C   0  0  0  0  0  2  0  0  0  0  0  0
  -19.1660  -28.8300   23.3130 C   0  0  0  0  0  0  0  0  0  0  0  0
  -18.9200  -30.0960   23.8870 C   0  0  0  0  0  3  0  0  0  0  0  0
  -17.6060  -30.5800   24.0250 C   0  0  0  0  0  3  0  0  0  0  0  0
  -16.5190  -29.7940   23.6030 C   0  0  0  0  0  3  0  0  0  0  0  0
  -16.7490  -28.5290   23.0360 C   0  0  0  0  0  3  0  0  0  0  0  0
  -25.8990  -32.5300   23.8530 C   0  0  0  0  0  3  0  0  0  0  0  0
  -26.4200  -31.7550   25.1250 C   0  0  1  0  0  0  0  0  0  0  0  0
  -25.3280  -31.5140   26.1940 C   0  0  0  0  0  1  0  0  0  0  0  0
  -27.0010  -30.3790   24.7260 C   0  0  0  0  0  1  0  0  0  0  0  0
  -27.5740  -32.5470   25.7840 C   0  0  0  0  0  1  0  0  0  0  0  0
  -25.5900  -33.9270   24.1860 N   0  0  0  0  0  0  0  0  0  0  0  0
  -25.9150  -34.9800   23.4240 C   0  0  0  0  0  0  0  0  0  0  0  0
  -26.5770  -34.8770   22.3870 O   0  0  0  0  0  0  0  0  0  0  0  0
  -25.0000  -34.0800   24.9910 H   0  0  0  0  0  0  0  0  0  0  0  0
  -24.1810  -36.7680   23.0820 C   0  0  0  0  0  1  0  0  0  0  0  0
  -25.4290  -36.3680   23.8840 C   0  0  0  0  0  3  0  0  0  0  0  0
  -27.5680  -37.2560   24.6980 C   0  0  0  0  0  1  0  0  0  0  0  0
  -26.4590  -37.4230   23.7610 N   0  0  0  0  0  0  0  0  0  0  0  0
  -26.0530  -38.3420   23.9110 H   0  0  0  0  0  0  0  0  0  0  0  0
  -30.2260  -18.1740   21.1520 C   0  0  0  0  0  2  0  0  0  0  0  0
  -29.4170  -16.8130   21.0130 C   0  0  0  0  0  2  0  0  0  0  0  0
  -30.6870  -14.6710   20.3160 C   0  0  0  0  0  0  0  0  0  0  0  0
  -30.3970  -12.4440   19.2660 C   0  0  0  0  0  2  0  0  0  0  0  0
  -29.4540  -12.5720   18.0490 C   0  0  0  0  0  2  0  0  0  0  0  0
  -27.9880  -12.4300   18.4990 C   0  0  0  0  0  2  0  0  0  0  0  0
  -27.6420  -13.3120   19.7280 C   0  0  0  0  0  3  0  0  0  0  0  0
  -28.7070  -13.1960   20.8400 C   0  0  0  0  0  2  0  0  0  0  0  0
  -30.0080  -13.4880   20.2320 N   0  0  0  0  0  0  0  0  0  0  0  0
  -31.8940  -14.7240   20.0650 O   0  0  0  0  0  0  0  0  0  0  0  0
  -30.0110  -16.3370   18.6880 C   0  0  0  0  0  1  0  0  0  0  0  0
  -29.9380  -15.7940   20.0470 N   0  0  0  0  0  0  0  0  0  0  0  0
  -25.2490  -13.9140   20.4320 C   0  0  0  0  0  0  0  0  0  0  0  0
  -24.1800  -13.1410   20.8040 C   0  0  0  0  0  0  0  0  0  0  0  0
  -24.6470  -11.7940   20.7960 C   0  0  0  0  0  0  0  0  0  0  0  0
  -26.2970  -13.0330   20.2200 N   0  0  0  0  0  0  0  0  0  0  0  0
  -25.9400  -11.7550   20.5010 N   0  0  0  0  0  0  0  0  0  0  0  0
  -23.9260  -10.5290   20.9960 C   0  0  0  0  0  0  0  0  0  0  0  0
  -24.3620   -9.5710   21.9360 C   0  0  0  0  0  3  0  0  0  0  0  0
  -23.6410   -8.3730   22.1250 C   0  0  0  0  0  3  0  0  0  0  0  0
  -22.4690   -8.1230   21.3720 C   0  0  0  0  0  0  0  0  0  0  0  0
  -22.0520   -9.0710   20.4220 C   0  0  0  0  0  3  0  0  0  0  0  0
  -22.7740  -10.2610   20.2320 C   0  0  0  0  0  3  0  0  0  0  0  0
  -21.7200   -6.9750   21.4690 O   0  0  0  0  0  0  0  0  0  0  0  0
  -21.6770   -6.2400   22.6260 C   0  0  0  0  0  0  0  0  0  0  0  0
  -21.2540   -6.8030   23.8500 C   0  0  0  0  0  3  0  0  0  0  0  0
  -21.1590   -5.9950   25.0000 C   0  0  0  0  0  3  0  0  0  0  0  0
  -21.4750   -4.6250   24.9270 C   0  0  0  0  0  0  0  0  0  0  0  0
  -21.8920   -4.0620   23.7090 C   0  0  0  0  0  3  0  0  0  0  0  0
  -21.9900   -4.8680   22.5600 C   0  0  0  0  0  0  0  0  0  0  0  0
  -22.3710   -4.3170   21.3820 F   0  0  0  0  0  0  0  0  0  0  0  0
  -21.3770   -3.8460   26.0300 F   0  0  0  0  0  0  0  0  0  0  0  0
  -22.7810  -13.6210   21.0580 C   0  0  0  0  0  0  0  0  0  0  0  0
  -22.0460  -12.9370   21.9280 N   0  0  0  0  0  0  0  0  0  0  0  0
  -22.3470  -14.6380   20.5200 O   0  0  0  0  0  0  0  0  0  0  0  0
  -22.4040  -12.1110   22.3850 H   0  0  0  0  0  0  0  0  0  0  0  0
  -21.1110  -13.2530   22.1500 H   0  0  0  0  0  0  0  0  0  0  0  0
  -25.4080  -15.2820   20.2340 N   0  0  0  0  0  0  0  0  0  0  0  0
  -24.6400  -15.9340   20.3380 H   0  0  0  0  0  0  0  0  0  0  0  0
  -26.2670  -15.7200   19.9270 H   0  0  0  0  0  0  0  0  0  0  0  0
  1  5  1  0
  2  4  1  0
  3  6  1  0
  3  1  1  0
  5  2  1  0
  5 51  1  0
  6  8  1  0
  6  4  1  0
  8  7  1  0
  9 10  1  0
  9  8  1  0
 11 22  2  0
 12 10  1  0
 12 17  1  0
 13 21  1  0
 13 23  1  0
 14 20  1  0
 14 16  1  0
 15 21  1  0
 16 15  1  0
 17 16  2  0
 18 19  1  0
 18 12  2  0
 19 14  2  0
 20 13  1  0
 21 11  1  0
 23 25  2  0
 24 23  1  0
 26 24  1  0
 27 36  2  0
 27 32  1  0
 28 24  1  0
 28 32  1  0
 29 28  1  0
 30 31  1  0
 30 29  1  0
 31 27  1  0
 32 33  2  0
 33 34  1  0
 35 34  2  0
 36 35  1  0
 37 11  1  0
 37 42  1  0
 37 38  1  0
 38 41  1  1
 38 39  1  0
 40 38  1  0
 42 45  1  0
 43 47  1  0
 43 42  1  0
 44 43  2  0
 47 46  1  0
 49 47  1  0
 49 50  1  0
 49 48  1  0
 52 51  1  0
 54 59  1  0
 55 56  1  0
 55 54  1  0
 57 56  1  0
 57 66  1  0
 57 58  1  0
 59 53  1  0
 59 58  1  0
 60 53  2  0
 61 62  1  0
 62 53  1  0
 62 52  1  0
 63 64  2  0
 64 83  1  0
 65 64  1  0
 65 68  1  0
 66 63  1  0
 66 67  1  0
 67 65  2  0
 68 69  1  0
 69 70  2  0
 71 74  1  0
 71 70  1  0
 72 71  2  0
 73 72  1  0
 73 68  2  0
 74 75  1  0
 75 76  1  0
 76 77  2  0
 78 77  1  0
 78 82  1  0
 79 78  2  0
 80 75  2  0
 80 79  1  0
 81 80  1  0
 83 84  1  0
 84 87  1  0
 84 86  1  0
 85 83  2  0
 88 89  1  0
 88 63  1  0
 90 88  1  0
M  ISO  4   9 101  10 101  53 100  62 100
M  END
>  <TORSDO>  (64) 
F 20

>  <SCORE>  (64) 
-13.636

>  <name>  (64) 
63

>  <ligand_id>  (64) 
63

>  <original_smiles>  (64) 
[H]c1c([H])c([H])c2c(c1[H])C([H])([H])C([H])([H])C([H])([H])C2([H])N([H])C(=O)C1([H])N(C(=O)C([H])(N([H])C(=O)C([H])(N([H])C([H])([H])[H])C([H])([H])[H])C(C([H])([H])[H])(C([H])([H])[H])C([H])([H])[H])C([H])([H])c2c([H])c(OC([H])([H])C([H])(C([H])([H])[H])C3([H])C([H])([H])C([H])([H])C([H])(C([H])([H])C([H])([H])N(C(=O)N4C([H])([H])C([H])([H])C([H])([H])C([H])(n5nc(-c6c([H])c([H])c(Oc7c([H])c([H])c(F)c([H])c7F)c([H])c6[H])c(C(=O)N([H])[H])c5N([H])[H])C4([H])[H])C([H])([H])[H])C([H])([H])C3([H])[H])c([H])c([H])c2C1([H])[H]

>  <smiles>  (64) 
[H]c1c([H])c([H])c2c(c1[H])C([H])([H])C([H])([H])C([H])([H])C2([H])N([H])C(=O)C1([H])N(C(=O)C([H])(N([H])C(=O)C([H])(N([H])C([H])([H])[H])C([H])([H])[H])C(C([H])([H])[H])(C([H])([H])[H])C([H])([H])[H])C([H])([H])c2c([H])c(OC([H])([H])C([H])(C([H])([H])[H])C3([H])C([H])([H])C([H])([H])C([H])(C([H])([H])C([H])([H])N(C(=O)N4C([H])([H])C([H])([H])C([H])([H])C([H])(n5nc(-c6c([H])c([H])c(Oc7c([H])c([H])c(F)c([H])c7F)c([H])c6[H])c(C(=O)N([H])[H])c5N([H])[H])C4([H])[H])C([H])([H])[H])C([H])([H])C3([H])[H])c([H])c([H])c2C1([H])[H]

$$$$
64:0:0
     RDKit          3D

 94102  0  0  1  0  0  0  0  0999 V2000
  -28.4290  -20.9930   19.6200 C   0  0  0  0  0  3  0  0  0  0  0  0
  -29.0490  -19.9330   20.2850 C   0  0  0  0  0  0  0  0  0  0  0  0
  -29.8620  -20.6110   21.2610 C   0  0  0  0  0  0  0  0  0  0  0  0
  -29.6660  -21.9870   21.1700 C   0  0  0  0  0  0  0  0  0  0  0  0
  -30.7950  -19.9220   22.2330 C   0  0  0  0  0  1  0  0  0  0  0  0
  -28.8400  -22.2730   20.0780 N   0  0  0  0  0  0  0  0  0  0  0  0
  -31.6870  -23.4750   21.5210 C   0  0  0  0  0  1  0  0  0  0  0  0
  -30.1720  -22.9200   23.5060 C   0  0  0  0  0  1  0  0  0  0  0  0
  -30.2650  -23.1210   21.9820 C   0  0  0  0  0  3  0  0  0  0  0  0
  -28.8330  -18.3570   20.0320 C   0  0  0  0  0  3  0  0  0  0  0  0
  -29.9480  -17.2040   20.2910 C   0  0  0  0  0  3  0  0  0  0  0  0
  -30.3030  -14.6080   19.9140 C   0  0  0  0  0  0  0  0  0  0  0  0
  -30.0610  -12.3320   18.9020 C   0  0  0  0  0  2  0  0  0  0  0  0
  -29.0100  -12.3820   17.7740 C   0  0  0  0  0  2  0  0  0  0  0  0
  -27.5960  -12.1600   18.3430 C   0  0  0  0  0  2  0  0  0  0  0  0
  -27.3120  -13.0400   19.5870 C   0  0  0  0  0  3  0  0  0  0  0  0
  -28.4730  -12.9810   20.6040 C   0  0  0  0  0  2  0  0  0  0  0  0
  -29.6960  -13.3720   19.8930 N   0  0  0  0  0  0  0  0  0  0  0  0
  -31.4480  -14.7430   19.4740 O   0  0  0  0  0  0  0  0  0  0  0  0
  -29.5470  -15.7220   20.2460 N   0  0  0  0  0  0  0  0  0  0  0  0
  -28.6060  -15.5130   20.5480 H   0  0  0  0  0  0  0  0  0  0  0  0
  -24.9940  -13.5620   20.5490 C   0  0  0  0  0  0  0  0  0  0  0  0
  -23.9860  -12.7560   21.0030 C   0  0  0  0  0  0  0  0  0  0  0  0
  -24.4740  -11.4160   20.8980 C   0  0  0  0  0  0  0  0  0  0  0  0
  -26.0300  -12.7120   20.1990 N   0  0  0  0  0  0  0  0  0  0  0  0
  -25.7300  -11.4160   20.4690 N   0  0  0  0  0  0  0  0  0  0  0  0
  -23.7980  -10.1340   21.1320 C   0  0  0  0  0  0  0  0  0  0  0  0
  -24.2970   -9.1960   22.0620 C   0  0  0  0  0  3  0  0  0  0  0  0
  -23.6170   -7.9780   22.2820 C   0  0  0  0  0  3  0  0  0  0  0  0
  -22.4240   -7.6930   21.5750 C   0  0  0  0  0  0  0  0  0  0  0  0
  -21.9470   -8.6200   20.6330 C   0  0  0  0  0  3  0  0  0  0  0  0
  -22.6260   -9.8300   20.4100 C   0  0  0  0  0  3  0  0  0  0  0  0
  -21.7120   -6.5240   21.7050 O   0  0  0  0  0  0  0  0  0  0  0  0
  -21.6850   -5.8240   22.8840 C   0  0  0  0  0  0  0  0  0  0  0  0
  -21.1610   -6.3830   24.0710 C   0  0  0  0  0  3  0  0  0  0  0  0
  -21.0920   -5.6070   25.2450 C   0  0  0  0  0  3  0  0  0  0  0  0
  -21.5310   -4.2690   25.2330 C   0  0  0  0  0  0  0  0  0  0  0  0
  -22.0430   -3.7070   24.0500 C   0  0  0  0  0  3  0  0  0  0  0  0
  -22.1190   -4.4830   22.8790 C   0  0  0  0  0  0  0  0  0  0  0  0
  -22.5950   -3.9300   21.7360 F   0  0  0  0  0  0  0  0  0  0  0  0
  -21.4570   -3.5180   26.3570 F   0  0  0  0  0  0  0  0  0  0  0  0
  -22.6090  -13.1920   21.4160 C   0  0  0  0  0  0  0  0  0  0  0  0
  -21.9830  -12.4590   22.3300 N   0  0  0  0  0  0  0  0  0  0  0  0
  -22.1000  -14.2160   20.9610 O   0  0  0  0  0  0  0  0  0  0  0  0
  -22.4120  -11.6310   22.7150 H   0  0  0  0  0  0  0  0  0  0  0  0
  -21.0650  -12.7300   22.6500 H   0  0  0  0  0  0  0  0  0  0  0  0
  -25.1070  -14.9390   20.3770 N   0  0  0  0  0  0  0  0  0  0  0  0
  -24.3360  -15.5710   20.5640 H   0  0  0  0  0  0  0  0  0  0  0  0
  -25.8970  -15.3990   19.9420 H   0  0  0  0  0  0  0  0  0  0  0  0
  -28.5760  -23.6730   19.4700 C   0  0  0  0  0  3  0  0  0  0  0  0
  -29.2050  -22.9070   17.0490 C   0  0  0  0  0  1  0  0  0  0  0  0
  -28.1850  -23.5990   17.9740 C   0  0  0  0  0  2  0  0  0  0  0  0
  -27.6540  -24.7770   20.2180 C   0  0  0  0  0  2  0  0  0  0  0  0
  -27.8970  -26.2440   19.9660 O   0  0  0  0  0  0  0  0  0  0  0  0
  -24.4860  -31.7760   23.2120 C   0  0  0  0  0  0  0  0  0  0  0  0
  -26.8220  -27.1580   19.9980 C   0  0  0  0  0  0  0  0  0  0  0  0
  -23.1850  -30.4650   21.5760 C   0  0  0  0  0  3  0  0  0  0  0  0
  -24.5340  -28.8900   20.0760 C   0  0  0  0  0  0  0  0  0  0  0  0
  -25.7310  -30.6810   21.3300 C   0  0  0  0  0  2  0  0  0  0  0  0
  -25.7380  -29.3120   20.6520 C   0  0  0  0  0  0  0  0  0  0  0  0
  -26.8880  -28.4620   20.5950 C   0  0  0  0  0  3  0  0  0  0  0  0
  -25.5960  -26.8020   19.3920 C   0  0  0  0  0  3  0  0  0  0  0  0
  -24.4680  -27.6430   19.4330 C   0  0  0  0  0  3  0  0  0  0  0  0
  -23.3360  -29.8140   20.1760 C   0  0  0  0  0  2  0  0  0  0  0  0
  -24.4880  -30.9890   22.0960 N   0  0  0  0  0  0  0  0  0  0  0  0
  -23.4280  -32.0830   23.7820 O   0  0  0  0  0  0  0  0  0  0  0  0
  -22.5040  -29.4550   22.5320 C   0  0  0  0  0  0  0  0  0  0  0  0
  -21.1730  -29.3110   22.4170 N   0  0  0  0  0  0  0  0  0  0  0  0
  -23.1730  -28.8060   23.3410 O   0  0  0  0  0  0  0  0  0  0  0  0
  -20.6940  -29.8870   21.7380 H   0  0  0  0  0  0  0  0  0  0  0  0
  -17.7760  -28.1650   22.9040 C   0  0  0  0  0  0  0  0  0  0  0  0
  -20.3370  -28.3850   23.1820 C   0  0  0  0  0  3  0  0  0  0  0  0
  -20.4190  -26.9530   22.6030 C   0  0  0  0  0  2  0  0  0  0  0  0
  -19.3160  -26.6490   21.5860 C   0  0  0  0  0  2  0  0  0  0  0  0
  -17.9350  -26.8130   22.2260 C   0  0  0  0  0  2  0  0  0  0  0  0
  -18.9040  -28.9080   23.3390 C   0  0  0  0  0  0  0  0  0  0  0  0
  -18.7020  -30.1730   23.9330 C   0  0  0  0  0  3  0  0  0  0  0  0
  -17.4050  -30.6930   24.0990 C   0  0  0  0  0  3  0  0  0  0  0  0
  -16.2900  -29.9460   23.6810 C   0  0  0  0  0  3  0  0  0  0  0  0
  -16.4760  -28.6820   23.0890 C   0  0  0  0  0  3  0  0  0  0  0  0
  -25.8080  -32.3420   23.8150 C   0  0  0  0  0  3  0  0  0  0  0  0
  -25.5700  -33.7510   24.1640 N   0  0  0  0  0  0  0  0  0  0  0  0
  -25.9360  -34.7960   23.4110 C   0  0  0  0  0  0  0  0  0  0  0  0
  -26.5800  -34.6720   22.3650 O   0  0  0  0  0  0  0  0  0  0  0  0
  -25.0000  -33.9220   24.9790 H   0  0  0  0  0  0  0  0  0  0  0  0
  -24.2910  -36.6740   23.1140 C   0  0  0  0  0  1  0  0  0  0  0  0
  -25.5270  -36.2000   23.8950 C   0  0  0  0  0  3  0  0  0  0  0  0
  -27.7080  -36.9840   24.7050 C   0  0  0  0  0  1  0  0  0  0  0  0
  -26.6060  -37.2040   23.7710 N   0  0  0  0  0  0  0  0  0  0  0  0
  -26.2460  -38.1430   23.9260 H   0  0  0  0  0  0  0  0  0  0  0  0
  -26.3110  -31.5350   25.0740 C   0  0  1  0  0  0  0  0  0  0  0  0
  -25.2260  -31.3300   26.1570 C   0  0  0  0  0  1  0  0  0  0  0  0
  -26.8270  -30.1380   24.6570 C   0  0  0  0  0  1  0  0  0  0  0  0
  -27.5050  -32.2720   25.7260 C   0  0  0  0  0  1  0  0  0  0  0  0
  1  6  1  0
  1  2  2  0
  2  3  1  0
  3  5  1  0
  4  3  2  0
  4  9  1  0
  6  4  1  0
  7  9  1  0
  9  8  1  0
 10  2  1  0
 10 11  2  0
 12 20  1  0
 13 18  1  0
 14 15  1  0
 14 13  1  0
 16 15  1  0
 16 25  1  0
 16 17  1  0
 18 12  1  0
 18 17  1  0
 19 12  2  0
 20 11  1  0
 20 21  1  0
 22 23  2  0
 23 42  1  0
 24 23  1  0
 24 27  1  0
 25 26  1  0
 25 22  1  0
 26 24  2  0
 27 28  1  0
 28 29  2  0
 30 33  1  0
 30 29  1  0
 31 30  2  0
 32 31  1  0
 32 27  2  0
 33 34  1  0
 34 35  1  0
 35 36  2  0
 37 36  1  0
 37 41  1  0
 38 37  2  0
 39 34  2  0
 39 38  1  0
 40 39  1  0
 42 43  1  0
 43 46  1  0
 43 45  1  0
 44 42  2  0
 47 22  1  0
 47 48  1  0
 49 47  1  0
 50 52  1  0
 50  6  1  0
 50 53  1  0
 51 52  1  0
 54 56  1  0
 54 53  1  0
 55 66  2  0
 56 61  1  0
 57 65  1  0
 57 67  1  0
 58 64  1  0
 58 60  1  0
 59 65  1  0
 60 59  1  0
 61 60  2  0
 62 63  1  0
 62 56  2  0
 63 58  2  0
 64 57  1  0
 65 55  1  0
 67 69  2  0
 68 67  1  0
 70 68  1  0
 71 80  2  0
 71 76  1  0
 72 68  1  0
 72 76  1  0
 73 72  1  0
 74 75  1  0
 74 73  1  0
 75 71  1  0
 76 77  2  0
 77 78  1  0
 79 78  2  0
 80 79  1  0
 81 55  1  0
 81 82  1  0
 81 91  1  0
 82 85  1  0
 83 87  1  0
 83 82  1  0
 84 83  2  0
 87 86  1  0
 89 87  1  0
 89 90  1  0
 89 88  1  0
 91 94  1  1
 91 92  1  0
 93 91  1  0
M  ISO  4  12 100  20 100  53 101  54 101
M  END
>  <TORSDO>  (65) 
F 22

>  <SCORE>  (65) 
-12.060

>  <name>  (65) 
64

>  <ligand_id>  (65) 
64

>  <original_smiles>  (65) 
[H]c1c([H])c([H])c2c(c1[H])C([H])([H])C([H])([H])C([H])([H])C2([H])N([H])C(=O)C1([H])N(C(=O)C([H])(N([H])C(=O)C([H])(N([H])C([H])([H])[H])C([H])([H])[H])C(C([H])([H])[H])(C([H])([H])[H])C([H])([H])[H])C([H])([H])c2c([H])c(OC([H])([H])C([H])(n3c([H])c(C([H])([H])C([H])([H])N([H])C(=O)N4C([H])([H])C([H])([H])C([H])([H])C([H])(n5nc(-c6c([H])c([H])c(Oc7c([H])c([H])c(F)c([H])c7F)c([H])c6[H])c(C(=O)N([H])[H])c5N([H])[H])C4([H])[H])c(C([H])([H])[H])c3C([H])(C([H])([H])[H])C([H])([H])[H])C([H])([H])C([H])([H])[H])c([H])c([H])c2C1([H])[H]

>  <smiles>  (65) 
[H]c1c([H])c([H])c2c(c1[H])C([H])([H])C([H])([H])C([H])([H])C2([H])N([H])C(=O)C1([H])N(C(=O)C([H])(N([H])C(=O)C([H])(N([H])C([H])([H])[H])C([H])([H])[H])C(C([H])([H])[H])(C([H])([H])[H])C([H])([H])[H])C([H])([H])c2c([H])c(OC([H])([H])C([H])(n3c([H])c(C([H])([H])C([H])([H])N([H])C(=O)N4C([H])([H])C([H])([H])C([H])([H])C([H])(n5nc(-c6c([H])c([H])c(Oc7c([H])c([H])c(F)c([H])c7F)c([H])c6[H])c(C(=O)N([H])[H])c5N([H])[H])C4([H])[H])c(C([H])([H])[H])c3C([H])(C([H])([H])[H])C([H])([H])[H])C([H])([H])C([H])([H])[H])c([H])c([H])c2C1([H])[H]

$$$$
65:0:0
     RDKit          3D

 93101  0  0  1  0  0  0  0  0999 V2000
  -30.0120  -21.1590   21.3100 C   0  0  0  0  0  3  0  0  0  0  0  0
  -28.8970  -19.6610   19.8300 C   0  0  0  0  0  3  0  0  0  0  0  0
  -29.0510  -21.1400   20.2860 C   0  0  0  0  0  0  0  0  0  0  0  0
  -30.7170  -20.0020   21.7580 C   0  0  0  0  0  0  0  0  0  0  0  0
  -29.6270  -18.3860   20.3310 C   0  0  0  0  0  0  0  0  0  0  0  0
  -30.5230  -18.7220   21.2960 N   0  0  0  0  0  0  0  0  0  0  0  0
  -30.2500  -15.5090   19.9020 C   0  0  0  0  0  0  0  0  0  0  0  0
  -30.2180  -13.0770   18.9140 C   0  0  0  0  0  2  0  0  0  0  0  0
  -29.2060  -12.8320   17.7650 C   0  0  0  0  0  2  0  0  0  0  0  0
  -27.8190  -12.4770   18.3240 C   0  0  0  0  0  2  0  0  0  0  0  0
  -27.4230  -13.4080   19.4950 C   0  0  0  0  0  3  0  0  0  0  0  0
  -28.5550  -13.6020   20.5270 C   0  0  0  0  0  2  0  0  0  0  0  0
  -29.6940  -14.1900   19.7970 N   0  0  0  0  0  0  0  0  0  0  0  0
  -31.4690  -15.4970   19.6520 O   0  0  0  0  0  0  0  0  0  0  0  0
  -29.4650  -16.7910   19.9850 N   0  0  0  0  0  0  0  0  0  0  0  0
  -28.4930  -16.5680   19.8390 H   0  0  0  0  0  0  0  0  0  0  0  0
  -25.1200  -13.8790   20.4740 C   0  0  0  0  0  0  0  0  0  0  0  0
  -24.1090  -13.0640   20.8970 C   0  0  0  0  0  0  0  0  0  0  0  0
  -24.5980  -11.7270   20.7730 C   0  0  0  0  0  0  0  0  0  0  0  0
  -26.1540  -13.0380   20.1060 N   0  0  0  0  0  0  0  0  0  0  0  0
  -25.8590  -11.7340   20.3520 N   0  0  0  0  0  0  0  0  0  0  0  0
  -23.9130  -10.4420   20.9670 C   0  0  0  0  0  0  0  0  0  0  0  0
  -24.3940   -9.4790   21.8820 C   0  0  0  0  0  3  0  0  0  0  0  0
  -23.7050   -8.2610   22.0670 C   0  0  0  0  0  3  0  0  0  0  0  0
  -22.5210   -7.9960   21.3370 C   0  0  0  0  0  0  0  0  0  0  0  0
  -22.0610   -8.9480   20.4100 C   0  0  0  0  0  3  0  0  0  0  0  0
  -22.7510  -10.1570   20.2230 C   0  0  0  0  0  3  0  0  0  0  0  0
  -21.8020   -6.8290   21.4320 O   0  0  0  0  0  0  0  0  0  0  0  0
  -21.7550   -6.1060   22.5970 C   0  0  0  0  0  0  0  0  0  0  0  0
  -21.2550   -6.6570   23.7980 C   0  0  0  0  0  3  0  0  0  0  0  0
  -21.1590   -5.8560   24.9540 C   0  0  0  0  0  3  0  0  0  0  0  0
  -21.5540   -4.5060   24.9100 C   0  0  0  0  0  0  0  0  0  0  0  0
  -22.0460   -3.9550   23.7150 C   0  0  0  0  0  3  0  0  0  0  0  0
  -22.1440   -4.7520   22.5610 C   0  0  0  0  0  0  0  0  0  0  0  0
  -22.6010   -4.2100   21.4070 F   0  0  0  0  0  0  0  0  0  0  0  0
  -21.4530   -3.7350   26.0170 F   0  0  0  0  0  0  0  0  0  0  0  0
  -22.7290  -13.5000   21.2970 C   0  0  0  0  0  0  0  0  0  0  0  0
  -22.0810  -12.7520   22.1830 N   0  0  0  0  0  0  0  0  0  0  0  0
  -22.2380  -14.5390   20.8600 O   0  0  0  0  0  0  0  0  0  0  0  0
  -22.4910  -11.9090   22.5550 H   0  0  0  0  0  0  0  0  0  0  0  0
  -21.1630  -13.0320   22.4970 H   0  0  0  0  0  0  0  0  0  0  0  0
  -25.2410  -15.2590   20.3400 N   0  0  0  0  0  0  0  0  0  0  0  0
  -24.4690  -15.8870   20.5290 H   0  0  0  0  0  0  0  0  0  0  0  0
  -26.0360  -15.7270   19.9260 H   0  0  0  0  0  0  0  0  0  0  0  0
  -32.0270  -21.5880   23.3320 C   0  0  0  0  0  1  0  0  0  0  0  0
  -33.1820  -19.6830   22.2340 C   0  0  0  0  0  1  0  0  0  0  0  0
  -31.4690  -19.2720   24.0630 C   0  0  0  0  0  1  0  0  0  0  0  0
  -31.8280  -20.1330   22.8310 C   0  0  2  0  0  0  0  0  0  0  0  0
  -27.2440  -22.4250   18.8760 C   0  0  0  0  0  1  0  0  0  0  0  0
  -29.6270  -23.1170   18.7140 C   0  0  0  0  0  1  0  0  0  0  0  0
  -28.5100  -22.7220   19.6910 C   0  0  2  0  0  0  0  0  0  0  0  0
  -28.1340  -24.3300   20.4890 C   0  0  0  0  0  2  0  0  0  0  0  0
  -28.1680  -25.9570   20.0880 O   0  0  0  0  0  0  0  0  0  0  0  0
  -24.6170  -31.9340   23.1870 C   0  0  0  0  0  0  0  0  0  0  0  0
  -27.1280  -27.0380   20.1380 C   0  0  0  0  0  0  0  0  0  0  0  0
  -23.4010  -30.5470   21.5560 C   0  0  0  0  0  3  0  0  0  0  0  0
  -24.8320  -28.9370   20.1170 C   0  0  0  0  0  0  0  0  0  0  0  0
  -25.9680  -30.7520   21.3780 C   0  0  0  0  0  2  0  0  0  0  0  0
  -26.0300  -29.3390   20.7220 C   0  0  0  0  0  0  0  0  0  0  0  0
  -27.1740  -28.4150   20.6940 C   0  0  0  0  0  3  0  0  0  0  0  0
  -25.8950  -26.7910   19.4960 C   0  0  0  0  0  3  0  0  0  0  0  0
  -24.7910  -27.6850   19.4810 C   0  0  0  0  0  3  0  0  0  0  0  0
  -23.6160  -29.8640   20.1760 C   0  0  0  0  0  2  0  0  0  0  0  0
  -24.6850  -31.1050   22.0950 N   0  0  0  0  0  0  0  0  0  0  0  0
  -23.5330  -32.2230   23.7210 O   0  0  0  0  0  0  0  0  0  0  0  0
  -22.7150  -29.5500   22.5280 C   0  0  0  0  0  0  0  0  0  0  0  0
  -21.3850  -29.3750   22.4050 N   0  0  0  0  0  0  0  0  0  0  0  0
  -23.3860  -28.9330   23.3570 O   0  0  0  0  0  0  0  0  0  0  0  0
  -20.8950  -29.9250   21.7150 H   0  0  0  0  0  0  0  0  0  0  0  0
  -18.0170  -28.1250   22.9150 C   0  0  0  0  0  0  0  0  0  0  0  0
  -20.5730  -28.4300   23.1800 C   0  0  0  0  0  3  0  0  0  0  0  0
  -20.6940  -26.9960   22.6120 C   0  0  0  0  0  2  0  0  0  0  0  0
  -19.5970  -26.6520   21.5980 C   0  0  0  0  0  2  0  0  0  0  0  0
  -18.2130  -26.7780   22.2430 C   0  0  0  0  0  2  0  0  0  0  0  0
  -19.1240  -28.9070   23.3420 C   0  0  0  0  0  0  0  0  0  0  0  0
  -18.8830  -30.1650   23.9350 C   0  0  0  0  0  3  0  0  0  0  0  0
  -17.5690  -30.6430   24.1050 C   0  0  0  0  0  3  0  0  0  0  0  0
  -16.4770  -29.8580   23.6950 C   0  0  0  0  0  3  0  0  0  0  0  0
  -16.7010  -28.6010   23.1060 C   0  0  0  0  0  3  0  0  0  0  0  0
  -25.8950  -32.5750   23.8080 C   0  0  0  0  0  3  0  0  0  0  0  0
  -26.4130  -31.8050   25.0860 C   0  0  1  0  0  0  0  0  0  0  0  0
  -25.3200  -31.5650   26.1550 C   0  0  0  0  0  1  0  0  0  0  0  0
  -27.0030  -30.4310   24.7020 C   0  0  0  0  0  1  0  0  0  0  0  0
  -27.5600  -32.6050   25.7500 C   0  0  0  0  0  1  0  0  0  0  0  0
  -25.5820  -33.9740   24.1540 N   0  0  0  0  0  0  0  0  0  0  0  0
  -25.9040  -35.0400   23.4090 C   0  0  0  0  0  0  0  0  0  0  0  0
  -26.5590  -34.9490   22.3680 O   0  0  0  0  0  0  0  0  0  0  0  0
  -25.0010  -34.1170   24.9670 H   0  0  0  0  0  0  0  0  0  0  0  0
  -24.1790  -36.8490   23.1100 C   0  0  0  0  0  1  0  0  0  0  0  0
  -25.4320  -36.4260   23.8940 C   0  0  0  0  0  3  0  0  0  0  0  0
  -27.5770  -37.3030   24.7080 C   0  0  0  0  0  1  0  0  0  0  0  0
  -26.4670  -37.4780   23.7750 N   0  0  0  0  0  0  0  0  0  0  0  0
  -26.0650  -38.3980   23.9300 H   0  0  0  0  0  0  0  0  0  0  0  0
  1  4  1  0
  2  3  1  0
  2  5  2  0
  3  1  2  0
  4 48  1  0
  5  6  1  0
  6  4  2  0
  7 15  1  0
  8 13  1  0
  9 10  1  0
  9  8  1  0
 11 10  1  0
 11 20  1  0
 11 12  1  0
 13  7  1  0
 13 12  1  0
 14  7  2  0
 15  5  1  0
 16 15  1  0
 17 18  2  0
 18 37  1  0
 19 18  1  0
 19 22  1  0
 20 21  1  0
 20 17  1  0
 21 19  2  0
 22 23  1  0
 23 24  2  0
 25 28  1  0
 25 24  1  0
 26 25  2  0
 27 26  1  0
 27 22  2  0
 28 29  1  0
 29 30  1  0
 30 31  2  0
 32 31  1  0
 32 36  1  0
 33 32  2  0
 34 29  2  0
 34 33  1  0
 35 34  1  0
 37 38  1  0
 38 41  1  0
 38 40  1  0
 39 37  2  0
 42 17  1  0
 42 43  1  0
 44 42  1  0
 48 46  1  6
 48 45  1  0
 48 47  1  0
 51 49  1  6
 50 51  1  0
 51  3  1  0
 51 52  1  0
 53 55  1  0
 53 52  1  0
 54 65  2  0
 55 60  1  0
 56 64  1  0
 56 66  1  0
 57 63  1  0
 57 59  1  0
 58 64  1  0
 59 58  1  0
 60 59  2  0
 61 55  2  0
 62 61  1  0
 62 57  2  0
 63 56  1  0
 64 54  1  0
 66 68  2  0
 67 66  1  0
 69 67  1  0
 70 79  2  0
 70 75  1  0
 71 67  1  0
 71 75  1  0
 72 71  1  0
 73 74  1  0
 73 72  1  0
 74 70  1  0
 75 76  2  0
 76 77  1  0
 78 77  2  0
 79 78  1  0
 80 54  1  0
 80 85  1  0
 80 81  1  0
 81 84  1  1
 81 82  1  0
 83 81  1  0
 85 88  1  0
 86 90  1  0
 86 85  1  0
 87 86  2  0
 90 89  1  0
 92 90  1  0
 92 93  1  0
 92 91  1  0
M  ISO  4   7 100  15 100  52 101  53 101
M  END
>  <TORSDO>  (66) 
F 19

>  <SCORE>  (66) 
-15.167

>  <name>  (66) 
65

>  <ligand_id>  (66) 
65

>  <original_smiles>  (66) 
[H]c1c([H])c([H])c2c(c1[H])C([H])([H])C([H])([H])C([H])([H])C2([H])N([H])C(=O)C1([H])N(C(=O)C([H])(N([H])C(=O)C([H])(N([H])C([H])([H])[H])C([H])([H])[H])C(C([H])([H])[H])(C([H])([H])[H])C([H])([H])[H])C([H])([H])c2c([H])c(OC([H])([H])C(c3c([H])c(N([H])C(=O)N4C([H])([H])C([H])([H])C([H])([H])C([H])(n5nc(-c6c([H])c([H])c(Oc7c([H])c([H])c(F)c([H])c7F)c([H])c6[H])c(C(=O)N([H])[H])c5N([H])[H])C4([H])[H])nc(C(C([H])([H])[H])(C([H])([H])[H])C([H])([H])[H])c3[H])(C([H])([H])[H])C([H])([H])[H])c([H])c([H])c2C1([H])[H]

>  <smiles>  (66) 
[H]c1c([H])c([H])c2c(c1[H])C([H])([H])C([H])([H])C([H])([H])C2([H])N([H])C(=O)C1([H])N(C(=O)C([H])(N([H])C(=O)C([H])(N([H])C([H])([H])[H])C([H])([H])[H])C(C([H])([H])[H])(C([H])([H])[H])C([H])([H])[H])C([H])([H])c2c([H])c(OC([H])([H])C(c3c([H])c(N([H])C(=O)N4C([H])([H])C([H])([H])C([H])([H])C([H])(n5nc(-c6c([H])c([H])c(Oc7c([H])c([H])c(F)c([H])c7F)c([H])c6[H])c(C(=O)N([H])[H])c5N([H])[H])C4([H])[H])nc(C(C([H])([H])[H])(C([H])([H])[H])C([H])([H])[H])c3[H])(C([H])([H])[H])C([H])([H])[H])c([H])c([H])c2C1([H])[H]

$$$$
66:0:0
     RDKit          3D

100108  0  0  1  0  0  0  0  0999 V2000
  -29.5490  -22.2460   16.5780 C   0  0  0  0  0  3  0  0  0  0  0  0
  -29.8030  -23.1360   17.6280 C   0  0  0  0  0  3  0  0  0  0  0  0
  -29.0980  -20.9490   16.8630 C   0  0  0  0  0  0  0  0  0  0  0  0
  -29.7380  -22.7280   18.9770 C   0  0  0  0  0  0  0  0  0  0  0  0
  -29.0240  -20.5080   18.2080 C   0  0  0  0  0  0  0  0  0  0  0  0
  -29.5570  -21.3170   19.2610 C   0  0  0  0  0  0  0  0  0  0  0  0
  -28.6670  -20.0650   15.7020 C   0  0  0  0  0  1  0  0  0  0  0  0
  -28.2250  -19.2410   18.4970 C   0  0  0  0  0  1  0  0  0  0  0  0
  -29.7940  -23.9120   19.9930 C   0  0  0  0  0  2  0  0  0  0  0  0
  -28.6260  -24.9670   19.7790 C   0  0  0  0  0  2  0  0  0  0  0  0
  -28.7370  -26.3690   20.2240 O   0  0  0  0  0  0  0  0  0  0  0  0
  -24.7700  -31.6260   23.1530 C   0  0  0  0  0  0  0  0  0  0  0  0
  -27.5870  -27.1720   20.1390 C   0  0  0  0  0  0  0  0  0  0  0  0
  -23.6460  -30.2020   21.4780 C   0  0  0  0  0  3  0  0  0  0  0  0
  -25.1730  -28.7050   20.0840 C   0  0  0  0  0  0  0  0  0  0  0  0
  -26.1790  -30.5940   21.3630 C   0  0  0  0  0  2  0  0  0  0  0  0
  -26.3110  -29.2230   20.7140 C   0  0  0  0  0  0  0  0  0  0  0  0
  -27.5180  -28.4660   20.7370 C   0  0  0  0  0  3  0  0  0  0  0  0
  -26.4200  -26.7100   19.4790 C   0  0  0  0  0  3  0  0  0  0  0  0
  -25.2270  -27.4520   19.4620 C   0  0  0  0  0  3  0  0  0  0  0  0
  -23.9110  -29.5420   20.1010 C   0  0  0  0  0  2  0  0  0  0  0  0
  -24.8820  -30.8240   22.0540 N   0  0  0  0  0  0  0  0  0  0  0  0
  -23.6660  -31.8710   23.6610 O   0  0  0  0  0  0  0  0  0  0  0  0
  -22.9910  -29.1600   22.4150 C   0  0  0  0  0  0  0  0  0  0  0  0
  -21.6690  -28.9650   22.2700 N   0  0  0  0  0  0  0  0  0  0  0  0
  -23.6690  -28.5340   23.2320 O   0  0  0  0  0  0  0  0  0  0  0  0
  -21.1810  -29.5240   21.5840 H   0  0  0  0  0  0  0  0  0  0  0  0
  -18.2990  -27.7360   22.7320 C   0  0  0  0  0  0  0  0  0  0  0  0
  -20.8540  -28.0070   23.0190 C   0  0  0  0  0  3  0  0  0  0  0  0
  -20.9690  -26.5860   22.4190 C   0  0  0  0  0  2  0  0  0  0  0  0
  -19.8740  -26.2740   21.3940 C   0  0  0  0  0  2  0  0  0  0  0  0
  -18.4880  -26.3990   22.0320 C   0  0  0  0  0  2  0  0  0  0  0  0
  -19.4100  -28.4980   23.1800 C   0  0  0  0  0  0  0  0  0  0  0  0
  -19.1800  -29.7500   23.7920 C   0  0  0  0  0  3  0  0  0  0  0  0
  -17.8720  -30.2390   23.9610 C   0  0  0  0  0  3  0  0  0  0  0  0
  -16.7750  -29.4730   23.5290 C   0  0  0  0  0  3  0  0  0  0  0  0
  -16.9890  -28.2240   22.9190 C   0  0  0  0  0  3  0  0  0  0  0  0
  -26.0200  -32.2890   23.8080 C   0  0  0  0  0  3  0  0  0  0  0  0
  -26.5330  -31.5190   25.0860 C   0  0  1  0  0  0  0  0  0  0  0  0
  -25.4260  -31.2360   26.1280 C   0  0  0  0  0  1  0  0  0  0  0  0
  -27.1670  -30.1650   24.6920 C   0  0  0  0  0  1  0  0  0  0  0  0
  -27.6450  -32.3400   25.7810 C   0  0  0  0  0  1  0  0  0  0  0  0
  -25.6610  -33.6730   24.1470 N   0  0  0  0  0  0  0  0  0  0  0  0
  -25.9640  -34.7430   23.4000 C   0  0  0  0  0  0  0  0  0  0  0  0
  -26.6470  -34.6720   22.3740 O   0  0  0  0  0  0  0  0  0  0  0  0
  -25.0600  -33.8020   24.9480 H   0  0  0  0  0  0  0  0  0  0  0  0
  -24.1750  -36.4750   23.0470 C   0  0  0  0  0  1  0  0  0  0  0  0
  -25.4250  -36.1100   23.8640 C   0  0  0  0  0  3  0  0  0  0  0  0
  -27.5200  -37.0660   24.7190 C   0  0  0  0  0  1  0  0  0  0  0  0
  -26.4210  -37.2010   23.7660 N   0  0  0  0  0  0  0  0  0  0  0  0
  -25.9800  -38.1040   23.9160 H   0  0  0  0  0  0  0  0  0  0  0  0
  -29.8760  -20.6970   20.6550 C   0  0  0  0  0  2  0  0  0  0  0  0
  -30.0830  -19.1170   20.8980 C   0  0  0  0  0  3  0  0  0  0  0  0
  -30.1480  -18.9950   22.3490 N   0  0  0  0  0  0  0  0  0  0  0  0
  -30.9970  -19.4290   22.6980 H   0  0  0  0  0  0  0  0  0  0  0  0
  -30.2250  -18.0210   22.6170 H   0  0  0  0  0  0  0  0  0  0  0  0
  -31.3030  -18.3140   20.2480 C   0  0  0  0  0  3  0  0  0  0  0  0
  -31.1430  -18.1770   18.7960 N   0  0  0  0  0  4  0  0  0  0  0  0
  -30.3930  -17.5470   18.5790 H   0  0  0  0  0  0  0  0  0  0  0  0
  -31.9900  -17.8080   18.3980 H   0  0  0  0  0  0  0  0  0  0  0  0
  -30.9640  -19.0750   18.3800 H   0  0  0  0  0  0  0  0  0  0  0  0
  -31.7250  -16.8970   20.8580 C   0  0  0  0  0  2  0  0  0  0  0  0
  -31.6570  -14.4720   20.0210 C   0  0  0  0  0  0  0  0  0  0  0  0
  -31.1850  -12.2710   18.9750 C   0  0  0  0  0  2  0  0  0  0  0  0
  -30.2330  -12.4550   17.7730 C   0  0  0  0  0  2  0  0  0  0  0  0
  -28.7630  -12.4310   18.2350 C   0  0  0  0  0  2  0  0  0  0  0  0
  -28.5030  -13.3520   19.4580 C   0  0  0  0  0  3  0  0  0  0  0  0
  -29.5690  -13.1440   20.5580 C   0  0  0  0  0  2  0  0  0  0  0  0
  -30.8880  -13.3440   19.9420 N   0  0  0  0  0  0  0  0  0  0  0  0
  -32.8140  -14.4980   19.5990 O   0  0  0  0  0  0  0  0  0  0  0  0
  -31.0500  -15.6240   20.4330 N   0  0  0  0  0  0  0  0  0  0  0  0
  -30.0790  -15.5250   20.6910 H   0  0  0  0  0  0  0  0  0  0  0  0
  -26.1900  -14.1640   20.2260 C   0  0  0  0  0  0  0  0  0  0  0  0
  -25.0660  -13.4900   20.6180 C   0  0  0  0  0  0  0  0  0  0  0  0
  -25.4030  -12.1020   20.5790 C   0  0  0  0  0  0  0  0  0  0  0  0
  -27.1470  -13.1930   19.9730 N   0  0  0  0  0  0  0  0  0  0  0  0
  -26.6790  -11.9480   20.2450 N   0  0  0  0  0  0  0  0  0  0  0  0
  -24.5690  -10.9100   20.7830 C   0  0  0  0  0  0  0  0  0  0  0  0
  -24.9070   -9.9290   21.7410 C   0  0  0  0  0  3  0  0  0  0  0  0
  -24.0780   -8.8010   21.9320 C   0  0  0  0  0  3  0  0  0  0  0  0
  -22.9000   -8.6490   21.1650 C   0  0  0  0  0  0  0  0  0  0  0  0
  -22.5810   -9.6170   20.1970 C   0  0  0  0  0  3  0  0  0  0  0  0
  -23.4080  -10.7360   20.0040 C   0  0  0  0  0  3  0  0  0  0  0  0
  -22.0490   -7.5750   21.2640 O   0  0  0  0  0  0  0  0  0  0  0  0
  -21.8740   -6.9000   22.4470 C   0  0  0  0  0  0  0  0  0  0  0  0
  -21.4240   -7.5520   23.6160 C   0  0  0  0  0  3  0  0  0  0  0  0
  -21.1930   -6.8090   24.7910 C   0  0  0  0  0  3  0  0  0  0  0  0
  -21.4010   -5.4160   24.7970 C   0  0  0  0  0  0  0  0  0  0  0  0
  -21.8450   -4.7650   23.6320 C   0  0  0  0  0  3  0  0  0  0  0  0
  -22.0780   -5.5060   22.4590 C   0  0  0  0  0  0  0  0  0  0  0  0
  -22.4840   -4.8710   21.3340 F   0  0  0  0  0  0  0  0  0  0  0  0
  -21.1720   -4.7010   25.9220 F   0  0  0  0  0  0  0  0  0  0  0  0
  -23.7230  -14.0910   20.9170 C   0  0  0  0  0  0  0  0  0  0  0  0
  -22.9580  -13.4690   21.8070 N   0  0  0  0  0  0  0  0  0  0  0  0
  -23.3640  -15.1470   20.3960 O   0  0  0  0  0  0  0  0  0  0  0  0
  -23.2610  -12.6150   22.2500 H   0  0  0  0  0  0  0  0  0  0  0  0
  -22.0560  -13.8540   22.0500 H   0  0  0  0  0  0  0  0  0  0  0  0
  -26.4730  -15.5140   20.0420 N   0  0  0  0  0  0  0  0  0  0  0  0
  -25.7650  -16.2310   20.1630 H   0  0  0  0  0  0  0  0  0  0  0  0
  -27.3420  -15.8760   19.6730 H   0  0  0  0  0  0  0  0  0  0  0  0
  1  3  2  0
  1  2  1  0
  2  4  2  0
  3  5  1  0
  4  6  1  0
  4  9  1  0
  5  8  1  0
  5  6  2  0
  6 52  1  0
  7  3  1  0
 10  9  1  0
 10 11  1  0
 12 23  2  0
 13 11  1  0
 13 18  1  0
 14 22  1  0
 14 24  1  0
 15 21  1  0
 15 17  1  0
 16 22  1  0
 17 18  2  0
 17 16  1  0
 19 13  2  0
 20 19  1  0
 20 15  2  0
 21 14  1  0
 22 12  1  0
 24 26  2  0
 25 24  1  0
 27 25  1  0
 28 37  2  0
 28 33  1  0
 29 25  1  0
 29 33  1  0
 30 29  1  0
 31 32  1  0
 31 30  1  0
 32 28  1  0
 33 34  2  0
 34 35  1  0
 36 35  2  0
 37 36  1  0
 38 12  1  0
 38 43  1  0
 38 39  1  0
 39 42  1  1
 39 40  1  0
 41 39  1  0
 43 46  1  0
 44 48  1  0
 44 43  1  0
 45 44  2  0
 48 47  1  0
 50 48  1  0
 50 51  1  0
 50 49  1  0
 53 52  1  0
 53 54  1  0
 54 56  1  0
 54 55  1  0
 57 62  1  0
 57 53  1  0
 58 57  1  0
 59 58  1  0
 60 58  1  0
 61 58  1  0
 63 71  1  0
 64 69  1  0
 65 66  1  0
 65 64  1  0
 67 66  1  0
 67 76  1  0
 67 68  1  0
 69 63  1  0
 69 68  1  0
 70 63  2  0
 71 72  1  0
 71 62  1  0
 73 74  2  0
 74 93  1  0
 75 74  1  0
 75 78  1  0
 76 73  1  0
 76 77  1  0
 77 75  2  0
 78 79  1  0
 79 80  2  0
 81 84  1  0
 81 80  1  0
 82 81  2  0
 83 82  1  0
 83 78  2  0
 84 85  1  0
 85 90  2  0
 85 86  1  0
 86 87  2  0
 87 88  1  0
 88 92  1  0
 89 88  2  0
 90 89  1  0
 91 90  1  0
 93 94  1  0
 94 97  1  0
 94 96  1  0
 95 93  2  0
 98 99  1  0
 98 73  1  0
100 98  1  0
M  ISO  4  10 101  11 101  63 100  71 100
M  END
>  <TORSDO>  (67) 
F 24

>  <SCORE>  (67) 
-11.352

>  <name>  (67) 
66

>  <ligand_id>  (67) 
66

>  <original_smiles>  (67) 
[H]c1c([H])c([H])c2c(c1[H])C([H])([H])C([H])([H])C([H])([H])C2([H])N([H])C(=O)C1([H])N(C(=O)C([H])(N([H])C(=O)C([H])(N([H])C([H])([H])[H])C([H])([H])[H])C(C([H])([H])[H])(C([H])([H])[H])C([H])([H])[H])C([H])([H])c2c([H])c(OC([H])([H])C([H])([H])c3c([H])c([H])c(C([H])([H])[H])c(C([H])([H])[H])c3C([H])([H])C([H])(N([H])[H])C([H])(C([H])([H])N([H])C(=O)N3C([H])([H])C([H])([H])C([H])([H])C([H])(n4nc(-c5c([H])c([H])c(Oc6c([H])c([H])c(F)c([H])c6F)c([H])c5[H])c(C(=O)N([H])[H])c4N([H])[H])C3([H])[H])[N+]([H])([H])[H])c([H])c([H])c2C1([H])[H]

>  <smiles>  (67) 
[H]c1c([H])c([H])c2c(c1[H])C([H])([H])C([H])([H])C([H])([H])C2([H])N([H])C(=O)C1([H])N(C(=O)C([H])(N([H])C(=O)C([H])(N([H])C([H])([H])[H])C([H])([H])[H])C(C([H])([H])[H])(C([H])([H])[H])C([H])([H])[H])C([H])([H])c2c([H])c(OC([H])([H])C([H])([H])c3c([H])c([H])c(C([H])([H])[H])c(C([H])([H])[H])c3C([H])([H])C([H])(N([H])[H])C([H])(C([H])([H])N([H])C(=O)N3C([H])([H])C([H])([H])C([H])([H])C([H])(n4nc(-c5c([H])c([H])c(Oc6c([H])c([H])c(F)c([H])c6F)c([H])c5[H])c(C(=O)N([H])[H])c4N([H])[H])C3([H])[H])[N+]([H])([H])[H])c([H])c([H])c2C1([H])[H]

$$$$
67:0:0
     RDKit          3D

 89 96  0  0  1  0  0  0  0  0999 V2000
  -29.9790  -20.5000   19.7260 C   0  0  0  0  0  3  0  0  0  0  0  0
  -29.6100  -19.1300   17.5720 C   0  0  0  0  0  1  0  0  0  0  0  0
  -29.7040  -18.9590   19.1050 C   0  0  2  0  0  0  0  0  0  0  0  0
  -28.3360  -18.5030   19.6600 C   0  0  0  0  0  0  0  0  0  0  0  0
  -28.2330  -18.2210   21.1530 C   0  0  0  0  0  1  0  0  0  0  0  0
  -27.3450  -18.3590   18.9390 O   0  0  0  0  0  0  0  0  0  0  0  0
  -30.7820  -17.6890   19.3290 C   0  0  0  0  0  2  0  0  0  0  0  0
  -31.1140  -14.9850   19.4050 C   0  0  0  0  0  0  0  0  0  0  0  0
  -30.8570  -12.5800   18.6860 C   0  0  0  0  0  2  0  0  0  0  0  0
  -29.8190  -12.4710   17.5470 C   0  0  0  0  0  2  0  0  0  0  0  0
  -28.3950  -12.3410   18.1220 C   0  0  0  0  0  2  0  0  0  0  0  0
  -28.1110  -13.3720   19.2450 C   0  0  0  0  0  3  0  0  0  0  0  0
  -29.2610  -13.4450   20.2720 C   0  0  0  0  0  2  0  0  0  0  0  0
  -30.4860  -13.7530   19.5210 N   0  0  0  0  0  0  0  0  0  0  0  0
  -32.2860  -15.0070   19.0180 O   0  0  0  0  0  0  0  0  0  0  0  0
  -30.3760  -16.1830   19.5220 N   0  0  0  0  0  0  0  0  0  0  0  0
  -29.4110  -16.0330   19.7770 H   0  0  0  0  0  0  0  0  0  0  0  0
  -25.8830  -14.0820   20.2880 C   0  0  0  0  0  0  0  0  0  0  0  0
  -24.8070  -13.3670   20.7380 C   0  0  0  0  0  0  0  0  0  0  0  0
  -25.1540  -11.9900   20.5810 C   0  0  0  0  0  0  0  0  0  0  0  0
  -26.8170  -13.1460   19.8810 N   0  0  0  0  0  0  0  0  0  0  0  0
  -26.3950  -11.8770   20.1220 N   0  0  0  0  0  0  0  0  0  0  0  0
  -24.3530  -10.7750   20.7860 C   0  0  0  0  0  0  0  0  0  0  0  0
  -24.7380   -9.7840   21.7150 C   0  0  0  0  0  3  0  0  0  0  0  0
  -23.9390   -8.6360   21.9100 C   0  0  0  0  0  3  0  0  0  0  0  0
  -22.7410   -8.4720   21.1740 C   0  0  0  0  0  0  0  0  0  0  0  0
  -22.3750   -9.4510   20.2340 C   0  0  0  0  0  3  0  0  0  0  0  0
  -23.1730  -10.5900   20.0390 C   0  0  0  0  0  3  0  0  0  0  0  0
  -21.9160   -7.3780   21.2770 O   0  0  0  0  0  0  0  0  0  0  0  0
  -21.7250   -6.7320   22.4720 C   0  0  0  0  0  0  0  0  0  0  0  0
  -21.1990   -7.3950   23.6020 C   0  0  0  0  0  3  0  0  0  0  0  0
  -20.9540   -6.6760   24.7900 C   0  0  0  0  0  3  0  0  0  0  0  0
  -21.2230   -5.2960   24.8460 C   0  0  0  0  0  0  0  0  0  0  0  0
  -21.7410   -4.6320   23.7200 C   0  0  0  0  0  3  0  0  0  0  0  0
  -21.9880   -5.3480   22.5350 C   0  0  0  0  0  0  0  0  0  0  0  0
  -22.4670   -4.7000   21.4460 F   0  0  0  0  0  0  0  0  0  0  0  0
  -20.9800   -4.6020   25.9830 F   0  0  0  0  0  0  0  0  0  0  0  0
  -23.4920  -13.9290   21.1940 C   0  0  0  0  0  0  0  0  0  0  0  0
  -22.8210  -13.2470   22.1160 N   0  0  0  0  0  0  0  0  0  0  0  0
  -23.0760  -15.0060   20.7680 O   0  0  0  0  0  0  0  0  0  0  0  0
  -23.1730  -12.3740   22.4790 H   0  0  0  0  0  0  0  0  0  0  0  0
  -21.9420  -13.6040   22.4630 H   0  0  0  0  0  0  0  0  0  0  0  0
  -26.1330  -15.4460   20.1680 N   0  0  0  0  0  0  0  0  0  0  0  0
  -25.4430  -16.1430   20.4270 H   0  0  0  0  0  0  0  0  0  0  0  0
  -26.9710  -15.8550   19.7770 H   0  0  0  0  0  0  0  0  0  0  0  0
  -28.9230  -21.8020   19.6320 C   0  0  0  0  0  3  0  0  0  0  0  0
  -29.2250  -23.3720   20.1340 C   0  0  0  0  0  3  0  0  0  0  0  0
  -28.1830  -24.6560   19.8860 C   0  0  0  0  0  3  0  0  0  0  0  0
  -28.3960  -26.1440   20.2490 O   0  0  0  0  0  0  0  0  0  0  0  0
  -24.5490  -31.6540   23.2220 C   0  0  0  0  0  0  0  0  0  0  0  0
  -27.3150  -27.0870   20.1670 C   0  0  0  0  0  0  0  0  0  0  0  0
  -23.4280  -30.2750   21.5140 C   0  0  0  0  0  3  0  0  0  0  0  0
  -24.9500  -28.7660   20.1010 C   0  0  0  0  0  0  0  0  0  0  0  0
  -25.9780  -30.6000   21.4340 C   0  0  0  0  0  2  0  0  0  0  0  0
  -26.0990  -29.2280   20.7550 C   0  0  0  0  0  0  0  0  0  0  0  0
  -27.2830  -28.4050   20.7700 C   0  0  0  0  0  3  0  0  0  0  0  0
  -26.1360  -26.7210   19.4800 C   0  0  0  0  0  3  0  0  0  0  0  0
  -24.9790  -27.5250   19.4500 C   0  0  0  0  0  3  0  0  0  0  0  0
  -23.7030  -29.6350   20.1280 C   0  0  0  0  0  2  0  0  0  0  0  0
  -24.6690  -30.8630   22.1130 N   0  0  0  0  0  0  0  0  0  0  0  0
  -23.4410  -31.9050   23.7220 O   0  0  0  0  0  0  0  0  0  0  0  0
  -22.7410  -29.2310   22.4300 C   0  0  0  0  0  0  0  0  0  0  0  0
  -21.4210  -29.0390   22.2570 N   0  0  0  0  0  0  0  0  0  0  0  0
  -23.3990  -28.5970   23.2590 O   0  0  0  0  0  0  0  0  0  0  0  0
  -20.9460  -29.6040   21.5660 H   0  0  0  0  0  0  0  0  0  0  0  0
  -18.0380  -27.8100   22.6630 C   0  0  0  0  0  0  0  0  0  0  0  0
  -20.5910  -28.0710   22.9800 C   0  0  0  0  0  3  0  0  0  0  0  0
  -20.7090  -26.6620   22.3560 C   0  0  0  0  0  2  0  0  0  0  0  0
  -19.6240  -26.3720   21.3130 C   0  0  0  0  0  2  0  0  0  0  0  0
  -18.2310  -26.4870   21.9400 C   0  0  0  0  0  2  0  0  0  0  0  0
  -19.1460  -28.5610   23.1380 C   0  0  0  0  0  0  0  0  0  0  0  0
  -18.9110  -29.7990   23.7740 C   0  0  0  0  0  3  0  0  0  0  0  0
  -17.6020  -30.2870   23.9390 C   0  0  0  0  0  3  0  0  0  0  0  0
  -16.5070  -29.5320   23.4800 C   0  0  0  0  0  3  0  0  0  0  0  0
  -16.7270  -28.2950   22.8480 C   0  0  0  0  0  3  0  0  0  0  0  0
  -25.7940  -32.2970   23.9040 C   0  0  0  0  0  3  0  0  0  0  0  0
  -25.4690  -33.7020   24.1960 N   0  0  0  0  0  0  0  0  0  0  0  0
  -25.8140  -34.7430   23.4260 C   0  0  0  0  0  0  0  0  0  0  0  0
  -26.5070  -34.6220   22.4120 O   0  0  0  0  0  0  0  0  0  0  0  0
  -24.8560  -33.8690   24.9800 H   0  0  0  0  0  0  0  0  0  0  0  0
  -24.0780  -36.5170   23.0130 C   0  0  0  0  0  1  0  0  0  0  0  0
  -25.3130  -36.1380   23.8470 C   0  0  0  0  0  3  0  0  0  0  0  0
  -27.4250  -37.0660   24.6900 C   0  0  0  0  0  1  0  0  0  0  0  0
  -26.3400  -37.1960   23.7200 N   0  0  0  0  0  0  0  0  0  0  0  0
  -25.9240  -38.1170   23.8310 H   0  0  0  0  0  0  0  0  0  0  0  0
  -26.2350  -31.5490   25.2220 C   0  0  1  0  0  0  0  0  0  0  0  0
  -25.0800  -31.3220   26.2250 C   0  0  0  0  0  1  0  0  0  0  0  0
  -26.8480  -30.1690   24.8910 C   0  0  0  0  0  1  0  0  0  0  0  0
  -27.3390  -32.3610   25.9390 C   0  0  0  0  0  1  0  0  0  0  0  0
  3  2  1  6
  3  7  1  0
  3  4  1  0
  3  1  1  0
  4  5  1  0
  6  4  2  0
  7 16  1  0
  8 14  1  0
  8 16  1  0
  9 14  1  0
 10 11  1  0
 10  9  1  0
 12 11  1  0
 12 21  1  0
 12 13  1  0
 14 13  1  0
 15  8  2  0
 16 17  1  0
 18 19  2  0
 19 38  1  0
 20 19  1  0
 20 23  1  0
 21 22  1  0
 21 18  1  0
 22 20  2  0
 23 24  1  0
 24 25  2  0
 26 29  1  0
 26 25  1  0
 27 26  2  0
 28 27  1  0
 28 23  2  0
 29 30  1  0
 30 35  2  0
 30 31  1  0
 31 32  2  0
 32 33  1  0
 33 37  1  0
 34 33  2  0
 35 34  1  0
 36 35  1  0
 38 39  1  0
 39 42  1  0
 39 41  1  0
 40 38  2  0
 43 18  1  0
 43 44  1  0
 45 43  1  0
 46  1  2  0
 46 47  1  0
 48 47  2  0
 48 49  1  0
 50 61  2  0
 51 49  1  0
 51 56  1  0
 52 60  1  0
 52 62  1  0
 53 59  1  0
 53 55  1  0
 54 60  1  0
 55 56  2  0
 55 54  1  0
 57 51  2  0
 58 57  1  0
 58 53  2  0
 59 52  1  0
 60 50  1  0
 62 64  2  0
 63 62  1  0
 65 63  1  0
 66 75  2  0
 66 71  1  0
 67 63  1  0
 67 71  1  0
 68 67  1  0
 69 70  1  0
 69 68  1  0
 70 66  1  0
 71 72  2  0
 72 73  1  0
 74 73  2  0
 75 74  1  0
 76 50  1  0
 76 77  1  0
 76 86  1  0
 77 80  1  0
 78 82  1  0
 78 77  1  0
 79 78  2  0
 82 81  1  0
 84 85  1  0
 84 82  1  0
 84 83  1  0
 86 89  1  1
 86 87  1  0
 88 86  1  0
M  ISO  4   8 100  16 100  48 101  49 101
M  END
>  <TORSDO>  (68) 
F 22

>  <SCORE>  (68) 
-11.386

>  <name>  (68) 
67

>  <ligand_id>  (68) 
67

>  <original_smiles>  (68) 
[H]c1c([H])c([H])c2c(c1[H])C([H])([H])C([H])([H])C([H])([H])C2([H])N([H])C(=O)C1([H])N(C(=O)C([H])(N([H])C(=O)C([H])(N([H])C([H])([H])[H])C([H])([H])[H])C(C([H])([H])[H])(C([H])([H])[H])C([H])([H])[H])C([H])([H])c2c([H])c(OC([H])([H])C([H])([H])C([H])([H])C([H])([H])C(C(=O)C([H])([H])[H])(C([H])([H])[H])C([H])([H])N([H])C(=O)N3C([H])([H])C([H])([H])C([H])([H])C([H])(n4nc(-c5c([H])c([H])c(Oc6c([H])c([H])c(F)c([H])c6F)c([H])c5[H])c(C(=O)N([H])[H])c4N([H])[H])C3([H])[H])c([H])c([H])c2C1([H])[H]

>  <smiles>  (68) 
[H]c1c([H])c([H])c2c(c1[H])C([H])([H])C([H])([H])C([H])([H])C2([H])N([H])C(=O)C1([H])N(C(=O)C([H])(N([H])C(=O)C([H])(N([H])C([H])([H])[H])C([H])([H])[H])C(C([H])([H])[H])(C([H])([H])[H])C([H])([H])[H])C([H])([H])c2c([H])c(OC([H])([H])C([H])([H])C([H])([H])C([H])([H])C(C(=O)C([H])([H])[H])(C([H])([H])[H])C([H])([H])N([H])C(=O)N3C([H])([H])C([H])([H])C([H])([H])C([H])(n4nc(-c5c([H])c([H])c(Oc6c([H])c([H])c(F)c([H])c6F)c([H])c5[H])c(C(=O)N([H])[H])c4N([H])[H])C3([H])[H])c([H])c([H])c2C1([H])[H]

$$$$
68:0:0
     RDKit          3D

 90 98  0  0  1  0  0  0  0  0999 V2000
  -30.1770  -20.4960   18.5640 C   0  0  0  0  0  3  0  0  0  0  0  0
  -30.0140  -21.7590   17.9290 C   0  0  0  0  0  3  0  0  0  0  0  0
  -29.8940  -20.2780   19.9260 C   0  0  0  0  0  0  0  0  0  0  0  0
  -29.3520  -21.6180   20.5050 C   0  0  0  0  0  0  0  0  0  0  0  0
  -29.1770  -22.9890   19.7780 C   0  0  0  0  0  0  0  0  0  0  0  0
  -29.5560  -22.9240   18.4800 N   0  0  0  0  0  0  0  0  0  0  0  0
  -27.6170  -22.2620   22.2850 C   0  0  0  0  0  1  0  0  0  0  0  0
  -30.0810  -21.9590   22.9190 C   0  0  0  0  0  1  0  0  0  0  0  0
  -28.9420  -21.5440   21.9770 C   0  0  0  0  0  3  0  0  0  0  0  0
  -30.4130  -18.7230   20.6170 C   0  0  0  0  0  2  0  0  0  0  0  0
  -31.0960  -15.7900   20.4710 C   0  0  0  0  0  0  0  0  0  0  0  0
  -31.1720  -13.2570   19.8210 C   0  0  0  0  0  2  0  0  0  0  0  0
  -30.3440  -12.8640   18.5710 C   0  0  0  0  0  2  0  0  0  0  0  0
  -28.8760  -12.5980   18.9490 C   0  0  0  0  0  2  0  0  0  0  0  0
  -28.3250  -13.6740   19.9150 C   0  0  0  0  0  3  0  0  0  0  0  0
  -29.2900  -13.9890   21.0770 C   0  0  0  0  0  2  0  0  0  0  0  0
  -30.5390  -14.4720   20.4570 N   0  0  0  0  0  0  0  0  0  0  0  0
  -32.3350  -15.7660   20.4700 O   0  0  0  0  0  0  0  0  0  0  0  0
  -30.3320  -17.0670   20.2860 N   0  0  0  0  0  0  0  0  0  0  0  0
  -29.3810  -16.8340   20.0420 H   0  0  0  0  0  0  0  0  0  0  0  0
  -25.9450  -14.2920   20.5870 C   0  0  0  0  0  0  0  0  0  0  0  0
  -24.8400  -13.5430   20.8760 C   0  0  0  0  0  0  0  0  0  0  0  0
  -25.2610  -12.1790   20.8210 C   0  0  0  0  0  0  0  0  0  0  0  0
  -26.9670  -13.3880   20.3610 N   0  0  0  0  0  0  0  0  0  0  0  0
  -26.5650  -12.1070   20.5730 N   0  0  0  0  0  0  0  0  0  0  0  0
  -24.4810  -10.9380   20.9290 C   0  0  0  0  0  0  0  0  0  0  0  0
  -24.8110   -9.9360   21.8680 C   0  0  0  0  0  3  0  0  0  0  0  0
  -24.0330   -8.7640   21.9700 C   0  0  0  0  0  3  0  0  0  0  0  0
  -22.9070   -8.5840   21.1300 C   0  0  0  0  0  0  0  0  0  0  0  0
  -22.5940   -9.5750   20.1830 C   0  0  0  0  0  3  0  0  0  0  0  0
  -23.3730  -10.7390   20.0800 C   0  0  0  0  0  3  0  0  0  0  0  0
  -22.1090   -7.4660   21.1410 O   0  0  0  0  0  0  0  0  0  0  0  0
  -21.9130   -6.7310   22.2820 C   0  0  0  0  0  0  0  0  0  0  0  0
  -21.3600   -7.3010   23.4490 C   0  0  0  0  0  3  0  0  0  0  0  0
  -21.1110   -6.4950   24.5760 C   0  0  0  0  0  3  0  0  0  0  0  0
  -21.4060   -5.1180   24.5390 C   0  0  0  0  0  0  0  0  0  0  0  0
  -21.9510   -4.5470   23.3750 C   0  0  0  0  0  3  0  0  0  0  0  0
  -22.2010   -5.3520   22.2490 C   0  0  0  0  0  0  0  0  0  0  0  0
  -22.7080   -4.7920   21.1240 F   0  0  0  0  0  0  0  0  0  0  0  0
  -21.1600   -4.3410   25.6190 F   0  0  0  0  0  0  0  0  0  0  0  0
  -23.4490  -14.0620   21.0890 C   0  0  0  0  0  0  0  0  0  0  0  0
  -22.6550  -13.3740   21.9010 N   0  0  0  0  0  0  0  0  0  0  0  0
  -23.0750  -15.1140   20.5740 O   0  0  0  0  0  0  0  0  0  0  0  0
  -22.9690  -12.5200   22.3380 H   0  0  0  0  0  0  0  0  0  0  0  0
  -21.7180  -13.7050   22.0870 H   0  0  0  0  0  0  0  0  0  0  0  0
  -26.1630  -15.6610   20.4630 N   0  0  0  0  0  0  0  0  0  0  0  0
  -25.4110  -16.3370   20.5620 H   0  0  0  0  0  0  0  0  0  0  0  0
  -27.0330  -16.0820   20.1680 H   0  0  0  0  0  0  0  0  0  0  0  0
  -28.4470  -24.5500   20.2180 C   0  0  0  0  0  2  0  0  0  0  0  0
  -28.4900  -26.1170   19.6380 O   0  0  0  0  0  0  0  0  0  0  0  0
  -24.6280  -31.7710   23.0000 C   0  0  0  0  0  0  0  0  0  0  0  0
  -27.4130  -27.1660   19.7200 C   0  0  0  0  0  0  0  0  0  0  0  0
  -23.4900  -30.3890   21.3130 C   0  0  0  0  0  3  0  0  0  0  0  0
  -25.0050  -28.9320   19.8020 C   0  0  0  0  0  0  0  0  0  0  0  0
  -26.0420  -30.7450   21.1450 C   0  0  0  0  0  2  0  0  0  0  0  0
  -26.1830  -29.3700   20.4210 C   0  0  0  0  0  0  0  0  0  0  0  0
  -27.3790  -28.5140   20.3500 C   0  0  0  0  0  3  0  0  0  0  0  0
  -26.1910  -26.8870   19.0680 C   0  0  0  0  0  3  0  0  0  0  0  0
  -25.0340  -27.7110   19.1080 C   0  0  0  0  0  3  0  0  0  0  0  0
  -23.7380  -29.7830   19.9060 C   0  0  0  0  0  2  0  0  0  0  0  0
  -24.7410  -30.9950   21.8730 N   0  0  0  0  0  0  0  0  0  0  0  0
  -23.5310  -31.9750   23.5470 O   0  0  0  0  0  0  0  0  0  0  0  0
  -22.8650  -29.3130   22.2400 C   0  0  0  0  0  0  0  0  0  0  0  0
  -21.5440  -29.0800   22.1250 N   0  0  0  0  0  0  0  0  0  0  0  0
  -23.5760  -28.6910   23.0330 O   0  0  0  0  0  0  0  0  0  0  0  0
  -21.0210  -29.6350   21.4620 H   0  0  0  0  0  0  0  0  0  0  0  0
  -18.2350  -27.6850   22.6560 C   0  0  0  0  0  0  0  0  0  0  0  0
  -20.7880  -28.0600   22.8620 C   0  0  0  0  0  3  0  0  0  0  0  0
  -20.9390  -26.6720   22.1990 C   0  0  0  0  0  2  0  0  0  0  0  0
  -19.8220  -26.3550   21.2000 C   0  0  0  0  0  2  0  0  0  0  0  0
  -18.4560  -26.3910   21.8890 C   0  0  0  0  0  2  0  0  0  0  0  0
  -19.3290  -28.4760   23.0980 C   0  0  0  0  0  0  0  0  0  0  0  0
  -19.0670  -29.6830   23.7820 C   0  0  0  0  0  3  0  0  0  0  0  0
  -17.7460  -30.1030   24.0220 C   0  0  0  0  0  3  0  0  0  0  0  0
  -16.6680  -29.3100   23.5930 C   0  0  0  0  0  3  0  0  0  0  0  0
  -16.9130  -28.1020   22.9170 C   0  0  0  0  0  3  0  0  0  0  0  0
  -25.8690  -32.4570   23.6490 C   0  0  0  0  0  3  0  0  0  0  0  0
  -26.4560  -31.6440   24.8690 C   0  0  1  0  0  0  0  0  0  0  0  0
  -25.4010  -31.2780   25.9390 C   0  0  0  0  0  1  0  0  0  0  0  0
  -27.1120  -30.3290   24.3910 C   0  0  0  0  0  1  0  0  0  0  0  0
  -27.5730  -32.4660   25.5540 C   0  0  0  0  0  1  0  0  0  0  0  0
  -25.4670  -33.8050   24.0880 N   0  0  0  0  0  0  0  0  0  0  0  0
  -25.7030  -34.9380   23.4120 C   0  0  0  0  0  0  0  0  0  0  0  0
  -26.3420  -34.9600   22.3570 O   0  0  0  0  0  0  0  0  0  0  0  0
  -24.8920  -33.8550   24.9170 H   0  0  0  0  0  0  0  0  0  0  0  0
  -23.8490  -36.6350   23.2580 C   0  0  0  0  0  1  0  0  0  0  0  0
  -25.1430  -36.2530   23.9940 C   0  0  0  0  0  3  0  0  0  0  0  0
  -27.2400  -37.2200   24.8320 C   0  0  0  0  0  1  0  0  0  0  0  0
  -26.0990  -37.3800   23.9320 N   0  0  0  0  0  0  0  0  0  0  0  0
  -25.6390  -38.2570   24.1580 H   0  0  0  0  0  0  0  0  0  0  0  0
  1  3  1  0
  2  6  1  0
  2  1  2  0
  3  4  2  0
  3 10  1  0
  4  9  1  0
  5 49  1  0
  5  4  1  0
  6  5  2  0
  9  7  1  0
  9  8  1  0
 12 17  1  0
 13 14  1  0
 13 12  1  0
 15 14  1  0
 15 24  1  0
 15 16  1  0
 17 11  1  0
 17 16  1  0
 18 11  2  0
 19 11  1  0
 19 10  1  0
 20 19  1  0
 21 22  2  0
 22 41  1  0
 23 22  1  0
 23 26  1  0
 24 25  1  0
 24 21  1  0
 25 23  2  0
 26 27  1  0
 27 28  2  0
 29 32  1  0
 29 28  1  0
 30 29  2  0
 31 30  1  0
 31 26  2  0
 32 33  1  0
 33 34  1  0
 34 35  2  0
 36 35  1  0
 36 40  1  0
 37 36  2  0
 38 33  2  0
 38 37  1  0
 39 38  1  0
 41 42  1  0
 42 45  1  0
 42 44  1  0
 43 41  2  0
 46 47  1  0
 46 21  1  0
 48 46  1  0
 50 52  1  0
 50 49  1  0
 51 62  2  0
 52 57  1  0
 53 61  1  0
 53 63  1  0
 54 60  1  0
 54 56  1  0
 55 61  1  0
 56 55  1  0
 57 56  2  0
 58 59  1  0
 58 52  2  0
 59 54  2  0
 60 53  1  0
 61 51  1  0
 63 65  2  0
 64 63  1  0
 66 64  1  0
 67 76  2  0
 67 72  1  0
 68 64  1  0
 68 72  1  0
 69 68  1  0
 70 71  1  0
 70 69  1  0
 71 67  1  0
 72 73  2  0
 73 74  1  0
 75 74  2  0
 76 75  1  0
 77 51  1  0
 77 82  1  0
 77 78  1  0
 78 81  1  1
 78 79  1  0
 80 78  1  0
 82 85  1  0
 83 87  1  0
 83 82  1  0
 84 83  2  0
 87 86  1  0
 89 87  1  0
 89 90  1  0
 89 88  1  0
M  ISO  4  11 100  19 100  49 101  50 101
M  END
>  <TORSDO>  (69) 
F 19

>  <SCORE>  (69) 
-14.083

>  <name>  (69) 
68

>  <ligand_id>  (69) 
68

>  <original_smiles>  (69) 
[H]c1nc(C([H])([H])Oc2c([H])c([H])c3c(c2[H])C([H])([H])N(C(=O)C([H])(N([H])C(=O)C([H])(N([H])C([H])([H])[H])C([H])([H])[H])C(C([H])([H])[H])(C([H])([H])[H])C([H])([H])[H])C([H])(C(=O)N([H])C2([H])c4c([H])c([H])c([H])c([H])c4C([H])([H])C([H])([H])C2([H])[H])C3([H])[H])c(C([H])(C([H])([H])[H])C([H])([H])[H])c(C([H])([H])N([H])C(=O)N2C([H])([H])C([H])([H])C([H])([H])C([H])(n3nc(-c4c([H])c([H])c(Oc5c([H])c([H])c(F)c([H])c5F)c([H])c4[H])c(C(=O)N([H])[H])c3N([H])[H])C2([H])[H])c1[H]

>  <smiles>  (69) 
[H]c1nc(C([H])([H])Oc2c([H])c([H])c3c(c2[H])C([H])([H])N(C(=O)C([H])(N([H])C(=O)C([H])(N([H])C([H])([H])[H])C([H])([H])[H])C(C([H])([H])[H])(C([H])([H])[H])C([H])([H])[H])C([H])(C(=O)N([H])C2([H])c4c([H])c([H])c([H])c([H])c4C([H])([H])C([H])([H])C2([H])[H])C3([H])[H])c(C([H])(C([H])([H])[H])C([H])([H])[H])c(C([H])([H])N([H])C(=O)N2C([H])([H])C([H])([H])C([H])([H])C([H])(n3nc(-c4c([H])c([H])c(Oc5c([H])c([H])c(F)c([H])c5F)c([H])c4[H])c(C(=O)N([H])[H])c3N([H])[H])C2([H])[H])c1[H]

$$$$
69:0:0
     RDKit          3D

 95103  0  0  1  0  0  0  0  0999 V2000
  -30.4450  -19.9480   22.9880 C   0  0  0  0  0  0  0  0  0  0  0  0
  -29.8150  -19.8170   21.7730 C   0  0  0  0  0  0  0  0  0  0  0  0
  -31.5060  -19.0440   23.0380 N   0  0  0  0  0  0  0  0  0  0  0  0
  -31.5010  -18.3170   21.9750 N   0  0  0  0  0  0  0  0  0  0  0  0
  -30.4570  -18.7250   21.2160 N   0  0  0  0  0  0  0  0  0  0  0  0
  -30.9960  -22.1200   24.1190 C   0  0  0  0  0  1  0  0  0  0  0  0
  -30.4060  -20.0580   25.4920 C   0  0  0  0  0  1  0  0  0  0  0  0
  -30.1760  -20.8250   24.1830 C   0  0  0  0  0  3  0  0  0  0  0  0
  -28.6500  -20.4870   21.0810 C   0  0  0  0  0  2  0  0  0  0  0  0
  -28.3580  -21.9470   21.4560 C   0  0  0  0  0  3  0  0  0  0  0  0
  -29.3460  -23.0200   20.9320 C   0  0  0  0  0  3  0  0  0  0  0  0
  -27.7620  -24.6270   22.2190 C   0  0  0  0  0  1  0  0  0  0  0  0
  -29.1570  -24.4530   21.5230 C   0  0  0  0  0  3  0  0  0  0  0  0
  -29.3950  -25.5540   20.4180 C   0  0  0  0  0  2  0  0  0  0  0  0
  -29.3720  -27.0080   20.2590 O   0  0  0  0  0  0  0  0  0  0  0  0
  -24.9320  -31.5800   23.3770 C   0  0  0  0  0  0  0  0  0  0  0  0
  -28.1460  -27.6710   20.1270 C   0  0  0  0  0  0  0  0  0  0  0  0
  -23.9420  -30.1620   21.6120 C   0  0  0  0  0  3  0  0  0  0  0  0
  -25.6010  -28.9010   20.1470 C   0  0  0  0  0  0  0  0  0  0  0  0
  -26.4170  -30.8140   21.5290 C   0  0  0  0  0  2  0  0  0  0  0  0
  -26.6760  -29.5090   20.8050 C   0  0  0  0  0  0  0  0  0  0  0  0
  -27.9530  -28.9030   20.7940 C   0  0  0  0  0  3  0  0  0  0  0  0
  -27.0510  -27.0900   19.4460 C   0  0  0  0  0  3  0  0  0  0  0  0
  -25.7840  -27.6920   19.4620 C   0  0  0  0  0  3  0  0  0  0  0  0
  -24.2660  -29.6080   20.2020 C   0  0  0  0  0  2  0  0  0  0  0  0
  -25.1130  -30.8610   22.2340 N   0  0  0  0  0  0  0  0  0  0  0  0
  -23.8100  -31.6930   23.8920 O   0  0  0  0  0  0  0  0  0  0  0  0
  -23.3820  -29.0140   22.4850 C   0  0  0  0  0  0  0  0  0  0  0  0
  -22.1240  -28.6200   22.2230 N   0  0  0  0  0  0  0  0  0  0  0  0
  -24.0780  -28.4840   23.3550 O   0  0  0  0  0  0  0  0  0  0  0  0
  -21.6080  -29.1130   21.5080 H   0  0  0  0  0  0  0  0  0  0  0  0
  -19.0040  -26.8070   22.2810 C   0  0  0  0  0  0  0  0  0  0  0  0
  -21.4100  -27.5340   22.8880 C   0  0  0  0  0  3  0  0  0  0  0  0
  -21.8560  -26.1610   22.3350 C   0  0  0  0  0  2  0  0  0  0  0  0
  -20.9760  -25.6720   21.1810 C   0  0  0  0  0  2  0  0  0  0  0  0
  -19.5240  -25.5300   21.6390 C   0  0  0  0  0  2  0  0  0  0  0  0
  -19.8930  -27.7560   22.8500 C   0  0  0  0  0  0  0  0  0  0  0  0
  -19.3650  -28.9470   23.3950 C   0  0  0  0  0  3  0  0  0  0  0  0
  -17.9800  -29.1970   23.3740 C   0  0  0  0  0  3  0  0  0  0  0  0
  -17.1040  -28.2460   22.8220 C   0  0  0  0  0  3  0  0  0  0  0  0
  -17.6160  -27.0520   22.2830 C   0  0  0  0  0  3  0  0  0  0  0  0
  -26.1180  -32.3100   24.0800 C   0  0  0  0  0  3  0  0  0  0  0  0
  -25.6780  -33.6790   24.3790 N   0  0  0  0  0  0  0  0  0  0  0  0
  -25.9800  -34.7510   23.6360 C   0  0  0  0  0  0  0  0  0  0  0  0
  -26.7250  -34.6980   22.6540 O   0  0  0  0  0  0  0  0  0  0  0  0
  -25.0220  -33.7910   25.1380 H   0  0  0  0  0  0  0  0  0  0  0  0
  -24.1450  -36.3970   23.1520 C   0  0  0  0  0  1  0  0  0  0  0  0
  -25.3560  -36.0980   24.0480 C   0  0  0  0  0  3  0  0  0  0  0  0
  -27.3550  -37.1480   25.0090 C   0  0  0  0  0  1  0  0  0  0  0  0
  -26.3090  -37.2270   23.9940 N   0  0  0  0  0  0  0  0  0  0  0  0
  -25.8230  -38.1130   24.1040 H   0  0  0  0  0  0  0  0  0  0  0  0
  -26.6060  -31.5790   25.3900 C   0  0  1  0  0  0  0  0  0  0  0  0
  -25.4650  -31.2430   26.3790 C   0  0  0  0  0  1  0  0  0  0  0  0
  -27.3320  -30.2600   25.0380 C   0  0  0  0  0  1  0  0  0  0  0  0
  -27.6350  -32.4640   26.1300 C   0  0  0  0  0  1  0  0  0  0  0  0
  -30.1520  -18.0640   19.9580 C   0  0  0  0  0  2  0  0  0  0  0  0
  -30.9880  -16.8100   19.6580 C   0  0  0  0  0  2  0  0  0  0  0  0
  -30.9460  -14.3780   19.7280 C   0  0  0  0  0  0  0  0  0  0  0  0
  -30.4790  -12.1520   18.8470 C   0  0  0  0  0  2  0  0  0  0  0  0
  -29.4650  -12.2730   17.6950 C   0  0  0  0  0  2  0  0  0  0  0  0
  -28.0340  -12.1570   18.2500 C   0  0  0  0  0  2  0  0  0  0  0  0
  -27.7790  -13.1070   19.4510 C   0  0  0  0  0  3  0  0  0  0  0  0
  -28.9220  -13.0500   20.4900 C   0  0  0  0  0  2  0  0  0  0  0  0
  -30.2010  -13.2460   19.7880 N   0  0  0  0  0  0  0  0  0  0  0  0
  -32.0520  -14.4140   19.1940 O   0  0  0  0  0  0  0  0  0  0  0  0
  -30.3640  -15.5350   20.0660 N   0  0  0  0  0  0  0  0  0  0  0  0
  -29.4580  -15.5280   20.5090 H   0  0  0  0  0  0  0  0  0  0  0  0
  -25.4790  -13.7450   20.4090 C   0  0  0  0  0  0  0  0  0  0  0  0
  -24.4350  -12.9890   20.8700 C   0  0  0  0  0  0  0  0  0  0  0  0
  -24.8560  -11.6290   20.7630 C   0  0  0  0  0  0  0  0  0  0  0  0
  -26.4750  -12.8490   20.0610 N   0  0  0  0  0  0  0  0  0  0  0  0
  -26.1090  -11.5680   20.3310 N   0  0  0  0  0  0  0  0  0  0  0  0
  -24.1200  -10.3770   20.9930 C   0  0  0  0  0  0  0  0  0  0  0  0
  -24.5560   -9.4270   21.9440 C   0  0  0  0  0  3  0  0  0  0  0  0
  -23.8210   -8.2420   22.1590 C   0  0  0  0  0  3  0  0  0  0  0  0
  -22.6370   -7.9960   21.4240 C   0  0  0  0  0  0  0  0  0  0  0  0
  -22.2190   -8.9360   20.4660 C   0  0  0  0  0  3  0  0  0  0  0  0
  -22.9540  -10.1140   20.2490 C   0  0  0  0  0  3  0  0  0  0  0  0
  -21.8760   -6.8580   21.5460 O   0  0  0  0  0  0  0  0  0  0  0  0
  -21.7600   -6.1950   22.7410 C   0  0  0  0  0  0  0  0  0  0  0  0
  -21.2390   -6.8210   23.8940 C   0  0  0  0  0  3  0  0  0  0  0  0
  -21.0760   -6.0820   25.0830 C   0  0  0  0  0  3  0  0  0  0  0  0
  -21.4210   -4.7170   25.1180 C   0  0  0  0  0  0  0  0  0  0  0  0
  -21.9320   -4.0910   23.9690 C   0  0  0  0  0  3  0  0  0  0  0  0
  -22.0980   -4.8270   22.7830 C   0  0  0  0  0  0  0  0  0  0  0  0
  -22.5720   -4.2130   21.6710 F   0  0  0  0  0  0  0  0  0  0  0  0
  -21.2580   -4.0050   26.2580 F   0  0  0  0  0  0  0  0  0  0  0  0
  -23.0850  -13.4930   21.2910 C   0  0  0  0  0  0  0  0  0  0  0  0
  -22.4360  -12.7980   22.2160 N   0  0  0  0  0  0  0  0  0  0  0  0
  -22.6230  -14.5370   20.8350 O   0  0  0  0  0  0  0  0  0  0  0  0
  -22.8230  -11.9500   22.6050 H   0  0  0  0  0  0  0  0  0  0  0  0
  -21.5380  -13.1210   22.5450 H   0  0  0  0  0  0  0  0  0  0  0  0
  -25.6580  -15.1140   20.2390 N   0  0  0  0  0  0  0  0  0  0  0  0
  -24.9040  -15.7750   20.3990 H   0  0  0  0  0  0  0  0  0  0  0  0
  -26.4550  -15.5280   19.7730 H   0  0  0  0  0  0  0  0  0  0  0  0
  1  3  1  0
  1  8  1  0
  2  1  2  0
  4  3  2  0
  5  2  1  0
  5  4  1  0
  6  8  1  0
  8  7  1  0
  9 10  1  0
  9  2  1  0
 11 10  2  0
 11 13  1  0
 13 12  1  0
 14 13  1  0
 15 14  1  0
 16 27  2  0
 17 15  1  0
 17 22  1  0
 18 26  1  0
 18 28  1  0
 19 25  1  0
 19 21  1  0
 20 26  1  0
 21 20  1  0
 22 21  2  0
 23 24  1  0
 23 17  2  0
 24 19  2  0
 25 18  1  0
 26 16  1  0
 28 30  2  0
 29 28  1  0
 31 29  1  0
 32 41  2  0
 32 37  1  0
 33 29  1  0
 34 33  1  0
 35 36  1  0
 35 34  1  0
 36 32  1  0
 37 33  1  0
 37 38  2  0
 39 38  1  0
 40 39  2  0
 41 40  1  0
 42 16  1  0
 42 43  1  0
 42 52  1  0
 43 46  1  0
 44 48  1  0
 44 43  1  0
 45 44  2  0
 48 47  1  0
 50 48  1  0
 50 51  1  0
 50 49  1  0
 52 55  1  1
 52 53  1  0
 54 52  1  0
 56  5  1  0
 57 56  1  0
 57 66  1  0
 58 64  1  0
 58 66  1  0
 59 64  1  0
 60 61  1  0
 60 59  1  0
 62 61  1  0
 62 71  1  0
 62 63  1  0
 64 63  1  0
 65 58  2  0
 66 67  1  0
 68 69  2  0
 69 88  1  0
 70 69  1  0
 70 73  1  0
 71 72  1  0
 71 68  1  0
 72 70  2  0
 73 74  1  0
 74 75  2  0
 76 79  1  0
 76 75  1  0
 77 76  2  0
 78 77  1  0
 78 73  2  0
 79 80  1  0
 80 85  2  0
 80 81  1  0
 81 82  2  0
 82 83  1  0
 83 87  1  0
 84 83  2  0
 85 84  1  0
 86 85  1  0
 88 89  1  0
 89 92  1  0
 89 91  1  0
 90 88  2  0
 93 94  1  0
 93 68  1  0
 95 93  1  0
M  ISO  4  14 101  15 101  58 100  66 100
M  END
>  <TORSDO>  (70) 
F 24

>  <SCORE>  (70) 
-8.796

>  <name>  (70) 
69

>  <ligand_id>  (70) 
69

>  <original_smiles>  (70) 
[H]c1c([H])c([H])c2c(c1[H])C([H])([H])C([H])([H])C([H])([H])C2([H])N([H])C(=O)C1([H])N(C(=O)C([H])(N([H])C(=O)C([H])(N([H])C([H])([H])[H])C([H])([H])[H])C(C([H])([H])[H])(C([H])([H])[H])C([H])([H])[H])C([H])([H])c2c([H])c(OC([H])([H])C([H])(C([H])([H])[H])C([H])([H])C([H])([H])C([H])([H])c3c(C([H])(C([H])([H])[H])C([H])([H])[H])nnn3C([H])([H])C([H])([H])N([H])C(=O)N3C([H])([H])C([H])([H])C([H])([H])C([H])(n4nc(-c5c([H])c([H])c(Oc6c([H])c([H])c(F)c([H])c6F)c([H])c5[H])c(C(=O)N([H])[H])c4N([H])[H])C3([H])[H])c([H])c([H])c2C1([H])[H]

>  <smiles>  (70) 
[H]c1c([H])c([H])c2c(c1[H])C([H])([H])C([H])([H])C([H])([H])C2([H])N([H])C(=O)C1([H])N(C(=O)C([H])(N([H])C(=O)C([H])(N([H])C([H])([H])[H])C([H])([H])[H])C(C([H])([H])[H])(C([H])([H])[H])C([H])([H])[H])C([H])([H])c2c([H])c(OC([H])([H])C([H])(C([H])([H])[H])C([H])([H])C([H])([H])C([H])([H])c3c(C([H])(C([H])([H])[H])C([H])([H])[H])nnn3C([H])([H])C([H])([H])N([H])C(=O)N3C([H])([H])C([H])([H])C([H])([H])C([H])(n4nc(-c5c([H])c([H])c(Oc6c([H])c([H])c(F)c([H])c6F)c([H])c5[H])c(C(=O)N([H])[H])c4N([H])[H])C3([H])[H])c([H])c([H])c2C1([H])[H]

$$$$
70:0:0
     RDKit          3D

 98101  0  0  1  0  0  0  0  0999 V2000
  -24.8640  -16.0780   20.0050 C   0  0  0  0  0 15  0  0  0  0  0  0
  -24.8060  -14.4330   19.0150 C   0  0  0  0  0  1  0  0  0  0  0  0
  -27.9400  -15.6270   20.7450 C   0  0  0  0  0  3  0  0  0  0  0  0
  -26.4520  -16.7510   20.7430 C   0  0  0  0  0  2  0  0  0  0  0  0
  -26.3950  -13.3730   18.8650 C   0  0  0  0  0  3  0  0  0  0  0  0
  -28.0320  -14.0020   19.7550 C   0  0  0  0  0  0  0  0  0  0  0  0
  -27.5940  -12.1330   16.9470 C   0  0  0  0  0  1  0  0  0  0  0  0
  -26.2870  -12.3470   17.7330 C   0  0  0  0  0  2  0  0  0  0  0  0
  -26.8780  -18.5100   20.4780 C   0  0  0  0  0  3  0  0  0  0  0  0
  -27.0790  -19.7720   19.0720 C   0  0  0  0  0  3  0  0  0  0  0  0
  -27.7530  -21.5330   18.7940 C   0  0  0  0  0  3  0  0  0  0  0  0
  -27.3650  -23.1080   17.7900 C   0  0  0  0  0  3  0  0  0  0  0  0
  -27.9510  -24.7050   17.4180 O   0  0  0  0  0  0  0  0  0  0  0  0
  -25.5010  -30.0260   22.1480 C   0  0  0  0  0  0  0  0  0  0  0  0
  -27.2800  -26.0370   17.6460 C   0  0  0  0  0  0  0  0  0  0  0  0
  -24.0780  -29.1330   20.3630 C   0  0  0  0  0  3  0  0  0  0  0  0
  -25.2550  -28.0620   18.3300 C   0  0  0  0  0  0  0  0  0  0  0  0
  -26.6070  -29.3740   19.9380 C   0  0  0  0  0  2  0  0  0  0  0  0
  -26.5230  -28.1970   18.9100 C   0  0  0  0  0  0  0  0  0  0  0  0
  -27.5480  -27.2000   18.5520 C   0  0  0  0  0  3  0  0  0  0  0  0
  -26.0710  -26.1880   16.9610 C   0  0  0  0  0  3  0  0  0  0  0  0
  -25.0730  -27.1160   17.3130 C   0  0  0  0  0  3  0  0  0  0  0  0
  -24.0990  -28.9230   18.8240 C   0  0  0  0  0  2  0  0  0  0  0  0
  -25.4270  -29.5290   20.8700 N   0  0  0  0  0  0  0  0  0  0  0  0
  -24.4960  -30.1240   22.8710 O   0  0  0  0  0  0  0  0  0  0  0  0
  -23.5250  -27.8660   21.0700 C   0  0  0  0  0  0  0  0  0  0  0  0
  -22.2020  -27.6370   20.9930 N   0  0  0  0  0  0  0  0  0  0  0  0
  -24.2900  -27.1020   21.6650 O   0  0  0  0  0  0  0  0  0  0  0  0
  -21.6330  -28.3110   20.4990 H   0  0  0  0  0  0  0  0  0  0  0  0
  -18.9860  -25.9700   21.2030 C   0  0  0  0  0  0  0  0  0  0  0  0
  -21.5000  -26.4750   21.5500 C   0  0  0  0  0  3  0  0  0  0  0  0
  -21.7620  -25.2100   20.7020 C   0  0  0  0  0  2  0  0  0  0  0  0
  -20.6950  -24.9690   19.6290 C   0  0  0  0  0  2  0  0  0  0  0  0
  -19.3130  -24.8160   20.2700 C   0  0  0  0  0  2  0  0  0  0  0  0
  -20.0110  -26.7580   21.7920 C   0  0  0  0  0  0  0  0  0  0  0  0
  -19.6480  -27.8360   22.6280 C   0  0  0  0  0  3  0  0  0  0  0  0
  -18.2950  -28.1290   22.8790 C   0  0  0  0  0  3  0  0  0  0  0  0
  -17.2850  -27.3390   22.3020 C   0  0  0  0  0  3  0  0  0  0  0  0
  -17.6330  -26.2610   21.4700 C   0  0  0  0  0  3  0  0  0  0  0  0
  -26.8480  -30.5110   22.7580 C   0  0  0  0  0  3  0  0  0  0  0  0
  -26.5420  -31.5330   23.7770 N   0  0  0  0  0  0  0  0  0  0  0  0
  -26.8260  -32.8380   23.6710 C   0  0  0  0  0  0  0  0  0  0  0  0
  -27.4380  -33.3070   22.7080 O   0  0  0  0  0  0  0  0  0  0  0  0
  -25.9900  -31.2260   24.5660 H   0  0  0  0  0  0  0  0  0  0  0  0
  -25.1460  -34.5910   24.3470 C   0  0  0  0  0  1  0  0  0  0  0  0
  -26.3620  -33.7710   24.8080 C   0  0  0  0  0  3  0  0  0  0  0  0
  -28.4970  -34.0080   26.0030 C   0  0  0  0  0  1  0  0  0  0  0  0
  -27.4190  -34.6890   25.2910 N   0  0  0  0  0  0  0  0  0  0  0  0
  -27.0300  -35.3970   25.9080 H   0  0  0  0  0  0  0  0  0  0  0  0
  -27.6860  -29.3390   23.4080 C   0  0  1  0  0  0  0  0  0  0  0  0
  -26.8780  -28.4740   24.4050 C   0  0  0  0  0  1  0  0  0  0  0  0
  -28.2480  -28.3910   22.3250 C   0  0  0  0  0  1  0  0  0  0  0  0
  -28.9100  -29.9240   24.1510 C   0  0  0  0  0  1  0  0  0  0  0  0
  -29.4450  -13.1750   20.0340 C   0  0  0  0  0  2  0  0  0  0  0  0
  -31.2060  -13.8660   21.4960 C   0  0  0  0  0  0  0  0  0  0  0  0
  -31.5150  -12.0120   20.0510 C   0  0  0  0  0  3  0  0  0  0  0  0
  -30.2670  -11.2830   18.8200 C   0  0  0  0  0  3  0  0  0  0  0  0
  -28.4230  -11.2110   19.3110 C   0  0  0  0  0  1  0  0  0  0  0  0
  -27.9150  -11.8040   21.1560 C   0  0  0  0  0  2  0  0  0  0  0  0
  -29.2510  -12.5120   22.2930 C   0  0  0  0  0  2  0  0  0  0  0  0
  -30.9090  -12.6210   21.6410 N   0  0  0  0  0  0  0  0  0  0  0  0
  -32.3360  -14.3310   21.5340 O   0  0  0  0  0  0  0  0  0  0  0  0
  -30.3000  -14.2610   20.6230 N   0  0  0  0  0  0  0  0  0  0  0  0
  -30.4140  -15.1390   20.1400 H   0  0  0  0  0  0  0  0  0  0  0  0
  -25.8640  -13.6570   20.8190 C   0  0  0  0  0  2  0  0  0  0  0  0
  -24.6490  -12.7910   21.1790 C   0  0  0  0  0  0  0  0  0  0  0  0
  -24.8630  -11.3260   21.2550 C   0  0  0  0  0  0  0  0  0  0  0  0
  -26.5900  -12.3600   21.1590 N   0  0  0  0  0  0  0  0  0  0  0  0
  -26.0300  -11.1590   20.9730 N   0  0  0  0  0  2  0  0  0  0  0  0
  -24.1620   -9.9720   21.4240 C   0  0  0  0  0  0  0  0  0  0  0  0
  -24.5620   -8.9940   22.3930 C   0  0  0  0  0  3  0  0  0  0  0  0
  -23.8940   -7.7450   22.5400 C   0  0  0  0  0  3  0  0  0  0  0  0
  -22.8070   -7.4150   21.6980 C   0  0  0  0  0  0  0  0  0  0  0  0
  -22.4680   -8.3280   20.6810 C   0  0  0  0  0  3  0  0  0  0  0  0
  -23.1350   -9.5710   20.5400 C   0  0  0  0  0  3  0  0  0  0  0  0
  -22.0840   -6.2370   21.7560 O   0  0  0  0  0  0  0  0  0  0  0  0
  -21.8930   -5.5260   22.9210 C   0  0  0  0  0  0  0  0  0  0  0  0
  -21.2450   -6.0850   24.0460 C   0  0  0  0  0  3  0  0  0  0  0  0
  -21.0200   -5.2990   25.1970 C   0  0  0  0  0  3  0  0  0  0  0  0
  -21.4260   -3.9510   25.2250 C   0  0  0  0  0  0  0  0  0  0  0  0
  -22.0530   -3.3870   24.1010 C   0  0  0  0  0  3  0  0  0  0  0  0
  -22.2790   -4.1680   22.9540 C   0  0  0  0  0  0  0  0  0  0  0  0
  -22.8640   -3.6030   21.8690 F   0  0  0  0  0  0  0  0  0  0  0  0
  -21.2120   -3.2000   26.3310 F   0  0  0  0  0  0  0  0  0  0  0  0
  -23.1520  -13.0590   21.2470 C   0  0  0  0  0  0  0  0  0  0  0  0
  -22.4290  -12.3590   22.1260 N   0  0  0  0  0  0  0  0  0  0  0  0
  -22.5550  -13.8240   20.5080 O   0  0  0  0  0  0  0  0  0  0  0  0
  -22.8690  -11.7120   22.7640 H   0  0  0  0  0  0  0  0  0  0  0  0
  -21.4290  -12.4910   22.1760 H   0  0  0  0  0  0  0  0  0  0  0  0
  -26.5860  -15.5940   19.2570 N   0  0  0  0  0  2  0  0  0  0  0  0
  -26.2610  -16.4350   19.7160 H   0  0  0  0  0  0  0  0  0  0  0  0
  -27.5940  -15.5720   19.2260 H   0  0  0  0  0  0  0  0  0  0  0  0
  -28.9690   -9.2060   20.8780 C   0  0  0  0  0  1  0  0  0  0  0  0
  -29.7430  -10.6010   21.2060 C   0  0  0  0  0  2  0  0  0  0  0  0
  -31.0350   -9.8250   23.3690 C   0  0  0  0  0  1  0  0  0  0  0  0
  -31.7600   -8.9120   21.1890 C   0  0  0  0  0  1  0  0  0  0  0  0
  -31.0330  -10.0150   21.8840 N   0  0  1  0  0  4  0  0  0  0  0  0
  -31.6550  -10.8050   21.7750 H   0  0  0  0  0  0  0  0  0  0  0  0
  4  3  1  0
  5  2  1  0
  5  6  1  0
  6 54  1  0
  6  3  2  0
  7  8  1  0
  8  5  1  0
  9  4  1  0
 10  9  2  0
 11 10  1  0
 12 11  2  0
 13 15  1  0
 13 12  1  0
 14 25  2  0
 15 20  1  0
 16 24  1  0
 16 26  1  0
 17 23  1  0
 17 19  1  0
 18 24  1  0
 19 18  1  0
 20 19  2  0
 21 22  1  0
 21 15  2  0
 22 17  2  0
 23 16  1  0
 24 14  1  0
 26 28  2  0
 27 26  1  0
 29 27  1  0
 30 39  2  0
 30 35  1  0
 31 27  1  0
 31 35  1  0
 32 31  1  0
 33 34  1  0
 33 32  1  0
 34 30  1  0
 35 36  2  0
 36 37  1  0
 38 37  2  0
 39 38  1  0
 40 14  1  0
 40 50  1  0
 40 41  1  0
 41 44  1  0
 42 41  1  0
 42 46  1  0
 43 42  2  0
 46 45  1  0
 46 48  1  0
 48 49  1  0
 48 47  1  0
 50 53  1  1
 50 51  1  0
 52 50  1  0
 54 63  1  0
 55 62  2  0
 55 61  1  0
 56 61  1  0
 57 58  1  0
 57 56  2  0
 59 68  1  0
 59 60  1  0
 61 60  1  0
 63 55  1  0
 64 63  1  0
 65 68  1  0
 65 66  1  0
 66 85  1  0
 66 67  2  0
 67 70  1  0
 69 68  1  0
 69 67  1  0
 70 71  1  0
 71 72  2  0
 73 76  1  0
 73 72  1  0
 74 73  2  0
 75 74  1  0
 75 70  2  0
 76 77  1  0
 77 82  2  0
 77 78  1  0
 78 79  2  0
 79 80  1  0
 80 84  1  0
 81 80  2  0
 82 81  1  0
 83 82  1  0
 85 86  1  0
 86 89  1  0
 86 88  1  0
 87 85  2  0
 90 91  1  0
 92 90  1  0
 93 94  1  0
 94 97  1  0
 96 97  1  0
 97 95  1  0
 97 98  1  1
M  ISO  4  12 101  13 101  55 100  63 100
M  END
>  <TORSDO>  (71) 
F 24

>  <SCORE>  (71) 
-2.718

>  <name>  (71) 
70

>  <ligand_id>  (71) 
70

>  <original_smiles>  (71) 
[H]c1c([H])c([H])c2c(c1[H])C([H])([H])C([H])([H])C([H])([H])C2([H])N([H])C(=O)C1([H])N(C(=O)C([H])(N([H])C(=O)C([H])(N([H])C([H])([H])[H])C([H])([H])[H])C(C([H])([H])[H])(C([H])([H])[H])C([H])([H])[H])C([H])([H])c2c([H])c(OC([H])([H])C([H])([H])C([H])([H])C([H])([H])c3c([H])c([H])c(C([H])([H])C([H])([H])[H])c(C([H])(N([H])C(=O)N4C([H])([H])C([H])([H])C([H])([H])C([H])(n5nc(-c6c([H])c([H])c(Oc7c([H])c([H])c(F)c([H])c7F)c([H])c6[H])c(C(=O)N([H])[H])c5N([H])[H])C4([H])[H])C([H])(C([H])([H])[H])[N+]([H])(C([H])([H])[H])C([H])([H])[H])c3[H])c([H])c([H])c2C1([H])[H]

>  <smiles>  (71) 
[H]c1c([H])c([H])c2c(c1[H])C([H])([H])C([H])([H])C([H])([H])C2([H])N([H])C(=O)C1([H])N(C(=O)C([H])(N([H])C(=O)C([H])(N([H])C([H])([H])[H])C([H])([H])[H])C(C([H])([H])[H])(C([H])([H])[H])C([H])([H])[H])C([H])([H])c2c([H])c(OC([H])([H])C([H])([H])C([H])([H])C([H])([H])c3c([H])c([H])c(C([H])([H])C([H])([H])[H])c(C([H])(N([H])C(=O)N4C([H])([H])C([H])([H])C([H])([H])C([H])(n5nc(-c6c([H])c([H])c(Oc7c([H])c([H])c(F)c([H])c7F)c([H])c6[H])c(C(=O)N([H])[H])c5N([H])[H])C4([H])[H])C([H])(C([H])([H])[H])[N+]([H])(C([H])([H])[H])C([H])([H])[H])c3[H])c([H])c([H])c2C1([H])[H]

$$$$
71:0:0
     RDKit          3D

 91 98  0  0  1  0  0  0  0  0999 V2000
  -28.9630  -21.0240   19.6260 C   0  0  0  0  0  3  0  0  0  0  0  0
  -29.6040  -20.4650   17.1120 C   0  0  0  0  0  1  0  0  0  0  0  0
  -27.6020  -21.8180   17.6160 C   0  0  0  0  0  1  0  0  0  0  0  0
  -29.0140  -21.4420   18.1180 C   0  0  0  0  0  3  0  0  0  0  0  0
  -31.4120  -20.3640   20.2490 C   0  0  0  0  0  1  0  0  0  0  0  0
  -29.9580  -19.8630   20.2030 C   0  0  0  0  0  3  0  0  0  0  0  0
  -30.8620  -17.8280   18.6830 C   0  0  0  0  0  1  0  0  0  0  0  0
  -29.8680  -18.2800   19.7830 C   0  0  0  0  0  3  0  0  0  0  0  0
  -30.1190  -17.2020   20.9460 C   0  0  0  0  0  2  0  0  0  0  0  0
  -30.5900  -14.6530   20.4320 C   0  0  0  0  0  0  0  0  0  0  0  0
  -30.3750  -12.4120   19.3660 C   0  0  0  0  0  2  0  0  0  0  0  0
  -29.4390  -12.5370   18.1440 C   0  0  0  0  0  2  0  0  0  0  0  0
  -27.9630  -12.3800   18.5660 C   0  0  0  0  0  2  0  0  0  0  0  0
  -27.5980  -13.2490   19.7990 C   0  0  0  0  0  3  0  0  0  0  0  0
  -28.6500  -13.1030   20.9200 C   0  0  0  0  0  2  0  0  0  0  0  0
  -29.9580  -13.4400   20.3390 N   0  0  0  0  0  0  0  0  0  0  0  0
  -31.7740  -14.7820   20.1150 O   0  0  0  0  0  0  0  0  0  0  0  0
  -29.7960  -15.7400   20.7020 N   0  0  0  0  0  0  0  0  0  0  0  0
  -28.8290  -15.4960   20.8570 H   0  0  0  0  0  0  0  0  0  0  0  0
  -25.2040  -13.8630   20.4990 C   0  0  0  0  0  0  0  0  0  0  0  0
  -24.1300  -13.0980   20.8670 C   0  0  0  0  0  0  0  0  0  0  0  0
  -24.5880  -11.7440   20.8510 C   0  0  0  0  0  0  0  0  0  0  0  0
  -26.2450  -12.9760   20.2780 N   0  0  0  0  0  0  0  0  0  0  0  0
  -25.8800  -11.6980   20.5520 N   0  0  0  0  0  0  0  0  0  0  0  0
  -23.8540  -10.4870   21.0430 C   0  0  0  0  0  0  0  0  0  0  0  0
  -24.2840   -9.5170   21.9750 C   0  0  0  0  0  3  0  0  0  0  0  0
  -23.5520   -8.3240   22.1570 C   0  0  0  0  0  3  0  0  0  0  0  0
  -22.3750   -8.0920   21.4060 C   0  0  0  0  0  0  0  0  0  0  0  0
  -21.9640   -9.0500   20.4640 C   0  0  0  0  0  3  0  0  0  0  0  0
  -22.6960  -10.2350   20.2790 C   0  0  0  0  0  3  0  0  0  0  0  0
  -21.6150   -6.9510   21.4970 O   0  0  0  0  0  0  0  0  0  0  0  0
  -21.5780   -6.2010   22.6450 C   0  0  0  0  0  0  0  0  0  0  0  0
  -21.1840   -6.7520   23.8840 C   0  0  0  0  0  3  0  0  0  0  0  0
  -21.0920   -5.9290   25.0240 C   0  0  0  0  0  3  0  0  0  0  0  0
  -21.3840   -4.5550   24.9270 C   0  0  0  0  0  0  0  0  0  0  0  0
  -21.7680   -4.0030   23.6920 C   0  0  0  0  0  3  0  0  0  0  0  0
  -21.8630   -4.8240   22.5540 C   0  0  0  0  0  0  0  0  0  0  0  0
  -22.2150   -4.2820   21.3630 F   0  0  0  0  0  0  0  0  0  0  0  0
  -21.2880   -3.7620   26.0190 F   0  0  0  0  0  0  0  0  0  0  0  0
  -22.7330  -13.5840   21.1200 C   0  0  0  0  0  0  0  0  0  0  0  0
  -21.9920  -12.9020   21.9870 N   0  0  0  0  0  0  0  0  0  0  0  0
  -22.3050  -14.6070   20.5860 O   0  0  0  0  0  0  0  0  0  0  0  0
  -22.3480  -12.0760   22.4450 H   0  0  0  0  0  0  0  0  0  0  0  0
  -21.0540  -13.2120   22.1950 H   0  0  0  0  0  0  0  0  0  0  0  0
  -25.3740  -15.2320   20.3130 N   0  0  0  0  0  0  0  0  0  0  0  0
  -24.6040  -15.8840   20.4070 H   0  0  0  0  0  0  0  0  0  0  0  0
  -26.2130  -15.6670   19.9490 H   0  0  0  0  0  0  0  0  0  0  0  0
  -28.7640  -22.3700   20.5220 C   0  0  0  0  0  2  0  0  0  0  0  0
  -28.9260  -23.8800   19.9530 C   0  0  0  0  0  3  0  0  0  0  0  0
  -28.2030  -25.0800   20.7180 C   0  0  0  0  0  3  0  0  0  0  0  0
  -28.3720  -26.4770   20.2400 O   0  0  0  0  0  0  0  0  0  0  0  0
  -24.6070  -31.8690   23.2320 C   0  0  0  0  0  0  0  0  0  0  0  0
  -27.2470  -27.3120   20.2170 C   0  0  0  0  0  0  0  0  0  0  0  0
  -23.4120  -30.4610   21.5910 C   0  0  0  0  0  3  0  0  0  0  0  0
  -24.8740  -28.9050   20.1810 C   0  0  0  0  0  0  0  0  0  0  0  0
  -25.9510  -30.7890   21.4170 C   0  0  0  0  0  2  0  0  0  0  0  0
  -26.0380  -29.4070   20.7790 C   0  0  0  0  0  0  0  0  0  0  0  0
  -27.2300  -28.6230   20.7830 C   0  0  0  0  0  3  0  0  0  0  0  0
  -26.0660  -26.8610   19.5930 C   0  0  0  0  0  3  0  0  0  0  0  0
  -24.8900  -27.6370   19.5760 C   0  0  0  0  0  3  0  0  0  0  0  0
  -23.6350  -29.7760   20.2160 C   0  0  0  0  0  2  0  0  0  0  0  0
  -24.6750  -31.0580   22.1370 N   0  0  0  0  0  0  0  0  0  0  0  0
  -23.5210  -32.1470   23.7620 O   0  0  0  0  0  0  0  0  0  0  0  0
  -22.7470  -29.4500   22.5530 C   0  0  0  0  0  0  0  0  0  0  0  0
  -21.4210  -29.2710   22.4190 N   0  0  0  0  0  0  0  0  0  0  0  0
  -23.4210  -28.8290   23.3800 O   0  0  0  0  0  0  0  0  0  0  0  0
  -20.9360  -29.8230   21.7250 H   0  0  0  0  0  0  0  0  0  0  0  0
  -18.0440  -28.0670   22.8980 C   0  0  0  0  0  0  0  0  0  0  0  0
  -20.5990  -28.3370   23.1910 C   0  0  0  0  0  3  0  0  0  0  0  0
  -20.7120  -26.9020   22.6270 C   0  0  0  0  0  2  0  0  0  0  0  0
  -19.6200  -26.5670   21.6050 C   0  0  0  0  0  2  0  0  0  0  0  0
  -18.2320  -26.7130   22.2340 C   0  0  0  0  0  2  0  0  0  0  0  0
  -19.1560  -28.8370   23.3330 C   0  0  0  0  0  0  0  0  0  0  0  0
  -18.9260  -30.1020   23.9130 C   0  0  0  0  0  3  0  0  0  0  0  0
  -17.6180  -30.6000   24.0620 C   0  0  0  0  0  3  0  0  0  0  0  0
  -16.5220  -29.8280   23.6440 C   0  0  0  0  0  3  0  0  0  0  0  0
  -16.7350  -28.5640   23.0670 C   0  0  0  0  0  3  0  0  0  0  0  0
  -25.8880  -32.5040   23.8590 C   0  0  0  0  0  3  0  0  0  0  0  0
  -25.5740  -33.9020   24.1880 N   0  0  0  0  0  0  0  0  0  0  0  0
  -25.9060  -34.9560   23.4300 C   0  0  0  0  0  0  0  0  0  0  0  0
  -26.5780  -34.8540   22.3990 O   0  0  0  0  0  0  0  0  0  0  0  0
  -24.9810  -34.0550   24.9900 H   0  0  0  0  0  0  0  0  0  0  0  0
  -24.1750  -36.7440   23.0750 C   0  0  0  0  0  1  0  0  0  0  0  0
  -25.4160  -36.3430   23.8860 C   0  0  0  0  0  3  0  0  0  0  0  0
  -27.5490  -37.2320   24.7160 C   0  0  0  0  0  1  0  0  0  0  0  0
  -26.4460  -37.3980   23.7730 N   0  0  0  0  0  0  0  0  0  0  0  0
  -26.0380  -38.3170   23.9200 H   0  0  0  0  0  0  0  0  0  0  0  0
  -26.4010  -31.7350   25.1370 C   0  0  1  0  0  0  0  0  0  0  0  0
  -25.3030  -31.5000   26.2020 C   0  0  0  0  0  1  0  0  0  0  0  0
  -26.9850  -30.3560   24.7500 C   0  0  0  0  0  1  0  0  0  0  0  0
  -27.5490  -32.5300   25.8020 C   0  0  0  0  0  1  0  0  0  0  0  0
  1  6  1  0
  1 48  1  0
  2  4  1  0
  3  4  1  0
  4  1  1  0
  6  5  1  0
  8  7  1  0
  8  6  1  0
  8  9  1  0
 10 18  1  0
 11 16  1  0
 12 13  1  0
 12 11  1  0
 14 13  1  0
 14 23  1  0
 14 15  1  0
 16 10  1  0
 16 15  1  0
 17 10  2  0
 18 19  1  0
 18  9  1  0
 20 21  2  0
 21 40  1  0
 22 21  1  0
 22 25  1  0
 23 20  1  0
 23 24  1  0
 24 22  2  0
 25 26  1  0
 26 27  2  0
 28 31  1  0
 28 27  1  0
 29 28  2  0
 30 29  1  0
 30 25  2  0
 31 32  1  0
 32 33  1  0
 33 34  2  0
 35 34  1  0
 35 39  1  0
 36 35  2  0
 37 32  2  0
 37 36  1  0
 38 37  1  0
 40 41  1  0
 41 44  1  0
 41 43  1  0
 42 40  2  0
 45 46  1  0
 45 20  1  0
 47 45  1  0
 49 48  1  0
 49 50  2  0
 51 50  1  0
 52 63  2  0
 53 51  1  0
 53 58  1  0
 54 62  1  0
 54 64  1  0
 55 61  1  0
 55 57  1  0
 56 62  1  0
 57 58  2  0
 57 56  1  0
 59 53  2  0
 60 59  1  0
 60 55  2  0
 61 54  1  0
 62 52  1  0
 64 66  2  0
 65 64  1  0
 67 65  1  0
 68 77  2  0
 68 73  1  0
 69 65  1  0
 69 73  1  0
 70 69  1  0
 71 72  1  0
 71 70  1  0
 72 68  1  0
 73 74  2  0
 74 75  1  0
 76 75  2  0
 77 76  1  0
 78 52  1  0
 78 79  1  0
 78 88  1  0
 79 82  1  0
 80 84  1  0
 80 79  1  0
 81 80  2  0
 84 83  1  0
 86 84  1  0
 86 87  1  0
 86 85  1  0
 88 91  1  1
 88 89  1  0
 90 88  1  0
M  ISO  4  10 100  18 100  50 101  51 101
M  END
>  <TORSDO>  (72) 
F 23

>  <SCORE>  (72) 
-12.705

>  <name>  (72) 
71

>  <ligand_id>  (72) 
71

>  <original_smiles>  (72) 
[H]c1c([H])c([H])c2c(c1[H])C([H])([H])C([H])([H])C([H])([H])C2([H])N([H])C(=O)C1([H])N(C(=O)C([H])(N([H])C(=O)C([H])(N([H])C([H])([H])[H])C([H])([H])[H])C(C([H])([H])[H])(C([H])([H])[H])C([H])([H])[H])C([H])([H])c2c([H])c(OC([H])([H])C([H])([H])C([H])([H])C([H])(C([H])(C([H])([H])[H])C([H])([H])[H])C([H])(C([H])([H])[H])C([H])(C([H])([H])[H])C([H])([H])N([H])C(=O)N3C([H])([H])C([H])([H])C([H])([H])C([H])(n4nc(-c5c([H])c([H])c(Oc6c([H])c([H])c(F)c([H])c6F)c([H])c5[H])c(C(=O)N([H])[H])c4N([H])[H])C3([H])[H])c([H])c([H])c2C1([H])[H]

>  <smiles>  (72) 
[H]c1c([H])c([H])c2c(c1[H])C([H])([H])C([H])([H])C([H])([H])C2([H])N([H])C(=O)C1([H])N(C(=O)C([H])(N([H])C(=O)C([H])(N([H])C([H])([H])[H])C([H])([H])[H])C(C([H])([H])[H])(C([H])([H])[H])C([H])([H])[H])C([H])([H])c2c([H])c(OC([H])([H])C([H])([H])C([H])([H])C([H])(C([H])(C([H])([H])[H])C([H])([H])[H])C([H])(C([H])([H])[H])C([H])(C([H])([H])[H])C([H])([H])N([H])C(=O)N3C([H])([H])C([H])([H])C([H])([H])C([H])(n4nc(-c5c([H])c([H])c(Oc6c([H])c([H])c(F)c([H])c6F)c([H])c5[H])c(C(=O)N([H])[H])c4N([H])[H])C3([H])[H])c([H])c([H])c2C1([H])[H]

$$$$
72:0:0
     RDKit          3D

 90 97  0  0  1  0  0  0  0  0999 V2000
  -30.3000  -22.9140   21.6260 C   0  0  0  0  0  1  0  0  0  0  0  0
  -29.6490  -22.6440   20.2550 C   0  0  0  0  0  3  0  0  0  0  0  0
  -29.0280  -21.2410   20.1800 N   0  0  0  0  0  4  0  0  0  0  0  0
  -28.3780  -21.1340   20.9430 H   0  0  0  0  0  0  0  0  0  0  0  0
  -28.4850  -21.2020   19.3320 H   0  0  0  0  0  0  0  0  0  0  0  0
  -29.9720  -20.0300   20.1500 C   0  0  0  0  0  2  0  0  0  0  0  0
  -29.3860  -18.5340   20.2900 C   0  0  0  0  0  3  0  0  0  0  0  0
  -30.4130  -17.3030   20.0890 C   0  0  0  0  0  3  0  0  0  0  0  0
  -30.6980  -14.7510   20.0750 C   0  0  0  0  0  0  0  0  0  0  0  0
  -30.3690  -12.5390   18.9600 C   0  0  0  0  0  2  0  0  0  0  0  0
  -29.3600  -12.6770   17.7990 C   0  0  0  0  0  2  0  0  0  0  0  0
  -27.9130  -12.5120   18.3040 C   0  0  0  0  0  2  0  0  0  0  0  0
  -27.6290  -13.3460   19.5800 C   0  0  0  0  0  3  0  0  0  0  0  0
  -28.7480  -13.1600   20.6240 C   0  0  0  0  0  2  0  0  0  0  0  0
  -30.0180  -13.5500   19.9870 N   0  0  0  0  0  0  0  0  0  0  0  0
  -31.7970  -14.8650   19.5240 O   0  0  0  0  0  0  0  0  0  0  0  0
  -29.6610  -15.9060   21.9680 C   0  0  0  0  0  1  0  0  0  0  0  0
  -30.0560  -15.8920   20.5550 N   0  0  0  0  0  0  0  0  0  0  0  0
  -25.2870  -13.9370   20.4540 C   0  0  0  0  0  0  0  0  0  0  0  0
  -24.2370  -13.1630   20.8650 C   0  0  0  0  0  0  0  0  0  0  0  0
  -24.6850  -11.8080   20.7710 C   0  0  0  0  0  0  0  0  0  0  0  0
  -26.3080  -13.0570   20.1360 N   0  0  0  0  0  0  0  0  0  0  0  0
  -25.9540  -11.7700   20.3850 N   0  0  0  0  0  0  0  0  0  0  0  0
  -23.9610  -10.5460   20.9710 C   0  0  0  0  0  0  0  0  0  0  0  0
  -24.4220   -9.5620   21.8710 C   0  0  0  0  0  3  0  0  0  0  0  0
  -23.6960   -8.3660   22.0580 C   0  0  0  0  0  3  0  0  0  0  0  0
  -22.4930   -8.1450   21.3460 C   0  0  0  0  0  0  0  0  0  0  0  0
  -22.0510   -9.1190   20.4320 C   0  0  0  0  0  3  0  0  0  0  0  0
  -22.7780  -10.3060   20.2430 C   0  0  0  0  0  3  0  0  0  0  0  0
  -21.7360   -7.0020   21.4450 O   0  0  0  0  0  0  0  0  0  0  0  0
  -21.7070   -6.2560   22.5970 C   0  0  0  0  0  0  0  0  0  0  0  0
  -21.3240   -6.8140   23.8370 C   0  0  0  0  0  3  0  0  0  0  0  0
  -21.2400   -5.9960   24.9810 C   0  0  0  0  0  3  0  0  0  0  0  0
  -21.5280   -4.6210   24.8870 C   0  0  0  0  0  0  0  0  0  0  0  0
  -21.9040   -4.0630   23.6530 C   0  0  0  0  0  3  0  0  0  0  0  0
  -21.9900   -4.8790   22.5110 C   0  0  0  0  0  0  0  0  0  0  0  0
  -22.3320   -4.3320   21.3190 F   0  0  0  0  0  0  0  0  0  0  0  0
  -21.4410   -3.8330   25.9840 F   0  0  0  0  0  0  0  0  0  0  0  0
  -22.8620  -13.6410   21.2340 C   0  0  0  0  0  0  0  0  0  0  0  0
  -22.1820  -12.9270   22.1260 N   0  0  0  0  0  0  0  0  0  0  0  0
  -22.4010  -14.6810   20.7670 O   0  0  0  0  0  0  0  0  0  0  0  0
  -22.5650  -12.0810   22.5200 H   0  0  0  0  0  0  0  0  0  0  0  0
  -21.2640  -13.2310   22.4170 H   0  0  0  0  0  0  0  0  0  0  0  0
  -25.4580  -15.3120   20.3030 N   0  0  0  0  0  0  0  0  0  0  0  0
  -24.7160  -15.9820   20.4740 H   0  0  0  0  0  0  0  0  0  0  0  0
  -26.3060  -15.7390   19.9550 H   0  0  0  0  0  0  0  0  0  0  0  0
  -27.7370  -23.5260   18.6990 C   0  0  0  0  0  1  0  0  0  0  0  0
  -28.8430  -23.9430   19.6810 C   0  0  0  0  0  3  0  0  0  0  0  0
  -28.3590  -25.1670   20.6170 C   0  0  0  0  0  2  0  0  0  0  0  0
  -28.4260  -26.5710   20.1250 O   0  0  0  0  0  0  0  0  0  0  0  0
  -24.6060  -31.9190   23.1890 C   0  0  0  0  0  0  0  0  0  0  0  0
  -27.2790  -27.3790   20.1530 C   0  0  0  0  0  0  0  0  0  0  0  0
  -23.4170  -30.4890   21.5650 C   0  0  0  0  0  3  0  0  0  0  0  0
  -24.8850  -28.9460   20.1500 C   0  0  0  0  0  0  0  0  0  0  0  0
  -25.9490  -30.8480   21.3630 C   0  0  0  0  0  2  0  0  0  0  0  0
  -26.0500  -29.4640   20.7280 C   0  0  0  0  0  0  0  0  0  0  0  0
  -27.2540  -28.6960   20.7110 C   0  0  0  0  0  3  0  0  0  0  0  0
  -26.0880  -26.9020   19.5710 C   0  0  0  0  0  3  0  0  0  0  0  0
  -24.9050  -27.6710   19.5630 C   0  0  0  0  0  3  0  0  0  0  0  0
  -23.6350  -29.8040   20.1910 C   0  0  0  0  0  2  0  0  0  0  0  0
  -24.6760  -31.1030   22.0960 N   0  0  0  0  0  0  0  0  0  0  0  0
  -23.5220  -32.1840   23.7280 O   0  0  0  0  0  0  0  0  0  0  0  0
  -22.7770  -29.4690   22.5370 C   0  0  0  0  0  0  0  0  0  0  0  0
  -21.4530  -29.2720   22.4200 N   0  0  0  0  0  0  0  0  0  0  0  0
  -23.4710  -28.8570   23.3530 O   0  0  0  0  0  0  0  0  0  0  0  0
  -20.9520  -29.8170   21.7320 H   0  0  0  0  0  0  0  0  0  0  0  0
  -18.0970  -28.0280   22.9480 C   0  0  0  0  0  0  0  0  0  0  0  0
  -20.6520  -28.3280   23.2010 C   0  0  0  0  0  3  0  0  0  0  0  0
  -20.7740  -26.8950   22.6320 C   0  0  0  0  0  2  0  0  0  0  0  0
  -19.6700  -26.5510   21.6270 C   0  0  0  0  0  2  0  0  0  0  0  0
  -18.2900  -26.6780   22.2780 C   0  0  0  0  0  2  0  0  0  0  0  0
  -19.2060  -28.8100   23.3670 C   0  0  0  0  0  0  0  0  0  0  0  0
  -18.9730  -30.0730   23.9540 C   0  0  0  0  0  3  0  0  0  0  0  0
  -17.6620  -30.5570   24.1220 C   0  0  0  0  0  3  0  0  0  0  0  0
  -16.5670  -29.7730   23.7190 C   0  0  0  0  0  3  0  0  0  0  0  0
  -16.7840  -28.5110   23.1420 C   0  0  0  0  0  3  0  0  0  0  0  0
  -25.8810  -32.5770   23.7990 C   0  0  0  0  0  3  0  0  0  0  0  0
  -26.4140  -31.8270   25.0830 C   0  0  1  0  0  0  0  0  0  0  0  0
  -25.3280  -31.5800   26.1570 C   0  0  0  0  0  1  0  0  0  0  0  0
  -27.0170  -30.4550   24.7020 C   0  0  0  0  0  1  0  0  0  0  0  0
  -27.5540  -32.6470   25.7310 C   0  0  0  0  0  1  0  0  0  0  0  0
  -25.5540  -33.9740   24.1190 N   0  0  0  0  0  0  0  0  0  0  0  0
  -25.8660  -35.0240   23.3490 C   0  0  0  0  0  0  0  0  0  0  0  0
  -26.5300  -34.9210   22.3140 O   0  0  0  0  0  0  0  0  0  0  0  0
  -24.9660  -34.1280   24.9250 H   0  0  0  0  0  0  0  0  0  0  0  0
  -24.1050  -36.7840   22.9960 C   0  0  0  0  0  1  0  0  0  0  0  0
  -25.3620  -36.4090   23.7970 C   0  0  0  0  0  3  0  0  0  0  0  0
  -27.4920  -37.3360   24.5940 C   0  0  0  0  0  1  0  0  0  0  0  0
  -26.3770  -37.4780   23.6620 N   0  0  0  0  0  0  0  0  0  0  0  0
  -25.9580  -38.3930   23.8070 H   0  0  0  0  0  0  0  0  0  0  0  0
  2  1  1  0
  3  2  1  0
  3  4  1  0
  5  3  1  0
  6  3  1  0
  6  7  1  0
  8  7  2  0
  8 18  1  0
  9 18  1  0
 10 15  1  0
 11 12  1  0
 11 10  1  0
 13 12  1  0
 13 22  1  0
 13 14  1  0
 15  9  1  0
 15 14  1  0
 16  9  2  0
 18 17  1  0
 19 20  2  0
 20 39  1  0
 21 20  1  0
 21 24  1  0
 22 23  1  0
 22 19  1  0
 23 21  2  0
 24 25  1  0
 25 26  2  0
 27 30  1  0
 27 26  1  0
 28 27  2  0
 29 28  1  0
 29 24  2  0
 30 31  1  0
 31 32  1  0
 32 33  2  0
 34 33  1  0
 34 38  1  0
 35 34  2  0
 36 31  2  0
 36 35  1  0
 37 36  1  0
 39 40  1  0
 40 43  1  0
 40 42  1  0
 41 39  2  0
 44 19  1  0
 44 45  1  0
 46 44  1  0
 48 47  1  0
 48  2  1  0
 48 49  1  0
 50 52  1  0
 50 49  1  0
 51 62  2  0
 52 57  1  0
 53 61  1  0
 53 63  1  0
 54 60  1  0
 54 56  1  0
 55 61  1  0
 56 55  1  0
 57 56  2  0
 58 52  2  0
 59 58  1  0
 59 54  2  0
 60 53  1  0
 61 51  1  0
 63 65  2  0
 64 63  1  0
 66 64  1  0
 67 76  2  0
 67 72  1  0
 68 64  1  0
 68 72  1  0
 69 68  1  0
 70 71  1  0
 70 69  1  0
 71 67  1  0
 72 73  2  0
 73 74  1  0
 75 74  2  0
 76 75  1  0
 77 51  1  0
 77 82  1  0
 77 78  1  0
 78 81  1  1
 78 79  1  0
 80 78  1  0
 82 85  1  0
 83 87  1  0
 83 82  1  0
 84 83  2  0
 87 86  1  0
 89 87  1  0
 89 90  1  0
 89 88  1  0
M  ISO  4   9 100  18 100  49 101  50 101
M  END
>  <TORSDO>  (73) 
F 22

>  <SCORE>  (73) 
-12.459

>  <name>  (73) 
72

>  <ligand_id>  (73) 
72

>  <original_smiles>  (73) 
[H]c1c([H])c([H])c2c(c1[H])C([H])([H])C([H])([H])C([H])([H])C2([H])N([H])C(=O)C1([H])N(C(=O)C([H])(N([H])C(=O)C([H])(N([H])C([H])([H])[H])C([H])([H])[H])C(C([H])([H])[H])(C([H])([H])[H])C([H])([H])[H])C([H])([H])c2c([H])c(OC([H])([H])C([H])(C([H])([H])[H])C([H])(C([H])([H])[H])[N+]([H])([H])C([H])([H])C([H])([H])C([H])([H])N(C(=O)N3C([H])([H])C([H])([H])C([H])([H])C([H])(n4nc(-c5c([H])c([H])c(Oc6c([H])c([H])c(F)c([H])c6F)c([H])c5[H])c(C(=O)N([H])[H])c4N([H])[H])C3([H])[H])C([H])([H])[H])c([H])c([H])c2C1([H])[H]

>  <smiles>  (73) 
[H]c1c([H])c([H])c2c(c1[H])C([H])([H])C([H])([H])C([H])([H])C2([H])N([H])C(=O)C1([H])N(C(=O)C([H])(N([H])C(=O)C([H])(N([H])C([H])([H])[H])C([H])([H])[H])C(C([H])([H])[H])(C([H])([H])[H])C([H])([H])[H])C([H])([H])c2c([H])c(OC([H])([H])C([H])(C([H])([H])[H])C([H])(C([H])([H])[H])[N+]([H])([H])C([H])([H])C([H])([H])C([H])([H])N(C(=O)N3C([H])([H])C([H])([H])C([H])([H])C([H])(n4nc(-c5c([H])c([H])c(Oc6c([H])c([H])c(F)c([H])c6F)c([H])c5[H])c(C(=O)N([H])[H])c4N([H])[H])C3([H])[H])C([H])([H])[H])c([H])c([H])c2C1([H])[H]

$$$$
73:0:0
     RDKit          3D

 97105  0  0  1  0  0  0  0  0999 V2000
  -30.0430  -21.3010   20.1870 C   0  0  0  0  0  3  0  0  0  0  0  0
  -28.1460  -22.2370   19.0240 C   0  0  0  0  0  3  0  0  0  0  0  0
  -29.2890  -22.4850   19.7920 C   0  0  0  0  0  0  0  0  0  0  0  0
  -29.5380  -19.9510   19.9590 C   0  0  0  0  0  0  0  0  0  0  0  0
  -28.2210  -19.9550   19.4160 C   0  0  0  0  0  0  0  0  0  0  0  0
  -27.6200  -21.0240   18.8700 N   0  0  0  0  0  0  0  0  0  0  0  0
  -29.5630  -24.0020   20.1840 C   0  0  0  0  0  3  0  0  0  0  0  0
  -28.4610  -25.0970   19.7500 C   0  0  0  0  0  3  0  0  0  0  0  0
  -28.6040  -26.5590   19.9510 O   0  0  0  0  0  0  0  0  0  0  0  0
  -24.5550  -31.7130   23.0320 C   0  0  0  0  0  0  0  0  0  0  0  0
  -27.4280  -27.3400   19.9230 C   0  0  0  0  0  0  0  0  0  0  0  0
  -23.4300  -30.2730   21.3740 C   0  0  0  0  0  3  0  0  0  0  0  0
  -24.9700  -28.8200   19.9360 C   0  0  0  0  0  0  0  0  0  0  0  0
  -25.9540  -30.7300   21.2020 C   0  0  0  0  0  2  0  0  0  0  0  0
  -26.1130  -29.3660   20.5350 C   0  0  0  0  0  0  0  0  0  0  0  0
  -27.3430  -28.6400   20.5120 C   0  0  0  0  0  3  0  0  0  0  0  0
  -26.2490  -26.8470   19.3020 C   0  0  0  0  0  3  0  0  0  0  0  0
  -25.0410  -27.5680   19.3140 C   0  0  0  0  0  3  0  0  0  0  0  0
  -23.6860  -29.6270   19.9870 C   0  0  0  0  0  2  0  0  0  0  0  0
  -24.6650  -30.9200   21.9270 N   0  0  0  0  0  0  0  0  0  0  0  0
  -23.4550  -31.9330   23.5630 O   0  0  0  0  0  0  0  0  0  0  0  0
  -22.8160  -29.2110   22.3150 C   0  0  0  0  0  0  0  0  0  0  0  0
  -21.4950  -28.9850   22.1970 N   0  0  0  0  0  0  0  0  0  0  0  0
  -23.5260  -28.5880   23.1090 O   0  0  0  0  0  0  0  0  0  0  0  0
  -20.9770  -29.5380   21.5280 H   0  0  0  0  0  0  0  0  0  0  0  0
  -18.1650  -27.6860   22.7310 C   0  0  0  0  0  0  0  0  0  0  0  0
  -20.7200  -28.0060   22.9580 C   0  0  0  0  0  3  0  0  0  0  0  0
  -20.8470  -26.5920   22.3440 C   0  0  0  0  0  2  0  0  0  0  0  0
  -19.7360  -26.2680   21.3410 C   0  0  0  0  0  2  0  0  0  0  0  0
  -18.3630  -26.3610   22.0160 C   0  0  0  0  0  2  0  0  0  0  0  0
  -19.2710  -28.4670   23.1620 C   0  0  0  0  0  0  0  0  0  0  0  0
  -19.0310  -29.7060   23.7910 C   0  0  0  0  0  3  0  0  0  0  0  0
  -17.7170  -30.1700   23.9950 C   0  0  0  0  0  3  0  0  0  0  0  0
  -16.6250  -29.3840   23.5840 C   0  0  0  0  0  3  0  0  0  0  0  0
  -16.8500  -28.1460   22.9580 C   0  0  0  0  0  3  0  0  0  0  0  0
  -25.7980  -32.4060   23.6640 C   0  0  0  0  0  3  0  0  0  0  0  0
  -25.4090  -33.7710   24.0410 N   0  0  0  0  0  0  0  0  0  0  0  0
  -25.7080  -34.8680   23.3320 C   0  0  0  0  0  0  0  0  0  0  0  0
  -26.4100  -34.8370   22.3170 O   0  0  0  0  0  0  0  0  0  0  0  0
  -24.7890  -33.8660   24.8320 H   0  0  0  0  0  0  0  0  0  0  0  0
  -23.9040  -36.5850   22.9900 C   0  0  0  0  0  1  0  0  0  0  0  0
  -25.1360  -36.2090   23.8270 C   0  0  0  0  0  3  0  0  0  0  0  0
  -27.1990  -37.1570   24.7620 C   0  0  0  0  0  1  0  0  0  0  0  0
  -26.1160  -37.3150   23.7950 N   0  0  0  0  0  0  0  0  0  0  0  0
  -25.6590  -38.2040   23.9790 H   0  0  0  0  0  0  0  0  0  0  0  0
  -26.3730  -31.6270   24.9120 C   0  0  1  0  0  0  0  0  0  0  0  0
  -25.3020  -31.2750   25.9690 C   0  0  0  0  0  1  0  0  0  0  0  0
  -27.0500  -30.3090   24.4680 C   0  0  0  0  0  1  0  0  0  0  0  0
  -27.4650  -32.4770   25.6030 C   0  0  0  0  0  1  0  0  0  0  0  0
  -27.2400  -18.8020   19.5220 C   0  0  0  0  0  2  0  0  0  0  0  0
  -28.1090  -18.2050   17.1290 C   0  0  0  0  0  1  0  0  0  0  0  0
  -27.3260  -16.3870   18.8610 C   0  0  0  0  0  1  0  0  0  0  0  0
  -27.1860  -17.8310   18.3270 C   0  0  0  0  0  3  0  0  0  0  0  0
  -30.1890  -18.5470   20.4440 C   0  0  0  0  0  3  0  0  0  0  0  0
  -31.4460  -18.7820   21.3230 C   0  0  0  0  0  2  0  0  0  0  0  0
  -32.3320  -20.1290   23.2870 C   0  0  0  0  0  1  0  0  0  0  0  0
  -30.7660  -18.2410   23.7470 C   0  0  0  0  0  1  0  0  0  0  0  0
  -31.1350  -19.3430   22.7340 C   0  0  0  0  0  3  0  0  0  0  0  0
  -30.3460  -17.2340   19.4990 C   0  0  0  0  0  2  0  0  0  0  0  0
  -30.8730  -14.6690   19.9620 C   0  0  0  0  0  0  0  0  0  0  0  0
  -30.6610  -12.2680   19.3060 C   0  0  0  0  0  2  0  0  0  0  0  0
  -29.7000  -12.1390   18.1010 C   0  0  0  0  0  2  0  0  0  0  0  0
  -28.2450  -11.9950   18.5770 C   0  0  0  0  0  2  0  0  0  0  0  0
  -27.8730  -13.0310   19.6730 C   0  0  0  0  0  3  0  0  0  0  0  0
  -28.9610  -13.1570   20.7660 C   0  0  0  0  0  2  0  0  0  0  0  0
  -30.2410  -13.4470   20.0970 N   0  0  0  0  0  0  0  0  0  0  0  0
  -32.0280  -14.7150   19.5360 O   0  0  0  0  0  0  0  0  0  0  0  0
  -30.1310  -15.8350   20.1050 N   0  0  0  0  0  0  0  0  0  0  0  0
  -29.2140  -15.6880   20.5000 H   0  0  0  0  0  0  0  0  0  0  0  0
  -25.5420  -13.6630   20.5160 C   0  0  0  0  0  0  0  0  0  0  0  0
  -24.4790  -12.9540   20.9760 C   0  0  0  0  0  0  0  0  0  0  0  0
  -24.8600  -11.5870   20.8320 C   0  0  0  0  0  0  0  0  0  0  0  0
  -26.5450  -12.7640   20.2190 N   0  0  0  0  0  0  0  0  0  0  0  0
  -26.1340  -11.4910   20.4520 N   0  0  0  0  0  0  0  0  0  0  0  0
  -24.0570  -10.3740   20.9610 C   0  0  0  0  0  0  0  0  0  0  0  0
  -24.4180   -9.3450   21.8580 C   0  0  0  0  0  3  0  0  0  0  0  0
  -23.6130   -8.1940   21.9810 C   0  0  0  0  0  3  0  0  0  0  0  0
  -22.4380   -8.0630   21.2040 C   0  0  0  0  0  0  0  0  0  0  0  0
  -22.0980   -9.0770   20.2940 C   0  0  0  0  0  3  0  0  0  0  0  0
  -22.9000  -10.2210   20.1670 C   0  0  0  0  0  3  0  0  0  0  0  0
  -21.6100   -6.9680   21.2410 O   0  0  0  0  0  0  0  0  0  0  0  0
  -21.4360   -6.2450   22.3910 C   0  0  0  0  0  0  0  0  0  0  0  0
  -20.9460   -6.8390   23.5750 C   0  0  0  0  0  3  0  0  0  0  0  0
  -20.7180   -6.0430   24.7150 C   0  0  0  0  0  3  0  0  0  0  0  0
  -20.9660   -4.6580   24.6700 C   0  0  0  0  0  0  0  0  0  0  0  0
  -21.4500   -4.0690   23.4900 C   0  0  0  0  0  3  0  0  0  0  0  0
  -21.6820   -4.8580   22.3520 C   0  0  0  0  0  0  0  0  0  0  0  0
  -22.1300   -4.2840   21.2090 F   0  0  0  0  0  0  0  0  0  0  0  0
  -20.7390   -3.8910   25.7610 F   0  0  0  0  0  0  0  0  0  0  0  0
  -23.1510  -13.5120   21.3930 C   0  0  0  0  0  0  0  0  0  0  0  0
  -22.4570  -12.8150   22.2820 N   0  0  0  0  0  0  0  0  0  0  0  0
  -22.7540  -14.6010   20.9820 O   0  0  0  0  0  0  0  0  0  0  0  0
  -22.8100  -11.9370   22.6380 H   0  0  0  0  0  0  0  0  0  0  0  0
  -21.5670  -13.1580   22.6150 H   0  0  0  0  0  0  0  0  0  0  0  0
  -25.7040  -15.0000   20.2630 N   0  0  0  0  0  0  0  0  0  0  0  0
  -24.9500  -15.6510   20.4500 H   0  0  0  0  0  0  0  0  0  0  0  0
  -26.5280  -15.4340   19.8760 H   0  0  0  0  0  0  0  0  0  0  0  0
  2  3  1  0
  3  7  1  0
  3  1  2  0
  4  1  1  0
  4 54  1  0
  5 50  1  0
  5  4  2  0
  6  2  2  0
  6  5  1  0
  8  9  1  0
  8  7  2  0
 10 21  2  0
 11  9  1  0
 11 16  1  0
 12 20  1  0
 12 22  1  0
 13 19  1  0
 13 15  1  0
 14 20  1  0
 15 14  1  0
 16 15  2  0
 17 18  1  0
 17 11  2  0
 18 13  2  0
 19 12  1  0
 20 10  1  0
 22 24  2  0
 23 22  1  0
 25 23  1  0
 26 35  2  0
 26 31  1  0
 27 23  1  0
 27 31  1  0
 28 27  1  0
 29 30  1  0
 29 28  1  0
 30 26  1  0
 31 32  2  0
 32 33  1  0
 34 33  2  0
 35 34  1  0
 36 10  1  0
 36 37  1  0
 36 46  1  0
 37 40  1  0
 38 42  1  0
 38 37  1  0
 39 38  2  0
 42 41  1  0
 44 42  1  0
 44 45  1  0
 44 43  1  0
 46 49  1  1
 46 47  1  0
 48 46  1  0
 51 53  1  0
 53 52  1  0
 53 50  1  0
 54 59  1  0
 54 55  1  0
 55 58  1  0
 58 56  1  0
 58 57  1  0
 59 68  1  0
 60 66  1  0
 60 68  1  0
 61 66  1  0
 62 63  1  0
 62 61  1  0
 64 63  1  0
 64 73  1  0
 64 65  1  0
 66 65  1  0
 67 60  2  0
 68 69  1  0
 70 71  2  0
 71 90  1  0
 72 75  1  0
 72 71  1  0
 73 74  1  0
 73 70  1  0
 74 72  2  0
 75 76  1  0
 76 77  2  0
 78 81  1  0
 78 77  1  0
 79 78  2  0
 80 79  1  0
 80 75  2  0
 81 82  1  0
 82 83  1  0
 83 84  2  0
 85 84  1  0
 85 89  1  0
 86 85  2  0
 87 82  2  0
 87 86  1  0
 88 87  1  0
 90 91  1  0
 91 94  1  0
 91 93  1  0
 92 90  2  0
 95 96  1  0
 95 70  1  0
 97 95  1  0
M  ISO  4   8 101   9 101  60 100  68 100
M  END
>  <TORSDO>  (74) 
F 24

>  <SCORE>  (74) 
-11.069

>  <name>  (74) 
73

>  <ligand_id>  (74) 
73

>  <original_smiles>  (74) 
[H]c1nc(C([H])([H])C([H])(C([H])([H])[H])C([H])([H])[H])c(C([H])(C([H])([H])N([H])C(=O)N2C([H])([H])C([H])([H])C([H])([H])C([H])(n3nc(-c4c([H])c([H])c(Oc5c([H])c([H])c(F)c([H])c5F)c([H])c4[H])c(C(=O)N([H])[H])c3N([H])[H])C2([H])[H])C([H])([H])C([H])(C([H])([H])[H])C([H])([H])[H])c([H])c1C([H])([H])C([H])([H])Oc1c([H])c([H])c2c(c1[H])C([H])([H])N(C(=O)C([H])(N([H])C(=O)C([H])(N([H])C([H])([H])[H])C([H])([H])[H])C(C([H])([H])[H])(C([H])([H])[H])C([H])([H])[H])C([H])(C(=O)N([H])C1([H])c3c([H])c([H])c([H])c([H])c3C([H])([H])C([H])([H])C1([H])[H])C2([H])[H]

>  <smiles>  (74) 
[H]c1nc(C([H])([H])C([H])(C([H])([H])[H])C([H])([H])[H])c(C([H])(C([H])([H])N([H])C(=O)N2C([H])([H])C([H])([H])C([H])([H])C([H])(n3nc(-c4c([H])c([H])c(Oc5c([H])c([H])c(F)c([H])c5F)c([H])c4[H])c(C(=O)N([H])[H])c3N([H])[H])C2([H])[H])C([H])([H])C([H])(C([H])([H])[H])C([H])([H])[H])c([H])c1C([H])([H])C([H])([H])Oc1c([H])c([H])c2c(c1[H])C([H])([H])N(C(=O)C([H])(N([H])C(=O)C([H])(N([H])C([H])([H])[H])C([H])([H])[H])C(C([H])([H])[H])(C([H])([H])[H])C([H])([H])[H])C([H])(C(=O)N([H])C1([H])c3c([H])c([H])c([H])c([H])c3C([H])([H])C([H])([H])C1([H])[H])C2([H])[H]

$$$$
74:0:0
     RDKit          3D

 97105  0  0  1  0  0  0  0  0999 V2000
  -27.1290  -21.6970   19.2140 C   0  0  0  0  0  3  0  0  0  0  0  0
  -29.1820  -21.4310   20.4680 C   0  0  0  0  0  3  0  0  0  0  0  0
  -28.1770  -19.4880   19.3710 C   0  0  0  0  0  3  0  0  0  0  0  0
  -28.1240  -22.3300   20.0000 C   0  0  0  0  0  0  0  0  0  0  0  0
  -27.1420  -20.3180   18.8960 C   0  0  0  0  0  0  0  0  0  0  0  0
  -29.2340  -19.9860   20.1510 C   0  0  0  0  0  0  0  0  0  0  0  0
  -25.2860  -20.6640   17.1410 C   0  0  0  0  0  1  0  0  0  0  0  0
  -25.0840  -18.8620   18.9150 C   0  0  0  0  0  1  0  0  0  0  0  0
  -26.0480  -19.6770   18.0430 C   0  0  0  0  0  3  0  0  0  0  0  0
  -27.7900  -23.8870   20.3320 C   0  0  0  0  0  2  0  0  0  0  0  0
  -29.5370  -25.2170   21.6630 C   0  0  0  0  0  1  0  0  0  0  0  0
  -28.7890  -25.1590   20.3250 C   0  0  0  0  0  3  0  0  0  0  0  0
  -28.4990  -26.6190   19.9980 O   0  0  0  0  0  0  0  0  0  0  0  0
  -24.6460  -31.9260   23.2230 C   0  0  0  0  0  0  0  0  0  0  0  0
  -27.3170  -27.3890   20.1160 C   0  0  0  0  0  0  0  0  0  0  0  0
  -23.4670  -30.5500   21.5460 C   0  0  0  0  0  3  0  0  0  0  0  0
  -24.9400  -29.0190   20.1110 C   0  0  0  0  0  0  0  0  0  0  0  0
  -26.0090  -30.8760   21.3900 C   0  0  0  0  0  2  0  0  0  0  0  0
  -26.1030  -29.5010   20.7240 C   0  0  0  0  0  0  0  0  0  0  0  0
  -27.2920  -28.7020   20.7060 C   0  0  0  0  0  3  0  0  0  0  0  0
  -26.1280  -26.9670   19.4870 C   0  0  0  0  0  3  0  0  0  0  0  0
  -24.9600  -27.7600   19.4830 C   0  0  0  0  0  3  0  0  0  0  0  0
  -23.7010  -29.8940   20.1580 C   0  0  0  0  0  2  0  0  0  0  0  0
  -24.7270  -31.1360   22.1100 N   0  0  0  0  0  0  0  0  0  0  0  0
  -23.5560  -32.1840   23.7540 O   0  0  0  0  0  0  0  0  0  0  0  0
  -22.8020  -29.5140   22.4820 C   0  0  0  0  0  0  0  0  0  0  0  0
  -21.4800  -29.3220   22.3350 N   0  0  0  0  0  0  0  0  0  0  0  0
  -23.4770  -28.8830   23.3020 O   0  0  0  0  0  0  0  0  0  0  0  0
  -20.9930  -29.8820   21.6490 H   0  0  0  0  0  0  0  0  0  0  0  0
  -18.1130  -28.0660   22.7680 C   0  0  0  0  0  0  0  0  0  0  0  0
  -20.6640  -28.3590   23.0790 C   0  0  0  0  0  3  0  0  0  0  0  0
  -20.7950  -26.9400   22.4810 C   0  0  0  0  0  2  0  0  0  0  0  0
  -19.7130  -26.6180   21.4450 C   0  0  0  0  0  2  0  0  0  0  0  0
  -18.3200  -26.7300   22.0720 C   0  0  0  0  0  2  0  0  0  0  0  0
  -19.2140  -28.8360   23.2270 C   0  0  0  0  0  0  0  0  0  0  0  0
  -18.9670  -30.0850   23.8390 C   0  0  0  0  0  3  0  0  0  0  0  0
  -17.6530  -30.5630   23.9960 C   0  0  0  0  0  3  0  0  0  0  0  0
  -16.5660  -29.7880   23.5550 C   0  0  0  0  0  3  0  0  0  0  0  0
  -16.7970  -28.5410   22.9460 C   0  0  0  0  0  3  0  0  0  0  0  0
  -25.9170  -32.5570   23.8690 C   0  0  0  0  0  3  0  0  0  0  0  0
  -25.6000  -33.9540   24.2050 N   0  0  0  0  0  0  0  0  0  0  0  0
  -25.9290  -35.0130   23.4540 C   0  0  0  0  0  0  0  0  0  0  0  0
  -26.6010  -34.9170   22.4230 O   0  0  0  0  0  0  0  0  0  0  0  0
  -25.0050  -34.1010   25.0060 H   0  0  0  0  0  0  0  0  0  0  0  0
  -24.1950  -36.8030   23.1090 C   0  0  0  0  0  1  0  0  0  0  0  0
  -25.4380  -36.3970   23.9180 C   0  0  0  0  0  3  0  0  0  0  0  0
  -27.5620  -37.2940   24.7630 C   0  0  0  0  0  1  0  0  0  0  0  0
  -26.4670  -37.4550   23.8110 N   0  0  0  0  0  0  0  0  0  0  0  0
  -26.0550  -38.3740   23.9530 H   0  0  0  0  0  0  0  0  0  0  0  0
  -26.4130  -31.7810   25.1520 C   0  0  1  0  0  0  0  0  0  0  0  0
  -25.3020  -31.5380   26.2010 C   0  0  0  0  0  1  0  0  0  0  0  0
  -27.0050  -30.4070   24.7660 C   0  0  0  0  0  1  0  0  0  0  0  0
  -27.5510  -32.5740   25.8360 C   0  0  0  0  0  1  0  0  0  0  0  0
  -30.4410  -18.9460   20.4030 C   0  0  0  0  0  3  0  0  0  0  0  0
  -31.5190  -19.7130   21.0460 N   0  0  0  0  0  4  0  0  0  0  0  0
  -31.2650  -19.9770   21.9800 H   0  0  0  0  0  0  0  0  0  0  0  0
  -31.7100  -20.5390   20.5090 H   0  0  0  0  0  0  0  0  0  0  0  0
  -32.3600  -19.1660   21.0810 H   0  0  0  0  0  0  0  0  0  0  0  0
  -30.3250  -17.4960   21.1770 C   0  0  0  0  0  2  0  0  0  0  0  0
  -30.8020  -14.9850   20.3980 C   0  0  0  0  0  0  0  0  0  0  0  0
  -30.6380  -12.6980   19.3720 C   0  0  0  0  0  2  0  0  0  0  0  0
  -29.6920  -12.7310   18.1500 C   0  0  0  0  0  2  0  0  0  0  0  0
  -28.2230  -12.5510   18.5860 C   0  0  0  0  0  2  0  0  0  0  0  0
  -27.8430  -13.4520   19.7910 C   0  0  0  0  0  3  0  0  0  0  0  0
  -28.9030  -13.3820   20.9090 C   0  0  0  0  0  2  0  0  0  0  0  0
  -30.1860  -13.7560   20.3030 N   0  0  0  0  0  0  0  0  0  0  0  0
  -32.0060  -15.0880   20.1540 O   0  0  0  0  0  0  0  0  0  0  0  0
  -30.0050  -16.1140   20.5830 N   0  0  0  0  0  0  0  0  0  0  0  0
  -29.0200  -15.9030   20.5790 H   0  0  0  0  0  0  0  0  0  0  0  0
  -25.4690  -14.0530   20.5460 C   0  0  0  0  0  0  0  0  0  0  0  0
  -24.3960  -13.2820   20.9060 C   0  0  0  0  0  0  0  0  0  0  0  0
  -24.8460  -11.9270   20.8470 C   0  0  0  0  0  0  0  0  0  0  0  0
  -26.5010  -13.1670   20.2870 N   0  0  0  0  0  0  0  0  0  0  0  0
  -26.1350  -11.8820   20.5320 N   0  0  0  0  0  0  0  0  0  0  0  0
  -24.1070  -10.6690   21.0130 C   0  0  0  0  0  0  0  0  0  0  0  0
  -24.5100   -9.6950   21.9530 C   0  0  0  0  0  3  0  0  0  0  0  0
  -23.7710   -8.5020   22.1070 C   0  0  0  0  0  3  0  0  0  0  0  0
  -22.6150   -8.2760   21.3220 C   0  0  0  0  0  0  0  0  0  0  0  0
  -22.2320   -9.2390   20.3730 C   0  0  0  0  0  3  0  0  0  0  0  0
  -22.9720  -10.4230   20.2160 C   0  0  0  0  0  3  0  0  0  0  0  0
  -21.8510   -7.1360   21.3860 O   0  0  0  0  0  0  0  0  0  0  0  0
  -21.7320   -6.4120   22.5460 C   0  0  0  0  0  0  0  0  0  0  0  0
  -21.2080   -6.9800   23.7280 C   0  0  0  0  0  3  0  0  0  0  0  0
  -21.0400   -6.1810   24.8770 C   0  0  0  0  0  3  0  0  0  0  0  0
  -21.3860   -4.8170   24.8440 C   0  0  0  0  0  0  0  0  0  0  0  0
  -21.9030   -4.2500   23.6660 C   0  0  0  0  0  3  0  0  0  0  0  0
  -22.0730   -5.0450   22.5200 C   0  0  0  0  0  0  0  0  0  0  0  0
  -22.5520   -4.4880   21.3820 F   0  0  0  0  0  0  0  0  0  0  0  0
  -21.2170   -4.0480   25.9460 F   0  0  0  0  0  0  0  0  0  0  0  0
  -23.0050  -13.7690   21.1890 C   0  0  0  0  0  0  0  0  0  0  0  0
  -22.2750  -13.0710   22.0520 N   0  0  0  0  0  0  0  0  0  0  0  0
  -22.5730  -14.8020   20.6790 O   0  0  0  0  0  0  0  0  0  0  0  0
  -22.6380  -12.2340   22.4850 H   0  0  0  0  0  0  0  0  0  0  0  0
  -21.3420  -13.3790   22.2860 H   0  0  0  0  0  0  0  0  0  0  0  0
  -25.6450  -15.4250   20.3930 N   0  0  0  0  0  0  0  0  0  0  0  0
  -24.8770  -16.0770   20.5100 H   0  0  0  0  0  0  0  0  0  0  0  0
  -26.4800  -15.8600   20.0270 H   0  0  0  0  0  0  0  0  0  0  0  0
  1  4  1  0
  3  6  2  0
  4 10  1  0
  4  2  2  0
  5  1  2  0
  5  3  1  0
  6 54  1  0
  6  2  1  0
  7  9  1  0
  9  5  1  0
  9  8  1  0
 12 10  1  0
 12 11  1  0
 13 15  1  0
 13 12  1  0
 14 25  2  0
 15 20  1  0
 16 24  1  0
 16 26  1  0
 17 23  1  0
 17 19  1  0
 18 24  1  0
 19 18  1  0
 20 19  2  0
 21 15  2  0
 22 21  1  0
 22 17  2  0
 23 16  1  0
 24 14  1  0
 26 28  2  0
 27 26  1  0
 29 27  1  0
 30 39  2  0
 30 35  1  0
 31 27  1  0
 31 35  1  0
 32 31  1  0
 33 34  1  0
 33 32  1  0
 34 30  1  0
 35 36  2  0
 36 37  1  0
 38 37  2  0
 39 38  1  0
 40 14  1  0
 40 41  1  0
 40 50  1  0
 41 44  1  0
 42 46  1  0
 42 41  1  0
 43 42  2  0
 46 45  1  0
 48 46  1  0
 48 49  1  0
 48 47  1  0
 50 53  1  1
 50 51  1  0
 52 50  1  0
 54 55  1  0
 54 59  1  0
 55 58  1  0
 55 56  1  0
 57 55  1  0
 60 68  1  0
 61 66  1  0
 62 63  1  0
 62 61  1  0
 64 63  1  0
 64 73  1  0
 64 65  1  0
 66 60  1  0
 66 65  1  0
 67 60  2  0
 68 59  1  0
 69 68  1  0
 70 71  2  0
 71 90  1  0
 72 71  1  0
 72 75  1  0
 73 74  1  0
 73 70  1  0
 74 72  2  0
 75 76  1  0
 76 77  2  0
 78 81  1  0
 78 77  1  0
 79 78  2  0
 80 79  1  0
 80 75  2  0
 81 82  1  0
 82 83  1  0
 83 84  2  0
 85 84  1  0
 85 89  1  0
 86 85  2  0
 87 82  2  0
 87 86  1  0
 88 87  1  0
 90 91  1  0
 91 94  1  0
 91 93  1  0
 92 90  2  0
 95 96  1  0
 95 70  1  0
 97 95  1  0
M  ISO  4  12 101  13 101  60 100  68 100
M  END
>  <TORSDO>  (75) 
F 22

>  <SCORE>  (75) 
-12.553

>  <name>  (75) 
74

>  <ligand_id>  (75) 
74

>  <original_smiles>  (75) 
[H]c1c([H])c([H])c2c(c1[H])C([H])([H])C([H])([H])C([H])([H])C2([H])N([H])C(=O)C1([H])N(C(=O)C([H])(N([H])C(=O)C([H])(N([H])C([H])([H])[H])C([H])([H])[H])C(C([H])([H])[H])(C([H])([H])[H])C([H])([H])[H])C([H])([H])c2c([H])c(OC([H])(C([H])([H])[H])C([H])([H])c3c([H])c(C([H])(C([H])([H])[H])C([H])([H])[H])c([H])c(C([H])(C([H])([H])N([H])C(=O)N4C([H])([H])C([H])([H])C([H])([H])C([H])(n5nc(-c6c([H])c([H])c(Oc7c([H])c([H])c(F)c([H])c7F)c([H])c6[H])c(C(=O)N([H])[H])c5N([H])[H])C4([H])[H])[N+]([H])([H])[H])c3[H])c([H])c([H])c2C1([H])[H]

>  <smiles>  (75) 
[H]c1c([H])c([H])c2c(c1[H])C([H])([H])C([H])([H])C([H])([H])C2([H])N([H])C(=O)C1([H])N(C(=O)C([H])(N([H])C(=O)C([H])(N([H])C([H])([H])[H])C([H])([H])[H])C(C([H])([H])[H])(C([H])([H])[H])C([H])([H])[H])C([H])([H])c2c([H])c(OC([H])(C([H])([H])[H])C([H])([H])c3c([H])c(C([H])(C([H])([H])[H])C([H])([H])[H])c([H])c(C([H])(C([H])([H])N([H])C(=O)N4C([H])([H])C([H])([H])C([H])([H])C([H])(n5nc(-c6c([H])c([H])c(Oc7c([H])c([H])c(F)c([H])c7F)c([H])c6[H])c(C(=O)N([H])[H])c5N([H])[H])C4([H])[H])[N+]([H])([H])[H])c3[H])c([H])c([H])c2C1([H])[H]

$$$$
75:0:0
     RDKit          3D

 89 96  0  0  1  0  0  0  0  0999 V2000
  -27.2210  -21.6940   19.9190 C   0  0  0  0  0  1  0  0  0  0  0  0
  -28.7360  -21.9670   20.0010 C   0  0  0  0  0  3  0  0  0  0  0  0
  -29.3760  -20.8560   22.1840 C   0  0  0  0  0  1  0  0  0  0  0  0
  -29.4890  -20.7490   20.7130 N   0  0  1  0  0  4  0  0  0  0  0  0
  -30.4640  -20.9260   20.5260 H   0  0  0  0  0  0  0  0  0  0  0  0
  -29.3010  -19.2400   20.2390 C   0  0  0  0  0  3  0  0  0  0  0  0
  -30.0510  -17.8900   20.9510 C   0  0  0  0  0  3  0  0  0  0  0  0
  -30.7650  -15.2540   20.7750 C   0  0  0  0  0  0  0  0  0  0  0  0
  -30.7560  -12.8680   19.9520 C   0  0  0  0  0  2  0  0  0  0  0  0
  -29.9100  -12.7080   18.6660 C   0  0  0  0  0  2  0  0  0  0  0  0
  -28.4240  -12.4990   19.0100 C   0  0  0  0  0  2  0  0  0  0  0  0
  -27.9110  -13.4770   20.0990 C   0  0  0  0  0  3  0  0  0  0  0  0
  -28.8800  -13.5950   21.2880 C   0  0  0  0  0  2  0  0  0  0  0  0
  -30.1760  -13.9950   20.7280 N   0  0  0  0  0  0  0  0  0  0  0  0
  -31.9990  -15.2980   20.7860 O   0  0  0  0  0  0  0  0  0  0  0  0
  -30.0300  -16.4150   20.3650 N   0  0  0  0  0  0  0  0  0  0  0  0
  -25.4840  -14.0560   20.6530 C   0  0  0  0  0  0  0  0  0  0  0  0
  -24.3980  -13.2810   20.9530 C   0  0  0  0  0  0  0  0  0  0  0  0
  -24.8720  -11.9340   20.9850 C   0  0  0  0  0  0  0  0  0  0  0  0
  -26.5460  -13.1800   20.5120 N   0  0  0  0  0  0  0  0  0  0  0  0
  -26.1840  -11.9010   20.7820 N   0  0  0  0  0  0  0  0  0  0  0  0
  -24.1420  -10.6700   21.1440 C   0  0  0  0  0  0  0  0  0  0  0  0
  -24.5150   -9.7250   22.1260 C   0  0  0  0  0  3  0  0  0  0  0  0
  -23.7890   -8.5230   22.2750 C   0  0  0  0  0  3  0  0  0  0  0  0
  -22.6760   -8.2580   21.4410 C   0  0  0  0  0  0  0  0  0  0  0  0
  -22.3230   -9.1920   20.4530 C   0  0  0  0  0  3  0  0  0  0  0  0
  -23.0480  -10.3860   20.3010 C   0  0  0  0  0  3  0  0  0  0  0  0
  -21.9290   -7.1080   21.4950 O   0  0  0  0  0  0  0  0  0  0  0  0
  -21.7990   -6.3880   22.6560 C   0  0  0  0  0  0  0  0  0  0  0  0
  -21.2660   -6.9610   23.8300 C   0  0  0  0  0  3  0  0  0  0  0  0
  -21.0860   -6.1680   24.9810 C   0  0  0  0  0  3  0  0  0  0  0  0
  -21.4260   -4.8020   24.9560 C   0  0  0  0  0  0  0  0  0  0  0  0
  -21.9510   -4.2290   23.7840 C   0  0  0  0  0  3  0  0  0  0  0  0
  -22.1330   -5.0190   22.6370 C   0  0  0  0  0  0  0  0  0  0  0  0
  -22.6210   -4.4570   21.5040 F   0  0  0  0  0  0  0  0  0  0  0  0
  -21.2430   -4.0390   26.0580 F   0  0  0  0  0  0  0  0  0  0  0  0
  -22.9810  -13.7540   21.0970 C   0  0  0  0  0  0  0  0  0  0  0  0
  -22.1900  -13.0710   21.9180 N   0  0  0  0  0  0  0  0  0  0  0  0
  -22.5800  -14.7630   20.5190 O   0  0  0  0  0  0  0  0  0  0  0  0
  -22.5260  -12.2570   22.4060 H   0  0  0  0  0  0  0  0  0  0  0  0
  -21.2360  -13.3710   22.0570 H   0  0  0  0  0  0  0  0  0  0  0  0
  -25.6550  -15.4230   20.4590 N   0  0  0  0  0  0  0  0  0  0  0  0
  -24.8810  -16.0760   20.4950 H   0  0  0  0  0  0  0  0  0  0  0  0
  -26.5330  -15.8530   20.2010 H   0  0  0  0  0  0  0  0  0  0  0  0
  -28.6470  -16.7410   18.2760 C   0  0  0  0  0  1  0  0  0  0  0  0
  -30.0460  -16.5610   18.8920 C   0  0  0  0  0  2  0  0  0  0  0  0
  -28.9360  -23.5860   20.4580 C   0  0  0  0  0  3  0  0  0  0  0  0
  -28.0660  -24.8850   19.8310 C   0  0  0  0  0  3  0  0  0  0  0  0
  -28.2950  -26.4110   20.0280 O   0  0  0  0  0  0  0  0  0  0  0  0
  -24.6080  -31.9980   23.0760 C   0  0  0  0  0  0  0  0  0  0  0  0
  -27.2180  -27.3670   19.9610 C   0  0  0  0  0  0  0  0  0  0  0  0
  -23.4040  -30.5870   21.4520 C   0  0  0  0  0  3  0  0  0  0  0  0
  -24.8560  -29.0560   19.9860 C   0  0  0  0  0  0  0  0  0  0  0  0
  -25.9470  -30.9070   21.2400 C   0  0  0  0  0  2  0  0  0  0  0  0
  -26.0360  -29.5220   20.5800 C   0  0  0  0  0  0  0  0  0  0  0  0
  -27.2150  -28.6920   20.5550 C   0  0  0  0  0  3  0  0  0  0  0  0
  -26.0150  -27.0070   19.3130 C   0  0  0  0  0  3  0  0  0  0  0  0
  -24.8580  -27.8150   19.3360 C   0  0  0  0  0  3  0  0  0  0  0  0
  -23.6120  -29.9240   20.0650 C   0  0  0  0  0  2  0  0  0  0  0  0
  -24.6730  -31.1860   21.9770 N   0  0  0  0  0  0  0  0  0  0  0  0
  -23.5260  -32.2560   23.6290 O   0  0  0  0  0  0  0  0  0  0  0  0
  -22.7670  -29.5590   22.4200 C   0  0  0  0  0  0  0  0  0  0  0  0
  -21.4380  -29.3770   22.3330 N   0  0  0  0  0  0  0  0  0  0  0  0
  -23.4690  -28.9290   23.2160 O   0  0  0  0  0  0  0  0  0  0  0  0
  -20.9260  -29.9390   21.6660 H   0  0  0  0  0  0  0  0  0  0  0  0
  -18.0830  -28.1380   22.9220 C   0  0  0  0  0  0  0  0  0  0  0  0
  -20.6480  -28.4230   23.1160 C   0  0  0  0  0  3  0  0  0  0  0  0
  -20.7450  -26.9970   22.5240 C   0  0  0  0  0  2  0  0  0  0  0  0
  -19.6170  -26.6710   21.5400 C   0  0  0  0  0  2  0  0  0  0  0  0
  -18.2530  -26.7980   22.2250 C   0  0  0  0  0  2  0  0  0  0  0  0
  -19.2070  -28.9080   23.3260 C   0  0  0  0  0  0  0  0  0  0  0  0
  -18.9930  -30.1600   23.9430 C   0  0  0  0  0  3  0  0  0  0  0  0
  -17.6880  -30.6440   24.1560 C   0  0  0  0  0  3  0  0  0  0  0  0
  -16.5800  -29.8720   23.7660 C   0  0  0  0  0  3  0  0  0  0  0  0
  -16.7780  -28.6200   23.1550 C   0  0  0  0  0  3  0  0  0  0  0  0
  -25.8850  -32.6560   23.6820 C   0  0  0  0  0  3  0  0  0  0  0  0
  -25.5480  -34.0400   24.0470 N   0  0  0  0  0  0  0  0  0  0  0  0
  -25.8820  -35.1230   23.3330 C   0  0  0  0  0  0  0  0  0  0  0  0
  -26.5760  -35.0620   22.3150 O   0  0  0  0  0  0  0  0  0  0  0  0
  -24.9370  -34.1600   24.8420 H   0  0  0  0  0  0  0  0  0  0  0  0
  -24.1610  -36.9240   22.9790 C   0  0  0  0  0  1  0  0  0  0  0  0
  -25.3680  -36.4900   23.8270 C   0  0  0  0  0  3  0  0  0  0  0  0
  -27.4610  -37.3470   24.7830 C   0  0  0  0  0  1  0  0  0  0  0  0
  -26.3970  -37.5520   23.8030 N   0  0  0  0  0  0  0  0  0  0  0  0
  -25.9810  -38.4620   23.9750 H   0  0  0  0  0  0  0  0  0  0  0  0
  -26.4490  -31.8790   24.9350 C   0  0  1  0  0  0  0  0  0  0  0  0
  -25.3870  -31.6040   26.0260 C   0  0  0  0  0  1  0  0  0  0  0  0
  -27.0550  -30.5200   24.5150 C   0  0  0  0  0  1  0  0  0  0  0  0
  -27.5980  -32.6900   25.5810 C   0  0  0  0  0  1  0  0  0  0  0  0
  2  1  1  0
  2 47  1  0
  2  4  1  0
  4  3  1  0
  4  5  1  1
  6  4  1  0
  6  7  2  0
  8 15  2  0
  9 14  1  0
 10 11  1  0
 10  9  1  0
 12 11  1  0
 12 20  1  0
 12 13  1  0
 14  8  1  0
 14 13  1  0
 16  8  1  0
 16  7  1  0
 17 18  2  0
 18 19  1  0
 18 37  1  0
 19 22  1  0
 20 17  1  0
 20 21  1  0
 21 19  2  0
 22 23  1  0
 23 24  2  0
 25 28  1  0
 25 24  1  0
 26 25  2  0
 27 26  1  0
 27 22  2  0
 28 29  1  0
 29 30  1  0
 30 31  2  0
 32 31  1  0
 32 36  1  0
 33 32  2  0
 34 29  2  0
 34 33  1  0
 35 34  1  0
 37 38  1  0
 38 41  1  0
 38 40  1  0
 39 37  2  0
 42 43  1  0
 42 17  1  0
 44 42  1  0
 45 46  1  0
 46 16  1  0
 48 49  1  0
 48 47  2  0
 50 61  2  0
 51 49  1  0
 51 56  1  0
 52 60  1  0
 52 62  1  0
 53 59  1  0
 53 55  1  0
 54 60  1  0
 55 54  1  0
 56 55  2  0
 57 58  1  0
 57 51  2  0
 58 53  2  0
 59 52  1  0
 60 50  1  0
 62 64  2  0
 63 62  1  0
 65 63  1  0
 66 75  2  0
 66 71  1  0
 67 63  1  0
 67 71  1  0
 68 67  1  0
 69 70  1  0
 69 68  1  0
 70 66  1  0
 71 72  2  0
 72 73  1  0
 74 73  2  0
 75 74  1  0
 76 50  1  0
 76 77  1  0
 76 86  1  0
 77 80  1  0
 78 82  1  0
 78 77  1  0
 79 78  2  0
 82 81  1  0
 84 82  1  0
 84 85  1  0
 84 83  1  0
 86 89  1  1
 86 87  1  0
 88 86  1  0
M  ISO  4   8 100  16 100  48 101  49 101
M  END
>  <TORSDO>  (76) 
F 22

>  <SCORE>  (76) 
-12.540

>  <name>  (76) 
75

>  <ligand_id>  (76) 
75

>  <original_smiles>  (76) 
[H]c1c([H])c([H])c2c(c1[H])C([H])([H])C([H])([H])C([H])([H])C2([H])N([H])C(=O)C1([H])N(C(=O)C([H])(N([H])C(=O)C([H])(N([H])C([H])([H])[H])C([H])([H])[H])C(C([H])([H])[H])(C([H])([H])[H])C([H])([H])[H])C([H])([H])c2c([H])c(OC([H])([H])C([H])([H])C([H])(C([H])([H])[H])[N+]([H])(C([H])([H])[H])C([H])([H])C([H])([H])N(C(=O)N3C([H])([H])C([H])([H])C([H])([H])C([H])(n4nc(-c5c([H])c([H])c(Oc6c([H])c([H])c(F)c([H])c6F)c([H])c5[H])c(C(=O)N([H])[H])c4N([H])[H])C3([H])[H])C([H])([H])C([H])([H])[H])c([H])c([H])c2C1([H])[H]

>  <smiles>  (76) 
[H]c1c([H])c([H])c2c(c1[H])C([H])([H])C([H])([H])C([H])([H])C2([H])N([H])C(=O)C1([H])N(C(=O)C([H])(N([H])C(=O)C([H])(N([H])C([H])([H])[H])C([H])([H])[H])C(C([H])([H])[H])(C([H])([H])[H])C([H])([H])[H])C([H])([H])c2c([H])c(OC([H])([H])C([H])([H])C([H])(C([H])([H])[H])[N+]([H])(C([H])([H])[H])C([H])([H])C([H])([H])N(C(=O)N3C([H])([H])C([H])([H])C([H])([H])C([H])(n4nc(-c5c([H])c([H])c(Oc6c([H])c([H])c(F)c([H])c6F)c([H])c5[H])c(C(=O)N([H])[H])c4N([H])[H])C3([H])[H])C([H])([H])C([H])([H])[H])c([H])c([H])c2C1([H])[H]

$$$$
76:0:0
     RDKit          3D

 90 97  0  0  1  0  0  0  0  0999 V2000
  -31.0930  -20.6220   18.8130 C   0  0  0  0  0  1  0  0  0  0  0  0
  -30.5570  -20.6350   20.1940 N   0  0  1  0  0  4  0  0  0  0  0  0
  -31.3210  -21.0000   20.7420 H   0  0  0  0  0  0  0  0  0  0  0  0
  -29.4330  -21.7650   20.3010 C   0  0  0  0  0  2  0  0  0  0  0  0
  -29.7550  -23.4270   20.3400 C   0  0  0  0  0  3  0  0  0  0  0  0
  -28.6070  -24.6520   20.1720 C   0  0  0  0  0  3  0  0  0  0  0  0
  -28.7940  -26.1950   20.2740 O   0  0  0  0  0  0  0  0  0  0  0  0
  -24.6830  -31.6050   23.1210 C   0  0  0  0  0  0  0  0  0  0  0  0
  -27.6780  -27.1030   20.1670 C   0  0  0  0  0  0  0  0  0  0  0  0
  -23.6400  -30.1470   21.4300 C   0  0  0  0  0  3  0  0  0  0  0  0
  -25.2400  -28.6850   20.0520 C   0  0  0  0  0  0  0  0  0  0  0  0
  -26.1730  -30.5850   21.3610 C   0  0  0  0  0  2  0  0  0  0  0  0
  -26.3640  -29.2060   20.7060 C   0  0  0  0  0  0  0  0  0  0  0  0
  -27.5830  -28.4330   20.7460 C   0  0  0  0  0  3  0  0  0  0  0  0
  -26.5230  -26.6820   19.4740 C   0  0  0  0  0  3  0  0  0  0  0  0
  -25.3320  -27.4360   19.4210 C   0  0  0  0  0  3  0  0  0  0  0  0
  -23.9550  -29.4980   20.0570 C   0  0  0  0  0  2  0  0  0  0  0  0
  -24.8480  -30.8020   22.0270 N   0  0  0  0  0  0  0  0  0  0  0  0
  -23.5610  -31.8110   23.6120 O   0  0  0  0  0  0  0  0  0  0  0  0
  -22.9950  -29.0890   22.3610 C   0  0  0  0  0  0  0  0  0  0  0  0
  -21.6880  -28.8270   22.1800 N   0  0  0  0  0  0  0  0  0  0  0  0
  -23.6750  -28.5060   23.2090 O   0  0  0  0  0  0  0  0  0  0  0  0
  -21.1910  -29.3550   21.4770 H   0  0  0  0  0  0  0  0  0  0  0  0
  -18.3800  -27.3960   22.5420 C   0  0  0  0  0  0  0  0  0  0  0  0
  -20.9030  -27.8320   22.9150 C   0  0  0  0  0  3  0  0  0  0  0  0
  -21.1250  -26.4120   22.3430 C   0  0  0  0  0  2  0  0  0  0  0  0
  -20.0900  -26.0210   21.2830 C   0  0  0  0  0  2  0  0  0  0  0  0
  -18.6760  -26.0660   21.8690 C   0  0  0  0  0  2  0  0  0  0  0  0
  -19.4240  -28.2310   23.0190 C   0  0  0  0  0  0  0  0  0  0  0  0
  -19.0930  -29.4710   23.6070 C   0  0  0  0  0  3  0  0  0  0  0  0
  -17.7510  -29.8780   23.7220 C   0  0  0  0  0  3  0  0  0  0  0  0
  -16.7200  -29.0410   23.2610 C   0  0  0  0  0  3  0  0  0  0  0  0
  -17.0350  -27.8010   22.6770 C   0  0  0  0  0  3  0  0  0  0  0  0
  -25.8920  -32.3180   23.7990 C   0  0  0  0  0  3  0  0  0  0  0  0
  -25.4720  -33.6870   24.1400 N   0  0  0  0  0  0  0  0  0  0  0  0
  -25.7740  -34.7800   23.4260 C   0  0  0  0  0  0  0  0  0  0  0  0
  -26.5020  -34.7450   22.4300 O   0  0  0  0  0  0  0  0  0  0  0  0
  -24.8280  -33.7820   24.9120 H   0  0  0  0  0  0  0  0  0  0  0  0
  -23.9540  -36.4700   23.0230 C   0  0  0  0  0  1  0  0  0  0  0  0
  -25.1760  -36.1240   23.8880 C   0  0  0  0  0  3  0  0  0  0  0  0
  -27.2030  -37.1230   24.8480 C   0  0  0  0  0  1  0  0  0  0  0  0
  -26.1430  -37.2420   23.8510 N   0  0  0  0  0  0  0  0  0  0  0  0
  -25.6700  -38.1310   23.9950 H   0  0  0  0  0  0  0  0  0  0  0  0
  -26.4120  -31.5680   25.0870 C   0  0  1  0  0  0  0  0  0  0  0  0
  -25.3000  -31.2450   26.1130 C   0  0  0  0  0  1  0  0  0  0  0  0
  -27.1000  -30.2370   24.7070 C   0  0  0  0  0  1  0  0  0  0  0  0
  -27.4810  -32.4300   25.7990 C   0  0  0  0  0  1  0  0  0  0  0  0
  -30.3980  -19.1440   20.7650 C   0  0  0  0  0  3  0  0  0  0  0  0
  -30.8720  -20.2850   23.1000 C   0  0  0  0  0  1  0  0  0  0  0  0
  -30.6850  -17.8120   23.0020 C   0  0  0  0  0  1  0  0  0  0  0  0
  -31.0790  -19.0620   22.1840 C   0  0  0  0  0  3  0  0  0  0  0  0
  -30.9250  -17.7980   19.8590 C   0  0  0  0  0  2  0  0  0  0  0  0
  -31.2820  -15.0700   19.9350 C   0  0  0  0  0  0  0  0  0  0  0  0
  -31.0440  -12.7180   19.0340 C   0  0  0  0  0  2  0  0  0  0  0  0
  -30.0720  -12.6990   17.8320 C   0  0  0  0  0  2  0  0  0  0  0  0
  -28.6190  -12.5430   18.3150 C   0  0  0  0  0  2  0  0  0  0  0  0
  -28.2810  -13.4970   19.4910 C   0  0  0  0  0  3  0  0  0  0  0  0
  -29.3710  -13.4860   20.5840 C   0  0  0  0  0  2  0  0  0  0  0  0
  -30.6380  -13.8360   19.9310 N   0  0  0  0  0  0  0  0  0  0  0  0
  -32.4700  -15.0950   19.6020 O   0  0  0  0  0  0  0  0  0  0  0  0
  -30.5520  -16.2770   20.0970 N   0  0  0  0  0  0  0  0  0  0  0  0
  -29.5830  -16.1240   20.3300 H   0  0  0  0  0  0  0  0  0  0  0  0
  -25.9600  -14.1650   20.3390 C   0  0  0  0  0  0  0  0  0  0  0  0
  -24.8770  -13.4280   20.7330 C   0  0  0  0  0  0  0  0  0  0  0  0
  -25.2770  -12.0600   20.6490 C   0  0  0  0  0  0  0  0  0  0  0  0
  -26.9510  -13.2470   20.0350 N   0  0  0  0  0  0  0  0  0  0  0  0
  -26.5520  -11.9730   20.2880 N   0  0  0  0  0  0  0  0  0  0  0  0
  -24.4990  -10.8260   20.8340 C   0  0  0  0  0  0  0  0  0  0  0  0
  -24.8650   -9.8600   21.7970 C   0  0  0  0  0  3  0  0  0  0  0  0
  -24.0900   -8.6930   21.9700 C   0  0  0  0  0  3  0  0  0  0  0  0
  -22.9350   -8.4840   21.1790 C   0  0  0  0  0  0  0  0  0  0  0  0
  -22.5890   -9.4390   20.2060 C   0  0  0  0  0  3  0  0  0  0  0  0
  -23.3640  -10.5960   20.0310 C   0  0  0  0  0  3  0  0  0  0  0  0
  -22.1360   -7.3700   21.2610 O   0  0  0  0  0  0  0  0  0  0  0  0
  -21.9460   -6.7040   22.4450 C   0  0  0  0  0  0  0  0  0  0  0  0
  -21.4130   -7.3470   23.5840 C   0  0  0  0  0  3  0  0  0  0  0  0
  -21.1710   -6.6080   24.7590 C   0  0  0  0  0  3  0  0  0  0  0  0
  -21.4520   -5.2290   24.7960 C   0  0  0  0  0  0  0  0  0  0  0  0
  -21.9770   -4.5870   23.6620 C   0  0  0  0  0  3  0  0  0  0  0  0
  -22.2210   -5.3220   22.4890 C   0  0  0  0  0  0  0  0  0  0  0  0
  -22.7080   -4.6940   21.3920 F   0  0  0  0  0  0  0  0  0  0  0  0
  -21.2110   -4.5180   25.9220 F   0  0  0  0  0  0  0  0  0  0  0  0
  -23.5140  -13.9610   21.0670 C   0  0  0  0  0  0  0  0  0  0  0  0
  -22.7990  -13.2910   21.9650 N   0  0  0  0  0  0  0  0  0  0  0  0
  -23.0960  -15.0050   20.5680 O   0  0  0  0  0  0  0  0  0  0  0  0
  -23.1510  -12.4450   22.3870 H   0  0  0  0  0  0  0  0  0  0  0  0
  -21.8860  -13.6300   22.2340 H   0  0  0  0  0  0  0  0  0  0  0  0
  -26.1780  -15.5300   20.1860 N   0  0  0  0  0  0  0  0  0  0  0  0
  -25.4360  -16.2070   20.3260 H   0  0  0  0  0  0  0  0  0  0  0  0
  -27.0090  -15.9350   19.7770 H   0  0  0  0  0  0  0  0  0  0  0  0
  1  2  1  0
  2  4  1  0
  2  3  1  1
  2 48  1  0
  4  5  1  0
  6  7  1  0
  6  5  2  0
  8 19  2  0
  9  7  1  0
  9 14  1  0
 10 18  1  0
 10 20  1  0
 11 17  1  0
 11 13  1  0
 12 18  1  0
 13 14  2  0
 13 12  1  0
 15  9  2  0
 16 15  1  0
 16 11  2  0
 17 10  1  0
 18  8  1  0
 20 22  2  0
 21 20  1  0
 23 21  1  0
 24 33  2  0
 24 29  1  0
 25 21  1  0
 25 29  1  0
 26 25  1  0
 27 28  1  0
 27 26  1  0
 28 24  1  0
 29 30  2  0
 30 31  1  0
 32 31  2  0
 33 32  1  0
 34  8  1  0
 34 35  1  0
 34 44  1  0
 35 38  1  0
 36 40  1  0
 36 35  1  0
 37 36  2  0
 40 39  1  0
 42 40  1  0
 42 43  1  0
 42 41  1  0
 44 47  1  1
 44 45  1  0
 46 44  1  0
 48 52  1  0
 48 51  1  0
 51 50  1  0
 51 49  1  0
 52 61  1  0
 53 61  1  0
 54 59  1  0
 55 56  1  0
 55 54  1  0
 57 56  1  0
 57 66  1  0
 57 58  1  0
 59 53  1  0
 59 58  1  0
 60 53  2  0
 61 62  1  0
 63 64  2  0
 64 83  1  0
 65 64  1  0
 65 68  1  0
 66 67  1  0
 66 63  1  0
 67 65  2  0
 68 69  1  0
 69 70  2  0
 71 74  1  0
 71 70  1  0
 72 71  2  0
 73 72  1  0
 73 68  2  0
 74 75  1  0
 75 80  2  0
 75 76  1  0
 76 77  2  0
 77 78  1  0
 78 82  1  0
 79 78  2  0
 80 79  1  0
 81 80  1  0
 83 84  1  0
 84 87  1  0
 84 86  1  0
 85 83  2  0
 88 89  1  0
 88 63  1  0
 90 88  1  0
M  ISO  4   6 101   7 101  53 100  61 100
M  END
>  <TORSDO>  (77) 
F 22

>  <SCORE>  (77) 
-12.113

>  <name>  (77) 
76

>  <ligand_id>  (77) 
76

>  <original_smiles>  (77) 
[H]c1c([H])c([H])c2c(c1[H])C([H])([H])C([H])([H])C([H])([H])C2([H])N([H])C(=O)C1([H])N(C(=O)C([H])(N([H])C(=O)C([H])(N([H])C([H])([H])[H])C([H])([H])[H])C(C([H])([H])[H])(C([H])([H])[H])C([H])([H])[H])C([H])([H])c2c([H])c(OC([H])([H])C([H])([H])C([H])([H])[N+]([H])(C([H])([H])[H])C([H])(C([H])([H])N([H])C(=O)N3C([H])([H])C([H])([H])C([H])([H])C([H])(n4nc(-c5c([H])c([H])c(Oc6c([H])c([H])c(F)c([H])c6F)c([H])c5[H])c(C(=O)N([H])[H])c4N([H])[H])C3([H])[H])C([H])(C([H])([H])[H])C([H])([H])[H])c([H])c([H])c2C1([H])[H]

>  <smiles>  (77) 
[H]c1c([H])c([H])c2c(c1[H])C([H])([H])C([H])([H])C([H])([H])C2([H])N([H])C(=O)C1([H])N(C(=O)C([H])(N([H])C(=O)C([H])(N([H])C([H])([H])[H])C([H])([H])[H])C(C([H])([H])[H])(C([H])([H])[H])C([H])([H])[H])C([H])([H])c2c([H])c(OC([H])([H])C([H])([H])C([H])([H])[N+]([H])(C([H])([H])[H])C([H])(C([H])([H])N([H])C(=O)N3C([H])([H])C([H])([H])C([H])([H])C([H])(n4nc(-c5c([H])c([H])c(Oc6c([H])c([H])c(F)c([H])c6F)c([H])c5[H])c(C(=O)N([H])[H])c4N([H])[H])C3([H])[H])C([H])(C([H])([H])[H])C([H])([H])[H])c([H])c([H])c2C1([H])[H]

$$$$
77:0:0
     RDKit          3D

 90 97  0  0  1  0  0  0  0  0999 V2000
  -28.9940  -22.4770   19.9890 C   0  0  0  0  0  2  0  0  0  0  0  0
  -28.5440  -23.9300   22.0760 C   0  0  0  0  0  1  0  0  0  0  0  0
  -29.0500  -23.9460   20.6270 C   0  0  0  0  0  3  0  0  0  0  0  0
  -28.2410  -25.0530   19.8200 C   0  0  0  0  0  2  0  0  0  0  0  0
  -28.3360  -26.4800   20.2150 O   0  0  0  0  0  0  0  0  0  0  0  0
  -24.6140  -31.8680   23.2450 C   0  0  0  0  0  0  0  0  0  0  0  0
  -27.2060  -27.3140   20.1520 C   0  0  0  0  0  0  0  0  0  0  0  0
  -23.4010  -30.4750   21.6080 C   0  0  0  0  0  3  0  0  0  0  0  0
  -24.8400  -28.9310   20.1690 C   0  0  0  0  0  0  0  0  0  0  0  0
  -25.9420  -30.7890   21.4120 C   0  0  0  0  0  2  0  0  0  0  0  0
  -26.0130  -29.4120   20.7620 C   0  0  0  0  0  0  0  0  0  0  0  0
  -27.1960  -28.6130   20.7480 C   0  0  0  0  0  3  0  0  0  0  0  0
  -26.0090  -26.8980   19.5190 C   0  0  0  0  0  3  0  0  0  0  0  0
  -24.8390  -27.6780   19.5400 C   0  0  0  0  0  3  0  0  0  0  0  0
  -23.6060  -29.8060   20.2250 C   0  0  0  0  0  2  0  0  0  0  0  0
  -24.6710  -31.0610   22.1450 N   0  0  0  0  0  0  0  0  0  0  0  0
  -23.5330  -32.1470   23.7830 O   0  0  0  0  0  0  0  0  0  0  0  0
  -22.7420  -29.4560   22.5670 C   0  0  0  0  0  0  0  0  0  0  0  0
  -21.4150  -29.2790   22.4440 N   0  0  0  0  0  0  0  0  0  0  0  0
  -23.4230  -28.8260   23.3830 O   0  0  0  0  0  0  0  0  0  0  0  0
  -20.9260  -29.8380   21.7600 H   0  0  0  0  0  0  0  0  0  0  0  0
  -18.0380  -28.0780   22.9440 C   0  0  0  0  0  0  0  0  0  0  0  0
  -20.5950  -28.3420   23.2170 C   0  0  0  0  0  3  0  0  0  0  0  0
  -20.7010  -26.9080   22.6450 C   0  0  0  0  0  2  0  0  0  0  0  0
  -19.6010  -26.5800   21.6320 C   0  0  0  0  0  2  0  0  0  0  0  0
  -18.2170  -26.7270   22.2730 C   0  0  0  0  0  2  0  0  0  0  0  0
  -19.1560  -28.8430   23.3730 C   0  0  0  0  0  0  0  0  0  0  0  0
  -18.9340  -30.1080   23.9600 C   0  0  0  0  0  3  0  0  0  0  0  0
  -17.6300  -30.6090   24.1220 C   0  0  0  0  0  3  0  0  0  0  0  0
  -16.5270  -29.8410   23.7100 C   0  0  0  0  0  3  0  0  0  0  0  0
  -16.7310  -28.5770   23.1280 C   0  0  0  0  0  3  0  0  0  0  0  0
  -25.9010  -32.4980   23.8620 C   0  0  0  0  0  3  0  0  0  0  0  0
  -25.5930  -33.8960   24.1990 N   0  0  0  0  0  0  0  0  0  0  0  0
  -25.9150  -34.9510   23.4400 C   0  0  0  0  0  0  0  0  0  0  0  0
  -26.5710  -34.8510   22.4000 O   0  0  0  0  0  0  0  0  0  0  0  0
  -25.0090  -34.0450   25.0080 H   0  0  0  0  0  0  0  0  0  0  0  0
  -24.1760  -36.7380   23.1180 C   0  0  0  0  0  1  0  0  0  0  0  0
  -25.4320  -36.3370   23.9090 C   0  0  0  0  0  3  0  0  0  0  0  0
  -27.5790  -37.2230   24.7030 C   0  0  0  0  0  1  0  0  0  0  0  0
  -26.4600  -37.3930   23.7800 N   0  0  0  0  0  0  0  0  0  0  0  0
  -26.0560  -38.3120   23.9380 H   0  0  0  0  0  0  0  0  0  0  0  0
  -26.4230  -31.7220   25.1320 C   0  0  1  0  0  0  0  0  0  0  0  0
  -25.3360  -31.4800   26.2050 C   0  0  0  0  0  1  0  0  0  0  0  0
  -27.0010  -30.3470   24.7300 C   0  0  0  0  0  1  0  0  0  0  0  0
  -27.5790  -32.5110   25.7870 C   0  0  0  0  0  1  0  0  0  0  0  0
  -30.9780  -21.3610   21.1990 C   0  0  0  0  0  1  0  0  0  0  0  0
  -29.5140  -21.1620   20.7620 C   0  0  0  0  0  3  0  0  0  0  0  0
  -29.9670  -19.8030   18.6280 C   0  0  0  0  0  1  0  0  0  0  0  0
  -27.7960  -19.4980   19.8320 C   0  0  0  0  0  1  0  0  0  0  0  0
  -29.3110  -19.7280   20.0270 C   0  0  2  0  0  0  0  0  0  0  0  0
  -29.8460  -18.4100   20.7930 C   0  0  0  0  0  2  0  0  0  0  0  0
  -29.9830  -17.0550   19.9590 C   0  0  0  0  0  2  0  0  0  0  0  0
  -30.6590  -14.6130   20.3390 C   0  0  0  0  0  0  0  0  0  0  0  0
  -30.3910  -12.3860   19.2830 C   0  0  0  0  0  2  0  0  0  0  0  0
  -29.4600  -12.5590   18.0640 C   0  0  0  0  0  2  0  0  0  0  0  0
  -27.9820  -12.4240   18.4890 C   0  0  0  0  0  2  0  0  0  0  0  0
  -27.6390  -13.2770   19.7410 C   0  0  0  0  0  3  0  0  0  0  0  0
  -28.6940  -13.0990   20.8550 C   0  0  0  0  0  2  0  0  0  0  0  0
  -30.0110  -13.4070   20.2830 N   0  0  0  0  0  0  0  0  0  0  0  0
  -31.8080  -14.7440   19.9140 O   0  0  0  0  0  0  0  0  0  0  0  0
  -29.8930  -15.7120   20.6340 N   0  0  0  0  0  0  0  0  0  0  0  0
  -28.9890  -15.4880   21.0190 H   0  0  0  0  0  0  0  0  0  0  0  0
  -25.2530  -13.9080   20.4610 C   0  0  0  0  0  0  0  0  0  0  0  0
  -24.1780  -13.1500   20.8410 C   0  0  0  0  0  0  0  0  0  0  0  0
  -24.6260  -11.7920   20.8180 C   0  0  0  0  0  0  0  0  0  0  0  0
  -26.2860  -13.0130   20.2290 N   0  0  0  0  0  0  0  0  0  0  0  0
  -25.9150  -11.7370   20.5030 N   0  0  0  0  0  0  0  0  0  0  0  0
  -23.8850  -10.5410   21.0220 C   0  0  0  0  0  0  0  0  0  0  0  0
  -24.3230   -9.5670   21.9480 C   0  0  0  0  0  3  0  0  0  0  0  0
  -23.5880   -8.3760   22.1370 C   0  0  0  0  0  3  0  0  0  0  0  0
  -22.3990   -8.1530   21.4010 C   0  0  0  0  0  0  0  0  0  0  0  0
  -21.9780   -9.1170   20.4660 C   0  0  0  0  0  3  0  0  0  0  0  0
  -22.7140  -10.2980   20.2770 C   0  0  0  0  0  3  0  0  0  0  0  0
  -21.6310   -7.0180   21.5030 O   0  0  0  0  0  0  0  0  0  0  0  0
  -21.6070   -6.2650   22.6490 C   0  0  0  0  0  0  0  0  0  0  0  0
  -21.2350   -6.8150   23.8950 C   0  0  0  0  0  3  0  0  0  0  0  0
  -21.1570   -5.9880   25.0330 C   0  0  0  0  0  3  0  0  0  0  0  0
  -21.4390   -4.6130   24.9260 C   0  0  0  0  0  0  0  0  0  0  0  0
  -21.8000   -4.0620   23.6850 C   0  0  0  0  0  3  0  0  0  0  0  0
  -21.8800   -4.8860   22.5480 C   0  0  0  0  0  0  0  0  0  0  0  0
  -22.2090   -4.3460   21.3500 F   0  0  0  0  0  0  0  0  0  0  0  0
  -21.3550   -3.8160   26.0180 F   0  0  0  0  0  0  0  0  0  0  0  0
  -22.7860  -13.6430   21.1130 C   0  0  0  0  0  0  0  0  0  0  0  0
  -22.0520  -12.9650   21.9900 N   0  0  0  0  0  0  0  0  0  0  0  0
  -22.3570  -14.6670   20.5820 O   0  0  0  0  0  0  0  0  0  0  0  0
  -22.4080  -12.1390   22.4460 H   0  0  0  0  0  0  0  0  0  0  0  0
  -21.1180  -13.2800   22.2060 H   0  0  0  0  0  0  0  0  0  0  0  0
  -25.4350  -15.2760   20.2730 N   0  0  0  0  0  0  0  0  0  0  0  0
  -24.6800  -15.9460   20.3810 H   0  0  0  0  0  0  0  0  0  0  0  0
  -26.2910  -15.6970   19.9380 H   0  0  0  0  0  0  0  0  0  0  0  0
  1  3  1  0
  1 47  1  0
  3  2  1  0
  4  5  1  0
  4  3  1  0
  6 17  2  0
  7  5  1  0
  7 12  1  0
  8 16  1  0
  8 18  1  0
  9 15  1  0
  9 11  1  0
 10 16  1  0
 11 10  1  0
 12 11  2  0
 13 14  1  0
 13  7  2  0
 14  9  2  0
 15  8  1  0
 16  6  1  0
 18 20  2  0
 19 18  1  0
 21 19  1  0
 22 31  2  0
 22 27  1  0
 23 19  1  0
 23 27  1  0
 24 23  1  0
 25 26  1  0
 25 24  1  0
 26 22  1  0
 27 28  2  0
 28 29  1  0
 30 29  2  0
 31 30  1  0
 32  6  1  0
 32 33  1  0
 32 42  1  0
 33 36  1  0
 34 38  1  0
 34 33  1  0
 35 34  2  0
 38 37  1  0
 40 38  1  0
 40 41  1  0
 40 39  1  0
 42 45  1  1
 42 43  1  0
 44 42  1  0
 47 46  1  0
 50 48  1  6
 49 50  1  0
 50 47  1  0
 50 51  1  0
 52 61  1  0
 52 51  1  0
 53 61  1  0
 54 59  1  0
 55 56  1  0
 55 54  1  0
 57 56  1  0
 57 66  1  0
 57 58  1  0
 59 53  1  0
 59 58  1  0
 60 53  2  0
 61 62  1  0
 63 64  2  0
 64 83  1  0
 65 64  1  0
 65 68  1  0
 66 63  1  0
 66 67  1  0
 67 65  2  0
 68 69  1  0
 69 70  2  0
 71 74  1  0
 71 70  1  0
 72 71  2  0
 73 72  1  0
 73 68  2  0
 74 75  1  0
 75 76  1  0
 76 77  2  0
 78 77  1  0
 78 82  1  0
 79 78  2  0
 80 75  2  0
 80 79  1  0
 81 80  1  0
 83 84  1  0
 84 87  1  0
 84 86  1  0
 85 83  2  0
 88 89  1  0
 88 63  1  0
 90 88  1  0
M  ISO  4   4 101   5 101  53 100  61 100
M  END
>  <TORSDO>  (78) 
F 22

>  <SCORE>  (78) 
-13.093

>  <name>  (78) 
77

>  <ligand_id>  (78) 
77

>  <original_smiles>  (78) 
[H]c1c([H])c([H])c2c(c1[H])C([H])([H])C([H])([H])C([H])([H])C2([H])N([H])C(=O)C1([H])N(C(=O)C([H])(N([H])C(=O)C([H])(N([H])C([H])([H])[H])C([H])([H])[H])C(C([H])([H])[H])(C([H])([H])[H])C([H])([H])[H])C([H])([H])c2c([H])c(OC([H])([H])C([H])(C([H])([H])[H])C([H])([H])C([H])(C([H])([H])[H])C(C([H])([H])[H])(C([H])([H])[H])C([H])([H])C([H])([H])N([H])C(=O)N3C([H])([H])C([H])([H])C([H])([H])C([H])(n4nc(-c5c([H])c([H])c(Oc6c([H])c([H])c(F)c([H])c6F)c([H])c5[H])c(C(=O)N([H])[H])c4N([H])[H])C3([H])[H])c([H])c([H])c2C1([H])[H]

>  <smiles>  (78) 
[H]c1c([H])c([H])c2c(c1[H])C([H])([H])C([H])([H])C([H])([H])C2([H])N([H])C(=O)C1([H])N(C(=O)C([H])(N([H])C(=O)C([H])(N([H])C([H])([H])[H])C([H])([H])[H])C(C([H])([H])[H])(C([H])([H])[H])C([H])([H])[H])C([H])([H])c2c([H])c(OC([H])([H])C([H])(C([H])([H])[H])C([H])([H])C([H])(C([H])([H])[H])C(C([H])([H])[H])(C([H])([H])[H])C([H])([H])C([H])([H])N([H])C(=O)N3C([H])([H])C([H])([H])C([H])([H])C([H])(n4nc(-c5c([H])c([H])c(Oc6c([H])c([H])c(F)c([H])c6F)c([H])c5[H])c(C(=O)N([H])[H])c4N([H])[H])C3([H])[H])c([H])c([H])c2C1([H])[H]

$$$$
78:0:0
     RDKit          3D

 91 99  0  0  1  0  0  0  0  0999 V2000
  -29.3520  -20.5700   20.0950 C   0  0  0  0  0  3  0  0  0  0  0  0
  -30.0670  -22.2110   21.7100 C   0  0  0  0  0  3  0  0  0  0  0  0
  -29.4160  -21.9310   20.4980 C   0  0  0  0  0  0  0  0  0  0  0  0
  -29.9120  -19.5470   20.9130 C   0  0  0  0  0  0  0  0  0  0  0  0
  -30.5110  -19.9640   22.1320 C   0  0  0  0  0  0  0  0  0  0  0  0
  -31.0340  -18.9940   23.1800 C   0  0  0  0  0  1  0  0  0  0  0  0
  -30.5990  -21.2590   22.5010 N   0  0  0  0  0  0  0  0  0  0  0  0
  -28.7760  -23.0620   19.6690 C   0  0  0  0  0  2  0  0  0  0  0  0
  -29.3810  -24.4930   19.8470 C   0  0  0  0  0  2  0  0  0  0  0  0
  -28.4540  -25.5730   20.4630 C   0  0  0  0  0  2  0  0  0  0  0  0
  -28.4640  -26.8040   19.7120 O   0  0  0  0  0  0  0  0  0  0  0  0
  -24.6690  -31.7880   23.1130 C   0  0  0  0  0  0  0  0  0  0  0  0
  -27.2920  -27.5250   19.7790 C   0  0  0  0  0  0  0  0  0  0  0  0
  -23.4300  -30.4140   21.4670 C   0  0  0  0  0  3  0  0  0  0  0  0
  -24.8630  -28.9670   19.9290 C   0  0  0  0  0  0  0  0  0  0  0  0
  -25.9310  -30.8540   21.1730 C   0  0  0  0  0  2  0  0  0  0  0  0
  -26.0300  -29.5040   20.4890 C   0  0  0  0  0  0  0  0  0  0  0  0
  -27.2500  -28.7900   20.4090 C   0  0  0  0  0  3  0  0  0  0  0  0
  -26.1110  -27.0050   19.2090 C   0  0  0  0  0  3  0  0  0  0  0  0
  -24.8980  -27.7170   19.2850 C   0  0  0  0  0  3  0  0  0  0  0  0
  -23.5990  -29.7890   20.0550 C   0  0  0  0  0  2  0  0  0  0  0  0
  -24.6980  -31.0280   21.9790 N   0  0  0  0  0  0  0  0  0  0  0  0
  -23.6050  -32.0150   23.7050 O   0  0  0  0  0  0  0  0  0  0  0  0
  -22.8460  -29.3420   22.4140 C   0  0  0  0  0  0  0  0  0  0  0  0
  -21.5360  -29.0860   22.2880 N   0  0  0  0  0  0  0  0  0  0  0  0
  -23.5710  -28.7440   23.2140 O   0  0  0  0  0  0  0  0  0  0  0  0
  -21.0160  -29.6250   21.6100 H   0  0  0  0  0  0  0  0  0  0  0  0
  -18.2550  -27.6420   22.7210 C   0  0  0  0  0  0  0  0  0  0  0  0
  -20.7800  -28.0910   23.0430 C   0  0  0  0  0  3  0  0  0  0  0  0
  -21.0010  -26.6720   22.4710 C   0  0  0  0  0  2  0  0  0  0  0  0
  -19.9460  -26.2670   21.4360 C   0  0  0  0  0  2  0  0  0  0  0  0
  -18.5440  -26.3080   22.0530 C   0  0  0  0  0  2  0  0  0  0  0  0
  -19.3050  -28.4840   23.1730 C   0  0  0  0  0  0  0  0  0  0  0  0
  -18.9840  -29.7280   23.7570 C   0  0  0  0  0  3  0  0  0  0  0  0
  -17.6440  -30.1340   23.8940 C   0  0  0  0  0  3  0  0  0  0  0  0
  -16.6060  -29.2900   23.4610 C   0  0  0  0  0  3  0  0  0  0  0  0
  -16.9140  -28.0470   22.8790 C   0  0  0  0  0  3  0  0  0  0  0  0
  -25.9650  -32.4250   23.7040 C   0  0  0  0  0  3  0  0  0  0  0  0
  -25.6380  -33.8040   24.0940 N   0  0  0  0  0  0  0  0  0  0  0  0
  -25.9240  -34.8900   23.3640 C   0  0  0  0  0  0  0  0  0  0  0  0
  -26.5700  -34.8400   22.3130 O   0  0  0  0  0  0  0  0  0  0  0  0
  -25.0550  -33.9150   24.9100 H   0  0  0  0  0  0  0  0  0  0  0  0
  -24.1460  -36.6520   23.1190 C   0  0  0  0  0  1  0  0  0  0  0  0
  -25.4170  -36.2480   23.8820 C   0  0  0  0  0  3  0  0  0  0  0  0
  -27.5530  -37.1540   24.6840 C   0  0  0  0  0  1  0  0  0  0  0  0
  -26.4220  -37.3290   23.7790 N   0  0  0  0  0  0  0  0  0  0  0  0
  -25.9980  -38.2310   23.9710 H   0  0  0  0  0  0  0  0  0  0  0  0
  -26.5470  -31.6230   24.9300 C   0  0  1  0  0  0  0  0  0  0  0  0
  -25.5060  -31.3270   26.0320 C   0  0  0  0  0  1  0  0  0  0  0  0
  -27.1390  -30.2720   24.4600 C   0  0  0  0  0  1  0  0  0  0  0  0
  -27.7040  -32.4190   25.5790 C   0  0  0  0  0  1  0  0  0  0  0  0
  -29.7280  -18.0510   20.5450 C   0  0  0  0  0  2  0  0  0  0  0  0
  -30.9590  -17.0920   20.6920 C   0  0  0  0  0  2  0  0  0  0  0  0
  -31.2650  -14.6140   20.0630 C   0  0  0  0  0  0  0  0  0  0  0  0
  -30.8960  -12.4100   18.9870 C   0  0  0  0  0  2  0  0  0  0  0  0
  -29.9420  -12.5800   17.7850 C   0  0  0  0  0  2  0  0  0  0  0  0
  -28.4700  -12.4820   18.2430 C   0  0  0  0  0  2  0  0  0  0  0  0
  -28.1720  -13.3900   19.4650 C   0  0  0  0  0  3  0  0  0  0  0  0
  -29.2370  -13.2100   20.5700 C   0  0  0  0  0  2  0  0  0  0  0  0
  -30.5620  -13.4500   19.9750 N   0  0  0  0  0  0  0  0  0  0  0  0
  -32.4000  -14.7410   19.5920 O   0  0  0  0  0  0  0  0  0  0  0  0
  -30.5760  -15.6640   20.5700 N   0  0  0  0  0  0  0  0  0  0  0  0
  -29.6610  -15.4330   20.9270 H   0  0  0  0  0  0  0  0  0  0  0  0
  -25.8480  -14.1280   20.2790 C   0  0  0  0  0  0  0  0  0  0  0  0
  -24.7470  -13.4140   20.6740 C   0  0  0  0  0  0  0  0  0  0  0  0
  -25.1250  -12.0370   20.6080 C   0  0  0  0  0  0  0  0  0  0  0  0
  -26.8240  -13.1860   19.9880 N   0  0  0  0  0  0  0  0  0  0  0  0
  -26.3970  -11.9240   20.2490 N   0  0  0  0  0  0  0  0  0  0  0  0
  -24.3370  -10.8160   20.8080 C   0  0  0  0  0  0  0  0  0  0  0  0
  -24.7290   -9.8250   21.7370 C   0  0  0  0  0  3  0  0  0  0  0  0
  -23.9440   -8.6690   21.9270 C   0  0  0  0  0  3  0  0  0  0  0  0
  -22.7510   -8.4930   21.1860 C   0  0  0  0  0  0  0  0  0  0  0  0
  -22.3770   -9.4690   20.2420 C   0  0  0  0  0  3  0  0  0  0  0  0
  -23.1650  -10.6160   20.0520 C   0  0  0  0  0  3  0  0  0  0  0  0
  -21.9390   -7.3880   21.2860 O   0  0  0  0  0  0  0  0  0  0  0  0
  -21.8320   -6.6760   22.4540 C   0  0  0  0  0  0  0  0  0  0  0  0
  -21.4200   -7.2790   23.6630 C   0  0  0  0  0  3  0  0  0  0  0  0
  -21.2590   -6.4950   24.8240 C   0  0  0  0  0  3  0  0  0  0  0  0
  -21.4920   -5.1080   24.7730 C   0  0  0  0  0  0  0  0  0  0  0  0
  -21.8940   -4.5040   23.5700 C   0  0  0  0  0  3  0  0  0  0  0  0
  -22.0600   -5.2860   22.4130 C   0  0  0  0  0  0  0  0  0  0  0  0
  -22.4300   -4.6970   21.2520 F   0  0  0  0  0  0  0  0  0  0  0  0
  -21.3270   -4.3520   25.8840 F   0  0  0  0  0  0  0  0  0  0  0  0
  -23.3870  -13.9650   20.9890 C   0  0  0  0  0  0  0  0  0  0  0  0
  -22.6470  -13.3030   21.8710 N   0  0  0  0  0  0  0  0  0  0  0  0
  -22.9940  -15.0190   20.4860 O   0  0  0  0  0  0  0  0  0  0  0  0
  -22.9830  -12.4500   22.2920 H   0  0  0  0  0  0  0  0  0  0  0  0
  -21.7270  -13.6450   22.1160 H   0  0  0  0  0  0  0  0  0  0  0  0
  -26.0970  -15.4870   20.1230 N   0  0  0  0  0  0  0  0  0  0  0  0
  -25.3810  -16.1940   20.2680 H   0  0  0  0  0  0  0  0  0  0  0  0
  -26.9640  -15.8670   19.7620 H   0  0  0  0  0  0  0  0  0  0  0  0
  1  3  2  0
  1  4  1  0
  2  7  2  0
  3  2  1  0
  4  5  2  0
  5  7  1  0
  5  6  1  0
  8  9  1  0
  8  3  1  0
  9 10  1  0
 11 13  1  0
 11 10  1  0
 12 23  2  0
 13 18  1  0
 14 22  1  0
 14 24  1  0
 15 21  1  0
 15 17  1  0
 16 22  1  0
 17 16  1  0
 18 17  2  0
 19 20  1  0
 19 13  2  0
 20 15  2  0
 21 14  1  0
 22 12  1  0
 24 26  2  0
 25 24  1  0
 27 25  1  0
 28 37  2  0
 28 33  1  0
 29 25  1  0
 29 33  1  0
 30 29  1  0
 31 32  1  0
 31 30  1  0
 32 28  1  0
 33 34  2  0
 34 35  1  0
 36 35  2  0
 37 36  1  0
 38 12  1  0
 38 39  1  0
 38 48  1  0
 39 42  1  0
 40 44  1  0
 40 39  1  0
 41 40  2  0
 44 43  1  0
 46 44  1  0
 46 47  1  0
 46 45  1  0
 48 51  1  1
 48 49  1  0
 50 48  1  0
 52 53  1  0
 52  4  1  0
 54 62  1  0
 55 60  1  0
 56 57  1  0
 56 55  1  0
 58 57  1  0
 58 67  1  0
 58 59  1  0
 60 54  1  0
 60 59  1  0
 61 54  2  0
 62 53  1  0
 62 63  1  0
 64 65  2  0
 65 84  1  0
 66 65  1  0
 66 69  1  0
 67 68  1  0
 67 64  1  0
 68 66  2  0
 69 70  1  0
 70 71  2  0
 72 75  1  0
 72 71  1  0
 73 72  2  0
 74 73  1  0
 74 69  2  0
 75 76  1  0
 76 77  1  0
 77 78  2  0
 79 78  1  0
 79 83  1  0
 80 79  2  0
 81 76  2  0
 81 80  1  0
 82 81  1  0
 84 85  1  0
 85 88  1  0
 85 87  1  0
 86 84  2  0
 89 90  1  0
 89 64  1  0
 91 89  1  0
M  ISO  4  10 101  11 101  54 100  62 100
M  END
>  <TORSDO>  (79) 
F 21

>  <SCORE>  (79) 
-12.521

>  <name>  (79) 
78

>  <ligand_id>  (79) 
78

>  <original_smiles>  (79) 
[H]c1nc(C([H])([H])[H])c(C([H])([H])C([H])([H])N([H])C(=O)N2C([H])([H])C([H])([H])C([H])([H])C([H])(n3nc(-c4c([H])c([H])c(Oc5c([H])c([H])c(F)c([H])c5F)c([H])c4[H])c(C(=O)N([H])[H])c3N([H])[H])C2([H])[H])c([H])c1C([H])([H])C([H])([H])C([H])([H])Oc1c([H])c([H])c2c(c1[H])C([H])([H])N(C(=O)C([H])(N([H])C(=O)C([H])(N([H])C([H])([H])[H])C([H])([H])[H])C(C([H])([H])[H])(C([H])([H])[H])C([H])([H])[H])C([H])(C(=O)N([H])C1([H])c3c([H])c([H])c([H])c([H])c3C([H])([H])C([H])([H])C1([H])[H])C2([H])[H]

>  <smiles>  (79) 
[H]c1nc(C([H])([H])[H])c(C([H])([H])C([H])([H])N([H])C(=O)N2C([H])([H])C([H])([H])C([H])([H])C([H])(n3nc(-c4c([H])c([H])c(Oc5c([H])c([H])c(F)c([H])c5F)c([H])c4[H])c(C(=O)N([H])[H])c3N([H])[H])C2([H])[H])c([H])c1C([H])([H])C([H])([H])C([H])([H])Oc1c([H])c([H])c2c(c1[H])C([H])([H])N(C(=O)C([H])(N([H])C(=O)C([H])(N([H])C([H])([H])[H])C([H])([H])[H])C(C([H])([H])[H])(C([H])([H])[H])C([H])([H])[H])C([H])(C(=O)N([H])C1([H])c3c([H])c([H])c([H])c([H])c3C([H])([H])C([H])([H])C1([H])[H])C2([H])[H]

$$$$
79:0:0
     RDKit          3D

 95103  0  0  1  0  0  0  0  0999 V2000
  -32.3460  -21.1670   18.3260 C   0  0  0  0  0  0  0  0  0  0  0  0
  -31.4920  -22.2860   18.5000 C   0  0  0  0  0  0  0  0  0  0  0  0
  -31.9780  -20.2340   19.2430 C   0  0  0  0  0  0  0  0  0  0  0  0
  -30.5930  -22.0210   19.5100 C   0  0  0  0  0  0  0  0  0  0  0  0
  -33.5120  -21.0650   17.3680 C   0  0  0  0  0  1  0  0  0  0  0  0
  -31.6650  -23.5690   17.7440 C   0  0  0  0  0  1  0  0  0  0  0  0
  -32.7160  -18.9780   19.5940 C   0  0  0  0  0  1  0  0  0  0  0  0
  -30.8030  -20.6450   19.8740 N   0  0  0  0  0  0  0  0  0  0  0  0
  -29.6750  -23.0780   20.2000 C   0  0  0  0  0  2  0  0  0  0  0  0
  -28.7040  -24.0110   19.3380 C   0  0  0  0  0  2  0  0  0  0  0  0
  -30.1190  -26.2280   18.8540 C   0  0  0  0  0  1  0  0  0  0  0  0
  -28.7630  -25.6170   19.2260 C   0  0  0  0  0  3  0  0  0  0  0  0
  -28.3290  -26.4890   20.3090 O   0  0  0  0  0  0  0  0  0  0  0  0
  -24.5630  -31.8470   23.2170 C   0  0  0  0  0  0  0  0  0  0  0  0
  -27.2010  -27.3050   20.1900 C   0  0  0  0  0  0  0  0  0  0  0  0
  -23.3670  -30.4460   21.5690 C   0  0  0  0  0  3  0  0  0  0  0  0
  -24.8250  -28.8850   20.1590 C   0  0  0  0  0  0  0  0  0  0  0  0
  -25.9030  -30.7630   21.4050 C   0  0  0  0  0  2  0  0  0  0  0  0
  -25.9840  -29.3840   20.7680 C   0  0  0  0  0  0  0  0  0  0  0  0
  -27.1690  -28.5980   20.7870 C   0  0  0  0  0  3  0  0  0  0  0  0
  -26.0200  -26.8380   19.5710 C   0  0  0  0  0  3  0  0  0  0  0  0
  -24.8430  -27.6140   19.5590 C   0  0  0  0  0  3  0  0  0  0  0  0
  -23.5890  -29.7610   20.1930 C   0  0  0  0  0  2  0  0  0  0  0  0
  -24.6290  -31.0360   22.1210 N   0  0  0  0  0  0  0  0  0  0  0  0
  -23.4760  -32.1320   23.7420 O   0  0  0  0  0  0  0  0  0  0  0  0
  -22.6930  -29.4370   22.5270 C   0  0  0  0  0  0  0  0  0  0  0  0
  -21.3650  -29.2760   22.3980 N   0  0  0  0  0  0  0  0  0  0  0  0
  -23.3620  -28.8010   23.3470 O   0  0  0  0  0  0  0  0  0  0  0  0
  -20.8860  -29.8410   21.7110 H   0  0  0  0  0  0  0  0  0  0  0  0
  -17.9680  -28.1440   22.8980 C   0  0  0  0  0  0  0  0  0  0  0  0
  -20.5310  -28.3510   23.1650 C   0  0  0  0  0  3  0  0  0  0  0  0
  -20.6040  -26.9210   22.5810 C   0  0  0  0  0  2  0  0  0  0  0  0
  -19.4940  -26.6250   21.5680 C   0  0  0  0  0  2  0  0  0  0  0  0
  -18.1170  -26.7940   22.2160 C   0  0  0  0  0  2  0  0  0  0  0  0
  -19.1030  -28.8810   23.3300 C   0  0  0  0  0  0  0  0  0  0  0  0
  -18.9090  -30.1460   23.9280 C   0  0  0  0  0  3  0  0  0  0  0  0
  -17.6150  -30.6710   24.1000 C   0  0  0  0  0  3  0  0  0  0  0  0
  -16.4950  -29.9290   23.6850 C   0  0  0  0  0  3  0  0  0  0  0  0
  -16.6720  -28.6680   23.0900 C   0  0  0  0  0  3  0  0  0  0  0  0
  -25.8450  -32.4740   23.8490 C   0  0  0  0  0  3  0  0  0  0  0  0
  -25.5420  -33.8770   24.1680 N   0  0  0  0  0  0  0  0  0  0  0  0
  -25.8910  -34.9230   23.4060 C   0  0  0  0  0  0  0  0  0  0  0  0
  -26.5710  -34.8080   22.3830 O   0  0  0  0  0  0  0  0  0  0  0  0
  -24.9390  -34.0400   24.9600 H   0  0  0  0  0  0  0  0  0  0  0  0
  -24.1820  -36.7280   23.0210 C   0  0  0  0  0  1  0  0  0  0  0  0
  -25.4100  -36.3180   23.8510 C   0  0  0  0  0  3  0  0  0  0  0  0
  -27.5400  -37.1890   24.7060 C   0  0  0  0  0  1  0  0  0  0  0  0
  -26.4530  -37.3620   23.7470 N   0  0  0  0  0  0  0  0  0  0  0  0
  -26.0520  -38.2850   23.8850 H   0  0  0  0  0  0  0  0  0  0  0  0
  -26.3440  -31.7070   25.1350 C   0  0  1  0  0  0  0  0  0  0  0  0
  -25.2390  -31.4820   26.1940 C   0  0  0  0  0  1  0  0  0  0  0  0
  -26.9190  -30.3240   24.7540 C   0  0  0  0  0  1  0  0  0  0  0  0
  -27.4920  -32.4980   25.8040 C   0  0  0  0  0  1  0  0  0  0  0  0
  -30.0780  -19.7650   20.8450 C   0  0  0  0  0  2  0  0  0  0  0  0
  -29.7750  -18.2400   20.4230 C   0  0  0  0  0  2  0  0  0  0  0  0
  -30.5640  -17.1470   22.6420 C   0  0  0  0  0  1  0  0  0  0  0  0
  -30.5380  -17.0130   21.1110 C   0  0  0  0  0  3  0  0  0  0  0  0
  -30.7280  -14.5630   20.2860 C   0  0  0  0  0  0  0  0  0  0  0  0
  -30.4070  -12.3770   19.1490 C   0  0  0  0  0  2  0  0  0  0  0  0
  -29.4320  -12.5570   17.9680 C   0  0  0  0  0  2  0  0  0  0  0  0
  -27.9690  -12.4090   18.4400 C   0  0  0  0  0  2  0  0  0  0  0  0
  -27.6650  -13.2470   19.7100 C   0  0  0  0  0  3  0  0  0  0  0  0
  -28.7570  -13.0510   20.7860 C   0  0  0  0  0  2  0  0  0  0  0  0
  -30.0500  -13.3790   20.1700 N   0  0  0  0  0  0  0  0  0  0  0  0
  -31.8720  -14.6930   19.8470 O   0  0  0  0  0  0  0  0  0  0  0  0
  -30.0340  -15.6340   20.7750 N   0  0  0  0  0  0  0  0  0  0  0  0
  -29.0830  -15.4340   21.0450 H   0  0  0  0  0  0  0  0  0  0  0  0
  -25.2970  -13.8560   20.4940 C   0  0  0  0  0  0  0  0  0  0  0  0
  -24.2350  -13.0880   20.8890 C   0  0  0  0  0  0  0  0  0  0  0  0
  -24.6850  -11.7340   20.8370 C   0  0  0  0  0  0  0  0  0  0  0  0
  -26.3290  -12.9700   20.2290 N   0  0  0  0  0  0  0  0  0  0  0  0
  -25.9660  -11.6880   20.4950 N   0  0  0  0  0  0  0  0  0  0  0  0
  -23.9540  -10.4760   21.0400 C   0  0  0  0  0  0  0  0  0  0  0  0
  -24.3910   -9.5100   21.9720 C   0  0  0  0  0  3  0  0  0  0  0  0
  -23.6630   -8.3150   22.1630 C   0  0  0  0  0  3  0  0  0  0  0  0
  -22.4820   -8.0800   21.4210 C   0  0  0  0  0  0  0  0  0  0  0  0
  -22.0630   -9.0340   20.4750 C   0  0  0  0  0  3  0  0  0  0  0  0
  -22.7930  -10.2190   20.2840 C   0  0  0  0  0  3  0  0  0  0  0  0
  -21.7200   -6.9410   21.5220 O   0  0  0  0  0  0  0  0  0  0  0  0
  -21.6680   -6.2110   22.6810 C   0  0  0  0  0  0  0  0  0  0  0  0
  -21.2360   -6.7770   23.9010 C   0  0  0  0  0  3  0  0  0  0  0  0
  -21.1350   -5.9730   25.0540 C   0  0  0  0  0  3  0  0  0  0  0  0
  -21.4520   -4.6030   24.9880 C   0  0  0  0  0  0  0  0  0  0  0  0
  -21.8760   -4.0350   23.7730 C   0  0  0  0  0  3  0  0  0  0  0  0
  -21.9810   -4.8380   22.6240 C   0  0  0  0  0  0  0  0  0  0  0  0
  -22.3720   -4.2830   21.4520 F   0  0  0  0  0  0  0  0  0  0  0  0
  -21.3440   -3.8280   26.0920 F   0  0  0  0  0  0  0  0  0  0  0  0
  -22.8500  -13.5720   21.2020 C   0  0  0  0  0  0  0  0  0  0  0  0
  -22.1400  -12.8770   22.0830 N   0  0  0  0  0  0  0  0  0  0  0  0
  -22.4040  -14.6020   20.6990 O   0  0  0  0  0  0  0  0  0  0  0  0
  -22.5090  -12.0390   22.5110 H   0  0  0  0  0  0  0  0  0  0  0  0
  -21.2090  -13.1840   22.3290 H   0  0  0  0  0  0  0  0  0  0  0  0
  -25.4640  -15.2270   20.3200 N   0  0  0  0  0  0  0  0  0  0  0  0
  -24.7070  -15.8860   20.4640 H   0  0  0  0  0  0  0  0  0  0  0  0
  -26.3010  -15.6610   19.9520 H   0  0  0  0  0  0  0  0  0  0  0  0
  1  2  1  0
  1  3  2  0
  2  4  2  0
  3  7  1  0
  3  8  1  0
  4  8  1  0
  4  9  1  0
  5  1  1  0
  6  2  1  0
  8 54  1  0
 10  9  1  0
 12 11  1  0
 12 10  1  0
 12 13  1  0
 14 25  2  0
 15 13  1  0
 15 20  1  0
 16 24  1  0
 16 26  1  0
 17 23  1  0
 17 19  1  0
 18 24  1  0
 19 20  2  0
 19 18  1  0
 21 15  2  0
 22 21  1  0
 22 17  2  0
 23 16  1  0
 24 14  1  0
 26 28  2  0
 27 26  1  0
 29 27  1  0
 30 39  2  0
 30 35  1  0
 31 27  1  0
 31 35  1  0
 32 31  1  0
 33 34  1  0
 33 32  1  0
 34 30  1  0
 35 36  2  0
 36 37  1  0
 38 37  2  0
 39 38  1  0
 40 14  1  0
 40 41  1  0
 40 50  1  0
 41 44  1  0
 42 46  1  0
 42 41  1  0
 43 42  2  0
 46 45  1  0
 48 46  1  0
 48 49  1  0
 48 47  1  0
 50 53  1  1
 50 51  1  0
 52 50  1  0
 55 54  1  0
 55 57  1  0
 57 56  1  0
 58 66  1  0
 59 64  1  0
 60 61  1  0
 60 59  1  0
 62 61  1  0
 62 71  1  0
 62 63  1  0
 64 58  1  0
 64 63  1  0
 65 58  2  0
 66 67  1  0
 66 57  1  0
 68 69  2  0
 69 88  1  0
 70 69  1  0
 70 73  1  0
 71 68  1  0
 71 72  1  0
 72 70  2  0
 73 74  1  0
 74 75  2  0
 76 79  1  0
 76 75  1  0
 77 76  2  0
 78 77  1  0
 78 73  2  0
 79 80  1  0
 80 81  1  0
 81 82  2  0
 83 82  1  0
 83 87  1  0
 84 83  2  0
 85 80  2  0
 85 84  1  0
 86 85  1  0
 88 89  1  0
 89 92  1  0
 89 91  1  0
 90 88  2  0
 93 94  1  0
 93 68  1  0
 95 93  1  0
M  ISO  4  12 101  13 101  58 100  66 100
M  END
>  <TORSDO>  (80) 
F 22

>  <SCORE>  (80) 
-13.146

>  <name>  (80) 
79

>  <ligand_id>  (80) 
79

>  <original_smiles>  (80) 
[H]c1c([H])c([H])c2c(c1[H])C([H])([H])C([H])([H])C([H])([H])C2([H])N([H])C(=O)C1([H])N(C(=O)C([H])(N([H])C(=O)C([H])(N([H])C([H])([H])[H])C([H])([H])[H])C(C([H])([H])[H])(C([H])([H])[H])C([H])([H])[H])C([H])([H])c2c([H])c(OC([H])(C([H])([H])[H])C([H])([H])C([H])([H])c3c(C([H])([H])[H])c(C([H])([H])[H])c(C([H])([H])[H])n3C([H])([H])C([H])([H])C([H])(N([H])C(=O)N3C([H])([H])C([H])([H])C([H])([H])C([H])(n4nc(-c5c([H])c([H])c(Oc6c([H])c([H])c(F)c([H])c6F)c([H])c5[H])c(C(=O)N([H])[H])c4N([H])[H])C3([H])[H])C([H])([H])[H])c([H])c([H])c2C1([H])[H]

>  <smiles>  (80) 
[H]c1c([H])c([H])c2c(c1[H])C([H])([H])C([H])([H])C([H])([H])C2([H])N([H])C(=O)C1([H])N(C(=O)C([H])(N([H])C(=O)C([H])(N([H])C([H])([H])[H])C([H])([H])[H])C(C([H])([H])[H])(C([H])([H])[H])C([H])([H])[H])C([H])([H])c2c([H])c(OC([H])(C([H])([H])[H])C([H])([H])C([H])([H])c3c(C([H])([H])[H])c(C([H])([H])[H])c(C([H])([H])[H])n3C([H])([H])C([H])([H])C([H])(N([H])C(=O)N3C([H])([H])C([H])([H])C([H])([H])C([H])(n4nc(-c5c([H])c([H])c(Oc6c([H])c([H])c(F)c([H])c6F)c([H])c5[H])c(C(=O)N([H])[H])c4N([H])[H])C3([H])[H])C([H])([H])[H])c([H])c([H])c2C1([H])[H]

$$$$
80:0:0
     RDKit          3D

 98106  0  0  1  0  0  0  0  0999 V2000
  -29.6330  -23.1390   21.1570 C   0  0  0  0  0  3  0  0  0  0  0  0
  -28.4990  -21.6980   19.6040 C   0  0  0  0  0  3  0  0  0  0  0  0
  -28.5750  -23.0420   20.2480 C   0  0  0  0  0  0  0  0  0  0  0  0
  -30.4610  -22.0430   21.5200 C   0  0  0  0  0  0  0  0  0  0  0  0
  -29.3570  -20.5050   19.8850 C   0  0  0  0  0  0  0  0  0  0  0  0
  -30.2830  -20.7140   20.9680 C   0  0  0  0  0  0  0  0  0  0  0  0
  -29.9620  -18.7310   22.5720 C   0  0  0  0  0  1  0  0  0  0  0  0
  -32.3420  -19.5010   22.1930 C   0  0  0  0  0  1  0  0  0  0  0  0
  -30.9260  -19.4400   21.5970 C   0  0  0  0  0  3  0  0  0  0  0  0
  -31.5160  -22.4160   22.5620 C   0  0  0  0  0  2  0  0  0  0  0  0
  -31.0820  -22.1480   24.0150 C   0  0  0  0  0  2  0  0  0  0  0  0
  -32.1610  -22.5570   25.0370 C   0  0  0  0  0  2  0  0  0  0  0  0
  -32.9400  -22.2700   27.3710 C   0  0  0  0  0  1  0  0  0  0  0  0
  -31.8380  -22.1000   26.4050 N   0  0  0  0  0  4  0  0  0  0  0  0
  -31.0280  -22.5950   26.7440 H   0  0  0  0  0  0  0  0  0  0  0  0
  -31.6080  -21.1210   26.3840 H   0  0  0  0  0  0  0  0  0  0  0  0
  -29.1440  -18.9620   19.2630 C   0  0  0  0  0  2  0  0  0  0  0  0
  -30.2400  -17.6590   19.1140 C   0  0  0  0  0  2  0  0  0  0  0  0
  -30.7070  -14.9320   19.3670 C   0  0  0  0  0  0  0  0  0  0  0  0
  -30.5920  -12.4530   18.8310 C   0  0  0  0  0  2  0  0  0  0  0  0
  -29.6000  -12.1930   17.6760 C   0  0  0  0  0  2  0  0  0  0  0  0
  -28.1640  -12.0440   18.2150 C   0  0  0  0  0  2  0  0  0  0  0  0
  -27.7970  -13.1380   19.2530 C   0  0  0  0  0  3  0  0  0  0  0  0
  -28.9110  -13.3420   20.3010 C   0  0  0  0  0  2  0  0  0  0  0  0
  -30.1350  -13.6730   19.5570 N   0  0  0  0  0  0  0  0  0  0  0  0
  -31.8950  -14.9640   19.0240 O   0  0  0  0  0  0  0  0  0  0  0  0
  -29.9160  -16.1200   19.3600 N   0  0  0  0  0  0  0  0  0  0  0  0
  -28.9570  -15.9460   19.6170 H   0  0  0  0  0  0  0  0  0  0  0  0
  -25.5320  -13.8270   20.2230 C   0  0  0  0  0  0  0  0  0  0  0  0
  -24.4650  -13.1030   20.6740 C   0  0  0  0  0  0  0  0  0  0  0  0
  -24.8440  -11.7290   20.5690 C   0  0  0  0  0  0  0  0  0  0  0  0
  -26.4960  -12.8990   19.8680 N   0  0  0  0  0  0  0  0  0  0  0  0
  -26.0980  -11.6300   20.1410 N   0  0  0  0  0  0  0  0  0  0  0  0
  -24.0660  -10.5050   20.7970 C   0  0  0  0  0  0  0  0  0  0  0  0
  -24.5110   -9.4990   21.6840 C   0  0  0  0  0  3  0  0  0  0  0  0
  -23.7330   -8.3420   21.9020 C   0  0  0  0  0  3  0  0  0  0  0  0
  -22.4960   -8.1800   21.2350 C   0  0  0  0  0  0  0  0  0  0  0  0
  -22.0700   -9.1720   20.3340 C   0  0  0  0  0  3  0  0  0  0  0  0
  -22.8480  -10.3210   20.1150 C   0  0  0  0  0  3  0  0  0  0  0  0
  -21.6890   -7.0760   21.3630 O   0  0  0  0  0  0  0  0  0  0  0  0
  -21.6430   -6.3500   22.5260 C   0  0  0  0  0  0  0  0  0  0  0  0
  -21.2890   -6.9400   23.7580 C   0  0  0  0  0  3  0  0  0  0  0  0
  -21.1850   -6.1440   24.9170 C   0  0  0  0  0  3  0  0  0  0  0  0
  -21.4250   -4.7590   24.8450 C   0  0  0  0  0  0  0  0  0  0  0  0
  -21.7720   -4.1690   23.6160 C   0  0  0  0  0  3  0  0  0  0  0  0
  -21.8770   -4.9620   22.4600 C   0  0  0  0  0  0  0  0  0  0  0  0
  -22.1900   -4.3850   21.2750 F   0  0  0  0  0  0  0  0  0  0  0  0
  -21.3190   -3.9920   25.9550 F   0  0  0  0  0  0  0  0  0  0  0  0
  -23.1260  -13.6480   21.0820 C   0  0  0  0  0  0  0  0  0  0  0  0
  -22.4520  -12.9920   22.0170 N   0  0  0  0  0  0  0  0  0  0  0  0
  -22.6900  -14.6930   20.5980 O   0  0  0  0  0  0  0  0  0  0  0  0
  -22.8180  -12.1480   22.4340 H   0  0  0  0  0  0  0  0  0  0  0  0
  -21.5540  -13.3380   22.3270 H   0  0  0  0  0  0  0  0  0  0  0  0
  -25.7510  -15.1910   20.0560 N   0  0  0  0  0  0  0  0  0  0  0  0
  -25.0300  -15.8760   20.2610 H   0  0  0  0  0  0  0  0  0  0  0  0
  -26.5600  -15.5900   19.6010 H   0  0  0  0  0  0  0  0  0  0  0  0
  -27.5080  -24.3170   20.1590 C   0  0  0  0  0  2  0  0  0  0  0  0
  -27.7370  -25.8300   20.5550 O   0  0  0  0  0  0  0  0  0  0  0  0
  -24.5830  -31.9210   23.3160 C   0  0  0  0  0  0  0  0  0  0  0  0
  -26.7780  -26.9120   20.4040 C   0  0  0  0  0  0  0  0  0  0  0  0
  -23.2780  -30.5750   21.7170 C   0  0  0  0  0  3  0  0  0  0  0  0
  -24.5980  -28.8600   20.3270 C   0  0  0  0  0  0  0  0  0  0  0  0
  -25.8490  -30.6300   21.5480 C   0  0  0  0  0  2  0  0  0  0  0  0
  -25.8100  -29.2180   20.9290 C   0  0  0  0  0  0  0  0  0  0  0  0
  -26.8950  -28.2570   20.9590 C   0  0  0  0  0  3  0  0  0  0  0  0
  -25.5550  -26.6820   19.7330 C   0  0  0  0  0  3  0  0  0  0  0  0
  -24.4870  -27.6050   19.7150 C   0  0  0  0  0  3  0  0  0  0  0  0
  -23.4440  -29.8500   20.3560 C   0  0  0  0  0  2  0  0  0  0  0  0
  -24.5920  -31.0640   22.2460 N   0  0  0  0  0  0  0  0  0  0  0  0
  -23.5230  -32.3000   23.8350 O   0  0  0  0  0  0  0  0  0  0  0  0
  -22.5300  -29.6460   22.7050 C   0  0  0  0  0  0  0  0  0  0  0  0
  -21.2060  -29.4850   22.5190 N   0  0  0  0  0  0  0  0  0  0  0  0
  -23.1430  -29.0680   23.6070 O   0  0  0  0  0  0  0  0  0  0  0  0
  -20.7640  -30.0000   21.7690 H   0  0  0  0  0  0  0  0  0  0  0  0
  -17.7890  -28.3480   22.9100 C   0  0  0  0  0  0  0  0  0  0  0  0
  -20.3290  -28.6150   23.3120 C   0  0  0  0  0  3  0  0  0  0  0  0
  -20.4510  -27.1420   22.8590 C   0  0  0  0  0  2  0  0  0  0  0  0
  -19.4100  -26.7490   21.8050 C   0  0  0  0  0  2  0  0  0  0  0  0
  -17.9930  -26.9500   22.3500 C   0  0  0  0  0  2  0  0  0  0  0  0
  -18.8870  -29.1350   23.3470 C   0  0  0  0  0  0  0  0  0  0  0  0
  -18.6430  -30.4390   23.8300 C   0  0  0  0  0  3  0  0  0  0  0  0
  -17.3350  -30.9570   23.8830 C   0  0  0  0  0  3  0  0  0  0  0  0
  -16.2500  -30.1660   23.4630 C   0  0  0  0  0  3  0  0  0  0  0  0
  -16.4780  -28.8650   22.9820 C   0  0  0  0  0  3  0  0  0  0  0  0
  -25.9070  -32.4810   23.9210 C   0  0  0  0  0  3  0  0  0  0  0  0
  -25.6190  -33.8150   24.4780 N   0  0  0  0  0  0  0  0  0  0  0  0
  -25.9630  -34.9740   23.9040 C   0  0  0  0  0  0  0  0  0  0  0  0
  -26.6240  -35.0300   22.8630 O   0  0  0  0  0  0  0  0  0  0  0  0
  -25.0350  -33.8440   25.3020 H   0  0  0  0  0  0  0  0  0  0  0  0
  -24.2820  -36.8470   23.8560 C   0  0  0  0  0  1  0  0  0  0  0  0
  -25.5060  -36.2760   24.5910 C   0  0  0  0  0  3  0  0  0  0  0  0
  -27.6540  -36.9500   25.5710 C   0  0  0  0  0  1  0  0  0  0  0  0
  -26.5630  -37.3070   24.6670 N   0  0  0  0  0  0  0  0  0  0  0  0
  -26.1770  -38.1950   24.9750 H   0  0  0  0  0  0  0  0  0  0  0  0
  -26.5230  -31.5470   25.0340 C   0  0  1  0  0  0  0  0  0  0  0  0
  -25.4990  -31.0770   26.0930 C   0  0  0  0  0  1  0  0  0  0  0  0
  -27.1570  -30.2840   24.4050 C   0  0  0  0  0  1  0  0  0  0  0  0
  -27.6650  -32.2880   25.7680 C   0  0  0  0  0  1  0  0  0  0  0  0
  1  4  1  0
  2  5  2  0
  2  3  1  0
  3  1  2  0
  4 10  1  0
  5  6  1  0
  6  4  2  0
  6  9  1  0
  9  8  1  0
  9  7  1  0
 10 11  1  0
 11 12  1  0
 12 14  1  0
 14 15  1  0
 14 13  1  0
 16 14  1  0
 17  5  1  0
 18 17  1  0
 18 27  1  0
 19 25  1  0
 20 25  1  0
 21 22  1  0
 21 20  1  0
 23 22  1  0
 23 32  1  0
 23 24  1  0
 25 24  1  0
 26 19  2  0
 27 19  1  0
 27 28  1  0
 29 30  2  0
 30 49  1  0
 31 30  1  0
 31 34  1  0
 32 33  1  0
 32 29  1  0
 33 31  2  0
 34 35  1  0
 35 36  2  0
 37 40  1  0
 37 36  1  0
 38 37  2  0
 39 38  1  0
 39 34  2  0
 40 41  1  0
 41 42  1  0
 42 43  2  0
 44 43  1  0
 44 48  1  0
 45 44  2  0
 46 41  2  0
 46 45  1  0
 47 46  1  0
 49 50  1  0
 50 53  1  0
 50 52  1  0
 51 49  2  0
 54 29  1  0
 54 55  1  0
 56 54  1  0
 57  3  1  0
 57 58  1  0
 59 70  2  0
 60 58  1  0
 60 65  1  0
 61 69  1  0
 61 71  1  0
 62 68  1  0
 62 64  1  0
 63 69  1  0
 64 65  2  0
 64 63  1  0
 66 60  2  0
 67 66  1  0
 67 62  2  0
 68 61  1  0
 69 59  1  0
 71 73  2  0
 72 71  1  0
 74 72  1  0
 75 84  2  0
 75 80  1  0
 76 72  1  0
 76 80  1  0
 77 76  1  0
 78 79  1  0
 78 77  1  0
 79 75  1  0
 80 81  2  0
 81 82  1  0
 83 82  2  0
 84 83  1  0
 85 59  1  0
 85 86  1  0
 85 95  1  0
 86 89  1  0
 87 86  1  0
 87 91  1  0
 88 87  2  0
 91 90  1  0
 91 93  1  0
 93 94  1  0
 93 92  1  0
 95 98  1  1
 95 96  1  0
 97 95  1  0
M  ISO  4  19 100  27 100  57 101  58 101
M  END
>  <TORSDO>  (81) 
F 24

>  <SCORE>  (81) 
-3.278

>  <name>  (81) 
80

>  <ligand_id>  (81) 
80

>  <original_smiles>  (81) 
[H]c1c([H])c([H])c2c(c1[H])C([H])([H])C([H])([H])C([H])([H])C2([H])N([H])C(=O)C1([H])N(C(=O)C([H])(N([H])C(=O)C([H])(N([H])C([H])([H])[H])C([H])([H])[H])C(C([H])([H])[H])(C([H])([H])[H])C([H])([H])[H])C([H])([H])c2c([H])c(OC([H])([H])c3c([H])c(C([H])([H])C([H])([H])N([H])C(=O)N4C([H])([H])C([H])([H])C([H])([H])C([H])(n5nc(-c6c([H])c([H])c(Oc7c([H])c([H])c(F)c([H])c7F)c([H])c6[H])c(C(=O)N([H])[H])c5N([H])[H])C4([H])[H])c(C([H])(C([H])([H])[H])C([H])([H])[H])c(C([H])([H])C([H])([H])C([H])([H])[N+]([H])([H])C([H])([H])[H])c3[H])c([H])c([H])c2C1([H])[H]

>  <smiles>  (81) 
[H]c1c([H])c([H])c2c(c1[H])C([H])([H])C([H])([H])C([H])([H])C2([H])N([H])C(=O)C1([H])N(C(=O)C([H])(N([H])C(=O)C([H])(N([H])C([H])([H])[H])C([H])([H])[H])C(C([H])([H])[H])(C([H])([H])[H])C([H])([H])[H])C([H])([H])c2c([H])c(OC([H])([H])c3c([H])c(C([H])([H])C([H])([H])N([H])C(=O)N4C([H])([H])C([H])([H])C([H])([H])C([H])(n5nc(-c6c([H])c([H])c(Oc7c([H])c([H])c(F)c([H])c7F)c([H])c6[H])c(C(=O)N([H])[H])c5N([H])[H])C4([H])[H])c(C([H])(C([H])([H])[H])C([H])([H])[H])c(C([H])([H])C([H])([H])C([H])([H])[N+]([H])([H])C([H])([H])[H])c3[H])c([H])c([H])c2C1([H])[H]

$$$$
81:0:0
     RDKit          3D

 96104  0  0  1  0  0  0  0  0999 V2000
  -33.5250  -25.7030   12.2400 C   0  0  0  0  0  3  0  0  0  0  0  0
  -32.8420  -25.5190   10.9760 C   0  0  0  0  0  3  0  0  0  0  0  0
  -34.3460  -24.6840   12.8160 C   0  0  0  0  0  0  0  0  0  0  0  0
  -32.9120  -24.3090   10.2090 C   0  0  0  0  0  0  0  0  0  0  0  0
  -34.3310  -23.4930   11.9870 C   0  0  0  0  0  0  0  0  0  0  0  0
  -33.6730  -23.3400   10.7780 N   0  0  0  0  0  0  0  0  0  0  0  0
  -34.6070  -21.6150   13.6630 C   0  0  0  0  0  1  0  0  0  0  0  0
  -36.6390  -22.5020   12.4100 C   0  0  0  0  0  1  0  0  0  0  0  0
  -35.1240  -22.2330   12.3560 C   0  0  0  0  0  3  0  0  0  0  0  0
  -35.1790  -24.7050   14.2290 C   0  0  0  0  0  2  0  0  0  0  0  0
  -34.7640  -24.6880   15.7110 O   0  0  0  0  0  0  0  0  0  0  0  0
  -27.5920  -25.9780   14.7660 C   0  0  0  0  0  0  0  0  0  0  0  0
  -33.3910  -24.3460   15.9900 C   0  0  0  0  0  0  0  0  0  0  0  0
  -28.2910  -24.8870   16.8600 C   0  0  0  0  0  3  0  0  0  0  0  0
  -30.6620  -23.9150   16.8810 C   0  0  0  0  0  0  0  0  0  0  0  0
  -29.6470  -24.5260   14.6990 C   0  0  0  0  0  2  0  0  0  0  0  0
  -30.8990  -24.3100   15.5580 C   0  0  0  0  0  0  0  0  0  0  0  0
  -32.2550  -24.5120   15.1040 C   0  0  0  0  0  3  0  0  0  0  0  0
  -33.0620  -23.8580   17.2810 C   0  0  0  0  0  3  0  0  0  0  0  0
  -31.7440  -23.6700   17.7310 C   0  0  0  0  0  3  0  0  0  0  0  0
  -29.2280  -23.7570   17.3550 C   0  0  0  0  0  2  0  0  0  0  0  0
  -28.4960  -25.1760   15.4030 N   0  0  0  0  0  0  0  0  0  0  0  0
  -26.6100  -26.4500   15.3600 O   0  0  0  0  0  0  0  0  0  0  0  0
  -28.4700  -26.1350   17.7620 C   0  0  0  0  0  0  0  0  0  0  0  0
  -27.4600  -26.4340   18.5980 N   0  0  0  0  0  0  0  0  0  0  0  0
  -29.5090  -26.7990   17.7150 O   0  0  0  0  0  0  0  0  0  0  0  0
  -26.6370  -25.8490   18.5740 H   0  0  0  0  0  0  0  0  0  0  0  0
  -25.3330  -28.3350   20.8300 C   0  0  0  0  0  0  0  0  0  0  0  0
  -27.4410  -27.5380   19.5600 C   0  0  0  0  0  3  0  0  0  0  0  0
  -27.9730  -27.0850   20.9390 C   0  0  0  0  0  2  0  0  0  0  0  0
  -26.8670  -26.6220   21.8910 C   0  0  0  0  0  2  0  0  0  0  0  0
  -25.8580  -27.7510   22.1310 C   0  0  0  0  0  2  0  0  0  0  0  0
  -26.0690  -28.2210   19.6200 C   0  0  0  0  0  0  0  0  0  0  0  0
  -25.5220  -28.7540   18.4330 C   0  0  0  0  0  3  0  0  0  0  0  0
  -24.2660  -29.3890   18.4410 C   0  0  0  0  0  3  0  0  0  0  0  0
  -23.5480  -29.5110   19.6440 C   0  0  0  0  0  3  0  0  0  0  0  0
  -24.0850  -28.9900   20.8350 C   0  0  0  0  0  3  0  0  0  0  0  0
  -27.7370  -26.3230   13.2510 C   0  0  0  0  0  3  0  0  0  0  0  0
  -26.7400  -25.5290   12.5160 N   0  0  0  0  0  0  0  0  0  0  0  0
  -26.9770  -24.8790   11.3670 C   0  0  0  0  0  0  0  0  0  0  0  0
  -28.0580  -24.9430   10.7740 O   0  0  0  0  0  0  0  0  0  0  0  0
  -25.8520  -25.3840   12.9730 H   0  0  0  0  0  0  0  0  0  0  0  0
  -26.4070  -22.7130   10.2220 C   0  0  0  0  0  1  0  0  0  0  0  0
  -25.8350  -24.0250   10.7810 C   0  0  0  0  0  3  0  0  0  0  0  0
  -24.1090  -25.6910   10.2580 C   0  0  0  0  0  1  0  0  0  0  0  0
  -25.0620  -24.7190    9.7280 N   0  0  0  0  0  0  0  0  0  0  0  0
  -24.5500  -24.0510    9.1580 H   0  0  0  0  0  0  0  0  0  0  0  0
  -27.5510  -27.8590   12.9460 C   0  0  1  0  0  0  0  0  0  0  0  0
  -26.1070  -28.2430   12.5440 C   0  0  0  0  0  1  0  0  0  0  0  0
  -27.9390  -28.7160   14.1740 C   0  0  0  0  0  1  0  0  0  0  0  0
  -28.4970  -28.2830   11.7970 C   0  0  0  0  0  1  0  0  0  0  0  0
  -32.3730  -24.1310    8.6690 C   0  0  0  0  0  3  0  0  0  0  0  0
  -31.7340  -25.4360    8.1210 C   0  0  0  0  0  2  0  0  0  0  0  0
  -32.5650  -26.2610    7.1090 C   0  0  0  0  0  2  0  0  0  0  0  0
  -34.4310  -27.5290    8.3070 C   0  0  0  0  0  1  0  0  0  0  0  0
  -32.0520  -28.2670    8.6530 C   0  0  0  0  0  1  0  0  0  0  0  0
  -33.0400  -27.6290    7.6630 C   0  0  0  0  0  3  0  0  0  0  0  0
  -33.1000  -23.2530    7.4640 C   0  0  0  0  0  2  0  0  0  0  0  0
  -35.0230  -21.3820    6.9240 C   0  0  0  0  0  0  0  0  0  0  0  0
  -35.6330  -19.0970    6.0500 C   0  0  0  0  0  2  0  0  0  0  0  0
  -34.3680  -18.3360    5.5760 C   0  0  0  0  0  2  0  0  0  0  0  0
  -33.4520  -17.8790    6.7400 C   0  0  0  0  0  2  0  0  0  0  0  0
  -34.1110  -18.0830    8.1070 C   0  0  0  0  0  3  0  0  0  0  0  0
  -34.9620  -19.3240    8.3910 C   0  0  0  0  0  2  0  0  0  0  0  0
  -35.2520  -20.0370    7.1420 N   0  0  0  0  0  0  0  0  0  0  0  0
  -35.5120  -21.9050    5.9190 O   0  0  0  0  0  0  0  0  0  0  0  0
  -34.0840  -22.0640    7.7180 N   0  0  0  0  0  0  0  0  0  0  0  0
  -33.8200  -21.5220    8.5310 H   0  0  0  0  0  0  0  0  0  0  0  0
  -32.2420  -17.7310    9.9540 C   0  0  0  0  0  0  0  0  0  0  0  0
  -32.2350  -16.7890   10.9570 C   0  0  0  0  0  0  0  0  0  0  0  0
  -33.4080  -16.0040   10.7590 C   0  0  0  0  0  0  0  0  0  0  0  0
  -33.4270  -17.4980    9.2500 N   0  0  0  0  0  0  0  0  0  0  0  0
  -34.1090  -16.4640    9.7590 N   0  0  0  0  0  0  0  0  0  0  0  0
  -33.9170  -14.7960   11.3950 C   0  0  0  0  0  0  0  0  0  0  0  0
  -33.0920  -14.0110   12.2300 C   0  0  0  0  0  3  0  0  0  0  0  0
  -33.6060  -12.8530   12.8470 C   0  0  0  0  0  3  0  0  0  0  0  0
  -34.9500  -12.4760   12.6240 C   0  0  0  0  0  0  0  0  0  0  0  0
  -35.7710  -13.2810   11.8150 C   0  0  0  0  0  3  0  0  0  0  0  0
  -35.2630  -14.4370   11.2060 C   0  0  0  0  0  3  0  0  0  0  0  0
  -35.5420  -11.3780   13.1940 O   0  0  0  0  0  0  0  0  0  0  0  0
  -36.4660  -10.6330   12.5080 C   0  0  0  0  0  0  0  0  0  0  0  0
  -37.8510  -10.7360   12.7660 C   0  0  0  0  0  3  0  0  0  0  0  0
  -38.7570   -9.8940   12.0900 C   0  0  0  0  0  3  0  0  0  0  0  0
  -38.2830   -8.9500   11.1600 C   0  0  0  0  0  0  0  0  0  0  0  0
  -36.9050   -8.8500   10.9010 C   0  0  0  0  0  3  0  0  0  0  0  0
  -35.9990   -9.6860   11.5780 C   0  0  0  0  0  0  0  0  0  0  0  0
  -34.6710   -9.5690   11.3410 F   0  0  0  0  0  0  0  0  0  0  0  0
  -39.1520   -8.1400   10.5110 F   0  0  0  0  0  0  0  0  0  0  0  0
  -31.1740  -16.5440   11.9940 C   0  0  0  0  0  0  0  0  0  0  0  0
  -31.3220  -17.1480   13.1700 N   0  0  0  0  0  0  0  0  0  0  0  0
  -30.1920  -15.8450   11.7620 O   0  0  0  0  0  0  0  0  0  0  0  0
  -32.1190  -17.7350   13.3650 H   0  0  0  0  0  0  0  0  0  0  0  0
  -30.6120  -17.0350   13.8810 H   0  0  0  0  0  0  0  0  0  0  0  0
  -31.3500  -18.7290    9.5800 N   0  0  0  0  0  0  0  0  0  0  0  0
  -30.4470  -18.8550   10.0190 H   0  0  0  0  0  0  0  0  0  0  0  0
  -31.4560  -19.2620    8.7280 H   0  0  0  0  0  0  0  0  0  0  0  0
  1  3  1  0
  2  1  2  0
  3 10  1  0
  4  6  2  0
  4  2  1  0
  5  9  1  0
  5  3  2  0
  6  5  1  0
  9  8  1  0
  9  7  1  0
 10 11  1  0
 11 13  1  0
 12 23  2  0
 12 22  1  0
 13 19  1  0
 14 21  1  0
 14 24  1  0
 15 21  1  0
 15 20  1  0
 16 22  1  0
 16 17  1  0
 17 15  2  0
 18 17  1  0
 18 13  2  0
 19 20  2  0
 22 14  1  0
 24 25  1  0
 26 24  2  0
 27 25  1  0
 28 37  1  0
 28 32  1  0
 29 25  1  0
 29 33  1  0
 29 30  1  0
 30 31  1  0
 31 32  1  0
 33 28  2  0
 34 35  2  0
 34 33  1  0
 35 36  1  0
 36 37  2  0
 38 12  1  0
 39 42  1  0
 39 38  1  0
 40 39  1  0
 41 40  2  0
 44 43  1  0
 44 40  1  0
 46 45  1  0
 46 44  1  0
 47 46  1  0
 48 38  1  0
 48 50  1  1
 49 48  1  0
 51 48  1  0
 52 58  1  0
 52  4  1  0
 53 52  1  0
 54 57  1  0
 54 53  1  0
 57 55  1  0
 57 56  1  0
 58 67  1  0
 59 65  1  0
 59 67  1  0
 60 65  1  0
 61 60  1  0
 61 62  1  0
 63 62  1  0
 63 64  1  0
 63 72  1  0
 65 64  1  0
 66 59  2  0
 67 68  1  0
 69 70  2  0
 70 89  1  0
 71 70  1  0
 71 74  1  0
 72 73  1  0
 72 69  1  0
 73 71  2  0
 74 75  1  0
 75 76  2  0
 77 76  1  0
 77 80  1  0
 78 77  2  0
 79 74  2  0
 79 78  1  0
 81 82  1  0
 81 80  1  0
 83 82  2  0
 84 83  1  0
 85 84  2  0
 85 86  1  0
 86 81  2  0
 87 86  1  0
 88 84  1  0
 89 90  1  0
 90 92  1  0
 90 93  1  0
 91 89  2  0
 94 69  1  0
 94 95  1  0
 96 94  1  0
M  ISO  4  10 101  11 101  59 100  67 100
M  END
>  <TORSDO>  (82) 
F 23

>  <SCORE>  (82) 
-3.157

>  <name>  (82) 
81

>  <ligand_id>  (82) 
81

>  <original_smiles>  (82) 
[H]c1c(C([H])(C([H])([H])N([H])C(=O)N2C([H])([H])C([H])([H])C([H])([H])C([H])(n3nc(-c4c([H])c([H])c(Oc5c([H])c([H])c(F)c([H])c5F)c([H])c4[H])c(C(=O)N([H])[H])c3N([H])[H])C2([H])[H])C([H])([H])C([H])([H])C([H])(C([H])([H])[H])C([H])([H])[H])nc(C([H])(C([H])([H])[H])C([H])([H])[H])c(C([H])([H])Oc2c([H])c([H])c3c(c2[H])C([H])([H])N(C(=O)C([H])(N([H])C(=O)C([H])(N([H])C([H])([H])[H])C([H])([H])[H])C(C([H])([H])[H])(C([H])([H])[H])C([H])([H])[H])C([H])(C(=O)N([H])C2([H])c4c([H])c([H])c([H])c([H])c4C([H])([H])C([H])([H])C2([H])[H])C3([H])[H])c1[H]

>  <smiles>  (82) 
[H]c1c(C([H])(C([H])([H])N([H])C(=O)N2C([H])([H])C([H])([H])C([H])([H])C([H])(n3nc(-c4c([H])c([H])c(Oc5c([H])c([H])c(F)c([H])c5F)c([H])c4[H])c(C(=O)N([H])[H])c3N([H])[H])C2([H])[H])C([H])([H])C([H])([H])C([H])(C([H])([H])[H])C([H])([H])[H])nc(C([H])(C([H])([H])[H])C([H])([H])[H])c(C([H])([H])Oc2c([H])c([H])c3c(c2[H])C([H])([H])N(C(=O)C([H])(N([H])C(=O)C([H])(N([H])C([H])([H])[H])C([H])([H])[H])C(C([H])([H])[H])(C([H])([H])[H])C([H])([H])[H])C([H])(C(=O)N([H])C2([H])c4c([H])c([H])c([H])c([H])c4C([H])([H])C([H])([H])C2([H])[H])C3([H])[H])c1[H]

$$$$
82:0:0
     RDKit          3D

101109  0  0  1  0  0  0  0  0999 V2000
  -27.4340  -25.0080   23.4040 C   0  0  0  0  0  3  0  0  0  0  0  0
  -26.5340  -24.1470   22.7690 C   0  0  0  0  0  3  0  0  0  0  0  0
  -28.5490  -25.4570   22.6890 C   0  0  0  0  0  3  0  0  0  0  0  0
  -26.8200  -23.6170   21.4910 C   0  0  0  0  0  0  0  0  0  0  0  0
  -28.8660  -24.9300   21.4170 C   0  0  0  0  0  0  0  0  0  0  0  0
  -28.1360  -23.7700   20.9340 C   0  0  0  0  0  0  0  0  0  0  0  0
  -28.0520  -22.6470   18.6020 C   0  0  0  0  0  1  0  0  0  0  0  0
  -30.2500  -22.8610   19.7330 C   0  0  0  0  0  1  0  0  0  0  0  0
  -28.7380  -22.6370   19.9860 C   0  0  1  0  0  0  0  0  0  0  0  0
  -28.6080  -21.1820   20.6490 C   0  0  0  0  0  2  0  0  0  0  0  0
  -29.2130  -20.0110   19.9160 N   0  0  0  0  0  4  0  0  0  0  0  0
  -28.7970  -19.9670   19.0020 H   0  0  0  0  0  0  0  0  0  0  0  0
  -30.1950  -20.1970   19.7940 H   0  0  0  0  0  0  0  0  0  0  0  0
  -29.0530  -18.6500   20.5450 C   0  0  0  0  0  2  0  0  0  0  0  0
  -30.0140  -17.5470   19.9620 C   0  0  0  0  0  2  0  0  0  0  0  0
  -30.8080  -15.1820   20.3790 C   0  0  0  0  0  0  0  0  0  0  0  0
  -30.7150  -12.8680   19.5160 C   0  0  0  0  0  2  0  0  0  0  0  0
  -29.8290  -12.9020   18.2540 C   0  0  0  0  0  2  0  0  0  0  0  0
  -28.3410  -12.7400   18.6270 C   0  0  0  0  0  2  0  0  0  0  0  0
  -27.9050  -13.6720   19.7890 C   0  0  0  0  0  3  0  0  0  0  0  0
  -28.9180  -13.6270   20.9570 C   0  0  0  0  0  2  0  0  0  0  0  0
  -30.2460  -13.9420   20.4110 N   0  0  0  0  0  0  0  0  0  0  0  0
  -31.9490  -15.3850   19.9520 O   0  0  0  0  0  0  0  0  0  0  0  0
  -29.9480  -16.2080   20.6070 N   0  0  0  0  0  0  0  0  0  0  0  0
  -29.0620  -15.9380   21.0090 H   0  0  0  0  0  0  0  0  0  0  0  0
  -25.4980  -14.2500   20.4760 C   0  0  0  0  0  0  0  0  0  0  0  0
  -24.4310  -13.4650   20.8260 C   0  0  0  0  0  0  0  0  0  0  0  0
  -24.9000  -12.1170   20.7760 C   0  0  0  0  0  0  0  0  0  0  0  0
  -26.5490  -13.3780   20.2400 N   0  0  0  0  0  0  0  0  0  0  0  0
  -26.1940  -12.0900   20.4790 N   0  0  0  0  0  0  0  0  0  0  0  0
  -24.1800  -10.8470   20.9370 C   0  0  0  0  0  0  0  0  0  0  0  0
  -24.5660   -9.8990   21.9100 C   0  0  0  0  0  3  0  0  0  0  0  0
  -23.8460   -8.6960   22.0600 C   0  0  0  0  0  3  0  0  0  0  0  0
  -22.7250   -8.4320   21.2380 C   0  0  0  0  0  0  0  0  0  0  0  0
  -22.3560   -9.3710   20.2590 C   0  0  0  0  0  3  0  0  0  0  0  0
  -23.0780  -10.5680   20.1070 C   0  0  0  0  0  3  0  0  0  0  0  0
  -21.9800   -7.2770   21.2970 O   0  0  0  0  0  0  0  0  0  0  0  0
  -21.8140   -6.5840   22.4690 C   0  0  0  0  0  0  0  0  0  0  0  0
  -21.2730   -7.1900   23.6240 C   0  0  0  0  0  3  0  0  0  0  0  0
  -21.0550   -6.4220   24.7860 C   0  0  0  0  0  3  0  0  0  0  0  0
  -21.3710   -5.0490   24.7910 C   0  0  0  0  0  0  0  0  0  0  0  0
  -21.9060   -4.4440   23.6400 C   0  0  0  0  0  3  0  0  0  0  0  0
  -22.1240   -5.2080   22.4820 C   0  0  0  0  0  0  0  0  0  0  0  0
  -22.6200   -4.6170   21.3680 F   0  0  0  0  0  0  0  0  0  0  0  0
  -21.1560   -4.3080   25.9020 F   0  0  0  0  0  0  0  0  0  0  0  0
  -23.0290  -13.9310   21.0890 C   0  0  0  0  0  0  0  0  0  0  0  0
  -22.3040  -13.2290   21.9530 N   0  0  0  0  0  0  0  0  0  0  0  0
  -22.5810  -14.9500   20.5630 O   0  0  0  0  0  0  0  0  0  0  0  0
  -22.6790  -12.4040   22.3980 H   0  0  0  0  0  0  0  0  0  0  0  0
  -21.3630  -13.5210   22.1720 H   0  0  0  0  0  0  0  0  0  0  0  0
  -25.6590  -15.6220   20.3220 N   0  0  0  0  0  0  0  0  0  0  0  0
  -24.8830  -16.2660   20.4380 H   0  0  0  0  0  0  0  0  0  0  0  0
  -26.4670  -16.0490   19.8880 H   0  0  0  0  0  0  0  0  0  0  0  0
  -25.6420  -23.0490   20.6800 C   0  0  0  0  0  2  0  0  0  0  0  0
  -24.5220  -24.0650   20.3570 C   0  0  0  0  0  2  0  0  0  0  0  0
  -23.9880  -23.9510   18.9180 C   0  0  0  0  0  2  0  0  0  0  0  0
  -22.4550  -24.8100   17.1110 C   0  0  0  0  0  1  0  0  0  0  0  0
  -23.5550  -26.4740   18.6680 C   0  0  0  0  0  1  0  0  0  0  0  0
  -22.9770  -25.0530   18.5340 C   0  0  0  0  0  3  0  0  0  0  0  0
  -29.9700  -25.7080   20.6620 C   0  0  0  0  0  2  0  0  0  0  0  0
  -29.7680  -27.1530   20.5590 O   0  0  0  0  0  0  0  0  0  0  0  0
  -25.0830  -31.7680   23.3700 C   0  0  0  0  0  0  0  0  0  0  0  0
  -28.5030  -27.7230   20.4670 C   0  0  0  0  0  0  0  0  0  0  0  0
  -24.2000  -30.2730   21.6110 C   0  0  0  0  0  3  0  0  0  0  0  0
  -25.9440  -28.9530   20.2940 C   0  0  0  0  0  0  0  0  0  0  0  0
  -26.6740  -30.9340   21.6340 C   0  0  0  0  0  2  0  0  0  0  0  0
  -26.9820  -29.5980   20.9780 C   0  0  0  0  0  0  0  0  0  0  0  0
  -28.2630  -28.9960   21.0480 C   0  0  0  0  0  3  0  0  0  0  0  0
  -27.4360  -27.0860   19.7970 C   0  0  0  0  0  3  0  0  0  0  0  0
  -26.1680  -27.6960   19.7070 C   0  0  0  0  0  3  0  0  0  0  0  0
  -24.6060  -29.6580   20.2460 C   0  0  0  0  0  2  0  0  0  0  0  0
  -25.3320  -31.0080   22.2660 N   0  0  0  0  0  0  0  0  0  0  0  0
  -23.9360  -31.8960   23.8180 O   0  0  0  0  0  0  0  0  0  0  0  0
  -23.6030  -29.1550   22.4950 C   0  0  0  0  0  0  0  0  0  0  0  0
  -22.3300  -28.8080   22.2430 N   0  0  0  0  0  0  0  0  0  0  0  0
  -24.2830  -28.6040   23.3630 O   0  0  0  0  0  0  0  0  0  0  0  0
  -21.8350  -29.3080   21.5180 H   0  0  0  0  0  0  0  0  0  0  0  0
  -19.0750  -27.2630   22.4870 C   0  0  0  0  0  0  0  0  0  0  0  0
  -21.5770  -27.7560   22.9230 C   0  0  0  0  0  3  0  0  0  0  0  0
  -21.8590  -26.3780   22.2830 C   0  0  0  0  0  2  0  0  0  0  0  0
  -20.8500  -25.9970   21.1950 C   0  0  0  0  0  2  0  0  0  0  0  0
  -19.4250  -25.9770   21.7570 C   0  0  0  0  0  2  0  0  0  0  0  0
  -20.0870  -28.1050   23.0240 C   0  0  0  0  0  0  0  0  0  0  0  0
  -19.7090  -29.3090   23.6550 C   0  0  0  0  0  3  0  0  0  0  0  0
  -18.3540  -29.6750   23.7580 C   0  0  0  0  0  3  0  0  0  0  0  0
  -17.3560  -28.8290   23.2430 C   0  0  0  0  0  3  0  0  0  0  0  0
  -17.7170  -27.6240   22.6130 C   0  0  0  0  0  3  0  0  0  0  0  0
  -26.2240  -32.5340   24.1090 C   0  0  0  0  0  3  0  0  0  0  0  0
  -26.6950  -31.8190   25.4350 C   0  0  1  0  0  0  0  0  0  0  0  0
  -25.5340  -31.4560   26.3900 C   0  0  0  0  0  1  0  0  0  0  0  0
  -27.4700  -30.5200   25.1110 C   0  0  0  0  0  1  0  0  0  0  0  0
  -27.6730  -32.7370   26.2070 C   0  0  0  0  0  1  0  0  0  0  0  0
  -25.7350  -33.8880   24.3960 N   0  0  0  0  0  0  0  0  0  0  0  0
  -26.0240  -34.9740   23.6640 C   0  0  0  0  0  0  0  0  0  0  0  0
  -26.8020  -34.9480   22.7070 O   0  0  0  0  0  0  0  0  0  0  0  0
  -25.0490  -33.9780   25.1290 H   0  0  0  0  0  0  0  0  0  0  0  0
  -24.1560  -36.5720   23.1260 C   0  0  0  0  0  1  0  0  0  0  0  0
  -25.3440  -36.2980   24.0610 C   0  0  0  0  0  3  0  0  0  0  0  0
  -27.2740  -37.4070   25.0980 C   0  0  0  0  0  1  0  0  0  0  0  0
  -26.2610  -37.4580   24.0460 N   0  0  0  0  0  0  0  0  0  0  0  0
  -25.7430  -38.3270   24.1480 H   0  0  0  0  0  0  0  0  0  0  0  0
  2  1  1  0
  3  1  2  0
  4  2  2  0
  5  3  1  0
  6  5  2  0
  6  4  1  0
  9  7  1  6
  8  9  1  0
  9 10  1  0
  9  6  1  0
 11 14  1  0
 11 10  1  0
 12 11  1  0
 13 11  1  0
 15 14  1  0
 15 24  1  0
 16 22  1  0
 16 24  1  0
 17 22  1  0
 18 19  1  0
 18 17  1  0
 20 19  1  0
 20 29  1  0
 20 21  1  0
 22 21  1  0
 23 16  2  0
 24 25  1  0
 26 27  2  0
 27 46  1  0
 28 27  1  0
 28 31  1  0
 29 26  1  0
 29 30  1  0
 30 28  2  0
 31 32  1  0
 32 33  2  0
 34 37  1  0
 34 33  1  0
 35 34  2  0
 36 35  1  0
 36 31  2  0
 37 38  1  0
 38 43  2  0
 38 39  1  0
 39 40  2  0
 40 41  1  0
 41 45  1  0
 42 41  2  0
 43 42  1  0
 44 43  1  0
 46 47  1  0
 47 50  1  0
 47 49  1  0
 48 46  2  0
 51 52  1  0
 51 26  1  0
 53 51  1  0
 54  4  1  0
 55 54  1  0
 56 55  1  0
 57 59  1  0
 59 58  1  0
 59 56  1  0
 60  5  1  0
 61 60  1  0
 62 73  2  0
 63 61  1  0
 63 68  1  0
 64 72  1  0
 64 74  1  0
 65 67  1  0
 66 72  1  0
 67 68  2  0
 67 66  1  0
 69 63  2  0
 70 69  1  0
 70 65  2  0
 71 65  1  0
 71 64  1  0
 72 62  1  0
 74 76  2  0
 75 74  1  0
 77 75  1  0
 78 87  2  0
 78 83  1  0
 79 75  1  0
 79 83  1  0
 80 79  1  0
 81 82  1  0
 81 80  1  0
 82 78  1  0
 83 84  2  0
 84 85  1  0
 86 85  2  0
 87 86  1  0
 88 62  1  0
 88 93  1  0
 88 89  1  0
 89 92  1  1
 89 90  1  0
 91 89  1  0
 93 96  1  0
 94 98  1  0
 94 93  1  0
 95 94  2  0
 98 97  1  0
100 98  1  0
100101  1  0
100 99  1  0
M  ISO  4  16 100  24 100  60 101  61 101
M  END
>  <TORSDO>  (83) 
F 26

>  <SCORE>  (83) 
-9.888

>  <name>  (83) 
82

>  <ligand_id>  (83) 
82

>  <original_smiles>  (83) 
[H]c1c([H])c([H])c2c(c1[H])C([H])([H])C([H])([H])C([H])([H])C2([H])N([H])C(=O)C1([H])N(C(=O)C([H])(N([H])C(=O)C([H])(N([H])C([H])([H])[H])C([H])([H])[H])C(C([H])([H])[H])(C([H])([H])[H])C([H])([H])[H])C([H])([H])c2c([H])c(OC([H])([H])c3c([H])c([H])c([H])c(C([H])([H])C([H])([H])C([H])([H])C([H])(C([H])([H])[H])C([H])([H])[H])c3C(C([H])([H])[H])(C([H])([H])[H])C([H])([H])[N+]([H])([H])C([H])([H])C([H])([H])N([H])C(=O)N3C([H])([H])C([H])([H])C([H])([H])C([H])(n4nc(-c5c([H])c([H])c(Oc6c([H])c([H])c(F)c([H])c6F)c([H])c5[H])c(C(=O)N([H])[H])c4N([H])[H])C3([H])[H])c([H])c([H])c2C1([H])[H]

>  <smiles>  (83) 
[H]c1c([H])c([H])c2c(c1[H])C([H])([H])C([H])([H])C([H])([H])C2([H])N([H])C(=O)C1([H])N(C(=O)C([H])(N([H])C(=O)C([H])(N([H])C([H])([H])[H])C([H])([H])[H])C(C([H])([H])[H])(C([H])([H])[H])C([H])([H])[H])C([H])([H])c2c([H])c(OC([H])([H])c3c([H])c([H])c([H])c(C([H])([H])C([H])([H])C([H])([H])C([H])(C([H])([H])[H])C([H])([H])[H])c3C(C([H])([H])[H])(C([H])([H])[H])C([H])([H])[N+]([H])([H])C([H])([H])C([H])([H])N([H])C(=O)N3C([H])([H])C([H])([H])C([H])([H])C([H])(n4nc(-c5c([H])c([H])c(Oc6c([H])c([H])c(F)c([H])c6F)c([H])c5[H])c(C(=O)N([H])[H])c4N([H])[H])C3([H])[H])c([H])c([H])c2C1([H])[H]

$$$$
83:0:0
     RDKit          3D

 98106  0  0  1  0  0  0  0  0999 V2000
  -29.1300  -21.7750   21.0560 C   0  0  0  0  0  3  0  0  0  0  0  0
  -28.3210  -22.8790   20.6410 C   0  0  0  0  0  0  0  0  0  0  0  0
  -27.2700  -22.5760   19.7290 C   0  0  0  0  0  0  0  0  0  0  0  0
  -27.1620  -21.2590   19.1880 C   0  0  0  0  0  0  0  0  0  0  0  0
  -28.8940  -20.4690   20.5580 C   0  0  0  0  0  0  0  0  0  0  0  0
  -26.2370  -23.6550   19.4280 C   0  0  0  0  0  1  0  0  0  0  0  0
  -27.9480  -20.2590   19.6410 N   0  0  0  0  0  0  0  0  0  0  0  0
  -29.5460  -19.3280   21.0850 N   0  0  0  0  0  0  0  0  0  0  0  0
  -30.0870  -19.5360   21.9170 H   0  0  0  0  0  0  0  0  0  0  0  0
  -25.9720  -21.9320   17.0160 C   0  0  0  0  0  1  0  0  0  0  0  0
  -24.8100  -20.3250   18.6590 C   0  0  0  0  0  1  0  0  0  0  0  0
  -26.7000  -19.6020   17.2770 C   0  0  0  0  0  1  0  0  0  0  0  0
  -26.1600  -20.8190   18.0770 C   0  0  2  0  0  0  0  0  0  0  0  0
  -29.3730  -24.3200   22.5120 C   0  0  0  0  0  1  0  0  0  0  0  0
  -28.4920  -24.3240   21.2520 C   0  0  0  0  0  3  0  0  0  0  0  0
  -28.9830  -25.4560   20.2650 C   0  0  0  0  0  2  0  0  0  0  0  0
  -28.8240  -26.8460   20.6970 O   0  0  0  0  0  0  0  0  0  0  0  0
  -24.7750  -32.0900   23.3710 C   0  0  0  0  0  0  0  0  0  0  0  0
  -27.6330  -27.5590   20.5640 C   0  0  0  0  0  0  0  0  0  0  0  0
  -23.6660  -30.6040   21.7340 C   0  0  0  0  0  3  0  0  0  0  0  0
  -25.2080  -29.0530   20.4060 C   0  0  0  0  0  0  0  0  0  0  0  0
  -26.1920  -31.0030   21.6210 C   0  0  0  0  0  2  0  0  0  0  0  0
  -26.3280  -29.6070   21.0390 C   0  0  0  0  0  0  0  0  0  0  0  0
  -27.5320  -28.8620   21.1210 C   0  0  0  0  0  3  0  0  0  0  0  0
  -26.4960  -27.0480   19.8970 C   0  0  0  0  0  3  0  0  0  0  0  0
  -25.2920  -27.7770   19.8270 C   0  0  0  0  0  3  0  0  0  0  0  0
  -23.9400  -29.8790   20.3860 C   0  0  0  0  0  2  0  0  0  0  0  0
  -24.8940  -31.2520   22.3010 N   0  0  0  0  0  0  0  0  0  0  0  0
  -23.6670  -32.3560   23.8600 O   0  0  0  0  0  0  0  0  0  0  0  0
  -23.0010  -29.6020   22.7080 C   0  0  0  0  0  0  0  0  0  0  0  0
  -21.6930  -29.3600   22.5190 N   0  0  0  0  0  0  0  0  0  0  0  0
  -23.6640  -29.0480   23.5870 O   0  0  0  0  0  0  0  0  0  0  0  0
  -21.2170  -29.8610   21.7820 H   0  0  0  0  0  0  0  0  0  0  0  0
  -18.3440  -28.0610   22.9100 C   0  0  0  0  0  0  0  0  0  0  0  0
  -20.8740  -28.4210   23.2850 C   0  0  0  0  0  3  0  0  0  0  0  0
  -21.0500  -26.9720   22.7710 C   0  0  0  0  0  2  0  0  0  0  0  0
  -20.0140  -26.5750   21.7170 C   0  0  0  0  0  2  0  0  0  0  0  0
  -18.5970  -26.7010   22.2810 C   0  0  0  0  0  2  0  0  0  0  0  0
  -19.4140  -28.8750   23.3640 C   0  0  0  0  0  0  0  0  0  0  0  0
  -19.1260  -30.1480   23.9020 C   0  0  0  0  0  3  0  0  0  0  0  0
  -17.8000  -30.6070   23.9930 C   0  0  0  0  0  3  0  0  0  0  0  0
  -16.7440  -29.7910   23.5570 C   0  0  0  0  0  3  0  0  0  0  0  0
  -17.0150  -28.5200   23.0230 C   0  0  0  0  0  3  0  0  0  0  0  0
  -26.0190  -32.7750   24.0150 C   0  0  0  0  0  3  0  0  0  0  0  0
  -25.6620  -34.1720   24.3090 N   0  0  0  0  0  0  0  0  0  0  0  0
  -25.9700  -35.2160   23.5290 C   0  0  0  0  0  0  0  0  0  0  0  0
  -26.6530  -35.1060   22.5070 O   0  0  0  0  0  0  0  0  0  0  0  0
  -25.0610  -34.3340   25.1040 H   0  0  0  0  0  0  0  0  0  0  0  0
  -24.1840  -36.9350   23.0970 C   0  0  0  0  0  1  0  0  0  0  0  0
  -25.4280  -36.6000   23.9400 C   0  0  0  0  0  3  0  0  0  0  0  0
  -27.5100  -37.5880   24.7810 C   0  0  0  0  0  1  0  0  0  0  0  0
  -26.4250  -37.6850   23.8070 N   0  0  0  0  0  0  0  0  0  0  0  0
  -25.9860  -38.5980   23.9080 H   0  0  0  0  0  0  0  0  0  0  0  0
  -26.5220  -32.0440   25.3230 C   0  0  1  0  0  0  0  0  0  0  0  0
  -25.3960  -31.7450   26.3430 C   0  0  0  0  0  1  0  0  0  0  0  0
  -27.2070  -30.7040   24.9730 C   0  0  0  0  0  1  0  0  0  0  0  0
  -27.5940  -32.9130   26.0230 C   0  0  0  0  0  1  0  0  0  0  0  0
  -29.2940  -17.6650   19.1240 C   0  0  0  0  0  1  0  0  0  0  0  0
  -30.0870  -18.1510   20.3530 C   0  0  0  0  0  3  0  0  0  0  0  0
  -30.4650  -16.9930   21.3510 C   0  0  0  0  0  2  0  0  0  0  0  0
  -30.7800  -14.6560   20.3940 C   0  0  0  0  0  0  0  0  0  0  0  0
  -30.4890  -12.5460   19.1250 C   0  0  0  0  0  2  0  0  0  0  0  0
  -29.4980  -12.8020   17.9700 C   0  0  0  0  0  2  0  0  0  0  0  0
  -28.0380  -12.6520   18.4450 C   0  0  0  0  0  2  0  0  0  0  0  0
  -27.7500  -13.4070   19.7690 C   0  0  0  0  0  3  0  0  0  0  0  0
  -28.8420  -13.1000   20.8150 C   0  0  0  0  0  2  0  0  0  0  0  0
  -30.1320  -13.4700   20.2140 N   0  0  0  0  0  0  0  0  0  0  0  0
  -31.9000  -14.8860   19.9250 O   0  0  0  0  0  0  0  0  0  0  0  0
  -30.0550  -15.6170   20.9970 N   0  0  0  0  0  0  0  0  0  0  0  0
  -29.1250  -15.3440   21.2770 H   0  0  0  0  0  0  0  0  0  0  0  0
  -25.3590  -13.9580   20.5360 C   0  0  0  0  0  0  0  0  0  0  0  0
  -24.3120  -13.1640   20.9160 C   0  0  0  0  0  0  0  0  0  0  0  0
  -24.7920  -11.8180   20.8340 C   0  0  0  0  0  0  0  0  0  0  0  0
  -26.4130  -13.1010   20.2710 N   0  0  0  0  0  0  0  0  0  0  0  0
  -26.0760  -11.8050   20.4980 N   0  0  0  0  0  0  0  0  0  0  0  0
  -24.0840  -10.5400   21.0060 C   0  0  0  0  0  0  0  0  0  0  0  0
  -24.4880   -9.5960   21.9760 C   0  0  0  0  0  3  0  0  0  0  0  0
  -23.7840   -8.3830   22.1320 C   0  0  0  0  0  3  0  0  0  0  0  0
  -22.6590   -8.1050   21.3200 C   0  0  0  0  0  0  0  0  0  0  0  0
  -22.2710   -9.0390   20.3410 C   0  0  0  0  0  3  0  0  0  0  0  0
  -22.9780  -10.2430   20.1830 C   0  0  0  0  0  3  0  0  0  0  0  0
  -21.9290   -6.9450   21.3880 O   0  0  0  0  0  0  0  0  0  0  0  0
  -21.7760   -6.2590   22.5670 C   0  0  0  0  0  0  0  0  0  0  0  0
  -21.1240   -6.8270   23.6810 C   0  0  0  0  0  3  0  0  0  0  0  0
  -20.9250   -6.0600   24.8470 C   0  0  0  0  0  3  0  0  0  0  0  0
  -21.3720   -4.7260   24.8980 C   0  0  0  0  0  0  0  0  0  0  0  0
  -22.0190   -4.1580   23.7850 C   0  0  0  0  0  3  0  0  0  0  0  0
  -22.2160   -4.9220   22.6210 C   0  0  0  0  0  0  0  0  0  0  0  0
  -22.8230   -4.3630   21.5460 F   0  0  0  0  0  0  0  0  0  0  0  0
  -21.1770   -3.9850   26.0140 F   0  0  0  0  0  0  0  0  0  0  0  0
  -22.9140  -13.6090   21.2300 C   0  0  0  0  0  0  0  0  0  0  0  0
  -22.2120  -12.8680   22.0780 N   0  0  0  0  0  0  0  0  0  0  0  0
  -22.4530  -14.6520   20.7590 O   0  0  0  0  0  0  0  0  0  0  0  0
  -22.5970  -12.0220   22.4700 H   0  0  0  0  0  0  0  0  0  0  0  0
  -21.2750  -13.1440   22.3360 H   0  0  0  0  0  0  0  0  0  0  0  0
  -25.5000  -15.3350   20.3780 N   0  0  0  0  0  0  0  0  0  0  0  0
  -24.7180  -15.9770   20.4690 H   0  0  0  0  0  0  0  0  0  0  0  0
  -26.3180  -15.7690   19.9710 H   0  0  0  0  0  0  0  0  0  0  0  0
  2  1  1  0
  2 15  1  0
  3  2  2  0
  4  7  2  0
  4  3  1  0
  5  1  2  0
  5  8  1  0
  6  3  1  0
  7  5  1  0
  8  9  1  0
 13 10  1  6
 12 13  1  0
 13 11  1  0
 13  4  1  0
 15 14  1  0
 16 17  1  0
 16 15  1  0
 18 29  2  0
 19 17  1  0
 19 24  1  0
 20 28  1  0
 20 30  1  0
 21 23  1  0
 22 28  1  0
 23 24  2  0
 23 22  1  0
 25 19  2  0
 26 25  1  0
 26 21  2  0
 27 21  1  0
 27 20  1  0
 28 18  1  0
 30 32  2  0
 31 30  1  0
 33 31  1  0
 34 43  2  0
 34 39  1  0
 35 31  1  0
 35 39  1  0
 36 35  1  0
 37 38  1  0
 37 36  1  0
 38 34  1  0
 39 40  2  0
 40 41  1  0
 42 41  2  0
 43 42  1  0
 44 18  1  0
 44 45  1  0
 44 54  1  0
 45 48  1  0
 46 50  1  0
 46 45  1  0
 47 46  2  0
 50 49  1  0
 52 53  1  0
 52 50  1  0
 52 51  1  0
 54 57  1  1
 54 55  1  0
 56 54  1  0
 59 58  1  0
 59  8  1  0
 59 60  1  0
 61 69  1  0
 62 67  1  0
 63 64  1  0
 63 62  1  0
 65 64  1  0
 65 74  1  0
 65 66  1  0
 67 61  1  0
 67 66  1  0
 68 61  2  0
 69 70  1  0
 69 60  1  0
 71 72  2  0
 72 91  1  0
 73 72  1  0
 73 76  1  0
 74 75  1  0
 74 71  1  0
 75 73  2  0
 76 77  1  0
 77 78  2  0
 79 82  1  0
 79 78  1  0
 80 79  2  0
 81 80  1  0
 81 76  2  0
 82 83  1  0
 83 88  2  0
 83 84  1  0
 84 85  2  0
 85 86  1  0
 86 90  1  0
 87 86  2  0
 88 87  1  0
 89 88  1  0
 91 92  1  0
 92 95  1  0
 92 94  1  0
 93 91  2  0
 96 97  1  0
 96 71  1  0
 98 96  1  0
M  ISO  4  16 101  17 101  61 100  69 100
M  END
>  <TORSDO>  (84) 
F 21

>  <SCORE>  (84) 
-12.835

>  <name>  (84) 
83

>  <ligand_id>  (84) 
83

>  <original_smiles>  (84) 
[H]c1c([H])c([H])c2c(c1[H])C([H])([H])C([H])([H])C([H])([H])C2([H])N([H])C(=O)C1([H])N(C(=O)C([H])(N([H])C(=O)C([H])(N([H])C([H])([H])[H])C([H])([H])[H])C(C([H])([H])[H])(C([H])([H])[H])C([H])([H])[H])C([H])([H])c2c([H])c(OC([H])([H])C([H])(c3c([H])c(N([H])C([H])(C([H])([H])[H])C([H])([H])N([H])C(=O)N4C([H])([H])C([H])([H])C([H])([H])C([H])(n5nc(-c6c([H])c([H])c(Oc7c([H])c([H])c(F)c([H])c7F)c([H])c6[H])c(C(=O)N([H])[H])c5N([H])[H])C4([H])[H])nc(C(C([H])([H])[H])(C([H])([H])[H])C([H])([H])[H])c3C([H])([H])[H])C([H])([H])[H])c([H])c([H])c2C1([H])[H]

>  <smiles>  (84) 
[H]c1c([H])c([H])c2c(c1[H])C([H])([H])C([H])([H])C([H])([H])C2([H])N([H])C(=O)C1([H])N(C(=O)C([H])(N([H])C(=O)C([H])(N([H])C([H])([H])[H])C([H])([H])[H])C(C([H])([H])[H])(C([H])([H])[H])C([H])([H])[H])C([H])([H])c2c([H])c(OC([H])([H])C([H])(c3c([H])c(N([H])C([H])(C([H])([H])[H])C([H])([H])N([H])C(=O)N4C([H])([H])C([H])([H])C([H])([H])C([H])(n5nc(-c6c([H])c([H])c(Oc7c([H])c([H])c(F)c([H])c7F)c([H])c6[H])c(C(=O)N([H])[H])c5N([H])[H])C4([H])[H])nc(C(C([H])([H])[H])(C([H])([H])[H])C([H])([H])[H])c3C([H])([H])[H])C([H])([H])[H])c([H])c([H])c2C1([H])[H]

$$$$
84:0:0
     RDKit          3D

 84 91  0  0  1  0  0  0  0  0999 V2000
  -29.1070  -22.4300   20.0460 C   0  0  0  0  0  3  0  0  0  0  0  0
  -27.9920  -20.3100   21.2930 C   0  0  0  0  0  1  0  0  0  0  0  0
  -28.8740  -20.5250   20.0560 C   0  0  0  0  0  3  0  0  0  0  0  0
  -29.9310  -18.9220   19.9560 C   0  0  0  0  0  2  0  0  0  0  0  0
  -30.4430  -15.8140   19.9430 C   0  0  0  0  0  0  0  0  0  0  0  0
  -30.5330  -13.2810   19.1120 C   0  0  0  0  0  2  0  0  0  0  0  0
  -29.5950  -12.8590   17.9460 C   0  0  0  0  0  2  0  0  0  0  0  0
  -28.1960  -12.4840   18.4630 C   0  0  0  0  0  2  0  0  0  0  0  0
  -27.7110  -13.4800   19.5390 C   0  0  0  0  0  3  0  0  0  0  0  0
  -28.7880  -13.8060   20.6050 C   0  0  0  0  0  2  0  0  0  0  0  0
  -29.9210  -14.4490   19.8890 N   0  0  0  0  0  0  0  0  0  0  0  0
  -31.6760  -15.7570   19.7740 O   0  0  0  0  0  0  0  0  0  0  0  0
  -28.2300  -17.0310   19.9100 C   0  0  0  0  0  1  0  0  0  0  0  0
  -29.6750  -17.1760   19.9850 N   0  0  0  0  0  0  0  0  0  0  0  0
  -25.3780  -13.9950   20.4170 C   0  0  0  0  0  0  0  0  0  0  0  0
  -24.3380  -13.2030   20.8060 C   0  0  0  0  0  0  0  0  0  0  0  0
  -24.8130  -11.8580   20.7220 C   0  0  0  0  0  0  0  0  0  0  0  0
  -26.4180  -13.1350   20.1080 N   0  0  0  0  0  0  0  0  0  0  0  0
  -26.0920  -11.8400   20.3590 N   0  0  0  0  0  0  0  0  0  0  0  0
  -24.0980  -10.5890   20.9060 C   0  0  0  0  0  0  0  0  0  0  0  0
  -24.5020   -9.6500   21.8790 C   0  0  0  0  0  3  0  0  0  0  0  0
  -23.7840   -8.4470   22.0540 C   0  0  0  0  0  3  0  0  0  0  0  0
  -22.6490   -8.1760   21.2530 C   0  0  0  0  0  0  0  0  0  0  0  0
  -22.2630   -9.1060   20.2710 C   0  0  0  0  0  3  0  0  0  0  0  0
  -22.9830  -10.2990   20.0950 C   0  0  0  0  0  3  0  0  0  0  0  0
  -21.9060   -7.0210   21.3330 O   0  0  0  0  0  0  0  0  0  0  0  0
  -21.7230   -6.3660   22.5250 C   0  0  0  0  0  0  0  0  0  0  0  0
  -21.0860   -6.9830   23.6230 C   0  0  0  0  0  3  0  0  0  0  0  0
  -20.8540   -6.2510   24.8040 C   0  0  0  0  0  3  0  0  0  0  0  0
  -21.2490   -4.9030   24.8870 C   0  0  0  0  0  0  0  0  0  0  0  0
  -21.8800   -4.2850   23.7930 C   0  0  0  0  0  3  0  0  0  0  0  0
  -22.1130   -5.0150   22.6130 C   0  0  0  0  0  0  0  0  0  0  0  0
  -22.7020   -4.4090   21.5540 F   0  0  0  0  0  0  0  0  0  0  0  0
  -21.0210   -4.1960   26.0190 F   0  0  0  0  0  0  0  0  0  0  0  0
  -22.9510  -13.6690   21.1370 C   0  0  0  0  0  0  0  0  0  0  0  0
  -22.2580  -12.9550   22.0150 N   0  0  0  0  0  0  0  0  0  0  0  0
  -22.4930  -14.7050   20.6550 O   0  0  0  0  0  0  0  0  0  0  0  0
  -22.6420  -12.1180   22.4290 H   0  0  0  0  0  0  0  0  0  0  0  0
  -21.3310  -13.2540   22.2830 H   0  0  0  0  0  0  0  0  0  0  0  0
  -25.5110  -15.3700   20.2670 N   0  0  0  0  0  0  0  0  0  0  0  0
  -24.7370  -16.0040   20.4340 H   0  0  0  0  0  0  0  0  0  0  0  0
  -26.3420  -15.8380   19.9360 H   0  0  0  0  0  0  0  0  0  0  0  0
  -28.0790  -24.0520   20.0990 C   0  0  0  0  0  3  0  0  0  0  0  0
  -28.2570  -25.7820   20.1580 O   0  0  0  0  0  0  0  0  0  0  0  0
  -24.7070  -31.9050   23.2600 C   0  0  0  0  0  0  0  0  0  0  0  0
  -27.2560  -26.9550   20.1480 C   0  0  0  0  0  0  0  0  0  0  0  0
  -23.5180  -30.5450   21.5910 C   0  0  0  0  0  3  0  0  0  0  0  0
  -24.9680  -28.9410   20.1410 C   0  0  0  0  0  0  0  0  0  0  0  0
  -26.0920  -30.7160   21.4610 C   0  0  0  0  0  2  0  0  0  0  0  0
  -26.1620  -29.3030   20.7750 C   0  0  0  0  0  0  0  0  0  0  0  0
  -27.2920  -28.3380   20.7460 C   0  0  0  0  0  3  0  0  0  0  0  0
  -26.0230  -26.7880   19.4690 C   0  0  0  0  0  3  0  0  0  0  0  0
  -24.9330  -27.7090   19.4660 C   0  0  0  0  0  3  0  0  0  0  0  0
  -23.7550  -29.8810   20.2040 C   0  0  0  0  0  2  0  0  0  0  0  0
  -24.7960  -31.0860   22.1580 N   0  0  0  0  0  0  0  0  0  0  0  0
  -23.6150  -32.1880   23.7820 O   0  0  0  0  0  0  0  0  0  0  0  0
  -22.8090  -29.5410   22.5400 C   0  0  0  0  0  0  0  0  0  0  0  0
  -21.4850  -29.3520   22.3840 N   0  0  0  0  0  0  0  0  0  0  0  0
  -23.4620  -28.9290   23.3890 O   0  0  0  0  0  0  0  0  0  0  0  0
  -21.0060  -29.8980   21.6810 H   0  0  0  0  0  0  0  0  0  0  0  0
  -18.1220  -28.0410   22.8030 C   0  0  0  0  0  0  0  0  0  0  0  0
  -20.6650  -28.3890   23.1310 C   0  0  0  0  0  3  0  0  0  0  0  0
  -20.8250  -26.9610   22.5590 C   0  0  0  0  0  2  0  0  0  0  0  0
  -19.7600  -26.6070   21.5160 C   0  0  0  0  0  2  0  0  0  0  0  0
  -18.3580  -26.7030   22.1250 C   0  0  0  0  0  2  0  0  0  0  0  0
  -19.2040  -28.8400   23.2620 C   0  0  0  0  0  0  0  0  0  0  0  0
  -18.9260  -30.0870   23.8620 C   0  0  0  0  0  3  0  0  0  0  0  0
  -17.6000  -30.5400   24.0030 C   0  0  0  0  0  3  0  0  0  0  0  0
  -16.5330  -29.7420   23.5570 C   0  0  0  0  0  3  0  0  0  0  0  0
  -16.7950  -28.4940   22.9650 C   0  0  0  0  0  3  0  0  0  0  0  0
  -25.9710  -32.5420   23.9130 C   0  0  0  0  0  3  0  0  0  0  0  0
  -26.4530  -31.7710   25.2060 C   0  0  1  0  0  0  0  0  0  0  0  0
  -25.3360  -31.5460   26.2520 C   0  0  0  0  0  1  0  0  0  0  0  0
  -27.0340  -30.3860   24.8410 C   0  0  0  0  0  1  0  0  0  0  0  0
  -27.5950  -32.5580   25.8900 C   0  0  0  0  0  1  0  0  0  0  0  0
  -25.6570  -33.9430   24.2550 N   0  0  0  0  0  0  0  0  0  0  0  0
  -25.9590  -35.0070   23.4990 C   0  0  0  0  0  0  0  0  0  0  0  0
  -26.5900  -34.9140   22.4440 O   0  0  0  0  0  0  0  0  0  0  0  0
  -25.0870  -34.0860   25.0750 H   0  0  0  0  0  0  0  0  0  0  0  0
  -24.1950  -36.7930   23.2650 C   0  0  0  0  0  1  0  0  0  0  0  0
  -25.4910  -36.3950   23.9890 C   0  0  0  0  0  3  0  0  0  0  0  0
  -27.6610  -37.3160   24.6830 C   0  0  0  0  0  1  0  0  0  0  0  0
  -26.5040  -37.4600   23.8050 N   0  0  0  0  0  0  0  0  0  0  0  0
  -26.0940  -38.3760   23.9670 H   0  0  0  0  0  0  0  0  0  0  0  0
  1  3  1  0
  1 43  2  0
  3  2  1  0
  4 14  1  0
  4  3  1  0
  5 14  1  0
  6 11  1  0
  7  8  1  0
  7  6  1  0
  9  8  1  0
  9 18  1  0
  9 10  1  0
 11  5  1  0
 11 10  1  0
 12  5  2  0
 13 14  1  0
 15 16  2  0
 16 35  1  0
 17 16  1  0
 17 20  1  0
 18 19  1  0
 18 15  1  0
 19 17  2  0
 20 21  1  0
 21 22  2  0
 23 26  1  0
 23 22  1  0
 24 23  2  0
 25 24  1  0
 25 20  2  0
 26 27  1  0
 27 32  2  0
 27 28  1  0
 28 29  2  0
 29 30  1  0
 30 34  1  0
 31 30  2  0
 32 31  1  0
 33 32  1  0
 35 36  1  0
 36 39  1  0
 36 38  1  0
 37 35  2  0
 40 15  1  0
 40 41  1  0
 42 40  1  0
 43 44  1  0
 45 56  2  0
 46 44  1  0
 46 51  1  0
 47 55  1  0
 47 57  1  0
 48 54  1  0
 48 50  1  0
 49 55  1  0
 50 49  1  0
 51 50  2  0
 52 46  2  0
 53 52  1  0
 53 48  2  0
 54 47  1  0
 55 45  1  0
 57 59  2  0
 58 57  1  0
 60 58  1  0
 61 70  2  0
 61 66  1  0
 62 58  1  0
 62 66  1  0
 63 62  1  0
 64 65  1  0
 64 63  1  0
 65 61  1  0
 66 67  2  0
 67 68  1  0
 69 68  2  0
 70 69  1  0
 71 45  1  0
 71 76  1  0
 71 72  1  0
 72 75  1  1
 72 73  1  0
 74 72  1  0
 76 79  1  0
 77 81  1  0
 77 76  1  0
 78 77  2  0
 81 80  1  0
 83 84  1  0
 83 81  1  0
 83 82  1  0
M  ISO  4   5 100  14 100  43 101  44 101
M  END
>  <TORSDO>  (85) 
F 19

>  <SCORE>  (85) 
-15.358

>  <name>  (85) 
84

>  <ligand_id>  (85) 
84

>  <original_smiles>  (85) 
[H]c1c([H])c([H])c2c(c1[H])C([H])([H])C([H])([H])C([H])([H])C2([H])N([H])C(=O)C1([H])N(C(=O)C([H])(N([H])C(=O)C([H])(N([H])C([H])([H])[H])C([H])([H])[H])C(C([H])([H])[H])(C([H])([H])[H])C([H])([H])[H])C([H])([H])c2c([H])c(OC([H])([H])C([H])([H])C([H])(C([H])([H])[H])C([H])([H])N(C(=O)N3C([H])([H])C([H])([H])C([H])([H])C([H])(n4nc(-c5c([H])c([H])c(Oc6c([H])c([H])c(F)c([H])c6F)c([H])c5[H])c(C(=O)N([H])[H])c4N([H])[H])C3([H])[H])C([H])([H])[H])c([H])c([H])c2C1([H])[H]

>  <smiles>  (85) 
[H]c1c([H])c([H])c2c(c1[H])C([H])([H])C([H])([H])C([H])([H])C2([H])N([H])C(=O)C1([H])N(C(=O)C([H])(N([H])C(=O)C([H])(N([H])C([H])([H])[H])C([H])([H])[H])C(C([H])([H])[H])(C([H])([H])[H])C([H])([H])[H])C([H])([H])c2c([H])c(OC([H])([H])C([H])([H])C([H])(C([H])([H])[H])C([H])([H])N(C(=O)N3C([H])([H])C([H])([H])C([H])([H])C([H])(n4nc(-c5c([H])c([H])c(Oc6c([H])c([H])c(F)c([H])c6F)c([H])c5[H])c(C(=O)N([H])[H])c4N([H])[H])C3([H])[H])C([H])([H])[H])c([H])c([H])c2C1([H])[H]

$$$$
85:0:0
     RDKit          3D

 95102  0  0  1  0  0  0  0  0999 V2000
  -31.9690  -23.5920   18.7480 C   0  0  0  0  0  1  0  0  0  0  0  0
  -29.8220  -23.5580   17.4290 C   0  0  0  0  0  1  0  0  0  0  0  0
  -30.4160  -23.7550   18.8470 C   0  0  2  0  0  0  0  0  0  0  0  0
  -30.5950  -26.3480   18.4220 C   0  0  0  0  0  1  0  0  0  0  0  0
  -30.6530  -25.4260   20.7800 C   0  0  0  0  0  1  0  0  0  0  0  0
  -30.0540  -25.2240   19.3630 C   0  0  2  0  0  0  0  0  0  0  0  0
  -28.5210  -25.5190   19.4150 C   0  0  0  0  0  2  0  0  0  0  0  0
  -28.3810  -26.7580   20.1070 O   0  0  0  0  0  0  0  0  0  0  0  0
  -24.6270  -31.8780   23.2140 C   0  0  0  0  0  0  0  0  0  0  0  0
  -27.1880  -27.4280   20.1100 C   0  0  0  0  0  0  0  0  0  0  0  0
  -23.3910  -30.4790   21.5930 C   0  0  0  0  0  3  0  0  0  0  0  0
  -24.8070  -28.9340   20.1500 C   0  0  0  0  0  0  0  0  0  0  0  0
  -25.9130  -30.8230   21.3640 C   0  0  0  0  0  2  0  0  0  0  0  0
  -25.9720  -29.4530   20.7300 C   0  0  0  0  0  0  0  0  0  0  0  0
  -27.1610  -28.7000   20.7140 C   0  0  0  0  0  3  0  0  0  0  0  0
  -26.0010  -26.9030   19.5490 C   0  0  0  0  0  3  0  0  0  0  0  0
  -24.8160  -27.6590   19.5610 C   0  0  0  0  0  3  0  0  0  0  0  0
  -23.5720  -29.8020   20.2080 C   0  0  0  0  0  2  0  0  0  0  0  0
  -24.6620  -31.0770   22.1140 N   0  0  0  0  0  0  0  0  0  0  0  0
  -23.5540  -32.1550   23.7700 O   0  0  0  0  0  0  0  0  0  0  0  0
  -22.7580  -29.4560   22.5630 C   0  0  0  0  0  0  0  0  0  0  0  0
  -21.4330  -29.2720   22.4550 N   0  0  0  0  0  0  0  0  0  0  0  0
  -23.4540  -28.8300   23.3710 O   0  0  0  0  0  0  0  0  0  0  0  0
  -20.9350  -29.8270   21.7720 H   0  0  0  0  0  0  0  0  0  0  0  0
  -18.0650  -28.0730   22.9740 C   0  0  0  0  0  0  0  0  0  0  0  0
  -20.6230  -28.3380   23.2360 C   0  0  0  0  0  3  0  0  0  0  0  0
  -20.7270  -26.9030   22.6690 C   0  0  0  0  0  2  0  0  0  0  0  0
  -19.6220  -26.5710   21.6620 C   0  0  0  0  0  2  0  0  0  0  0  0
  -18.2420  -26.7180   22.3100 C   0  0  0  0  0  2  0  0  0  0  0  0
  -19.1840  -28.8410   23.3950 C   0  0  0  0  0  0  0  0  0  0  0  0
  -18.9650  -30.1080   23.9750 C   0  0  0  0  0  3  0  0  0  0  0  0
  -17.6600  -30.6100   24.1400 C   0  0  0  0  0  3  0  0  0  0  0  0
  -16.5550  -29.8390   23.7390 C   0  0  0  0  0  3  0  0  0  0  0  0
  -16.7590  -28.5730   23.1610 C   0  0  0  0  0  3  0  0  0  0  0  0
  -25.9250  -32.5040   23.8110 C   0  0  0  0  0  3  0  0  0  0  0  0
  -25.6180  -33.8970   24.1650 N   0  0  0  0  0  0  0  0  0  0  0  0
  -25.9270  -34.9600   23.4110 C   0  0  0  0  0  0  0  0  0  0  0  0
  -26.5760  -34.8730   22.3640 O   0  0  0  0  0  0  0  0  0  0  0  0
  -25.0350  -34.0360   24.9770 H   0  0  0  0  0  0  0  0  0  0  0  0
  -24.1770  -36.7430   23.1160 C   0  0  0  0  0  1  0  0  0  0  0  0
  -25.4410  -36.3410   23.8920 C   0  0  0  0  0  3  0  0  0  0  0  0
  -27.5910  -37.2290   24.6770 C   0  0  0  0  0  1  0  0  0  0  0  0
  -26.4620  -37.4020   23.7670 N   0  0  0  0  0  0  0  0  0  0  0  0
  -26.0530  -38.3160   23.9370 H   0  0  0  0  0  0  0  0  0  0  0  0
  -26.4720  -31.7210   25.0680 C   0  0  1  0  0  0  0  0  0  0  0  0
  -25.4020  -31.4720   26.1570 C   0  0  0  0  0  1  0  0  0  0  0  0
  -27.0460  -30.3480   24.6480 C   0  0  0  0  0  1  0  0  0  0  0  0
  -27.6380  -32.5080   25.7130 C   0  0  0  0  0  1  0  0  0  0  0  0
  -29.9010  -22.6250   19.8250 C   0  0  0  0  0  2  0  0  0  0  0  0
  -30.8680  -20.4800   18.6530 C   0  0  0  0  0  1  0  0  0  0  0  0
  -29.6400  -21.1770   19.2880 C   0  0  0  0  0  3  0  0  0  0  0  0
  -29.1190  -20.2630   20.4200 C   0  0  0  0  0  2  0  0  0  0  0  0
  -28.8360  -18.9180   19.8660 N   0  0  0  0  0  4  0  0  0  0  0  0
  -27.9390  -18.9030   19.4010 H   0  0  0  0  0  0  0  0  0  0  0  0
  -29.5330  -18.7900   19.1460 H   0  0  0  0  0  0  0  0  0  0  0  0
  -28.9730  -17.7610   20.7730 C   0  0  0  0  0  2  0  0  0  0  0  0
  -30.0190  -16.7700   20.2210 C   0  0  0  0  0  2  0  0  0  0  0  0
  -30.6790  -14.4160   20.4490 C   0  0  0  0  0  0  0  0  0  0  0  0
  -30.3600  -12.2440   19.3510 C   0  0  0  0  0  2  0  0  0  0  0  0
  -29.4350  -12.4870   18.1410 C   0  0  0  0  0  2  0  0  0  0  0  0
  -27.9530  -12.3780   18.5580 C   0  0  0  0  0  2  0  0  0  0  0  0
  -27.6230  -13.2000   19.8350 C   0  0  0  0  0  3  0  0  0  0  0  0
  -28.6780  -12.9720   20.9450 C   0  0  0  0  0  2  0  0  0  0  0  0
  -30.0100  -13.2380   20.3740 N   0  0  0  0  0  0  0  0  0  0  0  0
  -31.7940  -14.6040   19.9590 O   0  0  0  0  0  0  0  0  0  0  0  0
  -29.9330  -15.4500   20.8500 N   0  0  0  0  0  0  0  0  0  0  0  0
  -29.0680  -15.2080   21.3090 H   0  0  0  0  0  0  0  0  0  0  0  0
  -25.2240  -13.8210   20.5390 C   0  0  0  0  0  0  0  0  0  0  0  0
  -24.1560  -13.0580   20.9200 C   0  0  0  0  0  0  0  0  0  0  0  0
  -24.6110  -11.7020   20.8930 C   0  0  0  0  0  0  0  0  0  0  0  0
  -26.2660  -12.9360   20.3120 N   0  0  0  0  0  0  0  0  0  0  0  0
  -25.8990  -11.6560   20.5770 N   0  0  0  0  0  0  0  0  0  0  0  0
  -23.8820  -10.4450   21.0890 C   0  0  0  0  0  0  0  0  0  0  0  0
  -24.3350   -9.4630   21.9960 C   0  0  0  0  0  3  0  0  0  0  0  0
  -23.6070   -8.2680   22.1850 C   0  0  0  0  0  3  0  0  0  0  0  0
  -22.4100   -8.0460   21.4640 C   0  0  0  0  0  0  0  0  0  0  0  0
  -21.9730   -9.0150   20.5430 C   0  0  0  0  0  3  0  0  0  0  0  0
  -22.7040  -10.2030   20.3530 C   0  0  0  0  0  3  0  0  0  0  0  0
  -21.6490   -6.9050   21.5620 O   0  0  0  0  0  0  0  0  0  0  0  0
  -21.6560   -6.1310   22.6930 C   0  0  0  0  0  0  0  0  0  0  0  0
  -21.3220   -6.6590   23.9610 C   0  0  0  0  0  3  0  0  0  0  0  0
  -21.2740   -5.8120   25.0840 C   0  0  0  0  0  3  0  0  0  0  0  0
  -21.5410   -4.4380   24.9460 C   0  0  0  0  0  0  0  0  0  0  0  0
  -21.8650   -3.9100   23.6850 C   0  0  0  0  0  3  0  0  0  0  0  0
  -21.9180   -4.7510   22.5620 C   0  0  0  0  0  0  0  0  0  0  0  0
  -22.2100   -4.2320   21.3450 F   0  0  0  0  0  0  0  0  0  0  0  0
  -21.4860   -3.6220   26.0250 F   0  0  0  0  0  0  0  0  0  0  0  0
  -22.7600  -13.5380   21.1970 C   0  0  0  0  0  0  0  0  0  0  0  0
  -22.0390  -12.8510   22.0730 N   0  0  0  0  0  0  0  0  0  0  0  0
  -22.3210  -14.5580   20.6670 O   0  0  0  0  0  0  0  0  0  0  0  0
  -22.4060  -12.0250   22.5190 H   0  0  0  0  0  0  0  0  0  0  0  0
  -21.0980  -13.1540   22.2940 H   0  0  0  0  0  0  0  0  0  0  0  0
  -25.3930  -15.1910   20.3480 N   0  0  0  0  0  0  0  0  0  0  0  0
  -24.6140  -15.8360   20.4030 H   0  0  0  0  0  0  0  0  0  0  0  0
  -26.2130  -15.6070   19.9240 H   0  0  0  0  0  0  0  0  0  0  0  0
  3  1  1  6
  2  3  1  0
  3  6  1  0
  3 49  1  0
  6  4  1  6
  6  7  1  0
  6  5  1  0
  7  8  1  0
  8 10  1  0
  9 20  2  0
 10 15  1  0
 11 19  1  0
 11 21  1  0
 12 18  1  0
 12 14  1  0
 13 19  1  0
 14 13  1  0
 15 14  2  0
 16 17  1  0
 16 10  2  0
 17 12  2  0
 18 11  1  0
 19  9  1  0
 21 23  2  0
 22 21  1  0
 24 22  1  0
 25 34  2  0
 25 30  1  0
 26 22  1  0
 26 30  1  0
 27 26  1  0
 28 29  1  0
 28 27  1  0
 29 25  1  0
 30 31  2  0
 31 32  1  0
 33 32  2  0
 34 33  1  0
 35  9  1  0
 35 36  1  0
 35 45  1  0
 36 39  1  0
 37 41  1  0
 37 36  1  0
 38 37  2  0
 41 40  1  0
 43 41  1  0
 43 44  1  0
 43 42  1  0
 45 48  1  1
 45 46  1  0
 47 45  1  0
 51 50  1  0
 51 49  1  0
 51 52  1  0
 53 52  1  0
 53 56  1  0
 54 53  1  0
 55 53  1  0
 57 56  1  0
 57 66  1  0
 58 66  1  0
 59 64  1  0
 60 61  1  0
 60 59  1  0
 62 61  1  0
 62 71  1  0
 62 63  1  0
 64 58  1  0
 64 63  1  0
 65 58  2  0
 66 67  1  0
 68 69  2  0
 69 88  1  0
 70 69  1  0
 70 73  1  0
 71 68  1  0
 71 72  1  0
 72 70  2  0
 73 74  1  0
 74 75  2  0
 76 79  1  0
 76 75  1  0
 77 76  2  0
 78 77  1  0
 78 73  2  0
 79 80  1  0
 80 81  1  0
 81 82  2  0
 83 82  1  0
 83 87  1  0
 84 83  2  0
 85 80  2  0
 85 84  1  0
 86 85  1  0
 88 89  1  0
 89 92  1  0
 89 91  1  0
 90 88  2  0
 93 94  1  0
 93 68  1  0
 95 93  1  0
M  ISO  4   7 101   8 101  58 100  66 100
M  END
>  <TORSDO>  (86) 
F 24

>  <SCORE>  (86) 
-12.407

>  <name>  (86) 
85

>  <ligand_id>  (86) 
85

>  <original_smiles>  (86) 
[H]c1c([H])c([H])c2c(c1[H])C([H])([H])C([H])([H])C([H])([H])C2([H])N([H])C(=O)C1([H])N(C(=O)C([H])(N([H])C(=O)C([H])(N([H])C([H])([H])[H])C([H])([H])[H])C(C([H])([H])[H])(C([H])([H])[H])C([H])([H])[H])C([H])([H])c2c([H])c(OC([H])([H])C(C([H])([H])[H])(C([H])([H])[H])C(C([H])([H])[H])(C([H])([H])[H])C([H])([H])C([H])(C([H])([H])[H])C([H])([H])[N+]([H])([H])C([H])([H])C([H])([H])N([H])C(=O)N3C([H])([H])C([H])([H])C([H])([H])C([H])(n4nc(-c5c([H])c([H])c(Oc6c([H])c([H])c(F)c([H])c6F)c([H])c5[H])c(C(=O)N([H])[H])c4N([H])[H])C3([H])[H])c([H])c([H])c2C1([H])[H]

>  <smiles>  (86) 
[H]c1c([H])c([H])c2c(c1[H])C([H])([H])C([H])([H])C([H])([H])C2([H])N([H])C(=O)C1([H])N(C(=O)C([H])(N([H])C(=O)C([H])(N([H])C([H])([H])[H])C([H])([H])[H])C(C([H])([H])[H])(C([H])([H])[H])C([H])([H])[H])C([H])([H])c2c([H])c(OC([H])([H])C(C([H])([H])[H])(C([H])([H])[H])C(C([H])([H])[H])(C([H])([H])[H])C([H])([H])C([H])(C([H])([H])[H])C([H])([H])[N+]([H])([H])C([H])([H])C([H])([H])N([H])C(=O)N3C([H])([H])C([H])([H])C([H])([H])C([H])(n4nc(-c5c([H])c([H])c(Oc6c([H])c([H])c(F)c([H])c6F)c([H])c5[H])c(C(=O)N([H])[H])c4N([H])[H])C3([H])[H])c([H])c([H])c2C1([H])[H]

$$$$
86:0:0
     RDKit          3D

 98106  0  0  1  0  0  0  0  0999 V2000
  -30.1180  -18.4720   20.5510 C   0  0  0  0  0  3  0  0  0  0  0  0
  -31.1790  -18.7560   18.2250 C   0  0  0  0  0  3  0  0  0  0  0  0
  -32.6000  -18.9840   20.1610 C   0  0  0  0  0  3  0  0  0  0  0  0
  -31.3270  -18.7030   19.6290 C   0  0  0  0  0  0  0  0  0  0  0  0
  -32.2620  -19.1940   17.4340 C   0  0  0  0  0  0  0  0  0  0  0  0
  -33.4750  -19.5220   18.0740 C   0  0  0  0  0  0  0  0  0  0  0  0
  -32.0920  -19.3350   15.9290 C   0  0  0  0  0  1  0  0  0  0  0  0
  -33.6420  -19.4000   19.4080 N   0  0  0  0  0  0  0  0  0  0  0  0
  -34.5980  -21.6500   17.2720 C   0  0  0  0  0  1  0  0  0  0  0  0
  -34.6570  -20.1170   17.3180 C   0  0  0  0  0  2  0  0  0  0  0  0
  -29.1590  -19.6700   20.4290 N   0  0  0  0  0  4  0  0  0  0  0  0
  -28.6450  -19.5620   19.5710 H   0  0  0  0  0  0  0  0  0  0  0  0
  -28.4900  -19.5740   21.1790 H   0  0  0  0  0  0  0  0  0  0  0  0
  -29.6570  -21.1210   20.4650 C   0  0  0  0  0  2  0  0  0  0  0  0
  -27.4770  -22.0280   19.4020 C   0  0  0  0  0  1  0  0  0  0  0  0
  -28.5520  -22.3000   20.4770 C   0  0  0  0  0  3  0  0  0  0  0  0
  -29.0590  -23.8310   20.3620 C   0  0  0  0  0  3  0  0  0  0  0  0
  -28.0300  -25.0210   20.6860 C   0  0  0  0  0  3  0  0  0  0  0  0
  -28.3120  -26.4400   20.3210 O   0  0  0  0  0  0  0  0  0  0  0  0
  -24.6130  -31.9320   23.2480 C   0  0  0  0  0  0  0  0  0  0  0  0
  -27.2110  -27.3180   20.2580 C   0  0  0  0  0  0  0  0  0  0  0  0
  -23.4050  -30.5160   21.6270 C   0  0  0  0  0  3  0  0  0  0  0  0
  -24.8540  -28.9460   20.2220 C   0  0  0  0  0  0  0  0  0  0  0  0
  -25.9480  -30.8200   21.4440 C   0  0  0  0  0  2  0  0  0  0  0  0
  -26.0220  -29.4330   20.8160 C   0  0  0  0  0  0  0  0  0  0  0  0
  -27.2030  -28.6290   20.8310 C   0  0  0  0  0  3  0  0  0  0  0  0
  -26.0280  -26.9030   19.6090 C   0  0  0  0  0  3  0  0  0  0  0  0
  -24.8580  -27.6860   19.6110 C   0  0  0  0  0  3  0  0  0  0  0  0
  -23.6110  -29.8140   20.2610 C   0  0  0  0  0  2  0  0  0  0  0  0
  -24.6740  -31.1080   22.1610 N   0  0  0  0  0  0  0  0  0  0  0  0
  -23.5280  -32.2220   23.7790 O   0  0  0  0  0  0  0  0  0  0  0  0
  -22.7450  -29.5130   22.5990 C   0  0  0  0  0  0  0  0  0  0  0  0
  -21.4210  -29.3330   22.4680 N   0  0  0  0  0  0  0  0  0  0  0  0
  -23.4230  -28.8960   23.4250 O   0  0  0  0  0  0  0  0  0  0  0  0
  -20.9380  -29.8770   21.7660 H   0  0  0  0  0  0  0  0  0  0  0  0
  -18.0380  -28.1580   22.9730 C   0  0  0  0  0  0  0  0  0  0  0  0
  -20.5960  -28.4080   23.2460 C   0  0  0  0  0  3  0  0  0  0  0  0
  -20.6970  -26.9710   22.6850 C   0  0  0  0  0  2  0  0  0  0  0  0
  -19.5950  -26.6390   21.6740 C   0  0  0  0  0  2  0  0  0  0  0  0
  -18.2110  -26.8000   22.3130 C   0  0  0  0  0  2  0  0  0  0  0  0
  -19.1590  -28.9190   23.3960 C   0  0  0  0  0  0  0  0  0  0  0  0
  -18.9470  -30.1890   23.9730 C   0  0  0  0  0  3  0  0  0  0  0  0
  -17.6440  -30.6960   24.1360 C   0  0  0  0  0  3  0  0  0  0  0  0
  -16.5360  -29.9300   23.7340 C   0  0  0  0  0  3  0  0  0  0  0  0
  -16.7340  -28.6630   23.1560 C   0  0  0  0  0  3  0  0  0  0  0  0
  -25.8960  -32.5710   23.8650 C   0  0  0  0  0  3  0  0  0  0  0  0
  -25.5830  -33.9680   24.1950 N   0  0  0  0  0  0  0  0  0  0  0  0
  -25.9050  -35.0210   23.4330 C   0  0  0  0  0  0  0  0  0  0  0  0
  -26.5690  -34.9170   22.3980 O   0  0  0  0  0  0  0  0  0  0  0  0
  -24.9920  -34.1210   24.9980 H   0  0  0  0  0  0  0  0  0  0  0  0
  -24.1630  -36.8030   23.0860 C   0  0  0  0  0  1  0  0  0  0  0  0
  -25.4130  -36.4080   23.8910 C   0  0  0  0  0  3  0  0  0  0  0  0
  -27.5490  -37.3010   24.7050 C   0  0  0  0  0  1  0  0  0  0  0  0
  -26.4390  -37.4670   23.7720 N   0  0  0  0  0  0  0  0  0  0  0  0
  -26.0280  -38.3860   23.9230 H   0  0  0  0  0  0  0  0  0  0  0  0
  -26.4160  -31.8070   25.1450 C   0  0  1  0  0  0  0  0  0  0  0  0
  -25.3240  -31.5710   26.2140 C   0  0  0  0  0  1  0  0  0  0  0  0
  -27.0080  -30.4320   24.7610 C   0  0  0  0  0  1  0  0  0  0  0  0
  -27.5660  -32.6090   25.8010 C   0  0  0  0  0  1  0  0  0  0  0  0
  -29.4120  -17.0430   20.3000 C   0  0  0  0  0  2  0  0  0  0  0  0
  -30.5900  -14.6910   20.4080 C   0  0  0  0  0  0  0  0  0  0  0  0
  -30.3730  -12.4460   19.3550 C   0  0  0  0  0  2  0  0  0  0  0  0
  -29.4240  -12.5790   18.1420 C   0  0  0  0  0  2  0  0  0  0  0  0
  -27.9490  -12.4300   18.5660 C   0  0  0  0  0  2  0  0  0  0  0  0
  -27.5970  -13.2810   19.8160 C   0  0  0  0  0  3  0  0  0  0  0  0
  -28.6630  -13.1190   20.9290 C   0  0  0  0  0  2  0  0  0  0  0  0
  -29.9780  -13.4600   20.3590 N   0  0  0  0  0  0  0  0  0  0  0  0
  -31.6930  -14.8790   19.8930 O   0  0  0  0  0  0  0  0  0  0  0  0
  -29.8570  -15.7300   20.9140 N   0  0  0  0  0  0  0  0  0  0  0  0
  -29.1650  -15.3750   21.5570 H   0  0  0  0  0  0  0  0  0  0  0  0
  -25.2020  -13.8800   20.5300 C   0  0  0  0  0  0  0  0  0  0  0  0
  -24.1360  -13.1070   20.9040 C   0  0  0  0  0  0  0  0  0  0  0  0
  -24.5980  -11.7550   20.8740 C   0  0  0  0  0  0  0  0  0  0  0  0
  -26.2480  -12.9980   20.3020 N   0  0  0  0  0  0  0  0  0  0  0  0
  -25.8890  -11.7150   20.5680 N   0  0  0  0  0  0  0  0  0  0  0  0
  -23.8690  -10.4930   21.0660 C   0  0  0  0  0  0  0  0  0  0  0  0
  -24.3140   -9.5180   21.9860 C   0  0  0  0  0  3  0  0  0  0  0  0
  -23.5860   -8.3220   22.1680 C   0  0  0  0  0  3  0  0  0  0  0  0
  -22.3990   -8.0940   21.4330 C   0  0  0  0  0  0  0  0  0  0  0  0
  -21.9750   -9.0560   20.5010 C   0  0  0  0  0  3  0  0  0  0  0  0
  -22.7020  -10.2440   20.3170 C   0  0  0  0  0  3  0  0  0  0  0  0
  -21.6420   -6.9500   21.5260 O   0  0  0  0  0  0  0  0  0  0  0  0
  -21.6240   -6.1900   22.6680 C   0  0  0  0  0  0  0  0  0  0  0  0
  -21.2370   -6.7260   23.9150 C   0  0  0  0  0  3  0  0  0  0  0  0
  -21.1660   -5.8940   25.0490 C   0  0  0  0  0  3  0  0  0  0  0  0
  -21.4690   -4.5230   24.9380 C   0  0  0  0  0  0  0  0  0  0  0  0
  -21.8460   -3.9850   23.6930 C   0  0  0  0  0  3  0  0  0  0  0  0
  -21.9200   -4.8170   22.5620 C   0  0  0  0  0  0  0  0  0  0  0  0
  -22.2630   -4.2890   21.3620 F   0  0  0  0  0  0  0  0  0  0  0  0
  -21.3920   -3.7190   26.0240 F   0  0  0  0  0  0  0  0  0  0  0  0
  -22.7380  -13.5850   21.1730 C   0  0  0  0  0  0  0  0  0  0  0  0
  -22.0100  -12.8920   22.0410 N   0  0  0  0  0  0  0  0  0  0  0  0
  -22.2990  -14.6060   20.6470 O   0  0  0  0  0  0  0  0  0  0  0  0
  -22.3770  -12.0650   22.4880 H   0  0  0  0  0  0  0  0  0  0  0  0
  -21.0700  -13.1930   22.2580 H   0  0  0  0  0  0  0  0  0  0  0  0
  -25.3650  -15.2490   20.3410 N   0  0  0  0  0  0  0  0  0  0  0  0
  -24.5890  -15.8990   20.4150 H   0  0  0  0  0  0  0  0  0  0  0  0
  -26.2050  -15.6760   19.9750 H   0  0  0  0  0  0  0  0  0  0  0  0
  1 60  1  0
  2  4  1  0
  4  3  2  0
  4  1  1  0
  5  6  1  0
  5  2  2  0
  6  8  2  0
  7  5  1  0
  8  3  1  0
  9 10  1  0
 10  6  1  0
 11 14  1  0
 11  1  1  0
 11 13  1  0
 12 11  1  0
 14 16  1  0
 16 15  1  0
 17 16  1  0
 17 18  2  0
 19 18  1  0
 20 31  2  0
 21 19  1  0
 21 26  1  0
 22 30  1  0
 22 32  1  0
 23 29  1  0
 23 25  1  0
 24 30  1  0
 25 26  2  0
 25 24  1  0
 27 28  1  0
 27 21  2  0
 28 23  2  0
 29 22  1  0
 30 20  1  0
 32 34  2  0
 33 32  1  0
 35 33  1  0
 36 45  2  0
 36 41  1  0
 37 33  1  0
 37 41  1  0
 38 37  1  0
 39 40  1  0
 39 38  1  0
 40 36  1  0
 41 42  2  0
 42 43  1  0
 44 43  2  0
 45 44  1  0
 46 20  1  0
 46 47  1  0
 46 56  1  0
 47 50  1  0
 48 52  1  0
 48 47  1  0
 49 48  2  0
 52 51  1  0
 54 52  1  0
 54 55  1  0
 54 53  1  0
 56 59  1  1
 56 57  1  0
 58 56  1  0
 60 69  1  0
 61 69  1  0
 62 67  1  0
 63 64  1  0
 63 62  1  0
 65 64  1  0
 65 74  1  0
 65 66  1  0
 67 61  1  0
 67 66  1  0
 68 61  2  0
 69 70  1  0
 71 72  2  0
 72 91  1  0
 73 72  1  0
 73 76  1  0
 74 71  1  0
 74 75  1  0
 75 73  2  0
 76 77  1  0
 77 78  2  0
 79 82  1  0
 79 78  1  0
 80 79  2  0
 81 80  1  0
 81 76  2  0
 82 83  1  0
 83 84  1  0
 84 85  2  0
 86 85  1  0
 86 90  1  0
 87 86  2  0
 88 83  2  0
 88 87  1  0
 89 88  1  0
 91 92  1  0
 92 95  1  0
 92 94  1  0
 93 91  2  0
 96 97  1  0
 96 71  1  0
 98 96  1  0
M  ISO  4  18 101  19 101  61 100  69 100
M  END
>  <TORSDO>  (87) 
F 24

>  <SCORE>  (87) 
-12.694

>  <name>  (87) 
86

>  <ligand_id>  (87) 
86

>  <original_smiles>  (87) 
[H]c1nc(C([H])([H])C([H])([H])[H])c(C([H])([H])[H])c([H])c1C([H])(C([H])([H])N([H])C(=O)N1C([H])([H])C([H])([H])C([H])([H])C([H])(n2nc(-c3c([H])c([H])c(Oc4c([H])c([H])c(F)c([H])c4F)c([H])c3[H])c(C(=O)N([H])[H])c2N([H])[H])C1([H])[H])[N+]([H])([H])C([H])([H])C([H])(C([H])([H])[H])C([H])([H])C([H])([H])Oc1c([H])c([H])c2c(c1[H])C([H])([H])N(C(=O)C([H])(N([H])C(=O)C([H])(N([H])C([H])([H])[H])C([H])([H])[H])C(C([H])([H])[H])(C([H])([H])[H])C([H])([H])[H])C([H])(C(=O)N([H])C1([H])c3c([H])c([H])c([H])c([H])c3C([H])([H])C([H])([H])C1([H])[H])C2([H])[H]

>  <smiles>  (87) 
[H]c1nc(C([H])([H])C([H])([H])[H])c(C([H])([H])[H])c([H])c1C([H])(C([H])([H])N([H])C(=O)N1C([H])([H])C([H])([H])C([H])([H])C([H])(n2nc(-c3c([H])c([H])c(Oc4c([H])c([H])c(F)c([H])c4F)c([H])c3[H])c(C(=O)N([H])[H])c2N([H])[H])C1([H])[H])[N+]([H])([H])C([H])([H])C([H])(C([H])([H])[H])C([H])([H])C([H])([H])Oc1c([H])c([H])c2c(c1[H])C([H])([H])N(C(=O)C([H])(N([H])C(=O)C([H])(N([H])C([H])([H])[H])C([H])([H])[H])C(C([H])([H])[H])(C([H])([H])[H])C([H])([H])[H])C([H])(C(=O)N([H])C1([H])c3c([H])c([H])c([H])c([H])c3C([H])([H])C([H])([H])C1([H])[H])C2([H])[H]

$$$$
87:0:0
     RDKit          3D

 95103  0  0  1  0  0  0  0  0999 V2000
  -27.7590  -21.5850   19.4630 C   0  0  0  0  0  3  0  0  0  0  0  0
  -28.1480  -19.4110   19.2960 C   0  0  0  0  0  3  0  0  0  0  0  0
  -27.2730  -20.3790   18.9050 C   0  0  0  0  0  0  0  0  0  0  0  0
  -28.8980  -21.3610   20.1860 C   0  0  0  0  0  0  0  0  0  0  0  0
  -29.1270  -19.9140   20.1510 N   0  0  0  0  0  0  0  0  0  0  0  0
  -30.3290  -22.1460   22.1350 C   0  0  0  0  0  1  0  0  0  0  0  0
  -29.6770  -22.5700   20.8080 C   0  0  0  0  0  3  0  0  0  0  0  0
  -28.9140  -24.0120   21.0370 C   0  0  0  0  0  2  0  0  0  0  0  0
  -28.9060  -25.2520   19.9970 C   0  0  0  0  0  2  0  0  0  0  0  0
  -28.7700  -26.6850   20.4470 O   0  0  0  0  0  0  0  0  0  0  0  0
  -24.7470  -31.9570   23.3470 C   0  0  0  0  0  0  0  0  0  0  0  0
  -27.6140  -27.4910   20.3350 C   0  0  0  0  0  0  0  0  0  0  0  0
  -23.6570  -30.5600   21.6270 C   0  0  0  0  0  3  0  0  0  0  0  0
  -25.2110  -29.0680   20.2380 C   0  0  0  0  0  0  0  0  0  0  0  0
  -26.1930  -30.9390   21.5670 C   0  0  0  0  0  2  0  0  0  0  0  0
  -26.3380  -29.5710   20.8980 C   0  0  0  0  0  0  0  0  0  0  0  0
  -27.5380  -28.7940   20.9330 C   0  0  0  0  0  3  0  0  0  0  0  0
  -26.4610  -27.0440   19.6550 C   0  0  0  0  0  3  0  0  0  0  0  0
  -25.2780  -27.8140   19.6070 C   0  0  0  0  0  3  0  0  0  0  0  0
  -23.9510  -29.9130   20.2460 C   0  0  0  0  0  2  0  0  0  0  0  0
  -24.8820  -31.1710   22.2380 N   0  0  0  0  0  0  0  0  0  0  0  0
  -23.6330  -32.1960   23.8370 O   0  0  0  0  0  0  0  0  0  0  0  0
  -22.9770  -29.5120   22.5400 C   0  0  0  0  0  0  0  0  0  0  0  0
  -21.6570  -29.3220   22.3700 N   0  0  0  0  0  0  0  0  0  0  0  0
  -23.6380  -28.8720   23.3630 O   0  0  0  0  0  0  0  0  0  0  0  0
  -21.1820  -29.8920   21.6830 H   0  0  0  0  0  0  0  0  0  0  0  0
  -18.2770  -28.0870   22.7520 C   0  0  0  0  0  0  0  0  0  0  0  0
  -20.8270  -28.3520   23.0870 C   0  0  0  0  0  3  0  0  0  0  0  0
  -20.9520  -26.9430   22.4620 C   0  0  0  0  0  2  0  0  0  0  0  0
  -19.8740  -26.6500   21.4140 C   0  0  0  0  0  2  0  0  0  0  0  0
  -18.4770  -26.7640   22.0320 C   0  0  0  0  0  2  0  0  0  0  0  0
  -19.3820  -28.8390   23.2340 C   0  0  0  0  0  0  0  0  0  0  0  0
  -19.1420  -30.0780   23.8680 C   0  0  0  0  0  3  0  0  0  0  0  0
  -17.8300  -30.5640   24.0250 C   0  0  0  0  0  3  0  0  0  0  0  0
  -16.7400  -29.8070   23.5610 C   0  0  0  0  0  3  0  0  0  0  0  0
  -16.9640  -28.5700   22.9300 C   0  0  0  0  0  3  0  0  0  0  0  0
  -25.9810  -32.6120   24.0400 C   0  0  0  0  0  3  0  0  0  0  0  0
  -25.6230  -34.0000   24.3700 N   0  0  0  0  0  0  0  0  0  0  0  0
  -25.9640  -35.0710   23.6410 C   0  0  0  0  0  0  0  0  0  0  0  0
  -26.6820  -34.9960   22.6390 O   0  0  0  0  0  0  0  0  0  0  0  0
  -24.9920  -34.1300   25.1470 H   0  0  0  0  0  0  0  0  0  0  0  0
  -24.2050  -36.8250   23.2400 C   0  0  0  0  0  1  0  0  0  0  0  0
  -25.4250  -36.4420   24.0930 C   0  0  0  0  0  3  0  0  0  0  0  0
  -27.5020  -37.3740   25.0140 C   0  0  0  0  0  1  0  0  0  0  0  0
  -26.4330  -37.5230   24.0300 N   0  0  0  0  0  0  0  0  0  0  0  0
  -25.9980  -38.4300   24.1690 H   0  0  0  0  0  0  0  0  0  0  0  0
  -26.4500  -31.8400   25.3350 C   0  0  1  0  0  0  0  0  0  0  0  0
  -25.3090  -31.5620   26.3410 C   0  0  0  0  0  1  0  0  0  0  0  0
  -27.0890  -30.4830   24.9610 C   0  0  0  0  0  1  0  0  0  0  0  0
  -27.5440  -32.6550   26.0640 C   0  0  0  0  0  1  0  0  0  0  0  0
  -30.0890  -18.9290   20.8400 C   0  0  0  0  0  2  0  0  0  0  0  0
  -30.2070  -17.3880   20.2620 C   0  0  0  0  0  2  0  0  0  0  0  0
  -31.2150  -15.0150   20.7350 C   0  0  0  0  0  0  0  0  0  0  0  0
  -31.0450  -12.7630   19.6470 C   0  0  0  0  0  2  0  0  0  0  0  0
  -30.1650  -12.8680   18.3820 C   0  0  0  0  0  2  0  0  0  0  0  0
  -28.6760  -12.6980   18.7370 C   0  0  0  0  0  2  0  0  0  0  0  0
  -28.2540  -13.5570   19.9580 C   0  0  0  0  0  3  0  0  0  0  0  0
  -29.2560  -13.4220   21.1240 C   0  0  0  0  0  2  0  0  0  0  0  0
  -30.5830  -13.7930   20.6100 N   0  0  0  0  0  0  0  0  0  0  0  0
  -32.3710  -15.1410   20.3190 O   0  0  0  0  0  0  0  0  0  0  0  0
  -30.2310  -16.3440   22.5440 C   0  0  0  0  0  1  0  0  0  0  0  0
  -30.4770  -16.1390   21.1160 N   0  0  0  0  0  0  0  0  0  0  0  0
  -25.8330  -14.1490   20.5680 C   0  0  0  0  0  0  0  0  0  0  0  0
  -24.7490  -13.3740   20.8780 C   0  0  0  0  0  0  0  0  0  0  0  0
  -25.2110  -12.0230   20.8620 C   0  0  0  0  0  0  0  0  0  0  0  0
  -26.8870  -13.2690   20.3770 N   0  0  0  0  0  0  0  0  0  0  0  0
  -26.5150  -11.9840   20.6180 N   0  0  0  0  0  0  0  0  0  0  0  0
  -24.4730  -10.7610   21.0110 C   0  0  0  0  0  0  0  0  0  0  0  0
  -24.7980   -9.8290   22.0210 C   0  0  0  0  0  3  0  0  0  0  0  0
  -24.0610   -8.6320   22.1550 C   0  0  0  0  0  3  0  0  0  0  0  0
  -22.9850   -8.3590   21.2780 C   0  0  0  0  0  0  0  0  0  0  0  0
  -22.6810   -9.2800   20.2590 C   0  0  0  0  0  3  0  0  0  0  0  0
  -23.4180  -10.4680   20.1240 C   0  0  0  0  0  3  0  0  0  0  0  0
  -22.2310   -7.2110   21.3160 O   0  0  0  0  0  0  0  0  0  0  0  0
  -21.9590   -6.5680   22.4970 C   0  0  0  0  0  0  0  0  0  0  0  0
  -21.2800   -7.2080   23.5560 C   0  0  0  0  0  3  0  0  0  0  0  0
  -20.9610   -6.4880   24.7240 C   0  0  0  0  0  3  0  0  0  0  0  0
  -21.3110   -5.1280   24.8330 C   0  0  0  0  0  0  0  0  0  0  0  0
  -21.9820   -4.4880   23.7770 C   0  0  0  0  0  3  0  0  0  0  0  0
  -22.3030   -5.2060   22.6110 C   0  0  0  0  0  0  0  0  0  0  0  0
  -22.9310   -4.5770   21.5870 F   0  0  0  0  0  0  0  0  0  0  0  0
  -20.9970   -4.4350   25.9520 F   0  0  0  0  0  0  0  0  0  0  0  0
  -23.3420  -13.8540   21.0850 C   0  0  0  0  0  0  0  0  0  0  0  0
  -22.5740  -13.1630   21.9200 N   0  0  0  0  0  0  0  0  0  0  0  0
  -22.9280  -14.8770   20.5390 O   0  0  0  0  0  0  0  0  0  0  0  0
  -22.9210  -12.3350   22.3830 H   0  0  0  0  0  0  0  0  0  0  0  0
  -21.6290  -13.4680   22.1020 H   0  0  0  0  0  0  0  0  0  0  0  0
  -26.0090  -15.5190   20.4090 N   0  0  0  0  0  0  0  0  0  0  0  0
  -25.2390  -16.1740   20.4860 H   0  0  0  0  0  0  0  0  0  0  0  0
  -26.8810  -15.9610   20.1480 H   0  0  0  0  0  0  0  0  0  0  0  0
  -26.0310  -20.2110   18.0470 C   0  0  0  0  0  3  0  0  0  0  0  0
  -24.6740  -19.0470   19.9250 C   0  0  0  0  0  1  0  0  0  0  0  0
  -25.1680  -18.9970   18.4700 C   0  0  0  0  0  2  0  0  0  0  0  0
  -27.3300  -21.2460   16.0600 C   0  0  0  0  0  1  0  0  0  0  0  0
  -26.3700  -20.1470   16.5420 C   0  0  0  0  0  2  0  0  0  0  0  0
  1  4  2  0
  2  5  1  0
  3  2  2  0
  3  1  1  0
  4  7  1  0
  5  4  1  0
  5 51  1  0
  7  8  1  0
  7  6  1  0
  9 10  1  0
  9  8  1  0
 11 22  2  0
 12 10  1  0
 12 17  1  0
 13 21  1  0
 13 23  1  0
 14 20  1  0
 14 16  1  0
 15 21  1  0
 16 17  2  0
 16 15  1  0
 18 12  2  0
 19 18  1  0
 19 14  2  0
 20 13  1  0
 21 11  1  0
 23 25  2  0
 24 23  1  0
 26 24  1  0
 27 36  2  0
 27 32  1  0
 28 24  1  0
 28 32  1  0
 29 28  1  0
 30 31  1  0
 30 29  1  0
 31 27  1  0
 32 33  2  0
 33 34  1  0
 35 34  2  0
 36 35  1  0
 37 11  1  0
 37 38  1  0
 37 47  1  0
 38 41  1  0
 39 43  1  0
 39 38  1  0
 40 39  2  0
 43 42  1  0
 45 43  1  0
 45 46  1  0
 45 44  1  0
 47 50  1  1
 47 48  1  0
 49 47  1  0
 52 51  1  0
 52 62  1  0
 53 62  1  0
 54 59  1  0
 55 56  1  0
 55 54  1  0
 57 56  1  0
 57 66  1  0
 57 58  1  0
 59 53  1  0
 59 58  1  0
 60 53  2  0
 62 61  1  0
 63 64  2  0
 64 83  1  0
 65 64  1  0
 65 68  1  0
 66 63  1  0
 66 67  1  0
 67 65  2  0
 68 69  1  0
 69 70  2  0
 71 74  1  0
 71 70  1  0
 72 71  2  0
 73 72  1  0
 73 68  2  0
 74 75  1  0
 75 80  2  0
 75 76  1  0
 76 77  2  0
 77 78  1  0
 78 82  1  0
 79 78  2  0
 80 79  1  0
 81 80  1  0
 83 84  1  0
 84 87  1  0
 84 86  1  0
 85 83  2  0
 88 89  1  0
 88 63  1  0
 90 88  1  0
 91 93  1  0
 91  3  1  0
 93 92  1  0
 94 95  1  0
 95 91  1  0
M  ISO  4   9 101  10 101  53 100  62 100
M  END
>  <TORSDO>  (88) 
F 24

>  <SCORE>  (88) 
-7.076

>  <name>  (88) 
87

>  <ligand_id>  (88) 
87

>  <original_smiles>  (88) 
[H]c1c([H])c([H])c2c(c1[H])C([H])([H])C([H])([H])C([H])([H])C2([H])N([H])C(=O)C1([H])N(C(=O)C([H])(N([H])C(=O)C([H])(N([H])C([H])([H])[H])C([H])([H])[H])C(C([H])([H])[H])(C([H])([H])[H])C([H])([H])[H])C([H])([H])c2c([H])c(OC([H])([H])C([H])([H])C([H])(c3c([H])c(C([H])(C([H])([H])C([H])([H])[H])C([H])([H])C([H])([H])[H])c([H])n3C([H])([H])C([H])([H])N(C(=O)N3C([H])([H])C([H])([H])C([H])([H])C([H])(n4nc(-c5c([H])c([H])c(Oc6c([H])c([H])c(F)c([H])c6F)c([H])c5[H])c(C(=O)N([H])[H])c4N([H])[H])C3([H])[H])C([H])([H])[H])C([H])([H])[H])c([H])c([H])c2C1([H])[H]

>  <smiles>  (88) 
[H]c1c([H])c([H])c2c(c1[H])C([H])([H])C([H])([H])C([H])([H])C2([H])N([H])C(=O)C1([H])N(C(=O)C([H])(N([H])C(=O)C([H])(N([H])C([H])([H])[H])C([H])([H])[H])C(C([H])([H])[H])(C([H])([H])[H])C([H])([H])[H])C([H])([H])c2c([H])c(OC([H])([H])C([H])([H])C([H])(c3c([H])c(C([H])(C([H])([H])C([H])([H])[H])C([H])([H])C([H])([H])[H])c([H])n3C([H])([H])C([H])([H])N(C(=O)N3C([H])([H])C([H])([H])C([H])([H])C([H])(n4nc(-c5c([H])c([H])c(Oc6c([H])c([H])c(F)c([H])c6F)c([H])c5[H])c(C(=O)N([H])[H])c4N([H])[H])C3([H])[H])C([H])([H])[H])C([H])([H])[H])c([H])c([H])c2C1([H])[H]

$$$$
88:0:0
     RDKit          3D

 91 98  0  0  1  0  0  0  0  0999 V2000
  -28.7920  -23.4080   20.0490 C   0  0  0  0  0  2  0  0  0  0  0  0
  -28.8030  -21.9430   20.6690 N   0  0  0  0  0  4  0  0  0  0  0  0
  -29.3440  -21.9770   21.5190 H   0  0  0  0  0  0  0  0  0  0  0  0
  -27.8540  -21.7530   20.9510 H   0  0  0  0  0  0  0  0  0  0  0  0
  -29.2640  -20.6640   19.8590 C   0  0  0  0  0  2  0  0  0  0  0  0
  -29.3480  -19.0660   20.4620 C   0  0  0  0  0  2  0  0  0  0  0  0
  -31.1110  -17.8580   18.8630 C   0  0  0  0  0  1  0  0  0  0  0  0
  -30.3210  -17.6880   20.1890 C   0  0  0  0  0  0  0  0  0  0  0  0
  -30.5750  -14.9560   20.1940 C   0  0  0  0  0  0  0  0  0  0  0  0
  -30.3750  -12.6310   19.2260 C   0  0  0  0  0  2  0  0  0  0  0  0
  -29.4300  -12.6390   18.0050 C   0  0  0  0  0  2  0  0  0  0  0  0
  -27.9680  -12.4410   18.4520 C   0  0  0  0  0  2  0  0  0  0  0  0
  -27.5900  -13.3430   19.6580 C   0  0  0  0  0  3  0  0  0  0  0  0
  -28.6670  -13.3200   20.7630 C   0  0  0  0  0  2  0  0  0  0  0  0
  -29.9330  -13.7220   20.1370 N   0  0  0  0  0  0  0  0  0  0  0  0
  -31.7790  -14.9690   19.9210 O   0  0  0  0  0  0  0  0  0  0  0  0
  -29.8620  -16.1780   20.3360 N   0  0  0  0  0  4  0  0  0  0  0  0
  -28.8820  -16.0510   20.5530 H   0  0  0  0  0  0  0  0  0  0  0  0
  -25.2090  -13.9110   20.4200 C   0  0  0  0  0  0  0  0  0  0  0  0
  -24.1570  -13.1320   20.8110 C   0  0  0  0  0  0  0  0  0  0  0  0
  -24.6260  -11.7840   20.7790 C   0  0  0  0  0  0  0  0  0  0  0  0
  -26.2580  -13.0390   20.1750 N   0  0  0  0  0  0  0  0  0  0  0  0
  -25.9140  -11.7530   20.4560 N   0  0  0  0  0  0  0  0  0  0  0  0
  -23.9070  -10.5180   20.9820 C   0  0  0  0  0  0  0  0  0  0  0  0
  -24.3520   -9.5580   21.9160 C   0  0  0  0  0  3  0  0  0  0  0  0
  -23.6330   -8.3590   22.1110 C   0  0  0  0  0  3  0  0  0  0  0  0
  -22.4520   -8.1120   21.3720 C   0  0  0  0  0  0  0  0  0  0  0  0
  -22.0250   -9.0610   20.4260 C   0  0  0  0  0  3  0  0  0  0  0  0
  -22.7460  -10.2510   20.2300 C   0  0  0  0  0  3  0  0  0  0  0  0
  -21.7010   -6.9660   21.4740 O   0  0  0  0  0  0  0  0  0  0  0  0
  -21.6700   -6.2270   22.6310 C   0  0  0  0  0  0  0  0  0  0  0  0
  -21.2570   -6.7850   23.8610 C   0  0  0  0  0  3  0  0  0  0  0  0
  -21.1730   -5.9720   25.0100 C   0  0  0  0  0  3  0  0  0  0  0  0
  -21.4930   -4.6030   24.9290 C   0  0  0  0  0  0  0  0  0  0  0  0
  -21.8960   -4.0450   23.7030 C   0  0  0  0  0  3  0  0  0  0  0  0
  -21.9820   -4.8550   22.5560 C   0  0  0  0  0  0  0  0  0  0  0  0
  -22.3530   -4.3080   21.3740 F   0  0  0  0  0  0  0  0  0  0  0  0
  -21.4040   -3.8190   26.0290 F   0  0  0  0  0  0  0  0  0  0  0  0
  -22.7560  -13.6050   21.0850 C   0  0  0  0  0  0  0  0  0  0  0  0
  -22.0360  -12.9150   21.9610 N   0  0  0  0  0  0  0  0  0  0  0  0
  -22.3090  -14.6200   20.5530 O   0  0  0  0  0  0  0  0  0  0  0  0
  -22.4070  -12.0970   22.4200 H   0  0  0  0  0  0  0  0  0  0  0  0
  -21.0930  -13.2100   22.1740 H   0  0  0  0  0  0  0  0  0  0  0  0
  -25.3540  -15.2810   20.2210 N   0  0  0  0  0  0  0  0  0  0  0  0
  -24.5690  -15.9170   20.3050 H   0  0  0  0  0  0  0  0  0  0  0  0
  -26.1730  -15.7180   19.8170 H   0  0  0  0  0  0  0  0  0  0  0  0
  -28.7510  -24.9640   22.1510 C   0  0  0  0  0  1  0  0  0  0  0  0
  -28.0690  -24.7460   20.7870 C   0  0  2  0  0  0  0  0  0  0  0  0
  -26.1850  -23.1850   21.8730 C   0  0  0  0  0  1  0  0  0  0  0  0
  -26.5600  -24.4130   21.0200 C   0  0  0  0  0  2  0  0  0  0  0  0
  -28.2170  -26.2010   20.2090 O   0  0  0  0  0  0  0  0  0  0  0  0
  -24.6100  -31.8890   23.2220 C   0  0  0  0  0  0  0  0  0  0  0  0
  -27.1750  -27.2000   20.1840 C   0  0  0  0  0  0  0  0  0  0  0  0
  -23.4120  -30.5130   21.5640 C   0  0  0  0  0  3  0  0  0  0  0  0
  -24.8640  -28.9520   20.1320 C   0  0  0  0  0  0  0  0  0  0  0  0
  -25.9660  -30.7710   21.4190 C   0  0  0  0  0  2  0  0  0  0  0  0
  -26.0370  -29.3830   20.7680 C   0  0  0  0  0  0  0  0  0  0  0  0
  -27.1940  -28.5170   20.7920 C   0  0  0  0  0  3  0  0  0  0  0  0
  -26.0080  -26.9040   19.4480 C   0  0  0  0  0  3  0  0  0  0  0  0
  -24.8620  -27.7240   19.4580 C   0  0  0  0  0  3  0  0  0  0  0  0
  -23.6380  -29.8490   20.1790 C   0  0  0  0  0  2  0  0  0  0  0  0
  -24.6820  -31.0810   22.1230 N   0  0  0  0  0  0  0  0  0  0  0  0
  -23.5230  -32.1700   23.7510 O   0  0  0  0  0  0  0  0  0  0  0  0
  -22.7340  -29.4960   22.5170 C   0  0  0  0  0  0  0  0  0  0  0  0
  -21.4040  -29.3380   22.3970 N   0  0  0  0  0  0  0  0  0  0  0  0
  -23.4050  -28.8520   23.3270 O   0  0  0  0  0  0  0  0  0  0  0  0
  -20.9140  -29.9020   21.7160 H   0  0  0  0  0  0  0  0  0  0  0  0
  -18.0140  -28.1700   22.9140 C   0  0  0  0  0  0  0  0  0  0  0  0
  -20.5790  -28.3980   23.1610 C   0  0  0  0  0  3  0  0  0  0  0  0
  -20.6560  -26.9740   22.5630 C   0  0  0  0  0  2  0  0  0  0  0  0
  -19.5400  -26.6790   21.5550 C   0  0  0  0  0  2  0  0  0  0  0  0
  -18.1670  -26.8320   22.2140 C   0  0  0  0  0  2  0  0  0  0  0  0
  -19.1450  -28.9130   23.3450 C   0  0  0  0  0  0  0  0  0  0  0  0
  -18.9460  -30.1680   23.9610 C   0  0  0  0  0  3  0  0  0  0  0  0
  -17.6480  -30.6800   24.1500 C   0  0  0  0  0  3  0  0  0  0  0  0
  -16.5320  -29.9360   23.7340 C   0  0  0  0  0  3  0  0  0  0  0  0
  -16.7150  -28.6830   23.1220 C   0  0  0  0  0  3  0  0  0  0  0  0
  -25.8880  -32.5190   23.8590 C   0  0  0  0  0  3  0  0  0  0  0  0
  -26.3870  -31.7470   25.1420 C   0  0  1  0  0  0  0  0  0  0  0  0
  -25.2810  -31.5230   26.2010 C   0  0  0  0  0  1  0  0  0  0  0  0
  -26.9630  -30.3620   24.7620 C   0  0  0  0  0  1  0  0  0  0  0  0
  -27.5370  -32.5350   25.8130 C   0  0  0  0  0  1  0  0  0  0  0  0
  -25.5800  -33.9180   24.1890 N   0  0  0  0  0  0  0  0  0  0  0  0
  -25.9150  -34.9730   23.4360 C   0  0  0  0  0  0  0  0  0  0  0  0
  -26.5840  -34.8700   22.4030 O   0  0  0  0  0  0  0  0  0  0  0  0
  -24.9880  -34.0710   24.9930 H   0  0  0  0  0  0  0  0  0  0  0  0
  -24.1890  -36.7740   23.1010 C   0  0  0  0  0  1  0  0  0  0  0  0
  -25.4370  -36.3630   23.9000 C   0  0  0  0  0  3  0  0  0  0  0  0
  -27.5850  -37.2440   24.7100 C   0  0  0  0  0  1  0  0  0  0  0  0
  -26.4720  -37.4140   23.7780 N   0  0  0  0  0  0  0  0  0  0  0  0
  -26.0670  -38.3350   23.9290 H   0  0  0  0  0  0  0  0  0  0  0  0
  1  2  1  0
  1 48  1  0
  2  4  1  0
  2  3  1  0
  5  6  1  0
  5  2  1  0
  7  8  1  0
  8 17  2  0
  8  6  1  0
  9 17  1  0
 10 15  1  0
 11 12  1  0
 11 10  1  0
 13 12  1  0
 13 22  1  0
 13 14  1  0
 15  9  1  0
 15 14  1  0
 16  9  2  0
 17 18  1  0
 19 20  2  0
 20 39  1  0
 21 20  1  0
 21 24  1  0
 22 19  1  0
 22 23  1  0
 23 21  2  0
 24 25  1  0
 25 26  2  0
 27 30  1  0
 27 26  1  0
 28 27  2  0
 29 28  1  0
 29 24  2  0
 30 31  1  0
 31 32  1  0
 32 33  2  0
 34 33  1  0
 34 38  1  0
 35 34  2  0
 36 31  2  0
 36 35  1  0
 37 36  1  0
 39 40  1  0
 40 43  1  0
 40 42  1  0
 41 39  2  0
 44 45  1  0
 44 19  1  0
 46 44  1  0
 48 50  1  0
 48 47  1  1
 50 49  1  0
 51 48  1  0
 52 63  2  0
 53 51  1  0
 53 58  1  0
 54 62  1  0
 54 64  1  0
 55 61  1  0
 55 57  1  0
 56 62  1  0
 57 58  2  0
 57 56  1  0
 59 60  1  0
 59 53  2  0
 60 55  2  0
 61 54  1  0
 62 52  1  0
 64 66  2  0
 65 64  1  0
 67 65  1  0
 68 77  2  0
 68 73  1  0
 69 65  1  0
 69 73  1  0
 70 69  1  0
 71 72  1  0
 71 70  1  0
 72 68  1  0
 73 74  2  0
 74 75  1  0
 76 75  2  0
 77 76  1  0
 78 52  1  0
 78 83  1  0
 78 79  1  0
 79 82  1  1
 79 80  1  0
 81 79  1  0
 83 86  1  0
 84 88  1  0
 84 83  1  0
 85 84  2  0
 88 87  1  0
 90 88  1  0
 90 91  1  0
 90 89  1  0
M  ISO  4   9 100  17 100  48 101  51 101
M  END
>  <TORSDO>  (89) 
F 22

>  <SCORE>  (89) 
-13.875

>  <name>  (89) 
88

>  <ligand_id>  (89) 
88

>  <original_smiles>  (89) 
[H]c1c([H])c([H])c2c(c1[H])C([H])([H])C([H])([H])C([H])([H])C2([H])N([H])C(=O)C1([H])N(C(=O)C([H])(N([H])C(=O)C([H])(N([H])C([H])([H])[H])C([H])([H])[H])C(C([H])([H])[H])(C([H])([H])[H])C([H])([H])[H])C([H])([H])c2c([H])c(OC(C([H])([H])[H])(C([H])([H])C([H])([H])[H])C([H])([H])[N+]([H])([H])C([H])([H])C([H])([H])C([H])(N([H])C(=O)N3C([H])([H])C([H])([H])C([H])([H])C([H])(n4nc(-c5c([H])c([H])c(Oc6c([H])c([H])c(F)c([H])c6F)c([H])c5[H])c(C(=O)N([H])[H])c4N([H])[H])C3([H])[H])C([H])([H])[H])c([H])c([H])c2C1([H])[H]

>  <smiles>  (89) 
[H]c1c([H])c([H])c2c(c1[H])C([H])([H])C([H])([H])C([H])([H])C2([H])N([H])C(=O)C1([H])N(C(=O)C([H])(N([H])C(=O)C([H])(N([H])C([H])([H])[H])C([H])([H])[H])C(C([H])([H])[H])(C([H])([H])[H])C([H])([H])[H])C([H])([H])c2c([H])c(OC(C([H])([H])[H])(C([H])([H])C([H])([H])[H])C([H])([H])[N+]([H])([H])C([H])([H])C([H])([H])C([H])(N([H])C(=O)N3C([H])([H])C([H])([H])C([H])([H])C([H])(n4nc(-c5c([H])c([H])c(Oc6c([H])c([H])c(F)c([H])c6F)c([H])c5[H])c(C(=O)N([H])[H])c4N([H])[H])C3([H])[H])C([H])([H])[H])c([H])c([H])c2C1([H])[H]

$$$$
89:0:0
     RDKit          3D

 94102  0  0  1  0  0  0  0  0999 V2000
  -29.1940  -19.1250   21.4060 C   0  0  0  0  0  2  0  0  0  0  0  0
  -30.2030  -18.4700   20.6510 C   0  0  0  0  0  0  0  0  0  0  0  0
  -30.3750  -20.6080   19.3760 C   0  0  0  0  0  0  0  0  0  0  0  0
  -30.7900  -19.2470   19.6070 C   0  0  0  0  0  0  0  0  0  0  0  0
  -29.3410  -21.1950   20.1690 C   0  0  0  0  0  0  0  0  0  0  0  0
  -31.0530  -21.4760   18.3220 C   0  0  0  0  0  1  0  0  0  0  0  0
  -28.8130  -20.4080   21.1440 N   0  0  0  0  0  0  0  0  0  0  0  0
  -28.0600  -20.7970   21.7130 H   0  0  0  0  0  0  0  0  0  0  0  0
  -31.7920  -18.6680   18.8250 N   0  0  0  0  0  0  0  0  0  0  0  0
  -31.9470  -17.6750   18.9440 H   0  0  0  0  0  0  0  0  0  0  0  0
  -31.7910  -18.9160   17.8440 H   0  0  0  0  0  0  0  0  0  0  0  0
  -30.7590  -17.0740   21.1190 C   0  0  0  0  0  2  0  0  0  0  0  0
  -30.7850  -14.7230   20.0860 C   0  0  0  0  0  0  0  0  0  0  0  0
  -30.4430  -12.5520   18.9230 C   0  0  0  0  0  2  0  0  0  0  0  0
  -29.4230  -12.7090   17.7770 C   0  0  0  0  0  2  0  0  0  0  0  0
  -27.9780  -12.5460   18.2950 C   0  0  0  0  0  2  0  0  0  0  0  0
  -27.7050  -13.3730   19.5800 C   0  0  0  0  0  3  0  0  0  0  0  0
  -28.8320  -13.1810   20.6170 C   0  0  0  0  0  2  0  0  0  0  0  0
  -30.1040  -13.5380   19.9680 N   0  0  0  0  0  0  0  0  0  0  0  0
  -31.8900  -14.8790   19.5630 O   0  0  0  0  0  0  0  0  0  0  0  0
  -30.1510  -15.7650   20.7000 N   0  0  0  0  0  0  0  0  0  0  0  0
  -29.2400  -15.5520   21.0740 H   0  0  0  0  0  0  0  0  0  0  0  0
  -25.3620  -13.9570   20.4630 C   0  0  0  0  0  0  0  0  0  0  0  0
  -24.3160  -13.1800   20.8790 C   0  0  0  0  0  0  0  0  0  0  0  0
  -24.7680  -11.8290   20.7810 C   0  0  0  0  0  0  0  0  0  0  0  0
  -26.3880  -13.0810   20.1400 N   0  0  0  0  0  0  0  0  0  0  0  0
  -26.0370  -11.7930   20.3900 N   0  0  0  0  0  0  0  0  0  0  0  0
  -24.0500  -10.5630   20.9810 C   0  0  0  0  0  0  0  0  0  0  0  0
  -24.5080   -9.5860   21.8940 C   0  0  0  0  0  3  0  0  0  0  0  0
  -23.7890   -8.3860   22.0810 C   0  0  0  0  0  3  0  0  0  0  0  0
  -22.5990   -8.1510   21.3510 C   0  0  0  0  0  0  0  0  0  0  0  0
  -22.1580   -9.1170   20.4280 C   0  0  0  0  0  3  0  0  0  0  0  0
  -22.8790  -10.3080   20.2400 C   0  0  0  0  0  3  0  0  0  0  0  0
  -21.8490   -7.0050   21.4510 O   0  0  0  0  0  0  0  0  0  0  0  0
  -21.7910   -6.2790   22.6130 C   0  0  0  0  0  0  0  0  0  0  0  0
  -21.2750   -6.8260   23.8080 C   0  0  0  0  0  3  0  0  0  0  0  0
  -21.1690   -6.0230   24.9620 C   0  0  0  0  0  3  0  0  0  0  0  0
  -21.5680   -4.6750   24.9200 C   0  0  0  0  0  0  0  0  0  0  0  0
  -22.0750   -4.1250   23.7300 C   0  0  0  0  0  3  0  0  0  0  0  0
  -22.1840   -4.9260   22.5790 C   0  0  0  0  0  0  0  0  0  0  0  0
  -22.6540   -4.3850   21.4280 F   0  0  0  0  0  0  0  0  0  0  0  0
  -21.4590   -3.8990   26.0250 F   0  0  0  0  0  0  0  0  0  0  0  0
  -22.9380  -13.6560   21.2490 C   0  0  0  0  0  0  0  0  0  0  0  0
  -22.2510  -12.9460   22.1350 N   0  0  0  0  0  0  0  0  0  0  0  0
  -22.4810  -14.7000   20.7860 O   0  0  0  0  0  0  0  0  0  0  0  0
  -22.6320  -12.1060   22.5450 H   0  0  0  0  0  0  0  0  0  0  0  0
  -21.3290  -13.2560   22.4130 H   0  0  0  0  0  0  0  0  0  0  0  0
  -25.5210  -15.3320   20.3120 N   0  0  0  0  0  0  0  0  0  0  0  0
  -24.7610  -15.9810   20.4860 H   0  0  0  0  0  0  0  0  0  0  0  0
  -26.3380  -15.7770   19.9120 H   0  0  0  0  0  0  0  0  0  0  0  0
  -28.6460  -22.5760   19.8740 C   0  0  0  0  0  2  0  0  0  0  0  0
  -29.2550  -24.0030   20.2500 C   0  0  0  0  0  2  0  0  0  0  0  0
  -28.3340  -25.1860   19.7160 C   0  0  0  0  0  2  0  0  0  0  0  0
  -28.4840  -26.5980   20.1420 O   0  0  0  0  0  0  0  0  0  0  0  0
  -24.5950  -31.8250   23.2450 C   0  0  0  0  0  0  0  0  0  0  0  0
  -27.3470  -27.4260   20.0840 C   0  0  0  0  0  0  0  0  0  0  0  0
  -23.4450  -30.4530   21.5460 C   0  0  0  0  0  3  0  0  0  0  0  0
  -24.9440  -28.9820   20.0970 C   0  0  0  0  0  0  0  0  0  0  0  0
  -25.9780  -30.8300   21.4090 C   0  0  0  0  0  2  0  0  0  0  0  0
  -26.0950  -29.4730   20.7260 C   0  0  0  0  0  0  0  0  0  0  0  0
  -27.2960  -28.7070   20.7170 C   0  0  0  0  0  3  0  0  0  0  0  0
  -26.1720  -26.9990   19.4160 C   0  0  0  0  0  3  0  0  0  0  0  0
  -24.9830  -27.7450   19.4390 C   0  0  0  0  0  3  0  0  0  0  0  0
  -23.6900  -29.8250   20.1520 C   0  0  0  0  0  2  0  0  0  0  0  0
  -24.6910  -31.0510   22.1240 N   0  0  0  0  0  0  0  0  0  0  0  0
  -23.4980  -32.0660   23.7700 O   0  0  0  0  0  0  0  0  0  0  0  0
  -22.7870  -29.3960   22.4660 C   0  0  0  0  0  0  0  0  0  0  0  0
  -21.4640  -29.2110   22.3260 N   0  0  0  0  0  0  0  0  0  0  0  0
  -23.4690  -28.7460   23.2640 O   0  0  0  0  0  0  0  0  0  0  0  0
  -20.9730  -29.7910   21.6600 H   0  0  0  0  0  0  0  0  0  0  0  0
  -18.0860  -28.0120   22.8170 C   0  0  0  0  0  0  0  0  0  0  0  0
  -20.6510  -28.2400   23.0590 C   0  0  0  0  0  3  0  0  0  0  0  0
  -20.7340  -26.8390   22.4070 C   0  0  0  0  0  2  0  0  0  0  0  0
  -19.6140  -26.5770   21.3970 C   0  0  0  0  0  2  0  0  0  0  0  0
  -18.2440  -26.7000   22.0680 C   0  0  0  0  0  2  0  0  0  0  0  0
  -19.2180  -28.7430   23.2690 C   0  0  0  0  0  0  0  0  0  0  0  0
  -19.0180  -29.9730   23.9300 C   0  0  0  0  0  3  0  0  0  0  0  0
  -17.7210  -30.4750   24.1410 C   0  0  0  0  0  3  0  0  0  0  0  0
  -16.6040  -29.7420   23.7030 C   0  0  0  0  0  3  0  0  0  0  0  0
  -16.7880  -28.5110   23.0480 C   0  0  0  0  0  3  0  0  0  0  0  0
  -25.8540  -32.4640   23.9070 C   0  0  0  0  0  3  0  0  0  0  0  0
  -25.5320  -33.8650   24.2120 N   0  0  0  0  0  0  0  0  0  0  0  0
  -25.8750  -34.9090   23.4460 C   0  0  0  0  0  0  0  0  0  0  0  0
  -26.5660  -34.7950   22.4290 O   0  0  0  0  0  0  0  0  0  0  0  0
  -24.9170  -34.0270   24.9960 H   0  0  0  0  0  0  0  0  0  0  0  0
  -24.1460  -36.6900   23.0420 C   0  0  0  0  0  1  0  0  0  0  0  0
  -25.3770  -36.3020   23.8780 C   0  0  0  0  0  3  0  0  0  0  0  0
  -27.4880  -37.2160   24.7420 C   0  0  0  0  0  1  0  0  0  0  0  0
  -26.4090  -37.3570   23.7670 N   0  0  0  0  0  0  0  0  0  0  0  0
  -25.9950  -38.2780   23.8830 H   0  0  0  0  0  0  0  0  0  0  0  0
  -26.3210  -31.7080   25.2090 C   0  0  1  0  0  0  0  0  0  0  0  0
  -25.1860  -31.4750   26.2340 C   0  0  0  0  0  1  0  0  0  0  0  0
  -26.9280  -30.3330   24.8510 C   0  0  0  0  0  1  0  0  0  0  0  0
  -27.4400  -32.5140   25.9100 C   0  0  0  0  0  1  0  0  0  0  0  0
  2 12  1  0
  2  1  1  0
  3  4  1  0
  3  5  2  0
  4  2  2  0
  5  7  1  0
  6  3  1  0
  7  1  1  0
  7  8  1  0
  9 10  1  0
  9  4  1  0
 11  9  1  0
 13 21  1  0
 14 19  1  0
 15 16  1  0
 15 14  1  0
 17 16  1  0
 17 26  1  0
 17 18  1  0
 19 13  1  0
 19 18  1  0
 20 13  2  0
 21 22  1  0
 21 12  1  0
 23 24  2  0
 24 43  1  0
 25 24  1  0
 25 28  1  0
 26 27  1  0
 26 23  1  0
 27 25  2  0
 28 29  1  0
 29 30  2  0
 31 34  1  0
 31 30  1  0
 32 31  2  0
 33 32  1  0
 33 28  2  0
 34 35  1  0
 35 36  1  0
 36 37  2  0
 38 37  1  0
 38 42  1  0
 39 38  2  0
 40 35  2  0
 40 39  1  0
 41 40  1  0
 43 44  1  0
 44 47  1  0
 44 46  1  0
 45 43  2  0
 48 23  1  0
 48 49  1  0
 50 48  1  0
 51  5  1  0
 51 52  1  0
 53 54  1  0
 53 52  1  0
 55 66  2  0
 56 54  1  0
 56 61  1  0
 57 65  1  0
 57 67  1  0
 58 64  1  0
 58 60  1  0
 59 65  1  0
 60 59  1  0
 61 60  2  0
 62 63  1  0
 62 56  2  0
 63 58  2  0
 64 57  1  0
 65 55  1  0
 67 69  2  0
 68 67  1  0
 70 68  1  0
 71 80  2  0
 71 76  1  0
 72 68  1  0
 72 76  1  0
 73 72  1  0
 74 75  1  0
 74 73  1  0
 75 71  1  0
 76 77  2  0
 77 78  1  0
 79 78  2  0
 80 79  1  0
 81 55  1  0
 81 82  1  0
 81 91  1  0
 82 85  1  0
 83 87  1  0
 83 82  1  0
 84 83  2  0
 87 86  1  0
 89 87  1  0
 89 90  1  0
 89 88  1  0
 91 94  1  1
 91 92  1  0
 93 91  1  0
M  ISO  4  13 100  21 100  53 101  54 101
M  END
>  <TORSDO>  (90) 
F 21

>  <SCORE>  (90) 
-13.140

>  <name>  (90) 
89

>  <ligand_id>  (90) 
89

>  <original_smiles>  (90) 
[H]c1c([H])c([H])c2c(c1[H])C([H])([H])C([H])([H])C([H])([H])C2([H])N([H])C(=O)C1([H])N(C(=O)C([H])(N([H])C(=O)C([H])(N([H])C([H])([H])[H])C([H])([H])[H])C(C([H])([H])[H])(C([H])([H])[H])C([H])([H])[H])C([H])([H])c2c([H])c(OC([H])([H])C([H])([H])C([H])([H])c3c(C([H])([H])[H])c(N([H])[H])c(C([H])([H])N([H])C(=O)N4C([H])([H])C([H])([H])C([H])([H])C([H])(n5nc(-c6c([H])c([H])c(Oc7c([H])c([H])c(F)c([H])c7F)c([H])c6[H])c(C(=O)N([H])[H])c5N([H])[H])C4([H])[H])c([H])[n+]3[H])c([H])c([H])c2C1([H])[H]

>  <smiles>  (90) 
[H]c1c([H])c([H])c2c(c1[H])C([H])([H])C([H])([H])C([H])([H])C2([H])N([H])C(=O)C1([H])N(C(=O)C([H])(N([H])C(=O)C([H])(N([H])C([H])([H])[H])C([H])([H])[H])C(C([H])([H])[H])(C([H])([H])[H])C([H])([H])[H])C([H])([H])c2c([H])c(OC([H])([H])C([H])([H])C([H])([H])c3c(C([H])([H])[H])c(N([H])[H])c(C([H])([H])N([H])C(=O)N4C([H])([H])C([H])([H])C([H])([H])C([H])(n5nc(-c6c([H])c([H])c(Oc7c([H])c([H])c(F)c([H])c7F)c([H])c6[H])c(C(=O)N([H])[H])c5N([H])[H])C4([H])[H])c([H])[n+]3[H])c([H])c([H])c2C1([H])[H]

$$$$
90:0:0
     RDKit          3D

 92101  0  0  1  0  0  0  0  0999 V2000
  -29.6440  -21.8420   19.3800 C   0  0  0  0  0  3  0  0  0  0  0  0
  -27.4720  -22.8910   19.2470 C   0  0  0  0  0  3  0  0  0  0  0  0
  -28.9990  -20.5690   19.5740 C   0  0  0  0  0  0  0  0  0  0  0  0
  -28.8660  -23.0440   19.2380 C   0  0  0  0  0  0  0  0  0  0  0  0
  -27.5770  -20.6060   19.6380 C   0  0  0  0  0  0  0  0  0  0  0  0
  -26.6980  -19.3990   19.9400 C   0  0  0  0  0  1  0  0  0  0  0  0
  -26.8500  -21.7230   19.4550 N   0  0  0  0  0  0  0  0  0  0  0  0
  -31.4460  -15.0220   19.6920 C   0  0  0  0  0  0  0  0  0  0  0  0
  -31.1820  -12.6320   19.0280 C   0  0  0  0  0  2  0  0  0  0  0  0
  -30.2240  -12.4800   17.8290 C   0  0  0  0  0  2  0  0  0  0  0  0
  -28.7670  -12.3570   18.3120 C   0  0  0  0  0  2  0  0  0  0  0  0
  -28.4040  -13.4360   19.3650 C   0  0  0  0  0  3  0  0  0  0  0  0
  -29.4890  -13.5260   20.4690 C   0  0  0  0  0  2  0  0  0  0  0  0
  -30.7530  -13.8320   19.7900 N   0  0  0  0  0  0  0  0  0  0  0  0
  -32.6280  -14.9660   19.3360 O   0  0  0  0  0  0  0  0  0  0  0  0
  -28.8730  -17.9230   19.5700 C   0  0  0  0  0  2  0  0  0  0  0  0
  -31.0360  -18.8540   19.0630 C   0  0  0  0  0  2  0  0  0  0  0  0
  -29.4990  -16.6710   20.2470 C   0  0  0  0  0  2  0  0  0  0  0  0
  -31.6990  -17.5130   19.5680 C   0  0  0  0  0  2  0  0  0  0  0  0
  -29.7290  -19.1880   19.8020 C   0  0  0  0  0  3  0  0  0  0  0  0
  -30.8400  -16.2860   19.7410 N   0  0  0  0  0  0  0  0  0  0  0  0
  -26.0890  -14.1770   20.2050 C   0  0  0  0  0  0  0  0  0  0  0  0
  -25.0000  -13.4640   20.6260 C   0  0  0  0  0  0  0  0  0  0  0  0
  -25.3840  -12.0890   20.5710 C   0  0  0  0  0  0  0  0  0  0  0  0
  -27.0700  -13.2380   19.9200 N   0  0  0  0  0  0  0  0  0  0  0  0
  -26.6530  -11.9790   20.2030 N   0  0  0  0  0  0  0  0  0  0  0  0
  -24.5970  -10.8700   20.7880 C   0  0  0  0  0  0  0  0  0  0  0  0
  -24.9180   -9.9590   21.8190 C   0  0  0  0  0  3  0  0  0  0  0  0
  -24.1350   -8.8010   22.0160 C   0  0  0  0  0  3  0  0  0  0  0  0
  -23.0190   -8.5480   21.1820 C   0  0  0  0  0  0  0  0  0  0  0  0
  -22.7200   -9.4460   20.1430 C   0  0  0  0  0  3  0  0  0  0  0  0
  -23.5030  -10.5940   19.9430 C   0  0  0  0  0  3  0  0  0  0  0  0
  -22.2170   -7.4370   21.2870 O   0  0  0  0  0  0  0  0  0  0  0  0
  -21.8880   -6.9010   22.5050 C   0  0  0  0  0  0  0  0  0  0  0  0
  -21.1930   -7.6460   23.4830 C   0  0  0  0  0  3  0  0  0  0  0  0
  -20.8110   -7.0350   24.6940 C   0  0  0  0  0  3  0  0  0  0  0  0
  -21.1130   -5.6800   24.9250 C   0  0  0  0  0  0  0  0  0  0  0  0
  -21.8000   -4.9350   23.9500 C   0  0  0  0  0  3  0  0  0  0  0  0
  -22.1830   -5.5440   22.7420 C   0  0  0  0  0  0  0  0  0  0  0  0
  -22.8250   -4.8150   21.7980 F   0  0  0  0  0  0  0  0  0  0  0  0
  -20.7390   -5.0910   26.0850 F   0  0  0  0  0  0  0  0  0  0  0  0
  -23.6470  -14.0210   20.9650 C   0  0  0  0  0  0  0  0  0  0  0  0
  -22.9440  -13.3920   21.9000 N   0  0  0  0  0  0  0  0  0  0  0  0
  -23.2260  -15.0460   20.4330 O   0  0  0  0  0  0  0  0  0  0  0  0
  -23.2970  -12.5650   22.3560 H   0  0  0  0  0  0  0  0  0  0  0  0
  -22.0360  -13.7470   22.1660 H   0  0  0  0  0  0  0  0  0  0  0  0
  -26.3090  -15.5370   20.0160 N   0  0  0  0  0  0  0  0  0  0  0  0
  -25.5670  -16.2130   20.1530 H   0  0  0  0  0  0  0  0  0  0  0  0
  -27.1390  -15.9350   19.5980 H   0  0  0  0  0  0  0  0  0  0  0  0
  -29.4370  -24.4840   19.0130 C   0  0  0  0  0  2  0  0  0  0  0  0
  -28.8890  -25.6330   19.9630 C   0  0  0  0  0  2  0  0  0  0  0  0
  -28.9050  -27.0190   19.4910 O   0  0  0  0  0  0  0  0  0  0  0  0
  -24.5600  -31.5010   23.0480 C   0  0  0  0  0  0  0  0  0  0  0  0
  -27.6940  -27.7040   19.5420 C   0  0  0  0  0  0  0  0  0  0  0  0
  -23.5340  -30.2090   21.2070 C   0  0  0  0  0  3  0  0  0  0  0  0
  -25.1660  -29.0040   19.6510 C   0  0  0  0  0  0  0  0  0  0  0  0
  -26.0200  -30.8220   21.1380 C   0  0  0  0  0  2  0  0  0  0  0  0
  -26.2600  -29.5520   20.3360 C   0  0  0  0  0  0  0  0  0  0  0  0
  -27.5290  -28.9130   20.2710 C   0  0  0  0  0  3  0  0  0  0  0  0
  -26.5800  -27.1880   18.8480 C   0  0  0  0  0  3  0  0  0  0  0  0
  -25.3250  -27.8270   18.8990 C   0  0  0  0  0  3  0  0  0  0  0  0
  -23.8420  -29.7320   19.7620 C   0  0  0  0  0  2  0  0  0  0  0  0
  -24.7210  -30.8530   21.8590 N   0  0  0  0  0  0  0  0  0  0  0  0
  -23.4450  -31.5990   23.5800 O   0  0  0  0  0  0  0  0  0  0  0  0
  -22.9640  -29.0180   22.0130 C   0  0  0  0  0  0  0  0  0  0  0  0
  -21.6560  -28.7560   21.8580 N   0  0  0  0  0  0  0  0  0  0  0  0
  -23.6970  -28.3390   22.7370 O   0  0  0  0  0  0  0  0  0  0  0  0
  -21.1200  -29.3650   21.2540 H   0  0  0  0  0  0  0  0  0  0  0  0
  -18.3760  -27.2770   22.2120 C   0  0  0  0  0  0  0  0  0  0  0  0
  -20.9180  -27.6590   22.4840 C   0  0  0  0  0  3  0  0  0  0  0  0
  -21.0960  -26.3430   21.6920 C   0  0  0  0  0  2  0  0  0  0  0  0
  -19.9930  -26.1080   20.6550 C   0  0  0  0  0  2  0  0  0  0  0  0
  -18.6210  -26.0610   21.3330 C   0  0  0  0  0  2  0  0  0  0  0  0
  -19.4540  -28.0350   22.7400 C   0  0  0  0  0  0  0  0  0  0  0  0
  -19.1710  -29.1750   23.5240 C   0  0  0  0  0  3  0  0  0  0  0  0
  -17.8420  -29.5580   23.7820 C   0  0  0  0  0  3  0  0  0  0  0  0
  -16.7780  -28.7960   23.2700 C   0  0  0  0  0  3  0  0  0  0  0  0
  -17.0470  -27.6550   22.4920 C   0  0  0  0  0  3  0  0  0  0  0  0
  -25.7630  -32.1700   23.7850 C   0  0  0  0  0  3  0  0  0  0  0  0
  -25.3720  -33.5490   24.1090 N   0  0  0  0  0  0  0  0  0  0  0  0
  -25.7310  -34.6280   23.4000 C   0  0  0  0  0  0  0  0  0  0  0  0
  -26.4960  -34.5690   22.4340 O   0  0  0  0  0  0  0  0  0  0  0  0
  -24.7060  -33.6660   24.8590 H   0  0  0  0  0  0  0  0  0  0  0  0
  -23.9750  -36.3600   22.9180 C   0  0  0  0  0  1  0  0  0  0  0  0
  -25.1510  -35.9870   23.8340 C   0  0  0  0  0  3  0  0  0  0  0  0
  -27.1620  -36.9370   24.8770 C   0  0  0  0  0  1  0  0  0  0  0  0
  -26.1490  -37.0800   23.8330 N   0  0  0  0  0  0  0  0  0  0  0  0
  -25.6950  -37.9800   23.9550 H   0  0  0  0  0  0  0  0  0  0  0  0
  -26.2040  -31.3960   25.0850 C   0  0  1  0  0  0  0  0  0  0  0  0
  -25.0400  -31.1070   26.0610 C   0  0  0  0  0  1  0  0  0  0  0  0
  -26.8640  -30.0440   24.7200 C   0  0  0  0  0  1  0  0  0  0  0  0
  -27.2720  -32.2150   25.8490 C   0  0  0  0  0  1  0  0  0  0  0  0
  1  3  1  0
  2  7  2  0
  3  5  2  0
  4  2  1  0
  4  1  2  0
  5  6  1  0
  7  5  1  0
  8 21  1  0
  8 14  1  0
  9 14  1  0
 10 11  1  0
 10  9  1  0
 12 11  1  0
 12 25  1  0
 12 13  1  0
 14 13  1  0
 15  8  2  0
 16 20  1  0
 16 18  1  0
 17 19  1  0
 17 20  1  0
 19 21  1  0
 20  3  1  0
 21 18  1  0
 22 23  2  0
 23 42  1  0
 24 23  1  0
 24 27  1  0
 25 26  1  0
 25 22  1  0
 26 24  2  0
 27 28  1  0
 28 29  2  0
 30 33  1  0
 30 29  1  0
 31 30  2  0
 32 31  1  0
 32 27  2  0
 33 34  1  0
 34 39  2  0
 34 35  1  0
 35 36  2  0
 36 37  1  0
 37 41  1  0
 38 37  2  0
 39 38  1  0
 40 39  1  0
 42 43  1  0
 43 46  1  0
 43 45  1  0
 44 42  2  0
 47 48  1  0
 47 22  1  0
 49 47  1  0
 50  4  1  0
 50 51  1  0
 52 54  1  0
 52 51  1  0
 53 64  2  0
 54 59  1  0
 55 63  1  0
 55 65  1  0
 56 62  1  0
 56 58  1  0
 57 63  1  0
 58 57  1  0
 59 58  2  0
 60 61  1  0
 60 54  2  0
 61 56  2  0
 62 55  1  0
 63 53  1  0
 65 67  2  0
 66 65  1  0
 68 66  1  0
 69 78  2  0
 69 74  1  0
 70 66  1  0
 70 74  1  0
 71 70  1  0
 72 73  1  0
 72 71  1  0
 73 69  1  0
 74 75  2  0
 75 76  1  0
 77 76  2  0
 78 77  1  0
 79 53  1  0
 79 80  1  0
 79 89  1  0
 80 83  1  0
 81 85  1  0
 81 80  1  0
 82 81  2  0
 85 84  1  0
 87 85  1  0
 87 88  1  0
 87 86  1  0
 89 92  1  1
 89 90  1  0
 91 89  1  0
M  ISO  4   8 100  21 100  51 101  52 101
M  END
>  <TORSDO>  (91) 
F 18

>  <SCORE>  (91) 
-11.213

>  <name>  (91) 
90

>  <ligand_id>  (91) 
90

>  <original_smiles>  (91) 
[H]c1nc(C([H])([H])[H])c(C2([H])C([H])([H])C([H])([H])N(C(=O)N3C([H])([H])C([H])([H])C([H])([H])C([H])(n4nc(-c5c([H])c([H])c(Oc6c([H])c([H])c(F)c([H])c6F)c([H])c5[H])c(C(=O)N([H])[H])c4N([H])[H])C3([H])[H])C([H])([H])C2([H])[H])c([H])c1C([H])([H])C([H])([H])Oc1c([H])c([H])c2c(c1[H])C([H])([H])N(C(=O)C([H])(N([H])C(=O)C([H])(N([H])C([H])([H])[H])C([H])([H])[H])C(C([H])([H])[H])(C([H])([H])[H])C([H])([H])[H])C([H])(C(=O)N([H])C1([H])c3c([H])c([H])c([H])c([H])c3C([H])([H])C([H])([H])C1([H])[H])C2([H])[H]

>  <smiles>  (91) 
[H]c1nc(C([H])([H])[H])c(C2([H])C([H])([H])C([H])([H])N(C(=O)N3C([H])([H])C([H])([H])C([H])([H])C([H])(n4nc(-c5c([H])c([H])c(Oc6c([H])c([H])c(F)c([H])c6F)c([H])c5[H])c(C(=O)N([H])[H])c4N([H])[H])C3([H])[H])C([H])([H])C2([H])[H])c([H])c1C([H])([H])C([H])([H])Oc1c([H])c([H])c2c(c1[H])C([H])([H])N(C(=O)C([H])(N([H])C(=O)C([H])(N([H])C([H])([H])[H])C([H])([H])[H])C(C([H])([H])[H])(C([H])([H])[H])C([H])([H])[H])C([H])(C(=O)N([H])C1([H])c3c([H])c([H])c([H])c([H])c3C([H])([H])C([H])([H])C1([H])[H])C2([H])[H]

$$$$
91:0:0
     RDKit          3D

 93101  0  0  1  0  0  0  0  0999 V2000
  -28.0890  -18.6610   19.9580 C   0  0  0  0  0  3  0  0  0  0  0  0
  -29.9370  -19.9900   20.8000 C   0  0  0  0  0  3  0  0  0  0  0  0
  -28.0240  -21.1130   19.8210 C   0  0  0  0  0  3  0  0  0  0  0  0
  -29.3680  -18.6780   20.5650 C   0  0  0  0  0  0  0  0  0  0  0  0
  -27.4260  -19.8590   19.5830 C   0  0  0  0  0  0  0  0  0  0  0  0
  -29.2830  -21.2350   20.4310 C   0  0  0  0  0  0  0  0  0  0  0  0
  -25.2240  -18.6240   19.1300 C   0  0  0  0  0  1  0  0  0  0  0  0
  -26.2310  -20.1390   17.3740 C   0  0  0  0  0  1  0  0  0  0  0  0
  -26.0700  -19.8720   18.8790 C   0  0  0  0  0  3  0  0  0  0  0  0
  -31.2580  -22.6910   21.2400 C   0  0  0  0  0  1  0  0  0  0  0  0
  -29.9170  -22.6910   20.4880 C   0  0  0  0  0  3  0  0  0  0  0  0
  -29.0380  -23.9730   20.9360 C   0  0  0  0  0  2  0  0  0  0  0  0
  -29.2570  -25.3570   20.1430 C   0  0  0  0  0  2  0  0  0  0  0  0
  -28.9840  -26.6880   20.7440 O   0  0  0  0  0  0  0  0  0  0  0  0
  -24.8390  -31.9850   23.3120 C   0  0  0  0  0  0  0  0  0  0  0  0
  -27.8060  -27.4350   20.5710 C   0  0  0  0  0  0  0  0  0  0  0  0
  -23.7810  -30.4830   21.6590 C   0  0  0  0  0  3  0  0  0  0  0  0
  -25.3690  -28.9370   20.3720 C   0  0  0  0  0  0  0  0  0  0  0  0
  -26.3100  -30.8990   21.6010 C   0  0  0  0  0  2  0  0  0  0  0  0
  -26.4780  -29.5000   21.0130 C   0  0  0  0  0  0  0  0  0  0  0  0
  -27.6930  -28.7580   21.1040 C   0  0  0  0  0  3  0  0  0  0  0  0
  -26.6690  -26.9130   19.9130 C   0  0  0  0  0  3  0  0  0  0  0  0
  -25.4680  -27.6500   19.8130 C   0  0  0  0  0  3  0  0  0  0  0  0
  -24.0950  -29.7590   20.3210 C   0  0  0  0  0  2  0  0  0  0  0  0
  -24.9920  -31.1430   22.2480 N   0  0  0  0  0  0  0  0  0  0  0  0
  -23.7180  -32.2370   23.7790 O   0  0  0  0  0  0  0  0  0  0  0  0
  -23.1040  -29.4800   22.6220 C   0  0  0  0  0  0  0  0  0  0  0  0
  -21.7880  -29.2730   22.4510 N   0  0  0  0  0  0  0  0  0  0  0  0
  -23.7650  -28.8870   23.4790 O   0  0  0  0  0  0  0  0  0  0  0  0
  -21.3150  -29.8000   21.7300 H   0  0  0  0  0  0  0  0  0  0  0  0
  -18.4030  -28.0920   22.9220 C   0  0  0  0  0  0  0  0  0  0  0  0
  -20.9600  -28.3390   23.2150 C   0  0  0  0  0  3  0  0  0  0  0  0
  -21.0600  -26.9080   22.6380 C   0  0  0  0  0  2  0  0  0  0  0  0
  -19.9650  -26.5920   21.6150 C   0  0  0  0  0  2  0  0  0  0  0  0
  -18.5780  -26.7430   22.2460 C   0  0  0  0  0  2  0  0  0  0  0  0
  -19.5210  -28.8480   23.3630 C   0  0  0  0  0  0  0  0  0  0  0  0
  -19.3020  -30.1110   23.9560 C   0  0  0  0  0  3  0  0  0  0  0  0
  -17.9980  -30.6180   24.1110 C   0  0  0  0  0  3  0  0  0  0  0  0
  -16.8940  -29.8590   23.6830 C   0  0  0  0  0  3  0  0  0  0  0  0
  -17.0970  -28.5980   23.0960 C   0  0  0  0  0  3  0  0  0  0  0  0
  -26.0610  -32.6880   23.9800 C   0  0  0  0  0  3  0  0  0  0  0  0
  -25.6750  -34.0780   24.2610 N   0  0  0  0  0  0  0  0  0  0  0  0
  -25.9790  -35.1260   23.4840 C   0  0  0  0  0  0  0  0  0  0  0  0
  -26.6810  -35.0280   22.4750 O   0  0  0  0  0  0  0  0  0  0  0  0
  -25.0460  -34.2220   25.0370 H   0  0  0  0  0  0  0  0  0  0  0  0
  -24.1780  -36.8240   23.0330 C   0  0  0  0  0  1  0  0  0  0  0  0
  -25.4140  -36.5010   23.8890 C   0  0  0  0  0  3  0  0  0  0  0  0
  -27.4700  -37.5200   24.7630 C   0  0  0  0  0  1  0  0  0  0  0  0
  -26.3990  -37.6000   23.7740 N   0  0  0  0  0  0  0  0  0  0  0  0
  -25.9440  -38.5040   23.8690 H   0  0  0  0  0  0  0  0  0  0  0  0
  -26.5440  -31.9690   25.2990 C   0  0  1  0  0  0  0  0  0  0  0  0
  -25.4010  -31.6770   26.3000 C   0  0  0  0  0  1  0  0  0  0  0  0
  -27.2380  -30.6260   24.9700 C   0  0  0  0  0  1  0  0  0  0  0  0
  -27.5950  -32.8460   26.0180 C   0  0  0  0  0  1  0  0  0  0  0  0
  -30.0930  -17.3100   20.9770 C   0  0  0  0  0  2  0  0  0  0  0  0
  -30.6460  -14.8380   20.4100 C   0  0  0  0  0  0  0  0  0  0  0  0
  -30.4270  -12.6190   19.3050 C   0  0  0  0  0  2  0  0  0  0  0  0
  -29.4600  -12.7230   18.1050 C   0  0  0  0  0  2  0  0  0  0  0  0
  -27.9950  -12.5770   18.5550 C   0  0  0  0  0  2  0  0  0  0  0  0
  -27.6480  -13.3990   19.8260 C   0  0  0  0  0  3  0  0  0  0  0  0
  -28.7300  -13.2570   20.9150 C   0  0  0  0  0  2  0  0  0  0  0  0
  -30.0060  -13.6270   20.2970 N   0  0  0  0  0  0  0  0  0  0  0  0
  -31.8740  -14.8980   20.2810 O   0  0  0  0  0  0  0  0  0  0  0  0
  -29.6630  -16.3040   18.7950 C   0  0  0  0  0  1  0  0  0  0  0  0
  -29.8870  -15.9960   20.2220 N   0  0  0  0  0  0  0  0  0  0  0  0
  -25.2680  -13.9470   20.6010 C   0  0  0  0  0  0  0  0  0  0  0  0
  -24.2050  -13.1570   20.9410 C   0  0  0  0  0  0  0  0  0  0  0  0
  -24.6800  -11.8130   20.8700 C   0  0  0  0  0  0  0  0  0  0  0  0
  -26.3150  -13.0860   20.3280 N   0  0  0  0  0  0  0  0  0  0  0  0
  -25.9700  -11.7940   20.5600 N   0  0  0  0  0  0  0  0  0  0  0  0
  -23.9670  -10.5410   21.0260 C   0  0  0  0  0  0  0  0  0  0  0  0
  -24.3760   -9.5810   21.9780 C   0  0  0  0  0  3  0  0  0  0  0  0
  -23.6640   -8.3710   22.1200 C   0  0  0  0  0  3  0  0  0  0  0  0
  -22.5300   -8.1140   21.3120 C   0  0  0  0  0  0  0  0  0  0  0  0
  -22.1430   -9.0640   20.3510 C   0  0  0  0  0  3  0  0  0  0  0  0
  -22.8560  -10.2660   20.2060 C   0  0  0  0  0  3  0  0  0  0  0  0
  -21.7920   -6.9560   21.3650 O   0  0  0  0  0  0  0  0  0  0  0  0
  -21.6680   -6.2350   22.5250 C   0  0  0  0  0  0  0  0  0  0  0  0
  -21.0690   -6.7800   23.6810 C   0  0  0  0  0  3  0  0  0  0  0  0
  -20.8990   -5.9810   24.8300 C   0  0  0  0  0  3  0  0  0  0  0  0
  -21.3170   -4.6370   24.8210 C   0  0  0  0  0  0  0  0  0  0  0  0
  -21.9080   -4.0910   23.6680 C   0  0  0  0  0  3  0  0  0  0  0  0
  -22.0820   -4.8880   22.5230 C   0  0  0  0  0  0  0  0  0  0  0  0
  -22.6340   -4.3510   21.4080 F   0  0  0  0  0  0  0  0  0  0  0  0
  -21.1470   -3.8660   25.9200 F   0  0  0  0  0  0  0  0  0  0  0  0
  -22.8040  -13.6190   21.2260 C   0  0  0  0  0  0  0  0  0  0  0  0
  -22.0740  -12.8770   22.0510 N   0  0  0  0  0  0  0  0  0  0  0  0
  -22.3670  -14.6670   20.7540 O   0  0  0  0  0  0  0  0  0  0  0  0
  -22.4390  -12.0290   22.4580 H   0  0  0  0  0  0  0  0  0  0  0  0
  -21.1340  -13.1650   22.2830 H   0  0  0  0  0  0  0  0  0  0  0  0
  -25.4300  -15.3190   20.4840 N   0  0  0  0  0  0  0  0  0  0  0  0
  -24.6680  -15.9710   20.6220 H   0  0  0  0  0  0  0  0  0  0  0  0
  -26.3050  -15.7650   20.2450 H   0  0  0  0  0  0  0  0  0  0  0  0
  1  4  1  0
  3  6  2  0
  4  2  2  0
  4 55  1  0
  5  3  1  0
  5  1  2  0
  6 11  1  0
  6  2  1  0
  8  9  1  0
  9  7  1  0
  9  5  1  0
 11 12  1  0
 11 10  1  0
 13 14  1  0
 13 12  1  0
 15 26  2  0
 16 14  1  0
 16 21  1  0
 17 25  1  0
 17 27  1  0
 18 20  1  0
 19 25  1  0
 20 21  2  0
 20 19  1  0
 22 16  2  0
 23 22  1  0
 23 18  2  0
 24 18  1  0
 24 17  1  0
 25 15  1  0
 27 29  2  0
 28 27  1  0
 30 28  1  0
 31 40  2  0
 31 36  1  0
 32 28  1  0
 32 36  1  0
 33 32  1  0
 34 35  1  0
 34 33  1  0
 35 31  1  0
 36 37  2  0
 37 38  1  0
 39 38  2  0
 40 39  1  0
 41 15  1  0
 41 42  1  0
 41 51  1  0
 42 45  1  0
 43 47  1  0
 43 42  1  0
 44 43  2  0
 47 46  1  0
 49 50  1  0
 49 47  1  0
 49 48  1  0
 51 54  1  1
 51 52  1  0
 53 51  1  0
 57 62  1  0
 58 59  1  0
 58 57  1  0
 60 59  1  0
 60 69  1  0
 60 61  1  0
 62 56  1  0
 62 61  1  0
 63 56  2  0
 64 65  1  0
 65 56  1  0
 65 55  1  0
 66 67  2  0
 67 86  1  0
 68 67  1  0
 68 71  1  0
 69 70  1  0
 69 66  1  0
 70 68  2  0
 71 72  1  0
 72 73  2  0
 74 77  1  0
 74 73  1  0
 75 74  2  0
 76 75  1  0
 76 71  2  0
 77 78  1  0
 78 79  1  0
 79 80  2  0
 81 80  1  0
 81 85  1  0
 82 81  2  0
 83 78  2  0
 83 82  1  0
 84 83  1  0
 86 87  1  0
 87 90  1  0
 87 89  1  0
 88 86  2  0
 91 66  1  0
 91 92  1  0
 93 91  1  0
M  ISO  4  13 101  14 101  56 100  65 100
M  END
>  <TORSDO>  (92) 
F 21

>  <SCORE>  (92) 
-12.325

>  <name>  (92) 
91

>  <ligand_id>  (92) 
91

>  <original_smiles>  (92) 
[H]c1c([H])c([H])c2c(c1[H])C([H])([H])C([H])([H])C([H])([H])C2([H])N([H])C(=O)C1([H])N(C(=O)C([H])(N([H])C(=O)C([H])(N([H])C([H])([H])[H])C([H])([H])[H])C(C([H])([H])[H])(C([H])([H])[H])C([H])([H])[H])C([H])([H])c2c([H])c(OC([H])([H])C([H])([H])C([H])(c3c([H])c(C([H])([H])N(C(=O)N4C([H])([H])C([H])([H])C([H])([H])C([H])(n5nc(-c6c([H])c([H])c(Oc7c([H])c([H])c(F)c([H])c7F)c([H])c6[H])c(C(=O)N([H])[H])c5N([H])[H])C4([H])[H])C([H])([H])[H])c([H])c(C([H])(C([H])([H])[H])C([H])([H])[H])c3[H])C([H])([H])[H])c([H])c([H])c2C1([H])[H]

>  <smiles>  (92) 
[H]c1c([H])c([H])c2c(c1[H])C([H])([H])C([H])([H])C([H])([H])C2([H])N([H])C(=O)C1([H])N(C(=O)C([H])(N([H])C(=O)C([H])(N([H])C([H])([H])[H])C([H])([H])[H])C(C([H])([H])[H])(C([H])([H])[H])C([H])([H])[H])C([H])([H])c2c([H])c(OC([H])([H])C([H])([H])C([H])(c3c([H])c(C([H])([H])N(C(=O)N4C([H])([H])C([H])([H])C([H])([H])C([H])(n5nc(-c6c([H])c([H])c(Oc7c([H])c([H])c(F)c([H])c7F)c([H])c6[H])c(C(=O)N([H])[H])c5N([H])[H])C4([H])[H])C([H])([H])[H])c([H])c(C([H])(C([H])([H])[H])C([H])([H])[H])c3[H])C([H])([H])[H])c([H])c([H])c2C1([H])[H]

$$$$
92:0:0
     RDKit          3D

 89 96  0  0  1  0  0  0  0  0999 V2000
  -29.1100  -22.5240   19.9290 C   0  0  0  0  0  3  0  0  0  0  0  0
  -29.1440  -24.1560   21.9150 C   0  0  0  0  0  1  0  0  0  0  0  0
  -28.4780  -23.8560   20.5630 C   0  0  0  0  0  3  0  0  0  0  0  0
  -28.5310  -25.1610   19.6380 C   0  0  0  0  0  2  0  0  0  0  0  0
  -28.3940  -26.5150   20.2230 O   0  0  0  0  0  0  0  0  0  0  0  0
  -24.6200  -31.8420   23.2250 C   0  0  0  0  0  0  0  0  0  0  0  0
  -27.2320  -27.2950   20.1610 C   0  0  0  0  0  0  0  0  0  0  0  0
  -23.4110  -30.4430   21.5860 C   0  0  0  0  0  3  0  0  0  0  0  0
  -24.8560  -28.8890   20.1580 C   0  0  0  0  0  0  0  0  0  0  0  0
  -25.9460  -30.7670   21.3920 C   0  0  0  0  0  2  0  0  0  0  0  0
  -26.0220  -29.3880   20.7480 C   0  0  0  0  0  0  0  0  0  0  0  0
  -27.2100  -28.6010   20.7400 C   0  0  0  0  0  3  0  0  0  0  0  0
  -26.0370  -26.8350   19.5630 C   0  0  0  0  0  3  0  0  0  0  0  0
  -24.8650  -27.6180   19.5580 C   0  0  0  0  0  3  0  0  0  0  0  0
  -23.6200  -29.7620   20.2060 C   0  0  0  0  0  2  0  0  0  0  0  0
  -24.6780  -31.0360   22.1240 N   0  0  0  0  0  0  0  0  0  0  0  0
  -23.5380  -32.1190   23.7630 O   0  0  0  0  0  0  0  0  0  0  0  0
  -22.7540  -29.4270   22.5510 C   0  0  0  0  0  0  0  0  0  0  0  0
  -21.4290  -29.2420   22.4210 N   0  0  0  0  0  0  0  0  0  0  0  0
  -23.4330  -28.8080   23.3730 O   0  0  0  0  0  0  0  0  0  0  0  0
  -20.9390  -29.7950   21.7300 H   0  0  0  0  0  0  0  0  0  0  0  0
  -18.0600  -28.0140   22.8950 C   0  0  0  0  0  0  0  0  0  0  0  0
  -20.6120  -28.3050   23.1930 C   0  0  0  0  0  3  0  0  0  0  0  0
  -20.7370  -26.8690   22.6350 C   0  0  0  0  0  2  0  0  0  0  0  0
  -19.6500  -26.5220   21.6110 C   0  0  0  0  0  2  0  0  0  0  0  0
  -18.2590  -26.6600   22.2370 C   0  0  0  0  0  2  0  0  0  0  0  0
  -19.1650  -28.7940   23.3300 C   0  0  0  0  0  0  0  0  0  0  0  0
  -18.9240  -30.0610   23.9050 C   0  0  0  0  0  3  0  0  0  0  0  0
  -17.6120  -30.5490   24.0500 C   0  0  0  0  0  3  0  0  0  0  0  0
  -16.5210  -29.7670   23.6310 C   0  0  0  0  0  3  0  0  0  0  0  0
  -16.7470  -28.5020   23.0590 C   0  0  0  0  0  3  0  0  0  0  0  0
  -25.9060  -32.4750   23.8450 C   0  0  0  0  0  3  0  0  0  0  0  0
  -25.5940  -33.8710   24.1830 N   0  0  0  0  0  0  0  0  0  0  0  0
  -25.9190  -34.9300   23.4300 C   0  0  0  0  0  0  0  0  0  0  0  0
  -26.5820  -34.8330   22.3930 O   0  0  0  0  0  0  0  0  0  0  0  0
  -25.0060  -34.0180   24.9910 H   0  0  0  0  0  0  0  0  0  0  0  0
  -24.1810  -36.7180   23.1030 C   0  0  0  0  0  1  0  0  0  0  0  0
  -25.4320  -36.3140   23.8980 C   0  0  0  0  0  3  0  0  0  0  0  0
  -27.5740  -37.2030   24.7070 C   0  0  0  0  0  1  0  0  0  0  0  0
  -26.4600  -37.3710   23.7770 N   0  0  0  0  0  0  0  0  0  0  0  0
  -26.0530  -38.2900   23.9340 H   0  0  0  0  0  0  0  0  0  0  0  0
  -26.4290  -31.6990   25.1140 C   0  0  1  0  0  0  0  0  0  0  0  0
  -25.3410  -31.4550   26.1860 C   0  0  0  0  0  1  0  0  0  0  0  0
  -27.0120  -30.3230   24.7120 C   0  0  0  0  0  1  0  0  0  0  0  0
  -27.5820  -32.4910   25.7750 C   0  0  0  0  0  1  0  0  0  0  0  0
  -28.9060  -21.1060   20.6410 C   0  0  0  0  0  3  0  0  0  0  0  0
  -29.6510  -19.8210   20.0340 C   0  0  0  0  0  2  0  0  0  0  0  0
  -27.8900  -18.0160   20.4280 C   0  0  0  0  0  1  0  0  0  0  0  0
  -29.6950  -18.3480   22.1340 C   0  0  0  0  0  1  0  0  0  0  0  0
  -29.3790  -18.3500   20.6270 C   0  0  2  0  0  0  0  0  0  0  0  0
  -30.2480  -17.1830   19.9500 C   0  0  0  0  0  2  0  0  0  0  0  0
  -30.6850  -14.6410   19.9840 C   0  0  0  0  0  0  0  0  0  0  0  0
  -30.3870  -12.4200   18.9190 C   0  0  0  0  0  2  0  0  0  0  0  0
  -29.3800  -12.5750   17.7580 C   0  0  0  0  0  2  0  0  0  0  0  0
  -27.9330  -12.4200   18.2670 C   0  0  0  0  0  2  0  0  0  0  0  0
  -27.6480  -13.2640   19.5380 C   0  0  0  0  0  3  0  0  0  0  0  0
  -28.7680  -13.1020   20.5900 C   0  0  0  0  0  2  0  0  0  0  0  0
  -30.0420  -13.4320   19.9370 N   0  0  0  0  0  0  0  0  0  0  0  0
  -31.8350  -14.7650   19.5560 O   0  0  0  0  0  0  0  0  0  0  0  0
  -29.9310  -15.7440   20.2870 N   0  0  0  0  0  0  0  0  0  0  0  0
  -28.9950  -15.5600   20.6150 H   0  0  0  0  0  0  0  0  0  0  0  0
  -25.3040  -13.8510   20.4060 C   0  0  0  0  0  0  0  0  0  0  0  0
  -24.2590  -13.0750   20.8230 C   0  0  0  0  0  0  0  0  0  0  0  0
  -24.7150  -11.7240   20.7420 C   0  0  0  0  0  0  0  0  0  0  0  0
  -26.3310  -12.9740   20.0970 N   0  0  0  0  0  0  0  0  0  0  0  0
  -25.9850  -11.6880   20.3600 N   0  0  0  0  0  0  0  0  0  0  0  0
  -23.9950  -10.4600   20.9490 C   0  0  0  0  0  0  0  0  0  0  0  0
  -24.4470   -9.4970   21.8770 C   0  0  0  0  0  3  0  0  0  0  0  0
  -23.7280   -8.2980   22.0730 C   0  0  0  0  0  3  0  0  0  0  0  0
  -22.5400   -8.0550   21.3420 C   0  0  0  0  0  0  0  0  0  0  0  0
  -22.1070   -9.0070   20.4030 C   0  0  0  0  0  3  0  0  0  0  0  0
  -22.8270  -10.1980   20.2050 C   0  0  0  0  0  3  0  0  0  0  0  0
  -21.7900   -6.9090   21.4470 O   0  0  0  0  0  0  0  0  0  0  0  0
  -21.7290   -6.1950   22.6160 C   0  0  0  0  0  0  0  0  0  0  0  0
  -21.2940   -6.7810   23.8260 C   0  0  0  0  0  3  0  0  0  0  0  0
  -21.1790   -5.9920   24.9880 C   0  0  0  0  0  3  0  0  0  0  0  0
  -21.4890   -4.6200   24.9420 C   0  0  0  0  0  0  0  0  0  0  0  0
  -21.9180   -4.0350   23.7380 C   0  0  0  0  0  3  0  0  0  0  0  0
  -22.0340   -4.8190   22.5780 C   0  0  0  0  0  0  0  0  0  0  0  0
  -22.4270   -4.2460   21.4150 F   0  0  0  0  0  0  0  0  0  0  0  0
  -21.3710   -3.8610   26.0570 F   0  0  0  0  0  0  0  0  0  0  0  0
  -22.8790  -13.5510   21.1790 C   0  0  0  0  0  0  0  0  0  0  0  0
  -22.1990  -12.8470   22.0750 N   0  0  0  0  0  0  0  0  0  0  0  0
  -22.4170  -14.5840   20.6970 O   0  0  0  0  0  0  0  0  0  0  0  0
  -22.5880  -12.0120   22.4880 H   0  0  0  0  0  0  0  0  0  0  0  0
  -21.2770  -13.1510   22.3560 H   0  0  0  0  0  0  0  0  0  0  0  0
  -25.4580  -15.2240   20.2390 N   0  0  0  0  0  0  0  0  0  0  0  0
  -24.6950  -15.8710   20.4060 H   0  0  0  0  0  0  0  0  0  0  0  0
  -26.2690  -15.6690   19.8340 H   0  0  0  0  0  0  0  0  0  0  0  0
  1  3  1  0
  1 46  2  0
  3  2  1  0
  4  5  1  0
  4  3  1  0
  6 17  2  0
  7  5  1  0
  7 12  1  0
  8 16  1  0
  8 18  1  0
  9 15  1  0
  9 11  1  0
 10 16  1  0
 11 10  1  0
 12 11  2  0
 13  7  2  0
 14 13  1  0
 14  9  2  0
 15  8  1  0
 16  6  1  0
 18 20  2  0
 19 18  1  0
 21 19  1  0
 22 31  2  0
 22 27  1  0
 23 19  1  0
 23 27  1  0
 24 23  1  0
 25 26  1  0
 25 24  1  0
 26 22  1  0
 27 28  2  0
 28 29  1  0
 30 29  2  0
 31 30  1  0
 32  6  1  0
 32 33  1  0
 32 42  1  0
 33 36  1  0
 34 38  1  0
 34 33  1  0
 35 34  2  0
 38 37  1  0
 40 38  1  0
 40 41  1  0
 40 39  1  0
 42 45  1  1
 42 43  1  0
 44 42  1  0
 47 50  1  0
 47 46  1  0
 50 48  1  1
 50 49  1  0
 51 60  1  0
 51 50  1  0
 52 60  1  0
 53 58  1  0
 54 55  1  0
 54 53  1  0
 56 55  1  0
 56 65  1  0
 56 57  1  0
 58 52  1  0
 58 57  1  0
 59 52  2  0
 60 61  1  0
 62 63  2  0
 63 82  1  0
 64 63  1  0
 64 67  1  0
 65 66  1  0
 65 62  1  0
 66 64  2  0
 67 68  1  0
 68 69  2  0
 70 73  1  0
 70 69  1  0
 71 70  2  0
 72 71  1  0
 72 67  2  0
 73 74  1  0
 74 75  1  0
 75 76  2  0
 77 76  1  0
 77 81  1  0
 78 77  2  0
 79 74  2  0
 79 78  1  0
 80 79  1  0
 82 83  1  0
 83 86  1  0
 83 85  1  0
 84 82  2  0
 87 88  1  0
 87 62  1  0
 89 87  1  0
M  ISO  4   4 101   5 101  52 100  60 100
M  END
>  <TORSDO>  (93) 
F 22

>  <SCORE>  (93) 
-12.181

>  <name>  (93) 
92

>  <ligand_id>  (93) 
92

>  <original_smiles>  (93) 
[H]c1c([H])c([H])c2c(c1[H])C([H])([H])C([H])([H])C([H])([H])C2([H])N([H])C(=O)C1([H])N(C(=O)C([H])(N([H])C(=O)C([H])(N([H])C([H])([H])[H])C([H])([H])[H])C(C([H])([H])[H])(C([H])([H])[H])C([H])([H])[H])C([H])([H])c2c([H])c(OC([H])([H])C([H])(C([H])([H])[H])C([H])([H])C([H])([H])C([H])([H])C(C([H])([H])[H])(C([H])([H])[H])C([H])([H])N([H])C(=O)N3C([H])([H])C([H])([H])C([H])([H])C([H])(n4nc(-c5c([H])c([H])c(Oc6c([H])c([H])c(F)c([H])c6F)c([H])c5[H])c(C(=O)N([H])[H])c4N([H])[H])C3([H])[H])c([H])c([H])c2C1([H])[H]

>  <smiles>  (93) 
[H]c1c([H])c([H])c2c(c1[H])C([H])([H])C([H])([H])C([H])([H])C2([H])N([H])C(=O)C1([H])N(C(=O)C([H])(N([H])C(=O)C([H])(N([H])C([H])([H])[H])C([H])([H])[H])C(C([H])([H])[H])(C([H])([H])[H])C([H])([H])[H])C([H])([H])c2c([H])c(OC([H])([H])C([H])(C([H])([H])[H])C([H])([H])C([H])([H])C([H])([H])C(C([H])([H])[H])(C([H])([H])[H])C([H])([H])N([H])C(=O)N3C([H])([H])C([H])([H])C([H])([H])C([H])(n4nc(-c5c([H])c([H])c(Oc6c([H])c([H])c(F)c([H])c6F)c([H])c5[H])c(C(=O)N([H])[H])c4N([H])[H])C3([H])[H])c([H])c([H])c2C1([H])[H]

$$$$
93:0:0
     RDKit          3D

 92100  0  0  1  0  0  0  0  0999 V2000
  -34.5140  -18.6670   12.2770 C   0  0  0  0  0  1  0  0  0  0  0  0
  -35.2740  -18.2950   10.9790 C   0  0  1  0  0  0  0  0  0  0  0  0
  -38.6500  -19.8370   12.1350 C   0  0  0  0  0  3  0  0  0  0  0  0
  -39.5110  -19.1160   11.2960 C   0  0  0  0  0  3  0  0  0  0  0  0
  -37.2620  -19.5890   12.0720 C   0  0  0  0  0  0  0  0  0  0  0  0
  -38.9590  -18.1650   10.4280 C   0  0  0  0  0  0  0  0  0  0  0  0
  -36.7770  -18.6280   11.1460 C   0  0  0  0  0  0  0  0  0  0  0  0
  -36.3560  -20.3610   13.0140 C   0  0  0  0  0  1  0  0  0  0  0  0
  -39.8340  -17.3630    9.4880 C   0  0  0  0  0  1  0  0  0  0  0  0
  -37.6350  -17.9240   10.3660 N   0  0  0  0  0  0  0  0  0  0  0  0
  -35.1350  -16.3790   11.1930 C   0  0  0  0  0  2  0  0  0  0  0  0
  -35.1940  -15.0150   12.5480 C   0  0  0  0  0  2  0  0  0  0  0  0
  -36.2420  -13.8220   13.2780 O   0  0  0  0  0  0  0  0  0  0  0  0
  -36.7700   -8.8790   19.2220 C   0  0  0  0  0  0  0  0  0  0  0  0
  -35.9990  -12.4860   14.0120 C   0  0  0  0  0  0  0  0  0  0  0  0
  -36.5550   -7.9990   16.9340 C   0  0  0  0  0  3  0  0  0  0  0  0
  -35.7460   -9.6730   15.1100 C   0  0  0  0  0  0  0  0  0  0  0  0
  -35.4920  -10.2880   17.5010 C   0  0  0  0  0  2  0  0  0  0  0  0
  -35.6550  -10.7460   16.0040 C   0  0  0  0  0  0  0  0  0  0  0  0
  -35.7400  -12.1270   15.4540 C   0  0  0  0  0  3  0  0  0  0  0  0
  -35.9680  -11.3000   13.2380 C   0  0  0  0  0  3  0  0  0  0  0  0
  -35.8580   -9.9690   13.7410 C   0  0  0  0  0  3  0  0  0  0  0  0
  -35.7220   -8.2310   15.6400 C   0  0  0  0  0  2  0  0  0  0  0  0
  -36.2910   -9.0740   17.9470 N   0  0  0  0  0  0  0  0  0  0  0  0
  -37.4090   -7.8600   19.5350 O   0  0  0  0  0  0  0  0  0  0  0  0
  -38.0590   -7.8640   16.5700 C   0  0  0  0  0  0  0  0  0  0  0  0
  -38.5580   -6.6240   16.3950 N   0  0  0  0  0  0  0  0  0  0  0  0
  -38.7540   -8.8740   16.4330 O   0  0  0  0  0  0  0  0  0  0  0  0
  -37.9390   -5.8390   16.5410 H   0  0  0  0  0  0  0  0  0  0  0  0
  -41.1120   -4.0410   16.3790 C   0  0  0  0  0  0  0  0  0  0  0  0
  -39.9280   -6.3060   15.9730 C   0  0  0  0  0  3  0  0  0  0  0  0
  -39.9770   -5.9380   14.4710 C   0  0  0  0  0  2  0  0  0  0  0  0
  -39.8620   -4.4320   14.2140 C   0  0  0  0  0  2  0  0  0  0  0  0
  -41.0030   -3.6820   14.9060 C   0  0  0  0  0  2  0  0  0  0  0  0
  -40.5940   -5.2640   16.8830 C   0  0  0  0  0  0  0  0  0  0  0  0
  -40.6970   -5.5310   18.2660 C   0  0  0  0  0  3  0  0  0  0  0  0
  -41.3010   -4.6020   19.1350 C   0  0  0  0  0  3  0  0  0  0  0  0
  -41.8220   -3.3990   18.6290 C   0  0  0  0  0  3  0  0  0  0  0  0
  -41.7310   -3.1230   17.2530 C   0  0  0  0  0  3  0  0  0  0  0  0
  -36.5310   -9.9200   20.3570 C   0  0  0  0  0  3  0  0  0  0  0  0
  -37.8610  -10.6180   20.8440 C   0  0  1  0  0  0  0  0  0  0  0  0
  -38.6340   -9.8110   21.9140 C   0  0  0  0  0  1  0  0  0  0  0  0
  -38.8240  -10.8640   19.6620 C   0  0  0  0  0  1  0  0  0  0  0  0
  -37.5350  -12.0100   21.4380 C   0  0  0  0  0  1  0  0  0  0  0  0
  -35.8850   -9.2270   21.4870 N   0  0  0  0  0  0  0  0  0  0  0  0
  -34.5630   -9.0960   21.6600 C   0  0  0  0  0  0  0  0  0  0  0  0
  -33.7410   -9.6010   20.8920 O   0  0  0  0  0  0  0  0  0  0  0  0
  -36.5000   -8.7430   22.1260 H   0  0  0  0  0  0  0  0  0  0  0  0
  -33.1640   -7.1340   22.3970 C   0  0  0  0  0  1  0  0  0  0  0  0
  -34.0710   -8.2790   22.8750 C   0  0  0  0  0  3  0  0  0  0  0  0
  -34.1610  -10.1640   24.4490 C   0  0  0  0  0  1  0  0  0  0  0  0
  -33.3500   -9.0920   23.8800 N   0  0  0  0  0  0  0  0  0  0  0  0
  -33.0160   -8.5080   24.6430 H   0  0  0  0  0  0  0  0  0  0  0  0
  -34.5440  -19.6730    9.8430 C   0  0  0  0  0  2  0  0  0  0  0  0
  -32.3490  -20.2660    7.6580 C   0  0  0  0  0  0  0  0  0  0  0  0
  -31.0610  -21.7500    5.8680 C   0  0  0  0  0  2  0  0  0  0  0  0
  -31.3720  -23.2730    5.8990 C   0  0  0  0  0  2  0  0  0  0  0  0
  -30.4850  -23.9920    6.9270 C   0  0  0  0  0  2  0  0  0  0  0  0
  -30.3700  -23.1780    8.2390 C   0  0  0  0  0  3  0  0  0  0  0  0
  -30.1050  -21.6700    8.0230 C   0  0  0  0  0  2  0  0  0  0  0  0
  -31.2510  -21.1370    7.2580 N   0  0  0  0  0  0  0  0  0  0  0  0
  -32.8000  -19.7100    6.6420 O   0  0  0  0  0  0  0  0  0  0  0  0
  -33.0380  -20.1240    9.0360 N   0  0  0  0  0  0  0  0  0  0  0  0
  -32.4390  -20.5760    9.7130 H   0  0  0  0  0  0  0  0  0  0  0  0
  -29.7950  -24.5830   10.2740 C   0  0  0  0  0  0  0  0  0  0  0  0
  -28.6100  -25.0000   10.8120 C   0  0  0  0  0  0  0  0  0  0  0  0
  -27.5820  -24.3980   10.0220 C   0  0  0  0  0  0  0  0  0  0  0  0
  -29.4600  -23.7810    9.1990 N   0  0  0  0  0  0  0  0  0  0  0  0
  -28.1150  -23.6130    9.0900 N   0  0  0  0  0  0  0  0  0  0  0  0
  -26.1240  -24.5740   10.0710 C   0  0  0  0  0  0  0  0  0  0  0  0
  -25.3030  -23.7370   10.8590 C   0  0  0  0  0  3  0  0  0  0  0  0
  -23.9080  -23.9420   10.9070 C   0  0  0  0  0  3  0  0  0  0  0  0
  -23.3170  -24.9950   10.1680 C   0  0  0  0  0  0  0  0  0  0  0  0
  -24.1370  -25.8120    9.3700 C   0  0  0  0  0  3  0  0  0  0  0  0
  -25.5250  -25.6040    9.3190 C   0  0  0  0  0  3  0  0  0  0  0  0
  -21.9690  -25.2550   10.1350 O   0  0  0  0  0  0  0  0  0  0  0  0
  -21.4560  -26.4530   10.5640 C   0  0  0  0  0  0  0  0  0  0  0  0
  -21.0180  -27.4440    9.6590 C   0  0  0  0  0  3  0  0  0  0  0  0
  -20.4320  -28.6310   10.1430 C   0  0  0  0  0  3  0  0  0  0  0  0
  -20.2770  -28.8250   11.5290 C   0  0  0  0  0  0  0  0  0  0  0  0
  -20.7070  -27.8360   12.4310 C   0  0  0  0  0  3  0  0  0  0  0  0
  -21.2930  -26.6530   11.9500 C   0  0  0  0  0  0  0  0  0  0  0  0
  -21.6860  -25.6940   12.8240 F   0  0  0  0  0  0  0  0  0  0  0  0
  -19.7080  -29.9620   11.9950 F   0  0  0  0  0  0  0  0  0  0  0  0
  -28.4470  -25.9820   11.9320 C   0  0  0  0  0  0  0  0  0  0  0  0
  -27.6870  -25.6200   12.9590 N   0  0  0  0  0  0  0  0  0  0  0  0
  -29.0380  -27.0620   11.9250 O   0  0  0  0  0  0  0  0  0  0  0  0
  -27.2190  -24.7260   12.9710 H   0  0  0  0  0  0  0  0  0  0  0  0
  -27.5700  -26.2460   13.7440 H   0  0  0  0  0  0  0  0  0  0  0  0
  -31.1280  -24.8370   10.5830 N   0  0  0  0  0  0  0  0  0  0  0  0
  -31.4080  -25.4240   11.3600 H   0  0  0  0  0  0  0  0  0  0  0  0
  -31.9140  -24.4630   10.0660 H   0  0  0  0  0  0  0  0  0  0  0  0
  2  7  1  0
  2 11  1  0
  2  1  1  1
  4  3  2  0
  5  3  1  0
  5  8  1  0
  6  4  1  0
  7  5  2  0
  9  6  1  0
 10  6  2  0
 10  7  1  0
 11 12  1  0
 12 13  1  0
 13 15  1  0
 14 25  2  0
 15 20  1  0
 16 26  1  0
 16 24  1  0
 17 23  1  0
 17 19  1  0
 18 24  1  0
 19 18  1  0
 20 19  2  0
 21 22  1  0
 21 15  2  0
 22 17  2  0
 23 16  1  0
 24 14  1  0
 27 29  1  0
 27 26  1  0
 28 26  2  0
 30 35  2  0
 30 39  1  0
 31 27  1  0
 31 35  1  0
 32 31  1  0
 33 32  1  0
 33 34  1  0
 34 30  1  0
 35 36  1  0
 36 37  2  0
 38 37  1  0
 39 38  2  0
 40 14  1  0
 40 41  1  0
 40 45  1  0
 41 44  1  1
 41 42  1  0
 43 41  1  0
 45 46  1  0
 45 48  1  0
 46 50  1  0
 47 46  2  0
 50 49  1  0
 50 52  1  0
 52 51  1  0
 52 53  1  0
 54  2  1  0
 55 63  1  0
 56 57  1  0
 56 61  1  0
 57 58  1  0
 59 58  1  0
 59 68  1  0
 60 59  1  0
 61 55  1  0
 61 60  1  0
 62 55  2  0
 63 64  1  0
 63 54  1  0
 65 90  1  0
 65 66  2  0
 66 85  1  0
 67 70  1  0
 67 66  1  0
 68 65  1  0
 69 68  1  0
 69 67  2  0
 70 71  1  0
 71 72  2  0
 73 72  1  0
 74 73  2  0
 75 74  1  0
 75 70  2  0
 76 73  1  0
 76 77  1  0
 77 82  1  0
 78 79  1  0
 78 77  2  0
 79 80  2  0
 80 84  1  0
 80 81  1  0
 82 81  2  0
 82 83  1  0
 85 86  1  0
 86 88  1  0
 86 89  1  0
 87 85  2  0
 90 91  1  0
 92 90  1  0
M  ISO  4  12 101  13 101  55 100  63 100
M  END
>  <TORSDO>  (94) 
F 20

>  <SCORE>  (94) 
-3.761

>  <name>  (94) 
93

>  <ligand_id>  (94) 
93

>  <original_smiles>  (94) 
[H]c1c(C([H])([H])[H])nc(C(C([H])([H])[H])(C([H])([H])N([H])C(=O)N2C([H])([H])C([H])([H])C([H])([H])C([H])(n3nc(-c4c([H])c([H])c(Oc5c([H])c([H])c(F)c([H])c5F)c([H])c4[H])c(C(=O)N([H])[H])c3N([H])[H])C2([H])[H])C([H])([H])C([H])([H])Oc2c([H])c([H])c3c(c2[H])C([H])([H])N(C(=O)C([H])(N([H])C(=O)C([H])(N([H])C([H])([H])[H])C([H])([H])[H])C(C([H])([H])[H])(C([H])([H])[H])C([H])([H])[H])C([H])(C(=O)N([H])C2([H])c4c([H])c([H])c([H])c([H])c4C([H])([H])C([H])([H])C2([H])[H])C3([H])[H])c(C([H])([H])[H])c1[H]

>  <smiles>  (94) 
[H]c1c(C([H])([H])[H])nc(C(C([H])([H])[H])(C([H])([H])N([H])C(=O)N2C([H])([H])C([H])([H])C([H])([H])C([H])(n3nc(-c4c([H])c([H])c(Oc5c([H])c([H])c(F)c([H])c5F)c([H])c4[H])c(C(=O)N([H])[H])c3N([H])[H])C2([H])[H])C([H])([H])C([H])([H])Oc2c([H])c([H])c3c(c2[H])C([H])([H])N(C(=O)C([H])(N([H])C(=O)C([H])(N([H])C([H])([H])[H])C([H])([H])[H])C(C([H])([H])[H])(C([H])([H])[H])C([H])([H])[H])C([H])(C(=O)N([H])C2([H])c4c([H])c([H])c([H])c([H])c4C([H])([H])C([H])([H])C2([H])[H])C3([H])[H])c(C([H])([H])[H])c1[H]

$$$$
94:0:0
     RDKit          3D

 94102  0  0  1  0  0  0  0  0999 V2000
  -30.3230  -23.5090   20.5890 C   0  0  0  0  0  3  0  0  0  0  0  0
  -28.7190  -21.7360   20.6820 C   0  0  0  0  0  3  0  0  0  0  0  0
  -28.9690  -23.2060   20.7340 C   0  0  0  0  0  0  0  0  0  0  0  0
  -31.3400  -22.5180   20.6130 C   0  0  0  0  0  0  0  0  0  0  0  0
  -29.7360  -20.6370   20.7140 C   0  0  0  0  0  0  0  0  0  0  0  0
  -31.0680  -21.1410   20.9750 C   0  0  0  0  0  0  0  0  0  0  0  0
  -33.2020  -21.2120   22.5250 C   0  0  0  0  0  1  0  0  0  0  0  0
  -32.8090  -19.1790   21.1630 C   0  0  0  0  0  1  0  0  0  0  0  0
  -31.3880  -19.7670   23.1340 C   0  0  0  0  0  1  0  0  0  0  0  0
  -32.0930  -20.3410   21.8760 C   0  0  2  0  0  0  0  0  0  0  0  0
  -33.3820  -22.2330   19.0630 C   0  0  0  0  0  1  0  0  0  0  0  0
  -32.7090  -23.0510   20.1720 C   0  0  0  0  0  2  0  0  0  0  0  0
  -29.3740  -18.9990   20.6590 C   0  0  0  0  0  3  0  0  0  0  0  0
  -30.2920  -17.6630   20.1170 C   0  0  0  0  0  3  0  0  0  0  0  0
  -30.6540  -14.9150   20.0730 C   0  0  0  0  0  0  0  0  0  0  0  0
  -30.4430  -12.6140   19.0310 C   0  0  0  0  0  2  0  0  0  0  0  0
  -29.4420  -12.6250   17.8510 C   0  0  0  0  0  2  0  0  0  0  0  0
  -28.0010  -12.4180   18.3540 C   0  0  0  0  0  2  0  0  0  0  0  0
  -27.6720  -13.2910   19.5920 C   0  0  0  0  0  3  0  0  0  0  0  0
  -28.7860  -13.2370   20.6580 C   0  0  0  0  0  2  0  0  0  0  0  0
  -30.0260  -13.6700   20.0010 N   0  0  0  0  0  0  0  0  0  0  0  0
  -31.8410  -14.9580   19.7330 O   0  0  0  0  0  0  0  0  0  0  0  0
  -29.9250  -16.1220   20.3060 N   0  0  0  0  0  0  0  0  0  0  0  0
  -28.9670  -15.9590   20.5770 H   0  0  0  0  0  0  0  0  0  0  0  0
  -25.3430  -13.8710   20.4800 C   0  0  0  0  0  0  0  0  0  0  0  0
  -24.2810  -13.0980   20.8600 C   0  0  0  0  0  0  0  0  0  0  0  0
  -24.7130  -11.7430   20.7320 C   0  0  0  0  0  0  0  0  0  0  0  0
  -26.3540  -12.9880   20.1420 N   0  0  0  0  0  0  0  0  0  0  0  0
  -25.9870  -11.6980   20.3590 N   0  0  0  0  0  0  0  0  0  0  0  0
  -23.9670  -10.4860   20.8890 C   0  0  0  0  0  0  0  0  0  0  0  0
  -24.3640   -9.5020   21.8210 C   0  0  0  0  0  3  0  0  0  0  0  0
  -23.6200   -8.3130   21.9680 C   0  0  0  0  0  3  0  0  0  0  0  0
  -22.4620   -8.0970   21.1840 C   0  0  0  0  0  0  0  0  0  0  0  0
  -22.0830   -9.0690   20.2410 C   0  0  0  0  0  3  0  0  0  0  0  0
  -22.8280  -10.2510   20.0920 C   0  0  0  0  0  3  0  0  0  0  0  0
  -21.6930   -6.9600   21.2400 O   0  0  0  0  0  0  0  0  0  0  0  0
  -21.5420   -6.2490   22.4030 C   0  0  0  0  0  0  0  0  0  0  0  0
  -20.9430   -6.8150   23.5500 C   0  0  0  0  0  3  0  0  0  0  0  0
  -20.7450   -6.0290   24.7020 C   0  0  0  0  0  3  0  0  0  0  0  0
  -21.1360   -4.6780   24.7090 C   0  0  0  0  0  0  0  0  0  0  0  0
  -21.7280   -4.1100   23.5660 C   0  0  0  0  0  3  0  0  0  0  0  0
  -21.9270   -4.8940   22.4160 C   0  0  0  0  0  0  0  0  0  0  0  0
  -22.4780   -4.3360   21.3110 F   0  0  0  0  0  0  0  0  0  0  0  0
  -20.9390   -3.9190   25.8120 F   0  0  0  0  0  0  0  0  0  0  0  0
  -22.9080  -13.5880   21.2200 C   0  0  0  0  0  0  0  0  0  0  0  0
  -22.2020  -12.8610   22.0790 N   0  0  0  0  0  0  0  0  0  0  0  0
  -22.4720  -14.6490   20.7770 O   0  0  0  0  0  0  0  0  0  0  0  0
  -22.5670  -12.0010   22.4600 H   0  0  0  0  0  0  0  0  0  0  0  0
  -21.2820  -13.1710   22.3600 H   0  0  0  0  0  0  0  0  0  0  0  0
  -25.5280  -15.2460   20.3650 N   0  0  0  0  0  0  0  0  0  0  0  0
  -24.7810  -15.9080   20.5460 H   0  0  0  0  0  0  0  0  0  0  0  0
  -26.3520  -15.6790   19.9680 H   0  0  0  0  0  0  0  0  0  0  0  0
  -27.8950  -24.4620   20.8880 C   0  0  0  0  0  2  0  0  0  0  0  0
  -28.2170  -25.9980   20.9570 O   0  0  0  0  0  0  0  0  0  0  0  0
  -24.5780  -31.9960   23.2780 C   0  0  0  0  0  0  0  0  0  0  0  0
  -27.1990  -27.0090   20.7380 C   0  0  0  0  0  0  0  0  0  0  0  0
  -23.4230  -30.4880   21.7080 C   0  0  0  0  0  3  0  0  0  0  0  0
  -24.9040  -28.7900   20.4660 C   0  0  0  0  0  0  0  0  0  0  0  0
  -25.9870  -30.7070   21.6260 C   0  0  0  0  0  2  0  0  0  0  0  0
  -26.0660  -29.2650   21.0900 C   0  0  0  0  0  0  0  0  0  0  0  0
  -27.2130  -28.3880   21.2100 C   0  0  0  0  0  3  0  0  0  0  0  0
  -26.0190  -26.6470   20.0510 C   0  0  0  0  0  3  0  0  0  0  0  0
  -24.8980  -27.4950   19.9290 C   0  0  0  0  0  3  0  0  0  0  0  0
  -23.6890  -29.7010   20.3960 C   0  0  0  0  0  2  0  0  0  0  0  0
  -24.6820  -31.0900   22.2570 N   0  0  0  0  0  0  0  0  0  0  0  0
  -23.4760  -32.3340   23.7370 O   0  0  0  0  0  0  0  0  0  0  0  0
  -22.6940  -29.5680   22.7210 C   0  0  0  0  0  0  0  0  0  0  0  0
  -21.3830  -29.3480   22.5180 N   0  0  0  0  0  0  0  0  0  0  0  0
  -23.3140  -29.0490   23.6520 O   0  0  0  0  0  0  0  0  0  0  0  0
  -20.9390  -29.8200   21.7430 H   0  0  0  0  0  0  0  0  0  0  0  0
  -17.9870  -28.1500   22.9280 C   0  0  0  0  0  0  0  0  0  0  0  0
  -20.5230  -28.4760   23.3230 C   0  0  0  0  0  3  0  0  0  0  0  0
  -20.6720  -26.9980   22.8960 C   0  0  0  0  0  2  0  0  0  0  0  0
  -19.6390  -26.5640   21.8510 C   0  0  0  0  0  2  0  0  0  0  0  0
  -18.2180  -26.7470   22.3910 C   0  0  0  0  0  2  0  0  0  0  0  0
  -19.0700  -28.9660   23.3500 C   0  0  0  0  0  0  0  0  0  0  0  0
  -18.8010  -30.2730   23.8110 C   0  0  0  0  0  3  0  0  0  0  0  0
  -17.4830  -30.7650   23.8550 C   0  0  0  0  0  3  0  0  0  0  0  0
  -16.4150  -29.9480   23.4480 C   0  0  0  0  0  3  0  0  0  0  0  0
  -16.6660  -28.6440   22.9910 C   0  0  0  0  0  3  0  0  0  0  0  0
  -25.8390  -32.6690   23.9020 C   0  0  0  0  0  3  0  0  0  0  0  0
  -25.4890  -34.0610   24.2290 N   0  0  0  0  0  0  0  0  0  0  0  0
  -25.7680  -35.1220   23.4600 C   0  0  0  0  0  0  0  0  0  0  0  0
  -26.4150  -35.0330   22.4130 O   0  0  0  0  0  0  0  0  0  0  0  0
  -24.9120  -34.2000   25.0460 H   0  0  0  0  0  0  0  0  0  0  0  0
  -23.9680  -36.8550   23.1570 C   0  0  0  0  0  1  0  0  0  0  0  0
  -25.2500  -36.4990   23.9250 C   0  0  0  0  0  3  0  0  0  0  0  0
  -27.3720  -37.4750   24.6850 C   0  0  0  0  0  1  0  0  0  0  0  0
  -26.2420  -37.5860   23.7660 N   0  0  0  0  0  0  0  0  0  0  0  0
  -25.8070  -38.4940   23.9050 H   0  0  0  0  0  0  0  0  0  0  0  0
  -26.3670  -31.9210   25.1860 C   0  0  1  0  0  0  0  0  0  0  0  0
  -25.2590  -31.5970   26.2180 C   0  0  0  0  0  1  0  0  0  0  0  0
  -27.0580  -30.5910   24.8040 C   0  0  0  0  0  1  0  0  0  0  0  0
  -27.4380  -32.7850   25.8930 C   0  0  0  0  0  1  0  0  0  0  0  0
  1  4  2  0
  1  3  1  0
  2  5  1  0
  2  3  2  0
  3 53  1  0
  4  6  1  0
  5  6  2  0
  6 10  1  0
 10  8  1  6
 10  7  1  0
 10  9  1  0
 11 12  1  0
 12  4  1  0
 13  5  1  0
 14 23  1  0
 14 13  2  0
 15 23  1  0
 16 21  1  0
 17 18  1  0
 17 16  1  0
 19 18  1  0
 19 28  1  0
 19 20  1  0
 21 15  1  0
 21 20  1  0
 22 15  2  0
 23 24  1  0
 25 26  2  0
 26 45  1  0
 27 26  1  0
 27 30  1  0
 28 29  1  0
 28 25  1  0
 29 27  2  0
 30 31  1  0
 31 32  2  0
 33 36  1  0
 33 32  1  0
 34 33  2  0
 35 34  1  0
 35 30  2  0
 36 37  1  0
 37 42  2  0
 37 38  1  0
 38 39  2  0
 39 40  1  0
 40 44  1  0
 41 40  2  0
 42 41  1  0
 43 42  1  0
 45 46  1  0
 46 49  1  0
 46 48  1  0
 47 45  2  0
 50 25  1  0
 50 51  1  0
 52 50  1  0
 53 54  1  0
 55 66  2  0
 56 54  1  0
 56 61  1  0
 57 65  1  0
 57 67  1  0
 58 60  1  0
 59 65  1  0
 60 61  2  0
 60 59  1  0
 62 56  2  0
 63 62  1  0
 63 58  2  0
 64 58  1  0
 64 57  1  0
 65 55  1  0
 67 69  2  0
 68 67  1  0
 70 68  1  0
 71 80  2  0
 71 76  1  0
 72 68  1  0
 72 76  1  0
 73 72  1  0
 74 75  1  0
 74 73  1  0
 75 71  1  0
 76 77  2  0
 77 78  1  0
 79 78  2  0
 80 79  1  0
 81 55  1  0
 81 82  1  0
 81 91  1  0
 82 85  1  0
 83 87  1  0
 83 82  1  0
 84 83  2  0
 87 86  1  0
 89 90  1  0
 89 87  1  0
 89 88  1  0
 91 94  1  1
 91 92  1  0
 93 91  1  0
M  ISO  4  15 100  23 100  53 101  54 101
M  END
>  <TORSDO>  (95) 
F 21

>  <SCORE>  (95) 
-13.865

>  <name>  (95) 
94

>  <ligand_id>  (95) 
94

>  <original_smiles>  (95) 
[H]c1c([H])c([H])c2c(c1[H])C([H])([H])C([H])([H])C([H])([H])C2([H])N([H])C(=O)C1([H])N(C(=O)C([H])(N([H])C(=O)C([H])(N([H])C([H])([H])[H])C([H])([H])[H])C(C([H])([H])[H])(C([H])([H])[H])C([H])([H])[H])C([H])([H])c2c([H])c(OC([H])([H])c3c([H])c(C([H])([H])C([H])([H])[H])c(C(C([H])([H])[H])(C([H])([H])[H])C([H])([H])[H])c(C([H])([H])C([H])([H])N([H])C(=O)N4C([H])([H])C([H])([H])C([H])([H])C([H])(n5nc(-c6c([H])c([H])c(Oc7c([H])c([H])c(F)c([H])c7F)c([H])c6[H])c(C(=O)N([H])[H])c5N([H])[H])C4([H])[H])c3[H])c([H])c([H])c2C1([H])[H]

>  <smiles>  (95) 
[H]c1c([H])c([H])c2c(c1[H])C([H])([H])C([H])([H])C([H])([H])C2([H])N([H])C(=O)C1([H])N(C(=O)C([H])(N([H])C(=O)C([H])(N([H])C([H])([H])[H])C([H])([H])[H])C(C([H])([H])[H])(C([H])([H])[H])C([H])([H])[H])C([H])([H])c2c([H])c(OC([H])([H])c3c([H])c(C([H])([H])C([H])([H])[H])c(C(C([H])([H])[H])(C([H])([H])[H])C([H])([H])[H])c(C([H])([H])C([H])([H])N([H])C(=O)N4C([H])([H])C([H])([H])C([H])([H])C([H])(n5nc(-c6c([H])c([H])c(Oc7c([H])c([H])c(F)c([H])c7F)c([H])c6[H])c(C(=O)N([H])[H])c5N([H])[H])C4([H])[H])c3[H])c([H])c([H])c2C1([H])[H]

$$$$
95:0:0
     RDKit          3D

101109  0  0  1  0  0  0  0  0999 V2000
  -31.7540  -21.6690   19.8080 C   0  0  0  0  0  3  0  0  0  0  0  0
  -33.0080  -21.2550   20.2790 C   0  0  0  0  0  3  0  0  0  0  0  0
  -30.6000  -20.8900   20.0400 C   0  0  0  0  0  0  0  0  0  0  0  0
  -33.1070  -20.1320   21.1250 C   0  0  0  0  0  0  0  0  0  0  0  0
  -30.8360  -19.4990   20.4310 C   0  0  0  0  0  0  0  0  0  0  0  0
  -31.9600  -19.3030   21.2790 C   0  0  0  0  0  0  0  0  0  0  0  0
  -34.8910  -21.1240   22.6090 C   0  0  0  0  0  1  0  0  0  0  0  0
  -35.5290  -19.4650   20.8410 C   0  0  0  0  0  1  0  0  0  0  0  0
  -34.4430  -19.8890   21.8310 C   0  0  0  0  0  3  0  0  0  0  0  0
  -29.2580  -21.7290   20.1000 C   0  0  0  0  0  2  0  0  0  0  0  0
  -29.4180  -23.3190   20.4450 C   0  0  0  0  0  3  0  0  0  0  0  0
  -28.2370  -24.4110   20.2930 C   0  0  0  0  0  3  0  0  0  0  0  0
  -28.4750  -25.8570   20.6350 O   0  0  0  0  0  0  0  0  0  0  0  0
  -25.0260  -31.5960   23.5020 C   0  0  0  0  0  0  0  0  0  0  0  0
  -27.4100  -26.7900   20.5620 C   0  0  0  0  0  0  0  0  0  0  0  0
  -23.7650  -30.2280   21.8790 C   0  0  0  0  0  3  0  0  0  0  0  0
  -25.1420  -28.5550   20.5080 C   0  0  0  0  0  0  0  0  0  0  0  0
  -26.3250  -30.3820   21.7270 C   0  0  0  0  0  2  0  0  0  0  0  0
  -26.3330  -28.9840   21.1060 C   0  0  0  0  0  0  0  0  0  0  0  0
  -27.4700  -28.1120   21.1220 C   0  0  0  0  0  3  0  0  0  0  0  0
  -26.1940  -26.4280   19.9410 C   0  0  0  0  0  3  0  0  0  0  0  0
  -25.0730  -27.2840   19.9180 C   0  0  0  0  0  3  0  0  0  0  0  0
  -23.9620  -29.5100   20.5160 C   0  0  0  0  0  2  0  0  0  0  0  0
  -25.0580  -30.7540   22.4250 N   0  0  0  0  0  0  0  0  0  0  0  0
  -23.9510  -31.9470   24.0110 O   0  0  0  0  0  0  0  0  0  0  0  0
  -23.0320  -29.2740   22.8530 C   0  0  0  0  0  0  0  0  0  0  0  0
  -21.7320  -29.0430   22.6130 N   0  0  0  0  0  0  0  0  0  0  0  0
  -23.6390  -28.7390   23.7860 O   0  0  0  0  0  0  0  0  0  0  0  0
  -21.3050  -29.5220   21.8330 H   0  0  0  0  0  0  0  0  0  0  0  0
  -18.3570  -27.7510   22.8640 C   0  0  0  0  0  0  0  0  0  0  0  0
  -20.8610  -28.1450   23.3760 C   0  0  0  0  0  3  0  0  0  0  0  0
  -21.0720  -26.6730   22.9520 C   0  0  0  0  0  2  0  0  0  0  0  0
  -20.1000  -26.2080   21.8640 C   0  0  0  0  0  2  0  0  0  0  0  0
  -18.6490  -26.3540   22.3380 C   0  0  0  0  0  2  0  0  0  0  0  0
  -19.3970  -28.5980   23.3340 C   0  0  0  0  0  0  0  0  0  0  0  0
  -19.0780  -29.8960   23.7820 C   0  0  0  0  0  3  0  0  0  0  0  0
  -17.7490  -30.3590   23.7580 C   0  0  0  0  0  3  0  0  0  0  0  0
  -16.7210  -29.5160   23.3010 C   0  0  0  0  0  3  0  0  0  0  0  0
  -17.0230  -28.2120   22.8700 C   0  0  0  0  0  3  0  0  0  0  0  0
  -26.3350  -32.1740   24.1260 C   0  0  0  0  0  3  0  0  0  0  0  0
  -26.7880  -31.4100   25.4300 C   0  0  1  0  0  0  0  0  0  0  0  0
  -25.6540  -31.2080   26.4610 C   0  0  0  0  0  1  0  0  0  0  0  0
  -27.3540  -30.0140   25.0800 C   0  0  0  0  0  1  0  0  0  0  0  0
  -27.9320  -32.1870   26.1200 C   0  0  0  0  0  1  0  0  0  0  0  0
  -26.0960  -33.5960   24.4200 N   0  0  0  0  0  0  0  0  0  0  0  0
  -26.4360  -34.6090   23.6110 C   0  0  0  0  0  0  0  0  0  0  0  0
  -27.0490  -34.4430   22.5540 O   0  0  0  0  0  0  0  0  0  0  0  0
  -25.5630  -33.8070   25.2500 H   0  0  0  0  0  0  0  0  0  0  0  0
  -24.7540  -36.4520   23.2800 C   0  0  0  0  0  1  0  0  0  0  0  0
  -26.0260  -36.0340   24.0380 C   0  0  0  0  0  3  0  0  0  0  0  0
  -28.2260  -36.8670   24.7310 C   0  0  0  0  0  1  0  0  0  0  0  0
  -27.0880  -37.0430   23.8320 N   0  0  0  0  0  0  0  0  0  0  0  0
  -26.7250  -37.9840   23.9570 H   0  0  0  0  0  0  0  0  0  0  0  0
  -30.1240  -18.1670   19.9270 C   0  0  0  0  0  2  0  0  0  0  0  0
  -31.0230  -16.7930   20.0150 C   0  0  0  0  0  2  0  0  0  0  0  0
  -31.1250  -14.1830   20.0670 C   0  0  0  0  0  0  0  0  0  0  0  0
  -30.8250  -11.8330   19.2730 C   0  0  0  0  0  2  0  0  0  0  0  0
  -29.9000  -11.8370   18.0380 C   0  0  0  0  0  2  0  0  0  0  0  0
  -28.4280  -11.7410   18.4810 C   0  0  0  0  0  2  0  0  0  0  0  0
  -28.0770  -12.7420   19.6120 C   0  0  0  0  0  3  0  0  0  0  0  0
  -29.1320  -12.7450   20.7380 C   0  0  0  0  0  2  0  0  0  0  0  0
  -30.4370  -12.9900   20.1140 N   0  0  0  0  0  0  0  0  0  0  0  0
  -32.3180  -14.1880   19.7550 O   0  0  0  0  0  0  0  0  0  0  0  0
  -30.4350  -15.3850   20.1560 N   0  0  0  0  0  0  0  0  0  0  0  0
  -29.4490  -15.3180   20.3680 H   0  0  0  0  0  0  0  0  0  0  0  0
  -25.7320  -13.4850   20.3400 C   0  0  0  0  0  0  0  0  0  0  0  0
  -24.6300  -12.7820   20.7390 C   0  0  0  0  0  0  0  0  0  0  0  0
  -25.0180  -11.4070   20.7370 C   0  0  0  0  0  0  0  0  0  0  0  0
  -26.7260  -12.5430   20.1230 N   0  0  0  0  0  0  0  0  0  0  0  0
  -26.3030  -11.2890   20.4240 N   0  0  0  0  0  0  0  0  0  0  0  0
  -24.2230  -10.1920   20.9600 C   0  0  0  0  0  0  0  0  0  0  0  0
  -24.5690   -9.2630   21.9680 C   0  0  0  0  0  3  0  0  0  0  0  0
  -23.7830   -8.1090   22.1790 C   0  0  0  0  0  3  0  0  0  0  0  0
  -22.6340   -7.8780   21.3870 C   0  0  0  0  0  0  0  0  0  0  0  0
  -22.3070   -8.7930   20.3700 C   0  0  0  0  0  3  0  0  0  0  0  0
  -23.0940   -9.9390   20.1560 C   0  0  0  0  0  3  0  0  0  0  0  0
  -21.8240   -6.7740   21.5020 O   0  0  0  0  0  0  0  0  0  0  0  0
  -21.5950   -6.1740   22.7150 C   0  0  0  0  0  0  0  0  0  0  0  0
  -21.0310   -6.8780   23.8000 C   0  0  0  0  0  3  0  0  0  0  0  0
  -20.7490   -6.2060   25.0070 C   0  0  0  0  0  3  0  0  0  0  0  0
  -21.0140   -4.8290   25.1280 C   0  0  0  0  0  0  0  0  0  0  0  0
  -21.5670   -4.1240   24.0440 C   0  0  0  0  0  3  0  0  0  0  0  0
  -21.8550   -4.7940   22.8410 C   0  0  0  0  0  0  0  0  0  0  0  0
  -22.3670   -4.1040   21.7940 F   0  0  0  0  0  0  0  0  0  0  0  0
  -20.7380   -4.1820   26.2850 F   0  0  0  0  0  0  0  0  0  0  0  0
  -23.2610  -13.3380   21.0130 C   0  0  0  0  0  0  0  0  0  0  0  0
  -22.5110  -12.7200   21.9170 N   0  0  0  0  0  0  0  0  0  0  0  0
  -22.8680  -14.3630   20.4530 O   0  0  0  0  0  0  0  0  0  0  0  0
  -22.8400  -11.8920   22.3960 H   0  0  0  0  0  0  0  0  0  0  0  0
  -21.5900  -13.0790   22.1370 H   0  0  0  0  0  0  0  0  0  0  0  0
  -25.9700  -14.8410   20.1180 N   0  0  0  0  0  0  0  0  0  0  0  0
  -25.2350  -15.5360   20.1870 H   0  0  0  0  0  0  0  0  0  0  0  0
  -26.8260  -15.2180   19.7350 H   0  0  0  0  0  0  0  0  0  0  0  0
  -31.7990  -18.3170   22.4470 C   0  0  0  0  0  2  0  0  0  0  0  0
  -30.3650  -17.7900   24.4950 C   0  0  0  0  0  1  0  0  0  0  0  0
  -30.7890  -18.8800   23.4960 C   0  0  0  0  0  3  0  0  0  0  0  0
  -31.3130  -20.1460   24.2330 C   0  0  0  0  0  2  0  0  0  0  0  0
  -29.2510  -21.4740   23.7490 C   0  0  0  0  0  1  0  0  0  0  0  0
  -31.2830  -22.6020   24.4730 C   0  0  0  0  0  1  0  0  0  0  0  0
  -30.7330  -21.4310   23.7470 N   0  0  1  0  0  4  0  0  0  0  0  0
  -31.0190  -21.5340   22.7830 H   0  0  0  0  0  0  0  0  0  0  0  0
  1  3  2  0
  1  2  1  0
  2  4  2  0
  3 10  1  0
  3  5  1  0
  4  6  1  0
  4  9  1  0
  5  6  2  0
  6 94  1  0
  8  9  1  0
  9  7  1  0
 10 11  1  0
 12 11  2  0
 12 13  1  0
 14 25  2  0
 15 13  1  0
 15 20  1  0
 16 24  1  0
 16 26  1  0
 17 23  1  0
 17 19  1  0
 18 24  1  0
 19 20  2  0
 19 18  1  0
 21 15  2  0
 22 21  1  0
 22 17  2  0
 23 16  1  0
 24 14  1  0
 26 28  2  0
 27 26  1  0
 29 27  1  0
 30 39  2  0
 30 35  1  0
 31 27  1  0
 32 31  1  0
 33 34  1  0
 33 32  1  0
 34 30  1  0
 35 31  1  0
 35 36  2  0
 37 36  1  0
 38 37  2  0
 39 38  1  0
 40 14  1  0
 40 45  1  0
 40 41  1  0
 41 44  1  1
 41 42  1  0
 43 41  1  0
 45 48  1  0
 46 50  1  0
 46 45  1  0
 47 46  2  0
 50 49  1  0
 52 53  1  0
 52 50  1  0
 52 51  1  0
 54 55  1  0
 54  5  1  0
 55 64  1  0
 56 62  1  0
 56 64  1  0
 57 62  1  0
 58 59  1  0
 58 57  1  0
 60 59  1  0
 60 69  1  0
 60 61  1  0
 62 61  1  0
 63 56  2  0
 64 65  1  0
 66 67  2  0
 67 86  1  0
 68 67  1  0
 68 71  1  0
 69 66  1  0
 69 70  1  0
 70 68  2  0
 71 72  1  0
 72 73  2  0
 74 77  1  0
 74 73  1  0
 75 74  2  0
 76 75  1  0
 76 71  2  0
 77 78  1  0
 78 83  2  0
 78 79  1  0
 79 80  2  0
 80 81  1  0
 81 85  1  0
 82 81  2  0
 83 82  1  0
 84 83  1  0
 86 87  1  0
 87 90  1  0
 87 89  1  0
 88 86  2  0
 91 92  1  0
 91 66  1  0
 93 91  1  0
 94 96  1  0
 96 97  1  0
 96 95  1  0
100 98  1  0
100 97  1  0
100 99  1  0
100101  1  6
M  ISO  4  12 101  13 101  56 100  64 100
M  END
>  <TORSDO>  (96) 
F 26

>  <SCORE>  (96) 
-7.577

>  <name>  (96) 
95

>  <ligand_id>  (96) 
95

>  <original_smiles>  (96) 
[H]c1c([H])c([H])c2c(c1[H])C([H])([H])C([H])([H])C([H])([H])C2([H])N([H])C(=O)C1([H])N(C(=O)C([H])(N([H])C(=O)C([H])(N([H])C([H])([H])[H])C([H])([H])[H])C(C([H])([H])[H])(C([H])([H])[H])C([H])([H])[H])C([H])([H])c2c([H])c(OC([H])([H])C([H])([H])C([H])([H])c3c([H])c([H])c(C([H])(C([H])([H])[H])C([H])([H])[H])c(C([H])([H])C([H])(C([H])([H])[H])C([H])([H])[N+]([H])(C([H])([H])[H])C([H])([H])[H])c3C([H])([H])C([H])([H])N([H])C(=O)N3C([H])([H])C([H])([H])C([H])([H])C([H])(n4nc(-c5c([H])c([H])c(Oc6c([H])c([H])c(F)c([H])c6F)c([H])c5[H])c(C(=O)N([H])[H])c4N([H])[H])C3([H])[H])c([H])c([H])c2C1([H])[H]

>  <smiles>  (96) 
[H]c1c([H])c([H])c2c(c1[H])C([H])([H])C([H])([H])C([H])([H])C2([H])N([H])C(=O)C1([H])N(C(=O)C([H])(N([H])C(=O)C([H])(N([H])C([H])([H])[H])C([H])([H])[H])C(C([H])([H])[H])(C([H])([H])[H])C([H])([H])[H])C([H])([H])c2c([H])c(OC([H])([H])C([H])([H])C([H])([H])c3c([H])c([H])c(C([H])(C([H])([H])[H])C([H])([H])[H])c(C([H])([H])C([H])(C([H])([H])[H])C([H])([H])[N+]([H])(C([H])([H])[H])C([H])([H])[H])c3C([H])([H])C([H])([H])N([H])C(=O)N3C([H])([H])C([H])([H])C([H])([H])C([H])(n4nc(-c5c([H])c([H])c(Oc6c([H])c([H])c(F)c([H])c6F)c([H])c5[H])c(C(=O)N([H])[H])c4N([H])[H])C3([H])[H])c([H])c([H])c2C1([H])[H]

$$$$
96:0:0
     RDKit          3D

 89 97  0  0  1  0  0  0  0  0999 V2000
  -29.6940  -21.9260   19.3470 C   0  0  0  0  0  3  0  0  0  0  0  0
  -28.4930  -18.4370   20.5120 C   0  0  0  0  0  3  0  0  0  0  0  0
  -30.3260  -19.1710   19.5480 C   0  0  0  0  0  3  0  0  0  0  0  0
  -29.7330  -17.9480   19.9960 C   0  0  0  0  0  0  0  0  0  0  0  0
  -28.3590  -19.8120   20.3770 C   0  0  0  0  0  0  0  0  0  0  0  0
  -27.1870  -20.6480   20.7730 C   0  0  0  0  0  1  0  0  0  0  0  0
  -29.4850  -20.3740   19.7640 N   0  0  0  0  0  0  0  0  0  0  0  0
  -30.8570  -15.3210   19.6850 C   0  0  0  0  0  0  0  0  0  0  0  0
  -30.8190  -12.9190   18.8080 C   0  0  0  0  0  2  0  0  0  0  0  0
  -29.7890  -12.7840   17.6590 C   0  0  0  0  0  2  0  0  0  0  0  0
  -28.3710  -12.5340   18.2090 C   0  0  0  0  0  2  0  0  0  0  0  0
  -28.0220  -13.4760   19.3900 C   0  0  0  0  0  3  0  0  0  0  0  0
  -29.1620  -13.5400   20.4290 C   0  0  0  0  0  2  0  0  0  0  0  0
  -30.3640  -14.0100   19.7210 N   0  0  0  0  0  0  0  0  0  0  0  0
  -32.0160  -15.4690   19.2750 O   0  0  0  0  0  0  0  0  0  0  0  0
  -29.9550  -16.4000   19.9690 N   0  0  0  0  0  0  0  0  0  0  0  0
  -29.1340  -15.9470   20.3440 H   0  0  0  0  0  0  0  0  0  0  0  0
  -25.7380  -14.0190   20.4030 C   0  0  0  0  0  0  0  0  0  0  0  0
  -24.7020  -13.2290   20.8170 C   0  0  0  0  0  0  0  0  0  0  0  0
  -25.1360  -11.8800   20.6360 C   0  0  0  0  0  0  0  0  0  0  0  0
  -26.7360  -13.1520   19.9940 N   0  0  0  0  0  0  0  0  0  0  0  0
  -26.3890  -11.8530   20.1990 N   0  0  0  0  0  0  0  0  0  0  0  0
  -24.4080  -10.6150   20.8010 C   0  0  0  0  0  0  0  0  0  0  0  0
  -24.8120   -9.6490   21.7500 C   0  0  0  0  0  3  0  0  0  0  0  0
  -24.0840   -8.4490   21.9040 C   0  0  0  0  0  3  0  0  0  0  0  0
  -22.9380   -8.2080   21.1080 C   0  0  0  0  0  0  0  0  0  0  0  0
  -22.5530   -9.1640   20.1510 C   0  0  0  0  0  3  0  0  0  0  0  0
  -23.2810  -10.3550   19.9960 C   0  0  0  0  0  3  0  0  0  0  0  0
  -22.1840   -7.0610   21.1700 O   0  0  0  0  0  0  0  0  0  0  0  0
  -21.9430   -6.4210   22.3580 C   0  0  0  0  0  0  0  0  0  0  0  0
  -21.2710   -7.0560   23.4260 C   0  0  0  0  0  3  0  0  0  0  0  0
  -20.9860   -6.3390   24.6050 C   0  0  0  0  0  3  0  0  0  0  0  0
  -21.3600   -4.9870   24.7160 C   0  0  0  0  0  0  0  0  0  0  0  0
  -22.0230   -4.3510   23.6520 C   0  0  0  0  0  3  0  0  0  0  0  0
  -22.3110   -5.0660   22.4760 C   0  0  0  0  0  0  0  0  0  0  0  0
  -22.9330   -4.4420   21.4470 F   0  0  0  0  0  0  0  0  0  0  0  0
  -21.0770   -4.2940   25.8440 F   0  0  0  0  0  0  0  0  0  0  0  0
  -23.3470  -13.7000   21.2590 C   0  0  0  0  0  0  0  0  0  0  0  0
  -22.6980  -12.9550   22.1460 N   0  0  0  0  0  0  0  0  0  0  0  0
  -22.8770  -14.7630   20.8520 O   0  0  0  0  0  0  0  0  0  0  0  0
  -23.0970  -12.0980   22.4980 H   0  0  0  0  0  0  0  0  0  0  0  0
  -21.7920  -13.2490   22.4800 H   0  0  0  0  0  0  0  0  0  0  0  0
  -25.9050  -15.3980   20.3130 N   0  0  0  0  0  0  0  0  0  0  0  0
  -25.1530  -16.0400   20.5390 H   0  0  0  0  0  0  0  0  0  0  0  0
  -26.6950  -15.8570   19.8760 H   0  0  0  0  0  0  0  0  0  0  0  0
  -28.8950  -23.3590   19.8870 C   0  0  0  0  0  3  0  0  0  0  0  0
  -28.7600  -24.8810   17.7090 C   0  0  0  0  0  1  0  0  0  0  0  0
  -29.0510  -24.9380   19.2150 C   0  0  0  0  0  3  0  0  0  0  0  0
  -28.7780  -26.4070   19.7640 O   0  0  0  0  0  0  0  0  0  0  0  0
  -24.7720  -31.6760   23.0580 C   0  0  0  0  0  0  0  0  0  0  0  0
  -27.6360  -27.3110   19.7070 C   0  0  0  0  0  0  0  0  0  0  0  0
  -23.6630  -30.3440   21.3020 C   0  0  0  0  0  3  0  0  0  0  0  0
  -25.2070  -28.9500   19.7810 C   0  0  0  0  0  0  0  0  0  0  0  0
  -26.2010  -30.7460   21.1900 C   0  0  0  0  0  2  0  0  0  0  0  0
  -26.3550  -29.4080   20.4360 C   0  0  0  0  0  0  0  0  0  0  0  0
  -27.5610  -28.6060   20.3820 C   0  0  0  0  0  3  0  0  0  0  0  0
  -26.4480  -26.9600   19.0310 C   0  0  0  0  0  3  0  0  0  0  0  0
  -25.2680  -27.7430   19.0640 C   0  0  0  0  0  3  0  0  0  0  0  0
  -23.9320  -29.7790   19.8810 C   0  0  0  0  0  2  0  0  0  0  0  0
  -24.8980  -30.9430   21.9070 N   0  0  0  0  0  0  0  0  0  0  0  0
  -23.6670  -31.8640   23.5910 O   0  0  0  0  0  0  0  0  0  0  0  0
  -23.0270  -29.2380   22.1820 C   0  0  0  0  0  0  0  0  0  0  0  0
  -21.6990  -29.0530   22.0730 N   0  0  0  0  0  0  0  0  0  0  0  0
  -23.7320  -28.5520   22.9260 O   0  0  0  0  0  0  0  0  0  0  0  0
  -21.1830  -29.6610   21.4530 H   0  0  0  0  0  0  0  0  0  0  0  0
  -18.3460  -27.7940   22.6200 C   0  0  0  0  0  0  0  0  0  0  0  0
  -20.9170  -28.0270   22.7690 C   0  0  0  0  0  3  0  0  0  0  0  0
  -20.9790  -26.6770   22.0190 C   0  0  0  0  0  2  0  0  0  0  0  0
  -19.8190  -26.4800   21.0370 C   0  0  0  0  0  2  0  0  0  0  0  0
  -18.4770  -26.5400   21.7710 C   0  0  0  0  0  2  0  0  0  0  0  0
  -19.4910  -28.5010   23.0760 C   0  0  0  0  0  0  0  0  0  0  0  0
  -19.3110  -29.6780   23.8330 C   0  0  0  0  0  3  0  0  0  0  0  0
  -18.0200  -30.1490   24.1370 C   0  0  0  0  0  3  0  0  0  0  0  0
  -16.8900  -29.4380   23.6960 C   0  0  0  0  0  3  0  0  0  0  0  0
  -17.0550  -28.2620   22.9430 C   0  0  0  0  0  3  0  0  0  0  0  0
  -26.0070  -32.3300   23.7490 C   0  0  0  0  0  3  0  0  0  0  0  0
  -26.5460  -31.4940   24.9750 C   0  0  1  0  0  0  0  0  0  0  0  0
  -25.4540  -31.1230   26.0070 C   0  0  0  0  0  1  0  0  0  0  0  0
  -27.2030  -30.1790   24.4970 C   0  0  0  0  0  1  0  0  0  0  0  0
  -27.6480  -32.2930   25.7100 C   0  0  0  0  0  1  0  0  0  0  0  0
  -25.6160  -33.6810   24.1860 N   0  0  0  0  0  0  0  0  0  0  0  0
  -25.9100  -34.8120   23.5300 C   0  0  0  0  0  0  0  0  0  0  0  0
  -26.6050  -34.8300   22.5110 O   0  0  0  0  0  0  0  0  0  0  0  0
  -25.0010  -33.7380   24.9850 H   0  0  0  0  0  0  0  0  0  0  0  0
  -24.1130  -36.5580   23.2810 C   0  0  0  0  0  1  0  0  0  0  0  0
  -25.3470  -36.1320   24.0940 C   0  0  0  0  0  3  0  0  0  0  0  0
  -27.4040  -37.0390   25.0850 C   0  0  0  0  0  1  0  0  0  0  0  0
  -26.3330  -37.2360   24.1100 N   0  0  0  0  0  0  0  0  0  0  0  0
  -25.8790  -38.1220   24.3150 H   0  0  0  0  0  0  0  0  0  0  0  0
  1  7  1  0
  1 46  2  0
  3  7  1  0
  3  4  2  0
  4  2  1  0
  5  2  2  0
  5  6  1  0
  7  5  1  0
  8 14  1  0
  8 16  1  0
  9 14  1  0
 10 11  1  0
 10  9  1  0
 12 11  1  0
 12 21  1  0
 12 13  1  0
 14 13  1  0
 15  8  2  0
 16  4  1  0
 16 17  1  0
 18 19  2  0
 19 38  1  0
 20 23  1  0
 20 19  1  0
 21 22  1  0
 21 18  1  0
 22 20  2  0
 23 24  1  0
 24 25  2  0
 26 29  1  0
 26 25  1  0
 27 26  2  0
 28 27  1  0
 28 23  2  0
 29 30  1  0
 30 35  2  0
 30 31  1  0
 31 32  2  0
 32 33  1  0
 33 37  1  0
 34 33  2  0
 35 34  1  0
 36 35  1  0
 38 39  1  0
 39 42  1  0
 39 41  1  0
 40 38  2  0
 43 18  1  0
 43 44  1  0
 45 43  1  0
 48 47  1  0
 48 49  1  0
 48 46  1  0
 50 61  2  0
 51 49  1  0
 51 56  1  0
 52 60  1  0
 52 62  1  0
 53 59  1  0
 53 55  1  0
 54 60  1  0
 55 54  1  0
 56 55  2  0
 57 58  1  0
 57 51  2  0
 58 53  2  0
 59 52  1  0
 60 50  1  0
 62 64  2  0
 63 62  1  0
 65 63  1  0
 66 75  2  0
 66 71  1  0
 67 63  1  0
 67 71  1  0
 68 67  1  0
 69 70  1  0
 69 68  1  0
 70 66  1  0
 71 72  2  0
 72 73  1  0
 74 73  2  0
 75 74  1  0
 76 50  1  0
 76 81  1  0
 76 77  1  0
 77 80  1  1
 77 78  1  0
 79 77  1  0
 81 84  1  0
 82 86  1  0
 82 81  1  0
 83 82  2  0
 86 85  1  0
 86 88  1  0
 88 89  1  0
 88 87  1  0
M  ISO  4   8 100  16 100  48 101  49 101
M  END
>  <TORSDO>  (97) 
F 19

>  <SCORE>  (97) 
-12.412

>  <name>  (97) 
96

>  <ligand_id>  (97) 
96

>  <original_smiles>  (97) 
[H]c1c([H])c([H])c2c(c1[H])C([H])([H])C([H])([H])C([H])([H])C2([H])N([H])C(=O)C1([H])N(C(=O)C([H])(N([H])C(=O)C([H])(N([H])C([H])([H])[H])C([H])([H])[H])C(C([H])([H])[H])(C([H])([H])[H])C([H])([H])[H])C([H])([H])c2c([H])c(OC([H])(C([H])([H])[H])C([H])([H])C([H])([H])n3c([H])c(N([H])C(=O)N4C([H])([H])C([H])([H])C([H])([H])C([H])(n5nc(-c6c([H])c([H])c(Oc7c([H])c([H])c(F)c([H])c7F)c([H])c6[H])c(C(=O)N([H])[H])c5N([H])[H])C4([H])[H])c([H])c3C([H])([H])[H])c([H])c([H])c2C1([H])[H]

>  <smiles>  (97) 
[H]c1c([H])c([H])c2c(c1[H])C([H])([H])C([H])([H])C([H])([H])C2([H])N([H])C(=O)C1([H])N(C(=O)C([H])(N([H])C(=O)C([H])(N([H])C([H])([H])[H])C([H])([H])[H])C(C([H])([H])[H])(C([H])([H])[H])C([H])([H])[H])C([H])([H])c2c([H])c(OC([H])(C([H])([H])[H])C([H])([H])C([H])([H])n3c([H])c(N([H])C(=O)N4C([H])([H])C([H])([H])C([H])([H])C([H])(n5nc(-c6c([H])c([H])c(Oc7c([H])c([H])c(F)c([H])c7F)c([H])c6[H])c(C(=O)N([H])[H])c5N([H])[H])C4([H])[H])c([H])c3C([H])([H])[H])c([H])c([H])c2C1([H])[H]

$$$$
97:0:0
     RDKit          3D

 96104  0  0  1  0  0  0  0  0999 V2000
  -30.6560  -21.6510   21.6100 C   0  0  0  0  0  3  0  0  0  0  0  0
  -30.9420  -20.4190   22.2520 C   0  0  0  0  0  0  0  0  0  0  0  0
  -29.8930  -21.3310   20.5200 C   0  0  0  0  0  0  0  0  0  0  0  0
  -30.4050  -19.4010   21.5930 N   0  0  0  0  0  0  0  0  0  0  0  0
  -29.7640  -19.9330   20.5290 N   0  0  0  0  0  0  0  0  0  0  0  0
  -31.2500  -19.0790   24.3880 C   0  0  0  0  0  1  0  0  0  0  0  0
  -32.0340  -21.4650   24.2820 C   0  0  0  0  0  1  0  0  0  0  0  0
  -31.8130  -20.1770   23.4700 C   0  0  0  0  0  3  0  0  0  0  0  0
  -29.0000  -19.0270   19.6610 C   0  0  0  0  0  2  0  0  0  0  0  0
  -29.7150  -17.7120   19.1570 C   0  0  0  0  0  3  0  0  0  0  0  0
  -29.0980  -17.3120   17.7840 C   0  0  0  0  0  2  0  0  0  0  0  0
  -28.0000  -19.0770   16.2270 C   0  0  0  0  0  1  0  0  0  0  0  0
  -29.2880  -18.3310   16.6360 C   0  0  0  0  0  2  0  0  0  0  0  0
  -29.6640  -16.4960   20.1740 C   0  0  0  0  0  2  0  0  0  0  0  0
  -30.5080  -15.2220   19.8080 C   0  0  0  0  0  0  0  0  0  0  0  0
  -30.4440  -12.8780   19.0020 C   0  0  0  0  0  2  0  0  0  0  0  0
  -29.4620  -12.8220   17.8130 C   0  0  0  0  0  2  0  0  0  0  0  0
  -28.0180  -12.5990   18.3110 C   0  0  0  0  0  2  0  0  0  0  0  0
  -27.6230  -13.5570   19.4700 C   0  0  0  0  0  3  0  0  0  0  0  0
  -28.7260  -13.5900   20.5530 C   0  0  0  0  0  2  0  0  0  0  0  0
  -29.9910  -13.9570   19.8990 N   0  0  0  0  0  0  0  0  0  0  0  0
  -31.6240  -15.4110   19.3150 O   0  0  0  0  0  0  0  0  0  0  0  0
  -25.2670  -14.0670   20.3720 C   0  0  0  0  0  0  0  0  0  0  0  0
  -24.2460  -13.2510   20.7890 C   0  0  0  0  0  0  0  0  0  0  0  0
  -24.7350  -11.9150   20.6670 C   0  0  0  0  0  0  0  0  0  0  0  0
  -26.3140  -13.2230   20.0300 N   0  0  0  0  0  0  0  0  0  0  0  0
  -26.0000  -11.9220   20.2610 N   0  0  0  0  0  0  0  0  0  0  0  0
  -24.0540  -10.6270   20.8620 C   0  0  0  0  0  0  0  0  0  0  0  0
  -24.4940   -9.7020   21.8370 C   0  0  0  0  0  3  0  0  0  0  0  0
  -23.8140   -8.4790   22.0200 C   0  0  0  0  0  3  0  0  0  0  0  0
  -22.6820   -8.1690   21.2310 C   0  0  0  0  0  0  0  0  0  0  0  0
  -22.2600   -9.0820   20.2480 C   0  0  0  0  0  3  0  0  0  0  0  0
  -22.9400  -10.2990   20.0630 C   0  0  0  0  0  3  0  0  0  0  0  0
  -21.9790   -6.9920   21.3200 O   0  0  0  0  0  0  0  0  0  0  0  0
  -21.8260   -6.3320   22.5130 C   0  0  0  0  0  0  0  0  0  0  0  0
  -21.1960   -6.9340   23.6250 C   0  0  0  0  0  3  0  0  0  0  0  0
  -21.0030   -6.1970   24.8110 C   0  0  0  0  0  3  0  0  0  0  0  0
  -21.4280   -4.8550   24.8820 C   0  0  0  0  0  0  0  0  0  0  0  0
  -22.0480   -4.2530   23.7740 C   0  0  0  0  0  3  0  0  0  0  0  0
  -22.2460   -4.9900   22.5930 C   0  0  0  0  0  0  0  0  0  0  0  0
  -22.8280   -4.3990   21.5210 F   0  0  0  0  0  0  0  0  0  0  0  0
  -21.2330   -4.1410   26.0160 F   0  0  0  0  0  0  0  0  0  0  0  0
  -22.8590  -13.6780   21.1730 C   0  0  0  0  0  0  0  0  0  0  0  0
  -22.2130  -12.9400   22.0700 N   0  0  0  0  0  0  0  0  0  0  0  0
  -22.3530  -14.7000   20.7110 O   0  0  0  0  0  0  0  0  0  0  0  0
  -22.6290  -12.1180   22.4800 H   0  0  0  0  0  0  0  0  0  0  0  0
  -21.2800  -13.2050   22.3530 H   0  0  0  0  0  0  0  0  0  0  0  0
  -25.3820  -15.4450   20.2320 N   0  0  0  0  0  0  0  0  0  0  0  0
  -24.6010  -16.0680   20.3980 H   0  0  0  0  0  0  0  0  0  0  0  0
  -26.1900  -15.9180   19.8480 H   0  0  0  0  0  0  0  0  0  0  0  0
  -29.3570  -22.2970   19.4800 C   0  0  0  0  0  2  0  0  0  0  0  0
  -28.5650  -23.5110   20.0580 C   0  0  0  0  0  2  0  0  0  0  0  0
  -30.1250  -25.3460   19.1830 C   0  0  0  0  0  1  0  0  0  0  0  0
  -28.6680  -24.8540   19.2750 C   0  0  0  0  0  3  0  0  0  0  0  0
  -27.7700  -25.9410   19.9180 C   0  0  0  0  0  2  0  0  0  0  0  0
  -27.7770  -27.1770   19.1830 O   0  0  0  0  0  0  0  0  0  0  0  0
  -24.4900  -31.9440   23.3280 C   0  0  0  0  0  0  0  0  0  0  0  0
  -26.6670  -27.9640   19.3890 C   0  0  0  0  0  0  0  0  0  0  0  0
  -23.0950  -30.8640   21.5950 C   0  0  0  0  0  3  0  0  0  0  0  0
  -24.3580  -29.5320   19.8240 C   0  0  0  0  0  0  0  0  0  0  0  0
  -25.6100  -31.1650   21.2440 C   0  0  0  0  0  2  0  0  0  0  0  0
  -25.5810  -29.9120   20.3930 C   0  0  0  0  0  0  0  0  0  0  0  0
  -26.7420  -29.1370   20.1720 C   0  0  0  0  0  3  0  0  0  0  0  0
  -25.4320  -27.6020   18.8080 C   0  0  0  0  0  3  0  0  0  0  0  0
  -24.2790  -28.3770   19.0250 C   0  0  0  0  0  3  0  0  0  0  0  0
  -23.1630  -30.4110   20.1120 C   0  0  0  0  0  2  0  0  0  0  0  0
  -24.4210  -31.3290   22.1150 N   0  0  0  0  0  0  0  0  0  0  0  0
  -23.4680  -32.1640   23.9930 O   0  0  0  0  0  0  0  0  0  0  0  0
  -22.4750  -29.7230   22.4340 C   0  0  0  0  0  0  0  0  0  0  0  0
  -21.1500  -29.5400   22.3070 N   0  0  0  0  0  0  0  0  0  0  0  0
  -23.1800  -29.0140   23.1570 O   0  0  0  0  0  0  0  0  0  0  0  0
  -20.6440  -30.1690   21.6980 H   0  0  0  0  0  0  0  0  0  0  0  0
  -17.8060  -28.2210   22.6600 C   0  0  0  0  0  0  0  0  0  0  0  0
  -20.3560  -28.5060   22.9690 C   0  0  0  0  0  3  0  0  0  0  0  0
  -20.4950  -27.1490   22.2400 C   0  0  0  0  0  2  0  0  0  0  0  0
  -19.4010  -26.9130   21.1940 C   0  0  0  0  0  2  0  0  0  0  0  0
  -18.0150  -26.9560   21.8440 C   0  0  0  0  0  2  0  0  0  0  0  0
  -18.9050  -28.9570   23.1740 C   0  0  0  0  0  0  0  0  0  0  0  0
  -18.6550  -30.1450   23.8950 C   0  0  0  0  0  3  0  0  0  0  0  0
  -17.3380  -30.5940   24.1090 C   0  0  0  0  0  3  0  0  0  0  0  0
  -16.2530  -29.8520   23.6110 C   0  0  0  0  0  3  0  0  0  0  0  0
  -16.4890  -28.6670   22.8920 C   0  0  0  0  0  3  0  0  0  0  0  0
  -25.8500  -32.4220   23.9280 C   0  0  0  0  0  3  0  0  0  0  0  0
  -26.3680  -31.5040   25.1010 C   0  0  1  0  0  0  0  0  0  0  0  0
  -25.3040  -31.2320   26.1910 C   0  0  0  0  0  1  0  0  0  0  0  0
  -26.8450  -30.1370   24.5560 C   0  0  0  0  0  1  0  0  0  0  0  0
  -27.5930  -32.1620   25.7790 C   0  0  0  0  0  1  0  0  0  0  0  0
  -25.6670  -33.8040   24.3890 N   0  0  0  0  0  0  0  0  0  0  0  0
  -26.0620  -34.8900   23.7140 C   0  0  0  0  0  0  0  0  0  0  0  0
  -26.6910  -34.8280   22.6530 O   0  0  0  0  0  0  0  0  0  0  0  0
  -25.1110  -33.9330   25.2220 H   0  0  0  0  0  0  0  0  0  0  0  0
  -24.4720  -36.8360   23.5810 C   0  0  0  0  0  1  0  0  0  0  0  0
  -25.7030  -36.2660   24.3060 C   0  0  0  0  0  3  0  0  0  0  0  0
  -27.9250  -36.9090   25.1300 C   0  0  0  0  0  1  0  0  0  0  0  0
  -26.8110  -37.2420   24.2450 N   0  0  0  0  0  0  0  0  0  0  0  0
  -26.4840  -38.1740   24.4830 H   0  0  0  0  0  0  0  0  0  0  0  0
  1  2  1  0
  2  8  1  0
  3  5  1  0
  3  1  2  0
  4  2  2  0
  5  4  1  0
  8  7  1  0
  8  6  1  0
  9  5  1  0
 10 11  1  0
 10  9  1  0
 10 14  1  0
 12 13  1  0
 13 11  1  0
 15 21  1  0
 15 14  1  0
 16 21  1  0
 17 18  1  0
 17 16  1  0
 19 18  1  0
 19 26  1  0
 19 20  1  0
 21 20  1  0
 22 15  2  0
 23 24  2  0
 24 43  1  0
 25 24  1  0
 25 28  1  0
 26 27  1  0
 26 23  1  0
 27 25  2  0
 28 29  1  0
 29 30  2  0
 31 34  1  0
 31 30  1  0
 32 31  2  0
 33 32  1  0
 33 28  2  0
 34 35  1  0
 35 40  2  0
 35 36  1  0
 36 37  2  0
 37 38  1  0
 38 42  1  0
 39 38  2  0
 40 39  1  0
 41 40  1  0
 43 44  1  0
 44 47  1  0
 44 46  1  0
 45 43  2  0
 48 23  1  0
 48 49  1  0
 50 48  1  0
 51 52  1  0
 51  3  1  0
 54 53  1  0
 54 55  1  0
 54 52  1  0
 56 58  1  0
 56 55  1  0
 57 68  2  0
 58 63  1  0
 59 67  1  0
 59 69  1  0
 60 66  1  0
 60 62  1  0
 61 67  1  0
 62 61  1  0
 63 62  2  0
 64 65  1  0
 64 58  2  0
 65 60  2  0
 66 59  1  0
 67 57  1  0
 69 71  2  0
 70 69  1  0
 72 70  1  0
 73 82  2  0
 73 78  1  0
 74 70  1  0
 74 78  1  0
 75 74  1  0
 76 77  1  0
 76 75  1  0
 77 73  1  0
 78 79  2  0
 79 80  1  0
 81 80  2  0
 82 81  1  0
 83 57  1  0
 83 88  1  0
 83 84  1  0
 84 87  1  1
 84 85  1  0
 86 84  1  0
 88 91  1  0
 89 93  1  0
 89 88  1  0
 90 89  2  0
 93 92  1  0
 95 93  1  0
 95 96  1  0
 95 94  1  0
M  ISO  4  14 100  15 100  55 101  56 101
M  END
>  <TORSDO>  (98) 
F 26

>  <SCORE>  (98) 
-10.323

>  <name>  (98) 
97

>  <ligand_id>  (98) 
97

>  <original_smiles>  (98) 
[H]c1c([H])c([H])c2c(c1[H])C([H])([H])C([H])([H])C([H])([H])C2([H])N([H])C(=O)C1([H])N(C(=O)C([H])(N([H])C(=O)C([H])(N([H])C([H])([H])[H])C([H])([H])[H])C(C([H])([H])[H])(C([H])([H])[H])C([H])([H])[H])C([H])([H])c2c([H])c(OC([H])([H])C([H])(C([H])([H])[H])C([H])([H])C([H])([H])c3c([H])c(C([H])(C([H])([H])[H])C([H])([H])[H])nn3C([H])([H])C([H])(C([H])([H])C(=O)N3C([H])([H])C([H])([H])C([H])([H])C([H])(n4nc(-c5c([H])c([H])c(Oc6c([H])c([H])c(F)c([H])c6F)c([H])c5[H])c(C(=O)N([H])[H])c4N([H])[H])C3([H])[H])C([H])([H])C([H])([H])C([H])([H])[H])c([H])c([H])c2C1([H])[H]

>  <smiles>  (98) 
[H]c1c([H])c([H])c2c(c1[H])C([H])([H])C([H])([H])C([H])([H])C2([H])N([H])C(=O)C1([H])N(C(=O)C([H])(N([H])C(=O)C([H])(N([H])C([H])([H])[H])C([H])([H])[H])C(C([H])([H])[H])(C([H])([H])[H])C([H])([H])[H])C([H])([H])c2c([H])c(OC([H])([H])C([H])(C([H])([H])[H])C([H])([H])C([H])([H])c3c([H])c(C([H])(C([H])([H])[H])C([H])([H])[H])nn3C([H])([H])C([H])(C([H])([H])C(=O)N3C([H])([H])C([H])([H])C([H])([H])C([H])(n4nc(-c5c([H])c([H])c(Oc6c([H])c([H])c(F)c([H])c6F)c([H])c5[H])c(C(=O)N([H])[H])c4N([H])[H])C3([H])[H])C([H])([H])C([H])([H])C([H])([H])[H])c([H])c([H])c2C1([H])[H]

$$$$
98:0:0
     RDKit          3D

 92 99  0  0  1  0  0  0  0  0999 V2000
  -27.5310  -20.1180   19.2280 C   0  0  0  0  0  1  0  0  0  0  0  0
  -27.1130  -21.9390   20.8530 C   0  0  0  0  0  1  0  0  0  0  0  0
  -28.2320  -21.2050   20.0770 C   0  0  2  0  0  0  0  0  0  0  0  0
  -28.9410  -22.1780   19.0770 C   0  0  0  0  0  2  0  0  0  0  0  0
  -29.2260  -23.6600   19.4700 C   0  0  0  0  0  2  0  0  0  0  0  0
  -28.6850  -24.6240   18.3840 C   0  0  0  0  0  2  0  0  0  0  0  0
  -28.9830  -26.1350   18.5290 C   0  0  0  0  0  2  0  0  0  0  0  0
  -28.5200  -26.7760   19.7160 O   0  0  0  0  0  0  0  0  0  0  0  0
  -24.6880  -31.7190   23.0460 C   0  0  0  0  0  0  0  0  0  0  0  0
  -27.3410  -27.4890   19.6900 C   0  0  0  0  0  0  0  0  0  0  0  0
  -23.4760  -30.4060   21.3320 C   0  0  0  0  0  3  0  0  0  0  0  0
  -24.9280  -28.9650   19.8060 C   0  0  0  0  0  0  0  0  0  0  0  0
  -25.9970  -30.7890   21.1420 C   0  0  0  0  0  2  0  0  0  0  0  0
  -26.0820  -29.4590   20.4250 C   0  0  0  0  0  0  0  0  0  0  0  0
  -27.2840  -28.7200   20.3800 C   0  0  0  0  0  3  0  0  0  0  0  0
  -26.1730  -27.0090   19.0580 C   0  0  0  0  0  3  0  0  0  0  0  0
  -24.9680  -27.7370   19.1240 C   0  0  0  0  0  3  0  0  0  0  0  0
  -23.6780  -29.8080   19.9130 C   0  0  0  0  0  2  0  0  0  0  0  0
  -24.7380  -30.9840   21.8980 N   0  0  0  0  0  0  0  0  0  0  0  0
  -23.6110  -31.9530   23.6110 O   0  0  0  0  0  0  0  0  0  0  0  0
  -22.8390  -29.3290   22.2380 C   0  0  0  0  0  0  0  0  0  0  0  0
  -21.5070  -29.1810   22.1450 N   0  0  0  0  0  0  0  0  0  0  0  0
  -23.5370  -28.6330   22.9810 O   0  0  0  0  0  0  0  0  0  0  0  0
  -21.0060  -29.7950   21.5180 H   0  0  0  0  0  0  0  0  0  0  0  0
  -18.1270  -28.0330   22.6940 C   0  0  0  0  0  0  0  0  0  0  0  0
  -20.6990  -28.2050   22.8720 C   0  0  0  0  0  3  0  0  0  0  0  0
  -20.7370  -26.8240   22.1790 C   0  0  0  0  0  2  0  0  0  0  0  0
  -19.5860  -26.6140   21.1910 C   0  0  0  0  0  2  0  0  0  0  0  0
  -18.2350  -26.7410   21.9020 C   0  0  0  0  0  2  0  0  0  0  0  0
  -19.2830  -28.7300   23.1340 C   0  0  0  0  0  0  0  0  0  0  0  0
  -19.1250  -29.9460   23.8350 C   0  0  0  0  0  3  0  0  0  0  0  0
  -17.8440  -30.4650   24.0970 C   0  0  0  0  0  3  0  0  0  0  0  0
  -16.7020  -29.7650   23.6700 C   0  0  0  0  0  3  0  0  0  0  0  0
  -16.8450  -28.5510   22.9750 C   0  0  0  0  0  3  0  0  0  0  0  0
  -25.9780  -32.3160   23.6910 C   0  0  0  0  0  3  0  0  0  0  0  0
  -25.6770  -33.6990   24.0810 N   0  0  0  0  0  0  0  0  0  0  0  0
  -26.0020  -34.7820   23.3620 C   0  0  0  0  0  0  0  0  0  0  0  0
  -26.6600  -34.7200   22.3190 O   0  0  0  0  0  0  0  0  0  0  0  0
  -25.0900  -33.8220   24.8940 H   0  0  0  0  0  0  0  0  0  0  0  0
  -24.2670  -36.5860   23.0990 C   0  0  0  0  0  1  0  0  0  0  0  0
  -25.5180  -36.1490   23.8790 C   0  0  0  0  0  3  0  0  0  0  0  0
  -27.6570  -37.0080   24.7270 C   0  0  0  0  0  1  0  0  0  0  0  0
  -26.5480  -37.2080   23.7960 N   0  0  0  0  0  0  0  0  0  0  0  0
  -26.1430  -38.1210   23.9780 H   0  0  0  0  0  0  0  0  0  0  0  0
  -26.4990  -31.4880   24.9290 C   0  0  1  0  0  0  0  0  0  0  0  0
  -25.4130  -31.2190   25.9960 C   0  0  0  0  0  1  0  0  0  0  0  0
  -27.0610  -30.1210   24.4740 C   0  0  0  0  0  1  0  0  0  0  0  0
  -27.6640  -32.2420   25.6110 C   0  0  0  0  0  1  0  0  0  0  0  0
  -29.2090  -20.5270   21.0970 C   0  0  0  0  0  2  0  0  0  0  0  0
  -31.5390  -19.9600   20.4970 C   0  0  0  0  0  1  0  0  0  0  0  0
  -30.1240  -19.5140   20.4810 N   0  0  1  0  0  4  0  0  0  0  0  0
  -29.8400  -19.4890   19.5130 H   0  0  0  0  0  0  0  0  0  0  0  0
  -29.9350  -18.1160   20.9990 C   0  0  0  0  0  2  0  0  0  0  0  0
  -30.6750  -17.0190   20.1710 C   0  0  0  0  0  2  0  0  0  0  0  0
  -31.0630  -14.5480   20.1570 C   0  0  0  0  0  0  0  0  0  0  0  0
  -30.7770  -12.2940   19.1920 C   0  0  0  0  0  2  0  0  0  0  0  0
  -29.8210  -12.3920   17.9840 C   0  0  0  0  0  2  0  0  0  0  0  0
  -28.3550  -12.2710   18.4430 C   0  0  0  0  0  2  0  0  0  0  0  0
  -28.0230  -13.1990   19.6420 C   0  0  0  0  0  3  0  0  0  0  0  0
  -29.0940  -13.0850   20.7520 C   0  0  0  0  0  2  0  0  0  0  0  0
  -30.4050  -13.3540   20.1430 N   0  0  0  0  0  0  0  0  0  0  0  0
  -32.1860  -14.6920   19.6700 O   0  0  0  0  0  0  0  0  0  0  0  0
  -30.3380  -15.6220   20.5360 N   0  0  0  0  0  0  0  0  0  0  0  0
  -29.4110  -15.4400   20.8930 H   0  0  0  0  0  0  0  0  0  0  0  0
  -25.6630  -13.8490   20.4350 C   0  0  0  0  0  0  0  0  0  0  0  0
  -24.5860  -13.0950   20.8200 C   0  0  0  0  0  0  0  0  0  0  0  0
  -25.0120  -11.7330   20.7450 C   0  0  0  0  0  0  0  0  0  0  0  0
  -26.6780  -12.9460   20.1550 N   0  0  0  0  0  0  0  0  0  0  0  0
  -26.2910  -11.6690   20.4000 N   0  0  0  0  0  0  0  0  0  0  0  0
  -24.2600  -10.4850   20.9320 C   0  0  0  0  0  0  0  0  0  0  0  0
  -24.6490   -9.5260   21.8930 C   0  0  0  0  0  3  0  0  0  0  0  0
  -23.9000   -8.3410   22.0640 C   0  0  0  0  0  3  0  0  0  0  0  0
  -22.7480   -8.1090   21.2730 C   0  0  0  0  0  0  0  0  0  0  0  0
  -22.3820   -9.0560   20.3020 C   0  0  0  0  0  3  0  0  0  0  0  0
  -23.1300  -10.2320   20.1290 C   0  0  0  0  0  3  0  0  0  0  0  0
  -21.9750   -6.9750   21.3500 O   0  0  0  0  0  0  0  0  0  0  0  0
  -21.8140   -6.2940   22.5310 C   0  0  0  0  0  0  0  0  0  0  0  0
  -21.2570   -6.9040   23.6750 C   0  0  0  0  0  3  0  0  0  0  0  0
  -21.0480   -6.1480   24.8460 C   0  0  0  0  0  3  0  0  0  0  0  0
  -21.3840   -4.7810   24.8710 C   0  0  0  0  0  0  0  0  0  0  0  0
  -21.9340   -4.1690   23.7300 C   0  0  0  0  0  3  0  0  0  0  0  0
  -22.1470   -4.9230   22.5630 C   0  0  0  0  0  0  0  0  0  0  0  0
  -22.6560   -4.3260   21.4600 F   0  0  0  0  0  0  0  0  0  0  0  0
  -21.1760   -4.0520   25.9920 F   0  0  0  0  0  0  0  0  0  0  0  0
  -23.2110  -13.5980   21.1490 C   0  0  0  0  0  0  0  0  0  0  0  0
  -22.5010  -12.9060   22.0320 N   0  0  0  0  0  0  0  0  0  0  0  0
  -22.7780  -14.6380   20.6550 O   0  0  0  0  0  0  0  0  0  0  0  0
  -22.8670  -12.0600   22.4460 H   0  0  0  0  0  0  0  0  0  0  0  0
  -21.5810  -13.2250   22.3020 H   0  0  0  0  0  0  0  0  0  0  0  0
  -25.8600  -15.2160   20.2830 N   0  0  0  0  0  0  0  0  0  0  0  0
  -25.1110  -15.8840   20.4270 H   0  0  0  0  0  0  0  0  0  0  0  0
  -26.6960  -15.6400   19.8990 H   0  0  0  0  0  0  0  0  0  0  0  0
  3  1  1  6
  3  2  1  0
  3 49  1  0
  4  5  1  0
  4  3  1  0
  6  7  1  0
  6  5  1  0
  7  8  1  0
  9 20  2  0
 10  8  1  0
 10 15  1  0
 11 19  1  0
 11 21  1  0
 12 18  1  0
 12 14  1  0
 13 19  1  0
 14 13  1  0
 15 14  2  0
 16 17  1  0
 16 10  2  0
 17 12  2  0
 18 11  1  0
 19  9  1  0
 21 23  2  0
 22 21  1  0
 24 22  1  0
 25 34  2  0
 25 30  1  0
 26 22  1  0
 26 30  1  0
 27 26  1  0
 28 29  1  0
 28 27  1  0
 29 25  1  0
 30 31  2  0
 31 32  1  0
 33 32  2  0
 34 33  1  0
 35  9  1  0
 35 36  1  0
 35 45  1  0
 36 39  1  0
 37 41  1  0
 37 36  1  0
 38 37  2  0
 41 40  1  0
 43 41  1  0
 43 44  1  0
 43 42  1  0
 45 48  1  1
 45 46  1  0
 47 45  1  0
 51 50  1  0
 51 53  1  0
 51 49  1  0
 51 52  1  6
 54 63  1  0
 54 53  1  0
 55 63  1  0
 56 61  1  0
 57 58  1  0
 57 56  1  0
 59 58  1  0
 59 68  1  0
 59 60  1  0
 61 55  1  0
 61 60  1  0
 62 55  2  0
 63 64  1  0
 65 66  2  0
 66 85  1  0
 67 66  1  0
 67 70  1  0
 68 69  1  0
 68 65  1  0
 69 67  2  0
 70 71  1  0
 71 72  2  0
 73 76  1  0
 73 72  1  0
 74 73  2  0
 75 74  1  0
 75 70  2  0
 76 77  1  0
 77 82  2  0
 77 78  1  0
 78 79  2  0
 79 80  1  0
 80 84  1  0
 81 80  2  0
 82 81  1  0
 83 82  1  0
 85 86  1  0
 86 89  1  0
 86 88  1  0
 87 85  2  0
 90 91  1  0
 90 65  1  0
 92 90  1  0
M  ISO  4   7 101   8 101  55 100  63 100
M  END
>  <TORSDO>  (99) 
F 24

>  <SCORE>  (99) 
-11.595

>  <name>  (99) 
98

>  <ligand_id>  (99) 
98

>  <original_smiles>  (99) 
[H]c1c([H])c([H])c2c(c1[H])C([H])([H])C([H])([H])C([H])([H])C2([H])N([H])C(=O)C1([H])N(C(=O)C([H])(N([H])C(=O)C([H])(N([H])C([H])([H])[H])C([H])([H])[H])C(C([H])([H])[H])(C([H])([H])[H])C([H])([H])[H])C([H])([H])c2c([H])c(OC([H])([H])C([H])([H])C([H])([H])C([H])([H])C(C([H])([H])[H])(C([H])([H])[H])C([H])([H])[N+]([H])(C([H])([H])[H])C([H])([H])C([H])([H])N([H])C(=O)N3C([H])([H])C([H])([H])C([H])([H])C([H])(n4nc(-c5c([H])c([H])c(Oc6c([H])c([H])c(F)c([H])c6F)c([H])c5[H])c(C(=O)N([H])[H])c4N([H])[H])C3([H])[H])c([H])c([H])c2C1([H])[H]

>  <smiles>  (99) 
[H]c1c([H])c([H])c2c(c1[H])C([H])([H])C([H])([H])C([H])([H])C2([H])N([H])C(=O)C1([H])N(C(=O)C([H])(N([H])C(=O)C([H])(N([H])C([H])([H])[H])C([H])([H])[H])C(C([H])([H])[H])(C([H])([H])[H])C([H])([H])[H])C([H])([H])c2c([H])c(OC([H])([H])C([H])([H])C([H])([H])C([H])([H])C(C([H])([H])[H])(C([H])([H])[H])C([H])([H])[N+]([H])(C([H])([H])[H])C([H])([H])C([H])([H])N([H])C(=O)N3C([H])([H])C([H])([H])C([H])([H])C([H])(n4nc(-c5c([H])c([H])c(Oc6c([H])c([H])c(F)c([H])c6F)c([H])c5[H])c(C(=O)N([H])[H])c4N([H])[H])C3([H])[H])c([H])c([H])c2C1([H])[H]

$$$$
99:0:0
     RDKit          3D

 95103  0  0  1  0  0  0  0  0999 V2000
  -29.5850  -21.8580   15.3130 C   0  0  0  0  0  0  0  0  0  0  0  0
  -30.4030  -22.8930   14.6830 C   0  0  0  0  0  0  0  0  0  0  0  0
  -30.0370  -21.7480   16.6100 C   0  0  0  0  0  0  0  0  0  0  0  0
  -31.1020  -23.3760   15.7580 C   0  0  0  0  0  0  0  0  0  0  0  0
  -28.4070  -21.0680   14.7540 C   0  0  0  0  0  1  0  0  0  0  0  0
  -31.5280  -24.7480   16.1370 C   0  0  0  0  0  1  0  0  0  0  0  0
  -31.2920  -22.3290   16.6580 N   0  0  0  0  0  0  0  0  0  0  0  0
  -28.3530  -20.1620   17.8000 C   0  0  0  0  0  1  0  0  0  0  0  0
  -29.4230  -21.2390   17.9000 C   0  0  0  0  0  2  0  0  0  0  0  0
  -29.3180  -23.0550   12.3380 C   0  0  0  0  0  1  0  0  0  0  0  0
  -30.5190  -23.4610   13.2250 C   0  0  0  0  0  3  0  0  0  0  0  0
  -30.9980  -24.9650   13.0550 C   0  0  0  0  0  2  0  0  0  0  0  0
  -30.4660  -25.8180   11.9620 O   0  0  0  0  0  0  0  0  0  0  0  0
  -35.2670  -30.5190    9.4460 C   0  0  0  0  0  0  0  0  0  0  0  0
  -30.9420  -27.1190   11.9950 C   0  0  0  0  0  0  0  0  0  0  0  0
  -34.4340  -30.8600   11.7530 C   0  0  0  0  0  3  0  0  0  0  0  0
  -32.3170  -29.5690   12.3650 C   0  0  0  0  0  0  0  0  0  0  0  0
  -32.9250  -29.7590    9.9500 C   0  0  0  0  0  2  0  0  0  0  0  0
  -32.2110  -29.0190   11.0750 C   0  0  0  0  0  0  0  0  0  0  0  0
  -31.5070  -27.7940   10.8800 C   0  0  0  0  0  3  0  0  0  0  0  0
  -30.9670  -27.7720   13.2420 C   0  0  0  0  0  3  0  0  0  0  0  0
  -31.7200  -28.9340   13.4530 C   0  0  0  0  0  3  0  0  0  0  0  0
  -33.1200  -30.8350   12.5560 C   0  0  0  0  0  2  0  0  0  0  0  0
  -34.2440  -30.3610   10.3460 N   0  0  0  0  0  0  0  0  0  0  0  0
  -36.3420  -31.0510    9.7680 O   0  0  0  0  0  0  0  0  0  0  0  0
  -35.4900  -30.0390   12.5400 C   0  0  0  0  0  0  0  0  0  0  0  0
  -36.1030  -30.6480   13.5650 N   0  0  0  0  0  0  0  0  0  0  0  0
  -35.7190  -28.8630   12.2240 O   0  0  0  0  0  0  0  0  0  0  0  0
  -35.9500  -31.6370   13.6870 H   0  0  0  0  0  0  0  0  0  0  0  0
  -38.4900  -31.3820   16.1690 C   0  0  0  0  0  0  0  0  0  0  0  0
  -37.1270  -30.0660   14.4280 C   0  0  0  0  0  3  0  0  0  0  0  0
  -36.4840  -29.3290   15.6370 C   0  0  0  0  0  2  0  0  0  0  0  0
  -36.3620  -30.2000   16.9080 C   0  0  0  0  0  2  0  0  0  0  0  0
  -37.7650  -30.6790   17.3040 C   0  0  0  0  0  2  0  0  0  0  0  0
  -38.1890  -31.0820   14.8300 C   0  0  0  0  0  0  0  0  0  0  0  0
  -38.8890  -31.7340   13.8020 C   0  0  0  0  0  3  0  0  0  0  0  0
  -39.9020  -32.6620   14.1050 C   0  0  0  0  0  3  0  0  0  0  0  0
  -40.1810  -32.9880   15.4410 C   0  0  0  0  0  3  0  0  0  0  0  0
  -39.4690  -32.3550   16.4720 C   0  0  0  0  0  3  0  0  0  0  0  0
  -35.1360  -30.0450    7.9720 C   0  0  0  0  0  3  0  0  0  0  0  0
  -35.5720  -31.1420    7.1040 N   0  0  0  0  0  0  0  0  0  0  0  0
  -34.7450  -31.9110    6.3710 C   0  0  0  0  0  0  0  0  0  0  0  0
  -33.5290  -31.6910    6.2950 O   0  0  0  0  0  0  0  0  0  0  0  0
  -36.5470  -31.4050    7.1550 H   0  0  0  0  0  0  0  0  0  0  0  0
  -34.9470  -34.4190    6.2770 C   0  0  0  0  0  1  0  0  0  0  0  0
  -35.3560  -33.1000    5.6050 C   0  0  0  0  0  3  0  0  0  0  0  0
  -35.6370  -32.0910    3.3780 C   0  0  0  0  0  1  0  0  0  0  0  0
  -34.9840  -33.1300    4.1710 N   0  0  0  0  0  0  0  0  0  0  0  0
  -35.2080  -34.0300    3.7630 H   0  0  0  0  0  0  0  0  0  0  0  0
  -35.9780  -28.7450    7.6510 C   0  0  1  0  0  0  0  0  0  0  0  0
  -37.4610  -28.8260    8.0900 C   0  0  0  0  0  1  0  0  0  0  0  0
  -35.3670  -27.5090    8.3490 C   0  0  0  0  0  1  0  0  0  0  0  0
  -35.9490  -28.4500    6.1290 C   0  0  0  0  0  1  0  0  0  0  0  0
  -32.4140  -22.2840   17.6620 C   0  0  0  0  0  2  0  0  0  0  0  0
  -34.5670  -22.8690   16.4390 C   0  0  0  0  0  1  0  0  0  0  0  0
  -33.8920  -21.8080   17.2910 C   0  0  0  0  0  3  0  0  0  0  0  0
  -34.0270  -20.3720   16.6030 C   0  0  0  0  0  2  0  0  0  0  0  0
  -34.7400  -19.6650   14.1410 C   0  0  0  0  0  0  0  0  0  0  0  0
  -36.2450  -19.4020   12.1610 C   0  0  0  0  0  2  0  0  0  0  0  0
  -37.7190  -19.3170   12.6000 C   0  0  0  0  0  2  0  0  0  0  0  0
  -38.3600  -20.7030   12.8250 C   0  0  0  0  0  2  0  0  0  0  0  0
  -37.4670  -21.6460   13.6690 C   0  0  0  0  0  3  0  0  0  0  0  0
  -35.9940  -21.6180   13.1690 C   0  0  0  0  0  2  0  0  0  0  0  0
  -35.5290  -20.2120   13.1670 N   0  0  0  0  0  0  0  0  0  0  0  0
  -34.2480  -18.5390   14.0470 O   0  0  0  0  0  0  0  0  0  0  0  0
  -34.6880  -20.4210   15.2690 N   0  0  0  0  0  0  0  0  0  0  0  0
  -35.3180  -21.2050   15.1800 H   0  0  0  0  0  0  0  0  0  0  0  0
  -38.1000  -23.8990   14.7820 C   0  0  0  0  0  0  0  0  0  0  0  0
  -38.7330  -25.0180   14.3000 C   0  0  0  0  0  0  0  0  0  0  0  0
  -39.0680  -24.7180   12.9520 C   0  0  0  0  0  0  0  0  0  0  0  0
  -38.0080  -23.0130   13.7100 N   0  0  0  0  0  0  0  0  0  0  0  0
  -38.5650  -23.5410   12.5880 N   0  0  0  0  0  0  0  0  0  0  0  0
  -39.9050  -25.4690   12.0020 C   0  0  0  0  0  0  0  0  0  0  0  0
  -39.3390  -26.3660   11.0720 C   0  0  0  0  0  3  0  0  0  0  0  0
  -40.1650  -27.0950   10.1890 C   0  0  0  0  0  3  0  0  0  0  0  0
  -41.5680  -26.9310   10.2320 C   0  0  0  0  0  0  0  0  0  0  0  0
  -42.1250  -26.0160   11.1390 C   0  0  0  0  0  3  0  0  0  0  0  0
  -41.3030  -25.2860   12.0160 C   0  0  0  0  0  3  0  0  0  0  0  0
  -42.4470  -27.5760    9.3940 O   0  0  0  0  0  0  0  0  0  0  0  0
  -42.5890  -28.9390    9.4130 C   0  0  0  0  0  0  0  0  0  0  0  0
  -43.0930  -29.6210   10.5420 C   0  0  0  0  0  3  0  0  0  0  0  0
  -43.2890  -31.0150   10.4960 C   0  0  0  0  0  3  0  0  0  0  0  0
  -42.9870  -31.7300    9.3210 C   0  0  0  0  0  0  0  0  0  0  0  0
  -42.4910  -31.0540    8.1910 C   0  0  0  0  0  3  0  0  0  0  0  0
  -42.2950  -29.6610    8.2380 C   0  0  0  0  0  0  0  0  0  0  0  0
  -41.8380  -29.0110    7.1420 F   0  0  0  0  0  0  0  0  0  0  0  0
  -43.1820  -33.0690    9.2700 F   0  0  0  0  0  0  0  0  0  0  0  0
  -39.1070  -26.2290   15.1050 C   0  0  0  0  0  0  0  0  0  0  0  0
  -39.1430  -27.4030   14.4650 N   0  0  0  0  0  0  0  0  0  0  0  0
  -39.3220  -26.1510   16.3110 O   0  0  0  0  0  0  0  0  0  0  0  0
  -38.9640  -27.4730   13.4790 H   0  0  0  0  0  0  0  0  0  0  0  0
  -39.3850  -28.2460   14.9660 H   0  0  0  0  0  0  0  0  0  0  0  0
  -37.6510  -23.6140   16.0510 N   0  0  0  0  0  0  0  0  0  0  0  0
  -38.1030  -24.2150   16.7360 H   0  0  0  0  0  0  0  0  0  0  0  0
  -37.4830  -22.6760   16.3930 H   0  0  0  0  0  0  0  0  0  0  0  0
  1  3  2  0
  2  1  1  0
  2  4  2  0
  3  7  1  0
  3  9  1  0
  4  6  1  0
  4  7  1  0
  5  1  1  0
  7 54  1  0
  8  9  1  0
 11 10  1  0
 11  2  1  0
 12 11  1  0
 13 15  1  0
 13 12  1  0
 14 25  2  0
 14 24  1  0
 15 21  1  0
 16 26  1  0
 16 23  1  0
 17 23  1  0
 17 22  1  0
 18 24  1  0
 18 19  1  0
 19 17  2  0
 20 19  1  0
 20 15  2  0
 21 22  2  0
 24 16  1  0
 26 27  1  0
 27 29  1  0
 28 26  2  0
 30 39  1  0
 30 34  1  0
 31 27  1  0
 31 35  1  0
 31 32  1  0
 32 33  1  0
 33 34  1  0
 35 30  2  0
 36 37  2  0
 36 35  1  0
 37 38  1  0
 38 39  2  0
 40 14  1  0
 41 44  1  0
 41 40  1  0
 42 41  1  0
 43 42  2  0
 46 45  1  0
 46 42  1  0
 47 48  1  0
 48 46  1  0
 49 48  1  0
 50 40  1  0
 50 51  1  1
 50 52  1  0
 53 50  1  0
 56 55  1  0
 56 54  1  0
 57 56  1  0
 58 66  1  0
 59 60  1  0
 59 64  1  0
 60 61  1  0
 62 61  1  0
 62 71  1  0
 63 62  1  0
 64 63  1  0
 64 58  1  0
 65 58  2  0
 66 57  1  0
 67 66  1  0
 68 93  1  0
 69 68  2  0
 69 88  1  0
 70 69  1  0
 71 68  1  0
 72 70  2  0
 72 71  1  0
 73 78  1  0
 73 70  1  0
 74 73  2  0
 75 76  2  0
 75 74  1  0
 76 77  1  0
 77 78  2  0
 79 80  1  0
 79 76  1  0
 80 81  1  0
 82 81  2  0
 83 82  1  0
 84 85  1  0
 84 83  2  0
 85 80  2  0
 86 85  1  0
 87 83  1  0
 88 90  2  0
 89 92  1  0
 89 88  1  0
 91 89  1  0
 93 95  1  0
 93 94  1  0
M  ISO  4  12 101  13 101  58 100  66 100
M  END
>  <TORSDO>  (100) 
F 22

>  <SCORE>  (100) 
1.057

>  <name>  (100) 
99

>  <ligand_id>  (100) 
99

>  <original_smiles>  (100) 
[H]c1c([H])c([H])c2c(c1[H])C([H])([H])C([H])([H])C([H])([H])C2([H])N([H])C(=O)C1([H])N(C(=O)C([H])(N([H])C(=O)C([H])(N([H])C([H])([H])[H])C([H])([H])[H])C(C([H])([H])[H])(C([H])([H])[H])C([H])([H])[H])C([H])([H])c2c([H])c(OC([H])([H])C([H])(c3c(C([H])([H])[H])c(C([H])([H])C([H])([H])[H])n(C([H])([H])C([H])(C([H])([H])[H])C([H])([H])N([H])C(=O)N4C([H])([H])C([H])([H])C([H])([H])C([H])(n5nc(-c6c([H])c([H])c(Oc7c([H])c([H])c(F)c([H])c7F)c([H])c6[H])c(C(=O)N([H])[H])c5N([H])[H])C4([H])[H])c3C([H])([H])[H])C([H])([H])[H])c([H])c([H])c2C1([H])[H]

>  <smiles>  (100) 
[H]c1c([H])c([H])c2c(c1[H])C([H])([H])C([H])([H])C([H])([H])C2([H])N([H])C(=O)C1([H])N(C(=O)C([H])(N([H])C(=O)C([H])(N([H])C([H])([H])[H])C([H])([H])[H])C(C([H])([H])[H])(C([H])([H])[H])C([H])([H])[H])C([H])([H])c2c([H])c(OC([H])([H])C([H])(c3c(C([H])([H])[H])c(C([H])([H])C([H])([H])[H])n(C([H])([H])C([H])(C([H])([H])[H])C([H])([H])N([H])C(=O)N4C([H])([H])C([H])([H])C([H])([H])C([H])(n5nc(-c6c([H])c([H])c(Oc7c([H])c([H])c(F)c([H])c7F)c([H])c6[H])c(C(=O)N([H])[H])c5N([H])[H])C4([H])[H])c3C([H])([H])[H])C([H])([H])[H])c([H])c([H])c2C1([H])[H]

$$$$
