0:0:0
     RDKit          3D

 97105  0  0  1  0  0  0  0  0999 V2000
  -28.9520  -23.3350   19.8410 C   0  0  0  0  0  2  0  0  0  0  0  0
  -29.7610  -20.7020   20.4380 C   0  0  0  0  0  3  0  0  0  0  0  0
  -29.4290  -19.3250   20.2090 C   0  0  0  0  0  0  0  0  0  0  0  0
  -28.1530  -19.5510   19.6030 C   0  0  0  0  0  0  0  0  0  0  0  0
  -27.8270  -20.8910   19.4180 C   0  0  0  0  0  0  0  0  0  0  0  0
  -26.6530  -21.4410   18.6660 C   0  0  0  0  0  1  0  0  0  0  0  0
  -28.8140  -21.7230   19.9760 N   0  0  0  0  0  0  0  0  0  0  0  0
  -27.3290  -18.5170   19.1730 N   0  0  0  0  0  0  0  0  0  0  0  0
  -27.3710  -17.6570   19.7050 H   0  0  0  0  0  0  0  0  0  0  0  0
  -26.3730  -18.7670   18.9460 H   0  0  0  0  0  0  0  0  0  0  0  0
  -30.2820  -17.8940   20.4990 C   0  0  0  0  0  2  0  0  0  0  0  0
  -30.6090  -15.1490   20.2970 C   0  0  0  0  0  0  0  0  0  0  0  0
  -30.5070  -12.7930   19.3350 C   0  0  0  0  0  2  0  0  0  0  0  0
  -29.5760  -12.7340   18.1020 C   0  0  0  0  0  2  0  0  0  0  0  0
  -28.1200  -12.4850   18.5380 C   0  0  0  0  0  2  0  0  0  0  0  0
  -27.6970  -13.4020   19.7170 C   0  0  0  0  0  3  0  0  0  0  0  0
  -28.7560  -13.4430   20.8400 C   0  0  0  0  0  2  0  0  0  0  0  0
  -30.0130  -13.8850   20.2260 N   0  0  0  0  0  0  0  0  0  0  0  0
  -31.8140  -15.2000   20.0300 O   0  0  0  0  0  0  0  0  0  0  0  0
  -29.8510  -16.3560   20.4660 N   0  0  0  0  0  0  0  0  0  0  0  0
  -28.8660  -16.1980   20.6080 H   0  0  0  0  0  0  0  0  0  0  0  0
  -25.3120  -13.9370   20.4680 C   0  0  0  0  0  0  0  0  0  0  0  0
  -24.2630  -13.1450   20.8400 C   0  0  0  0  0  0  0  0  0  0  0  0
  -24.7490  -11.8010   20.8060 C   0  0  0  0  0  0  0  0  0  0  0  0
  -26.3690  -13.0760   20.2210 N   0  0  0  0  0  0  0  0  0  0  0  0
  -26.0390  -11.7870   20.4930 N   0  0  0  0  0  0  0  0  0  0  0  0
  -24.0410  -10.5290   20.9930 C   0  0  0  0  0  0  0  0  0  0  0  0
  -24.4630   -9.5810   21.9520 C   0  0  0  0  0  3  0  0  0  0  0  0
  -23.7520   -8.3740   22.1270 C   0  0  0  0  0  3  0  0  0  0  0  0
  -22.6050   -8.1040   21.3440 C   0  0  0  0  0  0  0  0  0  0  0  0
  -22.2020   -9.0400   20.3740 C   0  0  0  0  0  3  0  0  0  0  0  0
  -22.9130  -10.2390   20.1970 C   0  0  0  0  0  3  0  0  0  0  0  0
  -21.8680   -6.9480   21.4260 O   0  0  0  0  0  0  0  0  0  0  0  0
  -21.7770   -6.2360   22.5960 C   0  0  0  0  0  0  0  0  0  0  0  0
  -21.2400   -6.8020   23.7720 C   0  0  0  0  0  3  0  0  0  0  0  0
  -21.1000   -6.0130   24.9330 C   0  0  0  0  0  3  0  0  0  0  0  0
  -21.4880   -4.6590   24.9150 C   0  0  0  0  0  0  0  0  0  0  0  0
  -22.0160   -4.0930   23.7420 C   0  0  0  0  0  3  0  0  0  0  0  0
  -22.1590   -4.8790   22.5860 C   0  0  0  0  0  0  0  0  0  0  0  0
  -22.6500   -4.3230   21.4510 F   0  0  0  0  0  0  0  0  0  0  0  0
  -21.3450   -3.9000   26.0260 F   0  0  0  0  0  0  0  0  0  0  0  0
  -22.8580  -13.6010   21.1090 C   0  0  0  0  0  0  0  0  0  0  0  0
  -22.1390  -12.8930   21.9720 N   0  0  0  0  0  0  0  0  0  0  0  0
  -22.4070  -14.6210   20.5890 O   0  0  0  0  0  0  0  0  0  0  0  0
  -22.5170  -12.0680   22.4120 H   0  0  0  0  0  0  0  0  0  0  0  0
  -21.1970  -13.1790   22.1950 H   0  0  0  0  0  0  0  0  0  0  0  0
  -25.4480  -15.3090   20.2840 N   0  0  0  0  0  0  0  0  0  0  0  0
  -24.6510  -15.9290   20.3640 H   0  0  0  0  0  0  0  0  0  0  0  0
  -26.2310  -15.7380   19.8090 H   0  0  0  0  0  0  0  0  0  0  0  0
  -26.6760  -24.2430   20.8200 C   0  0  0  0  0  1  0  0  0  0  0  0
  -28.1630  -24.6270   20.6610 C   0  0  2  0  0  0  0  0  0  0  0  0
  -28.3140  -26.1810   20.3030 O   0  0  0  0  0  0  0  0  0  0  0  0
  -24.5880  -31.8830   23.2740 C   0  0  0  0  0  0  0  0  0  0  0  0
  -27.2620  -27.1870   20.2640 C   0  0  0  0  0  0  0  0  0  0  0  0
  -23.4430  -30.5000   21.5880 C   0  0  0  0  0  3  0  0  0  0  0  0
  -24.9370  -28.9530   20.1780 C   0  0  0  0  0  0  0  0  0  0  0  0
  -26.0000  -30.7730   21.4960 C   0  0  0  0  0  2  0  0  0  0  0  0
  -26.0980  -29.3850   20.8350 C   0  0  0  0  0  0  0  0  0  0  0  0
  -27.2610  -28.5190   20.8600 C   0  0  0  0  0  3  0  0  0  0  0  0
  -26.0940  -26.8960   19.5240 C   0  0  0  0  0  3  0  0  0  0  0  0
  -24.9530  -27.7240   19.5030 C   0  0  0  0  0  3  0  0  0  0  0  0
  -23.7040  -29.8440   20.2060 C   0  0  0  0  0  2  0  0  0  0  0  0
  -24.6960  -31.0740   22.1740 N   0  0  0  0  0  0  0  0  0  0  0  0
  -23.4860  -32.1530   23.7770 O   0  0  0  0  0  0  0  0  0  0  0  0
  -22.7460  -29.4760   22.5190 C   0  0  0  0  0  0  0  0  0  0  0  0
  -21.4170  -29.3190   22.3770 N   0  0  0  0  0  0  0  0  0  0  0  0
  -23.4050  -28.8230   23.3330 O   0  0  0  0  0  0  0  0  0  0  0  0
  -20.9410  -29.8920   21.6950 H   0  0  0  0  0  0  0  0  0  0  0  0
  -18.0180  -28.1680   22.8570 C   0  0  0  0  0  0  0  0  0  0  0  0
  -20.5820  -28.3750   23.1250 C   0  0  0  0  0  3  0  0  0  0  0  0
  -20.6550  -26.9570   22.5130 C   0  0  0  0  0  2  0  0  0  0  0  0
  -19.5510  -26.6890   21.4840 C   0  0  0  0  0  2  0  0  0  0  0  0
  -18.1690  -26.8430   22.1270 C   0  0  0  0  0  2  0  0  0  0  0  0
  -19.1520  -28.8940   23.3090 C   0  0  0  0  0  0  0  0  0  0  0  0
  -18.9560  -30.1380   23.9500 C   0  0  0  0  0  3  0  0  0  0  0  0
  -17.6610  -30.6530   24.1430 C   0  0  0  0  0  3  0  0  0  0  0  0
  -16.5420  -29.9220   23.7070 C   0  0  0  0  0  3  0  0  0  0  0  0
  -16.7220  -28.6800   23.0710 C   0  0  0  0  0  3  0  0  0  0  0  0
  -25.8430  -32.5200   23.9420 C   0  0  0  0  0  3  0  0  0  0  0  0
  -25.5290  -33.9290   24.2320 N   0  0  0  0  0  0  0  0  0  0  0  0
  -25.8870  -34.9660   23.4630 C   0  0  0  0  0  0  0  0  0  0  0  0
  -26.5800  -34.8360   22.4500 O   0  0  0  0  0  0  0  0  0  0  0  0
  -24.9140  -34.1030   25.0120 H   0  0  0  0  0  0  0  0  0  0  0  0
  -24.1790  -36.7660   23.0350 C   0  0  0  0  0  1  0  0  0  0  0  0
  -25.4010  -36.3680   23.8810 C   0  0  0  0  0  3  0  0  0  0  0  0
  -27.5160  -37.2650   24.7440 C   0  0  0  0  0  1  0  0  0  0  0  0
  -26.4420  -37.4120   23.7670 N   0  0  0  0  0  0  0  0  0  0  0  0
  -26.0380  -38.3380   23.8740 H   0  0  0  0  0  0  0  0  0  0  0  0
  -26.2890  -31.7760   25.2610 C   0  0  1  0  0  0  0  0  0  0  0  0
  -25.1420  -31.5720   26.2790 C   0  0  0  0  0  1  0  0  0  0  0  0
  -26.8790  -30.3850   24.9350 C   0  0  0  0  0  1  0  0  0  0  0  0
  -27.4120  -32.5770   25.9600 C   0  0  0  0  0  1  0  0  0  0  0  0
  -28.7970  -24.5900   22.0740 C   0  0  0  0  0  2  0  0  0  0  0  0
  -28.1520  -25.5020   23.0440 N   0  0  0  0  0  4  0  0  0  0  0  0
  -28.1760  -26.4440   22.6920 H   0  0  0  0  0  0  0  0  0  0  0  0
  -28.6390  -25.4780   23.9230 H   0  0  0  0  0  0  0  0  0  0  0  0
  -27.1950  -25.2410   23.2110 H   0  0  0  0  0  0  0  0  0  0  0  0
  1  7  1  0
  1 51  1  0
  3  2  2  0
  3 11  1  0
  4  3  1  0
  5  4  2  0
  5  7  1  0
  6  5  1  0
  7  2  1  0
  8  4  1  0
  8  9  1  0
 10  8  1  0
 12 20  1  0
 13 18  1  0
 14 15  1  0
 14 13  1  0
 16 15  1  0
 16 25  1  0
 16 17  1  0
 18 12  1  0
 18 17  1  0
 19 12  2  0
 20 11  1  0
 20 21  1  0
 22 23  2  0
 23 42  1  0
 24 23  1  0
 24 27  1  0
 25 22  1  0
 25 26  1  0
 26 24  2  0
 27 28  1  0
 28 29  2  0
 30 33  1  0
 30 29  1  0
 31 30  2  0
 32 31  1  0
 32 27  2  0
 33 34  1  0
 34 35  1  0
 35 36  2  0
 37 36  1  0
 37 41  1  0
 38 37  2  0
 39 34  2  0
 39 38  1  0
 40 39  1  0
 42 43  1  0
 43 46  1  0
 43 45  1  0
 44 42  2  0
 47 48  1  0
 47 22  1  0
 49 47  1  0
 51 50  1  1
 51 93  1  0
 52 51  1  0
 53 64  2  0
 54 52  1  0
 54 59  1  0
 55 63  1  0
 55 65  1  0
 56 62  1  0
 56 58  1  0
 57 63  1  0
 58 59  2  0
 58 57  1  0
 60 54  2  0
 61 60  1  0
 61 56  2  0
 62 55  1  0
 63 53  1  0
 65 67  2  0
 66 65  1  0
 68 66  1  0
 69 78  2  0
 69 74  1  0
 70 66  1  0
 70 74  1  0
 71 70  1  0
 72 73  1  0
 72 71  1  0
 73 69  1  0
 74 75  2  0
 75 76  1  0
 77 76  2  0
 78 77  1  0
 79 53  1  0
 79 80  1  0
 79 89  1  0
 80 83  1  0
 81 85  1  0
 81 80  1  0
 82 81  2  0
 85 84  1  0
 87 88  1  0
 87 85  1  0
 87 86  1  0
 89 92  1  1
 89 90  1  0
 91 89  1  0
 93 94  1  0
 94 97  1  0
 94 96  1  0
 95 94  1  0
M  ISO  4  12 100  20 100  51 101  52 101
M  END
>  <TORSDO>  (1) 
F 22

>  <SCORE>  (1) 
-14.401

>  <name>  (1) 
0

>  <ligand_id>  (1) 
0

>  <original_smiles>  (1) 
[H]c1c([H])c([H])c2c(c1[H])C([H])([H])C([H])([H])C([H])([H])C2([H])N([H])C(=O)C1([H])N(C(=O)C([H])(N([H])C(=O)C([H])(N([H])C([H])([H])[H])C([H])([H])[H])C(C([H])([H])[H])(C([H])([H])[H])C([H])([H])[H])C([H])([H])c2c([H])c(OC(C([H])([H])[H])(C([H])([H])n3c([H])c(C([H])([H])N([H])C(=O)N4C([H])([H])C([H])([H])C([H])([H])C([H])(n5nc(-c6c([H])c([H])c(Oc7c([H])c([H])c(F)c([H])c7F)c([H])c6[H])c(C(=O)N([H])[H])c5N([H])[H])C4([H])[H])c(N([H])[H])c3C([H])([H])[H])C([H])([H])[N+]([H])([H])[H])c([H])c([H])c2C1([H])[H]

>  <smiles>  (1) 
[H]c1c([H])c([H])c2c(c1[H])C([H])([H])C([H])([H])C([H])([H])C2([H])N([H])C(=O)C1([H])N(C(=O)C([H])(N([H])C(=O)C([H])(N([H])C([H])([H])[H])C([H])([H])[H])C(C([H])([H])[H])(C([H])([H])[H])C([H])([H])[H])C([H])([H])c2c([H])c(OC(C([H])([H])[H])(C([H])([H])n3c([H])c(C([H])([H])N([H])C(=O)N4C([H])([H])C([H])([H])C([H])([H])C([H])(n5nc(-c6c([H])c([H])c(Oc7c([H])c([H])c(F)c([H])c7F)c([H])c6[H])c(C(=O)N([H])[H])c5N([H])[H])C4([H])[H])c(N([H])[H])c3C([H])([H])[H])C([H])([H])[N+]([H])([H])[H])c([H])c([H])c2C1([H])[H]

$$$$
1:0:0
     RDKit          3D

 93101  0  0  1  0  0  0  0  0999 V2000
  -29.1810  -20.8330   18.7140 C   0  0  0  0  0  3  0  0  0  0  0  0
  -29.2320  -20.9690   20.1100 C   0  0  0  0  0  0  0  0  0  0  0  0
  -29.4110  -19.5620   18.1540 C   0  0  0  0  0  0  0  0  0  0  0  0
  -29.7500  -18.6250   20.2210 C   0  0  0  0  0  0  0  0  0  0  0  0
  -29.5270  -19.8260   20.8440 N   0  0  0  0  0  0  0  0  0  0  0  0
  -29.6820  -18.4780   18.9090 N   0  0  0  0  0  0  0  0  0  0  0  0
  -28.1600  -18.5090   16.2180 C   0  0  0  0  0  1  0  0  0  0  0  0
  -30.7060  -18.7050   16.1630 C   0  0  0  0  0  1  0  0  0  0  0  0
  -29.3870  -19.3320   16.6490 C   0  0  0  0  0  3  0  0  0  0  0  0
  -28.8660  -22.3500   20.8260 C   0  0  0  0  0  2  0  0  0  0  0  0
  -30.5340  -24.1910   20.0660 C   0  0  0  0  0  1  0  0  0  0  0  0
  -29.0430  -23.8210   20.1400 C   0  0  0  0  0  3  0  0  0  0  0  0
  -28.2170  -25.0600   20.7920 C   0  0  0  0  0  2  0  0  0  0  0  0
  -28.4120  -26.4990   20.3850 O   0  0  0  0  0  0  0  0  0  0  0  0
  -24.5510  -31.9500   23.2770 C   0  0  0  0  0  0  0  0  0  0  0  0
  -27.2950  -27.3620   20.3420 C   0  0  0  0  0  0  0  0  0  0  0  0
  -23.4090  -30.5190   21.6230 C   0  0  0  0  0  3  0  0  0  0  0  0
  -24.9160  -28.9700   20.2490 C   0  0  0  0  0  0  0  0  0  0  0  0
  -25.9520  -30.8620   21.5010 C   0  0  0  0  0  2  0  0  0  0  0  0
  -26.0660  -29.4740   20.8710 C   0  0  0  0  0  0  0  0  0  0  0  0
  -27.2610  -28.6850   20.9000 C   0  0  0  0  0  3  0  0  0  0  0  0
  -26.1230  -26.9230   19.6900 C   0  0  0  0  0  3  0  0  0  0  0  0
  -24.9490  -27.7030   19.6450 C   0  0  0  0  0  3  0  0  0  0  0  0
  -23.6690  -29.8330   20.2560 C   0  0  0  0  0  2  0  0  0  0  0  0
  -24.6540  -31.1300   22.1910 N   0  0  0  0  0  0  0  0  0  0  0  0
  -23.4500  -32.2170   23.7820 O   0  0  0  0  0  0  0  0  0  0  0  0
  -22.7340  -29.5030   22.5780 C   0  0  0  0  0  0  0  0  0  0  0  0
  -21.4140  -29.3020   22.4160 N   0  0  0  0  0  0  0  0  0  0  0  0
  -23.3980  -28.9020   23.4250 O   0  0  0  0  0  0  0  0  0  0  0  0
  -20.9370  -29.8420   21.7090 H   0  0  0  0  0  0  0  0  0  0  0  0
  -18.0460  -28.0460   22.8360 C   0  0  0  0  0  0  0  0  0  0  0  0
  -20.5900  -28.3590   23.1760 C   0  0  0  0  0  3  0  0  0  0  0  0
  -20.7360  -26.9220   22.6240 C   0  0  0  0  0  2  0  0  0  0  0  0
  -19.6700  -26.5630   21.5820 C   0  0  0  0  0  2  0  0  0  0  0  0
  -18.2670  -26.6910   22.1830 C   0  0  0  0  0  2  0  0  0  0  0  0
  -19.1370  -28.8360   23.2860 C   0  0  0  0  0  0  0  0  0  0  0  0
  -18.8760  -30.1010   23.8560 C   0  0  0  0  0  3  0  0  0  0  0  0
  -17.5580  -30.5790   23.9750 C   0  0  0  0  0  3  0  0  0  0  0  0
  -16.4810  -29.7880   23.5400 C   0  0  0  0  0  3  0  0  0  0  0  0
  -16.7250  -28.5230   22.9760 C   0  0  0  0  0  3  0  0  0  0  0  0
  -25.8070  -32.6090   23.9250 C   0  0  0  0  0  3  0  0  0  0  0  0
  -25.4730  -34.0090   24.2230 N   0  0  0  0  0  0  0  0  0  0  0  0
  -25.8130  -35.0540   23.4560 C   0  0  0  0  0  0  0  0  0  0  0  0
  -26.5090  -34.9410   22.4430 O   0  0  0  0  0  0  0  0  0  0  0  0
  -24.8550  -34.1700   25.0050 H   0  0  0  0  0  0  0  0  0  0  0  0
  -24.0770  -36.8250   23.0280 C   0  0  0  0  0  1  0  0  0  0  0  0
  -25.2990  -36.4440   23.8790 C   0  0  0  0  0  3  0  0  0  0  0  0
  -27.4010  -37.3660   24.7550 C   0  0  0  0  0  1  0  0  0  0  0  0
  -26.3240  -37.5060   23.7770 N   0  0  0  0  0  0  0  0  0  0  0  0
  -25.9060  -38.4240   23.8960 H   0  0  0  0  0  0  0  0  0  0  0  0
  -26.2920  -31.8660   25.2320 C   0  0  1  0  0  0  0  0  0  0  0  0
  -25.1670  -31.6230   26.2640 C   0  0  0  0  0  1  0  0  0  0  0  0
  -26.9150  -30.4950   24.8830 C   0  0  0  0  0  1  0  0  0  0  0  0
  -27.4030  -32.6920   25.9210 C   0  0  0  0  0  1  0  0  0  0  0  0
  -30.2470  -17.3390   21.0010 C   0  0  0  0  0  2  0  0  0  0  0  0
  -30.5890  -14.8430   20.2130 C   0  0  0  0  0  0  0  0  0  0  0  0
  -30.3480  -12.6270   19.0680 C   0  0  0  0  0  2  0  0  0  0  0  0
  -29.3560  -12.7530   17.8910 C   0  0  0  0  0  2  0  0  0  0  0  0
  -27.9050  -12.5560   18.3730 C   0  0  0  0  0  2  0  0  0  0  0  0
  -27.5800  -13.3910   19.6430 C   0  0  0  0  0  3  0  0  0  0  0  0
  -28.6840  -13.2450   20.7120 C   0  0  0  0  0  2  0  0  0  0  0  0
  -29.9540  -13.6300   20.0820 N   0  0  0  0  0  0  0  0  0  0  0  0
  -31.7640  -14.9690   19.8590 O   0  0  0  0  0  0  0  0  0  0  0  0
  -29.8320  -15.9300   20.5950 N   0  0  0  0  0  0  0  0  0  0  0  0
  -28.8510  -15.7470   20.7270 H   0  0  0  0  0  0  0  0  0  0  0  0
  -25.2210  -13.9540   20.4770 C   0  0  0  0  0  0  0  0  0  0  0  0
  -24.1730  -13.1660   20.8690 C   0  0  0  0  0  0  0  0  0  0  0  0
  -24.6410  -11.8190   20.7930 C   0  0  0  0  0  0  0  0  0  0  0  0
  -26.2560  -13.0840   20.1770 N   0  0  0  0  0  0  0  0  0  0  0  0
  -25.9190  -11.7940   20.4340 N   0  0  0  0  0  0  0  0  0  0  0  0
  -23.9270  -10.5490   20.9810 C   0  0  0  0  0  0  0  0  0  0  0  0
  -24.3760   -9.5800   21.9050 C   0  0  0  0  0  3  0  0  0  0  0  0
  -23.6640   -8.3760   22.0830 C   0  0  0  0  0  3  0  0  0  0  0  0
  -22.4870   -8.1300   21.3370 C   0  0  0  0  0  0  0  0  0  0  0  0
  -22.0570   -9.0870   20.4020 C   0  0  0  0  0  3  0  0  0  0  0  0
  -22.7710  -10.2850   20.2220 C   0  0  0  0  0  3  0  0  0  0  0  0
  -21.7410   -6.9790   21.4270 O   0  0  0  0  0  0  0  0  0  0  0  0
  -21.6910   -6.2430   22.5830 C   0  0  0  0  0  0  0  0  0  0  0  0
  -21.2260   -6.7930   23.7980 C   0  0  0  0  0  3  0  0  0  0  0  0
  -21.1260   -5.9800   24.9460 C   0  0  0  0  0  3  0  0  0  0  0  0
  -21.4760   -4.6190   24.8780 C   0  0  0  0  0  0  0  0  0  0  0  0
  -21.9300   -4.0680   23.6680 C   0  0  0  0  0  3  0  0  0  0  0  0
  -22.0350   -4.8770   22.5240 C   0  0  0  0  0  0  0  0  0  0  0  0
  -22.4540   -4.3350   21.3540 F   0  0  0  0  0  0  0  0  0  0  0  0
  -21.3710   -3.8370   25.9790 F   0  0  0  0  0  0  0  0  0  0  0  0
  -22.7830  -13.6290   21.1970 C   0  0  0  0  0  0  0  0  0  0  0  0
  -22.0820  -12.9110   22.0660 N   0  0  0  0  0  0  0  0  0  0  0  0
  -22.3280  -14.6680   20.7180 O   0  0  0  0  0  0  0  0  0  0  0  0
  -22.4620  -12.0740   22.4810 H   0  0  0  0  0  0  0  0  0  0  0  0
  -21.1500  -13.2050   22.3210 H   0  0  0  0  0  0  0  0  0  0  0  0
  -25.3750  -15.3300   20.3280 N   0  0  0  0  0  0  0  0  0  0  0  0
  -24.6090  -15.9760   20.4810 H   0  0  0  0  0  0  0  0  0  0  0  0
  -26.1960  -15.7840   19.9480 H   0  0  0  0  0  0  0  0  0  0  0  0
  1  2  2  0
  2 10  1  0
  2  5  1  0
  3  1  1  0
  3  6  2  0
  4  5  2  0
  4 55  1  0
  6  4  1  0
  7  9  1  0
  8  9  1  0
  9  3  1  0
 12 11  1  0
 12 13  1  0
 12 10  1  0
 14 13  1  0
 15 26  2  0
 16 14  1  0
 16 21  1  0
 17 25  1  0
 17 27  1  0
 18 24  1  0
 18 20  1  0
 19 25  1  0
 20 21  2  0
 20 19  1  0
 22 16  2  0
 23 22  1  0
 23 18  2  0
 24 17  1  0
 25 15  1  0
 27 29  2  0
 28 27  1  0
 30 28  1  0
 31 40  2  0
 31 36  1  0
 32 28  1  0
 32 36  1  0
 33 32  1  0
 34 35  1  0
 34 33  1  0
 35 31  1  0
 36 37  2  0
 37 38  1  0
 39 38  2  0
 40 39  1  0
 41 15  1  0
 41 42  1  0
 41 51  1  0
 42 45  1  0
 43 47  1  0
 43 42  1  0
 44 43  2  0
 47 46  1  0
 49 47  1  0
 49 50  1  0
 49 48  1  0
 51 54  1  1
 51 52  1  0
 53 51  1  0
 56 64  1  0
 57 62  1  0
 58 59  1  0
 58 57  1  0
 60 59  1  0
 60 69  1  0
 60 61  1  0
 62 56  1  0
 62 61  1  0
 63 56  2  0
 64 65  1  0
 64 55  1  0
 66 67  2  0
 67 86  1  0
 68 67  1  0
 68 71  1  0
 69 70  1  0
 69 66  1  0
 70 68  2  0
 71 72  1  0
 72 73  2  0
 74 77  1  0
 74 73  1  0
 75 74  2  0
 76 75  1  0
 76 71  2  0
 77 78  1  0
 78 79  1  0
 79 80  2  0
 81 80  1  0
 81 85  1  0
 82 81  2  0
 83 78  2  0
 83 82  1  0
 84 83  1  0
 86 87  1  0
 87 90  1  0
 87 89  1  0
 88 86  2  0
 91 66  1  0
 91 92  1  0
 93 91  1  0
M  ISO  4  13 101  14 101  56 100  64 100
M  END
>  <TORSDO>  (2) 
F 21

>  <SCORE>  (2) 
-13.645

>  <name>  (2) 
1

>  <ligand_id>  (2) 
1

>  <original_smiles>  (2) 
[H]c1c(C([H])([H])C([H])(C([H])([H])[H])C([H])([H])Oc2c([H])c([H])c3c(c2[H])C([H])([H])N(C(=O)C([H])(N([H])C(=O)C([H])(N([H])C([H])([H])[H])C([H])([H])[H])C(C([H])([H])[H])(C([H])([H])[H])C([H])([H])[H])C([H])(C(=O)N([H])C2([H])c4c([H])c([H])c([H])c([H])c4C([H])([H])C([H])([H])C2([H])[H])C3([H])[H])nc(C([H])([H])N([H])C(=O)N2C([H])([H])C([H])([H])C([H])([H])C([H])(n3nc(-c4c([H])c([H])c(Oc5c([H])c([H])c(F)c([H])c5F)c([H])c4[H])c(C(=O)N([H])[H])c3N([H])[H])C2([H])[H])nc1C([H])(C([H])([H])[H])C([H])([H])[H]

>  <smiles>  (2) 
[H]c1c(C([H])([H])C([H])(C([H])([H])[H])C([H])([H])Oc2c([H])c([H])c3c(c2[H])C([H])([H])N(C(=O)C([H])(N([H])C(=O)C([H])(N([H])C([H])([H])[H])C([H])([H])[H])C(C([H])([H])[H])(C([H])([H])[H])C([H])([H])[H])C([H])(C(=O)N([H])C2([H])c4c([H])c([H])c([H])c([H])c4C([H])([H])C([H])([H])C2([H])[H])C3([H])[H])nc(C([H])([H])N([H])C(=O)N2C([H])([H])C([H])([H])C([H])([H])C([H])(n3nc(-c4c([H])c([H])c(Oc5c([H])c([H])c(F)c([H])c5F)c([H])c4[H])c(C(=O)N([H])[H])c3N([H])[H])C2([H])[H])nc1C([H])(C([H])([H])[H])C([H])([H])[H]

$$$$
2:0:0
     RDKit          3D

 97105  0  0  1  0  0  0  0  0999 V2000
  -31.1060  -20.4300   22.3720 C   0  0  0  0  0  1  0  0  0  0  0  0
  -32.6310  -20.7340   20.4360 C   0  0  0  0  0  1  0  0  0  0  0  0
  -31.1560  -20.8420   20.8900 C   0  0  1  0  0  0  0  0  0  0  0  0
  -29.0790  -20.2370   19.4960 C   0  0  0  0  0  3  0  0  0  0  0  0
  -28.5640  -19.0500   18.9310 C   0  0  0  0  0  0  0  0  0  0  0  0
  -30.2640  -19.8920   20.0800 C   0  0  0  0  0  0  0  0  0  0  0  0
  -29.3950  -18.0250   19.0840 N   0  0  0  0  0  0  0  0  0  0  0  0
  -30.4190  -18.4970   19.8470 N   0  0  0  0  0  0  0  0  0  0  0  0
  -26.4190  -17.7490   18.5750 C   0  0  0  0  0  1  0  0  0  0  0  0
  -27.4900  -19.1100   16.6530 C   0  0  0  0  0  1  0  0  0  0  0  0
  -27.2680  -18.9620   18.1650 C   0  0  0  0  0  3  0  0  0  0  0  0
  -31.4680  -17.5320   20.2750 C   0  0  0  0  0  2  0  0  0  0  0  0
  -31.7040  -15.0490   20.6330 C   0  0  0  0  0  0  0  0  0  0  0  0
  -31.4740  -12.6770   19.9670 C   0  0  0  0  0  2  0  0  0  0  0  0
  -30.7030  -12.6290   18.6320 C   0  0  0  0  0  2  0  0  0  0  0  0
  -29.1810  -12.6140   18.8810 C   0  0  0  0  0  2  0  0  0  0  0  0
  -28.7250  -13.6960   19.8980 C   0  0  0  0  0  3  0  0  0  0  0  0
  -29.6280  -13.7150   21.1510 C   0  0  0  0  0  2  0  0  0  0  0  0
  -31.0160  -13.8740   20.6970 N   0  0  0  0  0  0  0  0  0  0  0  0
  -32.9050  -15.0870   20.3490 O   0  0  0  0  0  0  0  0  0  0  0  0
  -30.9710  -16.1910   20.6820 N   0  0  0  0  0  0  0  0  0  0  0  0
  -29.9800  -16.1350   20.8690 H   0  0  0  0  0  0  0  0  0  0  0  0
  -26.3470  -14.5220   20.3910 C   0  0  0  0  0  0  0  0  0  0  0  0
  -25.1770  -13.8670   20.6530 C   0  0  0  0  0  0  0  0  0  0  0  0
  -25.5020  -12.4750   20.6450 C   0  0  0  0  0  0  0  0  0  0  0  0
  -27.3150  -13.5460   20.2480 N   0  0  0  0  0  0  0  0  0  0  0  0
  -26.8050  -12.3040   20.4550 N   0  0  0  0  0  0  0  0  0  0  0  0
  -24.6370  -11.2950   20.7490 C   0  0  0  0  0  0  0  0  0  0  0  0
  -25.0140  -10.1680   21.5110 C   0  0  0  0  0  3  0  0  0  0  0  0
  -24.1540   -9.0520   21.6070 C   0  0  0  0  0  3  0  0  0  0  0  0
  -22.9050   -9.0590   20.9420 C   0  0  0  0  0  0  0  0  0  0  0  0
  -22.5460  -10.1760   20.1680 C   0  0  0  0  0  3  0  0  0  0  0  0
  -23.4040  -11.2830   20.0670 C   0  0  0  0  0  3  0  0  0  0  0  0
  -22.0200   -8.0080   20.9550 O   0  0  0  0  0  0  0  0  0  0  0  0
  -21.9460   -7.1450   22.0190 C   0  0  0  0  0  0  0  0  0  0  0  0
  -21.8670   -7.6090   23.3510 C   0  0  0  0  0  3  0  0  0  0  0  0
  -21.7200   -6.6890   24.4070 C   0  0  0  0  0  3  0  0  0  0  0  0
  -21.6470   -5.3090   24.1390 C   0  0  0  0  0  0  0  0  0  0  0  0
  -21.7220   -4.8460   22.8130 C   0  0  0  0  0  3  0  0  0  0  0  0
  -21.8690   -5.7620   21.7550 C   0  0  0  0  0  0  0  0  0  0  0  0
  -21.9180   -5.3130   20.4780 F   0  0  0  0  0  0  0  0  0  0  0  0
  -21.4990   -4.4250   25.1530 F   0  0  0  0  0  0  0  0  0  0  0  0
  -23.8190  -14.4900   20.8100 C   0  0  0  0  0  0  0  0  0  0  0  0
  -22.9200  -13.8210   21.5250 N   0  0  0  0  0  0  0  0  0  0  0  0
  -23.5640  -15.5990   20.3430 O   0  0  0  0  0  0  0  0  0  0  0  0
  -23.1370  -12.9230   21.9260 H   0  0  0  0  0  0  0  0  0  0  0  0
  -22.0040  -14.2190   21.6750 H   0  0  0  0  0  0  0  0  0  0  0  0
  -26.6660  -15.8610   20.2400 N   0  0  0  0  0  0  0  0  0  0  0  0
  -25.9650  -16.5880   20.3250 H   0  0  0  0  0  0  0  0  0  0  0  0
  -27.6010  -16.2250   20.1070 H   0  0  0  0  0  0  0  0  0  0  0  0
  -30.8040  -22.3930   20.7600 C   0  0  0  0  0  2  0  0  0  0  0  0
  -29.9750  -23.0790   21.8080 N   0  0  0  0  0  4  0  0  0  0  0  0
  -29.0800  -22.6180   21.8480 H   0  0  0  0  0  0  0  0  0  0  0  0
  -30.4190  -22.9600   22.7040 H   0  0  0  0  0  0  0  0  0  0  0  0
  -29.7610  -24.5550   21.5600 C   0  0  0  0  0  2  0  0  0  0  0  0
  -29.2400  -25.3910   22.7760 C   0  0  0  0  0  2  0  0  0  0  0  0
  -28.8590  -26.7570   22.4330 O   0  0  0  0  0  0  0  0  0  0  0  0
  -27.8950  -32.5770   26.4890 C   0  0  0  0  0  0  0  0  0  0  0  0
  -28.0570  -27.4380   23.3370 C   0  0  0  0  0  0  0  0  0  0  0  0
  -26.3760  -30.6760   26.9350 C   0  0  0  0  0  3  0  0  0  0  0  0
  -26.4030  -28.8020   25.2000 C   0  0  0  0  0  0  0  0  0  0  0  0
  -27.3690  -31.0290   24.6030 C   0  0  0  0  0  2  0  0  0  0  0  0
  -27.3040  -29.5240   24.4060 C   0  0  0  0  0  0  0  0  0  0  0  0
  -28.1210  -28.8500   23.4650 C   0  0  0  0  0  3  0  0  0  0  0  0
  -27.1290  -26.7360   24.1350 C   0  0  0  0  0  3  0  0  0  0  0  0
  -26.3090  -27.4060   25.0650 C   0  0  0  0  0  3  0  0  0  0  0  0
  -25.5620  -29.5900   26.1820 C   0  0  0  0  0  2  0  0  0  0  0  0
  -27.2650  -31.4620   26.0190 N   0  0  0  0  0  0  0  0  0  0  0  0
  -27.7160  -32.9750   27.6490 O   0  0  0  0  0  0  0  0  0  0  0  0
  -27.1390  -30.0050   28.1010 C   0  0  0  0  0  0  0  0  0  0  0  0
  -26.4660  -29.8560   29.2540 N   0  0  0  0  0  0  0  0  0  0  0  0
  -28.2980  -29.6080   27.9500 O   0  0  0  0  0  0  0  0  0  0  0  0
  -25.5220  -30.2150   29.3000 H   0  0  0  0  0  0  0  0  0  0  0  0
  -25.7050  -29.1740   32.7200 C   0  0  0  0  0  0  0  0  0  0  0  0
  -26.9720  -29.2150   30.4680 C   0  0  0  0  0  3  0  0  0  0  0  0
  -26.7420  -27.6870   30.4270 C   0  0  0  0  0  2  0  0  0  0  0  0
  -25.4310  -27.2560   31.0920 C   0  0  0  0  0  2  0  0  0  0  0  0
  -25.4040  -27.6930   32.5590 C   0  0  0  0  0  2  0  0  0  0  0  0
  -26.4280  -29.8920   31.7310 C   0  0  0  0  0  0  0  0  0  0  0  0
  -26.6510  -31.2740   31.9130 C   0  0  0  0  0  3  0  0  0  0  0  0
  -26.1680  -31.9350   33.0560 C   0  0  0  0  0  3  0  0  0  0  0  0
  -25.4660  -31.2180   34.0400 C   0  0  0  0  0  3  0  0  0  0  0  0
  -25.2410  -29.8390   33.8740 C   0  0  0  0  0  3  0  0  0  0  0  0
  -28.8510  -33.4180   25.5850 C   0  0  0  0  0  3  0  0  0  0  0  0
  -28.2820  -34.7670   25.4740 N   0  0  0  0  0  0  0  0  0  0  0  0
  -27.7180  -35.2660   24.3650 C   0  0  0  0  0  0  0  0  0  0  0  0
  -27.6870  -34.6510   23.2950 O   0  0  0  0  0  0  0  0  0  0  0  0
  -28.2250  -35.3060   26.3260 H   0  0  0  0  0  0  0  0  0  0  0  0
  -25.5570  -36.5460   24.4870 C   0  0  0  0  0  1  0  0  0  0  0  0
  -27.0880  -36.6690   24.4580 C   0  0  0  0  0  3  0  0  0  0  0  0
  -28.9030  -37.9500   23.4120 C   0  0  0  0  0  1  0  0  0  0  0  0
  -27.4940  -37.5700   23.3570 N   0  0  0  0  0  0  0  0  0  0  0  0
  -26.9350  -38.4200   23.3630 H   0  0  0  0  0  0  0  0  0  0  0  0
  -30.3310  -33.4800   26.1320 C   0  0  1  0  0  0  0  0  0  0  0  0
  -30.4260  -33.9190   27.6120 C   0  0  0  0  0  1  0  0  0  0  0  0
  -31.0200  -32.1020   26.0020 C   0  0  0  0  0  1  0  0  0  0  0  0
  -31.1610  -34.4740   25.2860 C   0  0  0  0  0  1  0  0  0  0  0  0
  3  2  1  6
  3  1  1  0
  4  6  2  0
  5  7  2  0
  5  4  1  0
  6  3  1  0
  7  8  1  0
  8  6  1  0
  8 12  1  0
 10 11  1  0
 11  9  1  0
 11  5  1  0
 12 21  1  0
 13 21  1  0
 13 19  1  0
 14 19  1  0
 15 16  1  0
 15 14  1  0
 17 16  1  0
 17 26  1  0
 17 18  1  0
 19 18  1  0
 20 13  2  0
 21 22  1  0
 23 24  2  0
 24 43  1  0
 25 24  1  0
 25 28  1  0
 26 23  1  0
 26 27  1  0
 27 25  2  0
 28 29  1  0
 29 30  2  0
 31 34  1  0
 31 30  1  0
 32 31  2  0
 33 32  1  0
 33 28  2  0
 34 35  1  0
 35 36  1  0
 36 37  2  0
 38 37  1  0
 38 42  1  0
 39 38  2  0
 40 35  2  0
 40 39  1  0
 41 40  1  0
 43 44  1  0
 44 47  1  0
 44 46  1  0
 45 43  2  0
 48 49  1  0
 48 23  1  0
 50 48  1  0
 51  3  1  0
 51 52  1  0
 52 53  1  0
 52 54  1  0
 55 52  1  0
 55 56  1  0
 57 56  1  0
 57 59  1  0
 58 69  2  0
 59 64  2  0
 59 65  1  0
 60 70  1  0
 61 67  1  0
 62 68  1  0
 63 62  1  0
 63 61  2  0
 64 63  1  0
 65 66  2  0
 66 61  1  0
 67 60  1  0
 68 58  1  0
 68 60  1  0
 70 71  1  0
 71 73  1  0
 72 70  2  0
 74 83  1  0
 75 71  1  0
 75 79  1  0
 76 75  1  0
 76 77  1  0
 77 78  1  0
 78 74  1  0
 79 80  1  0
 79 74  2  0
 80 81  2  0
 81 82  1  0
 83 82  2  0
 84 94  1  0
 84 58  1  0
 85 84  1  0
 85 88  1  0
 86 90  1  0
 86 85  1  0
 87 86  2  0
 90 89  1  0
 92 93  1  0
 92 91  1  0
 92 90  1  0
 94 95  1  1
 96 94  1  0
 97 94  1  0
M  ISO  4  13 100  21 100  56 101  57 101
M  END
>  <TORSDO>  (3) 
F 23

>  <SCORE>  (3) 
-8.577

>  <name>  (3) 
2

>  <ligand_id>  (3) 
2

>  <original_smiles>  (3) 
[H]c1c([H])c([H])c2c(c1[H])C([H])([H])C([H])([H])C([H])([H])C2([H])N([H])C(=O)C1([H])N(C(=O)C([H])(N([H])C(=O)C([H])(N([H])C([H])([H])[H])C([H])([H])[H])C(C([H])([H])[H])(C([H])([H])[H])C([H])([H])[H])C([H])([H])c2c([H])c(OC([H])([H])C([H])([H])[N+]([H])([H])C([H])([H])C(c3c([H])c(C([H])(C([H])([H])[H])C([H])([H])[H])nn3C([H])([H])N([H])C(=O)N3C([H])([H])C([H])([H])C([H])([H])C([H])(n4nc(-c5c([H])c([H])c(Oc6c([H])c([H])c(F)c([H])c6F)c([H])c5[H])c(C(=O)N([H])[H])c4N([H])[H])C3([H])[H])(C([H])([H])[H])C([H])([H])[H])c([H])c([H])c2C1([H])[H]

>  <smiles>  (3) 
[H]c1c([H])c([H])c2c(c1[H])C([H])([H])C([H])([H])C([H])([H])C2([H])N([H])C(=O)C1([H])N(C(=O)C([H])(N([H])C(=O)C([H])(N([H])C([H])([H])[H])C([H])([H])[H])C(C([H])([H])[H])(C([H])([H])[H])C([H])([H])[H])C([H])([H])c2c([H])c(OC([H])([H])C([H])([H])[N+]([H])([H])C([H])([H])C(c3c([H])c(C([H])(C([H])([H])[H])C([H])([H])[H])nn3C([H])([H])N([H])C(=O)N3C([H])([H])C([H])([H])C([H])([H])C([H])(n4nc(-c5c([H])c([H])c(Oc6c([H])c([H])c(F)c([H])c6F)c([H])c5[H])c(C(=O)N([H])[H])c4N([H])[H])C3([H])[H])(C([H])([H])[H])C([H])([H])[H])c([H])c([H])c2C1([H])[H]

$$$$
3:0:0
     RDKit          3D

 83 87  0  0  1  0  0  0  0  0999 V2000
  -28.4200  -23.4320   19.7820 C   0  0  0  0  0 15  0  0  0  0  0  0
  -28.0320  -21.1410   21.4330 C   0  0  0  0  0  1  0  0  0  0  0  0
  -29.0120  -21.4750   20.3040 C   0  0  0  0  0  1  0  0  0  0  0  0
  -29.6080  -19.5560   19.6680 C   0  0  0  0  0  1  0  0  0  0  0  0
  -30.3590  -16.1970   19.8540 C   0  0  0  0  0  0  0  0  0  0  0  0
  -30.5200  -13.5610   19.0410 C   0  0  0  0  0  2  0  0  0  0  0  0
  -29.6180  -12.9920   17.8950 C   0  0  0  0  0  2  0  0  0  0  0  0
  -28.2470  -12.5540   18.4220 C   0  0  0  0  0  2  0  0  0  0  0  0
  -27.7300  -13.5650   19.4640 C   0  0  0  0  0  3  0  0  0  0  0  0
  -28.7890  -14.0070   20.5150 C   0  0  0  0  0  2  0  0  0  0  0  0
  -29.8700  -14.7630   19.7980 N   0  0  0  0  0  0  0  0  0  0  0  0
  -31.5810  -16.0660   19.5940 O   0  0  0  0  0  0  0  0  0  0  0  0
  -28.2630  -17.4440   20.4890 C   0  0  0  0  0  1  0  0  0  0  0  0
  -29.6120  -17.6710   19.9950 N   0  0  0  0  0  0  0  0  0  0  0  0
  -25.4070  -14.0480   20.3490 C   0  0  0  0  0  0  0  0  0  0  0  0
  -24.3700  -13.2580   20.7490 C   0  0  0  0  0  0  0  0  0  0  0  0
  -24.8440  -11.9130   20.6710 C   0  0  0  0  0  0  0  0  0  0  0  0
  -26.4470  -13.1920   20.0450 N   0  0  0  0  0  0  0  0  0  0  0  0
  -26.1250  -11.8940   20.3010 N   0  0  0  0  0  0  0  0  0  0  0  0
  -24.1240  -10.6470   20.8710 C   0  0  0  0  0  0  0  0  0  0  0  0
  -24.5420   -9.6980   21.8300 C   0  0  0  0  0  3  0  0  0  0  0  0
  -23.8140   -8.5040   22.0220 C   0  0  0  0  0  3  0  0  0  0  0  0
  -22.6530   -8.2490   21.2540 C   0  0  0  0  0  0  0  0  0  0  0  0
  -22.2530   -9.1860   20.2850 C   0  0  0  0  0  3  0  0  0  0  0  0
  -22.9810  -10.3720   20.0920 C   0  0  0  0  0  3  0  0  0  0  0  0
  -21.8980   -7.1040   21.3540 O   0  0  0  0  0  0  0  0  0  0  0  0
  -21.7750   -6.4230   22.5380 C   0  0  0  0  0  0  0  0  0  0  0  0
  -21.2160   -7.0230   23.6870 C   0  0  0  0  0  3  0  0  0  0  0  0
  -21.0450   -6.2660   24.8630 C   0  0  0  0  0  3  0  0  0  0  0  0
  -21.4230   -4.9100   24.8910 C   0  0  0  0  0  0  0  0  0  0  0  0
  -21.9740   -4.3100   23.7450 C   0  0  0  0  0  3  0  0  0  0  0  0
  -22.1470   -5.0640   22.5710 C   0  0  0  0  0  0  0  0  0  0  0  0
  -22.6590   -4.4750   21.4640 F   0  0  0  0  0  0  0  0  0  0  0  0
  -21.2510   -4.1810   26.0180 F   0  0  0  0  0  0  0  0  0  0  0  0
  -22.9850  -13.7300   21.0800 C   0  0  0  0  0  0  0  0  0  0  0  0
  -22.2990  -13.0330   21.9770 N   0  0  0  0  0  0  0  0  0  0  0  0
  -22.5250  -14.7560   20.5810 O   0  0  0  0  0  0  0  0  0  0  0  0
  -22.6890  -12.2060   22.4040 H   0  0  0  0  0  0  0  0  0  0  0  0
  -21.3710  -13.3300   22.2420 H   0  0  0  0  0  0  0  0  0  0  0  0
  -25.5390  -15.4200   20.1850 N   0  0  0  0  0  0  0  0  0  0  0  0
  -24.7680  -16.0590   20.3460 H   0  0  0  0  0  0  0  0  0  0  0  0
  -26.3640  -15.8760   19.8230 H   0  0  0  0  0  0  0  0  0  0  0  0
  -28.2810  -25.2810   20.1860 O   0  0  0  0  0  1  0  0  0  0  0  0
  -24.7040  -31.8440   23.0260 C   0  0  0  0  0  0  0  0  0  0  0  0
  -27.3200  -26.5920   20.0730 C   0  0  0  0  0  0  0  0  0  0  0  0
  -23.5530  -30.4140   21.3940 C   0  0  0  0  0  3  0  0  0  0  0  0
  -25.0340  -28.7410   19.9990 C   0  0  0  0  0  0  0  0  0  0  0  0
  -26.1390  -30.5300   21.3060 C   0  0  0  0  0  2  0  0  0  0  0  0
  -26.2260  -29.0710   20.6520 C   0  0  0  0  0  0  0  0  0  0  0  0
  -27.3350  -28.0310   20.6550 C   0  0  0  0  0  3  0  0  0  0  0  0
  -26.0890  -26.5380   19.3480 C   0  0  0  0  0  3  0  0  0  0  0  0
  -25.0190  -27.5050   19.3210 C   0  0  0  0  0  3  0  0  0  0  0  0
  -23.8190  -29.6990   20.0330 C   0  0  0  0  0  2  0  0  0  0  0  0
  -24.8250  -30.9700   21.9600 N   0  0  0  0  0  0  0  0  0  0  0  0
  -23.6010  -32.1370   23.5220 O   0  0  0  0  0  0  0  0  0  0  0  0
  -22.8290  -29.4510   22.3750 C   0  0  0  0  0  0  0  0  0  0  0  0
  -21.4950  -29.2910   22.2550 N   0  0  0  0  0  0  0  0  0  0  0  0
  -23.4830  -28.8400   23.2240 O   0  0  0  0  0  0  0  0  0  0  0  0
  -21.0120  -29.8330   21.5520 H   0  0  0  0  0  0  0  0  0  0  0  0
  -18.1200  -28.0320   22.7850 C   0  0  0  0  0  0  0  0  0  0  0  0
  -20.6780  -28.3470   23.0320 C   0  0  0  0  0  3  0  0  0  0  0  0
  -20.7990  -26.9130   22.4650 C   0  0  0  0  0  2  0  0  0  0  0  0
  -19.7000  -26.5710   21.4540 C   0  0  0  0  0  2  0  0  0  0  0  0
  -18.3180  -26.6890   22.1020 C   0  0  0  0  0  2  0  0  0  0  0  0
  -19.2270  -28.8180   23.2070 C   0  0  0  0  0  0  0  0  0  0  0  0
  -18.9840  -30.0700   23.8130 C   0  0  0  0  0  3  0  0  0  0  0  0
  -17.6690  -30.5380   23.9950 C   0  0  0  0  0  3  0  0  0  0  0  0
  -16.5780  -29.7530   23.5850 C   0  0  0  0  0  3  0  0  0  0  0  0
  -16.8050  -28.5000   22.9860 C   0  0  0  0  0  3  0  0  0  0  0  0
  -25.9440  -32.5310   23.6750 C   0  0  0  0  0  3  0  0  0  0  0  0
  -25.5830  -33.9220   24.0240 N   0  0  0  0  0  0  0  0  0  0  0  0
  -25.9020  -35.0120   23.3100 C   0  0  0  0  0  0  0  0  0  0  0  0
  -26.5820  -34.9530   22.2840 O   0  0  0  0  0  0  0  0  0  0  0  0
  -24.9760  -34.0390   24.8210 H   0  0  0  0  0  0  0  0  0  0  0  0
  -24.1520  -36.8040   23.0010 C   0  0  0  0  0  1  0  0  0  0  0  0
  -25.3910  -36.3830   23.8090 C   0  0  0  0  0  3  0  0  0  0  0  0
  -27.4970  -37.2860   24.6960 C   0  0  0  0  0  1  0  0  0  0  0  0
  -26.4080  -37.4570   23.7390 N   0  0  0  0  0  0  0  0  0  0  0  0
  -25.9830  -38.3660   23.9010 H   0  0  0  0  0  0  0  0  0  0  0  0
  -26.4560  -31.7830   24.9700 C   0  0  1  0  0  0  0  0  0  0  0  0
  -25.3490  -31.5180   26.0170 C   0  0  0  0  0  1  0  0  0  0  0  0
  -27.0890  -30.4210   24.6140 C   0  0  0  0  0  1  0  0  0  0  0  0
  -27.5690  -32.6150   25.6510 C   0  0  0  0  0  1  0  0  0  0  0  0
  3  2  1  0
  4 14  1  0
  5 14  1  0
  6 11  1  0
  7  8  1  0
  7  6  1  0
  9  8  1  0
  9 18  1  0
  9 10  1  0
 11  5  1  0
 11 10  1  0
 12  5  2  0
 14 13  1  0
 15 16  2  0
 16 35  1  0
 17 16  1  0
 17 20  1  0
 18 19  1  0
 18 15  1  0
 19 17  2  0
 20 21  1  0
 21 22  2  0
 23 26  1  0
 23 22  1  0
 24 23  2  0
 25 24  1  0
 25 20  2  0
 26 27  1  0
 27 32  2  0
 27 28  1  0
 28 29  2  0
 29 30  1  0
 30 34  1  0
 31 30  2  0
 32 31  1  0
 33 32  1  0
 35 36  1  0
 36 39  1  0
 36 38  1  0
 37 35  2  0
 40 41  1  0
 40 15  1  0
 42 40  1  0
 44 55  2  0
 45 43  1  0
 45 50  1  0
 46 54  1  0
 46 56  1  0
 47 53  1  0
 47 49  1  0
 48 54  1  0
 49 50  2  0
 49 48  1  0
 51 45  2  0
 52 51  1  0
 52 47  2  0
 53 46  1  0
 54 44  1  0
 56 58  2  0
 57 56  1  0
 59 57  1  0
 60 69  2  0
 60 65  1  0
 61 57  1  0
 61 65  1  0
 62 61  1  0
 63 64  1  0
 63 62  1  0
 64 60  1  0
 65 66  2  0
 66 67  1  0
 68 67  2  0
 69 68  1  0
 70 44  1  0
 70 71  1  0
 70 80  1  0
 71 74  1  0
 72 76  1  0
 72 71  1  0
 73 72  2  0
 76 75  1  0
 78 76  1  0
 78 79  1  0
 78 77  1  0
 80 83  1  1
 80 81  1  0
 82 80  1  0
M  ISO  4   1 101   5 100  14 100  43 101
M  END
>  <TORSDO>  (4) 
F 18

>  <SCORE>  (4) 
-15.709

>  <name>  (4) 
3

>  <ligand_id>  (4) 
3

>  <original_smiles>  (4) 
[H]c1c([H])c([H])c2c(c1[H])C([H])([H])C([H])([H])C([H])([H])C2([H])N([H])C(=O)C1([H])N(C(=O)C([H])(N([H])C(=O)C([H])(N([H])C([H])([H])[H])C([H])([H])[H])C(C([H])([H])[H])(C([H])([H])[H])C([H])([H])[H])C([H])([H])c2c([H])c(OC([H])([H])C([H])(C([H])([H])[H])C([H])([H])N(C(=O)N3C([H])([H])C([H])([H])C([H])([H])C([H])(n4nc(-c5c([H])c([H])c(Oc6c([H])c([H])c(F)c([H])c6F)c([H])c5[H])c(C(=O)N([H])[H])c4N([H])[H])C3([H])[H])C([H])([H])[H])c([H])c([H])c2C1([H])[H]

>  <smiles>  (4) 
[H]c1c([H])c([H])c2c(c1[H])C([H])([H])C([H])([H])C([H])([H])C2([H])N([H])C(=O)C1([H])N(C(=O)C([H])(N([H])C(=O)C([H])(N([H])C([H])([H])[H])C([H])([H])[H])C(C([H])([H])[H])(C([H])([H])[H])C([H])([H])[H])C([H])([H])c2c([H])c(OC([H])([H])C([H])(C([H])([H])[H])C([H])([H])N(C(=O)N3C([H])([H])C([H])([H])C([H])([H])C([H])(n4nc(-c5c([H])c([H])c(Oc6c([H])c([H])c(F)c([H])c6F)c([H])c5[H])c(C(=O)N([H])[H])c4N([H])[H])C3([H])[H])C([H])([H])[H])c([H])c([H])c2C1([H])[H]

$$$$
4:0:0
     RDKit          3D

 85 92  0  0  1  0  0  0  0  0999 V2000
  -29.0340  -22.2860   20.1020 C   0  0  0  0  0  3  0  0  0  0  0  0
  -27.4670  -20.0870   20.3780 C   0  0  0  0  0  1  0  0  0  0  0  0
  -28.5930  -20.3740   18.2200 C   0  0  0  0  0  1  0  0  0  0  0  0
  -28.8350  -20.4110   19.7360 C   0  0  1  0  0  0  0  0  0  0  0  0
  -29.9050  -18.8290   19.9670 C   0  0  0  0  0  2  0  0  0  0  0  0
  -30.5240  -15.7460   19.8470 C   0  0  0  0  0  0  0  0  0  0  0  0
  -30.6070  -13.2040   19.0530 C   0  0  0  0  0  2  0  0  0  0  0  0
  -29.6670  -12.8360   17.8730 C   0  0  0  0  0  2  0  0  0  0  0  0
  -28.2570  -12.4930   18.3840 C   0  0  0  0  0  2  0  0  0  0  0  0
  -27.7940  -13.4990   19.4620 C   0  0  0  0  0  3  0  0  0  0  0  0
  -28.8640  -13.7920   20.5330 C   0  0  0  0  0  2  0  0  0  0  0  0
  -30.0160  -14.3840   19.8270 N   0  0  0  0  0  0  0  0  0  0  0  0
  -31.7470  -15.7140   19.6140 O   0  0  0  0  0  0  0  0  0  0  0  0
  -29.7320  -17.0740   19.9500 N   0  0  0  0  0  0  0  0  0  0  0  0
  -28.7630  -16.8330   20.0870 H   0  0  0  0  0  0  0  0  0  0  0  0
  -25.4890  -14.0420   20.3780 C   0  0  0  0  0  0  0  0  0  0  0  0
  -24.4440  -13.2620   20.7920 C   0  0  0  0  0  0  0  0  0  0  0  0
  -24.8970  -11.9120   20.6940 C   0  0  0  0  0  0  0  0  0  0  0  0
  -26.5020  -13.1670   20.0420 N   0  0  0  0  0  0  0  0  0  0  0  0
  -26.1670  -11.8760   20.3000 N   0  0  0  0  0  0  0  0  0  0  0  0
  -24.1690  -10.6500   20.8890 C   0  0  0  0  0  0  0  0  0  0  0  0
  -24.5800   -9.6960   21.8470 C   0  0  0  0  0  3  0  0  0  0  0  0
  -23.8470   -8.5020   22.0290 C   0  0  0  0  0  3  0  0  0  0  0  0
  -22.6850   -8.2550   21.2570 C   0  0  0  0  0  0  0  0  0  0  0  0
  -22.2930   -9.1980   20.2910 C   0  0  0  0  0  3  0  0  0  0  0  0
  -23.0280  -10.3830   20.1070 C   0  0  0  0  0  3  0  0  0  0  0  0
  -21.9260   -7.1140   21.3470 O   0  0  0  0  0  0  0  0  0  0  0  0
  -21.7770   -6.4430   22.5360 C   0  0  0  0  0  0  0  0  0  0  0  0
  -21.1900   -7.0520   23.6680 C   0  0  0  0  0  3  0  0  0  0  0  0
  -20.9930   -6.3030   24.8440 C   0  0  0  0  0  3  0  0  0  0  0  0
  -21.3710   -4.9480   24.8900 C   0  0  0  0  0  0  0  0  0  0  0  0
  -21.9510   -4.3410   23.7620 C   0  0  0  0  0  3  0  0  0  0  0  0
  -22.1500   -5.0850   22.5870 C   0  0  0  0  0  0  0  0  0  0  0  0
  -22.6900   -4.4900   21.4950 F   0  0  0  0  0  0  0  0  0  0  0  0
  -21.1750   -4.2250   26.0180 F   0  0  0  0  0  0  0  0  0  0  0  0
  -23.0700  -13.7460   21.1470 C   0  0  0  0  0  0  0  0  0  0  0  0
  -22.3780  -13.0460   22.0390 N   0  0  0  0  0  0  0  0  0  0  0  0
  -22.6190  -14.7840   20.6670 O   0  0  0  0  0  0  0  0  0  0  0  0
  -22.7540  -12.2010   22.4480 H   0  0  0  0  0  0  0  0  0  0  0  0
  -21.4550  -13.3550   22.3150 H   0  0  0  0  0  0  0  0  0  0  0  0
  -25.6490  -15.4160   20.2320 N   0  0  0  0  0  0  0  0  0  0  0  0
  -24.8860  -16.0560   20.4190 H   0  0  0  0  0  0  0  0  0  0  0  0
  -26.4360  -15.8600   19.7810 H   0  0  0  0  0  0  0  0  0  0  0  0
  -28.0390  -23.9380   20.0800 C   0  0  0  0  0  3  0  0  0  0  0  0
  -28.2280  -25.6660   20.2570 O   0  0  0  0  0  0  0  0  0  0  0  0
  -24.5760  -31.8220   23.1710 C   0  0  0  0  0  0  0  0  0  0  0  0
  -27.2440  -26.8550   20.1870 C   0  0  0  0  0  0  0  0  0  0  0  0
  -23.4500  -30.4300   21.4840 C   0  0  0  0  0  3  0  0  0  0  0  0
  -24.9560  -28.8330   20.0880 C   0  0  0  0  0  0  0  0  0  0  0  0
  -26.0240  -30.6350   21.4130 C   0  0  0  0  0  2  0  0  0  0  0  0
  -26.1290  -29.2090   20.7520 C   0  0  0  0  0  0  0  0  0  0  0  0
  -27.2660  -28.2480   20.7650 C   0  0  0  0  0  3  0  0  0  0  0  0
  -26.0390  -26.6800   19.4660 C   0  0  0  0  0  3  0  0  0  0  0  0
  -24.9470  -27.5970   19.4230 C   0  0  0  0  0  3  0  0  0  0  0  0
  -23.7320  -29.7590   20.1090 C   0  0  0  0  0  2  0  0  0  0  0  0
  -24.7060  -30.9930   22.0790 N   0  0  0  0  0  0  0  0  0  0  0  0
  -23.4670  -32.0930   23.6600 O   0  0  0  0  0  0  0  0  0  0  0  0
  -22.7290  -29.4250   22.4260 C   0  0  0  0  0  0  0  0  0  0  0  0
  -21.4040  -29.2470   22.2660 N   0  0  0  0  0  0  0  0  0  0  0  0
  -23.3770  -28.7970   23.2660 O   0  0  0  0  0  0  0  0  0  0  0  0
  -20.9290  -29.8000   21.5660 H   0  0  0  0  0  0  0  0  0  0  0  0
  -18.0230  -27.9840   22.6890 C   0  0  0  0  0  0  0  0  0  0  0  0
  -20.5770  -28.2840   23.0030 C   0  0  0  0  0  3  0  0  0  0  0  0
  -20.7080  -26.8650   22.4030 C   0  0  0  0  0  2  0  0  0  0  0  0
  -19.6300  -26.5470   21.3640 C   0  0  0  0  0  2  0  0  0  0  0  0
  -18.2360  -26.6560   21.9850 C   0  0  0  0  0  2  0  0  0  0  0  0
  -19.1230  -28.7580   23.1520 C   0  0  0  0  0  0  0  0  0  0  0  0
  -18.8690  -30.0000   23.7750 C   0  0  0  0  0  3  0  0  0  0  0  0
  -17.5510  -30.4670   23.9410 C   0  0  0  0  0  3  0  0  0  0  0  0
  -16.4690  -29.6940   23.4870 C   0  0  0  0  0  3  0  0  0  0  0  0
  -16.7050  -28.4540   22.8680 C   0  0  0  0  0  3  0  0  0  0  0  0
  -25.8120  -32.4830   23.8530 C   0  0  0  0  0  3  0  0  0  0  0  0
  -26.2560  -31.7430   25.1780 C   0  0  1  0  0  0  0  0  0  0  0  0
  -25.1060  -31.5300   26.1900 C   0  0  0  0  0  1  0  0  0  0  0  0
  -26.8550  -30.3570   24.8570 C   0  0  0  0  0  1  0  0  0  0  0  0
  -27.3690  -32.5510   25.8870 C   0  0  0  0  0  1  0  0  0  0  0  0
  -25.4760  -33.8890   24.1550 N   0  0  0  0  0  0  0  0  0  0  0  0
  -25.7990  -34.9390   23.3870 C   0  0  0  0  0  0  0  0  0  0  0  0
  -26.4710  -34.8290   22.3580 O   0  0  0  0  0  0  0  0  0  0  0  0
  -24.8930  -34.0470   24.9630 H   0  0  0  0  0  0  0  0  0  0  0  0
  -24.0440  -36.7120   23.0310 C   0  0  0  0  0  1  0  0  0  0  0  0
  -25.3050  -36.3340   23.8260 C   0  0  0  0  0  3  0  0  0  0  0  0
  -27.4330  -37.2790   24.6100 C   0  0  0  0  0  1  0  0  0  0  0  0
  -26.3210  -37.3970   23.6700 N   0  0  0  0  0  0  0  0  0  0  0  0
  -25.9040  -38.3150   23.7910 H   0  0  0  0  0  0  0  0  0  0  0  0
  4  3  1  6
  4  5  1  0
  4  1  1  0
  4  2  1  0
  6 14  1  0
  7 12  1  0
  8  9  1  0
  8  7  1  0
 10  9  1  0
 10 19  1  0
 10 11  1  0
 12  6  1  0
 12 11  1  0
 13  6  2  0
 14  5  1  0
 14 15  1  0
 16 17  2  0
 17 36  1  0
 18 17  1  0
 18 21  1  0
 19 20  1  0
 19 16  1  0
 20 18  2  0
 21 22  1  0
 22 23  2  0
 24 27  1  0
 24 23  1  0
 25 24  2  0
 26 25  1  0
 26 21  2  0
 27 28  1  0
 28 33  2  0
 28 29  1  0
 29 30  2  0
 30 31  1  0
 31 35  1  0
 32 31  2  0
 33 32  1  0
 34 33  1  0
 36 37  1  0
 37 40  1  0
 37 39  1  0
 38 36  2  0
 41 16  1  0
 41 42  1  0
 43 41  1  0
 44  1  2  0
 44 45  1  0
 46 57  2  0
 47 45  1  0
 47 52  1  0
 48 56  1  0
 48 58  1  0
 49 55  1  0
 49 51  1  0
 50 56  1  0
 51 52  2  0
 51 50  1  0
 53 47  2  0
 54 53  1  0
 54 49  2  0
 55 48  1  0
 56 46  1  0
 58 60  2  0
 59 58  1  0
 61 59  1  0
 62 71  2  0
 62 67  1  0
 63 59  1  0
 63 67  1  0
 64 63  1  0
 65 66  1  0
 65 64  1  0
 66 62  1  0
 67 68  2  0
 68 69  1  0
 70 69  2  0
 71 70  1  0
 72 46  1  0
 72 77  1  0
 72 73  1  0
 73 76  1  1
 73 74  1  0
 75 73  1  0
 77 80  1  0
 78 82  1  0
 78 77  1  0
 79 78  2  0
 82 81  1  0
 84 85  1  0
 84 82  1  0
 84 83  1  0
M  ISO  4   6 100  14 100  44 101  45 101
M  END
>  <TORSDO>  (5) 
F 19

>  <SCORE>  (5) 
-15.655

>  <name>  (5) 
4

>  <ligand_id>  (5) 
4

>  <original_smiles>  (5) 
[H]c1c([H])c([H])c2c(c1[H])C([H])([H])C([H])([H])C([H])([H])C2([H])N([H])C(=O)C1([H])N(C(=O)C([H])(N([H])C(=O)C([H])(N([H])C([H])([H])[H])C([H])([H])[H])C(C([H])([H])[H])(C([H])([H])[H])C([H])([H])[H])C([H])([H])c2c([H])c(OC([H])([H])C([H])([H])C(C([H])([H])[H])(C([H])([H])[H])C([H])([H])N([H])C(=O)N3C([H])([H])C([H])([H])C([H])([H])C([H])(n4nc(-c5c([H])c([H])c(Oc6c([H])c([H])c(F)c([H])c6F)c([H])c5[H])c(C(=O)N([H])[H])c4N([H])[H])C3([H])[H])c([H])c([H])c2C1([H])[H]

>  <smiles>  (5) 
[H]c1c([H])c([H])c2c(c1[H])C([H])([H])C([H])([H])C([H])([H])C2([H])N([H])C(=O)C1([H])N(C(=O)C([H])(N([H])C(=O)C([H])(N([H])C([H])([H])[H])C([H])([H])[H])C(C([H])([H])[H])(C([H])([H])[H])C([H])([H])[H])C([H])([H])c2c([H])c(OC([H])([H])C([H])([H])C(C([H])([H])[H])(C([H])([H])[H])C([H])([H])N([H])C(=O)N3C([H])([H])C([H])([H])C([H])([H])C([H])(n4nc(-c5c([H])c([H])c(Oc6c([H])c([H])c(F)c([H])c6F)c([H])c5[H])c(C(=O)N([H])[H])c4N([H])[H])C3([H])[H])c([H])c([H])c2C1([H])[H]

$$$$
5:0:0
     RDKit          3D

 92100  0  0  1  0  0  0  0  0999 V2000
  -29.4670  -22.5730   21.7390 C   0  0  0  0  0  3  0  0  0  0  0  0
  -30.0420  -21.4350   22.3620 C   0  0  0  0  0  0  0  0  0  0  0  0
  -29.9210  -20.1130   21.8130 C   0  0  0  0  0  0  0  0  0  0  0  0
  -28.7450  -22.5160   20.5410 C   0  0  0  0  0  0  0  0  0  0  0  0
  -29.3550  -19.8820   20.5240 C   0  0  0  0  0  0  0  0  0  0  0  0
  -30.4100  -18.9240   22.6440 C   0  0  0  0  0  1  0  0  0  0  0  0
  -28.7450  -21.1310   19.9710 N   0  0  0  0  0  0  0  0  0  0  0  0
  -29.8170  -21.7710   24.8690 C   0  0  0  0  0  1  0  0  0  0  0  0
  -31.7180  -22.9060   23.6320 C   0  0  0  0  0  1  0  0  0  0  0  0
  -30.7900  -21.6810   23.6820 C   0  0  0  0  0  3  0  0  0  0  0  0
  -26.5520  -23.7250   21.0990 C   0  0  0  0  0  1  0  0  0  0  0  0
  -27.7860  -23.9750   20.2050 C   0  0  0  0  0  3  0  0  0  0  0  0
  -28.0820  -25.6300   20.3640 O   0  0  0  0  0  0  0  0  0  0  0  0
  -24.6000  -31.7950   23.0980 C   0  0  0  0  0  0  0  0  0  0  0  0
  -27.1320  -26.7970   20.2090 C   0  0  0  0  0  0  0  0  0  0  0  0
  -23.4190  -30.3880   21.4610 C   0  0  0  0  0  3  0  0  0  0  0  0
  -24.8730  -28.7500   20.0740 C   0  0  0  0  0  0  0  0  0  0  0  0
  -25.9910  -30.5520   21.3630 C   0  0  0  0  0  2  0  0  0  0  0  0
  -26.0530  -29.1300   20.7250 C   0  0  0  0  0  0  0  0  0  0  0  0
  -27.1710  -28.1730   20.7730 C   0  0  0  0  0  3  0  0  0  0  0  0
  -25.9470  -26.6090   19.4570 C   0  0  0  0  0  3  0  0  0  0  0  0
  -24.8520  -27.5120   19.4140 C   0  0  0  0  0  3  0  0  0  0  0  0
  -23.6640  -29.6870   20.0960 C   0  0  0  0  0  2  0  0  0  0  0  0
  -24.6910  -30.9420   22.0260 N   0  0  0  0  0  0  0  0  0  0  0  0
  -23.5060  -32.1030   23.5990 O   0  0  0  0  0  0  0  0  0  0  0  0
  -22.6970  -29.4140   22.4300 C   0  0  0  0  0  0  0  0  0  0  0  0
  -21.3670  -29.2600   22.2870 N   0  0  0  0  0  0  0  0  0  0  0  0
  -23.3410  -28.7960   23.2810 O   0  0  0  0  0  0  0  0  0  0  0  0
  -20.8990  -29.8110   21.5820 H   0  0  0  0  0  0  0  0  0  0  0  0
  -17.9650  -28.0890   22.7700 C   0  0  0  0  0  0  0  0  0  0  0  0
  -20.5240  -28.3410   23.0620 C   0  0  0  0  0  3  0  0  0  0  0  0
  -20.6210  -26.8980   22.5110 C   0  0  0  0  0  2  0  0  0  0  0  0
  -19.5300  -26.5710   21.4860 C   0  0  0  0  0  2  0  0  0  0  0  0
  -18.1400  -26.7320   22.1100 C   0  0  0  0  0  2  0  0  0  0  0  0
  -19.0830  -28.8500   23.2020 C   0  0  0  0  0  0  0  0  0  0  0  0
  -18.8640  -30.1190   23.7820 C   0  0  0  0  0  3  0  0  0  0  0  0
  -17.5590  -30.6250   23.9350 C   0  0  0  0  0  3  0  0  0  0  0  0
  -16.4560  -29.8600   23.5170 C   0  0  0  0  0  3  0  0  0  0  0  0
  -16.6600  -28.5940   22.9390 C   0  0  0  0  0  3  0  0  0  0  0  0
  -25.8660  -32.4370   23.7400 C   0  0  0  0  0  3  0  0  0  0  0  0
  -26.3660  -31.6660   25.0270 C   0  0  1  0  0  0  0  0  0  0  0  0
  -25.2580  -31.4240   26.0790 C   0  0  0  0  0  1  0  0  0  0  0  0
  -26.9620  -30.2910   24.6550 C   0  0  0  0  0  1  0  0  0  0  0  0
  -27.5030  -32.4680   25.7050 C   0  0  0  0  0  1  0  0  0  0  0  0
  -25.5430  -33.8340   24.0840 N   0  0  0  0  0  0  0  0  0  0  0  0
  -25.8760  -34.9030   23.3480 C   0  0  0  0  0  0  0  0  0  0  0  0
  -26.5510  -34.8180   22.3200 O   0  0  0  0  0  0  0  0  0  0  0  0
  -24.9410  -33.9720   24.8810 H   0  0  0  0  0  0  0  0  0  0  0  0
  -24.1550  -36.7150   23.0220 C   0  0  0  0  0  1  0  0  0  0  0  0
  -25.3900  -36.2860   23.8320 C   0  0  0  0  0  3  0  0  0  0  0  0
  -27.5130  -37.1610   24.7030 C   0  0  0  0  0  1  0  0  0  0  0  0
  -26.4260  -37.3420   23.7460 N   0  0  0  0  0  0  0  0  0  0  0  0
  -26.0170  -38.2590   23.9020 H   0  0  0  0  0  0  0  0  0  0  0  0
  -29.5700  -18.2530   19.8160 C   0  0  0  0  0  2  0  0  0  0  0  0
  -30.3680  -15.3070   19.8740 C   0  0  0  0  0  0  0  0  0  0  0  0
  -30.3140  -12.8560   18.9600 C   0  0  0  0  0  2  0  0  0  0  0  0
  -29.3160  -12.6400   17.7910 C   0  0  0  0  0  2  0  0  0  0  0  0
  -27.9070  -12.3440   18.3280 C   0  0  0  0  0  2  0  0  0  0  0  0
  -27.5260  -13.2890   19.4920 C   0  0  0  0  0  3  0  0  0  0  0  0
  -28.6440  -13.4370   20.5480 C   0  0  0  0  0  2  0  0  0  0  0  0
  -29.8220  -13.9820   19.8500 N   0  0  0  0  0  0  0  0  0  0  0  0
  -31.5510  -15.3190   19.4950 O   0  0  0  0  0  0  0  0  0  0  0  0
  -29.6030  -16.5730   20.1290 N   0  0  0  0  0  0  0  0  0  0  0  0
  -28.7050  -16.3130   20.5100 H   0  0  0  0  0  0  0  0  0  0  0  0
  -25.2200  -13.8260   20.4290 C   0  0  0  0  0  0  0  0  0  0  0  0
  -24.1830  -13.0410   20.8470 C   0  0  0  0  0  0  0  0  0  0  0  0
  -24.6390  -11.6910   20.7380 C   0  0  0  0  0  0  0  0  0  0  0  0
  -26.2370  -12.9570   20.0830 N   0  0  0  0  0  0  0  0  0  0  0  0
  -25.9060  -11.6620   20.3370 N   0  0  0  0  0  0  0  0  0  0  0  0
  -23.9210  -10.4250   20.9380 C   0  0  0  0  0  0  0  0  0  0  0  0
  -24.3650   -9.4600   21.8670 C   0  0  0  0  0  3  0  0  0  0  0  0
  -23.6430   -8.2610   22.0570 C   0  0  0  0  0  3  0  0  0  0  0  0
  -22.4600   -8.0210   21.3170 C   0  0  0  0  0  0  0  0  0  0  0  0
  -22.0340   -8.9760   20.3760 C   0  0  0  0  0  3  0  0  0  0  0  0
  -22.7580  -10.1650   20.1860 C   0  0  0  0  0  3  0  0  0  0  0  0
  -21.7070   -6.8740   21.4160 O   0  0  0  0  0  0  0  0  0  0  0  0
  -21.6210   -6.1710   22.5910 C   0  0  0  0  0  0  0  0  0  0  0  0
  -21.1280   -6.7580   23.7770 C   0  0  0  0  0  3  0  0  0  0  0  0
  -20.9890   -5.9780   24.9420 C   0  0  0  0  0  3  0  0  0  0  0  0
  -21.3340   -4.6140   24.9240 C   0  0  0  0  0  0  0  0  0  0  0  0
  -21.8200   -4.0260   23.7430 C   0  0  0  0  0  3  0  0  0  0  0  0
  -21.9610   -4.8030   22.5790 C   0  0  0  0  0  0  0  0  0  0  0  0
  -22.4090   -4.2280   21.4380 F   0  0  0  0  0  0  0  0  0  0  0  0
  -21.1950   -3.8630   26.0410 F   0  0  0  0  0  0  0  0  0  0  0  0
  -22.8110  -13.5140   21.2270 C   0  0  0  0  0  0  0  0  0  0  0  0
  -22.1410  -12.7930   22.1180 N   0  0  0  0  0  0  0  0  0  0  0  0
  -22.3460  -14.5570   20.7690 O   0  0  0  0  0  0  0  0  0  0  0  0
  -22.5320  -11.9480   22.5070 H   0  0  0  0  0  0  0  0  0  0  0  0
  -21.2230  -13.0900   22.4170 H   0  0  0  0  0  0  0  0  0  0  0  0
  -25.3760  -15.2020   20.2810 N   0  0  0  0  0  0  0  0  0  0  0  0
  -24.6150  -15.8490   20.4600 H   0  0  0  0  0  0  0  0  0  0  0  0
  -26.1790  -15.6440   19.8550 H   0  0  0  0  0  0  0  0  0  0  0  0
  1  2  1  0
  2 10  1  0
  3  2  2  0
  3  6  1  0
  4  1  2  0
  5  3  1  0
  7  5  2  0
  7  4  1  0
  9 10  1  0
 10  8  1  0
 12 13  1  0
 12  4  1  0
 12 11  1  0
 14 25  2  0
 15 13  1  0
 15 20  1  0
 16 24  1  0
 16 26  1  0
 17 23  1  0
 17 19  1  0
 18 24  1  0
 19 20  2  0
 19 18  1  0
 21 15  2  0
 22 21  1  0
 22 17  2  0
 23 16  1  0
 24 14  1  0
 26 28  2  0
 27 26  1  0
 29 27  1  0
 30 39  2  0
 30 35  1  0
 31 27  1  0
 31 35  1  0
 32 31  1  0
 33 34  1  0
 33 32  1  0
 34 30  1  0
 35 36  2  0
 36 37  1  0
 38 37  2  0
 39 38  1  0
 40 14  1  0
 40 45  1  0
 40 41  1  0
 41 44  1  1
 41 42  1  0
 43 41  1  0
 45 48  1  0
 46 50  1  0
 46 45  1  0
 47 46  2  0
 50 49  1  0
 52 50  1  0
 52 53  1  0
 52 51  1  0
 54 63  1  0
 54  5  1  0
 55 63  1  0
 56 61  1  0
 57 58  1  0
 57 56  1  0
 59 58  1  0
 59 68  1  0
 59 60  1  0
 61 55  1  0
 61 60  1  0
 62 55  2  0
 63 64  1  0
 65 66  2  0
 66 85  1  0
 67 66  1  0
 67 70  1  0
 68 69  1  0
 68 65  1  0
 69 67  2  0
 70 71  1  0
 71 72  2  0
 73 76  1  0
 73 72  1  0
 74 73  2  0
 75 74  1  0
 75 70  2  0
 76 77  1  0
 77 78  1  0
 78 79  2  0
 80 79  1  0
 80 84  1  0
 81 80  2  0
 82 77  2  0
 82 81  1  0
 83 82  1  0
 85 86  1  0
 86 89  1  0
 86 88  1  0
 87 85  2  0
 90 65  1  0
 90 91  1  0
 92 90  1  0
M  ISO  4  12 101  13 101  55 100  63 100
M  END
>  <TORSDO>  (6) 
F 19

>  <SCORE>  (6) 
-13.029

>  <name>  (6) 
5

>  <ligand_id>  (6) 
5

>  <original_smiles>  (6) 
[H]c1c([H])c([H])c2c(c1[H])C([H])([H])C([H])([H])C([H])([H])C2([H])N([H])C(=O)C1([H])N(C(=O)C([H])(N([H])C(=O)C([H])(N([H])C([H])([H])[H])C([H])([H])[H])C(C([H])([H])[H])(C([H])([H])[H])C([H])([H])[H])C([H])([H])c2c([H])c(OC([H])(c3nc(C([H])([H])N([H])C(=O)N4C([H])([H])C([H])([H])C([H])([H])C([H])(n5nc(-c6c([H])c([H])c(Oc7c([H])c([H])c(F)c([H])c7F)c([H])c6[H])c(C(=O)N([H])[H])c5N([H])[H])C4([H])[H])c(C([H])([H])[H])c(C([H])(C([H])([H])[H])C([H])([H])[H])c3[H])C([H])([H])[H])c([H])c([H])c2C1([H])[H]

>  <smiles>  (6) 
[H]c1c([H])c([H])c2c(c1[H])C([H])([H])C([H])([H])C([H])([H])C2([H])N([H])C(=O)C1([H])N(C(=O)C([H])(N([H])C(=O)C([H])(N([H])C([H])([H])[H])C([H])([H])[H])C(C([H])([H])[H])(C([H])([H])[H])C([H])([H])[H])C([H])([H])c2c([H])c(OC([H])(c3nc(C([H])([H])N([H])C(=O)N4C([H])([H])C([H])([H])C([H])([H])C([H])(n5nc(-c6c([H])c([H])c(Oc7c([H])c([H])c(F)c([H])c7F)c([H])c6[H])c(C(=O)N([H])[H])c5N([H])[H])C4([H])[H])c(C([H])([H])[H])c(C([H])(C([H])([H])[H])C([H])([H])[H])c3[H])C([H])([H])[H])c([H])c([H])c2C1([H])[H]

$$$$
6:0:0
     RDKit          3D

 92 99  0  0  1  0  0  0  0  0999 V2000
  -28.7350  -23.6030   19.9430 C   0  0  0  0  0  3  0  0  0  0  0  0
  -30.4870  -23.1000   18.1860 C   0  0  0  0  0  1  0  0  0  0  0  0
  -28.0350  -24.7510   20.4650 N   0  0  0  0  0  0  0  0  0  0  0  0
  -29.4710  -23.9180   18.8570 N   0  0  0  0  0  0  0  0  0  0  0  0
  -27.4320  -24.6420   21.2710 H   0  0  0  0  0  0  0  0  0  0  0  0
  -29.3280  -24.8430   18.4710 H   0  0  0  0  0  0  0  0  0  0  0  0
  -27.7460  -21.8930   21.6340 C   0  0  0  0  0  1  0  0  0  0  0  0
  -28.8460  -22.0530   20.5720 C   0  0  0  0  0  3  0  0  0  0  0  0
  -28.8810  -20.5840   19.6920 C   0  0  0  0  0  2  0  0  0  0  0  0
  -30.0230  -18.6380   18.3480 C   0  0  0  0  0  1  0  0  0  0  0  0
  -31.2210  -19.6810   20.2520 C   0  0  0  0  0  1  0  0  0  0  0  0
  -29.8510  -19.1590   19.7940 C   0  0  1  0  0  0  0  0  0  0  0  0
  -29.5880  -17.7380   20.6800 C   0  0  0  0  0  2  0  0  0  0  0  0
  -30.5480  -15.0710   20.3160 C   0  0  0  0  0  0  0  0  0  0  0  0
  -30.5160  -12.6990   19.3930 C   0  0  0  0  0  2  0  0  0  0  0  0
  -29.5890  -12.6110   18.1590 C   0  0  0  0  0  2  0  0  0  0  0  0
  -28.1200  -12.4040   18.5820 C   0  0  0  0  0  2  0  0  0  0  0  0
  -27.6960  -13.3210   19.7550 C   0  0  0  0  0  3  0  0  0  0  0  0
  -28.7430  -13.3460   20.8820 C   0  0  0  0  0  2  0  0  0  0  0  0
  -29.9980  -13.7910   20.2600 N   0  0  0  0  0  0  0  0  0  0  0  0
  -31.7770  -15.1650   20.2190 O   0  0  0  0  0  0  0  0  0  0  0  0
  -29.6800  -16.2050   20.2380 N   0  0  0  0  0  0  0  0  0  0  0  0
  -28.7580  -15.8670   20.0120 H   0  0  0  0  0  0  0  0  0  0  0  0
  -25.3020  -13.8890   20.4550 C   0  0  0  0  0  0  0  0  0  0  0  0
  -24.2380  -13.1110   20.8120 C   0  0  0  0  0  0  0  0  0  0  0  0
  -24.7140  -11.7650   20.8070 C   0  0  0  0  0  0  0  0  0  0  0  0
  -26.3560  -13.0170   20.2420 N   0  0  0  0  0  0  0  0  0  0  0  0
  -26.0110  -11.7350   20.5210 N   0  0  0  0  0  0  0  0  0  0  0  0
  -23.9930  -10.4990   20.9980 C   0  0  0  0  0  0  0  0  0  0  0  0
  -24.4120   -9.5470   21.9550 C   0  0  0  0  0  3  0  0  0  0  0  0
  -23.6890   -8.3480   22.1350 C   0  0  0  0  0  3  0  0  0  0  0  0
  -22.5350   -8.0900   21.3580 C   0  0  0  0  0  0  0  0  0  0  0  0
  -22.1350   -9.0300   20.3920 C   0  0  0  0  0  3  0  0  0  0  0  0
  -22.8570  -10.2210   20.2100 C   0  0  0  0  0  3  0  0  0  0  0  0
  -21.7890   -6.9400   21.4430 O   0  0  0  0  0  0  0  0  0  0  0  0
  -21.7180   -6.2130   22.6030 C   0  0  0  0  0  0  0  0  0  0  0  0
  -21.2590   -6.7840   23.8100 C   0  0  0  0  0  3  0  0  0  0  0  0
  -21.1370   -5.9840   24.9640 C   0  0  0  0  0  3  0  0  0  0  0  0
  -21.4620   -4.6150   24.9100 C   0  0  0  0  0  0  0  0  0  0  0  0
  -21.9140   -4.0440   23.7070 C   0  0  0  0  0  3  0  0  0  0  0  0
  -22.0380   -4.8420   22.5560 C   0  0  0  0  0  0  0  0  0  0  0  0
  -22.4520   -4.2830   21.3930 F   0  0  0  0  0  0  0  0  0  0  0  0
  -21.3370   -3.8440   26.0150 F   0  0  0  0  0  0  0  0  0  0  0  0
  -22.8330  -13.5820   21.0490 C   0  0  0  0  0  0  0  0  0  0  0  0
  -22.0950  -12.8900   21.9100 N   0  0  0  0  0  0  0  0  0  0  0  0
  -22.3980  -14.5980   20.5080 O   0  0  0  0  0  0  0  0  0  0  0  0
  -22.4600  -12.0670   22.3660 H   0  0  0  0  0  0  0  0  0  0  0  0
  -21.1510  -13.1860   22.1160 H   0  0  0  0  0  0  0  0  0  0  0  0
  -25.4560  -15.2600   20.2630 N   0  0  0  0  0  0  0  0  0  0  0  0
  -24.6760  -15.9020   20.3500 H   0  0  0  0  0  0  0  0  0  0  0  0
  -26.2970  -15.7050   19.9250 H   0  0  0  0  0  0  0  0  0  0  0  0
  -28.2720  -26.1980   20.0890 O   0  0  0  0  0  0  0  0  0  0  0  0
  -24.6580  -31.9050   23.1870 C   0  0  0  0  0  0  0  0  0  0  0  0
  -27.1950  -27.1600   20.1450 C   0  0  0  0  0  0  0  0  0  0  0  0
  -23.4470  -30.5000   21.5680 C   0  0  0  0  0  3  0  0  0  0  0  0
  -24.8780  -28.9240   20.1260 C   0  0  0  0  0  0  0  0  0  0  0  0
  -25.9980  -30.7580   21.3790 C   0  0  0  0  0  2  0  0  0  0  0  0
  -26.0620  -29.3580   20.7370 C   0  0  0  0  0  0  0  0  0  0  0  0
  -27.2180  -28.4920   20.7340 C   0  0  0  0  0  3  0  0  0  0  0  0
  -25.9950  -26.8310   19.4890 C   0  0  0  0  0  3  0  0  0  0  0  0
  -24.8620  -27.6760   19.4810 C   0  0  0  0  0  3  0  0  0  0  0  0
  -23.6570  -29.8300   20.1840 C   0  0  0  0  0  2  0  0  0  0  0  0
  -24.7230  -31.0770   22.1000 N   0  0  0  0  0  0  0  0  0  0  0  0
  -23.5730  -32.1860   23.7190 O   0  0  0  0  0  0  0  0  0  0  0  0
  -22.7840  -29.4880   22.5370 C   0  0  0  0  0  0  0  0  0  0  0  0
  -21.4550  -29.3040   22.4190 N   0  0  0  0  0  0  0  0  0  0  0  0
  -23.4650  -28.8750   23.3640 O   0  0  0  0  0  0  0  0  0  0  0  0
  -20.9550  -29.8520   21.7330 H   0  0  0  0  0  0  0  0  0  0  0  0
  -18.0910  -28.0670   22.9470 C   0  0  0  0  0  0  0  0  0  0  0  0
  -20.6480  -28.3680   23.2040 C   0  0  0  0  0  3  0  0  0  0  0  0
  -20.7680  -26.9320   22.6490 C   0  0  0  0  0  2  0  0  0  0  0  0
  -19.6700  -26.5800   21.6420 C   0  0  0  0  0  2  0  0  0  0  0  0
  -18.2850  -26.7140   22.2810 C   0  0  0  0  0  2  0  0  0  0  0  0
  -19.1990  -28.8510   23.3650 C   0  0  0  0  0  0  0  0  0  0  0  0
  -18.9670  -30.1150   23.9460 C   0  0  0  0  0  3  0  0  0  0  0  0
  -17.6570  -30.5990   24.1140 C   0  0  0  0  0  3  0  0  0  0  0  0
  -16.5600  -29.8170   23.7100 C   0  0  0  0  0  3  0  0  0  0  0  0
  -16.7780  -28.5520   23.1340 C   0  0  0  0  0  3  0  0  0  0  0  0
  -25.9400  -32.5510   23.7930 C   0  0  0  0  0  3  0  0  0  0  0  0
  -26.4750  -31.7820   25.0640 C   0  0  1  0  0  0  0  0  0  0  0  0
  -25.3970  -31.5380   26.1450 C   0  0  0  0  0  1  0  0  0  0  0  0
  -27.0650  -30.4090   24.6660 C   0  0  0  0  0  1  0  0  0  0  0  0
  -27.6280  -32.5860   25.7120 C   0  0  0  0  0  1  0  0  0  0  0  0
  -25.6180  -33.9450   24.1380 N   0  0  0  0  0  0  0  0  0  0  0  0
  -25.9340  -35.0110   23.3900 C   0  0  0  0  0  0  0  0  0  0  0  0
  -26.5930  -34.9270   22.3500 O   0  0  0  0  0  0  0  0  0  0  0  0
  -25.0340  -34.0870   24.9480 H   0  0  0  0  0  0  0  0  0  0  0  0
  -24.1880  -36.7970   23.0810 C   0  0  0  0  0  1  0  0  0  0  0  0
  -25.4390  -36.3890   23.8710 C   0  0  0  0  0  3  0  0  0  0  0  0
  -27.5750  -37.2810   24.6930 C   0  0  0  0  0  1  0  0  0  0  0  0
  -26.4600  -37.4550   23.7650 N   0  0  0  0  0  0  0  0  0  0  0  0
  -26.0460  -38.3670   23.9340 H   0  0  0  0  0  0  0  0  0  0  0  0
  1  4  1  0
  1  3  1  0
  1  8  1  0
  2  4  1  0
  3  5  1  0
  6  4  1  0
  8  7  1  0
  9 12  1  0
  9  8  1  0
 12 10  1  6
 12 11  1  0
 12 13  1  0
 15 20  1  0
 16 17  1  0
 16 15  1  0
 18 17  1  0
 18 27  1  0
 18 19  1  0
 20 14  1  0
 20 19  1  0
 21 14  2  0
 22 14  1  0
 22 13  1  0
 23 22  1  0
 24 25  2  0
 25 44  1  0
 26 25  1  0
 26 29  1  0
 27 24  1  0
 27 28  1  0
 28 26  2  0
 29 30  1  0
 30 31  2  0
 32 35  1  0
 32 31  1  0
 33 32  2  0
 34 33  1  0
 34 29  2  0
 35 36  1  0
 36 37  1  0
 37 38  2  0
 39 38  1  0
 39 43  1  0
 40 39  2  0
 41 36  2  0
 41 40  1  0
 42 41  1  0
 44 45  1  0
 45 48  1  0
 45 47  1  0
 46 44  2  0
 49 50  1  0
 49 24  1  0
 51 49  1  0
 52 54  1  0
 52  3  1  0
 53 64  2  0
 54 59  1  0
 55 63  1  0
 55 65  1  0
 56 62  1  0
 56 58  1  0
 57 63  1  0
 58 57  1  0
 59 58  2  0
 60 54  2  0
 61 60  1  0
 61 56  2  0
 62 55  1  0
 63 53  1  0
 65 67  2  0
 66 65  1  0
 68 66  1  0
 69 78  2  0
 69 74  1  0
 70 66  1  0
 70 74  1  0
 71 70  1  0
 72 73  1  0
 72 71  1  0
 73 69  1  0
 74 75  2  0
 75 76  1  0
 77 76  2  0
 78 77  1  0
 79 53  1  0
 79 84  1  0
 79 80  1  0
 80 83  1  1
 80 81  1  0
 82 80  1  0
 84 87  1  0
 85 89  1  0
 85 84  1  0
 86 85  2  0
 89 88  1  0
 91 89  1  0
 91 92  1  0
 91 90  1  0
M  ISO  4   3 101  14 100  22 100  52 101
M  END
>  <TORSDO>  (7) 
F 20

>  <SCORE>  (7) 
-15.094

>  <name>  (7) 
6

>  <ligand_id>  (7) 
6

>  <original_smiles>  (7) 
[H]c1c([H])c([H])c2c(c1[H])C([H])([H])C([H])([H])C([H])([H])C2([H])N([H])C(=O)C1([H])N(C(=O)C([H])(N([H])C(=O)C([H])(N([H])C([H])([H])[H])C([H])([H])[H])C(C([H])([H])[H])(C([H])([H])[H])C([H])([H])[H])C([H])([H])c2c([H])c(ON([H])C(=[N+]([H])C([H])([H])[H])C([H])(C([H])([H])[H])C([H])([H])C(C([H])([H])[H])(C([H])([H])[H])C([H])([H])N([H])C(=O)N3C([H])([H])C([H])([H])C([H])([H])C([H])(n4nc(-c5c([H])c([H])c(Oc6c([H])c([H])c(F)c([H])c6F)c([H])c5[H])c(C(=O)N([H])[H])c4N([H])[H])C3([H])[H])c([H])c([H])c2C1([H])[H]

>  <smiles>  (7) 
[H]c1c([H])c([H])c2c(c1[H])C([H])([H])C([H])([H])C([H])([H])C2([H])N([H])C(=O)C1([H])N(C(=O)C([H])(N([H])C(=O)C([H])(N([H])C([H])([H])[H])C([H])([H])[H])C(C([H])([H])[H])(C([H])([H])[H])C([H])([H])[H])C([H])([H])c2c([H])c(ON([H])C(=[N+]([H])C([H])([H])[H])C([H])(C([H])([H])[H])C([H])([H])C(C([H])([H])[H])(C([H])([H])[H])C([H])([H])N([H])C(=O)N3C([H])([H])C([H])([H])C([H])([H])C([H])(n4nc(-c5c([H])c([H])c(Oc6c([H])c([H])c(F)c([H])c6F)c([H])c5[H])c(C(=O)N([H])[H])c4N([H])[H])C3([H])[H])c([H])c([H])c2C1([H])[H]

$$$$
7:0:0
     RDKit          3D

 93101  0  0  1  0  0  0  0  0999 V2000
  -27.5610  -21.0470   20.4360 C   0  0  0  0  0  2  0  0  0  0  0  0
  -28.5050  -22.0990   20.1530 C   0  0  0  0  0  3  0  0  0  0  0  0
  -28.0970  -19.7970   20.3090 C   0  0  0  0  0  3  0  0  0  0  0  0
  -29.7010  -21.3460   20.0980 C   0  0  0  0  0  3  0  0  0  0  0  0
  -27.3780  -18.4800   20.3150 C   0  0  0  0  0  1  0  0  0  0  0  0
  -31.1160  -21.8220   20.0030 C   0  0  0  0  0  1  0  0  0  0  0  0
  -29.4530  -19.9250   20.0720 N   0  0  0  0  0  0  0  0  0  0  0  0
  -26.4960  -23.5940   20.0220 C   0  0  0  0  0  1  0  0  0  0  0  0
  -28.0380  -23.6530   19.8390 C   0  0  2  0  0  0  0  0  0  0  0  0
  -29.6920  -24.3060   17.8970 C   0  0  0  0  0  1  0  0  0  0  0  0
  -28.2610  -23.9820   18.3370 C   0  0  0  0  0  2  0  0  0  0  0  0
  -28.5100  -24.9640   20.7140 C   0  0  0  0  0  2  0  0  0  0  0  0
  -28.5270  -26.4310   20.2750 O   0  0  0  0  0  0  0  0  0  0  0  0
  -24.7120  -31.9050   23.2660 C   0  0  0  0  0  0  0  0  0  0  0  0
  -27.4160  -27.3100   20.2790 C   0  0  0  0  0  0  0  0  0  0  0  0
  -23.5660  -30.5010   21.5950 C   0  0  0  0  0  3  0  0  0  0  0  0
  -25.0620  -28.9660   20.2050 C   0  0  0  0  0  0  0  0  0  0  0  0
  -26.1150  -30.8140   21.4960 C   0  0  0  0  0  2  0  0  0  0  0  0
  -26.2140  -29.4330   20.8510 C   0  0  0  0  0  0  0  0  0  0  0  0
  -27.3910  -28.6140   20.8880 C   0  0  0  0  0  3  0  0  0  0  0  0
  -26.2720  -26.9670   19.5370 C   0  0  0  0  0  3  0  0  0  0  0  0
  -25.0940  -27.7350   19.5410 C   0  0  0  0  0  3  0  0  0  0  0  0
  -23.8230  -29.8360   20.2190 C   0  0  0  0  0  2  0  0  0  0  0  0
  -24.8140  -31.0980   22.1700 N   0  0  0  0  0  0  0  0  0  0  0  0
  -23.6120  -32.1670   23.7740 O   0  0  0  0  0  0  0  0  0  0  0  0
  -22.8850  -29.4740   22.5340 C   0  0  0  0  0  0  0  0  0  0  0  0
  -21.5660  -29.2800   22.3670 N   0  0  0  0  0  0  0  0  0  0  0  0
  -23.5450  -28.8550   23.3720 O   0  0  0  0  0  0  0  0  0  0  0  0
  -21.0890  -29.8300   21.6660 H   0  0  0  0  0  0  0  0  0  0  0  0
  -18.1820  -28.0650   22.8050 C   0  0  0  0  0  0  0  0  0  0  0  0
  -20.7370  -28.3300   23.1130 C   0  0  0  0  0  3  0  0  0  0  0  0
  -20.8530  -26.9050   22.5220 C   0  0  0  0  0  2  0  0  0  0  0  0
  -19.7670  -26.5920   21.4880 C   0  0  0  0  0  2  0  0  0  0  0  0
  -18.3740  -26.7270   22.1120 C   0  0  0  0  0  2  0  0  0  0  0  0
  -19.2930  -28.8260   23.2600 C   0  0  0  0  0  0  0  0  0  0  0  0
  -19.0640  -30.0810   23.8650 C   0  0  0  0  0  3  0  0  0  0  0  0
  -17.7550  -30.5760   24.0200 C   0  0  0  0  0  3  0  0  0  0  0  0
  -16.6580  -29.8120   23.5850 C   0  0  0  0  0  3  0  0  0  0  0  0
  -16.8720  -28.5590   22.9820 C   0  0  0  0  0  3  0  0  0  0  0  0
  -25.9710  -32.5510   23.9210 C   0  0  0  0  0  3  0  0  0  0  0  0
  -25.6440  -33.9510   24.2320 N   0  0  0  0  0  0  0  0  0  0  0  0
  -25.9870  -35.0020   23.4760 C   0  0  0  0  0  0  0  0  0  0  0  0
  -26.6850  -34.8970   22.4640 O   0  0  0  0  0  0  0  0  0  0  0  0
  -25.0390  -34.1120   25.0250 H   0  0  0  0  0  0  0  0  0  0  0  0
  -24.2600  -36.7820   23.0670 C   0  0  0  0  0  1  0  0  0  0  0  0
  -25.4800  -36.3900   23.9150 C   0  0  0  0  0  3  0  0  0  0  0  0
  -27.5750  -37.2970   24.8160 C   0  0  0  0  0  1  0  0  0  0  0  0
  -26.5090  -37.4490   23.8280 N   0  0  0  0  0  0  0  0  0  0  0  0
  -26.0920  -38.3680   23.9500 H   0  0  0  0  0  0  0  0  0  0  0  0
  -26.4510  -31.7950   25.2220 C   0  0  1  0  0  0  0  0  0  0  0  0
  -25.3220  -31.5450   26.2490 C   0  0  0  0  0  1  0  0  0  0  0  0
  -27.0760  -30.4260   24.8670 C   0  0  0  0  0  1  0  0  0  0  0  0
  -27.5630  -32.6150   25.9210 C   0  0  0  0  0  1  0  0  0  0  0  0
  -30.3660  -18.7510   19.6700 C   0  0  0  0  0  2  0  0  0  0  0  0
  -30.7490  -17.5410   20.6770 C   0  0  0  0  0  2  0  0  0  0  0  0
  -31.2200  -14.9730   20.0920 C   0  0  0  0  0  0  0  0  0  0  0  0
  -30.9850  -12.6990   19.0700 C   0  0  0  0  0  2  0  0  0  0  0  0
  -30.0140  -12.7710   17.8710 C   0  0  0  0  0  2  0  0  0  0  0  0
  -28.5500  -12.6290   18.3370 C   0  0  0  0  0  2  0  0  0  0  0  0
  -28.2190  -13.5300   19.5560 C   0  0  0  0  0  3  0  0  0  0  0  0
  -29.3010  -13.4120   20.6490 C   0  0  0  0  0  2  0  0  0  0  0  0
  -30.5870  -13.7520   20.0260 N   0  0  0  0  0  0  0  0  0  0  0  0
  -32.4060  -15.0820   19.7670 O   0  0  0  0  0  0  0  0  0  0  0  0
  -30.4300  -16.0780   20.3480 N   0  0  0  0  0  0  0  0  0  0  0  0
  -29.4600  -15.8360   20.4820 H   0  0  0  0  0  0  0  0  0  0  0  0
  -25.8640  -14.1780   20.3450 C   0  0  0  0  0  0  0  0  0  0  0  0
  -24.7890  -13.4290   20.7340 C   0  0  0  0  0  0  0  0  0  0  0  0
  -25.2160  -12.0650   20.6780 C   0  0  0  0  0  0  0  0  0  0  0  0
  -26.8800  -13.2750   20.0760 N   0  0  0  0  0  0  0  0  0  0  0  0
  -26.4980  -11.9980   20.3380 N   0  0  0  0  0  0  0  0  0  0  0  0
  -24.4620  -10.8200   20.8700 C   0  0  0  0  0  0  0  0  0  0  0  0
  -24.8360   -9.8740   21.8490 C   0  0  0  0  0  3  0  0  0  0  0  0
  -24.0840   -8.6940   22.0270 C   0  0  0  0  0  3  0  0  0  0  0  0
  -22.9450   -8.4490   21.2230 C   0  0  0  0  0  0  0  0  0  0  0  0
  -22.5910   -9.3830   20.2340 C   0  0  0  0  0  3  0  0  0  0  0  0
  -23.3430  -10.5560   20.0550 C   0  0  0  0  0  3  0  0  0  0  0  0
  -22.1720   -7.3170   21.3050 O   0  0  0  0  0  0  0  0  0  0  0  0
  -21.9790   -6.6630   22.4950 C   0  0  0  0  0  0  0  0  0  0  0  0
  -21.3830   -7.2980   23.6070 C   0  0  0  0  0  3  0  0  0  0  0  0
  -21.1410   -6.5690   24.7880 C   0  0  0  0  0  3  0  0  0  0  0  0
  -21.4860   -5.2050   24.8580 C   0  0  0  0  0  0  0  0  0  0  0  0
  -22.0750   -4.5700   23.7500 C   0  0  0  0  0  3  0  0  0  0  0  0
  -22.3180   -5.2970   22.5710 C   0  0  0  0  0  0  0  0  0  0  0  0
  -22.8660   -4.6750   21.5000 F   0  0  0  0  0  0  0  0  0  0  0  0
  -21.2460   -4.5020   25.9900 F   0  0  0  0  0  0  0  0  0  0  0  0
  -23.4110  -13.9380   21.0430 C   0  0  0  0  0  0  0  0  0  0  0  0
  -22.6880  -13.2560   21.9230 N   0  0  0  0  0  0  0  0  0  0  0  0
  -22.9850  -14.9760   20.5360 O   0  0  0  0  0  0  0  0  0  0  0  0
  -23.0460  -12.4160   22.3540 H   0  0  0  0  0  0  0  0  0  0  0  0
  -21.7650  -13.5810   22.1750 H   0  0  0  0  0  0  0  0  0  0  0  0
  -26.0580  -15.5460   20.1710 N   0  0  0  0  0  0  0  0  0  0  0  0
  -25.2930  -16.2030   20.2740 H   0  0  0  0  0  0  0  0  0  0  0  0
  -26.8700  -15.9470   19.7230 H   0  0  0  0  0  0  0  0  0  0  0  0
  2  9  1  0
  2  1  1  0
  3  5  1  0
  3  1  1  0
  4  6  1  0
  4  2  1  0
  7  4  1  0
  7  3  1  0
  9  8  1  6
  9 12  1  0
 10 11  1  0
 11  9  1  0
 13 15  1  0
 13 12  1  0
 14 25  2  0
 15 20  1  0
 16 24  1  0
 16 26  1  0
 17 23  1  0
 17 19  1  0
 18 24  1  0
 19 20  2  0
 19 18  1  0
 21 22  1  0
 21 15  2  0
 22 17  2  0
 23 16  1  0
 24 14  1  0
 26 28  2  0
 27 26  1  0
 29 27  1  0
 30 39  2  0
 30 35  1  0
 31 27  1  0
 31 35  1  0
 32 31  1  0
 33 34  1  0
 33 32  1  0
 34 30  1  0
 35 36  2  0
 36 37  1  0
 38 37  2  0
 39 38  1  0
 40 14  1  0
 40 41  1  0
 40 50  1  0
 41 44  1  0
 42 46  1  0
 42 41  1  0
 43 42  2  0
 46 45  1  0
 48 46  1  0
 48 49  1  0
 48 47  1  0
 50 53  1  1
 50 51  1  0
 52 50  1  0
 54  7  1  0
 54 55  1  0
 56 64  1  0
 57 62  1  0
 58 59  1  0
 58 57  1  0
 60 59  1  0
 60 69  1  0
 60 61  1  0
 62 56  1  0
 62 61  1  0
 63 56  2  0
 64 65  1  0
 64 55  1  0
 66 67  2  0
 67 86  1  0
 68 67  1  0
 68 71  1  0
 69 70  1  0
 69 66  1  0
 70 68  2  0
 71 72  1  0
 72 73  2  0
 74 77  1  0
 74 73  1  0
 75 74  2  0
 76 75  1  0
 76 71  2  0
 77 78  1  0
 78 83  2  0
 78 79  1  0
 79 80  2  0
 80 81  1  0
 81 85  1  0
 82 81  2  0
 83 82  1  0
 84 83  1  0
 86 87  1  0
 87 90  1  0
 87 89  1  0
 88 86  2  0
 91 92  1  0
 91 66  1  0
 93 91  1  0
M  ISO  4  12 101  13 101  56 100  64 100
M  END
>  <TORSDO>  (8) 
F 21

>  <SCORE>  (8) 
-12.825

>  <name>  (8) 
7

>  <ligand_id>  (8) 
7

>  <original_smiles>  (8) 
[H]c1c([H])c([H])c2c(c1[H])C([H])([H])C([H])([H])C([H])([H])C2([H])N([H])C(=O)C1([H])N(C(=O)C([H])(N([H])C(=O)C([H])(N([H])C([H])([H])[H])C([H])([H])[H])C(C([H])([H])[H])(C([H])([H])[H])C([H])([H])[H])C([H])([H])c2c([H])c(OC([H])([H])C(c3c([H])c(C([H])([H])[H])n(C([H])([H])C([H])([H])N([H])C(=O)N4C([H])([H])C([H])([H])C([H])([H])C([H])(n5nc(-c6c([H])c([H])c(Oc7c([H])c([H])c(F)c([H])c7F)c([H])c6[H])c(C(=O)N([H])[H])c5N([H])[H])C4([H])[H])c3C([H])([H])[H])(C([H])([H])[H])C([H])([H])C([H])([H])[H])c([H])c([H])c2C1([H])[H]

>  <smiles>  (8) 
[H]c1c([H])c([H])c2c(c1[H])C([H])([H])C([H])([H])C([H])([H])C2([H])N([H])C(=O)C1([H])N(C(=O)C([H])(N([H])C(=O)C([H])(N([H])C([H])([H])[H])C([H])([H])[H])C(C([H])([H])[H])(C([H])([H])[H])C([H])([H])[H])C([H])([H])c2c([H])c(OC([H])([H])C(c3c([H])c(C([H])([H])[H])n(C([H])([H])C([H])([H])N([H])C(=O)N4C([H])([H])C([H])([H])C([H])([H])C([H])(n5nc(-c6c([H])c([H])c(Oc7c([H])c([H])c(F)c([H])c7F)c([H])c6[H])c(C(=O)N([H])[H])c5N([H])[H])C4([H])[H])c3C([H])([H])[H])(C([H])([H])[H])C([H])([H])C([H])([H])[H])c([H])c([H])c2C1([H])[H]

$$$$
8:0:0
     RDKit          3D

 93100  0  0  1  0  0  0  0  0999 V2000
  -28.7500  -20.4350   20.3310 N   0  0  0  0  0  4  0  0  0  0  0  0
  -27.9220  -20.5200   19.7660 H   0  0  0  0  0  0  0  0  0  0  0  0
  -28.4010  -20.2460   21.2570 H   0  0  0  0  0  0  0  0  0  0  0  0
  -29.3430  -21.9100   20.3340 C   0  0  0  0  0  2  0  0  0  0  0  0
  -27.3670  -22.9640   18.9030 C   0  0  0  0  0  1  0  0  0  0  0  0
  -28.5560  -23.3310   19.8040 C   0  0  0  0  0  3  0  0  0  0  0  0
  -28.2050  -24.7450   20.6720 C   0  0  0  0  0  2  0  0  0  0  0  0
  -28.3090  -26.2410   20.2390 O   0  0  0  0  0  0  0  0  0  0  0  0
  -24.6070  -31.9030   23.2460 C   0  0  0  0  0  0  0  0  0  0  0  0
  -27.2160  -27.1810   20.2600 C   0  0  0  0  0  0  0  0  0  0  0  0
  -23.4160  -30.4910   21.6130 C   0  0  0  0  0  3  0  0  0  0  0  0
  -24.8750  -28.9050   20.2110 C   0  0  0  0  0  0  0  0  0  0  0  0
  -25.9690  -30.7670   21.4520 C   0  0  0  0  0  2  0  0  0  0  0  0
  -26.0510  -29.3680   20.8130 C   0  0  0  0  0  0  0  0  0  0  0  0
  -27.2250  -28.5250   20.8140 C   0  0  0  0  0  3  0  0  0  0  0  0
  -26.0090  -26.8050   19.6370 C   0  0  0  0  0  3  0  0  0  0  0  0
  -24.8650  -27.6350   19.6100 C   0  0  0  0  0  3  0  0  0  0  0  0
  -23.6450  -29.7990   20.2430 C   0  0  0  0  0  2  0  0  0  0  0  0
  -24.6840  -31.0750   22.1580 N   0  0  0  0  0  0  0  0  0  0  0  0
  -23.5190  -32.1870   23.7700 O   0  0  0  0  0  0  0  0  0  0  0  0
  -22.7390  -29.4890   22.5810 C   0  0  0  0  0  0  0  0  0  0  0  0
  -21.4140  -29.3010   22.4410 N   0  0  0  0  0  0  0  0  0  0  0  0
  -23.4070  -28.8800   23.4200 O   0  0  0  0  0  0  0  0  0  0  0  0
  -20.9310  -29.8460   21.7410 H   0  0  0  0  0  0  0  0  0  0  0  0
  -18.0430  -28.0600   22.9070 C   0  0  0  0  0  0  0  0  0  0  0  0
  -20.5940  -28.3660   23.2130 C   0  0  0  0  0  3  0  0  0  0  0  0
  -20.7270  -26.9250   22.6670 C   0  0  0  0  0  2  0  0  0  0  0  0
  -19.6480  -26.5680   21.6390 C   0  0  0  0  0  2  0  0  0  0  0  0
  -18.2530  -26.7020   22.2570 C   0  0  0  0  0  2  0  0  0  0  0  0
  -19.1420  -28.8470   23.3400 C   0  0  0  0  0  0  0  0  0  0  0  0
  -18.8930  -30.1150   23.9100 C   0  0  0  0  0  3  0  0  0  0  0  0
  -17.5790  -30.5970   24.0480 C   0  0  0  0  0  3  0  0  0  0  0  0
  -16.4930  -29.8070   23.6300 C   0  0  0  0  0  3  0  0  0  0  0  0
  -16.7260  -28.5400   23.0650 C   0  0  0  0  0  3  0  0  0  0  0  0
  -25.8800  -32.5480   23.8730 C   0  0  0  0  0  3  0  0  0  0  0  0
  -25.5640  -33.9500   24.1910 N   0  0  0  0  0  0  0  0  0  0  0  0
  -25.9010  -35.0020   23.4330 C   0  0  0  0  0  0  0  0  0  0  0  0
  -26.5770  -34.8950   22.4060 O   0  0  0  0  0  0  0  0  0  0  0  0
  -24.9660  -34.1080   24.9880 H   0  0  0  0  0  0  0  0  0  0  0  0
  -24.1770  -36.7980   23.0630 C   0  0  0  0  0  1  0  0  0  0  0  0
  -25.4110  -36.3930   23.8840 C   0  0  0  0  0  3  0  0  0  0  0  0
  -27.5380  -37.2810   24.7320 C   0  0  0  0  0  1  0  0  0  0  0  0
  -26.4460  -37.4450   23.7760 N   0  0  0  0  0  0  0  0  0  0  0  0
  -26.0380  -38.3650   23.9190 H   0  0  0  0  0  0  0  0  0  0  0  0
  -26.3870  -31.7940   25.1640 C   0  0  1  0  0  0  0  0  0  0  0  0
  -25.2840  -31.5700   26.2250 C   0  0  0  0  0  1  0  0  0  0  0  0
  -26.9770  -30.4130   24.7980 C   0  0  0  0  0  1  0  0  0  0  0  0
  -27.5290  -32.6000   25.8270 C   0  0  0  0  0  1  0  0  0  0  0  0
  -29.4080  -19.0910   19.7620 C   0  0  0  0  0  2  0  0  0  0  0  0
  -29.8140  -17.7070   20.6680 C   0  0  0  0  0  0  0  0  0  0  0  0
  -30.4790  -15.0170   19.9770 C   0  0  0  0  0  0  0  0  0  0  0  0
  -30.3110  -12.7070   18.9410 C   0  0  0  0  0  2  0  0  0  0  0  0
  -29.2930  -12.6850   17.7790 C   0  0  0  0  0  2  0  0  0  0  0  0
  -27.8600  -12.4600   18.3020 C   0  0  0  0  0  2  0  0  0  0  0  0
  -27.5310  -13.3450   19.5320 C   0  0  0  0  0  3  0  0  0  0  0  0
  -28.6600  -13.3230   20.5810 C   0  0  0  0  0  2  0  0  0  0  0  0
  -29.8790  -13.7650   19.8920 N   0  0  0  0  0  0  0  0  0  0  0  0
  -31.6860  -15.0840   19.7340 O   0  0  0  0  0  0  0  0  0  0  0  0
  -29.6890  -16.1870   20.1740 N   0  0  0  0  0  4  0  0  0  0  0  0
  -28.7180  -15.9160   20.1750 H   0  0  0  0  0  0  0  0  0  0  0  0
  -25.1970  -13.8980   20.4260 C   0  0  0  0  0  0  0  0  0  0  0  0
  -24.1590  -13.1110   20.8400 C   0  0  0  0  0  0  0  0  0  0  0  0
  -24.6270  -11.7640   20.7570 C   0  0  0  0  0  0  0  0  0  0  0  0
  -26.2290  -13.0300   20.1080 N   0  0  0  0  0  0  0  0  0  0  0  0
  -25.8990  -11.7390   20.3740 N   0  0  0  0  0  0  0  0  0  0  0  0
  -23.9170  -10.4940   20.9610 C   0  0  0  0  0  0  0  0  0  0  0  0
  -24.3750   -9.5310   21.8850 C   0  0  0  0  0  3  0  0  0  0  0  0
  -23.6620   -8.3270   22.0780 C   0  0  0  0  0  3  0  0  0  0  0  0
  -22.4780   -8.0790   21.3440 C   0  0  0  0  0  0  0  0  0  0  0  0
  -22.0390   -9.0310   20.4070 C   0  0  0  0  0  3  0  0  0  0  0  0
  -22.7520  -10.2260   20.2140 C   0  0  0  0  0  3  0  0  0  0  0  0
  -21.7350   -6.9280   21.4470 O   0  0  0  0  0  0  0  0  0  0  0  0
  -21.6900   -6.2010   22.6100 C   0  0  0  0  0  0  0  0  0  0  0  0
  -21.2420   -6.7660   23.8240 C   0  0  0  0  0  3  0  0  0  0  0  0
  -21.1460   -5.9640   24.9800 C   0  0  0  0  0  3  0  0  0  0  0  0
  -21.4890   -4.6000   24.9220 C   0  0  0  0  0  0  0  0  0  0  0  0
  -21.9290   -4.0350   23.7130 C   0  0  0  0  0  3  0  0  0  0  0  0
  -22.0270   -4.8330   22.5590 C   0  0  0  0  0  0  0  0  0  0  0  0
  -22.4330   -4.2790   21.3910 F   0  0  0  0  0  0  0  0  0  0  0  0
  -21.3890   -3.8280   26.0300 F   0  0  0  0  0  0  0  0  0  0  0  0
  -22.7780  -13.5750   21.1960 C   0  0  0  0  0  0  0  0  0  0  0  0
  -22.0980  -12.8580   22.0820 N   0  0  0  0  0  0  0  0  0  0  0  0
  -22.3120  -14.6110   20.7230 O   0  0  0  0  0  0  0  0  0  0  0  0
  -22.4900  -12.0190   22.4860 H   0  0  0  0  0  0  0  0  0  0  0  0
  -21.1730  -13.1510   22.3640 H   0  0  0  0  0  0  0  0  0  0  0  0
  -25.3410  -15.2740   20.2640 N   0  0  0  0  0  0  0  0  0  0  0  0
  -24.5670  -15.9110   20.4160 H   0  0  0  0  0  0  0  0  0  0  0  0
  -26.1430  -15.7240   19.8450 H   0  0  0  0  0  0  0  0  0  0  0  0
  -32.3610  -18.2020   20.5830 C   0  0  0  0  0  1  0  0  0  0  0  0
  -30.9960  -19.0430   22.5330 C   0  0  0  0  0  1  0  0  0  0  0  0
  -31.1390  -17.9330   21.4780 C   0  0  1  0  0  0  0  0  0  0  0  0
  -31.4520  -16.7750   22.2290 O   0  0  0  0  0  0  0  0  0  0  0  0
  -31.7090  -16.1090   21.5980 H   0  0  0  0  0  0  0  0  0  0  0  0
  1  4  1  0
  1  3  1  0
  2  1  1  0
  6  5  1  0
  6  4  1  0
  6  7  1  0
  8 10  1  0
  8  7  1  0
  9 20  2  0
 10 15  1  0
 11 19  1  0
 11 21  1  0
 12 18  1  0
 12 14  1  0
 13 19  1  0
 14 15  2  0
 14 13  1  0
 16 10  2  0
 17 16  1  0
 17 12  2  0
 18 11  1  0
 19  9  1  0
 21 23  2  0
 22 21  1  0
 24 22  1  0
 25 34  2  0
 25 30  1  0
 26 22  1  0
 26 30  1  0
 27 26  1  0
 28 29  1  0
 28 27  1  0
 29 25  1  0
 30 31  2  0
 31 32  1  0
 33 32  2  0
 34 33  1  0
 35  9  1  0
 35 36  1  0
 35 45  1  0
 36 39  1  0
 37 41  1  0
 37 36  1  0
 38 37  2  0
 41 40  1  0
 43 41  1  0
 43 44  1  0
 43 42  1  0
 45 48  1  1
 45 46  1  0
 47 45  1  0
 49  1  1  0
 49 50  1  0
 50 91  1  0
 51 59  1  0
 52 57  1  0
 53 54  1  0
 53 52  1  0
 55 54  1  0
 55 64  1  0
 55 56  1  0
 57 51  1  0
 57 56  1  0
 58 51  2  0
 59 60  1  0
 59 50  2  0
 61 62  2  0
 62 81  1  0
 63 62  1  0
 63 66  1  0
 64 65  1  0
 64 61  1  0
 65 63  2  0
 66 67  1  0
 67 68  2  0
 69 72  1  0
 69 68  1  0
 70 69  2  0
 71 70  1  0
 71 66  2  0
 72 73  1  0
 73 74  1  0
 74 75  2  0
 76 75  1  0
 76 80  1  0
 77 76  2  0
 78 73  2  0
 78 77  1  0
 79 78  1  0
 81 82  1  0
 82 85  1  0
 82 84  1  0
 83 81  2  0
 86 87  1  0
 86 61  1  0
 88 86  1  0
 91 89  1  6
 91 92  1  0
 91 90  1  0
 93 92  1  0
M  ISO  4   7 101   8 101  51 100  59 100
M  END
>  <TORSDO>  (9) 
F 23

>  <SCORE>  (9) 
-14.405

>  <name>  (9) 
8

>  <ligand_id>  (9) 
8

>  <original_smiles>  (9) 
[H]OC(C([H])([H])[H])(C([H])([H])[H])C([H])(N([H])C(=O)N1C([H])([H])C([H])([H])C([H])([H])C([H])(n2nc(-c3c([H])c([H])c(Oc4c([H])c([H])c(F)c([H])c4F)c([H])c3[H])c(C(=O)N([H])[H])c2N([H])[H])C1([H])[H])C([H])([H])[N+]([H])([H])C([H])([H])C([H])(C([H])([H])[H])C([H])([H])Oc1c([H])c([H])c2c(c1[H])C([H])([H])N(C(=O)C([H])(N([H])C(=O)C([H])(N([H])C([H])([H])[H])C([H])([H])[H])C(C([H])([H])[H])(C([H])([H])[H])C([H])([H])[H])C([H])(C(=O)N([H])C1([H])c3c([H])c([H])c([H])c([H])c3C([H])([H])C([H])([H])C1([H])[H])C2([H])[H]

>  <smiles>  (9) 
[H]OC(C([H])([H])[H])(C([H])([H])[H])C([H])(N([H])C(=O)N1C([H])([H])C([H])([H])C([H])([H])C([H])(n2nc(-c3c([H])c([H])c(Oc4c([H])c([H])c(F)c([H])c4F)c([H])c3[H])c(C(=O)N([H])[H])c2N([H])[H])C1([H])[H])C([H])([H])[N+]([H])([H])C([H])([H])C([H])(C([H])([H])[H])C([H])([H])Oc1c([H])c([H])c2c(c1[H])C([H])([H])N(C(=O)C([H])(N([H])C(=O)C([H])(N([H])C([H])([H])[H])C([H])([H])[H])C(C([H])([H])[H])(C([H])([H])[H])C([H])([H])[H])C([H])(C(=O)N([H])C1([H])c3c([H])c([H])c([H])c([H])c3C([H])([H])C([H])([H])C1([H])[H])C2([H])[H]

$$$$
9:0:0
     RDKit          3D

 96104  0  0  1  0  0  0  0  0999 V2000
  -29.0540  -20.4290   20.0780 C   0  0  0  0  0  2  0  0  0  0  0  0
  -28.5100  -18.9630   20.0440 C   0  0  0  0  0  2  0  0  0  0  0  0
  -29.4680  -17.9010   20.6800 C   0  0  0  0  0  2  0  0  0  0  0  0
  -29.2060  -16.3950   20.3210 C   0  0  0  0  0  2  0  0  0  0  0  0
  -31.7780  -14.7790   22.3240 C   0  0  0  0  0  2  0  0  0  0  0  0
  -30.7980  -15.7070   22.1360 C   0  0  0  0  0  2  0  0  0  0  0  0
  -31.9310  -14.0480   21.1090 C   0  0  0  0  0  3  0  0  0  0  0  0
  -30.8100  -14.3440   20.3430 C   0  0  0  0  0  3  0  0  0  0  0  0
  -30.2310  -15.5010   20.8900 N   0  0  0  0  0  0  0  0  0  0  0  0
  -30.4120  -13.7890   19.0060 C   0  0  0  0  0  0  0  0  0  0  0  0
  -29.4540  -11.9370   17.6810 C   0  0  0  0  0  2  0  0  0  0  0  0
  -28.2450  -12.3210   16.8170 C   0  0  0  0  0  2  0  0  0  0  0  0
  -26.9460  -12.1350   17.6180 C   0  0  0  0  0  2  0  0  0  0  0  0
  -27.0130  -12.8590   18.9940 C   0  0  0  0  0  3  0  0  0  0  0  0
  -28.3250  -12.5270   19.7640 C   0  0  0  0  0  2  0  0  0  0  0  0
  -29.4830  -12.7900   18.8850 N   0  0  0  0  0  0  0  0  0  0  0  0
  -31.1100  -14.1440   18.0570 O   0  0  0  0  0  0  0  0  0  0  0  0
  -24.8760  -13.4800   20.2950 C   0  0  0  0  0  0  0  0  0  0  0  0
  -23.9060  -12.7100   20.8900 C   0  0  0  0  0  0  0  0  0  0  0  0
  -24.2950  -11.3530   20.6850 C   0  0  0  0  0  0  0  0  0  0  0  0
  -25.8050  -12.5850   19.7820 N   0  0  0  0  0  0  0  0  0  0  0  0
  -25.4700  -11.2980   20.0610 N   0  0  0  0  0  0  0  0  0  0  0  0
  -23.5890  -10.0980   20.9860 C   0  0  0  0  0  0  0  0  0  0  0  0
  -24.1540   -9.1180   21.8350 C   0  0  0  0  0  3  0  0  0  0  0  0
  -23.4490   -7.9290   22.1240 C   0  0  0  0  0  3  0  0  0  0  0  0
  -22.1630   -7.7150   21.5690 C   0  0  0  0  0  0  0  0  0  0  0  0
  -21.6140   -8.6840   20.7130 C   0  0  0  0  0  3  0  0  0  0  0  0
  -22.3230   -9.8640   20.4220 C   0  0  0  0  0  3  0  0  0  0  0  0
  -21.4140   -6.5840   21.7840 O   0  0  0  0  0  0  0  0  0  0  0  0
  -21.4910   -5.8760   22.9570 C   0  0  0  0  0  0  0  0  0  0  0  0
  -21.1970   -6.4700   24.2030 C   0  0  0  0  0  3  0  0  0  0  0  0
  -21.2310   -5.6930   25.3770 C   0  0  0  0  0  3  0  0  0  0  0  0
  -21.5450   -4.3190   25.3040 C   0  0  0  0  0  0  0  0  0  0  0  0
  -21.8300   -3.7280   24.0610 C   0  0  0  0  0  3  0  0  0  0  0  0
  -21.8030   -4.5060   22.8910 C   0  0  0  0  0  0  0  0  0  0  0  0
  -22.0600   -3.9250   21.6940 F   0  0  0  0  0  0  0  0  0  0  0  0
  -21.5660   -3.5670   26.4280 F   0  0  0  0  0  0  0  0  0  0  0  0
  -22.6470  -13.2110   21.5290 C   0  0  0  0  0  0  0  0  0  0  0  0
  -22.1490  -12.5030   22.5410 N   0  0  0  0  0  0  0  0  0  0  0  0
  -22.1190  -14.2620   21.1700 O   0  0  0  0  0  0  0  0  0  0  0  0
  -22.5910  -11.6500   22.8500 H   0  0  0  0  0  0  0  0  0  0  0  0
  -21.3170  -12.8220   23.0130 H   0  0  0  0  0  0  0  0  0  0  0  0
  -25.0350  -14.8470   20.1270 N   0  0  0  0  0  0  0  0  0  0  0  0
  -24.2940  -15.4920   20.3690 H   0  0  0  0  0  0  0  0  0  0  0  0
  -25.7220  -15.2630   19.5140 H   0  0  0  0  0  0  0  0  0  0  0  0
  -32.9340  -11.7100   21.1630 C   0  0  0  0  0  1  0  0  0  0  0  0
  -34.4760  -13.7720   21.2680 C   0  0  0  0  0  1  0  0  0  0  0  0
  -33.1290  -13.1750   20.7550 C   0  0  0  0  0  3  0  0  0  0  0  0
  -27.9870  -21.5560   19.9000 C   0  0  0  0  0  2  0  0  0  0  0  0
  -28.5320  -22.9490   20.0320 N   0  0  0  0  0  4  0  0  0  0  0  0
  -28.9760  -23.1780   19.1560 H   0  0  0  0  0  0  0  0  0  0  0  0
  -29.2620  -22.9100   20.7250 H   0  0  0  0  0  0  0  0  0  0  0  0
  -26.1350  -23.6810   19.8940 C   0  0  0  0  0  1  0  0  0  0  0  0
  -27.5610  -24.0460   20.3930 C   0  0  0  0  0  3  0  0  0  0  0  0
  -27.9790  -25.4970   19.8780 C   0  0  0  0  0  2  0  0  0  0  0  0
  -28.7040  -26.4490   20.7360 O   0  0  0  0  0  0  0  0  0  0  0  0
  -27.9820  -32.1400   25.1770 C   0  0  0  0  0  0  0  0  0  0  0  0
  -27.9830  -27.1410   21.7120 C   0  0  0  0  0  0  0  0  0  0  0  0
  -26.5080  -30.2080   25.5680 C   0  0  0  0  0  3  0  0  0  0  0  0
  -26.4550  -28.4530   23.7290 C   0  0  0  0  0  0  0  0  0  0  0  0
  -27.4220  -30.6960   23.2120 C   0  0  0  0  0  2  0  0  0  0  0  0
  -27.3250  -29.2000   22.9220 C   0  0  0  0  0  0  0  0  0  0  0  0
  -28.0820  -28.5550   21.9000 C   0  0  0  0  0  3  0  0  0  0  0  0
  -27.1270  -26.4290   22.5840 C   0  0  0  0  0  3  0  0  0  0  0  0
  -26.3620  -27.0660   23.5650 C   0  0  0  0  0  3  0  0  0  0  0  0
  -25.6550  -29.1810   24.7840 C   0  0  0  0  0  2  0  0  0  0  0  0
  -27.3570  -31.0450   24.6620 N   0  0  0  0  0  0  0  0  0  0  0  0
  -27.8410  -32.4660   26.3650 O   0  0  0  0  0  0  0  0  0  0  0  0
  -27.3170  -29.4650   26.6510 C   0  0  0  0  0  0  0  0  0  0  0  0
  -26.7580  -29.3860   27.8690 N   0  0  0  0  0  0  0  0  0  0  0  0
  -28.4070  -28.9520   26.3830 O   0  0  0  0  0  0  0  0  0  0  0  0
  -25.8550  -29.8180   28.0100 H   0  0  0  0  0  0  0  0  0  0  0  0
  -26.3580  -28.8680   31.4290 C   0  0  0  0  0  0  0  0  0  0  0  0
  -27.3240  -28.7060   29.0350 C   0  0  0  0  0  3  0  0  0  0  0  0
  -26.9060  -27.2170   29.0750 C   0  0  0  0  0  2  0  0  0  0  0  0
  -25.6440  -26.9680   29.9090 C   0  0  0  0  0  2  0  0  0  0  0  0
  -25.8540  -27.4350   31.3560 C   0  0  0  0  0  2  0  0  0  0  0  0
  -27.0320  -29.4660   30.3310 C   0  0  0  0  0  0  0  0  0  0  0  0
  -27.4450  -30.8130   30.4320 C   0  0  0  0  0  3  0  0  0  0  0  0
  -27.1950  -31.5550   31.5980 C   0  0  0  0  0  3  0  0  0  0  0  0
  -26.5470  -30.9530   32.6900 C   0  0  0  0  0  3  0  0  0  0  0  0
  -26.1350  -29.6110   32.6060 C   0  0  0  0  0  3  0  0  0  0  0  0
  -28.8900  -33.0470   24.2930 C   0  0  0  0  0  3  0  0  0  0  0  0
  -30.4280  -32.7780   24.5170 C   0  0  1  0  0  0  0  0  0  0  0  0
  -30.8480  -32.7330   26.0030 C   0  0  0  0  0  1  0  0  0  0  0  0
  -30.8560  -31.4430   23.8680 C   0  0  0  0  0  1  0  0  0  0  0  0
  -31.2520  -33.8850   23.8210 C   0  0  0  0  0  1  0  0  0  0  0  0
  -28.5560  -34.4430   24.6080 N   0  0  0  0  0  0  0  0  0  0  0  0
  -27.8100  -35.2420   23.8330 C   0  0  0  0  0  0  0  0  0  0  0  0
  -27.3820  -34.8920   22.7310 O   0  0  0  0  0  0  0  0  0  0  0  0
  -28.7970  -34.7690   25.5330 H   0  0  0  0  0  0  0  0  0  0  0  0
  -26.0450  -36.6800   24.9020 C   0  0  0  0  0  1  0  0  0  0  0  0
  -27.4850  -36.6500   24.3690 C   0  0  0  0  0  3  0  0  0  0  0  0
  -29.0670  -37.9430   23.0060 C   0  0  0  0  0  1  0  0  0  0  0  0
  -27.6660  -37.7190   23.3620 N   0  0  0  0  0  0  0  0  0  0  0  0
  -27.2780  -38.5970   23.6950 H   0  0  0  0  0  0  0  0  0  0  0  0
  2  1  1  0
  2  3  1  0
  4  3  1  0
  4  9  1  0
  6  5  1  0
  7 48  1  0
  7  5  1  0
  8 10  1  0
  8  9  1  0
  8  7  1  0
  9  6  1  0
 11 16  1  0
 12 13  1  0
 12 11  1  0
 14 13  1  0
 14 15  1  0
 14 21  1  0
 16 10  1  0
 16 15  1  0
 17 10  2  0
 18 19  2  0
 19 38  1  0
 20 19  1  0
 20 23  1  0
 21 22  1  0
 21 18  1  0
 22 20  2  0
 23 24  1  0
 24 25  2  0
 26 29  1  0
 26 25  1  0
 27 26  2  0
 28 27  1  0
 28 23  2  0
 29 30  1  0
 30 31  1  0
 31 32  2  0
 33 32  1  0
 33 37  1  0
 34 33  2  0
 35 30  2  0
 35 34  1  0
 36 35  1  0
 38 39  1  0
 39 41  1  0
 39 42  1  0
 40 38  2  0
 43 18  1  0
 43 44  1  0
 45 43  1  0
 48 46  1  0
 48 47  1  0
 49 50  1  0
 49  1  1  0
 50 54  1  0
 50 52  1  0
 51 50  1  0
 54 53  1  0
 55 54  1  0
 55 56  1  0
 56 58  1  0
 57 68  2  0
 58 63  2  0
 58 64  1  0
 59 69  1  0
 60 66  1  0
 61 67  1  0
 62 61  1  0
 62 60  2  0
 63 62  1  0
 64 65  2  0
 65 60  1  0
 66 59  1  0
 67 57  1  0
 67 59  1  0
 69 70  1  0
 70 72  1  0
 71 69  2  0
 73 82  1  0
 74 70  1  0
 74 75  1  0
 74 78  1  0
 75 76  1  0
 76 77  1  0
 77 73  1  0
 78 79  1  0
 78 73  2  0
 79 80  2  0
 80 81  1  0
 82 81  2  0
 83 84  1  0
 83 88  1  0
 83 57  1  0
 84 85  1  1
 86 84  1  0
 87 84  1  0
 88 91  1  0
 89 93  1  0
 89 88  1  0
 90 89  2  0
 93 92  1  0
 94 95  1  0
 95 96  1  0
 95 93  1  0
M  ISO  4   8 100  10 100  55 101  56 101
M  END
>  <TORSDO>  (10) 
F 25

>  <SCORE>  (10) 
-4.868

>  <name>  (10) 
9

>  <ligand_id>  (10) 
9

>  <original_smiles>  (10) 
[H]c1c([H])c([H])c2c(c1[H])C([H])([H])C([H])([H])C([H])([H])C2([H])N([H])C(=O)C1([H])N(C(=O)C([H])(N([H])C(=O)C([H])(N([H])C([H])([H])[H])C([H])([H])[H])C(C([H])([H])[H])(C([H])([H])[H])C([H])([H])[H])C([H])([H])c2c([H])c(OC([H])([H])C([H])(C([H])([H])[H])[N+]([H])([H])C([H])([H])C([H])([H])C([H])([H])C([H])([H])C([H])([H])n3c([H])c([H])c(C([H])(C([H])([H])[H])C([H])([H])[H])c3C(=O)N3C([H])([H])C([H])([H])C([H])([H])C([H])(n4nc(-c5c([H])c([H])c(Oc6c([H])c([H])c(F)c([H])c6F)c([H])c5[H])c(C(=O)N([H])[H])c4N([H])[H])C3([H])[H])c([H])c([H])c2C1([H])[H]

>  <smiles>  (10) 
[H]c1c([H])c([H])c2c(c1[H])C([H])([H])C([H])([H])C([H])([H])C2([H])N([H])C(=O)C1([H])N(C(=O)C([H])(N([H])C(=O)C([H])(N([H])C([H])([H])[H])C([H])([H])[H])C(C([H])([H])[H])(C([H])([H])[H])C([H])([H])[H])C([H])([H])c2c([H])c(OC([H])([H])C([H])(C([H])([H])[H])[N+]([H])([H])C([H])([H])C([H])([H])C([H])([H])C([H])([H])C([H])([H])n3c([H])c([H])c(C([H])(C([H])([H])[H])C([H])([H])[H])c3C(=O)N3C([H])([H])C([H])([H])C([H])([H])C([H])(n4nc(-c5c([H])c([H])c(Oc6c([H])c([H])c(F)c([H])c6F)c([H])c5[H])c(C(=O)N([H])[H])c4N([H])[H])C3([H])[H])c([H])c([H])c2C1([H])[H]

$$$$
10:0:0
     RDKit          3D

 86 93  0  0  1  0  0  0  0  0999 V2000
  -28.7380  -22.9140   19.8760 C   0  0  0  0  0  2  0  0  0  0  0  0
  -27.8240  -21.0940   21.5440 C   0  0  0  0  0  1  0  0  0  0  0  0
  -30.2680  -21.5300   21.4870 C   0  0  0  0  0  1  0  0  0  0  0  0
  -29.0260  -21.3090   20.6050 C   0  0  2  0  0  0  0  0  0  0  0  0
  -29.2410  -19.6940   19.8610 C   0  0  0  0  0  2  0  0  0  0  0  0
  -29.9760  -18.1740   20.4450 C   0  0  0  0  0  2  0  0  0  0  0  0
  -30.4830  -15.3230   19.9700 C   0  0  0  0  0  0  0  0  0  0  0  0
  -30.3870  -12.9240   19.0110 C   0  0  0  0  0  2  0  0  0  0  0  0
  -29.4030  -12.7730   17.8250 C   0  0  0  0  0  2  0  0  0  0  0  0
  -27.9720  -12.5090   18.3290 C   0  0  0  0  0  2  0  0  0  0  0  0
  -27.5860  -13.4460   19.5010 C   0  0  0  0  0  3  0  0  0  0  0  0
  -28.6900  -13.5480   20.5730 C   0  0  0  0  0  2  0  0  0  0  0  0
  -29.8960  -14.0390   19.8920 N   0  0  0  0  0  0  0  0  0  0  0  0
  -31.6990  -15.3320   19.7310 O   0  0  0  0  0  0  0  0  0  0  0  0
  -29.7160  -16.5710   20.1110 N   0  0  0  0  0  0  0  0  0  0  0  0
  -28.7320  -16.3560   20.1400 H   0  0  0  0  0  0  0  0  0  0  0  0
  -25.2530  -13.9970   20.3710 C   0  0  0  0  0  0  0  0  0  0  0  0
  -24.2130  -13.2160   20.7860 C   0  0  0  0  0  0  0  0  0  0  0  0
  -24.6800  -11.8670   20.7250 C   0  0  0  0  0  0  0  0  0  0  0  0
  -26.2840  -13.1270   20.0700 N   0  0  0  0  0  0  0  0  0  0  0  0
  -25.9570  -11.8400   20.3550 N   0  0  0  0  0  0  0  0  0  0  0  0
  -23.9620  -10.6040   20.9340 C   0  0  0  0  0  0  0  0  0  0  0  0
  -24.4190   -9.6400   21.8600 C   0  0  0  0  0  3  0  0  0  0  0  0
  -23.6990   -8.4430   22.0590 C   0  0  0  0  0  3  0  0  0  0  0  0
  -22.5060   -8.2010   21.3350 C   0  0  0  0  0  0  0  0  0  0  0  0
  -22.0680   -9.1540   20.3980 C   0  0  0  0  0  3  0  0  0  0  0  0
  -22.7880  -10.3430   20.1960 C   0  0  0  0  0  3  0  0  0  0  0  0
  -21.7570   -7.0550   21.4460 O   0  0  0  0  0  0  0  0  0  0  0  0
  -21.7220   -6.3260   22.6070 C   0  0  0  0  0  0  0  0  0  0  0  0
  -21.2840   -6.8870   23.8270 C   0  0  0  0  0  3  0  0  0  0  0  0
  -21.1990   -6.0840   24.9810 C   0  0  0  0  0  3  0  0  0  0  0  0
  -21.5410   -4.7190   24.9160 C   0  0  0  0  0  0  0  0  0  0  0  0
  -21.9720   -4.1580   23.7010 C   0  0  0  0  0  3  0  0  0  0  0  0
  -22.0580   -4.9590   22.5500 C   0  0  0  0  0  0  0  0  0  0  0  0
  -22.4520   -4.4070   21.3760 F   0  0  0  0  0  0  0  0  0  0  0  0
  -21.4510   -3.9450   26.0230 F   0  0  0  0  0  0  0  0  0  0  0  0
  -22.8260  -13.6900   21.1160 C   0  0  0  0  0  0  0  0  0  0  0  0
  -22.1330  -12.9910   22.0070 N   0  0  0  0  0  0  0  0  0  0  0  0
  -22.3700  -14.7190   20.6200 O   0  0  0  0  0  0  0  0  0  0  0  0
  -22.5130  -12.1560   22.4310 H   0  0  0  0  0  0  0  0  0  0  0  0
  -21.2090  -13.2980   22.2700 H   0  0  0  0  0  0  0  0  0  0  0  0
  -25.4010  -15.3690   20.1930 N   0  0  0  0  0  0  0  0  0  0  0  0
  -24.6320  -16.0110   20.3520 H   0  0  0  0  0  0  0  0  0  0  0  0
  -26.2120  -15.8120   19.7840 H   0  0  0  0  0  0  0  0  0  0  0  0
  -28.1840  -24.4670   20.5600 C   0  0  0  0  0  2  0  0  0  0  0  0
  -28.3330  -26.0520   20.1960 O   0  0  0  0  0  0  0  0  0  0  0  0
  -24.6550  -31.8890   23.2130 C   0  0  0  0  0  0  0  0  0  0  0  0
  -27.2850  -27.0940   20.2050 C   0  0  0  0  0  0  0  0  0  0  0  0
  -23.4890  -30.4930   21.5570 C   0  0  0  0  0  3  0  0  0  0  0  0
  -24.9640  -28.9160   20.1400 C   0  0  0  0  0  0  0  0  0  0  0  0
  -26.0500  -30.7470   21.4240 C   0  0  0  0  0  2  0  0  0  0  0  0
  -26.1400  -29.3440   20.7690 C   0  0  0  0  0  0  0  0  0  0  0  0
  -27.3000  -28.4540   20.7710 C   0  0  0  0  0  3  0  0  0  0  0  0
  -26.0760  -26.8010   19.5390 C   0  0  0  0  0  3  0  0  0  0  0  0
  -24.9520  -27.6630   19.5050 C   0  0  0  0  0  3  0  0  0  0  0  0
  -23.7360  -29.8210   20.1770 C   0  0  0  0  0  2  0  0  0  0  0  0
  -24.7510  -31.0700   22.1190 N   0  0  0  0  0  0  0  0  0  0  0  0
  -23.5590  -32.1630   23.7290 O   0  0  0  0  0  0  0  0  0  0  0  0
  -22.7970  -29.4820   22.5080 C   0  0  0  0  0  0  0  0  0  0  0  0
  -21.4740  -29.2890   22.3520 N   0  0  0  0  0  0  0  0  0  0  0  0
  -23.4590  -28.8710   23.3520 O   0  0  0  0  0  0  0  0  0  0  0  0
  -20.9950  -29.8310   21.6460 H   0  0  0  0  0  0  0  0  0  0  0  0
  -18.1130  -28.0010   22.7810 C   0  0  0  0  0  0  0  0  0  0  0  0
  -20.6570  -28.3380   23.1130 C   0  0  0  0  0  3  0  0  0  0  0  0
  -20.8110  -26.9020   22.5570 C   0  0  0  0  0  2  0  0  0  0  0  0
  -19.7470  -26.5440   21.5130 C   0  0  0  0  0  2  0  0  0  0  0  0
  -18.3430  -26.6530   22.1150 C   0  0  0  0  0  2  0  0  0  0  0  0
  -19.1980  -28.7970   23.2360 C   0  0  0  0  0  0  0  0  0  0  0  0
  -18.9250  -30.0520   23.8200 C   0  0  0  0  0  3  0  0  0  0  0  0
  -17.6000  -30.5110   23.9590 C   0  0  0  0  0  3  0  0  0  0  0  0
  -16.5310  -29.7130   23.5180 C   0  0  0  0  0  3  0  0  0  0  0  0
  -16.7880  -28.4620   22.9330 C   0  0  0  0  0  3  0  0  0  0  0  0
  -25.9150  -32.5380   23.8610 C   0  0  0  0  0  3  0  0  0  0  0  0
  -26.3980  -31.7880   25.1660 C   0  0  1  0  0  0  0  0  0  0  0  0
  -25.2790  -31.5700   26.2110 C   0  0  0  0  0  1  0  0  0  0  0  0
  -26.9910  -30.4030   24.8200 C   0  0  0  0  0  1  0  0  0  0  0  0
  -27.5350  -32.5930   25.8410 C   0  0  0  0  0  1  0  0  0  0  0  0
  -25.5930  -33.9420   24.1750 N   0  0  0  0  0  0  0  0  0  0  0  0
  -25.9430  -34.9950   23.4230 C   0  0  0  0  0  0  0  0  0  0  0  0
  -26.6340  -34.8860   22.4070 O   0  0  0  0  0  0  0  0  0  0  0  0
  -24.9800  -34.1010   24.9600 H   0  0  0  0  0  0  0  0  0  0  0  0
  -24.2320  -36.7990   23.0240 C   0  0  0  0  0  1  0  0  0  0  0  0
  -25.4510  -36.3890   23.8660 C   0  0  0  0  0  3  0  0  0  0  0  0
  -27.5620  -37.2750   24.7520 C   0  0  0  0  0  1  0  0  0  0  0  0
  -26.4890  -37.4400   23.7750 N   0  0  0  0  0  0  0  0  0  0  0  0
  -26.0810  -38.3620   23.9060 H   0  0  0  0  0  0  0  0  0  0  0  0
  1 45  1  0
  1  4  1  0
  4  3  1  1
  4  2  1  0
  5  6  1  0
  5  4  1  0
  7 15  1  0
  8 13  1  0
  9 10  1  0
  9  8  1  0
 11 10  1  0
 11 20  1  0
 11 12  1  0
 13  7  1  0
 13 12  1  0
 14  7  2  0
 15 16  1  0
 15  6  1  0
 17 18  2  0
 18 37  1  0
 19 18  1  0
 19 22  1  0
 20 21  1  0
 20 17  1  0
 21 19  2  0
 22 23  1  0
 23 24  2  0
 25 28  1  0
 25 24  1  0
 26 25  2  0
 27 26  1  0
 27 22  2  0
 28 29  1  0
 29 30  1  0
 30 31  2  0
 32 31  1  0
 32 36  1  0
 33 32  2  0
 34 29  2  0
 34 33  1  0
 35 34  1  0
 37 38  1  0
 38 41  1  0
 38 40  1  0
 39 37  2  0
 42 43  1  0
 42 17  1  0
 44 42  1  0
 46 48  1  0
 46 45  1  0
 47 58  2  0
 48 53  1  0
 49 57  1  0
 49 59  1  0
 50 56  1  0
 50 52  1  0
 51 57  1  0
 52 53  2  0
 52 51  1  0
 54 48  2  0
 55 54  1  0
 55 50  2  0
 56 49  1  0
 57 47  1  0
 59 61  2  0
 60 59  1  0
 62 60  1  0
 63 72  2  0
 63 68  1  0
 64 60  1  0
 64 68  1  0
 65 64  1  0
 66 67  1  0
 66 65  1  0
 67 63  1  0
 68 69  2  0
 69 70  1  0
 71 70  2  0
 72 71  1  0
 73 47  1  0
 73 78  1  0
 73 74  1  0
 74 77  1  1
 74 75  1  0
 76 74  1  0
 78 81  1  0
 79 83  1  0
 79 78  1  0
 80 79  2  0
 83 82  1  0
 85 83  1  0
 85 86  1  0
 85 84  1  0
M  ISO  4   7 100  15 100  45 101  46 101
M  END
>  <TORSDO>  (11) 
F 20

>  <SCORE>  (11) 
-14.979

>  <name>  (11) 
10

>  <ligand_id>  (11) 
10

>  <original_smiles>  (11) 
[H]c1c([H])c([H])c2c(c1[H])C([H])([H])C([H])([H])C([H])([H])C2([H])N([H])C(=O)C1([H])N(C(=O)C([H])(N([H])C(=O)C([H])(N([H])C([H])([H])[H])C([H])([H])[H])C(C([H])([H])[H])(C([H])([H])[H])C([H])([H])[H])C([H])([H])c2c([H])c(OC([H])([H])C([H])([H])C(C([H])([H])[H])(C([H])([H])[H])C([H])([H])C([H])([H])N([H])C(=O)N3C([H])([H])C([H])([H])C([H])([H])C([H])(n4nc(-c5c([H])c([H])c(Oc6c([H])c([H])c(F)c([H])c6F)c([H])c5[H])c(C(=O)N([H])[H])c4N([H])[H])C3([H])[H])c([H])c([H])c2C1([H])[H]

>  <smiles>  (11) 
[H]c1c([H])c([H])c2c(c1[H])C([H])([H])C([H])([H])C([H])([H])C2([H])N([H])C(=O)C1([H])N(C(=O)C([H])(N([H])C(=O)C([H])(N([H])C([H])([H])[H])C([H])([H])[H])C(C([H])([H])[H])(C([H])([H])[H])C([H])([H])[H])C([H])([H])c2c([H])c(OC([H])([H])C([H])([H])C(C([H])([H])[H])(C([H])([H])[H])C([H])([H])C([H])([H])N([H])C(=O)N3C([H])([H])C([H])([H])C([H])([H])C([H])(n4nc(-c5c([H])c([H])c(Oc6c([H])c([H])c(F)c([H])c6F)c([H])c5[H])c(C(=O)N([H])[H])c4N([H])[H])C3([H])[H])c([H])c([H])c2C1([H])[H]

$$$$
11:0:0
     RDKit          3D

 99107  0  0  1  0  0  0  0  0999 V2000
  -27.3570  -20.7430   21.0810 C   0  0  0  0  0  3  0  0  0  0  0  0
  -26.9800  -19.4770   21.5590 C   0  0  0  0  0  3  0  0  0  0  0  0
  -29.4820  -19.7760   20.4580 C   0  0  0  0  0  3  0  0  0  0  0  0
  -28.6250  -20.9460   20.5200 C   0  0  0  0  0  0  0  0  0  0  0  0
  -27.8460  -18.3550   21.5640 C   0  0  0  0  0  0  0  0  0  0  0  0
  -29.1550  -18.4550   20.9820 C   0  0  0  0  0  0  0  0  0  0  0  0
  -28.9530  -22.3630   19.8790 C   0  0  0  0  0  2  0  0  0  0  0  0
  -28.4090  -23.7540   20.5080 C   0  0  0  0  0  3  0  0  0  0  0  0
  -28.4720  -25.0880   19.6020 C   0  0  0  0  0  3  0  0  0  0  0  0
  -28.3670  -26.4650   20.1780 O   0  0  0  0  0  0  0  0  0  0  0  0
  -24.6260  -31.8560   23.2000 C   0  0  0  0  0  0  0  0  0  0  0  0
  -27.2270  -27.2900   20.1100 C   0  0  0  0  0  0  0  0  0  0  0  0
  -23.4210  -30.4790   21.5440 C   0  0  0  0  0  3  0  0  0  0  0  0
  -24.8680  -28.9280   20.1110 C   0  0  0  0  0  0  0  0  0  0  0  0
  -25.9630  -30.7790   21.3740 C   0  0  0  0  0  2  0  0  0  0  0  0
  -26.0370  -29.4030   20.7140 C   0  0  0  0  0  0  0  0  0  0  0  0
  -27.2140  -28.5950   20.7060 C   0  0  0  0  0  3  0  0  0  0  0  0
  -26.0300  -26.8660   19.4910 C   0  0  0  0  0  3  0  0  0  0  0  0
  -24.8680  -27.6660   19.4940 C   0  0  0  0  0  3  0  0  0  0  0  0
  -23.6360  -29.8130   20.1610 C   0  0  0  0  0  2  0  0  0  0  0  0
  -24.6890  -31.0560   22.0960 N   0  0  0  0  0  0  0  0  0  0  0  0
  -23.5410  -32.1370   23.7330 O   0  0  0  0  0  0  0  0  0  0  0  0
  -22.7460  -29.4610   22.4930 C   0  0  0  0  0  0  0  0  0  0  0  0
  -21.4160  -29.3050   22.3690 N   0  0  0  0  0  0  0  0  0  0  0  0
  -23.4160  -28.8160   23.3040 O   0  0  0  0  0  0  0  0  0  0  0  0
  -20.9310  -29.8730   21.6890 H   0  0  0  0  0  0  0  0  0  0  0  0
  -18.0280  -28.1400   22.8490 C   0  0  0  0  0  0  0  0  0  0  0  0
  -20.5880  -28.3690   23.1300 C   0  0  0  0  0  3  0  0  0  0  0  0
  -20.6800  -26.9420   22.5400 C   0  0  0  0  0  2  0  0  0  0  0  0
  -19.5780  -26.6380   21.5210 C   0  0  0  0  0  2  0  0  0  0  0  0
  -18.1940  -26.7950   22.1610 C   0  0  0  0  0  2  0  0  0  0  0  0
  -19.1530  -28.8860   23.2890 C   0  0  0  0  0  0  0  0  0  0  0  0
  -18.9450  -30.1460   23.8900 C   0  0  0  0  0  3  0  0  0  0  0  0
  -17.6450  -30.6580   24.0560 C   0  0  0  0  0  3  0  0  0  0  0  0
  -16.5350  -29.9060   23.6340 C   0  0  0  0  0  3  0  0  0  0  0  0
  -16.7270  -28.6490   23.0350 C   0  0  0  0  0  3  0  0  0  0  0  0
  -25.9090  -32.4750   23.8330 C   0  0  0  0  0  3  0  0  0  0  0  0
  -26.4500  -31.6570   25.0700 C   0  0  1  0  0  0  0  0  0  0  0  0
  -25.3740  -31.3670   26.1410 C   0  0  0  0  0  1  0  0  0  0  0  0
  -27.0340  -30.2990   24.6150 C   0  0  0  0  0  1  0  0  0  0  0  0
  -27.6060  -32.4310   25.7480 C   0  0  0  0  0  1  0  0  0  0  0  0
  -25.5920  -33.8560   24.2260 N   0  0  0  0  0  0  0  0  0  0  0  0
  -25.9050  -34.9440   23.5080 C   0  0  0  0  0  0  0  0  0  0  0  0
  -26.5620  -34.8910   22.4640 O   0  0  0  0  0  0  0  0  0  0  0  0
  -25.0090  -33.9720   25.0410 H   0  0  0  0  0  0  0  0  0  0  0  0
  -24.1500  -36.7270   23.2640 C   0  0  0  0  0  1  0  0  0  0  0  0
  -25.4130  -36.3070   24.0320 C   0  0  0  0  0  3  0  0  0  0  0  0
  -27.5580  -37.1790   24.8460 C   0  0  0  0  0  1  0  0  0  0  0  0
  -26.4290  -37.3770   23.9410 N   0  0  0  0  0  0  0  0  0  0  0  0
  -26.0170  -38.2840   24.1420 H   0  0  0  0  0  0  0  0  0  0  0  0
  -27.2380  -17.0920   22.1750 C   0  0  0  0  0  2  0  0  0  0  0  0
  -27.2450  -17.0200   23.7180 C   0  0  0  0  0  2  0  0  0  0  0  0
  -26.2840  -17.9920   24.4320 C   0  0  0  0  0  2  0  0  0  0  0  0
  -25.9260  -20.3420   25.1220 C   0  0  0  0  0  1  0  0  0  0  0  0
  -26.8890  -19.3170   24.6740 N   0  0  0  0  0  4  0  0  0  0  0  0
  -27.6100  -19.2330   25.3750 H   0  0  0  0  0  0  0  0  0  0  0  0
  -27.3280  -19.6370   23.8230 H   0  0  0  0  0  0  0  0  0  0  0  0
  -30.2290  -17.2490   20.9010 C   0  0  0  0  0  0  0  0  0  0  0  0
  -30.6040  -14.6770   20.4960 C   0  0  0  0  0  0  0  0  0  0  0  0
  -30.4300  -12.4150   19.4700 C   0  0  0  0  0  2  0  0  0  0  0  0
  -29.5110  -12.5060   18.2330 C   0  0  0  0  0  2  0  0  0  0  0  0
  -28.0320  -12.3380   18.6410 C   0  0  0  0  0  2  0  0  0  0  0  0
  -27.6460  -13.2170   19.8610 C   0  0  0  0  0  3  0  0  0  0  0  0
  -28.6830  -13.1020   20.9960 C   0  0  0  0  0  2  0  0  0  0  0  0
  -29.9870  -13.4530   20.4250 N   0  0  0  0  0  0  0  0  0  0  0  0
  -31.7740  -14.7990   20.1190 O   0  0  0  0  0  0  0  0  0  0  0  0
  -29.8350  -15.7760   20.8300 N   0  0  0  0  0  4  0  0  0  0  0  0
  -28.8740  -15.5720   21.0540 H   0  0  0  0  0  0  0  0  0  0  0  0
  -25.2460  -13.8060   20.5450 C   0  0  0  0  0  0  0  0  0  0  0  0
  -24.1780  -13.0370   20.9150 C   0  0  0  0  0  0  0  0  0  0  0  0
  -24.6380  -11.6870   20.8750 C   0  0  0  0  0  0  0  0  0  0  0  0
  -26.2950  -12.9300   20.3280 N   0  0  0  0  0  0  0  0  0  0  0  0
  -25.9340  -11.6470   20.5850 N   0  0  0  0  0  0  0  0  0  0  0  0
  -23.9050  -10.4270   21.0440 C   0  0  0  0  0  0  0  0  0  0  0  0
  -24.3630   -9.4190   21.9210 C   0  0  0  0  0  3  0  0  0  0  0  0
  -23.6290   -8.2230   22.0780 C   0  0  0  0  0  3  0  0  0  0  0  0
  -22.4290   -8.0270   21.3550 C   0  0  0  0  0  0  0  0  0  0  0  0
  -21.9910   -9.0240   20.4660 C   0  0  0  0  0  3  0  0  0  0  0  0
  -22.7230  -10.2130   20.3080 C   0  0  0  0  0  3  0  0  0  0  0  0
  -21.6630   -6.8880   21.4230 O   0  0  0  0  0  0  0  0  0  0  0  0
  -21.6860   -6.0750   22.5270 C   0  0  0  0  0  0  0  0  0  0  0  0
  -21.4000   -6.5650   23.8200 C   0  0  0  0  0  3  0  0  0  0  0  0
  -21.3660   -5.6790   24.9160 C   0  0  0  0  0  3  0  0  0  0  0  0
  -21.6050   -4.3060   24.7210 C   0  0  0  0  0  0  0  0  0  0  0  0
  -21.8820   -3.8160   23.4330 C   0  0  0  0  0  3  0  0  0  0  0  0
  -21.9190   -4.6980   22.3390 C   0  0  0  0  0  0  0  0  0  0  0  0
  -22.1660   -4.2190   21.0960 F   0  0  0  0  0  0  0  0  0  0  0  0
  -21.5640   -3.4520   25.7720 F   0  0  0  0  0  0  0  0  0  0  0  0
  -22.7830  -13.5210   21.1790 C   0  0  0  0  0  0  0  0  0  0  0  0
  -22.0450  -12.8250   22.0380 N   0  0  0  0  0  0  0  0  0  0  0  0
  -22.3540  -14.5510   20.6610 O   0  0  0  0  0  0  0  0  0  0  0  0
  -22.4040  -11.9930   22.4830 H   0  0  0  0  0  0  0  0  0  0  0  0
  -21.1070  -13.1320   22.2540 H   0  0  0  0  0  0  0  0  0  0  0  0
  -25.3940  -15.1680   20.3360 N   0  0  0  0  0  0  0  0  0  0  0  0
  -24.5820  -15.7750   20.3610 H   0  0  0  0  0  0  0  0  0  0  0  0
  -26.1810  -15.5820   19.8570 H   0  0  0  0  0  0  0  0  0  0  0  0
  -31.1930  -16.7210   23.2710 C   0  0  0  0  0  1  0  0  0  0  0  0
  -31.9580  -18.8270   22.1070 C   0  0  0  0  0  1  0  0  0  0  0  0
  -31.4270  -17.3990   21.9040 C   0  0  0  0  0  3  0  0  0  0  0  0
  1  2  1  0
  2  5  2  0
  3  4  1  0
  3  6  2  0
  4  1  2  0
  5 51  1  0
  6  5  1  0
  7  8  1  0
  7  4  1  0
  9 10  1  0
  9  8  2  0
 11 22  2  0
 12 10  1  0
 12 17  1  0
 13 21  1  0
 13 23  1  0
 14 20  1  0
 14 16  1  0
 15 21  1  0
 16 15  1  0
 17 16  2  0
 18 19  1  0
 18 12  2  0
 19 14  2  0
 20 13  1  0
 21 11  1  0
 23 25  2  0
 24 23  1  0
 26 24  1  0
 27 36  2  0
 27 32  1  0
 28 24  1  0
 28 32  1  0
 29 28  1  0
 30 31  1  0
 30 29  1  0
 31 27  1  0
 32 33  2  0
 33 34  1  0
 35 34  2  0
 36 35  1  0
 37 11  1  0
 37 42  1  0
 37 38  1  0
 38 41  1  1
 38 39  1  0
 40 38  1  0
 42 45  1  0
 43 47  1  0
 43 42  1  0
 44 43  2  0
 47 46  1  0
 49 47  1  0
 49 50  1  0
 49 48  1  0
 51 52  1  0
 52 53  1  0
 53 55  1  0
 55 54  1  0
 55 56  1  0
 57 55  1  0
 58  6  1  0
 58 99  1  0
 59 67  1  0
 60 65  1  0
 61 62  1  0
 61 60  1  0
 63 62  1  0
 63 72  1  0
 63 64  1  0
 65 59  1  0
 65 64  1  0
 66 59  2  0
 67 58  2  0
 67 68  1  0
 69 70  2  0
 70 89  1  0
 71 70  1  0
 71 74  1  0
 72 69  1  0
 72 73  1  0
 73 71  2  0
 74 75  1  0
 75 76  2  0
 77 80  1  0
 77 76  1  0
 78 77  2  0
 79 78  1  0
 79 74  2  0
 80 81  1  0
 81 82  1  0
 82 83  2  0
 84 83  1  0
 84 88  1  0
 85 84  2  0
 86 81  2  0
 86 85  1  0
 87 86  1  0
 89 90  1  0
 90 93  1  0
 90 92  1  0
 91 89  2  0
 94 95  1  0
 94 69  1  0
 96 94  1  0
 99 98  1  0
 99 97  1  0
M  ISO  4   9 101  10 101  59 100  67 100
M  END
>  <TORSDO>  (12) 
F 25

>  <SCORE>  (12) 
35.505

>  <name>  (12) 
11

>  <ligand_id>  (12) 
11

>  <original_smiles>  (12) 
[H]c1c([H])c([H])c2c(c1[H])C([H])([H])C([H])([H])C([H])([H])C2([H])N([H])C(=O)C1([H])N(C(=O)C([H])(N([H])C(=O)C([H])(N([H])C([H])([H])[H])C([H])([H])[H])C(C([H])([H])[H])(C([H])([H])[H])C([H])([H])[H])C([H])([H])c2c([H])c(OC([H])([H])C([H])([H])C([H])([H])c3c([H])c([H])c(C([H])([H])C([H])([H])C([H])([H])[N+]([H])([H])C([H])([H])[H])c(C([H])(N([H])C(=O)N4C([H])([H])C([H])([H])C([H])([H])C([H])(n5nc(-c6c([H])c([H])c(Oc7c([H])c([H])c(F)c([H])c7F)c([H])c6[H])c(C(=O)N([H])[H])c5N([H])[H])C4([H])[H])C([H])(C([H])([H])[H])C([H])([H])[H])c3[H])c([H])c([H])c2C1([H])[H]

>  <smiles>  (12) 
[H]c1c([H])c([H])c2c(c1[H])C([H])([H])C([H])([H])C([H])([H])C2([H])N([H])C(=O)C1([H])N(C(=O)C([H])(N([H])C(=O)C([H])(N([H])C([H])([H])[H])C([H])([H])[H])C(C([H])([H])[H])(C([H])([H])[H])C([H])([H])[H])C([H])([H])c2c([H])c(OC([H])([H])C([H])([H])C([H])([H])c3c([H])c([H])c(C([H])([H])C([H])([H])C([H])([H])[N+]([H])([H])C([H])([H])[H])c(C([H])(N([H])C(=O)N4C([H])([H])C([H])([H])C([H])([H])C([H])(n5nc(-c6c([H])c([H])c(Oc7c([H])c([H])c(F)c([H])c7F)c([H])c6[H])c(C(=O)N([H])[H])c5N([H])[H])C4([H])[H])C([H])(C([H])([H])[H])C([H])([H])[H])c3[H])c([H])c([H])c2C1([H])[H]

$$$$
12:0:0
     RDKit          3D

 85 92  0  0  1  0  0  0  0  0999 V2000
  -30.0110  -22.4700   19.2120 C   0  0  0  0  0  1  0  0  0  0  0  0
  -29.6760  -22.4560   21.6820 C   0  0  0  0  0  1  0  0  0  0  0  0
  -28.9750  -22.2760   20.3280 C   0  0  2  0  0  0  0  0  0  0  0  0
  -28.7020  -20.3700   20.2830 C   0  0  0  0  0  3  0  0  0  0  0  0
  -29.7340  -18.7450   20.3110 C   0  0  0  0  0  3  0  0  0  0  0  0
  -30.2640  -15.6440   20.2080 C   0  0  0  0  0  0  0  0  0  0  0  0
  -30.3350  -13.1300   19.3480 C   0  0  0  0  0  2  0  0  0  0  0  0
  -29.4200  -12.7710   18.1440 C   0  0  0  0  0  2  0  0  0  0  0  0
  -28.0010  -12.4200   18.6180 C   0  0  0  0  0  2  0  0  0  0  0  0
  -27.5160  -13.3990   19.7100 C   0  0  0  0  0  3  0  0  0  0  0  0
  -28.5660  -13.6770   20.8100 C   0  0  0  0  0  2  0  0  0  0  0  0
  -29.7330  -14.2920   20.1390 N   0  0  0  0  0  0  0  0  0  0  0  0
  -31.4920  -15.5980   20.0100 O   0  0  0  0  0  0  0  0  0  0  0  0
  -29.5080  -16.9930   20.3080 N   0  0  0  0  0  0  0  0  0  0  0  0
  -28.5260  -16.7810   20.4090 H   0  0  0  0  0  0  0  0  0  0  0  0
  -25.1630  -13.9060   20.5270 C   0  0  0  0  0  0  0  0  0  0  0  0
  -24.1170  -13.1130   20.9020 C   0  0  0  0  0  0  0  0  0  0  0  0
  -24.5980  -11.7690   20.8430 C   0  0  0  0  0  0  0  0  0  0  0  0
  -26.2100  -13.0480   20.2500 N   0  0  0  0  0  0  0  0  0  0  0  0
  -25.8850  -11.7530   20.5090 N   0  0  0  0  0  0  0  0  0  0  0  0
  -23.8840  -10.4970   21.0260 C   0  0  0  0  0  0  0  0  0  0  0  0
  -24.3180   -9.5330   21.9630 C   0  0  0  0  0  3  0  0  0  0  0  0
  -23.6000   -8.3300   22.1360 C   0  0  0  0  0  3  0  0  0  0  0  0
  -22.4330   -8.0820   21.3750 C   0  0  0  0  0  0  0  0  0  0  0  0
  -22.0180   -9.0360   20.4280 C   0  0  0  0  0  3  0  0  0  0  0  0
  -22.7380  -10.2290   20.2520 C   0  0  0  0  0  3  0  0  0  0  0  0
  -21.6880   -6.9310   21.4570 O   0  0  0  0  0  0  0  0  0  0  0  0
  -21.6110   -6.2050   22.6180 C   0  0  0  0  0  0  0  0  0  0  0  0
  -21.1070   -6.7620   23.8130 C   0  0  0  0  0  3  0  0  0  0  0  0
  -20.9810   -5.9600   24.9650 C   0  0  0  0  0  3  0  0  0  0  0  0
  -21.3480   -4.6010   24.9220 C   0  0  0  0  0  0  0  0  0  0  0  0
  -21.8450   -4.0440   23.7310 C   0  0  0  0  0  3  0  0  0  0  0  0
  -21.9730   -4.8420   22.5820 C   0  0  0  0  0  0  0  0  0  0  0  0
  -22.4320   -4.2950   21.4310 F   0  0  0  0  0  0  0  0  0  0  0  0
  -21.2210   -3.8290   26.0260 F   0  0  0  0  0  0  0  0  0  0  0  0
  -22.7200  -13.5740   21.1960 C   0  0  0  0  0  0  0  0  0  0  0  0
  -22.0120  -12.8660   22.0680 N   0  0  0  0  0  0  0  0  0  0  0  0
  -22.2670  -14.6000   20.6890 O   0  0  0  0  0  0  0  0  0  0  0  0
  -22.3920  -12.0380   22.5000 H   0  0  0  0  0  0  0  0  0  0  0  0
  -21.0750  -13.1580   22.3080 H   0  0  0  0  0  0  0  0  0  0  0  0
  -25.3070  -15.2810   20.3640 N   0  0  0  0  0  0  0  0  0  0  0  0
  -24.5310  -15.9220   20.4920 H   0  0  0  0  0  0  0  0  0  0  0  0
  -26.1350  -15.7320   19.9960 H   0  0  0  0  0  0  0  0  0  0  0  0
  -27.9500  -23.9030   20.1990 C   0  0  0  0  0  2  0  0  0  0  0  0
  -28.1440  -25.6350   20.3030 O   0  0  0  0  0  0  0  0  0  0  0  0
  -24.6490  -31.8710   23.2540 C   0  0  0  0  0  0  0  0  0  0  0  0
  -27.1630  -26.8270   20.2510 C   0  0  0  0  0  0  0  0  0  0  0  0
  -23.4550  -30.4840   21.6130 C   0  0  0  0  0  3  0  0  0  0  0  0
  -24.8960  -28.8400   20.1960 C   0  0  0  0  0  0  0  0  0  0  0  0
  -26.0320  -30.6280   21.4880 C   0  0  0  0  0  2  0  0  0  0  0  0
  -26.0930  -29.2010   20.8290 C   0  0  0  0  0  0  0  0  0  0  0  0
  -27.2120  -28.2220   20.8230 C   0  0  0  0  0  3  0  0  0  0  0  0
  -25.9350  -26.6650   19.5660 C   0  0  0  0  0  3  0  0  0  0  0  0
  -24.8550  -27.5980   19.5400 C   0  0  0  0  0  3  0  0  0  0  0  0
  -23.6910  -29.7910   20.2390 C   0  0  0  0  0  2  0  0  0  0  0  0
  -24.7360  -31.0260   22.1710 N   0  0  0  0  0  0  0  0  0  0  0  0
  -23.5570  -32.1720   23.7670 O   0  0  0  0  0  0  0  0  0  0  0  0
  -22.7370  -29.5040   22.5800 C   0  0  0  0  0  0  0  0  0  0  0  0
  -21.4050  -29.3520   22.4510 N   0  0  0  0  0  0  0  0  0  0  0  0
  -23.3900  -28.8780   23.4180 O   0  0  0  0  0  0  0  0  0  0  0  0
  -20.9290  -29.9080   21.7530 H   0  0  0  0  0  0  0  0  0  0  0  0
  -18.0120  -28.1500   22.9510 C   0  0  0  0  0  0  0  0  0  0  0  0
  -20.5730  -28.4180   23.2190 C   0  0  0  0  0  3  0  0  0  0  0  0
  -20.6740  -26.9840   22.6460 C   0  0  0  0  0  2  0  0  0  0  0  0
  -19.5750  -26.6630   21.6280 C   0  0  0  0  0  2  0  0  0  0  0  0
  -18.1920  -26.8040   22.2680 C   0  0  0  0  0  2  0  0  0  0  0  0
  -19.1300  -28.9150   23.3830 C   0  0  0  0  0  0  0  0  0  0  0  0
  -18.9060  -30.1710   23.9860 C   0  0  0  0  0  3  0  0  0  0  0  0
  -17.5990  -30.6650   24.1570 C   0  0  0  0  0  3  0  0  0  0  0  0
  -16.4970  -29.9000   23.7390 C   0  0  0  0  0  3  0  0  0  0  0  0
  -16.7040  -28.6430   23.1420 C   0  0  0  0  0  3  0  0  0  0  0  0
  -25.9160  -32.5120   23.8980 C   0  0  0  0  0  3  0  0  0  0  0  0
  -26.4020  -31.7530   25.1950 C   0  0  1  0  0  0  0  0  0  0  0  0
  -25.2880  -31.5400   26.2480 C   0  0  0  0  0  1  0  0  0  0  0  0
  -26.9770  -30.3630   24.8410 C   0  0  0  0  0  1  0  0  0  0  0  0
  -27.5500  -32.5430   25.8650 C   0  0  0  0  0  1  0  0  0  0  0  0
  -25.6030  -33.9160   24.2290 N   0  0  0  0  0  0  0  0  0  0  0  0
  -25.9240  -34.9770   23.4750 C   0  0  0  0  0  0  0  0  0  0  0  0
  -26.5740  -34.8760   22.4320 O   0  0  0  0  0  0  0  0  0  0  0  0
  -25.0210  -34.0660   25.0400 H   0  0  0  0  0  0  0  0  0  0  0  0
  -24.1880  -36.7800   23.1870 C   0  0  0  0  0  1  0  0  0  0  0  0
  -25.4570  -36.3690   23.9520 C   0  0  0  0  0  3  0  0  0  0  0  0
  -27.6140  -37.2620   24.7150 C   0  0  0  0  0  1  0  0  0  0  0  0
  -26.4840  -37.4230   23.8030 N   0  0  0  0  0  0  0  0  0  0  0  0
  -26.0820  -38.3430   23.9550 H   0  0  0  0  0  0  0  0  0  0  0  0
  3  1  1  6
  3  2  1  0
  4  5  2  0
  4  3  1  0
  6 14  1  0
  7 12  1  0
  8  9  1  0
  8  7  1  0
 10  9  1  0
 10 19  1  0
 10 11  1  0
 12  6  1  0
 12 11  1  0
 13  6  2  0
 14  5  1  0
 14 15  1  0
 16 17  2  0
 17 36  1  0
 18 17  1  0
 18 21  1  0
 19 20  1  0
 19 16  1  0
 20 18  2  0
 21 22  1  0
 22 23  2  0
 24 27  1  0
 24 23  1  0
 25 24  2  0
 26 25  1  0
 26 21  2  0
 27 28  1  0
 28 29  1  0
 29 30  2  0
 31 30  1  0
 31 35  1  0
 32 31  2  0
 33 28  2  0
 33 32  1  0
 34 33  1  0
 36 37  1  0
 37 40  1  0
 37 39  1  0
 38 36  2  0
 41 42  1  0
 41 16  1  0
 43 41  1  0
 44 45  1  0
 44  3  1  0
 46 57  2  0
 47 45  1  0
 47 52  1  0
 48 56  1  0
 48 58  1  0
 49 55  1  0
 49 51  1  0
 50 56  1  0
 51 50  1  0
 52 51  2  0
 53 47  2  0
 54 53  1  0
 54 49  2  0
 55 48  1  0
 56 46  1  0
 58 60  2  0
 59 58  1  0
 61 59  1  0
 62 71  2  0
 62 67  1  0
 63 59  1  0
 63 67  1  0
 64 63  1  0
 65 66  1  0
 65 64  1  0
 66 62  1  0
 67 68  2  0
 68 69  1  0
 70 69  2  0
 71 70  1  0
 72 46  1  0
 72 77  1  0
 72 73  1  0
 73 76  1  1
 73 74  1  0
 75 73  1  0
 77 80  1  0
 78 82  1  0
 78 77  1  0
 79 78  2  0
 82 81  1  0
 84 82  1  0
 84 85  1  0
 84 83  1  0
M  ISO  4   6 100  14 100  44 101  45 101
M  END
>  <TORSDO>  (13) 
F 19

>  <SCORE>  (13) 
-16.417

>  <name>  (13) 
12

>  <ligand_id>  (13) 
12

>  <original_smiles>  (13) 
[H]c1c([H])c([H])c2c(c1[H])C([H])([H])C([H])([H])C([H])([H])C2([H])N([H])C(=O)C1([H])N(C(=O)C([H])(N([H])C(=O)C([H])(N([H])C([H])([H])[H])C([H])([H])[H])C(C([H])([H])[H])(C([H])([H])[H])C([H])([H])[H])C([H])([H])c2c([H])c(OC([H])([H])C(C([H])([H])[H])(C([H])([H])[H])C([H])([H])C([H])([H])N([H])C(=O)N3C([H])([H])C([H])([H])C([H])([H])C([H])(n4nc(-c5c([H])c([H])c(Oc6c([H])c([H])c(F)c([H])c6F)c([H])c5[H])c(C(=O)N([H])[H])c4N([H])[H])C3([H])[H])c([H])c([H])c2C1([H])[H]

>  <smiles>  (13) 
[H]c1c([H])c([H])c2c(c1[H])C([H])([H])C([H])([H])C([H])([H])C2([H])N([H])C(=O)C1([H])N(C(=O)C([H])(N([H])C(=O)C([H])(N([H])C([H])([H])[H])C([H])([H])[H])C(C([H])([H])[H])(C([H])([H])[H])C([H])([H])[H])C([H])([H])c2c([H])c(OC([H])([H])C(C([H])([H])[H])(C([H])([H])[H])C([H])([H])C([H])([H])N([H])C(=O)N3C([H])([H])C([H])([H])C([H])([H])C([H])(n4nc(-c5c([H])c([H])c(Oc6c([H])c([H])c(F)c([H])c6F)c([H])c5[H])c(C(=O)N([H])[H])c4N([H])[H])C3([H])[H])c([H])c([H])c2C1([H])[H]

$$$$
13:0:0
     RDKit          3D

 95103  0  0  1  0  0  0  0  0999 V2000
  -29.1170  -21.8880   18.1260 C   0  0  0  0  0  0  0  0  0  0  0  0
  -28.7940  -22.3020   19.4690 C   0  0  0  0  0  0  0  0  0  0  0  0
  -29.8380  -20.6890   18.1230 C   0  0  0  0  0  0  0  0  0  0  0  0
  -29.1420  -21.1650   20.2180 C   0  0  0  0  0  0  0  0  0  0  0  0
  -28.7200  -22.7060   16.9060 C   0  0  0  0  0  1  0  0  0  0  0  0
  -28.9470  -20.9420   21.6860 C   0  0  0  0  0  1  0  0  0  0  0  0
  -29.7440  -20.1240   19.4230 N   0  0  0  0  0  0  0  0  0  0  0  0
  -30.4660  -20.6710   15.5630 C   0  0  0  0  0  1  0  0  0  0  0  0
  -30.5480  -18.5670   16.7580 C   0  0  0  0  0  1  0  0  0  0  0  0
  -32.1880  -20.3650   17.2790 C   0  0  0  0  0  1  0  0  0  0  0  0
  -30.7050  -20.0820   16.9760 C   0  0  2  0  0  0  0  0  0  0  0  0
  -26.5780  -23.3160   20.2640 C   0  0  0  0  0  1  0  0  0  0  0  0
  -28.0000  -23.6960   19.8140 C   0  0  0  0  0  3  0  0  0  0  0  0
  -28.5400  -24.9700   20.6830 C   0  0  0  0  0  2  0  0  0  0  0  0
  -28.5410  -26.4310   20.2420 O   0  0  0  0  0  0  0  0  0  0  0  0
  -24.6720  -31.8700   23.2190 C   0  0  0  0  0  0  0  0  0  0  0  0
  -27.4070  -27.2790   20.2460 C   0  0  0  0  0  0  0  0  0  0  0  0
  -23.5270  -30.4420   21.5690 C   0  0  0  0  0  3  0  0  0  0  0  0
  -25.0250  -28.8970   20.1760 C   0  0  0  0  0  0  0  0  0  0  0  0
  -26.0660  -30.7860   21.4270 C   0  0  0  0  0  2  0  0  0  0  0  0
  -26.1790  -29.3990   20.7900 C   0  0  0  0  0  0  0  0  0  0  0  0
  -27.3760  -28.6060   20.8100 C   0  0  0  0  0  3  0  0  0  0  0  0
  -26.2350  -26.8530   19.5950 C   0  0  0  0  0  3  0  0  0  0  0  0
  -25.0570  -27.6300   19.5710 C   0  0  0  0  0  3  0  0  0  0  0  0
  -23.7760  -29.7590   20.1970 C   0  0  0  0  0  2  0  0  0  0  0  0
  -24.7740  -31.0510   22.1280 N   0  0  0  0  0  0  0  0  0  0  0  0
  -23.5740  -32.1340   23.7270 O   0  0  0  0  0  0  0  0  0  0  0  0
  -22.8600  -29.4230   22.5230 C   0  0  0  0  0  0  0  0  0  0  0  0
  -21.5430  -29.2070   22.3510 N   0  0  0  0  0  0  0  0  0  0  0  0
  -23.5240  -28.8260   23.3730 O   0  0  0  0  0  0  0  0  0  0  0  0
  -21.0710  -29.7380   21.6340 H   0  0  0  0  0  0  0  0  0  0  0  0
  -18.1840  -27.9050   22.7480 C   0  0  0  0  0  0  0  0  0  0  0  0
  -20.7230  -28.2530   23.1020 C   0  0  0  0  0  3  0  0  0  0  0  0
  -20.8900  -26.8200   22.5500 C   0  0  0  0  0  2  0  0  0  0  0  0
  -19.8360  -26.4490   21.5040 C   0  0  0  0  0  2  0  0  0  0  0  0
  -18.4270  -26.5570   22.0930 C   0  0  0  0  0  2  0  0  0  0  0  0
  -19.2620  -28.7100   23.2040 C   0  0  0  0  0  0  0  0  0  0  0  0
  -18.9840  -29.9710   23.7740 C   0  0  0  0  0  3  0  0  0  0  0  0
  -17.6570  -30.4320   23.8880 C   0  0  0  0  0  3  0  0  0  0  0  0
  -16.5930  -29.6270   23.4470 C   0  0  0  0  0  3  0  0  0  0  0  0
  -16.8570  -28.3640   22.8850 C   0  0  0  0  0  3  0  0  0  0  0  0
  -25.9280  -32.5250   23.8690 C   0  0  0  0  0  3  0  0  0  0  0  0
  -25.5860  -33.9180   24.1950 N   0  0  0  0  0  0  0  0  0  0  0  0
  -25.8990  -34.9770   23.4360 C   0  0  0  0  0  0  0  0  0  0  0  0
  -26.5770  -34.8840   22.4090 O   0  0  0  0  0  0  0  0  0  0  0  0
  -24.9790  -34.0630   24.9880 H   0  0  0  0  0  0  0  0  0  0  0  0
  -24.1290  -36.7290   23.0760 C   0  0  0  0  0  1  0  0  0  0  0  0
  -25.3790  -36.3560   23.8860 C   0  0  0  0  0  3  0  0  0  0  0  0
  -27.4920  -37.2910   24.7180 C   0  0  0  0  0  1  0  0  0  0  0  0
  -26.3900  -37.4290   23.7680 N   0  0  0  0  0  0  0  0  0  0  0  0
  -25.9660  -38.3430   23.9060 H   0  0  0  0  0  0  0  0  0  0  0  0
  -26.4280  -31.7660   25.1590 C   0  0  1  0  0  0  0  0  0  0  0  0
  -25.3140  -31.5050   26.2030 C   0  0  0  0  0  1  0  0  0  0  0  0
  -27.0510  -30.4010   24.7850 C   0  0  0  0  0  1  0  0  0  0  0  0
  -27.5550  -32.5840   25.8370 C   0  0  0  0  0  1  0  0  0  0  0  0
  -30.3410  -18.7740   19.9450 C   0  0  0  0  0  3  0  0  0  0  0  0
  -29.7330  -17.2800   19.6280 C   0  0  0  0  0  3  0  0  0  0  0  0
  -30.9290  -14.8890   19.9360 C   0  0  0  0  0  0  0  0  0  0  0  0
  -30.6800  -12.5960   18.9450 C   0  0  0  0  0  2  0  0  0  0  0  0
  -29.6680  -12.6520   17.7760 C   0  0  0  0  0  2  0  0  0  0  0  0
  -28.2220  -12.5020   18.2860 C   0  0  0  0  0  2  0  0  0  0  0  0
  -27.9290  -13.3980   19.5160 C   0  0  0  0  0  3  0  0  0  0  0  0
  -29.0450  -13.2850   20.5760 C   0  0  0  0  0  2  0  0  0  0  0  0
  -30.3060  -13.6540   19.9180 N   0  0  0  0  0  0  0  0  0  0  0  0
  -32.0470  -15.0030   19.4260 O   0  0  0  0  0  0  0  0  0  0  0  0
  -30.2270  -16.2660   21.8200 C   0  0  0  0  0  1  0  0  0  0  0  0
  -30.2230  -16.0200   20.3790 N   0  0  0  0  0  0  0  0  0  0  0  0
  -25.6100  -14.0330   20.4080 C   0  0  0  0  0  0  0  0  0  0  0  0
  -24.5440  -13.2810   20.8150 C   0  0  0  0  0  0  0  0  0  0  0  0
  -24.9620  -11.9170   20.7160 C   0  0  0  0  0  0  0  0  0  0  0  0
  -26.6090  -13.1330   20.0790 N   0  0  0  0  0  0  0  0  0  0  0  0
  -26.2300  -11.8520   20.3290 N   0  0  0  0  0  0  0  0  0  0  0  0
  -24.2110  -10.6700   20.9070 C   0  0  0  0  0  0  0  0  0  0  0  0
  -24.6190   -9.6970   21.8450 C   0  0  0  0  0  3  0  0  0  0  0  0
  -23.8670   -8.5160   22.0260 C   0  0  0  0  0  3  0  0  0  0  0  0
  -22.6930   -8.3000   21.2670 C   0  0  0  0  0  0  0  0  0  0  0  0
  -22.3030   -9.2600   20.3190 C   0  0  0  0  0  3  0  0  0  0  0  0
  -23.0550  -10.4320   20.1350 C   0  0  0  0  0  3  0  0  0  0  0  0
  -21.9120   -7.1720   21.3570 O   0  0  0  0  0  0  0  0  0  0  0  0
  -21.7740   -6.4840   22.5380 C   0  0  0  0  0  0  0  0  0  0  0  0
  -21.2450   -7.0940   23.6960 C   0  0  0  0  0  3  0  0  0  0  0  0
  -21.0570   -6.3330   24.8670 C   0  0  0  0  0  3  0  0  0  0  0  0
  -21.3850   -4.9650   24.8800 C   0  0  0  0  0  0  0  0  0  0  0  0
  -21.9060   -4.3550   23.7250 C   0  0  0  0  0  3  0  0  0  0  0  0
  -22.0970   -5.1120   22.5560 C   0  0  0  0  0  0  0  0  0  0  0  0
  -22.5790   -4.5160   21.4400 F   0  0  0  0  0  0  0  0  0  0  0  0
  -21.1960   -4.2320   26.0020 F   0  0  0  0  0  0  0  0  0  0  0  0
  -23.1800  -13.7870   21.1850 C   0  0  0  0  0  0  0  0  0  0  0  0
  -22.4850  -13.0850   22.0720 N   0  0  0  0  0  0  0  0  0  0  0  0
  -22.7440  -14.8390   20.7240 O   0  0  0  0  0  0  0  0  0  0  0  0
  -22.8520  -12.2290   22.4650 H   0  0  0  0  0  0  0  0  0  0  0  0
  -21.5740  -13.4060   22.3650 H   0  0  0  0  0  0  0  0  0  0  0  0
  -25.8060  -15.4050   20.2630 N   0  0  0  0  0  0  0  0  0  0  0  0
  -25.0750  -16.0820   20.4540 H   0  0  0  0  0  0  0  0  0  0  0  0
  -26.6490  -15.8260   19.8950 H   0  0  0  0  0  0  0  0  0  0  0  0
  1  2  1  0
  2 13  1  0
  2  4  2  0
  3  1  2  0
  3  7  1  0
  4  6  1  0
  5  1  1  0
  7 56  1  0
  7  4  1  0
 11  8  1  6
  9 11  1  0
 11 10  1  0
 11  3  1  0
 13 12  1  0
 13 14  1  0
 15 17  1  0
 15 14  1  0
 16 27  2  0
 17 22  1  0
 18 26  1  0
 18 28  1  0
 19 25  1  0
 19 21  1  0
 20 26  1  0
 21 22  2  0
 21 20  1  0
 23 17  2  0
 24 23  1  0
 24 19  2  0
 25 18  1  0
 26 16  1  0
 28 30  2  0
 29 28  1  0
 31 29  1  0
 32 41  2  0
 32 37  1  0
 33 29  1  0
 33 37  1  0
 34 33  1  0
 35 36  1  0
 35 34  1  0
 36 32  1  0
 37 38  2  0
 38 39  1  0
 40 39  2  0
 41 40  1  0
 42 16  1  0
 42 43  1  0
 42 52  1  0
 43 46  1  0
 44 48  1  0
 44 43  1  0
 45 44  2  0
 48 47  1  0
 50 48  1  0
 50 51  1  0
 50 49  1  0
 52 55  1  1
 52 53  1  0
 54 52  1  0
 57 56  2  0
 57 67  1  0
 58 67  1  0
 59 64  1  0
 60 61  1  0
 60 59  1  0
 62 61  1  0
 62 71  1  0
 62 63  1  0
 64 58  1  0
 64 63  1  0
 65 58  2  0
 67 66  1  0
 68 69  2  0
 69 88  1  0
 70 69  1  0
 70 73  1  0
 71 72  1  0
 71 68  1  0
 72 70  2  0
 73 74  1  0
 74 75  2  0
 76 79  1  0
 76 75  1  0
 77 76  2  0
 78 77  1  0
 78 73  2  0
 79 80  1  0
 80 85  2  0
 80 81  1  0
 81 82  2  0
 82 83  1  0
 83 87  1  0
 84 83  2  0
 85 84  1  0
 86 85  1  0
 88 89  1  0
 89 92  1  0
 89 91  1  0
 90 88  2  0
 93 68  1  0
 93 94  1  0
 95 93  1  0
M  ISO  4  14 101  15 101  58 100  67 100
M  END
>  <TORSDO>  (14) 
F 21

>  <SCORE>  (14) 
-13.108

>  <name>  (14) 
13

>  <ligand_id>  (14) 
13

>  <original_smiles>  (14) 
[H]c1c([H])c([H])c2c(c1[H])C([H])([H])C([H])([H])C([H])([H])C2([H])N([H])C(=O)C1([H])N(C(=O)C([H])(N([H])C(=O)C([H])(N([H])C([H])([H])[H])C([H])([H])[H])C(C([H])([H])[H])(C([H])([H])[H])C([H])([H])[H])C([H])([H])c2c([H])c(OC([H])([H])C([H])(c3c(C([H])([H])[H])c(C(C([H])([H])[H])(C([H])([H])[H])C([H])([H])[H])n(C([H])([H])C([H])([H])N(C(=O)N4C([H])([H])C([H])([H])C([H])([H])C([H])(n5nc(-c6c([H])c([H])c(Oc7c([H])c([H])c(F)c([H])c7F)c([H])c6[H])c(C(=O)N([H])[H])c5N([H])[H])C4([H])[H])C([H])([H])[H])c3C([H])([H])[H])C([H])([H])[H])c([H])c([H])c2C1([H])[H]

>  <smiles>  (14) 
[H]c1c([H])c([H])c2c(c1[H])C([H])([H])C([H])([H])C([H])([H])C2([H])N([H])C(=O)C1([H])N(C(=O)C([H])(N([H])C(=O)C([H])(N([H])C([H])([H])[H])C([H])([H])[H])C(C([H])([H])[H])(C([H])([H])[H])C([H])([H])[H])C([H])([H])c2c([H])c(OC([H])([H])C([H])(c3c(C([H])([H])[H])c(C(C([H])([H])[H])(C([H])([H])[H])C([H])([H])[H])n(C([H])([H])C([H])([H])N(C(=O)N4C([H])([H])C([H])([H])C([H])([H])C([H])(n5nc(-c6c([H])c([H])c(Oc7c([H])c([H])c(F)c([H])c7F)c([H])c6[H])c(C(=O)N([H])[H])c5N([H])[H])C4([H])[H])C([H])([H])[H])c3C([H])([H])[H])C([H])([H])[H])c([H])c([H])c2C1([H])[H]

$$$$
14:0:0
     RDKit          3D

 95103  0  0  1  0  0  0  0  0999 V2000
  -30.0890  -19.8160   21.4500 C   0  0  0  0  0  3  0  0  0  0  0  0
  -28.6790  -19.8030   19.5900 C   0  0  0  0  0  3  0  0  0  0  0  0
  -29.5570  -19.0110   20.4070 C   0  0  0  0  0  0  0  0  0  0  0  0
  -29.7760  -21.2160   21.6440 C   0  0  0  0  0  0  0  0  0  0  0  0
  -28.9320  -21.9490   20.7230 C   0  0  0  0  0  0  0  0  0  0  0  0
  -28.3640  -21.1560   19.7510 N   0  0  0  0  0  0  0  0  0  0  0  0
  -31.8840  -22.1870   22.6460 C   0  0  0  0  0  1  0  0  0  0  0  0
  -30.1840  -21.0610   24.1700 C   0  0  0  0  0  1  0  0  0  0  0  0
  -30.4000  -21.8790   22.8820 C   0  0  0  0  0  3  0  0  0  0  0  0
  -30.1670  -17.5280   20.0310 C   0  0  0  0  0  2  0  0  0  0  0  0
  -30.5210  -14.8850   20.3120 C   0  0  0  0  0  0  0  0  0  0  0  0
  -30.3460  -12.5600   19.3530 C   0  0  0  0  0  2  0  0  0  0  0  0
  -29.3910  -12.5530   18.1390 C   0  0  0  0  0  2  0  0  0  0  0  0
  -27.9350  -12.3590   18.5960 C   0  0  0  0  0  2  0  0  0  0  0  0
  -27.5600  -13.2670   19.7980 C   0  0  0  0  0  3  0  0  0  0  0  0
  -28.6380  -13.2470   20.9050 C   0  0  0  0  0  2  0  0  0  0  0  0
  -29.9040  -13.6400   20.2790 N   0  0  0  0  0  0  0  0  0  0  0  0
  -31.7080  -14.9420   19.9750 O   0  0  0  0  0  0  0  0  0  0  0  0
  -29.7790  -16.0790   20.4860 N   0  0  0  0  0  0  0  0  0  0  0  0
  -28.8190  -15.9460   20.7660 H   0  0  0  0  0  0  0  0  0  0  0  0
  -25.1890  -13.8400   20.5740 C   0  0  0  0  0  0  0  0  0  0  0  0
  -24.1310  -13.0610   20.9520 C   0  0  0  0  0  0  0  0  0  0  0  0
  -24.5950  -11.7100   20.9020 C   0  0  0  0  0  0  0  0  0  0  0  0
  -26.2300  -12.9650   20.3120 N   0  0  0  0  0  0  0  0  0  0  0  0
  -25.8820  -11.6770   20.5730 N   0  0  0  0  0  0  0  0  0  0  0  0
  -23.8710  -10.4460   21.0900 C   0  0  0  0  0  0  0  0  0  0  0  0
  -24.3210   -9.4660   22.0010 C   0  0  0  0  0  3  0  0  0  0  0  0
  -23.5960   -8.2670   22.1790 C   0  0  0  0  0  3  0  0  0  0  0  0
  -22.4070   -8.0410   21.4460 C   0  0  0  0  0  0  0  0  0  0  0  0
  -21.9750   -9.0110   20.5240 C   0  0  0  0  0  3  0  0  0  0  0  0
  -22.7010  -10.2000   20.3450 C   0  0  0  0  0  3  0  0  0  0  0  0
  -21.6530   -6.8960   21.5350 O   0  0  0  0  0  0  0  0  0  0  0  0
  -21.6360   -6.1320   22.6730 C   0  0  0  0  0  0  0  0  0  0  0  0
  -21.2460   -6.6640   23.9210 C   0  0  0  0  0  3  0  0  0  0  0  0
  -21.1770   -5.8270   25.0530 C   0  0  0  0  0  3  0  0  0  0  0  0
  -21.4870   -4.4580   24.9370 C   0  0  0  0  0  0  0  0  0  0  0  0
  -21.8690   -3.9250   23.6930 C   0  0  0  0  0  3  0  0  0  0  0  0
  -21.9390   -4.7610   22.5640 C   0  0  0  0  0  0  0  0  0  0  0  0
  -22.2890   -4.2380   21.3630 F   0  0  0  0  0  0  0  0  0  0  0  0
  -21.4120   -3.6520   26.0210 F   0  0  0  0  0  0  0  0  0  0  0  0
  -22.7380  -13.5350   21.2470 C   0  0  0  0  0  0  0  0  0  0  0  0
  -22.0230  -12.8300   22.1140 N   0  0  0  0  0  0  0  0  0  0  0  0
  -22.2960  -14.5680   20.7450 O   0  0  0  0  0  0  0  0  0  0  0  0
  -22.3950  -11.9950   22.5420 H   0  0  0  0  0  0  0  0  0  0  0  0
  -21.0890  -13.1290   22.3560 H   0  0  0  0  0  0  0  0  0  0  0  0
  -25.3470  -15.2130   20.4070 N   0  0  0  0  0  0  0  0  0  0  0  0
  -24.5750  -15.8560   20.5450 H   0  0  0  0  0  0  0  0  0  0  0  0
  -26.1710  -15.6600   20.0290 H   0  0  0  0  0  0  0  0  0  0  0  0
  -28.4290  -23.5050   20.9800 C   0  0  0  0  0  3  0  0  0  0  0  0
  -27.1760  -23.4010   21.7420 N   0  0  0  0  0  4  0  0  0  0  0  0
  -26.4530  -23.0300   21.1510 H   0  0  0  0  0  0  0  0  0  0  0  0
  -26.8970  -24.2980   22.0960 H   0  0  0  0  0  0  0  0  0  0  0  0
  -27.2970  -22.7680   22.5120 H   0  0  0  0  0  0  0  0  0  0  0  0
  -28.3010  -24.7700   19.9150 C   0  0  0  0  0  2  0  0  0  0  0  0
  -28.2650  -26.2610   20.3390 O   0  0  0  0  0  0  0  0  0  0  0  0
  -24.5880  -31.8860   23.2360 C   0  0  0  0  0  0  0  0  0  0  0  0
  -27.1680  -27.1780   20.2400 C   0  0  0  0  0  0  0  0  0  0  0  0
  -23.3830  -30.4810   21.6040 C   0  0  0  0  0  3  0  0  0  0  0  0
  -24.8310  -28.8930   20.1950 C   0  0  0  0  0  0  0  0  0  0  0  0
  -25.9340  -30.7510   21.4350 C   0  0  0  0  0  2  0  0  0  0  0  0
  -26.0060  -29.3560   20.7970 C   0  0  0  0  0  0  0  0  0  0  0  0
  -27.1730  -28.5120   20.8040 C   0  0  0  0  0  3  0  0  0  0  0  0
  -25.9640  -26.8010   19.6030 C   0  0  0  0  0  3  0  0  0  0  0  0
  -24.8200  -27.6280   19.5860 C   0  0  0  0  0  3  0  0  0  0  0  0
  -23.6030  -29.7880   20.2320 C   0  0  0  0  0  2  0  0  0  0  0  0
  -24.6550  -31.0600   22.1480 N   0  0  0  0  0  0  0  0  0  0  0  0
  -23.5030  -32.1760   23.7620 O   0  0  0  0  0  0  0  0  0  0  0  0
  -22.7040  -29.4820   22.5730 C   0  0  0  0  0  0  0  0  0  0  0  0
  -21.3770  -29.3100   22.4430 N   0  0  0  0  0  0  0  0  0  0  0  0
  -23.3740  -28.8640   23.4050 O   0  0  0  0  0  0  0  0  0  0  0  0
  -20.8940  -29.8610   21.7470 H   0  0  0  0  0  0  0  0  0  0  0  0
  -17.9950  -28.1140   22.9340 C   0  0  0  0  0  0  0  0  0  0  0  0
  -20.5510  -28.3790   23.2180 C   0  0  0  0  0  3  0  0  0  0  0  0
  -20.6570  -26.9410   22.6600 C   0  0  0  0  0  2  0  0  0  0  0  0
  -19.5620  -26.6060   21.6410 C   0  0  0  0  0  2  0  0  0  0  0  0
  -18.1760  -26.7570   22.2730 C   0  0  0  0  0  2  0  0  0  0  0  0
  -19.1100  -28.8820   23.3620 C   0  0  0  0  0  0  0  0  0  0  0  0
  -18.8830  -30.1520   23.9380 C   0  0  0  0  0  3  0  0  0  0  0  0
  -17.5770  -30.6520   24.0890 C   0  0  0  0  0  3  0  0  0  0  0  0
  -16.4770  -29.8800   23.6770 C   0  0  0  0  0  3  0  0  0  0  0  0
  -16.6870  -28.6120   23.1060 C   0  0  0  0  0  3  0  0  0  0  0  0
  -25.8690  -32.5210   23.8570 C   0  0  0  0  0  3  0  0  0  0  0  0
  -25.5590  -33.9210   24.1860 N   0  0  0  0  0  0  0  0  0  0  0  0
  -25.8940  -34.9730   23.4270 C   0  0  0  0  0  0  0  0  0  0  0  0
  -26.5620  -34.8690   22.3960 O   0  0  0  0  0  0  0  0  0  0  0  0
  -24.9660  -34.0770   24.9870 H   0  0  0  0  0  0  0  0  0  0  0  0
  -24.1710  -36.7730   23.0750 C   0  0  0  0  0  1  0  0  0  0  0  0
  -25.4100  -36.3630   23.8860 C   0  0  0  0  0  3  0  0  0  0  0  0
  -27.5470  -37.2440   24.7170 C   0  0  0  0  0  1  0  0  0  0  0  0
  -26.4460  -37.4140   23.7730 N   0  0  0  0  0  0  0  0  0  0  0  0
  -26.0430  -38.3350   23.9180 H   0  0  0  0  0  0  0  0  0  0  0  0
  -26.3800  -31.7560   25.1400 C   0  0  1  0  0  0  0  0  0  0  0  0
  -25.2840  -31.5240   26.2050 C   0  0  0  0  0  1  0  0  0  0  0  0
  -26.9590  -30.3740   24.7650 C   0  0  0  0  0  1  0  0  0  0  0  0
  -27.5310  -32.5530   25.8000 C   0  0  0  0  0  1  0  0  0  0  0  0
  1  4  1  0
  2  6  2  0
  2  3  1  0
  3  1  2  0
  4  9  1  0
  5 49  1  0
  5  4  2  0
  6  5  1  0
  7  9  1  0
  9  8  1  0
 10  3  1  0
 10 19  1  0
 11 19  1  0
 12 17  1  0
 13 14  1  0
 13 12  1  0
 15 14  1  0
 15 24  1  0
 15 16  1  0
 17 11  1  0
 17 16  1  0
 18 11  2  0
 19 20  1  0
 21 22  2  0
 22 41  1  0
 23 22  1  0
 23 26  1  0
 24 25  1  0
 24 21  1  0
 25 23  2  0
 26 27  1  0
 27 28  2  0
 29 32  1  0
 29 28  1  0
 30 29  2  0
 31 30  1  0
 31 26  2  0
 32 33  1  0
 33 34  1  0
 34 35  2  0
 36 35  1  0
 36 40  1  0
 37 36  2  0
 38 33  2  0
 38 37  1  0
 39 38  1  0
 41 42  1  0
 42 45  1  0
 42 44  1  0
 43 41  2  0
 46 47  1  0
 46 21  1  0
 48 46  1  0
 49 54  1  0
 49 50  1  0
 50 52  1  0
 50 53  1  0
 51 50  1  0
 54 55  1  0
 56 67  2  0
 57 55  1  0
 57 62  1  0
 58 66  1  0
 58 68  1  0
 59 65  1  0
 59 61  1  0
 60 66  1  0
 61 62  2  0
 61 60  1  0
 63 57  2  0
 64 63  1  0
 64 59  2  0
 65 58  1  0
 66 56  1  0
 68 70  2  0
 69 68  1  0
 71 69  1  0
 72 81  2  0
 72 77  1  0
 73 69  1  0
 73 77  1  0
 74 73  1  0
 75 76  1  0
 75 74  1  0
 76 72  1  0
 77 78  2  0
 78 79  1  0
 80 79  2  0
 81 80  1  0
 82 56  1  0
 82 83  1  0
 82 92  1  0
 83 86  1  0
 84 88  1  0
 84 83  1  0
 85 84  2  0
 88 87  1  0
 90 88  1  0
 90 91  1  0
 90 89  1  0
 92 95  1  1
 92 93  1  0
 94 92  1  0
M  ISO  4  11 100  19 100  54 101  55 101
M  END
>  <TORSDO>  (15) 
F 21

>  <SCORE>  (15) 
-13.406

>  <name>  (15) 
14

>  <ligand_id>  (15) 
14

>  <original_smiles>  (15) 
[H]c1nc(C([H])(C([H])([H])Oc2c([H])c([H])c3c(c2[H])C([H])([H])N(C(=O)C([H])(N([H])C(=O)C([H])(N([H])C([H])([H])[H])C([H])([H])[H])C(C([H])([H])[H])(C([H])([H])[H])C([H])([H])[H])C([H])(C(=O)N([H])C2([H])c4c([H])c([H])c([H])c([H])c4C([H])([H])C([H])([H])C2([H])[H])C3([H])[H])[N+]([H])([H])[H])c(C([H])(C([H])([H])[H])C([H])([H])[H])c([H])c1C([H])([H])N([H])C(=O)N1C([H])([H])C([H])([H])C([H])([H])C([H])(n2nc(-c3c([H])c([H])c(Oc4c([H])c([H])c(F)c([H])c4F)c([H])c3[H])c(C(=O)N([H])[H])c2N([H])[H])C1([H])[H]

>  <smiles>  (15) 
[H]c1nc(C([H])(C([H])([H])Oc2c([H])c([H])c3c(c2[H])C([H])([H])N(C(=O)C([H])(N([H])C(=O)C([H])(N([H])C([H])([H])[H])C([H])([H])[H])C(C([H])([H])[H])(C([H])([H])[H])C([H])([H])[H])C([H])(C(=O)N([H])C2([H])c4c([H])c([H])c([H])c([H])c4C([H])([H])C([H])([H])C2([H])[H])C3([H])[H])[N+]([H])([H])[H])c(C([H])(C([H])([H])[H])C([H])([H])[H])c([H])c1C([H])([H])N([H])C(=O)N1C([H])([H])C([H])([H])C([H])([H])C([H])(n2nc(-c3c([H])c([H])c(Oc4c([H])c([H])c(F)c([H])c4F)c([H])c3[H])c(C(=O)N([H])[H])c2N([H])[H])C1([H])[H]

$$$$
15:0:0
     RDKit          3D

 91 99  0  0  1  0  0  0  0  0999 V2000
  -29.2380  -23.1840   20.0690 C   0  0  0  0  0  3  0  0  0  0  0  0
  -28.4520  -20.3120   20.6930 C   0  0  0  0  0  2  0  0  0  0  0  0
  -30.5260  -20.6040   19.5110 C   0  0  0  0  0  2  0  0  0  0  0  0
  -28.4310  -18.7320   20.1970 C   0  0  0  0  0  2  0  0  0  0  0  0
  -30.8390  -19.0600   20.0240 C   0  0  0  0  0  2  0  0  0  0  0  0
  -29.1450  -21.4370   19.7810 C   0  0  0  0  0  3  0  0  0  0  0  0
  -29.7700  -17.8750   19.8440 C   0  0  0  0  0  3  0  0  0  0  0  0
  -30.5960  -15.1140   19.9320 C   0  0  0  0  0  0  0  0  0  0  0  0
  -30.3790  -12.7390   18.9640 C   0  0  0  0  0  2  0  0  0  0  0  0
  -29.3790  -12.7030   17.7810 C   0  0  0  0  0  2  0  0  0  0  0  0
  -27.9460  -12.4810   18.2980 C   0  0  0  0  0  2  0  0  0  0  0  0
  -27.6200  -13.3820   19.5200 C   0  0  0  0  0  3  0  0  0  0  0  0
  -28.7460  -13.3790   20.5760 C   0  0  0  0  0  2  0  0  0  0  0  0
  -29.9730  -13.8430   19.9050 N   0  0  0  0  0  0  0  0  0  0  0  0
  -31.7160  -15.1450   19.4050 O   0  0  0  0  0  0  0  0  0  0  0  0
  -29.9610  -16.4280   21.8780 C   0  0  0  0  0  1  0  0  0  0  0  0
  -29.9720  -16.3510   20.4080 N   0  0  0  0  0  0  0  0  0  0  0  0
  -25.3050  -13.9570   20.4400 C   0  0  0  0  0  0  0  0  0  0  0  0
  -24.2590  -13.1810   20.8590 C   0  0  0  0  0  0  0  0  0  0  0  0
  -24.7020  -11.8270   20.7570 C   0  0  0  0  0  0  0  0  0  0  0  0
  -26.3170  -13.0750   20.1000 N   0  0  0  0  0  0  0  0  0  0  0  0
  -25.9690  -11.7870   20.3520 N   0  0  0  0  0  0  0  0  0  0  0  0
  -23.9710  -10.5700   20.9630 C   0  0  0  0  0  0  0  0  0  0  0  0
  -24.4280   -9.5890   21.8680 C   0  0  0  0  0  3  0  0  0  0  0  0
  -23.6970   -8.3970   22.0640 C   0  0  0  0  0  3  0  0  0  0  0  0
  -22.4930   -8.1780   21.3510 C   0  0  0  0  0  0  0  0  0  0  0  0
  -22.0550   -9.1470   20.4310 C   0  0  0  0  0  3  0  0  0  0  0  0
  -22.7880  -10.3310   20.2370 C   0  0  0  0  0  3  0  0  0  0  0  0
  -21.7320   -7.0400   21.4520 O   0  0  0  0  0  0  0  0  0  0  0  0
  -21.6830   -6.3100   22.6140 C   0  0  0  0  0  0  0  0  0  0  0  0
  -21.2790   -6.8830   23.8390 C   0  0  0  0  0  3  0  0  0  0  0  0
  -21.1760   -6.0800   24.9920 C   0  0  0  0  0  3  0  0  0  0  0  0
  -21.4670   -4.7050   24.9220 C   0  0  0  0  0  0  0  0  0  0  0  0
  -21.8620   -4.1300   23.7020 C   0  0  0  0  0  3  0  0  0  0  0  0
  -21.9680   -4.9300   22.5510 C   0  0  0  0  0  0  0  0  0  0  0  0
  -22.3290   -4.3670   21.3730 F   0  0  0  0  0  0  0  0  0  0  0  0
  -21.3610   -3.9340   26.0290 F   0  0  0  0  0  0  0  0  0  0  0  0
  -22.8920  -13.6680   21.2370 C   0  0  0  0  0  0  0  0  0  0  0  0
  -22.2170  -12.9630   22.1400 N   0  0  0  0  0  0  0  0  0  0  0  0
  -22.4330  -14.7090   20.7720 O   0  0  0  0  0  0  0  0  0  0  0  0
  -22.6070  -12.1280   22.5530 H   0  0  0  0  0  0  0  0  0  0  0  0
  -21.2960  -13.2690   22.4230 H   0  0  0  0  0  0  0  0  0  0  0  0
  -25.4680  -15.3310   20.3000 N   0  0  0  0  0  0  0  0  0  0  0  0
  -24.7050  -15.9720   20.4860 H   0  0  0  0  0  0  0  0  0  0  0  0
  -26.3120  -15.8000   19.9950 H   0  0  0  0  0  0  0  0  0  0  0  0
  -30.0690  -23.9150   17.8020 C   0  0  0  0  0  1  0  0  0  0  0  0
  -31.2230  -24.7080   19.8230 C   0  0  0  0  0  1  0  0  0  0  0  0
  -30.3930  -23.6310   19.2250 N   0  0  1  0  0  4  0  0  0  0  0  0
  -31.0070  -22.8300   19.1970 H   0  0  0  0  0  0  0  0  0  0  0  0
  -28.0670  -24.4800   20.0020 C   0  0  0  0  0  2  0  0  0  0  0  0
  -28.2690  -26.0570   20.2090 O   0  0  0  0  0  0  0  0  0  0  0  0
  -24.6270  -31.8520   23.1930 C   0  0  0  0  0  0  0  0  0  0  0  0
  -27.2130  -27.0720   20.1600 C   0  0  0  0  0  0  0  0  0  0  0  0
  -23.4310  -30.4420   21.5620 C   0  0  0  0  0  3  0  0  0  0  0  0
  -24.8820  -28.8580   20.1390 C   0  0  0  0  0  0  0  0  0  0  0  0
  -25.9920  -30.6920   21.4050 C   0  0  0  0  0  2  0  0  0  0  0  0
  -26.0660  -29.2950   20.7450 C   0  0  0  0  0  0  0  0  0  0  0  0
  -27.2310  -28.4220   20.7310 C   0  0  0  0  0  3  0  0  0  0  0  0
  -25.9960  -26.7540   19.5170 C   0  0  0  0  0  3  0  0  0  0  0  0
  -24.8650  -27.6040   19.5070 C   0  0  0  0  0  3  0  0  0  0  0  0
  -23.6540  -29.7550   20.1890 C   0  0  0  0  0  2  0  0  0  0  0  0
  -24.7030  -31.0220   22.1050 N   0  0  0  0  0  0  0  0  0  0  0  0
  -23.5400  -32.1400   23.7150 O   0  0  0  0  0  0  0  0  0  0  0  0
  -22.7480  -29.4450   22.5320 C   0  0  0  0  0  0  0  0  0  0  0  0
  -21.4180  -29.2800   22.4150 N   0  0  0  0  0  0  0  0  0  0  0  0
  -23.4210  -28.8180   23.3550 O   0  0  0  0  0  0  0  0  0  0  0  0
  -20.9290  -29.8370   21.7270 H   0  0  0  0  0  0  0  0  0  0  0  0
  -18.0370  -28.0860   22.9460 C   0  0  0  0  0  0  0  0  0  0  0  0
  -20.5990  -28.3460   23.1930 C   0  0  0  0  0  3  0  0  0  0  0  0
  -20.6930  -26.9120   22.6190 C   0  0  0  0  0  2  0  0  0  0  0  0
  -19.5840  -26.5910   21.6140 C   0  0  0  0  0  2  0  0  0  0  0  0
  -18.2060  -26.7370   22.2670 C   0  0  0  0  0  2  0  0  0  0  0  0
  -19.1600  -28.8490   23.3650 C   0  0  0  0  0  0  0  0  0  0  0  0
  -18.9450  -30.1110   23.9610 C   0  0  0  0  0  3  0  0  0  0  0  0
  -17.6410  -30.6080   24.1470 C   0  0  0  0  0  3  0  0  0  0  0  0
  -16.5340  -29.8420   23.7430 C   0  0  0  0  0  3  0  0  0  0  0  0
  -16.7330  -28.5840   23.1470 C   0  0  0  0  0  3  0  0  0  0  0  0
  -25.9020  -32.4980   23.8200 C   0  0  0  0  0  3  0  0  0  0  0  0
  -26.4250  -31.7290   25.0970 C   0  0  1  0  0  0  0  0  0  0  0  0
  -25.3350  -31.4840   26.1650 C   0  0  0  0  0  1  0  0  0  0  0  0
  -27.0180  -30.3520   24.7140 C   0  0  0  0  0  1  0  0  0  0  0  0
  -27.5710  -32.5300   25.7590 C   0  0  0  0  0  1  0  0  0  0  0  0
  -25.5810  -33.8940   24.1650 N   0  0  0  0  0  0  0  0  0  0  0  0
  -25.8940  -34.9600   23.4150 C   0  0  0  0  0  0  0  0  0  0  0  0
  -26.5480  -34.8730   22.3730 O   0  0  0  0  0  0  0  0  0  0  0  0
  -25.0120  -34.0400   24.9850 H   0  0  0  0  0  0  0  0  0  0  0  0
  -24.1430  -36.7440   23.1100 C   0  0  0  0  0  1  0  0  0  0  0  0
  -25.4030  -36.3410   23.8950 C   0  0  0  0  0  3  0  0  0  0  0  0
  -27.5410  -37.2400   24.7000 C   0  0  0  0  0  1  0  0  0  0  0  0
  -26.4240  -37.4050   23.7750 N   0  0  0  0  0  0  0  0  0  0  0  0
  -26.0120  -38.3190   23.9360 H   0  0  0  0  0  0  0  0  0  0  0  0
  1 50  1  0
  3  6  1  0
  3  5  1  0
  4  2  1  0
  6  1  1  0
  6  2  1  0
  7  5  1  0
  7  4  1  0
  7 17  1  0
  8 17  1  0
  9 14  1  0
 10 11  1  0
 10  9  1  0
 12 11  1  0
 12 21  1  0
 12 13  1  0
 14  8  1  0
 14 13  1  0
 15  8  2  0
 17 16  1  0
 18 19  2  0
 19 38  1  0
 20 19  1  0
 20 23  1  0
 21 22  1  0
 21 18  1  0
 22 20  2  0
 23 24  1  0
 24 25  2  0
 26 29  1  0
 26 25  1  0
 27 26  2  0
 28 27  1  0
 28 23  2  0
 29 30  1  0
 30 31  1  0
 31 32  2  0
 33 32  1  0
 33 37  1  0
 34 33  2  0
 35 30  2  0
 35 34  1  0
 36 35  1  0
 38 39  1  0
 39 42  1  0
 39 41  1  0
 40 38  2  0
 43 18  1  0
 43 44  1  0
 45 43  1  0
 46 48  1  0
 48 47  1  0
 48  1  1  0
 48 49  1  6
 50 51  1  0
 52 63  2  0
 53 51  1  0
 53 58  1  0
 54 62  1  0
 54 64  1  0
 55 61  1  0
 55 57  1  0
 56 62  1  0
 57 56  1  0
 58 57  2  0
 59 53  2  0
 60 59  1  0
 60 55  2  0
 61 54  1  0
 62 52  1  0
 64 66  2  0
 65 64  1  0
 67 65  1  0
 68 77  2  0
 68 73  1  0
 69 65  1  0
 69 73  1  0
 70 69  1  0
 71 72  1  0
 71 70  1  0
 72 68  1  0
 73 74  2  0
 74 75  1  0
 76 75  2  0
 77 76  1  0
 78 52  1  0
 78 83  1  0
 78 79  1  0
 79 82  1  1
 79 80  1  0
 81 79  1  0
 83 86  1  0
 84 88  1  0
 84 83  1  0
 85 84  2  0
 88 87  1  0
 90 88  1  0
 90 91  1  0
 90 89  1  0
M  ISO  4   8 100  17 100  50 101  51 101
M  END
>  <TORSDO>  (16) 
F 19

>  <SCORE>  (16) 
-15.368

>  <name>  (16) 
15

>  <ligand_id>  (16) 
15

>  <original_smiles>  (16) 
[H]c1c([H])c([H])c2c(c1[H])C([H])([H])C([H])([H])C([H])([H])C2([H])N([H])C(=O)C1([H])N(C(=O)C([H])(N([H])C(=O)C([H])(N([H])C([H])([H])[H])C([H])([H])[H])C(C([H])([H])[H])(C([H])([H])[H])C([H])([H])[H])C([H])([H])c2c([H])c(OC([H])([H])C([H])(C3([H])C([H])([H])C([H])([H])C([H])(N(C(=O)N4C([H])([H])C([H])([H])C([H])([H])C([H])(n5nc(-c6c([H])c([H])c(Oc7c([H])c([H])c(F)c([H])c7F)c([H])c6[H])c(C(=O)N([H])[H])c5N([H])[H])C4([H])[H])C([H])([H])[H])C([H])([H])C3([H])[H])[N+]([H])(C([H])([H])[H])C([H])([H])[H])c([H])c([H])c2C1([H])[H]

>  <smiles>  (16) 
[H]c1c([H])c([H])c2c(c1[H])C([H])([H])C([H])([H])C([H])([H])C2([H])N([H])C(=O)C1([H])N(C(=O)C([H])(N([H])C(=O)C([H])(N([H])C([H])([H])[H])C([H])([H])[H])C(C([H])([H])[H])(C([H])([H])[H])C([H])([H])[H])C([H])([H])c2c([H])c(OC([H])([H])C([H])(C3([H])C([H])([H])C([H])([H])C([H])(N(C(=O)N4C([H])([H])C([H])([H])C([H])([H])C([H])(n5nc(-c6c([H])c([H])c(Oc7c([H])c([H])c(F)c([H])c7F)c([H])c6[H])c(C(=O)N([H])[H])c5N([H])[H])C4([H])[H])C([H])([H])[H])C([H])([H])C3([H])[H])[N+]([H])(C([H])([H])[H])C([H])([H])[H])c([H])c([H])c2C1([H])[H]

$$$$
16:0:0
     RDKit          3D

 97 99  0  0  1  0  0  0  0  0999 V2000
  -27.5590  -13.1510   22.3220 C   0  0  0  0  0  2  0  0  0  0  0  0
  -28.0670  -11.6340   22.7220 C   0  0  0  0  0  3  0  0  0  0  0  0
  -28.0460  -10.1650   21.8470 C   0  0  0  0  0  3  0  0  0  0  0  0
  -26.6440  -13.5070   21.0090 C   0  0  0  0  0  2  0  0  0  0  0  0
  -27.4290   -9.8240   20.2910 C   0  0  0  0  0  3  0  0  0  0  0  0
  -28.2070  -11.6480   24.2660 C   0  0  0  0  0  1  0  0  0  0  0  0
  -26.6090  -10.7600   19.6320 N   0  0  0  0  0  1  0  0  0  0  0  0
  -25.6010  -16.2520   20.8510 C   0  0  0  0  0  1  0  0  0  0  0  0
  -26.9190  -15.7050   20.2580 C   0  0  0  0  0  1  0  0  0  0  0  0
  -27.9620  -17.9410   19.9810 C   0  0  0  0  0 15  0  0  0  0  0  0
  -28.1750  -20.3340   19.3590 C   0  0  0  0  0 15  0  0  0  0  0  0
  -28.9610  -22.4030   19.3310 O   0  0  0  0  0  1  0  0  0  0  0  0
  -26.9650  -29.6210   22.9340 C   0  0  0  0  0  0  0  0  0  0  0  0
  -28.6660  -24.1540   19.3700 C   0  0  0  0  0  0  0  0  0  0  0  0
  -25.8280  -28.6300   21.0080 C   0  0  0  0  0  3  0  0  0  0  0  0
  -27.1800  -27.0190   19.3950 C   0  0  0  0  0  0  0  0  0  0  0  0
  -28.3800  -28.2750   21.1340 C   0  0  0  0  0  2  0  0  0  0  0  0
  -28.2720  -26.8960   20.2490 C   0  0  0  0  0  0  0  0  0  0  0  0
  -29.0070  -25.5160   20.1890 C   0  0  0  0  0  3  0  0  0  0  0  0
  -27.8030  -24.7590   18.3930 C   0  0  0  0  0  3  0  0  0  0  0  0
  -27.0750  -26.0100   18.4190 C   0  0  0  0  0  3  0  0  0  0  0  0
  -26.1540  -28.1780   19.5420 C   0  0  0  0  0  2  0  0  0  0  0  0
  -27.1000  -28.8960   21.7510 N   0  0  0  0  0  0  0  0  0  0  0  0
  -25.8500  -29.9400   23.3940 O   0  0  0  0  0  0  0  0  0  0  0  0
  -24.9580  -27.5730   21.7430 C   0  0  0  0  0  0  0  0  0  0  0  0
  -23.6300  -27.5420   21.5090 N   0  0  0  0  0  0  0  0  0  0  0  0
  -25.4960  -26.7770   22.5160 O   0  0  0  0  0  0  0  0  0  0  0  0
  -23.2360  -28.2400   20.8950 H   0  0  0  0  0  0  0  0  0  0  0  0
  -20.1550  -26.4550   21.5820 C   0  0  0  0  0  0  0  0  0  0  0  0
  -22.7010  -26.5370   22.0460 C   0  0  0  0  0  3  0  0  0  0  0  0
  -22.7790  -25.2230   21.2320 C   0  0  0  0  0  2  0  0  0  0  0  0
  -21.7450  -25.1550   20.1030 C   0  0  0  0  0  2  0  0  0  0  0  0
  -20.3260  -25.2500   20.6710 C   0  0  0  0  0  2  0  0  0  0  0  0
  -21.2710  -27.0710   22.2120 C   0  0  0  0  0  0  0  0  0  0  0  0
  -21.0540  -28.2010   23.0280 C   0  0  0  0  0  3  0  0  0  0  0  0
  -19.7580  -28.7230   23.2080 C   0  0  0  0  0  3  0  0  0  0  0  0
  -18.6580  -28.1050   22.5870 C   0  0  0  0  0  3  0  0  0  0  0  0
  -18.8580  -26.9710   21.7800 C   0  0  0  0  0  3  0  0  0  0  0  0
  -28.1870  -30.0910   23.7850 C   0  0  0  0  0  3  0  0  0  0  0  0
  -27.7830  -31.2590   24.6080 N   0  0  0  0  0  0  0  0  0  0  0  0
  -28.1060  -32.5410   24.3810 C   0  0  0  0  0  0  0  0  0  0  0  0
  -28.8260  -32.8800   23.4400 O   0  0  0  0  0  0  0  0  0  0  0  0
  -27.1480  -31.0590   25.3670 H   0  0  0  0  0  0  0  0  0  0  0  0
  -26.3370  -34.3180   24.7120 C   0  0  0  0  0  1  0  0  0  0  0  0
  -27.5510  -33.6190   25.3460 C   0  0  0  0  0  3  0  0  0  0  0  0
  -29.6020  -34.1400   26.6000 C   0  0  0  0  0  1  0  0  0  0  0  0
  -28.5450  -34.6450   25.7300 N   0  0  0  0  0  0  0  0  0  0  0  0
  -28.0920  -35.4200   26.2030 H   0  0  0  0  0  0  0  0  0  0  0  0
  -28.7410  -28.9620   24.7430 C   0  0  1  0  0  0  0  0  0  0  0  0
  -27.6620  -28.3120   25.6410 C   0  0  0  0  0  1  0  0  0  0  0  0
  -29.4020  -27.8290   23.9320 C   0  0  0  0  0  1  0  0  0  0  0  0
  -29.8380  -29.5390   25.6660 C   0  0  0  0  0  1  0  0  0  0  0  0
  -27.8500   -7.5060   21.9490 C   0  0  0  0  0  1  0  0  0  0  0  0
  -28.2530   -8.8200   22.6650 C   0  0  0  0  0  3  0  0  0  0  0  0
  -30.9680   -8.5300   23.1030 C   0  0  0  0  0  1  0  0  0  0  0  0
  -29.5010   -8.4860   23.5820 C   0  0  0  0  0  2  0  0  0  0  0  0
  -27.9740   -9.5830   18.9250 O   0  0  0  0  0  0  0  0  0  0  0  0
  -28.4120  -10.6500   17.7180 C   0  0  0  0  0  2  0  0  0  0  0  0
  -29.9750  -11.3920   17.1860 C   0  0  0  0  0  2  0  0  0  0  0  0
  -31.8920  -12.7140   19.0650 C   0  0  0  0  0  0  0  0  0  0  0  0
  -32.0950  -10.8020   20.3470 C   0  0  0  0  0  2  0  0  0  0  0  0
  -31.4040   -9.9740   19.3320 C   0  0  0  0  0  2  0  0  0  0  0  0
  -29.9950  -10.3520   19.6290 C   0  0  0  0  0  2  0  0  0  0  0  0
  -29.3620  -12.0210   19.7500 C   0  0  0  0  0  3  0  0  0  0  0  0
  -30.3310  -12.4900   20.7800 C   0  0  0  0  0  2  0  0  0  0  0  0
  -31.5620  -12.1430   20.1990 N   0  0  0  0  0  0  0  0  0  0  0  0
  -32.9070  -13.3900   19.1940 O   0  0  0  0  0  0  0  0  0  0  0  0
  -31.1950  -12.3590   17.8200 N   0  0  0  0  0  0  0  0  0  0  0  0
  -31.6550  -12.8470   17.0630 H   0  0  0  0  0  0  0  0  0  0  0  0
  -26.5060  -13.1850   18.6370 C   0  0  0  0  0  3  0  0  0  0  0  0
  -24.9570  -12.8290   19.3730 C   0  0  0  0  0  0  0  0  0  0  0  0
  -24.8000  -11.8850   20.7250 C   0  0  0  0  0  3  0  0  0  0  0  0
  -27.9480  -12.6000   19.7980 N   0  0  0  0  0  1  0  0  0  0  0  0
  -26.0900  -11.9430   21.3860 N   0  0  0  0  0  2  0  0  0  0  0  0
  -24.2240  -10.3240   20.8000 C   0  0  0  0  0  0  0  0  0  0  0  0
  -24.5850   -9.3750   21.8280 C   0  0  0  0  0  3  0  0  0  0  0  0
  -23.9330   -8.1120   22.0520 C   0  0  0  0  0  3  0  0  0  0  0  0
  -22.8820   -7.6660   21.2140 C   0  0  0  0  0  0  0  0  0  0  0  0
  -22.6680   -8.4520   20.0580 C   0  0  0  0  0  3  0  0  0  0  0  0
  -23.3240   -9.7100   19.8540 C   0  0  0  0  0  3  0  0  0  0  0  0
  -22.0910   -6.5260   21.4280 O   0  0  0  0  0  0  0  0  0  0  0  0
  -21.7880   -6.0030   22.6790 C   0  0  0  0  0  0  0  0  0  0  0  0
  -21.3140   -6.8070   23.7440 C   0  0  0  0  0  3  0  0  0  0  0  0
  -20.9940   -6.2330   24.9980 C   0  0  0  0  0  3  0  0  0  0  0  0
  -21.1280   -4.8440   25.2010 C   0  0  0  0  0  0  0  0  0  0  0  0
  -21.5520   -4.0290   24.1370 C   0  0  0  0  0  3  0  0  0  0  0  0
  -21.8700   -4.6040   22.8890 C   0  0  0  0  0  0  0  0  0  0  0  0
  -22.2510   -3.7880   21.8800 F   0  0  0  0  0  0  0  0  0  0  0  0
  -20.8440   -4.2960   26.4100 F   0  0  0  0  0  0  0  0  0  0  0  0
  -23.5800  -13.1520   19.0490 C   0  0  0  0  0  0  0  0  0  0  0  0
  -22.6160  -12.9840   19.9860 N   0  0  0  0  0  0  0  0  0  0  0  0
  -23.3410  -13.6870   18.0060 O   0  0  0  0  0  0  0  0  0  0  0  0
  -22.8250  -12.6720   20.9190 H   0  0  0  0  0  0  0  0  0  0  0  0
  -21.7230  -13.4350   19.8250 H   0  0  0  0  0  0  0  0  0  0  0  0
  -26.8860  -14.0530   17.7040 N   0  0  0  0  0  0  0  0  0  0  0  0
  -26.2190  -14.4450   17.0520 H   0  0  0  0  0  0  0  0  0  0  0  0
  -27.8470  -14.1550   17.3850 H   0  0  0  0  0  0  0  0  0  0  0  0
  1  2  1  0
  2  6  1  0
  3  5  1  0
  3 54  1  0
  3  2  1  0
  4 74  1  0
  4  1  1  0
  5  7  1  0
  9  8  1  0
 12 14  1  0
 13 24  2  0
 14 19  1  0
 15 25  1  0
 15 23  1  0
 16 22  1  0
 16 18  1  0
 17 23  1  0
 18 17  1  0
 19 18  2  0
 20 21  1  0
 20 14  2  0
 21 16  2  0
 22 15  1  0
 23 13  1  0
 25 27  2  0
 26 25  1  0
 28 26  1  0
 29 38  2  0
 29 34  1  0
 30 26  1  0
 30 34  1  0
 31 30  1  0
 32 33  1  0
 32 31  1  0
 33 29  1  0
 34 35  2  0
 35 36  1  0
 37 36  2  0
 38 37  1  0
 39 13  1  0
 39 40  1  0
 39 49  1  0
 40 43  1  0
 41 40  1  0
 41 45  1  0
 42 41  2  0
 45 44  1  0
 45 47  1  0
 47 48  1  0
 47 46  1  0
 49 50  1  1
 49 52  1  0
 51 49  1  0
 54 53  1  0
 54 56  1  0
 55 56  1  0
 57  5  1  0
 58 57  1  0
 59 58  1  0
 59 68  1  0
 60 67  2  0
 60 66  1  0
 62 63  1  0
 62 61  1  0
 63 64  1  0
 64 73  1  0
 64 65  1  0
 66 61  1  0
 66 65  1  0
 68 60  1  0
 69 68  1  0
 70 71  2  0
 72 71  1  0
 72 75  1  0
 72 74  1  0
 75 76  1  0
 76 77  2  0
 78 81  1  0
 78 77  1  0
 79 78  2  0
 80 79  1  0
 80 75  2  0
 81 82  1  0
 82 87  2  0
 82 83  1  0
 83 84  2  0
 84 85  1  0
 85 89  1  0
 86 85  2  0
 87 86  1  0
 88 87  1  0
 90 71  1  0
 90 91  1  0
 91 93  1  0
 92 90  2  0
 94 91  1  0
 95 70  1  0
 96 95  1  0
 97 95  1  0
M  ISO  4  11 101  12 101  60 100  68 100
M  END
>  <TORSDO>  (17) 
F 24

>  <SCORE>  (17) 
1.797

>  <name>  (17) 
16

>  <ligand_id>  (17) 
16

>  <original_smiles>  (17) 
[H]c1c([H])c([H])c2c(c1[H])C([H])([H])C([H])([H])C([H])([H])C2([H])N([H])C(=O)C1([H])N(C(=O)C([H])(N([H])C(=O)C([H])(N([H])C([H])([H])[H])C([H])([H])[H])C(C([H])([H])[H])(C([H])([H])[H])C([H])([H])[H])C([H])([H])c2c([H])c(OC([H])([H])C([H])([H])C([H])(c3nc(OC([H])([H])C([H])([H])N([H])C(=O)N4C([H])([H])C([H])([H])C([H])([H])C([H])(n5nc(-c6c([H])c([H])c(Oc7c([H])c([H])c(F)c([H])c7F)c([H])c6[H])c(C(=O)N([H])[H])c5N([H])[H])C4([H])[H])c(C([H])(C([H])([H])[H])C([H])([H])C([H])([H])[H])c(C([H])([H])[H])c3[H])C([H])([H])[H])c([H])c([H])c2C1([H])[H]

>  <smiles>  (17) 
[H]c1c([H])c([H])c2c(c1[H])C([H])([H])C([H])([H])C([H])([H])C2([H])N([H])C(=O)C1([H])N(C(=O)C([H])(N([H])C(=O)C([H])(N([H])C([H])([H])[H])C([H])([H])[H])C(C([H])([H])[H])(C([H])([H])[H])C([H])([H])[H])C([H])([H])c2c([H])c(OC([H])([H])C([H])([H])C([H])(c3nc(OC([H])([H])C([H])([H])N([H])C(=O)N4C([H])([H])C([H])([H])C([H])([H])C([H])(n5nc(-c6c([H])c([H])c(Oc7c([H])c([H])c(F)c([H])c7F)c([H])c6[H])c(C(=O)N([H])[H])c5N([H])[H])C4([H])[H])c(C([H])(C([H])([H])[H])C([H])([H])C([H])([H])[H])c(C([H])([H])[H])c3[H])C([H])([H])[H])c([H])c([H])c2C1([H])[H]

$$$$
17:0:0
     RDKit          3D

 88 95  0  0  1  0  0  0  0  0999 V2000
  -27.1990  -21.5520   20.3710 C   0  0  0  0  0  1  0  0  0  0  0  0
  -28.6760  -21.8640   20.0520 C   0  0  0  0  0  3  0  0  0  0  0  0
  -30.0050  -20.8040   21.9380 C   0  0  0  0  0  1  0  0  0  0  0  0
  -29.6050  -20.6550   20.5200 N   0  0  1  0  0  4  0  0  0  0  0  0
  -30.4650  -20.8020   20.0120 H   0  0  0  0  0  0  0  0  0  0  0  0
  -29.2320  -19.1440   20.2000 C   0  0  0  0  0  3  0  0  0  0  0  0
  -30.2190  -17.8020   20.5300 C   0  0  0  0  0  3  0  0  0  0  0  0
  -30.6210  -15.0980   20.2380 C   0  0  0  0  0  0  0  0  0  0  0  0
  -30.4940  -12.7330   19.3490 C   0  0  0  0  0  2  0  0  0  0  0  0
  -29.5570  -12.6330   18.1250 C   0  0  0  0  0  2  0  0  0  0  0  0
  -28.0980  -12.4110   18.5730 C   0  0  0  0  0  2  0  0  0  0  0  0
  -27.6720  -13.3560   19.7250 C   0  0  0  0  0  3  0  0  0  0  0  0
  -28.7390  -13.4480   20.8390 C   0  0  0  0  0  2  0  0  0  0  0  0
  -30.0010  -13.8480   20.2010 N   0  0  0  0  0  0  0  0  0  0  0  0
  -31.8530  -15.1150   20.1490 O   0  0  0  0  0  0  0  0  0  0  0  0
  -29.0540  -16.4140   18.8950 C   0  0  0  0  0  1  0  0  0  0  0  0
  -29.8680  -16.3150   20.1140 N   0  0  0  0  0  0  0  0  0  0  0  0
  -25.3010  -13.9490   20.4690 C   0  0  0  0  0  0  0  0  0  0  0  0
  -24.2340  -13.1780   20.8380 C   0  0  0  0  0  0  0  0  0  0  0  0
  -24.7030  -11.8280   20.8190 C   0  0  0  0  0  0  0  0  0  0  0  0
  -26.3420  -13.0670   20.2360 N   0  0  0  0  0  0  0  0  0  0  0  0
  -25.9940  -11.7870   20.5150 N   0  0  0  0  0  0  0  0  0  0  0  0
  -23.9790  -10.5660   21.0130 C   0  0  0  0  0  0  0  0  0  0  0  0
  -24.4180   -9.6090   21.9530 C   0  0  0  0  0  3  0  0  0  0  0  0
  -23.6980   -8.4090   22.1380 C   0  0  0  0  0  3  0  0  0  0  0  0
  -22.5260   -8.1610   21.3840 C   0  0  0  0  0  0  0  0  0  0  0  0
  -22.1100   -9.1090   20.4310 C   0  0  0  0  0  3  0  0  0  0  0  0
  -22.8300  -10.2990   20.2430 C   0  0  0  0  0  3  0  0  0  0  0  0
  -21.7780   -7.0130   21.4730 O   0  0  0  0  0  0  0  0  0  0  0  0
  -21.7250   -6.2790   22.6310 C   0  0  0  0  0  0  0  0  0  0  0  0
  -21.2750   -6.8380   23.8480 C   0  0  0  0  0  3  0  0  0  0  0  0
  -21.1720   -6.0300   24.9970 C   0  0  0  0  0  3  0  0  0  0  0  0
  -21.5070   -4.6640   24.9310 C   0  0  0  0  0  0  0  0  0  0  0  0
  -21.9500   -4.1050   23.7200 C   0  0  0  0  0  3  0  0  0  0  0  0
  -22.0550   -4.9100   22.5710 C   0  0  0  0  0  0  0  0  0  0  0  0
  -22.4620   -4.3630   21.3990 F   0  0  0  0  0  0  0  0  0  0  0  0
  -21.3980   -3.8840   26.0320 F   0  0  0  0  0  0  0  0  0  0  0  0
  -22.8370  -13.6570   21.0980 C   0  0  0  0  0  0  0  0  0  0  0  0
  -22.1030  -12.9660   21.9630 N   0  0  0  0  0  0  0  0  0  0  0  0
  -22.4020  -14.6800   20.5700 O   0  0  0  0  0  0  0  0  0  0  0  0
  -22.4680  -12.1430   22.4160 H   0  0  0  0  0  0  0  0  0  0  0  0
  -21.1640  -13.2710   22.1800 H   0  0  0  0  0  0  0  0  0  0  0  0
  -25.4660  -15.3210   20.2840 N   0  0  0  0  0  0  0  0  0  0  0  0
  -24.7070  -15.9850   20.4000 H   0  0  0  0  0  0  0  0  0  0  0  0
  -26.3290  -15.7490   19.9800 H   0  0  0  0  0  0  0  0  0  0  0  0
  -28.9830  -23.4850   20.4440 C   0  0  0  0  0  3  0  0  0  0  0  0
  -28.0380  -24.7960   19.9750 C   0  0  0  0  0  3  0  0  0  0  0  0
  -28.2690  -26.3080   20.2450 O   0  0  0  0  0  0  0  0  0  0  0  0
  -24.6100  -31.9380   23.2380 C   0  0  0  0  0  0  0  0  0  0  0  0
  -27.1990  -27.2690   20.1700 C   0  0  0  0  0  0  0  0  0  0  0  0
  -23.4060  -30.5410   21.6020 C   0  0  0  0  0  3  0  0  0  0  0  0
  -24.8520  -28.9810   20.1610 C   0  0  0  0  0  0  0  0  0  0  0  0
  -25.9540  -30.8270   21.4190 C   0  0  0  0  0  2  0  0  0  0  0  0
  -26.0310  -29.4390   20.7630 C   0  0  0  0  0  0  0  0  0  0  0  0
  -27.2050  -28.5980   20.7520 C   0  0  0  0  0  3  0  0  0  0  0  0
  -25.9950  -26.9120   19.5220 C   0  0  0  0  0  3  0  0  0  0  0  0
  -24.8440  -27.7310   19.5250 C   0  0  0  0  0  3  0  0  0  0  0  0
  -23.6180  -29.8680   20.2200 C   0  0  0  0  0  2  0  0  0  0  0  0
  -24.6770  -31.1220   22.1420 N   0  0  0  0  0  0  0  0  0  0  0  0
  -23.5260  -32.2180   23.7730 O   0  0  0  0  0  0  0  0  0  0  0  0
  -22.7390  -29.5260   22.5640 C   0  0  0  0  0  0  0  0  0  0  0  0
  -21.4120  -29.3450   22.4410 N   0  0  0  0  0  0  0  0  0  0  0  0
  -23.4170  -28.9060   23.3870 O   0  0  0  0  0  0  0  0  0  0  0  0
  -20.9190  -29.9040   21.7590 H   0  0  0  0  0  0  0  0  0  0  0  0
  -18.0420  -28.1080   22.9360 C   0  0  0  0  0  0  0  0  0  0  0  0
  -20.5990  -28.3990   23.2080 C   0  0  0  0  0  3  0  0  0  0  0  0
  -20.7160  -26.9660   22.6390 C   0  0  0  0  0  2  0  0  0  0  0  0
  -19.6200  -26.6280   21.6230 C   0  0  0  0  0  2  0  0  0  0  0  0
  -18.2360  -26.7590   22.2640 C   0  0  0  0  0  2  0  0  0  0  0  0
  -19.1520  -28.8850   23.3630 C   0  0  0  0  0  0  0  0  0  0  0  0
  -18.9170  -30.1460   23.9530 C   0  0  0  0  0  3  0  0  0  0  0  0
  -17.6060  -30.6320   24.1160 C   0  0  0  0  0  3  0  0  0  0  0  0
  -16.5110  -29.8530   23.7040 C   0  0  0  0  0  3  0  0  0  0  0  0
  -16.7310  -28.5940   23.1170 C   0  0  0  0  0  3  0  0  0  0  0  0
  -25.8910  -32.5760   23.8600 C   0  0  0  0  0  3  0  0  0  0  0  0
  -25.5820  -33.9790   24.1810 N   0  0  0  0  0  0  0  0  0  0  0  0
  -25.9120  -35.0280   23.4160 C   0  0  0  0  0  0  0  0  0  0  0  0
  -26.5760  -34.9180   22.3820 O   0  0  0  0  0  0  0  0  0  0  0  0
  -24.9980  -34.1390   24.9890 H   0  0  0  0  0  0  0  0  0  0  0  0
  -24.1870  -36.8250   23.0610 C   0  0  0  0  0  1  0  0  0  0  0  0
  -25.4300  -36.4200   23.8690 C   0  0  0  0  0  3  0  0  0  0  0  0
  -27.5680  -37.3070   24.6920 C   0  0  0  0  0  1  0  0  0  0  0  0
  -26.4660  -37.4710   23.7480 N   0  0  0  0  0  0  0  0  0  0  0  0
  -26.0610  -38.3920   23.8920 H   0  0  0  0  0  0  0  0  0  0  0  0
  -26.3980  -31.8180   25.1480 C   0  0  1  0  0  0  0  0  0  0  0  0
  -25.3000  -31.5980   26.2150 C   0  0  0  0  0  1  0  0  0  0  0  0
  -26.9780  -30.4340   24.7780 C   0  0  0  0  0  1  0  0  0  0  0  0
  -27.5480  -32.6160   25.8060 C   0  0  0  0  0  1  0  0  0  0  0  0
  2  1  1  0
  2 46  1  0
  2  4  1  0
  4  3  1  0
  4  5  1  6
  6  4  1  0
  6  7  2  0
  9 14  1  0
 10 11  1  0
 10  9  1  0
 12 11  1  0
 12 21  1  0
 12 13  1  0
 14  8  1  0
 14 13  1  0
 15  8  2  0
 16 17  1  0
 17  8  1  0
 17  7  1  0
 18 19  2  0
 19 38  1  0
 20 19  1  0
 20 23  1  0
 21 18  1  0
 21 22  1  0
 22 20  2  0
 23 24  1  0
 24 25  2  0
 26 29  1  0
 26 25  1  0
 27 26  2  0
 28 27  1  0
 28 23  2  0
 29 30  1  0
 30 31  1  0
 31 32  2  0
 33 32  1  0
 33 37  1  0
 34 33  2  0
 35 30  2  0
 35 34  1  0
 36 35  1  0
 38 39  1  0
 39 42  1  0
 39 41  1  0
 40 38  2  0
 43 44  1  0
 43 18  1  0
 45 43  1  0
 47 48  1  0
 47 46  2  0
 49 60  2  0
 50 48  1  0
 50 55  1  0
 51 59  1  0
 51 61  1  0
 52 58  1  0
 52 54  1  0
 53 59  1  0
 54 53  1  0
 55 54  2  0
 56 57  1  0
 56 50  2  0
 57 52  2  0
 58 51  1  0
 59 49  1  0
 61 63  2  0
 62 61  1  0
 64 62  1  0
 65 74  2  0
 65 70  1  0
 66 62  1  0
 66 70  1  0
 67 66  1  0
 68 69  1  0
 68 67  1  0
 69 65  1  0
 70 71  2  0
 71 72  1  0
 73 72  2  0
 74 73  1  0
 75 49  1  0
 75 76  1  0
 75 85  1  0
 76 79  1  0
 77 81  1  0
 77 76  1  0
 78 77  2  0
 81 80  1  0
 83 81  1  0
 83 84  1  0
 83 82  1  0
 85 88  1  1
 85 86  1  0
 87 85  1  0
M  ISO  4   8 100  17 100  47 101  48 101
M  END
>  <TORSDO>  (18) 
F 21

>  <SCORE>  (18) 
-14.265

>  <name>  (18) 
17

>  <ligand_id>  (18) 
17

>  <original_smiles>  (18) 
[H]c1c([H])c([H])c2c(c1[H])C([H])([H])C([H])([H])C([H])([H])C2([H])N([H])C(=O)C1([H])N(C(=O)C([H])(N([H])C(=O)C([H])(N([H])C([H])([H])[H])C([H])([H])[H])C(C([H])([H])[H])(C([H])([H])[H])C([H])([H])[H])C([H])([H])c2c([H])c(OC([H])([H])C([H])([H])C([H])(C([H])([H])[H])[N+]([H])(C([H])([H])[H])C([H])([H])C([H])([H])N(C(=O)N3C([H])([H])C([H])([H])C([H])([H])C([H])(n4nc(-c5c([H])c([H])c(Oc6c([H])c([H])c(F)c([H])c6F)c([H])c5[H])c(C(=O)N([H])[H])c4N([H])[H])C3([H])[H])C([H])([H])[H])c([H])c([H])c2C1([H])[H]

>  <smiles>  (18) 
[H]c1c([H])c([H])c2c(c1[H])C([H])([H])C([H])([H])C([H])([H])C2([H])N([H])C(=O)C1([H])N(C(=O)C([H])(N([H])C(=O)C([H])(N([H])C([H])([H])[H])C([H])([H])[H])C(C([H])([H])[H])(C([H])([H])[H])C([H])([H])[H])C([H])([H])c2c([H])c(OC([H])([H])C([H])([H])C([H])(C([H])([H])[H])[N+]([H])(C([H])([H])[H])C([H])([H])C([H])([H])N(C(=O)N3C([H])([H])C([H])([H])C([H])([H])C([H])(n4nc(-c5c([H])c([H])c(Oc6c([H])c([H])c(F)c([H])c6F)c([H])c5[H])c(C(=O)N([H])[H])c4N([H])[H])C3([H])[H])C([H])([H])[H])c([H])c([H])c2C1([H])[H]

$$$$
18:0:0
     RDKit          3D

 96104  0  0  1  0  0  0  0  0999 V2000
  -28.1620  -21.2670   20.3310 C   0  0  0  0  0  3  0  0  0  0  0  0
  -27.8460  -22.6220   20.1030 C   0  0  0  0  0  3  0  0  0  0  0  0
  -29.4320  -20.7750   19.9410 C   0  0  0  0  0  0  0  0  0  0  0  0
  -28.8050  -23.4650   19.5020 C   0  0  0  0  0  0  0  0  0  0  0  0
  -30.3810  -21.7410   19.5020 C   0  0  0  0  0  0  0  0  0  0  0  0
  -31.8140  -21.3860   19.1440 C   0  0  0  0  0  1  0  0  0  0  0  0
  -30.0680  -23.0390   19.2860 N   0  0  0  0  0  0  0  0  0  0  0  0
  -28.3760  -24.7200   18.7300 C   0  0  0  0  0  2  0  0  0  0  0  0
  -28.9130  -26.1420   19.1030 C   0  0  0  0  0  2  0  0  0  0  0  0
  -28.4500  -26.8520   20.2710 O   0  0  0  0  0  0  0  0  0  0  0  0
  -24.5960  -32.0010   23.3510 C   0  0  0  0  0  0  0  0  0  0  0  0
  -27.2900  -27.6090   20.2110 C   0  0  0  0  0  0  0  0  0  0  0  0
  -23.4050  -30.6020   21.6980 C   0  0  0  0  0  3  0  0  0  0  0  0
  -24.8790  -29.1110   20.2470 C   0  0  0  0  0  0  0  0  0  0  0  0
  -25.9280  -30.9900   21.5030 C   0  0  0  0  0  2  0  0  0  0  0  0
  -26.0320  -29.6260   20.8510 C   0  0  0  0  0  0  0  0  0  0  0  0
  -27.2340  -28.8760   20.8460 C   0  0  0  0  0  3  0  0  0  0  0  0
  -26.1140  -27.1260   19.5950 C   0  0  0  0  0  3  0  0  0  0  0  0
  -24.9170  -27.8580   19.6170 C   0  0  0  0  0  3  0  0  0  0  0  0
  -23.6230  -29.9500   20.3070 C   0  0  0  0  0  2  0  0  0  0  0  0
  -24.6610  -31.2130   22.2400 N   0  0  0  0  0  0  0  0  0  0  0  0
  -23.5130  -32.2540   23.8940 O   0  0  0  0  0  0  0  0  0  0  0  0
  -22.7720  -29.5580   22.6460 C   0  0  0  0  0  0  0  0  0  0  0  0
  -21.4530  -29.3420   22.4990 N   0  0  0  0  0  0  0  0  0  0  0  0
  -23.4610  -28.9490   23.4660 O   0  0  0  0  0  0  0  0  0  0  0  0
  -20.9610  -29.8850   21.8040 H   0  0  0  0  0  0  0  0  0  0  0  0
  -18.1070  -28.0420   22.9190 C   0  0  0  0  0  0  0  0  0  0  0  0
  -20.6470  -28.3850   23.2580 C   0  0  0  0  0  3  0  0  0  0  0  0
  -20.8130  -26.9550   22.6920 C   0  0  0  0  0  2  0  0  0  0  0  0
  -19.7460  -26.5900   21.6540 C   0  0  0  0  0  2  0  0  0  0  0  0
  -18.3450  -26.6940   22.2600 C   0  0  0  0  0  2  0  0  0  0  0  0
  -19.1880  -28.8430   23.3720 C   0  0  0  0  0  0  0  0  0  0  0  0
  -18.9120  -30.1050   23.9450 C   0  0  0  0  0  3  0  0  0  0  0  0
  -17.5880  -30.5630   24.0720 C   0  0  0  0  0  3  0  0  0  0  0  0
  -16.5210  -29.7580   23.6380 C   0  0  0  0  0  3  0  0  0  0  0  0
  -16.7810  -28.5000   23.0670 C   0  0  0  0  0  3  0  0  0  0  0  0
  -25.8770  -32.6410   23.9720 C   0  0  0  0  0  3  0  0  0  0  0  0
  -25.5670  -34.0440   24.2710 N   0  0  0  0  0  0  0  0  0  0  0  0
  -25.9200  -35.0810   23.5000 C   0  0  0  0  0  0  0  0  0  0  0  0
  -26.6120  -34.9590   22.4860 O   0  0  0  0  0  0  0  0  0  0  0  0
  -24.9550  -34.2150   25.0550 H   0  0  0  0  0  0  0  0  0  0  0  0
  -24.2030  -36.8720   23.0790 C   0  0  0  0  0  1  0  0  0  0  0  0
  -25.4250  -36.4780   23.9220 C   0  0  0  0  0  3  0  0  0  0  0  0
  -27.5440  -37.3750   24.7810 C   0  0  0  0  0  1  0  0  0  0  0  0
  -26.4610  -37.5280   23.8120 N   0  0  0  0  0  0  0  0  0  0  0  0
  -26.0530  -38.4500   23.9370 H   0  0  0  0  0  0  0  0  0  0  0  0
  -26.3780  -31.8890   25.2670 C   0  0  1  0  0  0  0  0  0  0  0  0
  -25.2660  -31.6540   26.3140 C   0  0  0  0  0  1  0  0  0  0  0  0
  -26.9840  -30.5130   24.9000 C   0  0  0  0  0  1  0  0  0  0  0  0
  -27.5040  -32.7050   25.9450 C   0  0  0  0  0  1  0  0  0  0  0  0
  -29.6770  -19.2480   19.8090 C   0  0  0  0  0  3  0  0  0  0  0  0
  -29.5480  -18.4520   21.1580 C   0  0  0  0  0  2  0  0  0  0  0  0
  -30.5900  -17.3030   21.3880 C   0  0  0  0  0  2  0  0  0  0  0  0
  -30.8740  -14.8340   21.1910 C   0  0  0  0  0  0  0  0  0  0  0  0
  -30.7170  -12.6640   20.0420 C   0  0  0  0  0  2  0  0  0  0  0  0
  -29.9050  -12.8780   18.7480 C   0  0  0  0  0  2  0  0  0  0  0  0
  -28.3920  -12.7580   19.0220 C   0  0  0  0  0  2  0  0  0  0  0  0
  -27.9230  -13.5570   20.2680 C   0  0  0  0  0  3  0  0  0  0  0  0
  -28.8680  -13.3320   21.4670 C   0  0  0  0  0  2  0  0  0  0  0  0
  -30.2330  -13.6480   21.0220 N   0  0  0  0  0  0  0  0  0  0  0  0
  -32.0680  -14.9890   20.9200 O   0  0  0  0  0  0  0  0  0  0  0  0
  -30.0870  -15.9100   21.4260 N   0  0  0  0  0  0  0  0  0  0  0  0
  -29.1100  -15.7380   21.6130 H   0  0  0  0  0  0  0  0  0  0  0  0
  -25.4560  -14.1430   20.7120 C   0  0  0  0  0  0  0  0  0  0  0  0
  -24.3640  -13.3630   20.9690 C   0  0  0  0  0  0  0  0  0  0  0  0
  -24.8420  -12.0170   21.0030 C   0  0  0  0  0  0  0  0  0  0  0  0
  -26.5310  -13.2730   20.6030 N   0  0  0  0  0  0  0  0  0  0  0  0
  -26.1590  -11.9910   20.8350 N   0  0  0  0  0  0  0  0  0  0  0  0
  -24.1210  -10.7470   21.1320 C   0  0  0  0  0  0  0  0  0  0  0  0
  -24.4750   -9.7870   22.1040 C   0  0  0  0  0  3  0  0  0  0  0  0
  -23.7500   -8.5810   22.2200 C   0  0  0  0  0  3  0  0  0  0  0  0
  -22.6540   -8.3280   21.3620 C   0  0  0  0  0  0  0  0  0  0  0  0
  -22.3200   -9.2770   20.3800 C   0  0  0  0  0  3  0  0  0  0  0  0
  -23.0460  -10.4740   20.2620 C   0  0  0  0  0  3  0  0  0  0  0  0
  -21.9110   -7.1730   21.3810 O   0  0  0  0  0  0  0  0  0  0  0  0
  -21.7600   -6.4330   22.5240 C   0  0  0  0  0  0  0  0  0  0  0  0
  -21.2070   -6.9860   23.6990 C   0  0  0  0  0  3  0  0  0  0  0  0
  -21.0050   -6.1760   24.8320 C   0  0  0  0  0  3  0  0  0  0  0  0
  -21.3450   -4.8110   24.7910 C   0  0  0  0  0  0  0  0  0  0  0  0
  -21.8910   -4.2560   23.6210 C   0  0  0  0  0  3  0  0  0  0  0  0
  -22.0940   -5.0640   22.4890 C   0  0  0  0  0  0  0  0  0  0  0  0
  -22.5990   -4.5190   21.3560 F   0  0  0  0  0  0  0  0  0  0  0  0
  -21.1480   -4.0280   25.8780 F   0  0  0  0  0  0  0  0  0  0  0  0
  -22.9400  -13.8240   21.0840 C   0  0  0  0  0  0  0  0  0  0  0  0
  -22.1430  -13.1400   21.8940 N   0  0  0  0  0  0  0  0  0  0  0  0
  -22.5420  -14.8270   20.4940 O   0  0  0  0  0  0  0  0  0  0  0  0
  -22.4800  -12.3280   22.3900 H   0  0  0  0  0  0  0  0  0  0  0  0
  -21.1830  -13.4280   22.0210 H   0  0  0  0  0  0  0  0  0  0  0  0
  -25.6290  -15.5150   20.5410 N   0  0  0  0  0  0  0  0  0  0  0  0
  -24.8550  -16.1690   20.5890 H   0  0  0  0  0  0  0  0  0  0  0  0
  -26.5140  -15.9640   20.3560 H   0  0  0  0  0  0  0  0  0  0  0  0
  -28.7350  -18.6950   18.6850 C   0  0  0  0  0  2  0  0  0  0  0  0
  -30.1480  -18.8060   16.6190 C   0  0  0  0  0  1  0  0  0  0  0  0
  -30.1300  -16.7570   17.9610 C   0  0  0  0  0  1  0  0  0  0  0  0
  -29.3830  -17.9610   17.5630 N   0  0  1  0  0  4  0  0  0  0  0  0
  -28.6060  -17.6180   17.0150 H   0  0  0  0  0  0  0  0  0  0  0  0
  2  1  1  0
  3  1  2  0
  4  2  2  0
  5  3  1  0
  6  5  1  0
  7  4  1  0
  7  5  2  0
  8  9  1  0
  8  4  1  0
  9 10  1  0
 11 22  2  0
 12 10  1  0
 12 17  1  0
 13 21  1  0
 13 23  1  0
 14 20  1  0
 14 16  1  0
 15 21  1  0
 16 15  1  0
 17 16  2  0
 18 19  1  0
 18 12  2  0
 19 14  2  0
 20 13  1  0
 21 11  1  0
 23 25  2  0
 24 23  1  0
 26 24  1  0
 27 36  2  0
 27 32  1  0
 28 24  1  0
 28 32  1  0
 29 28  1  0
 30 31  1  0
 30 29  1  0
 31 27  1  0
 32 33  2  0
 33 34  1  0
 35 34  2  0
 36 35  1  0
 37 11  1  0
 37 38  1  0
 37 47  1  0
 38 41  1  0
 39 43  1  0
 39 38  1  0
 40 39  2  0
 43 42  1  0
 45 43  1  0
 45 46  1  0
 45 44  1  0
 47 50  1  1
 47 48  1  0
 49 47  1  0
 51 92  1  0
 51  3  1  0
 51 52  1  0
 52 53  1  0
 53 62  1  0
 54 62  1  0
 55 60  1  0
 56 57  1  0
 56 55  1  0
 58 57  1  0
 58 67  1  0
 58 59  1  0
 60 54  1  0
 60 59  1  0
 61 54  2  0
 62 63  1  0
 64 65  2  0
 65 66  1  0
 65 84  1  0
 66 69  1  0
 67 64  1  0
 67 68  1  0
 68 66  2  0
 69 70  1  0
 70 71  2  0
 72 75  1  0
 72 71  1  0
 73 72  2  0
 74 73  1  0
 74 69  2  0
 75 76  1  0
 76 77  1  0
 77 78  2  0
 79 78  1  0
 79 83  1  0
 80 79  2  0
 81 76  2  0
 81 80  1  0
 82 81  1  0
 84 85  1  0
 85 88  1  0
 85 87  1  0
 86 84  2  0
 89 90  1  0
 89 64  1  0
 91 89  1  0
 93 95  1  0
 95 94  1  0
 95 92  1  0
 95 96  1  6
M  ISO  4   9 101  10 101  54 100  62 100
M  END
>  <TORSDO>  (19) 
F 23

>  <SCORE>  (19) 
-12.273

>  <name>  (19) 
18

>  <ligand_id>  (19) 
18

>  <original_smiles>  (19) 
[H]c1c(C([H])([H])C([H])([H])Oc2c([H])c([H])c3c(c2[H])C([H])([H])N(C(=O)C([H])(N([H])C(=O)C([H])(N([H])C([H])([H])[H])C([H])([H])[H])C(C([H])([H])[H])(C([H])([H])[H])C([H])([H])[H])C([H])(C(=O)N([H])C2([H])c4c([H])c([H])c([H])c([H])c4C([H])([H])C([H])([H])C2([H])[H])C3([H])[H])nc(C([H])([H])[H])c(C([H])(C([H])([H])C([H])([H])N([H])C(=O)N2C([H])([H])C([H])([H])C([H])([H])C([H])(n3nc(-c4c([H])c([H])c(Oc5c([H])c([H])c(F)c([H])c5F)c([H])c4[H])c(C(=O)N([H])[H])c3N([H])[H])C2([H])[H])C([H])([H])[N+]([H])(C([H])([H])[H])C([H])([H])[H])c1[H]

>  <smiles>  (19) 
[H]c1c(C([H])([H])C([H])([H])Oc2c([H])c([H])c3c(c2[H])C([H])([H])N(C(=O)C([H])(N([H])C(=O)C([H])(N([H])C([H])([H])[H])C([H])([H])[H])C(C([H])([H])[H])(C([H])([H])[H])C([H])([H])[H])C([H])(C(=O)N([H])C2([H])c4c([H])c([H])c([H])c([H])c4C([H])([H])C([H])([H])C2([H])[H])C3([H])[H])nc(C([H])([H])[H])c(C([H])(C([H])([H])C([H])([H])N([H])C(=O)N2C([H])([H])C([H])([H])C([H])([H])C([H])(n3nc(-c4c([H])c([H])c(Oc5c([H])c([H])c(F)c([H])c5F)c([H])c4[H])c(C(=O)N([H])[H])c3N([H])[H])C2([H])[H])C([H])([H])[N+]([H])(C([H])([H])[H])C([H])([H])[H])c1[H]

$$$$
19:0:0
     RDKit          3D

 95103  0  0  1  0  0  0  0  0999 V2000
  -27.9050  -25.1120   22.0620 C   0  0  0  0  0  1  0  0  0  0  0  0
  -28.0990  -24.9270   20.5420 C   0  0  1  0  0  0  0  0  0  0  0  0
  -24.4700  -23.9480   18.1960 C   0  0  0  0  0  2  0  0  0  0  0  0
  -24.4230  -23.5260   19.6720 C   0  0  0  0  0  2  0  0  0  0  0  0
  -25.8130  -23.5690   17.5530 C   0  0  0  0  0  2  0  0  0  0  0  0
  -25.5440  -24.1580   20.5120 C   0  0  0  0  0  2  0  0  0  0  0  0
  -27.0410  -24.1300   18.2890 C   0  0  0  0  0  2  0  0  0  0  0  0
  -26.9520  -24.0860   19.8500 C   0  0  0  0  0  3  0  0  0  0  0  0
  -28.2560  -26.3760   20.0860 O   0  0  0  0  0  0  0  0  0  0  0  0
  -24.6240  -31.8760   23.2370 C   0  0  0  0  0  0  0  0  0  0  0  0
  -27.1810  -27.3080   20.1020 C   0  0  0  0  0  0  0  0  0  0  0  0
  -23.3930  -30.4930   21.6110 C   0  0  0  0  0  3  0  0  0  0  0  0
  -24.8260  -28.9740   20.1500 C   0  0  0  0  0  0  0  0  0  0  0  0
  -25.9390  -30.7960   21.4030 C   0  0  0  0  0  2  0  0  0  0  0  0
  -26.0110  -29.4180   20.7530 C   0  0  0  0  0  0  0  0  0  0  0  0
  -27.1870  -28.5940   20.7380 C   0  0  0  0  0  3  0  0  0  0  0  0
  -25.9960  -27.0080   19.4020 C   0  0  0  0  0  3  0  0  0  0  0  0
  -24.8240  -27.7630   19.4660 C   0  0  0  0  0  3  0  0  0  0  0  0
  -23.5840  -29.8370   20.2230 C   0  0  0  0  0  2  0  0  0  0  0  0
  -24.6720  -31.0700   22.1390 N   0  0  0  0  0  0  0  0  0  0  0  0
  -23.5490  -32.1550   23.7860 O   0  0  0  0  0  0  0  0  0  0  0  0
  -22.7410  -29.4660   22.5680 C   0  0  0  0  0  0  0  0  0  0  0  0
  -21.4130  -29.2870   22.4500 N   0  0  0  0  0  0  0  0  0  0  0  0
  -23.4250  -28.8370   23.3760 O   0  0  0  0  0  0  0  0  0  0  0  0
  -20.9180  -29.8510   21.7740 H   0  0  0  0  0  0  0  0  0  0  0  0
  -18.0430  -28.0700   22.9610 C   0  0  0  0  0  0  0  0  0  0  0  0
  -20.6010  -28.3480   23.2260 C   0  0  0  0  0  3  0  0  0  0  0  0
  -20.7100  -26.9130   22.6580 C   0  0  0  0  0  2  0  0  0  0  0  0
  -19.6090  -26.5770   21.6480 C   0  0  0  0  0  2  0  0  0  0  0  0
  -18.2250  -26.7190   22.2920 C   0  0  0  0  0  2  0  0  0  0  0  0
  -19.1580  -28.8420   23.3850 C   0  0  0  0  0  0  0  0  0  0  0  0
  -18.9330  -30.1050   23.9730 C   0  0  0  0  0  3  0  0  0  0  0  0
  -17.6260  -30.6010   24.1400 C   0  0  0  0  0  3  0  0  0  0  0  0
  -16.5260  -29.8280   23.7330 C   0  0  0  0  0  3  0  0  0  0  0  0
  -16.7350  -28.5640   23.1500 C   0  0  0  0  0  3  0  0  0  0  0  0
  -25.9180  -32.4990   23.8420 C   0  0  0  0  0  3  0  0  0  0  0  0
  -25.6150  -33.8930   24.1920 N   0  0  0  0  0  0  0  0  0  0  0  0
  -25.9270  -34.9530   23.4330 C   0  0  0  0  0  0  0  0  0  0  0  0
  -26.5730  -34.8590   22.3850 O   0  0  0  0  0  0  0  0  0  0  0  0
  -25.0530  -34.0410   25.0170 H   0  0  0  0  0  0  0  0  0  0  0  0
  -24.1900  -36.7460   23.1290 C   0  0  0  0  0  1  0  0  0  0  0  0
  -25.4480  -36.3360   23.9120 C   0  0  0  0  0  3  0  0  0  0  0  0
  -27.6010  -37.2120   24.7020 C   0  0  0  0  0  1  0  0  0  0  0  0
  -26.4770  -37.3910   23.7860 N   0  0  0  0  0  0  0  0  0  0  0  0
  -26.0740  -38.3080   23.9560 H   0  0  0  0  0  0  0  0  0  0  0  0
  -26.4520  -31.7140   25.1010 C   0  0  1  0  0  0  0  0  0  0  0  0
  -25.3700  -31.4680   26.1830 C   0  0  0  0  0  1  0  0  0  0  0  0
  -27.0260  -30.3370   24.6870 C   0  0  0  0  0  1  0  0  0  0  0  0
  -27.6160  -32.4990   25.7510 C   0  0  0  0  0  1  0  0  0  0  0  0
  -29.3830  -23.9590   20.3560 C   0  0  0  0  0  2  0  0  0  0  0  0
  -29.4000  -22.4640   21.0160 C   0  0  0  0  0  2  0  0  0  0  0  0
  -30.6810  -21.3280   19.1820 C   0  0  0  0  0  1  0  0  0  0  0  0
  -29.5970  -21.1830   20.1820 N   0  0  1  0  0  4  0  0  0  0  0  0
  -28.7440  -21.0500   19.6550 H   0  0  0  0  0  0  0  0  0  0  0  0
  -29.7990  -19.9030   21.0110 C   0  0  0  0  0  2  0  0  0  0  0  0
  -29.6310  -18.4410   20.3410 C   0  0  0  0  0  3  0  0  0  0  0  0
  -30.2790  -17.1910   21.1190 C   0  0  0  0  0  3  0  0  0  0  0  0
  -30.5940  -14.6760   20.4260 C   0  0  0  0  0  0  0  0  0  0  0  0
  -30.3600  -12.4350   19.3570 C   0  0  0  0  0  2  0  0  0  0  0  0
  -29.4020  -12.5240   18.1470 C   0  0  0  0  0  2  0  0  0  0  0  0
  -27.9390  -12.3530   18.5990 C   0  0  0  0  0  2  0  0  0  0  0  0
  -27.5830  -13.2460   19.8170 C   0  0  0  0  0  3  0  0  0  0  0  0
  -28.6500  -13.1290   20.9280 C   0  0  0  0  0  2  0  0  0  0  0  0
  -29.9490  -13.4680   20.3320 N   0  0  0  0  0  0  0  0  0  0  0  0
  -31.7580  -14.8070   20.0380 O   0  0  0  0  0  0  0  0  0  0  0  0
  -29.8500  -15.7670   20.8150 N   0  0  0  0  0  0  0  0  0  0  0  0
  -28.9100  -15.5330   21.0990 H   0  0  0  0  0  0  0  0  0  0  0  0
  -25.1940  -13.8470   20.5500 C   0  0  0  0  0  0  0  0  0  0  0  0
  -24.1300  -13.0720   20.9310 C   0  0  0  0  0  0  0  0  0  0  0  0
  -24.5940  -11.7220   20.9020 C   0  0  0  0  0  0  0  0  0  0  0  0
  -26.2370  -12.9660   20.3150 N   0  0  0  0  0  0  0  0  0  0  0  0
  -25.8820  -11.6820   20.5860 N   0  0  0  0  0  0  0  0  0  0  0  0
  -23.8700  -10.4580   21.0990 C   0  0  0  0  0  0  0  0  0  0  0  0
  -24.3260   -9.4820   22.0110 C   0  0  0  0  0  3  0  0  0  0  0  0
  -23.6010   -8.2840   22.1980 C   0  0  0  0  0  3  0  0  0  0  0  0
  -22.4080   -8.0560   21.4730 C   0  0  0  0  0  0  0  0  0  0  0  0
  -21.9710   -9.0220   20.5500 C   0  0  0  0  0  3  0  0  0  0  0  0
  -22.6950  -10.2120   20.3610 C   0  0  0  0  0  3  0  0  0  0  0  0
  -21.6530   -6.9120   21.5690 O   0  0  0  0  0  0  0  0  0  0  0  0
  -21.6540   -6.1430   22.7060 C   0  0  0  0  0  0  0  0  0  0  0  0
  -21.3080   -6.6750   23.9660 C   0  0  0  0  0  3  0  0  0  0  0  0
  -21.2550   -5.8340   25.0950 C   0  0  0  0  0  3  0  0  0  0  0  0
  -21.5400   -4.4620   24.9660 C   0  0  0  0  0  0  0  0  0  0  0  0
  -21.8810   -3.9290   23.7110 C   0  0  0  0  0  3  0  0  0  0  0  0
  -21.9350   -4.7680   22.5840 C   0  0  0  0  0  0  0  0  0  0  0  0
  -22.2440   -4.2440   21.3720 F   0  0  0  0  0  0  0  0  0  0  0  0
  -21.4810   -3.6520   26.0490 F   0  0  0  0  0  0  0  0  0  0  0  0
  -22.7350  -13.5510   21.2100 C   0  0  0  0  0  0  0  0  0  0  0  0
  -22.0150  -12.8540   22.0840 N   0  0  0  0  0  0  0  0  0  0  0  0
  -22.2930  -14.5730   20.6890 O   0  0  0  0  0  0  0  0  0  0  0  0
  -22.3850  -12.0240   22.5210 H   0  0  0  0  0  0  0  0  0  0  0  0
  -21.0810  -13.1560   22.3190 H   0  0  0  0  0  0  0  0  0  0  0  0
  -25.3580  -15.2160   20.3650 N   0  0  0  0  0  0  0  0  0  0  0  0
  -24.5890  -15.8680   20.4690 H   0  0  0  0  0  0  0  0  0  0  0  0
  -26.1990  -15.6490   20.0040 H   0  0  0  0  0  0  0  0  0  0  0  0
  2  1  1  1
  3  4  1  0
  4  6  1  0
  5  3  1  0
  5  7  1  0
  7  8  1  0
  8  6  1  0
  8  2  1  0
  9 11  1  0
  9  2  1  0
 10 21  2  0
 11 16  1  0
 12 20  1  0
 12 22  1  0
 13 19  1  0
 13 15  1  0
 14 20  1  0
 15 14  1  0
 16 15  2  0
 17 18  1  0
 17 11  2  0
 18 13  2  0
 19 12  1  0
 20 10  1  0
 22 24  2  0
 23 22  1  0
 25 23  1  0
 26 35  2  0
 26 31  1  0
 27 23  1  0
 27 31  1  0
 28 27  1  0
 29 30  1  0
 29 28  1  0
 30 26  1  0
 31 32  2  0
 32 33  1  0
 34 33  2  0
 35 34  1  0
 36 10  1  0
 36 37  1  0
 36 46  1  0
 37 40  1  0
 38 42  1  0
 38 37  1  0
 39 38  2  0
 42 41  1  0
 44 42  1  0
 44 45  1  0
 44 43  1  0
 46 49  1  1
 46 47  1  0
 48 46  1  0
 50  2  1  0
 50 51  1  0
 52 53  1  0
 53 55  1  0
 53 51  1  0
 53 54  1  6
 56 55  1  0
 56 57  2  0
 58 66  1  0
 59 64  1  0
 60 61  1  0
 60 59  1  0
 62 61  1  0
 62 71  1  0
 62 63  1  0
 64 58  1  0
 64 63  1  0
 65 58  2  0
 66 67  1  0
 66 57  1  0
 68 69  2  0
 69 88  1  0
 70 69  1  0
 70 73  1  0
 71 68  1  0
 71 72  1  0
 72 70  2  0
 73 74  1  0
 74 75  2  0
 76 79  1  0
 76 75  1  0
 77 76  2  0
 78 77  1  0
 78 73  2  0
 79 80  1  0
 80 81  1  0
 81 82  2  0
 83 82  1  0
 83 87  1  0
 84 83  2  0
 85 80  2  0
 85 84  1  0
 86 85  1  0
 88 89  1  0
 89 92  1  0
 89 91  1  0
 90 88  2  0
 93 94  1  0
 93 68  1  0
 95 93  1  0
M  ISO  4   2 101   9 101  58 100  66 100
M  END
>  <TORSDO>  (20) 
F 23

>  <SCORE>  (20) 
-12.944

>  <name>  (20) 
19

>  <ligand_id>  (20) 
19

>  <original_smiles>  (20) 
[H]c1c([H])c([H])c2c(c1[H])C([H])([H])C([H])([H])C([H])([H])C2([H])N([H])C(=O)C1([H])N(C(=O)C([H])(N([H])C(=O)C([H])(N([H])C([H])([H])[H])C([H])([H])[H])C(C([H])([H])[H])(C([H])([H])[H])C([H])([H])[H])C([H])([H])c2c([H])c(OC(C([H])([H])[H])(C([H])([H])C([H])([H])[N+]([H])(C([H])([H])[H])C([H])([H])C([H])([H])C([H])([H])N([H])C(=O)N3C([H])([H])C([H])([H])C([H])([H])C([H])(n4nc(-c5c([H])c([H])c(Oc6c([H])c([H])c(F)c([H])c6F)c([H])c5[H])c(C(=O)N([H])[H])c4N([H])[H])C3([H])[H])C3([H])C([H])([H])C([H])([H])C([H])([H])C([H])([H])C3([H])[H])c([H])c([H])c2C1([H])[H]

>  <smiles>  (20) 
[H]c1c([H])c([H])c2c(c1[H])C([H])([H])C([H])([H])C([H])([H])C2([H])N([H])C(=O)C1([H])N(C(=O)C([H])(N([H])C(=O)C([H])(N([H])C([H])([H])[H])C([H])([H])[H])C(C([H])([H])[H])(C([H])([H])[H])C([H])([H])[H])C([H])([H])c2c([H])c(OC(C([H])([H])[H])(C([H])([H])C([H])([H])[N+]([H])(C([H])([H])[H])C([H])([H])C([H])([H])C([H])([H])N([H])C(=O)N3C([H])([H])C([H])([H])C([H])([H])C([H])(n4nc(-c5c([H])c([H])c(Oc6c([H])c([H])c(F)c([H])c6F)c([H])c5[H])c(C(=O)N([H])[H])c4N([H])[H])C3([H])[H])C3([H])C([H])([H])C([H])([H])C([H])([H])C([H])([H])C3([H])[H])c([H])c([H])c2C1([H])[H]

$$$$
20:0:0
     RDKit          3D

 93101  0  0  1  0  0  0  0  0999 V2000
  -29.9740  -20.6690   20.6540 C   0  0  0  0  0  3  0  0  0  0  0  0
  -28.2560  -21.0800   19.3900 C   0  0  0  0  0  3  0  0  0  0  0  0
  -29.6490  -19.3610   20.1790 C   0  0  0  0  0  0  0  0  0  0  0  0
  -28.5150  -19.7030   19.3480 C   0  0  0  0  0  0  0  0  0  0  0  0
  -29.1520  -21.7800   20.1930 N   0  0  0  0  0  0  0  0  0  0  0  0
  -26.2160  -18.9860   18.5430 C   0  0  0  0  0  1  0  0  0  0  0  0
  -27.7310  -18.7190   18.5040 C   0  0  0  0  0  3  0  0  0  0  0  0
  -28.2550  -18.7330   17.1310 N   0  0  0  0  0  4  0  0  0  0  0  0
  -28.1300  -19.6380   16.7160 H   0  0  0  0  0  0  0  0  0  0  0  0
  -27.7920  -18.0480   16.5610 H   0  0  0  0  0  0  0  0  0  0  0  0
  -29.2370  -18.5280   17.1430 H   0  0  0  0  0  0  0  0  0  0  0  0
  -30.4400  -17.8860   20.4530 C   0  0  0  0  0  2  0  0  0  0  0  0
  -30.7020  -15.1330   20.2820 C   0  0  0  0  0  0  0  0  0  0  0  0
  -30.5640  -12.7750   19.3290 C   0  0  0  0  0  2  0  0  0  0  0  0
  -29.6280  -12.7180   18.1000 C   0  0  0  0  0  2  0  0  0  0  0  0
  -28.1690  -12.5000   18.5400 C   0  0  0  0  0  2  0  0  0  0  0  0
  -27.7640  -13.4230   19.7190 C   0  0  0  0  0  3  0  0  0  0  0  0
  -28.8250  -13.4530   20.8390 C   0  0  0  0  0  2  0  0  0  0  0  0
  -30.0850  -13.8780   20.2170 N   0  0  0  0  0  0  0  0  0  0  0  0
  -31.9100  -15.1570   20.0250 O   0  0  0  0  0  0  0  0  0  0  0  0
  -29.9650  -16.3600   20.4250 N   0  0  0  0  0  0  0  0  0  0  0  0
  -28.9830  -16.2200   20.6080 H   0  0  0  0  0  0  0  0  0  0  0  0
  -25.3910  -14.0000   20.4730 C   0  0  0  0  0  0  0  0  0  0  0  0
  -24.3250  -13.2260   20.8390 C   0  0  0  0  0  0  0  0  0  0  0  0
  -24.7880  -11.8740   20.8010 C   0  0  0  0  0  0  0  0  0  0  0  0
  -26.4310  -13.1210   20.2250 N   0  0  0  0  0  0  0  0  0  0  0  0
  -26.0780  -11.8360   20.4900 N   0  0  0  0  0  0  0  0  0  0  0  0
  -24.0570  -10.6140   20.9850 C   0  0  0  0  0  0  0  0  0  0  0  0
  -24.4650   -9.6550   21.9390 C   0  0  0  0  0  3  0  0  0  0  0  0
  -23.7320   -8.4610   22.1110 C   0  0  0  0  0  3  0  0  0  0  0  0
  -22.5780   -8.2170   21.3290 C   0  0  0  0  0  0  0  0  0  0  0  0
  -22.1900   -9.1640   20.3650 C   0  0  0  0  0  3  0  0  0  0  0  0
  -22.9230  -10.3500   20.1920 C   0  0  0  0  0  3  0  0  0  0  0  0
  -21.8200   -7.0740   21.4090 O   0  0  0  0  0  0  0  0  0  0  0  0
  -21.7040   -6.3680   22.5790 C   0  0  0  0  0  0  0  0  0  0  0  0
  -21.1480   -6.9400   23.7440 C   0  0  0  0  0  3  0  0  0  0  0  0
  -20.9850   -6.1570   24.9050 C   0  0  0  0  0  3  0  0  0  0  0  0
  -21.3670   -4.8030   24.9000 C   0  0  0  0  0  0  0  0  0  0  0  0
  -21.9170   -4.2290   23.7400 C   0  0  0  0  0  3  0  0  0  0  0  0
  -22.0820   -5.0090   22.5810 C   0  0  0  0  0  0  0  0  0  0  0  0
  -22.5910   -4.4460   21.4590 F   0  0  0  0  0  0  0  0  0  0  0  0
  -21.2040   -4.0480   26.0120 F   0  0  0  0  0  0  0  0  0  0  0  0
  -22.9310  -13.7080   21.1110 C   0  0  0  0  0  0  0  0  0  0  0  0
  -22.2070  -13.0240   21.9890 N   0  0  0  0  0  0  0  0  0  0  0  0
  -22.4920  -14.7280   20.5800 O   0  0  0  0  0  0  0  0  0  0  0  0
  -22.5750  -12.1990   22.4410 H   0  0  0  0  0  0  0  0  0  0  0  0
  -21.2710  -13.3290   22.2150 H   0  0  0  0  0  0  0  0  0  0  0  0
  -25.5580  -15.3700   20.3050 N   0  0  0  0  0  0  0  0  0  0  0  0
  -24.7990  -16.0260   20.4470 H   0  0  0  0  0  0  0  0  0  0  0  0
  -26.4190  -15.8020   20.0090 H   0  0  0  0  0  0  0  0  0  0  0  0
  -29.2590  -23.3600   20.5000 C   0  0  0  0  0  3  0  0  0  0  0  0
  -28.2150  -24.6480   20.0750 C   0  0  0  0  0  3  0  0  0  0  0  0
  -28.4090  -26.1920   20.3580 O   0  0  0  0  0  0  0  0  0  0  0  0
  -24.6360  -31.8670   23.2650 C   0  0  0  0  0  0  0  0  0  0  0  0
  -27.3460  -27.1800   20.2670 C   0  0  0  0  0  0  0  0  0  0  0  0
  -23.4980  -30.4710   21.5840 C   0  0  0  0  0  3  0  0  0  0  0  0
  -25.0020  -28.9200   20.1840 C   0  0  0  0  0  0  0  0  0  0  0  0
  -26.0530  -30.7590   21.4920 C   0  0  0  0  0  2  0  0  0  0  0  0
  -26.1610  -29.3710   20.8290 C   0  0  0  0  0  0  0  0  0  0  0  0
  -27.3340  -28.5180   20.8500 C   0  0  0  0  0  3  0  0  0  0  0  0
  -26.1600  -26.8390   19.5850 C   0  0  0  0  0  3  0  0  0  0  0  0
  -25.0170  -27.6710   19.5460 C   0  0  0  0  0  3  0  0  0  0  0  0
  -23.7640  -29.8070   20.2060 C   0  0  0  0  0  2  0  0  0  0  0  0
  -24.7480  -31.0550   22.1690 N   0  0  0  0  0  0  0  0  0  0  0  0
  -23.5320  -32.1350   23.7660 O   0  0  0  0  0  0  0  0  0  0  0  0
  -22.8040  -29.4500   22.5200 C   0  0  0  0  0  0  0  0  0  0  0  0
  -21.4750  -29.2860   22.3770 N   0  0  0  0  0  0  0  0  0  0  0  0
  -23.4630  -28.8080   23.3420 O   0  0  0  0  0  0  0  0  0  0  0  0
  -21.0000  -29.8560   21.6920 H   0  0  0  0  0  0  0  0  0  0  0  0
  -18.0780  -28.1270   22.8650 C   0  0  0  0  0  0  0  0  0  0  0  0
  -20.6430  -28.3380   23.1220 C   0  0  0  0  0  3  0  0  0  0  0  0
  -20.7160  -26.9240   22.4980 C   0  0  0  0  0  2  0  0  0  0  0  0
  -19.6010  -26.6560   21.4810 C   0  0  0  0  0  2  0  0  0  0  0  0
  -18.2270  -26.8010   22.1400 C   0  0  0  0  0  2  0  0  0  0  0  0
  -19.2120  -28.8560   23.3120 C   0  0  0  0  0  0  0  0  0  0  0  0
  -19.0170  -30.0990   23.9540 C   0  0  0  0  0  3  0  0  0  0  0  0
  -17.7220  -30.6120   24.1510 C   0  0  0  0  0  3  0  0  0  0  0  0
  -16.6020  -29.8800   23.7180 C   0  0  0  0  0  3  0  0  0  0  0  0
  -16.7810  -28.6380   23.0820 C   0  0  0  0  0  3  0  0  0  0  0  0
  -25.8880  -32.5140   23.9330 C   0  0  0  0  0  3  0  0  0  0  0  0
  -25.5630  -33.9190   24.2300 N   0  0  0  0  0  0  0  0  0  0  0  0
  -25.8980  -34.9620   23.4590 C   0  0  0  0  0  0  0  0  0  0  0  0
  -26.5790  -34.8430   22.4370 O   0  0  0  0  0  0  0  0  0  0  0  0
  -24.9570  -34.0840   25.0210 H   0  0  0  0  0  0  0  0  0  0  0  0
  -24.1600  -36.7390   23.0670 C   0  0  0  0  0  1  0  0  0  0  0  0
  -25.4030  -36.3580   23.8870 C   0  0  0  0  0  3  0  0  0  0  0  0
  -27.5210  -37.2850   24.7140 C   0  0  0  0  0  1  0  0  0  0  0  0
  -26.4290  -37.4150   23.7540 N   0  0  0  0  0  0  0  0  0  0  0  0
  -26.0140  -38.3360   23.8680 H   0  0  0  0  0  0  0  0  0  0  0  0
  -26.3440  -31.7690   25.2480 C   0  0  1  0  0  0  0  0  0  0  0  0
  -25.2020  -31.5470   26.2670 C   0  0  0  0  0  1  0  0  0  0  0  0
  -26.9490  -30.3860   24.9150 C   0  0  0  0  0  1  0  0  0  0  0  0
  -27.4590  -32.5800   25.9490 C   0  0  0  0  0  1  0  0  0  0  0  0
  2  5  1  0
  3 12  1  0
  3  1  2  0
  4  2  2  0
  4  3  1  0
  5 51  1  0
  5  1  1  0
  7  6  1  0
  7  4  1  0
  8 11  1  0
  8  7  1  0
  9  8  1  0
 10  8  1  0
 13 21  1  0
 14 19  1  0
 15 16  1  0
 15 14  1  0
 17 16  1  0
 17 26  1  0
 17 18  1  0
 19 13  1  0
 19 18  1  0
 20 13  2  0
 21 12  1  0
 21 22  1  0
 23 24  2  0
 24 43  1  0
 25 24  1  0
 25 28  1  0
 26 23  1  0
 26 27  1  0
 27 25  2  0
 28 29  1  0
 29 30  2  0
 31 34  1  0
 31 30  1  0
 32 31  2  0
 33 32  1  0
 33 28  2  0
 34 35  1  0
 35 40  2  0
 35 36  1  0
 36 37  2  0
 38 37  1  0
 38 42  1  0
 39 38  2  0
 40 39  1  0
 41 40  1  0
 43 44  1  0
 44 47  1  0
 44 46  1  0
 45 43  2  0
 48 49  1  0
 48 23  1  0
 50 48  1  0
 52 53  1  0
 52 51  2  0
 54 65  2  0
 55 53  1  0
 55 60  1  0
 56 64  1  0
 56 66  1  0
 57 63  1  0
 57 59  1  0
 58 64  1  0
 59 60  2  0
 59 58  1  0
 61 55  2  0
 62 61  1  0
 62 57  2  0
 63 56  1  0
 64 54  1  0
 66 68  2  0
 67 66  1  0
 69 67  1  0
 70 79  2  0
 70 75  1  0
 71 67  1  0
 71 75  1  0
 72 71  1  0
 73 74  1  0
 73 72  1  0
 74 70  1  0
 75 76  2  0
 76 77  1  0
 78 77  2  0
 79 78  1  0
 80 54  1  0
 80 81  1  0
 80 90  1  0
 81 84  1  0
 82 86  1  0
 82 81  1  0
 83 82  2  0
 86 85  1  0
 88 89  1  0
 88 86  1  0
 88 87  1  0
 90 93  1  1
 90 91  1  0
 92 90  1  0
M  ISO  4  13 100  21 100  52 101  53 101
M  END
>  <TORSDO>  (21) 
F 21

>  <SCORE>  (21) 
-14.725

>  <name>  (21) 
20

>  <ligand_id>  (21) 
20

>  <original_smiles>  (21) 
[H]c1c([H])c([H])c2c(c1[H])C([H])([H])C([H])([H])C([H])([H])C2([H])N([H])C(=O)C1([H])N(C(=O)C([H])(N([H])C(=O)C([H])(N([H])C([H])([H])[H])C([H])([H])[H])C(C([H])([H])[H])(C([H])([H])[H])C([H])([H])[H])C([H])([H])c2c([H])c(OC([H])([H])C([H])([H])n3c([H])c(C([H])([H])N([H])C(=O)N4C([H])([H])C([H])([H])C([H])([H])C([H])(n5nc(-c6c([H])c([H])c(Oc7c([H])c([H])c(F)c([H])c7F)c([H])c6[H])c(C(=O)N([H])[H])c5N([H])[H])C4([H])[H])c(C([H])(C([H])([H])[H])[N+]([H])([H])[H])c3[H])c([H])c([H])c2C1([H])[H]

>  <smiles>  (21) 
[H]c1c([H])c([H])c2c(c1[H])C([H])([H])C([H])([H])C([H])([H])C2([H])N([H])C(=O)C1([H])N(C(=O)C([H])(N([H])C(=O)C([H])(N([H])C([H])([H])[H])C([H])([H])[H])C(C([H])([H])[H])(C([H])([H])[H])C([H])([H])[H])C([H])([H])c2c([H])c(OC([H])([H])C([H])([H])n3c([H])c(C([H])([H])N([H])C(=O)N4C([H])([H])C([H])([H])C([H])([H])C([H])(n5nc(-c6c([H])c([H])c(Oc7c([H])c([H])c(F)c([H])c7F)c([H])c6[H])c(C(=O)N([H])[H])c5N([H])[H])C4([H])[H])c(C([H])(C([H])([H])[H])[N+]([H])([H])[H])c3[H])c([H])c([H])c2C1([H])[H]

$$$$
21:0:0
     RDKit          3D

 96104  0  0  1  0  0  0  0  0999 V2000
  -29.6900  -20.2910   18.5990 C   0  0  0  0  0  3  0  0  0  0  0  0
  -29.6600  -20.7080   19.9670 C   0  0  0  0  0  0  0  0  0  0  0  0
  -30.0940  -18.9690   18.4950 C   0  0  0  0  0  0  0  0  0  0  0  0
  -29.9430  -19.5190   20.6510 C   0  0  0  0  0  0  0  0  0  0  0  0
  -30.0070  -19.3390   22.1380 C   0  0  0  0  0  1  0  0  0  0  0  0
  -30.2950  -18.4480   19.7750 N   0  0  0  0  0  0  0  0  0  0  0  0
  -31.9000  -18.3040   16.8720 C   0  0  0  0  0  1  0  0  0  0  0  0
  -29.5170  -18.5320   16.0720 C   0  0  0  0  0  1  0  0  0  0  0  0
  -30.4160  -18.1680   17.2630 C   0  0  0  0  0  3  0  0  0  0  0  0
  -30.9940  -17.1190   20.1290 C   0  0  0  0  0  2  0  0  0  0  0  0
  -31.0870  -14.5590   19.6050 C   0  0  0  0  0  0  0  0  0  0  0  0
  -30.7330  -12.2320   18.7540 C   0  0  0  0  0  2  0  0  0  0  0  0
  -29.6910  -12.2450   17.6180 C   0  0  0  0  0  2  0  0  0  0  0  0
  -28.2600  -12.1560   18.1840 C   0  0  0  0  0  2  0  0  0  0  0  0
  -28.0210  -13.1290   19.3680 C   0  0  0  0  0  3  0  0  0  0  0  0
  -29.1740  -13.0840   20.3910 C   0  0  0  0  0  2  0  0  0  0  0  0
  -30.4120  -13.3620   19.6560 N   0  0  0  0  0  0  0  0  0  0  0  0
  -32.2530  -14.5790   19.1990 O   0  0  0  0  0  0  0  0  0  0  0  0
  -30.4000  -15.7430   19.8410 N   0  0  0  0  0  0  0  0  0  0  0  0
  -29.4180  -15.6480   20.0540 H   0  0  0  0  0  0  0  0  0  0  0  0
  -25.7880  -13.8530   20.4000 C   0  0  0  0  0  0  0  0  0  0  0  0
  -24.7120  -13.1400   20.8520 C   0  0  0  0  0  0  0  0  0  0  0  0
  -25.0550  -11.7610   20.7010 C   0  0  0  0  0  0  0  0  0  0  0  0
  -26.7230  -12.9110   20.0000 N   0  0  0  0  0  0  0  0  0  0  0  0
  -26.2960  -11.6460   20.2410 N   0  0  0  0  0  0  0  0  0  0  0  0
  -24.2540  -10.5480   20.9090 C   0  0  0  0  0  0  0  0  0  0  0  0
  -24.6310   -9.5620   21.8490 C   0  0  0  0  0  3  0  0  0  0  0  0
  -23.8290   -8.4160   22.0450 C   0  0  0  0  0  3  0  0  0  0  0  0
  -22.6380   -8.2470   21.3020 C   0  0  0  0  0  0  0  0  0  0  0  0
  -22.2790   -9.2200   20.3540 C   0  0  0  0  0  3  0  0  0  0  0  0
  -23.0790  -10.3570   20.1540 C   0  0  0  0  0  3  0  0  0  0  0  0
  -21.8120   -7.1540   21.4090 O   0  0  0  0  0  0  0  0  0  0  0  0
  -21.6590   -6.4810   22.5950 C   0  0  0  0  0  0  0  0  0  0  0  0
  -21.0940   -7.0960   23.7340 C   0  0  0  0  0  3  0  0  0  0  0  0
  -20.8910   -6.3460   24.9110 C   0  0  0  0  0  3  0  0  0  0  0  0
  -21.2410   -4.9820   24.9470 C   0  0  0  0  0  0  0  0  0  0  0  0
  -21.7970   -4.3680   23.8110 C   0  0  0  0  0  3  0  0  0  0  0  0
  -22.0020   -5.1140   22.6380 C   0  0  0  0  0  0  0  0  0  0  0  0
  -22.5190   -4.5110   21.5400 F   0  0  0  0  0  0  0  0  0  0  0  0
  -21.0390   -4.2610   26.0740 F   0  0  0  0  0  0  0  0  0  0  0  0
  -23.3970  -13.7030   21.3070 C   0  0  0  0  0  0  0  0  0  0  0  0
  -22.7120  -13.0140   22.2120 N   0  0  0  0  0  0  0  0  0  0  0  0
  -22.9900  -14.7870   20.8880 O   0  0  0  0  0  0  0  0  0  0  0  0
  -23.0510  -12.1330   22.5690 H   0  0  0  0  0  0  0  0  0  0  0  0
  -21.8320  -13.3730   22.5550 H   0  0  0  0  0  0  0  0  0  0  0  0
  -26.0380  -15.2150   20.2690 N   0  0  0  0  0  0  0  0  0  0  0  0
  -25.3320  -15.9100   20.4840 H   0  0  0  0  0  0  0  0  0  0  0  0
  -26.8550  -15.6100   19.8200 H   0  0  0  0  0  0  0  0  0  0  0  0
  -29.4720  -22.1800   20.5920 C   0  0  0  0  0  3  0  0  0  0  0  0
  -29.1270  -23.5260   19.7410 C   0  0  0  0  0  2  0  0  0  0  0  0
  -28.5140  -24.8110   20.5240 C   0  0  0  0  0  2  0  0  0  0  0  0
  -28.7390  -26.2330   20.1050 O   0  0  0  0  0  0  0  0  0  0  0  0
  -24.6510  -31.4940   22.9930 C   0  0  0  0  0  0  0  0  0  0  0  0
  -27.6120  -27.0730   20.0460 C   0  0  0  0  0  0  0  0  0  0  0  0
  -23.5980  -30.0520   21.2900 C   0  0  0  0  0  3  0  0  0  0  0  0
  -25.1850  -28.5850   19.9230 C   0  0  0  0  0  0  0  0  0  0  0  0
  -26.1230  -30.4920   21.2290 C   0  0  0  0  0  2  0  0  0  0  0  0
  -26.3010  -29.1220   20.5790 C   0  0  0  0  0  0  0  0  0  0  0  0
  -27.5230  -28.3800   20.6250 C   0  0  0  0  0  3  0  0  0  0  0  0
  -26.4760  -26.5990   19.3590 C   0  0  0  0  0  3  0  0  0  0  0  0
  -25.2750  -27.3300   19.3040 C   0  0  0  0  0  3  0  0  0  0  0  0
  -23.9090  -29.4010   19.9170 C   0  0  0  0  0  2  0  0  0  0  0  0
  -24.8060  -30.6990   21.8950 N   0  0  0  0  0  0  0  0  0  0  0  0
  -23.5290  -31.7120   23.4780 O   0  0  0  0  0  0  0  0  0  0  0  0
  -22.9420  -28.9950   22.2110 C   0  0  0  0  0  0  0  0  0  0  0  0
  -21.6170  -28.8140   22.0800 N   0  0  0  0  0  0  0  0  0  0  0  0
  -23.6240  -28.3420   23.0050 O   0  0  0  0  0  0  0  0  0  0  0  0
  -21.1200  -29.4030   21.4280 H   0  0  0  0  0  0  0  0  0  0  0  0
  -18.2320  -27.6690   22.6450 C   0  0  0  0  0  0  0  0  0  0  0  0
  -20.8070  -27.8400   22.8140 C   0  0  0  0  0  3  0  0  0  0  0  0
  -20.8400  -26.4520   22.1340 C   0  0  0  0  0  2  0  0  0  0  0  0
  -19.6860  -26.2350   21.1500 C   0  0  0  0  0  2  0  0  0  0  0  0
  -18.3390  -26.3700   21.8640 C   0  0  0  0  0  2  0  0  0  0  0  0
  -19.3910  -28.3660   23.0770 C   0  0  0  0  0  0  0  0  0  0  0  0
  -19.2360  -29.5860   23.7690 C   0  0  0  0  0  3  0  0  0  0  0  0
  -17.9550  -30.1100   24.0310 C   0  0  0  0  0  3  0  0  0  0  0  0
  -16.8110  -29.4100   23.6110 C   0  0  0  0  0  3  0  0  0  0  0  0
  -16.9510  -28.1900   22.9250 C   0  0  0  0  0  3  0  0  0  0  0  0
  -25.8690  -32.1850   23.6810 C   0  0  0  0  0  3  0  0  0  0  0  0
  -25.4540  -33.5420   24.0640 N   0  0  0  0  0  0  0  0  0  0  0  0
  -25.7060  -34.6480   23.3490 C   0  0  0  0  0  0  0  0  0  0  0  0
  -26.3840  -34.6390   22.3190 O   0  0  0  0  0  0  0  0  0  0  0  0
  -24.8560  -33.6210   24.8730 H   0  0  0  0  0  0  0  0  0  0  0  0
  -23.8360  -36.3040   23.0670 C   0  0  0  0  0  1  0  0  0  0  0  0
  -25.1110  -35.9740   23.8600 C   0  0  0  0  0  3  0  0  0  0  0  0
  -27.1590  -37.0090   24.7320 C   0  0  0  0  0  1  0  0  0  0  0  0
  -26.0550  -37.1110   23.7810 N   0  0  0  0  0  0  0  0  0  0  0  0
  -25.5730  -37.9900   23.9450 H   0  0  0  0  0  0  0  0  0  0  0  0
  -26.4010  -31.3940   24.9390 C   0  0  1  0  0  0  0  0  0  0  0  0
  -25.2970  -31.0230   25.9560 C   0  0  0  0  0  1  0  0  0  0  0  0
  -27.1010  -30.0860   24.5000 C   0  0  0  0  0  1  0  0  0  0  0  0
  -27.4640  -32.2390   25.6780 C   0  0  0  0  0  1  0  0  0  0  0  0
  -30.6840  -22.4680   21.5270 C   0  0  0  0  0  2  0  0  0  0  0  0
  -32.9250  -22.4600   20.2230 C   0  0  0  0  0  1  0  0  0  0  0  0
  -32.7900  -21.4910   22.5290 C   0  0  0  0  0  1  0  0  0  0  0  0
  -32.0150  -21.7330   21.2240 C   0  0  0  0  0  3  0  0  0  0  0  0
  1  2  1  0
  2 49  1  0
  2  4  2  0
  3  1  2  0
  3  6  1  0
  4  5  1  0
  6 10  1  0
  6  4  1  0
  7  9  1  0
  8  9  1  0
  9  3  1  0
 11 17  1  0
 11 19  1  0
 12 17  1  0
 13 14  1  0
 13 12  1  0
 15 14  1  0
 15 24  1  0
 15 16  1  0
 17 16  1  0
 18 11  2  0
 19 20  1  0
 19 10  1  0
 21 22  2  0
 22 41  1  0
 23 22  1  0
 23 26  1  0
 24 25  1  0
 24 21  1  0
 25 23  2  0
 26 27  1  0
 27 28  2  0
 29 32  1  0
 29 28  1  0
 30 29  2  0
 31 30  1  0
 31 26  2  0
 32 33  1  0
 33 38  2  0
 33 34  1  0
 34 35  2  0
 35 36  1  0
 36 40  1  0
 37 36  2  0
 38 37  1  0
 39 38  1  0
 41 42  1  0
 42 45  1  0
 42 44  1  0
 43 41  2  0
 46 21  1  0
 46 47  1  0
 48 46  1  0
 49 50  1  0
 49 93  1  0
 50 51  1  0
 52 51  1  0
 53 64  2  0
 54 52  1  0
 54 59  1  0
 55 63  1  0
 55 65  1  0
 56 58  1  0
 57 63  1  0
 58 59  2  0
 58 57  1  0
 60 54  2  0
 61 60  1  0
 61 56  2  0
 62 56  1  0
 62 55  1  0
 63 53  1  0
 65 67  2  0
 66 65  1  0
 68 66  1  0
 69 78  2  0
 69 74  1  0
 70 66  1  0
 70 74  1  0
 71 70  1  0
 72 73  1  0
 72 71  1  0
 73 69  1  0
 74 75  2  0
 75 76  1  0
 77 76  2  0
 78 77  1  0
 79 53  1  0
 79 80  1  0
 79 89  1  0
 80 83  1  0
 81 85  1  0
 81 80  1  0
 82 81  2  0
 85 84  1  0
 87 85  1  0
 87 88  1  0
 87 86  1  0
 89 92  1  1
 89 90  1  0
 91 89  1  0
 94 96  1  0
 96 93  1  0
 96 95  1  0
M  ISO  4  11 100  19 100  51 101  52 101
M  END
>  <TORSDO>  (22) 
F 23

>  <SCORE>  (22) 
-10.859

>  <name>  (22) 
21

>  <ligand_id>  (22) 
21

>  <original_smiles>  (22) 
[H]c1c([H])c([H])c2c(c1[H])C([H])([H])C([H])([H])C([H])([H])C2([H])N([H])C(=O)C1([H])N(C(=O)C([H])(N([H])C(=O)C([H])(N([H])C([H])([H])[H])C([H])([H])[H])C(C([H])([H])[H])(C([H])([H])[H])C([H])([H])[H])C([H])([H])c2c([H])c(OC([H])([H])C([H])([H])C([H])(c3c([H])c(C([H])(C([H])([H])[H])C([H])([H])[H])n(C([H])([H])N([H])C(=O)N4C([H])([H])C([H])([H])C([H])([H])C([H])(n5nc(-c6c([H])c([H])c(Oc7c([H])c([H])c(F)c([H])c7F)c([H])c6[H])c(C(=O)N([H])[H])c5N([H])[H])C4([H])[H])c3C([H])([H])[H])C([H])([H])C([H])(C([H])([H])[H])C([H])([H])[H])c([H])c([H])c2C1([H])[H]

>  <smiles>  (22) 
[H]c1c([H])c([H])c2c(c1[H])C([H])([H])C([H])([H])C([H])([H])C2([H])N([H])C(=O)C1([H])N(C(=O)C([H])(N([H])C(=O)C([H])(N([H])C([H])([H])[H])C([H])([H])[H])C(C([H])([H])[H])(C([H])([H])[H])C([H])([H])[H])C([H])([H])c2c([H])c(OC([H])([H])C([H])([H])C([H])(c3c([H])c(C([H])(C([H])([H])[H])C([H])([H])[H])n(C([H])([H])N([H])C(=O)N4C([H])([H])C([H])([H])C([H])([H])C([H])(n5nc(-c6c([H])c([H])c(Oc7c([H])c([H])c(F)c([H])c7F)c([H])c6[H])c(C(=O)N([H])[H])c5N([H])[H])C4([H])[H])c3C([H])([H])[H])C([H])([H])C([H])(C([H])([H])[H])C([H])([H])[H])c([H])c([H])c2C1([H])[H]

$$$$
22:0:0
     RDKit          3D

 92100  0  0  1  0  0  0  0  0999 V2000
  -29.1790  -19.6220   20.5110 C   0  0  0  0  0  3  0  0  0  0  0  0
  -30.8210  -21.1280   20.2990 C   0  0  0  0  0  3  0  0  0  0  0  0
  -30.3370  -18.8400   20.3670 C   0  0  0  0  0  0  0  0  0  0  0  0
  -31.3370  -19.8650   20.2290 C   0  0  0  0  0  0  0  0  0  0  0  0
  -29.4560  -21.0350   20.4620 N   0  0  0  0  0  0  0  0  0  0  0  0
  -33.4230  -19.2770   21.2800 C   0  0  0  0  0  1  0  0  0  0  0  0
  -33.1140  -19.0500   18.7940 C   0  0  0  0  0  1  0  0  0  0  0  0
  -32.7140  -19.6560   20.0610 N   0  0  0  0  0  0  0  0  0  0  0  0
  -30.7580  -17.2900   20.3020 C   0  0  0  0  0  2  0  0  0  0  0  0
  -30.6470  -14.7670   20.3450 C   0  0  0  0  0  0  0  0  0  0  0  0
  -30.3620  -12.5050   19.3420 C   0  0  0  0  0  2  0  0  0  0  0  0
  -29.4240  -12.5810   18.1200 C   0  0  0  0  0  2  0  0  0  0  0  0
  -27.9580  -12.4190   18.5600 C   0  0  0  0  0  2  0  0  0  0  0  0
  -27.5950  -13.3060   19.7830 C   0  0  0  0  0  3  0  0  0  0  0  0
  -28.6650  -13.2430   20.8950 C   0  0  0  0  0  2  0  0  0  0  0  0
  -29.9520  -13.5790   20.2790 N   0  0  0  0  0  0  0  0  0  0  0  0
  -31.8370  -14.7770   20.0230 O   0  0  0  0  0  0  0  0  0  0  0  0
  -30.0030  -15.9860   20.5280 N   0  0  0  0  0  0  0  0  0  0  0  0
  -29.0170  -16.0120   20.7380 H   0  0  0  0  0  0  0  0  0  0  0  0
  -25.2130  -13.8780   20.5350 C   0  0  0  0  0  0  0  0  0  0  0  0
  -24.1540  -13.0980   20.9100 C   0  0  0  0  0  0  0  0  0  0  0  0
  -24.6220  -11.7490   20.8700 C   0  0  0  0  0  0  0  0  0  0  0  0
  -26.2600  -13.0060   20.2870 N   0  0  0  0  0  0  0  0  0  0  0  0
  -25.9120  -11.7200   20.5530 N   0  0  0  0  0  0  0  0  0  0  0  0
  -23.9010  -10.4820   21.0580 C   0  0  0  0  0  0  0  0  0  0  0  0
  -24.3470   -9.5080   21.9780 C   0  0  0  0  0  3  0  0  0  0  0  0
  -23.6250   -8.3080   22.1560 C   0  0  0  0  0  3  0  0  0  0  0  0
  -22.4430   -8.0750   21.4140 C   0  0  0  0  0  0  0  0  0  0  0  0
  -22.0170   -9.0370   20.4820 C   0  0  0  0  0  3  0  0  0  0  0  0
  -22.7390  -10.2280   20.3030 C   0  0  0  0  0  3  0  0  0  0  0  0
  -21.6930   -6.9270   21.5020 O   0  0  0  0  0  0  0  0  0  0  0  0
  -21.6600   -6.1730   22.6480 C   0  0  0  0  0  0  0  0  0  0  0  0
  -21.2550   -6.7170   23.8870 C   0  0  0  0  0  3  0  0  0  0  0  0
  -21.1710   -5.8910   25.0250 C   0  0  0  0  0  3  0  0  0  0  0  0
  -21.4800   -4.5210   24.9260 C   0  0  0  0  0  0  0  0  0  0  0  0
  -21.8760   -3.9750   23.6920 C   0  0  0  0  0  3  0  0  0  0  0  0
  -21.9640   -4.8000   22.5550 C   0  0  0  0  0  0  0  0  0  0  0  0
  -22.3260   -4.2660   21.3640 F   0  0  0  0  0  0  0  0  0  0  0  0
  -21.3910   -3.7240   26.0160 F   0  0  0  0  0  0  0  0  0  0  0  0
  -22.7560  -13.5690   21.1900 C   0  0  0  0  0  0  0  0  0  0  0  0
  -22.0370  -12.8690   22.0580 N   0  0  0  0  0  0  0  0  0  0  0  0
  -22.3120  -14.5930   20.6710 O   0  0  0  0  0  0  0  0  0  0  0  0
  -22.4110  -12.0420   22.4990 H   0  0  0  0  0  0  0  0  0  0  0  0
  -21.0980  -13.1630   22.2840 H   0  0  0  0  0  0  0  0  0  0  0  0
  -25.3680  -15.2500   20.3600 N   0  0  0  0  0  0  0  0  0  0  0  0
  -24.5940  -15.8960   20.4730 H   0  0  0  0  0  0  0  0  0  0  0  0
  -26.2010  -15.6940   19.9910 H   0  0  0  0  0  0  0  0  0  0  0  0
  -28.5250  -22.2350   20.6310 C   0  0  0  0  0  2  0  0  0  0  0  0
  -29.2950  -23.8180   18.7110 C   0  0  0  0  0  1  0  0  0  0  0  0
  -28.9820  -23.7460   20.2140 C   0  0  0  0  0  3  0  0  0  0  0  0
  -27.9940  -24.9710   20.6020 C   0  0  0  0  0  2  0  0  0  0  0  0
  -28.2690  -26.4100   20.2370 O   0  0  0  0  0  0  0  0  0  0  0  0
  -24.5800  -31.9050   23.2350 C   0  0  0  0  0  0  0  0  0  0  0  0
  -27.1780  -27.3080   20.1930 C   0  0  0  0  0  0  0  0  0  0  0  0
  -23.3720  -30.5010   21.6040 C   0  0  0  0  0  3  0  0  0  0  0  0
  -24.8210  -28.9500   20.1740 C   0  0  0  0  0  0  0  0  0  0  0  0
  -25.9140  -30.8170   21.4090 C   0  0  0  0  0  2  0  0  0  0  0  0
  -25.9950  -29.4320   20.7680 C   0  0  0  0  0  0  0  0  0  0  0  0
  -27.1790  -28.6240   20.7640 C   0  0  0  0  0  3  0  0  0  0  0  0
  -25.9880  -26.9040   19.5460 C   0  0  0  0  0  3  0  0  0  0  0  0
  -24.8230  -27.6940   19.5510 C   0  0  0  0  0  3  0  0  0  0  0  0
  -23.5840  -29.8250   20.2250 C   0  0  0  0  0  2  0  0  0  0  0  0
  -24.6420  -31.0920   22.1390 N   0  0  0  0  0  0  0  0  0  0  0  0
  -23.4990  -32.1830   23.7730 O   0  0  0  0  0  0  0  0  0  0  0  0
  -22.7160  -29.4850   22.5700 C   0  0  0  0  0  0  0  0  0  0  0  0
  -21.3910  -29.2960   22.4460 N   0  0  0  0  0  0  0  0  0  0  0  0
  -23.3980  -28.8680   23.3930 O   0  0  0  0  0  0  0  0  0  0  0  0
  -20.8980  -29.8520   21.7630 H   0  0  0  0  0  0  0  0  0  0  0  0
  -18.0240  -28.0660   22.9450 C   0  0  0  0  0  0  0  0  0  0  0  0
  -20.5800  -28.3560   23.2220 C   0  0  0  0  0  3  0  0  0  0  0  0
  -20.6970  -26.9190   22.6620 C   0  0  0  0  0  2  0  0  0  0  0  0
  -19.6040  -26.5750   21.6460 C   0  0  0  0  0  2  0  0  0  0  0  0
  -18.2180  -26.7130   22.2820 C   0  0  0  0  0  2  0  0  0  0  0  0
  -19.1340  -28.8450   23.3710 C   0  0  0  0  0  0  0  0  0  0  0  0
  -18.8980  -30.1110   23.9500 C   0  0  0  0  0  3  0  0  0  0  0  0
  -17.5870  -30.6000   24.1050 C   0  0  0  0  0  3  0  0  0  0  0  0
  -16.4920  -29.8190   23.6930 C   0  0  0  0  0  3  0  0  0  0  0  0
  -16.7120  -28.5550   23.1190 C   0  0  0  0  0  3  0  0  0  0  0  0
  -25.8640  -32.5430   23.8500 C   0  0  0  0  0  3  0  0  0  0  0  0
  -25.5510  -33.9390   24.1880 N   0  0  0  0  0  0  0  0  0  0  0  0
  -25.8700  -34.9960   23.4290 C   0  0  0  0  0  0  0  0  0  0  0  0
  -26.5280  -34.8980   22.3900 O   0  0  0  0  0  0  0  0  0  0  0  0
  -24.9660  -34.0890   24.9970 H   0  0  0  0  0  0  0  0  0  0  0  0
  -24.1270  -36.7810   23.1030 C   0  0  0  0  0  1  0  0  0  0  0  0
  -25.3810  -36.3810   23.8970 C   0  0  0  0  0  3  0  0  0  0  0  0
  -27.5220  -37.2740   24.7000 C   0  0  0  0  0  1  0  0  0  0  0  0
  -26.4060  -37.4390   23.7730 N   0  0  0  0  0  0  0  0  0  0  0  0
  -25.9960  -38.3560   23.9310 H   0  0  0  0  0  0  0  0  0  0  0  0
  -26.3930  -31.7720   25.1210 C   0  0  1  0  0  0  0  0  0  0  0  0
  -25.3090  -31.5300   26.1980 C   0  0  0  0  0  1  0  0  0  0  0  0
  -26.9780  -30.3960   24.7210 C   0  0  0  0  0  1  0  0  0  0  0  0
  -27.5450  -32.5700   25.7760 C   0  0  0  0  0  1  0  0  0  0  0  0
  2  5  1  0
  3  1  2  0
  4  2  2  0
  4  3  1  0
  5  1  1  0
  5 48  1  0
  7  8  1  0
  8  4  1  0
  8  6  1  0
  9  3  1  0
  9 18  1  0
 10 18  1  0
 11 16  1  0
 12 13  1  0
 12 11  1  0
 14 13  1  0
 14 23  1  0
 14 15  1  0
 16 10  1  0
 16 15  1  0
 17 10  2  0
 18 19  1  0
 20 21  2  0
 21 40  1  0
 22 21  1  0
 22 25  1  0
 23 20  1  0
 23 24  1  0
 24 22  2  0
 25 26  1  0
 26 27  2  0
 28 31  1  0
 28 27  1  0
 29 28  2  0
 30 29  1  0
 30 25  2  0
 31 32  1  0
 32 33  1  0
 33 34  2  0
 35 34  1  0
 35 39  1  0
 36 35  2  0
 37 32  2  0
 37 36  1  0
 38 37  1  0
 40 41  1  0
 41 44  1  0
 41 43  1  0
 42 40  2  0
 45 46  1  0
 45 20  1  0
 47 45  1  0
 50 49  1  0
 50 51  1  0
 50 48  1  0
 52 51  1  0
 53 64  2  0
 54 52  1  0
 54 59  1  0
 55 63  1  0
 55 65  1  0
 56 62  1  0
 56 58  1  0
 57 63  1  0
 58 57  1  0
 59 58  2  0
 60 61  1  0
 60 54  2  0
 61 56  2  0
 62 55  1  0
 63 53  1  0
 65 67  2  0
 66 65  1  0
 68 66  1  0
 69 78  2  0
 69 74  1  0
 70 66  1  0
 70 74  1  0
 71 70  1  0
 72 73  1  0
 72 71  1  0
 73 69  1  0
 74 75  2  0
 75 76  1  0
 77 76  2  0
 78 77  1  0
 79 53  1  0
 79 80  1  0
 79 89  1  0
 80 83  1  0
 81 85  1  0
 81 80  1  0
 82 81  2  0
 85 84  1  0
 87 85  1  0
 87 88  1  0
 87 86  1  0
 89 92  1  1
 89 90  1  0
 91 89  1  0
M  ISO  4  10 100  18 100  51 101  52 101
M  END
>  <TORSDO>  (23) 
F 21

>  <SCORE>  (23) 
-13.581

>  <name>  (23) 
22

>  <ligand_id>  (23) 
22

>  <original_smiles>  (23) 
[H]c1c([H])c([H])c2c(c1[H])C([H])([H])C([H])([H])C([H])([H])C2([H])N([H])C(=O)C1([H])N(C(=O)C([H])(N([H])C(=O)C([H])(N([H])C([H])([H])[H])C([H])([H])[H])C(C([H])([H])[H])(C([H])([H])[H])C([H])([H])[H])C([H])([H])c2c([H])c(OC([H])([H])C([H])(C([H])([H])[H])C([H])([H])n3c([H])c(N(C([H])([H])[H])C([H])([H])[H])c(C([H])([H])N([H])C(=O)N4C([H])([H])C([H])([H])C([H])([H])C([H])(n5nc(-c6c([H])c([H])c(Oc7c([H])c([H])c(F)c([H])c7F)c([H])c6[H])c(C(=O)N([H])[H])c5N([H])[H])C4([H])[H])c3[H])c([H])c([H])c2C1([H])[H]

>  <smiles>  (23) 
[H]c1c([H])c([H])c2c(c1[H])C([H])([H])C([H])([H])C([H])([H])C2([H])N([H])C(=O)C1([H])N(C(=O)C([H])(N([H])C(=O)C([H])(N([H])C([H])([H])[H])C([H])([H])[H])C(C([H])([H])[H])(C([H])([H])[H])C([H])([H])[H])C([H])([H])c2c([H])c(OC([H])([H])C([H])(C([H])([H])[H])C([H])([H])n3c([H])c(N(C([H])([H])[H])C([H])([H])[H])c(C([H])([H])N([H])C(=O)N4C([H])([H])C([H])([H])C([H])([H])C([H])(n5nc(-c6c([H])c([H])c(Oc7c([H])c([H])c(F)c([H])c7F)c([H])c6[H])c(C(=O)N([H])[H])c5N([H])[H])C4([H])[H])c3[H])c([H])c([H])c2C1([H])[H]

$$$$
23:0:0
     RDKit          3D

 93101  0  0  1  0  0  0  0  0999 V2000
  -28.0920  -20.3380   20.1200 C   0  0  0  0  0  2  0  0  0  0  0  0
  -30.2950  -21.6900   19.6940 C   0  0  0  0  0  1  0  0  0  0  0  0
  -28.9610  -21.6020   20.4620 C   0  0  0  0  0  3  0  0  0  0  0  0
  -28.1240  -22.8920   20.2080 C   0  0  0  0  0  2  0  0  0  0  0  0
  -28.8050  -24.2850   20.3910 C   0  0  0  0  0  2  0  0  0  0  0  0
  -27.8850  -25.3670   19.7970 C   0  0  0  0  0  2  0  0  0  0  0  0
  -28.1370  -26.7540   20.1190 O   0  0  0  0  0  0  0  0  0  0  0  0
  -24.4970  -32.0160   23.2900 C   0  0  0  0  0  0  0  0  0  0  0  0
  -27.0060  -27.5610   20.0920 C   0  0  0  0  0  0  0  0  0  0  0  0
  -23.2370  -30.6360   21.6780 C   0  0  0  0  0  3  0  0  0  0  0  0
  -24.6360  -29.1180   20.1910 C   0  0  0  0  0  0  0  0  0  0  0  0
  -25.7650  -30.9680   21.4180 C   0  0  0  0  0  2  0  0  0  0  0  0
  -25.8190  -29.6060   20.7570 C   0  0  0  0  0  0  0  0  0  0  0  0
  -27.0080  -28.8320   20.7130 C   0  0  0  0  0  3  0  0  0  0  0  0
  -25.8010  -27.1260   19.4780 C   0  0  0  0  0  3  0  0  0  0  0  0
  -24.6210  -27.8740   19.5510 C   0  0  0  0  0  3  0  0  0  0  0  0
  -23.3990  -29.9800   20.2870 C   0  0  0  0  0  2  0  0  0  0  0  0
  -24.5200  -31.2200   22.1850 N   0  0  0  0  0  0  0  0  0  0  0  0
  -23.4310  -32.2950   23.8570 O   0  0  0  0  0  0  0  0  0  0  0  0
  -22.6110  -29.6020   22.6440 C   0  0  0  0  0  0  0  0  0  0  0  0
  -21.2930  -29.3810   22.5130 N   0  0  0  0  0  0  0  0  0  0  0  0
  -23.3110  -29.0020   23.4650 O   0  0  0  0  0  0  0  0  0  0  0  0
  -20.7920  -29.9240   21.8240 H   0  0  0  0  0  0  0  0  0  0  0  0
  -17.9530  -28.0840   22.9910 C   0  0  0  0  0  0  0  0  0  0  0  0
  -20.4960  -28.4350   23.2950 C   0  0  0  0  0  3  0  0  0  0  0  0
  -20.6550  -26.9960   22.7560 C   0  0  0  0  0  2  0  0  0  0  0  0
  -19.5820  -26.6110   21.7340 C   0  0  0  0  0  2  0  0  0  0  0  0
  -18.1840  -26.7260   22.3480 C   0  0  0  0  0  2  0  0  0  0  0  0
  -19.0380  -28.8950   23.4180 C   0  0  0  0  0  0  0  0  0  0  0  0
  -18.7690  -30.1640   23.9720 C   0  0  0  0  0  3  0  0  0  0  0  0
  -17.4460  -30.6270   24.1020 C   0  0  0  0  0  3  0  0  0  0  0  0
  -16.3750  -29.8150   23.6940 C   0  0  0  0  0  3  0  0  0  0  0  0
  -16.6290  -28.5450   23.1450 C   0  0  0  0  0  3  0  0  0  0  0  0
  -25.8030  -32.6350   23.8760 C   0  0  0  0  0  3  0  0  0  0  0  0
  -25.5230  -34.0420   24.1880 N   0  0  0  0  0  0  0  0  0  0  0  0
  -25.8220  -35.0730   23.3860 C   0  0  0  0  0  0  0  0  0  0  0  0
  -26.4410  -34.9390   22.3260 O   0  0  0  0  0  0  0  0  0  0  0  0
  -24.9650  -34.2190   25.0120 H   0  0  0  0  0  0  0  0  0  0  0  0
  -24.0760  -36.8580   23.0890 C   0  0  0  0  0  1  0  0  0  0  0  0
  -25.3670  -36.4740   23.8310 C   0  0  0  0  0  3  0  0  0  0  0  0
  -27.5490  -37.3790   24.4990 C   0  0  0  0  0  1  0  0  0  0  0  0
  -26.3910  -37.5200   23.6200 N   0  0  0  0  0  0  0  0  0  0  0  0
  -25.9970  -38.4470   23.7600 H   0  0  0  0  0  0  0  0  0  0  0  0
  -26.3350  -31.8740   25.1500 C   0  0  1  0  0  0  0  0  0  0  0  0
  -25.2570  -31.6510   26.2360 C   0  0  0  0  0  1  0  0  0  0  0  0
  -26.9070  -30.4890   24.7660 C   0  0  0  0  0  1  0  0  0  0  0  0
  -27.5040  -32.6670   25.7830 C   0  0  0  0  0  1  0  0  0  0  0  0
  -27.7690  -18.1260   18.8900 C   0  0  0  0  0  1  0  0  0  0  0  0
  -28.7820  -19.0430   19.5850 C   0  0  0  0  0  3  0  0  0  0  0  0
  -29.5830  -18.2540   20.6690 C   0  0  0  0  0  2  0  0  0  0  0  0
  -32.6880  -18.2310   21.1180 C   0  0  0  0  0  2  0  0  0  0  0  0
  -32.7030  -18.4420   19.6060 C   0  0  0  0  0  2  0  0  0  0  0  0
  -31.7050  -17.0840   21.3630 C   0  0  0  0  0  2  0  0  0  0  0  0
  -31.4980  -17.6750   19.0350 C   0  0  0  0  0  2  0  0  0  0  0  0
  -30.6400  -17.1560   20.2440 C   0  0  2  0  0  0  0  0  0  0  0  0
  -30.6640  -14.6060   19.7860 C   0  0  0  0  0  0  0  0  0  0  0  0
  -30.2570  -12.3420   18.8980 C   0  0  0  0  0  2  0  0  0  0  0  0
  -29.2520  -12.4310   17.7380 C   0  0  0  0  0  2  0  0  0  0  0  0
  -27.8180  -12.2900   18.2780 C   0  0  0  0  0  2  0  0  0  0  0  0
  -27.5360  -13.2270   19.4850 C   0  0  0  0  0  3  0  0  0  0  0  0
  -28.6770  -13.1940   20.5270 C   0  0  0  0  0  2  0  0  0  0  0  0
  -29.9400  -13.4480   19.8210 N   0  0  0  0  0  0  0  0  0  0  0  0
  -31.8040  -14.6090   19.3330 O   0  0  0  0  0  0  0  0  0  0  0  0
  -30.0500  -15.7730   20.1190 N   0  0  0  0  0  0  0  0  0  0  0  0
  -29.0970  -15.6730   20.4250 H   0  0  0  0  0  0  0  0  0  0  0  0
  -25.2170  -13.8280   20.4170 C   0  0  0  0  0  0  0  0  0  0  0  0
  -24.1800  -13.0580   20.8670 C   0  0  0  0  0  0  0  0  0  0  0  0
  -24.6280  -11.7020   20.7810 C   0  0  0  0  0  0  0  0  0  0  0  0
  -26.2330  -12.9450   20.0840 N   0  0  0  0  0  0  0  0  0  0  0  0
  -25.8870  -11.6600   20.3620 N   0  0  0  0  0  0  0  0  0  0  0  0
  -23.9080  -10.4430   21.0140 C   0  0  0  0  0  0  0  0  0  0  0  0
  -24.3710   -9.4880   21.9450 C   0  0  0  0  0  3  0  0  0  0  0  0
  -23.6510   -8.2940   22.1680 C   0  0  0  0  0  3  0  0  0  0  0  0
  -22.4530   -8.0470   21.4590 C   0  0  0  0  0  0  0  0  0  0  0  0
  -22.0080   -8.9890   20.5150 C   0  0  0  0  0  3  0  0  0  0  0  0
  -22.7300  -10.1730   20.2910 C   0  0  0  0  0  3  0  0  0  0  0  0
  -21.7010   -6.9050   21.5910 O   0  0  0  0  0  0  0  0  0  0  0  0
  -21.6500   -6.2040   22.7690 C   0  0  0  0  0  0  0  0  0  0  0  0
  -21.1920   -6.7960   23.9680 C   0  0  0  0  0  3  0  0  0  0  0  0
  -21.0930   -6.0230   25.1410 C   0  0  0  0  0  3  0  0  0  0  0  0
  -21.4420   -4.6600   25.1200 C   0  0  0  0  0  0  0  0  0  0  0  0
  -21.8940   -4.0680   23.9270 C   0  0  0  0  0  3  0  0  0  0  0  0
  -21.9960   -4.8380   22.7550 C   0  0  0  0  0  0  0  0  0  0  0  0
  -22.4100   -4.2560   21.6030 F   0  0  0  0  0  0  0  0  0  0  0  0
  -21.3400   -3.9150   26.2450 F   0  0  0  0  0  0  0  0  0  0  0  0
  -22.8160  -13.5380   21.2650 C   0  0  0  0  0  0  0  0  0  0  0  0
  -22.1570  -12.8350   22.1780 N   0  0  0  0  0  0  0  0  0  0  0  0
  -22.3450  -14.5750   20.7990 O   0  0  0  0  0  0  0  0  0  0  0  0
  -22.5520  -11.9950   22.5710 H   0  0  0  0  0  0  0  0  0  0  0  0
  -21.2440  -13.1420   22.4850 H   0  0  0  0  0  0  0  0  0  0  0  0
  -25.3790  -15.2000   20.2370 N   0  0  0  0  0  0  0  0  0  0  0  0
  -24.6370  -15.8680   20.4110 H   0  0  0  0  0  0  0  0  0  0  0  0
  -26.2020  -15.6200   19.8220 H   0  0  0  0  0  0  0  0  0  0  0  0
  1  3  1  0
  3  2  1  0
  4  5  1  0
  4  3  1  0
  6  7  1  0
  6  5  1  0
  8 19  2  0
  9  7  1  0
  9 14  1  0
 10 18  1  0
 10 20  1  0
 11 17  1  0
 11 13  1  0
 12 18  1  0
 13 12  1  0
 14 13  2  0
 15 16  1  0
 15  9  2  0
 16 11  2  0
 17 10  1  0
 18  8  1  0
 20 22  2  0
 21 20  1  0
 23 21  1  0
 24 33  2  0
 24 29  1  0
 25 21  1  0
 25 29  1  0
 26 25  1  0
 27 28  1  0
 27 26  1  0
 28 24  1  0
 29 30  2  0
 30 31  1  0
 32 31  2  0
 33 32  1  0
 34  8  1  0
 34 35  1  0
 34 44  1  0
 35 38  1  0
 36 40  1  0
 36 35  1  0
 37 36  2  0
 40 39  1  0
 42 43  1  0
 42 40  1  0
 42 41  1  0
 44 47  1  1
 44 45  1  0
 46 44  1  0
 49 48  1  0
 49  1  1  0
 49 50  1  0
 51 53  1  0
 52 51  1  0
 54 52  1  0
 54 55  1  0
 55 50  1  1
 55 53  1  0
 56 62  1  0
 56 64  1  0
 57 62  1  0
 58 59  1  0
 58 57  1  0
 60 59  1  0
 60 69  1  0
 60 61  1  0
 62 61  1  0
 63 56  2  0
 64 55  1  0
 64 65  1  0
 66 67  2  0
 67 86  1  0
 68 67  1  0
 68 71  1  0
 69 70  1  0
 69 66  1  0
 70 68  2  0
 71 72  1  0
 72 73  2  0
 74 77  1  0
 74 73  1  0
 75 74  2  0
 76 75  1  0
 76 71  2  0
 77 78  1  0
 78 79  1  0
 79 80  2  0
 81 80  1  0
 81 85  1  0
 82 81  2  0
 83 78  2  0
 83 82  1  0
 84 83  1  0
 86 87  1  0
 87 90  1  0
 87 89  1  0
 88 86  2  0
 91 92  1  0
 91 66  1  0
 93 91  1  0
M  ISO  4   6 101   7 101  56 100  64 100
M  END
>  <TORSDO>  (24) 
F 23

>  <SCORE>  (24) 
-12.400

>  <name>  (24) 
23

>  <ligand_id>  (24) 
23

>  <original_smiles>  (24) 
[H]c1c([H])c([H])c2c(c1[H])C([H])([H])C([H])([H])C([H])([H])C2([H])N([H])C(=O)C1([H])N(C(=O)C([H])(N([H])C(=O)C([H])(N([H])C([H])([H])[H])C([H])([H])[H])C(C([H])([H])[H])(C([H])([H])[H])C([H])([H])[H])C([H])([H])c2c([H])c(OC([H])([H])C([H])([H])C([H])([H])C([H])(C([H])([H])[H])C([H])([H])C([H])(C([H])([H])[H])C([H])([H])C3(N([H])C(=O)N4C([H])([H])C([H])([H])C([H])([H])C([H])(n5nc(-c6c([H])c([H])c(Oc7c([H])c([H])c(F)c([H])c7F)c([H])c6[H])c(C(=O)N([H])[H])c5N([H])[H])C4([H])[H])C([H])([H])C([H])([H])C([H])([H])C3([H])[H])c([H])c([H])c2C1([H])[H]

>  <smiles>  (24) 
[H]c1c([H])c([H])c2c(c1[H])C([H])([H])C([H])([H])C([H])([H])C2([H])N([H])C(=O)C1([H])N(C(=O)C([H])(N([H])C(=O)C([H])(N([H])C([H])([H])[H])C([H])([H])[H])C(C([H])([H])[H])(C([H])([H])[H])C([H])([H])[H])C([H])([H])c2c([H])c(OC([H])([H])C([H])([H])C([H])([H])C([H])(C([H])([H])[H])C([H])([H])C([H])(C([H])([H])[H])C([H])([H])C3(N([H])C(=O)N4C([H])([H])C([H])([H])C([H])([H])C([H])(n5nc(-c6c([H])c([H])c(Oc7c([H])c([H])c(F)c([H])c7F)c([H])c6[H])c(C(=O)N([H])[H])c5N([H])[H])C4([H])[H])C([H])([H])C([H])([H])C([H])([H])C3([H])[H])c([H])c([H])c2C1([H])[H]

$$$$
24:0:0
     RDKit          3D

 91 99  0  0  1  0  0  0  0  0999 V2000
  -29.9280  -20.1880   21.0870 C   0  0  0  0  0  3  0  0  0  0  0  0
  -29.2290  -20.6550   19.0920 C   0  0  0  0  0  3  0  0  0  0  0  0
  -29.6940  -19.5250   19.8400 C   0  0  0  0  0  0  0  0  0  0  0  0
  -29.7380  -21.5670   21.0160 C   0  0  0  0  0  0  0  0  0  0  0  0
  -29.2320  -21.9560   19.7600 N   0  0  0  0  0  0  0  0  0  0  0  0
  -31.6660  -22.5420   22.2870 C   0  0  0  0  0  1  0  0  0  0  0  0
  -29.3750  -22.3640   23.3780 C   0  0  0  0  0  1  0  0  0  0  0  0
  -30.1440  -22.5650   22.0610 C   0  0  0  0  0  3  0  0  0  0  0  0
  -30.0580  -17.9390   19.3890 C   0  0  0  0  0  2  0  0  0  0  0  0
  -30.5710  -15.3190   20.1020 C   0  0  0  0  0  0  0  0  0  0  0  0
  -30.5730  -12.8320   19.5540 C   0  0  0  0  0  2  0  0  0  0  0  0
  -29.7000  -12.5420   18.3090 C   0  0  0  0  0  2  0  0  0  0  0  0
  -28.2320  -12.3290   18.7190 C   0  0  0  0  0  2  0  0  0  0  0  0
  -27.7390  -13.4070   19.7180 C   0  0  0  0  0  3  0  0  0  0  0  0
  -28.7430  -13.6590   20.8640 C   0  0  0  0  0  2  0  0  0  0  0  0
  -30.0170  -14.0390   20.2420 N   0  0  0  0  0  0  0  0  0  0  0  0
  -31.7740  -15.3590   19.8240 O   0  0  0  0  0  0  0  0  0  0  0  0
  -29.7750  -16.5130   20.0530 N   0  0  0  0  0  0  0  0  0  0  0  0
  -28.8100  -16.3660   20.3070 H   0  0  0  0  0  0  0  0  0  0  0  0
  -25.3710  -14.0200   20.4610 C   0  0  0  0  0  0  0  0  0  0  0  0
  -24.2940  -13.2630   20.8270 C   0  0  0  0  0  0  0  0  0  0  0  0
  -24.7340  -11.9040   20.7870 C   0  0  0  0  0  0  0  0  0  0  0  0
  -26.3970  -13.1260   20.2140 N   0  0  0  0  0  0  0  0  0  0  0  0
  -26.0240  -11.8460   20.4780 N   0  0  0  0  0  0  0  0  0  0  0  0
  -23.9830  -10.6550   20.9670 C   0  0  0  0  0  0  0  0  0  0  0  0
  -24.3940   -9.6710   21.8940 C   0  0  0  0  0  3  0  0  0  0  0  0
  -23.6430   -8.4880   22.0640 C   0  0  0  0  0  3  0  0  0  0  0  0
  -22.4650   -8.2800   21.3060 C   0  0  0  0  0  0  0  0  0  0  0  0
  -22.0730   -9.2510   20.3680 C   0  0  0  0  0  3  0  0  0  0  0  0
  -22.8240  -10.4270   20.1980 C   0  0  0  0  0  3  0  0  0  0  0  0
  -21.6860   -7.1510   21.3860 O   0  0  0  0  0  0  0  0  0  0  0  0
  -21.6550   -6.3770   22.5180 C   0  0  0  0  0  0  0  0  0  0  0  0
  -21.2140   -6.8850   23.7580 C   0  0  0  0  0  3  0  0  0  0  0  0
  -21.1340   -6.0350   24.8790 C   0  0  0  0  0  3  0  0  0  0  0  0
  -21.4850   -4.6770   24.7600 C   0  0  0  0  0  0  0  0  0  0  0  0
  -21.9190   -4.1660   23.5240 C   0  0  0  0  0  3  0  0  0  0  0  0
  -22.0010   -5.0140   22.4050 C   0  0  0  0  0  0  0  0  0  0  0  0
  -22.4000   -4.5120   21.2110 F   0  0  0  0  0  0  0  0  0  0  0  0
  -21.4000   -3.8580   25.8350 F   0  0  0  0  0  0  0  0  0  0  0  0
  -22.9050  -13.7640   21.0990 C   0  0  0  0  0  0  0  0  0  0  0  0
  -22.1610  -13.0740   21.9550 N   0  0  0  0  0  0  0  0  0  0  0  0
  -22.4910  -14.8040   20.5860 O   0  0  0  0  0  0  0  0  0  0  0  0
  -22.5110  -12.2330   22.3900 H   0  0  0  0  0  0  0  0  0  0  0  0
  -21.2300  -13.3920   22.1810 H   0  0  0  0  0  0  0  0  0  0  0  0
  -25.5590  -15.3890   20.2900 N   0  0  0  0  0  0  0  0  0  0  0  0
  -24.7990  -16.0530   20.3960 H   0  0  0  0  0  0  0  0  0  0  0  0
  -26.4010  -15.8110   19.9200 H   0  0  0  0  0  0  0  0  0  0  0  0
  -29.0480  -23.4560   19.1640 C   0  0  0  0  0  2  0  0  0  0  0  0
  -27.2290  -24.5110   20.8340 C   0  0  0  0  0  1  0  0  0  0  0  0
  -27.8910  -24.6940   19.4570 C   0  0  0  0  0  3  0  0  0  0  0  0
  -28.1070  -26.2570   19.2770 O   0  0  0  0  0  0  0  0  0  0  0  0
  -24.6050  -31.5890   23.0350 C   0  0  0  0  0  0  0  0  0  0  0  0
  -27.0460  -27.2500   19.3690 C   0  0  0  0  0  0  0  0  0  0  0  0
  -23.3190  -30.3390   21.3450 C   0  0  0  0  0  3  0  0  0  0  0  0
  -24.6940  -28.9560   19.6640 C   0  0  0  0  0  0  0  0  0  0  0  0
  -25.8520  -30.6780   21.0360 C   0  0  0  0  0  2  0  0  0  0  0  0
  -25.9060  -29.3590   20.2400 C   0  0  0  0  0  0  0  0  0  0  0  0
  -27.0800  -28.5260   20.0750 C   0  0  0  0  0  3  0  0  0  0  0  0
  -25.8080  -26.9730   18.7490 C   0  0  0  0  0  3  0  0  0  0  0  0
  -24.6580  -27.7800   18.9010 C   0  0  0  0  0  3  0  0  0  0  0  0
  -23.4570  -29.8140   19.8900 C   0  0  0  0  0  2  0  0  0  0  0  0
  -24.6150  -30.8870   21.8590 N   0  0  0  0  0  0  0  0  0  0  0  0
  -23.5530  -31.7870   23.6630 O   0  0  0  0  0  0  0  0  0  0  0  0
  -22.7300  -29.2210   22.2420 C   0  0  0  0  0  0  0  0  0  0  0  0
  -21.4120  -28.9760   22.1370 N   0  0  0  0  0  0  0  0  0  0  0  0
  -23.4630  -28.5770   22.9990 O   0  0  0  0  0  0  0  0  0  0  0  0
  -20.8710  -29.5500   21.5040 H   0  0  0  0  0  0  0  0  0  0  0  0
  -18.1350  -27.5080   22.6070 C   0  0  0  0  0  0  0  0  0  0  0  0
  -20.6740  -27.9330   22.8530 C   0  0  0  0  0  3  0  0  0  0  0  0
  -20.8650  -26.5550   22.1790 C   0  0  0  0  0  2  0  0  0  0  0  0
  -19.7690  -26.2240   21.1610 C   0  0  0  0  0  2  0  0  0  0  0  0
  -18.3930  -26.2250   21.8340 C   0  0  0  0  0  2  0  0  0  0  0  0
  -19.2050  -28.3170   23.0710 C   0  0  0  0  0  0  0  0  0  0  0  0
  -18.9070  -29.5160   23.7560 C   0  0  0  0  0  3  0  0  0  0  0  0
  -17.5730  -29.9060   23.9800 C   0  0  0  0  0  3  0  0  0  0  0  0
  -16.5180  -29.0950   23.5270 C   0  0  0  0  0  3  0  0  0  0  0  0
  -16.8000  -27.8970   22.8480 C   0  0  0  0  0  3  0  0  0  0  0  0
  -25.9100  -32.1920   23.6360 C   0  0  0  0  0  3  0  0  0  0  0  0
  -26.4920  -31.3420   24.8330 C   0  0  1  0  0  0  0  0  0  0  0  0
  -25.4570  -31.0340   25.9400 C   0  0  0  0  0  1  0  0  0  0  0  0
  -27.0560  -29.9940   24.3290 C   0  0  0  0  0  1  0  0  0  0  0  0
  -27.6750  -32.0980   25.4850 C   0  0  0  0  0  1  0  0  0  0  0  0
  -25.6080  -33.5630   24.0810 N   0  0  0  0  0  0  0  0  0  0  0  0
  -25.8710  -34.6710   23.3780 C   0  0  0  0  0  0  0  0  0  0  0  0
  -26.4610  -34.6490   22.2950 O   0  0  0  0  0  0  0  0  0  0  0  0
  -25.0770  -33.6530   24.9350 H   0  0  0  0  0  0  0  0  0  0  0  0
  -24.0900  -36.4490   23.3030 C   0  0  0  0  0  1  0  0  0  0  0  0
  -25.4080  -36.0190   23.9670 C   0  0  0  0  0  3  0  0  0  0  0  0
  -27.5900  -36.9060   24.6630 C   0  0  0  0  0  1  0  0  0  0  0  0
  -26.4080  -37.0990   23.8270 N   0  0  0  0  0  0  0  0  0  0  0  0
  -25.9980  -37.9990   24.0600 H   0  0  0  0  0  0  0  0  0  0  0  0
  2  5  1  0
  2  3  2  0
  3  1  1  0
  4  1  2  0
  4  8  1  0
  5  4  1  0
  8  6  1  0
  8  7  1  0
  9  3  1  0
  9 18  1  0
 10 16  1  0
 11 16  1  0
 12 13  1  0
 12 11  1  0
 14 13  1  0
 14 23  1  0
 14 15  1  0
 16 15  1  0
 17 10  2  0
 18 10  1  0
 18 19  1  0
 20 21  2  0
 21 40  1  0
 22 21  1  0
 22 25  1  0
 23 20  1  0
 23 24  1  0
 24 22  2  0
 25 26  1  0
 26 27  2  0
 28 31  1  0
 28 27  1  0
 29 28  2  0
 30 29  1  0
 30 25  2  0
 31 32  1  0
 32 33  1  0
 33 34  2  0
 35 34  1  0
 35 39  1  0
 36 35  2  0
 37 32  2  0
 37 36  1  0
 38 37  1  0
 40 41  1  0
 41 44  1  0
 41 43  1  0
 42 40  2  0
 45 46  1  0
 45 20  1  0
 47 45  1  0
 48 50  1  0
 48  5  1  0
 50 49  1  0
 51 53  1  0
 51 50  1  0
 52 63  2  0
 53 58  1  0
 54 62  1  0
 54 64  1  0
 55 61  1  0
 55 57  1  0
 56 62  1  0
 57 56  1  0
 58 57  2  0
 59 60  1  0
 59 53  2  0
 60 55  2  0
 61 54  1  0
 62 52  1  0
 64 66  2  0
 65 64  1  0
 67 65  1  0
 68 77  2  0
 68 73  1  0
 69 65  1  0
 69 73  1  0
 70 69  1  0
 71 72  1  0
 71 70  1  0
 72 68  1  0
 73 74  2  0
 74 75  1  0
 76 75  2  0
 77 76  1  0
 78 52  1  0
 78 83  1  0
 78 79  1  0
 79 82  1  1
 79 80  1  0
 81 79  1  0
 83 86  1  0
 84 88  1  0
 84 83  1  0
 85 84  2  0
 88 87  1  0
 90 88  1  0
 90 91  1  0
 90 89  1  0
M  ISO  4  10 100  18 100  50 101  51 101
M  END
>  <TORSDO>  (25) 
F 20

>  <SCORE>  (25) 
-12.808

>  <name>  (25) 
24

>  <ligand_id>  (25) 
24

>  <original_smiles>  (25) 
[H]c1c([H])c([H])c2c(c1[H])C([H])([H])C([H])([H])C([H])([H])C2([H])N([H])C(=O)C1([H])N(C(=O)C([H])(N([H])C(=O)C([H])(N([H])C([H])([H])[H])C([H])([H])[H])C(C([H])([H])[H])(C([H])([H])[H])C([H])([H])[H])C([H])([H])c2c([H])c(OC([H])(C([H])([H])[H])C([H])([H])n3c([H])c(C([H])([H])N([H])C(=O)N4C([H])([H])C([H])([H])C([H])([H])C([H])(n5nc(-c6c([H])c([H])c(Oc7c([H])c([H])c(F)c([H])c7F)c([H])c6[H])c(C(=O)N([H])[H])c5N([H])[H])C4([H])[H])c([H])c3C([H])(C([H])([H])[H])C([H])([H])[H])c([H])c([H])c2C1([H])[H]

>  <smiles>  (25) 
[H]c1c([H])c([H])c2c(c1[H])C([H])([H])C([H])([H])C([H])([H])C2([H])N([H])C(=O)C1([H])N(C(=O)C([H])(N([H])C(=O)C([H])(N([H])C([H])([H])[H])C([H])([H])[H])C(C([H])([H])[H])(C([H])([H])[H])C([H])([H])[H])C([H])([H])c2c([H])c(OC([H])(C([H])([H])[H])C([H])([H])n3c([H])c(C([H])([H])N([H])C(=O)N4C([H])([H])C([H])([H])C([H])([H])C([H])(n5nc(-c6c([H])c([H])c(Oc7c([H])c([H])c(F)c([H])c7F)c([H])c6[H])c(C(=O)N([H])[H])c5N([H])[H])C4([H])[H])c([H])c3C([H])(C([H])([H])[H])C([H])([H])[H])c([H])c([H])c2C1([H])[H]

$$$$
25:0:0
     RDKit          3D

 98106  0  0  1  0  0  0  0  0999 V2000
  -30.4130  -21.8920   20.6190 C   0  0  0  0  0  3  0  0  0  0  0  0
  -30.0140  -19.2870   20.4280 C   0  0  0  0  0  3  0  0  0  0  0  0
  -29.1770  -20.5920   18.8510 C   0  0  0  0  0  3  0  0  0  0  0  0
  -29.5270  -18.4350   19.4520 C   0  0  0  0  0  0  0  0  0  0  0  0
  -28.9630  -19.3010   18.4320 C   0  0  0  0  0  0  0  0  0  0  0  0
  -29.8670  -20.6280   20.0370 N   0  0  0  0  0  0  0  0  0  0  0  0
  -29.3570  -19.2950   15.9590 C   0  0  0  0  0  1  0  0  0  0  0  0
  -27.1230  -19.9800   16.8400 C   0  0  0  0  0  1  0  0  0  0  0  0
  -27.7750  -17.5910   16.8460 C   0  0  0  0  0  1  0  0  0  0  0  0
  -28.3140  -19.0210   17.0570 C   0  0  2  0  0  0  0  0  0  0  0  0
  -29.6710  -16.8890   19.3550 C   0  0  0  0  0  2  0  0  0  0  0  0
  -30.5990  -14.9100   20.4620 C   0  0  0  0  0  0  0  0  0  0  0  0
  -30.4150  -12.7160   19.3750 C   0  0  0  0  0  2  0  0  0  0  0  0
  -29.4790  -12.8970   18.1590 C   0  0  0  0  0  2  0  0  0  0  0  0
  -28.0080  -12.6940   18.5720 C   0  0  0  0  0  2  0  0  0  0  0  0
  -27.6210  -13.4880   19.8490 C   0  0  0  0  0  3  0  0  0  0  0  0
  -28.6850  -13.3310   20.9610 C   0  0  0  0  0  2  0  0  0  0  0  0
  -29.9940  -13.6900   20.3980 N   0  0  0  0  0  0  0  0  0  0  0  0
  -31.7750  -15.0760   20.1310 O   0  0  0  0  0  0  0  0  0  0  0  0
  -29.7650  -15.9780   20.5250 N   0  0  0  0  0  0  0  0  0  0  0  0
  -28.8740  -15.7760   20.9540 H   0  0  0  0  0  0  0  0  0  0  0  0
  -25.1960  -13.9710   20.5550 C   0  0  0  0  0  0  0  0  0  0  0  0
  -24.1610  -13.1460   20.9030 C   0  0  0  0  0  0  0  0  0  0  0  0
  -24.6840  -11.8160   20.8530 C   0  0  0  0  0  0  0  0  0  0  0  0
  -26.2820  -13.1400   20.3170 N   0  0  0  0  0  0  0  0  0  0  0  0
  -25.9770  -11.8400   20.5540 N   0  0  0  0  0  0  0  0  0  0  0  0
  -24.0150  -10.5190   21.0180 C   0  0  0  0  0  0  0  0  0  0  0  0
  -24.4050   -9.6060   22.0230 C   0  0  0  0  0  3  0  0  0  0  0  0
  -23.7330   -8.3750   22.1730 C   0  0  0  0  0  3  0  0  0  0  0  0
  -22.6550   -8.0460   21.3170 C   0  0  0  0  0  0  0  0  0  0  0  0
  -22.2850   -8.9480   20.3040 C   0  0  0  0  0  3  0  0  0  0  0  0
  -22.9600  -10.1710   20.1510 C   0  0  0  0  0  3  0  0  0  0  0  0
  -21.9580   -6.8630   21.3740 O   0  0  0  0  0  0  0  0  0  0  0  0
  -21.7510   -6.2030   22.5590 C   0  0  0  0  0  0  0  0  0  0  0  0
  -21.0380   -6.7960   23.6250 C   0  0  0  0  0  3  0  0  0  0  0  0
  -20.7880   -6.0580   24.8000 C   0  0  0  0  0  3  0  0  0  0  0  0
  -21.2430   -4.7300   24.9070 C   0  0  0  0  0  0  0  0  0  0  0  0
  -21.9480   -4.1370   23.8440 C   0  0  0  0  0  3  0  0  0  0  0  0
  -22.1980   -4.8710   22.6720 C   0  0  0  0  0  0  0  0  0  0  0  0
  -22.8630   -4.2910   21.6450 F   0  0  0  0  0  0  0  0  0  0  0  0
  -20.9950   -4.0190   26.0320 F   0  0  0  0  0  0  0  0  0  0  0  0
  -22.7410  -13.5530   21.1680 C   0  0  0  0  0  0  0  0  0  0  0  0
  -22.0420  -12.8130   22.0210 N   0  0  0  0  0  0  0  0  0  0  0  0
  -22.2610  -14.5630   20.6570 O   0  0  0  0  0  0  0  0  0  0  0  0
  -22.4470  -11.9970   22.4510 H   0  0  0  0  0  0  0  0  0  0  0  0
  -21.0880  -13.0610   22.2440 H   0  0  0  0  0  0  0  0  0  0  0  0
  -25.2990  -15.3520   20.4020 N   0  0  0  0  0  0  0  0  0  0  0  0
  -24.4960  -15.9610   20.5020 H   0  0  0  0  0  0  0  0  0  0  0  0
  -26.1220  -15.8340   20.0670 H   0  0  0  0  0  0  0  0  0  0  0  0
  -31.4500  -21.6270   21.7490 C   0  0  0  0  0  2  0  0  0  0  0  0
  -33.6080  -20.5430   22.5330 C   0  0  0  0  0  1  0  0  0  0  0  0
  -33.6100  -21.7770   20.3440 C   0  0  0  0  0  1  0  0  0  0  0  0
  -32.7600  -20.9250   21.3080 C   0  0  0  0  0  3  0  0  0  0  0  0
  -29.3370  -22.9820   21.0090 C   0  0  0  0  0  2  0  0  0  0  0  0
  -30.8130  -25.0830   21.4620 C   0  0  0  0  0  1  0  0  0  0  0  0
  -29.6350  -24.5050   20.6650 C   0  0  0  0  0  3  0  0  0  0  0  0
  -28.3760  -25.4280   20.8250 C   0  0  0  0  0  2  0  0  0  0  0  0
  -28.5440  -26.8470   20.5120 O   0  0  0  0  0  0  0  0  0  0  0  0
  -24.6490  -32.0860   23.5120 C   0  0  0  0  0  0  0  0  0  0  0  0
  -27.3880  -27.6260   20.4760 C   0  0  0  0  0  0  0  0  0  0  0  0
  -23.4930  -30.6750   21.8450 C   0  0  0  0  0  3  0  0  0  0  0  0
  -24.9890  -29.1590   20.4430 C   0  0  0  0  0  0  0  0  0  0  0  0
  -26.0260  -31.0460   21.7040 C   0  0  0  0  0  2  0  0  0  0  0  0
  -26.1370  -29.6760   21.0570 C   0  0  0  0  0  0  0  0  0  0  0  0
  -27.3410  -28.9210   21.0640 C   0  0  0  0  0  3  0  0  0  0  0  0
  -26.2180  -27.1510   19.8390 C   0  0  0  0  0  3  0  0  0  0  0  0
  -25.0280  -27.8980   19.8310 C   0  0  0  0  0  3  0  0  0  0  0  0
  -23.7380  -30.0080   20.4680 C   0  0  0  0  0  2  0  0  0  0  0  0
  -24.7400  -31.2860   22.4100 N   0  0  0  0  0  0  0  0  0  0  0  0
  -23.5540  -32.3460   24.0290 O   0  0  0  0  0  0  0  0  0  0  0  0
  -22.8320  -29.6430   22.7900 C   0  0  0  0  0  0  0  0  0  0  0  0
  -21.5230  -29.4050   22.6050 N   0  0  0  0  0  0  0  0  0  0  0  0
  -23.4980  -29.0600   23.6510 O   0  0  0  0  0  0  0  0  0  0  0  0
  -21.0460  -29.9310   21.8850 H   0  0  0  0  0  0  0  0  0  0  0  0
  -18.1790  -28.0800   22.9600 C   0  0  0  0  0  0  0  0  0  0  0  0
  -20.7070  -28.4470   23.3510 C   0  0  0  0  0  3  0  0  0  0  0  0
  -20.8950  -27.0110   22.8080 C   0  0  0  0  0  2  0  0  0  0  0  0
  -19.8600  -26.6270   21.7470 C   0  0  0  0  0  2  0  0  0  0  0  0
  -18.4430  -26.7270   22.3190 C   0  0  0  0  0  2  0  0  0  0  0  0
  -19.2430  -28.8950   23.4290 C   0  0  0  0  0  0  0  0  0  0  0  0
  -18.9430  -30.1580   23.9830 C   0  0  0  0  0  3  0  0  0  0  0  0
  -17.6140  -30.6070   24.0740 C   0  0  0  0  0  3  0  0  0  0  0  0
  -16.5630  -29.7920   23.6220 C   0  0  0  0  0  3  0  0  0  0  0  0
  -16.8470  -28.5290   23.0700 C   0  0  0  0  0  3  0  0  0  0  0  0
  -25.9150  -32.7320   24.1570 C   0  0  0  0  0  3  0  0  0  0  0  0
  -25.5930  -34.1350   24.4520 N   0  0  0  0  0  0  0  0  0  0  0  0
  -25.9370  -35.1740   23.6780 C   0  0  0  0  0  0  0  0  0  0  0  0
  -26.6290  -35.0510   22.6630 O   0  0  0  0  0  0  0  0  0  0  0  0
  -24.9800  -34.3040   25.2370 H   0  0  0  0  0  0  0  0  0  0  0  0
  -24.2090  -36.9490   23.2520 C   0  0  0  0  0  1  0  0  0  0  0  0
  -25.4350  -36.5680   24.0970 C   0  0  0  0  0  3  0  0  0  0  0  0
  -27.5440  -37.4860   24.9580 C   0  0  0  0  0  1  0  0  0  0  0  0
  -26.4660  -37.6230   23.9820 N   0  0  0  0  0  0  0  0  0  0  0  0
  -26.0520  -38.5460   24.0940 H   0  0  0  0  0  0  0  0  0  0  0  0
  -26.3990  -31.9850   25.4590 C   0  0  1  0  0  0  0  0  0  0  0  0
  -25.2670  -31.7210   26.4790 C   0  0  0  0  0  1  0  0  0  0  0  0
  -27.0400  -30.6230   25.1040 C   0  0  0  0  0  1  0  0  0  0  0  0
  -27.4960  -32.8170   26.1640 C   0  0  0  0  0  1  0  0  0  0  0  0
  1 54  1  0
  1 50  1  0
  3  6  1  0
  4  2  2  0
  5  3  2  0
  5  4  1  0
  6  2  1  0
  6  1  1  0
 10  7  1  6
  8 10  1  0
  9 10  1  0
 10  5  1  0
 11  4  1  0
 11 20  1  0
 12 20  1  0
 13 18  1  0
 14 15  1  0
 14 13  1  0
 16 15  1  0
 16 25  1  0
 16 17  1  0
 18 12  1  0
 18 17  1  0
 19 12  2  0
 20 21  1  0
 22 23  2  0
 23 42  1  0
 24 23  1  0
 24 27  1  0
 25 26  1  0
 25 22  1  0
 26 24  2  0
 27 28  1  0
 28 29  2  0
 30 33  1  0
 30 29  1  0
 31 30  2  0
 32 31  1  0
 32 27  2  0
 33 34  1  0
 34 39  2  0
 34 35  1  0
 35 36  2  0
 36 37  1  0
 37 41  1  0
 38 37  2  0
 39 38  1  0
 40 39  1  0
 42 43  1  0
 43 46  1  0
 43 45  1  0
 44 42  2  0
 47 48  1  0
 47 22  1  0
 49 47  1  0
 52 53  1  0
 53 50  1  0
 53 51  1  0
 56 57  1  0
 56 54  1  0
 56 55  1  0
 58 57  1  0
 59 70  2  0
 60 58  1  0
 60 65  1  0
 61 69  1  0
 61 71  1  0
 62 68  1  0
 62 64  1  0
 63 69  1  0
 64 65  2  0
 64 63  1  0
 66 60  2  0
 67 66  1  0
 67 62  2  0
 68 61  1  0
 69 59  1  0
 71 73  2  0
 72 71  1  0
 74 72  1  0
 75 84  2  0
 75 80  1  0
 76 72  1  0
 76 80  1  0
 77 76  1  0
 78 79  1  0
 78 77  1  0
 79 75  1  0
 80 81  2  0
 81 82  1  0
 83 82  2  0
 84 83  1  0
 85 59  1  0
 85 86  1  0
 85 95  1  0
 86 89  1  0
 87 91  1  0
 87 86  1  0
 88 87  2  0
 91 90  1  0
 93 94  1  0
 93 91  1  0
 93 92  1  0
 95 98  1  1
 95 96  1  0
 97 95  1  0
M  ISO  4  12 100  20 100  57 101  58 101
M  END
>  <TORSDO>  (26) 
F 24

>  <SCORE>  (26) 
-11.194

>  <name>  (26) 
25

>  <ligand_id>  (26) 
25

>  <original_smiles>  (26) 
[H]c1c([H])c([H])c2c(c1[H])C([H])([H])C([H])([H])C([H])([H])C2([H])N([H])C(=O)C1([H])N(C(=O)C([H])(N([H])C(=O)C([H])(N([H])C([H])([H])[H])C([H])([H])[H])C(C([H])([H])[H])(C([H])([H])[H])C([H])([H])[H])C([H])([H])c2c([H])c(OC([H])([H])C([H])(C([H])([H])[H])C([H])([H])C([H])(n3c([H])c(C([H])([H])N([H])C(=O)N4C([H])([H])C([H])([H])C([H])([H])C([H])(n5nc(-c6c([H])c([H])c(Oc7c([H])c([H])c(F)c([H])c7F)c([H])c6[H])c(C(=O)N([H])[H])c5N([H])[H])C4([H])[H])c(C(C([H])([H])[H])(C([H])([H])[H])C([H])([H])[H])c3[H])C([H])([H])C([H])(C([H])([H])[H])C([H])([H])[H])c([H])c([H])c2C1([H])[H]

>  <smiles>  (26) 
[H]c1c([H])c([H])c2c(c1[H])C([H])([H])C([H])([H])C([H])([H])C2([H])N([H])C(=O)C1([H])N(C(=O)C([H])(N([H])C(=O)C([H])(N([H])C([H])([H])[H])C([H])([H])[H])C(C([H])([H])[H])(C([H])([H])[H])C([H])([H])[H])C([H])([H])c2c([H])c(OC([H])([H])C([H])(C([H])([H])[H])C([H])([H])C([H])(n3c([H])c(C([H])([H])N([H])C(=O)N4C([H])([H])C([H])([H])C([H])([H])C([H])(n5nc(-c6c([H])c([H])c(Oc7c([H])c([H])c(F)c([H])c7F)c([H])c6[H])c(C(=O)N([H])[H])c5N([H])[H])C4([H])[H])c(C(C([H])([H])[H])(C([H])([H])[H])C([H])([H])[H])c3[H])C([H])([H])C([H])(C([H])([H])[H])C([H])([H])[H])c([H])c([H])c2C1([H])[H]

$$$$
26:0:0
     RDKit          3D

 98106  0  0  1  0  0  0  0  0999 V2000
  -29.6090  -21.8330   20.4120 C   0  0  0  0  0  3  0  0  0  0  0  0
  -27.6820  -22.9090   19.4810 C   0  0  0  0  0  3  0  0  0  0  0  0
  -28.8500  -23.1670   20.1860 C   0  0  0  0  0  0  0  0  0  0  0  0
  -29.2950  -20.3770   19.9390 C   0  0  0  0  0  0  0  0  0  0  0  0
  -27.2640  -21.6230   19.0420 C   0  0  0  0  0  0  0  0  0  0  0  0
  -28.0550  -20.4080   19.1920 C   0  0  0  0  0  0  0  0  0  0  0  0
  -24.8630  -22.3320   19.4630 C   0  0  0  0  0  1  0  0  0  0  0  0
  -25.8370  -21.6550   18.4640 C   0  0  0  0  0  3  0  0  0  0  0  0
  -25.7870  -22.2930   17.0470 C   0  0  0  0  0  2  0  0  0  0  0  0
  -24.4190  -22.4690   16.5310 N   0  0  0  0  0  4  0  0  0  0  0  0
  -23.9200  -21.5960   16.5180 H   0  0  0  0  0  0  0  0  0  0  0  0
  -24.4480  -22.8310   15.5930 H   0  0  0  0  0  0  0  0  0  0  0  0
  -23.9090  -23.1230   17.1020 H   0  0  0  0  0  0  0  0  0  0  0  0
  -27.5340  -19.1230   18.5240 C   0  0  0  0  0  2  0  0  0  0  0  0
  -28.6260  -18.2830   16.3550 C   0  0  0  0  0  1  0  0  0  0  0  0
  -26.1770  -18.7460   16.3440 C   0  0  0  0  0  1  0  0  0  0  0  0
  -27.5290  -19.1660   16.9670 C   0  0  0  0  0  3  0  0  0  0  0  0
  -30.2360  -18.8570   20.1370 C   0  0  0  0  0  2  0  0  0  0  0  0
  -30.7240  -15.8610   20.0950 C   0  0  0  0  0  0  0  0  0  0  0  0
  -30.7020  -13.3960   19.2210 C   0  0  0  0  0  2  0  0  0  0  0  0
  -29.8000  -13.1820   17.9840 C   0  0  0  0  0  2  0  0  0  0  0  0
  -28.3460  -12.9120   18.4140 C   0  0  0  0  0  2  0  0  0  0  0  0
  -27.8900  -13.8720   19.5430 C   0  0  0  0  0  3  0  0  0  0  0  0
  -28.9250  -14.0390   20.6710 C   0  0  0  0  0  2  0  0  0  0  0  0
  -30.1500  -14.5490   20.0310 N   0  0  0  0  0  0  0  0  0  0  0  0
  -31.9480  -15.8210   19.8980 O   0  0  0  0  0  0  0  0  0  0  0  0
  -29.9710  -17.1680   20.1880 N   0  0  0  0  0  0  0  0  0  0  0  0
  -28.9880  -16.9820   20.2480 H   0  0  0  0  0  0  0  0  0  0  0  0
  -25.5420  -14.4670   20.3230 C   0  0  0  0  0  0  0  0  0  0  0  0
  -24.4540  -13.7060   20.6500 C   0  0  0  0  0  0  0  0  0  0  0  0
  -24.8890  -12.3470   20.5890 C   0  0  0  0  0  0  0  0  0  0  0  0
  -26.5570  -13.5710   20.0480 N   0  0  0  0  0  0  0  0  0  0  0  0
  -26.1830  -12.2870   20.2760 N   0  0  0  0  0  0  0  0  0  0  0  0
  -24.1310  -11.1020   20.7600 C   0  0  0  0  0  0  0  0  0  0  0  0
  -24.5500  -10.0930   21.6510 C   0  0  0  0  0  3  0  0  0  0  0  0
  -23.7890   -8.9110   21.8050 C   0  0  0  0  0  3  0  0  0  0  0  0
  -22.5900   -8.7400   21.0720 C   0  0  0  0  0  0  0  0  0  0  0  0
  -22.1880   -9.7420   20.1700 C   0  0  0  0  0  3  0  0  0  0  0  0
  -22.9500  -10.9130   20.0150 C   0  0  0  0  0  3  0  0  0  0  0  0
  -21.7980   -7.6210   21.1380 O   0  0  0  0  0  0  0  0  0  0  0  0
  -21.7950   -6.8070   22.2430 C   0  0  0  0  0  0  0  0  0  0  0  0
  -21.4900   -7.3010   23.5310 C   0  0  0  0  0  3  0  0  0  0  0  0
  -21.4270   -6.4190   24.6260 C   0  0  0  0  0  3  0  0  0  0  0  0
  -21.6550   -5.0410   24.4380 C   0  0  0  0  0  0  0  0  0  0  0  0
  -21.9480   -4.5480   23.1530 C   0  0  0  0  0  3  0  0  0  0  0  0
  -22.0140   -5.4290   22.0600 C   0  0  0  0  0  0  0  0  0  0  0  0
  -22.2780   -4.9430   20.8220 F   0  0  0  0  0  0  0  0  0  0  0  0
  -21.5890   -4.1900   25.4870 F   0  0  0  0  0  0  0  0  0  0  0  0
  -23.0720  -14.2180   20.9200 C   0  0  0  0  0  0  0  0  0  0  0  0
  -22.3250  -13.5380   21.7780 N   0  0  0  0  0  0  0  0  0  0  0  0
  -22.6620  -15.2530   20.3930 O   0  0  0  0  0  0  0  0  0  0  0  0
  -22.6750  -12.7020   22.2160 H   0  0  0  0  0  0  0  0  0  0  0  0
  -21.3940  -13.8570   22.0020 H   0  0  0  0  0  0  0  0  0  0  0  0
  -25.7430  -15.8350   20.2210 N   0  0  0  0  0  0  0  0  0  0  0  0
  -24.9990  -16.4880   20.4340 H   0  0  0  0  0  0  0  0  0  0  0  0
  -26.6270  -16.2780   20.0210 H   0  0  0  0  0  0  0  0  0  0  0  0
  -28.8840  -24.8010   20.8450 C   0  0  0  0  0  2  0  0  0  0  0  0
  -28.6220  -26.3560   20.3260 O   0  0  0  0  0  0  0  0  0  0  0  0
  -24.6100  -32.0530   23.4180 C   0  0  0  0  0  0  0  0  0  0  0  0
  -27.5080  -27.3470   20.4340 C   0  0  0  0  0  0  0  0  0  0  0  0
  -23.5470  -30.6490   21.7020 C   0  0  0  0  0  3  0  0  0  0  0  0
  -25.1210  -29.1320   20.3150 C   0  0  0  0  0  0  0  0  0  0  0  0
  -26.1030  -30.9760   21.6570 C   0  0  0  0  0  2  0  0  0  0  0  0
  -26.2660  -29.5770   20.9910 C   0  0  0  0  0  0  0  0  0  0  0  0
  -27.4570  -28.7150   21.0150 C   0  0  0  0  0  3  0  0  0  0  0  0
  -26.3260  -27.0560   19.7140 C   0  0  0  0  0  3  0  0  0  0  0  0
  -25.1810  -27.8940   19.6560 C   0  0  0  0  0  3  0  0  0  0  0  0
  -23.8610  -30.0050   20.3210 C   0  0  0  0  0  2  0  0  0  0  0  0
  -24.7720  -31.2530   22.3140 N   0  0  0  0  0  0  0  0  0  0  0  0
  -23.4920  -32.2820   23.9030 O   0  0  0  0  0  0  0  0  0  0  0  0
  -22.8610  -29.6000   22.6160 C   0  0  0  0  0  0  0  0  0  0  0  0
  -21.5430  -29.3840   22.4370 N   0  0  0  0  0  0  0  0  0  0  0  0
  -23.5240  -28.9780   23.4520 O   0  0  0  0  0  0  0  0  0  0  0  0
  -21.0610  -29.9410   21.7430 H   0  0  0  0  0  0  0  0  0  0  0  0
  -18.1930  -28.0500   22.8150 C   0  0  0  0  0  0  0  0  0  0  0  0
  -20.7340  -28.3930   23.1540 C   0  0  0  0  0  3  0  0  0  0  0  0
  -20.8980  -26.9880   22.5310 C   0  0  0  0  0  2  0  0  0  0  0  0
  -19.8350  -26.6640   21.4770 C   0  0  0  0  0  2  0  0  0  0  0  0
  -18.4320  -26.7360   22.0890 C   0  0  0  0  0  2  0  0  0  0  0  0
  -19.2730  -28.8360   23.2990 C   0  0  0  0  0  0  0  0  0  0  0  0
  -18.9910  -30.0620   23.9390 C   0  0  0  0  0  3  0  0  0  0  0  0
  -17.6660  -30.5060   24.0970 C   0  0  0  0  0  3  0  0  0  0  0  0
  -16.6010  -29.7200   23.6250 C   0  0  0  0  0  3  0  0  0  0  0  0
  -16.8650  -28.4920   22.9900 C   0  0  0  0  0  3  0  0  0  0  0  0
  -25.8280  -32.7350   24.1150 C   0  0  0  0  0  3  0  0  0  0  0  0
  -26.2600  -32.0080   25.4490 C   0  0  1  0  0  0  0  0  0  0  0  0
  -25.0930  -31.7710   26.4360 C   0  0  0  0  0  1  0  0  0  0  0  0
  -26.9010  -30.6360   25.1450 C   0  0  0  0  0  1  0  0  0  0  0  0
  -27.3410  -32.8450   26.1750 C   0  0  0  0  0  1  0  0  0  0  0  0
  -25.4650  -34.1350   24.3970 N   0  0  0  0  0  0  0  0  0  0  0  0
  -25.8180  -35.1880   23.6460 C   0  0  0  0  0  0  0  0  0  0  0  0
  -26.5480  -35.0820   22.6570 O   0  0  0  0  0  0  0  0  0  0  0  0
  -24.8210  -34.2870   25.1610 H   0  0  0  0  0  0  0  0  0  0  0  0
  -24.0650  -36.9340   23.1870 C   0  0  0  0  0  1  0  0  0  0  0  0
  -25.2810  -36.5750   24.0540 C   0  0  0  0  0  3  0  0  0  0  0  0
  -27.3630  -37.5250   24.9430 C   0  0  0  0  0  1  0  0  0  0  0  0
  -26.2920  -37.6500   23.9590 N   0  0  0  0  0  0  0  0  0  0  0  0
  -25.8600  -38.5640   24.0760 H   0  0  0  0  0  0  0  0  0  0  0  0
  2  3  2  0
  3  1  1  0
  3 57  1  0
  4 18  1  0
  4  1  2  0
  5  6  2  0
  5  2  1  0
  6  4  1  0
  8  5  1  0
  8  7  1  0
  9  8  1  0
 10  9  1  0
 10 13  1  0
 11 10  1  0
 12 10  1  0
 14  6  1  0
 15 17  1  0
 16 17  1  0
 17 14  1  0
 18 27  1  0
 19 27  1  0
 20 25  1  0
 21 22  1  0
 21 20  1  0
 23 22  1  0
 23 32  1  0
 23 24  1  0
 25 19  1  0
 25 24  1  0
 26 19  2  0
 27 28  1  0
 29 30  2  0
 30 49  1  0
 31 30  1  0
 31 34  1  0
 32 33  1  0
 32 29  1  0
 33 31  2  0
 34 35  1  0
 35 36  2  0
 37 40  1  0
 37 36  1  0
 38 37  2  0
 39 38  1  0
 39 34  2  0
 40 41  1  0
 41 42  1  0
 42 43  2  0
 44 43  1  0
 44 48  1  0
 45 44  2  0
 46 41  2  0
 46 45  1  0
 47 46  1  0
 49 50  1  0
 50 53  1  0
 50 52  1  0
 51 49  2  0
 54 29  1  0
 54 55  1  0
 56 54  1  0
 58 60  1  0
 58 57  1  0
 59 70  2  0
 60 65  1  0
 61 69  1  0
 61 71  1  0
 62 68  1  0
 62 64  1  0
 63 69  1  0
 64 65  2  0
 64 63  1  0
 66 60  2  0
 67 66  1  0
 67 62  2  0
 68 61  1  0
 69 59  1  0
 71 73  2  0
 72 71  1  0
 74 72  1  0
 75 84  2  0
 75 80  1  0
 76 72  1  0
 76 80  1  0
 77 76  1  0
 78 79  1  0
 78 77  1  0
 79 75  1  0
 80 81  2  0
 81 82  1  0
 83 82  2  0
 84 83  1  0
 85 59  1  0
 85 90  1  0
 85 86  1  0
 86 89  1  1
 86 87  1  0
 88 86  1  0
 90 93  1  0
 91 95  1  0
 91 90  1  0
 92 91  2  0
 95 94  1  0
 97 95  1  0
 97 98  1  0
 97 96  1  0
M  ISO  4  19 100  27 100  57 101  58 101
M  END
>  <TORSDO>  (27) 
F 23

>  <SCORE>  (27) 
-11.230

>  <name>  (27) 
26

>  <ligand_id>  (27) 
26

>  <original_smiles>  (27) 
[H]c1c([H])c([H])c2c(c1[H])C([H])([H])C([H])([H])C([H])([H])C2([H])N([H])C(=O)C1([H])N(C(=O)C([H])(N([H])C(=O)C([H])(N([H])C([H])([H])[H])C([H])([H])[H])C(C([H])([H])[H])(C([H])([H])[H])C([H])([H])[H])C([H])([H])c2c([H])c(OC([H])([H])c3c([H])c(C([H])([H])N([H])C(=O)N4C([H])([H])C([H])([H])C([H])([H])C([H])(n5nc(-c6c([H])c([H])c(Oc7c([H])c([H])c(F)c([H])c7F)c([H])c6[H])c(C(=O)N([H])[H])c5N([H])[H])C4([H])[H])c(C([H])([H])C([H])(C([H])([H])[H])C([H])([H])[H])c(C([H])(C([H])([H])[H])C([H])([H])[N+]([H])([H])[H])c3[H])c([H])c([H])c2C1([H])[H]

>  <smiles>  (27) 
[H]c1c([H])c([H])c2c(c1[H])C([H])([H])C([H])([H])C([H])([H])C2([H])N([H])C(=O)C1([H])N(C(=O)C([H])(N([H])C(=O)C([H])(N([H])C([H])([H])[H])C([H])([H])[H])C(C([H])([H])[H])(C([H])([H])[H])C([H])([H])[H])C([H])([H])c2c([H])c(OC([H])([H])c3c([H])c(C([H])([H])N([H])C(=O)N4C([H])([H])C([H])([H])C([H])([H])C([H])(n5nc(-c6c([H])c([H])c(Oc7c([H])c([H])c(F)c([H])c7F)c([H])c6[H])c(C(=O)N([H])[H])c5N([H])[H])C4([H])[H])c(C([H])([H])C([H])(C([H])([H])[H])C([H])([H])[H])c(C([H])(C([H])([H])[H])C([H])([H])[N+]([H])([H])[H])c3[H])c([H])c([H])c2C1([H])[H]

$$$$
27:0:0
     RDKit          3D

 98106  0  0  1  0  0  0  0  0999 V2000
  -28.6740  -17.5440   20.6230 C   0  0  0  0  0  3  0  0  0  0  0  0
  -28.6110  -18.9490   20.4670 C   0  0  0  0  0  3  0  0  0  0  0  0
  -31.0790  -17.6560   20.8610 C   0  0  0  0  0  3  0  0  0  0  0  0
  -31.0160  -19.0720   20.7470 C   0  0  0  0  0  0  0  0  0  0  0  0
  -29.9030  -16.8760   20.8040 C   0  0  0  0  0  0  0  0  0  0  0  0
  -29.7810  -19.7480   20.5330 C   0  0  0  0  0  0  0  0  0  0  0  0
  -30.6180  -14.4960   20.4180 C   0  0  0  0  0  0  0  0  0  0  0  0
  -30.3420  -12.3400   19.2380 C   0  0  0  0  0  2  0  0  0  0  0  0
  -29.3830  -12.5540   18.0450 C   0  0  0  0  0  2  0  0  0  0  0  0
  -27.9090  -12.4270   18.4820 C   0  0  0  0  0  2  0  0  0  0  0  0
  -27.5920  -13.2440   19.7640 C   0  0  0  0  0  3  0  0  0  0  0  0
  -28.6520  -12.9740   20.8550 C   0  0  0  0  0  2  0  0  0  0  0  0
  -29.9740  -13.3000   20.2910 N   0  0  0  0  0  0  0  0  0  0  0  0
  -31.7340  -14.7110   19.9370 O   0  0  0  0  0  0  0  0  0  0  0  0
  -29.8810  -15.4580   21.0170 N   0  0  0  0  0  0  0  0  0  0  0  0
  -29.0130  -15.0980   21.3840 H   0  0  0  0  0  0  0  0  0  0  0  0
  -25.1970  -13.8730   20.4720 C   0  0  0  0  0  0  0  0  0  0  0  0
  -24.1250  -13.1100   20.8500 C   0  0  0  0  0  0  0  0  0  0  0  0
  -24.5760  -11.7550   20.8180 C   0  0  0  0  0  0  0  0  0  0  0  0
  -26.2370  -12.9820   20.2450 N   0  0  0  0  0  0  0  0  0  0  0  0
  -25.8650  -11.7040   20.5070 N   0  0  0  0  0  0  0  0  0  0  0  0
  -23.8400  -10.5010   21.0120 C   0  0  0  0  0  0  0  0  0  0  0  0
  -24.2680   -9.5340   21.9470 C   0  0  0  0  0  3  0  0  0  0  0  0
  -23.5350   -8.3420   22.1310 C   0  0  0  0  0  3  0  0  0  0  0  0
  -22.3590   -8.1090   21.3780 C   0  0  0  0  0  0  0  0  0  0  0  0
  -21.9480   -9.0670   20.4330 C   0  0  0  0  0  3  0  0  0  0  0  0
  -22.6810  -10.2490   20.2470 C   0  0  0  0  0  3  0  0  0  0  0  0
  -21.5960   -6.9700   21.4720 O   0  0  0  0  0  0  0  0  0  0  0  0
  -21.5400   -6.2350   22.6290 C   0  0  0  0  0  0  0  0  0  0  0  0
  -21.1070   -6.7960   23.8510 C   0  0  0  0  0  3  0  0  0  0  0  0
  -20.9940   -5.9830   24.9960 C   0  0  0  0  0  3  0  0  0  0  0  0
  -21.3090   -4.6130   24.9240 C   0  0  0  0  0  0  0  0  0  0  0  0
  -21.7350   -4.0530   23.7070 C   0  0  0  0  0  3  0  0  0  0  0  0
  -21.8480   -4.8610   22.5630 C   0  0  0  0  0  0  0  0  0  0  0  0
  -22.2380   -4.3090   21.3890 F   0  0  0  0  0  0  0  0  0  0  0  0
  -21.1950   -3.8320   26.0240 F   0  0  0  0  0  0  0  0  0  0  0  0
  -22.7330  -13.6000   21.1290 C   0  0  0  0  0  0  0  0  0  0  0  0
  -22.0050  -12.9130   22.0020 N   0  0  0  0  0  0  0  0  0  0  0  0
  -22.3010  -14.6290   20.6130 O   0  0  0  0  0  0  0  0  0  0  0  0
  -22.3650  -12.0760   22.4370 H   0  0  0  0  0  0  0  0  0  0  0  0
  -21.0770  -13.2310   22.2400 H   0  0  0  0  0  0  0  0  0  0  0  0
  -25.3710  -15.2410   20.2900 N   0  0  0  0  0  0  0  0  0  0  0  0
  -24.6010  -15.8930   20.3880 H   0  0  0  0  0  0  0  0  0  0  0  0
  -26.2050  -15.6650   19.9040 H   0  0  0  0  0  0  0  0  0  0  0  0
  -32.2800  -19.8780   20.9890 C   0  0  0  0  0  2  0  0  0  0  0  0
  -32.8120  -20.6370   19.7600 C   0  0  0  0  0  2  0  0  0  0  0  0
  -33.3090  -22.0320   20.1760 C   0  0  0  0  0  2  0  0  0  0  0  0
  -34.1010  -24.2250   19.3730 C   0  0  0  0  0  1  0  0  0  0  0  0
  -33.8760  -22.8030   19.0530 N   0  0  0  0  0  4  0  0  0  0  0  0
  -34.7590  -22.3980   18.7840 H   0  0  0  0  0  0  0  0  0  0  0  0
  -33.2570  -22.7480   18.2610 H   0  0  0  0  0  0  0  0  0  0  0  0
  -29.7910  -21.1410   20.3900 O   0  0  0  0  0  0  0  0  0  0  0  0
  -28.6050  -21.9180   20.6510 C   0  0  0  0  0  2  0  0  0  0  0  0
  -28.6370  -23.3870   20.1100 C   0  0  0  0  0  2  0  0  0  0  0  0
  -29.4370  -24.4450   20.9210 C   0  0  0  0  0  2  0  0  0  0  0  0
  -29.5040  -26.5090   22.3820 C   0  0  0  0  0  1  0  0  0  0  0  0
  -28.6900  -25.7710   21.3090 C   0  0  0  0  0  3  0  0  0  0  0  0
  -28.5070  -26.6910   20.2130 O   0  0  0  0  0  0  0  0  0  0  0  0
  -24.6130  -31.8930   23.2470 C   0  0  0  0  0  0  0  0  0  0  0  0
  -27.3490  -27.4490   20.2400 C   0  0  0  0  0  0  0  0  0  0  0  0
  -23.4390  -30.4690   21.5980 C   0  0  0  0  0  3  0  0  0  0  0  0
  -24.9320  -28.9330   20.2030 C   0  0  0  0  0  0  0  0  0  0  0  0
  -25.9670  -30.8490   21.4340 C   0  0  0  0  0  2  0  0  0  0  0  0
  -26.0770  -29.4740   20.8040 C   0  0  0  0  0  0  0  0  0  0  0  0
  -27.2880  -28.7400   20.8180 C   0  0  0  0  0  3  0  0  0  0  0  0
  -26.1920  -26.9270   19.6260 C   0  0  0  0  0  3  0  0  0  0  0  0
  -24.9870  -27.6580   19.6090 C   0  0  0  0  0  3  0  0  0  0  0  0
  -23.6730  -29.7720   20.2280 C   0  0  0  0  0  2  0  0  0  0  0  0
  -24.6900  -31.0860   22.1500 N   0  0  0  0  0  0  0  0  0  0  0  0
  -23.5230  -32.1610   23.7710 O   0  0  0  0  0  0  0  0  0  0  0  0
  -22.7780  -29.4540   22.5590 C   0  0  0  0  0  0  0  0  0  0  0  0
  -21.4520  -29.2820   22.4320 N   0  0  0  0  0  0  0  0  0  0  0  0
  -23.4580  -28.8270   23.3730 O   0  0  0  0  0  0  0  0  0  0  0  0
  -20.9650  -29.8390   21.7440 H   0  0  0  0  0  0  0  0  0  0  0  0
  -18.0670  -28.1240   22.9310 C   0  0  0  0  0  0  0  0  0  0  0  0
  -20.6290  -28.3460   23.1960 C   0  0  0  0  0  3  0  0  0  0  0  0
  -20.7130  -26.9220   22.6000 C   0  0  0  0  0  2  0  0  0  0  0  0
  -19.6010  -26.6250   21.5880 C   0  0  0  0  0  2  0  0  0  0  0  0
  -18.2240  -26.7800   22.2400 C   0  0  0  0  0  2  0  0  0  0  0  0
  -19.1960  -28.8670   23.3650 C   0  0  0  0  0  0  0  0  0  0  0  0
  -18.9950  -30.1290   23.9680 C   0  0  0  0  0  3  0  0  0  0  0  0
  -17.6970  -30.6450   24.1410 C   0  0  0  0  0  3  0  0  0  0  0  0
  -16.5820  -29.8950   23.7280 C   0  0  0  0  0  3  0  0  0  0  0  0
  -16.7680  -28.6370   23.1260 C   0  0  0  0  0  3  0  0  0  0  0  0
  -25.8860  -32.5370   23.8810 C   0  0  0  0  0  3  0  0  0  0  0  0
  -26.3940  -31.7740   25.1660 C   0  0  1  0  0  0  0  0  0  0  0  0
  -25.2850  -31.5330   26.2170 C   0  0  0  0  0  1  0  0  0  0  0  0
  -26.9880  -30.3960   24.7860 C   0  0  0  0  0  1  0  0  0  0  0  0
  -27.5360  -32.5750   25.8340 C   0  0  0  0  0  1  0  0  0  0  0  0
  -25.5670  -33.9350   24.2010 N   0  0  0  0  0  0  0  0  0  0  0  0
  -25.9020  -34.9840   23.4370 C   0  0  0  0  0  0  0  0  0  0  0  0
  -26.5760  -34.8780   22.4100 O   0  0  0  0  0  0  0  0  0  0  0  0
  -24.9750  -34.0960   25.0030 H   0  0  0  0  0  0  0  0  0  0  0  0
  -24.1630  -36.7580   23.0600 C   0  0  0  0  0  1  0  0  0  0  0  0
  -25.4040  -36.3720   23.8810 C   0  0  0  0  0  3  0  0  0  0  0  0
  -27.5280  -37.2780   24.7170 C   0  0  0  0  0  1  0  0  0  0  0  0
  -26.4310  -37.4320   23.7650 N   0  0  0  0  0  0  0  0  0  0  0  0
  -26.0170  -38.3490   23.9050 H   0  0  0  0  0  0  0  0  0  0  0  0
  1  5  1  0
  2  6  1  0
  2  1  2  0
  4  3  1  0
  4 45  1  0
  5  3  2  0
  5 15  1  0
  6  4  2  0
  7 15  1  0
  8 13  1  0
  9 10  1  0
  9  8  1  0
 11 10  1  0
 11 20  1  0
 11 12  1  0
 13  7  1  0
 13 12  1  0
 14  7  2  0
 15 16  1  0
 17 18  2  0
 18 37  1  0
 19 18  1  0
 19 22  1  0
 20 17  1  0
 20 21  1  0
 21 19  2  0
 22 23  1  0
 23 24  2  0
 25 28  1  0
 25 24  1  0
 26 25  2  0
 27 26  1  0
 27 22  2  0
 28 29  1  0
 29 30  1  0
 30 31  2  0
 32 31  1  0
 32 36  1  0
 33 32  2  0
 34 29  2  0
 34 33  1  0
 35 34  1  0
 37 38  1  0
 38 41  1  0
 38 40  1  0
 39 37  2  0
 42 43  1  0
 42 17  1  0
 44 42  1  0
 46 47  1  0
 46 45  1  0
 49 48  1  0
 49 47  1  0
 50 49  1  0
 51 49  1  0
 52  6  1  0
 52 53  1  0
 54 53  1  0
 54 55  1  0
 55 57  1  0
 57 56  1  0
 58 60  1  0
 58 57  1  0
 59 70  2  0
 60 65  1  0
 61 69  1  0
 61 71  1  0
 62 68  1  0
 62 64  1  0
 63 69  1  0
 64 65  2  0
 64 63  1  0
 66 60  2  0
 67 66  1  0
 67 62  2  0
 68 61  1  0
 69 59  1  0
 71 73  2  0
 72 71  1  0
 74 72  1  0
 75 84  2  0
 75 80  1  0
 76 72  1  0
 76 80  1  0
 77 76  1  0
 78 79  1  0
 78 77  1  0
 79 75  1  0
 80 81  2  0
 81 82  1  0
 83 82  2  0
 84 83  1  0
 85 59  1  0
 85 90  1  0
 85 86  1  0
 86 89  1  1
 86 87  1  0
 88 86  1  0
 90 93  1  0
 91 95  1  0
 91 90  1  0
 92 91  2  0
 95 94  1  0
 97 95  1  0
 97 98  1  0
 97 96  1  0
M  ISO  4   7 100  15 100  57 101  58 101
M  END
>  <TORSDO>  (28) 
F 25

>  <SCORE>  (28) 
-12.599

>  <name>  (28) 
27

>  <ligand_id>  (28) 
27

>  <original_smiles>  (28) 
[H]c1c([H])c([H])c2c(c1[H])C([H])([H])C([H])([H])C([H])([H])C2([H])N([H])C(=O)C1([H])N(C(=O)C([H])(N([H])C(=O)C([H])(N([H])C([H])([H])[H])C([H])([H])[H])C(C([H])([H])[H])(C([H])([H])[H])C([H])([H])[H])C([H])([H])c2c([H])c(OC([H])(C([H])([H])[H])C([H])([H])C([H])([H])C([H])([H])Oc3c([H])c([H])c(N([H])C(=O)N4C([H])([H])C([H])([H])C([H])([H])C([H])(n5nc(-c6c([H])c([H])c(Oc7c([H])c([H])c(F)c([H])c7F)c([H])c6[H])c(C(=O)N([H])[H])c5N([H])[H])C4([H])[H])c([H])c3C([H])([H])C([H])([H])C([H])([H])[N+]([H])([H])C([H])([H])[H])c([H])c([H])c2C1([H])[H]

>  <smiles>  (28) 
[H]c1c([H])c([H])c2c(c1[H])C([H])([H])C([H])([H])C([H])([H])C2([H])N([H])C(=O)C1([H])N(C(=O)C([H])(N([H])C(=O)C([H])(N([H])C([H])([H])[H])C([H])([H])[H])C(C([H])([H])[H])(C([H])([H])[H])C([H])([H])[H])C([H])([H])c2c([H])c(OC([H])(C([H])([H])[H])C([H])([H])C([H])([H])C([H])([H])Oc3c([H])c([H])c(N([H])C(=O)N4C([H])([H])C([H])([H])C([H])([H])C([H])(n5nc(-c6c([H])c([H])c(Oc7c([H])c([H])c(F)c([H])c7F)c([H])c6[H])c(C(=O)N([H])[H])c5N([H])[H])C4([H])[H])c([H])c3C([H])([H])C([H])([H])C([H])([H])[N+]([H])([H])C([H])([H])[H])c([H])c([H])c2C1([H])[H]

$$$$
28:0:0
     RDKit          3D

 91 99  0  0  1  0  0  0  0  0999 V2000
  -27.4870  -21.3450   19.2620 C   0  0  0  0  0  2  0  0  0  0  0  0
  -27.1000  -20.1730   18.7040 C   0  0  0  0  0  3  0  0  0  0  0  0
  -27.8350  -19.1510   19.3640 C   0  0  0  0  0  3  0  0  0  0  0  0
  -28.9040  -19.6540   20.0780 C   0  0  0  0  0  0  0  0  0  0  0  0
  -27.4960  -17.7110   19.2120 C   0  0  0  0  0  1  0  0  0  0  0  0
  -28.5360  -21.2010   20.1620 N   0  0  0  0  0  0  0  0  0  0  0  0
  -26.8150  -19.5970   16.2850 C   0  0  0  0  0  1  0  0  0  0  0  0
  -25.1540  -21.1900   17.3380 C   0  0  0  0  0  1  0  0  0  0  0  0
  -26.0800  -19.9830   17.5790 C   0  0  0  0  0  3  0  0  0  0  0  0
  -30.0590  -18.4100   20.5310 C   0  0  0  0  0  3  0  0  0  0  0  0
  -30.6980  -15.4560   20.4390 C   0  0  0  0  0  0  0  0  0  0  0  0
  -30.7270  -12.9950   19.5810 C   0  0  0  0  0  2  0  0  0  0  0  0
  -29.8290  -12.7460   18.3410 C   0  0  0  0  0  2  0  0  0  0  0  0
  -28.3770  -12.4560   18.7610 C   0  0  0  0  0  2  0  0  0  0  0  0
  -27.8930  -13.4240   19.8680 C   0  0  0  0  0  3  0  0  0  0  0  0
  -28.9220  -13.6120   21.0040 C   0  0  0  0  0  2  0  0  0  0  0  0
  -30.1490  -14.1390   20.3830 N   0  0  0  0  0  0  0  0  0  0  0  0
  -31.9240  -15.4600   20.2420 O   0  0  0  0  0  0  0  0  0  0  0  0
  -29.9070  -16.7190   20.5240 N   0  0  0  0  0  0  0  0  0  0  0  0
  -28.9340  -16.4750   20.6040 H   0  0  0  0  0  0  0  0  0  0  0  0
  -25.5110  -13.9410   20.6130 C   0  0  0  0  0  0  0  0  0  0  0  0
  -24.4530  -13.1690   20.9830 C   0  0  0  0  0  0  0  0  0  0  0  0
  -24.9260  -11.8260   20.9230 C   0  0  0  0  0  0  0  0  0  0  0  0
  -26.5660  -13.0850   20.3670 N   0  0  0  0  0  0  0  0  0  0  0  0
  -26.2230  -11.7960   20.6210 N   0  0  0  0  0  0  0  0  0  0  0  0
  -24.1920  -10.5690   21.0790 C   0  0  0  0  0  0  0  0  0  0  0  0
  -24.5880   -9.5990   22.0240 C   0  0  0  0  0  3  0  0  0  0  0  0
  -23.8500   -8.4070   22.1690 C   0  0  0  0  0  3  0  0  0  0  0  0
  -22.7040   -8.1790   21.3690 C   0  0  0  0  0  0  0  0  0  0  0  0
  -22.3290   -9.1400   20.4140 C   0  0  0  0  0  3  0  0  0  0  0  0
  -23.0680  -10.3250   20.2660 C   0  0  0  0  0  3  0  0  0  0  0  0
  -21.9410   -7.0390   21.4230 O   0  0  0  0  0  0  0  0  0  0  0  0
  -21.7990   -6.3270   22.5860 C   0  0  0  0  0  0  0  0  0  0  0  0
  -21.2310   -6.8980   23.7460 C   0  0  0  0  0  3  0  0  0  0  0  0
  -21.0410   -6.1100   24.8980 C   0  0  0  0  0  3  0  0  0  0  0  0
  -21.4110   -4.7510   24.8900 C   0  0  0  0  0  0  0  0  0  0  0  0
  -21.9740   -4.1800   23.7350 C   0  0  0  0  0  3  0  0  0  0  0  0
  -22.1660   -4.9670   22.5860 C   0  0  0  0  0  0  0  0  0  0  0  0
  -22.6890   -4.4080   21.4670 F   0  0  0  0  0  0  0  0  0  0  0  0
  -21.2210   -3.9900   25.9930 F   0  0  0  0  0  0  0  0  0  0  0  0
  -23.0600  -13.6570   21.2510 C   0  0  0  0  0  0  0  0  0  0  0  0
  -22.3290  -12.9670   22.1200 N   0  0  0  0  0  0  0  0  0  0  0  0
  -22.6300  -14.6860   20.7290 O   0  0  0  0  0  0  0  0  0  0  0  0
  -22.6920  -12.1350   22.5590 H   0  0  0  0  0  0  0  0  0  0  0  0
  -21.3950  -13.2760   22.3460 H   0  0  0  0  0  0  0  0  0  0  0  0
  -25.6310  -15.2950   20.4260 N   0  0  0  0  0  0  0  0  0  0  0  0
  -24.8240  -15.9040   20.5110 H   0  0  0  0  0  0  0  0  0  0  0  0
  -26.4270  -15.7410   19.9960 H   0  0  0  0  0  0  0  0  0  0  0  0
  -28.8470  -22.7000   20.8290 C   0  0  0  0  0  3  0  0  0  0  0  0
  -28.0360  -24.2860   20.4460 C   0  0  0  0  0  3  0  0  0  0  0  0
  -28.2730  -25.8950   20.7410 O   0  0  0  0  0  0  0  0  0  0  0  0
  -24.7420  -32.0490   23.3160 C   0  0  0  0  0  0  0  0  0  0  0  0
  -27.2810  -27.0010   20.5940 C   0  0  0  0  0  0  0  0  0  0  0  0
  -23.5590  -30.5860   21.7270 C   0  0  0  0  0  3  0  0  0  0  0  0
  -25.0110  -28.9010   20.4050 C   0  0  0  0  0  0  0  0  0  0  0  0
  -26.1290  -30.7670   21.6100 C   0  0  0  0  0  2  0  0  0  0  0  0
  -26.1940  -29.3260   21.0250 C   0  0  0  0  0  0  0  0  0  0  0  0
  -27.3270  -28.3960   21.0890 C   0  0  0  0  0  3  0  0  0  0  0  0
  -26.0710  -26.7250   19.9210 C   0  0  0  0  0  3  0  0  0  0  0  0
  -24.9760  -27.6210   19.8310 C   0  0  0  0  0  3  0  0  0  0  0  0
  -23.8030  -29.8380   20.3870 C   0  0  0  0  0  2  0  0  0  0  0  0
  -24.8320  -31.1640   22.2710 N   0  0  0  0  0  0  0  0  0  0  0  0
  -23.6480  -32.3750   23.8040 O   0  0  0  0  0  0  0  0  0  0  0  0
  -22.8400  -29.6470   22.7290 C   0  0  0  0  0  0  0  0  0  0  0  0
  -21.5240  -29.4250   22.5450 N   0  0  0  0  0  0  0  0  0  0  0  0
  -23.4770  -29.1150   23.6420 O   0  0  0  0  0  0  0  0  0  0  0  0
  -21.0580  -29.9170   21.7970 H   0  0  0  0  0  0  0  0  0  0  0  0
  -18.1550  -28.1410   22.9810 C   0  0  0  0  0  0  0  0  0  0  0  0
  -20.6890  -28.5160   23.3390 C   0  0  0  0  0  3  0  0  0  0  0  0
  -20.8670  -27.0520   22.8740 C   0  0  0  0  0  2  0  0  0  0  0  0
  -19.8170  -26.6080   21.8500 C   0  0  0  0  0  2  0  0  0  0  0  0
  -18.4080  -26.7470   22.4340 C   0  0  0  0  0  2  0  0  0  0  0  0
  -19.2270  -28.9760   23.3970 C   0  0  0  0  0  0  0  0  0  0  0  0
  -18.9360  -30.2680   23.8850 C   0  0  0  0  0  3  0  0  0  0  0  0
  -17.6100  -30.7320   23.9530 C   0  0  0  0  0  3  0  0  0  0  0  0
  -16.5530  -29.9000   23.5430 C   0  0  0  0  0  3  0  0  0  0  0  0
  -16.8260  -28.6050   23.0670 C   0  0  0  0  0  3  0  0  0  0  0  0
  -26.0130  -32.7110   23.9350 C   0  0  0  0  0  3  0  0  0  0  0  0
  -26.5580  -31.9400   25.2020 C   0  0  1  0  0  0  0  0  0  0  0  0
  -25.4630  -31.5870   26.2360 C   0  0  0  0  0  1  0  0  0  0  0  0
  -27.2530  -30.6200   24.7920 C   0  0  0  0  0  1  0  0  0  0  0  0
  -27.6330  -32.7970   25.9160 C   0  0  0  0  0  1  0  0  0  0  0  0
  -25.6740  -34.1000   24.2960 N   0  0  0  0  0  0  0  0  0  0  0  0
  -25.9150  -35.1720   23.5300 C   0  0  0  0  0  0  0  0  0  0  0  0
  -26.5110  -35.0990   22.4510 O   0  0  0  0  0  0  0  0  0  0  0  0
  -25.1360  -34.2260   25.1410 H   0  0  0  0  0  0  0  0  0  0  0  0
  -24.0810  -36.8930   23.3610 C   0  0  0  0  0  1  0  0  0  0  0  0
  -25.4190  -36.5440   24.0360 C   0  0  0  0  0  3  0  0  0  0  0  0
  -27.5800  -37.5400   24.6520 C   0  0  0  0  0  1  0  0  0  0  0  0
  -26.3880  -37.6400   23.8130 N   0  0  0  0  0  0  0  0  0  0  0  0
  -25.9540  -38.5420   23.9840 H   0  0  0  0  0  0  0  0  0  0  0  0
  1  6  1  0
  2  9  1  0
  2  1  1  0
  2  3  1  0
  3  5  1  0
  3  4  1  0
  4  6  1  0
  4 10  2  0
  6 49  1  0
  7  9  1  0
  8  9  1  0
 11 19  1  0
 12 17  1  0
 13 14  1  0
 13 12  1  0
 15 14  1  0
 15 24  1  0
 15 16  1  0
 17 11  1  0
 17 16  1  0
 18 11  2  0
 19 10  1  0
 19 20  1  0
 21 22  2  0
 22 41  1  0
 23 22  1  0
 23 26  1  0
 24 21  1  0
 24 25  1  0
 25 23  2  0
 26 27  1  0
 27 28  2  0
 29 32  1  0
 29 28  1  0
 30 29  2  0
 31 30  1  0
 31 26  2  0
 32 33  1  0
 33 38  2  0
 33 34  1  0
 34 35  2  0
 36 35  1  0
 36 40  1  0
 37 36  2  0
 38 37  1  0
 39 38  1  0
 41 42  1  0
 42 45  1  0
 42 44  1  0
 43 41  2  0
 46 47  1  0
 46 21  1  0
 48 46  1  0
 50 51  1  0
 50 49  2  0
 52 63  2  0
 53 51  1  0
 53 58  1  0
 54 62  1  0
 54 64  1  0
 55 57  1  0
 56 62  1  0
 57 58  2  0
 57 56  1  0
 59 53  2  0
 60 59  1  0
 60 55  2  0
 61 55  1  0
 61 54  1  0
 62 52  1  0
 64 66  2  0
 65 64  1  0
 67 65  1  0
 68 77  2  0
 68 73  1  0
 69 65  1  0
 69 73  1  0
 70 69  1  0
 71 72  1  0
 71 70  1  0
 72 68  1  0
 73 74  2  0
 74 75  1  0
 76 75  2  0
 77 76  1  0
 78 52  1  0
 78 83  1  0
 78 79  1  0
 79 82  1  1
 79 80  1  0
 81 79  1  0
 83 86  1  0
 84 88  1  0
 84 83  1  0
 85 84  2  0
 88 87  1  0
 90 91  1  0
 90 88  1  0
 90 89  1  0
M  ISO  4  11 100  19 100  50 101  51 101
M  END
>  <TORSDO>  (29) 
F 20

>  <SCORE>  (29) 
-15.246

>  <name>  (29) 
28

>  <ligand_id>  (29) 
28

>  <original_smiles>  (29) 
[H]c1c([H])c([H])c2c(c1[H])C([H])([H])C([H])([H])C([H])([H])C2([H])N([H])C(=O)C1([H])N(C(=O)C([H])(N([H])C(=O)C([H])(N([H])C([H])([H])[H])C([H])([H])[H])C(C([H])([H])[H])(C([H])([H])[H])C([H])([H])[H])C([H])([H])c2c([H])c(OC([H])([H])C([H])([H])n3c([H])c(C([H])(C([H])([H])[H])C([H])([H])[H])c(C([H])([H])[H])c3C([H])([H])N([H])C(=O)N3C([H])([H])C([H])([H])C([H])([H])C([H])(n4nc(-c5c([H])c([H])c(Oc6c([H])c([H])c(F)c([H])c6F)c([H])c5[H])c(C(=O)N([H])[H])c4N([H])[H])C3([H])[H])c([H])c([H])c2C1([H])[H]

>  <smiles>  (29) 
[H]c1c([H])c([H])c2c(c1[H])C([H])([H])C([H])([H])C([H])([H])C2([H])N([H])C(=O)C1([H])N(C(=O)C([H])(N([H])C(=O)C([H])(N([H])C([H])([H])[H])C([H])([H])[H])C(C([H])([H])[H])(C([H])([H])[H])C([H])([H])[H])C([H])([H])c2c([H])c(OC([H])([H])C([H])([H])n3c([H])c(C([H])(C([H])([H])[H])C([H])([H])[H])c(C([H])([H])[H])c3C([H])([H])N([H])C(=O)N3C([H])([H])C([H])([H])C([H])([H])C([H])(n4nc(-c5c([H])c([H])c(Oc6c([H])c([H])c(F)c([H])c6F)c([H])c5[H])c(C(=O)N([H])[H])c4N([H])[H])C3([H])[H])c([H])c([H])c2C1([H])[H]

$$$$
29:0:0
     RDKit          3D

 97105  0  0  1  0  0  0  0  0999 V2000
  -29.2410  -19.9920   17.8410 C   0  0  0  0  0  1  0  0  0  0  0  0
  -29.5460  -20.7830   19.1360 C   0  0  0  0  0  3  0  0  0  0  0  0
  -30.6180  -15.0960   21.1170 C   0  0  0  0  0  0  0  0  0  0  0  0
  -30.6420  -12.7560   20.2890 C   0  0  0  0  0  2  0  0  0  0  0  0
  -29.8540  -12.7160   18.9600 C   0  0  0  0  0  2  0  0  0  0  0  0
  -28.3470  -12.5080   19.2340 C   0  0  0  0  0  2  0  0  0  0  0  0
  -27.7950  -13.4770   20.3170 C   0  0  0  0  0  3  0  0  0  0  0  0
  -28.7170  -13.4960   21.5590 C   0  0  0  0  0  2  0  0  0  0  0  0
  -30.0720  -13.8440   21.1000 N   0  0  0  0  0  0  0  0  0  0  0  0
  -31.8120  -15.2890   20.8490 O   0  0  0  0  0  0  0  0  0  0  0  0
  -29.5920  -18.3930   20.2460 C   0  0  0  0  0  3  0  0  0  0  0  0
  -29.7710  -19.8090   20.3470 C   0  0  0  0  0  0  0  0  0  0  0  0
  -30.2800  -20.2910   21.5860 C   0  0  0  0  0  0  0  0  0  0  0  0
  -30.5150  -19.3630   22.6400 C   0  0  0  0  0  0  0  0  0  0  0  0
  -29.9340  -17.5200   21.3170 C   0  0  0  0  0  0  0  0  0  0  0  0
  -30.5960  -21.7740   21.8060 C   0  0  0  0  0  1  0  0  0  0  0  0
  -30.3420  -18.0310   22.4920 N   0  0  0  0  0  0  0  0  0  0  0  0
  -29.7170  -16.1090   21.1910 N   0  0  0  0  0  0  0  0  0  0  0  0
  -28.7560  -15.8170   21.2610 H   0  0  0  0  0  0  0  0  0  0  0  0
  -25.3240  -14.0160   20.7920 C   0  0  0  0  0  0  0  0  0  0  0  0
  -24.2480  -13.2160   21.0730 C   0  0  0  0  0  0  0  0  0  0  0  0
  -24.7500  -11.8790   21.1070 C   0  0  0  0  0  0  0  0  0  0  0  0
  -26.4120  -13.1650   20.6710 N   0  0  0  0  0  0  0  0  0  0  0  0
  -26.0640  -11.8760   20.9170 N   0  0  0  0  0  0  0  0  0  0  0  0
  -24.0460  -10.5990   21.2460 C   0  0  0  0  0  0  0  0  0  0  0  0
  -24.4460   -9.6380   22.1990 C   0  0  0  0  0  3  0  0  0  0  0  0
  -23.7440   -8.4190   22.3240 C   0  0  0  0  0  3  0  0  0  0  0  0
  -22.6260   -8.1570   21.4950 C   0  0  0  0  0  0  0  0  0  0  0  0
  -22.2490   -9.1060   20.5280 C   0  0  0  0  0  3  0  0  0  0  0  0
  -22.9540  -10.3150   20.4010 C   0  0  0  0  0  3  0  0  0  0  0  0
  -21.8960   -6.9940   21.5330 O   0  0  0  0  0  0  0  0  0  0  0  0
  -21.8200   -6.2290   22.6680 C   0  0  0  0  0  0  0  0  0  0  0  0
  -21.3490   -6.7500   23.8930 C   0  0  0  0  0  3  0  0  0  0  0  0
  -21.2210   -5.9090   25.0160 C   0  0  0  0  0  3  0  0  0  0  0  0
  -21.5530   -4.5430   24.9160 C   0  0  0  0  0  0  0  0  0  0  0  0
  -22.0220   -4.0210   23.6970 C   0  0  0  0  0  3  0  0  0  0  0  0
  -22.1500   -4.8610   22.5770 C   0  0  0  0  0  0  0  0  0  0  0  0
  -22.5810   -4.3470   21.4000 F   0  0  0  0  0  0  0  0  0  0  0  0
  -21.4250   -3.7330   25.9920 F   0  0  0  0  0  0  0  0  0  0  0  0
  -22.8160  -13.6540   21.2010 C   0  0  0  0  0  0  0  0  0  0  0  0
  -22.0290  -12.9600   22.0160 N   0  0  0  0  0  0  0  0  0  0  0  0
  -22.3990  -14.6510   20.6140 O   0  0  0  0  0  0  0  0  0  0  0  0
  -22.3740  -12.1580   22.5230 H   0  0  0  0  0  0  0  0  0  0  0  0
  -21.0650  -13.2370   22.1350 H   0  0  0  0  0  0  0  0  0  0  0  0
  -25.4630  -15.3900   20.6130 N   0  0  0  0  0  0  0  0  0  0  0  0
  -24.6580  -16.0090   20.6260 H   0  0  0  0  0  0  0  0  0  0  0  0
  -26.3150  -15.8550   20.3230 H   0  0  0  0  0  0  0  0  0  0  0  0
  -32.2530  -19.0960   24.4850 C   0  0  0  0  0  1  0  0  0  0  0  0
  -29.8130  -19.5880   25.0750 C   0  0  0  0  0  1  0  0  0  0  0  0
  -30.9460  -19.7860   24.0520 C   0  0  0  0  0  3  0  0  0  0  0  0
  -28.4770  -21.9430   19.3510 C   0  0  0  0  0  2  0  0  0  0  0  0
  -29.2470  -23.3670   17.4010 C   0  0  0  0  0  1  0  0  0  0  0  0
  -28.8100  -23.3310   18.8200 N   0  0  1  0  0  4  0  0  0  0  0  0
  -29.6230  -23.6240   19.3400 H   0  0  0  0  0  0  0  0  0  0  0  0
  -27.7680  -24.3950   19.0810 C   0  0  0  0  0  2  0  0  0  0  0  0
  -28.1720  -25.5460   20.0750 C   0  0  0  0  0  2  0  0  0  0  0  0
  -28.1790  -26.9250   19.6020 O   0  0  0  0  0  0  0  0  0  0  0  0
  -24.6720  -31.8550   23.4780 C   0  0  0  0  0  0  0  0  0  0  0  0
  -27.0410  -27.6950   19.7930 C   0  0  0  0  0  0  0  0  0  0  0  0
  -23.3640  -30.7020   21.7260 C   0  0  0  0  0  3  0  0  0  0  0  0
  -24.7120  -29.2930   20.0810 C   0  0  0  0  0  0  0  0  0  0  0  0
  -25.8990  -30.9910   21.4800 C   0  0  0  0  0  2  0  0  0  0  0  0
  -25.9120  -29.7030   20.6740 C   0  0  0  0  0  0  0  0  0  0  0  0
  -27.0830  -28.9170   20.5170 C   0  0  0  0  0  3  0  0  0  0  0  0
  -25.8130  -27.3040   19.2110 C   0  0  0  0  0  3  0  0  0  0  0  0
  -24.6600  -28.0970   19.3490 C   0  0  0  0  0  3  0  0  0  0  0  0
  -23.5060  -30.1850   20.2700 C   0  0  0  0  0  2  0  0  0  0  0  0
  -24.6660  -31.1920   22.2860 N   0  0  0  0  0  0  0  0  0  0  0  0
  -23.6200  -32.0910   24.0870 O   0  0  0  0  0  0  0  0  0  0  0  0
  -22.7080  -29.5940   22.5820 C   0  0  0  0  0  0  0  0  0  0  0  0
  -21.3800  -29.4380   22.4480 N   0  0  0  0  0  0  0  0  0  0  0  0
  -23.3920  -28.8810   23.3220 O   0  0  0  0  0  0  0  0  0  0  0  0
  -20.8920  -30.0650   21.8230 H   0  0  0  0  0  0  0  0  0  0  0  0
  -18.0080  -28.1820   22.7940 C   0  0  0  0  0  0  0  0  0  0  0  0
  -20.5610  -28.4350   23.1250 C   0  0  0  0  0  3  0  0  0  0  0  0
  -20.6840  -27.0580   22.4330 C   0  0  0  0  0  2  0  0  0  0  0  0
  -19.5980  -26.8140   21.3790 C   0  0  0  0  0  2  0  0  0  0  0  0
  -18.2060  -26.8950   22.0120 C   0  0  0  0  0  2  0  0  0  0  0  0
  -19.1150  -28.9120   23.3030 C   0  0  0  0  0  0  0  0  0  0  0  0
  -18.8790  -30.1200   23.9950 C   0  0  0  0  0  3  0  0  0  0  0  0
  -17.5690  -30.5950   24.1870 C   0  0  0  0  0  3  0  0  0  0  0  0
  -16.4760  -29.8620   23.6920 C   0  0  0  0  0  3  0  0  0  0  0  0
  -16.6980  -28.6580   23.0000 C   0  0  0  0  0  3  0  0  0  0  0  0
  -25.9970  -32.3710   24.1210 C   0  0  0  0  0  3  0  0  0  0  0  0
  -25.7480  -33.7290   24.6220 N   0  0  0  0  0  0  0  0  0  0  0  0
  -26.1100  -34.8520   23.9870 C   0  0  0  0  0  0  0  0  0  0  0  0
  -26.7600  -34.8470   22.9380 O   0  0  0  0  0  0  0  0  0  0  0  0
  -25.1790  -33.8070   25.4520 H   0  0  0  0  0  0  0  0  0  0  0  0
  -24.4510  -36.7360   23.8800 C   0  0  0  0  0  1  0  0  0  0  0  0
  -25.6860  -36.1930   24.6170 C   0  0  0  0  0  3  0  0  0  0  0  0
  -27.8660  -36.8880   25.5030 C   0  0  0  0  0  1  0  0  0  0  0  0
  -26.7570  -37.2130   24.6110 N   0  0  0  0  0  0  0  0  0  0  0  0
  -26.3900  -38.1230   24.8790 H   0  0  0  0  0  0  0  0  0  0  0  0
  -26.5250  -31.4410   25.2800 C   0  0  1  0  0  0  0  0  0  0  0  0
  -25.4650  -31.1210   26.3600 C   0  0  0  0  0  1  0  0  0  0  0  0
  -27.0360  -30.0970   24.7090 C   0  0  0  0  0  1  0  0  0  0  0  0
  -27.7250  -32.1160   25.9840 C   0  0  0  0  0  1  0  0  0  0  0  0
  2  1  1  0
  2 51  1  0
  2 12  1  0
  3 18  1  0
  4  9  1  0
  5  6  1  0
  5  4  1  0
  7  6  1  0
  7 23  1  0
  7  8  1  0
  9  3  1  0
  9  8  1  0
 10  3  2  0
 11 12  2  0
 11 15  1  0
 12 13  1  0
 13 16  1  0
 13 14  2  0
 14 50  1  0
 15 17  2  0
 17 14  1  0
 18 19  1  0
 18 15  1  0
 20 21  2  0
 21 22  1  0
 21 40  1  0
 22 25  1  0
 23 20  1  0
 23 24  1  0
 24 22  2  0
 25 26  1  0
 26 27  2  0
 28 31  1  0
 28 27  1  0
 29 28  2  0
 30 29  1  0
 30 25  2  0
 31 32  1  0
 32 33  1  0
 33 34  2  0
 35 34  1  0
 35 39  1  0
 36 35  2  0
 37 32  2  0
 37 36  1  0
 38 37  1  0
 40 41  1  0
 41 44  1  0
 41 43  1  0
 42 40  2  0
 45 46  1  0
 45 20  1  0
 47 45  1  0
 50 48  1  0
 50 49  1  0
 52 53  1  0
 53 55  1  0
 53 54  1  1
 53 51  1  0
 55 56  1  0
 57 59  1  0
 57 56  1  0
 58 69  2  0
 59 64  1  0
 60 68  1  0
 60 70  1  0
 61 67  1  0
 61 63  1  0
 62 68  1  0
 63 62  1  0
 64 63  2  0
 65 66  1  0
 65 59  2  0
 66 61  2  0
 67 60  1  0
 68 58  1  0
 70 72  2  0
 71 70  1  0
 73 71  1  0
 74 83  2  0
 74 79  1  0
 75 71  1  0
 75 79  1  0
 76 75  1  0
 77 78  1  0
 77 76  1  0
 78 74  1  0
 79 80  2  0
 80 81  1  0
 82 81  2  0
 83 82  1  0
 84 58  1  0
 84 85  1  0
 84 94  1  0
 85 88  1  0
 86 90  1  0
 86 85  1  0
 87 86  2  0
 90 89  1  0
 92 90  1  0
 92 93  1  0
 92 91  1  0
 94 97  1  1
 94 95  1  0
 96 94  1  0
M  ISO  4   3 100  18 100  56 101  57 101
M  END
>  <TORSDO>  (30) 
F 21

>  <SCORE>  (30) 
-8.153

>  <name>  (30) 
29

>  <ligand_id>  (30) 
29

>  <original_smiles>  (30) 
[H]c1c([H])c([H])c2c(c1[H])C([H])([H])C([H])([H])C([H])([H])C2([H])N([H])C(=O)C1([H])N(C(=O)C([H])(N([H])C(=O)C([H])(N([H])C([H])([H])[H])C([H])([H])[H])C(C([H])([H])[H])(C([H])([H])[H])C([H])([H])[H])C([H])([H])c2c([H])c(OC([H])([H])C([H])([H])[N+]([H])(C([H])([H])[H])C([H])([H])C([H])(c3c([H])c(N([H])C(=O)N4C([H])([H])C([H])([H])C([H])([H])C([H])(n5nc(-c6c([H])c([H])c(Oc7c([H])c([H])c(F)c([H])c7F)c([H])c6[H])c(C(=O)N([H])[H])c5N([H])[H])C4([H])[H])nc(C([H])(C([H])([H])[H])C([H])([H])[H])c3C([H])([H])[H])C([H])([H])[H])c([H])c([H])c2C1([H])[H]

>  <smiles>  (30) 
[H]c1c([H])c([H])c2c(c1[H])C([H])([H])C([H])([H])C([H])([H])C2([H])N([H])C(=O)C1([H])N(C(=O)C([H])(N([H])C(=O)C([H])(N([H])C([H])([H])[H])C([H])([H])[H])C(C([H])([H])[H])(C([H])([H])[H])C([H])([H])[H])C([H])([H])c2c([H])c(OC([H])([H])C([H])([H])[N+]([H])(C([H])([H])[H])C([H])([H])C([H])(c3c([H])c(N([H])C(=O)N4C([H])([H])C([H])([H])C([H])([H])C([H])(n5nc(-c6c([H])c([H])c(Oc7c([H])c([H])c(F)c([H])c7F)c([H])c6[H])c(C(=O)N([H])[H])c5N([H])[H])C4([H])[H])nc(C([H])(C([H])([H])[H])C([H])([H])[H])c3C([H])([H])[H])C([H])([H])[H])c([H])c([H])c2C1([H])[H]

$$$$
30:0:0
     RDKit          3D

 96104  0  0  1  0  0  0  0  0999 V2000
  -29.0180  -23.7190   19.3980 C   0  0  0  0  0  3  0  0  0  0  0  0
  -29.5510  -22.4350   19.1240 C   0  0  0  0  0  0  0  0  0  0  0  0
  -30.1050  -21.6670   20.1880 C   0  0  0  0  0  0  0  0  0  0  0  0
  -29.0470  -24.2220   20.7130 C   0  0  0  0  0  0  0  0  0  0  0  0
  -30.1100  -22.2750   21.4730 C   0  0  0  0  0  0  0  0  0  0  0  0
  -29.5120  -21.9160   17.6960 C   0  0  0  0  0  1  0  0  0  0  0  0
  -30.6900  -21.5810   22.6930 C   0  0  0  0  0  1  0  0  0  0  0  0
  -29.5930  -23.5000   21.7200 N   0  0  0  0  0  0  0  0  0  0  0  0
  -30.7220  -20.2590   19.9530 C   0  0  0  0  0  2  0  0  0  0  0  0
  -29.7560  -19.1390   20.1390 N   0  0  0  0  0  4  0  0  0  0  0  0
  -28.9690  -19.3270   19.5390 H   0  0  0  0  0  0  0  0  0  0  0  0
  -29.4050  -19.1300   21.0820 H   0  0  0  0  0  0  0  0  0  0  0  0
  -30.2040  -17.7520   19.8070 C   0  0  0  0  0  2  0  0  0  0  0  0
  -32.0350  -17.1280   21.4960 C   0  0  0  0  0  1  0  0  0  0  0  0
  -29.6450  -17.1960   22.2380 C   0  0  0  0  0  1  0  0  0  0  0  0
  -30.5780  -16.8720   21.0510 C   0  0  1  0  0  0  0  0  0  0  0  0
  -31.0450  -14.4750   20.1120 C   0  0  0  0  0  0  0  0  0  0  0  0
  -30.6980  -12.3200   18.9430 C   0  0  0  0  0  2  0  0  0  0  0  0
  -29.7250  -12.5380   17.7640 C   0  0  0  0  0  2  0  0  0  0  0  0
  -28.2570  -12.4370   18.2280 C   0  0  0  0  0  2  0  0  0  0  0  0
  -27.9720  -13.2790   19.5000 C   0  0  0  0  0  3  0  0  0  0  0  0
  -29.0440  -13.0100   20.5780 C   0  0  0  0  0  2  0  0  0  0  0  0
  -30.3650  -13.3010   19.9860 N   0  0  0  0  0  0  0  0  0  0  0  0
  -32.1350  -14.6860   19.5730 O   0  0  0  0  0  0  0  0  0  0  0  0
  -30.3640  -15.4290   20.7810 N   0  0  0  0  0  0  0  0  0  0  0  0
  -29.4860  -15.0760   21.1320 H   0  0  0  0  0  0  0  0  0  0  0  0
  -25.6090  -13.9660   20.2580 C   0  0  0  0  0  0  0  0  0  0  0  0
  -24.5260  -13.2280   20.6550 C   0  0  0  0  0  0  0  0  0  0  0  0
  -24.9430  -11.8630   20.6180 C   0  0  0  0  0  0  0  0  0  0  0  0
  -26.6210  -13.0510   20.0080 N   0  0  0  0  0  0  0  0  0  0  0  0
  -26.2240  -11.7820   20.2790 N   0  0  0  0  0  0  0  0  0  0  0  0
  -24.1830  -10.6250   20.8310 C   0  0  0  0  0  0  0  0  0  0  0  0
  -24.5730   -9.6770   21.8020 C   0  0  0  0  0  3  0  0  0  0  0  0
  -23.8160   -8.5020   22.0000 C   0  0  0  0  0  3  0  0  0  0  0  0
  -22.6540   -8.2670   21.2250 C   0  0  0  0  0  0  0  0  0  0  0  0
  -22.2850   -9.2040   20.2430 C   0  0  0  0  0  3  0  0  0  0  0  0
  -23.0430  -10.3690   20.0430 C   0  0  0  0  0  3  0  0  0  0  0  0
  -21.8730   -7.1430   21.3300 O   0  0  0  0  0  0  0  0  0  0  0  0
  -21.7320   -6.4720   22.5170 C   0  0  0  0  0  0  0  0  0  0  0  0
  -21.2420   -7.1080   23.6800 C   0  0  0  0  0  3  0  0  0  0  0  0
  -21.0470   -6.3640   24.8600 C   0  0  0  0  0  3  0  0  0  0  0  0
  -21.3330   -4.9860   24.8800 C   0  0  0  0  0  0  0  0  0  0  0  0
  -21.8130   -4.3490   23.7240 C   0  0  0  0  0  3  0  0  0  0  0  0
  -22.0100   -5.0900   22.5450 C   0  0  0  0  0  0  0  0  0  0  0  0
  -22.4550   -4.4680   21.4250 F   0  0  0  0  0  0  0  0  0  0  0  0
  -21.1380   -4.2690   26.0120 F   0  0  0  0  0  0  0  0  0  0  0  0
  -23.1500  -13.7510   20.9590 C   0  0  0  0  0  0  0  0  0  0  0  0
  -22.4260  -13.0870   21.8540 N   0  0  0  0  0  0  0  0  0  0  0  0
  -22.7270  -14.7820   20.4380 O   0  0  0  0  0  0  0  0  0  0  0  0
  -22.7830  -12.2530   22.2970 H   0  0  0  0  0  0  0  0  0  0  0  0
  -21.5040  -13.4180   22.0990 H   0  0  0  0  0  0  0  0  0  0  0  0
  -25.8140  -15.3300   20.0710 N   0  0  0  0  0  0  0  0  0  0  0  0
  -25.0700  -16.0080   20.1870 H   0  0  0  0  0  0  0  0  0  0  0  0
  -26.6620  -15.7340   19.6960 H   0  0  0  0  0  0  0  0  0  0  0  0
  -28.3680  -25.5440   21.1210 C   0  0  0  0  0  2  0  0  0  0  0  0
  -28.4340  -26.6290   20.1740 O   0  0  0  0  0  0  0  0  0  0  0  0
  -24.6100  -31.8310   23.2520 C   0  0  0  0  0  0  0  0  0  0  0  0
  -27.2930  -27.4060   20.1700 C   0  0  0  0  0  0  0  0  0  0  0  0
  -23.4210  -30.4330   21.5910 C   0  0  0  0  0  3  0  0  0  0  0  0
  -24.8940  -28.9060   20.1700 C   0  0  0  0  0  0  0  0  0  0  0  0
  -25.9470  -30.8000   21.4170 C   0  0  0  0  0  2  0  0  0  0  0  0
  -26.0470  -29.4300   20.7720 C   0  0  0  0  0  0  0  0  0  0  0  0
  -27.2520  -28.6870   20.7710 C   0  0  0  0  0  3  0  0  0  0  0  0
  -26.1290  -26.8990   19.5610 C   0  0  0  0  0  3  0  0  0  0  0  0
  -24.9300  -27.6390   19.5610 C   0  0  0  0  0  3  0  0  0  0  0  0
  -23.6450  -29.7590   20.2110 C   0  0  0  0  0  2  0  0  0  0  0  0
  -24.6760  -31.0360   22.1460 N   0  0  0  0  0  0  0  0  0  0  0  0
  -23.5230  -32.0980   23.7840 O   0  0  0  0  0  0  0  0  0  0  0  0
  -22.7640  -29.4070   22.5440 C   0  0  0  0  0  0  0  0  0  0  0  0
  -21.4420  -29.2190   22.4020 N   0  0  0  0  0  0  0  0  0  0  0  0
  -23.4400  -28.7840   23.3670 O   0  0  0  0  0  0  0  0  0  0  0  0
  -20.9560  -29.7740   21.7110 H   0  0  0  0  0  0  0  0  0  0  0  0
  -18.0760  -27.9740   22.8280 C   0  0  0  0  0  0  0  0  0  0  0  0
  -20.6220  -28.2750   23.1610 C   0  0  0  0  0  3  0  0  0  0  0  0
  -20.7620  -26.8420   22.5990 C   0  0  0  0  0  2  0  0  0  0  0  0
  -19.6900  -26.4920   21.5610 C   0  0  0  0  0  2  0  0  0  0  0  0
  -18.2900  -26.6210   22.1700 C   0  0  0  0  0  2  0  0  0  0  0  0
  -19.1710  -28.7560   23.2780 C   0  0  0  0  0  0  0  0  0  0  0  0
  -18.9200  -30.0210   23.8550 C   0  0  0  0  0  3  0  0  0  0  0  0
  -17.6050  -30.5050   23.9830 C   0  0  0  0  0  3  0  0  0  0  0  0
  -16.5220  -29.7200   23.5500 C   0  0  0  0  0  3  0  0  0  0  0  0
  -16.7580  -28.4560   22.9790 C   0  0  0  0  0  3  0  0  0  0  0  0
  -25.8890  -32.4610   23.8840 C   0  0  0  0  0  3  0  0  0  0  0  0
  -25.5790  -33.8610   24.2070 N   0  0  0  0  0  0  0  0  0  0  0  0
  -25.9180  -34.9100   23.4460 C   0  0  0  0  0  0  0  0  0  0  0  0
  -26.5960  -34.8020   22.4200 O   0  0  0  0  0  0  0  0  0  0  0  0
  -24.9790  -34.0180   25.0040 H   0  0  0  0  0  0  0  0  0  0  0  0
  -24.1890  -36.6990   23.0750 C   0  0  0  0  0  1  0  0  0  0  0  0
  -25.4270  -36.3000   23.8940 C   0  0  0  0  0  3  0  0  0  0  0  0
  -27.5570  -37.1910   24.7300 C   0  0  0  0  0  1  0  0  0  0  0  0
  -26.4580  -37.3540   23.7810 N   0  0  0  0  0  0  0  0  0  0  0  0
  -26.0500  -38.2740   23.9230 H   0  0  0  0  0  0  0  0  0  0  0  0
  -26.3960  -31.6920   25.1650 C   0  0  1  0  0  0  0  0  0  0  0  0
  -25.2930  -31.4540   26.2230 C   0  0  0  0  0  1  0  0  0  0  0  0
  -26.9830  -30.3150   24.7770 C   0  0  0  0  0  1  0  0  0  0  0  0
  -27.5390  -32.4860   25.8380 C   0  0  0  0  0  1  0  0  0  0  0  0
  1  4  1  0
  2  1  2  0
  2  3  1  0
  3  5  2  0
  4 55  1  0
  4  8  2  0
  5  8  1  0
  5  7  1  0
  6  2  1  0
  9 10  1  0
  9  3  1  0
 10 12  1  0
 11 10  1  0
 13 10  1  0
 13 16  1  0
 16 14  1  1
 16 15  1  0
 17 25  1  0
 18 23  1  0
 19 20  1  0
 19 18  1  0
 21 20  1  0
 21 30  1  0
 21 22  1  0
 23 17  1  0
 23 22  1  0
 24 17  2  0
 25 16  1  0
 25 26  1  0
 27 28  2  0
 28 47  1  0
 29 28  1  0
 29 32  1  0
 30 27  1  0
 30 31  1  0
 31 29  2  0
 32 33  1  0
 33 34  2  0
 35 38  1  0
 35 34  1  0
 36 35  2  0
 37 36  1  0
 37 32  2  0
 38 39  1  0
 39 44  2  0
 39 40  1  0
 40 41  2  0
 41 42  1  0
 42 46  1  0
 43 42  2  0
 44 43  1  0
 45 44  1  0
 47 48  1  0
 48 51  1  0
 48 50  1  0
 49 47  2  0
 52 53  1  0
 52 27  1  0
 54 52  1  0
 56 55  1  0
 57 68  2  0
 58 56  1  0
 58 63  1  0
 59 67  1  0
 59 69  1  0
 60 66  1  0
 60 62  1  0
 61 67  1  0
 62 61  1  0
 63 62  2  0
 64 58  2  0
 65 64  1  0
 65 60  2  0
 66 59  1  0
 67 57  1  0
 69 71  2  0
 70 69  1  0
 72 70  1  0
 73 82  2  0
 73 78  1  0
 74 70  1  0
 74 78  1  0
 75 74  1  0
 76 77  1  0
 76 75  1  0
 77 73  1  0
 78 79  2  0
 79 80  1  0
 81 80  2  0
 82 81  1  0
 83 57  1  0
 83 84  1  0
 83 93  1  0
 84 87  1  0
 85 89  1  0
 85 84  1  0
 86 85  2  0
 89 88  1  0
 91 89  1  0
 91 92  1  0
 91 90  1  0
 93 96  1  1
 93 94  1  0
 95 93  1  0
M  ISO  4  17 100  25 100  55 101  56 101
M  END
>  <TORSDO>  (31) 
F 21

>  <SCORE>  (31) 
-12.398

>  <name>  (31) 
30

>  <ligand_id>  (31) 
30

>  <original_smiles>  (31) 
[H]c1c([H])c([H])c2c(c1[H])C([H])([H])C([H])([H])C([H])([H])C2([H])N([H])C(=O)C1([H])N(C(=O)C([H])(N([H])C(=O)C([H])(N([H])C([H])([H])[H])C([H])([H])[H])C(C([H])([H])[H])(C([H])([H])[H])C([H])([H])[H])C([H])([H])c2c([H])c(OC([H])([H])c3nc(C([H])([H])[H])c(C([H])([H])[N+]([H])([H])C([H])([H])C(N([H])C(=O)N4C([H])([H])C([H])([H])C([H])([H])C([H])(n5nc(-c6c([H])c([H])c(Oc7c([H])c([H])c(F)c([H])c7F)c([H])c6[H])c(C(=O)N([H])[H])c5N([H])[H])C4([H])[H])(C([H])([H])[H])C([H])([H])[H])c(C([H])([H])[H])c3[H])c([H])c([H])c2C1([H])[H]

>  <smiles>  (31) 
[H]c1c([H])c([H])c2c(c1[H])C([H])([H])C([H])([H])C([H])([H])C2([H])N([H])C(=O)C1([H])N(C(=O)C([H])(N([H])C(=O)C([H])(N([H])C([H])([H])[H])C([H])([H])[H])C(C([H])([H])[H])(C([H])([H])[H])C([H])([H])[H])C([H])([H])c2c([H])c(OC([H])([H])c3nc(C([H])([H])[H])c(C([H])([H])[N+]([H])([H])C([H])([H])C(N([H])C(=O)N4C([H])([H])C([H])([H])C([H])([H])C([H])(n5nc(-c6c([H])c([H])c(Oc7c([H])c([H])c(F)c([H])c7F)c([H])c6[H])c(C(=O)N([H])[H])c5N([H])[H])C4([H])[H])(C([H])([H])[H])C([H])([H])[H])c(C([H])([H])[H])c3[H])c([H])c([H])c2C1([H])[H]

$$$$
31:0:0
     RDKit          3D

 91 99  0  0  1  0  0  0  0  0999 V2000
  -29.9020  -22.8800   20.9360 C   0  0  0  0  0  3  0  0  0  0  0  0
  -28.6690  -23.1470   20.2610 C   0  0  0  0  0  0  0  0  0  0  0  0
  -30.1990  -21.5180   21.0250 C   0  0  0  0  0  0  0  0  0  0  0  0
  -28.2980  -21.7980   19.9580 C   0  0  0  0  0  0  0  0  0  0  0  0
  -27.0470  -21.3750   19.2530 C   0  0  0  0  0  1  0  0  0  0  0  0
  -29.2070  -20.7370   20.4000 N   0  0  0  0  0  0  0  0  0  0  0  0
  -31.2480  -21.0670   23.2600 C   0  0  0  0  0  1  0  0  0  0  0  0
  -32.7060  -21.5410   21.2550 C   0  0  0  0  0  1  0  0  0  0  0  0
  -31.3840  -20.9240   21.7340 C   0  0  0  0  0  3  0  0  0  0  0  0
  -27.8690  -24.5960   19.9450 C   0  0  0  0  0  2  0  0  0  0  0  0
  -28.2320  -26.0980   20.2570 O   0  0  0  0  0  0  0  0  0  0  0  0
  -24.6510  -31.8650   23.2510 C   0  0  0  0  0  0  0  0  0  0  0  0
  -27.2130  -27.1360   20.1770 C   0  0  0  0  0  0  0  0  0  0  0  0
  -23.4530  -30.4880   21.5970 C   0  0  0  0  0  3  0  0  0  0  0  0
  -24.9010  -28.9250   20.1560 C   0  0  0  0  0  0  0  0  0  0  0  0
  -26.0120  -30.7360   21.4470 C   0  0  0  0  0  2  0  0  0  0  0  0
  -26.0820  -29.3460   20.7780 C   0  0  0  0  0  0  0  0  0  0  0  0
  -27.2380  -28.4670   20.7760 C   0  0  0  0  0  3  0  0  0  0  0  0
  -26.0070  -26.8400   19.5000 C   0  0  0  0  0  3  0  0  0  0  0  0
  -24.8780  -27.6860   19.5020 C   0  0  0  0  0  3  0  0  0  0  0  0
  -23.6800  -29.8320   20.2110 C   0  0  0  0  0  2  0  0  0  0  0  0
  -24.7250  -31.0510   22.1540 N   0  0  0  0  0  0  0  0  0  0  0  0
  -23.5640  -32.1450   23.7790 O   0  0  0  0  0  0  0  0  0  0  0  0
  -22.7680  -29.4720   22.5470 C   0  0  0  0  0  0  0  0  0  0  0  0
  -21.4390  -29.3060   22.4170 N   0  0  0  0  0  0  0  0  0  0  0  0
  -23.4340  -28.8370   23.3680 O   0  0  0  0  0  0  0  0  0  0  0  0
  -20.9550  -29.8670   21.7290 H   0  0  0  0  0  0  0  0  0  0  0  0
  -18.0560  -28.1060   22.9110 C   0  0  0  0  0  0  0  0  0  0  0  0
  -20.6150  -28.3640   23.1800 C   0  0  0  0  0  3  0  0  0  0  0  0
  -20.7140  -26.9360   22.5930 C   0  0  0  0  0  2  0  0  0  0  0  0
  -19.6130  -26.6230   21.5750 C   0  0  0  0  0  2  0  0  0  0  0  0
  -18.2310  -26.7640   22.2200 C   0  0  0  0  0  2  0  0  0  0  0  0
  -19.1750  -28.8630   23.3480 C   0  0  0  0  0  0  0  0  0  0  0  0
  -18.9550  -30.1170   23.9580 C   0  0  0  0  0  3  0  0  0  0  0  0
  -17.6500  -30.6180   24.1290 C   0  0  0  0  0  3  0  0  0  0  0  0
  -16.5460  -29.8580   23.7060 C   0  0  0  0  0  3  0  0  0  0  0  0
  -16.7500  -28.6020   23.1040 C   0  0  0  0  0  3  0  0  0  0  0  0
  -25.9270  -32.4940   23.8880 C   0  0  0  0  0  3  0  0  0  0  0  0
  -26.4240  -31.7250   25.1740 C   0  0  1  0  0  0  0  0  0  0  0  0
  -25.3140  -31.4940   26.2280 C   0  0  0  0  0  1  0  0  0  0  0  0
  -27.0020  -30.3440   24.7960 C   0  0  0  0  0  1  0  0  0  0  0  0
  -27.5770  -32.5100   25.8450 C   0  0  0  0  0  1  0  0  0  0  0  0
  -25.6200  -33.8950   24.2170 N   0  0  0  0  0  0  0  0  0  0  0  0
  -25.9290  -34.9470   23.4480 C   0  0  0  0  0  0  0  0  0  0  0  0
  -26.5660  -34.8390   22.3970 O   0  0  0  0  0  0  0  0  0  0  0  0
  -25.0520  -34.0510   25.0370 H   0  0  0  0  0  0  0  0  0  0  0  0
  -24.1720  -36.7260   23.1660 C   0  0  0  0  0  1  0  0  0  0  0  0
  -25.4570  -36.3380   23.9170 C   0  0  0  0  0  3  0  0  0  0  0  0
  -27.6210  -37.2510   24.6330 C   0  0  0  0  0  1  0  0  0  0  0  0
  -26.4740  -37.3970   23.7400 N   0  0  0  0  0  0  0  0  0  0  0  0
  -26.0700  -38.3160   23.8930 H   0  0  0  0  0  0  0  0  0  0  0  0
  -29.0040  -19.1280   20.2910 C   0  0  0  0  0  3  0  0  0  0  0  0
  -30.1040  -17.8190   20.4400 C   0  0  0  0  0  3  0  0  0  0  0  0
  -30.5020  -15.0450   20.2790 C   0  0  0  0  0  0  0  0  0  0  0  0
  -30.3770  -12.6680   19.3640 C   0  0  0  0  0  2  0  0  0  0  0  0
  -29.4420  -12.5870   18.1360 C   0  0  0  0  0  2  0  0  0  0  0  0
  -27.9820  -12.3720   18.5790 C   0  0  0  0  0  2  0  0  0  0  0  0
  -27.5740  -13.3160   19.7400 C   0  0  0  0  0  3  0  0  0  0  0  0
  -28.6370  -13.3650   20.8590 C   0  0  0  0  0  2  0  0  0  0  0  0
  -29.8960  -13.7830   20.2340 N   0  0  0  0  0  0  0  0  0  0  0  0
  -31.7070  -15.0880   20.0150 O   0  0  0  0  0  0  0  0  0  0  0  0
  -29.7390  -16.2530   20.4190 N   0  0  0  0  0  0  0  0  0  0  0  0
  -28.7550  -16.0660   20.5410 H   0  0  0  0  0  0  0  0  0  0  0  0
  -25.2060  -13.8960   20.5170 C   0  0  0  0  0  0  0  0  0  0  0  0
  -24.1430  -13.1210   20.8920 C   0  0  0  0  0  0  0  0  0  0  0  0
  -24.6020  -11.7680   20.8440 C   0  0  0  0  0  0  0  0  0  0  0  0
  -26.2430  -13.0150   20.2530 N   0  0  0  0  0  0  0  0  0  0  0  0
  -25.8900  -11.7310   20.5190 N   0  0  0  0  0  0  0  0  0  0  0  0
  -23.8690  -10.5080   21.0240 C   0  0  0  0  0  0  0  0  0  0  0  0
  -24.2920   -9.5360   21.9570 C   0  0  0  0  0  3  0  0  0  0  0  0
  -23.5560   -8.3420   22.1300 C   0  0  0  0  0  3  0  0  0  0  0  0
  -22.3860   -8.1120   21.3680 C   0  0  0  0  0  0  0  0  0  0  0  0
  -21.9840   -9.0720   20.4240 C   0  0  0  0  0  3  0  0  0  0  0  0
  -22.7190  -10.2570   20.2500 C   0  0  0  0  0  3  0  0  0  0  0  0
  -21.6240   -6.9720   21.4500 O   0  0  0  0  0  0  0  0  0  0  0  0
  -21.5470   -6.2370   22.6060 C   0  0  0  0  0  0  0  0  0  0  0  0
  -21.0790   -6.7960   23.8150 C   0  0  0  0  0  3  0  0  0  0  0  0
  -20.9520   -5.9860   24.9630 C   0  0  0  0  0  3  0  0  0  0  0  0
  -21.2830   -4.6200   24.9010 C   0  0  0  0  0  0  0  0  0  0  0  0
  -21.7430   -4.0600   23.6970 C   0  0  0  0  0  3  0  0  0  0  0  0
  -21.8730   -4.8670   22.5520 C   0  0  0  0  0  0  0  0  0  0  0  0
  -22.2980   -4.3180   21.3880 F   0  0  0  0  0  0  0  0  0  0  0  0
  -21.1550   -3.8410   26.0000 F   0  0  0  0  0  0  0  0  0  0  0  0
  -22.7520  -13.6020   21.1800 C   0  0  0  0  0  0  0  0  0  0  0  0
  -22.0240  -12.9010   22.0430 N   0  0  0  0  0  0  0  0  0  0  0  0
  -22.3160  -14.6350   20.6730 O   0  0  0  0  0  0  0  0  0  0  0  0
  -22.3900  -12.0680   22.4790 H   0  0  0  0  0  0  0  0  0  0  0  0
  -21.0890  -13.2040   22.2740 H   0  0  0  0  0  0  0  0  0  0  0  0
  -25.3720  -15.2680   20.3530 N   0  0  0  0  0  0  0  0  0  0  0  0
  -24.6000  -15.9150   20.4760 H   0  0  0  0  0  0  0  0  0  0  0  0
  -26.2030  -15.7080   19.9800 H   0  0  0  0  0  0  0  0  0  0  0  0
  1  3  2  0
  2  1  1  0
  3  9  1  0
  4  2  2  0
  4  6  1  0
  5  4  1  0
  6  3  1  0
  8  9  1  0
  9  7  1  0
 10 11  1  0
 10  2  1  0
 12 23  2  0
 13 11  1  0
 13 18  1  0
 14 22  1  0
 14 24  1  0
 15 21  1  0
 15 17  1  0
 16 22  1  0
 17 16  1  0
 18 17  2  0
 19 20  1  0
 19 13  2  0
 20 15  2  0
 21 14  1  0
 22 12  1  0
 24 26  2  0
 25 24  1  0
 27 25  1  0
 28 37  2  0
 28 33  1  0
 29 25  1  0
 29 33  1  0
 30 29  1  0
 31 32  1  0
 31 30  1  0
 32 28  1  0
 33 34  2  0
 34 35  1  0
 36 35  2  0
 37 36  1  0
 38 12  1  0
 38 43  1  0
 38 39  1  0
 39 42  1  1
 39 40  1  0
 41 39  1  0
 43 46  1  0
 44 48  1  0
 44 43  1  0
 45 44  2  0
 48 47  1  0
 50 51  1  0
 50 48  1  0
 50 49  1  0
 52  6  1  0
 52 53  2  0
 54 62  1  0
 55 60  1  0
 56 57  1  0
 56 55  1  0
 58 57  1  0
 58 67  1  0
 58 59  1  0
 60 54  1  0
 60 59  1  0
 61 54  2  0
 62 53  1  0
 62 63  1  0
 64 65  2  0
 65 84  1  0
 66 65  1  0
 66 69  1  0
 67 64  1  0
 67 68  1  0
 68 66  2  0
 69 70  1  0
 70 71  2  0
 72 75  1  0
 72 71  1  0
 73 72  2  0
 74 73  1  0
 74 69  2  0
 75 76  1  0
 76 77  1  0
 77 78  2  0
 79 78  1  0
 79 83  1  0
 80 79  2  0
 81 76  2  0
 81 80  1  0
 82 81  1  0
 84 85  1  0
 85 88  1  0
 85 87  1  0
 86 84  2  0
 89 90  1  0
 89 64  1  0
 91 89  1  0
M  ISO  4  10 101  11 101  54 100  62 100
M  END
>  <TORSDO>  (32) 
F 20

>  <SCORE>  (32) 
-14.699

>  <name>  (32) 
31

>  <ligand_id>  (32) 
31

>  <original_smiles>  (32) 
[H]c1c([H])c([H])c2c(c1[H])C([H])([H])C([H])([H])C([H])([H])C2([H])N([H])C(=O)C1([H])N(C(=O)C([H])(N([H])C(=O)C([H])(N([H])C([H])([H])[H])C([H])([H])[H])C(C([H])([H])[H])(C([H])([H])[H])C([H])([H])[H])C([H])([H])c2c([H])c(OC([H])([H])c3c([H])c(C([H])(C([H])([H])[H])C([H])([H])[H])n(C([H])([H])C([H])([H])N([H])C(=O)N4C([H])([H])C([H])([H])C([H])([H])C([H])(n5nc(-c6c([H])c([H])c(Oc7c([H])c([H])c(F)c([H])c7F)c([H])c6[H])c(C(=O)N([H])[H])c5N([H])[H])C4([H])[H])c3C([H])([H])[H])c([H])c([H])c2C1([H])[H]

>  <smiles>  (32) 
[H]c1c([H])c([H])c2c(c1[H])C([H])([H])C([H])([H])C([H])([H])C2([H])N([H])C(=O)C1([H])N(C(=O)C([H])(N([H])C(=O)C([H])(N([H])C([H])([H])[H])C([H])([H])[H])C(C([H])([H])[H])(C([H])([H])[H])C([H])([H])[H])C([H])([H])c2c([H])c(OC([H])([H])c3c([H])c(C([H])(C([H])([H])[H])C([H])([H])[H])n(C([H])([H])C([H])([H])N([H])C(=O)N4C([H])([H])C([H])([H])C([H])([H])C([H])(n5nc(-c6c([H])c([H])c(Oc7c([H])c([H])c(F)c([H])c7F)c([H])c6[H])c(C(=O)N([H])[H])c5N([H])[H])C4([H])[H])c3C([H])([H])[H])c([H])c([H])c2C1([H])[H]

$$$$
32:0:0
     RDKit          3D

 93101  0  0  1  0  0  0  0  0999 V2000
  -29.1830  -21.5210   19.0390 C   0  0  0  0  0  2  0  0  0  0  0  0
  -30.8000  -19.5340   19.4010 C   0  0  0  0  0  3  0  0  0  0  0  0
  -31.0850  -18.1750   19.7020 C   0  0  0  0  0  0  0  0  0  0  0  0
  -30.0330  -17.2990   20.1250 C   0  0  0  0  0  0  0  0  0  0  0  0
  -29.5000  -20.0640   19.5140 C   0  0  0  0  0  0  0  0  0  0  0  0
  -28.7510  -17.9410   20.2200 C   0  0  0  0  0  0  0  0  0  0  0  0
  -32.5380  -17.7620   19.5730 C   0  0  0  0  0  1  0  0  0  0  0  0
  -27.5200  -17.2130   20.7310 C   0  0  0  0  0  1  0  0  0  0  0  0
  -28.4990  -19.2530   19.9270 N   0  0  0  0  0  0  0  0  0  0  0  0
  -31.1270  -15.8250   21.8880 C   0  0  0  0  0  1  0  0  0  0  0  0
  -30.2110  -15.7970   20.6530 C   0  0  0  0  0  3  0  0  0  0  0  0
  -30.6580  -14.5690   19.7350 C   0  0  0  0  0  0  0  0  0  0  0  0
  -30.2380  -12.4170   18.5430 C   0  0  0  0  0  2  0  0  0  0  0  0
  -29.1810  -12.6210   17.4400 C   0  0  0  0  0  2  0  0  0  0  0  0
  -27.7590  -12.4540   18.0110 C   0  0  0  0  0  2  0  0  0  0  0  0
  -27.5480  -13.2520   19.3270 C   0  0  0  0  0  3  0  0  0  0  0  0
  -28.7130  -13.0150   20.3120 C   0  0  0  0  0  2  0  0  0  0  0  0
  -29.9570  -13.3900   19.6220 N   0  0  0  0  0  0  0  0  0  0  0  0
  -31.7230  -14.6700   19.1270 O   0  0  0  0  0  0  0  0  0  0  0  0
  -25.2350  -13.8270   20.2850 C   0  0  0  0  0  0  0  0  0  0  0  0
  -24.2080  -13.0440   20.7400 C   0  0  0  0  0  0  0  0  0  0  0  0
  -24.6590  -11.6950   20.6190 C   0  0  0  0  0  0  0  0  0  0  0  0
  -26.2510  -12.9540   19.9290 N   0  0  0  0  0  0  0  0  0  0  0  0
  -25.9140  -11.6640   20.1850 N   0  0  0  0  0  0  0  0  0  0  0  0
  -23.9480  -10.4290   20.8380 C   0  0  0  0  0  0  0  0  0  0  0  0
  -24.3860   -9.4910   21.7980 C   0  0  0  0  0  3  0  0  0  0  0  0
  -23.6730   -8.2900   22.0030 C   0  0  0  0  0  3  0  0  0  0  0  0
  -22.5080   -8.0180   21.2490 C   0  0  0  0  0  0  0  0  0  0  0  0
  -22.0880   -8.9440   20.2770 C   0  0  0  0  0  3  0  0  0  0  0  0
  -22.8020  -10.1360   20.0690 C   0  0  0  0  0  3  0  0  0  0  0  0
  -21.7690   -6.8650   21.3610 O   0  0  0  0  0  0  0  0  0  0  0  0
  -21.6280   -6.2130   22.5600 C   0  0  0  0  0  0  0  0  0  0  0  0
  -21.0690   -6.8470   23.6910 C   0  0  0  0  0  3  0  0  0  0  0  0
  -20.8800   -6.1220   24.8840 C   0  0  0  0  0  3  0  0  0  0  0  0
  -21.2370   -4.7610   24.9460 C   0  0  0  0  0  0  0  0  0  0  0  0
  -21.7870   -4.1260   23.8190 C   0  0  0  0  0  3  0  0  0  0  0  0
  -21.9780   -4.8500   22.6280 C   0  0  0  0  0  0  0  0  0  0  0  0
  -22.4900   -4.2270   21.5390 F   0  0  0  0  0  0  0  0  0  0  0  0
  -21.0470   -4.0630   26.0890 F   0  0  0  0  0  0  0  0  0  0  0  0
  -22.8480  -13.5160   21.1630 C   0  0  0  0  0  0  0  0  0  0  0  0
  -22.2110  -12.8000   22.0830 N   0  0  0  0  0  0  0  0  0  0  0  0
  -22.3620  -14.5530   20.7130 O   0  0  0  0  0  0  0  0  0  0  0  0
  -22.6180  -11.9600   22.4650 H   0  0  0  0  0  0  0  0  0  0  0  0
  -21.3010  -13.0960   22.4070 H   0  0  0  0  0  0  0  0  0  0  0  0
  -25.3790  -15.1990   20.1220 N   0  0  0  0  0  0  0  0  0  0  0  0
  -24.6120  -15.8400   20.2930 H   0  0  0  0  0  0  0  0  0  0  0  0
  -26.1580  -15.6330   19.6420 H   0  0  0  0  0  0  0  0  0  0  0  0
  -28.7500  -22.5570   20.0390 N   0  0  0  0  0  4  0  0  0  0  0  0
  -29.3770  -22.4950   20.8240 H   0  0  0  0  0  0  0  0  0  0  0  0
  -27.8420  -22.2660   20.3690 H   0  0  0  0  0  0  0  0  0  0  0  0
  -28.7050  -23.9890   19.5230 C   0  0  0  0  0  3  0  0  0  0  0  0
  -28.1740  -25.0970   20.5170 C   0  0  0  0  0  3  0  0  0  0  0  0
  -28.3470  -26.5070   20.1240 O   0  0  0  0  0  0  0  0  0  0  0  0
  -24.5470  -31.8400   23.1070 C   0  0  0  0  0  0  0  0  0  0  0  0
  -27.2140  -27.3170   20.0980 C   0  0  0  0  0  0  0  0  0  0  0  0
  -23.3670  -30.4360   21.4540 C   0  0  0  0  0  3  0  0  0  0  0  0
  -24.8410  -28.8890   20.0530 C   0  0  0  0  0  0  0  0  0  0  0  0
  -25.9020  -30.7730   21.2970 C   0  0  0  0  0  2  0  0  0  0  0  0
  -25.9990  -29.3960   20.6570 C   0  0  0  0  0  0  0  0  0  0  0  0
  -27.1940  -28.6230   20.6660 C   0  0  0  0  0  3  0  0  0  0  0  0
  -26.0380  -26.8470   19.4760 C   0  0  0  0  0  3  0  0  0  0  0  0
  -24.8590  -27.6170   19.4560 C   0  0  0  0  0  3  0  0  0  0  0  0
  -23.5990  -29.7560   20.0800 C   0  0  0  0  0  2  0  0  0  0  0  0
  -24.6250  -31.0330   22.0100 N   0  0  0  0  0  0  0  0  0  0  0  0
  -23.4560  -32.1160   23.6250 O   0  0  0  0  0  0  0  0  0  0  0  0
  -22.6970  -29.4180   22.4060 C   0  0  0  0  0  0  0  0  0  0  0  0
  -21.3680  -29.2650   22.2840 N   0  0  0  0  0  0  0  0  0  0  0  0
  -23.3690  -28.7700   23.2120 O   0  0  0  0  0  0  0  0  0  0  0  0
  -20.8850  -29.8390   21.6060 H   0  0  0  0  0  0  0  0  0  0  0  0
  -17.9650  -28.1650   22.8240 C   0  0  0  0  0  0  0  0  0  0  0  0
  -20.5350  -28.3360   23.0510 C   0  0  0  0  0  3  0  0  0  0  0  0
  -20.5810  -26.9160   22.4390 C   0  0  0  0  0  2  0  0  0  0  0  0
  -19.4490  -26.6530   21.4410 C   0  0  0  0  0  2  0  0  0  0  0  0
  -18.0850  -26.8270   22.1140 C   0  0  0  0  0  2  0  0  0  0  0  0
  -19.1150  -28.8800   23.2490 C   0  0  0  0  0  0  0  0  0  0  0  0
  -18.9490  -30.1360   23.8720 C   0  0  0  0  0  3  0  0  0  0  0  0
  -17.6630  -30.6750   24.0740 C   0  0  0  0  0  3  0  0  0  0  0  0
  -16.5280  -29.9550   23.6660 C   0  0  0  0  0  3  0  0  0  0  0  0
  -16.6800  -28.7010   23.0470 C   0  0  0  0  0  3  0  0  0  0  0  0
  -25.8210  -32.4750   23.7450 C   0  0  0  0  0  3  0  0  0  0  0  0
  -25.4900  -33.8590   24.1100 N   0  0  0  0  0  0  0  0  0  0  0  0
  -25.8000  -34.9350   23.3740 C   0  0  0  0  0  0  0  0  0  0  0  0
  -26.4620  -34.8680   22.3350 O   0  0  0  0  0  0  0  0  0  0  0  0
  -24.8980  -33.9830   24.9170 H   0  0  0  0  0  0  0  0  0  0  0  0
  -24.0390  -36.7080   23.0790 C   0  0  0  0  0  1  0  0  0  0  0  0
  -25.2940  -36.3040   23.8690 C   0  0  0  0  0  3  0  0  0  0  0  0
  -27.4190  -37.2080   24.7040 C   0  0  0  0  0  1  0  0  0  0  0  0
  -26.3080  -37.3760   23.7710 N   0  0  0  0  0  0  0  0  0  0  0  0
  -25.8870  -38.2860   23.9430 H   0  0  0  0  0  0  0  0  0  0  0  0
  -26.3500  -31.6790   25.0010 C   0  0  1  0  0  0  0  0  0  0  0  0
  -25.2580  -31.3820   26.0570 C   0  0  0  0  0  1  0  0  0  0  0  0
  -26.9670  -30.3280   24.5720 C   0  0  0  0  0  1  0  0  0  0  0  0
  -27.4800  -32.4800   25.6910 C   0  0  0  0  0  1  0  0  0  0  0  0
  1  5  1  0
  1 48  1  0
  2  5  2  0
  2  3  1  0
  3  4  2  0
  4  6  1  0
  4 11  1  0
  5  9  1  0
  6  8  1  0
  7  3  1  0
  9  6  2  0
 11 10  1  0
 12 11  1  0
 13 18  1  0
 14 15  1  0
 14 13  1  0
 16 15  1  0
 16 23  1  0
 16 17  1  0
 18 12  1  0
 18 17  1  0
 19 12  2  0
 20 21  2  0
 21 40  1  0
 22 21  1  0
 22 25  1  0
 23 24  1  0
 23 20  1  0
 24 22  2  0
 25 26  1  0
 26 27  2  0
 28 31  1  0
 28 27  1  0
 29 28  2  0
 30 29  1  0
 30 25  2  0
 31 32  1  0
 32 37  2  0
 32 33  1  0
 33 34  2  0
 34 35  1  0
 35 39  1  0
 36 35  2  0
 37 36  1  0
 38 37  1  0
 40 41  1  0
 41 44  1  0
 41 43  1  0
 42 40  2  0
 45 20  1  0
 45 46  1  0
 47 45  1  0
 48 50  1  0
 48 49  1  0
 51 48  1  0
 51 52  2  0
 53 52  1  0
 54 65  2  0
 55 53  1  0
 55 60  1  0
 56 64  1  0
 56 66  1  0
 57 63  1  0
 57 59  1  0
 58 64  1  0
 59 60  2  0
 59 58  1  0
 61 55  2  0
 62 61  1  0
 62 57  2  0
 63 56  1  0
 64 54  1  0
 66 68  2  0
 67 66  1  0
 69 67  1  0
 70 79  2  0
 70 75  1  0
 71 67  1  0
 71 75  1  0
 72 71  1  0
 73 74  1  0
 73 72  1  0
 74 70  1  0
 75 76  2  0
 76 77  1  0
 78 77  2  0
 79 78  1  0
 80 54  1  0
 80 81  1  0
 80 90  1  0
 81 84  1  0
 82 86  1  0
 82 81  1  0
 83 82  2  0
 86 85  1  0
 88 86  1  0
 88 89  1  0
 88 87  1  0
 90 93  1  1
 90 91  1  0
 92 90  1  0
M  ISO  4  11 100  12 100  52 101  53 101
M  END
>  <TORSDO>  (33) 
F 21

>  <SCORE>  (33) 
-12.519

>  <name>  (33) 
32

>  <ligand_id>  (33) 
32

>  <original_smiles>  (33) 
[H]c1c([H])c([H])c2c(c1[H])C([H])([H])C([H])([H])C([H])([H])C2([H])N([H])C(=O)C1([H])N(C(=O)C([H])(N([H])C(=O)C([H])(N([H])C([H])([H])[H])C([H])([H])[H])C(C([H])([H])[H])(C([H])([H])[H])C([H])([H])[H])C([H])([H])c2c([H])c(OC([H])([H])C([H])([H])[N+]([H])([H])C([H])([H])c3nc(C([H])([H])[H])c(C([H])(C(=O)N4C([H])([H])C([H])([H])C([H])([H])C([H])(n5nc(-c6c([H])c([H])c(Oc7c([H])c([H])c(F)c([H])c7F)c([H])c6[H])c(C(=O)N([H])[H])c5N([H])[H])C4([H])[H])C([H])([H])[H])c(C([H])([H])[H])c3[H])c([H])c([H])c2C1([H])[H]

>  <smiles>  (33) 
[H]c1c([H])c([H])c2c(c1[H])C([H])([H])C([H])([H])C([H])([H])C2([H])N([H])C(=O)C1([H])N(C(=O)C([H])(N([H])C(=O)C([H])(N([H])C([H])([H])[H])C([H])([H])[H])C(C([H])([H])[H])(C([H])([H])[H])C([H])([H])[H])C([H])([H])c2c([H])c(OC([H])([H])C([H])([H])[N+]([H])([H])C([H])([H])c3nc(C([H])([H])[H])c(C([H])(C(=O)N4C([H])([H])C([H])([H])C([H])([H])C([H])(n5nc(-c6c([H])c([H])c(Oc7c([H])c([H])c(F)c([H])c7F)c([H])c6[H])c(C(=O)N([H])[H])c5N([H])[H])C4([H])[H])C([H])([H])[H])c(C([H])([H])[H])c3[H])c([H])c([H])c2C1([H])[H]

$$$$
33:0:0
     RDKit          3D

 91 99  0  0  1  0  0  0  0  0999 V2000
  -27.7860  -21.0670   21.7230 C   0  0  0  0  0  3  0  0  0  0  0  0
  -27.9510  -22.3680   21.1960 C   0  0  0  0  0  0  0  0  0  0  0  0
  -28.7350  -22.2430   20.0610 C   0  0  0  0  0  0  0  0  0  0  0  0
  -28.4540  -20.1580   21.0640 N   0  0  0  0  0  0  0  0  0  0  0  0
  -29.1200  -20.7730   20.0640 N   0  0  0  0  0  0  0  0  0  0  0  0
  -25.9060  -23.8360   21.4440 C   0  0  0  0  0  1  0  0  0  0  0  0
  -27.3560  -23.5780   21.8790 C   0  0  0  0  0  2  0  0  0  0  0  0
  -30.4620  -24.1250   19.7190 C   0  0  0  0  0  1  0  0  0  0  0  0
  -29.1070  -23.6120   19.2220 C   0  0  0  0  0  3  0  0  0  0  0  0
  -28.0810  -24.9760   19.0300 C   0  0  0  0  0  2  0  0  0  0  0  0
  -28.3200  -26.5150   19.2440 O   0  0  0  0  0  0  0  0  0  0  0  0
  -24.5330  -31.6690   22.9770 C   0  0  0  0  0  0  0  0  0  0  0  0
  -27.2220  -27.4590   19.3320 C   0  0  0  0  0  0  0  0  0  0  0  0
  -23.3420  -30.3930   21.2400 C   0  0  0  0  0  3  0  0  0  0  0  0
  -24.8060  -29.0760   19.5900 C   0  0  0  0  0  0  0  0  0  0  0  0
  -25.8710  -30.8210   21.0080 C   0  0  0  0  0  2  0  0  0  0  0  0
  -25.9900  -29.5150   20.1990 C   0  0  0  0  0  0  0  0  0  0  0  0
  -27.1970  -28.7250   20.0520 C   0  0  0  0  0  3  0  0  0  0  0  0
  -26.0020  -27.1320   18.6990 C   0  0  0  0  0  3  0  0  0  0  0  0
  -24.8260  -27.9010   18.8260 C   0  0  0  0  0  3  0  0  0  0  0  0
  -23.5350  -29.8900   19.7870 C   0  0  0  0  0  2  0  0  0  0  0  0
  -24.6040  -30.9760   21.7980 N   0  0  0  0  0  0  0  0  0  0  0  0
  -23.4560  -31.8310   23.5710 O   0  0  0  0  0  0  0  0  0  0  0  0
  -22.7620  -29.2470   22.1080 C   0  0  0  0  0  0  0  0  0  0  0  0
  -21.4370  -29.0280   22.0300 N   0  0  0  0  0  0  0  0  0  0  0  0
  -23.5030  -28.5630   22.8170 O   0  0  0  0  0  0  0  0  0  0  0  0
  -20.8920  -29.6380   21.4370 H   0  0  0  0  0  0  0  0  0  0  0  0
  -18.1360  -27.6360   22.5810 C   0  0  0  0  0  0  0  0  0  0  0  0
  -20.6970  -27.9710   22.7260 C   0  0  0  0  0  3  0  0  0  0  0  0
  -20.8100  -26.6250   21.9720 C   0  0  0  0  0  2  0  0  0  0  0  0
  -19.6560  -26.3850   20.9920 C   0  0  0  0  0  2  0  0  0  0  0  0
  -18.3130  -26.3890   21.7300 C   0  0  0  0  0  2  0  0  0  0  0  0
  -19.2530  -28.3870   23.0330 C   0  0  0  0  0  0  0  0  0  0  0  0
  -19.0290  -29.5540   23.7940 C   0  0  0  0  0  3  0  0  0  0  0  0
  -17.7200  -29.9710   24.1060 C   0  0  0  0  0  3  0  0  0  0  0  0
  -16.6190  -29.2170   23.6660 C   0  0  0  0  0  3  0  0  0  0  0  0
  -16.8270  -28.0510   22.9080 C   0  0  0  0  0  3  0  0  0  0  0  0
  -25.7990  -32.3080   23.6240 C   0  0  0  0  0  3  0  0  0  0  0  0
  -25.4460  -33.6740   24.0450 N   0  0  0  0  0  0  0  0  0  0  0  0
  -25.7300  -34.7850   23.3530 C   0  0  0  0  0  0  0  0  0  0  0  0
  -26.3810  -34.7700   22.3060 O   0  0  0  0  0  0  0  0  0  0  0  0
  -24.8590  -33.7560   24.8620 H   0  0  0  0  0  0  0  0  0  0  0  0
  -23.9280  -36.5340   23.1630 C   0  0  0  0  0  1  0  0  0  0  0  0
  -25.2080  -36.1250   23.9090 C   0  0  0  0  0  3  0  0  0  0  0  0
  -27.3330  -37.0430   24.7310 C   0  0  0  0  0  1  0  0  0  0  0  0
  -26.1980  -37.2210   23.8290 N   0  0  0  0  0  0  0  0  0  0  0  0
  -25.7650  -38.1170   24.0380 H   0  0  0  0  0  0  0  0  0  0  0  0
  -26.3510  -31.4800   24.8500 C   0  0  1  0  0  0  0  0  0  0  0  0
  -25.2800  -31.1580   25.9190 C   0  0  0  0  0  1  0  0  0  0  0  0
  -26.9610  -30.1410   24.3770 C   0  0  0  0  0  1  0  0  0  0  0  0
  -27.4940  -32.2650   25.5360 C   0  0  0  0  0  1  0  0  0  0  0  0
  -29.9020  -19.6460   19.2870 C   0  0  0  0  0  2  0  0  0  0  0  0
  -30.5440  -18.2380   20.0320 C   0  0  0  0  0  2  0  0  0  0  0  0
  -30.9250  -15.4890   19.8070 C   0  0  0  0  0  0  0  0  0  0  0  0
  -30.7830  -13.0850   18.9950 C   0  0  0  0  0  2  0  0  0  0  0  0
  -29.8010  -12.9380   17.8090 C   0  0  0  0  0  2  0  0  0  0  0  0
  -28.3620  -12.7410   18.3190 C   0  0  0  0  0  2  0  0  0  0  0  0
  -27.9860  -13.7430   19.4390 C   0  0  0  0  0  3  0  0  0  0  0  0
  -29.0820  -13.8460   20.5190 C   0  0  0  0  0  2  0  0  0  0  0  0
  -30.3190  -14.2320   19.8270 N   0  0  0  0  0  0  0  0  0  0  0  0
  -32.1340  -15.5190   19.5530 O   0  0  0  0  0  0  0  0  0  0  0  0
  -30.1620  -16.6970   19.8680 N   0  0  0  0  0  0  0  0  0  0  0  0
  -29.1730  -16.5240   19.9620 H   0  0  0  0  0  0  0  0  0  0  0  0
  -25.6790  -14.3710   20.3470 C   0  0  0  0  0  0  0  0  0  0  0  0
  -24.6060  -13.6170   20.7350 C   0  0  0  0  0  0  0  0  0  0  0  0
  -25.0140  -12.2540   20.6080 C   0  0  0  0  0  0  0  0  0  0  0  0
  -26.6710  -13.4680   20.0030 N   0  0  0  0  0  0  0  0  0  0  0  0
  -26.2840  -12.1850   20.2270 N   0  0  0  0  0  0  0  0  0  0  0  0
  -24.2470  -11.0110   20.7720 C   0  0  0  0  0  0  0  0  0  0  0  0
  -24.6550  -10.0040   21.6740 C   0  0  0  0  0  3  0  0  0  0  0  0
  -23.8890   -8.8260   21.8270 C   0  0  0  0  0  3  0  0  0  0  0  0
  -22.7010   -8.6490   21.0780 C   0  0  0  0  0  0  0  0  0  0  0  0
  -22.3140   -9.6450   20.1640 C   0  0  0  0  0  3  0  0  0  0  0  0
  -23.0790  -10.8120   20.0090 C   0  0  0  0  0  3  0  0  0  0  0  0
  -21.9090   -7.5290   21.1440 O   0  0  0  0  0  0  0  0  0  0  0  0
  -21.7870   -6.7990   22.2980 C   0  0  0  0  0  0  0  0  0  0  0  0
  -21.3070   -7.3740   23.4960 C   0  0  0  0  0  3  0  0  0  0  0  0
  -21.1330   -6.5730   24.6410 C   0  0  0  0  0  3  0  0  0  0  0  0
  -21.4280   -5.1970   24.5900 C   0  0  0  0  0  0  0  0  0  0  0  0
  -21.9000   -4.6220   23.3970 C   0  0  0  0  0  3  0  0  0  0  0  0
  -22.0770   -5.4200   22.2550 C   0  0  0  0  0  0  0  0  0  0  0  0
  -22.5130   -4.8570   21.1020 F   0  0  0  0  0  0  0  0  0  0  0  0
  -21.2530   -4.4250   25.6880 F   0  0  0  0  0  0  0  0  0  0  0  0
  -23.2470  -14.1310   21.1050 C   0  0  0  0  0  0  0  0  0  0  0  0
  -22.5420  -13.4230   21.9810 N   0  0  0  0  0  0  0  0  0  0  0  0
  -22.8210  -15.1930   20.6540 O   0  0  0  0  0  0  0  0  0  0  0  0
  -22.9000  -12.5600   22.3650 H   0  0  0  0  0  0  0  0  0  0  0  0
  -21.6320  -13.7490   22.2760 H   0  0  0  0  0  0  0  0  0  0  0  0
  -25.8890  -15.7400   20.2290 N   0  0  0  0  0  0  0  0  0  0  0  0
  -25.1560  -16.4170   20.4110 H   0  0  0  0  0  0  0  0  0  0  0  0
  -26.7310  -16.1610   19.8560 H   0  0  0  0  0  0  0  0  0  0  0  0
  2  1  1  0
  2  7  1  0
  3  5  1  0
  3  2  2  0
  4  1  2  0
  5  4  1  0
  6  7  1  0
  9  8  1  0
  9  3  1  0
 10  9  1  0
 10 11  1  0
 11 13  1  0
 12 23  2  0
 13 18  1  0
 14 22  1  0
 14 24  1  0
 15 21  1  0
 15 17  1  0
 16 22  1  0
 17 16  1  0
 18 17  2  0
 19 20  1  0
 19 13  2  0
 20 15  2  0
 21 14  1  0
 22 12  1  0
 24 26  2  0
 25 24  1  0
 27 25  1  0
 28 37  2  0
 28 33  1  0
 29 25  1  0
 29 33  1  0
 30 29  1  0
 31 32  1  0
 31 30  1  0
 32 28  1  0
 33 34  2  0
 34 35  1  0
 36 35  2  0
 37 36  1  0
 38 12  1  0
 38 39  1  0
 38 48  1  0
 39 42  1  0
 40 44  1  0
 40 39  1  0
 41 40  2  0
 44 43  1  0
 46 44  1  0
 46 47  1  0
 46 45  1  0
 48 51  1  1
 48 49  1  0
 50 48  1  0
 52 53  1  0
 52  5  1  0
 54 60  1  0
 54 62  1  0
 55 60  1  0
 56 57  1  0
 56 55  1  0
 58 57  1  0
 58 67  1  0
 58 59  1  0
 60 59  1  0
 61 54  2  0
 62 63  1  0
 62 53  1  0
 64 65  2  0
 65 84  1  0
 66 65  1  0
 66 69  1  0
 67 68  1  0
 67 64  1  0
 68 66  2  0
 69 70  1  0
 70 71  2  0
 72 75  1  0
 72 71  1  0
 73 72  2  0
 74 73  1  0
 74 69  2  0
 75 76  1  0
 76 77  1  0
 77 78  2  0
 79 78  1  0
 79 83  1  0
 80 79  2  0
 81 76  2  0
 81 80  1  0
 82 81  1  0
 84 85  1  0
 85 88  1  0
 85 87  1  0
 86 84  2  0
 89 64  1  0
 89 90  1  0
 91 89  1  0
M  ISO  4  10 101  11 101  54 100  62 100
M  END
>  <TORSDO>  (34) 
F 21

>  <SCORE>  (34) 
-12.227

>  <name>  (34) 
33

>  <ligand_id>  (34) 
33

>  <original_smiles>  (34) 
[H]c1nn(C([H])([H])C([H])([H])N([H])C(=O)N2C([H])([H])C([H])([H])C([H])([H])C([H])(n3nc(-c4c([H])c([H])c(Oc5c([H])c([H])c(F)c([H])c5F)c([H])c4[H])c(C(=O)N([H])[H])c3N([H])[H])C2([H])[H])c(C([H])(C([H])([H])[H])C([H])([H])Oc2c([H])c([H])c3c(c2[H])C([H])([H])N(C(=O)C([H])(N([H])C(=O)C([H])(N([H])C([H])([H])[H])C([H])([H])[H])C(C([H])([H])[H])(C([H])([H])[H])C([H])([H])[H])C([H])(C(=O)N([H])C2([H])c4c([H])c([H])c([H])c([H])c4C([H])([H])C([H])([H])C2([H])[H])C3([H])[H])c1C([H])([H])C([H])([H])[H]

>  <smiles>  (34) 
[H]c1nn(C([H])([H])C([H])([H])N([H])C(=O)N2C([H])([H])C([H])([H])C([H])([H])C([H])(n3nc(-c4c([H])c([H])c(Oc5c([H])c([H])c(F)c([H])c5F)c([H])c4[H])c(C(=O)N([H])[H])c3N([H])[H])C2([H])[H])c(C([H])(C([H])([H])[H])C([H])([H])Oc2c([H])c([H])c3c(c2[H])C([H])([H])N(C(=O)C([H])(N([H])C(=O)C([H])(N([H])C([H])([H])[H])C([H])([H])[H])C(C([H])([H])[H])(C([H])([H])[H])C([H])([H])[H])C([H])(C(=O)N([H])C2([H])c4c([H])c([H])c([H])c([H])c4C([H])([H])C([H])([H])C2([H])[H])C3([H])[H])c1C([H])([H])C([H])([H])[H]

$$$$
34:0:0
     RDKit          3D

 89 96  0  0  1  0  0  0  0  0999 V2000
  -26.8600  -23.0440   21.0980 C   0  0  0  0  0  1  0  0  0  0  0  0
  -28.1340  -23.2760   20.2590 C   0  0  2  0  0  0  0  0  0  0  0  0
  -27.7600  -23.3330   18.9790 F   0  0  0  0  0  0  0  0  0  0  0  0
  -29.1610  -21.9050   20.3720 C   0  0  0  0  0  2  0  0  0  0  0  0
  -27.7260  -20.2340   19.1130 C   0  0  0  0  0  1  0  0  0  0  0  0
  -28.7160  -20.3720   20.2100 N   0  0  1  0  0  4  0  0  0  0  0  0
  -28.2080  -20.1820   21.0600 H   0  0  0  0  0  0  0  0  0  0  0  0
  -29.7290  -19.1390   20.0490 C   0  0  0  0  0  2  0  0  0  0  0  0
  -29.5860  -17.6660   20.8730 C   0  0  0  0  0  2  0  0  0  0  0  0
  -30.4910  -15.0250   20.3010 C   0  0  0  0  0  0  0  0  0  0  0  0
  -30.4110  -12.6790   19.3160 C   0  0  0  0  0  2  0  0  0  0  0  0
  -29.4600  -12.6240   18.0980 C   0  0  0  0  0  2  0  0  0  0  0  0
  -27.9990  -12.4090   18.5430 C   0  0  0  0  0  2  0  0  0  0  0  0
  -27.5970  -13.3290   19.7250 C   0  0  0  0  0  3  0  0  0  0  0  0
  -28.6630  -13.3270   20.8390 C   0  0  0  0  0  2  0  0  0  0  0  0
  -29.9210  -13.7580   20.2150 N   0  0  0  0  0  0  0  0  0  0  0  0
  -31.7120  -15.1200   20.1290 O   0  0  0  0  0  0  0  0  0  0  0  0
  -29.6340  -16.1610   20.3490 N   0  0  0  0  0  0  0  0  0  0  0  0
  -28.6900  -15.8310   20.2160 H   0  0  0  0  0  0  0  0  0  0  0  0
  -25.2210  -13.9140   20.4730 C   0  0  0  0  0  0  0  0  0  0  0  0
  -24.1580  -13.1390   20.8490 C   0  0  0  0  0  0  0  0  0  0  0  0
  -24.6240  -11.7890   20.8230 C   0  0  0  0  0  0  0  0  0  0  0  0
  -26.2640  -13.0340   20.2320 N   0  0  0  0  0  0  0  0  0  0  0  0
  -25.9140  -11.7520   20.5100 N   0  0  0  0  0  0  0  0  0  0  0  0
  -23.8990  -10.5260   21.0160 C   0  0  0  0  0  0  0  0  0  0  0  0
  -24.3300   -9.5630   21.9550 C   0  0  0  0  0  3  0  0  0  0  0  0
  -23.6030   -8.3660   22.1370 C   0  0  0  0  0  3  0  0  0  0  0  0
  -22.4310   -8.1260   21.3800 C   0  0  0  0  0  0  0  0  0  0  0  0
  -22.0200   -9.0780   20.4320 C   0  0  0  0  0  3  0  0  0  0  0  0
  -22.7470  -10.2660   20.2480 C   0  0  0  0  0  3  0  0  0  0  0  0
  -21.6770   -6.9820   21.4720 O   0  0  0  0  0  0  0  0  0  0  0  0
  -21.6260   -6.2430   22.6280 C   0  0  0  0  0  0  0  0  0  0  0  0
  -21.1920   -6.8020   23.8500 C   0  0  0  0  0  3  0  0  0  0  0  0
  -21.0890   -5.9900   24.9970 C   0  0  0  0  0  3  0  0  0  0  0  0
  -21.4100   -4.6220   24.9240 C   0  0  0  0  0  0  0  0  0  0  0  0
  -21.8360   -4.0620   23.7070 C   0  0  0  0  0  3  0  0  0  0  0  0
  -21.9410   -4.8710   22.5610 C   0  0  0  0  0  0  0  0  0  0  0  0
  -22.3330   -4.3230   21.3850 F   0  0  0  0  0  0  0  0  0  0  0  0
  -21.3030   -3.8400   26.0230 F   0  0  0  0  0  0  0  0  0  0  0  0
  -22.7600  -13.6160   21.1180 C   0  0  0  0  0  0  0  0  0  0  0  0
  -22.0320  -12.9220   21.9840 N   0  0  0  0  0  0  0  0  0  0  0  0
  -22.3240  -14.6400   20.5930 O   0  0  0  0  0  0  0  0  0  0  0  0
  -22.3990  -12.0940   22.4290 H   0  0  0  0  0  0  0  0  0  0  0  0
  -21.0940  -13.2240   22.2070 H   0  0  0  0  0  0  0  0  0  0  0  0
  -25.3790  -15.2840   20.2880 N   0  0  0  0  0  0  0  0  0  0  0  0
  -24.6010  -15.9260   20.3910 H   0  0  0  0  0  0  0  0  0  0  0  0
  -26.2020  -15.7240   19.9010 H   0  0  0  0  0  0  0  0  0  0  0  0
  -28.5990  -24.8540   20.6740 C   0  0  0  0  0  2  0  0  0  0  0  0
  -28.3450  -26.2960   20.1230 O   0  0  0  0  0  0  0  0  0  0  0  0
  -24.6040  -31.8930   23.2320 C   0  0  0  0  0  0  0  0  0  0  0  0
  -27.2150  -27.1760   20.2460 C   0  0  0  0  0  0  0  0  0  0  0  0
  -23.4130  -30.4840   21.5940 C   0  0  0  0  0  3  0  0  0  0  0  0
  -24.8700  -28.8950   20.1960 C   0  0  0  0  0  0  0  0  0  0  0  0
  -25.9630  -30.7620   21.4310 C   0  0  0  0  0  2  0  0  0  0  0  0
  -26.0450  -29.3620   20.7990 C   0  0  0  0  0  0  0  0  0  0  0  0
  -27.2200  -28.5210   20.7960 C   0  0  0  0  0  3  0  0  0  0  0  0
  -26.0100  -26.7950   19.6240 C   0  0  0  0  0  3  0  0  0  0  0  0
  -24.8630  -27.6230   19.5960 C   0  0  0  0  0  3  0  0  0  0  0  0
  -23.6410  -29.7920   20.2230 C   0  0  0  0  0  2  0  0  0  0  0  0
  -24.6800  -31.0700   22.1420 N   0  0  0  0  0  0  0  0  0  0  0  0
  -23.5150  -32.1730   23.7570 O   0  0  0  0  0  0  0  0  0  0  0  0
  -22.7350  -29.4820   22.5600 C   0  0  0  0  0  0  0  0  0  0  0  0
  -21.4100  -29.2950   22.4210 N   0  0  0  0  0  0  0  0  0  0  0  0
  -23.4050  -28.8700   23.3980 O   0  0  0  0  0  0  0  0  0  0  0  0
  -20.9270  -29.8410   21.7210 H   0  0  0  0  0  0  0  0  0  0  0  0
  -18.0410  -28.0500   22.8830 C   0  0  0  0  0  0  0  0  0  0  0  0
  -20.5900  -28.3570   23.1910 C   0  0  0  0  0  3  0  0  0  0  0  0
  -20.7250  -26.9180   22.6370 C   0  0  0  0  0  2  0  0  0  0  0  0
  -19.6450  -26.5650   21.6080 C   0  0  0  0  0  2  0  0  0  0  0  0
  -18.2500  -26.6950   22.2260 C   0  0  0  0  0  2  0  0  0  0  0  0
  -19.1400  -28.8360   23.3200 C   0  0  0  0  0  0  0  0  0  0  0  0
  -18.8890  -30.1020   23.8950 C   0  0  0  0  0  3  0  0  0  0  0  0
  -17.5740  -30.5820   24.0340 C   0  0  0  0  0  3  0  0  0  0  0  0
  -16.4890  -29.7930   23.6120 C   0  0  0  0  0  3  0  0  0  0  0  0
  -16.7240  -28.5290   23.0420 C   0  0  0  0  0  3  0  0  0  0  0  0
  -25.8780  -32.5350   23.8620 C   0  0  0  0  0  3  0  0  0  0  0  0
  -25.5620  -33.9360   24.1800 N   0  0  0  0  0  0  0  0  0  0  0  0
  -25.9070  -34.9870   23.4240 C   0  0  0  0  0  0  0  0  0  0  0  0
  -26.5890  -34.8800   22.4020 O   0  0  0  0  0  0  0  0  0  0  0  0
  -24.9580  -34.0940   24.9720 H   0  0  0  0  0  0  0  0  0  0  0  0
  -24.1930  -36.7920   23.0420 C   0  0  0  0  0  1  0  0  0  0  0  0
  -25.4200  -36.3800   23.8730 C   0  0  0  0  0  3  0  0  0  0  0  0
  -27.5450  -37.2590   24.7370 C   0  0  0  0  0  1  0  0  0  0  0  0
  -26.4580  -37.4280   23.7740 N   0  0  0  0  0  0  0  0  0  0  0  0
  -26.0540  -38.3500   23.9130 H   0  0  0  0  0  0  0  0  0  0  0  0
  -26.3790  -31.7780   25.1550 C   0  0  1  0  0  0  0  0  0  0  0  0
  -25.2740  -31.5560   26.2140 C   0  0  0  0  0  1  0  0  0  0  0  0
  -26.9630  -30.3940   24.7890 C   0  0  0  0  0  1  0  0  0  0  0  0
  -27.5250  -32.5780   25.8180 C   0  0  0  0  0  1  0  0  0  0  0  0
  2  4  1  0
  2 48  1  0
  2  1  1  1
  3  2  1  0
  5  6  1  0
  6  4  1  0
  6  7  1  1
  8  6  1  0
  8  9  1  0
 10 18  1  0
 11 16  1  0
 12 13  1  0
 12 11  1  0
 14 13  1  0
 14 23  1  0
 14 15  1  0
 16 10  1  0
 16 15  1  0
 17 10  2  0
 18  9  1  0
 19 18  1  0
 20 21  2  0
 21 40  1  0
 22 21  1  0
 22 25  1  0
 23 20  1  0
 23 24  1  0
 24 22  2  0
 25 26  1  0
 26 27  2  0
 28 31  1  0
 28 27  1  0
 29 28  2  0
 30 29  1  0
 30 25  2  0
 31 32  1  0
 32 33  1  0
 33 34  2  0
 35 34  1  0
 35 39  1  0
 36 35  2  0
 37 32  2  0
 37 36  1  0
 38 37  1  0
 40 41  1  0
 41 44  1  0
 41 43  1  0
 42 40  2  0
 45 46  1  0
 45 20  1  0
 47 45  1  0
 49 51  1  0
 49 48  1  0
 50 61  2  0
 51 56  1  0
 52 60  1  0
 52 62  1  0
 53 59  1  0
 53 55  1  0
 54 60  1  0
 55 54  1  0
 56 55  2  0
 57 51  2  0
 58 57  1  0
 58 53  2  0
 59 52  1  0
 60 50  1  0
 62 64  2  0
 63 62  1  0
 65 63  1  0
 66 75  2  0
 66 71  1  0
 67 63  1  0
 67 71  1  0
 68 67  1  0
 69 70  1  0
 69 68  1  0
 70 66  1  0
 71 72  2  0
 72 73  1  0
 74 73  2  0
 75 74  1  0
 76 50  1  0
 76 77  1  0
 76 86  1  0
 77 80  1  0
 78 82  1  0
 78 77  1  0
 79 78  2  0
 82 81  1  0
 84 82  1  0
 84 85  1  0
 84 83  1  0
 86 89  1  1
 86 87  1  0
 88 86  1  0
M  ISO  4  10 100  18 100  48 101  49 101
M  END
>  <TORSDO>  (35) 
F 21

>  <SCORE>  (35) 
-14.607

>  <name>  (35) 
34

>  <ligand_id>  (35) 
34

>  <original_smiles>  (35) 
[H]c1c([H])c([H])c2c(c1[H])C([H])([H])C([H])([H])C([H])([H])C2([H])N([H])C(=O)C1([H])N(C(=O)C([H])(N([H])C(=O)C([H])(N([H])C([H])([H])[H])C([H])([H])[H])C(C([H])([H])[H])(C([H])([H])[H])C([H])([H])[H])C([H])([H])c2c([H])c(OC([H])([H])C(F)(C([H])([H])[H])C([H])([H])[N+]([H])(C([H])([H])[H])C([H])([H])C([H])([H])N([H])C(=O)N3C([H])([H])C([H])([H])C([H])([H])C([H])(n4nc(-c5c([H])c([H])c(Oc6c([H])c([H])c(F)c([H])c6F)c([H])c5[H])c(C(=O)N([H])[H])c4N([H])[H])C3([H])[H])c([H])c([H])c2C1([H])[H]

>  <smiles>  (35) 
[H]c1c([H])c([H])c2c(c1[H])C([H])([H])C([H])([H])C([H])([H])C2([H])N([H])C(=O)C1([H])N(C(=O)C([H])(N([H])C(=O)C([H])(N([H])C([H])([H])[H])C([H])([H])[H])C(C([H])([H])[H])(C([H])([H])[H])C([H])([H])[H])C([H])([H])c2c([H])c(OC([H])([H])C(F)(C([H])([H])[H])C([H])([H])[N+]([H])(C([H])([H])[H])C([H])([H])C([H])([H])N([H])C(=O)N3C([H])([H])C([H])([H])C([H])([H])C([H])(n4nc(-c5c([H])c([H])c(Oc6c([H])c([H])c(F)c([H])c6F)c([H])c5[H])c(C(=O)N([H])[H])c4N([H])[H])C3([H])[H])c([H])c([H])c2C1([H])[H]

$$$$
35:0:0
     RDKit          3D

 97105  0  0  1  0  0  0  0  0999 V2000
  -32.3800  -20.3770   18.8480 C   0  0  0  0  0  1  0  0  0  0  0  0
  -31.0030  -20.8580   19.3580 C   0  0  0  0  0  3  0  0  0  0  0  0
  -30.5430  -17.2360   18.8290 C   0  0  0  0  0  2  0  0  0  0  0  0
  -30.0850  -18.5650   18.1370 C   0  0  0  0  0  2  0  0  0  0  0  0
  -30.3440  -18.0320   21.1820 C   0  0  0  0  0  2  0  0  0  0  0  0
  -29.2640  -19.1380   21.2860 C   0  0  0  0  0  2  0  0  0  0  0  0
  -29.9290  -16.8770   20.2190 C   0  0  0  0  0  3  0  0  0  0  0  0
  -29.8140  -19.9050   18.9180 C   0  0  0  0  0  3  0  0  0  0  0  0
  -28.7990  -19.6720   19.9790 N   0  0  0  0  0  4  0  0  0  0  0  0
  -28.2750  -20.5130   20.1540 H   0  0  0  0  0  0  0  0  0  0  0  0
  -28.1210  -19.0300   19.6000 H   0  0  0  0  0  0  0  0  0  0  0  0
  -30.7640  -14.4320   20.0720 C   0  0  0  0  0  0  0  0  0  0  0  0
  -30.3810  -12.3350   18.7940 C   0  0  0  0  0  2  0  0  0  0  0  0
  -29.3530  -12.5790   17.6650 C   0  0  0  0  0  2  0  0  0  0  0  0
  -27.9000  -12.4430   18.1680 C   0  0  0  0  0  2  0  0  0  0  0  0
  -27.6620  -13.2010   19.4990 C   0  0  0  0  0  3  0  0  0  0  0  0
  -28.7800  -12.8410   20.4960 C   0  0  0  0  0  2  0  0  0  0  0  0
  -30.0700  -13.2560   19.9060 N   0  0  0  0  0  0  0  0  0  0  0  0
  -31.8160  -14.6320   19.4520 O   0  0  0  0  0  0  0  0  0  0  0  0
  -29.6780  -15.2790   22.1250 C   0  0  0  0  0  1  0  0  0  0  0  0
  -30.1420  -15.4680   20.7340 N   0  0  0  0  0  0  0  0  0  0  0  0
  -25.3070  -13.8170   20.3390 C   0  0  0  0  0  0  0  0  0  0  0  0
  -24.2600  -13.0490   20.7670 C   0  0  0  0  0  0  0  0  0  0  0  0
  -24.7130  -11.6940   20.7080 C   0  0  0  0  0  0  0  0  0  0  0  0
  -26.3360  -12.9320   20.0500 N   0  0  0  0  0  0  0  0  0  0  0  0
  -25.9820  -11.6510   20.3260 N   0  0  0  0  0  0  0  0  0  0  0  0
  -23.9950  -10.4320   20.9330 C   0  0  0  0  0  0  0  0  0  0  0  0
  -24.4540   -9.4810   21.8700 C   0  0  0  0  0  3  0  0  0  0  0  0
  -23.7370   -8.2850   22.0870 C   0  0  0  0  0  3  0  0  0  0  0  0
  -22.5480   -8.0300   21.3610 C   0  0  0  0  0  0  0  0  0  0  0  0
  -22.1090   -8.9690   20.4120 C   0  0  0  0  0  3  0  0  0  0  0  0
  -22.8260  -10.1560   20.1940 C   0  0  0  0  0  3  0  0  0  0  0  0
  -21.8010   -6.8860   21.4890 O   0  0  0  0  0  0  0  0  0  0  0  0
  -21.7510   -6.1830   22.6670 C   0  0  0  0  0  0  0  0  0  0  0  0
  -21.3220   -6.7800   23.8740 C   0  0  0  0  0  3  0  0  0  0  0  0
  -21.2240   -6.0030   25.0440 C   0  0  0  0  0  3  0  0  0  0  0  0
  -21.5420   -4.6320   25.0100 C   0  0  0  0  0  0  0  0  0  0  0  0
  -21.9590   -4.0350   23.8070 C   0  0  0  0  0  3  0  0  0  0  0  0
  -22.0610   -4.8100   22.6370 C   0  0  0  0  0  0  0  0  0  0  0  0
  -22.4480   -4.2260   21.4780 F   0  0  0  0  0  0  0  0  0  0  0  0
  -21.4340   -3.8820   26.1320 F   0  0  0  0  0  0  0  0  0  0  0  0
  -22.8810  -13.5270   21.1270 C   0  0  0  0  0  0  0  0  0  0  0  0
  -22.2110  -12.8360   22.0430 N   0  0  0  0  0  0  0  0  0  0  0  0
  -22.4070  -14.5450   20.6230 O   0  0  0  0  0  0  0  0  0  0  0  0
  -22.6050  -12.0100   22.4700 H   0  0  0  0  0  0  0  0  0  0  0  0
  -21.2880  -13.1340   22.3270 H   0  0  0  0  0  0  0  0  0  0  0  0
  -25.4710  -15.1870   20.1470 N   0  0  0  0  0  0  0  0  0  0  0  0
  -24.7150  -15.8520   20.2700 H   0  0  0  0  0  0  0  0  0  0  0  0
  -26.3150  -15.6010   19.7740 H   0  0  0  0  0  0  0  0  0  0  0  0
  -30.8790  -22.3770   18.9580 C   0  0  0  0  0  2  0  0  0  0  0  0
  -29.6770  -23.1230   19.4490 N   0  0  0  0  0  4  0  0  0  0  0  0
  -29.4210  -22.8070   20.3720 H   0  0  0  0  0  0  0  0  0  0  0  0
  -28.9210  -22.9000   18.8200 H   0  0  0  0  0  0  0  0  0  0  0  0
  -30.6920  -25.0850   20.6420 C   0  0  0  0  0  1  0  0  0  0  0  0
  -29.7840  -24.6200   19.4850 C   0  0  0  0  0  3  0  0  0  0  0  0
  -28.3790  -25.2930   19.5650 C   0  0  0  0  0  2  0  0  0  0  0  0
  -28.4090  -26.6840   19.9470 O   0  0  0  0  0  0  0  0  0  0  0  0
  -24.5440  -31.7800   23.1720 C   0  0  0  0  0  0  0  0  0  0  0  0
  -27.2080  -27.3810   20.0060 C   0  0  0  0  0  0  0  0  0  0  0  0
  -23.3390  -30.3890   21.5220 C   0  0  0  0  0  3  0  0  0  0  0  0
  -24.7960  -28.8760   20.0790 C   0  0  0  0  0  0  0  0  0  0  0  0
  -25.8680  -30.7590   21.3210 C   0  0  0  0  0  2  0  0  0  0  0  0
  -25.9610  -29.3980   20.6590 C   0  0  0  0  0  0  0  0  0  0  0  0
  -27.1680  -28.6610   20.6150 C   0  0  0  0  0  3  0  0  0  0  0  0
  -26.0090  -26.8640   19.4560 C   0  0  0  0  0  3  0  0  0  0  0  0
  -24.8170  -27.6080   19.4830 C   0  0  0  0  0  3  0  0  0  0  0  0
  -23.5470  -29.7290   20.1370 C   0  0  0  0  0  2  0  0  0  0  0  0
  -24.6020  -30.9890   22.0640 N   0  0  0  0  0  0  0  0  0  0  0  0
  -23.4620  -32.0430   23.7170 O   0  0  0  0  0  0  0  0  0  0  0  0
  -22.6980  -29.3530   22.4730 C   0  0  0  0  0  0  0  0  0  0  0  0
  -21.3730  -29.1670   22.3510 N   0  0  0  0  0  0  0  0  0  0  0  0
  -23.3890  -28.7200   23.2740 O   0  0  0  0  0  0  0  0  0  0  0  0
  -20.8790  -29.7240   21.6680 H   0  0  0  0  0  0  0  0  0  0  0  0
  -18.0060  -27.9620   22.8610 C   0  0  0  0  0  0  0  0  0  0  0  0
  -20.5660  -28.2170   23.1140 C   0  0  0  0  0  3  0  0  0  0  0  0
  -20.6670  -26.7950   22.5170 C   0  0  0  0  0  2  0  0  0  0  0  0
  -19.5540  -26.4870   21.5080 C   0  0  0  0  0  2  0  0  0  0  0  0
  -18.1770  -26.6220   22.1640 C   0  0  0  0  0  2  0  0  0  0  0  0
  -19.1280  -28.7180   23.2920 C   0  0  0  0  0  0  0  0  0  0  0  0
  -18.9140  -29.9730   23.9030 C   0  0  0  0  0  3  0  0  0  0  0  0
  -17.6130  -30.4740   24.0850 C   0  0  0  0  0  3  0  0  0  0  0  0
  -16.5050  -29.7150   23.6730 C   0  0  0  0  0  3  0  0  0  0  0  0
  -16.7020  -28.4610   23.0670 C   0  0  0  0  0  3  0  0  0  0  0  0
  -25.8270  -32.4160   23.7900 C   0  0  0  0  0  3  0  0  0  0  0  0
  -25.5130  -33.8090   24.1340 N   0  0  0  0  0  0  0  0  0  0  0  0
  -25.8300  -34.8680   23.3790 C   0  0  0  0  0  0  0  0  0  0  0  0
  -26.4930  -34.7760   22.3430 O   0  0  0  0  0  0  0  0  0  0  0  0
  -24.9240  -33.9560   24.9400 H   0  0  0  0  0  0  0  0  0  0  0  0
  -24.0860  -36.6500   23.0410 C   0  0  0  0  0  1  0  0  0  0  0  0
  -25.3330  -36.2500   23.8470 C   0  0  0  0  0  3  0  0  0  0  0  0
  -27.4640  -37.1430   24.6770 C   0  0  0  0  0  1  0  0  0  0  0  0
  -26.3590  -37.3110   23.7380 N   0  0  0  0  0  0  0  0  0  0  0  0
  -25.9470  -38.2280   23.8920 H   0  0  0  0  0  0  0  0  0  0  0  0
  -26.3560  -31.6360   25.0570 C   0  0  1  0  0  0  0  0  0  0  0  0
  -25.2700  -31.3810   26.1270 C   0  0  0  0  0  1  0  0  0  0  0  0
  -26.9470  -30.2640   24.6500 C   0  0  0  0  0  1  0  0  0  0  0  0
  -27.5040  -32.4320   25.7230 C   0  0  0  0  0  1  0  0  0  0  0  0
  2  1  1  0
  3  7  1  0
  4  3  1  0
  4  8  1  0
  5  6  1  0
  7 21  1  0
  7  5  1  0
  8  2  1  0
  8  9  1  0
  9 10  1  0
  9  6  1  0
 11  9  1  0
 12 21  1  0
 13 18  1  0
 14 15  1  0
 14 13  1  0
 16 15  1  0
 16 25  1  0
 16 17  1  0
 18 12  1  0
 18 17  1  0
 19 12  2  0
 21 20  1  0
 22 23  2  0
 23 42  1  0
 24 23  1  0
 24 27  1  0
 25 26  1  0
 25 22  1  0
 26 24  2  0
 27 28  1  0
 28 29  2  0
 30 33  1  0
 30 29  1  0
 31 30  2  0
 32 31  1  0
 32 27  2  0
 33 34  1  0
 34 35  1  0
 35 36  2  0
 37 36  1  0
 37 41  1  0
 38 37  2  0
 39 34  2  0
 39 38  1  0
 40 39  1  0
 42 43  1  0
 43 46  1  0
 43 45  1  0
 44 42  2  0
 47 48  1  0
 47 22  1  0
 49 47  1  0
 50  2  1  0
 50 51  1  0
 51 55  1  0
 51 52  1  0
 53 51  1  0
 55 56  1  0
 55 54  1  0
 56 57  1  0
 57 59  1  0
 58 69  2  0
 59 64  1  0
 60 68  1  0
 60 70  1  0
 61 67  1  0
 61 63  1  0
 62 68  1  0
 63 62  1  0
 64 63  2  0
 65 66  1  0
 65 59  2  0
 66 61  2  0
 67 60  1  0
 68 58  1  0
 70 72  2  0
 71 70  1  0
 73 71  1  0
 74 83  2  0
 74 79  1  0
 75 71  1  0
 75 79  1  0
 76 75  1  0
 77 78  1  0
 77 76  1  0
 78 74  1  0
 79 80  2  0
 80 81  1  0
 82 81  2  0
 83 82  1  0
 84 58  1  0
 84 85  1  0
 84 94  1  0
 85 88  1  0
 86 90  1  0
 86 85  1  0
 87 86  2  0
 90 89  1  0
 92 90  1  0
 92 93  1  0
 92 91  1  0
 94 97  1  1
 94 95  1  0
 96 94  1  0
M  ISO  4  12 100  21 100  56 101  57 101
M  END
>  <TORSDO>  (36) 
F 21

>  <SCORE>  (36) 
-11.954

>  <name>  (36) 
35

>  <ligand_id>  (36) 
35

>  <original_smiles>  (36) 
[H]c1c([H])c([H])c2c(c1[H])C([H])([H])C([H])([H])C([H])([H])C2([H])N([H])C(=O)C1([H])N(C(=O)C([H])(N([H])C(=O)C([H])(N([H])C([H])([H])[H])C([H])([H])[H])C(C([H])([H])[H])(C([H])([H])[H])C([H])([H])[H])C([H])([H])c2c([H])c(OC([H])([H])C([H])(C([H])([H])[H])[N+]([H])([H])C([H])([H])C([H])(C([H])([H])[H])C3([H])C([H])([H])C([H])([H])C([H])(N(C(=O)N4C([H])([H])C([H])([H])C([H])([H])C([H])(n5nc(-c6c([H])c([H])c(Oc7c([H])c([H])c(F)c([H])c7F)c([H])c6[H])c(C(=O)N([H])[H])c5N([H])[H])C4([H])[H])C([H])([H])[H])C([H])([H])C([H])([H])[N+]3([H])[H])c([H])c([H])c2C1([H])[H]

>  <smiles>  (36) 
[H]c1c([H])c([H])c2c(c1[H])C([H])([H])C([H])([H])C([H])([H])C2([H])N([H])C(=O)C1([H])N(C(=O)C([H])(N([H])C(=O)C([H])(N([H])C([H])([H])[H])C([H])([H])[H])C(C([H])([H])[H])(C([H])([H])[H])C([H])([H])[H])C([H])([H])c2c([H])c(OC([H])([H])C([H])(C([H])([H])[H])[N+]([H])([H])C([H])([H])C([H])(C([H])([H])[H])C3([H])C([H])([H])C([H])([H])C([H])(N(C(=O)N4C([H])([H])C([H])([H])C([H])([H])C([H])(n5nc(-c6c([H])c([H])c(Oc7c([H])c([H])c(F)c([H])c7F)c([H])c6[H])c(C(=O)N([H])[H])c5N([H])[H])C4([H])[H])C([H])([H])[H])C([H])([H])C([H])([H])[N+]3([H])[H])c([H])c([H])c2C1([H])[H]

$$$$
36:0:0
     RDKit          3D

 83 87  0  0  1  0  0  0  0  0999 V2000
  -28.2210  -23.3020   20.4940 C   0  0  0  0  0 15  0  0  0  0  0  0
  -29.7530  -21.6320   18.7720 C   0  0  0  0  0  1  0  0  0  0  0  0
  -28.7670  -21.3500   19.9090 C   0  0  0  0  0  1  0  0  0  0  0  0
  -29.3500  -19.4110   20.4900 C   0  0  0  0  0  1  0  0  0  0  0  0
  -30.1140  -16.0580   20.1340 C   0  0  0  0  0  0  0  0  0  0  0  0
  -30.3020  -13.4330   19.3050 C   0  0  0  0  0  2  0  0  0  0  0  0
  -29.4380  -12.8330   18.1470 C   0  0  0  0  0  2  0  0  0  0  0  0
  -28.0510  -12.4020   18.6400 C   0  0  0  0  0  2  0  0  0  0  0  0
  -27.4980  -13.4290   19.6480 C   0  0  0  0  0  3  0  0  0  0  0  0
  -28.5220  -13.8970   20.7180 C   0  0  0  0  0  2  0  0  0  0  0  0
  -29.6120  -14.6400   20.0080 N   0  0  0  0  0  0  0  0  0  0  0  0
  -31.3590  -15.9110   20.0830 O   0  0  0  0  0  0  0  0  0  0  0  0
  -29.3760  -17.5310   20.1330 N   0  0  0  0  0  0  0  0  0  0  0  0
  -28.4100  -17.2900   19.9600 H   0  0  0  0  0  0  0  0  0  0  0  0
  -25.1500  -13.9280   20.4450 C   0  0  0  0  0  0  0  0  0  0  0  0
  -24.0980  -13.1430   20.8180 C   0  0  0  0  0  0  0  0  0  0  0  0
  -24.5760  -11.7960   20.7850 C   0  0  0  0  0  0  0  0  0  0  0  0
  -26.1980  -13.0660   20.1950 N   0  0  0  0  0  0  0  0  0  0  0  0
  -25.8680  -11.7730   20.4640 N   0  0  0  0  0  0  0  0  0  0  0  0
  -23.8520  -10.5310   20.9810 C   0  0  0  0  0  0  0  0  0  0  0  0
  -24.2900   -9.5630   21.9110 C   0  0  0  0  0  3  0  0  0  0  0  0
  -23.5590   -8.3680   22.0990 C   0  0  0  0  0  3  0  0  0  0  0  0
  -22.3760   -8.1340   21.3590 C   0  0  0  0  0  0  0  0  0  0  0  0
  -21.9560   -9.0920   20.4190 C   0  0  0  0  0  3  0  0  0  0  0  0
  -22.6870  -10.2770   20.2290 C   0  0  0  0  0  3  0  0  0  0  0  0
  -21.6180   -6.9930   21.4560 O   0  0  0  0  0  0  0  0  0  0  0  0
  -21.5840   -6.2460   22.6070 C   0  0  0  0  0  0  0  0  0  0  0  0
  -21.1870   -6.8000   23.8440 C   0  0  0  0  0  3  0  0  0  0  0  0
  -21.1010   -5.9800   24.9870 C   0  0  0  0  0  3  0  0  0  0  0  0
  -21.4020   -4.6080   24.8950 C   0  0  0  0  0  0  0  0  0  0  0  0
  -21.7930   -4.0530   23.6640 C   0  0  0  0  0  3  0  0  0  0  0  0
  -21.8800   -4.8700   22.5230 C   0  0  0  0  0  0  0  0  0  0  0  0
  -22.2360   -4.3260   21.3340 F   0  0  0  0  0  0  0  0  0  0  0  0
  -21.3130   -3.8190   25.9910 F   0  0  0  0  0  0  0  0  0  0  0  0
  -22.6990  -13.6150   21.0870 C   0  0  0  0  0  0  0  0  0  0  0  0
  -21.9760  -12.9240   21.9590 N   0  0  0  0  0  0  0  0  0  0  0  0
  -22.2600  -14.6360   20.5570 O   0  0  0  0  0  0  0  0  0  0  0  0
  -22.3470  -12.1010   22.4100 H   0  0  0  0  0  0  0  0  0  0  0  0
  -21.0370  -13.2240   22.1830 H   0  0  0  0  0  0  0  0  0  0  0  0
  -25.2980  -15.3000   20.2600 N   0  0  0  0  0  0  0  0  0  0  0  0
  -24.5250  -15.9480   20.3710 H   0  0  0  0  0  0  0  0  0  0  0  0
  -26.1390  -15.7410   19.9140 H   0  0  0  0  0  0  0  0  0  0  0  0
  -28.1790  -25.1830   20.2260 O   0  0  0  0  0  1  0  0  0  0  0  0
  -24.6310  -31.7980   23.1340 C   0  0  0  0  0  0  0  0  0  0  0  0
  -27.2010  -26.4870   20.2560 C   0  0  0  0  0  0  0  0  0  0  0  0
  -23.4740  -30.3690   21.5090 C   0  0  0  0  0  3  0  0  0  0  0  0
  -24.9430  -28.6620   20.1490 C   0  0  0  0  0  0  0  0  0  0  0  0
  -26.0640  -30.4560   21.4320 C   0  0  0  0  0  2  0  0  0  0  0  0
  -26.1400  -28.9880   20.7980 C   0  0  0  0  0  0  0  0  0  0  0  0
  -27.2430  -27.9390   20.8040 C   0  0  0  0  0  3  0  0  0  0  0  0
  -25.9610  -26.4350   19.5510 C   0  0  0  0  0  3  0  0  0  0  0  0
  -24.9060  -27.4150   19.5000 C   0  0  0  0  0  3  0  0  0  0  0  0
  -23.7410  -29.6380   20.1590 C   0  0  0  0  0  2  0  0  0  0  0  0
  -24.7500  -30.9140   22.0770 N   0  0  0  0  0  0  0  0  0  0  0  0
  -23.5260  -32.1060   23.6200 O   0  0  0  0  0  0  0  0  0  0  0  0
  -22.7340  -29.4180   22.4920 C   0  0  0  0  0  0  0  0  0  0  0  0
  -21.3960  -29.2860   22.3760 N   0  0  0  0  0  0  0  0  0  0  0  0
  -23.3790  -28.7940   23.3380 O   0  0  0  0  0  0  0  0  0  0  0  0
  -20.9220  -29.8380   21.6760 H   0  0  0  0  0  0  0  0  0  0  0  0
  -17.9960  -28.1080   22.9280 C   0  0  0  0  0  0  0  0  0  0  0  0
  -20.5630  -28.3590   23.1560 C   0  0  0  0  0  3  0  0  0  0  0  0
  -20.6440  -26.9240   22.5820 C   0  0  0  0  0  2  0  0  0  0  0  0
  -19.5290  -26.6140   21.5780 C   0  0  0  0  0  2  0  0  0  0  0  0
  -18.1550  -26.7630   22.2390 C   0  0  0  0  0  2  0  0  0  0  0  0
  -19.1260  -28.8640   23.3430 C   0  0  0  0  0  0  0  0  0  0  0  0
  -18.9170  -30.1190   23.9560 C   0  0  0  0  0  3  0  0  0  0  0  0
  -17.6160  -30.6190   24.1520 C   0  0  0  0  0  3  0  0  0  0  0  0
  -16.5030  -29.8620   23.7470 C   0  0  0  0  0  3  0  0  0  0  0  0
  -16.6940  -28.6070   23.1410 C   0  0  0  0  0  3  0  0  0  0  0  0
  -25.8720  -32.4770   23.7870 C   0  0  0  0  0  3  0  0  0  0  0  0
  -25.5220  -33.8740   24.1250 N   0  0  0  0  0  0  0  0  0  0  0  0
  -25.8400  -34.9550   23.3980 C   0  0  0  0  0  0  0  0  0  0  0  0
  -26.5110  -34.8820   22.3670 O   0  0  0  0  0  0  0  0  0  0  0  0
  -24.9200  -34.0030   24.9260 H   0  0  0  0  0  0  0  0  0  0  0  0
  -24.0820  -36.7400   23.1050 C   0  0  0  0  0  1  0  0  0  0  0  0
  -25.3410  -36.3330   23.8870 C   0  0  0  0  0  3  0  0  0  0  0  0
  -27.4730  -37.2460   24.7010 C   0  0  0  0  0  1  0  0  0  0  0  0
  -26.3550  -37.4060   23.7750 N   0  0  0  0  0  0  0  0  0  0  0  0
  -25.9360  -38.3160   23.9390 H   0  0  0  0  0  0  0  0  0  0  0  0
  -26.3690  -31.7320   25.0890 C   0  0  1  0  0  0  0  0  0  0  0  0
  -25.2570  -31.5010   26.1410 C   0  0  0  0  0  1  0  0  0  0  0  0
  -26.9740  -30.3530   24.7470 C   0  0  0  0  0  1  0  0  0  0  0  0
  -27.5000  -32.5480   25.7610 C   0  0  0  0  0  1  0  0  0  0  0  0
  2  3  1  0
  6 11  1  0
  7  8  1  0
  7  6  1  0
  9  8  1  0
  9 18  1  0
  9 10  1  0
 11  5  1  0
 11 10  1  0
 12  5  2  0
 13  5  1  0
 13  4  1  0
 14 13  1  0
 15 16  2  0
 16 35  1  0
 17 16  1  0
 17 20  1  0
 18 15  1  0
 18 19  1  0
 19 17  2  0
 20 21  1  0
 21 22  2  0
 23 26  1  0
 23 22  1  0
 24 23  2  0
 25 24  1  0
 25 20  2  0
 26 27  1  0
 27 28  1  0
 28 29  2  0
 30 29  1  0
 30 34  1  0
 31 30  2  0
 32 27  2  0
 32 31  1  0
 33 32  1  0
 35 36  1  0
 36 39  1  0
 36 38  1  0
 37 35  2  0
 40 41  1  0
 40 15  1  0
 42 40  1  0
 43 45  1  0
 44 55  2  0
 45 50  1  0
 46 54  1  0
 46 56  1  0
 47 53  1  0
 47 49  1  0
 48 54  1  0
 49 50  2  0
 49 48  1  0
 51 45  2  0
 52 51  1  0
 52 47  2  0
 53 46  1  0
 54 44  1  0
 56 58  2  0
 57 56  1  0
 59 57  1  0
 60 69  2  0
 60 65  1  0
 61 57  1  0
 61 65  1  0
 62 61  1  0
 63 64  1  0
 63 62  1  0
 64 60  1  0
 65 66  2  0
 66 67  1  0
 68 67  2  0
 69 68  1  0
 70 44  1  0
 70 71  1  0
 70 80  1  0
 71 74  1  0
 72 76  1  0
 72 71  1  0
 73 72  2  0
 76 75  1  0
 78 76  1  0
 78 79  1  0
 78 77  1  0
 80 83  1  1
 80 81  1  0
 82 80  1  0
M  ISO  4   1 101   5 100  13 100  43 101
M  END
>  <TORSDO>  (37) 
F 18

>  <SCORE>  (37) 
-16.099

>  <name>  (37) 
36

>  <ligand_id>  (37) 
36

>  <original_smiles>  (37) 
[H]c1c([H])c([H])c2c(c1[H])C([H])([H])C([H])([H])C([H])([H])C2([H])N([H])C(=O)C1([H])N(C(=O)C([H])(N([H])C(=O)C([H])(N([H])C([H])([H])[H])C([H])([H])[H])C(C([H])([H])[H])(C([H])([H])[H])C([H])([H])[H])C([H])([H])c2c([H])c(OC([H])([H])C([H])(C([H])([H])[H])C([H])([H])N([H])C(=O)N3C([H])([H])C([H])([H])C([H])([H])C([H])(n4nc(-c5c([H])c([H])c(Oc6c([H])c([H])c(F)c([H])c6F)c([H])c5[H])c(C(=O)N([H])[H])c4N([H])[H])C3([H])[H])c([H])c([H])c2C1([H])[H]

>  <smiles>  (37) 
[H]c1c([H])c([H])c2c(c1[H])C([H])([H])C([H])([H])C([H])([H])C2([H])N([H])C(=O)C1([H])N(C(=O)C([H])(N([H])C(=O)C([H])(N([H])C([H])([H])[H])C([H])([H])[H])C(C([H])([H])[H])(C([H])([H])[H])C([H])([H])[H])C([H])([H])c2c([H])c(OC([H])([H])C([H])(C([H])([H])[H])C([H])([H])N([H])C(=O)N3C([H])([H])C([H])([H])C([H])([H])C([H])(n4nc(-c5c([H])c([H])c(Oc6c([H])c([H])c(F)c([H])c6F)c([H])c5[H])c(C(=O)N([H])[H])c4N([H])[H])C3([H])[H])c([H])c([H])c2C1([H])[H]

$$$$
37:0:0
     RDKit          3D

 89 97  0  0  1  0  0  0  0  0999 V2000
  -28.4400  -20.5420   19.5370 C   0  0  0  0  0  2  0  0  0  0  0  0
  -30.5730  -20.8460   20.5220 C   0  0  0  0  0  2  0  0  0  0  0  0
  -28.4990  -18.9560   19.9390 C   0  0  0  0  0  2  0  0  0  0  0  0
  -30.6530  -19.2660   20.9240 C   0  0  0  0  0  2  0  0  0  0  0  0
  -29.1720  -21.6230   20.4520 C   0  0  0  0  0  3  0  0  0  0  0  0
  -29.8830  -18.1330   20.0860 C   0  0  0  0  0  3  0  0  0  0  0  0
  -30.2000  -16.5120   22.1450 C   0  0  0  0  0  1  0  0  0  0  0  0
  -29.8390  -16.4830   20.6470 C   0  0  2  0  0  0  0  0  0  0  0  0
  -30.5940  -15.0670   20.0580 C   0  0  0  0  0  0  0  0  0  0  0  0
  -30.4610  -12.7300   19.0050 C   0  0  0  0  0  2  0  0  0  0  0  0
  -29.4520  -12.7100   17.8290 C   0  0  0  0  0  2  0  0  0  0  0  0
  -28.0150  -12.4680   18.3310 C   0  0  0  0  0  2  0  0  0  0  0  0
  -27.6780  -13.3480   19.5580 C   0  0  0  0  0  3  0  0  0  0  0  0
  -28.7970  -13.2880   20.6230 C   0  0  0  0  0  2  0  0  0  0  0  0
  -30.0290  -13.7790   19.9830 N   0  0  0  0  0  0  0  0  0  0  0  0
  -31.7490  -15.1460   19.6190 O   0  0  0  0  0  0  0  0  0  0  0  0
  -25.3410  -13.9380   20.4240 C   0  0  0  0  0  0  0  0  0  0  0  0
  -24.2900  -13.1650   20.8310 C   0  0  0  0  0  0  0  0  0  0  0  0
  -24.7420  -11.8120   20.7530 C   0  0  0  0  0  0  0  0  0  0  0  0
  -26.3640  -13.0550   20.1170 N   0  0  0  0  0  0  0  0  0  0  0  0
  -26.0160  -11.7710   20.3800 N   0  0  0  0  0  0  0  0  0  0  0  0
  -24.0170  -10.5520   20.9570 C   0  0  0  0  0  0  0  0  0  0  0  0
  -24.4710   -9.5770   21.8720 C   0  0  0  0  0  3  0  0  0  0  0  0
  -23.7450   -8.3820   22.0630 C   0  0  0  0  0  3  0  0  0  0  0  0
  -22.5500   -8.1540   21.3400 C   0  0  0  0  0  0  0  0  0  0  0  0
  -22.1150   -9.1170   20.4130 C   0  0  0  0  0  3  0  0  0  0  0  0
  -22.8420  -10.3030   20.2200 C   0  0  0  0  0  3  0  0  0  0  0  0
  -21.7930   -7.0110   21.4420 O   0  0  0  0  0  0  0  0  0  0  0  0
  -21.7470   -6.2800   22.6020 C   0  0  0  0  0  0  0  0  0  0  0  0
  -21.3230   -6.8470   23.8230 C   0  0  0  0  0  3  0  0  0  0  0  0
  -21.2240   -6.0420   24.9750 C   0  0  0  0  0  3  0  0  0  0  0  0
  -21.5370   -4.6720   24.9080 C   0  0  0  0  0  0  0  0  0  0  0  0
  -21.9540   -4.1050   23.6910 C   0  0  0  0  0  3  0  0  0  0  0  0
  -22.0550   -4.9060   22.5400 C   0  0  0  0  0  0  0  0  0  0  0  0
  -22.4370   -4.3500   21.3650 F   0  0  0  0  0  0  0  0  0  0  0  0
  -21.4340   -3.8960   26.0120 F   0  0  0  0  0  0  0  0  0  0  0  0
  -22.9120  -13.6470   21.1800 C   0  0  0  0  0  0  0  0  0  0  0  0
  -22.2260  -12.9450   22.0770 N   0  0  0  0  0  0  0  0  0  0  0  0
  -22.4530  -14.6800   20.6950 O   0  0  0  0  0  0  0  0  0  0  0  0
  -22.6110  -12.1080   22.4890 H   0  0  0  0  0  0  0  0  0  0  0  0
  -21.3050  -13.2500   22.3550 H   0  0  0  0  0  0  0  0  0  0  0  0
  -25.5080  -15.3110   20.2690 N   0  0  0  0  0  0  0  0  0  0  0  0
  -24.7580  -15.9710   20.4430 H   0  0  0  0  0  0  0  0  0  0  0  0
  -26.3760  -15.7660   19.9910 H   0  0  0  0  0  0  0  0  0  0  0  0
  -28.4450  -16.2480   20.6540 O   0  0  0  0  0  0  0  0  0  0  0  0
  -28.2830  -15.5570   21.2840 H   0  0  0  0  0  0  0  0  0  0  0  0
  -29.2220  -23.3050   20.0760 C   0  0  0  0  0  3  0  0  0  0  0  0
  -28.1110  -24.5730   20.3360 C   0  0  0  0  0  3  0  0  0  0  0  0
  -28.3470  -26.1300   20.2340 O   0  0  0  0  0  0  0  0  0  0  0  0
  -24.6160  -31.8370   23.1510 C   0  0  0  0  0  0  0  0  0  0  0  0
  -27.2750  -27.1080   20.1800 C   0  0  0  0  0  0  0  0  0  0  0  0
  -23.4500  -30.4200   21.5070 C   0  0  0  0  0  3  0  0  0  0  0  0
  -24.9300  -28.8480   20.1090 C   0  0  0  0  0  0  0  0  0  0  0  0
  -26.0050  -30.7040   21.3710 C   0  0  0  0  0  2  0  0  0  0  0  0
  -26.1010  -29.3070   20.7260 C   0  0  0  0  0  0  0  0  0  0  0  0
  -27.2740  -28.4550   20.7380 C   0  0  0  0  0  3  0  0  0  0  0  0
  -26.0740  -26.7610   19.5210 C   0  0  0  0  0  3  0  0  0  0  0  0
  -24.9310  -27.5900   19.4900 C   0  0  0  0  0  3  0  0  0  0  0  0
  -23.6940  -29.7360   20.1360 C   0  0  0  0  0  2  0  0  0  0  0  0
  -24.7100  -31.0100   22.0640 N   0  0  0  0  0  0  0  0  0  0  0  0
  -23.5210  -32.1140   23.6640 O   0  0  0  0  0  0  0  0  0  0  0  0
  -22.7690  -29.4130   22.4670 C   0  0  0  0  0  0  0  0  0  0  0  0
  -21.4440  -29.2270   22.3260 N   0  0  0  0  0  0  0  0  0  0  0  0
  -23.4350  -28.8010   23.3060 O   0  0  0  0  0  0  0  0  0  0  0  0
  -20.9630  -29.7710   21.6240 H   0  0  0  0  0  0  0  0  0  0  0  0
  -18.0750  -27.9640   22.7670 C   0  0  0  0  0  0  0  0  0  0  0  0
  -20.6220  -28.2860   23.0930 C   0  0  0  0  0  3  0  0  0  0  0  0
  -20.7680  -26.8470   22.5460 C   0  0  0  0  0  2  0  0  0  0  0  0
  -19.6980  -26.4830   21.5110 C   0  0  0  0  0  2  0  0  0  0  0  0
  -18.2980  -26.6080   22.1190 C   0  0  0  0  0  2  0  0  0  0  0  0
  -19.1670  -28.7580   23.2100 C   0  0  0  0  0  0  0  0  0  0  0  0
  -18.9060  -30.0230   23.7800 C   0  0  0  0  0  3  0  0  0  0  0  0
  -17.5870  -30.4960   23.9080 C   0  0  0  0  0  3  0  0  0  0  0  0
  -16.5100  -29.7000   23.4820 C   0  0  0  0  0  3  0  0  0  0  0  0
  -16.7550  -28.4370   22.9180 C   0  0  0  0  0  3  0  0  0  0  0  0
  -25.8800  -32.4910   23.7890 C   0  0  0  0  0  3  0  0  0  0  0  0
  -26.3920  -31.7240   25.0710 C   0  0  1  0  0  0  0  0  0  0  0  0
  -25.2900  -31.4720   26.1270 C   0  0  0  0  0  1  0  0  0  0  0  0
  -26.9980  -30.3540   24.6900 C   0  0  0  0  0  1  0  0  0  0  0  0
  -27.5250  -32.5340   25.7450 C   0  0  0  0  0  1  0  0  0  0  0  0
  -25.5420  -33.8830   24.1260 N   0  0  0  0  0  0  0  0  0  0  0  0
  -25.8680  -34.9500   23.3850 C   0  0  0  0  0  0  0  0  0  0  0  0
  -26.5490  -34.8670   22.3600 O   0  0  0  0  0  0  0  0  0  0  0  0
  -24.9350  -34.0200   24.9200 H   0  0  0  0  0  0  0  0  0  0  0  0
  -24.1190  -36.7300   23.0380 C   0  0  0  0  0  1  0  0  0  0  0  0
  -25.3590  -36.3280   23.8550 C   0  0  0  0  0  3  0  0  0  0  0  0
  -27.4740  -37.2340   24.7150 C   0  0  0  0  0  1  0  0  0  0  0  0
  -26.3790  -37.3960   23.7620 N   0  0  0  0  0  0  0  0  0  0  0  0
  -25.9600  -38.3100   23.9140 H   0  0  0  0  0  0  0  0  0  0  0  0
  1  3  1  0
  1  5  1  0
  2  4  1  0
  3  6  1  0
  5 47  1  0
  5  2  1  0
  6  8  1  0
  6  4  1  0
  8 45  1  0
  8  7  1  1
  9  8  1  0
 10 15  1  0
 11 12  1  0
 11 10  1  0
 13 12  1  0
 13 20  1  0
 13 14  1  0
 15  9  1  0
 15 14  1  0
 16  9  2  0
 17 18  2  0
 18 37  1  0
 19 18  1  0
 19 22  1  0
 20 21  1  0
 20 17  1  0
 21 19  2  0
 22 23  1  0
 23 24  2  0
 25 28  1  0
 25 24  1  0
 26 25  2  0
 27 26  1  0
 27 22  2  0
 28 29  1  0
 29 30  1  0
 30 31  2  0
 32 31  1  0
 32 36  1  0
 33 32  2  0
 34 29  2  0
 34 33  1  0
 35 34  1  0
 37 38  1  0
 38 41  1  0
 38 40  1  0
 39 37  2  0
 42 17  1  0
 42 43  1  0
 44 42  1  0
 45 46  1  0
 47 48  2  0
 49 48  1  0
 50 61  2  0
 51 49  1  0
 51 56  1  0
 52 60  1  0
 52 62  1  0
 53 59  1  0
 53 55  1  0
 54 60  1  0
 55 56  2  0
 55 54  1  0
 57 51  2  0
 58 57  1  0
 58 53  2  0
 59 52  1  0
 60 50  1  0
 62 64  2  0
 63 62  1  0
 65 63  1  0
 66 75  2  0
 66 71  1  0
 67 63  1  0
 67 71  1  0
 68 67  1  0
 69 70  1  0
 69 68  1  0
 70 66  1  0
 71 72  2  0
 72 73  1  0
 74 73  2  0
 75 74  1  0
 76 50  1  0
 76 81  1  0
 76 77  1  0
 77 80  1  1
 77 78  1  0
 79 77  1  0
 81 84  1  0
 82 86  1  0
 82 81  1  0
 83 82  2  0
 86 85  1  0
 88 86  1  0
 88 89  1  0
 88 87  1  0
M  ISO  4   8 100   9 100  48 101  49 101
M  END
>  <TORSDO>  (38) 
F 20

>  <SCORE>  (38) 
-15.950

>  <name>  (38) 
37

>  <ligand_id>  (38) 
37

>  <original_smiles>  (38) 
[H]OC(C(=O)N1C([H])([H])C([H])([H])C([H])([H])C([H])(n2nc(-c3c([H])c([H])c(Oc4c([H])c([H])c(F)c([H])c4F)c([H])c3[H])c(C(=O)N([H])[H])c2N([H])[H])C1([H])[H])(C([H])([H])[H])C1([H])C([H])([H])C([H])([H])C([H])(C([H])([H])C([H])([H])Oc2c([H])c([H])c3c(c2[H])C([H])([H])N(C(=O)C([H])(N([H])C(=O)C([H])(N([H])C([H])([H])[H])C([H])([H])[H])C(C([H])([H])[H])(C([H])([H])[H])C([H])([H])[H])C([H])(C(=O)N([H])C2([H])c4c([H])c([H])c([H])c([H])c4C([H])([H])C([H])([H])C2([H])[H])C3([H])[H])C([H])([H])C1([H])[H]

>  <smiles>  (38) 
[H]OC(C(=O)N1C([H])([H])C([H])([H])C([H])([H])C([H])(n2nc(-c3c([H])c([H])c(Oc4c([H])c([H])c(F)c([H])c4F)c([H])c3[H])c(C(=O)N([H])[H])c2N([H])[H])C1([H])[H])(C([H])([H])[H])C1([H])C([H])([H])C([H])([H])C([H])(C([H])([H])C([H])([H])Oc2c([H])c([H])c3c(c2[H])C([H])([H])N(C(=O)C([H])(N([H])C(=O)C([H])(N([H])C([H])([H])[H])C([H])([H])[H])C(C([H])([H])[H])(C([H])([H])[H])C([H])([H])[H])C([H])(C(=O)N([H])C2([H])c4c([H])c([H])c([H])c([H])c4C([H])([H])C([H])([H])C2([H])[H])C3([H])[H])C([H])([H])C1([H])[H]

$$$$
38:0:0
     RDKit          3D

101109  0  0  1  0  0  0  0  0999 V2000
  -28.5900  -20.3830   20.9830 C   0  0  0  0  0  3  0  0  0  0  0  0
  -29.0660  -19.0580   20.7520 C   0  0  0  0  0  3  0  0  0  0  0  0
  -29.2340  -21.5270   20.4450 C   0  0  0  0  0  0  0  0  0  0  0  0
  -30.2640  -18.7920   20.0340 C   0  0  0  0  0  0  0  0  0  0  0  0
  -30.3430  -21.2760   19.5980 C   0  0  0  0  0  0  0  0  0  0  0  0
  -30.9360  -19.9570   19.4680 C   0  0  0  0  0  0  0  0  0  0  0  0
  -30.9100  -22.5210   18.9160 C   0  0  0  0  0  1  0  0  0  0  0  0
  -28.9110  -22.9930   20.9540 C   0  0  0  0  0  2  0  0  0  0  0  0
  -28.0040  -24.0200   20.1460 C   0  0  0  0  0  2  0  0  0  0  0  0
  -28.6160  -25.3910   19.6090 C   0  0  0  0  0  2  0  0  0  0  0  0
  -28.4270  -26.6830   20.2750 O   0  0  0  0  0  0  0  0  0  0  0  0
  -24.5620  -31.9220   23.2340 C   0  0  0  0  0  0  0  0  0  0  0  0
  -27.2660  -27.4530   20.1670 C   0  0  0  0  0  0  0  0  0  0  0  0
  -23.3820  -30.5180   21.5770 C   0  0  0  0  0  3  0  0  0  0  0  0
  -24.8630  -28.9990   20.1400 C   0  0  0  0  0  0  0  0  0  0  0  0
  -25.9090  -30.8890   21.3990 C   0  0  0  0  0  2  0  0  0  0  0  0
  -26.0130  -29.5160   20.7480 C   0  0  0  0  0  0  0  0  0  0  0  0
  -27.2120  -28.7520   20.7520 C   0  0  0  0  0  3  0  0  0  0  0  0
  -26.0980  -26.9760   19.5320 C   0  0  0  0  0  3  0  0  0  0  0  0
  -24.9080  -27.7360   19.5250 C   0  0  0  0  0  3  0  0  0  0  0  0
  -23.6060  -29.8480   20.1930 C   0  0  0  0  0  2  0  0  0  0  0  0
  -24.6360  -31.1270   22.1270 N   0  0  0  0  0  0  0  0  0  0  0  0
  -23.4740  -32.1830   23.7680 O   0  0  0  0  0  0  0  0  0  0  0  0
  -22.7340  -29.4880   22.5300 C   0  0  0  0  0  0  0  0  0  0  0  0
  -21.4090  -29.2970   22.3950 N   0  0  0  0  0  0  0  0  0  0  0  0
  -23.4180  -28.8630   23.3450 O   0  0  0  0  0  0  0  0  0  0  0  0
  -20.9190  -29.8460   21.7030 H   0  0  0  0  0  0  0  0  0  0  0  0
  -18.0370  -28.0960   22.9060 C   0  0  0  0  0  0  0  0  0  0  0  0
  -20.6000  -28.3430   23.1550 C   0  0  0  0  0  3  0  0  0  0  0  0
  -20.6920  -26.9230   22.5500 C   0  0  0  0  0  2  0  0  0  0  0  0
  -19.5800  -26.6260   21.5390 C   0  0  0  0  0  2  0  0  0  0  0  0
  -18.2040  -26.7620   22.1990 C   0  0  0  0  0  2  0  0  0  0  0  0
  -19.1620  -28.8450   23.3420 C   0  0  0  0  0  0  0  0  0  0  0  0
  -18.9550  -30.0960   23.9620 C   0  0  0  0  0  3  0  0  0  0  0  0
  -17.6520  -30.5970   24.1510 C   0  0  0  0  0  3  0  0  0  0  0  0
  -16.5410  -29.8430   23.7320 C   0  0  0  0  0  3  0  0  0  0  0  0
  -16.7350  -28.5950   23.1170 C   0  0  0  0  0  3  0  0  0  0  0  0
  -25.8350  -32.5640   23.8670 C   0  0  0  0  0  3  0  0  0  0  0  0
  -26.3360  -31.8090   25.1610 C   0  0  1  0  0  0  0  0  0  0  0  0
  -25.2250  -31.5730   26.2100 C   0  0  0  0  0  1  0  0  0  0  0  0
  -26.9370  -30.4320   24.7930 C   0  0  0  0  0  1  0  0  0  0  0  0
  -27.4710  -32.6190   25.8330 C   0  0  0  0  0  1  0  0  0  0  0  0
  -25.5220  -33.9670   24.1760 N   0  0  0  0  0  0  0  0  0  0  0  0
  -25.8740  -35.0100   23.4130 C   0  0  0  0  0  0  0  0  0  0  0  0
  -26.5700  -34.8930   22.3990 O   0  0  0  0  0  0  0  0  0  0  0  0
  -24.9020  -34.1310   24.9560 H   0  0  0  0  0  0  0  0  0  0  0  0
  -24.1760  -36.8130   22.9790 C   0  0  0  0  0  1  0  0  0  0  0  0
  -25.3790  -36.4040   23.8440 C   0  0  0  0  0  3  0  0  0  0  0  0
  -27.4730  -37.2850   24.7710 C   0  0  0  0  0  1  0  0  0  0  0  0
  -26.4220  -37.4490   23.7700 N   0  0  0  0  0  0  0  0  0  0  0  0
  -26.0180  -38.3740   23.8850 H   0  0  0  0  0  0  0  0  0  0  0  0
  -30.8520  -17.3180   19.9340 C   0  0  0  0  0  2  0  0  0  0  0  0
  -30.8390  -14.8080   20.0170 C   0  0  0  0  0  0  0  0  0  0  0  0
  -30.4740  -12.5940   18.9540 C   0  0  0  0  0  2  0  0  0  0  0  0
  -29.4800  -12.7400   17.7880 C   0  0  0  0  0  2  0  0  0  0  0  0
  -28.0410  -12.5450   18.3010 C   0  0  0  0  0  2  0  0  0  0  0  0
  -27.7390  -13.4080   19.5600 C   0  0  0  0  0  3  0  0  0  0  0  0
  -28.8620  -13.3060   20.6160 C   0  0  0  0  0  2  0  0  0  0  0  0
  -30.1320  -13.6300   19.9570 N   0  0  0  0  0  0  0  0  0  0  0  0
  -31.9850  -14.8540   19.5760 O   0  0  0  0  0  0  0  0  0  0  0  0
  -30.2090  -16.0000   20.3220 N   0  0  0  0  0  0  0  0  0  0  0  0
  -29.2630  -15.9890   20.6630 H   0  0  0  0  0  0  0  0  0  0  0  0
  -25.4040  -13.9700   20.4640 C   0  0  0  0  0  0  0  0  0  0  0  0
  -24.3600  -13.1840   20.8740 C   0  0  0  0  0  0  0  0  0  0  0  0
  -24.8150  -11.8340   20.7590 C   0  0  0  0  0  0  0  0  0  0  0  0
  -26.4280  -13.1000   20.1250 N   0  0  0  0  0  0  0  0  0  0  0  0
  -26.0830  -11.8090   20.3610 N   0  0  0  0  0  0  0  0  0  0  0  0
  -24.0960  -10.5660   20.9420 C   0  0  0  0  0  0  0  0  0  0  0  0
  -24.5220   -9.6050   21.8860 C   0  0  0  0  0  3  0  0  0  0  0  0
  -23.8020   -8.4030   22.0610 C   0  0  0  0  0  3  0  0  0  0  0  0
  -22.6400   -8.1540   21.2910 C   0  0  0  0  0  0  0  0  0  0  0  0
  -22.2350   -9.1030   20.3380 C   0  0  0  0  0  3  0  0  0  0  0  0
  -22.9550  -10.2960   20.1610 C   0  0  0  0  0  3  0  0  0  0  0  0
  -21.8920   -7.0040   21.3780 O   0  0  0  0  0  0  0  0  0  0  0  0
  -21.7670   -6.3120   22.5550 C   0  0  0  0  0  0  0  0  0  0  0  0
  -21.1600   -6.8820   23.6960 C   0  0  0  0  0  3  0  0  0  0  0  0
  -20.9890   -6.1090   24.8610 C   0  0  0  0  0  3  0  0  0  0  0  0
  -21.4130   -4.7660   24.8890 C   0  0  0  0  0  0  0  0  0  0  0  0
  -22.0110   -4.1960   23.7510 C   0  0  0  0  0  3  0  0  0  0  0  0
  -22.1830   -4.9640   22.5880 C   0  0  0  0  0  0  0  0  0  0  0  0
  -22.7410   -4.4050   21.4860 F   0  0  0  0  0  0  0  0  0  0  0  0
  -21.2410   -4.0210   26.0040 F   0  0  0  0  0  0  0  0  0  0  0  0
  -22.9840  -13.6520   21.2500 C   0  0  0  0  0  0  0  0  0  0  0  0
  -22.2960  -12.9140   22.1160 N   0  0  0  0  0  0  0  0  0  0  0  0
  -22.5270  -14.7090   20.8120 O   0  0  0  0  0  0  0  0  0  0  0  0
  -22.6750  -12.0630   22.5040 H   0  0  0  0  0  0  0  0  0  0  0  0
  -21.3750  -13.2130   22.4030 H   0  0  0  0  0  0  0  0  0  0  0  0
  -25.5590  -15.3460   20.3230 N   0  0  0  0  0  0  0  0  0  0  0  0
  -24.7950  -15.9900   20.4870 H   0  0  0  0  0  0  0  0  0  0  0  0
  -26.3740  -15.7980   19.9290 H   0  0  0  0  0  0  0  0  0  0  0  0
  -32.3800  -19.9330   18.8520 C   0  0  0  0  0  3  0  0  0  0  0  0
  -32.8010  -18.7310   18.1130 N   0  0  0  0  0  4  0  0  0  0  0  0
  -32.8910  -17.9380   18.7220 H   0  0  0  0  0  0  0  0  0  0  0  0
  -33.6860  -18.8790   17.6600 H   0  0  0  0  0  0  0  0  0  0  0  0
  -32.1330  -18.5250   17.3890 H   0  0  0  0  0  0  0  0  0  0  0  0
  -33.4390  -20.3780   19.9150 C   0  0  0  0  0  2  0  0  0  0  0  0
  -34.3880  -21.5270   19.4730 C   0  0  0  0  0  2  0  0  0  0  0  0
  -35.6720  -23.5140   20.2690 C   0  0  0  0  0  1  0  0  0  0  0  0
  -35.0040  -22.2400   20.6180 N   0  0  0  0  0  4  0  0  0  0  0  0
  -34.2940  -22.4620   21.2980 H   0  0  0  0  0  0  0  0  0  0  0  0
  -35.6760  -21.6380   21.0670 H   0  0  0  0  0  0  0  0  0  0  0  0
  2  1  1  0
  3  8  1  0
  3  1  2  0
  4  2  2  0
  5  3  1  0
  6  5  2  0
  6  4  1  0
  7  5  1  0
  9  8  1  0
 10  9  1  0
 10 11  1  0
 12 23  2  0
 13 11  1  0
 13 18  1  0
 14 22  1  0
 14 24  1  0
 15 21  1  0
 15 17  1  0
 16 22  1  0
 17 18  2  0
 17 16  1  0
 19 13  2  0
 20 19  1  0
 20 15  2  0
 21 14  1  0
 22 12  1  0
 24 26  2  0
 25 24  1  0
 27 25  1  0
 28 37  2  0
 28 33  1  0
 29 25  1  0
 29 33  1  0
 30 29  1  0
 31 32  1  0
 31 30  1  0
 32 28  1  0
 33 34  2  0
 34 35  1  0
 36 35  2  0
 37 36  1  0
 38 12  1  0
 38 43  1  0
 38 39  1  0
 39 42  1  1
 39 40  1  0
 41 39  1  0
 43 46  1  0
 44 48  1  0
 44 43  1  0
 45 44  2  0
 48 47  1  0
 50 48  1  0
 50 51  1  0
 50 49  1  0
 52  4  1  0
 52 61  1  0
 53 61  1  0
 54 59  1  0
 55 56  1  0
 55 54  1  0
 57 56  1  0
 57 66  1  0
 57 58  1  0
 59 53  1  0
 59 58  1  0
 60 53  2  0
 61 62  1  0
 63 64  2  0
 64 83  1  0
 65 64  1  0
 65 68  1  0
 66 67  1  0
 66 63  1  0
 67 65  2  0
 68 69  1  0
 69 70  2  0
 71 74  1  0
 71 70  1  0
 72 71  2  0
 73 72  1  0
 73 68  2  0
 74 75  1  0
 75 80  2  0
 75 76  1  0
 76 77  2  0
 77 78  1  0
 78 82  1  0
 79 78  2  0
 80 79  1  0
 81 80  1  0
 83 84  1  0
 84 87  1  0
 84 86  1  0
 85 83  2  0
 88 63  1  0
 88 89  1  0
 90 88  1  0
 91  6  1  0
 91 96  1  0
 92 93  1  0
 92 91  1  0
 94 92  1  0
 95 92  1  0
 97 96  1  0
 97 99  1  0
 98 99  1  0
 99101  1  0
 99100  1  0
M  ISO  4  10 101  11 101  53 100  61 100
M  END
>  <TORSDO>  (39) 
F 25

>  <SCORE>  (39) 
-12.248

>  <name>  (39) 
38

>  <ligand_id>  (39) 
38

>  <original_smiles>  (39) 
[H]c1c([H])c([H])c2c(c1[H])C([H])([H])C([H])([H])C([H])([H])C2([H])N([H])C(=O)C1([H])N(C(=O)C([H])(N([H])C(=O)C([H])(N([H])C([H])([H])[H])C([H])([H])[H])C(C([H])([H])[H])(C([H])([H])[H])C([H])([H])[H])C([H])([H])c2c([H])c(OC([H])([H])C([H])([H])C([H])([H])c3c([H])c([H])c(C([H])([H])N([H])C(=O)N4C([H])([H])C([H])([H])C([H])([H])C([H])(n5nc(-c6c([H])c([H])c(Oc7c([H])c([H])c(F)c([H])c7F)c([H])c6[H])c(C(=O)N([H])[H])c5N([H])[H])C4([H])[H])c(C([H])(C([H])([H])C([H])([H])[N+]([H])([H])C([H])([H])[H])[N+]([H])([H])[H])c3C([H])([H])[H])c([H])c([H])c2C1([H])[H]

>  <smiles>  (39) 
[H]c1c([H])c([H])c2c(c1[H])C([H])([H])C([H])([H])C([H])([H])C2([H])N([H])C(=O)C1([H])N(C(=O)C([H])(N([H])C(=O)C([H])(N([H])C([H])([H])[H])C([H])([H])[H])C(C([H])([H])[H])(C([H])([H])[H])C([H])([H])[H])C([H])([H])c2c([H])c(OC([H])([H])C([H])([H])C([H])([H])c3c([H])c([H])c(C([H])([H])N([H])C(=O)N4C([H])([H])C([H])([H])C([H])([H])C([H])(n5nc(-c6c([H])c([H])c(Oc7c([H])c([H])c(F)c([H])c7F)c([H])c6[H])c(C(=O)N([H])[H])c5N([H])[H])C4([H])[H])c(C([H])(C([H])([H])C([H])([H])[N+]([H])([H])C([H])([H])[H])[N+]([H])([H])[H])c3C([H])([H])[H])c([H])c([H])c2C1([H])[H]

$$$$
39:0:0
     RDKit          3D

 84 91  0  0  1  0  0  0  0  0999 V2000
  -30.2630  -15.8890   20.2800 C   0  0  0  0  0  0  0  0  0  0  0  0
  -30.3890  -13.2780   19.5260 C   0  0  0  0  0  2  0  0  0  0  0  0
  -29.5590  -12.7170   18.3310 C   0  0  0  0  0  2  0  0  0  0  0  0
  -28.1470  -12.3240   18.7790 C   0  0  0  0  0  2  0  0  0  0  0  0
  -27.5760  -13.3710   19.7580 C   0  0  0  0  0  3  0  0  0  0  0  0
  -28.5630  -13.8310   20.8650 C   0  0  0  0  0  2  0  0  0  0  0  0
  -29.7040  -14.5080   20.1850 N   0  0  0  0  0  0  0  0  0  0  0  0
  -31.4990  -15.7020   20.1790 O   0  0  0  0  0  0  0  0  0  0  0  0
  -29.9140  -20.4900   19.5710 C   0  0  0  0  0  2  0  0  0  0  0  0
  -27.9800  -20.0390   20.3860 C   0  0  0  0  0  2  0  0  0  0  0  0
  -30.4550  -18.8200   19.9620 C   0  0  0  0  0  2  0  0  0  0  0  0
  -28.4760  -18.3370   20.7330 C   0  0  0  0  0  2  0  0  0  0  0  0
  -28.7980  -21.5780   20.3200 C   0  0  0  0  0  2  0  0  0  0  0  0
  -29.6870  -17.4100   20.1940 N   0  0  0  0  0  0  0  0  0  0  0  0
  -25.2020  -13.8870   20.4670 C   0  0  0  0  0  0  0  0  0  0  0  0
  -24.1390  -13.1060   20.8180 C   0  0  0  0  0  0  0  0  0  0  0  0
  -24.6170  -11.7590   20.8210 C   0  0  0  0  0  0  0  0  0  0  0  0
  -26.2570  -13.0210   20.2650 N   0  0  0  0  0  0  0  0  0  0  0  0
  -25.9200  -11.7330   20.5440 N   0  0  0  0  0  0  0  0  0  0  0  0
  -23.8890  -10.4960   21.0120 C   0  0  0  0  0  0  0  0  0  0  0  0
  -24.3040   -9.5380   21.9630 C   0  0  0  0  0  3  0  0  0  0  0  0
  -23.5710   -8.3450   22.1450 C   0  0  0  0  0  3  0  0  0  0  0  0
  -22.4080   -8.1020   21.3770 C   0  0  0  0  0  0  0  0  0  0  0  0
  -22.0110   -9.0490   20.4160 C   0  0  0  0  0  3  0  0  0  0  0  0
  -22.7460  -10.2330   20.2330 C   0  0  0  0  0  3  0  0  0  0  0  0
  -21.6480   -6.9600   21.4670 O   0  0  0  0  0  0  0  0  0  0  0  0
  -21.5890   -6.2240   22.6240 C   0  0  0  0  0  0  0  0  0  0  0  0
  -21.1770   -6.7920   23.8490 C   0  0  0  0  0  3  0  0  0  0  0  0
  -21.0630   -5.9840   24.9970 C   0  0  0  0  0  3  0  0  0  0  0  0
  -21.3520   -4.6090   24.9220 C   0  0  0  0  0  0  0  0  0  0  0  0
  -21.7570   -4.0390   23.7020 C   0  0  0  0  0  3  0  0  0  0  0  0
  -21.8720   -4.8450   22.5560 C   0  0  0  0  0  0  0  0  0  0  0  0
  -22.2420   -4.2860   21.3780 F   0  0  0  0  0  0  0  0  0  0  0  0
  -21.2370   -3.8300   26.0230 F   0  0  0  0  0  0  0  0  0  0  0  0
  -22.7320  -13.5800   21.0340 C   0  0  0  0  0  0  0  0  0  0  0  0
  -21.9850  -12.9050   21.8980 N   0  0  0  0  0  0  0  0  0  0  0  0
  -22.3060  -14.5890   20.4710 O   0  0  0  0  0  0  0  0  0  0  0  0
  -22.3430  -12.0910   22.3760 H   0  0  0  0  0  0  0  0  0  0  0  0
  -21.0390  -13.2070   22.0880 H   0  0  0  0  0  0  0  0  0  0  0  0
  -25.3580  -15.2560   20.2690 N   0  0  0  0  0  0  0  0  0  0  0  0
  -24.5830  -15.9060   20.3480 H   0  0  0  0  0  0  0  0  0  0  0  0
  -26.2130  -15.6940   19.9520 H   0  0  0  0  0  0  0  0  0  0  0  0
  -28.0840  -23.4630   19.9180 C   0  0  0  0  0  1  0  0  0  0  0  0
  -28.1950  -25.2910   20.1280 O   0  0  0  0  0  0  0  0  0  0  0  0
  -24.7220  -31.7780   23.0420 C   0  0  0  0  0  0  0  0  0  0  0  0
  -27.2410  -26.5740   20.0620 C   0  0  0  0  0  0  0  0  0  0  0  0
  -23.5360  -30.3700   21.4150 C   0  0  0  0  0  3  0  0  0  0  0  0
  -24.9830  -28.6970   20.0050 C   0  0  0  0  0  0  0  0  0  0  0  0
  -26.1200  -30.4770   21.2980 C   0  0  0  0  0  2  0  0  0  0  0  0
  -26.1830  -29.0280   20.6440 C   0  0  0  0  0  0  0  0  0  0  0  0
  -27.2880  -27.9990   20.6360 C   0  0  0  0  0  3  0  0  0  0  0  0
  -26.0050  -26.4930   19.3610 C   0  0  0  0  0  3  0  0  0  0  0  0
  -24.9420  -27.4570   19.3390 C   0  0  0  0  0  3  0  0  0  0  0  0
  -23.7790  -29.6610   20.0490 C   0  0  0  0  0  2  0  0  0  0  0  0
  -24.8180  -30.9120   21.9700 N   0  0  0  0  0  0  0  0  0  0  0  0
  -23.6270  -32.0800   23.5500 O   0  0  0  0  0  0  0  0  0  0  0  0
  -22.8130  -29.4050   22.3960 C   0  0  0  0  0  0  0  0  0  0  0  0
  -21.4760  -29.2740   22.2960 N   0  0  0  0  0  0  0  0  0  0  0  0
  -23.4720  -28.7680   23.2220 O   0  0  0  0  0  0  0  0  0  0  0  0
  -20.9920  -29.8360   21.6100 H   0  0  0  0  0  0  0  0  0  0  0  0
  -18.0800  -28.1080   22.8820 C   0  0  0  0  0  0  0  0  0  0  0  0
  -20.6510  -28.3420   23.0770 C   0  0  0  0  0  3  0  0  0  0  0  0
  -20.7150  -26.9140   22.4860 C   0  0  0  0  0  2  0  0  0  0  0  0
  -19.5850  -26.6200   21.4950 C   0  0  0  0  0  2  0  0  0  0  0  0
  -18.2230  -26.7700   22.1770 C   0  0  0  0  0  2  0  0  0  0  0  0
  -19.2190  -28.8530   23.2900 C   0  0  0  0  0  0  0  0  0  0  0  0
  -19.0260  -30.1030   23.9180 C   0  0  0  0  0  3  0  0  0  0  0  0
  -17.7310  -30.6090   24.1360 C   0  0  0  0  0  3  0  0  0  0  0  0
  -16.6080  -29.8620   23.7390 C   0  0  0  0  0  3  0  0  0  0  0  0
  -16.7840  -28.6120   23.1180 C   0  0  0  0  0  3  0  0  0  0  0  0
  -25.9790  -32.4410   23.6830 C   0  0  0  0  0  3  0  0  0  0  0  0
  -25.6320  -33.8270   24.0630 N   0  0  0  0  0  0  0  0  0  0  0  0
  -25.9330  -34.9240   23.3550 C   0  0  0  0  0  0  0  0  0  0  0  0
  -26.5860  -34.8790   22.3100 O   0  0  0  0  0  0  0  0  0  0  0  0
  -25.0460  -33.9330   24.8790 H   0  0  0  0  0  0  0  0  0  0  0  0
  -24.1640  -36.7090   23.1370 C   0  0  0  0  0  1  0  0  0  0  0  0
  -25.4380  -36.2880   23.8870 C   0  0  0  0  0  3  0  0  0  0  0  0
  -27.5830  -37.1860   24.6840 C   0  0  0  0  0  1  0  0  0  0  0  0
  -26.4470  -37.3670   23.7840 N   0  0  0  0  0  0  0  0  0  0  0  0
  -26.0280  -38.2720   23.9810 H   0  0  0  0  0  0  0  0  0  0  0  0
  -26.5090  -31.6630   24.9510 C   0  0  1  0  0  0  0  0  0  0  0  0
  -25.4240  -31.4030   26.0240 C   0  0  0  0  0  1  0  0  0  0  0  0
  -27.1050  -30.2940   24.5550 C   0  0  0  0  0  1  0  0  0  0  0  0
  -27.6560  -32.4610   25.6140 C   0  0  0  0  0  1  0  0  0  0  0  0
  2  7  1  0
  3  4  1  0
  3  2  1  0
  5  4  1  0
  5 18  1  0
  5  6  1  0
  7  1  1  0
  7  6  1  0
  8  1  2  0
  9 11  1  0
  9 13  1  0
 10 12  1  0
 11 14  1  0
 13 10  1  0
 14  1  1  0
 14 12  1  0
 15 16  2  0
 16 17  1  0
 16 35  1  0
 17 20  1  0
 18 15  1  0
 18 19  1  0
 19 17  2  0
 20 21  1  0
 21 22  2  0
 23 26  1  0
 23 22  1  0
 24 23  2  0
 25 24  1  0
 25 20  2  0
 26 27  1  0
 27 28  1  0
 28 29  2  0
 30 29  1  0
 30 34  1  0
 31 30  2  0
 32 27  2  0
 32 31  1  0
 33 32  1  0
 35 36  1  0
 36 39  1  0
 36 38  1  0
 37 35  2  0
 40 41  1  0
 40 15  1  0
 42 40  1  0
 43 44  1  0
 45 56  2  0
 46 44  1  0
 46 51  1  0
 47 55  1  0
 47 57  1  0
 48 54  1  0
 48 50  1  0
 49 55  1  0
 50 49  1  0
 51 50  2  0
 52 46  2  0
 53 52  1  0
 53 48  2  0
 54 47  1  0
 55 45  1  0
 57 59  2  0
 58 57  1  0
 60 58  1  0
 61 70  2  0
 61 66  1  0
 62 58  1  0
 62 66  1  0
 63 62  1  0
 64 65  1  0
 64 63  1  0
 65 61  1  0
 66 67  2  0
 67 68  1  0
 69 68  2  0
 70 69  1  0
 71 45  1  0
 71 72  1  0
 71 81  1  0
 72 75  1  0
 73 77  1  0
 73 72  1  0
 74 73  2  0
 77 76  1  0
 79 77  1  0
 79 80  1  0
 79 78  1  0
 81 84  1  1
 81 82  1  0
 83 81  1  0
M  ISO  4   1 100  14 100  43 101  44 101
M  END
>  <TORSDO>  (40) 
F 16

>  <SCORE>  (40) 
-15.898

>  <name>  (40) 
39

>  <ligand_id>  (40) 
39

>  <original_smiles>  (40) 
[H]c1c([H])c([H])c2c(c1[H])C([H])([H])C([H])([H])C([H])([H])C2([H])N([H])C(=O)C1([H])N(C(=O)C([H])(N([H])C(=O)C([H])(N([H])C([H])([H])[H])C([H])([H])[H])C(C([H])([H])[H])(C([H])([H])[H])C([H])([H])[H])C([H])([H])c2c([H])c(OC([H])([H])C3([H])C([H])([H])C([H])([H])N(C(=O)N4C([H])([H])C([H])([H])C([H])([H])C([H])(n5nc(-c6c([H])c([H])c(Oc7c([H])c([H])c(F)c([H])c7F)c([H])c6[H])c(C(=O)N([H])[H])c5N([H])[H])C4([H])[H])C([H])([H])C3([H])[H])c([H])c([H])c2C1([H])[H]

>  <smiles>  (40) 
[H]c1c([H])c([H])c2c(c1[H])C([H])([H])C([H])([H])C([H])([H])C2([H])N([H])C(=O)C1([H])N(C(=O)C([H])(N([H])C(=O)C([H])(N([H])C([H])([H])[H])C([H])([H])[H])C(C([H])([H])[H])(C([H])([H])[H])C([H])([H])[H])C([H])([H])c2c([H])c(OC([H])([H])C3([H])C([H])([H])C([H])([H])N(C(=O)N4C([H])([H])C([H])([H])C([H])([H])C([H])(n5nc(-c6c([H])c([H])c(Oc7c([H])c([H])c(F)c([H])c7F)c([H])c6[H])c(C(=O)N([H])[H])c5N([H])[H])C4([H])[H])C([H])([H])C3([H])[H])c([H])c([H])c2C1([H])[H]

$$$$
40:0:0
     RDKit          3D

 95103  0  0  1  0  0  0  0  0999 V2000
  -28.9670  -23.4360   21.9560 C   0  0  0  0  0  1  0  0  0  0  0  0
  -27.0070  -22.6180   20.7060 C   0  0  0  0  0  1  0  0  0  0  0  0
  -28.4610  -23.1100   20.5400 C   0  0  2  0  0  0  0  0  0  0  0  0
  -29.4040  -21.7440   20.0340 C   0  0  0  0  0  2  0  0  0  0  0  0
  -28.6560  -18.0440   19.1860 C   0  0  0  0  0  3  0  0  0  0  0  0
  -29.7920  -19.0120   20.8110 C   0  0  0  0  0  3  0  0  0  0  0  0
  -29.5190  -17.7140   20.2720 C   0  0  0  0  0  0  0  0  0  0  0  0
  -28.4790  -19.4180   19.0760 C   0  0  0  0  0  0  0  0  0  0  0  0
  -27.6970  -20.1340   18.0210 C   0  0  0  0  0  1  0  0  0  0  0  0
  -29.1840  -20.1320   20.0610 N   0  0  0  0  0  0  0  0  0  0  0  0
  -30.4790  -15.0850   20.3250 C   0  0  0  0  0  0  0  0  0  0  0  0
  -30.3870  -12.7100   19.4010 C   0  0  0  0  0  2  0  0  0  0  0  0
  -29.4650  -12.6690   18.1570 C   0  0  0  0  0  2  0  0  0  0  0  0
  -27.9980  -12.4550   18.5730 C   0  0  0  0  0  2  0  0  0  0  0  0
  -27.5860  -13.3590   19.7630 C   0  0  0  0  0  3  0  0  0  0  0  0
  -28.6350  -13.3710   20.8970 C   0  0  0  0  0  2  0  0  0  0  0  0
  -29.9100  -13.8040   20.3080 N   0  0  0  0  0  0  0  0  0  0  0  0
  -31.6490  -15.1650   19.9220 O   0  0  0  0  0  0  0  0  0  0  0  0
  -29.7320  -16.2410   20.7370 N   0  0  0  0  0  0  0  0  0  0  0  0
  -28.9190  -15.9100   21.2350 H   0  0  0  0  0  0  0  0  0  0  0  0
  -25.2070  -13.9350   20.5050 C   0  0  0  0  0  0  0  0  0  0  0  0
  -24.1410  -13.1620   20.8720 C   0  0  0  0  0  0  0  0  0  0  0  0
  -24.6010  -11.8090   20.8330 C   0  0  0  0  0  0  0  0  0  0  0  0
  -26.2470  -13.0550   20.2550 N   0  0  0  0  0  0  0  0  0  0  0  0
  -25.8920  -11.7700   20.5170 N   0  0  0  0  0  0  0  0  0  0  0  0
  -23.8690  -10.5510   21.0270 C   0  0  0  0  0  0  0  0  0  0  0  0
  -24.2900   -9.5830   21.9630 C   0  0  0  0  0  3  0  0  0  0  0  0
  -23.5560   -8.3900   22.1360 C   0  0  0  0  0  3  0  0  0  0  0  0
  -22.3870   -8.1580   21.3760 C   0  0  0  0  0  0  0  0  0  0  0  0
  -21.9870   -9.1110   20.4260 C   0  0  0  0  0  3  0  0  0  0  0  0
  -22.7200  -10.2960   20.2480 C   0  0  0  0  0  3  0  0  0  0  0  0
  -21.6260   -7.0170   21.4640 O   0  0  0  0  0  0  0  0  0  0  0  0
  -21.5560   -6.2830   22.6200 C   0  0  0  0  0  0  0  0  0  0  0  0
  -21.1120   -6.8470   23.8360 C   0  0  0  0  0  3  0  0  0  0  0  0
  -20.9880   -6.0370   24.9810 C   0  0  0  0  0  3  0  0  0  0  0  0
  -21.3000   -4.6650   24.9160 C   0  0  0  0  0  0  0  0  0  0  0  0
  -21.7380   -4.1020   23.7040 C   0  0  0  0  0  3  0  0  0  0  0  0
  -21.8620   -4.9060   22.5590 C   0  0  0  0  0  0  0  0  0  0  0  0
  -22.2660   -4.3540   21.3890 F   0  0  0  0  0  0  0  0  0  0  0  0
  -21.1740   -3.8860   26.0170 F   0  0  0  0  0  0  0  0  0  0  0  0
  -22.7470  -13.6460   21.1470 C   0  0  0  0  0  0  0  0  0  0  0  0
  -22.0120  -12.9510   22.0090 N   0  0  0  0  0  0  0  0  0  0  0  0
  -22.3180  -14.6800   20.6340 O   0  0  0  0  0  0  0  0  0  0  0  0
  -22.3740  -12.1200   22.4520 H   0  0  0  0  0  0  0  0  0  0  0  0
  -21.0750  -13.2560   22.2290 H   0  0  0  0  0  0  0  0  0  0  0  0
  -25.3760  -15.3080   20.3460 N   0  0  0  0  0  0  0  0  0  0  0  0
  -24.6090  -15.9600   20.4670 H   0  0  0  0  0  0  0  0  0  0  0  0
  -26.2290  -15.7590   20.0410 H   0  0  0  0  0  0  0  0  0  0  0  0
  -28.3880  -24.6580   19.7310 C   0  0  0  0  0  3  0  0  0  0  0  0
  -28.2750  -26.1350   20.3150 O   0  0  0  0  0  0  0  0  0  0  0  0
  -24.6240  -31.8880   23.2080 C   0  0  0  0  0  0  0  0  0  0  0  0
  -27.2170  -27.1320   20.1820 C   0  0  0  0  0  0  0  0  0  0  0  0
  -23.4330  -30.4800   21.5760 C   0  0  0  0  0  3  0  0  0  0  0  0
  -24.8900  -28.9100   20.1400 C   0  0  0  0  0  0  0  0  0  0  0  0
  -25.9860  -30.7460   21.4100 C   0  0  0  0  0  2  0  0  0  0  0  0
  -26.0660  -29.3480   20.7590 C   0  0  0  0  0  0  0  0  0  0  0  0
  -27.2230  -28.4730   20.7670 C   0  0  0  0  0  3  0  0  0  0  0  0
  -26.0140  -26.8120   19.5150 C   0  0  0  0  0  3  0  0  0  0  0  0
  -24.8810  -27.6590   19.5020 C   0  0  0  0  0  3  0  0  0  0  0  0
  -23.6580  -29.8060   20.1940 C   0  0  0  0  0  2  0  0  0  0  0  0
  -24.7010  -31.0610   22.1200 N   0  0  0  0  0  0  0  0  0  0  0  0
  -23.5350  -32.1670   23.7380 O   0  0  0  0  0  0  0  0  0  0  0  0
  -22.7590  -29.4710   22.5400 C   0  0  0  0  0  0  0  0  0  0  0  0
  -21.4300  -29.2970   22.4220 N   0  0  0  0  0  0  0  0  0  0  0  0
  -23.4360  -28.8490   23.3620 O   0  0  0  0  0  0  0  0  0  0  0  0
  -20.9380  -29.8500   21.7340 H   0  0  0  0  0  0  0  0  0  0  0  0
  -18.0570  -28.0820   22.9450 C   0  0  0  0  0  0  0  0  0  0  0  0
  -20.6170  -28.3560   23.1990 C   0  0  0  0  0  3  0  0  0  0  0  0
  -20.7220  -26.9240   22.6230 C   0  0  0  0  0  2  0  0  0  0  0  0
  -19.6170  -26.5960   21.6150 C   0  0  0  0  0  2  0  0  0  0  0  0
  -18.2380  -26.7340   22.2660 C   0  0  0  0  0  2  0  0  0  0  0  0
  -19.1740  -28.8490   23.3690 C   0  0  0  0  0  0  0  0  0  0  0  0
  -18.9510  -30.1080   23.9690 C   0  0  0  0  0  3  0  0  0  0  0  0
  -17.6440  -30.6000   24.1450 C   0  0  0  0  0  3  0  0  0  0  0  0
  -16.5410  -29.8300   23.7350 C   0  0  0  0  0  3  0  0  0  0  0  0
  -16.7480  -28.5720   23.1410 C   0  0  0  0  0  3  0  0  0  0  0  0
  -25.8950  -32.5370   23.8340 C   0  0  0  0  0  3  0  0  0  0  0  0
  -25.5710  -33.9340   24.1640 N   0  0  0  0  0  0  0  0  0  0  0  0
  -25.8940  -34.9940   23.4110 C   0  0  0  0  0  0  0  0  0  0  0  0
  -26.5600  -34.8980   22.3770 O   0  0  0  0  0  0  0  0  0  0  0  0
  -24.9730  -34.0810   24.9650 H   0  0  0  0  0  0  0  0  0  0  0  0
  -24.1500  -36.7800   23.0760 C   0  0  0  0  0  1  0  0  0  0  0  0
  -25.4000  -36.3790   23.8760 C   0  0  0  0  0  3  0  0  0  0  0  0
  -27.5350  -37.2790   24.6890 C   0  0  0  0  0  1  0  0  0  0  0  0
  -26.4230  -37.4410   23.7570 N   0  0  0  0  0  0  0  0  0  0  0  0
  -26.0110  -38.3570   23.9150 H   0  0  0  0  0  0  0  0  0  0  0  0
  -26.4100  -31.7770   25.1190 C   0  0  1  0  0  0  0  0  0  0  0  0
  -25.3130  -31.5420   26.1840 C   0  0  0  0  0  1  0  0  0  0  0  0
  -27.0000  -30.4000   24.7430 C   0  0  0  0  0  1  0  0  0  0  0  0
  -27.5550  -32.5800   25.7790 C   0  0  0  0  0  1  0  0  0  0  0  0
  -29.6140  -24.8250   18.8020 C   0  0  0  0  0  2  0  0  0  0  0  0
  -29.4580  -25.9470   17.8470 N   0  0  0  0  0  4  0  0  0  0  0  0
  -28.6570  -25.8150   17.2510 H   0  0  0  0  0  0  0  0  0  0  0  0
  -30.2670  -26.0290   17.2540 H   0  0  0  0  0  0  0  0  0  0  0  0
  -29.3430  -26.8130   18.3450 H   0  0  0  0  0  0  0  0  0  0  0  0
  3  2  1  1
  3  1  1  0
  4 10  1  0
  4  3  1  0
  5  7  1  0
  7 19  1  0
  7  6  2  0
  8  5  2  0
  8 10  1  0
  9  8  1  0
 10  6  1  0
 11 19  1  0
 12 17  1  0
 13 14  1  0
 13 12  1  0
 15 14  1  0
 15 24  1  0
 15 16  1  0
 17 11  1  0
 17 16  1  0
 18 11  2  0
 19 20  1  0
 21 22  2  0
 22 41  1  0
 23 22  1  0
 23 26  1  0
 24 21  1  0
 24 25  1  0
 25 23  2  0
 26 27  1  0
 27 28  2  0
 29 32  1  0
 29 28  1  0
 30 29  2  0
 31 30  1  0
 31 26  2  0
 32 33  1  0
 33 34  1  0
 34 35  2  0
 36 35  1  0
 36 40  1  0
 37 36  2  0
 38 33  2  0
 38 37  1  0
 39 38  1  0
 41 42  1  0
 42 45  1  0
 42 44  1  0
 43 41  2  0
 46 47  1  0
 46 21  1  0
 48 46  1  0
 49 91  1  0
 49 50  1  0
 49  3  1  0
 51 62  2  0
 52 50  1  0
 52 57  1  0
 53 61  1  0
 53 63  1  0
 54 60  1  0
 54 56  1  0
 55 61  1  0
 56 57  2  0
 56 55  1  0
 58 52  2  0
 59 58  1  0
 59 54  2  0
 60 53  1  0
 61 51  1  0
 63 65  2  0
 64 63  1  0
 66 64  1  0
 67 76  2  0
 67 72  1  0
 68 64  1  0
 68 72  1  0
 69 68  1  0
 70 71  1  0
 70 69  1  0
 71 67  1  0
 72 73  2  0
 73 74  1  0
 75 74  2  0
 76 75  1  0
 77 51  1  0
 77 78  1  0
 77 87  1  0
 78 81  1  0
 79 83  1  0
 79 78  1  0
 80 79  2  0
 83 82  1  0
 85 83  1  0
 85 86  1  0
 85 84  1  0
 87 90  1  1
 87 88  1  0
 89 87  1  0
 92 95  1  0
 92 91  1  0
 93 92  1  0
 94 92  1  0
M  ISO  4  11 100  19 100  49 101  50 101
M  END
>  <TORSDO>  (41) 
F 21

>  <SCORE>  (41) 
-14.790

>  <name>  (41) 
40

>  <ligand_id>  (41) 
40

>  <original_smiles>  (41) 
[H]c1c([H])c([H])c2c(c1[H])C([H])([H])C([H])([H])C([H])([H])C2([H])N([H])C(=O)C1([H])N(C(=O)C([H])(N([H])C(=O)C([H])(N([H])C([H])([H])[H])C([H])([H])[H])C(C([H])([H])[H])(C([H])([H])[H])C([H])([H])[H])C([H])([H])c2c([H])c(OC([H])(C(C([H])([H])[H])(C([H])([H])[H])C([H])([H])n3c([H])c(N([H])C(=O)N4C([H])([H])C([H])([H])C([H])([H])C([H])(n5nc(-c6c([H])c([H])c(Oc7c([H])c([H])c(F)c([H])c7F)c([H])c6[H])c(C(=O)N([H])[H])c5N([H])[H])C4([H])[H])c([H])c3C([H])([H])[H])C([H])([H])[N+]([H])([H])[H])c([H])c([H])c2C1([H])[H]

>  <smiles>  (41) 
[H]c1c([H])c([H])c2c(c1[H])C([H])([H])C([H])([H])C([H])([H])C2([H])N([H])C(=O)C1([H])N(C(=O)C([H])(N([H])C(=O)C([H])(N([H])C([H])([H])[H])C([H])([H])[H])C(C([H])([H])[H])(C([H])([H])[H])C([H])([H])[H])C([H])([H])c2c([H])c(OC([H])(C(C([H])([H])[H])(C([H])([H])[H])C([H])([H])n3c([H])c(N([H])C(=O)N4C([H])([H])C([H])([H])C([H])([H])C([H])(n5nc(-c6c([H])c([H])c(Oc7c([H])c([H])c(F)c([H])c7F)c([H])c6[H])c(C(=O)N([H])[H])c5N([H])[H])C4([H])[H])c([H])c3C([H])([H])[H])C([H])([H])[N+]([H])([H])[H])c([H])c([H])c2C1([H])[H]

$$$$
41:0:0
     RDKit          3D

 89 96  0  0  1  0  0  0  0  0999 V2000
  -29.0280  -22.5250   19.9100 C   0  0  0  0  0  2  0  0  0  0  0  0
  -27.2300  -20.7980   19.8280 C   0  0  0  0  0  1  0  0  0  0  0  0
  -28.5720  -21.1300   20.3680 N   0  0  1  0  0  4  0  0  0  0  0  0
  -28.4650  -21.1920   21.3690 H   0  0  0  0  0  0  0  0  0  0  0  0
  -29.5710  -19.9790   20.1380 C   0  0  0  0  0  2  0  0  0  0  0  0
  -29.1640  -18.4580   20.5110 C   0  0  0  0  0  3  0  0  0  0  0  0
  -30.2390  -17.2840   20.2680 C   0  0  0  0  0  3  0  0  0  0  0  0
  -30.5940  -14.7150   20.1710 C   0  0  0  0  0  0  0  0  0  0  0  0
  -30.3140  -12.4990   19.0780 C   0  0  0  0  0  2  0  0  0  0  0  0
  -29.3360  -12.6610   17.8920 C   0  0  0  0  0  2  0  0  0  0  0  0
  -27.8790  -12.5010   18.3670 C   0  0  0  0  0  2  0  0  0  0  0  0
  -27.5700  -13.3400   19.6370 C   0  0  0  0  0  3  0  0  0  0  0  0
  -28.6620  -13.1700   20.7160 C   0  0  0  0  0  2  0  0  0  0  0  0
  -29.9480  -13.5090   20.0950 N   0  0  0  0  0  0  0  0  0  0  0  0
  -31.7570  -14.8330   19.7730 O   0  0  0  0  0  0  0  0  0  0  0  0
  -29.8450  -15.8310   20.4800 N   0  0  0  0  0  0  0  0  0  0  0  0
  -28.8990  -15.6520   20.7830 H   0  0  0  0  0  0  0  0  0  0  0  0
  -25.2040  -13.9400   20.4370 C   0  0  0  0  0  0  0  0  0  0  0  0
  -24.1460  -13.1670   20.8320 C   0  0  0  0  0  0  0  0  0  0  0  0
  -24.6000  -11.8140   20.7720 C   0  0  0  0  0  0  0  0  0  0  0  0
  -26.2360  -13.0580   20.1610 N   0  0  0  0  0  0  0  0  0  0  0  0
  -25.8810  -11.7740   20.4230 N   0  0  0  0  0  0  0  0  0  0  0  0
  -23.8740  -10.5540   20.9690 C   0  0  0  0  0  0  0  0  0  0  0  0
  -24.3100   -9.5860   21.9000 C   0  0  0  0  0  3  0  0  0  0  0  0
  -23.5820   -8.3910   22.0840 C   0  0  0  0  0  3  0  0  0  0  0  0
  -22.4030   -8.1570   21.3370 C   0  0  0  0  0  0  0  0  0  0  0  0
  -21.9870   -9.1130   20.3930 C   0  0  0  0  0  3  0  0  0  0  0  0
  -22.7160  -10.2980   20.2090 C   0  0  0  0  0  3  0  0  0  0  0  0
  -21.6440   -7.0150   21.4320 O   0  0  0  0  0  0  0  0  0  0  0  0
  -21.5830   -6.2850   22.5930 C   0  0  0  0  0  0  0  0  0  0  0  0
  -21.1090   -6.8440   23.7990 C   0  0  0  0  0  3  0  0  0  0  0  0
  -20.9990   -6.0400   24.9510 C   0  0  0  0  0  3  0  0  0  0  0  0
  -21.3510   -4.6780   24.8960 C   0  0  0  0  0  0  0  0  0  0  0  0
  -21.8170   -4.1190   23.6950 C   0  0  0  0  0  3  0  0  0  0  0  0
  -21.9300   -4.9200   22.5450 C   0  0  0  0  0  0  0  0  0  0  0  0
  -22.3610   -4.3710   21.3830 F   0  0  0  0  0  0  0  0  0  0  0  0
  -21.2380   -3.9050   26.0010 F   0  0  0  0  0  0  0  0  0  0  0  0
  -22.7620  -13.6490   21.1530 C   0  0  0  0  0  0  0  0  0  0  0  0
  -22.0540  -12.9430   22.0300 N   0  0  0  0  0  0  0  0  0  0  0  0
  -22.3170  -14.6850   20.6630 O   0  0  0  0  0  0  0  0  0  0  0  0
  -22.4300  -12.1060   22.4490 H   0  0  0  0  0  0  0  0  0  0  0  0
  -21.1260  -13.2460   22.2870 H   0  0  0  0  0  0  0  0  0  0  0  0
  -25.3670  -15.3120   20.2690 N   0  0  0  0  0  0  0  0  0  0  0  0
  -24.5930  -15.9540   20.4030 H   0  0  0  0  0  0  0  0  0  0  0  0
  -26.1920  -15.7600   19.8910 H   0  0  0  0  0  0  0  0  0  0  0  0
  -28.5310  -24.0620   21.9430 C   0  0  0  0  0  1  0  0  0  0  0  0
  -28.2690  -23.8570   20.4410 C   0  0  0  0  0  3  0  0  0  0  0  0
  -28.5970  -25.2150   19.6450 C   0  0  0  0  0  2  0  0  0  0  0  0
  -28.4390  -26.5630   20.2470 O   0  0  0  0  0  0  0  0  0  0  0  0
  -24.5940  -31.8680   23.2250 C   0  0  0  0  0  0  0  0  0  0  0  0
  -27.2830  -27.3530   20.1650 C   0  0  0  0  0  0  0  0  0  0  0  0
  -23.4190  -30.4700   21.5600 C   0  0  0  0  0  3  0  0  0  0  0  0
  -24.8980  -28.9350   20.1410 C   0  0  0  0  0  0  0  0  0  0  0  0
  -25.9550  -30.8100   21.4100 C   0  0  0  0  0  2  0  0  0  0  0  0
  -26.0520  -29.4350   20.7550 C   0  0  0  0  0  0  0  0  0  0  0  0
  -27.2430  -28.6530   20.7610 C   0  0  0  0  0  3  0  0  0  0  0  0
  -26.1070  -26.8970   19.5340 C   0  0  0  0  0  3  0  0  0  0  0  0
  -24.9270  -27.6710   19.5230 C   0  0  0  0  0  3  0  0  0  0  0  0
  -23.6530  -29.7970   20.1810 C   0  0  0  0  0  2  0  0  0  0  0  0
  -24.6740  -31.0680   22.1210 N   0  0  0  0  0  0  0  0  0  0  0  0
  -23.5030  -32.1360   23.7500 O   0  0  0  0  0  0  0  0  0  0  0  0
  -22.7530  -29.4460   22.5090 C   0  0  0  0  0  0  0  0  0  0  0  0
  -21.4270  -29.2760   22.3790 N   0  0  0  0  0  0  0  0  0  0  0  0
  -23.4280  -28.8080   23.3210 O   0  0  0  0  0  0  0  0  0  0  0  0
  -20.9420  -29.8450   21.6990 H   0  0  0  0  0  0  0  0  0  0  0  0
  -18.0410  -28.1070   22.8730 C   0  0  0  0  0  0  0  0  0  0  0  0
  -20.6030  -28.3300   23.1330 C   0  0  0  0  0  3  0  0  0  0  0  0
  -20.6850  -26.9120   22.5260 C   0  0  0  0  0  2  0  0  0  0  0  0
  -19.5750  -26.6230   21.5110 C   0  0  0  0  0  2  0  0  0  0  0  0
  -18.1990  -26.7700   22.1670 C   0  0  0  0  0  2  0  0  0  0  0  0
  -19.1720  -28.8460   23.3120 C   0  0  0  0  0  0  0  0  0  0  0  0
  -18.9700  -30.0990   23.9330 C   0  0  0  0  0  3  0  0  0  0  0  0
  -17.6720  -30.6100   24.1190 C   0  0  0  0  0  3  0  0  0  0  0  0
  -16.5560  -29.8660   23.6970 C   0  0  0  0  0  3  0  0  0  0  0  0
  -16.7420  -28.6160   23.0790 C   0  0  0  0  0  3  0  0  0  0  0  0
  -25.8660  -32.5040   23.8690 C   0  0  0  0  0  3  0  0  0  0  0  0
  -25.5480  -33.9020   24.1920 N   0  0  0  0  0  0  0  0  0  0  0  0
  -25.8830  -34.9560   23.4340 C   0  0  0  0  0  0  0  0  0  0  0  0
  -26.5630  -34.8530   22.4090 O   0  0  0  0  0  0  0  0  0  0  0  0
  -24.9430  -34.0560   24.9850 H   0  0  0  0  0  0  0  0  0  0  0  0
  -24.1560  -36.7470   23.0590 C   0  0  0  0  0  1  0  0  0  0  0  0
  -25.3870  -36.3440   23.8850 C   0  0  0  0  0  3  0  0  0  0  0  0
  -27.5060  -37.2390   24.7450 C   0  0  0  0  0  1  0  0  0  0  0  0
  -26.4190  -37.3990   23.7830 N   0  0  0  0  0  0  0  0  0  0  0  0
  -26.0070  -38.3190   23.9190 H   0  0  0  0  0  0  0  0  0  0  0  0
  -26.3620  -31.7370   25.1560 C   0  0  1  0  0  0  0  0  0  0  0  0
  -25.2500  -31.4980   26.2050 C   0  0  0  0  0  1  0  0  0  0  0  0
  -26.9560  -30.3600   24.7800 C   0  0  0  0  0  1  0  0  0  0  0  0
  -27.4970  -32.5360   25.8380 C   0  0  0  0  0  1  0  0  0  0  0  0
  1  3  1  0
  1 47  1  0
  2  3  1  0
  3  4  1  1
  5  3  1  0
  5  6  1  0
  7 16  1  0
  7  6  2  0
  8 16  1  0
  9 14  1  0
 10 11  1  0
 10  9  1  0
 12 11  1  0
 12 21  1  0
 12 13  1  0
 14  8  1  0
 14 13  1  0
 15  8  2  0
 16 17  1  0
 18 19  2  0
 19 38  1  0
 20 19  1  0
 20 23  1  0
 21 22  1  0
 21 18  1  0
 22 20  2  0
 23 24  1  0
 24 25  2  0
 26 29  1  0
 26 25  1  0
 27 26  2  0
 28 27  1  0
 28 23  2  0
 29 30  1  0
 30 31  1  0
 31 32  2  0
 33 32  1  0
 33 37  1  0
 34 33  2  0
 35 30  2  0
 35 34  1  0
 36 35  1  0
 38 39  1  0
 39 42  1  0
 39 41  1  0
 40 38  2  0
 43 44  1  0
 43 18  1  0
 45 43  1  0
 47 46  1  0
 48 49  1  0
 48 47  1  0
 50 61  2  0
 51 49  1  0
 51 56  1  0
 52 60  1  0
 52 62  1  0
 53 59  1  0
 53 55  1  0
 54 60  1  0
 55 56  2  0
 55 54  1  0
 57 51  2  0
 58 57  1  0
 58 53  2  0
 59 52  1  0
 60 50  1  0
 62 64  2  0
 63 62  1  0
 65 63  1  0
 66 75  2  0
 66 71  1  0
 67 63  1  0
 67 71  1  0
 68 67  1  0
 69 70  1  0
 69 68  1  0
 70 66  1  0
 71 72  2  0
 72 73  1  0
 74 73  2  0
 75 74  1  0
 76 50  1  0
 76 77  1  0
 76 86  1  0
 77 80  1  0
 78 82  1  0
 78 77  1  0
 79 78  2  0
 82 81  1  0
 84 82  1  0
 84 85  1  0
 84 83  1  0
 86 89  1  1
 86 87  1  0
 88 86  1  0
M  ISO  4   8 100  16 100  48 101  49 101
M  END
>  <TORSDO>  (42) 
F 22

>  <SCORE>  (42) 
-12.705

>  <name>  (42) 
41

>  <ligand_id>  (42) 
41

>  <original_smiles>  (42) 
[H]c1c([H])c([H])c2c(c1[H])C([H])([H])C([H])([H])C([H])([H])C2([H])N([H])C(=O)C1([H])N(C(=O)C([H])(N([H])C(=O)C([H])(N([H])C([H])([H])[H])C([H])([H])[H])C(C([H])([H])[H])(C([H])([H])[H])C([H])([H])[H])C([H])([H])c2c([H])c(OC([H])([H])C([H])(C([H])([H])[H])C([H])([H])[N+]([H])(C([H])([H])[H])C([H])([H])C([H])([H])C([H])([H])N([H])C(=O)N3C([H])([H])C([H])([H])C([H])([H])C([H])(n4nc(-c5c([H])c([H])c(Oc6c([H])c([H])c(F)c([H])c6F)c([H])c5[H])c(C(=O)N([H])[H])c4N([H])[H])C3([H])[H])c([H])c([H])c2C1([H])[H]

>  <smiles>  (42) 
[H]c1c([H])c([H])c2c(c1[H])C([H])([H])C([H])([H])C([H])([H])C2([H])N([H])C(=O)C1([H])N(C(=O)C([H])(N([H])C(=O)C([H])(N([H])C([H])([H])[H])C([H])([H])[H])C(C([H])([H])[H])(C([H])([H])[H])C([H])([H])[H])C([H])([H])c2c([H])c(OC([H])([H])C([H])(C([H])([H])[H])C([H])([H])[N+]([H])(C([H])([H])[H])C([H])([H])C([H])([H])C([H])([H])N([H])C(=O)N3C([H])([H])C([H])([H])C([H])([H])C([H])(n4nc(-c5c([H])c([H])c(Oc6c([H])c([H])c(F)c([H])c6F)c([H])c5[H])c(C(=O)N([H])[H])c4N([H])[H])C3([H])[H])c([H])c([H])c2C1([H])[H]

$$$$
42:0:0
     RDKit          3D

 85 93  0  0  1  0  0  0  0  0999 V2000
  -29.0040  -20.5320   21.3470 C   0  0  0  0  0  3  0  0  0  0  0  0
  -28.7640  -20.5250   19.1200 C   0  0  0  0  0  3  0  0  0  0  0  0
  -28.1980  -22.1540   21.2750 C   0  0  0  0  0  3  0  0  0  0  0  0
  -28.8370  -22.3310   19.1060 C   0  0  0  0  0  3  0  0  0  0  0  0
  -29.4610  -19.3290   20.1660 C   0  0  0  0  0  0  0  0  0  0  0  0
  -28.4080  -23.5560   20.2710 C   0  0  0  0  0  0  0  0  0  0  0  0
  -30.1950  -16.0300   20.0920 C   0  0  0  0  0  0  0  0  0  0  0  0
  -30.3640  -13.4340   19.2680 C   0  0  0  0  0  2  0  0  0  0  0  0
  -29.4640  -12.8990   18.1100 C   0  0  0  0  0  2  0  0  0  0  0  0
  -28.0840  -12.4730   18.6260 C   0  0  0  0  0  2  0  0  0  0  0  0
  -27.5610  -13.4820   19.6700 C   0  0  0  0  0  3  0  0  0  0  0  0
  -28.6090  -13.9030   20.7330 C   0  0  0  0  0  2  0  0  0  0  0  0
  -29.7060  -14.6200   20.0200 N   0  0  0  0  0  0  0  0  0  0  0  0
  -31.4300  -15.9350   19.9110 O   0  0  0  0  0  0  0  0  0  0  0  0
  -29.4290  -17.4550   20.1810 N   0  0  0  0  0  0  0  0  0  0  0  0
  -28.4570  -17.1930   20.2690 H   0  0  0  0  0  0  0  0  0  0  0  0
  -25.2340  -13.9570   20.5460 C   0  0  0  0  0  0  0  0  0  0  0  0
  -24.1970  -13.1580   20.9340 C   0  0  0  0  0  0  0  0  0  0  0  0
  -24.6790  -11.8140   20.8510 C   0  0  0  0  0  0  0  0  0  0  0  0
  -26.2760  -13.1050   20.2410 N   0  0  0  0  0  0  0  0  0  0  0  0
  -25.9610  -11.8050   20.4900 N   0  0  0  0  0  0  0  0  0  0  0  0
  -23.9680  -10.5410   21.0360 C   0  0  0  0  0  0  0  0  0  0  0  0
  -24.4200   -9.5650   21.9520 C   0  0  0  0  0  3  0  0  0  0  0  0
  -23.7030   -8.3620   22.1290 C   0  0  0  0  0  3  0  0  0  0  0  0
  -22.5190   -8.1250   21.3910 C   0  0  0  0  0  0  0  0  0  0  0  0
  -22.0850   -9.0890   20.4640 C   0  0  0  0  0  3  0  0  0  0  0  0
  -22.8030  -10.2830   20.2850 C   0  0  0  0  0  3  0  0  0  0  0  0
  -21.7720   -6.9750   21.4790 O   0  0  0  0  0  0  0  0  0  0  0  0
  -21.7220   -6.2340   22.6330 C   0  0  0  0  0  0  0  0  0  0  0  0
  -21.2550   -6.7810   23.8480 C   0  0  0  0  0  3  0  0  0  0  0  0
  -21.1550   -5.9660   24.9940 C   0  0  0  0  0  3  0  0  0  0  0  0
  -21.5110   -4.6050   24.9250 C   0  0  0  0  0  0  0  0  0  0  0  0
  -21.9720   -4.0590   23.7140 C   0  0  0  0  0  3  0  0  0  0  0  0
  -22.0740   -4.8700   22.5710 C   0  0  0  0  0  0  0  0  0  0  0  0
  -22.4970   -4.3330   21.4020 F   0  0  0  0  0  0  0  0  0  0  0  0
  -21.4080   -3.8200   26.0220 F   0  0  0  0  0  0  0  0  0  0  0  0
  -22.8070  -13.6150   21.2590 C   0  0  0  0  0  0  0  0  0  0  0  0
  -22.1180  -12.9020   22.1410 N   0  0  0  0  0  0  0  0  0  0  0  0
  -22.3410  -14.6410   20.7660 O   0  0  0  0  0  0  0  0  0  0  0  0
  -22.5080  -12.0710   22.5620 H   0  0  0  0  0  0  0  0  0  0  0  0
  -21.1850  -13.1910   22.4030 H   0  0  0  0  0  0  0  0  0  0  0  0
  -25.3710  -15.3330   20.3920 N   0  0  0  0  0  0  0  0  0  0  0  0
  -24.5960  -15.9720   20.5360 H   0  0  0  0  0  0  0  0  0  0  0  0
  -26.1920  -15.7850   20.0120 H   0  0  0  0  0  0  0  0  0  0  0  0
  -28.1850  -25.4110   20.3350 O   0  0  0  0  0  0  0  0  0  0  0  0
  -24.6880  -31.9000   23.2490 C   0  0  0  0  0  0  0  0  0  0  0  0
  -27.1870  -26.6640   20.2840 C   0  0  0  0  0  0  0  0  0  0  0  0
  -23.4980  -30.4990   21.6190 C   0  0  0  0  0  3  0  0  0  0  0  0
  -24.9370  -28.8060   20.2190 C   0  0  0  0  0  0  0  0  0  0  0  0
  -26.0840  -30.5850   21.5100 C   0  0  0  0  0  2  0  0  0  0  0  0
  -26.1380  -29.1330   20.8570 C   0  0  0  0  0  0  0  0  0  0  0  0
  -27.2360  -28.0960   20.8480 C   0  0  0  0  0  3  0  0  0  0  0  0
  -25.9460  -26.5870   19.5880 C   0  0  0  0  0  3  0  0  0  0  0  0
  -24.8890  -27.5620   19.5600 C   0  0  0  0  0  3  0  0  0  0  0  0
  -23.7400  -29.7830   20.2560 C   0  0  0  0  0  2  0  0  0  0  0  0
  -24.7830  -31.0320   22.1780 N   0  0  0  0  0  0  0  0  0  0  0  0
  -23.5930  -32.2110   23.7530 O   0  0  0  0  0  0  0  0  0  0  0  0
  -22.7660  -29.5410   22.5990 C   0  0  0  0  0  0  0  0  0  0  0  0
  -21.4330  -29.3870   22.4680 N   0  0  0  0  0  0  0  0  0  0  0  0
  -23.4130  -28.9300   23.4530 O   0  0  0  0  0  0  0  0  0  0  0  0
  -20.9580  -29.9290   21.7600 H   0  0  0  0  0  0  0  0  0  0  0  0
  -18.0480  -28.1530   22.9660 C   0  0  0  0  0  0  0  0  0  0  0  0
  -20.6030  -28.4560   23.2460 C   0  0  0  0  0  3  0  0  0  0  0  0
  -20.7240  -27.0150   22.6930 C   0  0  0  0  0  2  0  0  0  0  0  0
  -19.6360  -26.6680   21.6710 C   0  0  0  0  0  2  0  0  0  0  0  0
  -18.2470  -26.8020   22.3010 C   0  0  0  0  0  2  0  0  0  0  0  0
  -19.1530  -28.9370   23.3940 C   0  0  0  0  0  0  0  0  0  0  0  0
  -18.9090  -30.1970   23.9820 C   0  0  0  0  0  3  0  0  0  0  0  0
  -17.5940  -30.6760   24.1410 C   0  0  0  0  0  3  0  0  0  0  0  0
  -16.5050  -29.8920   23.7250 C   0  0  0  0  0  3  0  0  0  0  0  0
  -16.7320  -28.6310   23.1440 C   0  0  0  0  0  3  0  0  0  0  0  0
  -25.9470  -32.5560   23.8930 C   0  0  0  0  0  3  0  0  0  0  0  0
  -25.6260  -33.9610   24.2210 N   0  0  0  0  0  0  0  0  0  0  0  0
  -25.9350  -35.0260   23.4680 C   0  0  0  0  0  0  0  0  0  0  0  0
  -26.5750  -34.9280   22.4180 O   0  0  0  0  0  0  0  0  0  0  0  0
  -25.0520  -34.1100   25.0380 H   0  0  0  0  0  0  0  0  0  0  0  0
  -24.1810  -36.8180   23.2080 C   0  0  0  0  0  1  0  0  0  0  0  0
  -25.4660  -36.4170   23.9480 C   0  0  0  0  0  3  0  0  0  0  0  0
  -27.6330  -37.3320   24.6630 C   0  0  0  0  0  1  0  0  0  0  0  0
  -26.4840  -37.4790   23.7740 N   0  0  0  0  0  0  0  0  0  0  0  0
  -26.0770  -38.3970   23.9310 H   0  0  0  0  0  0  0  0  0  0  0  0
  -26.4320  -31.8100   25.1990 C   0  0  1  0  0  0  0  0  0  0  0  0
  -25.3160  -31.6010   26.2520 C   0  0  0  0  0  1  0  0  0  0  0  0
  -27.0150  -30.4200   24.8620 C   0  0  0  0  0  1  0  0  0  0  0  0
  -27.5740  -32.6110   25.8670 C   0  0  0  0  0  1  0  0  0  0  0  0
  2  5  1  0
  3  1  1  0
  4  2  2  0
  4  6  1  0
  5 15  1  0
  5  1  2  0
  6 45  1  0
  6  3  2  0
  7 15  1  0
  8 13  1  0
  9 10  1  0
  9  8  1  0
 11 10  1  0
 11 20  1  0
 11 12  1  0
 13  7  1  0
 13 12  1  0
 14  7  2  0
 15 16  1  0
 17 18  2  0
 18 37  1  0
 19 18  1  0
 19 22  1  0
 20 21  1  0
 20 17  1  0
 21 19  2  0
 22 23  1  0
 23 24  2  0
 25 28  1  0
 25 24  1  0
 26 25  2  0
 27 26  1  0
 27 22  2  0
 28 29  1  0
 29 30  1  0
 30 31  2  0
 32 31  1  0
 32 36  1  0
 33 32  2  0
 34 29  2  0
 34 33  1  0
 35 34  1  0
 37 38  1  0
 38 41  1  0
 38 40  1  0
 39 37  2  0
 42 43  1  0
 42 17  1  0
 44 42  1  0
 46 57  2  0
 47 45  1  0
 47 52  1  0
 48 56  1  0
 48 58  1  0
 49 55  1  0
 49 51  1  0
 50 56  1  0
 51 50  1  0
 52 51  2  0
 53 47  2  0
 54 53  1  0
 54 49  2  0
 55 48  1  0
 56 46  1  0
 58 60  2  0
 59 58  1  0
 61 59  1  0
 62 71  2  0
 62 67  1  0
 63 59  1  0
 63 67  1  0
 64 63  1  0
 65 66  1  0
 65 64  1  0
 66 62  1  0
 67 68  2  0
 68 69  1  0
 70 69  2  0
 71 70  1  0
 72 46  1  0
 72 73  1  0
 72 82  1  0
 73 76  1  0
 74 78  1  0
 74 73  1  0
 75 74  2  0
 78 77  1  0
 80 81  1  0
 80 78  1  0
 80 79  1  0
 82 85  1  1
 82 83  1  0
 84 82  1  0
M  ISO  4   6 101   7 100  15 100  45 101
M  END
>  <TORSDO>  (43) 
F 16

>  <SCORE>  (43) 
-16.305

>  <name>  (43) 
42

>  <ligand_id>  (43) 
42

>  <original_smiles>  (43) 
[H]c1c([H])c([H])c2c(c1[H])C([H])([H])C([H])([H])C([H])([H])C2([H])N([H])C(=O)C1([H])N(C(=O)C([H])(N([H])C(=O)C([H])(N([H])C([H])([H])[H])C([H])([H])[H])C(C([H])([H])[H])(C([H])([H])[H])C([H])([H])[H])C([H])([H])c2c([H])c(OC3([H])C([H])([H])C([H])([H])C([H])(N([H])C(=O)N4C([H])([H])C([H])([H])C([H])([H])C([H])(n5nc(-c6c([H])c([H])c(Oc7c([H])c([H])c(F)c([H])c7F)c([H])c6[H])c(C(=O)N([H])[H])c5N([H])[H])C4([H])[H])C([H])([H])C3([H])[H])c([H])c([H])c2C1([H])[H]

>  <smiles>  (43) 
[H]c1c([H])c([H])c2c(c1[H])C([H])([H])C([H])([H])C([H])([H])C2([H])N([H])C(=O)C1([H])N(C(=O)C([H])(N([H])C(=O)C([H])(N([H])C([H])([H])[H])C([H])([H])[H])C(C([H])([H])[H])(C([H])([H])[H])C([H])([H])[H])C([H])([H])c2c([H])c(OC3([H])C([H])([H])C([H])([H])C([H])(N([H])C(=O)N4C([H])([H])C([H])([H])C([H])([H])C([H])(n5nc(-c6c([H])c([H])c(Oc7c([H])c([H])c(F)c([H])c7F)c([H])c6[H])c(C(=O)N([H])[H])c5N([H])[H])C4([H])[H])C([H])([H])C3([H])[H])c([H])c([H])c2C1([H])[H]

$$$$
43:0:0
     RDKit          3D

 91 99  0  0  1  0  0  0  0  0999 V2000
  -28.5930  -21.6630   21.1300 C   0  0  0  0  0  2  0  0  0  0  0  0
  -31.1780  -18.9920   20.7960 C   0  0  0  0  0  3  0  0  0  0  0  0
  -28.9720  -19.1990   20.7260 C   0  0  0  0  0  3  0  0  0  0  0  0
  -29.9710  -18.2830   20.5090 C   0  0  0  0  0  0  0  0  0  0  0  0
  -30.8840  -20.3080   21.0850 C   0  0  0  0  0  0  0  0  0  0  0  0
  -31.8640  -21.3990   21.3820 C   0  0  0  0  0  1  0  0  0  0  0  0
  -29.4910  -20.4690   20.9970 N   0  0  0  0  0  0  0  0  0  0  0  0
  -29.8030  -16.8650   19.9200 C   0  0  0  0  0  2  0  0  0  0  0  0
  -30.6410  -14.5720   20.3720 C   0  0  0  0  0  0  0  0  0  0  0  0
  -30.3580  -12.3810   19.2840 C   0  0  0  0  0  2  0  0  0  0  0  0
  -29.4240  -12.5730   18.0690 C   0  0  0  0  0  2  0  0  0  0  0  0
  -27.9430  -12.4360   18.4830 C   0  0  0  0  0  2  0  0  0  0  0  0
  -27.5980  -13.2800   19.7490 C   0  0  0  0  0  3  0  0  0  0  0  0
  -28.6520  -13.0850   20.8610 C   0  0  0  0  0  2  0  0  0  0  0  0
  -29.9810  -13.3810   20.2970 N   0  0  0  0  0  0  0  0  0  0  0  0
  -31.7760  -14.7260   19.9130 O   0  0  0  0  0  0  0  0  0  0  0  0
  -29.9010  -15.6400   20.7520 N   0  0  0  0  0  0  0  0  0  0  0  0
  -29.0560  -15.3880   21.2430 H   0  0  0  0  0  0  0  0  0  0  0  0
  -25.2010  -13.8840   20.4670 C   0  0  0  0  0  0  0  0  0  0  0  0
  -24.1320  -13.1150   20.8380 C   0  0  0  0  0  0  0  0  0  0  0  0
  -24.5880  -11.7640   20.8050 C   0  0  0  0  0  0  0  0  0  0  0  0
  -26.2430  -13.0010   20.2280 N   0  0  0  0  0  0  0  0  0  0  0  0
  -25.8800  -11.7220   20.4930 N   0  0  0  0  0  0  0  0  0  0  0  0
  -23.8570  -10.5040   21.0020 C   0  0  0  0  0  0  0  0  0  0  0  0
  -24.2900   -9.5400   21.9380 C   0  0  0  0  0  3  0  0  0  0  0  0
  -23.5610   -8.3460   22.1300 C   0  0  0  0  0  3  0  0  0  0  0  0
  -22.3840   -8.1070   21.3840 C   0  0  0  0  0  0  0  0  0  0  0  0
  -21.9690   -9.0590   20.4350 C   0  0  0  0  0  3  0  0  0  0  0  0
  -22.6990  -10.2440   20.2420 C   0  0  0  0  0  3  0  0  0  0  0  0
  -21.6280   -6.9650   21.4780 O   0  0  0  0  0  0  0  0  0  0  0  0
  -21.5850   -6.2240   22.6310 C   0  0  0  0  0  0  0  0  0  0  0  0
  -21.1660   -6.7810   23.8590 C   0  0  0  0  0  3  0  0  0  0  0  0
  -21.0690   -5.9630   25.0040 C   0  0  0  0  0  3  0  0  0  0  0  0
  -21.3770   -4.5940   24.9210 C   0  0  0  0  0  0  0  0  0  0  0  0
  -21.7860   -4.0360   23.6970 C   0  0  0  0  0  3  0  0  0  0  0  0
  -21.8860   -4.8490   22.5540 C   0  0  0  0  0  0  0  0  0  0  0  0
  -22.2580   -4.3020   21.3710 F   0  0  0  0  0  0  0  0  0  0  0  0
  -21.2740   -3.8100   26.0200 F   0  0  0  0  0  0  0  0  0  0  0  0
  -22.7280  -13.6030   21.1010 C   0  0  0  0  0  0  0  0  0  0  0  0
  -21.9990  -12.9200   21.9750 N   0  0  0  0  0  0  0  0  0  0  0  0
  -22.2990  -14.6270   20.5760 O   0  0  0  0  0  0  0  0  0  0  0  0
  -22.3710  -12.1050   22.4390 H   0  0  0  0  0  0  0  0  0  0  0  0
  -21.0590  -13.2230   22.1880 H   0  0  0  0  0  0  0  0  0  0  0  0
  -25.3680  -15.2500   20.2730 N   0  0  0  0  0  0  0  0  0  0  0  0
  -24.5860  -15.8920   20.3710 H   0  0  0  0  0  0  0  0  0  0  0  0
  -26.2050  -15.7010   19.9250 H   0  0  0  0  0  0  0  0  0  0  0  0
  -29.1610  -23.1200   21.3050 C   0  0  0  0  0  2  0  0  0  0  0  0
  -26.7730  -24.1460   21.7800 C   0  0  0  0  0  1  0  0  0  0  0  0
  -28.1120  -24.2750   20.9900 C   0  0  0  0  0  3  0  0  0  0  0  0
  -28.7080  -25.7160   21.1770 C   0  0  0  0  0  2  0  0  0  0  0  0
  -28.4200  -26.6800   20.1340 O   0  0  0  0  0  0  0  0  0  0  0  0
  -24.5850  -31.8750   23.2360 C   0  0  0  0  0  0  0  0  0  0  0  0
  -27.2540  -27.4160   20.2080 C   0  0  0  0  0  0  0  0  0  0  0  0
  -23.3920  -30.4800   21.5710 C   0  0  0  0  0  3  0  0  0  0  0  0
  -24.8630  -28.9370   20.1690 C   0  0  0  0  0  0  0  0  0  0  0  0
  -25.9180  -30.8380   21.3980 C   0  0  0  0  0  2  0  0  0  0  0  0
  -26.0110  -29.4590   20.7740 C   0  0  0  0  0  0  0  0  0  0  0  0
  -27.2130  -28.7070   20.7900 C   0  0  0  0  0  3  0  0  0  0  0  0
  -26.0950  -26.9130   19.5890 C   0  0  0  0  0  3  0  0  0  0  0  0
  -24.8990  -27.6640   19.5690 C   0  0  0  0  0  3  0  0  0  0  0  0
  -23.6180  -29.7990   20.1940 C   0  0  0  0  0  2  0  0  0  0  0  0
  -24.6500  -31.0810   22.1260 N   0  0  0  0  0  0  0  0  0  0  0  0
  -23.5040  -32.1440   23.7740 O   0  0  0  0  0  0  0  0  0  0  0  0
  -22.7310  -29.4610   22.5270 C   0  0  0  0  0  0  0  0  0  0  0  0
  -21.4070  -29.2830   22.3970 N   0  0  0  0  0  0  0  0  0  0  0  0
  -23.4080  -28.8320   23.3450 O   0  0  0  0  0  0  0  0  0  0  0  0
  -20.9170  -29.8430   21.7130 H   0  0  0  0  0  0  0  0  0  0  0  0
  -18.0320  -28.0840   22.8800 C   0  0  0  0  0  0  0  0  0  0  0  0
  -20.5890  -28.3410   23.1640 C   0  0  0  0  0  3  0  0  0  0  0  0
  -20.6910  -26.9100   22.5830 C   0  0  0  0  0  2  0  0  0  0  0  0
  -19.5950  -26.5940   21.5610 C   0  0  0  0  0  2  0  0  0  0  0  0
  -18.2110  -26.7380   22.1990 C   0  0  0  0  0  2  0  0  0  0  0  0
  -19.1490  -28.8430   23.3220 C   0  0  0  0  0  0  0  0  0  0  0  0
  -18.9280  -30.1030   23.9170 C   0  0  0  0  0  3  0  0  0  0  0  0
  -17.6230  -30.6070   24.0770 C   0  0  0  0  0  3  0  0  0  0  0  0
  -16.5200  -29.8430   23.6570 C   0  0  0  0  0  3  0  0  0  0  0  0
  -16.7260  -28.5840   23.0630 C   0  0  0  0  0  3  0  0  0  0  0  0
  -25.8690  -32.5040   23.8660 C   0  0  0  0  0  3  0  0  0  0  0  0
  -25.5630  -33.9040   24.1880 N   0  0  0  0  0  0  0  0  0  0  0  0
  -25.9070  -34.9520   23.4290 C   0  0  0  0  0  0  0  0  0  0  0  0
  -26.5850  -34.8410   22.4030 O   0  0  0  0  0  0  0  0  0  0  0  0
  -24.9630  -34.0650   24.9830 H   0  0  0  0  0  0  0  0  0  0  0  0
  -24.1910  -36.7520   23.0570 C   0  0  0  0  0  1  0  0  0  0  0  0
  -25.4230  -36.3430   23.8790 C   0  0  0  0  0  3  0  0  0  0  0  0
  -27.5580  -37.2190   24.7230 C   0  0  0  0  0  1  0  0  0  0  0  0
  -26.4590  -37.3910   23.7760 N   0  0  0  0  0  0  0  0  0  0  0  0
  -26.0550  -38.3110   23.9240 H   0  0  0  0  0  0  0  0  0  0  0  0
  -26.3820  -31.7340   25.1460 C   0  0  1  0  0  0  0  0  0  0  0  0
  -25.2910  -31.5060   26.2140 C   0  0  0  0  0  1  0  0  0  0  0  0
  -26.9530  -30.3500   24.7590 C   0  0  0  0  0  1  0  0  0  0  0  0
  -27.5280  -32.5300   25.8150 C   0  0  0  0  0  1  0  0  0  0  0  0
  1 47  1  0
  2  5  2  0
  3  7  1  0
  4  3  2  0
  4  2  1  0
  5  6  1  0
  7  5  1  0
  7  1  1  0
  8  4  1  0
  8 17  1  0
  9 17  1  0
 10 15  1  0
 11 12  1  0
 11 10  1  0
 13 12  1  0
 13 22  1  0
 13 14  1  0
 15  9  1  0
 15 14  1  0
 16  9  2  0
 17 18  1  0
 19 20  2  0
 20 39  1  0
 21 20  1  0
 21 24  1  0
 22 19  1  0
 22 23  1  0
 23 21  2  0
 24 25  1  0
 25 26  2  0
 27 30  1  0
 27 26  1  0
 28 27  2  0
 29 28  1  0
 29 24  2  0
 30 31  1  0
 31 32  1  0
 32 33  2  0
 34 33  1  0
 34 38  1  0
 35 34  2  0
 36 31  2  0
 36 35  1  0
 37 36  1  0
 39 40  1  0
 40 43  1  0
 40 42  1  0
 41 39  2  0
 44 45  1  0
 44 19  1  0
 46 44  1  0
 49 50  1  0
 49 47  1  0
 49 48  1  0
 51 53  1  0
 51 50  1  0
 52 63  2  0
 53 58  1  0
 54 62  1  0
 54 64  1  0
 55 61  1  0
 55 57  1  0
 56 62  1  0
 57 58  2  0
 57 56  1  0
 59 53  2  0
 60 59  1  0
 60 55  2  0
 61 54  1  0
 62 52  1  0
 64 66  2  0
 65 64  1  0
 67 65  1  0
 68 77  2  0
 68 73  1  0
 69 65  1  0
 69 73  1  0
 70 69  1  0
 71 72  1  0
 71 70  1  0
 72 68  1  0
 73 74  2  0
 74 75  1  0
 76 75  2  0
 77 76  1  0
 78 52  1  0
 78 79  1  0
 78 88  1  0
 79 82  1  0
 80 84  1  0
 80 79  1  0
 81 80  2  0
 84 83  1  0
 86 84  1  0
 86 87  1  0
 86 85  1  0
 88 91  1  1
 88 89  1  0
 90 88  1  0
M  ISO  4   9 100  17 100  50 101  51 101
M  END
>  <TORSDO>  (44) 
F 21

>  <SCORE>  (44) 
-13.641

>  <name>  (44) 
43

>  <ligand_id>  (44) 
43

>  <original_smiles>  (44) 
[H]c1c([H])c([H])c2c(c1[H])C([H])([H])C([H])([H])C([H])([H])C2([H])N([H])C(=O)C1([H])N(C(=O)C([H])(N([H])C(=O)C([H])(N([H])C([H])([H])[H])C([H])([H])[H])C(C([H])([H])[H])(C([H])([H])[H])C([H])([H])[H])C([H])([H])c2c([H])c(OC([H])([H])C([H])(C([H])([H])[H])C([H])([H])C([H])([H])n3c([H])c(C([H])([H])N([H])C(=O)N4C([H])([H])C([H])([H])C([H])([H])C([H])(n5nc(-c6c([H])c([H])c(Oc7c([H])c([H])c(F)c([H])c7F)c([H])c6[H])c(C(=O)N([H])[H])c5N([H])[H])C4([H])[H])c([H])c3C([H])([H])[H])c([H])c([H])c2C1([H])[H]

>  <smiles>  (44) 
[H]c1c([H])c([H])c2c(c1[H])C([H])([H])C([H])([H])C([H])([H])C2([H])N([H])C(=O)C1([H])N(C(=O)C([H])(N([H])C(=O)C([H])(N([H])C([H])([H])[H])C([H])([H])[H])C(C([H])([H])[H])(C([H])([H])[H])C([H])([H])[H])C([H])([H])c2c([H])c(OC([H])([H])C([H])(C([H])([H])[H])C([H])([H])C([H])([H])n3c([H])c(C([H])([H])N([H])C(=O)N4C([H])([H])C([H])([H])C([H])([H])C([H])(n5nc(-c6c([H])c([H])c(Oc7c([H])c([H])c(F)c([H])c7F)c([H])c6[H])c(C(=O)N([H])[H])c5N([H])[H])C4([H])[H])c([H])c3C([H])([H])[H])c([H])c([H])c2C1([H])[H]

$$$$
44:0:0
     RDKit          3D

 91 98  0  0  1  0  0  0  0  0999 V2000
  -27.5770  -21.5350   22.1810 C   0  0  0  0  0  1  0  0  0  0  0  0
  -28.5880  -21.6520   21.0270 C   0  0  0  0  0  3  0  0  0  0  0  0
  -28.2870  -22.8580   20.0190 C   0  0  0  0  0  2  0  0  0  0  0  0
  -26.2440  -24.1490   21.0710 C   0  0  0  0  0  1  0  0  0  0  0  0
  -27.5990  -24.2630   20.3420 C   0  0  0  0  0  3  0  0  0  0  0  0
  -28.4150  -25.5240   20.8560 C   0  0  0  0  0  2  0  0  0  0  0  0
  -28.4260  -26.7480   20.0430 O   0  0  0  0  0  0  0  0  0  0  0  0
  -24.6570  -31.9500   23.2320 C   0  0  0  0  0  0  0  0  0  0  0  0
  -27.2940  -27.5530   20.0520 C   0  0  0  0  0  0  0  0  0  0  0  0
  -23.4490  -30.5860   21.5600 C   0  0  0  0  0  3  0  0  0  0  0  0
  -24.9060  -29.0880   20.0960 C   0  0  0  0  0  0  0  0  0  0  0  0
  -25.9790  -30.9600   21.3530 C   0  0  0  0  0  2  0  0  0  0  0  0
  -26.0700  -29.5930   20.6870 C   0  0  0  0  0  0  0  0  0  0  0  0
  -27.2660  -28.8330   20.6680 C   0  0  0  0  0  3  0  0  0  0  0  0
  -26.1250  -27.1080   19.4030 C   0  0  0  0  0  3  0  0  0  0  0  0
  -24.9230  -27.8340   19.4620 C   0  0  0  0  0  3  0  0  0  0  0  0
  -23.6640  -29.9430   20.1610 C   0  0  0  0  0  2  0  0  0  0  0  0
  -24.7170  -31.1790   22.1070 N   0  0  0  0  0  0  0  0  0  0  0  0
  -23.5770  -32.1950   23.7860 O   0  0  0  0  0  0  0  0  0  0  0  0
  -22.8150  -29.5310   22.4950 C   0  0  0  0  0  0  0  0  0  0  0  0
  -21.4940  -29.3310   22.3700 N   0  0  0  0  0  0  0  0  0  0  0  0
  -23.5100  -28.8910   23.2910 O   0  0  0  0  0  0  0  0  0  0  0  0
  -20.9910  -29.9230   21.7220 H   0  0  0  0  0  0  0  0  0  0  0  0
  -18.1530  -28.0360   22.8270 C   0  0  0  0  0  0  0  0  0  0  0  0
  -20.7010  -28.3510   23.1150 C   0  0  0  0  0  3  0  0  0  0  0  0
  -20.8390  -26.9330   22.5160 C   0  0  0  0  0  2  0  0  0  0  0  0
  -19.7500  -26.6030   21.4890 C   0  0  0  0  0  2  0  0  0  0  0  0
  -18.3640  -26.7030   22.1280 C   0  0  0  0  0  2  0  0  0  0  0  0
  -19.2500  -28.8160   23.2770 C   0  0  0  0  0  0  0  0  0  0  0  0
  -19.0010  -30.0630   23.8880 C   0  0  0  0  0  3  0  0  0  0  0  0
  -17.6850  -30.5320   24.0550 C   0  0  0  0  0  3  0  0  0  0  0  0
  -16.5980  -29.7490   23.6220 C   0  0  0  0  0  3  0  0  0  0  0  0
  -16.8350  -28.5010   23.0140 C   0  0  0  0  0  3  0  0  0  0  0  0
  -25.9420  -32.5790   23.8570 C   0  0  0  0  0  3  0  0  0  0  0  0
  -25.6380  -33.9750   24.1880 N   0  0  0  0  0  0  0  0  0  0  0  0
  -25.9650  -35.0290   23.4270 C   0  0  0  0  0  0  0  0  0  0  0  0
  -26.6340  -34.9270   22.3920 O   0  0  0  0  0  0  0  0  0  0  0  0
  -25.0430  -34.1250   24.9910 H   0  0  0  0  0  0  0  0  0  0  0  0
  -24.2390  -36.8270   23.0720 C   0  0  0  0  0  1  0  0  0  0  0  0
  -25.4770  -36.4170   23.8880 C   0  0  0  0  0  3  0  0  0  0  0  0
  -27.6090  -37.3030   24.7230 C   0  0  0  0  0  1  0  0  0  0  0  0
  -26.5080  -37.4700   23.7790 N   0  0  0  0  0  0  0  0  0  0  0  0
  -26.1020  -38.3900   23.9220 H   0  0  0  0  0  0  0  0  0  0  0  0
  -26.4570  -31.8040   25.1320 C   0  0  1  0  0  0  0  0  0  0  0  0
  -25.3710  -31.5580   26.2060 C   0  0  0  0  0  1  0  0  0  0  0  0
  -27.0490  -30.4310   24.7330 C   0  0  0  0  0  1  0  0  0  0  0  0
  -27.6040  -32.6000   25.8000 C   0  0  0  0  0  1  0  0  0  0  0  0
  -28.6750  -20.2280   20.2950 C   0  0  0  0  0  2  0  0  0  0  0  0
  -31.1770  -20.1330   20.4610 C   0  0  0  0  0  1  0  0  0  0  0  0
  -29.9130  -19.3610   20.4030 N   0  0  1  0  0  4  0  0  0  0  0  0
  -29.9750  -18.9180   19.4990 H   0  0  0  0  0  0  0  0  0  0  0  0
  -29.9070  -18.1770   21.3450 C   0  0  0  0  0  2  0  0  0  0  0  0
  -29.4220  -16.7730   20.7890 C   0  0  0  0  0  2  0  0  0  0  0  0
  -31.0770  -14.8290   20.2980 C   0  0  0  0  0  0  0  0  0  0  0  0
  -30.7930  -12.5660   19.3120 C   0  0  0  0  0  2  0  0  0  0  0  0
  -29.8830  -12.6740   18.0700 C   0  0  0  0  0  2  0  0  0  0  0  0
  -28.3970  -12.5670   18.4700 C   0  0  0  0  0  2  0  0  0  0  0  0
  -28.0330  -13.4780   19.6720 C   0  0  0  0  0  3  0  0  0  0  0  0
  -29.0680  -13.3660   20.8120 C   0  0  0  0  0  2  0  0  0  0  0  0
  -30.3850  -13.6470   20.2350 N   0  0  0  0  0  0  0  0  0  0  0  0
  -32.2920  -14.8440   20.0750 O   0  0  0  0  0  0  0  0  0  0  0  0
  -30.7010  -16.6350   18.6910 C   0  0  0  0  0  1  0  0  0  0  0  0
  -30.3680  -15.9630   19.9600 N   0  0  0  0  0  0  0  0  0  0  0  0
  -25.6410  -14.1370   20.3370 C   0  0  0  0  0  0  0  0  0  0  0  0
  -24.5530  -13.3930   20.7010 C   0  0  0  0  0  0  0  0  0  0  0  0
  -24.9890  -12.0340   20.7100 C   0  0  0  0  0  0  0  0  0  0  0  0
  -26.6740  -13.2340   20.1440 N   0  0  0  0  0  0  0  0  0  0  0  0
  -26.2840  -11.9630   20.4300 N   0  0  0  0  0  0  0  0  0  0  0  0
  -24.2350  -10.7910   20.9060 C   0  0  0  0  0  0  0  0  0  0  0  0
  -24.6100   -9.8500   21.8910 C   0  0  0  0  0  3  0  0  0  0  0  0
  -23.8560   -8.6720   22.0800 C   0  0  0  0  0  3  0  0  0  0  0  0
  -22.7140   -8.4260   21.2840 C   0  0  0  0  0  0  0  0  0  0  0  0
  -22.3570   -9.3530   20.2900 C   0  0  0  0  0  3  0  0  0  0  0  0
  -23.1120  -10.5220   20.0970 C   0  0  0  0  0  3  0  0  0  0  0  0
  -21.9400   -7.2950   21.3760 O   0  0  0  0  0  0  0  0  0  0  0  0
  -21.8070   -6.6100   22.5580 C   0  0  0  0  0  0  0  0  0  0  0  0
  -21.3040   -7.2290   23.7240 C   0  0  0  0  0  3  0  0  0  0  0  0
  -21.1060   -6.4680   24.8960 C   0  0  0  0  0  3  0  0  0  0  0  0
  -21.4130   -5.0920   24.9010 C   0  0  0  0  0  0  0  0  0  0  0  0
  -21.9190   -4.4780   23.7430 C   0  0  0  0  0  3  0  0  0  0  0  0
  -22.1070   -5.2330   22.5730 C   0  0  0  0  0  0  0  0  0  0  0  0
  -22.5670   -4.6300   21.4500 F   0  0  0  0  0  0  0  0  0  0  0  0
  -21.2220   -4.3630   26.0240 F   0  0  0  0  0  0  0  0  0  0  0  0
  -23.1600  -13.9010   20.9260 C   0  0  0  0  0  0  0  0  0  0  0  0
  -22.4030  -13.2430   21.7960 N   0  0  0  0  0  0  0  0  0  0  0  0
  -22.7500  -14.9180   20.3660 O   0  0  0  0  0  0  0  0  0  0  0  0
  -22.7520  -12.4180   22.2630 H   0  0  0  0  0  0  0  0  0  0  0  0
  -21.4670  -13.5650   21.9900 H   0  0  0  0  0  0  0  0  0  0  0  0
  -25.8290  -15.5030   20.1350 N   0  0  0  0  0  0  0  0  0  0  0  0
  -25.0560  -16.1580   20.2070 H   0  0  0  0  0  0  0  0  0  0  0  0
  -26.6750  -15.9180   19.7700 H   0  0  0  0  0  0  0  0  0  0  0  0
  2  1  1  0
  3  5  1  0
  3  2  1  0
  5  6  1  0
  5  4  1  0
  7  9  1  0
  7  6  1  0
  8 19  2  0
  9 14  1  0
 10 18  1  0
 10 20  1  0
 11 17  1  0
 11 13  1  0
 12 18  1  0
 13 12  1  0
 14 13  2  0
 15 16  1  0
 15  9  2  0
 16 11  2  0
 17 10  1  0
 18  8  1  0
 20 22  2  0
 21 20  1  0
 23 21  1  0
 24 33  2  0
 24 29  1  0
 25 21  1  0
 25 29  1  0
 26 25  1  0
 27 28  1  0
 27 26  1  0
 28 24  1  0
 29 30  2  0
 30 31  1  0
 32 31  2  0
 33 32  1  0
 34  8  1  0
 34 35  1  0
 34 44  1  0
 35 38  1  0
 36 40  1  0
 36 35  1  0
 37 36  2  0
 40 39  1  0
 42 40  1  0
 42 43  1  0
 42 41  1  0
 44 47  1  1
 44 45  1  0
 46 44  1  0
 48 50  1  0
 48  2  1  0
 50 49  1  0
 50 52  1  0
 50 51  1  6
 53 52  1  0
 55 60  1  0
 56 57  1  0
 56 55  1  0
 58 57  1  0
 58 67  1  0
 58 59  1  0
 60 54  1  0
 60 59  1  0
 61 54  2  0
 62 63  1  0
 63 54  1  0
 63 53  1  0
 64 65  2  0
 65 66  1  0
 65 84  1  0
 66 69  1  0
 67 64  1  0
 67 68  1  0
 68 66  2  0
 69 70  1  0
 70 71  2  0
 72 75  1  0
 72 71  1  0
 73 72  2  0
 74 73  1  0
 74 69  2  0
 75 76  1  0
 76 81  2  0
 76 77  1  0
 77 78  2  0
 78 79  1  0
 79 83  1  0
 80 79  2  0
 81 80  1  0
 82 81  1  0
 84 85  1  0
 85 88  1  0
 85 87  1  0
 86 84  2  0
 89 90  1  0
 89 64  1  0
 91 89  1  0
M  ISO  4   6 101   7 101  54 100  63 100
M  END
>  <TORSDO>  (45) 
F 23

>  <SCORE>  (45) 
-11.368

>  <name>  (45) 
44

>  <ligand_id>  (45) 
44

>  <original_smiles>  (45) 
[H]c1c([H])c([H])c2c(c1[H])C([H])([H])C([H])([H])C([H])([H])C2([H])N([H])C(=O)C1([H])N(C(=O)C([H])(N([H])C(=O)C([H])(N([H])C([H])([H])[H])C([H])([H])[H])C(C([H])([H])[H])(C([H])([H])[H])C([H])([H])[H])C([H])([H])c2c([H])c(OC([H])([H])C([H])(C([H])([H])[H])C([H])([H])C([H])(C([H])([H])[H])C([H])([H])[N+]([H])(C([H])([H])[H])C([H])([H])C([H])([H])N(C(=O)N3C([H])([H])C([H])([H])C([H])([H])C([H])(n4nc(-c5c([H])c([H])c(Oc6c([H])c([H])c(F)c([H])c6F)c([H])c5[H])c(C(=O)N([H])[H])c4N([H])[H])C3([H])[H])C([H])([H])[H])c([H])c([H])c2C1([H])[H]

>  <smiles>  (45) 
[H]c1c([H])c([H])c2c(c1[H])C([H])([H])C([H])([H])C([H])([H])C2([H])N([H])C(=O)C1([H])N(C(=O)C([H])(N([H])C(=O)C([H])(N([H])C([H])([H])[H])C([H])([H])[H])C(C([H])([H])[H])(C([H])([H])[H])C([H])([H])[H])C([H])([H])c2c([H])c(OC([H])([H])C([H])(C([H])([H])[H])C([H])([H])C([H])(C([H])([H])[H])C([H])([H])[N+]([H])(C([H])([H])[H])C([H])([H])C([H])([H])N(C(=O)N3C([H])([H])C([H])([H])C([H])([H])C([H])(n4nc(-c5c([H])c([H])c(Oc6c([H])c([H])c(F)c([H])c6F)c([H])c5[H])c(C(=O)N([H])[H])c4N([H])[H])C3([H])[H])C([H])([H])[H])c([H])c([H])c2C1([H])[H]

$$$$
45:0:0
     RDKit          3D

 92 99  0  0  1  0  0  0  0  0999 V2000
  -29.8070  -22.4720   19.0050 N   0  0  0  0  0  4  0  0  0  0  0  0
  -30.7100  -22.8200   19.2860 H   0  0  0  0  0  0  0  0  0  0  0  0
  -29.9390  -22.1980   18.0440 H   0  0  0  0  0  0  0  0  0  0  0  0
  -28.3700  -23.9020   17.4570 C   0  0  0  0  0  1  0  0  0  0  0  0
  -28.7890  -23.7070   18.9300 C   0  0  0  0  0  3  0  0  0  0  0  0
  -29.1030  -25.2260   19.6120 C   0  0  0  0  0  2  0  0  0  0  0  0
  -28.7260  -26.6860   19.2220 O   0  0  0  0  0  0  0  0  0  0  0  0
  -24.5690  -31.4990   23.0490 C   0  0  0  0  0  0  0  0  0  0  0  0
  -27.5240  -27.4330   19.4710 C   0  0  0  0  0  0  0  0  0  0  0  0
  -23.4700  -30.1900   21.2700 C   0  0  0  0  0  3  0  0  0  0  0  0
  -25.0300  -28.9120   19.6840 C   0  0  0  0  0  0  0  0  0  0  0  0
  -25.9870  -30.7110   21.1140 C   0  0  0  0  0  2  0  0  0  0  0  0
  -26.1750  -29.4130   20.3110 C   0  0  0  0  0  0  0  0  0  0  0  0
  -27.4250  -28.7000   20.1750 C   0  0  0  0  0  3  0  0  0  0  0  0
  -26.3300  -27.0070   18.8570 C   0  0  0  0  0  3  0  0  0  0  0  0
  -25.1170  -27.7200   18.9480 C   0  0  0  0  0  3  0  0  0  0  0  0
  -23.7280  -29.6840   19.8270 C   0  0  0  0  0  2  0  0  0  0  0  0
  -24.6950  -30.8180   21.8680 N   0  0  0  0  0  0  0  0  0  0  0  0
  -23.4700  -31.6190   23.6140 O   0  0  0  0  0  0  0  0  0  0  0  0
  -22.9030  -29.0260   22.1200 C   0  0  0  0  0  0  0  0  0  0  0  0
  -21.6110  -28.7060   21.9410 N   0  0  0  0  0  0  0  0  0  0  0  0
  -23.6320  -28.4130   22.9060 O   0  0  0  0  0  0  0  0  0  0  0  0
  -21.0710  -29.2580   21.2880 H   0  0  0  0  0  0  0  0  0  0  0  0
  -18.4150  -27.0220   22.1930 C   0  0  0  0  0  0  0  0  0  0  0  0
  -20.9010  -27.6090   22.6030 C   0  0  0  0  0  3  0  0  0  0  0  0
  -21.2240  -26.2510   21.9360 C   0  0  0  0  0  2  0  0  0  0  0  0
  -20.2170  -25.8590   20.8500 C   0  0  0  0  0  2  0  0  0  0  0  0
  -18.8030  -25.7680   21.4310 C   0  0  0  0  0  2  0  0  0  0  0  0
  -19.3990  -27.8940   22.7310 C   0  0  0  0  0  0  0  0  0  0  0  0
  -18.9830  -29.0630   23.4030 C   0  0  0  0  0  3  0  0  0  0  0  0
  -17.6140  -29.3680   23.5400 C   0  0  0  0  0  3  0  0  0  0  0  0
  -16.6450  -28.4950   23.0160 C   0  0  0  0  0  3  0  0  0  0  0  0
  -17.0450  -27.3210   22.3500 C   0  0  0  0  0  3  0  0  0  0  0  0
  -25.7940  -32.1810   23.7320 C   0  0  0  0  0  3  0  0  0  0  0  0
  -25.3920  -33.5400   24.1290 N   0  0  0  0  0  0  0  0  0  0  0  0
  -25.7040  -34.6550   23.4560 C   0  0  0  0  0  0  0  0  0  0  0  0
  -26.4250  -34.6510   22.4560 O   0  0  0  0  0  0  0  0  0  0  0  0
  -24.7580  -33.6160   24.9110 H   0  0  0  0  0  0  0  0  0  0  0  0
  -23.9070  -36.3840   23.1290 C   0  0  0  0  0  1  0  0  0  0  0  0
  -25.1260  -35.9870   23.9760 C   0  0  0  0  0  3  0  0  0  0  0  0
  -27.1660  -36.9210   24.9740 C   0  0  0  0  0  1  0  0  0  0  0  0
  -26.1080  -37.0930   23.9810 N   0  0  0  0  0  0  0  0  0  0  0  0
  -25.6510  -37.9820   24.1620 H   0  0  0  0  0  0  0  0  0  0  0  0
  -26.3250  -31.3810   24.9830 C   0  0  1  0  0  0  0  0  0  0  0  0
  -25.2270  -31.0370   26.0170 C   0  0  0  0  0  1  0  0  0  0  0  0
  -26.9880  -30.0560   24.5440 C   0  0  0  0  0  1  0  0  0  0  0  0
  -27.4200  -32.2030   25.7030 C   0  0  0  0  0  1  0  0  0  0  0  0
  -29.5660  -21.1000   19.7710 C   0  0  0  0  0  3  0  0  0  0  0  0
  -30.1020  -19.5640   19.2290 C   0  0  0  0  0  2  0  0  0  0  0  0
  -30.6110  -18.2210   20.1510 C   0  0  0  0  0  2  0  0  0  0  0  0
  -31.2530  -15.4830   19.9260 C   0  0  0  0  0  0  0  0  0  0  0  0
  -31.1400  -13.0540   19.1780 C   0  0  0  0  0  2  0  0  0  0  0  0
  -30.1840  -12.8930   17.9740 C   0  0  0  0  0  2  0  0  0  0  0  0
  -28.7250  -12.7300   18.4440 C   0  0  0  0  0  2  0  0  0  0  0  0
  -28.3390  -13.7530   19.5400 C   0  0  0  0  0  3  0  0  0  0  0  0
  -29.4090  -13.8620   20.6460 C   0  0  0  0  0  2  0  0  0  0  0  0
  -30.6620  -14.2200   19.9720 N   0  0  0  0  0  0  0  0  0  0  0  0
  -32.4710  -15.5290   19.7360 O   0  0  0  0  0  0  0  0  0  0  0  0
  -30.4350  -16.6570   19.8830 N   0  0  0  0  0  0  0  0  0  0  0  0
  -29.4630  -16.3910   19.8800 H   0  0  0  0  0  0  0  0  0  0  0  0
  -26.0190  -14.4320   20.3780 C   0  0  0  0  0  0  0  0  0  0  0  0
  -24.9230  -13.7020   20.7490 C   0  0  0  0  0  0  0  0  0  0  0  0
  -25.3120  -12.3300   20.6550 C   0  0  0  0  0  0  0  0  0  0  0  0
  -27.0040  -13.5080   20.0750 N   0  0  0  0  0  0  0  0  0  0  0  0
  -26.5910  -12.2360   20.3110 N   0  0  0  0  0  0  0  0  0  0  0  0
  -24.5220  -11.1020   20.8170 C   0  0  0  0  0  0  0  0  0  0  0  0
  -24.8830  -10.1110   21.7560 C   0  0  0  0  0  3  0  0  0  0  0  0
  -24.0980   -8.9480   21.9070 C   0  0  0  0  0  3  0  0  0  0  0  0
  -22.9370   -8.7670   21.1190 C   0  0  0  0  0  0  0  0  0  0  0  0
  -22.5950   -9.7460   20.1680 C   0  0  0  0  0  3  0  0  0  0  0  0
  -23.3810  -10.9000   20.0160 C   0  0  0  0  0  3  0  0  0  0  0  0
  -22.1280   -7.6580   21.1760 O   0  0  0  0  0  0  0  0  0  0  0  0
  -21.9340   -6.9700   22.3470 C   0  0  0  0  0  0  0  0  0  0  0  0
  -21.3960   -7.5910   23.4950 C   0  0  0  0  0  3  0  0  0  0  0  0
  -21.1480   -6.8320   24.6570 C   0  0  0  0  0  3  0  0  0  0  0  0
  -21.4320   -5.4530   24.6700 C   0  0  0  0  0  0  0  0  0  0  0  0
  -21.9630   -4.8310   23.5270 C   0  0  0  0  0  3  0  0  0  0  0  0
  -22.2130   -5.5890   22.3680 C   0  0  0  0  0  0  0  0  0  0  0  0
  -22.7030   -4.9790   21.2630 F   0  0  0  0  0  0  0  0  0  0  0  0
  -21.1880   -4.7220   25.7840 F   0  0  0  0  0  0  0  0  0  0  0  0
  -23.5620  -14.2420   21.0760 C   0  0  0  0  0  0  0  0  0  0  0  0
  -22.8300  -13.5640   21.9520 N   0  0  0  0  0  0  0  0  0  0  0  0
  -23.1620  -15.3010   20.5920 O   0  0  0  0  0  0  0  0  0  0  0  0
  -23.1640  -12.6980   22.3490 H   0  0  0  0  0  0  0  0  0  0  0  0
  -21.9230  -13.9120   22.2310 H   0  0  0  0  0  0  0  0  0  0  0  0
  -26.2580  -15.7970   20.2380 N   0  0  0  0  0  0  0  0  0  0  0  0
  -25.5410  -16.4990   20.3810 H   0  0  0  0  0  0  0  0  0  0  0  0
  -27.1080  -16.1820   19.8470 H   0  0  0  0  0  0  0  0  0  0  0  0
  -29.8450  -21.3400   21.2790 C   0  0  0  0  0  2  0  0  0  0  0  0
  -29.8410  -23.1210   22.9260 C   0  0  0  0  0  1  0  0  0  0  0  0
  -27.7990  -22.3200   22.0310 C   0  0  0  0  0  1  0  0  0  0  0  0
  -29.2050  -22.5830   21.7260 N   0  0  0  0  0  0  0  0  0  0  0  0
  1  2  1  0
  1 48  1  0
  3  1  1  0
  5  4  1  0
  5  1  1  0
  5  6  1  0
  7  9  1  0
  7  6  1  0
  8 19  2  0
  9 14  1  0
 10 18  1  0
 10 20  1  0
 11 17  1  0
 11 13  1  0
 12 18  1  0
 13 12  1  0
 14 13  2  0
 15 16  1  0
 15  9  2  0
 16 11  2  0
 17 10  1  0
 18  8  1  0
 20 22  2  0
 21 20  1  0
 23 21  1  0
 24 33  2  0
 24 29  1  0
 25 21  1  0
 25 29  1  0
 26 25  1  0
 27 28  1  0
 27 26  1  0
 28 24  1  0
 29 30  2  0
 30 31  1  0
 32 31  2  0
 33 32  1  0
 34  8  1  0
 34 35  1  0
 34 44  1  0
 35 38  1  0
 36 40  1  0
 36 35  1  0
 37 36  2  0
 40 39  1  0
 40 42  1  0
 42 43  1  0
 42 41  1  0
 44 47  1  1
 44 45  1  0
 46 44  1  0
 48 49  1  0
 48 89  1  0
 49 50  1  0
 51 57  1  0
 52 57  1  0
 53 54  1  0
 53 52  1  0
 55 54  1  0
 55 64  1  0
 55 56  1  0
 57 56  1  0
 58 51  2  0
 59 51  1  0
 59 50  1  0
 60 59  1  0
 61 62  2  0
 62 81  1  0
 63 62  1  0
 63 66  1  0
 64 65  1  0
 64 61  1  0
 65 63  2  0
 66 67  1  0
 67 68  2  0
 69 72  1  0
 69 68  1  0
 70 69  2  0
 71 70  1  0
 71 66  2  0
 72 73  1  0
 73 78  2  0
 73 74  1  0
 74 75  2  0
 75 76  1  0
 76 80  1  0
 77 76  2  0
 78 77  1  0
 79 78  1  0
 81 82  1  0
 82 85  1  0
 82 84  1  0
 83 81  2  0
 86 61  1  0
 86 87  1  0
 88 86  1  0
 89 92  1  0
 92 91  1  0
 92 90  1  0
M  ISO  4   6 101   7 101  51 100  59 100
M  END
>  <TORSDO>  (46) 
F 23

>  <SCORE>  (46) 
-11.318

>  <name>  (46) 
45

>  <ligand_id>  (46) 
45

>  <original_smiles>  (46) 
[H]c1c([H])c([H])c2c(c1[H])C([H])([H])C([H])([H])C([H])([H])C2([H])N([H])C(=O)C1([H])N(C(=O)C([H])(N([H])C(=O)C([H])(N([H])C([H])([H])[H])C([H])([H])[H])C(C([H])([H])[H])(C([H])([H])[H])C([H])([H])[H])C([H])([H])c2c([H])c(OC([H])([H])C([H])(C([H])([H])[H])[N+]([H])([H])C([H])(C([H])([H])N(C([H])([H])[H])C([H])([H])[H])C([H])([H])C([H])([H])N([H])C(=O)N3C([H])([H])C([H])([H])C([H])([H])C([H])(n4nc(-c5c([H])c([H])c(Oc6c([H])c([H])c(F)c([H])c6F)c([H])c5[H])c(C(=O)N([H])[H])c4N([H])[H])C3([H])[H])c([H])c([H])c2C1([H])[H]

>  <smiles>  (46) 
[H]c1c([H])c([H])c2c(c1[H])C([H])([H])C([H])([H])C([H])([H])C2([H])N([H])C(=O)C1([H])N(C(=O)C([H])(N([H])C(=O)C([H])(N([H])C([H])([H])[H])C([H])([H])[H])C(C([H])([H])[H])(C([H])([H])[H])C([H])([H])[H])C([H])([H])c2c([H])c(OC([H])([H])C([H])(C([H])([H])[H])[N+]([H])([H])C([H])(C([H])([H])N(C([H])([H])[H])C([H])([H])[H])C([H])([H])C([H])([H])N([H])C(=O)N3C([H])([H])C([H])([H])C([H])([H])C([H])(n4nc(-c5c([H])c([H])c(Oc6c([H])c([H])c(F)c([H])c6F)c([H])c5[H])c(C(=O)N([H])[H])c4N([H])[H])C3([H])[H])c([H])c([H])c2C1([H])[H]

$$$$
46:0:0
     RDKit          3D

 90 98  0  0  1  0  0  0  0  0999 V2000
  -28.1360  -18.7740   19.0740 C   0  0  0  0  0  2  0  0  0  0  0  0
  -27.4400  -19.9740   19.7740 C   0  0  0  0  0  2  0  0  0  0  0  0
  -29.5610  -20.9220   20.7190 C   0  0  0  0  0  2  0  0  0  0  0  0
  -29.9530  -20.7200   19.2510 C   0  0  0  0  0  3  0  0  0  0  0  0
  -29.6970  -18.8290   18.9550 C   0  0  0  0  0  3  0  0  0  0  0  0
  -27.4030  -21.5100   21.7280 C   0  0  0  0  0  1  0  0  0  0  0  0
  -28.1630  -20.4790   20.9810 N   0  0  1  0  0  4  0  0  0  0  0  0
  -28.2290  -19.6880   21.6100 H   0  0  0  0  0  0  0  0  0  0  0  0
  -30.8620  -15.8390   19.3580 C   0  0  0  0  0  0  0  0  0  0  0  0
  -30.9460  -13.2430   18.7850 C   0  0  0  0  0  2  0  0  0  0  0  0
  -29.9490  -12.7370   17.7010 C   0  0  0  0  0  2  0  0  0  0  0  0
  -28.5590  -12.4450   18.2900 C   0  0  0  0  0  2  0  0  0  0  0  0
  -28.1360  -13.5330   19.3020 C   0  0  0  0  0  3  0  0  0  0  0  0
  -29.2560  -13.9290   20.2980 C   0  0  0  0  0  2  0  0  0  0  0  0
  -30.3760  -14.4720   19.4990 N   0  0  0  0  0  0  0  0  0  0  0  0
  -32.0580  -15.8090   19.0360 O   0  0  0  0  0  0  0  0  0  0  0  0
  -30.0360  -17.1410   19.4130 N   0  0  0  0  0  0  0  0  0  0  0  0
  -29.1650  -16.8020   19.7740 H   0  0  0  0  0  0  0  0  0  0  0  0
  -25.9000  -14.1300   20.3630 C   0  0  0  0  0  0  0  0  0  0  0  0
  -24.8430  -13.3780   20.7980 C   0  0  0  0  0  0  0  0  0  0  0  0
  -25.2370  -12.0120   20.6380 C   0  0  0  0  0  0  0  0  0  0  0  0
  -26.8650  -13.2300   19.9530 N   0  0  0  0  0  0  0  0  0  0  0  0
  -26.4860  -11.9420   20.1900 N   0  0  0  0  0  0  0  0  0  0  0  0
  -24.4720  -10.7710   20.8270 C   0  0  0  0  0  0  0  0  0  0  0  0
  -24.8790   -9.7850   21.7550 C   0  0  0  0  0  3  0  0  0  0  0  0
  -24.1120   -8.6140   21.9360 C   0  0  0  0  0  3  0  0  0  0  0  0
  -22.9210   -8.4220   21.1960 C   0  0  0  0  0  0  0  0  0  0  0  0
  -22.5350   -9.3950   20.2560 C   0  0  0  0  0  3  0  0  0  0  0  0
  -23.3010  -10.5570   20.0730 C   0  0  0  0  0  3  0  0  0  0  0  0
  -22.1270   -7.3060   21.2890 O   0  0  0  0  0  0  0  0  0  0  0  0
  -21.9510   -6.6440   22.4800 C   0  0  0  0  0  0  0  0  0  0  0  0
  -21.4110   -7.2840   23.6160 C   0  0  0  0  0  3  0  0  0  0  0  0
  -21.1790   -6.5480   24.7960 C   0  0  0  0  0  3  0  0  0  0  0  0
  -21.4870   -5.1740   24.8410 C   0  0  0  0  0  0  0  0  0  0  0  0
  -22.0180   -4.5340   23.7090 C   0  0  0  0  0  3  0  0  0  0  0  0
  -22.2500   -5.2670   22.5320 C   0  0  0  0  0  0  0  0  0  0  0  0
  -22.7440   -4.6400   21.4370 F   0  0  0  0  0  0  0  0  0  0  0  0
  -21.2600   -4.4670   25.9720 F   0  0  0  0  0  0  0  0  0  0  0  0
  -23.5080  -13.8930   21.2410 C   0  0  0  0  0  0  0  0  0  0  0  0
  -22.8450  -13.1820   22.1420 N   0  0  0  0  0  0  0  0  0  0  0  0
  -23.0680  -14.9630   20.8220 O   0  0  0  0  0  0  0  0  0  0  0  0
  -23.2210  -12.3100   22.4890 H   0  0  0  0  0  0  0  0  0  0  0  0
  -21.9540  -13.5020   22.4950 H   0  0  0  0  0  0  0  0  0  0  0  0
  -26.1110  -15.4990   20.2290 N   0  0  0  0  0  0  0  0  0  0  0  0
  -25.3690  -16.1680   20.3980 H   0  0  0  0  0  0  0  0  0  0  0  0
  -26.8350  -15.8510   19.6150 H   0  0  0  0  0  0  0  0  0  0  0  0
  -31.0680  -23.1990   18.9020 C   0  0  0  0  0  1  0  0  0  0  0  0
  -29.7390  -22.5030   18.5080 C   0  0  0  0  0  3  0  0  0  0  0  0
  -28.6290  -24.0650   18.6020 C   0  0  0  0  0  2  0  0  0  0  0  0
  -28.7600  -25.8010   18.6000 O   0  0  0  0  0  0  0  0  0  0  0  0
  -25.4080  -31.2630   22.9310 C   0  0  0  0  0  0  0  0  0  0  0  0
  -27.7750  -26.9620   18.8550 C   0  0  0  0  0  0  0  0  0  0  0  0
  -24.1410  -30.2610   21.0740 C   0  0  0  0  0  3  0  0  0  0  0  0
  -25.5180  -28.9430   19.2950 C   0  0  0  0  0  0  0  0  0  0  0  0
  -26.7170  -30.4060   20.9020 C   0  0  0  0  0  2  0  0  0  0  0  0
  -26.7370  -29.1510   19.9550 C   0  0  0  0  0  0  0  0  0  0  0  0
  -27.8540  -28.2020   19.7020 C   0  0  0  0  0  3  0  0  0  0  0  0
  -26.5150  -26.9420   18.1990 C   0  0  0  0  0  3  0  0  0  0  0  0
  -25.4460  -27.8650   18.3970 C   0  0  0  0  0  3  0  0  0  0  0  0
  -24.3260  -29.8650   19.5810 C   0  0  0  0  0  2  0  0  0  0  0  0
  -25.4460  -30.6630   21.6940 N   0  0  0  0  0  0  0  0  0  0  0  0
  -24.3370  -31.4660   23.5290 O   0  0  0  0  0  0  0  0  0  0  0  0
  -23.4430  -29.1020   21.8340 C   0  0  0  0  0  0  0  0  0  0  0  0
  -22.1000  -29.0340   21.7640 N   0  0  0  0  0  0  0  0  0  0  0  0
  -24.1160  -28.2790   22.4650 O   0  0  0  0  0  0  0  0  0  0  0  0
  -21.6120  -29.7530   21.2570 H   0  0  0  0  0  0  0  0  0  0  0  0
  -18.6870  -27.9200   22.3050 C   0  0  0  0  0  0  0  0  0  0  0  0
  -21.2740  -27.9750   22.3530 C   0  0  0  0  0  3  0  0  0  0  0  0
  -21.2250  -26.7400   21.4170 C   0  0  0  0  0  2  0  0  0  0  0  0
  -20.0140  -26.7530   20.4870 C   0  0  0  0  0  2  0  0  0  0  0  0
  -18.7060  -26.7920   21.2830 C   0  0  0  0  0  2  0  0  0  0  0  0
  -19.8930  -28.4880   22.7940 C   0  0  0  0  0  0  0  0  0  0  0  0
  -19.8200  -29.5610   23.7110 C   0  0  0  0  0  3  0  0  0  0  0  0
  -18.5790  -30.0610   24.1460 C   0  0  0  0  0  3  0  0  0  0  0  0
  -17.3850  -29.4830   23.6760 C   0  0  0  0  0  3  0  0  0  0  0  0
  -17.4430  -28.4130   22.7590 C   0  0  0  0  0  3  0  0  0  0  0  0
  -26.6990  -31.7440   23.6500 C   0  0  0  0  0  3  0  0  0  0  0  0
  -26.4020  -33.0250   24.3190 N   0  0  0  0  0  0  0  0  0  0  0  0
  -26.7190  -34.2360   23.8400 C   0  0  0  0  0  0  0  0  0  0  0  0
  -27.3580  -34.3890   22.7960 O   0  0  0  0  0  0  0  0  0  0  0  0
  -25.8120  -32.9750   25.1340 H   0  0  0  0  0  0  0  0  0  0  0  0
  -25.0050  -36.0760   24.0000 C   0  0  0  0  0  1  0  0  0  0  0  0
  -26.2660  -35.4750   24.6420 C   0  0  0  0  0  3  0  0  0  0  0  0
  -28.4340  -36.1240   25.5950 C   0  0  0  0  0  1  0  0  0  0  0  0
  -27.3090  -36.5200   24.7520 N   0  0  0  0  0  0  0  0  0  0  0  0
  -26.9200  -37.3840   25.1220 H   0  0  0  0  0  0  0  0  0  0  0  0
  -27.2260  -30.7010   24.7130 C   0  0  1  0  0  0  0  0  0  0  0  0
  -26.1540  -30.2440   25.7330 C   0  0  0  0  0  1  0  0  0  0  0  0
  -27.7780  -29.4350   24.0220 C   0  0  0  0  0  1  0  0  0  0  0  0
  -28.4070  -31.3190   25.5000 C   0  0  0  0  0  1  0  0  0  0  0  0
  1  2  1  0
  2  7  1  0
  3  7  1  0
  4 48  1  0
  4  3  1  0
  5  1  1  0
  5  4  1  0
  5 17  1  0
  7  8  1  1
  7  6  1  0
  9 17  1  0
  9 15  1  0
 10 15  1  0
 11 12  1  0
 11 10  1  0
 13 12  1  0
 13 22  1  0
 13 14  1  0
 15 14  1  0
 16  9  2  0
 17 18  1  0
 19 20  2  0
 20 39  1  0
 21 20  1  0
 21 24  1  0
 22 23  1  0
 22 19  1  0
 23 21  2  0
 24 25  1  0
 25 26  2  0
 27 30  1  0
 27 26  1  0
 28 27  2  0
 29 28  1  0
 29 24  2  0
 30 31  1  0
 31 36  2  0
 31 32  1  0
 32 33  2  0
 33 34  1  0
 34 38  1  0
 35 34  2  0
 36 35  1  0
 37 36  1  0
 39 40  1  0
 40 42  1  0
 40 43  1  0
 41 39  2  0
 44 19  1  0
 44 45  1  0
 46 44  1  0
 48 49  1  0
 48 47  1  0
 50 49  1  0
 50 52  1  0
 51 62  2  0
 52 57  1  0
 53 61  1  0
 53 63  1  0
 54 60  1  0
 54 56  1  0
 55 61  1  0
 56 55  1  0
 57 56  2  0
 58 59  1  0
 58 52  2  0
 59 54  2  0
 60 53  1  0
 61 51  1  0
 63 65  2  0
 64 63  1  0
 66 64  1  0
 67 76  2  0
 67 72  1  0
 68 64  1  0
 68 72  1  0
 69 68  1  0
 70 71  1  0
 70 69  1  0
 71 67  1  0
 72 73  2  0
 73 74  1  0
 75 74  2  0
 76 75  1  0
 77 51  1  0
 77 78  1  0
 77 87  1  0
 78 81  1  0
 79 78  1  0
 79 83  1  0
 80 79  2  0
 83 82  1  0
 83 85  1  0
 85 86  1  0
 85 84  1  0
 87 90  1  1
 87 88  1  0
 89 87  1  0
M  ISO  4   9 100  17 100  49 101  50 101
M  END
>  <TORSDO>  (47) 
F 18

>  <SCORE>  (47) 
-11.425

>  <name>  (47) 
46

>  <ligand_id>  (47) 
46

>  <original_smiles>  (47) 
[H]c1c([H])c([H])c2c(c1[H])C([H])([H])C([H])([H])C([H])([H])C2([H])N([H])C(=O)C1([H])N(C(=O)C([H])(N([H])C(=O)C([H])(N([H])C([H])([H])[H])C([H])([H])[H])C(C([H])([H])[H])(C([H])([H])[H])C([H])([H])[H])C([H])([H])c2c([H])c(OC([H])([H])C([H])(C([H])([H])[H])C3([H])C([H])(N([H])C(=O)N4C([H])([H])C([H])([H])C([H])([H])C([H])(n5nc(-c6c([H])c([H])c(Oc7c([H])c([H])c(F)c([H])c7F)c([H])c6[H])c(C(=O)N([H])[H])c5N([H])[H])C4([H])[H])C([H])([H])C([H])([H])[N+]([H])(C([H])([H])[H])C3([H])[H])c([H])c([H])c2C1([H])[H]

>  <smiles>  (47) 
[H]c1c([H])c([H])c2c(c1[H])C([H])([H])C([H])([H])C([H])([H])C2([H])N([H])C(=O)C1([H])N(C(=O)C([H])(N([H])C(=O)C([H])(N([H])C([H])([H])[H])C([H])([H])[H])C(C([H])([H])[H])(C([H])([H])[H])C([H])([H])[H])C([H])([H])c2c([H])c(OC([H])([H])C([H])(C([H])([H])[H])C3([H])C([H])(N([H])C(=O)N4C([H])([H])C([H])([H])C([H])([H])C([H])(n5nc(-c6c([H])c([H])c(Oc7c([H])c([H])c(F)c([H])c7F)c([H])c6[H])c(C(=O)N([H])[H])c5N([H])[H])C4([H])[H])C([H])([H])C([H])([H])[N+]([H])(C([H])([H])[H])C3([H])[H])c([H])c([H])c2C1([H])[H]

$$$$
47:0:0
     RDKit          3D

 92100  0  0  1  0  0  0  0  0999 V2000
  -29.7610  -21.1950   20.3810 C   0  0  0  0  0  3  0  0  0  0  0  0
  -29.3960  -20.0290   19.6980 C   0  0  0  0  0  0  0  0  0  0  0  0
  -28.3040  -20.4870   18.8790 C   0  0  0  0  0  0  0  0  0  0  0  0
  -28.2280  -21.8690   18.9160 C   0  0  0  0  0  0  0  0  0  0  0  0
  -27.4110  -22.7650   18.0250 C   0  0  0  0  0  1  0  0  0  0  0  0
  -29.0750  -22.3590   19.9140 N   0  0  0  0  0  0  0  0  0  0  0  0
  -27.9280  -19.4500   16.5930 C   0  0  0  0  0  1  0  0  0  0  0  0
  -25.9310  -19.9490   18.1190 C   0  0  0  0  0  1  0  0  0  0  0  0
  -27.4210  -19.5750   18.0380 C   0  0  0  0  0  3  0  0  0  0  0  0
  -30.0240  -18.5410   19.5810 C   0  0  0  0  0  2  0  0  0  0  0  0
  -30.2600  -17.4680   20.7650 C   0  0  0  0  0  2  0  0  0  0  0  0
  -30.7410  -14.8590   20.2460 C   0  0  0  0  0  0  0  0  0  0  0  0
  -30.5020  -12.5950   19.1940 C   0  0  0  0  0  2  0  0  0  0  0  0
  -29.5220  -12.6760   18.0020 C   0  0  0  0  0  2  0  0  0  0  0  0
  -28.0670  -12.4970   18.4770 C   0  0  0  0  0  2  0  0  0  0  0  0
  -27.7300  -13.3770   19.7080 C   0  0  0  0  0  3  0  0  0  0  0  0
  -28.8220  -13.2760   20.7950 C   0  0  0  0  0  2  0  0  0  0  0  0
  -30.1030  -13.6370   20.1680 N   0  0  0  0  0  0  0  0  0  0  0  0
  -31.9200  -14.9640   19.9030 O   0  0  0  0  0  0  0  0  0  0  0  0
  -29.9650  -15.9750   20.5270 N   0  0  0  0  0  0  0  0  0  0  0  0
  -29.0110  -15.7260   20.7310 H   0  0  0  0  0  0  0  0  0  0  0  0
  -25.3680  -13.9670   20.5240 C   0  0  0  0  0  0  0  0  0  0  0  0
  -24.3100  -13.1950   20.9110 C   0  0  0  0  0  0  0  0  0  0  0  0
  -24.7610  -11.8410   20.8380 C   0  0  0  0  0  0  0  0  0  0  0  0
  -26.4000  -13.0880   20.2360 N   0  0  0  0  0  0  0  0  0  0  0  0
  -26.0420  -11.8030   20.4890 N   0  0  0  0  0  0  0  0  0  0  0  0
  -24.0310  -10.5800   21.0210 C   0  0  0  0  0  0  0  0  0  0  0  0
  -24.4630   -9.6030   21.9440 C   0  0  0  0  0  3  0  0  0  0  0  0
  -23.7320   -8.4090   22.1180 C   0  0  0  0  0  3  0  0  0  0  0  0
  -22.5530   -8.1820   21.3680 C   0  0  0  0  0  0  0  0  0  0  0  0
  -22.1390   -9.1480   20.4330 C   0  0  0  0  0  3  0  0  0  0  0  0
  -22.8710  -10.3360   20.2590 C   0  0  0  0  0  3  0  0  0  0  0  0
  -21.7950   -7.0410   21.4500 O   0  0  0  0  0  0  0  0  0  0  0  0
  -21.7290   -6.3000   22.6030 C   0  0  0  0  0  0  0  0  0  0  0  0
  -21.2780   -6.8570   23.8210 C   0  0  0  0  0  3  0  0  0  0  0  0
  -21.1620   -6.0440   24.9650 C   0  0  0  0  0  3  0  0  0  0  0  0
  -21.4860   -4.6760   24.8940 C   0  0  0  0  0  0  0  0  0  0  0  0
  -21.9280   -4.1190   23.6820 C   0  0  0  0  0  3  0  0  0  0  0  0
  -22.0480   -4.9280   22.5390 C   0  0  0  0  0  0  0  0  0  0  0  0
  -22.4560   -4.3830   21.3680 F   0  0  0  0  0  0  0  0  0  0  0  0
  -21.3670   -3.8920   25.9910 F   0  0  0  0  0  0  0  0  0  0  0  0
  -22.9240  -13.6740   21.2330 C   0  0  0  0  0  0  0  0  0  0  0  0
  -22.2200  -12.9720   22.1130 N   0  0  0  0  0  0  0  0  0  0  0  0
  -22.4760  -14.7090   20.7380 O   0  0  0  0  0  0  0  0  0  0  0  0
  -22.5990  -12.1370   22.5370 H   0  0  0  0  0  0  0  0  0  0  0  0
  -21.2900  -13.2730   22.3690 H   0  0  0  0  0  0  0  0  0  0  0  0
  -25.5290  -15.3420   20.3650 N   0  0  0  0  0  0  0  0  0  0  0  0
  -24.7490  -15.9770   20.4910 H   0  0  0  0  0  0  0  0  0  0  0  0
  -26.3440  -15.7890   19.9710 H   0  0  0  0  0  0  0  0  0  0  0  0
  -29.2770  -23.8200   20.3820 C   0  0  0  0  0  3  0  0  0  0  0  0
  -28.3280  -25.0360   19.8660 C   0  0  0  0  0  3  0  0  0  0  0  0
  -28.4840  -26.4810   20.2420 O   0  0  0  0  0  0  0  0  0  0  0  0
  -24.6360  -31.8860   23.1780 C   0  0  0  0  0  0  0  0  0  0  0  0
  -27.3630  -27.3450   20.1490 C   0  0  0  0  0  0  0  0  0  0  0  0
  -23.4750  -30.4780   21.5160 C   0  0  0  0  0  3  0  0  0  0  0  0
  -24.9750  -28.9550   20.0980 C   0  0  0  0  0  0  0  0  0  0  0  0
  -26.0150  -30.8190   21.3830 C   0  0  0  0  0  2  0  0  0  0  0  0
  -26.1280  -29.4460   20.7250 C   0  0  0  0  0  0  0  0  0  0  0  0
  -27.3210  -28.6530   20.7410 C   0  0  0  0  0  3  0  0  0  0  0  0
  -26.1870  -26.9290   19.4790 C   0  0  0  0  0  3  0  0  0  0  0  0
  -25.0110  -27.7050   19.4590 C   0  0  0  0  0  3  0  0  0  0  0  0
  -23.7190  -29.8070   20.1380 C   0  0  0  0  0  2  0  0  0  0  0  0
  -24.7270  -31.0740   22.0840 N   0  0  0  0  0  0  0  0  0  0  0  0
  -23.5400  -32.1610   23.6880 O   0  0  0  0  0  0  0  0  0  0  0  0
  -22.8020  -29.4540   22.4590 C   0  0  0  0  0  0  0  0  0  0  0  0
  -21.4740  -29.2900   22.3280 N   0  0  0  0  0  0  0  0  0  0  0  0
  -23.4750  -28.8090   23.2680 O   0  0  0  0  0  0  0  0  0  0  0  0
  -20.9880  -29.8600   21.6500 H   0  0  0  0  0  0  0  0  0  0  0  0
  -18.0810  -28.1570   22.8530 C   0  0  0  0  0  0  0  0  0  0  0  0
  -20.6480  -28.3500   23.0880 C   0  0  0  0  0  3  0  0  0  0  0  0
  -20.7070  -26.9330   22.4720 C   0  0  0  0  0  2  0  0  0  0  0  0
  -19.5820  -26.6650   21.4660 C   0  0  0  0  0  2  0  0  0  0  0  0
  -18.2150  -26.8240   22.1360 C   0  0  0  0  0  2  0  0  0  0  0  0
  -19.2230  -28.8810   23.2870 C   0  0  0  0  0  0  0  0  0  0  0  0
  -19.0440  -30.1320   23.9150 C   0  0  0  0  0  3  0  0  0  0  0  0
  -17.7530  -30.6600   24.1120 C   0  0  0  0  0  3  0  0  0  0  0  0
  -16.6260  -29.9310   23.6960 C   0  0  0  0  0  3  0  0  0  0  0  0
  -16.7900  -28.6820   23.0720 C   0  0  0  0  0  3  0  0  0  0  0  0
  -25.9040  -32.5220   23.8250 C   0  0  0  0  0  3  0  0  0  0  0  0
  -25.5750  -33.9140   24.1590 N   0  0  0  0  0  0  0  0  0  0  0  0
  -25.9160  -34.9750   23.4140 C   0  0  0  0  0  0  0  0  0  0  0  0
  -26.6040  -34.8830   22.3940 O   0  0  0  0  0  0  0  0  0  0  0  0
  -24.9450  -34.0560   24.9350 H   0  0  0  0  0  0  0  0  0  0  0  0
  -24.1790  -36.7520   23.0430 C   0  0  0  0  0  1  0  0  0  0  0  0
  -25.4100  -36.3550   23.8710 C   0  0  0  0  0  3  0  0  0  0  0  0
  -27.5200  -37.2510   24.7460 C   0  0  0  0  0  1  0  0  0  0  0  0
  -26.4370  -37.4140   23.7800 N   0  0  0  0  0  0  0  0  0  0  0  0
  -26.0220  -38.3310   23.9240 H   0  0  0  0  0  0  0  0  0  0  0  0
  -26.4070  -31.7430   25.1030 C   0  0  1  0  0  0  0  0  0  0  0  0
  -25.2900  -31.4840   26.1420 C   0  0  0  0  0  1  0  0  0  0  0  0
  -27.0110  -30.3730   24.7130 C   0  0  0  0  0  1  0  0  0  0  0  0
  -27.5410  -32.5400   25.7850 C   0  0  0  0  0  1  0  0  0  0  0  0
  2  1  2  0
  3  4  2  0
  3  2  1  0
  4  6  1  0
  5  4  1  0
  6  1  1  0
  6 50  1  0
  7  9  1  0
  9  8  1  0
  9  3  1  0
 10  2  1  0
 10 11  1  0
 12 20  1  0
 13 18  1  0
 14 15  1  0
 14 13  1  0
 16 15  1  0
 16 25  1  0
 16 17  1  0
 18 12  1  0
 18 17  1  0
 19 12  2  0
 20 21  1  0
 20 11  1  0
 22 23  2  0
 23 42  1  0
 24 23  1  0
 24 27  1  0
 25 26  1  0
 25 22  1  0
 26 24  2  0
 27 28  1  0
 28 29  2  0
 30 33  1  0
 30 29  1  0
 31 30  2  0
 32 31  1  0
 32 27  2  0
 33 34  1  0
 34 35  1  0
 35 36  2  0
 37 36  1  0
 37 41  1  0
 38 37  2  0
 39 34  2  0
 39 38  1  0
 40 39  1  0
 42 43  1  0
 43 46  1  0
 43 45  1  0
 44 42  2  0
 47 48  1  0
 47 22  1  0
 49 47  1  0
 51 52  1  0
 51 50  2  0
 53 64  2  0
 54 52  1  0
 54 59  1  0
 55 63  1  0
 55 65  1  0
 56 62  1  0
 56 58  1  0
 57 63  1  0
 58 59  2  0
 58 57  1  0
 60 54  2  0
 61 60  1  0
 61 56  2  0
 62 55  1  0
 63 53  1  0
 65 67  2  0
 66 65  1  0
 68 66  1  0
 69 78  2  0
 69 74  1  0
 70 66  1  0
 70 74  1  0
 71 70  1  0
 72 73  1  0
 72 71  1  0
 73 69  1  0
 74 75  2  0
 75 76  1  0
 77 76  2  0
 78 77  1  0
 79 53  1  0
 79 80  1  0
 79 89  1  0
 80 83  1  0
 81 85  1  0
 81 80  1  0
 82 81  2  0
 85 84  1  0
 87 85  1  0
 87 88  1  0
 87 86  1  0
 89 92  1  1
 89 90  1  0
 91 89  1  0
M  ISO  4  12 100  20 100  51 101  52 101
M  END
>  <TORSDO>  (48) 
F 21

>  <SCORE>  (48) 
-13.515

>  <name>  (48) 
47

>  <ligand_id>  (48) 
47

>  <original_smiles>  (48) 
[H]c1c([H])c([H])c2c(c1[H])C([H])([H])C([H])([H])C([H])([H])C2([H])N([H])C(=O)C1([H])N(C(=O)C([H])(N([H])C(=O)C([H])(N([H])C([H])([H])[H])C([H])([H])[H])C(C([H])([H])[H])(C([H])([H])[H])C([H])([H])[H])C([H])([H])c2c([H])c(OC([H])([H])C([H])([H])n3c([H])c(C([H])([H])C([H])([H])N([H])C(=O)N4C([H])([H])C([H])([H])C([H])([H])C([H])(n5nc(-c6c([H])c([H])c(Oc7c([H])c([H])c(F)c([H])c7F)c([H])c6[H])c(C(=O)N([H])[H])c5N([H])[H])C4([H])[H])c(C([H])(C([H])([H])[H])C([H])([H])[H])c3C([H])([H])[H])c([H])c([H])c2C1([H])[H]

>  <smiles>  (48) 
[H]c1c([H])c([H])c2c(c1[H])C([H])([H])C([H])([H])C([H])([H])C2([H])N([H])C(=O)C1([H])N(C(=O)C([H])(N([H])C(=O)C([H])(N([H])C([H])([H])[H])C([H])([H])[H])C(C([H])([H])[H])(C([H])([H])[H])C([H])([H])[H])C([H])([H])c2c([H])c(OC([H])([H])C([H])([H])n3c([H])c(C([H])([H])C([H])([H])N([H])C(=O)N4C([H])([H])C([H])([H])C([H])([H])C([H])(n5nc(-c6c([H])c([H])c(Oc7c([H])c([H])c(F)c([H])c7F)c([H])c6[H])c(C(=O)N([H])[H])c5N([H])[H])C4([H])[H])c(C([H])(C([H])([H])[H])C([H])([H])[H])c3C([H])([H])[H])c([H])c([H])c2C1([H])[H]

$$$$
48:0:0
     RDKit          3D

 92100  0  0  1  0  0  0  0  0999 V2000
  -27.8450  -20.4780   19.3210 C   0  0  0  0  0  3  0  0  0  0  0  0
  -29.1780  -20.6930   19.7250 C   0  0  0  0  0  0  0  0  0  0  0  0
  -29.4770  -22.1760   19.7850 C   0  0  0  0  0  0  0  0  0  0  0  0
  -26.9380  -21.5340   19.0850 C   0  0  0  0  0  0  0  0  0  0  0  0
  -28.4700  -23.2690   19.5280 C   0  0  0  0  0  0  0  0  0  0  0  0
  -30.8970  -22.6250   20.0990 C   0  0  0  0  0  1  0  0  0  0  0  0
  -25.5210  -21.2130   18.6490 C   0  0  0  0  0  1  0  0  0  0  0  0
  -27.2270  -22.8500   19.2030 N   0  0  0  0  0  0  0  0  0  0  0  0
  -29.4410  -18.9500   21.5930 C   0  0  0  0  0  1  0  0  0  0  0  0
  -31.5020  -19.5650   20.4160 C   0  0  0  0  0  1  0  0  0  0  0  0
  -30.0060  -19.2870   20.2000 C   0  0  2  0  0  0  0  0  0  0  0  0
  -29.9910  -17.7920   19.3690 C   0  0  0  0  0  2  0  0  0  0  0  0
  -30.7970  -15.1220   19.8000 C   0  0  0  0  0  0  0  0  0  0  0  0
  -30.6680  -12.7060   19.0120 C   0  0  0  0  0  2  0  0  0  0  0  0
  -29.6920  -12.6050   17.8170 C   0  0  0  0  0  2  0  0  0  0  0  0
  -28.2440  -12.4130   18.3040 C   0  0  0  0  0  2  0  0  0  0  0  0
  -27.8810  -13.3710   19.4690 C   0  0  0  0  0  3  0  0  0  0  0  0
  -28.9840  -13.4420   20.5490 C   0  0  0  0  0  2  0  0  0  0  0  0
  -30.2250  -13.8450   19.8740 N   0  0  0  0  0  0  0  0  0  0  0  0
  -31.9600  -15.1840   19.3930 O   0  0  0  0  0  0  0  0  0  0  0  0
  -30.0140  -16.3070   19.9870 N   0  0  0  0  0  0  0  0  0  0  0  0
  -29.1360  -16.0800   20.4280 H   0  0  0  0  0  0  0  0  0  0  0  0
  -25.5630  -13.9740   20.3630 C   0  0  0  0  0  0  0  0  0  0  0  0
  -24.5060  -13.2140   20.7790 C   0  0  0  0  0  0  0  0  0  0  0  0
  -24.9320  -11.8530   20.6800 C   0  0  0  0  0  0  0  0  0  0  0  0
  -26.5690  -13.0800   20.0370 N   0  0  0  0  0  0  0  0  0  0  0  0
  -26.2020  -11.7970   20.2900 N   0  0  0  0  0  0  0  0  0  0  0  0
  -24.1850  -10.6050   20.8820 C   0  0  0  0  0  0  0  0  0  0  0  0
  -24.5960   -9.6450   21.8330 C   0  0  0  0  0  3  0  0  0  0  0  0
  -23.8500   -8.4610   22.0230 C   0  0  0  0  0  3  0  0  0  0  0  0
  -22.6800   -8.2290   21.2600 C   0  0  0  0  0  0  0  0  0  0  0  0
  -22.2900   -9.1760   20.2980 C   0  0  0  0  0  3  0  0  0  0  0  0
  -23.0350  -10.3520   20.1060 C   0  0  0  0  0  3  0  0  0  0  0  0
  -21.9110   -7.0940   21.3540 O   0  0  0  0  0  0  0  0  0  0  0  0
  -21.7660   -6.4160   22.5370 C   0  0  0  0  0  0  0  0  0  0  0  0
  -21.2080   -7.0270   23.6820 C   0  0  0  0  0  3  0  0  0  0  0  0
  -21.0160   -6.2760   24.8580 C   0  0  0  0  0  3  0  0  0  0  0  0
  -21.3700   -4.9120   24.8910 C   0  0  0  0  0  0  0  0  0  0  0  0
  -21.9190   -4.3020   23.7500 C   0  0  0  0  0  3  0  0  0  0  0  0
  -22.1120   -5.0500   22.5760 C   0  0  0  0  0  0  0  0  0  0  0  0
  -22.6240   -4.4520   21.4730 F   0  0  0  0  0  0  0  0  0  0  0  0
  -21.1780   -4.1880   26.0190 F   0  0  0  0  0  0  0  0  0  0  0  0
  -23.1410  -13.7160   21.1480 C   0  0  0  0  0  0  0  0  0  0  0  0
  -22.4580  -13.0210   22.0510 N   0  0  0  0  0  0  0  0  0  0  0  0
  -22.6910  -14.7550   20.6700 O   0  0  0  0  0  0  0  0  0  0  0  0
  -22.8400  -12.1840   22.4650 H   0  0  0  0  0  0  0  0  0  0  0  0
  -21.5370  -13.3310   22.3290 H   0  0  0  0  0  0  0  0  0  0  0  0
  -25.7470  -15.3450   20.2130 N   0  0  0  0  0  0  0  0  0  0  0  0
  -24.9990  -16.0100   20.3770 H   0  0  0  0  0  0  0  0  0  0  0  0
  -26.5720  -15.7730   19.8130 H   0  0  0  0  0  0  0  0  0  0  0  0
  -28.6320  -24.9010   19.1620 C   0  0  0  0  0  2  0  0  0  0  0  0
  -28.2960  -26.2200   19.9340 O   0  0  0  0  0  0  0  0  0  0  0  0
  -24.5420  -31.7230   23.0140 C   0  0  0  0  0  0  0  0  0  0  0  0
  -27.2120  -27.1720   19.7940 C   0  0  0  0  0  0  0  0  0  0  0  0
  -23.3590  -30.3670   21.3220 C   0  0  0  0  0  3  0  0  0  0  0  0
  -24.8360  -28.8740   19.8200 C   0  0  0  0  0  0  0  0  0  0  0  0
  -25.9030  -30.6850   21.1640 C   0  0  0  0  0  2  0  0  0  0  0  0
  -26.0010  -29.3200   20.4550 C   0  0  0  0  0  0  0  0  0  0  0  0
  -27.1760  -28.4790   20.4360 C   0  0  0  0  0  3  0  0  0  0  0  0
  -26.0250  -26.8290   19.1130 C   0  0  0  0  0  3  0  0  0  0  0  0
  -24.8630  -27.6440   19.1340 C   0  0  0  0  0  3  0  0  0  0  0  0
  -23.5830  -29.7400   19.9170 C   0  0  0  0  0  2  0  0  0  0  0  0
  -24.6190  -30.9480   21.8880 N   0  0  0  0  0  0  0  0  0  0  0  0
  -23.4540  -31.9690   23.5580 O   0  0  0  0  0  0  0  0  0  0  0  0
  -22.7040  -29.3180   22.2520 C   0  0  0  0  0  0  0  0  0  0  0  0
  -21.3740  -29.1470   22.1450 N   0  0  0  0  0  0  0  0  0  0  0  0
  -23.3940  -28.6580   23.0340 O   0  0  0  0  0  0  0  0  0  0  0  0
  -20.8720  -29.7300   21.4890 H   0  0  0  0  0  0  0  0  0  0  0  0
  -18.0080  -27.9210   22.6720 C   0  0  0  0  0  0  0  0  0  0  0  0
  -20.5730  -28.1710   22.8890 C   0  0  0  0  0  3  0  0  0  0  0  0
  -20.6600  -26.7710   22.2380 C   0  0  0  0  0  2  0  0  0  0  0  0
  -19.5340  -26.5020   21.2360 C   0  0  0  0  0  2  0  0  0  0  0  0
  -18.1670  -26.6100   21.9200 C   0  0  0  0  0  2  0  0  0  0  0  0
  -19.1380  -28.6620   23.1130 C   0  0  0  0  0  0  0  0  0  0  0  0
  -18.9330  -29.8890   23.7780 C   0  0  0  0  0  3  0  0  0  0  0  0
  -17.6330  -30.3760   24.0090 C   0  0  0  0  0  3  0  0  0  0  0  0
  -16.5190  -29.6320   23.5830 C   0  0  0  0  0  3  0  0  0  0  0  0
  -16.7070  -28.4070   22.9210 C   0  0  0  0  0  3  0  0  0  0  0  0
  -25.8130  -32.3560   23.6570 C   0  0  0  0  0  3  0  0  0  0  0  0
  -26.3510  -31.5430   24.9010 C   0  0  1  0  0  0  0  0  0  0  0  0
  -25.2660  -31.2470   25.9620 C   0  0  0  0  0  1  0  0  0  0  0  0
  -26.9570  -30.1910   24.4600 C   0  0  0  0  0  1  0  0  0  0  0  0
  -27.4910  -32.3300   25.5880 C   0  0  0  0  0  1  0  0  0  0  0  0
  -25.4770  -33.7330   24.0560 N   0  0  0  0  0  0  0  0  0  0  0  0
  -25.7910  -34.8310   23.3570 C   0  0  0  0  0  0  0  0  0  0  0  0
  -26.4630  -34.7940   22.3220 O   0  0  0  0  0  0  0  0  0  0  0  0
  -24.8730  -33.8330   24.8600 H   0  0  0  0  0  0  0  0  0  0  0  0
  -24.0400  -36.6210   23.0940 C   0  0  0  0  0  1  0  0  0  0  0  0
  -25.2820  -36.1870   23.8880 C   0  0  0  0  0  3  0  0  0  0  0  0
  -27.3910  -37.0640   24.7930 C   0  0  0  0  0  1  0  0  0  0  0  0
  -26.3010  -37.2590   23.8400 N   0  0  0  0  0  0  0  0  0  0  0  0
  -25.8780  -38.1650   24.0230 H   0  0  0  0  0  0  0  0  0  0  0  0
  1  2  1  0
  2  3  2  0
  2 11  1  0
  3  6  1  0
  4  8  1  0
  4  1  2  0
  5  3  1  0
  7  4  1  0
  8  5  2  0
 11 10  1  1
 11  9  1  0
 12 21  1  0
 12 11  1  0
 13 19  1  0
 13 21  1  0
 14 19  1  0
 15 16  1  0
 15 14  1  0
 17 16  1  0
 17 26  1  0
 17 18  1  0
 19 18  1  0
 20 13  2  0
 21 22  1  0
 23 24  2  0
 24 43  1  0
 25 24  1  0
 25 28  1  0
 26 27  1  0
 26 23  1  0
 27 25  2  0
 28 29  1  0
 29 30  2  0
 31 34  1  0
 31 30  1  0
 32 31  2  0
 33 32  1  0
 33 28  2  0
 34 35  1  0
 35 40  2  0
 35 36  1  0
 36 37  2  0
 37 38  1  0
 38 42  1  0
 39 38  2  0
 40 39  1  0
 41 40  1  0
 43 44  1  0
 44 47  1  0
 44 46  1  0
 45 43  2  0
 48 23  1  0
 48 49  1  0
 50 48  1  0
 51  5  1  0
 51 52  1  0
 53 64  2  0
 54 52  1  0
 54 59  1  0
 55 63  1  0
 55 65  1  0
 56 62  1  0
 56 58  1  0
 57 63  1  0
 58 57  1  0
 59 58  2  0
 60 61  1  0
 60 54  2  0
 61 56  2  0
 62 55  1  0
 63 53  1  0
 65 67  2  0
 66 65  1  0
 68 66  1  0
 69 78  2  0
 69 74  1  0
 70 66  1  0
 70 74  1  0
 71 70  1  0
 72 73  1  0
 72 71  1  0
 73 69  1  0
 74 75  2  0
 75 76  1  0
 77 76  2  0
 78 77  1  0
 79 53  1  0
 79 84  1  0
 79 80  1  0
 80 83  1  1
 80 81  1  0
 82 80  1  0
 84 87  1  0
 85 89  1  0
 85 84  1  0
 86 85  2  0
 89 88  1  0
 91 89  1  0
 91 92  1  0
 91 90  1  0
M  ISO  4  13 100  21 100  51 101  52 101
M  END
>  <TORSDO>  (49) 
F 19

>  <SCORE>  (49) 
-14.135

>  <name>  (49) 
48

>  <ligand_id>  (49) 
48

>  <original_smiles>  (49) 
[H]c1c([H])c([H])c2c(c1[H])C([H])([H])C([H])([H])C([H])([H])C2([H])N([H])C(=O)C1([H])N(C(=O)C([H])(N([H])C(=O)C([H])(N([H])C([H])([H])[H])C([H])([H])[H])C(C([H])([H])[H])(C([H])([H])[H])C([H])([H])[H])C([H])([H])c2c([H])c(OC([H])([H])c3nc(C([H])([H])[H])c([H])c(C(C([H])([H])[H])(C([H])([H])[H])C([H])([H])N([H])C(=O)N4C([H])([H])C([H])([H])C([H])([H])C([H])(n5nc(-c6c([H])c([H])c(Oc7c([H])c([H])c(F)c([H])c7F)c([H])c6[H])c(C(=O)N([H])[H])c5N([H])[H])C4([H])[H])c3C([H])([H])[H])c([H])c([H])c2C1([H])[H]

>  <smiles>  (49) 
[H]c1c([H])c([H])c2c(c1[H])C([H])([H])C([H])([H])C([H])([H])C2([H])N([H])C(=O)C1([H])N(C(=O)C([H])(N([H])C(=O)C([H])(N([H])C([H])([H])[H])C([H])([H])[H])C(C([H])([H])[H])(C([H])([H])[H])C([H])([H])[H])C([H])([H])c2c([H])c(OC([H])([H])c3nc(C([H])([H])[H])c([H])c(C(C([H])([H])[H])(C([H])([H])[H])C([H])([H])N([H])C(=O)N4C([H])([H])C([H])([H])C([H])([H])C([H])(n5nc(-c6c([H])c([H])c(Oc7c([H])c([H])c(F)c([H])c7F)c([H])c6[H])c(C(=O)N([H])[H])c5N([H])[H])C4([H])[H])c3C([H])([H])[H])c([H])c([H])c2C1([H])[H]

$$$$
49:0:0
     RDKit          3D

 96105  0  0  1  0  0  0  0  0999 V2000
  -29.1700  -21.4930   20.9760 C   0  0  0  0  0  3  0  0  0  0  0  0
  -29.2550  -20.1870   20.2880 C   0  0  0  0  0  0  0  0  0  0  0  0
  -28.6060  -20.6800   19.0830 C   0  0  0  0  0  0  0  0  0  0  0  0
  -28.3830  -22.0890   19.0590 C   0  0  0  0  0  0  0  0  0  0  0  0
  -28.5980  -22.7360   20.3080 N   0  0  0  0  0  0  0  0  0  0  0  0
  -27.7740  -24.3000   17.5910 C   0  0  0  0  0  2  0  0  0  0  0  0
  -26.5300  -23.4510   17.7490 C   0  0  0  0  0  2  0  0  0  0  0  0
  -27.8970  -22.8140   17.8180 C   0  0  0  0  0  3  0  0  0  0  0  0
  -29.3860  -19.0440   17.2910 C   0  0  0  0  0  1  0  0  0  0  0  0
  -28.1880  -19.7400   17.9530 C   0  0  0  0  0  3  0  0  0  0  0  0
  -27.1170  -18.7370   18.4360 C   0  0  0  0  0  2  0  0  0  0  0  0
  -25.9020  -19.4240   18.9070 N   0  0  0  0  0  4  0  0  0  0  0  0
  -26.1530  -20.1210   19.5880 H   0  0  0  0  0  0  0  0  0  0  0  0
  -25.2680  -18.7720   19.3320 H   0  0  0  0  0  0  0  0  0  0  0  0
  -25.4290  -19.8720   18.1430 H   0  0  0  0  0  0  0  0  0  0  0  0
  -29.9800  -18.5400   20.6350 C   0  0  0  0  0  2  0  0  0  0  0  0
  -30.4540  -15.5570   20.2680 C   0  0  0  0  0  0  0  0  0  0  0  0
  -30.4590  -13.1000   19.3380 C   0  0  0  0  0  2  0  0  0  0  0  0
  -29.5240  -12.8360   18.1280 C   0  0  0  0  0  2  0  0  0  0  0  0
  -28.0930  -12.5230   18.5970 C   0  0  0  0  0  2  0  0  0  0  0  0
  -27.6390  -13.4740   19.7300 C   0  0  0  0  0  3  0  0  0  0  0  0
  -28.7050  -13.6660   20.8310 C   0  0  0  0  0  2  0  0  0  0  0  0
  -29.8940  -14.2360   20.1710 N   0  0  0  0  0  0  0  0  0  0  0  0
  -31.6800  -15.5270   20.0770 O   0  0  0  0  0  0  0  0  0  0  0  0
  -29.6990  -16.8660   20.3880 N   0  0  0  0  0  0  0  0  0  0  0  0
  -28.7170  -16.6600   20.4670 H   0  0  0  0  0  0  0  0  0  0  0  0
  -25.2920  -13.9960   20.5620 C   0  0  0  0  0  0  0  0  0  0  0  0
  -24.2410  -13.2080   20.9340 C   0  0  0  0  0  0  0  0  0  0  0  0
  -24.7080  -11.8590   20.8500 C   0  0  0  0  0  0  0  0  0  0  0  0
  -26.3300  -13.1320   20.2670 N   0  0  0  0  0  0  0  0  0  0  0  0
  -25.9930  -11.8370   20.5090 N   0  0  0  0  0  0  0  0  0  0  0  0
  -23.9820  -10.5920   21.0140 C   0  0  0  0  0  0  0  0  0  0  0  0
  -24.4120   -9.6060   21.9290 C   0  0  0  0  0  3  0  0  0  0  0  0
  -23.6830   -8.4070   22.0850 C   0  0  0  0  0  3  0  0  0  0  0  0
  -22.5120   -8.1840   21.3220 C   0  0  0  0  0  0  0  0  0  0  0  0
  -22.1010   -9.1590   20.3950 C   0  0  0  0  0  3  0  0  0  0  0  0
  -22.8310  -10.3490   20.2380 C   0  0  0  0  0  3  0  0  0  0  0  0
  -21.7540   -7.0390   21.3890 O   0  0  0  0  0  0  0  0  0  0  0  0
  -21.6700   -6.2970   22.5400 C   0  0  0  0  0  0  0  0  0  0  0  0
  -21.1720   -6.8430   23.7440 C   0  0  0  0  0  3  0  0  0  0  0  0
  -21.0370   -6.0280   24.8840 C   0  0  0  0  0  3  0  0  0  0  0  0
  -21.3910   -4.6660   24.8230 C   0  0  0  0  0  0  0  0  0  0  0  0
  -21.8810   -4.1190   23.6240 C   0  0  0  0  0  3  0  0  0  0  0  0
  -22.0170   -4.9320   22.4850 C   0  0  0  0  0  0  0  0  0  0  0  0
  -22.4700   -4.3950   21.3270 F   0  0  0  0  0  0  0  0  0  0  0  0
  -21.2550   -3.8800   25.9150 F   0  0  0  0  0  0  0  0  0  0  0  0
  -22.8490  -13.6780   21.2410 C   0  0  0  0  0  0  0  0  0  0  0  0
  -22.1260  -12.9470   22.0810 N   0  0  0  0  0  0  0  0  0  0  0  0
  -22.4120  -14.7280   20.7710 O   0  0  0  0  0  0  0  0  0  0  0  0
  -22.4920  -12.0970   22.4830 H   0  0  0  0  0  0  0  0  0  0  0  0
  -21.1920  -13.2400   22.3280 H   0  0  0  0  0  0  0  0  0  0  0  0
  -25.4440  -15.3710   20.4150 N   0  0  0  0  0  0  0  0  0  0  0  0
  -24.6630  -16.0030   20.5480 H   0  0  0  0  0  0  0  0  0  0  0  0
  -26.2620  -15.8060   20.0140 H   0  0  0  0  0  0  0  0  0  0  0  0
  -28.0310  -24.2750   20.8730 C   0  0  0  0  0  2  0  0  0  0  0  0
  -28.3370  -25.8550   20.4930 O   0  0  0  0  0  0  0  0  0  0  0  0
  -24.6730  -31.9920   23.2670 C   0  0  0  0  0  0  0  0  0  0  0  0
  -27.3180  -26.9780   20.4700 C   0  0  0  0  0  0  0  0  0  0  0  0
  -23.5180  -30.5220   21.6700 C   0  0  0  0  0  3  0  0  0  0  0  0
  -25.0030  -28.8750   20.3300 C   0  0  0  0  0  0  0  0  0  0  0  0
  -26.0900  -30.7440   21.5470 C   0  0  0  0  0  2  0  0  0  0  0  0
  -26.1850  -29.3040   20.9460 C   0  0  0  0  0  0  0  0  0  0  0  0
  -27.3380  -28.3800   20.9810 C   0  0  0  0  0  3  0  0  0  0  0  0
  -26.0970  -26.7200   19.8050 C   0  0  0  0  0  3  0  0  0  0  0  0
  -24.9880  -27.6030   19.7360 C   0  0  0  0  0  3  0  0  0  0  0  0
  -23.7770  -29.7900   20.3250 C   0  0  0  0  0  2  0  0  0  0  0  0
  -24.7820  -31.1180   22.2130 N   0  0  0  0  0  0  0  0  0  0  0  0
  -23.5740  -32.2840   23.7670 O   0  0  0  0  0  0  0  0  0  0  0  0
  -22.8230  -29.5540   22.6640 C   0  0  0  0  0  0  0  0  0  0  0  0
  -21.5000  -29.3500   22.5170 N   0  0  0  0  0  0  0  0  0  0  0  0
  -23.4810  -28.9870   23.5390 O   0  0  0  0  0  0  0  0  0  0  0  0
  -21.0170  -29.8590   21.7900 H   0  0  0  0  0  0  0  0  0  0  0  0
  -18.1410  -28.0560   23.0000 C   0  0  0  0  0  0  0  0  0  0  0  0
  -20.6840  -28.4240   23.3130 C   0  0  0  0  0  3  0  0  0  0  0  0
  -20.8470  -26.9690   22.8140 C   0  0  0  0  0  2  0  0  0  0  0  0
  -19.7830  -26.5600   21.7890 C   0  0  0  0  0  2  0  0  0  0  0  0
  -18.3810  -26.6840   22.3920 C   0  0  0  0  0  2  0  0  0  0  0  0
  -19.2210  -28.8780   23.4180 C   0  0  0  0  0  0  0  0  0  0  0  0
  -18.9410  -30.1550   23.9510 C   0  0  0  0  0  3  0  0  0  0  0  0
  -17.6140  -30.6130   24.0670 C   0  0  0  0  0  3  0  0  0  0  0  0
  -16.5490  -29.7900   23.6630 C   0  0  0  0  0  3  0  0  0  0  0  0
  -16.8130  -28.5130   23.1370 C   0  0  0  0  0  3  0  0  0  0  0  0
  -25.9250  -32.6820   23.8910 C   0  0  0  0  0  3  0  0  0  0  0  0
  -25.5720  -34.0800   24.1960 N   0  0  0  0  0  0  0  0  0  0  0  0
  -25.8880  -35.1370   23.4370 C   0  0  0  0  0  0  0  0  0  0  0  0
  -26.5700  -35.0390   22.4130 O   0  0  0  0  0  0  0  0  0  0  0  0
  -24.9690  -34.2260   24.9930 H   0  0  0  0  0  0  0  0  0  0  0  0
  -24.1400  -36.9070   23.0460 C   0  0  0  0  0  1  0  0  0  0  0  0
  -25.3710  -36.5210   23.8810 C   0  0  0  0  0  3  0  0  0  0  0  0
  -27.4710  -37.4510   24.7540 C   0  0  0  0  0  1  0  0  0  0  0  0
  -26.3880  -37.5930   23.7840 N   0  0  0  0  0  0  0  0  0  0  0  0
  -25.9620  -38.5060   23.9170 H   0  0  0  0  0  0  0  0  0  0  0  0
  -26.4410  -31.9580   25.1950 C   0  0  1  0  0  0  0  0  0  0  0  0
  -25.3340  -31.6880   26.2410 C   0  0  0  0  0  1  0  0  0  0  0  0
  -27.0970  -30.6010   24.8530 C   0  0  0  0  0  1  0  0  0  0  0  0
  -27.5390  -32.8150   25.8700 C   0  0  0  0  0  1  0  0  0  0  0  0
  2 16  1  0
  2  1  2  0
  3  2  1  0
  4  3  2  0
  4  5  1  0
  5 55  1  0
  5  1  1  0
  6  7  1  0
  6  8  1  0
  7  8  1  0
  8  4  1  0
 10  9  1  0
 10 11  1  0
 10  3  1  0
 11 12  1  0
 12 14  1  0
 12 13  1  0
 15 12  1  0
 17 25  1  0
 18 23  1  0
 19 20  1  0
 19 18  1  0
 21 20  1  0
 21 30  1  0
 21 22  1  0
 23 17  1  0
 23 22  1  0
 24 17  2  0
 25 26  1  0
 25 16  1  0
 27 28  2  0
 28 47  1  0
 29 28  1  0
 29 32  1  0
 30 31  1  0
 30 27  1  0
 31 29  2  0
 32 33  1  0
 33 34  2  0
 35 38  1  0
 35 34  1  0
 36 35  2  0
 37 36  1  0
 37 32  2  0
 38 39  1  0
 39 40  1  0
 40 41  2  0
 42 41  1  0
 42 46  1  0
 43 42  2  0
 44 39  2  0
 44 43  1  0
 45 44  1  0
 47 48  1  0
 48 51  1  0
 48 50  1  0
 49 47  2  0
 52 53  1  0
 52 27  1  0
 54 52  1  0
 56 55  1  0
 57 68  2  0
 58 56  1  0
 58 63  1  0
 59 67  1  0
 59 69  1  0
 60 62  1  0
 61 67  1  0
 62 63  2  0
 62 61  1  0
 64 58  2  0
 65 64  1  0
 65 60  2  0
 66 60  1  0
 66 59  1  0
 67 57  1  0
 69 71  2  0
 70 69  1  0
 72 70  1  0
 73 82  2  0
 73 78  1  0
 74 70  1  0
 74 78  1  0
 75 74  1  0
 76 77  1  0
 76 75  1  0
 77 73  1  0
 78 79  2  0
 79 80  1  0
 81 80  2  0
 82 81  1  0
 83 57  1  0
 83 84  1  0
 83 93  1  0
 84 87  1  0
 85 89  1  0
 85 84  1  0
 86 85  2  0
 89 88  1  0
 91 89  1  0
 91 92  1  0
 91 90  1  0
 93 96  1  1
 93 94  1  0
 95 93  1  0
M  ISO  4  17 100  25 100  55 101  56 101
M  END
>  <TORSDO>  (50) 
F 22

>  <SCORE>  (50) 
-14.818

>  <name>  (50) 
49

>  <ligand_id>  (50) 
49

>  <original_smiles>  (50) 
[H]c1c([H])c([H])c2c(c1[H])C([H])([H])C([H])([H])C([H])([H])C2([H])N([H])C(=O)C1([H])N(C(=O)C([H])(N([H])C(=O)C([H])(N([H])C([H])([H])[H])C([H])([H])[H])C(C([H])([H])[H])(C([H])([H])[H])C([H])([H])[H])C([H])([H])c2c([H])c(OC([H])([H])n3c([H])c(C([H])([H])N([H])C(=O)N4C([H])([H])C([H])([H])C([H])([H])C([H])(n5nc(-c6c([H])c([H])c(Oc7c([H])c([H])c(F)c([H])c7F)c([H])c6[H])c(C(=O)N([H])[H])c5N([H])[H])C4([H])[H])c(C([H])(C([H])([H])[H])C([H])([H])[N+]([H])([H])[H])c3C3([H])C([H])([H])C3([H])[H])c([H])c([H])c2C1([H])[H]

>  <smiles>  (50) 
[H]c1c([H])c([H])c2c(c1[H])C([H])([H])C([H])([H])C([H])([H])C2([H])N([H])C(=O)C1([H])N(C(=O)C([H])(N([H])C(=O)C([H])(N([H])C([H])([H])[H])C([H])([H])[H])C(C([H])([H])[H])(C([H])([H])[H])C([H])([H])[H])C([H])([H])c2c([H])c(OC([H])([H])n3c([H])c(C([H])([H])N([H])C(=O)N4C([H])([H])C([H])([H])C([H])([H])C([H])(n5nc(-c6c([H])c([H])c(Oc7c([H])c([H])c(F)c([H])c7F)c([H])c6[H])c(C(=O)N([H])[H])c5N([H])[H])C4([H])[H])c(C([H])(C([H])([H])[H])C([H])([H])[N+]([H])([H])[H])c3C3([H])C([H])([H])C3([H])[H])c([H])c([H])c2C1([H])[H]

$$$$
50:0:0
     RDKit          3D

 96104  0  0  1  0  0  0  0  0999 V2000
  -29.5860  -20.5460   19.9480 C   0  0  0  0  0  2  0  0  0  0  0  0
  -27.9130  -18.5850   20.2570 C   0  0  0  0  0  3  0  0  0  0  0  0
  -30.0510  -17.9390   20.3960 C   0  0  0  0  0  3  0  0  0  0  0  0
  -27.9170  -17.2280   20.4780 C   0  0  0  0  0  0  0  0  0  0  0  0
  -29.2780  -16.7860   20.5410 C   0  0  0  0  0  0  0  0  0  0  0  0
  -29.2070  -19.0860   20.2210 N   0  0  0  0  0  0  0  0  0  0  0  0
  -30.5110  -14.3780   20.3610 C   0  0  0  0  0  0  0  0  0  0  0  0
  -30.6530  -12.0280   19.4780 C   0  0  0  0  0  2  0  0  0  0  0  0
  -29.8530  -11.9540   18.1550 C   0  0  0  0  0  2  0  0  0  0  0  0
  -28.3510  -11.7170   18.4190 C   0  0  0  0  0  2  0  0  0  0  0  0
  -27.7890  -12.6540   19.5190 C   0  0  0  0  0  3  0  0  0  0  0  0
  -28.7050  -12.6480   20.7620 C   0  0  0  0  0  2  0  0  0  0  0  0
  -30.0430  -13.0800   20.3240 N   0  0  0  0  0  0  0  0  0  0  0  0
  -31.6830  -14.6320   20.0550 O   0  0  0  0  0  0  0  0  0  0  0  0
  -29.5500  -15.3280   20.6650 N   0  0  0  0  0  0  0  0  0  0  0  0
  -28.7330  -14.8410   21.0000 H   0  0  0  0  0  0  0  0  0  0  0  0
  -25.2790  -13.1370   19.7840 C   0  0  0  0  0  0  0  0  0  0  0  0
  -24.2270  -12.3440   20.1500 C   0  0  0  0  0  0  0  0  0  0  0  0
  -24.7810  -11.0550   20.4230 C   0  0  0  0  0  0  0  0  0  0  0  0
  -26.4060  -12.3330   19.8600 N   0  0  0  0  0  0  0  0  0  0  0  0
  -26.1020  -11.0860   20.2990 N   0  0  0  0  0  0  0  0  0  0  0  0
  -24.1220   -9.7810   20.7320 C   0  0  0  0  0  0  0  0  0  0  0  0
  -24.5420   -8.9770   21.8140 C   0  0  0  0  0  3  0  0  0  0  0  0
  -23.8800   -7.7640   22.1040 C   0  0  0  0  0  3  0  0  0  0  0  0
  -22.7840   -7.3480   21.3110 C   0  0  0  0  0  0  0  0  0  0  0  0
  -22.3850   -8.1400   20.2200 C   0  0  0  0  0  3  0  0  0  0  0  0
  -23.0500   -9.3440   19.9310 C   0  0  0  0  0  3  0  0  0  0  0  0
  -22.0970   -6.1720   21.5030 O   0  0  0  0  0  0  0  0  0  0  0  0
  -21.9990   -5.5910   22.7400 C   0  0  0  0  0  0  0  0  0  0  0  0
  -21.4160   -6.2630   23.8380 C   0  0  0  0  0  3  0  0  0  0  0  0
  -21.2730   -5.6020   25.0730 C   0  0  0  0  0  3  0  0  0  0  0  0
  -21.7020   -4.2680   25.2130 C   0  0  0  0  0  0  0  0  0  0  0  0
  -22.2780   -3.5960   24.1200 C   0  0  0  0  0  3  0  0  0  0  0  0
  -22.4220   -4.2540   22.8870 C   0  0  0  0  0  0  0  0  0  0  0  0
  -22.9580   -3.5940   21.8320 F   0  0  0  0  0  0  0  0  0  0  0  0
  -21.5580   -3.6300   26.3970 F   0  0  0  0  0  0  0  0  0  0  0  0
  -22.7750  -12.7300   20.1460 C   0  0  0  0  0  0  0  0  0  0  0  0
  -21.9880  -12.1540   21.0480 N   0  0  0  0  0  0  0  0  0  0  0  0
  -22.3410  -13.5820   19.3710 O   0  0  0  0  0  0  0  0  0  0  0  0
  -22.3490  -11.4680   21.6940 H   0  0  0  0  0  0  0  0  0  0  0  0
  -21.0100  -12.4030   21.0930 H   0  0  0  0  0  0  0  0  0  0  0  0
  -25.3670  -14.4610   19.3690 N   0  0  0  0  0  0  0  0  0  0  0  0
  -24.5430  -15.0430   19.2510 H   0  0  0  0  0  0  0  0  0  0  0  0
  -26.2130  -14.9120   19.0430 H   0  0  0  0  0  0  0  0  0  0  0  0
  -26.6770  -16.3800   20.5990 C   0  0  0  0  0  2  0  0  0  0  0  0
  -26.2640  -16.1550   22.0600 C   0  0  0  0  0  2  0  0  0  0  0  0
  -25.0970  -13.9110   21.6360 C   0  0  0  0  0  1  0  0  0  0  0  0
  -24.5840  -15.2600   23.7160 C   0  0  0  0  0  1  0  0  0  0  0  0
  -24.9750  -15.3260   22.2310 C   0  0  0  0  0  3  0  0  0  0  0  0
  -28.5970  -21.7580   22.0410 C   0  0  0  0  0  1  0  0  0  0  0  0
  -28.7130  -21.8210   20.4980 C   0  0  0  0  0  3  0  0  0  0  0  0
  -30.4720  -23.7410   20.5790 C   0  0  0  0  0  1  0  0  0  0  0  0
  -29.2160  -23.3300   18.4670 C   0  0  0  0  0  1  0  0  0  0  0  0
  -29.0950  -23.3490   20.0050 C   0  0  1  0  0  0  0  0  0  0  0  0
  -28.0680  -24.5620   20.3690 C   0  0  0  0  0  2  0  0  0  0  0  0
  -28.3660  -26.0010   20.0260 O   0  0  0  0  0  0  0  0  0  0  0  0
  -24.9300  -31.5970   23.1230 C   0  0  0  0  0  0  0  0  0  0  0  0
  -27.3040  -26.9380   20.0060 C   0  0  0  0  0  0  0  0  0  0  0  0
  -23.6560  -30.2830   21.4640 C   0  0  0  0  0  3  0  0  0  0  0  0
  -25.0270  -28.6900   20.0060 C   0  0  0  0  0  0  0  0  0  0  0  0
  -26.2070  -30.4850   21.2670 C   0  0  0  0  0  2  0  0  0  0  0  0
  -26.2220  -29.1080   20.6070 C   0  0  0  0  0  0  0  0  0  0  0  0
  -27.3660  -28.2470   20.5900 C   0  0  0  0  0  3  0  0  0  0  0  0
  -26.0960  -26.5930   19.3650 C   0  0  0  0  0  3  0  0  0  0  0  0
  -24.9710  -27.4420   19.3670 C   0  0  0  0  0  3  0  0  0  0  0  0
  -23.8350  -29.6240   20.0690 C   0  0  0  0  0  2  0  0  0  0  0  0
  -24.9530  -30.8040   22.0080 N   0  0  0  0  0  0  0  0  0  0  0  0
  -23.8610  -31.9100   23.6700 O   0  0  0  0  0  0  0  0  0  0  0  0
  -22.9540  -29.2790   22.4120 C   0  0  0  0  0  0  0  0  0  0  0  0
  -21.6180  -29.1750   22.3060 N   0  0  0  0  0  0  0  0  0  0  0  0
  -23.6120  -28.6020   23.2070 O   0  0  0  0  0  0  0  0  0  0  0  0
  -21.1490  -29.7780   21.6440 H   0  0  0  0  0  0  0  0  0  0  0  0
  -18.1860  -28.1650   22.8590 C   0  0  0  0  0  0  0  0  0  0  0  0
  -20.7620  -28.2640   23.0700 C   0  0  0  0  0  3  0  0  0  0  0  0
  -20.7650  -26.8460   22.4520 C   0  0  0  0  0  2  0  0  0  0  0  0
  -19.6210  -26.6190   21.4610 C   0  0  0  0  0  2  0  0  0  0  0  0
  -18.2660  -26.8280   22.1430 C   0  0  0  0  0  2  0  0  0  0  0  0
  -19.3600  -28.8450   23.2820 C   0  0  0  0  0  0  0  0  0  0  0  0
  -19.2310  -30.1000   23.9180 C   0  0  0  0  0  3  0  0  0  0  0  0
  -17.9630  -30.6700   24.1340 C   0  0  0  0  0  3  0  0  0  0  0  0
  -16.8070  -29.9870   23.7250 C   0  0  0  0  0  3  0  0  0  0  0  0
  -16.9180  -28.7370   23.0930 C   0  0  0  0  0  3  0  0  0  0  0  0
  -26.2400  -32.1650   23.7450 C   0  0  0  0  0  3  0  0  0  0  0  0
  -25.9780  -33.5560   24.1420 N   0  0  0  0  0  0  0  0  0  0  0  0
  -26.3190  -34.6310   23.4180 C   0  0  0  0  0  0  0  0  0  0  0  0
  -26.9550  -34.5540   22.3630 O   0  0  0  0  0  0  0  0  0  0  0  0
  -25.4130  -33.6920   24.9690 H   0  0  0  0  0  0  0  0  0  0  0  0
  -24.6330  -36.4820   23.1960 C   0  0  0  0  0  1  0  0  0  0  0  0
  -25.8880  -36.0120   23.9480 C   0  0  0  0  0  3  0  0  0  0  0  0
  -28.0720  -36.8090   24.7410 C   0  0  0  0  0  1  0  0  0  0  0  0
  -26.9460  -37.0410   23.8410 N   0  0  0  0  0  0  0  0  0  0  0  0
  -26.5690  -37.9640   24.0360 H   0  0  0  0  0  0  0  0  0  0  0  0
  -26.7550  -31.3240   24.9770 C   0  0  1  0  0  0  0  0  0  0  0  0
  -25.6740  -31.0750   26.0560 C   0  0  0  0  0  1  0  0  0  0  0  0
  -27.2870  -29.9480   24.5130 C   0  0  0  0  0  1  0  0  0  0  0  0
  -27.9410  -32.0520   25.6510 C   0  0  0  0  0  1  0  0  0  0  0  0
  1  6  1  0
  1 51  1  0
  2  4  2  0
  3  5  2  0
  4  5  1  0
  4 45  1  0
  5 15  1  0
  6  2  1  0
  6  3  1  0
  7 15  1  0
  8 13  1  0
  9 10  1  0
  9  8  1  0
 11 10  1  0
 11 20  1  0
 11 12  1  0
 13  7  1  0
 13 12  1  0
 14  7  2  0
 15 16  1  0
 17 20  1  0
 17 18  2  0
 18 19  1  0
 19 22  1  0
 20 21  1  0
 21 19  2  0
 22 23  1  0
 23 24  2  0
 25 28  1  0
 25 24  1  0
 26 25  2  0
 27 26  1  0
 27 22  2  0
 28 29  1  0
 29 34  2  0
 29 30  1  0
 30 31  2  0
 31 32  1  0
 32 36  1  0
 33 32  2  0
 34 33  1  0
 35 34  1  0
 37 18  1  0
 37 38  1  0
 38 41  1  0
 38 40  1  0
 39 37  2  0
 42 17  1  0
 43 42  1  0
 44 42  1  0
 45 46  1  0
 46 49  1  0
 47 49  1  0
 49 48  1  0
 51 50  1  0
 54 53  1  6
 54 55  1  0
 54 51  1  0
 54 52  1  0
 56 55  1  0
 57 68  2  0
 58 56  1  0
 58 63  1  0
 59 67  1  0
 59 69  1  0
 60 66  1  0
 60 62  1  0
 61 67  1  0
 62 61  1  0
 63 62  2  0
 64 65  1  0
 64 58  2  0
 65 60  2  0
 66 59  1  0
 67 57  1  0
 69 71  2  0
 70 69  1  0
 72 70  1  0
 73 82  2  0
 73 78  1  0
 74 70  1  0
 74 78  1  0
 75 74  1  0
 76 77  1  0
 76 75  1  0
 77 73  1  0
 78 79  2  0
 79 80  1  0
 81 80  2  0
 82 81  1  0
 83 57  1  0
 83 84  1  0
 83 93  1  0
 84 87  1  0
 85 89  1  0
 85 84  1  0
 86 85  2  0
 89 88  1  0
 91 89  1  0
 91 92  1  0
 91 90  1  0
 93 96  1  1
 93 94  1  0
 95 93  1  0
M  ISO  4   7 100  15 100  55 101  56 101
M  END
>  <TORSDO>  (51) 
F 23

>  <SCORE>  (51) 
-2.922

>  <name>  (51) 
50

>  <ligand_id>  (51) 
50

>  <original_smiles>  (51) 
[H]c1c([H])c([H])c2c(c1[H])C([H])([H])C([H])([H])C([H])([H])C2([H])N([H])C(=O)C1([H])N(C(=O)C([H])(N([H])C(=O)C([H])(N([H])C([H])([H])[H])C([H])([H])[H])C(C([H])([H])[H])(C([H])([H])[H])C([H])([H])[H])C([H])([H])c2c([H])c(OC([H])([H])C(C([H])([H])[H])(C([H])([H])[H])C([H])(C([H])([H])[H])C([H])([H])n3c([H])c(N([H])C(=O)N4C([H])([H])C([H])([H])C([H])([H])C([H])(n5nc(-c6c([H])c([H])c(Oc7c([H])c([H])c(F)c([H])c7F)c([H])c6[H])c(C(=O)N([H])[H])c5N([H])[H])C4([H])[H])c(C([H])([H])C([H])([H])C([H])(C([H])([H])[H])C([H])([H])[H])c3[H])c([H])c([H])c2C1([H])[H]

>  <smiles>  (51) 
[H]c1c([H])c([H])c2c(c1[H])C([H])([H])C([H])([H])C([H])([H])C2([H])N([H])C(=O)C1([H])N(C(=O)C([H])(N([H])C(=O)C([H])(N([H])C([H])([H])[H])C([H])([H])[H])C(C([H])([H])[H])(C([H])([H])[H])C([H])([H])[H])C([H])([H])c2c([H])c(OC([H])([H])C(C([H])([H])[H])(C([H])([H])[H])C([H])(C([H])([H])[H])C([H])([H])n3c([H])c(N([H])C(=O)N4C([H])([H])C([H])([H])C([H])([H])C([H])(n5nc(-c6c([H])c([H])c(Oc7c([H])c([H])c(F)c([H])c7F)c([H])c6[H])c(C(=O)N([H])[H])c5N([H])[H])C4([H])[H])c(C([H])([H])C([H])([H])C([H])(C([H])([H])[H])C([H])([H])[H])c3[H])c([H])c([H])c2C1([H])[H]

$$$$
51:0:0
     RDKit          3D

 97105  0  0  1  0  0  0  0  0999 V2000
  -28.6490  -21.0460   18.9610 C   0  0  0  0  0  3  0  0  0  0  0  0
  -29.9770  -20.5450   20.6530 C   0  0  0  0  0  3  0  0  0  0  0  0
  -29.1300  -21.5490   20.2050 C   0  0  0  0  0  0  0  0  0  0  0  0
  -29.1690  -19.8010   18.7010 C   0  0  0  0  0  0  0  0  0  0  0  0
  -30.0330  -19.4690   19.7470 N   0  0  0  0  0  0  0  0  0  0  0  0
  -27.1380  -22.9710   20.7710 C   0  0  0  0  0  1  0  0  0  0  0  0
  -28.9800  -22.7810   22.3910 C   0  0  0  0  0  1  0  0  0  0  0  0
  -28.6780  -22.8910   20.8800 C   0  0  1  0  0  0  0  0  0  0  0  0
  -29.3790  -24.2290   20.3390 C   0  0  0  0  0  2  0  0  0  0  0  0
  -28.6010  -25.3190   19.4790 C   0  0  0  0  0  2  0  0  0  0  0  0
  -28.5010  -26.6900   20.0150 O   0  0  0  0  0  0  0  0  0  0  0  0
  -24.5420  -31.8310   23.1020 C   0  0  0  0  0  0  0  0  0  0  0  0
  -27.3170  -27.4380   19.9640 C   0  0  0  0  0  0  0  0  0  0  0  0
  -23.3900  -30.4280   21.4270 C   0  0  0  0  0  3  0  0  0  0  0  0
  -24.8930  -28.9570   19.9820 C   0  0  0  0  0  0  0  0  0  0  0  0
  -25.9160  -30.8370   21.2600 C   0  0  0  0  0  2  0  0  0  0  0  0
  -26.0390  -29.4730   20.5980 C   0  0  0  0  0  0  0  0  0  0  0  0
  -27.2500  -28.7200   20.5870 C   0  0  0  0  0  3  0  0  0  0  0  0
  -26.1420  -26.9730   19.3280 C   0  0  0  0  0  3  0  0  0  0  0  0
  -24.9450  -27.7090   19.3460 C   0  0  0  0  0  3  0  0  0  0  0  0
  -23.6290  -29.7870   20.0360 C   0  0  0  0  0  2  0  0  0  0  0  0
  -24.6340  -31.0490   21.9880 N   0  0  0  0  0  0  0  0  0  0  0  0
  -23.4490  -32.0650   23.6370 O   0  0  0  0  0  0  0  0  0  0  0  0
  -22.7560  -29.3710   22.3640 C   0  0  0  0  0  0  0  0  0  0  0  0
  -21.4330  -29.1710   22.2420 N   0  0  0  0  0  0  0  0  0  0  0  0
  -23.4510  -28.7370   23.1610 O   0  0  0  0  0  0  0  0  0  0  0  0
  -20.9270  -29.7420   21.5790 H   0  0  0  0  0  0  0  0  0  0  0  0
  -18.0820  -27.9040   22.7310 C   0  0  0  0  0  0  0  0  0  0  0  0
  -20.6380  -28.1960   22.9900 C   0  0  0  0  0  3  0  0  0  0  0  0
  -20.7590  -26.7840   22.3700 C   0  0  0  0  0  2  0  0  0  0  0  0
  -19.6550  -26.4720   21.3580 C   0  0  0  0  0  2  0  0  0  0  0  0
  -18.2760  -26.5760   22.0160 C   0  0  0  0  0  2  0  0  0  0  0  0
  -19.1920  -28.6700   23.1740 C   0  0  0  0  0  0  0  0  0  0  0  0
  -18.9580  -29.9110   23.8050 C   0  0  0  0  0  3  0  0  0  0  0  0
  -17.6490  -30.3850   24.0010 C   0  0  0  0  0  3  0  0  0  0  0  0
  -16.5540  -29.6160   23.5760 C   0  0  0  0  0  3  0  0  0  0  0  0
  -16.7690  -28.3780   22.9420 C   0  0  0  0  0  3  0  0  0  0  0  0
  -25.8030  -32.4890   23.7420 C   0  0  0  0  0  3  0  0  0  0  0  0
  -25.4510  -33.8720   24.0930 N   0  0  0  0  0  0  0  0  0  0  0  0
  -25.7490  -34.9480   23.3510 C   0  0  0  0  0  0  0  0  0  0  0  0
  -26.4220  -34.8830   22.3190 O   0  0  0  0  0  0  0  0  0  0  0  0
  -24.8540  -33.9970   24.8960 H   0  0  0  0  0  0  0  0  0  0  0  0
  -23.9720  -36.6980   23.0210 C   0  0  0  0  0  1  0  0  0  0  0  0
  -25.2180  -36.3120   23.8310 C   0  0  0  0  0  3  0  0  0  0  0  0
  -27.3120  -37.2530   24.6990 C   0  0  0  0  0  1  0  0  0  0  0  0
  -26.2180  -37.3980   23.7430 N   0  0  0  0  0  0  0  0  0  0  0  0
  -25.7810  -38.3020   23.8980 H   0  0  0  0  0  0  0  0  0  0  0  0
  -26.3320  -31.7140   25.0130 C   0  0  1  0  0  0  0  0  0  0  0  0
  -25.2380  -31.4280   26.0680 C   0  0  0  0  0  1  0  0  0  0  0  0
  -26.9590  -30.3610   24.6020 C   0  0  0  0  0  1  0  0  0  0  0  0
  -27.4500  -32.5320   25.6990 C   0  0  0  0  0  1  0  0  0  0  0  0
  -28.2360  -19.6520   16.3520 C   0  0  0  0  0  1  0  0  0  0  0  0
  -28.1650  -17.6310   17.8480 C   0  0  0  0  0  1  0  0  0  0  0  0
  -28.9450  -18.9120   17.5010 C   0  0  0  0  0  3  0  0  0  0  0  0
  -30.9390  -18.2650   19.8180 C   0  0  0  0  0  3  0  0  0  0  0  0
  -33.4870  -17.6670   19.7840 C   0  0  0  0  0  1  0  0  0  0  0  0
  -32.7300  -19.8500   18.8370 C   0  0  0  0  0  1  0  0  0  0  0  0
  -32.4170  -18.7700   19.8980 C   0  0  0  0  0  3  0  0  0  0  0  0
  -30.5730  -17.2100   20.9420 C   0  0  0  0  0  2  0  0  0  0  0  0
  -30.9830  -14.7460   20.1310 C   0  0  0  0  0  0  0  0  0  0  0  0
  -30.6900  -12.5280   19.0490 C   0  0  0  0  0  2  0  0  0  0  0  0
  -29.7090  -12.6590   17.8630 C   0  0  0  0  0  2  0  0  0  0  0  0
  -28.2480  -12.5240   18.3410 C   0  0  0  0  0  2  0  0  0  0  0  0
  -27.9400  -13.4050   19.5800 C   0  0  0  0  0  3  0  0  0  0  0  0
  -29.0300  -13.2370   20.6630 C   0  0  0  0  0  2  0  0  0  0  0  0
  -30.3240  -13.5520   20.0420 N   0  0  0  0  0  0  0  0  0  0  0  0
  -32.1250  -14.8880   19.6990 O   0  0  0  0  0  0  0  0  0  0  0  0
  -30.2400  -15.7940   20.5780 N   0  0  0  0  0  0  0  0  0  0  0  0
  -29.2960  -15.5290   20.8150 H   0  0  0  0  0  0  0  0  0  0  0  0
  -25.5860  -14.0490   20.3890 C   0  0  0  0  0  0  0  0  0  0  0  0
  -24.5140  -13.2930   20.7810 C   0  0  0  0  0  0  0  0  0  0  0  0
  -24.9440  -11.9320   20.7120 C   0  0  0  0  0  0  0  0  0  0  0  0
  -26.6020  -13.1490   20.1060 N   0  0  0  0  0  0  0  0  0  0  0  0
  -26.2220  -11.8710   20.3600 N   0  0  0  0  0  0  0  0  0  0  0  0
  -24.1960  -10.6830   20.9030 C   0  0  0  0  0  0  0  0  0  0  0  0
  -24.6010   -9.7170   21.8510 C   0  0  0  0  0  3  0  0  0  0  0  0
  -23.8530   -8.5330   22.0310 C   0  0  0  0  0  3  0  0  0  0  0  0
  -22.6880   -8.3050   21.2610 C   0  0  0  0  0  0  0  0  0  0  0  0
  -22.3010   -9.2620   20.3030 C   0  0  0  0  0  3  0  0  0  0  0  0
  -23.0500  -10.4360   20.1220 C   0  0  0  0  0  3  0  0  0  0  0  0
  -21.9130   -7.1730   21.3500 O   0  0  0  0  0  0  0  0  0  0  0  0
  -21.7960   -6.4720   22.5230 C   0  0  0  0  0  0  0  0  0  0  0  0
  -21.2700   -7.0620   23.6940 C   0  0  0  0  0  3  0  0  0  0  0  0
  -21.1010   -6.2850   24.8580 C   0  0  0  0  0  3  0  0  0  0  0  0
  -21.4460   -4.9210   24.8520 C   0  0  0  0  0  0  0  0  0  0  0  0
  -21.9650   -4.3310   23.6860 C   0  0  0  0  0  3  0  0  0  0  0  0
  -22.1360   -5.1040   22.5240 C   0  0  0  0  0  0  0  0  0  0  0  0
  -22.6160   -4.5260   21.3970 F   0  0  0  0  0  0  0  0  0  0  0  0
  -21.2780   -4.1750   25.9680 F   0  0  0  0  0  0  0  0  0  0  0  0
  -23.1370  -13.7960   21.1090 C   0  0  0  0  0  0  0  0  0  0  0  0
  -22.4260  -13.1000   21.9910 N   0  0  0  0  0  0  0  0  0  0  0  0
  -22.7030  -14.8370   20.6200 O   0  0  0  0  0  0  0  0  0  0  0  0
  -22.7910  -12.2560   22.4060 H   0  0  0  0  0  0  0  0  0  0  0  0
  -21.5020  -13.4170   22.2530 H   0  0  0  0  0  0  0  0  0  0  0  0
  -25.7770  -15.4170   20.2250 N   0  0  0  0  0  0  0  0  0  0  0  0
  -25.0330  -16.0900   20.3680 H   0  0  0  0  0  0  0  0  0  0  0  0
  -26.6180  -15.8370   19.8530 H   0  0  0  0  0  0  0  0  0  0  0  0
  1  3  1  0
  3  2  2  0
  3  8  1  0
  4  1  2  0
  4  5  1  0
  5 55  1  0
  5  2  1  0
  8  6  1  1
  8  7  1  0
  9  8  1  0
 10 11  1  0
 10  9  1  0
 12 23  2  0
 13 11  1  0
 13 18  1  0
 14 22  1  0
 14 24  1  0
 15 21  1  0
 15 17  1  0
 16 22  1  0
 17 16  1  0
 18 17  2  0
 19 20  1  0
 19 13  2  0
 20 15  2  0
 21 14  1  0
 22 12  1  0
 24 26  2  0
 25 24  1  0
 27 25  1  0
 28 37  2  0
 28 33  1  0
 29 25  1  0
 29 33  1  0
 30 29  1  0
 31 32  1  0
 31 30  1  0
 32 28  1  0
 33 34  2  0
 34 35  1  0
 36 35  2  0
 37 36  1  0
 38 12  1  0
 38 39  1  0
 38 48  1  0
 39 42  1  0
 40 44  1  0
 40 39  1  0
 41 40  2  0
 44 43  1  0
 46 44  1  0
 46 47  1  0
 46 45  1  0
 48 51  1  1
 48 49  1  0
 50 48  1  0
 52 54  1  0
 54 53  1  0
 54  4  1  0
 55 58  1  0
 55 59  1  0
 56 58  1  0
 57 58  1  0
 60 68  1  0
 61 66  1  0
 62 63  1  0
 62 61  1  0
 64 63  1  0
 64 73  1  0
 64 65  1  0
 66 60  1  0
 66 65  1  0
 67 60  2  0
 68 69  1  0
 68 59  1  0
 70 71  2  0
 71 90  1  0
 72 71  1  0
 72 75  1  0
 73 74  1  0
 73 70  1  0
 74 72  2  0
 75 76  1  0
 76 77  2  0
 78 81  1  0
 78 77  1  0
 79 78  2  0
 80 79  1  0
 80 75  2  0
 81 82  1  0
 82 87  2  0
 82 83  1  0
 83 84  2  0
 85 84  1  0
 85 89  1  0
 86 85  2  0
 87 86  1  0
 88 87  1  0
 90 91  1  0
 91 94  1  0
 91 93  1  0
 92 90  2  0
 95 96  1  0
 95 70  1  0
 97 95  1  0
M  ISO  4  10 101  11 101  60 100  68 100
M  END
>  <TORSDO>  (52) 
F 23

>  <SCORE>  (52) 
-12.774

>  <name>  (52) 
51

>  <ligand_id>  (52) 
51

>  <original_smiles>  (52) 
[H]c1c([H])c([H])c2c(c1[H])C([H])([H])C([H])([H])C([H])([H])C2([H])N([H])C(=O)C1([H])N(C(=O)C([H])(N([H])C(=O)C([H])(N([H])C([H])([H])[H])C([H])([H])[H])C(C([H])([H])[H])(C([H])([H])[H])C([H])([H])[H])C([H])([H])c2c([H])c(OC([H])([H])C([H])([H])C(c3c([H])c(C([H])(C([H])([H])[H])C([H])([H])[H])n(C([H])(C([H])([H])N([H])C(=O)N4C([H])([H])C([H])([H])C([H])([H])C([H])(n5nc(-c6c([H])c([H])c(Oc7c([H])c([H])c(F)c([H])c7F)c([H])c6[H])c(C(=O)N([H])[H])c5N([H])[H])C4([H])[H])C([H])(C([H])([H])[H])C([H])([H])[H])c3[H])(C([H])([H])[H])C([H])([H])[H])c([H])c([H])c2C1([H])[H]

>  <smiles>  (52) 
[H]c1c([H])c([H])c2c(c1[H])C([H])([H])C([H])([H])C([H])([H])C2([H])N([H])C(=O)C1([H])N(C(=O)C([H])(N([H])C(=O)C([H])(N([H])C([H])([H])[H])C([H])([H])[H])C(C([H])([H])[H])(C([H])([H])[H])C([H])([H])[H])C([H])([H])c2c([H])c(OC([H])([H])C([H])([H])C(c3c([H])c(C([H])(C([H])([H])[H])C([H])([H])[H])n(C([H])(C([H])([H])N([H])C(=O)N4C([H])([H])C([H])([H])C([H])([H])C([H])(n5nc(-c6c([H])c([H])c(Oc7c([H])c([H])c(F)c([H])c7F)c([H])c6[H])c(C(=O)N([H])[H])c5N([H])[H])C4([H])[H])C([H])(C([H])([H])[H])C([H])([H])[H])c3[H])(C([H])([H])[H])C([H])([H])[H])c([H])c([H])c2C1([H])[H]

$$$$
52:0:0
     RDKit          3D

 93101  0  0  1  0  0  0  0  0999 V2000
  -28.5800  -23.9490   20.8310 C   0  0  0  0  0  3  0  0  0  0  0  0
  -27.0090  -22.0160   20.0560 C   0  0  0  0  0  1  0  0  0  0  0  0
  -28.3070  -21.6660   22.1580 C   0  0  0  0  0  1  0  0  0  0  0  0
  -28.3730  -22.2650   20.7220 C   0  0  2  0  0  0  0  0  0  0  0  0
  -29.4510  -21.2430   19.9970 C   0  0  0  0  0  2  0  0  0  0  0  0
  -30.8940  -15.1230   19.9450 C   0  0  0  0  0  0  0  0  0  0  0  0
  -30.6070  -12.8270   18.9670 C   0  0  0  0  0  2  0  0  0  0  0  0
  -29.6320  -12.8270   17.7730 C   0  0  0  0  0  2  0  0  0  0  0  0
  -28.1900  -12.6280   18.2680 C   0  0  0  0  0  2  0  0  0  0  0  0
  -27.8410  -13.5430   19.4710 C   0  0  0  0  0  3  0  0  0  0  0  0
  -28.9460  -13.5430   20.5510 C   0  0  0  0  0  2  0  0  0  0  0  0
  -30.1890  -13.9290   19.8760 N   0  0  0  0  0  0  0  0  0  0  0  0
  -32.0960  -15.0580   19.6660 O   0  0  0  0  0  0  0  0  0  0  0  0
  -30.9890  -18.9830   19.7110 C   0  0  0  0  0  2  0  0  0  0  0  0
  -28.6430  -18.4890   20.2330 C   0  0  0  0  0  2  0  0  0  0  0  0
  -30.9080  -17.5200   19.0820 C   0  0  0  0  0  2  0  0  0  0  0  0
  -29.1170  -16.9920   20.6190 C   0  0  0  0  0  2  0  0  0  0  0  0
  -29.7210  -19.6300   20.3740 C   0  0  0  0  0  3  0  0  0  0  0  0
  -30.2770  -16.4020   19.8690 N   0  0  0  0  0  0  0  0  0  0  0  0
  -25.4880  -14.1060   20.3130 C   0  0  0  0  0  0  0  0  0  0  0  0
  -24.4440  -13.3220   20.7190 C   0  0  0  0  0  0  0  0  0  0  0  0
  -24.9140  -11.9740   20.6570 C   0  0  0  0  0  0  0  0  0  0  0  0
  -26.5260  -13.2370   20.0250 N   0  0  0  0  0  0  0  0  0  0  0  0
  -26.1930  -11.9480   20.2980 N   0  0  0  0  0  0  0  0  0  0  0  0
  -24.2010  -10.7060   20.8620 C   0  0  0  0  0  0  0  0  0  0  0  0
  -24.6200   -9.7720   21.8350 C   0  0  0  0  0  3  0  0  0  0  0  0
  -23.9050   -8.5690   22.0270 C   0  0  0  0  0  3  0  0  0  0  0  0
  -22.7600   -8.2920   21.2440 C   0  0  0  0  0  0  0  0  0  0  0  0
  -22.3610   -9.2140   20.2600 C   0  0  0  0  0  3  0  0  0  0  0  0
  -23.0760  -10.4090   20.0680 C   0  0  0  0  0  3  0  0  0  0  0  0
  -22.0190   -7.1390   21.3440 O   0  0  0  0  0  0  0  0  0  0  0  0
  -21.8750   -6.4760   22.5360 C   0  0  0  0  0  0  0  0  0  0  0  0
  -21.3130   -7.0980   23.6720 C   0  0  0  0  0  3  0  0  0  0  0  0
  -21.1190   -6.3600   24.8560 C   0  0  0  0  0  3  0  0  0  0  0  0
  -21.4780   -5.0000   24.9060 C   0  0  0  0  0  0  0  0  0  0  0  0
  -22.0340   -4.3770   23.7750 C   0  0  0  0  0  3  0  0  0  0  0  0
  -22.2290   -5.1130   22.5930 C   0  0  0  0  0  0  0  0  0  0  0  0
  -22.7460   -4.5020   21.4990 F   0  0  0  0  0  0  0  0  0  0  0  0
  -21.2850   -4.2880   26.0410 F   0  0  0  0  0  0  0  0  0  0  0  0
  -23.0560  -13.7910   21.0430 C   0  0  0  0  0  0  0  0  0  0  0  0
  -22.3650  -13.0880   21.9340 N   0  0  0  0  0  0  0  0  0  0  0  0
  -22.5930  -14.8140   20.5420 O   0  0  0  0  0  0  0  0  0  0  0  0
  -22.7520  -12.2630   22.3640 H   0  0  0  0  0  0  0  0  0  0  0  0
  -21.4330  -13.3840   22.1900 H   0  0  0  0  0  0  0  0  0  0  0  0
  -25.6300  -15.4790   20.1370 N   0  0  0  0  0  0  0  0  0  0  0  0
  -24.8580  -16.1180   20.2830 H   0  0  0  0  0  0  0  0  0  0  0  0
  -26.4510  -15.9280   19.7530 H   0  0  0  0  0  0  0  0  0  0  0  0
  -27.6990  -24.6070   21.9530 C   0  0  0  0  0  2  0  0  0  0  0  0
  -27.4130  -26.5630   23.5460 C   0  0  0  0  0  1  0  0  0  0  0  0
  -29.4260  -25.0540   23.7790 C   0  0  0  0  0  1  0  0  0  0  0  0
  -28.4240  -25.6800   22.7960 C   0  0  0  0  0  3  0  0  0  0  0  0
  -28.3970  -25.0510   19.6280 C   0  0  0  0  0  2  0  0  0  0  0  0
  -28.4440  -26.5650   19.8940 O   0  0  0  0  0  0  0  0  0  0  0  0
  -24.6920  -31.9370   23.1160 C   0  0  0  0  0  0  0  0  0  0  0  0
  -27.3190  -27.4430   19.8750 C   0  0  0  0  0  0  0  0  0  0  0  0
  -23.4890  -30.5650   21.4580 C   0  0  0  0  0  3  0  0  0  0  0  0
  -24.9400  -29.0820   19.9540 C   0  0  0  0  0  0  0  0  0  0  0  0
  -26.0260  -30.9140   21.2460 C   0  0  0  0  0  2  0  0  0  0  0  0
  -26.1170  -29.5530   20.5500 C   0  0  0  0  0  0  0  0  0  0  0  0
  -27.3060  -28.7470   20.4950 C   0  0  0  0  0  3  0  0  0  0  0  0
  -26.1130  -27.0550   19.2520 C   0  0  0  0  0  3  0  0  0  0  0  0
  -24.9460  -27.8450   19.2930 C   0  0  0  0  0  3  0  0  0  0  0  0
  -23.6920  -29.9410   20.0520 C   0  0  0  0  0  2  0  0  0  0  0  0
  -24.7550  -31.1580   21.9950 N   0  0  0  0  0  0  0  0  0  0  0  0
  -23.6100  -32.1760   23.6770 O   0  0  0  0  0  0  0  0  0  0  0  0
  -22.8610  -29.5070   22.3990 C   0  0  0  0  0  0  0  0  0  0  0  0
  -21.5370  -29.3010   22.2860 N   0  0  0  0  0  0  0  0  0  0  0  0
  -23.5650  -28.8760   23.1910 O   0  0  0  0  0  0  0  0  0  0  0  0
  -21.0260  -29.8670   21.6220 H   0  0  0  0  0  0  0  0  0  0  0  0
  -18.1980  -28.0000   22.7990 C   0  0  0  0  0  0  0  0  0  0  0  0
  -20.7520  -28.3210   23.0410 C   0  0  0  0  0  3  0  0  0  0  0  0
  -20.8830  -26.9090   22.4240 C   0  0  0  0  0  2  0  0  0  0  0  0
  -19.7750  -26.5850   21.4160 C   0  0  0  0  0  2  0  0  0  0  0  0
  -18.3990  -26.6750   22.0830 C   0  0  0  0  0  2  0  0  0  0  0  0
  -19.3010  -28.7810   23.2340 C   0  0  0  0  0  0  0  0  0  0  0  0
  -19.0570  -30.0190   23.8650 C   0  0  0  0  0  3  0  0  0  0  0  0
  -17.7410  -30.4780   24.0660 C   0  0  0  0  0  3  0  0  0  0  0  0
  -16.6520  -29.6950   23.6460 C   0  0  0  0  0  3  0  0  0  0  0  0
  -16.8820  -28.4580   23.0170 C   0  0  0  0  0  3  0  0  0  0  0  0
  -25.9680  -32.5800   23.7370 C   0  0  0  0  0  3  0  0  0  0  0  0
  -25.6360  -33.9640   24.1030 N   0  0  0  0  0  0  0  0  0  0  0  0
  -25.9430  -35.0440   23.3710 C   0  0  0  0  0  0  0  0  0  0  0  0
  -26.6050  -34.9800   22.3330 O   0  0  0  0  0  0  0  0  0  0  0  0
  -25.0460  -34.0860   24.9120 H   0  0  0  0  0  0  0  0  0  0  0  0
  -24.1830  -36.8210   23.0820 C   0  0  0  0  0  1  0  0  0  0  0  0
  -25.4380  -36.4130   23.8710 C   0  0  0  0  0  3  0  0  0  0  0  0
  -27.5630  -37.3140   24.7110 C   0  0  0  0  0  1  0  0  0  0  0  0
  -26.4510  -37.4860   23.7780 N   0  0  0  0  0  0  0  0  0  0  0  0
  -26.0300  -38.3950   23.9490 H   0  0  0  0  0  0  0  0  0  0  0  0
  -26.5120  -31.7920   24.9920 C   0  0  1  0  0  0  0  0  0  0  0  0
  -25.4370  -31.5160   26.0690 C   0  0  0  0  0  1  0  0  0  0  0  0
  -27.1120  -30.4310   24.5700 C   0  0  0  0  0  1  0  0  0  0  0  0
  -27.6560  -32.5940   25.6570 C   0  0  0  0  0  1  0  0  0  0  0  0
  1 52  1  0
  1 48  1  0
  4  2  1  6
  4  1  1  0
  4  3  1  0
  5  4  1  0
  7 12  1  0
  8  9  1  0
  8  7  1  0
 10  9  1  0
 10 23  1  0
 10 11  1  0
 12  6  1  0
 12 11  1  0
 13  6  2  0
 14 18  1  0
 15 18  1  0
 15 17  1  0
 16 14  1  0
 16 19  1  0
 18  5  1  0
 19  6  1  0
 19 17  1  0
 20 21  2  0
 21 40  1  0
 22 21  1  0
 22 25  1  0
 23 24  1  0
 23 20  1  0
 24 22  2  0
 25 26  1  0
 26 27  2  0
 28 31  1  0
 28 27  1  0
 29 28  2  0
 30 29  1  0
 30 25  2  0
 31 32  1  0
 32 37  2  0
 32 33  1  0
 33 34  2  0
 34 35  1  0
 35 39  1  0
 36 35  2  0
 37 36  1  0
 38 37  1  0
 40 41  1  0
 41 44  1  0
 41 43  1  0
 42 40  2  0
 45 46  1  0
 45 20  1  0
 47 45  1  0
 48 51  1  0
 51 49  1  0
 51 50  1  0
 52 53  1  0
 54 65  2  0
 55 53  1  0
 55 60  1  0
 56 64  1  0
 56 66  1  0
 57 63  1  0
 57 59  1  0
 58 64  1  0
 59 58  1  0
 60 59  2  0
 61 62  1  0
 61 55  2  0
 62 57  2  0
 63 56  1  0
 64 54  1  0
 66 68  2  0
 67 66  1  0
 69 67  1  0
 70 79  2  0
 70 75  1  0
 71 67  1  0
 71 75  1  0
 72 71  1  0
 73 74  1  0
 73 72  1  0
 74 70  1  0
 75 76  2  0
 76 77  1  0
 78 77  2  0
 79 78  1  0
 80 54  1  0
 80 81  1  0
 80 90  1  0
 81 84  1  0
 82 86  1  0
 82 81  1  0
 83 82  2  0
 86 85  1  0
 88 86  1  0
 88 89  1  0
 88 87  1  0
 90 93  1  1
 90 91  1  0
 92 90  1  0
M  ISO  4   6 100  19 100  52 101  53 101
M  END
>  <TORSDO>  (53) 
F 21

>  <SCORE>  (53) 
-13.135

>  <name>  (53) 
52

>  <ligand_id>  (53) 
52

>  <original_smiles>  (53) 
[H]c1c([H])c([H])c2c(c1[H])C([H])([H])C([H])([H])C([H])([H])C2([H])N([H])C(=O)C1([H])N(C(=O)C([H])(N([H])C(=O)C([H])(N([H])C([H])([H])[H])C([H])([H])[H])C(C([H])([H])[H])(C([H])([H])[H])C([H])([H])[H])C([H])([H])c2c([H])c(OC([H])([H])C([H])(C([H])([H])C([H])(C([H])([H])[H])C([H])([H])[H])C(C([H])([H])[H])(C([H])([H])[H])C([H])([H])C3([H])C([H])([H])C([H])([H])N(C(=O)N4C([H])([H])C([H])([H])C([H])([H])C([H])(n5nc(-c6c([H])c([H])c(Oc7c([H])c([H])c(F)c([H])c7F)c([H])c6[H])c(C(=O)N([H])[H])c5N([H])[H])C4([H])[H])C([H])([H])C3([H])[H])c([H])c([H])c2C1([H])[H]

>  <smiles>  (53) 
[H]c1c([H])c([H])c2c(c1[H])C([H])([H])C([H])([H])C([H])([H])C2([H])N([H])C(=O)C1([H])N(C(=O)C([H])(N([H])C(=O)C([H])(N([H])C([H])([H])[H])C([H])([H])[H])C(C([H])([H])[H])(C([H])([H])[H])C([H])([H])[H])C([H])([H])c2c([H])c(OC([H])([H])C([H])(C([H])([H])C([H])(C([H])([H])[H])C([H])([H])[H])C(C([H])([H])[H])(C([H])([H])[H])C([H])([H])C3([H])C([H])([H])C([H])([H])N(C(=O)N4C([H])([H])C([H])([H])C([H])([H])C([H])(n5nc(-c6c([H])c([H])c(Oc7c([H])c([H])c(F)c([H])c7F)c([H])c6[H])c(C(=O)N([H])[H])c5N([H])[H])C4([H])[H])C([H])([H])C3([H])[H])c([H])c([H])c2C1([H])[H]

$$$$
53:0:0
     RDKit          3D

104112  0  0  1  0  0  0  0  0999 V2000
  -29.4770  -21.0340   17.9730 C   0  0  0  0  0  3  0  0  0  0  0  0
  -28.6050  -19.9590   19.9650 C   0  0  0  0  0  3  0  0  0  0  0  0
  -28.6870  -21.0950   19.1380 C   0  0  0  0  0  0  0  0  0  0  0  0
  -30.2390  -19.8910   17.6540 C   0  0  0  0  0  0  0  0  0  0  0  0
  -29.3560  -18.7990   19.6650 C   0  0  0  0  0  0  0  0  0  0  0  0
  -30.2750  -18.7940   18.5690 C   0  0  0  0  0  0  0  0  0  0  0  0
  -32.7630  -18.1640   18.5620 C   0  0  0  0  0  1  0  0  0  0  0  0
  -31.0770  -16.6450   17.3220 C   0  0  0  0  0  1  0  0  0  0  0  0
  -31.3100  -17.6530   18.4590 C   0  0  0  0  0  3  0  0  0  0  0  0
  -27.8790  -22.3590   19.4160 C   0  0  0  0  0  2  0  0  0  0  0  0
  -28.6930  -23.4590   20.1460 C   0  0  0  0  0  3  0  0  0  0  0  0
  -28.6010  -23.3750   21.6160 N   0  0  0  0  0  4  0  0  0  0  0  0
  -27.6460  -23.2660   21.9080 H   0  0  0  0  0  0  0  0  0  0  0  0
  -28.9630  -24.2140   22.0360 H   0  0  0  0  0  0  0  0  0  0  0  0
  -29.1330  -22.5940   21.9530 H   0  0  0  0  0  0  0  0  0  0  0  0
  -28.4300  -24.8970   19.6440 C   0  0  0  0  0  2  0  0  0  0  0  0
  -27.2970  -25.5680   20.2670 N   0  0  0  0  0  0  0  0  0  0  0  0
  -27.5400  -25.7980   21.2260 H   0  0  0  0  0  0  0  0  0  0  0  0
  -27.2750  -26.8390   19.5980 O   0  0  0  0  0  0  0  0  0  0  0  0
  -24.3240  -32.0440   23.4610 C   0  0  0  0  0  0  0  0  0  0  0  0
  -26.1600  -27.5800   19.8930 C   0  0  0  0  0  0  0  0  0  0  0  0
  -22.8010  -30.8510   21.9160 C   0  0  0  0  0  3  0  0  0  0  0  0
  -23.9210  -29.2490   20.2760 C   0  0  0  0  0  0  0  0  0  0  0  0
  -25.3020  -30.9960   21.4220 C   0  0  0  0  0  2  0  0  0  0  0  0
  -25.1810  -29.6480   20.7420 C   0  0  0  0  0  0  0  0  0  0  0  0
  -26.3020  -28.8150   20.5590 C   0  0  0  0  0  3  0  0  0  0  0  0
  -24.8870  -27.1760   19.4350 C   0  0  0  0  0  3  0  0  0  0  0  0
  -23.7660  -28.0060   19.6290 C   0  0  0  0  0  3  0  0  0  0  0  0
  -22.7810  -30.2160   20.4990 C   0  0  0  0  0  2  0  0  0  0  0  0
  -24.1700  -31.3080   22.3250 N   0  0  0  0  0  0  0  0  0  0  0  0
  -23.3490  -32.3830   24.1450 O   0  0  0  0  0  0  0  0  0  0  0  0
  -22.1670  -29.8540   22.9110 C   0  0  0  0  0  0  0  0  0  0  0  0
  -20.8550  -29.6120   22.7550 N   0  0  0  0  0  0  0  0  0  0  0  0
  -22.8520  -29.2920   23.7690 O   0  0  0  0  0  0  0  0  0  0  0  0
  -20.3650  -30.1130   22.0270 H   0  0  0  0  0  0  0  0  0  0  0  0
  -17.5910  -28.0910   23.0370 C   0  0  0  0  0  0  0  0  0  0  0  0
  -20.0560  -28.6750   23.5430 C   0  0  0  0  0  3  0  0  0  0  0  0
  -20.3760  -27.2120   23.1590 C   0  0  0  0  0  2  0  0  0  0  0  0
  -19.4430  -26.6530   22.0810 C   0  0  0  0  0  2  0  0  0  0  0  0
  -17.9860  -26.7050   22.5520 C   0  0  0  0  0  2  0  0  0  0  0  0
  -18.5640  -29.0200   23.4870 C   0  0  0  0  0  0  0  0  0  0  0  0
  -18.1490  -30.3050   23.8980 C   0  0  0  0  0  3  0  0  0  0  0  0
  -16.7900  -30.6680   23.8590 C   0  0  0  0  0  3  0  0  0  0  0  0
  -15.8270  -29.7410   23.4260 C   0  0  0  0  0  3  0  0  0  0  0  0
  -16.2260  -28.4540   23.0220 C   0  0  0  0  0  3  0  0  0  0  0  0
  -25.7340  -32.5090   23.9480 C   0  0  0  0  0  3  0  0  0  0  0  0
  -26.2600  -31.7030   25.1980 C   0  0  1  0  0  0  0  0  0  0  0  0
  -25.2410  -31.6160   26.3600 C   0  0  0  0  0  1  0  0  0  0  0  0
  -26.6340  -30.2570   24.7950 C   0  0  0  0  0  1  0  0  0  0  0  0
  -27.5560  -32.3540   25.7390 C   0  0  0  0  0  1  0  0  0  0  0  0
  -25.6460  -33.9430   24.2520 N   0  0  0  0  0  0  0  0  0  0  0  0
  -26.1100  -34.9140   23.4540 C   0  0  0  0  0  0  0  0  0  0  0  0
  -26.7190  -34.6850   22.4070 O   0  0  0  0  0  0  0  0  0  0  0  0
  -25.1160  -34.2060   25.0690 H   0  0  0  0  0  0  0  0  0  0  0  0
  -24.6590  -36.9350   23.0870 C   0  0  0  0  0  1  0  0  0  0  0  0
  -25.8480  -36.3710   23.8840 C   0  0  0  0  0  3  0  0  0  0  0  0
  -28.1180  -36.9360   24.6320 C   0  0  0  0  0  1  0  0  0  0  0  0
  -27.0230  -37.2530   23.7190 N   0  0  0  0  0  0  0  0  0  0  0  0
  -26.7660  -38.2270   23.8530 H   0  0  0  0  0  0  0  0  0  0  0  0
  -30.8940  -19.8810   16.2700 C   0  0  0  0  0  2  0  0  0  0  0  0
  -29.8780  -19.4410   15.1850 C   0  0  0  0  0  2  0  0  0  0  0  0
  -30.1680  -17.4900   13.5720 C   0  0  0  0  0  1  0  0  0  0  0  0
  -29.9690  -19.8140   12.6490 C   0  0  0  0  0  1  0  0  0  0  0  0
  -30.4820  -18.9730   13.8350 C   0  0  0  0  0  3  0  0  0  0  0  0
  -29.0300  -17.5110   20.4320 C   0  0  0  0  0  2  0  0  0  0  0  0
  -30.1380  -16.9230   21.3300 C   0  0  0  0  0  2  0  0  0  0  0  0
  -30.6700  -14.5470   20.7670 C   0  0  0  0  0  0  0  0  0  0  0  0
  -30.3820  -12.5160   19.3960 C   0  0  0  0  0  2  0  0  0  0  0  0
  -29.4450  -12.8520   18.2210 C   0  0  0  0  0  2  0  0  0  0  0  0
  -27.9650  -12.6990   18.6300 C   0  0  0  0  0  2  0  0  0  0  0  0
  -27.6330  -13.3830   19.9810 C   0  0  0  0  0  3  0  0  0  0  0  0
  -28.6790  -13.0170   21.0600 C   0  0  0  0  0  2  0  0  0  0  0  0
  -30.0110  -13.3780   20.5340 N   0  0  0  0  0  0  0  0  0  0  0  0
  -31.7650  -14.8200   20.2660 O   0  0  0  0  0  0  0  0  0  0  0  0
  -29.9600  -15.4670   21.4410 N   0  0  0  0  0  0  0  0  0  0  0  0
  -29.0940  -15.1370   21.8360 H   0  0  0  0  0  0  0  0  0  0  0  0
  -25.2250  -13.9140   20.7370 C   0  0  0  0  0  0  0  0  0  0  0  0
  -24.1490  -13.1090   21.0130 C   0  0  0  0  0  0  0  0  0  0  0  0
  -24.6050  -11.7690   20.8250 C   0  0  0  0  0  0  0  0  0  0  0  0
  -26.2700  -13.0620   20.4150 N   0  0  0  0  0  0  0  0  0  0  0  0
  -25.8980  -11.7590   20.5230 N   0  0  0  0  0  0  0  0  0  0  0  0
  -23.8670  -10.4990   20.8660 C   0  0  0  0  0  0  0  0  0  0  0  0
  -24.3290   -9.4070   21.6380 C   0  0  0  0  0  3  0  0  0  0  0  0
  -23.5980   -8.1990   21.6750 C   0  0  0  0  0  3  0  0  0  0  0  0
  -22.3920   -8.0780   20.9420 C   0  0  0  0  0  0  0  0  0  0  0  0
  -21.9530   -9.1560   20.1550 C   0  0  0  0  0  3  0  0  0  0  0  0
  -22.6820  -10.3580   20.1150 C   0  0  0  0  0  3  0  0  0  0  0  0
  -21.6300   -6.9340   20.8980 O   0  0  0  0  0  0  0  0  0  0  0  0
  -21.6370   -6.0240   21.9240 C   0  0  0  0  0  0  0  0  0  0  0  0
  -21.3200   -6.3890   23.2500 C   0  0  0  0  0  3  0  0  0  0  0  0
  -21.2790   -5.4080   24.2610 C   0  0  0  0  0  3  0  0  0  0  0  0
  -21.5450   -4.0610   23.9470 C   0  0  0  0  0  0  0  0  0  0  0  0
  -21.8540   -3.6940   22.6260 C   0  0  0  0  0  3  0  0  0  0  0  0
  -21.9020   -4.6720   21.6190 C   0  0  0  0  0  0  0  0  0  0  0  0
  -22.1840   -4.3100   20.3430 F   0  0  0  0  0  0  0  0  0  0  0  0
  -21.4970   -3.1160   24.9150 F   0  0  0  0  0  0  0  0  0  0  0  0
  -22.7560  -13.5600   21.3380 C   0  0  0  0  0  0  0  0  0  0  0  0
  -22.0400  -12.7790   22.1410 N   0  0  0  0  0  0  0  0  0  0  0  0
  -22.3150  -14.6320   20.9270 O   0  0  0  0  0  0  0  0  0  0  0  0
  -22.4170  -11.9110   22.4880 H   0  0  0  0  0  0  0  0  0  0  0  0
  -21.1030  -13.0480   22.4050 H   0  0  0  0  0  0  0  0  0  0  0  0
  -25.3960  -15.2920   20.7130 N   0  0  0  0  0  0  0  0  0  0  0  0
  -24.6260  -15.9310   20.8730 H   0  0  0  0  0  0  0  0  0  0  0  0
  -26.2300  -15.7580   20.3760 H   0  0  0  0  0  0  0  0  0  0  0  0
  1  3  1  0
  3 10  1  0
  3  2  2  0
  4  1  2  0
  4  6  1  0
  5  2  1  0
  5 65  1  0
  6  5  2  0
  8  9  1  0
  9  7  1  0
  9  6  1  0
 11 10  1  0
 11 12  1  0
 12 13  1  0
 12 15  1  0
 12 14  1  0
 16 11  1  0
 16 17  1  0
 17 18  1  0
 19 21  1  0
 19 17  1  0
 20 31  2  0
 21 26  1  0
 22 30  1  0
 22 32  1  0
 23 29  1  0
 23 25  1  0
 24 30  1  0
 25 24  1  0
 26 25  2  0
 27 28  1  0
 27 21  2  0
 28 23  2  0
 29 22  1  0
 30 20  1  0
 32 34  2  0
 33 32  1  0
 35 33  1  0
 36 41  1  0
 37 33  1  0
 38 37  1  0
 39 40  1  0
 39 38  1  0
 40 36  1  0
 41 37  1  0
 41 42  2  0
 43 42  1  0
 44 43  2  0
 45 36  2  0
 45 44  1  0
 46 20  1  0
 46 51  1  0
 46 47  1  0
 47 50  1  1
 47 48  1  0
 49 47  1  0
 51 54  1  0
 52 56  1  0
 52 51  1  0
 53 52  2  0
 56 55  1  0
 58 59  1  0
 58 56  1  0
 58 57  1  0
 60  4  1  0
 61 60  1  0
 62 64  1  0
 63 64  1  0
 64 61  1  0
 65 66  1  0
 66 75  1  0
 67 75  1  0
 68 73  1  0
 69 70  1  0
 69 68  1  0
 71 70  1  0
 71 80  1  0
 71 72  1  0
 73 67  1  0
 73 72  1  0
 74 67  2  0
 75 76  1  0
 77 78  2  0
 78 97  1  0
 79 82  1  0
 79 78  1  0
 80 81  1  0
 80 77  1  0
 81 79  2  0
 82 83  1  0
 83 84  2  0
 85 84  1  0
 86 85  2  0
 87 86  1  0
 87 82  2  0
 88 85  1  0
 88 89  1  0
 89 90  1  0
 90 91  2  0
 92 91  1  0
 92 96  1  0
 93 92  2  0
 94 89  2  0
 94 93  1  0
 95 94  1  0
 97 98  1  0
 98101  1  0
 98100  1  0
 99 97  2  0
102 77  1  0
102103  1  0
104102  1  0
M  ISO  4  17 101  19 101  67 100  75 100
M  END
>  <TORSDO>  (54) 
F 27

>  <SCORE>  (54) 
-10.274

>  <name>  (54) 
53

>  <ligand_id>  (54) 
53

>  <original_smiles>  (54) 
[H]c1c([H])c([H])c2c(c1[H])C([H])([H])C([H])([H])C([H])([H])C2([H])N([H])C(=O)C1([H])N(C(=O)C([H])(N([H])C(=O)C([H])(N([H])C([H])([H])[H])C([H])([H])[H])C(C([H])([H])[H])(C([H])([H])[H])C([H])([H])[H])C([H])([H])c2c([H])c(ON([H])C([H])([H])C([H])(C([H])([H])c3c([H])c(C([H])([H])C([H])([H])N([H])C(=O)N4C([H])([H])C([H])([H])C([H])([H])C([H])(n5nc(-c6c([H])c([H])c(Oc7c([H])c([H])c(F)c([H])c7F)c([H])c6[H])c(C(=O)N([H])[H])c5N([H])[H])C4([H])[H])c(C([H])(C([H])([H])[H])C([H])([H])[H])c(C([H])([H])C([H])([H])C([H])(C([H])([H])[H])C([H])([H])[H])c3[H])[N+]([H])([H])[H])c([H])c([H])c2C1([H])[H]

>  <smiles>  (54) 
[H]c1c([H])c([H])c2c(c1[H])C([H])([H])C([H])([H])C([H])([H])C2([H])N([H])C(=O)C1([H])N(C(=O)C([H])(N([H])C(=O)C([H])(N([H])C([H])([H])[H])C([H])([H])[H])C(C([H])([H])[H])(C([H])([H])[H])C([H])([H])[H])C([H])([H])c2c([H])c(ON([H])C([H])([H])C([H])(C([H])([H])c3c([H])c(C([H])([H])C([H])([H])N([H])C(=O)N4C([H])([H])C([H])([H])C([H])([H])C([H])(n5nc(-c6c([H])c([H])c(Oc7c([H])c([H])c(F)c([H])c7F)c([H])c6[H])c(C(=O)N([H])[H])c5N([H])[H])C4([H])[H])c(C([H])(C([H])([H])[H])C([H])([H])[H])c(C([H])([H])C([H])([H])C([H])(C([H])([H])[H])C([H])([H])[H])c3[H])[N+]([H])([H])[H])c([H])c([H])c2C1([H])[H]

$$$$
54:0:0
     RDKit          3D

 91 99  0  0  1  0  0  0  0  0999 V2000
  -28.5700  -22.2920   20.6780 N   0  0  0  0  0  0  0  0  0  0  0  0
  -27.9830  -22.2870   21.5090 H   0  0  0  0  0  0  0  0  0  0  0  0
  -29.1910  -19.7910   21.1330 C   0  0  0  0  0  3  0  0  0  0  0  0
  -29.7550  -20.6660   19.1560 C   0  0  0  0  0  3  0  0  0  0  0  0
  -29.1560  -21.0090   20.3350 C   0  0  0  0  0  0  0  0  0  0  0  0
  -29.8530  -18.7530   20.4640 C   0  0  0  0  0  0  0  0  0  0  0  0
  -30.9000  -18.6600   18.1630 C   0  0  0  0  0  1  0  0  0  0  0  0
  -30.1740  -19.3260   19.2270 N   0  0  0  0  0  0  0  0  0  0  0  0
  -30.4370  -17.3470   20.9330 C   0  0  0  0  0  2  0  0  0  0  0  0
  -30.6630  -14.8180   20.2640 C   0  0  0  0  0  0  0  0  0  0  0  0
  -30.4470  -12.5420   19.2360 C   0  0  0  0  0  2  0  0  0  0  0  0
  -29.4960  -12.5960   18.0210 C   0  0  0  0  0  2  0  0  0  0  0  0
  -28.0320  -12.4190   18.4680 C   0  0  0  0  0  2  0  0  0  0  0  0
  -27.6640  -13.3150   19.6820 C   0  0  0  0  0  3  0  0  0  0  0  0
  -28.7340  -13.2420   20.7900 C   0  0  0  0  0  2  0  0  0  0  0  0
  -30.0170  -13.6030   20.1770 N   0  0  0  0  0  0  0  0  0  0  0  0
  -31.8550  -14.8940   19.9590 O   0  0  0  0  0  0  0  0  0  0  0  0
  -29.9240  -15.9670   20.5200 N   0  0  0  0  0  0  0  0  0  0  0  0
  -28.9310  -15.8310   20.6220 H   0  0  0  0  0  0  0  0  0  0  0  0
  -25.2850  -13.9010   20.4380 C   0  0  0  0  0  0  0  0  0  0  0  0
  -24.2250  -13.1260   20.8200 C   0  0  0  0  0  0  0  0  0  0  0  0
  -24.6900  -11.7760   20.7870 C   0  0  0  0  0  0  0  0  0  0  0  0
  -26.3280  -13.0240   20.1890 N   0  0  0  0  0  0  0  0  0  0  0  0
  -25.9780  -11.7410   20.4650 N   0  0  0  0  0  0  0  0  0  0  0  0
  -23.9650  -10.5130   20.9850 C   0  0  0  0  0  0  0  0  0  0  0  0
  -24.4010   -9.5520   21.9230 C   0  0  0  0  0  3  0  0  0  0  0  0
  -23.6770   -8.3540   22.1090 C   0  0  0  0  0  3  0  0  0  0  0  0
  -22.5050   -8.1090   21.3580 C   0  0  0  0  0  0  0  0  0  0  0  0
  -22.0880   -9.0590   20.4090 C   0  0  0  0  0  3  0  0  0  0  0  0
  -22.8110  -10.2480   20.2210 C   0  0  0  0  0  3  0  0  0  0  0  0
  -21.7540   -6.9620   21.4540 O   0  0  0  0  0  0  0  0  0  0  0  0
  -21.7000   -6.2310   22.6120 C   0  0  0  0  0  0  0  0  0  0  0  0
  -21.2560   -6.7930   23.8280 C   0  0  0  0  0  3  0  0  0  0  0  0
  -21.1510   -5.9880   24.9790 C   0  0  0  0  0  3  0  0  0  0  0  0
  -21.4790   -4.6200   24.9170 C   0  0  0  0  0  0  0  0  0  0  0  0
  -21.9170   -4.0570   23.7040 C   0  0  0  0  0  3  0  0  0  0  0  0
  -22.0240   -4.8590   22.5540 C   0  0  0  0  0  0  0  0  0  0  0  0
  -22.4260   -4.3090   21.3840 F   0  0  0  0  0  0  0  0  0  0  0  0
  -21.3710   -3.8440   26.0190 F   0  0  0  0  0  0  0  0  0  0  0  0
  -22.8300  -13.6020   21.1040 C   0  0  0  0  0  0  0  0  0  0  0  0
  -22.1100  -12.9060   21.9780 N   0  0  0  0  0  0  0  0  0  0  0  0
  -22.3870  -14.6260   20.5860 O   0  0  0  0  0  0  0  0  0  0  0  0
  -22.4820  -12.0770   22.4200 H   0  0  0  0  0  0  0  0  0  0  0  0
  -21.1760  -13.2080   22.2090 H   0  0  0  0  0  0  0  0  0  0  0  0
  -25.4440  -15.2720   20.2560 N   0  0  0  0  0  0  0  0  0  0  0  0
  -24.6770  -15.9250   20.3740 H   0  0  0  0  0  0  0  0  0  0  0  0
  -26.2810  -15.7110   19.8950 H   0  0  0  0  0  0  0  0  0  0  0  0
  -30.2840  -24.0290   21.1200 C   0  0  0  0  0  1  0  0  0  0  0  0
  -29.0450  -23.6850   20.2880 C   0  0  0  0  0  3  0  0  0  0  0  0
  -27.9640  -24.9020   20.4110 C   0  0  0  0  0  2  0  0  0  0  0  0
  -28.2780  -26.3760   20.2390 O   0  0  0  0  0  0  0  0  0  0  0  0
  -24.5870  -31.8990   23.2440 C   0  0  0  0  0  0  0  0  0  0  0  0
  -27.1960  -27.2950   20.1910 C   0  0  0  0  0  0  0  0  0  0  0  0
  -23.3920  -30.5070   21.5970 C   0  0  0  0  0  3  0  0  0  0  0  0
  -24.8490  -28.9640   20.1700 C   0  0  0  0  0  0  0  0  0  0  0  0
  -25.9400  -30.8110   21.4320 C   0  0  0  0  0  2  0  0  0  0  0  0
  -26.0210  -29.4310   20.7770 C   0  0  0  0  0  0  0  0  0  0  0  0
  -27.1990  -28.6110   20.7760 C   0  0  0  0  0  3  0  0  0  0  0  0
  -26.0020  -26.9150   19.5370 C   0  0  0  0  0  3  0  0  0  0  0  0
  -24.8460  -27.7150   19.5380 C   0  0  0  0  0  3  0  0  0  0  0  0
  -23.6150  -29.8420   20.2150 C   0  0  0  0  0  2  0  0  0  0  0  0
  -24.6590  -31.0900   22.1460 N   0  0  0  0  0  0  0  0  0  0  0  0
  -23.5000  -32.1740   23.7740 O   0  0  0  0  0  0  0  0  0  0  0  0
  -22.7250  -29.4840   22.5500 C   0  0  0  0  0  0  0  0  0  0  0  0
  -21.3980  -29.3130   22.4250 N   0  0  0  0  0  0  0  0  0  0  0  0
  -23.4030  -28.8500   23.3640 O   0  0  0  0  0  0  0  0  0  0  0  0
  -20.9090  -29.8770   21.7440 H   0  0  0  0  0  0  0  0  0  0  0  0
  -18.0140  -28.1350   22.9390 C   0  0  0  0  0  0  0  0  0  0  0  0
  -20.5760  -28.3740   23.1930 C   0  0  0  0  0  3  0  0  0  0  0  0
  -20.6640  -26.9470   22.6040 C   0  0  0  0  0  2  0  0  0  0  0  0
  -19.5530  -26.6420   21.5950 C   0  0  0  0  0  2  0  0  0  0  0  0
  -18.1770  -26.7910   22.2480 C   0  0  0  0  0  2  0  0  0  0  0  0
  -19.1420  -28.8850   23.3690 C   0  0  0  0  0  0  0  0  0  0  0  0
  -18.9350  -30.1430   23.9740 C   0  0  0  0  0  3  0  0  0  0  0  0
  -17.6360  -30.6520   24.1520 C   0  0  0  0  0  3  0  0  0  0  0  0
  -16.5220  -29.8990   23.7390 C   0  0  0  0  0  3  0  0  0  0  0  0
  -16.7130  -28.6410   23.1380 C   0  0  0  0  0  3  0  0  0  0  0  0
  -25.8650  -32.5340   23.8720 C   0  0  0  0  0  3  0  0  0  0  0  0
  -26.3660  -31.7740   25.1620 C   0  0  1  0  0  0  0  0  0  0  0  0
  -25.2610  -31.5480   26.2190 C   0  0  0  0  0  1  0  0  0  0  0  0
  -26.9500  -30.3910   24.7920 C   0  0  0  0  0  1  0  0  0  0  0  0
  -27.5090  -32.5730   25.8290 C   0  0  0  0  0  1  0  0  0  0  0  0
  -25.5560  -33.9360   24.1880 N   0  0  0  0  0  0  0  0  0  0  0  0
  -25.8980  -34.9840   23.4280 C   0  0  0  0  0  0  0  0  0  0  0  0
  -26.5790  -34.8720   22.4050 O   0  0  0  0  0  0  0  0  0  0  0  0
  -24.9520  -34.0960   24.9820 H   0  0  0  0  0  0  0  0  0  0  0  0
  -24.1880  -36.7880   23.0370 C   0  0  0  0  0  1  0  0  0  0  0  0
  -25.4110  -36.3770   23.8730 C   0  0  0  0  0  3  0  0  0  0  0  0
  -27.5340  -37.2520   24.7430 C   0  0  0  0  0  1  0  0  0  0  0  0
  -26.4530  -37.4240   23.7770 N   0  0  0  0  0  0  0  0  0  0  0  0
  -26.0480  -38.3470   23.9130 H   0  0  0  0  0  0  0  0  0  0  0  0
  1  2  1  0
  4  8  1  0
  4  5  2  0
  5  1  1  0
  5  3  1  0
  6  9  1  0
  6  3  2  0
  7  8  1  0
  8  6  1  0
 10 18  1  0
 11 16  1  0
 12 13  1  0
 12 11  1  0
 14 13  1  0
 14 23  1  0
 14 15  1  0
 16 10  1  0
 16 15  1  0
 17 10  2  0
 18 19  1  0
 18  9  1  0
 20 21  2  0
 21 40  1  0
 22 21  1  0
 22 25  1  0
 23 20  1  0
 23 24  1  0
 24 22  2  0
 25 26  1  0
 26 27  2  0
 28 31  1  0
 28 27  1  0
 29 28  2  0
 30 29  1  0
 30 25  2  0
 31 32  1  0
 32 33  1  0
 33 34  2  0
 35 34  1  0
 35 39  1  0
 36 35  2  0
 37 32  2  0
 37 36  1  0
 38 37  1  0
 40 41  1  0
 41 44  1  0
 41 43  1  0
 42 40  2  0
 45 46  1  0
 45 20  1  0
 47 45  1  0
 49 50  1  0
 49  1  1  0
 49 48  1  0
 51 50  1  0
 52 63  2  0
 53 51  1  0
 53 58  1  0
 54 62  1  0
 54 64  1  0
 55 61  1  0
 55 57  1  0
 56 62  1  0
 57 56  1  0
 58 57  2  0
 59 60  1  0
 59 53  2  0
 60 55  2  0
 61 54  1  0
 62 52  1  0
 64 66  2  0
 65 64  1  0
 67 65  1  0
 68 77  2  0
 68 73  1  0
 69 65  1  0
 69 73  1  0
 70 69  1  0
 71 72  1  0
 71 70  1  0
 72 68  1  0
 73 74  2  0
 74 75  1  0
 76 75  2  0
 77 76  1  0
 78 52  1  0
 78 83  1  0
 78 79  1  0
 79 82  1  1
 79 80  1  0
 81 79  1  0
 83 86  1  0
 84 88  1  0
 84 83  1  0
 85 84  2  0
 88 87  1  0
 90 88  1  0
 90 91  1  0
 90 89  1  0
M  ISO  4  10 100  18 100  50 101  51 101
M  END
>  <TORSDO>  (55) 
F 20

>  <SCORE>  (55) 
-13.752

>  <name>  (55) 
54

>  <ligand_id>  (55) 
54

>  <original_smiles>  (55) 
[H]c1c([H])c([H])c2c(c1[H])C([H])([H])C([H])([H])C([H])([H])C2([H])N([H])C(=O)C1([H])N(C(=O)C([H])(N([H])C(=O)C([H])(N([H])C([H])([H])[H])C([H])([H])[H])C(C([H])([H])[H])(C([H])([H])[H])C([H])([H])[H])C([H])([H])c2c([H])c(OC([H])([H])C([H])(N([H])c3c([H])c(C([H])([H])N([H])C(=O)N4C([H])([H])C([H])([H])C([H])([H])C([H])(n5nc(-c6c([H])c([H])c(Oc7c([H])c([H])c(F)c([H])c7F)c([H])c6[H])c(C(=O)N([H])[H])c5N([H])[H])C4([H])[H])n(C([H])([H])[H])c3[H])C([H])([H])[H])c([H])c([H])c2C1([H])[H]

>  <smiles>  (55) 
[H]c1c([H])c([H])c2c(c1[H])C([H])([H])C([H])([H])C([H])([H])C2([H])N([H])C(=O)C1([H])N(C(=O)C([H])(N([H])C(=O)C([H])(N([H])C([H])([H])[H])C([H])([H])[H])C(C([H])([H])[H])(C([H])([H])[H])C([H])([H])[H])C([H])([H])c2c([H])c(OC([H])([H])C([H])(N([H])c3c([H])c(C([H])([H])N([H])C(=O)N4C([H])([H])C([H])([H])C([H])([H])C([H])(n5nc(-c6c([H])c([H])c(Oc7c([H])c([H])c(F)c([H])c7F)c([H])c6[H])c(C(=O)N([H])[H])c5N([H])[H])C4([H])[H])n(C([H])([H])[H])c3[H])C([H])([H])[H])c([H])c([H])c2C1([H])[H]

$$$$
55:0:0
     RDKit          3D

 95103  0  0  1  0  0  0  0  0999 V2000
  -30.4800  -21.0500   19.8710 N   0  0  0  0  0  4  0  0  0  0  0  0
  -30.5180  -20.8960   20.8650 H   0  0  0  0  0  0  0  0  0  0  0  0
  -31.4190  -21.2860   19.5900 H   0  0  0  0  0  0  0  0  0  0  0  0
  -29.2130  -22.9850   20.9660 C   0  0  0  0  0  2  0  0  0  0  0  0
  -30.3190  -23.3520   18.7240 C   0  0  0  0  0  2  0  0  0  0  0  0
  -29.2890  -24.5480   20.9920 C   0  0  0  0  0  2  0  0  0  0  0  0
  -29.4760  -24.6570   18.4840 C   0  0  0  0  0  2  0  0  0  0  0  0
  -29.6340  -22.2890   19.6290 C   0  0  0  0  0  3  0  0  0  0  0  0
  -28.7200  -25.2200   19.7260 C   0  0  0  0  0  3  0  0  0  0  0  0
  -28.7630  -26.6840   19.8330 O   0  0  0  0  0  0  0  0  0  0  0  0
  -24.5980  -31.5960   22.9890 C   0  0  0  0  0  0  0  0  0  0  0  0
  -27.5690  -27.4020   19.8030 C   0  0  0  0  0  0  0  0  0  0  0  0
  -23.5210  -30.2090   21.2490 C   0  0  0  0  0  3  0  0  0  0  0  0
  -25.0990  -28.8200   19.7970 C   0  0  0  0  0  0  0  0  0  0  0  0
  -26.0320  -30.7050   21.1440 C   0  0  0  0  0  2  0  0  0  0  0  0
  -26.2140  -29.3660   20.4460 C   0  0  0  0  0  0  0  0  0  0  0  0
  -27.4500  -28.6670   20.4410 C   0  0  0  0  0  3  0  0  0  0  0  0
  -26.4350  -26.8940   19.1310 C   0  0  0  0  0  3  0  0  0  0  0  0
  -25.2090  -27.5880   19.1330 C   0  0  0  0  0  3  0  0  0  0  0  0
  -23.8080  -29.6100   19.8460 C   0  0  0  0  0  2  0  0  0  0  0  0
  -24.7340  -30.8520   21.8520 N   0  0  0  0  0  0  0  0  0  0  0  0
  -23.4870  -31.7800   23.5060 O   0  0  0  0  0  0  0  0  0  0  0  0
  -22.9030  -29.1100   22.1450 C   0  0  0  0  0  0  0  0  0  0  0  0
  -21.5850  -28.8860   22.0030 N   0  0  0  0  0  0  0  0  0  0  0  0
  -23.6060  -28.4630   22.9250 O   0  0  0  0  0  0  0  0  0  0  0  0
  -21.0760  -29.4630   21.3470 H   0  0  0  0  0  0  0  0  0  0  0  0
  -18.2510  -27.5700   22.4550 C   0  0  0  0  0  0  0  0  0  0  0  0
  -20.8050  -27.8710   22.7090 C   0  0  0  0  0  3  0  0  0  0  0  0
  -20.9320  -26.4910   22.0230 C   0  0  0  0  0  2  0  0  0  0  0  0
  -19.8230  -26.2180   21.0040 C   0  0  0  0  0  2  0  0  0  0  0  0
  -18.4480  -26.2820   21.6750 C   0  0  0  0  0  2  0  0  0  0  0  0
  -19.3560  -28.3250   22.9270 C   0  0  0  0  0  0  0  0  0  0  0  0
  -19.1170  -29.5340   23.6150 C   0  0  0  0  0  3  0  0  0  0  0  0
  -17.8030  -29.9870   23.8370 C   0  0  0  0  0  3  0  0  0  0  0  0
  -16.7120  -29.2280   23.3810 C   0  0  0  0  0  3  0  0  0  0  0  0
  -16.9350  -28.0210   22.6950 C   0  0  0  0  0  3  0  0  0  0  0  0
  -25.8260  -32.2730   23.6760 C   0  0  0  0  0  3  0  0  0  0  0  0
  -25.4340  -33.6420   24.0390 N   0  0  0  0  0  0  0  0  0  0  0  0
  -25.7480  -34.7360   23.3330 C   0  0  0  0  0  0  0  0  0  0  0  0
  -26.4670  -34.7030   22.3300 O   0  0  0  0  0  0  0  0  0  0  0  0
  -24.8010  -33.7400   24.8210 H   0  0  0  0  0  0  0  0  0  0  0  0
  -23.9550  -36.4600   22.9560 C   0  0  0  0  0  1  0  0  0  0  0  0
  -25.1730  -36.0830   23.8160 C   0  0  0  0  0  3  0  0  0  0  0  0
  -27.2110  -37.0370   24.7940 C   0  0  0  0  0  1  0  0  0  0  0  0
  -26.1590  -37.1850   23.7930 N   0  0  0  0  0  0  0  0  0  0  0  0
  -25.7030  -38.0800   23.9430 H   0  0  0  0  0  0  0  0  0  0  0  0
  -26.3400  -31.4870   24.9450 C   0  0  1  0  0  0  0  0  0  0  0  0
  -25.2250  -31.1460   25.9590 C   0  0  0  0  0  1  0  0  0  0  0  0
  -27.0200  -30.1620   24.5270 C   0  0  0  0  0  1  0  0  0  0  0  0
  -27.4170  -32.3210   25.6780 C   0  0  0  0  0  1  0  0  0  0  0  0
  -30.1440  -19.7290   19.2010 C   0  0  0  0  0  3  0  0  0  0  0  0
  -27.7930  -19.5670   20.3980 C   0  0  0  0  0  1  0  0  0  0  0  0
  -28.2170  -18.2410   18.2820 C   0  0  0  0  0  1  0  0  0  0  0  0
  -28.5950  -19.5020   19.0790 C   0  0  0  0  0  3  0  0  0  0  0  0
  -31.0780  -18.4030   21.3150 C   0  0  0  0  0  1  0  0  0  0  0  0
  -30.9770  -18.4790   19.7800 C   0  0  0  0  0  3  0  0  0  0  0  0
  -30.6970  -17.0590   19.1270 C   0  0  0  0  0  2  0  0  0  0  0  0
  -31.4860  -14.7090   19.7520 C   0  0  0  0  0  0  0  0  0  0  0  0
  -31.1690  -12.3800   18.9850 C   0  0  0  0  0  2  0  0  0  0  0  0
  -30.2040  -12.4200   17.7790 C   0  0  0  0  0  2  0  0  0  0  0  0
  -28.7370  -12.3720   18.2500 C   0  0  0  0  0  2  0  0  0  0  0  0
  -28.4410  -13.3830   19.3890 C   0  0  0  0  0  3  0  0  0  0  0  0
  -29.5180  -13.3100   20.4970 C   0  0  0  0  0  2  0  0  0  0  0  0
  -30.8320  -13.5150   19.8650 N   0  0  0  0  0  0  0  0  0  0  0  0
  -32.6140  -14.7960   19.2600 O   0  0  0  0  0  0  0  0  0  0  0  0
  -30.7240  -15.8160   19.9650 N   0  0  0  0  0  0  0  0  0  0  0  0
  -29.8650  -15.6180   20.4570 H   0  0  0  0  0  0  0  0  0  0  0  0
  -26.1330  -14.1680   20.2100 C   0  0  0  0  0  0  0  0  0  0  0  0
  -25.0260  -13.4790   20.6260 C   0  0  0  0  0  0  0  0  0  0  0  0
  -25.3780  -12.0960   20.5710 C   0  0  0  0  0  0  0  0  0  0  0  0
  -27.0950  -13.2100   19.9290 N   0  0  0  0  0  0  0  0  0  0  0  0
  -26.6460  -11.9580   20.2040 N   0  0  0  0  0  0  0  0  0  0  0  0
  -24.5640  -10.8940   20.7910 C   0  0  0  0  0  0  0  0  0  0  0  0
  -24.9220   -9.9260   21.7540 C   0  0  0  0  0  3  0  0  0  0  0  0
  -24.1140   -8.7880   21.9600 C   0  0  0  0  0  3  0  0  0  0  0  0
  -22.9320   -8.6100   21.2030 C   0  0  0  0  0  0  0  0  0  0  0  0
  -22.5920   -9.5650   20.2290 C   0  0  0  0  0  3  0  0  0  0  0  0
  -23.4000  -10.6940   20.0210 C   0  0  0  0  0  3  0  0  0  0  0  0
  -22.1000   -7.5220   21.3150 O   0  0  0  0  0  0  0  0  0  0  0  0
  -21.9190   -6.8750   22.5120 C   0  0  0  0  0  0  0  0  0  0  0  0
  -21.4100   -7.5400   23.6470 C   0  0  0  0  0  3  0  0  0  0  0  0
  -21.1730   -6.8230   24.8370 C   0  0  0  0  0  3  0  0  0  0  0  0
  -21.4360   -5.4410   24.8890 C   0  0  0  0  0  0  0  0  0  0  0  0
  -21.9380   -4.7750   23.7580 C   0  0  0  0  0  3  0  0  0  0  0  0
  -22.1750   -5.4900   22.5710 C   0  0  0  0  0  0  0  0  0  0  0  0
  -22.6390   -4.8410   21.4760 F   0  0  0  0  0  0  0  0  0  0  0  0
  -21.2020   -4.7480   26.0280 F   0  0  0  0  0  0  0  0  0  0  0  0
  -23.6850  -14.0640   20.9650 C   0  0  0  0  0  0  0  0  0  0  0  0
  -22.9630  -13.4460   21.8930 N   0  0  0  0  0  0  0  0  0  0  0  0
  -23.2890  -15.1030   20.4390 O   0  0  0  0  0  0  0  0  0  0  0  0
  -23.2970  -12.6030   22.3380 H   0  0  0  0  0  0  0  0  0  0  0  0
  -22.0640  -13.8200   22.1620 H   0  0  0  0  0  0  0  0  0  0  0  0
  -26.3970  -15.5220   20.0280 N   0  0  0  0  0  0  0  0  0  0  0  0
  -25.6930  -16.2340   20.1830 H   0  0  0  0  0  0  0  0  0  0  0  0
  -27.2600  -15.8920   19.6510 H   0  0  0  0  0  0  0  0  0  0  0  0
  1  2  1  0
  3  1  1  0
  4  6  1  0
  5  8  1  0
  7  5  1  0
  7  9  1  0
  8  1  1  0
  8  4  1  0
  9 10  1  0
  9  6  1  0
 11 22  2  0
 12 10  1  0
 12 17  1  0
 13 21  1  0
 13 23  1  0
 14 20  1  0
 14 16  1  0
 15 21  1  0
 16 15  1  0
 17 16  2  0
 18 19  1  0
 18 12  2  0
 19 14  2  0
 20 13  1  0
 21 11  1  0
 23 25  2  0
 24 23  1  0
 26 24  1  0
 27 36  2  0
 27 32  1  0
 28 24  1  0
 28 32  1  0
 29 28  1  0
 30 31  1  0
 30 29  1  0
 31 27  1  0
 32 33  2  0
 33 34  1  0
 35 34  2  0
 36 35  1  0
 37 11  1  0
 37 38  1  0
 37 47  1  0
 38 41  1  0
 39 43  1  0
 39 38  1  0
 40 39  2  0
 43 42  1  0
 45 43  1  0
 45 46  1  0
 45 44  1  0
 47 50  1  1
 47 48  1  0
 49 47  1  0
 51 54  1  0
 51 56  1  0
 51  1  1  0
 53 54  1  0
 54 52  1  0
 56 55  1  0
 57 56  1  0
 57 66  1  0
 58 64  1  0
 58 66  1  0
 59 64  1  0
 60 61  1  0
 60 59  1  0
 62 61  1  0
 62 71  1  0
 62 63  1  0
 64 63  1  0
 65 58  2  0
 66 67  1  0
 68 69  2  0
 69 88  1  0
 70 69  1  0
 70 73  1  0
 71 72  1  0
 71 68  1  0
 72 70  2  0
 73 74  1  0
 74 75  2  0
 76 79  1  0
 76 75  1  0
 77 76  2  0
 78 77  1  0
 78 73  2  0
 79 80  1  0
 80 85  2  0
 80 81  1  0
 81 82  2  0
 82 83  1  0
 83 87  1  0
 84 83  2  0
 85 84  1  0
 86 85  1  0
 88 89  1  0
 89 92  1  0
 89 91  1  0
 90 88  2  0
 93 94  1  0
 93 68  1  0
 95 93  1  0
M  ISO  4   9 101  10 101  58 100  66 100
M  END
>  <TORSDO>  (56) 
F 21

>  <SCORE>  (56) 
-12.152

>  <name>  (56) 
55

>  <ligand_id>  (56) 
55

>  <original_smiles>  (56) 
[H]c1c([H])c([H])c2c(c1[H])C([H])([H])C([H])([H])C([H])([H])C2([H])N([H])C(=O)C1([H])N(C(=O)C([H])(N([H])C(=O)C([H])(N([H])C([H])([H])[H])C([H])([H])[H])C(C([H])([H])[H])(C([H])([H])[H])C([H])([H])[H])C([H])([H])c2c([H])c(OC3([H])C([H])([H])C([H])([H])C([H])([N+]([H])([H])C([H])(C([H])(C([H])([H])[H])C([H])([H])[H])C([H])(C([H])([H])[H])C([H])([H])N([H])C(=O)N4C([H])([H])C([H])([H])C([H])([H])C([H])(n5nc(-c6c([H])c([H])c(Oc7c([H])c([H])c(F)c([H])c7F)c([H])c6[H])c(C(=O)N([H])[H])c5N([H])[H])C4([H])[H])C([H])([H])C3([H])[H])c([H])c([H])c2C1([H])[H]

>  <smiles>  (56) 
[H]c1c([H])c([H])c2c(c1[H])C([H])([H])C([H])([H])C([H])([H])C2([H])N([H])C(=O)C1([H])N(C(=O)C([H])(N([H])C(=O)C([H])(N([H])C([H])([H])[H])C([H])([H])[H])C(C([H])([H])[H])(C([H])([H])[H])C([H])([H])[H])C([H])([H])c2c([H])c(OC3([H])C([H])([H])C([H])([H])C([H])([N+]([H])([H])C([H])(C([H])(C([H])([H])[H])C([H])([H])[H])C([H])(C([H])([H])[H])C([H])([H])N([H])C(=O)N4C([H])([H])C([H])([H])C([H])([H])C([H])(n5nc(-c6c([H])c([H])c(Oc7c([H])c([H])c(F)c([H])c7F)c([H])c6[H])c(C(=O)N([H])[H])c5N([H])[H])C4([H])[H])C([H])([H])C3([H])[H])c([H])c([H])c2C1([H])[H]

$$$$
56:0:0
     RDKit          3D

 93100  0  0  1  0  0  0  0  0999 V2000
  -28.7240  -21.1380   19.9570 N   0  0  0  0  0  4  0  0  0  0  0  0
  -28.8130  -21.1490   18.9570 H   0  0  0  0  0  0  0  0  0  0  0  0
  -27.7380  -20.9940   20.1090 H   0  0  0  0  0  0  0  0  0  0  0  0
  -28.9640  -22.7330   20.4020 C   0  0  0  0  0  2  0  0  0  0  0  0
  -26.7310  -23.8670   21.1050 C   0  0  0  0  0  1  0  0  0  0  0  0
  -27.9150  -24.1840   20.1720 C   0  0  0  0  0  3  0  0  0  0  0  0
  -28.1540  -25.8250   20.3280 O   0  0  0  0  0  0  0  0  0  0  0  0
  -24.6400  -31.8640   23.2330 C   0  0  0  0  0  0  0  0  0  0  0  0
  -27.1630  -26.9420   20.2350 C   0  0  0  0  0  0  0  0  0  0  0  0
  -23.4390  -30.4590   21.6070 C   0  0  0  0  0  3  0  0  0  0  0  0
  -24.8770  -28.8440   20.1870 C   0  0  0  0  0  0  0  0  0  0  0  0
  -26.0060  -30.6550   21.4590 C   0  0  0  0  0  2  0  0  0  0  0  0
  -26.0690  -29.2410   20.8070 C   0  0  0  0  0  0  0  0  0  0  0  0
  -27.2040  -28.3100   20.8110 C   0  0  0  0  0  3  0  0  0  0  0  0
  -25.9540  -26.7180   19.5390 C   0  0  0  0  0  3  0  0  0  0  0  0
  -24.8460  -27.6030   19.5330 C   0  0  0  0  0  3  0  0  0  0  0  0
  -23.6620  -29.7670   20.2350 C   0  0  0  0  0  2  0  0  0  0  0  0
  -24.7180  -31.0190   22.1510 N   0  0  0  0  0  0  0  0  0  0  0  0
  -23.5530  -32.1620   23.7510 O   0  0  0  0  0  0  0  0  0  0  0  0
  -22.7420  -29.4720   22.5810 C   0  0  0  0  0  0  0  0  0  0  0  0
  -21.4110  -29.3130   22.4590 N   0  0  0  0  0  0  0  0  0  0  0  0
  -23.4050  -28.8510   23.4160 O   0  0  0  0  0  0  0  0  0  0  0  0
  -20.9300  -29.8650   21.7630 H   0  0  0  0  0  0  0  0  0  0  0  0
  -18.0230  -28.1220   22.9730 C   0  0  0  0  0  0  0  0  0  0  0  0
  -20.5830  -28.3870   23.2400 C   0  0  0  0  0  3  0  0  0  0  0  0
  -20.6830  -26.9480   22.6810 C   0  0  0  0  0  2  0  0  0  0  0  0
  -19.5820  -26.6160   21.6670 C   0  0  0  0  0  2  0  0  0  0  0  0
  -18.2000  -26.7670   22.3080 C   0  0  0  0  0  2  0  0  0  0  0  0
  -19.1410  -28.8900   23.3950 C   0  0  0  0  0  0  0  0  0  0  0  0
  -18.9190  -30.1550   23.9810 C   0  0  0  0  0  3  0  0  0  0  0  0
  -17.6120  -30.6530   24.1470 C   0  0  0  0  0  3  0  0  0  0  0  0
  -16.5100  -29.8830   23.7390 C   0  0  0  0  0  3  0  0  0  0  0  0
  -16.7160  -28.6190   23.1580 C   0  0  0  0  0  3  0  0  0  0  0  0
  -25.9140  -32.5050   23.8590 C   0  0  0  0  0  3  0  0  0  0  0  0
  -25.6010  -33.9080   24.1830 N   0  0  0  0  0  0  0  0  0  0  0  0
  -25.9370  -34.9650   23.4300 C   0  0  0  0  0  0  0  0  0  0  0  0
  -26.6030  -34.8610   22.3980 O   0  0  0  0  0  0  0  0  0  0  0  0
  -25.0010  -34.0610   24.9810 H   0  0  0  0  0  0  0  0  0  0  0  0
  -24.2120  -36.7690   23.0970 C   0  0  0  0  0  1  0  0  0  0  0  0
  -25.4590  -36.3560   23.8940 C   0  0  0  0  0  3  0  0  0  0  0  0
  -27.6030  -37.2370   24.7070 C   0  0  0  0  0  1  0  0  0  0  0  0
  -26.4950  -37.4060   23.7730 N   0  0  0  0  0  0  0  0  0  0  0  0
  -26.0920  -38.3290   23.9230 H   0  0  0  0  0  0  0  0  0  0  0  0
  -26.4160  -31.7500   25.1530 C   0  0  1  0  0  0  0  0  0  0  0  0
  -25.3110  -31.5390   26.2150 C   0  0  0  0  0  1  0  0  0  0  0  0
  -26.9910  -30.3610   24.7930 C   0  0  0  0  0  1  0  0  0  0  0  0
  -27.5670  -32.5460   25.8090 C   0  0  0  0  0  1  0  0  0  0  0  0
  -29.3950  -19.7010   20.5110 C   0  0  0  0  0  2  0  0  0  0  0  0
  -28.1980  -17.9420   18.9460 C   0  0  0  0  0  1  0  0  0  0  0  0
  -29.5300  -18.0750   19.7110 C   0  0  2  0  0  0  0  0  0  0  0  0
  -30.4310  -15.2720   20.1770 C   0  0  0  0  0  0  0  0  0  0  0  0
  -30.3840  -12.8240   19.3320 C   0  0  0  0  0  2  0  0  0  0  0  0
  -29.4570  -12.6630   18.1000 C   0  0  0  0  0  2  0  0  0  0  0  0
  -28.0080  -12.3990   18.5460 C   0  0  0  0  0  2  0  0  0  0  0  0
  -27.5790  -13.3410   19.7000 C   0  0  0  0  0  3  0  0  0  0  0  0
  -28.6410  -13.4680   20.8170 C   0  0  0  0  0  2  0  0  0  0  0  0
  -29.8730  -13.9610   20.1850 N   0  0  0  0  0  0  0  0  0  0  0  0
  -31.6160  -15.2840   19.8200 O   0  0  0  0  0  0  0  0  0  0  0  0
  -29.6760  -16.5350   20.3710 N   0  0  0  0  0  0  0  0  0  0  0  0
  -28.8270  -16.3110   20.8700 H   0  0  0  0  0  0  0  0  0  0  0  0
  -25.2080  -13.8900   20.4670 C   0  0  0  0  0  0  0  0  0  0  0  0
  -24.1510  -13.1110   20.8470 C   0  0  0  0  0  0  0  0  0  0  0  0
  -24.6220  -11.7630   20.8140 C   0  0  0  0  0  0  0  0  0  0  0  0
  -26.2530  -13.0180   20.2180 N   0  0  0  0  0  0  0  0  0  0  0  0
  -25.9130  -11.7320   20.4940 N   0  0  0  0  0  0  0  0  0  0  0  0
  -23.9000  -10.4970   21.0130 C   0  0  0  0  0  0  0  0  0  0  0  0
  -24.3410   -9.5320   21.9440 C   0  0  0  0  0  3  0  0  0  0  0  0
  -23.6160   -8.3350   22.1340 C   0  0  0  0  0  3  0  0  0  0  0  0
  -22.4370   -8.0930   21.3900 C   0  0  0  0  0  0  0  0  0  0  0  0
  -22.0130   -9.0480   20.4510 C   0  0  0  0  0  3  0  0  0  0  0  0
  -22.7390  -10.2360   20.2590 C   0  0  0  0  0  3  0  0  0  0  0  0
  -21.6830   -6.9480   21.4870 O   0  0  0  0  0  0  0  0  0  0  0  0
  -21.6460   -6.2070   22.6420 C   0  0  0  0  0  0  0  0  0  0  0  0
  -21.2330   -6.7630   23.8720 C   0  0  0  0  0  3  0  0  0  0  0  0
  -21.1440   -5.9470   25.0180 C   0  0  0  0  0  3  0  0  0  0  0  0
  -21.4600   -4.5770   24.9340 C   0  0  0  0  0  0  0  0  0  0  0  0
  -21.8660   -4.0220   23.7080 C   0  0  0  0  0  3  0  0  0  0  0  0
  -21.9550   -4.8340   22.5650 C   0  0  0  0  0  0  0  0  0  0  0  0
  -22.3260   -4.2880   21.3810 F   0  0  0  0  0  0  0  0  0  0  0  0
  -21.3660   -3.7920   26.0340 F   0  0  0  0  0  0  0  0  0  0  0  0
  -22.7540  -13.5860   21.1230 C   0  0  0  0  0  0  0  0  0  0  0  0
  -22.0320  -12.8910   21.9940 N   0  0  0  0  0  0  0  0  0  0  0  0
  -22.3110  -14.6080   20.5970 O   0  0  0  0  0  0  0  0  0  0  0  0
  -22.4050  -12.0670   22.4430 H   0  0  0  0  0  0  0  0  0  0  0  0
  -21.0950  -13.1920   22.2240 H   0  0  0  0  0  0  0  0  0  0  0  0
  -25.3660  -15.2600   20.2800 N   0  0  0  0  0  0  0  0  0  0  0  0
  -24.6000  -15.9140   20.4000 H   0  0  0  0  0  0  0  0  0  0  0  0
  -26.1960  -15.6900   19.8950 H   0  0  0  0  0  0  0  0  0  0  0  0
  -30.7120  -18.1110   18.6830 C   0  0  0  0  0  2  0  0  0  0  0  0
  -30.6460  -19.1560   17.6410 N   0  0  0  0  0  4  0  0  0  0  0  0
  -29.7860  -19.1010   17.1230 H   0  0  0  0  0  0  0  0  0  0  0  0
  -31.3800  -18.9860   16.9780 H   0  0  0  0  0  0  0  0  0  0  0  0
  -30.7930  -20.0810   17.9970 H   0  0  0  0  0  0  0  0  0  0  0  0
  1  3  1  0
  1  4  1  0
  1 48  1  0
  2  1  1  0
  6  7  1  0
  6  4  1  0
  6  5  1  0
  8 19  2  0
  9  7  1  0
  9 14  1  0
 10 18  1  0
 10 20  1  0
 11 17  1  0
 11 13  1  0
 12 18  1  0
 13 14  2  0
 13 12  1  0
 15  9  2  0
 16 15  1  0
 16 11  2  0
 17 10  1  0
 18  8  1  0
 20 22  2  0
 21 20  1  0
 23 21  1  0
 24 33  2  0
 24 29  1  0
 25 21  1  0
 25 29  1  0
 26 25  1  0
 27 28  1  0
 27 26  1  0
 28 24  1  0
 29 30  2  0
 30 31  1  0
 32 31  2  0
 33 32  1  0
 34  8  1  0
 34 35  1  0
 34 44  1  0
 35 38  1  0
 36 40  1  0
 36 35  1  0
 37 36  2  0
 40 39  1  0
 42 40  1  0
 42 43  1  0
 42 41  1  0
 44 47  1  1
 44 45  1  0
 46 44  1  0
 50 49  1  6
 50 59  1  0
 50 48  1  0
 51 57  1  0
 51 59  1  0
 52 57  1  0
 53 54  1  0
 53 52  1  0
 55 54  1  0
 55 64  1  0
 55 56  1  0
 57 56  1  0
 58 51  2  0
 59 60  1  0
 61 62  2  0
 62 81  1  0
 63 62  1  0
 63 66  1  0
 64 61  1  0
 64 65  1  0
 65 63  2  0
 66 67  1  0
 67 68  2  0
 69 72  1  0
 69 68  1  0
 70 69  2  0
 71 70  1  0
 71 66  2  0
 72 73  1  0
 73 74  1  0
 74 75  2  0
 76 75  1  0
 76 80  1  0
 77 76  2  0
 78 73  2  0
 78 77  1  0
 79 78  1  0
 81 82  1  0
 82 85  1  0
 82 84  1  0
 83 81  2  0
 86 87  1  0
 86 61  1  0
 88 86  1  0
 89 50  1  0
 90 93  1  0
 90 89  1  0
 91 90  1  0
 92 90  1  0
M  ISO  4   6 101   7 101  51 100  59 100
M  END
>  <TORSDO>  (57) 
F 22

>  <SCORE>  (57) 
-15.968

>  <name>  (57) 
56

>  <ligand_id>  (57) 
56

>  <original_smiles>  (57) 
[H]c1c([H])c([H])c2c(c1[H])C([H])([H])C([H])([H])C([H])([H])C2([H])N([H])C(=O)C1([H])N(C(=O)C([H])(N([H])C(=O)C([H])(N([H])C([H])([H])[H])C([H])([H])[H])C(C([H])([H])[H])(C([H])([H])[H])C([H])([H])[H])C([H])([H])c2c([H])c(OC([H])(C([H])([H])[H])C([H])([H])[N+]([H])([H])C([H])([H])C(N([H])C(=O)N3C([H])([H])C([H])([H])C([H])([H])C([H])(n4nc(-c5c([H])c([H])c(Oc6c([H])c([H])c(F)c([H])c6F)c([H])c5[H])c(C(=O)N([H])[H])c4N([H])[H])C3([H])[H])(C([H])([H])[H])C([H])([H])[N+]([H])([H])[H])c([H])c([H])c2C1([H])[H]

>  <smiles>  (57) 
[H]c1c([H])c([H])c2c(c1[H])C([H])([H])C([H])([H])C([H])([H])C2([H])N([H])C(=O)C1([H])N(C(=O)C([H])(N([H])C(=O)C([H])(N([H])C([H])([H])[H])C([H])([H])[H])C(C([H])([H])[H])(C([H])([H])[H])C([H])([H])[H])C([H])([H])c2c([H])c(OC([H])(C([H])([H])[H])C([H])([H])[N+]([H])([H])C([H])([H])C(N([H])C(=O)N3C([H])([H])C([H])([H])C([H])([H])C([H])(n4nc(-c5c([H])c([H])c(Oc6c([H])c([H])c(F)c([H])c6F)c([H])c5[H])c(C(=O)N([H])[H])c4N([H])[H])C3([H])[H])(C([H])([H])[H])C([H])([H])[N+]([H])([H])[H])c([H])c([H])c2C1([H])[H]

$$$$
57:0:0
     RDKit          3D

 89 97  0  0  1  0  0  0  0  0999 V2000
  -30.5500  -14.8860   20.4240 C   0  0  0  0  0  0  0  0  0  0  0  0
  -30.4390  -12.5470   19.4710 C   0  0  0  0  0  2  0  0  0  0  0  0
  -29.5260  -12.5550   18.2220 C   0  0  0  0  0  2  0  0  0  0  0  0
  -28.0440  -12.3830   18.6160 C   0  0  0  0  0  2  0  0  0  0  0  0
  -27.6350  -13.3020   19.7960 C   0  0  0  0  0  3  0  0  0  0  0  0
  -28.6650  -13.2460   20.9450 C   0  0  0  0  0  2  0  0  0  0  0  0
  -29.9690  -13.6250   20.3780 N   0  0  0  0  0  0  0  0  0  0  0  0
  -31.7540  -14.9850   20.1580 O   0  0  0  0  0  0  0  0  0  0  0  0
  -28.4200  -18.1390   20.2600 C   0  0  0  0  0  3  0  0  0  0  0  0
  -30.5090  -19.7790   20.7110 C   0  0  0  0  0  3  0  0  0  0  0  0
  -28.2060  -19.5660   20.2830 C   0  0  0  0  0  0  0  0  0  0  0  0
  -29.2660  -20.4870   20.5470 C   0  0  0  0  0  0  0  0  0  0  0  0
  -29.6810  -17.5020   20.4800 C   0  0  0  0  0  0  0  0  0  0  0  0
  -26.7920  -20.0820   20.0950 C   0  0  0  0  0  1  0  0  0  0  0  0
  -30.7070  -18.3970   20.6720 N   0  0  0  0  0  0  0  0  0  0  0  0
  -29.6790  -15.9860   20.5550 N   0  0  0  0  0  0  0  0  0  0  0  0
  -28.7450  -15.6340   20.6810 H   0  0  0  0  0  0  0  0  0  0  0  0
  -25.2410  -13.9360   20.4560 C   0  0  0  0  0  0  0  0  0  0  0  0
  -24.1550  -13.1830   20.8080 C   0  0  0  0  0  0  0  0  0  0  0  0
  -24.5990  -11.8250   20.8080 C   0  0  0  0  0  0  0  0  0  0  0  0
  -26.2770  -13.0380   20.2560 N   0  0  0  0  0  0  0  0  0  0  0  0
  -25.8970  -11.7640   20.5330 N   0  0  0  0  0  0  0  0  0  0  0  0
  -23.8480  -10.5760   20.9930 C   0  0  0  0  0  0  0  0  0  0  0  0
  -24.2620   -9.5970   21.9230 C   0  0  0  0  0  3  0  0  0  0  0  0
  -23.5110   -8.4140   22.0960 C   0  0  0  0  0  3  0  0  0  0  0  0
  -22.3340   -8.2020   21.3400 C   0  0  0  0  0  0  0  0  0  0  0  0
  -21.9400   -9.1700   20.4000 C   0  0  0  0  0  3  0  0  0  0  0  0
  -22.6910  -10.3440   20.2230 C   0  0  0  0  0  3  0  0  0  0  0  0
  -21.5560   -7.0720   21.4240 O   0  0  0  0  0  0  0  0  0  0  0  0
  -21.5180   -6.3080   22.5630 C   0  0  0  0  0  0  0  0  0  0  0  0
  -21.1620   -6.8560   23.8150 C   0  0  0  0  0  3  0  0  0  0  0  0
  -21.0670   -6.0220   24.9480 C   0  0  0  0  0  3  0  0  0  0  0  0
  -21.3160   -4.6420   24.8290 C   0  0  0  0  0  0  0  0  0  0  0  0
  -21.6650   -4.0940   23.5810 C   0  0  0  0  0  3  0  0  0  0  0  0
  -21.7620   -4.9250   22.4520 C   0  0  0  0  0  0  0  0  0  0  0  0
  -22.0780   -4.3890   21.2480 F   0  0  0  0  0  0  0  0  0  0  0  0
  -21.2170   -3.8390   25.9130 F   0  0  0  0  0  0  0  0  0  0  0  0
  -22.7580  -13.6850   21.0310 C   0  0  0  0  0  0  0  0  0  0  0  0
  -21.9970  -13.0170   21.8910 N   0  0  0  0  0  0  0  0  0  0  0  0
  -22.3500  -14.7050   20.4770 O   0  0  0  0  0  0  0  0  0  0  0  0
  -22.3380  -12.1920   22.3610 H   0  0  0  0  0  0  0  0  0  0  0  0
  -21.0580  -13.3380   22.0830 H   0  0  0  0  0  0  0  0  0  0  0  0
  -25.4270  -15.3010   20.2610 N   0  0  0  0  0  0  0  0  0  0  0  0
  -24.6550  -15.9550   20.3270 H   0  0  0  0  0  0  0  0  0  0  0  0
  -26.2530  -15.7090   19.8460 H   0  0  0  0  0  0  0  0  0  0  0  0
  -29.0130  -22.0630   20.9470 C   0  0  0  0  0  2  0  0  0  0  0  0
  -28.9050  -23.4310   20.0090 C   0  0  0  0  0  3  0  0  0  0  0  0
  -28.2720  -24.8490   20.6220 C   0  0  0  0  0  3  0  0  0  0  0  0
  -28.4200  -26.2840   20.0890 O   0  0  0  0  0  0  0  0  0  0  0  0
  -24.6970  -31.8440   23.1300 C   0  0  0  0  0  0  0  0  0  0  0  0
  -27.3220  -27.2000   20.0970 C   0  0  0  0  0  0  0  0  0  0  0  0
  -23.4990  -30.4260   21.5040 C   0  0  0  0  0  3  0  0  0  0  0  0
  -24.9560  -28.8650   20.0790 C   0  0  0  0  0  0  0  0  0  0  0  0
  -26.0420  -30.7420   21.3080 C   0  0  0  0  0  2  0  0  0  0  0  0
  -26.1320  -29.3500   20.6690 C   0  0  0  0  0  0  0  0  0  0  0  0
  -27.3180  -28.5330   20.6560 C   0  0  0  0  0  3  0  0  0  0  0  0
  -26.1210  -26.7970   19.4780 C   0  0  0  0  0  3  0  0  0  0  0  0
  -24.9610  -27.6010   19.4690 C   0  0  0  0  0  3  0  0  0  0  0  0
  -23.7160  -29.7410   20.1280 C   0  0  0  0  0  2  0  0  0  0  0  0
  -24.7660  -31.0250   22.0360 N   0  0  0  0  0  0  0  0  0  0  0  0
  -23.6130  -32.1140   23.6680 O   0  0  0  0  0  0  0  0  0  0  0  0
  -22.8450  -29.4130   22.4760 C   0  0  0  0  0  0  0  0  0  0  0  0
  -21.5150  -29.2400   22.3740 N   0  0  0  0  0  0  0  0  0  0  0  0
  -23.5350  -28.7850   23.2830 O   0  0  0  0  0  0  0  0  0  0  0  0
  -21.0150  -29.7990   21.6970 H   0  0  0  0  0  0  0  0  0  0  0  0
  -18.1470  -28.0350   22.9330 C   0  0  0  0  0  0  0  0  0  0  0  0
  -20.7090  -28.2990   23.1570 C   0  0  0  0  0  3  0  0  0  0  0  0
  -20.8010  -26.8680   22.5740 C   0  0  0  0  0  2  0  0  0  0  0  0
  -19.6810  -26.5490   21.5780 C   0  0  0  0  0  2  0  0  0  0  0  0
  -18.3110  -26.6900   22.2480 C   0  0  0  0  0  2  0  0  0  0  0  0
  -19.2720  -28.7980   23.3460 C   0  0  0  0  0  0  0  0  0  0  0  0
  -19.0610  -30.0570   23.9490 C   0  0  0  0  0  3  0  0  0  0  0  0
  -17.7600  -30.5540   24.1430 C   0  0  0  0  0  3  0  0  0  0  0  0
  -16.6480  -29.7890   23.7450 C   0  0  0  0  0  3  0  0  0  0  0  0
  -16.8440  -28.5320   23.1470 C   0  0  0  0  0  3  0  0  0  0  0  0
  -25.9740  -32.4950   23.7440 C   0  0  0  0  0  3  0  0  0  0  0  0
  -25.6350  -33.8760   24.1170 N   0  0  0  0  0  0  0  0  0  0  0  0
  -25.9240  -34.9580   23.3830 C   0  0  0  0  0  0  0  0  0  0  0  0
  -26.5700  -34.8990   22.3330 O   0  0  0  0  0  0  0  0  0  0  0  0
  -25.0560  -33.9940   24.9360 H   0  0  0  0  0  0  0  0  0  0  0  0
  -24.1410  -36.7160   23.1270 C   0  0  0  0  0  1  0  0  0  0  0  0
  -25.4170  -36.3220   23.8900 C   0  0  0  0  0  3  0  0  0  0  0  0
  -27.5560  -37.2400   24.6720 C   0  0  0  0  0  1  0  0  0  0  0  0
  -26.4180  -37.4050   23.7730 N   0  0  0  0  0  0  0  0  0  0  0  0
  -25.9950  -38.3100   23.9580 H   0  0  0  0  0  0  0  0  0  0  0  0
  -26.5310  -31.7080   24.9930 C   0  0  1  0  0  0  0  0  0  0  0  0
  -25.4660  -31.4270   26.0800 C   0  0  0  0  0  1  0  0  0  0  0  0
  -27.1320  -30.3490   24.5620 C   0  0  0  0  0  1  0  0  0  0  0  0
  -27.6800  -32.5100   25.6470 C   0  0  0  0  0  1  0  0  0  0  0  0
  1 16  1  0
  2  7  1  0
  3  4  1  0
  3  2  1  0
  5  4  1  0
  5 21  1  0
  5  6  1  0
  7  1  1  0
  7  6  1  0
  8  1  2  0
  9 11  2  0
  9 13  1  0
 11 12  1  0
 12 10  2  0
 12 46  1  0
 13 16  1  0
 13 15  2  0
 14 11  1  0
 15 10  1  0
 16 17  1  0
 18 19  2  0
 19 38  1  0
 20 19  1  0
 20 23  1  0
 21 18  1  0
 21 22  1  0
 22 20  2  0
 23 24  1  0
 24 25  2  0
 26 29  1  0
 26 25  1  0
 27 26  2  0
 28 27  1  0
 28 23  2  0
 29 30  1  0
 30 31  1  0
 31 32  2  0
 33 32  1  0
 33 37  1  0
 34 33  2  0
 35 30  2  0
 35 34  1  0
 36 35  1  0
 38 39  1  0
 39 42  1  0
 39 41  1  0
 40 38  2  0
 43 44  1  0
 43 18  1  0
 45 43  1  0
 47 48  2  0
 47 46  1  0
 49 51  1  0
 49 48  1  0
 50 61  2  0
 51 56  1  0
 52 60  1  0
 52 62  1  0
 53 59  1  0
 53 55  1  0
 54 60  1  0
 55 54  1  0
 56 55  2  0
 57 51  2  0
 58 57  1  0
 58 53  2  0
 59 52  1  0
 60 50  1  0
 62 64  2  0
 63 62  1  0
 65 63  1  0
 66 75  2  0
 66 71  1  0
 67 63  1  0
 67 71  1  0
 68 67  1  0
 69 70  1  0
 69 68  1  0
 70 66  1  0
 71 72  2  0
 72 73  1  0
 74 73  2  0
 75 74  1  0
 76 50  1  0
 76 77  1  0
 76 86  1  0
 77 80  1  0
 78 82  1  0
 78 77  1  0
 79 78  2  0
 82 81  1  0
 84 82  1  0
 84 85  1  0
 84 83  1  0
 86 89  1  1
 86 87  1  0
 88 86  1  0
M  ISO  4   1 100  16 100  48 101  49 101
M  END
>  <TORSDO>  (58) 
F 18

>  <SCORE>  (58) 
-13.686

>  <name>  (58) 
57

>  <ligand_id>  (58) 
57

>  <original_smiles>  (58) 
[H]c1nc(N([H])C(=O)N2C([H])([H])C([H])([H])C([H])([H])C([H])(n3nc(-c4c([H])c([H])c(Oc5c([H])c([H])c(F)c([H])c5F)c([H])c4[H])c(C(=O)N([H])[H])c3N([H])[H])C2([H])[H])c([H])c(C([H])([H])[H])c1C([H])([H])C([H])([H])C([H])([H])Oc1c([H])c([H])c2c(c1[H])C([H])([H])N(C(=O)C([H])(N([H])C(=O)C([H])(N([H])C([H])([H])[H])C([H])([H])[H])C(C([H])([H])[H])(C([H])([H])[H])C([H])([H])[H])C([H])(C(=O)N([H])C1([H])c3c([H])c([H])c([H])c([H])c3C([H])([H])C([H])([H])C1([H])[H])C2([H])[H]

>  <smiles>  (58) 
[H]c1nc(N([H])C(=O)N2C([H])([H])C([H])([H])C([H])([H])C([H])(n3nc(-c4c([H])c([H])c(Oc5c([H])c([H])c(F)c([H])c5F)c([H])c4[H])c(C(=O)N([H])[H])c3N([H])[H])C2([H])[H])c([H])c(C([H])([H])[H])c1C([H])([H])C([H])([H])C([H])([H])Oc1c([H])c([H])c2c(c1[H])C([H])([H])N(C(=O)C([H])(N([H])C(=O)C([H])(N([H])C([H])([H])[H])C([H])([H])[H])C(C([H])([H])[H])(C([H])([H])[H])C([H])([H])[H])C([H])(C(=O)N([H])C1([H])c3c([H])c([H])c([H])c([H])c3C([H])([H])C([H])([H])C1([H])[H])C2([H])[H]

$$$$
58:0:0
     RDKit          3D

 91 99  0  0  1  0  0  0  0  0999 V2000
  -29.2490  -20.4750   20.7750 C   0  0  0  0  0  3  0  0  0  0  0  0
  -29.8520  -19.3560   20.1230 C   0  0  0  0  0  0  0  0  0  0  0  0
  -30.2900  -19.9920   18.8930 C   0  0  0  0  0  0  0  0  0  0  0  0
  -29.9740  -21.3630   18.9100 C   0  0  0  0  0  0  0  0  0  0  0  0
  -30.3790  -22.4150   17.9190 C   0  0  0  0  0  1  0  0  0  0  0  0
  -29.3000  -21.7580   20.0840 N   0  0  0  0  0  0  0  0  0  0  0  0
  -31.1480  -19.3080   17.8120 C   0  0  0  0  0  2  0  0  0  0  0  0
  -31.2430  -18.2270   15.4420 C   0  0  0  0  0  1  0  0  0  0  0  0
  -30.3710  -18.6360   16.6530 C   0  0  0  0  0  2  0  0  0  0  0  0
  -30.2730  -17.8300   20.7120 C   0  0  0  0  0  2  0  0  0  0  0  0
  -30.5980  -15.1120   20.3030 C   0  0  0  0  0  0  0  0  0  0  0  0
  -30.4650  -12.7600   19.3570 C   0  0  0  0  0  2  0  0  0  0  0  0
  -29.5190  -12.7050   18.1340 C   0  0  0  0  0  2  0  0  0  0  0  0
  -28.0570  -12.4860   18.5680 C   0  0  0  0  0  2  0  0  0  0  0  0
  -27.6540  -13.3840   19.7660 C   0  0  0  0  0  3  0  0  0  0  0  0
  -28.7280  -13.4170   20.8740 C   0  0  0  0  0  2  0  0  0  0  0  0
  -29.9800  -13.8530   20.2410 N   0  0  0  0  0  0  0  0  0  0  0  0
  -31.8160  -15.1330   20.1150 O   0  0  0  0  0  0  0  0  0  0  0  0
  -29.8570  -16.3380   20.3560 N   0  0  0  0  0  0  0  0  0  0  0  0
  -28.8630  -16.1920   20.3650 H   0  0  0  0  0  0  0  0  0  0  0  0
  -25.2700  -13.9370   20.4990 C   0  0  0  0  0  0  0  0  0  0  0  0
  -24.2080  -13.1490   20.8590 C   0  0  0  0  0  0  0  0  0  0  0  0
  -24.6850  -11.8030   20.8250 C   0  0  0  0  0  0  0  0  0  0  0  0
  -26.3220  -13.0690   20.2700 N   0  0  0  0  0  0  0  0  0  0  0  0
  -25.9810  -11.7790   20.5270 N   0  0  0  0  0  0  0  0  0  0  0  0
  -23.9660  -10.5330   21.0010 C   0  0  0  0  0  0  0  0  0  0  0  0
  -24.3890   -9.5710   21.9460 C   0  0  0  0  0  3  0  0  0  0  0  0
  -23.6650   -8.3700   22.1140 C   0  0  0  0  0  3  0  0  0  0  0  0
  -22.5080   -8.1230   21.3400 C   0  0  0  0  0  0  0  0  0  0  0  0
  -22.1030   -9.0760   20.3880 C   0  0  0  0  0  3  0  0  0  0  0  0
  -22.8260  -10.2680   20.2170 C   0  0  0  0  0  3  0  0  0  0  0  0
  -21.7570   -6.9730   21.4210 O   0  0  0  0  0  0  0  0  0  0  0  0
  -21.6780   -6.2420   22.5790 C   0  0  0  0  0  0  0  0  0  0  0  0
  -21.1930   -6.8040   23.7810 C   0  0  0  0  0  3  0  0  0  0  0  0
  -21.0610   -6.0010   24.9320 C   0  0  0  0  0  3  0  0  0  0  0  0
  -21.4050   -4.6370   24.8820 C   0  0  0  0  0  0  0  0  0  0  0  0
  -21.8870   -4.0750   23.6870 C   0  0  0  0  0  3  0  0  0  0  0  0
  -22.0180   -4.8730   22.5370 C   0  0  0  0  0  0  0  0  0  0  0  0
  -22.4590   -4.3230   21.3810 F   0  0  0  0  0  0  0  0  0  0  0  0
  -21.2720   -3.8640   25.9850 F   0  0  0  0  0  0  0  0  0  0  0  0
  -22.8090  -13.6150   21.1170 C   0  0  0  0  0  0  0  0  0  0  0  0
  -22.0810  -12.9110   21.9740 N   0  0  0  0  0  0  0  0  0  0  0  0
  -22.3710  -14.6420   20.5970 O   0  0  0  0  0  0  0  0  0  0  0  0
  -22.4550  -12.0860   22.4190 H   0  0  0  0  0  0  0  0  0  0  0  0
  -21.1390  -13.1990   22.1870 H   0  0  0  0  0  0  0  0  0  0  0  0
  -25.4240  -15.3060   20.3190 N   0  0  0  0  0  0  0  0  0  0  0  0
  -24.6510  -15.9580   20.4010 H   0  0  0  0  0  0  0  0  0  0  0  0
  -26.2710  -15.7480   19.9860 H   0  0  0  0  0  0  0  0  0  0  0  0
  -28.9820  -23.2580   20.6260 C   0  0  0  0  0  2  0  0  0  0  0  0
  -28.1540  -24.5900   19.9150 C   0  0  0  0  0  2  0  0  0  0  0  0
  -28.2660  -26.1330   20.2870 O   0  0  0  0  0  0  0  0  0  0  0  0
  -24.6290  -31.9460   23.1850 C   0  0  0  0  0  0  0  0  0  0  0  0
  -27.2080  -27.1350   20.1970 C   0  0  0  0  0  0  0  0  0  0  0  0
  -23.4380  -30.5190   21.5690 C   0  0  0  0  0  3  0  0  0  0  0  0
  -24.8870  -28.9180   20.1580 C   0  0  0  0  0  0  0  0  0  0  0  0
  -25.9930  -30.7610   21.4170 C   0  0  0  0  0  2  0  0  0  0  0  0
  -26.0640  -29.3550   20.7730 C   0  0  0  0  0  0  0  0  0  0  0  0
  -27.2210  -28.4770   20.7770 C   0  0  0  0  0  3  0  0  0  0  0  0
  -26.0030  -26.8200   19.5330 C   0  0  0  0  0  3  0  0  0  0  0  0
  -24.8670  -27.6660   19.5230 C   0  0  0  0  0  3  0  0  0  0  0  0
  -23.6650  -29.8290   20.1980 C   0  0  0  0  0  2  0  0  0  0  0  0
  -24.7060  -31.0990   22.1100 N   0  0  0  0  0  0  0  0  0  0  0  0
  -23.5400  -32.2410   23.7030 O   0  0  0  0  0  0  0  0  0  0  0  0
  -22.7570  -29.5310   22.5460 C   0  0  0  0  0  0  0  0  0  0  0  0
  -21.4270  -29.3650   22.4220 N   0  0  0  0  0  0  0  0  0  0  0  0
  -23.4250  -28.9130   23.3780 O   0  0  0  0  0  0  0  0  0  0  0  0
  -20.9470  -29.9240   21.7290 H   0  0  0  0  0  0  0  0  0  0  0  0
  -18.0320  -28.1950   22.9580 C   0  0  0  0  0  0  0  0  0  0  0  0
  -20.5950  -28.4380   23.1970 C   0  0  0  0  0  3  0  0  0  0  0  0
  -20.6780  -27.0040   22.6270 C   0  0  0  0  0  2  0  0  0  0  0  0
  -19.5660  -26.6870   21.6230 C   0  0  0  0  0  2  0  0  0  0  0  0
  -18.1940  -26.8450   22.2800 C   0  0  0  0  0  2  0  0  0  0  0  0
  -19.1620  -28.9510   23.3730 C   0  0  0  0  0  0  0  0  0  0  0  0
  -18.9620  -30.2170   23.9660 C   0  0  0  0  0  3  0  0  0  0  0  0
  -17.6650  -30.7290   24.1460 C   0  0  0  0  0  3  0  0  0  0  0  0
  -16.5490  -29.9680   23.7520 C   0  0  0  0  0  3  0  0  0  0  0  0
  -16.7340  -28.7040   23.1600 C   0  0  0  0  0  3  0  0  0  0  0  0
  -25.9080  -32.5920   23.8040 C   0  0  0  0  0  3  0  0  0  0  0  0
  -25.5830  -33.9870   24.1460 N   0  0  0  0  0  0  0  0  0  0  0  0
  -25.8980  -35.0540   23.4020 C   0  0  0  0  0  0  0  0  0  0  0  0
  -26.5660  -34.9690   22.3690 O   0  0  0  0  0  0  0  0  0  0  0  0
  -24.9890  -34.1230   24.9520 H   0  0  0  0  0  0  0  0  0  0  0  0
  -24.1670  -36.8480   23.0790 C   0  0  0  0  0  1  0  0  0  0  0  0
  -25.4070  -36.4330   23.8840 C   0  0  0  0  0  3  0  0  0  0  0  0
  -27.5340  -37.3180   24.7380 C   0  0  0  0  0  1  0  0  0  0  0  0
  -26.4350  -37.4920   23.7920 N   0  0  0  0  0  0  0  0  0  0  0  0
  -26.0240  -38.4050   23.9560 H   0  0  0  0  0  0  0  0  0  0  0  0
  -26.4320  -31.8280   25.0820 C   0  0  1  0  0  0  0  0  0  0  0  0
  -25.3340  -31.5730   26.1430 C   0  0  0  0  0  1  0  0  0  0  0  0
  -27.0360  -30.4580   24.7010 C   0  0  0  0  0  1  0  0  0  0  0  0
  -27.5700  -32.6370   25.7450 C   0  0  0  0  0  1  0  0  0  0  0  0
  2 10  1  0
  2  1  2  0
  3  4  2  0
  3  2  1  0
  4  6  1  0
  5  4  1  0
  6 49  1  0
  6  1  1  0
  7  3  1  0
  8  9  1  0
  9  7  1  0
 11 19  1  0
 12 17  1  0
 13 14  1  0
 13 12  1  0
 15 14  1  0
 15 24  1  0
 15 16  1  0
 17 11  1  0
 17 16  1  0
 18 11  2  0
 19 20  1  0
 19 10  1  0
 21 22  2  0
 22 41  1  0
 23 22  1  0
 23 26  1  0
 24 21  1  0
 24 25  1  0
 25 23  2  0
 26 27  1  0
 27 28  2  0
 29 32  1  0
 29 28  1  0
 30 29  2  0
 31 30  1  0
 31 26  2  0
 32 33  1  0
 33 34  1  0
 34 35  2  0
 36 35  1  0
 36 40  1  0
 37 36  2  0
 38 33  2  0
 38 37  1  0
 39 38  1  0
 41 42  1  0
 42 45  1  0
 42 44  1  0
 43 41  2  0
 46 47  1  0
 46 21  1  0
 48 46  1  0
 50 51  1  0
 50 49  1  0
 52 63  2  0
 53 51  1  0
 53 58  1  0
 54 62  1  0
 54 64  1  0
 55 61  1  0
 55 57  1  0
 56 62  1  0
 57 58  2  0
 57 56  1  0
 59 53  2  0
 60 59  1  0
 60 55  2  0
 61 54  1  0
 62 52  1  0
 64 66  2  0
 65 64  1  0
 67 65  1  0
 68 77  2  0
 68 73  1  0
 69 65  1  0
 69 73  1  0
 70 69  1  0
 71 72  1  0
 71 70  1  0
 72 68  1  0
 73 74  2  0
 74 75  1  0
 76 75  2  0
 77 76  1  0
 78 52  1  0
 78 79  1  0
 78 88  1  0
 79 82  1  0
 80 84  1  0
 80 79  1  0
 81 80  2  0
 84 83  1  0
 86 84  1  0
 86 87  1  0
 86 85  1  0
 88 91  1  1
 88 89  1  0
 90 88  1  0
M  ISO  4  11 100  19 100  50 101  51 101
M  END
>  <TORSDO>  (59) 
F 21

>  <SCORE>  (59) 
-14.274

>  <name>  (59) 
58

>  <ligand_id>  (59) 
58

>  <original_smiles>  (59) 
[H]c1c([H])c([H])c2c(c1[H])C([H])([H])C([H])([H])C([H])([H])C2([H])N([H])C(=O)C1([H])N(C(=O)C([H])(N([H])C(=O)C([H])(N([H])C([H])([H])[H])C([H])([H])[H])C(C([H])([H])[H])(C([H])([H])[H])C([H])([H])[H])C([H])([H])c2c([H])c(OC([H])([H])C([H])([H])n3c([H])c(C([H])([H])N([H])C(=O)N4C([H])([H])C([H])([H])C([H])([H])C([H])(n5nc(-c6c([H])c([H])c(Oc7c([H])c([H])c(F)c([H])c7F)c([H])c6[H])c(C(=O)N([H])[H])c5N([H])[H])C4([H])[H])c(C([H])([H])C([H])([H])C([H])([H])[H])c3C([H])([H])[H])c([H])c([H])c2C1([H])[H]

>  <smiles>  (59) 
[H]c1c([H])c([H])c2c(c1[H])C([H])([H])C([H])([H])C([H])([H])C2([H])N([H])C(=O)C1([H])N(C(=O)C([H])(N([H])C(=O)C([H])(N([H])C([H])([H])[H])C([H])([H])[H])C(C([H])([H])[H])(C([H])([H])[H])C([H])([H])[H])C([H])([H])c2c([H])c(OC([H])([H])C([H])([H])n3c([H])c(C([H])([H])N([H])C(=O)N4C([H])([H])C([H])([H])C([H])([H])C([H])(n5nc(-c6c([H])c([H])c(Oc7c([H])c([H])c(F)c([H])c7F)c([H])c6[H])c(C(=O)N([H])[H])c5N([H])[H])C4([H])[H])c(C([H])([H])C([H])([H])C([H])([H])[H])c3C([H])([H])[H])c([H])c([H])c2C1([H])[H]

$$$$
59:0:0
     RDKit          3D

 93101  0  0  1  0  0  0  0  0999 V2000
  -29.3480  -22.2910   18.8770 C   0  0  0  0  0  2  0  0  0  0  0  0
  -30.4440  -22.4740   20.9760 C   0  0  0  0  0  2  0  0  0  0  0  0
  -29.3480  -23.9390   18.7590 C   0  0  0  0  0  2  0  0  0  0  0  0
  -30.4240  -24.1130   20.8590 C   0  0  0  0  0  2  0  0  0  0  0  0
  -30.4710  -21.4680   19.6950 C   0  0  0  0  0  3  0  0  0  0  0  0
  -29.2680  -24.8950   20.0520 C   0  0  0  0  0  3  0  0  0  0  0  0
  -29.3280  -26.4960   19.9310 O   0  0  0  0  0  0  0  0  0  0  0  0
  -25.2030  -31.6320   23.3760 C   0  0  0  0  0  0  0  0  0  0  0  0
  -28.2040  -27.4350   19.9390 C   0  0  0  0  0  0  0  0  0  0  0  0
  -24.1640  -30.3620   21.5390 C   0  0  0  0  0  3  0  0  0  0  0  0
  -25.7670  -29.0610   19.9970 C   0  0  0  0  0  0  0  0  0  0  0  0
  -26.6980  -30.8070   21.5070 C   0  0  0  0  0  2  0  0  0  0  0  0
  -26.8940  -29.5030   20.7030 C   0  0  0  0  0  0  0  0  0  0  0  0
  -28.1110  -28.7100   20.6530 C   0  0  0  0  0  3  0  0  0  0  0  0
  -27.0480  -27.1170   19.1960 C   0  0  0  0  0  3  0  0  0  0  0  0
  -25.8610  -27.8910   19.2260 C   0  0  0  0  0  3  0  0  0  0  0  0
  -24.4770  -29.8660   20.1010 C   0  0  0  0  0  2  0  0  0  0  0  0
  -25.3730  -30.9550   22.1970 N   0  0  0  0  0  0  0  0  0  0  0  0
  -24.0830  -31.7700   23.8930 O   0  0  0  0  0  0  0  0  0  0  0  0
  -23.5310  -29.2050   22.3540 C   0  0  0  0  0  0  0  0  0  0  0  0
  -22.2240  -28.9490   22.1580 N   0  0  0  0  0  0  0  0  0  0  0  0
  -24.2260  -28.5390   23.1280 O   0  0  0  0  0  0  0  0  0  0  0  0
  -21.7150  -29.5400   21.5160 H   0  0  0  0  0  0  0  0  0  0  0  0
  -18.9570  -27.3920   22.3490 C   0  0  0  0  0  0  0  0  0  0  0  0
  -21.4620  -27.8670   22.7880 C   0  0  0  0  0  3  0  0  0  0  0  0
  -21.7340  -26.5140   22.0900 C   0  0  0  0  0  2  0  0  0  0  0  0
  -20.7220  -26.1920   20.9850 C   0  0  0  0  0  2  0  0  0  0  0  0
  -19.3020  -26.1440   21.5550 C   0  0  0  0  0  2  0  0  0  0  0  0
  -19.9730  -28.2100   22.9150 C   0  0  0  0  0  0  0  0  0  0  0  0
  -19.5990  -29.3770   23.6140 C   0  0  0  0  0  3  0  0  0  0  0  0
  -18.2440  -29.7320   23.7540 C   0  0  0  0  0  3  0  0  0  0  0  0
  -17.2420  -28.9140   23.2020 C   0  0  0  0  0  3  0  0  0  0  0  0
  -17.6010  -27.7460   22.5060 C   0  0  0  0  0  3  0  0  0  0  0  0
  -26.4070  -32.2840   24.1200 C   0  0  0  0  0  3  0  0  0  0  0  0
  -25.9780  -33.6120   24.5950 N   0  0  0  0  0  0  0  0  0  0  0  0
  -26.2900  -34.7750   24.0090 C   0  0  0  0  0  0  0  0  0  0  0  0
  -27.0360  -34.8490   23.0300 O   0  0  0  0  0  0  0  0  0  0  0  0
  -25.3180  -33.6220   25.3590 H   0  0  0  0  0  0  0  0  0  0  0  0
  -24.4910  -36.5170   23.7490 C   0  0  0  0  0  1  0  0  0  0  0  0
  -25.6810  -36.0620   24.6050 C   0  0  0  0  0  3  0  0  0  0  0  0
  -27.6820  -36.9290   25.7400 C   0  0  0  0  0  1  0  0  0  0  0  0
  -26.6520  -37.1710   24.7360 N   0  0  0  0  0  0  0  0  0  0  0  0
  -26.1730  -38.0360   24.9740 H   0  0  0  0  0  0  0  0  0  0  0  0
  -26.9330  -31.4170   25.3300 C   0  0  1  0  0  0  0  0  0  0  0  0
  -25.8240  -30.9940   26.3210 C   0  0  0  0  0  1  0  0  0  0  0  0
  -27.6310  -30.1320   24.8270 C   0  0  0  0  0  1  0  0  0  0  0  0
  -27.9980  -32.2120   26.1210 C   0  0  0  0  0  1  0  0  0  0  0  0
  -30.3830  -19.7000   19.7910 C   0  0  0  0  0  3  0  0  0  0  0  0
  -30.5140  -19.3880   22.3780 C   0  0  0  0  0  1  0  0  0  0  0  0
  -28.1870  -19.4290   21.2460 C   0  0  0  0  0  1  0  0  0  0  0  0
  -29.6950  -19.1510   21.0860 C   0  0  0  0  0  3  0  0  0  0  0  0
  -31.6080  -18.5000   19.4970 C   0  0  0  0  0  2  0  0  0  0  0  0
  -32.1580  -15.7510   19.9490 C   0  0  0  0  0  0  0  0  0  0  0  0
  -32.2090  -13.2250   19.5600 C   0  0  0  0  0  2  0  0  0  0  0  0
  -31.3550  -12.7660   18.3540 C   0  0  0  0  0  2  0  0  0  0  0  0
  -29.8810  -12.5550   18.7600 C   0  0  0  0  0  2  0  0  0  0  0  0
  -29.3420  -13.6930   19.6670 C   0  0  0  0  0  3  0  0  0  0  0  0
  -30.3360  -14.1040   20.7740 C   0  0  0  0  0  2  0  0  0  0  0  0
  -31.5960  -14.4710   20.1040 N   0  0  0  0  0  0  0  0  0  0  0  0
  -33.3930  -15.7910   20.0240 O   0  0  0  0  0  0  0  0  0  0  0  0
  -31.4050  -16.8940   19.4390 N   0  0  0  0  0  0  0  0  0  0  0  0
  -27.0230  -14.3760   20.4520 C   0  0  0  0  0  0  0  0  0  0  0  0
  -25.9130  -13.6520   20.7770 C   0  0  0  0  0  0  0  0  0  0  0  0
  -26.2940  -12.2800   20.6700 C   0  0  0  0  0  0  0  0  0  0  0  0
  -28.0060  -13.4450   20.1680 N   0  0  0  0  0  0  0  0  0  0  0  0
  -27.5810  -12.1740   20.3650 N   0  0  0  0  0  0  0  0  0  0  0  0
  -25.4930  -11.0590   20.7800 C   0  0  0  0  0  0  0  0  0  0  0  0
  -25.7650  -10.0870   21.7700 C   0  0  0  0  0  3  0  0  0  0  0  0
  -24.9700   -8.9260   21.8700 C   0  0  0  0  0  3  0  0  0  0  0  0
  -23.8890   -8.7340   20.9790 C   0  0  0  0  0  0  0  0  0  0  0  0
  -23.6380   -9.6890   19.9790 C   0  0  0  0  0  3  0  0  0  0  0  0
  -24.4330  -10.8420   19.8760 C   0  0  0  0  0  3  0  0  0  0  0  0
  -23.0750   -7.6260   20.9860 O   0  0  0  0  0  0  0  0  0  0  0  0
  -22.6050   -7.0870   22.1550 C   0  0  0  0  0  0  0  0  0  0  0  0
  -21.8630   -7.8540   23.0810 C   0  0  0  0  0  3  0  0  0  0  0  0
  -21.3430   -7.2480   24.2410 C   0  0  0  0  0  3  0  0  0  0  0  0
  -21.5500   -5.8720   24.4690 C   0  0  0  0  0  0  0  0  0  0  0  0
  -22.2790   -5.1050   23.5460 C   0  0  0  0  0  3  0  0  0  0  0  0
  -22.8040   -5.7130   22.3900 C   0  0  0  0  0  0  0  0  0  0  0  0
  -23.4920   -4.9660   21.4920 F   0  0  0  0  0  0  0  0  0  0  0  0
  -21.0410   -5.2870   25.5780 F   0  0  0  0  0  0  0  0  0  0  0  0
  -24.5490  -14.2030   21.0640 C   0  0  0  0  0  0  0  0  0  0  0  0
  -23.7810  -13.5280   21.9100 N   0  0  0  0  0  0  0  0  0  0  0  0
  -24.1750  -15.2710   20.5780 O   0  0  0  0  0  0  0  0  0  0  0  0
  -24.0940  -12.6620   22.3220 H   0  0  0  0  0  0  0  0  0  0  0  0
  -22.8630  -13.8830   22.1450 H   0  0  0  0  0  0  0  0  0  0  0  0
  -27.2750  -15.7430   20.3430 N   0  0  0  0  0  0  0  0  0  0  0  0
  -26.5530  -16.4450   20.4560 H   0  0  0  0  0  0  0  0  0  0  0  0
  -28.1590  -16.1330   20.0460 H   0  0  0  0  0  0  0  0  0  0  0  0
  -30.7880  -16.6370   18.1160 C   0  0  0  0  0  2  0  0  0  0  0  0
  -30.4120  -17.2550   15.7020 C   0  0  0  0  0  1  0  0  0  0  0  0
  -32.7790  -17.0650   16.4940 C   0  0  0  0  0  1  0  0  0  0  0  0
  -31.3440  -17.4430   16.9110 C   0  0  0  0  0  3  0  0  0  0  0  0
  1  5  1  0
  3  1  1  0
  3  6  1  0
  4  2  1  0
  5 48  1  0
  5  2  1  0
  6  7  1  0
  6  4  1  0
  7  9  1  0
  8 19  2  0
  9 14  1  0
 10 18  1  0
 10 20  1  0
 11 17  1  0
 11 13  1  0
 12 18  1  0
 13 12  1  0
 14 13  2  0
 15 16  1  0
 15  9  2  0
 16 11  2  0
 17 10  1  0
 18  8  1  0
 20 22  2  0
 21 20  1  0
 23 21  1  0
 24 33  2  0
 24 29  1  0
 25 21  1  0
 25 29  1  0
 26 25  1  0
 27 28  1  0
 27 26  1  0
 28 24  1  0
 29 30  2  0
 30 31  1  0
 32 31  2  0
 33 32  1  0
 34  8  1  0
 34 35  1  0
 34 44  1  0
 35 38  1  0
 36 35  1  0
 36 40  1  0
 37 36  2  0
 40 39  1  0
 40 42  1  0
 42 43  1  0
 42 41  1  0
 44 47  1  1
 44 45  1  0
 46 44  1  0
 48 52  1  0
 48 51  1  0
 51 50  1  0
 51 49  1  0
 53 60  2  0
 53 59  1  0
 54 59  1  0
 55 56  1  0
 55 54  1  0
 57 56  1  0
 57 65  1  0
 57 58  1  0
 59 58  1  0
 61 52  1  0
 61 53  1  0
 62 63  2  0
 63 82  1  0
 64 63  1  0
 64 67  1  0
 65 66  1  0
 65 62  1  0
 66 64  2  0
 67 68  1  0
 68 69  2  0
 70 73  1  0
 70 69  1  0
 71 70  2  0
 72 71  1  0
 72 67  2  0
 73 74  1  0
 74 79  2  0
 74 75  1  0
 75 76  2  0
 76 77  1  0
 77 81  1  0
 78 77  2  0
 79 78  1  0
 80 79  1  0
 82 83  1  0
 83 86  1  0
 83 85  1  0
 84 82  2  0
 87 62  1  0
 87 88  1  0
 89 87  1  0
 90 61  1  0
 91 93  1  0
 92 93  1  0
 93 90  1  0
M  ISO  4   6 101   7 101  53 100  61 100
M  END
>  <TORSDO>  (60) 
F 21

>  <SCORE>  (60) 
-7.350

>  <name>  (60) 
59

>  <ligand_id>  (60) 
59

>  <original_smiles>  (60) 
[H]c1c([H])c([H])c2c(c1[H])C([H])([H])C([H])([H])C([H])([H])C2([H])N([H])C(=O)C1([H])N(C(=O)C([H])(N([H])C(=O)C([H])(N([H])C([H])([H])[H])C([H])([H])[H])C(C([H])([H])[H])(C([H])([H])[H])C([H])([H])[H])C([H])([H])c2c([H])c(OC3([H])C([H])([H])C([H])([H])C([H])(C([H])(C([H])([H])N(C(=O)N4C([H])([H])C([H])([H])C([H])([H])C([H])(n5nc(-c6c([H])c([H])c(Oc7c([H])c([H])c(F)c([H])c7F)c([H])c6[H])c(C(=O)N([H])[H])c5N([H])[H])C4([H])[H])C([H])([H])C([H])(C([H])([H])[H])C([H])([H])[H])C([H])(C([H])([H])[H])C([H])([H])[H])C([H])([H])C3([H])[H])c([H])c([H])c2C1([H])[H]

>  <smiles>  (60) 
[H]c1c([H])c([H])c2c(c1[H])C([H])([H])C([H])([H])C([H])([H])C2([H])N([H])C(=O)C1([H])N(C(=O)C([H])(N([H])C(=O)C([H])(N([H])C([H])([H])[H])C([H])([H])[H])C(C([H])([H])[H])(C([H])([H])[H])C([H])([H])[H])C([H])([H])c2c([H])c(OC3([H])C([H])([H])C([H])([H])C([H])(C([H])(C([H])([H])N(C(=O)N4C([H])([H])C([H])([H])C([H])([H])C([H])(n5nc(-c6c([H])c([H])c(Oc7c([H])c([H])c(F)c([H])c7F)c([H])c6[H])c(C(=O)N([H])[H])c5N([H])[H])C4([H])[H])C([H])([H])C([H])(C([H])([H])[H])C([H])([H])[H])C([H])(C([H])([H])[H])C([H])([H])[H])C([H])([H])C3([H])[H])c([H])c([H])c2C1([H])[H]

$$$$
60:0:0
     RDKit          3D

 92100  0  0  1  0  0  0  0  0999 V2000
  -27.7770  -21.5910   20.0370 C   0  0  0  0  0  3  0  0  0  0  0  0
  -29.8840  -22.3400   20.5540 C   0  0  0  0  0  3  0  0  0  0  0  0
  -28.5480  -22.8120   20.2580 C   0  0  0  0  0  0  0  0  0  0  0  0
  -28.2180  -20.1720   20.0660 C   0  0  0  0  0  0  0  0  0  0  0  0
  -30.3530  -20.9250   20.5930 C   0  0  0  0  0  0  0  0  0  0  0  0
  -29.5650  -19.7030   20.3430 C   0  0  0  0  0  0  0  0  0  0  0  0
  -27.1850  -19.1170   19.7210 C   0  0  0  0  0  1  0  0  0  0  0  0
  -30.6970  -18.1000   18.6640 C   0  0  0  0  0  1  0  0  0  0  0  0
  -30.2590  -18.1140   20.1400 C   0  0  0  0  0  0  0  0  0  0  0  0
  -30.5690  -15.2670   20.3060 C   0  0  0  0  0  0  0  0  0  0  0  0
  -30.4670  -12.8740   19.3520 C   0  0  0  0  0  2  0  0  0  0  0  0
  -29.5280  -12.7550   18.1290 C   0  0  0  0  0  2  0  0  0  0  0  0
  -28.0810  -12.4960   18.5820 C   0  0  0  0  0  2  0  0  0  0  0  0
  -27.6650  -13.4150   19.7600 C   0  0  0  0  0  3  0  0  0  0  0  0
  -28.7340  -13.4970   20.8690 C   0  0  0  0  0  2  0  0  0  0  0  0
  -29.9670  -13.9860   20.2350 N   0  0  0  0  0  0  0  0  0  0  0  0
  -31.7780  -15.2530   20.0390 O   0  0  0  0  0  0  0  0  0  0  0  0
  -29.8520  -16.5470   20.4480 N   0  0  0  0  0  4  0  0  0  0  0  0
  -28.8780  -16.4240   20.6790 H   0  0  0  0  0  0  0  0  0  0  0  0
  -25.3030  -13.9550   20.5560 C   0  0  0  0  0  0  0  0  0  0  0  0
  -24.2490  -13.1690   20.9260 C   0  0  0  0  0  0  0  0  0  0  0  0
  -24.7180  -11.8210   20.8620 C   0  0  0  0  0  0  0  0  0  0  0  0
  -26.3440  -13.0880   20.2810 N   0  0  0  0  0  0  0  0  0  0  0  0
  -26.0050  -11.7960   20.5330 N   0  0  0  0  0  0  0  0  0  0  0  0
  -23.9960  -10.5530   21.0370 C   0  0  0  0  0  0  0  0  0  0  0  0
  -24.4180   -9.5830   21.9730 C   0  0  0  0  0  3  0  0  0  0  0  0
  -23.6930   -8.3830   22.1370 C   0  0  0  0  0  3  0  0  0  0  0  0
  -22.5320   -8.1430   21.3640 C   0  0  0  0  0  0  0  0  0  0  0  0
  -22.1290   -9.1010   20.4170 C   0  0  0  0  0  3  0  0  0  0  0  0
  -22.8540  -10.2920   20.2510 C   0  0  0  0  0  3  0  0  0  0  0  0
  -21.7790   -6.9960   21.4380 O   0  0  0  0  0  0  0  0  0  0  0  0
  -21.6810   -6.2730   22.6000 C   0  0  0  0  0  0  0  0  0  0  0  0
  -21.1340   -6.8270   23.7780 C   0  0  0  0  0  3  0  0  0  0  0  0
  -20.9860   -6.0280   24.9300 C   0  0  0  0  0  3  0  0  0  0  0  0
  -21.3750   -4.6760   24.9030 C   0  0  0  0  0  0  0  0  0  0  0  0
  -21.9150   -4.1210   23.7300 C   0  0  0  0  0  3  0  0  0  0  0  0
  -22.0640   -4.9170   22.5800 C   0  0  0  0  0  0  0  0  0  0  0  0
  -22.5650   -4.3710   21.4460 F   0  0  0  0  0  0  0  0  0  0  0  0
  -21.2280   -3.9060   26.0070 F   0  0  0  0  0  0  0  0  0  0  0  0
  -22.8540  -13.6380   21.2200 C   0  0  0  0  0  0  0  0  0  0  0  0
  -22.1360  -12.9250   22.0800 N   0  0  0  0  0  0  0  0  0  0  0  0
  -22.4100  -14.6710   20.7210 O   0  0  0  0  0  0  0  0  0  0  0  0
  -22.5100  -12.0890   22.5060 H   0  0  0  0  0  0  0  0  0  0  0  0
  -21.2000  -13.2200   22.3190 H   0  0  0  0  0  0  0  0  0  0  0  0
  -25.4590  -15.3300   20.4020 N   0  0  0  0  0  0  0  0  0  0  0  0
  -24.6880  -15.9760   20.5310 H   0  0  0  0  0  0  0  0  0  0  0  0
  -26.2880  -15.7720   20.0290 H   0  0  0  0  0  0  0  0  0  0  0  0
  -27.8530  -24.3890   20.0410 C   0  0  0  0  0  2  0  0  0  0  0  0
  -28.2290  -25.9410   20.3350 O   0  0  0  0  0  0  0  0  0  0  0  0
  -24.6470  -31.8900   23.2270 C   0  0  0  0  0  0  0  0  0  0  0  0
  -27.2340  -27.0400   20.2450 C   0  0  0  0  0  0  0  0  0  0  0  0
  -23.4640  -30.4810   21.5920 C   0  0  0  0  0  3  0  0  0  0  0  0
  -24.9260  -28.8880   20.1810 C   0  0  0  0  0  0  0  0  0  0  0  0
  -26.0290  -30.7130   21.4520 C   0  0  0  0  0  2  0  0  0  0  0  0
  -26.1090  -29.3040   20.8040 C   0  0  0  0  0  0  0  0  0  0  0  0
  -27.2600  -28.3990   20.8150 C   0  0  0  0  0  3  0  0  0  0  0  0
  -26.0220  -26.7720   19.5660 C   0  0  0  0  0  3  0  0  0  0  0  0
  -24.9050  -27.6410   19.5420 C   0  0  0  0  0  3  0  0  0  0  0  0
  -23.7010  -29.7970   20.2190 C   0  0  0  0  0  2  0  0  0  0  0  0
  -24.7350  -31.0540   22.1430 N   0  0  0  0  0  0  0  0  0  0  0  0
  -23.5550  -32.1780   23.7430 O   0  0  0  0  0  0  0  0  0  0  0  0
  -22.7740  -29.4840   22.5580 C   0  0  0  0  0  0  0  0  0  0  0  0
  -21.4450  -29.3100   22.4280 N   0  0  0  0  0  0  0  0  0  0  0  0
  -23.4400  -28.8670   23.3940 O   0  0  0  0  0  0  0  0  0  0  0  0
  -20.9620  -29.8580   21.7300 H   0  0  0  0  0  0  0  0  0  0  0  0
  -18.0620  -28.1120   22.9500 C   0  0  0  0  0  0  0  0  0  0  0  0
  -20.6240  -28.3740   23.2030 C   0  0  0  0  0  3  0  0  0  0  0  0
  -20.7200  -26.9410   22.6270 C   0  0  0  0  0  2  0  0  0  0  0  0
  -19.6130  -26.6210   21.6170 C   0  0  0  0  0  2  0  0  0  0  0  0
  -18.2340  -26.7650   22.2690 C   0  0  0  0  0  2  0  0  0  0  0  0
  -19.1830  -28.8750   23.3740 C   0  0  0  0  0  0  0  0  0  0  0  0
  -18.9650  -30.1340   23.9740 C   0  0  0  0  0  3  0  0  0  0  0  0
  -17.6600  -30.6320   24.1520 C   0  0  0  0  0  3  0  0  0  0  0  0
  -16.5540  -29.8670   23.7430 C   0  0  0  0  0  3  0  0  0  0  0  0
  -16.7560  -28.6090   23.1470 C   0  0  0  0  0  3  0  0  0  0  0  0
  -25.9140  -32.5410   23.8590 C   0  0  0  0  0  3  0  0  0  0  0  0
  -26.4150  -31.7880   25.1540 C   0  0  1  0  0  0  0  0  0  0  0  0
  -25.3070  -31.5580   26.2090 C   0  0  0  0  0  1  0  0  0  0  0  0
  -27.0130  -30.4090   24.7970 C   0  0  0  0  0  1  0  0  0  0  0  0
  -27.5500  -32.5980   25.8240 C   0  0  0  0  0  1  0  0  0  0  0  0
  -25.5920  -33.9420   24.1790 N   0  0  0  0  0  0  0  0  0  0  0  0
  -25.9200  -34.9980   23.4210 C   0  0  0  0  0  0  0  0  0  0  0  0
  -26.5900  -34.8940   22.3910 O   0  0  0  0  0  0  0  0  0  0  0  0
  -24.9980  -34.0950   24.9810 H   0  0  0  0  0  0  0  0  0  0  0  0
  -24.1990  -36.7980   23.0550 C   0  0  0  0  0  1  0  0  0  0  0  0
  -25.4310  -36.3870   23.8780 C   0  0  0  0  0  3  0  0  0  0  0  0
  -27.5490  -37.2790   24.7440 C   0  0  0  0  0  1  0  0  0  0  0  0
  -26.4650  -37.4400   23.7790 N   0  0  0  0  0  0  0  0  0  0  0  0
  -26.0560  -38.3610   23.9140 H   0  0  0  0  0  0  0  0  0  0  0  0
  -31.8350  -20.7570   20.8970 C   0  0  0  0  0  2  0  0  0  0  0  0
  -32.0580  -20.2820   22.2090 O   0  0  0  0  0  0  0  0  0  0  0  0
  -31.7380  -20.9470   22.8110 H   0  0  0  0  0  0  0  0  0  0  0  0
  1  4  2  0
  1  3  1  0
  2  5  1  0
  3  2  2  0
  4  6  1  0
  5 90  1  0
  6  5  2  0
  7  4  1  0
  8  9  1  0
  9  6  1  0
  9 18  2  0
 10 18  1  0
 11 16  1  0
 12 13  1  0
 12 11  1  0
 14 13  1  0
 14 23  1  0
 14 15  1  0
 16 10  1  0
 16 15  1  0
 17 10  2  0
 18 19  1  0
 20 21  2  0
 21 40  1  0
 22 21  1  0
 22 25  1  0
 23 24  1  0
 23 20  1  0
 24 22  2  0
 25 26  1  0
 26 27  2  0
 28 31  1  0
 28 27  1  0
 29 28  2  0
 30 29  1  0
 30 25  2  0
 31 32  1  0
 32 33  1  0
 33 34  2  0
 35 34  1  0
 35 39  1  0
 36 35  2  0
 37 32  2  0
 37 36  1  0
 38 37  1  0
 40 41  1  0
 41 44  1  0
 41 43  1  0
 42 40  2  0
 45 46  1  0
 45 20  1  0
 47 45  1  0
 48  3  1  0
 48 49  1  0
 50 61  2  0
 51 49  1  0
 51 56  1  0
 52 60  1  0
 52 62  1  0
 53 59  1  0
 53 55  1  0
 54 60  1  0
 55 56  2  0
 55 54  1  0
 57 51  2  0
 58 57  1  0
 58 53  2  0
 59 52  1  0
 60 50  1  0
 62 64  2  0
 63 62  1  0
 65 63  1  0
 66 75  2  0
 66 71  1  0
 67 63  1  0
 67 71  1  0
 68 67  1  0
 69 70  1  0
 69 68  1  0
 70 66  1  0
 71 72  2  0
 72 73  1  0
 74 73  2  0
 75 74  1  0
 76 50  1  0
 76 81  1  0
 76 77  1  0
 77 80  1  1
 77 78  1  0
 79 77  1  0
 81 84  1  0
 82 86  1  0
 82 81  1  0
 83 82  2  0
 86 85  1  0
 88 86  1  0
 88 89  1  0
 88 87  1  0
 90 91  1  0
 91 92  1  0
M  ISO  4  10 100  18 100  48 101  49 101
M  END
>  <TORSDO>  (61) 
F 20

>  <SCORE>  (61) 
-15.117

>  <name>  (61) 
60

>  <ligand_id>  (61) 
60

>  <original_smiles>  (61) 
[H]OC([H])([H])c1c([H])c(C([H])([H])Oc2c([H])c([H])c3c(c2[H])C([H])([H])N(C(=O)C([H])(N([H])C(=O)C([H])(N([H])C([H])([H])[H])C([H])([H])[H])C(C([H])([H])[H])(C([H])([H])[H])C([H])([H])[H])C([H])(C(=O)N([H])C2([H])c4c([H])c([H])c([H])c([H])c4C([H])([H])C([H])([H])C2([H])[H])C3([H])[H])c([H])c(C([H])([H])[H])c1C([H])(N([H])C(=O)N1C([H])([H])C([H])([H])C([H])([H])C([H])(n2nc(-c3c([H])c([H])c(Oc4c([H])c([H])c(F)c([H])c4F)c([H])c3[H])c(C(=O)N([H])[H])c2N([H])[H])C1([H])[H])C([H])([H])[H]

>  <smiles>  (61) 
[H]OC([H])([H])c1c([H])c(C([H])([H])Oc2c([H])c([H])c3c(c2[H])C([H])([H])N(C(=O)C([H])(N([H])C(=O)C([H])(N([H])C([H])([H])[H])C([H])([H])[H])C(C([H])([H])[H])(C([H])([H])[H])C([H])([H])[H])C([H])(C(=O)N([H])C2([H])c4c([H])c([H])c([H])c([H])c4C([H])([H])C([H])([H])C2([H])[H])C3([H])[H])c([H])c(C([H])([H])[H])c1C([H])(N([H])C(=O)N1C([H])([H])C([H])([H])C([H])([H])C([H])(n2nc(-c3c([H])c([H])c(Oc4c([H])c([H])c(F)c([H])c4F)c([H])c3[H])c(C(=O)N([H])[H])c2N([H])[H])C1([H])[H])C([H])([H])[H]

$$$$
61:0:0
     RDKit          3D

 91 99  0  0  1  0  0  0  0  0999 V2000
  -28.3770  -20.2470   20.0460 C   0  0  0  0  0  3  0  0  0  0  0  0
  -30.2580  -21.0790   21.0390 C   0  0  0  0  0  3  0  0  0  0  0  0
  -29.6100  -19.8210   20.6590 C   0  0  0  0  0  0  0  0  0  0  0  0
  -27.9280  -21.6520   19.8550 C   0  0  0  0  0  0  0  0  0  0  0  0
  -28.6630  -22.8510   20.2820 C   0  0  0  0  0  0  0  0  0  0  0  0
  -29.8540  -22.4360   20.8670 N   0  0  0  0  0  0  0  0  0  0  0  0
  -26.6110  -21.9110   19.1090 C   0  0  0  0  0  2  0  0  0  0  0  0
  -25.6280  -19.5960   18.6270 C   0  0  0  0  0  1  0  0  0  0  0  0
  -25.0790  -21.5420   17.1280 C   0  0  0  0  0  1  0  0  0  0  0  0
  -26.1570  -20.9090   18.0210 C   0  0  0  0  0  3  0  0  0  0  0  0
  -30.3000  -18.2420   20.9420 C   0  0  0  0  0  2  0  0  0  0  0  0
  -30.5880  -15.3790   20.8210 C   0  0  0  0  0  0  0  0  0  0  0  0
  -30.5700  -12.9940   19.8260 C   0  0  0  0  0  2  0  0  0  0  0  0
  -29.7110  -12.8690   18.5450 C   0  0  0  0  0  2  0  0  0  0  0  0
  -28.2400  -12.5930   18.9030 C   0  0  0  0  0  2  0  0  0  0  0  0
  -27.7410  -13.5050   20.0520 C   0  0  0  0  0  3  0  0  0  0  0  0
  -28.7340  -13.5890   21.2310 C   0  0  0  0  0  2  0  0  0  0  0  0
  -30.0000  -14.0960   20.6810 N   0  0  0  0  0  0  0  0  0  0  0  0
  -31.8150  -15.3770   20.6510 O   0  0  0  0  0  0  0  0  0  0  0  0
  -29.8540  -16.6520   20.9450 N   0  0  0  0  0  0  0  0  0  0  0  0
  -28.8580  -16.5120   21.0290 H   0  0  0  0  0  0  0  0  0  0  0  0
  -25.3300  -14.0320   20.6980 C   0  0  0  0  0  0  0  0  0  0  0  0
  -24.2550  -13.2390   20.9850 C   0  0  0  0  0  0  0  0  0  0  0  0
  -24.7310  -11.8930   20.9360 C   0  0  0  0  0  0  0  0  0  0  0  0
  -26.3890  -13.1690   20.4810 N   0  0  0  0  0  0  0  0  0  0  0  0
  -26.0370  -11.8740   20.6930 N   0  0  0  0  0  0  0  0  0  0  0  0
  -24.0020  -10.6210   21.0440 C   0  0  0  0  0  0  0  0  0  0  0  0
  -24.4080   -9.6100   21.9410 C   0  0  0  0  0  3  0  0  0  0  0  0
  -23.6760   -8.4070   22.0430 C   0  0  0  0  0  3  0  0  0  0  0  0
  -22.5240   -8.2060   21.2440 C   0  0  0  0  0  0  0  0  0  0  0  0
  -22.1390   -9.2070   20.3360 C   0  0  0  0  0  3  0  0  0  0  0  0
  -22.8700  -10.4020   20.2330 C   0  0  0  0  0  3  0  0  0  0  0  0
  -21.7670   -7.0590   21.2560 O   0  0  0  0  0  0  0  0  0  0  0  0
  -21.7140   -6.2440   22.3580 C   0  0  0  0  0  0  0  0  0  0  0  0
  -21.3170   -6.7280   23.6240 C   0  0  0  0  0  3  0  0  0  0  0  0
  -21.2080   -5.8420   24.7140 C   0  0  0  0  0  3  0  0  0  0  0  0
  -21.4840   -4.4730   24.5400 C   0  0  0  0  0  0  0  0  0  0  0  0
  -21.8750   -3.9880   23.2790 C   0  0  0  0  0  3  0  0  0  0  0  0
  -21.9850   -4.8710   22.1910 C   0  0  0  0  0  0  0  0  0  0  0  0
  -22.3400   -4.3950   20.9730 F   0  0  0  0  0  0  0  0  0  0  0  0
  -21.3730   -3.6200   25.5840 F   0  0  0  0  0  0  0  0  0  0  0  0
  -22.8420  -13.7010   21.1920 C   0  0  0  0  0  0  0  0  0  0  0  0
  -22.0790  -12.9900   22.0130 N   0  0  0  0  0  0  0  0  0  0  0  0
  -22.4240  -14.7290   20.6620 O   0  0  0  0  0  0  0  0  0  0  0  0
  -22.4310  -12.1580   22.4630 H   0  0  0  0  0  0  0  0  0  0  0  0
  -21.1280  -13.2810   22.1940 H   0  0  0  0  0  0  0  0  0  0  0  0
  -25.4920  -15.4090   20.5720 N   0  0  0  0  0  0  0  0  0  0  0  0
  -24.7110  -16.0510   20.6560 H   0  0  0  0  0  0  0  0  0  0  0  0
  -26.3440  -15.8590   20.2650 H   0  0  0  0  0  0  0  0  0  0  0  0
  -28.2020  -24.4800   19.8220 C   0  0  0  0  0  2  0  0  0  0  0  0
  -28.4810  -26.0190   20.2760 O   0  0  0  0  0  0  0  0  0  0  0  0
  -24.6250  -31.8090   23.1560 C   0  0  0  0  0  0  0  0  0  0  0  0
  -27.4580  -27.0940   20.1660 C   0  0  0  0  0  0  0  0  0  0  0  0
  -23.5400  -30.3970   21.4580 C   0  0  0  0  0  3  0  0  0  0  0  0
  -25.0960  -28.8760   20.0640 C   0  0  0  0  0  0  0  0  0  0  0  0
  -26.1000  -30.7070   21.4070 C   0  0  0  0  0  2  0  0  0  0  0  0
  -26.2440  -29.3150   20.7350 C   0  0  0  0  0  0  0  0  0  0  0  0
  -27.4200  -28.4420   20.7680 C   0  0  0  0  0  3  0  0  0  0  0  0
  -26.2790  -26.8100   19.4370 C   0  0  0  0  0  3  0  0  0  0  0  0
  -25.1360  -27.6450   19.3960 C   0  0  0  0  0  3  0  0  0  0  0  0
  -23.8420  -29.7480   20.0800 C   0  0  0  0  0  2  0  0  0  0  0  0
  -24.7740  -30.9970   22.0610 N   0  0  0  0  0  0  0  0  0  0  0  0
  -23.5090  -32.0520   23.6410 O   0  0  0  0  0  0  0  0  0  0  0  0
  -22.8510  -29.3610   22.3820 C   0  0  0  0  0  0  0  0  0  0  0  0
  -21.5260  -29.1760   22.2300 N   0  0  0  0  0  0  0  0  0  0  0  0
  -23.5140  -28.7240   23.2040 O   0  0  0  0  0  0  0  0  0  0  0  0
  -21.0440  -29.7410   21.5450 H   0  0  0  0  0  0  0  0  0  0  0  0
  -18.1470  -27.9350   22.6870 C   0  0  0  0  0  0  0  0  0  0  0  0
  -20.7070  -28.2040   22.9630 C   0  0  0  0  0  3  0  0  0  0  0  0
  -20.8150  -26.7970   22.3320 C   0  0  0  0  0  2  0  0  0  0  0  0
  -19.7150  -26.5080   21.3060 C   0  0  0  0  0  2  0  0  0  0  0  0
  -18.3330  -26.6170   21.9530 C   0  0  0  0  0  2  0  0  0  0  0  0
  -19.2620  -28.6870   23.1460 C   0  0  0  0  0  0  0  0  0  0  0  0
  -19.0320  -29.9200   23.7940 C   0  0  0  0  0  3  0  0  0  0  0  0
  -17.7230  -30.4010   23.9860 C   0  0  0  0  0  3  0  0  0  0  0  0
  -16.6240  -29.6460   23.5400 C   0  0  0  0  0  3  0  0  0  0  0  0
  -16.8370  -28.4140   22.8960 C   0  0  0  0  0  3  0  0  0  0  0  0
  -25.8500  -32.4850   23.8420 C   0  0  0  0  0  3  0  0  0  0  0  0
  -26.3170  -31.7370   25.1530 C   0  0  1  0  0  0  0  0  0  0  0  0
  -25.1760  -31.4850   26.1670 C   0  0  0  0  0  1  0  0  0  0  0  0
  -26.9500  -30.3690   24.8120 C   0  0  0  0  0  1  0  0  0  0  0  0
  -27.4140  -32.5640   25.8630 C   0  0  0  0  0  1  0  0  0  0  0  0
  -25.4810  -33.8770   24.1570 N   0  0  0  0  0  0  0  0  0  0  0  0
  -25.8290  -34.9460   23.4300 C   0  0  0  0  0  0  0  0  0  0  0  0
  -26.5580  -34.8680   22.4370 O   0  0  0  0  0  0  0  0  0  0  0  0
  -24.8380  -34.0090   24.9240 H   0  0  0  0  0  0  0  0  0  0  0  0
  -24.0700  -36.7000   23.0110 C   0  0  0  0  0  1  0  0  0  0  0  0
  -25.2860  -36.3210   23.8720 C   0  0  0  0  0  3  0  0  0  0  0  0
  -27.3610  -37.2590   24.7950 C   0  0  0  0  0  1  0  0  0  0  0  0
  -26.2950  -37.4020   23.8070 N   0  0  0  0  0  0  0  0  0  0  0  0
  -25.8570  -38.3110   23.9410 H   0  0  0  0  0  0  0  0  0  0  0  0
  1  3  1  0
  3 11  1  0
  3  2  2  0
  4  1  2  0
  4  5  1  0
  5  6  2  0
  6  2  1  0
  7  4  1  0
  9 10  1  0
 10  8  1  0
 10  7  1  0
 11 20  1  0
 12 20  1  0
 13 18  1  0
 14 15  1  0
 14 13  1  0
 16 15  1  0
 16 25  1  0
 16 17  1  0
 18 12  1  0
 18 17  1  0
 19 12  2  0
 20 21  1  0
 22 23  2  0
 23 42  1  0
 24 23  1  0
 24 27  1  0
 25 26  1  0
 25 22  1  0
 26 24  2  0
 27 28  1  0
 28 29  2  0
 30 33  1  0
 30 29  1  0
 31 30  2  0
 32 31  1  0
 32 27  2  0
 33 34  1  0
 34 35  1  0
 35 36  2  0
 37 36  1  0
 37 41  1  0
 38 37  2  0
 39 34  2  0
 39 38  1  0
 40 39  1  0
 42 43  1  0
 43 46  1  0
 43 45  1  0
 44 42  2  0
 47 48  1  0
 47 22  1  0
 49 47  1  0
 50 51  1  0
 50  5  1  0
 52 63  2  0
 53 51  1  0
 53 58  1  0
 54 62  1  0
 54 64  1  0
 55 61  1  0
 55 57  1  0
 56 62  1  0
 57 58  2  0
 57 56  1  0
 59 53  2  0
 60 59  1  0
 60 55  2  0
 61 54  1  0
 62 52  1  0
 64 66  2  0
 65 64  1  0
 67 65  1  0
 68 77  2  0
 68 73  1  0
 69 65  1  0
 69 73  1  0
 70 69  1  0
 71 72  1  0
 71 70  1  0
 72 68  1  0
 73 74  2  0
 74 75  1  0
 76 75  2  0
 77 76  1  0
 78 52  1  0
 78 83  1  0
 78 79  1  0
 79 82  1  1
 79 80  1  0
 81 79  1  0
 83 86  1  0
 84 88  1  0
 84 83  1  0
 85 84  2  0
 88 87  1  0
 90 88  1  0
 90 91  1  0
 90 89  1  0
M  ISO  4  12 100  20 100  50 101  51 101
M  END
>  <TORSDO>  (62) 
F 20

>  <SCORE>  (62) 
-14.631

>  <name>  (62) 
61

>  <ligand_id>  (62) 
61

>  <original_smiles>  (62) 
[H]c1nc(C([H])([H])Oc2c([H])c([H])c3c(c2[H])C([H])([H])N(C(=O)C([H])(N([H])C(=O)C([H])(N([H])C([H])([H])[H])C([H])([H])[H])C(C([H])([H])[H])(C([H])([H])[H])C([H])([H])[H])C([H])(C(=O)N([H])C2([H])c4c([H])c([H])c([H])c([H])c4C([H])([H])C([H])([H])C2([H])[H])C3([H])[H])c(C([H])([H])C([H])(C([H])([H])[H])C([H])([H])[H])c([H])c1C([H])([H])N([H])C(=O)N1C([H])([H])C([H])([H])C([H])([H])C([H])(n2nc(-c3c([H])c([H])c(Oc4c([H])c([H])c(F)c([H])c4F)c([H])c3[H])c(C(=O)N([H])[H])c2N([H])[H])C1([H])[H]

>  <smiles>  (62) 
[H]c1nc(C([H])([H])Oc2c([H])c([H])c3c(c2[H])C([H])([H])N(C(=O)C([H])(N([H])C(=O)C([H])(N([H])C([H])([H])[H])C([H])([H])[H])C(C([H])([H])[H])(C([H])([H])[H])C([H])([H])[H])C([H])(C(=O)N([H])C2([H])c4c([H])c([H])c([H])c([H])c4C([H])([H])C([H])([H])C2([H])[H])C3([H])[H])c(C([H])([H])C([H])(C([H])([H])[H])C([H])([H])[H])c([H])c1C([H])([H])N([H])C(=O)N1C([H])([H])C([H])([H])C([H])([H])C([H])(n2nc(-c3c([H])c([H])c(Oc4c([H])c([H])c(F)c([H])c4F)c([H])c3[H])c(C(=O)N([H])[H])c2N([H])[H])C1([H])[H]

$$$$
62:0:0
     RDKit          3D

 95103  0  0  1  0  0  0  0  0999 V2000
  -28.1340  -21.7580   19.1850 C   0  0  0  0  0  3  0  0  0  0  0  0
  -28.9750  -22.2610   20.2180 C   0  0  0  0  0  0  0  0  0  0  0  0
  -28.3380  -20.4130   18.9720 C   0  0  0  0  0  0  0  0  0  0  0  0
  -29.6330  -21.0910   20.6810 C   0  0  0  0  0  0  0  0  0  0  0  0
  -29.3080  -19.9480   19.8740 N   0  0  0  0  0  0  0  0  0  0  0  0
  -28.6350  -19.4230   16.6630 C   0  0  0  0  0  1  0  0  0  0  0  0
  -26.3230  -20.0050   17.4360 C   0  0  0  0  0  1  0  0  0  0  0  0
  -27.7190  -19.5450   17.8950 C   0  0  0  0  0  3  0  0  0  0  0  0
  -30.2970  -21.6730   23.0890 C   0  0  0  0  0  1  0  0  0  0  0  0
  -32.0900  -20.9800   21.4250 C   0  0  0  0  0  1  0  0  0  0  0  0
  -30.6060  -20.8660   21.8200 C   0  0  0  0  0  3  0  0  0  0  0  0
  -30.5000  -24.3190   20.3900 C   0  0  0  0  0  1  0  0  0  0  0  0
  -29.0730  -23.8210   20.6320 C   0  0  0  0  0  3  0  0  0  0  0  0
  -28.0720  -24.9430   20.0050 C   0  0  0  0  0  2  0  0  0  0  0  0
  -28.2510  -26.4190   20.3010 O   0  0  0  0  0  0  0  0  0  0  0  0
  -24.5620  -31.9590   23.2240 C   0  0  0  0  0  0  0  0  0  0  0  0
  -27.1590  -27.3190   20.2140 C   0  0  0  0  0  0  0  0  0  0  0  0
  -23.3610  -30.5470   21.5970 C   0  0  0  0  0  3  0  0  0  0  0  0
  -24.8090  -28.9790   20.1840 C   0  0  0  0  0  0  0  0  0  0  0  0
  -25.9060  -30.8480   21.4170 C   0  0  0  0  0  2  0  0  0  0  0  0
  -25.9820  -29.4590   20.7790 C   0  0  0  0  0  0  0  0  0  0  0  0
  -27.1580  -28.6390   20.7850 C   0  0  0  0  0  3  0  0  0  0  0  0
  -25.9660  -26.9210   19.5680 C   0  0  0  0  0  3  0  0  0  0  0  0
  -24.8050  -27.7200   19.5700 C   0  0  0  0  0  3  0  0  0  0  0  0
  -23.5780  -29.8620   20.2240 C   0  0  0  0  0  2  0  0  0  0  0  0
  -24.6290  -31.1380   22.1340 N   0  0  0  0  0  0  0  0  0  0  0  0
  -23.4770  -32.2400   23.7540 O   0  0  0  0  0  0  0  0  0  0  0  0
  -22.6980  -29.5380   22.5650 C   0  0  0  0  0  0  0  0  0  0  0  0
  -21.3710  -29.3590   22.4380 N   0  0  0  0  0  0  0  0  0  0  0  0
  -23.3730  -28.9210   23.3920 O   0  0  0  0  0  0  0  0  0  0  0  0
  -20.8840  -29.9060   21.7410 H   0  0  0  0  0  0  0  0  0  0  0  0
  -17.9900  -28.1750   22.9640 C   0  0  0  0  0  0  0  0  0  0  0  0
  -20.5520  -28.4270   23.2150 C   0  0  0  0  0  3  0  0  0  0  0  0
  -20.6470  -26.9940   22.6460 C   0  0  0  0  0  2  0  0  0  0  0  0
  -19.5390  -26.6710   21.6390 C   0  0  0  0  0  2  0  0  0  0  0  0
  -18.1610  -26.8220   22.2890 C   0  0  0  0  0  2  0  0  0  0  0  0
  -19.1150  -28.9340   23.3850 C   0  0  0  0  0  0  0  0  0  0  0  0
  -18.9040  -30.1970   23.9790 C   0  0  0  0  0  3  0  0  0  0  0  0
  -17.6030  -30.7050   24.1490 C   0  0  0  0  0  3  0  0  0  0  0  0
  -16.4930  -29.9440   23.7450 C   0  0  0  0  0  3  0  0  0  0  0  0
  -16.6880  -28.6790   23.1600 C   0  0  0  0  0  3  0  0  0  0  0  0
  -25.8420  -32.6020   23.8420 C   0  0  0  0  0  3  0  0  0  0  0  0
  -25.5280  -34.0030   24.1620 N   0  0  0  0  0  0  0  0  0  0  0  0
  -25.8630  -35.0510   23.3980 C   0  0  0  0  0  0  0  0  0  0  0  0
  -26.5360  -34.9410   22.3710 O   0  0  0  0  0  0  0  0  0  0  0  0
  -24.9320  -34.1630   24.9610 H   0  0  0  0  0  0  0  0  0  0  0  0
  -24.1410  -36.8440   23.0210 C   0  0  0  0  0  1  0  0  0  0  0  0
  -25.3750  -36.4420   23.8470 C   0  0  0  0  0  3  0  0  0  0  0  0
  -27.5000  -37.3240   24.7000 C   0  0  0  0  0  1  0  0  0  0  0  0
  -26.4110  -37.4930   23.7410 N   0  0  0  0  0  0  0  0  0  0  0  0
  -26.0060  -38.4140   23.8830 H   0  0  0  0  0  0  0  0  0  0  0  0
  -26.3570  -31.8440   25.1270 C   0  0  1  0  0  0  0  0  0  0  0  0
  -25.2590  -31.6090   26.1900 C   0  0  0  0  0  1  0  0  0  0  0  0
  -26.9450  -30.4660   24.7460 C   0  0  0  0  0  1  0  0  0  0  0  0
  -27.5090  -32.6420   25.7810 C   0  0  0  0  0  1  0  0  0  0  0  0
  -29.9540  -18.5360   19.7920 C   0  0  0  0  0  2  0  0  0  0  0  0
  -29.9430  -17.4120   20.9520 C   0  0  0  0  0  2  0  0  0  0  0  0
  -30.5720  -14.8440   20.4290 C   0  0  0  0  0  0  0  0  0  0  0  0
  -30.4230  -12.5800   19.3700 C   0  0  0  0  0  2  0  0  0  0  0  0
  -29.4820  -12.6610   18.1480 C   0  0  0  0  0  2  0  0  0  0  0  0
  -28.0080  -12.4760   18.5730 C   0  0  0  0  0  2  0  0  0  0  0  0
  -27.6260  -13.3420   19.8040 C   0  0  0  0  0  3  0  0  0  0  0  0
  -28.6850  -13.2310   20.9210 C   0  0  0  0  0  2  0  0  0  0  0  0
  -29.9750  -13.6110   20.3300 N   0  0  0  0  0  0  0  0  0  0  0  0
  -31.7670  -14.9890   20.1650 O   0  0  0  0  0  0  0  0  0  0  0  0
  -29.7310  -15.9280   20.6260 N   0  0  0  0  0  0  0  0  0  0  0  0
  -28.7640  -15.6430   20.6760 H   0  0  0  0  0  0  0  0  0  0  0  0
  -25.2300  -13.9180   20.5210 C   0  0  0  0  0  0  0  0  0  0  0  0
  -24.1700  -13.1370   20.8910 C   0  0  0  0  0  0  0  0  0  0  0  0
  -24.6420  -11.7890   20.8610 C   0  0  0  0  0  0  0  0  0  0  0  0
  -26.2830  -13.0440   20.2920 N   0  0  0  0  0  0  0  0  0  0  0  0
  -25.9350  -11.7600   20.5610 N   0  0  0  0  0  0  0  0  0  0  0  0
  -23.9240  -10.5200   21.0430 C   0  0  0  0  0  0  0  0  0  0  0  0
  -24.3510   -9.5610   21.9870 C   0  0  0  0  0  3  0  0  0  0  0  0
  -23.6320   -8.3580   22.1590 C   0  0  0  0  0  3  0  0  0  0  0  0
  -22.4720   -8.1080   21.3890 C   0  0  0  0  0  0  0  0  0  0  0  0
  -22.0660   -9.0560   20.4330 C   0  0  0  0  0  3  0  0  0  0  0  0
  -22.7860  -10.2490   20.2590 C   0  0  0  0  0  3  0  0  0  0  0  0
  -21.7240   -6.9590   21.4700 O   0  0  0  0  0  0  0  0  0  0  0  0
  -21.6540   -6.2260   22.6260 C   0  0  0  0  0  0  0  0  0  0  0  0
  -21.1710   -6.7800   23.8330 C   0  0  0  0  0  3  0  0  0  0  0  0
  -21.0520   -5.9720   24.9800 C   0  0  0  0  0  3  0  0  0  0  0  0
  -21.4040   -4.6100   24.9230 C   0  0  0  0  0  0  0  0  0  0  0  0
  -21.8800   -4.0560   23.7220 C   0  0  0  0  0  3  0  0  0  0  0  0
  -22.0000   -4.8600   22.5760 C   0  0  0  0  0  0  0  0  0  0  0  0
  -22.4380   -4.3160   21.4150 F   0  0  0  0  0  0  0  0  0  0  0  0
  -21.2810   -3.8320   26.0220 F   0  0  0  0  0  0  0  0  0  0  0  0
  -22.7660  -13.6030   21.1510 C   0  0  0  0  0  0  0  0  0  0  0  0
  -22.0300  -12.8950   22.0010 N   0  0  0  0  0  0  0  0  0  0  0  0
  -22.3260  -14.6260   20.6300 O   0  0  0  0  0  0  0  0  0  0  0  0
  -22.3920  -12.0660   22.4480 H   0  0  0  0  0  0  0  0  0  0  0  0
  -21.0880  -13.1880   22.2100 H   0  0  0  0  0  0  0  0  0  0  0  0
  -25.3790  -15.2890   20.3300 N   0  0  0  0  0  0  0  0  0  0  0  0
  -24.5940  -15.9250   20.4030 H   0  0  0  0  0  0  0  0  0  0  0  0
  -26.1960  -15.7230   19.9220 H   0  0  0  0  0  0  0  0  0  0  0  0
  1  2  1  0
  2 13  1  0
  2  4  2  0
  3  1  2  0
  3  5  1  0
  4 11  1  0
  5  4  1  0
  6  8  1  0
  7  8  1  0
  8  3  1  0
 10 11  1  0
 11  9  1  0
 13 12  1  0
 14 15  1  0
 14 13  1  0
 16 27  2  0
 17 15  1  0
 17 22  1  0
 18 26  1  0
 18 28  1  0
 19 25  1  0
 19 21  1  0
 20 26  1  0
 21 22  2  0
 21 20  1  0
 23 24  1  0
 23 17  2  0
 24 19  2  0
 25 18  1  0
 26 16  1  0
 28 30  2  0
 29 28  1  0
 31 29  1  0
 32 41  2  0
 32 37  1  0
 33 29  1  0
 33 37  1  0
 34 33  1  0
 35 36  1  0
 35 34  1  0
 36 32  1  0
 37 38  2  0
 38 39  1  0
 40 39  2  0
 41 40  1  0
 42 16  1  0
 42 43  1  0
 42 52  1  0
 43 46  1  0
 44 48  1  0
 44 43  1  0
 45 44  2  0
 48 47  1  0
 50 48  1  0
 50 51  1  0
 50 49  1  0
 52 55  1  1
 52 53  1  0
 54 52  1  0
 56  5  1  0
 56 57  1  0
 58 66  1  0
 59 64  1  0
 60 61  1  0
 60 59  1  0
 62 61  1  0
 62 71  1  0
 62 63  1  0
 64 58  1  0
 64 63  1  0
 65 58  2  0
 66 67  1  0
 66 57  1  0
 68 69  2  0
 69 88  1  0
 70 69  1  0
 70 73  1  0
 71 68  1  0
 71 72  1  0
 72 70  2  0
 73 74  1  0
 74 75  2  0
 76 79  1  0
 76 75  1  0
 77 76  2  0
 78 77  1  0
 78 73  2  0
 79 80  1  0
 80 81  1  0
 81 82  2  0
 83 82  1  0
 83 87  1  0
 84 83  2  0
 85 80  2  0
 85 84  1  0
 86 85  1  0
 88 89  1  0
 89 92  1  0
 89 91  1  0
 90 88  2  0
 93 94  1  0
 93 68  1  0
 95 93  1  0
M  ISO  4  14 101  15 101  58 100  66 100
M  END
>  <TORSDO>  (63) 
F 22

>  <SCORE>  (63) 
-13.685

>  <name>  (63) 
62

>  <ligand_id>  (63) 
62

>  <original_smiles>  (63) 
[H]c1c([H])c([H])c2c(c1[H])C([H])([H])C([H])([H])C([H])([H])C2([H])N([H])C(=O)C1([H])N(C(=O)C([H])(N([H])C(=O)C([H])(N([H])C([H])([H])[H])C([H])([H])[H])C(C([H])([H])[H])(C([H])([H])[H])C([H])([H])[H])C([H])([H])c2c([H])c(OC([H])([H])C([H])(c3c([H])c(C([H])(C([H])([H])[H])C([H])([H])[H])n(C([H])([H])C([H])([H])N([H])C(=O)N4C([H])([H])C([H])([H])C([H])([H])C([H])(n5nc(-c6c([H])c([H])c(Oc7c([H])c([H])c(F)c([H])c7F)c([H])c6[H])c(C(=O)N([H])[H])c5N([H])[H])C4([H])[H])c3C([H])(C([H])([H])[H])C([H])([H])[H])C([H])([H])[H])c([H])c([H])c2C1([H])[H]

>  <smiles>  (63) 
[H]c1c([H])c([H])c2c(c1[H])C([H])([H])C([H])([H])C([H])([H])C2([H])N([H])C(=O)C1([H])N(C(=O)C([H])(N([H])C(=O)C([H])(N([H])C([H])([H])[H])C([H])([H])[H])C(C([H])([H])[H])(C([H])([H])[H])C([H])([H])[H])C([H])([H])c2c([H])c(OC([H])([H])C([H])(c3c([H])c(C([H])(C([H])([H])[H])C([H])([H])[H])n(C([H])([H])C([H])([H])N([H])C(=O)N4C([H])([H])C([H])([H])C([H])([H])C([H])(n5nc(-c6c([H])c([H])c(Oc7c([H])c([H])c(F)c([H])c7F)c([H])c6[H])c(C(=O)N([H])[H])c5N([H])[H])C4([H])[H])c3C([H])(C([H])([H])[H])C([H])([H])[H])C([H])([H])[H])c([H])c([H])c2C1([H])[H]

$$$$
63:0:0
     RDKit          3D

 93100  0  0  1  0  0  0  0  0999 V2000
  -29.7980  -19.9820   20.1260 C   0  0  1  0  0  0  0  0  0  0  0  0
  -31.4360  -19.8670   18.1330 C   0  0  0  0  0  1  0  0  0  0  0  0
  -29.0440  -19.5880   17.7410 C   0  0  0  0  0  1  0  0  0  0  0  0
  -30.0710  -20.1630   18.6490 N   0  0  1  0  0  4  0  0  0  0  0  0
  -29.9810  -21.1590   18.5140 H   0  0  0  0  0  0  0  0  0  0  0  0
  -31.8570  -21.4930   21.0480 C   0  0  0  0  0  1  0  0  0  0  0  0
  -31.0850  -20.1570   21.0120 C   0  0  0  0  0  2  0  0  0  0  0  0
  -28.6910  -21.1090   20.5050 C   0  0  0  0  0  2  0  0  0  0  0  0
  -29.0460  -22.6800   20.4940 C   0  0  0  0  0  2  0  0  0  0  0  0
  -26.5650  -23.4320   20.6800 C   0  0  0  0  0  1  0  0  0  0  0  0
  -27.9830  -23.8520   20.2430 C   0  0  0  0  0  3  0  0  0  0  0  0
  -28.3640  -25.2580   20.9090 C   0  0  0  0  0  2  0  0  0  0  0  0
  -28.3580  -26.5280   20.1660 O   0  0  0  0  0  0  0  0  0  0  0  0
  -24.6090  -31.8830   23.2290 C   0  0  0  0  0  0  0  0  0  0  0  0
  -27.2250  -27.3350   20.2050 C   0  0  0  0  0  0  0  0  0  0  0  0
  -23.4090  -30.4790   21.5900 C   0  0  0  0  0  3  0  0  0  0  0  0
  -24.8600  -28.9190   20.1830 C   0  0  0  0  0  0  0  0  0  0  0  0
  -25.9450  -30.8080   21.4040 C   0  0  0  0  0  2  0  0  0  0  0  0
  -26.0260  -29.4230   20.7760 C   0  0  0  0  0  0  0  0  0  0  0  0
  -27.2150  -28.6420   20.7780 C   0  0  0  0  0  3  0  0  0  0  0  0
  -26.0430  -26.8720   19.5940 C   0  0  0  0  0  3  0  0  0  0  0  0
  -24.8670  -27.6450   19.5880 C   0  0  0  0  0  3  0  0  0  0  0  0
  -23.6250  -29.7950   20.2130 C   0  0  0  0  0  2  0  0  0  0  0  0
  -24.6730  -31.0740   22.1320 N   0  0  0  0  0  0  0  0  0  0  0  0
  -23.5250  -32.1570   23.7650 O   0  0  0  0  0  0  0  0  0  0  0  0
  -22.7480  -29.4650   22.5540 C   0  0  0  0  0  0  0  0  0  0  0  0
  -21.4210  -29.2910   22.4340 N   0  0  0  0  0  0  0  0  0  0  0  0
  -23.4280  -28.8360   23.3690 O   0  0  0  0  0  0  0  0  0  0  0  0
  -20.9290  -29.8520   21.7520 H   0  0  0  0  0  0  0  0  0  0  0  0
  -18.0430  -28.1140   22.9510 C   0  0  0  0  0  0  0  0  0  0  0  0
  -20.6040  -28.3560   23.2070 C   0  0  0  0  0  3  0  0  0  0  0  0
  -20.6950  -26.9230   22.6300 C   0  0  0  0  0  2  0  0  0  0  0  0
  -19.5850  -26.6090   21.6230 C   0  0  0  0  0  2  0  0  0  0  0  0
  -18.2070  -26.7640   22.2720 C   0  0  0  0  0  2  0  0  0  0  0  0
  -19.1690  -28.8680   23.3760 C   0  0  0  0  0  0  0  0  0  0  0  0
  -18.9610  -30.1330   23.9700 C   0  0  0  0  0  3  0  0  0  0  0  0
  -17.6610  -30.6430   24.1410 C   0  0  0  0  0  3  0  0  0  0  0  0
  -16.5490  -29.8860   23.7320 C   0  0  0  0  0  3  0  0  0  0  0  0
  -16.7410  -28.6240   23.1410 C   0  0  0  0  0  3  0  0  0  0  0  0
  -25.8900  -32.5190   23.8520 C   0  0  0  0  0  3  0  0  0  0  0  0
  -25.5810  -33.9150   24.1810 N   0  0  0  0  0  0  0  0  0  0  0  0
  -25.9110  -34.9700   23.4220 C   0  0  0  0  0  0  0  0  0  0  0  0
  -26.5790  -34.8670   22.3900 O   0  0  0  0  0  0  0  0  0  0  0  0
  -24.9880  -34.0710   24.9840 H   0  0  0  0  0  0  0  0  0  0  0  0
  -24.1790  -36.7580   23.0690 C   0  0  0  0  0  1  0  0  0  0  0  0
  -25.4220  -36.3570   23.8810 C   0  0  0  0  0  3  0  0  0  0  0  0
  -27.5560  -37.2430   24.7120 C   0  0  0  0  0  1  0  0  0  0  0  0
  -26.4540  -37.4110   23.7690 N   0  0  0  0  0  0  0  0  0  0  0  0
  -26.0450  -38.3290   23.9200 H   0  0  0  0  0  0  0  0  0  0  0  0
  -26.4130  -31.7480   25.1260 C   0  0  1  0  0  0  0  0  0  0  0  0
  -25.3210  -31.5120   26.1960 C   0  0  0  0  0  1  0  0  0  0  0  0
  -26.9960  -30.3730   24.7300 C   0  0  0  0  0  1  0  0  0  0  0  0
  -27.5640  -32.5440   25.7870 C   0  0  0  0  0  1  0  0  0  0  0  0
  -29.3070  -18.4570   20.4470 C   0  0  0  0  0  3  0  0  0  0  0  0
  -30.3160  -17.2070   20.2870 C   0  0  0  0  0  3  0  0  0  0  0  0
  -30.6060  -14.6600   20.3300 C   0  0  0  0  0  0  0  0  0  0  0  0
  -30.3580  -12.4230   19.2840 C   0  0  0  0  0  2  0  0  0  0  0  0
  -29.4010  -12.5450   18.0790 C   0  0  0  0  0  2  0  0  0  0  0  0
  -27.9360  -12.3860   18.5320 C   0  0  0  0  0  2  0  0  0  0  0  0
  -27.5930  -13.2530   19.7730 C   0  0  0  0  0  3  0  0  0  0  0  0
  -28.6690  -13.1180   20.8740 C   0  0  0  0  0  2  0  0  0  0  0  0
  -29.9620  -13.4520   20.2670 N   0  0  0  0  0  0  0  0  0  0  0  0
  -31.7860  -14.7630   19.9840 O   0  0  0  0  0  0  0  0  0  0  0  0
  -29.8520  -15.7900   20.5410 N   0  0  0  0  0  0  0  0  0  0  0  0
  -28.8820  -15.6490   20.7830 H   0  0  0  0  0  0  0  0  0  0  0  0
  -25.2140  -13.8450   20.5290 C   0  0  0  0  0  0  0  0  0  0  0  0
  -24.1520  -13.0690   20.9070 C   0  0  0  0  0  0  0  0  0  0  0  0
  -24.6150  -11.7190   20.8660 C   0  0  0  0  0  0  0  0  0  0  0  0
  -26.2550  -12.9670   20.2780 N   0  0  0  0  0  0  0  0  0  0  0  0
  -25.9020  -11.6830   20.5440 N   0  0  0  0  0  0  0  0  0  0  0  0
  -23.8930  -10.4550   21.0590 C   0  0  0  0  0  0  0  0  0  0  0  0
  -24.3430   -9.4820   21.9790 C   0  0  0  0  0  3  0  0  0  0  0  0
  -23.6220   -8.2820   22.1600 C   0  0  0  0  0  3  0  0  0  0  0  0
  -22.4380   -8.0470   21.4220 C   0  0  0  0  0  0  0  0  0  0  0  0
  -22.0080   -9.0070   20.4900 C   0  0  0  0  0  3  0  0  0  0  0  0
  -22.7280  -10.1990   20.3080 C   0  0  0  0  0  3  0  0  0  0  0  0
  -21.6870   -6.9000   21.5140 O   0  0  0  0  0  0  0  0  0  0  0  0
  -21.6640   -6.1450   22.6590 C   0  0  0  0  0  0  0  0  0  0  0  0
  -21.2600   -6.6860   23.9000 C   0  0  0  0  0  3  0  0  0  0  0  0
  -21.1830   -5.8590   25.0380 C   0  0  0  0  0  3  0  0  0  0  0  0
  -21.4990   -4.4900   24.9360 C   0  0  0  0  0  0  0  0  0  0  0  0
  -21.8950   -3.9490   23.7000 C   0  0  0  0  0  3  0  0  0  0  0  0
  -21.9730   -4.7740   22.5650 C   0  0  0  0  0  0  0  0  0  0  0  0
  -22.3360   -4.2430   21.3730 F   0  0  0  0  0  0  0  0  0  0  0  0
  -21.4160   -3.6920   26.0260 F   0  0  0  0  0  0  0  0  0  0  0  0
  -22.7560  -13.5430   21.1940 C   0  0  0  0  0  0  0  0  0  0  0  0
  -22.0390  -12.8420   22.0630 N   0  0  0  0  0  0  0  0  0  0  0  0
  -22.3130  -14.5700   20.6840 O   0  0  0  0  0  0  0  0  0  0  0  0
  -22.4130  -12.0110   22.4980 H   0  0  0  0  0  0  0  0  0  0  0  0
  -21.1020  -13.1380   22.2980 H   0  0  0  0  0  0  0  0  0  0  0  0
  -25.3740  -15.2170   20.3520 N   0  0  0  0  0  0  0  0  0  0  0  0
  -24.6070  -15.8690   20.4780 H   0  0  0  0  0  0  0  0  0  0  0  0
  -26.2080  -15.6520   19.9780 H   0  0  0  0  0  0  0  0  0  0  0  0
  1 54  1  0
  1  8  1  1
  1  7  1  0
  2  4  1  0
  3  4  1  0
  4  1  1  0
  4  5  1  1
  7  6  1  0
  9  8  1  0
 11  9  1  0
 11 10  1  0
 11 12  1  0
 13 15  1  0
 13 12  1  0
 14 25  2  0
 15 20  1  0
 16 24  1  0
 16 26  1  0
 17 23  1  0
 17 19  1  0
 18 24  1  0
 19 20  2  0
 19 18  1  0
 21 15  2  0
 22 21  1  0
 22 17  2  0
 23 16  1  0
 24 14  1  0
 26 28  2  0
 27 26  1  0
 29 27  1  0
 30 39  2  0
 30 35  1  0
 31 27  1  0
 31 35  1  0
 32 31  1  0
 33 34  1  0
 33 32  1  0
 34 30  1  0
 35 36  2  0
 36 37  1  0
 38 37  2  0
 39 38  1  0
 40 14  1  0
 40 41  1  0
 40 50  1  0
 41 44  1  0
 42 46  1  0
 42 41  1  0
 43 42  2  0
 46 45  1  0
 48 46  1  0
 48 49  1  0
 48 47  1  0
 50 53  1  1
 50 51  1  0
 52 50  1  0
 55 54  2  0
 55 64  1  0
 56 64  1  0
 57 62  1  0
 58 59  1  0
 58 57  1  0
 60 59  1  0
 60 69  1  0
 60 61  1  0
 62 56  1  0
 62 61  1  0
 63 56  2  0
 64 65  1  0
 66 67  2  0
 67 86  1  0
 68 67  1  0
 68 71  1  0
 69 66  1  0
 69 70  1  0
 70 68  2  0
 71 72  1  0
 72 73  2  0
 74 77  1  0
 74 73  1  0
 75 74  2  0
 76 75  1  0
 76 71  2  0
 77 78  1  0
 78 79  1  0
 79 80  2  0
 81 80  1  0
 81 85  1  0
 82 81  2  0
 83 78  2  0
 83 82  1  0
 84 83  1  0
 86 87  1  0
 87 90  1  0
 87 89  1  0
 88 86  2  0
 91 92  1  0
 91 66  1  0
 93 91  1  0
M  ISO  4  12 101  13 101  56 100  64 100
M  END
>  <TORSDO>  (64) 
F 24

>  <SCORE>  (64) 
-12.684

>  <name>  (64) 
63

>  <ligand_id>  (64) 
63

>  <original_smiles>  (64) 
[H]c1c([H])c([H])c2c(c1[H])C([H])([H])C([H])([H])C([H])([H])C2([H])N([H])C(=O)C1([H])N(C(=O)C([H])(N([H])C(=O)C([H])(N([H])C([H])([H])[H])C([H])([H])[H])C(C([H])([H])[H])(C([H])([H])[H])C([H])([H])[H])C([H])([H])c2c([H])c(OC([H])([H])C([H])(C([H])([H])[H])C([H])([H])C([H])([H])C(C([H])([H])C([H])([H])[H])(C([H])([H])C([H])([H])N([H])C(=O)N3C([H])([H])C([H])([H])C([H])([H])C([H])(n4nc(-c5c([H])c([H])c(Oc6c([H])c([H])c(F)c([H])c6F)c([H])c5[H])c(C(=O)N([H])[H])c4N([H])[H])C3([H])[H])[N+]([H])(C([H])([H])[H])C([H])([H])[H])c([H])c([H])c2C1([H])[H]

>  <smiles>  (64) 
[H]c1c([H])c([H])c2c(c1[H])C([H])([H])C([H])([H])C([H])([H])C2([H])N([H])C(=O)C1([H])N(C(=O)C([H])(N([H])C(=O)C([H])(N([H])C([H])([H])[H])C([H])([H])[H])C(C([H])([H])[H])(C([H])([H])[H])C([H])([H])[H])C([H])([H])c2c([H])c(OC([H])([H])C([H])(C([H])([H])[H])C([H])([H])C([H])([H])C(C([H])([H])C([H])([H])[H])(C([H])([H])C([H])([H])N([H])C(=O)N3C([H])([H])C([H])([H])C([H])([H])C([H])(n4nc(-c5c([H])c([H])c(Oc6c([H])c([H])c(F)c([H])c6F)c([H])c5[H])c(C(=O)N([H])[H])c4N([H])[H])C3([H])[H])[N+]([H])(C([H])([H])[H])C([H])([H])[H])c([H])c([H])c2C1([H])[H]

$$$$
64:0:0
     RDKit          3D

 90 98  0  0  1  0  0  0  0  0999 V2000
  -30.8110  -20.4680   19.4800 C   0  0  0  0  0  3  0  0  0  0  0  0
  -31.2820  -18.0600   19.5740 C   0  0  0  0  0  3  0  0  0  0  0  0
  -31.6700  -19.3740   19.2380 C   0  0  0  0  0  0  0  0  0  0  0  0
  -29.5450  -20.2750   20.0540 C   0  0  0  0  0  0  0  0  0  0  0  0
  -30.0300  -17.7590   20.1520 C   0  0  0  0  0  0  0  0  0  0  0  0
  -33.0170  -19.6060   18.5810 C   0  0  0  0  0  1  0  0  0  0  0  0
  -29.1930  -18.9140   20.3620 N   0  0  0  0  0  0  0  0  0  0  0  0
  -30.4850  -15.0340   20.2920 C   0  0  0  0  0  0  0  0  0  0  0  0
  -30.3300  -12.6700   19.3800 C   0  0  0  0  0  2  0  0  0  0  0  0
  -29.3950  -12.6390   18.1520 C   0  0  0  0  0  2  0  0  0  0  0  0
  -27.9340  -12.4270   18.5920 C   0  0  0  0  0  2  0  0  0  0  0  0
  -27.5370  -13.3410   19.7840 C   0  0  0  0  0  3  0  0  0  0  0  0
  -28.6060  -13.3690   20.8970 C   0  0  0  0  0  2  0  0  0  0  0  0
  -29.8680  -13.7800   20.2660 N   0  0  0  0  0  0  0  0  0  0  0  0
  -31.6960  -15.0250   20.0390 O   0  0  0  0  0  0  0  0  0  0  0  0
  -29.7410  -16.2580   20.4160 N   0  0  0  0  0  0  0  0  0  0  0  0
  -28.7820  -16.0870   20.6720 H   0  0  0  0  0  0  0  0  0  0  0  0
  -25.1650  -13.9050   20.5630 C   0  0  0  0  0  0  0  0  0  0  0  0
  -24.1040  -13.1270   20.9340 C   0  0  0  0  0  0  0  0  0  0  0  0
  -24.5700  -11.7750   20.8840 C   0  0  0  0  0  0  0  0  0  0  0  0
  -26.2060  -13.0310   20.2990 N   0  0  0  0  0  0  0  0  0  0  0  0
  -25.8580  -11.7430   20.5610 N   0  0  0  0  0  0  0  0  0  0  0  0
  -23.8440  -10.5110   21.0670 C   0  0  0  0  0  0  0  0  0  0  0  0
  -24.2750   -9.5350   21.9920 C   0  0  0  0  0  3  0  0  0  0  0  0
  -23.5440   -8.3400   22.1650 C   0  0  0  0  0  3  0  0  0  0  0  0
  -22.3670   -8.1130   21.4130 C   0  0  0  0  0  0  0  0  0  0  0  0
  -21.9540   -9.0770   20.4760 C   0  0  0  0  0  3  0  0  0  0  0  0
  -22.6870  -10.2630   20.3010 C   0  0  0  0  0  3  0  0  0  0  0  0
  -21.6080   -6.9720   21.4950 O   0  0  0  0  0  0  0  0  0  0  0  0
  -21.5510   -6.2250   22.6430 C   0  0  0  0  0  0  0  0  0  0  0  0
  -21.0990   -6.7680   23.8650 C   0  0  0  0  0  3  0  0  0  0  0  0
  -20.9900   -5.9460   25.0040 C   0  0  0  0  0  3  0  0  0  0  0  0
  -21.3290   -4.5820   24.9210 C   0  0  0  0  0  0  0  0  0  0  0  0
  -21.7760   -4.0380   23.7050 C   0  0  0  0  0  3  0  0  0  0  0  0
  -21.8840   -4.8570   22.5670 C   0  0  0  0  0  0  0  0  0  0  0  0
  -22.2960   -4.3220   21.3910 F   0  0  0  0  0  0  0  0  0  0  0  0
  -21.2190   -3.7890   26.0140 F   0  0  0  0  0  0  0  0  0  0  0  0
  -22.7100  -13.6040   21.2160 C   0  0  0  0  0  0  0  0  0  0  0  0
  -21.9850  -12.9050   22.0840 N   0  0  0  0  0  0  0  0  0  0  0  0
  -22.2710  -14.6340   20.7050 O   0  0  0  0  0  0  0  0  0  0  0  0
  -22.3570  -12.0740   22.5210 H   0  0  0  0  0  0  0  0  0  0  0  0
  -21.0470  -13.2080   22.3120 H   0  0  0  0  0  0  0  0  0  0  0  0
  -25.3270  -15.2770   20.3980 N   0  0  0  0  0  0  0  0  0  0  0  0
  -24.5560  -15.9240   20.5250 H   0  0  0  0  0  0  0  0  0  0  0  0
  -26.1650  -15.7210   20.0450 H   0  0  0  0  0  0  0  0  0  0  0  0
  -28.5620  -21.6160   20.1930 C   0  0  0  0  0  2  0  0  0  0  0  0
  -29.7910  -23.5010   21.5370 C   0  0  0  0  0  1  0  0  0  0  0  0
  -29.0180  -23.2700   20.2360 C   0  0  0  0  0  3  0  0  0  0  0  0
  -27.9790  -24.6140   20.0300 C   0  0  0  0  0  2  0  0  0  0  0  0
  -28.2480  -26.1550   20.2360 O   0  0  0  0  0  0  0  0  0  0  0  0
  -24.6420  -31.9090   23.2420 C   0  0  0  0  0  0  0  0  0  0  0  0
  -27.1980  -27.1600   20.1960 C   0  0  0  0  0  0  0  0  0  0  0  0
  -23.4350  -30.5210   21.6020 C   0  0  0  0  0  3  0  0  0  0  0  0
  -24.8760  -28.9340   20.1790 C   0  0  0  0  0  0  0  0  0  0  0  0
  -25.9930  -30.7640   21.4410 C   0  0  0  0  0  2  0  0  0  0  0  0
  -26.0620  -29.3690   20.7850 C   0  0  0  0  0  0  0  0  0  0  0  0
  -27.2210  -28.4990   20.7760 C   0  0  0  0  0  3  0  0  0  0  0  0
  -25.9800  -26.8310   19.5630 C   0  0  0  0  0  3  0  0  0  0  0  0
  -24.8510  -27.6810   19.5510 C   0  0  0  0  0  3  0  0  0  0  0  0
  -23.6540  -29.8420   20.2240 C   0  0  0  0  0  2  0  0  0  0  0  0
  -24.7110  -31.0870   22.1490 N   0  0  0  0  0  0  0  0  0  0  0  0
  -23.5570  -32.1990   23.7670 O   0  0  0  0  0  0  0  0  0  0  0  0
  -22.7460  -29.5200   22.5640 C   0  0  0  0  0  0  0  0  0  0  0  0
  -21.4160  -29.3590   22.4370 N   0  0  0  0  0  0  0  0  0  0  0  0
  -23.4110  -28.8910   23.3900 O   0  0  0  0  0  0  0  0  0  0  0  0
  -20.9340  -29.9160   21.7460 H   0  0  0  0  0  0  0  0  0  0  0  0
  -18.0270  -28.1820   22.9420 C   0  0  0  0  0  0  0  0  0  0  0  0
  -20.5880  -28.4280   23.2080 C   0  0  0  0  0  3  0  0  0  0  0  0
  -20.6790  -26.9940   22.6330 C   0  0  0  0  0  2  0  0  0  0  0  0
  -19.5730  -26.6810   21.6200 C   0  0  0  0  0  2  0  0  0  0  0  0
  -18.1930  -26.8330   22.2640 C   0  0  0  0  0  2  0  0  0  0  0  0
  -19.1510  -28.9380   23.3720 C   0  0  0  0  0  0  0  0  0  0  0  0
  -18.9380  -30.2000   23.9670 C   0  0  0  0  0  3  0  0  0  0  0  0
  -17.6370  -30.7060   24.1400 C   0  0  0  0  0  3  0  0  0  0  0  0
  -16.5270  -29.9490   23.7230 C   0  0  0  0  0  3  0  0  0  0  0  0
  -16.7240  -28.6880   23.1310 C   0  0  0  0  0  3  0  0  0  0  0  0
  -25.9220  -32.5370   23.8710 C   0  0  0  0  0  3  0  0  0  0  0  0
  -26.4230  -31.7670   25.1550 C   0  0  1  0  0  0  0  0  0  0  0  0
  -25.3210  -31.5420   26.2170 C   0  0  0  0  0  1  0  0  0  0  0  0
  -27.0000  -30.3830   24.7770 C   0  0  0  0  0  1  0  0  0  0  0  0
  -27.5750  -32.5550   25.8220 C   0  0  0  0  0  1  0  0  0  0  0  0
  -25.6160  -33.9370   24.2050 N   0  0  0  0  0  0  0  0  0  0  0  0
  -25.9280  -34.9920   23.4410 C   0  0  0  0  0  0  0  0  0  0  0  0
  -26.5710  -34.8900   22.3920 O   0  0  0  0  0  0  0  0  0  0  0  0
  -25.0390  -34.0890   25.0180 H   0  0  0  0  0  0  0  0  0  0  0  0
  -24.1800  -36.7830   23.1540 C   0  0  0  0  0  1  0  0  0  0  0  0
  -25.4540  -36.3810   23.9130 C   0  0  0  0  0  3  0  0  0  0  0  0
  -27.6130  -37.2860   24.6560 C   0  0  0  0  0  1  0  0  0  0  0  0
  -26.4760  -37.4390   23.7530 N   0  0  0  0  0  0  0  0  0  0  0  0
  -26.0690  -38.3580   23.9090 H   0  0  0  0  0  0  0  0  0  0  0  0
  1  4  1  0
  2  5  2  0
  3  1  2  0
  3  2  1  0
  4 46  1  0
  4  7  2  0
  5  7  1  0
  5 16  1  0
  6  3  1  0
  8 16  1  0
  9 14  1  0
 10 11  1  0
 10  9  1  0
 12 11  1  0
 12 21  1  0
 12 13  1  0
 14  8  1  0
 14 13  1  0
 15  8  2  0
 16 17  1  0
 18 19  2  0
 19 38  1  0
 20 19  1  0
 20 23  1  0
 21 22  1  0
 21 18  1  0
 22 20  2  0
 23 24  1  0
 24 25  2  0
 26 29  1  0
 26 25  1  0
 27 26  2  0
 28 27  1  0
 28 23  2  0
 29 30  1  0
 30 31  1  0
 31 32  2  0
 33 32  1  0
 33 37  1  0
 34 33  2  0
 35 30  2  0
 35 34  1  0
 36 35  1  0
 38 39  1  0
 39 42  1  0
 39 41  1  0
 40 38  2  0
 43 44  1  0
 43 18  1  0
 45 43  1  0
 46 48  1  0
 48 47  1  0
 49 48  1  0
 49 50  1  0
 51 62  2  0
 52 50  1  0
 52 57  1  0
 53 61  1  0
 53 63  1  0
 54 60  1  0
 54 56  1  0
 55 61  1  0
 56 55  1  0
 57 56  2  0
 58 52  2  0
 59 58  1  0
 59 54  2  0
 60 53  1  0
 61 51  1  0
 63 65  2  0
 64 63  1  0
 66 64  1  0
 67 76  2  0
 67 72  1  0
 68 64  1  0
 68 72  1  0
 69 68  1  0
 70 71  1  0
 70 69  1  0
 71 67  1  0
 72 73  2  0
 73 74  1  0
 75 74  2  0
 76 75  1  0
 77 51  1  0
 77 82  1  0
 77 78  1  0
 78 81  1  1
 78 79  1  0
 80 78  1  0
 82 85  1  0
 83 87  1  0
 83 82  1  0
 84 83  2  0
 87 86  1  0
 89 90  1  0
 89 87  1  0
 89 88  1  0
M  ISO  4   8 100  16 100  49 101  50 101
M  END
>  <TORSDO>  (65) 
F 19

>  <SCORE>  (65) 
-15.524

>  <name>  (65) 
64

>  <ligand_id>  (65) 
64

>  <original_smiles>  (65) 
[H]c1c([H])c([H])c2c(c1[H])C([H])([H])C([H])([H])C([H])([H])C2([H])N([H])C(=O)C1([H])N(C(=O)C([H])(N([H])C(=O)C([H])(N([H])C([H])([H])[H])C([H])([H])[H])C(C([H])([H])[H])(C([H])([H])[H])C([H])([H])[H])C([H])([H])c2c([H])c(OC([H])([H])C([H])(C([H])([H])[H])C([H])([H])c3nc(N([H])C(=O)N4C([H])([H])C([H])([H])C([H])([H])C([H])(n5nc(-c6c([H])c([H])c(Oc7c([H])c([H])c(F)c([H])c7F)c([H])c6[H])c(C(=O)N([H])[H])c5N([H])[H])C4([H])[H])c([H])c(C([H])([H])[H])c3[H])c([H])c([H])c2C1([H])[H]

>  <smiles>  (65) 
[H]c1c([H])c([H])c2c(c1[H])C([H])([H])C([H])([H])C([H])([H])C2([H])N([H])C(=O)C1([H])N(C(=O)C([H])(N([H])C(=O)C([H])(N([H])C([H])([H])[H])C([H])([H])[H])C(C([H])([H])[H])(C([H])([H])[H])C([H])([H])[H])C([H])([H])c2c([H])c(OC([H])([H])C([H])(C([H])([H])[H])C([H])([H])c3nc(N([H])C(=O)N4C([H])([H])C([H])([H])C([H])([H])C([H])(n5nc(-c6c([H])c([H])c(Oc7c([H])c([H])c(F)c([H])c7F)c([H])c6[H])c(C(=O)N([H])[H])c5N([H])[H])C4([H])[H])c([H])c(C([H])([H])[H])c3[H])c([H])c([H])c2C1([H])[H]

$$$$
65:0:0
     RDKit          3D

 83 87  0  0  1  0  0  0  0  0999 V2000
  -28.2660  -23.3290   19.9650 C   0  0  0  0  0 15  0  0  0  0  0  0
  -28.1290  -25.1790   20.3750 O   0  0  0  0  0  1  0  0  0  0  0  0
  -24.6210  -31.8080   23.1460 C   0  0  0  0  0  0  0  0  0  0  0  0
  -27.1880  -26.5040   20.2430 C   0  0  0  0  0  0  0  0  0  0  0  0
  -23.4610  -30.3810   21.5180 C   0  0  0  0  0  3  0  0  0  0  0  0
  -24.9310  -28.6810   20.1400 C   0  0  0  0  0  0  0  0  0  0  0  0
  -26.0500  -30.4660   21.4430 C   0  0  0  0  0  2  0  0  0  0  0  0
  -26.1220  -29.0010   20.8000 C   0  0  0  0  0  0  0  0  0  0  0  0
  -27.2170  -27.9460   20.8170 C   0  0  0  0  0  3  0  0  0  0  0  0
  -25.9630  -26.4620   19.5090 C   0  0  0  0  0  3  0  0  0  0  0  0
  -24.9060  -27.4420   19.4700 C   0  0  0  0  0  3  0  0  0  0  0  0
  -23.7270  -29.6530   20.1630 C   0  0  0  0  0  2  0  0  0  0  0  0
  -24.7370  -30.9250   22.0870 N   0  0  0  0  0  0  0  0  0  0  0  0
  -23.5180  -32.1170   23.6340 O   0  0  0  0  0  0  0  0  0  0  0  0
  -22.7220  -29.4320   22.5010 C   0  0  0  0  0  0  0  0  0  0  0  0
  -21.3850  -29.2980   22.3840 N   0  0  0  0  0  0  0  0  0  0  0  0
  -23.3670  -28.8090   23.3480 O   0  0  0  0  0  0  0  0  0  0  0  0
  -20.9100  -29.8490   21.6830 H   0  0  0  0  0  0  0  0  0  0  0  0
  -17.9860  -28.1120   22.9300 C   0  0  0  0  0  0  0  0  0  0  0  0
  -20.5520  -28.3700   23.1640 C   0  0  0  0  0  3  0  0  0  0  0  0
  -20.6370  -26.9350   22.5930 C   0  0  0  0  0  2  0  0  0  0  0  0
  -19.5260  -26.6200   21.5870 C   0  0  0  0  0  2  0  0  0  0  0  0
  -18.1510  -26.7670   22.2440 C   0  0  0  0  0  2  0  0  0  0  0  0
  -19.1130  -28.8720   23.3470 C   0  0  0  0  0  0  0  0  0  0  0  0
  -18.9000  -30.1280   23.9580 C   0  0  0  0  0  3  0  0  0  0  0  0
  -17.5960  -30.6250   24.1490 C   0  0  0  0  0  3  0  0  0  0  0  0
  -16.4860  -29.8640   23.7430 C   0  0  0  0  0  3  0  0  0  0  0  0
  -16.6820  -28.6090   23.1400 C   0  0  0  0  0  3  0  0  0  0  0  0
  -25.8650  -32.4850   23.7990 C   0  0  0  0  0  3  0  0  0  0  0  0
  -25.5220  -33.8870   24.1250 N   0  0  0  0  0  0  0  0  0  0  0  0
  -25.8550  -34.9600   23.3950 C   0  0  0  0  0  0  0  0  0  0  0  0
  -26.5360  -34.8760   22.3700 O   0  0  0  0  0  0  0  0  0  0  0  0
  -24.9130  -34.0240   24.9190 H   0  0  0  0  0  0  0  0  0  0  0  0
  -24.1210  -36.7630   23.0660 C   0  0  0  0  0  1  0  0  0  0  0  0
  -25.3620  -36.3460   23.8710 C   0  0  0  0  0  3  0  0  0  0  0  0
  -27.4880  -37.2420   24.7210 C   0  0  0  0  0  1  0  0  0  0  0  0
  -26.3890  -37.4080   23.7730 N   0  0  0  0  0  0  0  0  0  0  0  0
  -25.9760  -38.3240   23.9250 H   0  0  0  0  0  0  0  0  0  0  0  0
  -26.3530  -31.7470   25.1080 C   0  0  1  0  0  0  0  0  0  0  0  0
  -25.2360  -31.5290   26.1560 C   0  0  0  0  0  1  0  0  0  0  0  0
  -26.9520  -30.3630   24.7790 C   0  0  0  0  0  1  0  0  0  0  0  0
  -27.4850  -32.5620   25.7780 C   0  0  0  0  0  1  0  0  0  0  0  0
  -28.7380  -21.3420   20.5050 C   0  0  0  0  0 15  0  0  0  0  0  0
  -29.0950  -19.4660   18.4200 C   0  0  0  0  0  1  0  0  0  0  0  0
  -29.4180  -19.4360   19.9170 C   0  0  0  0  0  2  0  0  0  0  0  0
  -30.1850  -16.0840   20.1350 C   0  0  0  0  0  0  0  0  0  0  0  0
  -30.3730  -13.4450   19.3550 C   0  0  0  0  0  2  0  0  0  0  0  0
  -29.5040  -12.8800   18.1820 C   0  0  0  0  0  2  0  0  0  0  0  0
  -28.1210  -12.4410   18.6730 C   0  0  0  0  0  2  0  0  0  0  0  0
  -27.5760  -13.4540   19.6990 C   0  0  0  0  0  3  0  0  0  0  0  0
  -28.6000  -13.9130   20.7780 C   0  0  0  0  0  2  0  0  0  0  0  0
  -29.7050  -14.6520   20.0890 N   0  0  0  0  0  0  0  0  0  0  0  0
  -31.4120  -15.9610   19.8980 O   0  0  0  0  0  0  0  0  0  0  0  0
  -29.4460  -17.5530   20.2610 N   0  0  0  0  0  0  0  0  0  0  0  0
  -28.5090  -17.3150   20.5560 H   0  0  0  0  0  0  0  0  0  0  0  0
  -25.2330  -13.9340   20.5180 C   0  0  0  0  0  0  0  0  0  0  0  0
  -24.1900  -13.1410   20.9000 C   0  0  0  0  0  0  0  0  0  0  0  0
  -24.6730  -11.7960   20.8510 C   0  0  0  0  0  0  0  0  0  0  0  0
  -26.2820  -13.0780   20.2500 N   0  0  0  0  0  0  0  0  0  0  0  0
  -25.9620  -11.7810   20.5130 N   0  0  0  0  0  0  0  0  0  0  0  0
  -23.9570  -10.5270   21.0470 C   0  0  0  0  0  0  0  0  0  0  0  0
  -24.4020   -9.5590   21.9740 C   0  0  0  0  0  3  0  0  0  0  0  0
  -23.6780   -8.3610   22.1630 C   0  0  0  0  0  3  0  0  0  0  0  0
  -22.4950   -8.1210   21.4250 C   0  0  0  0  0  0  0  0  0  0  0  0
  -22.0680   -9.0770   20.4870 C   0  0  0  0  0  3  0  0  0  0  0  0
  -22.7910  -10.2670   20.2960 C   0  0  0  0  0  3  0  0  0  0  0  0
  -21.7430   -6.9750   21.5230 O   0  0  0  0  0  0  0  0  0  0  0  0
  -21.7050   -6.2350   22.6780 C   0  0  0  0  0  0  0  0  0  0  0  0
  -21.2770   -6.7880   23.9040 C   0  0  0  0  0  3  0  0  0  0  0  0
  -21.1870   -5.9740   25.0510 C   0  0  0  0  0  3  0  0  0  0  0  0
  -21.5160   -4.6070   24.9730 C   0  0  0  0  0  0  0  0  0  0  0  0
  -21.9370   -4.0530   23.7510 C   0  0  0  0  0  3  0  0  0  0  0  0
  -22.0280   -4.8640   22.6070 C   0  0  0  0  0  0  0  0  0  0  0  0
  -22.4130   -4.3200   21.4270 F   0  0  0  0  0  0  0  0  0  0  0  0
  -21.4230   -3.8230   26.0720 F   0  0  0  0  0  0  0  0  0  0  0  0
  -22.7930  -13.6050   21.1890 C   0  0  0  0  0  0  0  0  0  0  0  0
  -22.0820  -12.9010   22.0610 N   0  0  0  0  0  0  0  0  0  0  0  0
  -22.3440  -14.6300   20.6780 O   0  0  0  0  0  0  0  0  0  0  0  0
  -22.4610  -12.0730   22.4970 H   0  0  0  0  0  0  0  0  0  0  0  0
  -21.1460  -13.1960   22.3000 H   0  0  0  0  0  0  0  0  0  0  0  0
  -25.3740  -15.3080   20.3420 N   0  0  0  0  0  0  0  0  0  0  0  0
  -24.5970  -15.9500   20.4610 H   0  0  0  0  0  0  0  0  0  0  0  0
  -26.2030  -15.7520   19.9730 H   0  0  0  0  0  0  0  0  0  0  0  0
  3 14  2  0
  4  2  1  0
  4  9  1  0
  5 13  1  0
  5 15  1  0
  6 12  1  0
  6  8  1  0
  7 13  1  0
  8  9  2  0
  8  7  1  0
 10  4  2  0
 11 10  1  0
 11  6  2  0
 12  5  1  0
 13  3  1  0
 15 17  2  0
 16 15  1  0
 18 16  1  0
 19 28  2  0
 19 24  1  0
 20 16  1  0
 20 24  1  0
 21 20  1  0
 22 23  1  0
 22 21  1  0
 23 19  1  0
 24 25  2  0
 25 26  1  0
 27 26  2  0
 28 27  1  0
 29  3  1  0
 29 30  1  0
 29 39  1  0
 30 33  1  0
 31 35  1  0
 31 30  1  0
 32 31  2  0
 35 34  1  0
 37 35  1  0
 37 38  1  0
 37 36  1  0
 39 42  1  1
 39 40  1  0
 41 39  1  0
 44 45  1  0
 45 54  1  0
 46 54  1  0
 47 52  1  0
 48 49  1  0
 48 47  1  0
 50 49  1  0
 50 59  1  0
 50 51  1  0
 52 46  1  0
 52 51  1  0
 53 46  2  0
 54 55  1  0
 56 57  2  0
 57 76  1  0
 58 57  1  0
 58 61  1  0
 59 60  1  0
 59 56  1  0
 60 58  2  0
 61 62  1  0
 62 63  2  0
 64 67  1  0
 64 63  1  0
 65 64  2  0
 66 65  1  0
 66 61  2  0
 67 68  1  0
 68 69  1  0
 69 70  2  0
 71 70  1  0
 71 75  1  0
 72 71  2  0
 73 68  2  0
 73 72  1  0
 74 73  1  0
 76 77  1  0
 77 80  1  0
 77 79  1  0
 78 76  2  0
 81 82  1  0
 81 56  1  0
 83 81  1  0
M  ISO  4   1 101   2 101  46 100  54 100
M  END
>  <TORSDO>  (66) 
F 18

>  <SCORE>  (66) 
-16.192

>  <name>  (66) 
65

>  <ligand_id>  (66) 
65

>  <original_smiles>  (66) 
[H]c1c([H])c([H])c2c(c1[H])C([H])([H])C([H])([H])C([H])([H])C2([H])N([H])C(=O)C1([H])N(C(=O)C([H])(N([H])C(=O)C([H])(N([H])C([H])([H])[H])C([H])([H])[H])C(C([H])([H])[H])(C([H])([H])[H])C([H])([H])[H])C([H])([H])c2c([H])c(OC([H])([H])C([H])([H])C([H])(N([H])C(=O)N3C([H])([H])C([H])([H])C([H])([H])C([H])(n4nc(-c5c([H])c([H])c(Oc6c([H])c([H])c(F)c([H])c6F)c([H])c5[H])c(C(=O)N([H])[H])c4N([H])[H])C3([H])[H])C([H])([H])[H])c([H])c([H])c2C1([H])[H]

>  <smiles>  (66) 
[H]c1c([H])c([H])c2c(c1[H])C([H])([H])C([H])([H])C([H])([H])C2([H])N([H])C(=O)C1([H])N(C(=O)C([H])(N([H])C(=O)C([H])(N([H])C([H])([H])[H])C([H])([H])[H])C(C([H])([H])[H])(C([H])([H])[H])C([H])([H])[H])C([H])([H])c2c([H])c(OC([H])([H])C([H])([H])C([H])(N([H])C(=O)N3C([H])([H])C([H])([H])C([H])([H])C([H])(n4nc(-c5c([H])c([H])c(Oc6c([H])c([H])c(F)c([H])c6F)c([H])c5[H])c(C(=O)N([H])[H])c4N([H])[H])C3([H])[H])C([H])([H])[H])c([H])c([H])c2C1([H])[H]

$$$$
66:0:0
     RDKit          3D

 91 99  0  0  1  0  0  0  0  0999 V2000
  -30.1650  -18.9620   21.1950 C   0  0  0  0  0  3  0  0  0  0  0  0
  -30.7440  -19.7060   19.2030 C   0  0  0  0  0  3  0  0  0  0  0  0
  -30.3230  -20.1720   20.4220 C   0  0  0  0  0  0  0  0  0  0  0  0
  -30.4050  -17.8020   20.4540 C   0  0  0  0  0  0  0  0  0  0  0  0
  -30.7730  -18.2950   19.1890 N   0  0  0  0  0  0  0  0  0  0  0  0
  -32.6830  -17.3050   17.9650 C   0  0  0  0  0  1  0  0  0  0  0  0
  -30.6500  -18.1280   16.7000 C   0  0  0  0  0  1  0  0  0  0  0  0
  -31.1580  -17.5060   18.0140 C   0  0  0  0  0  3  0  0  0  0  0  0
  -28.5080  -16.3840   20.9710 C   0  0  0  0  0  1  0  0  0  0  0  0
  -30.0430  -16.3100   20.8650 C   0  0  0  0  0  3  0  0  0  0  0  0
  -30.7200  -14.9610   20.2190 C   0  0  0  0  0  0  0  0  0  0  0  0
  -30.5630  -12.7130   19.0920 C   0  0  0  0  0  2  0  0  0  0  0  0
  -29.5590  -12.8050   17.9130 C   0  0  0  0  0  2  0  0  0  0  0  0
  -28.1030  -12.5850   18.3860 C   0  0  0  0  0  2  0  0  0  0  0  0
  -27.7780  -13.4080   19.6600 C   0  0  0  0  0  3  0  0  0  0  0  0
  -28.8970  -13.1980   20.7120 C   0  0  0  0  0  2  0  0  0  0  0  0
  -30.1440  -13.7010   20.1200 N   0  0  0  0  0  0  0  0  0  0  0  0
  -31.8510  -15.0910   19.7410 O   0  0  0  0  0  0  0  0  0  0  0  0
  -25.4020  -13.9900   20.4560 C   0  0  0  0  0  0  0  0  0  0  0  0
  -24.3530  -13.2040   20.8510 C   0  0  0  0  0  0  0  0  0  0  0  0
  -24.8160  -11.8580   20.7630 C   0  0  0  0  0  0  0  0  0  0  0  0
  -26.4460  -13.1170   20.1810 N   0  0  0  0  0  0  0  0  0  0  0  0
  -26.0960  -11.8290   20.4160 N   0  0  0  0  0  0  0  0  0  0  0  0
  -24.0950  -10.5890   20.9280 C   0  0  0  0  0  0  0  0  0  0  0  0
  -24.5240   -9.6130   21.8570 C   0  0  0  0  0  3  0  0  0  0  0  0
  -23.8020   -8.4110   22.0130 C   0  0  0  0  0  3  0  0  0  0  0  0
  -22.6400   -8.1760   21.2420 C   0  0  0  0  0  0  0  0  0  0  0  0
  -22.2310   -9.1400   20.3030 C   0  0  0  0  0  3  0  0  0  0  0  0
  -22.9530  -10.3330   20.1440 C   0  0  0  0  0  3  0  0  0  0  0  0
  -21.8860   -7.0300   21.3160 O   0  0  0  0  0  0  0  0  0  0  0  0
  -21.7800   -6.3110   22.4790 C   0  0  0  0  0  0  0  0  0  0  0  0
  -21.2510   -6.8750   23.6600 C   0  0  0  0  0  3  0  0  0  0  0  0
  -21.1000   -6.0790   24.8150 C   0  0  0  0  0  3  0  0  0  0  0  0
  -21.4640   -4.7200   24.7870 C   0  0  0  0  0  0  0  0  0  0  0  0
  -21.9850   -4.1560   23.6100 C   0  0  0  0  0  3  0  0  0  0  0  0
  -22.1390   -4.9480   22.4590 C   0  0  0  0  0  0  0  0  0  0  0  0
  -22.6240   -4.3920   21.3220 F   0  0  0  0  0  0  0  0  0  0  0  0
  -21.3090   -3.9550   25.8930 F   0  0  0  0  0  0  0  0  0  0  0  0
  -22.9660  -13.6730   21.1870 C   0  0  0  0  0  0  0  0  0  0  0  0
  -22.2770  -12.9540   22.0680 N   0  0  0  0  0  0  0  0  0  0  0  0
  -22.5050  -14.7050   20.7030 O   0  0  0  0  0  0  0  0  0  0  0  0
  -22.6600  -12.1120   22.4680 H   0  0  0  0  0  0  0  0  0  0  0  0
  -21.3510  -13.2510   22.3450 H   0  0  0  0  0  0  0  0  0  0  0  0
  -25.5300  -15.3610   20.2810 N   0  0  0  0  0  0  0  0  0  0  0  0
  -24.7280  -15.9770   20.3640 H   0  0  0  0  0  0  0  0  0  0  0  0
  -26.3210  -15.8090   19.8360 H   0  0  0  0  0  0  0  0  0  0  0  0
  -30.1500  -21.5070   20.8730 O   0  0  0  0  0  0  0  0  0  0  0  0
  -29.5480  -22.5770   20.0450 C   0  0  0  0  0  3  0  0  0  0  0  0
  -29.5140  -24.0720   20.6610 C   0  0  0  0  0  3  0  0  0  0  0  0
  -28.6250  -25.2180   19.9610 C   0  0  0  0  0  2  0  0  0  0  0  0
  -28.6750  -26.6460   20.4140 O   0  0  0  0  0  0  0  0  0  0  0  0
  -24.7550  -32.0000   23.3160 C   0  0  0  0  0  0  0  0  0  0  0  0
  -27.5300  -27.4710   20.3210 C   0  0  0  0  0  0  0  0  0  0  0  0
  -23.6090  -30.5550   21.6770 C   0  0  0  0  0  3  0  0  0  0  0  0
  -25.1180  -29.0300   20.2800 C   0  0  0  0  0  0  0  0  0  0  0  0
  -26.1440  -30.9330   21.5210 C   0  0  0  0  0  2  0  0  0  0  0  0
  -26.2680  -29.5500   20.8880 C   0  0  0  0  0  0  0  0  0  0  0  0
  -27.4720  -28.7800   20.9030 C   0  0  0  0  0  3  0  0  0  0  0  0
  -26.3560  -27.0190   19.6700 C   0  0  0  0  0  3  0  0  0  0  0  0
  -25.1660  -27.7720   19.6630 C   0  0  0  0  0  3  0  0  0  0  0  0
  -23.8570  -29.8720   20.3080 C   0  0  0  0  0  2  0  0  0  0  0  0
  -24.8540  -31.1840   22.2270 N   0  0  0  0  0  0  0  0  0  0  0  0
  -23.6570  -32.2530   23.8350 O   0  0  0  0  0  0  0  0  0  0  0  0
  -22.9630  -29.5300   22.6390 C   0  0  0  0  0  0  0  0  0  0  0  0
  -21.6500  -29.2890   22.4760 N   0  0  0  0  0  0  0  0  0  0  0  0
  -23.6420  -28.9520   23.4920 O   0  0  0  0  0  0  0  0  0  0  0  0
  -21.1580  -29.8040   21.7610 H   0  0  0  0  0  0  0  0  0  0  0  0
  -18.3160  -27.9580   22.9140 C   0  0  0  0  0  0  0  0  0  0  0  0
  -20.8520  -28.3330   23.2470 C   0  0  0  0  0  3  0  0  0  0  0  0
  -21.0320  -26.8970   22.7050 C   0  0  0  0  0  2  0  0  0  0  0  0
  -19.9730  -26.5050   21.6690 C   0  0  0  0  0  2  0  0  0  0  0  0
  -18.5680  -26.6050   22.2730 C   0  0  0  0  0  2  0  0  0  0  0  0
  -19.3880  -28.7760   23.3580 C   0  0  0  0  0  0  0  0  0  0  0  0
  -19.1000  -30.0390   23.9190 C   0  0  0  0  0  3  0  0  0  0  0  0
  -17.7700  -30.4860   24.0410 C   0  0  0  0  0  3  0  0  0  0  0  0
  -16.7120  -29.6670   23.6120 C   0  0  0  0  0  3  0  0  0  0  0  0
  -16.9840  -28.4050   23.0570 C   0  0  0  0  0  3  0  0  0  0  0  0
  -26.0110  -32.6770   23.9450 C   0  0  0  0  0  3  0  0  0  0  0  0
  -25.6590  -34.0720   24.2490 N   0  0  0  0  0  0  0  0  0  0  0  0
  -25.9600  -35.1200   23.4690 C   0  0  0  0  0  0  0  0  0  0  0  0
  -26.6310  -35.0180   22.4390 O   0  0  0  0  0  0  0  0  0  0  0  0
  -25.0620  -34.2260   25.0480 H   0  0  0  0  0  0  0  0  0  0  0  0
  -24.1750  -36.8530   23.1000 C   0  0  0  0  0  1  0  0  0  0  0  0
  -25.4380  -36.5030   23.9040 C   0  0  0  0  0  3  0  0  0  0  0  0
  -27.5470  -37.4760   24.7000 C   0  0  0  0  0  1  0  0  0  0  0  0
  -26.4380  -37.5840   23.7570 N   0  0  0  0  0  0  0  0  0  0  0  0
  -26.0040  -38.4950   23.8810 H   0  0  0  0  0  0  0  0  0  0  0  0
  -26.5310  -31.9390   25.2400 C   0  0  1  0  0  0  0  0  0  0  0  0
  -25.4180  -31.6530   26.2740 C   0  0  0  0  0  1  0  0  0  0  0  0
  -27.1950  -30.5900   24.8760 C   0  0  0  0  0  1  0  0  0  0  0  0
  -27.6160  -32.7970   25.9300 C   0  0  0  0  0  1  0  0  0  0  0  0
  2  3  2  0
  3 47  1  0
  3  1  1  0
  4 10  1  0
  4  1  2  0
  5  2  1  0
  5  4  1  0
  6  8  1  0
  7  8  1  0
  8  5  1  0
 10  9  1  0
 11 10  1  0
 12 17  1  0
 13 14  1  0
 13 12  1  0
 15 14  1  0
 15 22  1  0
 15 16  1  0
 17 11  1  0
 17 16  1  0
 18 11  2  0
 19 20  2  0
 20 39  1  0
 21 20  1  0
 21 24  1  0
 22 23  1  0
 22 19  1  0
 23 21  2  0
 24 25  1  0
 25 26  2  0
 27 30  1  0
 27 26  1  0
 28 27  2  0
 29 28  1  0
 29 24  2  0
 30 31  1  0
 31 32  1  0
 32 33  2  0
 34 33  1  0
 34 38  1  0
 35 34  2  0
 36 31  2  0
 36 35  1  0
 37 36  1  0
 39 40  1  0
 40 43  1  0
 40 42  1  0
 41 39  2  0
 44 45  1  0
 44 19  1  0
 46 44  1  0
 48 49  2  0
 48 47  1  0
 50 51  1  0
 50 49  1  0
 52 63  2  0
 53 51  1  0
 53 58  1  0
 54 62  1  0
 54 64  1  0
 55 61  1  0
 55 57  1  0
 56 62  1  0
 57 58  2  0
 57 56  1  0
 59 53  2  0
 60 59  1  0
 60 55  2  0
 61 54  1  0
 62 52  1  0
 64 66  2  0
 65 64  1  0
 67 65  1  0
 68 77  2  0
 68 73  1  0
 69 65  1  0
 69 73  1  0
 70 69  1  0
 71 72  1  0
 71 70  1  0
 72 68  1  0
 73 74  2  0
 74 75  1  0
 76 75  2  0
 77 76  1  0
 78 52  1  0
 78 79  1  0
 78 88  1  0
 79 82  1  0
 80 84  1  0
 80 79  1  0
 81 80  2  0
 84 83  1  0
 86 87  1  0
 86 84  1  0
 86 85  1  0
 88 91  1  1
 88 89  1  0
 90 88  1  0
M  ISO  4  10 100  11 100  50 101  51 101
M  END
>  <TORSDO>  (67) 
F 22

>  <SCORE>  (67) 
-12.797

>  <name>  (67) 
66

>  <ligand_id>  (67) 
66

>  <original_smiles>  (67) 
[H]c1c([H])c([H])c2c(c1[H])C([H])([H])C([H])([H])C([H])([H])C2([H])N([H])C(=O)C1([H])N(C(=O)C([H])(N([H])C(=O)C([H])(N([H])C([H])([H])[H])C([H])([H])[H])C(C([H])([H])[H])(C([H])([H])[H])C([H])([H])[H])C([H])([H])c2c([H])c(OC([H])([H])C([H])([H])C([H])([H])Oc3c([H])c(C([H])(C(=O)N4C([H])([H])C([H])([H])C([H])([H])C([H])(n5nc(-c6c([H])c([H])c(Oc7c([H])c([H])c(F)c([H])c7F)c([H])c6[H])c(C(=O)N([H])[H])c5N([H])[H])C4([H])[H])C([H])([H])[H])n(C([H])(C([H])([H])[H])C([H])([H])[H])c3[H])c([H])c([H])c2C1([H])[H]

>  <smiles>  (67) 
[H]c1c([H])c([H])c2c(c1[H])C([H])([H])C([H])([H])C([H])([H])C2([H])N([H])C(=O)C1([H])N(C(=O)C([H])(N([H])C(=O)C([H])(N([H])C([H])([H])[H])C([H])([H])[H])C(C([H])([H])[H])(C([H])([H])[H])C([H])([H])[H])C([H])([H])c2c([H])c(OC([H])([H])C([H])([H])C([H])([H])Oc3c([H])c(C([H])(C(=O)N4C([H])([H])C([H])([H])C([H])([H])C([H])(n5nc(-c6c([H])c([H])c(Oc7c([H])c([H])c(F)c([H])c7F)c([H])c6[H])c(C(=O)N([H])[H])c5N([H])[H])C4([H])[H])C([H])([H])[H])n(C([H])(C([H])([H])[H])C([H])([H])[H])c3[H])c([H])c([H])c2C1([H])[H]

$$$$
67:0:0
     RDKit          3D

 93100  0  0  1  0  0  0  0  0999 V2000
  -28.1420  -20.2810   21.1090 C   0  0  0  0  0  1  0  0  0  0  0  0
  -29.3830  -20.6160   20.2680 C   0  0  2  0  0  0  0  0  0  0  0  0
  -30.5580  -22.2520   22.0080 C   0  0  0  0  0  1  0  0  0  0  0  0
  -30.8660  -19.8360   22.2550 C   0  0  0  0  0  1  0  0  0  0  0  0
  -30.6650  -20.9370   21.1840 C   0  0  1  0  0  0  0  0  0  0  0  0
  -31.9450  -20.9680   20.4000 N   0  0  0  0  0  4  0  0  0  0  0  0
  -32.6790  -21.1050   21.0770 H   0  0  0  0  0  0  0  0  0  0  0  0
  -32.1100  -20.0600   19.9960 H   0  0  0  0  0  0  0  0  0  0  0  0
  -31.8390  -21.4290   17.9400 C   0  0  0  0  0  1  0  0  0  0  0  0
  -33.6160  -22.5220   19.3700 C   0  0  0  0  0  1  0  0  0  0  0  0
  -32.1710  -21.9890   19.3380 C   0  0  0  0  0  3  0  0  0  0  0  0
  -28.8760  -22.3640   19.6170 C   0  0  0  0  0  2  0  0  0  0  0  0
  -28.1940  -24.0450   20.2440 C   0  0  0  0  0  2  0  0  0  0  0  0
  -28.2790  -25.7630   20.0020 O   0  0  0  0  0  0  0  0  0  0  0  0
  -24.7030  -31.8790   23.1350 C   0  0  0  0  0  0  0  0  0  0  0  0
  -27.2500  -26.9050   20.0550 C   0  0  0  0  0  0  0  0  0  0  0  0
  -23.5000  -30.4780   21.5120 C   0  0  0  0  0  3  0  0  0  0  0  0
  -24.9370  -28.8600   20.0650 C   0  0  0  0  0  0  0  0  0  0  0  0
  -26.0710  -30.6690   21.3330 C   0  0  0  0  0  2  0  0  0  0  0  0
  -26.1440  -29.2460   20.6690 C   0  0  0  0  0  0  0  0  0  0  0  0
  -27.2860  -28.2980   20.6250 C   0  0  0  0  0  3  0  0  0  0  0  0
  -26.0010  -26.7070   19.4170 C   0  0  0  0  0  3  0  0  0  0  0  0
  -24.9020  -27.6140   19.4140 C   0  0  0  0  0  3  0  0  0  0  0  0
  -23.7170  -29.7880   20.1350 C   0  0  0  0  0  2  0  0  0  0  0  0
  -24.7830  -31.0400   22.0460 N   0  0  0  0  0  0  0  0  0  0  0  0
  -23.6140  -32.1620   23.6680 O   0  0  0  0  0  0  0  0  0  0  0  0
  -22.8130  -29.4880   22.4890 C   0  0  0  0  0  0  0  0  0  0  0  0
  -21.4810  -29.3150   22.3800 N   0  0  0  0  0  0  0  0  0  0  0  0
  -23.4910  -28.8680   23.3100 O   0  0  0  0  0  0  0  0  0  0  0  0
  -20.9850  -29.8690   21.6970 H   0  0  0  0  0  0  0  0  0  0  0  0
  -18.1200  -28.0470   22.9310 C   0  0  0  0  0  0  0  0  0  0  0  0
  -20.6780  -28.3640   23.1600 C   0  0  0  0  0  3  0  0  0  0  0  0
  -20.7980  -26.9310   22.5880 C   0  0  0  0  0  2  0  0  0  0  0  0
  -19.6910  -26.5890   21.5850 C   0  0  0  0  0  2  0  0  0  0  0  0
  -18.3160  -26.7060   22.2460 C   0  0  0  0  0  2  0  0  0  0  0  0
  -19.2290  -28.8330   23.3450 C   0  0  0  0  0  0  0  0  0  0  0  0
  -18.9900  -30.0850   23.9510 C   0  0  0  0  0  3  0  0  0  0  0  0
  -17.6770  -30.5550   24.1420 C   0  0  0  0  0  3  0  0  0  0  0  0
  -16.5840  -29.7670   23.7400 C   0  0  0  0  0  3  0  0  0  0  0  0
  -16.8070  -28.5150   23.1410 C   0  0  0  0  0  3  0  0  0  0  0  0
  -25.9710  -32.5380   23.7570 C   0  0  0  0  0  3  0  0  0  0  0  0
  -25.6400  -33.9370   24.0990 N   0  0  0  0  0  0  0  0  0  0  0  0
  -25.9750  -35.0080   23.3680 C   0  0  0  0  0  0  0  0  0  0  0  0
  -26.6510  -34.9240   22.3400 O   0  0  0  0  0  0  0  0  0  0  0  0
  -25.0320  -34.0730   24.8930 H   0  0  0  0  0  0  0  0  0  0  0  0
  -24.2570  -36.8220   23.0390 C   0  0  0  0  0  1  0  0  0  0  0  0
  -25.4900  -36.3910   23.8500 C   0  0  0  0  0  3  0  0  0  0  0  0
  -27.6170  -37.2610   24.7210 C   0  0  0  0  0  1  0  0  0  0  0  0
  -26.5260  -37.4460   23.7670 N   0  0  0  0  0  0  0  0  0  0  0  0
  -26.1190  -38.3630   23.9270 H   0  0  0  0  0  0  0  0  0  0  0  0
  -26.4910  -31.7810   25.0430 C   0  0  1  0  0  0  0  0  0  0  0  0
  -25.4030  -31.5430   26.1180 C   0  0  0  0  0  1  0  0  0  0  0  0
  -27.0800  -30.4030   24.6710 C   0  0  0  0  0  1  0  0  0  0  0  0
  -27.6410  -32.5870   25.6900 C   0  0  0  0  0  1  0  0  0  0  0  0
  -29.7900  -18.8700   19.5230 C   0  0  0  0  0  2  0  0  0  0  0  0
  -30.4360  -15.7770   19.7640 C   0  0  0  0  0  0  0  0  0  0  0  0
  -30.4390  -13.2370   18.9640 C   0  0  0  0  0  2  0  0  0  0  0  0
  -29.4820  -12.8710   17.7940 C   0  0  0  0  0  2  0  0  0  0  0  0
  -28.0850  -12.5180   18.3250 C   0  0  0  0  0  2  0  0  0  0  0  0
  -27.6390  -13.5090   19.4260 C   0  0  0  0  0  3  0  0  0  0  0  0
  -28.7320  -13.8260   20.4780 C   0  0  0  0  0  2  0  0  0  0  0  0
  -29.8870  -14.4220   19.7630 N   0  0  0  0  0  0  0  0  0  0  0  0
  -31.6340  -15.7120   19.4400 O   0  0  0  0  0  0  0  0  0  0  0  0
  -29.7220  -17.1450   19.9310 N   0  0  0  0  0  0  0  0  0  0  0  0
  -28.7860  -16.9470   20.2560 H   0  0  0  0  0  0  0  0  0  0  0  0
  -25.3250  -14.0130   20.3420 C   0  0  0  0  0  0  0  0  0  0  0  0
  -24.2930  -13.2250   20.7560 C   0  0  0  0  0  0  0  0  0  0  0  0
  -24.7640  -11.8770   20.6740 C   0  0  0  0  0  0  0  0  0  0  0  0
  -26.3560  -13.1550   20.0200 N   0  0  0  0  0  0  0  0  0  0  0  0
  -26.0370  -11.8580   20.2870 N   0  0  0  0  0  0  0  0  0  0  0  0
  -24.0510  -10.6100   20.8860 C   0  0  0  0  0  0  0  0  0  0  0  0
  -24.5030   -9.6500   21.8200 C   0  0  0  0  0  3  0  0  0  0  0  0
  -23.7820   -8.4530   22.0220 C   0  0  0  0  0  3  0  0  0  0  0  0
  -22.5960   -8.2050   21.2910 C   0  0  0  0  0  0  0  0  0  0  0  0
  -22.1620   -9.1530   20.3490 C   0  0  0  0  0  3  0  0  0  0  0  0
  -22.8820  -10.3410   20.1450 C   0  0  0  0  0  3  0  0  0  0  0  0
  -21.8480   -7.0560   21.4020 O   0  0  0  0  0  0  0  0  0  0  0  0
  -21.7920   -6.3420   22.5710 C   0  0  0  0  0  0  0  0  0  0  0  0
  -21.3120   -6.9150   23.7700 C   0  0  0  0  0  3  0  0  0  0  0  0
  -21.2020   -6.1260   24.9330 C   0  0  0  0  0  3  0  0  0  0  0  0
  -21.5660   -4.7670   24.8990 C   0  0  0  0  0  0  0  0  0  0  0  0
  -22.0380   -4.1940   23.7060 C   0  0  0  0  0  3  0  0  0  0  0  0
  -22.1480   -4.9790   22.5450 C   0  0  0  0  0  0  0  0  0  0  0  0
  -22.5840   -4.4160   21.3910 F   0  0  0  0  0  0  0  0  0  0  0  0
  -21.4530   -4.0060   26.0140 F   0  0  0  0  0  0  0  0  0  0  0  0
  -22.9110  -13.6920   21.1090 C   0  0  0  0  0  0  0  0  0  0  0  0
  -22.2300  -12.9820   21.9990 N   0  0  0  0  0  0  0  0  0  0  0  0
  -22.4470  -14.7270   20.6290 O   0  0  0  0  0  0  0  0  0  0  0  0
  -22.6190  -12.1440   22.4060 H   0  0  0  0  0  0  0  0  0  0  0  0
  -21.3080  -13.2840   22.2790 H   0  0  0  0  0  0  0  0  0  0  0  0
  -25.4670  -15.3910   20.1810 N   0  0  0  0  0  0  0  0  0  0  0  0
  -24.6990  -16.0320   20.3520 H   0  0  0  0  0  0  0  0  0  0  0  0
  -26.2880  -15.8460   19.8050 H   0  0  0  0  0  0  0  0  0  0  0  0
  2  1  1  1
  2  5  1  0
  5  3  1  1
  5  4  1  0
  6  7  1  0
  6  5  1  0
  8  6  1  0
  9 11  1  0
 11 10  1  0
 11  6  1  0
 12 13  1  0
 12  2  1  0
 14 16  1  0
 14 13  1  0
 15 26  2  0
 16 21  1  0
 17 25  1  0
 17 27  1  0
 18 24  1  0
 18 20  1  0
 19 25  1  0
 20 19  1  0
 21 20  2  0
 22 16  2  0
 23 22  1  0
 23 18  2  0
 24 17  1  0
 25 15  1  0
 27 29  2  0
 28 27  1  0
 30 28  1  0
 31 40  2  0
 31 36  1  0
 32 28  1  0
 32 36  1  0
 33 32  1  0
 34 35  1  0
 34 33  1  0
 35 31  1  0
 36 37  2  0
 37 38  1  0
 39 38  2  0
 40 39  1  0
 41 15  1  0
 41 42  1  0
 41 51  1  0
 42 45  1  0
 43 47  1  0
 43 42  1  0
 44 43  2  0
 47 46  1  0
 49 47  1  0
 49 50  1  0
 49 48  1  0
 51 54  1  1
 51 52  1  0
 53 51  1  0
 55 64  1  0
 55  2  1  0
 56 64  1  0
 57 62  1  0
 58 59  1  0
 58 57  1  0
 60 59  1  0
 60 69  1  0
 60 61  1  0
 62 56  1  0
 62 61  1  0
 63 56  2  0
 64 65  1  0
 66 67  2  0
 67 86  1  0
 68 67  1  0
 68 71  1  0
 69 70  1  0
 69 66  1  0
 70 68  2  0
 71 72  1  0
 72 73  2  0
 74 77  1  0
 74 73  1  0
 75 74  2  0
 76 75  1  0
 76 71  2  0
 77 78  1  0
 78 79  1  0
 79 80  2  0
 81 80  1  0
 81 85  1  0
 82 81  2  0
 83 78  2  0
 83 82  1  0
 84 83  1  0
 86 87  1  0
 87 90  1  0
 87 89  1  0
 88 86  2  0
 91 66  1  0
 91 92  1  0
 93 91  1  0
M  ISO  4  13 101  14 101  56 100  64 100
M  END
>  <TORSDO>  (68) 
F 22

>  <SCORE>  (68) 
-14.657

>  <name>  (68) 
67

>  <ligand_id>  (68) 
67

>  <original_smiles>  (68) 
[H]c1c([H])c([H])c2c(c1[H])C([H])([H])C([H])([H])C([H])([H])C2([H])N([H])C(=O)C1([H])N(C(=O)C([H])(N([H])C(=O)C([H])(N([H])C([H])([H])[H])C([H])([H])[H])C(C([H])([H])[H])(C([H])([H])[H])C([H])([H])[H])C([H])([H])c2c([H])c(OC([H])([H])C([H])([H])C(C([H])([H])[H])(C([H])([H])N([H])C(=O)N3C([H])([H])C([H])([H])C([H])([H])C([H])(n4nc(-c5c([H])c([H])c(Oc6c([H])c([H])c(F)c([H])c6F)c([H])c5[H])c(C(=O)N([H])[H])c4N([H])[H])C3([H])[H])C(C([H])([H])[H])(C([H])([H])[H])[N+]([H])([H])C([H])(C([H])([H])[H])C([H])([H])[H])c([H])c([H])c2C1([H])[H]

>  <smiles>  (68) 
[H]c1c([H])c([H])c2c(c1[H])C([H])([H])C([H])([H])C([H])([H])C2([H])N([H])C(=O)C1([H])N(C(=O)C([H])(N([H])C(=O)C([H])(N([H])C([H])([H])[H])C([H])([H])[H])C(C([H])([H])[H])(C([H])([H])[H])C([H])([H])[H])C([H])([H])c2c([H])c(OC([H])([H])C([H])([H])C(C([H])([H])[H])(C([H])([H])N([H])C(=O)N3C([H])([H])C([H])([H])C([H])([H])C([H])(n4nc(-c5c([H])c([H])c(Oc6c([H])c([H])c(F)c([H])c6F)c([H])c5[H])c(C(=O)N([H])[H])c4N([H])[H])C3([H])[H])C(C([H])([H])[H])(C([H])([H])[H])[N+]([H])([H])C([H])(C([H])([H])[H])C([H])([H])[H])c([H])c([H])c2C1([H])[H]

$$$$
68:0:0
     RDKit          3D

 84 88  0  0  1  0  0  0  0  0999 V2000
  -28.3930  -23.3790   19.8880 C   0  0  0  0  0 15  0  0  0  0  0  0
  -30.0310  -21.6830   21.4170 C   0  0  0  0  0  1  0  0  0  0  0  0
  -27.6180  -21.0420   21.2730 C   0  0  0  0  0  1  0  0  0  0  0  0
  -28.8670  -21.3980   20.4560 C   0  0  0  0  0  2  0  0  0  0  0  0
  -29.4560  -19.4750   19.8290 C   0  0  0  0  0  1  0  0  0  0  0  0
  -30.2070  -16.1150   20.0280 C   0  0  0  0  0  0  0  0  0  0  0  0
  -30.3640  -13.4810   19.2300 C   0  0  0  0  0  2  0  0  0  0  0  0
  -29.4800  -12.9230   18.0630 C   0  0  0  0  0  2  0  0  0  0  0  0
  -28.0950  -12.4960   18.5650 C   0  0  0  0  0  2  0  0  0  0  0  0
  -27.5700  -13.5120   19.5980 C   0  0  0  0  0  3  0  0  0  0  0  0
  -28.6050  -13.9520   20.6720 C   0  0  0  0  0  2  0  0  0  0  0  0
  -29.7120  -14.6880   19.9790 N   0  0  0  0  0  0  0  0  0  0  0  0
  -31.4310  -15.9810   19.7820 O   0  0  0  0  0  0  0  0  0  0  0  0
  -29.4850  -17.5910   20.1660 N   0  0  0  0  0  0  0  0  0  0  0  0
  -28.5490  -17.3600   20.4680 H   0  0  0  0  0  0  0  0  0  0  0  0
  -25.2340  -14.0180   20.4290 C   0  0  0  0  0  0  0  0  0  0  0  0
  -24.1850  -13.2370   20.8160 C   0  0  0  0  0  0  0  0  0  0  0  0
  -24.6540  -11.8870   20.7660 C   0  0  0  0  0  0  0  0  0  0  0  0
  -26.2730  -13.1520   20.1550 N   0  0  0  0  0  0  0  0  0  0  0  0
  -25.9410  -11.8590   20.4230 N   0  0  0  0  0  0  0  0  0  0  0  0
  -23.9260  -10.6250   20.9680 C   0  0  0  0  0  0  0  0  0  0  0  0
  -24.3690   -9.6540   21.8950 C   0  0  0  0  0  3  0  0  0  0  0  0
  -23.6340   -8.4640   22.0920 C   0  0  0  0  0  3  0  0  0  0  0  0
  -22.4440   -8.2350   21.3610 C   0  0  0  0  0  0  0  0  0  0  0  0
  -22.0190   -9.1950   20.4250 C   0  0  0  0  0  3  0  0  0  0  0  0
  -22.7530  -10.3760   20.2260 C   0  0  0  0  0  3  0  0  0  0  0  0
  -21.6810   -7.0960   21.4650 O   0  0  0  0  0  0  0  0  0  0  0  0
  -21.6450   -6.3560   22.6190 C   0  0  0  0  0  0  0  0  0  0  0  0
  -21.2390   -6.9140   23.8500 C   0  0  0  0  0  3  0  0  0  0  0  0
  -21.1520   -6.1010   24.9970 C   0  0  0  0  0  3  0  0  0  0  0  0
  -21.4600   -4.7300   24.9150 C   0  0  0  0  0  0  0  0  0  0  0  0
  -21.8580   -4.1710   23.6880 C   0  0  0  0  0  3  0  0  0  0  0  0
  -21.9490   -4.9810   22.5430 C   0  0  0  0  0  0  0  0  0  0  0  0
  -22.3130   -4.4320   21.3580 F   0  0  0  0  0  0  0  0  0  0  0  0
  -21.3680   -3.9470   26.0160 F   0  0  0  0  0  0  0  0  0  0  0  0
  -22.7950  -13.7160   21.1110 C   0  0  0  0  0  0  0  0  0  0  0  0
  -22.0850  -13.0310   21.9980 N   0  0  0  0  0  0  0  0  0  0  0  0
  -22.3500  -14.7400   20.5910 O   0  0  0  0  0  0  0  0  0  0  0  0
  -22.4620  -12.2080   22.4430 H   0  0  0  0  0  0  0  0  0  0  0  0
  -21.1530  -13.3370   22.2370 H   0  0  0  0  0  0  0  0  0  0  0  0
  -25.3910  -15.3880   20.2500 N   0  0  0  0  0  0  0  0  0  0  0  0
  -24.6260  -16.0420   20.3740 H   0  0  0  0  0  0  0  0  0  0  0  0
  -26.2260  -15.8190   19.8760 H   0  0  0  0  0  0  0  0  0  0  0  0
  -28.2260  -25.2270   20.3080 O   0  0  0  0  0  1  0  0  0  0  0  0
  -24.7120  -31.8280   23.1410 C   0  0  0  0  0  0  0  0  0  0  0  0
  -27.2760  -26.5470   20.1900 C   0  0  0  0  0  0  0  0  0  0  0  0
  -23.5420  -30.4050   21.5170 C   0  0  0  0  0  3  0  0  0  0  0  0
  -25.0060  -28.7140   20.1230 C   0  0  0  0  0  0  0  0  0  0  0  0
  -26.1300  -30.4980   21.4210 C   0  0  0  0  0  2  0  0  0  0  0  0
  -26.2030  -29.0370   20.7690 C   0  0  0  0  0  0  0  0  0  0  0  0
  -27.3030  -27.9880   20.7700 C   0  0  0  0  0  3  0  0  0  0  0  0
  -26.0430  -26.5040   19.4680 C   0  0  0  0  0  3  0  0  0  0  0  0
  -24.9800  -27.4770   19.4470 C   0  0  0  0  0  3  0  0  0  0  0  0
  -23.7980  -29.6820   20.1590 C   0  0  0  0  0  2  0  0  0  0  0  0
  -24.8210  -30.9510   22.0760 N   0  0  0  0  0  0  0  0  0  0  0  0
  -23.6130  -32.1310   23.6400 O   0  0  0  0  0  0  0  0  0  0  0  0
  -22.8120  -29.4500   22.5020 C   0  0  0  0  0  0  0  0  0  0  0  0
  -21.4760  -29.3040   22.3900 N   0  0  0  0  0  0  0  0  0  0  0  0
  -23.4660  -28.8330   23.3460 O   0  0  0  0  0  0  0  0  0  0  0  0
  -20.9930  -29.8530   21.6920 H   0  0  0  0  0  0  0  0  0  0  0  0
  -18.0920  -28.0800   22.9390 C   0  0  0  0  0  0  0  0  0  0  0  0
  -20.6540  -28.3700   23.1740 C   0  0  0  0  0  3  0  0  0  0  0  0
  -20.7580  -26.9340   22.6090 C   0  0  0  0  0  2  0  0  0  0  0  0
  -19.6510  -26.6010   21.6030 C   0  0  0  0  0  2  0  0  0  0  0  0
  -18.2740  -26.7340   22.2580 C   0  0  0  0  0  2  0  0  0  0  0  0
  -19.2090  -28.8560   23.3540 C   0  0  0  0  0  0  0  0  0  0  0  0
  -18.9800  -30.1110   23.9600 C   0  0  0  0  0  3  0  0  0  0  0  0
  -17.6700  -30.5930   24.1470 C   0  0  0  0  0  3  0  0  0  0  0  0
  -16.5700  -29.8170   23.7420 C   0  0  0  0  0  3  0  0  0  0  0  0
  -16.7820  -28.5600   23.1460 C   0  0  0  0  0  3  0  0  0  0  0  0
  -25.9590  -32.5060   23.7860 C   0  0  0  0  0  3  0  0  0  0  0  0
  -25.6110  -33.9030   24.1290 N   0  0  0  0  0  0  0  0  0  0  0  0
  -25.9300  -34.9840   23.4050 C   0  0  0  0  0  0  0  0  0  0  0  0
  -26.5950  -34.9120   22.3700 O   0  0  0  0  0  0  0  0  0  0  0  0
  -25.0140  -34.0310   24.9330 H   0  0  0  0  0  0  0  0  0  0  0  0
  -24.1730  -36.7730   23.1230 C   0  0  0  0  0  1  0  0  0  0  0  0
  -25.4350  -36.3620   23.8990 C   0  0  0  0  0  3  0  0  0  0  0  0
  -27.5710  -37.2690   24.7100 C   0  0  0  0  0  1  0  0  0  0  0  0
  -26.4520  -37.4330   23.7870 N   0  0  0  0  0  0  0  0  0  0  0  0
  -26.0360  -38.3460   23.9520 H   0  0  0  0  0  0  0  0  0  0  0  0
  -26.4680  -31.7590   25.0820 C   0  0  1  0  0  0  0  0  0  0  0  0
  -25.3620  -31.5250   26.1400 C   0  0  0  0  0  1  0  0  0  0  0  0
  -27.0660  -30.3780   24.7330 C   0  0  0  0  0  1  0  0  0  0  0  0
  -27.6060  -32.5710   25.7450 C   0  0  0  0  0  1  0  0  0  0  0  0
  4  3  1  0
  4  2  1  0
  5 14  1  0
  6 14  1  0
  7 12  1  0
  8  9  1  0
  8  7  1  0
 10  9  1  0
 10 19  1  0
 10 11  1  0
 12  6  1  0
 12 11  1  0
 13  6  2  0
 14 15  1  0
 16 17  2  0
 17 36  1  0
 18 17  1  0
 18 21  1  0
 19 20  1  0
 19 16  1  0
 20 18  2  0
 21 22  1  0
 22 23  2  0
 24 27  1  0
 24 23  1  0
 25 24  2  0
 26 25  1  0
 26 21  2  0
 27 28  1  0
 28 29  1  0
 29 30  2  0
 31 30  1  0
 31 35  1  0
 32 31  2  0
 33 28  2  0
 33 32  1  0
 34 33  1  0
 36 37  1  0
 37 40  1  0
 37 39  1  0
 38 36  2  0
 41 42  1  0
 41 16  1  0
 43 41  1  0
 45 56  2  0
 46 44  1  0
 46 51  1  0
 47 55  1  0
 47 57  1  0
 48 54  1  0
 48 50  1  0
 49 55  1  0
 50 51  2  0
 50 49  1  0
 52 46  2  0
 53 52  1  0
 53 48  2  0
 54 47  1  0
 55 45  1  0
 57 59  2  0
 58 57  1  0
 60 58  1  0
 61 70  2  0
 61 66  1  0
 62 58  1  0
 62 66  1  0
 63 62  1  0
 64 65  1  0
 64 63  1  0
 65 61  1  0
 66 67  2  0
 67 68  1  0
 69 68  2  0
 70 69  1  0
 71 45  1  0
 71 72  1  0
 71 81  1  0
 72 75  1  0
 73 77  1  0
 73 72  1  0
 74 73  2  0
 77 76  1  0
 79 77  1  0
 79 80  1  0
 79 78  1  0
 81 84  1  1
 81 82  1  0
 83 81  1  0
M  ISO  4   1 101   6 100  14 100  44 101
M  END
>  <TORSDO>  (69) 
F 18

>  <SCORE>  (69) 
-15.543

>  <name>  (69) 
68

>  <ligand_id>  (69) 
68

>  <original_smiles>  (69) 
[H]c1c([H])c([H])c2c(c1[H])C([H])([H])C([H])([H])C([H])([H])C2([H])N([H])C(=O)C1([H])N(C(=O)C([H])(N([H])C(=O)C([H])(N([H])C([H])([H])[H])C([H])([H])[H])C(C([H])([H])[H])(C([H])([H])[H])C([H])([H])[H])C([H])([H])c2c([H])c(OC([H])([H])C(C([H])([H])[H])(C([H])([H])[H])C([H])([H])N([H])C(=O)N3C([H])([H])C([H])([H])C([H])([H])C([H])(n4nc(-c5c([H])c([H])c(Oc6c([H])c([H])c(F)c([H])c6F)c([H])c5[H])c(C(=O)N([H])[H])c4N([H])[H])C3([H])[H])c([H])c([H])c2C1([H])[H]

>  <smiles>  (69) 
[H]c1c([H])c([H])c2c(c1[H])C([H])([H])C([H])([H])C([H])([H])C2([H])N([H])C(=O)C1([H])N(C(=O)C([H])(N([H])C(=O)C([H])(N([H])C([H])([H])[H])C([H])([H])[H])C(C([H])([H])[H])(C([H])([H])[H])C([H])([H])[H])C([H])([H])c2c([H])c(OC([H])([H])C(C([H])([H])[H])(C([H])([H])[H])C([H])([H])N([H])C(=O)N3C([H])([H])C([H])([H])C([H])([H])C([H])(n4nc(-c5c([H])c([H])c(Oc6c([H])c([H])c(F)c([H])c6F)c([H])c5[H])c(C(=O)N([H])[H])c4N([H])[H])C3([H])[H])c([H])c([H])c2C1([H])[H]

$$$$
69:0:0
     RDKit          3D

 89 97  0  0  1  0  0  0  0  0999 V2000
  -28.9980  -20.4910   20.8290 C   0  0  0  0  0  3  0  0  0  0  0  0
  -29.7780  -21.4570   19.0490 C   0  0  0  0  0  3  0  0  0  0  0  0
  -28.9690  -21.8080   20.1020 C   0  0  0  0  0  0  0  0  0  0  0  0
  -29.7650  -19.4330   20.2270 C   0  0  0  0  0  0  0  0  0  0  0  0
  -31.1030  -19.5640   18.0880 C   0  0  0  0  0  1  0  0  0  0  0  0
  -30.2260  -20.1240   19.1010 N   0  0  0  0  0  0  0  0  0  0  0  0
  -26.7370  -22.9810   20.7490 C   0  0  0  0  0  1  0  0  0  0  0  0
  -28.1270  -23.2780   20.1700 C   0  0  0  0  0  3  0  0  0  0  0  0
  -28.5790  -24.8160   20.7440 C   0  0  0  0  0  2  0  0  0  0  0  0
  -28.3930  -26.2870   20.2060 O   0  0  0  0  0  0  0  0  0  0  0  0
  -24.6170  -31.9170   23.2370 C   0  0  0  0  0  0  0  0  0  0  0  0
  -27.2680  -27.1900   20.2790 C   0  0  0  0  0  0  0  0  0  0  0  0
  -23.4410  -30.4970   21.5980 C   0  0  0  0  0  3  0  0  0  0  0  0
  -24.9140  -28.9120   20.2040 C   0  0  0  0  0  0  0  0  0  0  0  0
  -25.9900  -30.7880   21.4410 C   0  0  0  0  0  2  0  0  0  0  0  0
  -26.0830  -29.3820   20.8140 C   0  0  0  0  0  0  0  0  0  0  0  0
  -27.2620  -28.5410   20.8220 C   0  0  0  0  0  3  0  0  0  0  0  0
  -26.0690  -26.8150   19.6390 C   0  0  0  0  0  3  0  0  0  0  0  0
  -24.9200  -27.6430   19.5990 C   0  0  0  0  0  3  0  0  0  0  0  0
  -23.6790  -29.8040   20.2270 C   0  0  0  0  0  2  0  0  0  0  0  0
  -24.7020  -31.0920   22.1460 N   0  0  0  0  0  0  0  0  0  0  0  0
  -23.5240  -32.1900   23.7580 O   0  0  0  0  0  0  0  0  0  0  0  0
  -22.7670  -29.4910   22.5640 C   0  0  0  0  0  0  0  0  0  0  0  0
  -21.4410  -29.3030   22.4290 N   0  0  0  0  0  0  0  0  0  0  0  0
  -23.4400  -28.8810   23.3990 O   0  0  0  0  0  0  0  0  0  0  0  0
  -20.9540  -29.8470   21.7320 H   0  0  0  0  0  0  0  0  0  0  0  0
  -18.0720  -28.0720   22.9290 C   0  0  0  0  0  0  0  0  0  0  0  0
  -20.6270  -28.3600   23.2000 C   0  0  0  0  0  3  0  0  0  0  0  0
  -20.7430  -26.9270   22.6290 C   0  0  0  0  0  2  0  0  0  0  0  0
  -19.6470  -26.5920   21.6130 C   0  0  0  0  0  2  0  0  0  0  0  0
  -18.2630  -26.7230   22.2540 C   0  0  0  0  0  2  0  0  0  0  0  0
  -19.1810  -28.8460   23.3590 C   0  0  0  0  0  0  0  0  0  0  0  0
  -18.9450  -30.1060   23.9510 C   0  0  0  0  0  3  0  0  0  0  0  0
  -17.6350  -30.5910   24.1160 C   0  0  0  0  0  3  0  0  0  0  0  0
  -16.5400  -29.8150   23.7000 C   0  0  0  0  0  3  0  0  0  0  0  0
  -16.7590  -28.5550   23.1130 C   0  0  0  0  0  3  0  0  0  0  0  0
  -25.8840  -32.5700   23.8690 C   0  0  0  0  0  3  0  0  0  0  0  0
  -26.3890  -31.8190   25.1610 C   0  0  1  0  0  0  0  0  0  0  0  0
  -25.2860  -31.5830   26.2190 C   0  0  0  0  0  1  0  0  0  0  0  0
  -26.9900  -30.4430   24.7950 C   0  0  0  0  0  1  0  0  0  0  0  0
  -27.5260  -32.6280   25.8280 C   0  0  0  0  0  1  0  0  0  0  0  0
  -25.5550  -33.9700   24.1890 N   0  0  0  0  0  0  0  0  0  0  0  0
  -25.8790  -35.0230   23.4280 C   0  0  0  0  0  0  0  0  0  0  0  0
  -26.5500  -34.9200   22.3980 O   0  0  0  0  0  0  0  0  0  0  0  0
  -24.9630  -34.1220   24.9920 H   0  0  0  0  0  0  0  0  0  0  0  0
  -24.1360  -36.8020   23.0630 C   0  0  0  0  0  1  0  0  0  0  0  0
  -25.3800  -36.4120   23.8790 C   0  0  0  0  0  3  0  0  0  0  0  0
  -27.5040  -37.3210   24.7120 C   0  0  0  0  0  1  0  0  0  0  0  0
  -26.4040  -37.4730   23.7630 N   0  0  0  0  0  0  0  0  0  0  0  0
  -25.9900  -38.3920   23.9000 H   0  0  0  0  0  0  0  0  0  0  0  0
  -30.3990  -17.9120   20.5720 C   0  0  0  0  0  2  0  0  0  0  0  0
  -30.5000  -15.1630   20.2110 C   0  0  0  0  0  0  0  0  0  0  0  0
  -30.3800  -12.8280   19.1500 C   0  0  0  0  0  2  0  0  0  0  0  0
  -29.3980  -12.7210   17.9560 C   0  0  0  0  0  2  0  0  0  0  0  0
  -27.9530  -12.4650   18.4300 C   0  0  0  0  0  2  0  0  0  0  0  0
  -27.5720  -13.3650   19.6320 C   0  0  0  0  0  3  0  0  0  0  0  0
  -28.6720  -13.3420   20.7140 C   0  0  0  0  0  2  0  0  0  0  0  0
  -29.8860  -13.8940   20.0850 N   0  0  0  0  0  0  0  0  0  0  0  0
  -31.7020  -15.1700   19.9090 O   0  0  0  0  0  0  0  0  0  0  0  0
  -28.4190  -16.5120   20.8890 C   0  0  0  0  0  1  0  0  0  0  0  0
  -29.8090  -16.4320   20.4460 N   0  0  0  0  0  0  0  0  0  0  0  0
  -25.2090  -13.9380   20.4460 C   0  0  0  0  0  0  0  0  0  0  0  0
  -24.1610  -13.1600   20.8450 C   0  0  0  0  0  0  0  0  0  0  0  0
  -24.6310  -11.8130   20.7950 C   0  0  0  0  0  0  0  0  0  0  0  0
  -26.2510  -13.0660   20.1710 N   0  0  0  0  0  0  0  0  0  0  0  0
  -25.9120  -11.7800   20.4460 N   0  0  0  0  0  0  0  0  0  0  0  0
  -23.9140  -10.5490   20.9980 C   0  0  0  0  0  0  0  0  0  0  0  0
  -24.3700   -9.5820   21.9220 C   0  0  0  0  0  3  0  0  0  0  0  0
  -23.6520   -8.3820   22.1120 C   0  0  0  0  0  3  0  0  0  0  0  0
  -22.4640   -8.1430   21.3790 C   0  0  0  0  0  0  0  0  0  0  0  0
  -22.0290   -9.0980   20.4450 C   0  0  0  0  0  3  0  0  0  0  0  0
  -22.7480  -10.2890   20.2530 C   0  0  0  0  0  3  0  0  0  0  0  0
  -21.7130   -6.9970   21.4830 O   0  0  0  0  0  0  0  0  0  0  0  0
  -21.6840   -6.2580   22.6380 C   0  0  0  0  0  0  0  0  0  0  0  0
  -21.2550   -6.8090   23.8650 C   0  0  0  0  0  3  0  0  0  0  0  0
  -21.1760   -5.9950   25.0130 C   0  0  0  0  0  3  0  0  0  0  0  0
  -21.5150   -4.6310   24.9350 C   0  0  0  0  0  0  0  0  0  0  0  0
  -21.9350   -4.0780   23.7110 C   0  0  0  0  0  3  0  0  0  0  0  0
  -22.0180   -4.8900   22.5660 C   0  0  0  0  0  0  0  0  0  0  0  0
  -22.4060   -4.3490   21.3870 F   0  0  0  0  0  0  0  0  0  0  0  0
  -21.4290   -3.8470   26.0340 F   0  0  0  0  0  0  0  0  0  0  0  0
  -22.7700  -13.6340   21.1500 C   0  0  0  0  0  0  0  0  0  0  0  0
  -22.0600  -12.9370   22.0300 N   0  0  0  0  0  0  0  0  0  0  0  0
  -22.3220  -14.6630   20.6440 O   0  0  0  0  0  0  0  0  0  0  0  0
  -22.4340  -12.1060   22.4630 H   0  0  0  0  0  0  0  0  0  0  0  0
  -21.1250  -13.2360   22.2720 H   0  0  0  0  0  0  0  0  0  0  0  0
  -25.3410  -15.3090   20.2630 N   0  0  0  0  0  0  0  0  0  0  0  0
  -24.5620  -15.9430   20.4010 H   0  0  0  0  0  0  0  0  0  0  0  0
  -26.1660  -15.7670   19.9030 H   0  0  0  0  0  0  0  0  0  0  0  0
  2  6  1  0
  2  3  2  0
  3  8  1  0
  3  1  1  0
  4 51  1  0
  4  1  2  0
  5  6  1  0
  6  4  1  0
  8  9  1  0
  8  7  1  0
 10 12  1  0
 10  9  1  0
 11 22  2  0
 12 17  1  0
 13 21  1  0
 13 23  1  0
 14 20  1  0
 14 16  1  0
 15 21  1  0
 16 17  2  0
 16 15  1  0
 18 12  2  0
 19 18  1  0
 19 14  2  0
 20 13  1  0
 21 11  1  0
 23 25  2  0
 24 23  1  0
 26 24  1  0
 27 36  2  0
 27 32  1  0
 28 24  1  0
 28 32  1  0
 29 28  1  0
 30 31  1  0
 30 29  1  0
 31 27  1  0
 32 33  2  0
 33 34  1  0
 35 34  2  0
 36 35  1  0
 37 11  1  0
 37 42  1  0
 37 38  1  0
 38 41  1  1
 38 39  1  0
 40 38  1  0
 42 45  1  0
 43 47  1  0
 43 42  1  0
 44 43  2  0
 47 46  1  0
 49 47  1  0
 49 50  1  0
 49 48  1  0
 52 61  1  0
 53 58  1  0
 54 55  1  0
 54 53  1  0
 56 55  1  0
 56 65  1  0
 56 57  1  0
 58 52  1  0
 58 57  1  0
 59 52  2  0
 61 51  1  0
 61 60  1  0
 62 63  2  0
 63 82  1  0
 64 63  1  0
 64 67  1  0
 65 66  1  0
 65 62  1  0
 66 64  2  0
 67 68  1  0
 68 69  2  0
 70 73  1  0
 70 69  1  0
 71 70  2  0
 72 71  1  0
 72 67  2  0
 73 74  1  0
 74 75  1  0
 75 76  2  0
 77 76  1  0
 77 81  1  0
 78 77  2  0
 79 74  2  0
 79 78  1  0
 80 79  1  0
 82 83  1  0
 83 86  1  0
 83 85  1  0
 84 82  2  0
 87 88  1  0
 87 62  1  0
 89 87  1  0
M  ISO  4   9 101  10 101  52 100  61 100
M  END
>  <TORSDO>  (70) 
F 19

>  <SCORE>  (70) 
-15.216

>  <name>  (70) 
69

>  <ligand_id>  (70) 
69

>  <original_smiles>  (70) 
[H]c1c([H])c([H])c2c(c1[H])C([H])([H])C([H])([H])C([H])([H])C2([H])N([H])C(=O)C1([H])N(C(=O)C([H])(N([H])C(=O)C([H])(N([H])C([H])([H])[H])C([H])([H])[H])C(C([H])([H])[H])(C([H])([H])[H])C([H])([H])[H])C([H])([H])c2c([H])c(OC([H])([H])C([H])(c3c([H])c(C([H])([H])N(C(=O)N4C([H])([H])C([H])([H])C([H])([H])C([H])(n5nc(-c6c([H])c([H])c(Oc7c([H])c([H])c(F)c([H])c7F)c([H])c6[H])c(C(=O)N([H])[H])c5N([H])[H])C4([H])[H])C([H])([H])[H])n(C([H])([H])[H])c3[H])C([H])([H])[H])c([H])c([H])c2C1([H])[H]

>  <smiles>  (70) 
[H]c1c([H])c([H])c2c(c1[H])C([H])([H])C([H])([H])C([H])([H])C2([H])N([H])C(=O)C1([H])N(C(=O)C([H])(N([H])C(=O)C([H])(N([H])C([H])([H])[H])C([H])([H])[H])C(C([H])([H])[H])(C([H])([H])[H])C([H])([H])[H])C([H])([H])c2c([H])c(OC([H])([H])C([H])(c3c([H])c(C([H])([H])N(C(=O)N4C([H])([H])C([H])([H])C([H])([H])C([H])(n5nc(-c6c([H])c([H])c(Oc7c([H])c([H])c(F)c([H])c7F)c([H])c6[H])c(C(=O)N([H])[H])c5N([H])[H])C4([H])[H])C([H])([H])[H])n(C([H])([H])[H])c3[H])C([H])([H])[H])c([H])c([H])c2C1([H])[H]

$$$$
70:0:0
     RDKit          3D

101110  0  0  1  0  0  0  0  0999 V2000
  -29.3390  -18.6220   16.2400 C   0  0  0  0  0  3  0  0  0  0  0  0
  -29.8350  -17.4600   16.8540 C   0  0  0  0  0  3  0  0  0  0  0  0
  -31.2650  -19.8600   17.0650 C   0  0  0  0  0  3  0  0  0  0  0  0
  -30.0590  -19.8230   16.3410 C   0  0  0  0  0  0  0  0  0  0  0  0
  -31.0720  -17.4750   17.5340 C   0  0  0  0  0  0  0  0  0  0  0  0
  -31.7980  -18.7000   17.6650 C   0  0  0  0  0  0  0  0  0  0  0  0
  -29.5840  -21.0760   15.6350 C   0  0  0  0  0  1  0  0  0  0  0  0
  -33.2000  -18.7370   18.2920 C   0  0  0  0  0  2  0  0  0  0  0  0
  -33.7590  -20.0610   18.8840 C   0  0  0  0  0  2  0  0  0  0  0  0
  -33.3490  -20.3880   20.3440 C   0  0  0  0  0  2  0  0  0  0  0  0
  -32.0550  -21.1000   20.4690 N   0  0  0  0  0  4  0  0  0  0  0  0
  -31.5490  -20.6680   21.2260 H   0  0  0  0  0  0  0  0  0  0  0  0
  -31.5120  -20.9540   19.6320 H   0  0  0  0  0  0  0  0  0  0  0  0
  -32.1840  -22.5450   20.7830 C   0  0  0  0  0  2  0  0  0  0  0  0
  -30.8680  -23.3400   20.6220 C   0  0  0  0  0  2  0  0  0  0  0  0
  -30.9740  -24.7970   21.1280 C   0  0  0  0  0  2  0  0  0  0  0  0
  -30.8100  -25.7150   20.0430 O   0  0  0  0  0  0  0  0  0  0  0  0
  -26.2880  -29.9750   23.4970 C   0  0  0  0  0  0  0  0  0  0  0  0
  -29.6050  -26.3660   20.0350 C   0  0  0  0  0  0  0  0  0  0  0  0
  -25.3860  -28.8210   21.5010 C   0  0  0  0  0  3  0  0  0  0  0  0
  -27.1060  -27.6650   20.0160 C   0  0  0  0  0  0  0  0  0  0  0  0
  -27.8750  -29.3800   21.6630 C   0  0  0  0  0  2  0  0  0  0  0  0
  -28.1460  -28.1550   20.8170 C   0  0  0  0  0  0  0  0  0  0  0  0
  -29.4040  -27.5160   20.8240 C   0  0  0  0  0  3  0  0  0  0  0  0
  -28.5590  -25.8790   19.2230 C   0  0  0  0  0  3  0  0  0  0  0  0
  -27.3060  -26.5250   19.2130 C   0  0  0  0  0  3  0  0  0  0  0  0
  -25.7970  -28.4190   20.0610 C   0  0  0  0  0  2  0  0  0  0  0  0
  -26.5280  -29.3960   22.2830 N   0  0  0  0  0  0  0  0  0  0  0  0
  -25.1360  -30.0730   23.9440 O   0  0  0  0  0  0  0  0  0  0  0  0
  -24.7270  -27.6020   22.1860 C   0  0  0  0  0  0  0  0  0  0  0  0
  -23.4590  -27.3370   21.8350 N   0  0  0  0  0  0  0  0  0  0  0  0
  -25.3590  -26.9070   22.9880 O   0  0  0  0  0  0  0  0  0  0  0  0
  -23.0150  -27.9600   21.1730 H   0  0  0  0  0  0  0  0  0  0  0  0
  -20.2270  -25.7440   21.5370 C   0  0  0  0  0  0  0  0  0  0  0  0
  -22.6450  -26.2190   22.3150 C   0  0  0  0  0  3  0  0  0  0  0  0
  -23.0280  -24.9040   21.6000 C   0  0  0  0  0  2  0  0  0  0  0  0
  -22.1670  -24.6170   20.3670 C   0  0  0  0  0  2  0  0  0  0  0  0
  -20.6870  -24.5280   20.7500 C   0  0  0  0  0  2  0  0  0  0  0  0
  -21.1480  -26.5470   22.2580 C   0  0  0  0  0  0  0  0  0  0  0  0
  -20.6720  -27.6840   22.9440 C   0  0  0  0  0  3  0  0  0  0  0  0
  -19.3050  -28.0210   22.9210 C   0  0  0  0  0  3  0  0  0  0  0  0
  -18.3950  -27.2120   22.2160 C   0  0  0  0  0  3  0  0  0  0  0  0
  -18.8570  -26.0750   21.5300 C   0  0  0  0  0  3  0  0  0  0  0  0
  -27.4440  -30.5600   24.3680 C   0  0  0  0  0  3  0  0  0  0  0  0
  -27.8310  -29.6380   25.5900 C   0  0  1  0  0  0  0  0  0  0  0  0
  -26.6240  -29.2240   26.4660 C   0  0  0  0  0  1  0  0  0  0  0  0
  -28.5190  -28.3450   25.0940 C   0  0  0  0  0  1  0  0  0  0  0  0
  -28.8550  -30.3670   26.4920 C   0  0  0  0  0  1  0  0  0  0  0  0
  -27.0260  -31.8910   24.8280 N   0  0  0  0  0  0  0  0  0  0  0  0
  -27.4200  -33.0450   24.2700 C   0  0  0  0  0  0  0  0  0  0  0  0
  -28.2410  -33.0970   23.3510 O   0  0  0  0  0  0  0  0  0  0  0  0
  -26.3150  -31.9250   25.5440 H   0  0  0  0  0  0  0  0  0  0  0  0
  -25.7010  -34.8340   23.8670 C   0  0  0  0  0  1  0  0  0  0  0  0
  -26.8070  -34.3460   24.8170 C   0  0  0  0  0  3  0  0  0  0  0  0
  -28.7370  -35.1470   26.1090 C   0  0  0  0  0  1  0  0  0  0  0  0
  -27.8010  -35.4230   25.0210 N   0  0  0  0  0  0  0  0  0  0  0  0
  -27.3430  -36.3120   25.2080 H   0  0  0  0  0  0  0  0  0  0  0  0
  -31.6660  -16.1260   17.9430 C   0  0  0  0  0  2  0  0  0  0  0  0
  -31.4370  -14.0170   19.0680 C   0  0  0  0  0  0  0  0  0  0  0  0
  -30.6970  -11.8700   18.1320 C   0  0  0  0  0  2  0  0  0  0  0  0
  -29.5940  -12.0990   17.0820 C   0  0  0  0  0  2  0  0  0  0  0  0
  -28.2070  -12.0950   17.7600 C   0  0  0  0  0  2  0  0  0  0  0  0
  -28.1450  -12.9980   19.0260 C   0  0  0  0  0  3  0  0  0  0  0  0
  -29.3780  -12.7750   19.9350 C   0  0  0  0  0  2  0  0  0  0  0  0
  -30.5700  -12.9660   19.1040 N   0  0  0  0  0  0  0  0  0  0  0  0
  -32.5900  -13.8390   18.6730 O   0  0  0  0  0  0  0  0  0  0  0  0
  -30.9340  -15.2870   18.9450 N   0  0  0  0  0  0  0  0  0  0  0  0
  -29.2790  -17.4380   22.4190 C   0  0  0  0  0  2  0  0  0  0  0  0
  -30.7810  -17.0720   22.3560 C   0  0  0  0  0  2  0  0  0  0  0  0
  -28.6490  -17.5880   21.0200 C   0  0  0  0  0  2  0  0  0  0  0  0
  -31.0420  -15.8390   21.4700 C   0  0  0  0  0  2  0  0  0  0  0  0
  -28.9590  -16.3540   20.1540 C   0  0  0  0  0  2  0  0  0  0  0  0
  -30.4710  -16.1370   20.0710 C   0  0  0  0  0  3  0  0  0  0  0  0
  -25.9760  -13.7800   20.1790 C   0  0  0  0  0  0  0  0  0  0  0  0
  -24.9320  -13.0980   20.7290 C   0  0  0  0  0  0  0  0  0  0  0  0
  -25.2470  -11.7150   20.5740 C   0  0  0  0  0  0  0  0  0  0  0  0
  -26.8860  -12.8250   19.7490 N   0  0  0  0  0  0  0  0  0  0  0  0
  -26.4540  -11.5710   20.0400 N   0  0  0  0  0  0  0  0  0  0  0  0
  -24.4400  -10.5220   20.8530 C   0  0  0  0  0  0  0  0  0  0  0  0
  -24.8510   -9.5490   21.7920 C   0  0  0  0  0  3  0  0  0  0  0  0
  -24.0420   -8.4230   22.0540 C   0  0  0  0  0  3  0  0  0  0  0  0
  -22.8080   -8.2590   21.3820 C   0  0  0  0  0  0  0  0  0  0  0  0
  -22.4140   -9.2200   20.4350 C   0  0  0  0  0  3  0  0  0  0  0  0
  -23.2210  -10.3370   20.1710 C   0  0  0  0  0  3  0  0  0  0  0  0
  -21.9700   -7.1850   21.5580 O   0  0  0  0  0  0  0  0  0  0  0  0
  -21.8460   -6.5580   22.7710 C   0  0  0  0  0  0  0  0  0  0  0  0
  -21.4430   -7.2540   23.9310 C   0  0  0  0  0  3  0  0  0  0  0  0
  -21.2670   -6.5580   25.1440 C   0  0  0  0  0  3  0  0  0  0  0  0
  -21.4840   -5.1680   25.1940 C   0  0  0  0  0  0  0  0  0  0  0  0
  -21.8790   -4.4710   24.0380 C   0  0  0  0  0  3  0  0  0  0  0  0
  -22.0580   -5.1660   22.8280 C   0  0  0  0  0  0  0  0  0  0  0  0
  -22.4220   -4.4900   21.7130 F   0  0  0  0  0  0  0  0  0  0  0  0
  -21.3030   -4.4960   26.3550 F   0  0  0  0  0  0  0  0  0  0  0  0
  -23.6650  -13.6920   21.2680 C   0  0  0  0  0  0  0  0  0  0  0  0
  -23.0400  -13.0300   22.2330 N   0  0  0  0  0  0  0  0  0  0  0  0
  -23.2570  -14.7840   20.8710 O   0  0  0  0  0  0  0  0  0  0  0  0
  -23.3900  -12.1440   22.5720 H   0  0  0  0  0  0  0  0  0  0  0  0
  -22.1980  -13.4090   22.6380 H   0  0  0  0  0  0  0  0  0  0  0  0
  -26.1940  -15.1380   19.9820 N   0  0  0  0  0  0  0  0  0  0  0  0
  -25.5190  -15.8330   20.2710 H   0  0  0  0  0  0  0  0  0  0  0  0
  -27.0180  -15.5240   19.5470 H   0  0  0  0  0  0  0  0  0  0  0  0
  1  4  2  0
  1  2  1  0
  2  5  2  0
  3  6  2  0
  4  3  1  0
  5  6  1  0
  5 58  1  0
  6  8  1  0
  7  4  1  0
  8  9  1  0
  9 10  1  0
 10 11  1  0
 11 14  1  0
 11 12  1  0
 13 11  1  0
 15 14  1  0
 15 16  1  0
 17 16  1  0
 18 29  2  0
 19 17  1  0
 19 24  1  0
 20 30  1  0
 20 28  1  0
 21 27  1  0
 21 23  1  0
 22 28  1  0
 23 24  2  0
 23 22  1  0
 25 19  2  0
 26 25  1  0
 26 21  2  0
 27 20  1  0
 28 18  1  0
 30 32  2  0
 31 30  1  0
 33 31  1  0
 34 39  1  0
 35 31  1  0
 36 35  1  0
 37 38  1  0
 37 36  1  0
 38 34  1  0
 39 35  1  0
 39 40  2  0
 41 40  1  0
 42 41  2  0
 43 34  2  0
 43 42  1  0
 44 18  1  0
 44 49  1  0
 44 45  1  0
 45 46  1  1
 45 48  1  0
 47 45  1  0
 49 52  1  0
 50 54  1  0
 50 49  1  0
 51 50  2  0
 54 53  1  0
 54 56  1  0
 56 57  1  0
 56 55  1  0
 58 67  1  0
 59 65  1  0
 60 65  1  0
 61 62  1  0
 61 60  1  0
 63 62  1  0
 63 77  1  0
 63 64  1  0
 65 64  1  0
 66 59  2  0
 67 59  1  0
 67 73  1  0
 69 68  1  0
 70 68  1  0
 71 69  1  0
 72 70  1  0
 73 72  1  0
 73 71  1  0
 74 75  2  0
 75 94  1  0
 76 75  1  0
 76 79  1  0
 77 78  1  0
 77 74  1  0
 78 76  2  0
 79 80  1  0
 80 81  2  0
 82 85  1  0
 82 81  1  0
 83 82  2  0
 84 83  1  0
 84 79  2  0
 85 86  1  0
 86 91  2  0
 86 87  1  0
 87 88  2  0
 88 89  1  0
 89 93  1  0
 90 89  2  0
 91 90  1  0
 92 91  1  0
 94 95  1  0
 95 97  1  0
 95 98  1  0
 96 94  2  0
 99 74  1  0
 99100  1  0
101 99  1  0
M  ISO  4  16 101  17 101  59 100  67 100
M  END
>  <TORSDO>  (71) 
F 25

>  <SCORE>  (71) 
-5.657

>  <name>  (71) 
70

>  <ligand_id>  (71) 
70

>  <original_smiles>  (71) 
[H]c1c([H])c([H])c2c(c1[H])C([H])([H])C([H])([H])C([H])([H])C2([H])N([H])C(=O)C1([H])N(C(=O)C([H])(N([H])C(=O)C([H])(N([H])C([H])([H])[H])C([H])([H])[H])C(C([H])([H])[H])(C([H])([H])[H])C([H])([H])[H])C([H])([H])c2c([H])c(OC([H])([H])C([H])([H])C([H])([H])[N+]([H])([H])C([H])([H])C([H])([H])C([H])([H])c3c([H])c(C([H])([H])[H])c([H])c([H])c3C([H])([H])N(C(=O)N3C([H])([H])C([H])([H])C([H])([H])C([H])(n4nc(-c5c([H])c([H])c(Oc6c([H])c([H])c(F)c([H])c6F)c([H])c5[H])c(C(=O)N([H])[H])c4N([H])[H])C3([H])[H])C3([H])C([H])([H])C([H])([H])C([H])([H])C([H])([H])C3([H])[H])c([H])c([H])c2C1([H])[H]

>  <smiles>  (71) 
[H]c1c([H])c([H])c2c(c1[H])C([H])([H])C([H])([H])C([H])([H])C2([H])N([H])C(=O)C1([H])N(C(=O)C([H])(N([H])C(=O)C([H])(N([H])C([H])([H])[H])C([H])([H])[H])C(C([H])([H])[H])(C([H])([H])[H])C([H])([H])[H])C([H])([H])c2c([H])c(OC([H])([H])C([H])([H])C([H])([H])[N+]([H])([H])C([H])([H])C([H])([H])C([H])([H])c3c([H])c(C([H])([H])[H])c([H])c([H])c3C([H])([H])N(C(=O)N3C([H])([H])C([H])([H])C([H])([H])C([H])(n4nc(-c5c([H])c([H])c(Oc6c([H])c([H])c(F)c([H])c6F)c([H])c5[H])c(C(=O)N([H])[H])c4N([H])[H])C3([H])[H])C3([H])C([H])([H])C([H])([H])C([H])([H])C([H])([H])C3([H])[H])c([H])c([H])c2C1([H])[H]

$$$$
71:0:0
     RDKit          3D

 88 96  0  0  1  0  0  0  0  0999 V2000
  -26.7450  -19.7410   20.2760 C   0  0  0  0  0  3  0  0  0  0  0  0
  -27.2490  -21.0500   20.1150 C   0  0  0  0  0  3  0  0  0  0  0  0
  -27.7760  -18.8730   20.1350 C   0  0  0  0  0  3  0  0  0  0  0  0
  -28.5960  -21.0640   19.8450 C   0  0  0  0  0  0  0  0  0  0  0  0
  -28.9880  -19.5150   19.8810 N   0  0  0  0  0  0  0  0  0  0  0  0
  -30.0850  -22.7650   18.4560 C   0  0  0  0  0  1  0  0  0  0  0  0
  -29.1490  -22.7120   19.6650 C   0  0  0  0  0  3  0  0  0  0  0  0
  -28.1650  -24.2540   19.6150 C   0  0  0  0  0  2  0  0  0  0  0  0
  -28.4250  -25.8950   19.7020 O   0  0  0  0  0  0  0  0  0  0  0  0
  -24.7500  -31.6270   23.0310 C   0  0  0  0  0  0  0  0  0  0  0  0
  -27.4070  -26.9940   19.7120 C   0  0  0  0  0  0  0  0  0  0  0  0
  -23.5960  -30.3270   21.2860 C   0  0  0  0  0  3  0  0  0  0  0  0
  -25.0850  -28.8540   19.7650 C   0  0  0  0  0  0  0  0  0  0  0  0
  -26.1590  -30.5900   21.1810 C   0  0  0  0  0  2  0  0  0  0  0  0
  -26.2610  -29.2270   20.4310 C   0  0  0  0  0  0  0  0  0  0  0  0
  -27.4130  -28.3210   20.3820 C   0  0  0  0  0  3  0  0  0  0  0  0
  -26.2010  -26.7840   19.0050 C   0  0  0  0  0  3  0  0  0  0  0  0
  -25.0840  -27.6580   19.0330 C   0  0  0  0  0  3  0  0  0  0  0  0
  -23.8540  -29.7550   19.8640 C   0  0  0  0  0  2  0  0  0  0  0  0
  -24.8560  -30.8740   21.8860 N   0  0  0  0  0  0  0  0  0  0  0  0
  -23.6510  -31.8600   23.5630 O   0  0  0  0  0  0  0  0  0  0  0  0
  -22.9170  -29.2540   22.1740 C   0  0  0  0  0  0  0  0  0  0  0  0
  -21.5850  -29.1000   22.0550 N   0  0  0  0  0  0  0  0  0  0  0  0
  -23.5940  -28.5590   22.9380 O   0  0  0  0  0  0  0  0  0  0  0  0
  -21.0930  -29.7060   21.4130 H   0  0  0  0  0  0  0  0  0  0  0  0
  -18.1940  -27.9020   22.5720 C   0  0  0  0  0  0  0  0  0  0  0  0
  -20.7690  -28.0980   22.7530 C   0  0  0  0  0  3  0  0  0  0  0  0
  -20.8190  -26.7370   22.0210 C   0  0  0  0  0  2  0  0  0  0  0  0
  -19.6720  -26.5440   21.0260 C   0  0  0  0  0  2  0  0  0  0  0  0
  -18.3190  -26.6350   21.7400 C   0  0  0  0  0  2  0  0  0  0  0  0
  -19.3450  -28.5980   23.0310 C   0  0  0  0  0  0  0  0  0  0  0  0
  -19.1760  -29.7830   23.7760 C   0  0  0  0  0  3  0  0  0  0  0  0
  -17.8890  -30.2750   24.0650 C   0  0  0  0  0  3  0  0  0  0  0  0
  -16.7530  -29.5790   23.6150 C   0  0  0  0  0  3  0  0  0  0  0  0
  -16.9070  -28.3930   22.8760 C   0  0  0  0  0  3  0  0  0  0  0  0
  -26.0030  -32.2480   23.7200 C   0  0  0  0  0  3  0  0  0  0  0  0
  -26.4800  -31.4290   24.9860 C   0  0  1  0  0  0  0  0  0  0  0  0
  -25.3580  -31.1620   26.0150 C   0  0  0  0  0  1  0  0  0  0  0  0
  -27.0750  -30.0630   24.5720 C   0  0  0  0  0  1  0  0  0  0  0  0
  -27.6170  -32.1960   25.7060 C   0  0  0  0  0  1  0  0  0  0  0  0
  -25.6750  -33.6320   24.1050 N   0  0  0  0  0  0  0  0  0  0  0  0
  -25.9710  -34.7220   23.3850 C   0  0  0  0  0  0  0  0  0  0  0  0
  -26.6170  -34.6690   22.3360 O   0  0  0  0  0  0  0  0  0  0  0  0
  -25.0990  -33.7460   24.9290 H   0  0  0  0  0  0  0  0  0  0  0  0
  -24.1900  -36.4920   23.1690 C   0  0  0  0  0  1  0  0  0  0  0  0
  -25.4770  -36.0870   23.9070 C   0  0  0  0  0  3  0  0  0  0  0  0
  -27.6230  -37.0040   24.6750 C   0  0  0  0  0  1  0  0  0  0  0  0
  -26.4810  -37.1680   23.7810 N   0  0  0  0  0  0  0  0  0  0  0  0
  -26.0580  -38.0730   23.9690 H   0  0  0  0  0  0  0  0  0  0  0  0
  -30.1920  -18.3560   19.7430 C   0  0  0  0  0  2  0  0  0  0  0  0
  -30.8740  -15.4620   19.8840 C   0  0  0  0  0  0  0  0  0  0  0  0
  -30.9380  -12.9720   19.1330 C   0  0  0  0  0  2  0  0  0  0  0  0
  -29.9820  -12.6750   17.9500 C   0  0  0  0  0  2  0  0  0  0  0  0
  -28.5580  -12.3860   18.4550 C   0  0  0  0  0  2  0  0  0  0  0  0
  -28.1230  -13.3780   19.5620 C   0  0  0  0  0  3  0  0  0  0  0  0
  -29.2060  -13.5970   20.6380 C   0  0  0  0  0  2  0  0  0  0  0  0
  -30.3850  -14.1240   19.9400 N   0  0  0  0  0  0  0  0  0  0  0  0
  -32.0790  -15.5030   19.5860 O   0  0  0  0  0  0  0  0  0  0  0  0
  -30.0440  -16.6920   19.9660 N   0  0  0  0  0  0  0  0  0  0  0  0
  -29.0960  -16.4500   20.2090 H   0  0  0  0  0  0  0  0  0  0  0  0
  -25.8210  -13.9160   20.5140 C   0  0  0  0  0  0  0  0  0  0  0  0
  -24.7790  -13.1280   20.9190 C   0  0  0  0  0  0  0  0  0  0  0  0
  -25.2240  -11.7770   20.7800 C   0  0  0  0  0  0  0  0  0  0  0  0
  -26.8280  -13.0450   20.1420 N   0  0  0  0  0  0  0  0  0  0  0  0
  -26.4890  -11.7480   20.3700 N   0  0  0  0  0  0  0  0  0  0  0  0
  -24.4940  -10.5120   20.9430 C   0  0  0  0  0  0  0  0  0  0  0  0
  -24.8860   -9.5520   21.9010 C   0  0  0  0  0  3  0  0  0  0  0  0
  -24.1520   -8.3550   22.0590 C   0  0  0  0  0  3  0  0  0  0  0  0
  -23.0090   -8.1110   21.2610 C   0  0  0  0  0  0  0  0  0  0  0  0
  -22.6360   -9.0600   20.2910 C   0  0  0  0  0  3  0  0  0  0  0  0
  -23.3710  -10.2460   20.1310 C   0  0  0  0  0  3  0  0  0  0  0  0
  -22.2530   -6.9650   21.3270 O   0  0  0  0  0  0  0  0  0  0  0  0
  -22.0210   -6.3250   22.5180 C   0  0  0  0  0  0  0  0  0  0  0  0
  -21.3520   -6.9580   23.5890 C   0  0  0  0  0  3  0  0  0  0  0  0
  -21.0720   -6.2380   24.7680 C   0  0  0  0  0  3  0  0  0  0  0  0
  -21.4510   -4.8850   24.8760 C   0  0  0  0  0  0  0  0  0  0  0  0
  -22.1160   -4.2530   23.8110 C   0  0  0  0  0  3  0  0  0  0  0  0
  -22.3970   -4.9710   22.6340 C   0  0  0  0  0  0  0  0  0  0  0  0
  -23.0130   -4.3510   21.6000 F   0  0  0  0  0  0  0  0  0  0  0  0
  -21.1810   -4.1920   26.0060 F   0  0  0  0  0  0  0  0  0  0  0  0
  -23.4070  -13.6030   21.3020 C   0  0  0  0  0  0  0  0  0  0  0  0
  -22.7290  -12.8780   22.1830 N   0  0  0  0  0  0  0  0  0  0  0  0
  -22.9460  -14.6500   20.8560 O   0  0  0  0  0  0  0  0  0  0  0  0
  -23.1150  -12.0310   22.5750 H   0  0  0  0  0  0  0  0  0  0  0  0
  -21.8060  -13.1740   22.4660 H   0  0  0  0  0  0  0  0  0  0  0  0
  -25.9950  -15.2920   20.3950 N   0  0  0  0  0  0  0  0  0  0  0  0
  -25.2440  -15.9530   20.5630 H   0  0  0  0  0  0  0  0  0  0  0  0
  -26.7890  -15.7130   19.9320 H   0  0  0  0  0  0  0  0  0  0  0  0
  2  1  1  0
  3  1  2  0
  4  5  1  0
  4  2  2  0
  5  3  1  0
  7  6  1  0
  7  4  1  0
  8  7  1  0
  8  9  1  0
  9 11  1  0
 10 21  2  0
 11 16  1  0
 12 20  1  0
 12 22  1  0
 13 19  1  0
 13 15  1  0
 14 20  1  0
 15 14  1  0
 16 15  2  0
 17 18  1  0
 17 11  2  0
 18 13  2  0
 19 12  1  0
 20 10  1  0
 22 24  2  0
 23 22  1  0
 25 23  1  0
 26 35  2  0
 26 31  1  0
 27 23  1  0
 27 31  1  0
 28 27  1  0
 29 30  1  0
 29 28  1  0
 30 26  1  0
 31 32  2  0
 32 33  1  0
 34 33  2  0
 35 34  1  0
 36 10  1  0
 36 41  1  0
 36 37  1  0
 37 40  1  1
 37 38  1  0
 39 37  1  0
 41 44  1  0
 42 46  1  0
 42 41  1  0
 43 42  2  0
 46 45  1  0
 48 46  1  0
 48 49  1  0
 48 47  1  0
 50  5  1  0
 50 59  1  0
 51 57  1  0
 51 59  1  0
 52 57  1  0
 53 54  1  0
 53 52  1  0
 55 54  1  0
 55 64  1  0
 55 56  1  0
 57 56  1  0
 58 51  2  0
 59 60  1  0
 61 62  2  0
 62 81  1  0
 63 62  1  0
 63 66  1  0
 64 65  1  0
 64 61  1  0
 65 63  2  0
 66 67  1  0
 67 68  2  0
 69 72  1  0
 69 68  1  0
 70 69  2  0
 71 70  1  0
 71 66  2  0
 72 73  1  0
 73 78  2  0
 73 74  1  0
 74 75  2  0
 75 76  1  0
 76 80  1  0
 77 76  2  0
 78 77  1  0
 79 78  1  0
 81 82  1  0
 82 85  1  0
 82 84  1  0
 83 81  2  0
 86 61  1  0
 86 87  1  0
 88 86  1  0
M  ISO  4   8 101   9 101  51 100  59 100
M  END
>  <TORSDO>  (72) 
F 19

>  <SCORE>  (72) 
-13.601

>  <name>  (72) 
71

>  <ligand_id>  (72) 
71

>  <original_smiles>  (72) 
[H]c1c([H])c([H])c2c(c1[H])C([H])([H])C([H])([H])C([H])([H])C2([H])N([H])C(=O)C1([H])N(C(=O)C([H])(N([H])C(=O)C([H])(N([H])C([H])([H])[H])C([H])([H])[H])C(C([H])([H])[H])(C([H])([H])[H])C([H])([H])[H])C([H])([H])c2c([H])c(OC([H])([H])C([H])(c3c([H])c([H])c([H])n3C([H])([H])N([H])C(=O)N3C([H])([H])C([H])([H])C([H])([H])C([H])(n4nc(-c5c([H])c([H])c(Oc6c([H])c([H])c(F)c([H])c6F)c([H])c5[H])c(C(=O)N([H])[H])c4N([H])[H])C3([H])[H])C([H])([H])[H])c([H])c([H])c2C1([H])[H]

>  <smiles>  (72) 
[H]c1c([H])c([H])c2c(c1[H])C([H])([H])C([H])([H])C([H])([H])C2([H])N([H])C(=O)C1([H])N(C(=O)C([H])(N([H])C(=O)C([H])(N([H])C([H])([H])[H])C([H])([H])[H])C(C([H])([H])[H])(C([H])([H])[H])C([H])([H])[H])C([H])([H])c2c([H])c(OC([H])([H])C([H])(c3c([H])c([H])c([H])n3C([H])([H])N([H])C(=O)N3C([H])([H])C([H])([H])C([H])([H])C([H])(n4nc(-c5c([H])c([H])c(Oc6c([H])c([H])c(F)c([H])c6F)c([H])c5[H])c(C(=O)N([H])[H])c4N([H])[H])C3([H])[H])C([H])([H])[H])c([H])c([H])c2C1([H])[H]

$$$$
72:0:0
     RDKit          3D

 92100  0  0  1  0  0  0  0  0999 V2000
  -29.1080  -19.1090   20.8810 C   0  0  0  0  0  3  0  0  0  0  0  0
  -28.8100  -20.4930   21.0640 C   0  0  0  0  0  3  0  0  0  0  0  0
  -29.9840  -18.6770   19.8470 C   0  0  0  0  0  0  0  0  0  0  0  0
  -29.3650  -21.4790   20.2140 C   0  0  0  0  0  0  0  0  0  0  0  0
  -30.4450  -19.7480   19.0070 C   0  0  0  0  0  0  0  0  0  0  0  0
  -30.1600  -21.0710   19.2020 N   0  0  0  0  0  0  0  0  0  0  0  0
  -30.6330  -19.9230   16.4760 C   0  0  0  0  0  1  0  0  0  0  0  0
  -31.3360  -19.5290   17.7870 C   0  0  0  0  0  2  0  0  0  0  0  0
  -30.4760  -17.1800   19.5720 C   0  0  0  0  0  2  0  0  0  0  0  0
  -30.9020  -14.7400   20.0200 C   0  0  0  0  0  0  0  0  0  0  0  0
  -30.5540  -12.5170   18.9480 C   0  0  0  0  0  2  0  0  0  0  0  0
  -29.5670  -12.6640   17.7710 C   0  0  0  0  0  2  0  0  0  0  0  0
  -28.1140  -12.5170   18.2610 C   0  0  0  0  0  2  0  0  0  0  0  0
  -27.8210  -13.3520   19.5370 C   0  0  0  0  0  3  0  0  0  0  0  0
  -28.9350  -13.2030   20.5940 C   0  0  0  0  0  2  0  0  0  0  0  0
  -30.2090  -13.5500   19.9510 N   0  0  0  0  0  0  0  0  0  0  0  0
  -32.0220  -14.8150   19.5060 O   0  0  0  0  0  0  0  0  0  0  0  0
  -29.9610  -16.1090   21.8050 C   0  0  0  0  0  1  0  0  0  0  0  0
  -30.2410  -15.9090   20.3830 N   0  0  0  0  0  0  0  0  0  0  0  0
  -25.4840  -13.9250   20.4270 C   0  0  0  0  0  0  0  0  0  0  0  0
  -24.4380  -13.1430   20.8320 C   0  0  0  0  0  0  0  0  0  0  0  0
  -24.8890  -11.7910   20.7260 C   0  0  0  0  0  0  0  0  0  0  0  0
  -26.5050  -13.0500   20.0940 N   0  0  0  0  0  0  0  0  0  0  0  0
  -26.1580  -11.7590   20.3350 N   0  0  0  0  0  0  0  0  0  0  0  0
  -24.1670  -10.5270   20.9180 C   0  0  0  0  0  0  0  0  0  0  0  0
  -24.5840   -9.5750   21.8750 C   0  0  0  0  0  3  0  0  0  0  0  0
  -23.8620   -8.3740   22.0510 C   0  0  0  0  0  3  0  0  0  0  0  0
  -22.7080   -8.1190   21.2720 C   0  0  0  0  0  0  0  0  0  0  0  0
  -22.3120   -9.0590   20.3060 C   0  0  0  0  0  3  0  0  0  0  0  0
  -23.0330  -10.2500   20.1270 C   0  0  0  0  0  3  0  0  0  0  0  0
  -21.9600   -6.9680   21.3570 O   0  0  0  0  0  0  0  0  0  0  0  0
  -21.8040   -6.2960   22.5430 C   0  0  0  0  0  0  0  0  0  0  0  0
  -21.2080   -6.9050   23.6700 C   0  0  0  0  0  3  0  0  0  0  0  0
  -21.0020   -6.1570   24.8470 C   0  0  0  0  0  3  0  0  0  0  0  0
  -21.3820   -4.8020   24.8960 C   0  0  0  0  0  0  0  0  0  0  0  0
  -21.9670   -4.1920   23.7730 C   0  0  0  0  0  3  0  0  0  0  0  0
  -22.1740   -4.9380   22.5980 C   0  0  0  0  0  0  0  0  0  0  0  0
  -22.7210   -4.3410   21.5120 F   0  0  0  0  0  0  0  0  0  0  0  0
  -21.1760   -4.0810   26.0230 F   0  0  0  0  0  0  0  0  0  0  0  0
  -23.0620  -13.6170   21.2050 C   0  0  0  0  0  0  0  0  0  0  0  0
  -22.3850  -12.8960   22.0920 N   0  0  0  0  0  0  0  0  0  0  0  0
  -22.5990  -14.6590   20.7440 O   0  0  0  0  0  0  0  0  0  0  0  0
  -22.7740  -12.0550   22.4910 H   0  0  0  0  0  0  0  0  0  0  0  0
  -21.4630  -13.1930   22.3780 H   0  0  0  0  0  0  0  0  0  0  0  0
  -25.6490  -15.3020   20.2920 N   0  0  0  0  0  0  0  0  0  0  0  0
  -24.9010  -15.9580   20.4840 H   0  0  0  0  0  0  0  0  0  0  0  0
  -26.4930  -15.7490   19.9560 H   0  0  0  0  0  0  0  0  0  0  0  0
  -29.2860  -23.0280   20.4930 C   0  0  0  0  0  2  0  0  0  0  0  0
  -28.3690  -23.9870   19.6190 C   0  0  0  0  0  2  0  0  0  0  0  0
  -28.8530  -25.7940   17.7770 C   0  0  0  0  0  1  0  0  0  0  0  0
  -28.8940  -25.4630   19.2810 C   0  0  0  0  0  3  0  0  0  0  0  0
  -28.5430  -26.6540   20.0690 O   0  0  0  0  0  0  0  0  0  0  0  0
  -24.5990  -31.8160   23.0880 C   0  0  0  0  0  0  0  0  0  0  0  0
  -27.3530  -27.3870   19.9870 C   0  0  0  0  0  0  0  0  0  0  0  0
  -23.4360  -30.4050   21.4240 C   0  0  0  0  0  3  0  0  0  0  0  0
  -24.9310  -28.9020   19.9890 C   0  0  0  0  0  0  0  0  0  0  0  0
  -25.9650  -30.7950   21.2580 C   0  0  0  0  0  2  0  0  0  0  0  0
  -26.0780  -29.4290   20.5940 C   0  0  0  0  0  0  0  0  0  0  0  0
  -27.2850  -28.6800   20.5860 C   0  0  0  0  0  3  0  0  0  0  0  0
  -26.1790  -26.8850   19.3870 C   0  0  0  0  0  3  0  0  0  0  0  0
  -24.9800  -27.6330   19.3840 C   0  0  0  0  0  3  0  0  0  0  0  0
  -23.6740  -29.7470   20.0380 C   0  0  0  0  0  2  0  0  0  0  0  0
  -24.6840  -31.0230   21.9790 N   0  0  0  0  0  0  0  0  0  0  0  0
  -23.5080  -32.0600   23.6210 O   0  0  0  0  0  0  0  0  0  0  0  0
  -22.7950  -29.3630   22.3720 C   0  0  0  0  0  0  0  0  0  0  0  0
  -21.4690  -29.1720   22.2540 N   0  0  0  0  0  0  0  0  0  0  0  0
  -23.4880  -28.7330   23.1740 O   0  0  0  0  0  0  0  0  0  0  0  0
  -20.9660  -29.7360   21.5830 H   0  0  0  0  0  0  0  0  0  0  0  0
  -18.1040  -27.9610   22.7980 C   0  0  0  0  0  0  0  0  0  0  0  0
  -20.6690  -28.2110   23.0160 C   0  0  0  0  0  3  0  0  0  0  0  0
  -20.7570  -26.7970   22.3950 C   0  0  0  0  0  2  0  0  0  0  0  0
  -19.6310  -26.5080   21.3970 C   0  0  0  0  0  2  0  0  0  0  0  0
  -18.2640  -26.6340   22.0760 C   0  0  0  0  0  2  0  0  0  0  0  0
  -19.2350  -28.7080   23.2260 C   0  0  0  0  0  0  0  0  0  0  0  0
  -19.0330  -29.9520   23.8630 C   0  0  0  0  0  3  0  0  0  0  0  0
  -17.7330  -30.4490   24.0750 C   0  0  0  0  0  3  0  0  0  0  0  0
  -16.6170  -29.6980   23.6650 C   0  0  0  0  0  3  0  0  0  0  0  0
  -16.8040  -28.4550   23.0330 C   0  0  0  0  0  3  0  0  0  0  0  0
  -25.8640  -32.4730   23.7230 C   0  0  0  0  0  3  0  0  0  0  0  0
  -25.5170  -33.8560   24.0800 N   0  0  0  0  0  0  0  0  0  0  0  0
  -25.8350  -34.9340   23.3510 C   0  0  0  0  0  0  0  0  0  0  0  0
  -26.5200  -34.8710   22.3250 O   0  0  0  0  0  0  0  0  0  0  0  0
  -24.9100  -33.9790   24.8770 H   0  0  0  0  0  0  0  0  0  0  0  0
  -24.0820  -36.7060   23.0040 C   0  0  0  0  0  1  0  0  0  0  0  0
  -25.3100  -36.3010   23.8360 C   0  0  0  0  0  3  0  0  0  0  0  0
  -27.4020  -37.2040   24.7510 C   0  0  0  0  0  1  0  0  0  0  0  0
  -26.3250  -37.3760   23.7790 N   0  0  0  0  0  0  0  0  0  0  0  0
  -25.8970  -38.2830   23.9390 H   0  0  0  0  0  0  0  0  0  0  0  0
  -26.4060  -31.6950   24.9860 C   0  0  1  0  0  0  0  0  0  0  0  0
  -25.3180  -31.3850   26.0400 C   0  0  0  0  0  1  0  0  0  0  0  0
  -27.0520  -30.3540   24.5680 C   0  0  0  0  0  1  0  0  0  0  0  0
  -27.5150  -32.5240   25.6790 C   0  0  0  0  0  1  0  0  0  0  0  0
  1  2  1  0
  3  1  2  0
  4 48  1  0
  4  2  2  0
  5  6  2  0
  5  3  1  0
  6  4  1  0
  7  8  1  0
  8  5  1  0
  9  3  1  0
  9 19  1  0
 10 19  1  0
 11 16  1  0
 12 13  1  0
 12 11  1  0
 14 13  1  0
 14 23  1  0
 14 15  1  0
 16 10  1  0
 16 15  1  0
 17 10  2  0
 19 18  1  0
 20 21  2  0
 21 40  1  0
 22 21  1  0
 22 25  1  0
 23 24  1  0
 23 20  1  0
 24 22  2  0
 25 26  1  0
 26 27  2  0
 28 31  1  0
 28 27  1  0
 29 28  2  0
 30 29  1  0
 30 25  2  0
 31 32  1  0
 32 37  2  0
 32 33  1  0
 33 34  2  0
 34 35  1  0
 35 39  1  0
 36 35  2  0
 37 36  1  0
 38 37  1  0
 40 41  1  0
 41 44  1  0
 41 43  1  0
 42 40  2  0
 45 20  1  0
 45 46  1  0
 47 45  1  0
 49 48  1  0
 51 50  1  0
 51 49  1  0
 51 52  1  0
 53 64  2  0
 54 52  1  0
 54 59  1  0
 55 63  1  0
 55 65  1  0
 56 62  1  0
 56 58  1  0
 57 63  1  0
 58 57  1  0
 59 58  2  0
 60 54  2  0
 61 60  1  0
 61 56  2  0
 62 55  1  0
 63 53  1  0
 65 67  2  0
 66 65  1  0
 68 66  1  0
 69 78  2  0
 69 74  1  0
 70 66  1  0
 70 74  1  0
 71 70  1  0
 72 73  1  0
 72 71  1  0
 73 69  1  0
 74 75  2  0
 75 76  1  0
 77 76  2  0
 78 77  1  0
 79 53  1  0
 79 80  1  0
 79 89  1  0
 80 83  1  0
 81 85  1  0
 81 80  1  0
 82 81  2  0
 85 84  1  0
 87 85  1  0
 87 88  1  0
 87 86  1  0
 89 92  1  1
 89 90  1  0
 91 89  1  0
M  ISO  4  10 100  19 100  51 101  52 101
M  END
>  <TORSDO>  (73) 
F 21

>  <SCORE>  (73) 
-12.957

>  <name>  (73) 
72

>  <ligand_id>  (73) 
72

>  <original_smiles>  (73) 
[H]c1c(C([H])([H])C([H])([H])C([H])(Oc2c([H])c([H])c3c(c2[H])C([H])([H])N(C(=O)C([H])(N([H])C(=O)C([H])(N([H])C([H])([H])[H])C([H])([H])[H])C(C([H])([H])[H])(C([H])([H])[H])C([H])([H])[H])C([H])(C(=O)N([H])C2([H])c4c([H])c([H])c([H])c([H])c4C([H])([H])C([H])([H])C2([H])[H])C3([H])[H])C([H])([H])[H])nc(C([H])([H])C([H])([H])[H])c(C([H])([H])N(C(=O)N2C([H])([H])C([H])([H])C([H])([H])C([H])(n3nc(-c4c([H])c([H])c(Oc5c([H])c([H])c(F)c([H])c5F)c([H])c4[H])c(C(=O)N([H])[H])c3N([H])[H])C2([H])[H])C([H])([H])[H])c1[H]

>  <smiles>  (73) 
[H]c1c(C([H])([H])C([H])([H])C([H])(Oc2c([H])c([H])c3c(c2[H])C([H])([H])N(C(=O)C([H])(N([H])C(=O)C([H])(N([H])C([H])([H])[H])C([H])([H])[H])C(C([H])([H])[H])(C([H])([H])[H])C([H])([H])[H])C([H])(C(=O)N([H])C2([H])c4c([H])c([H])c([H])c([H])c4C([H])([H])C([H])([H])C2([H])[H])C3([H])[H])C([H])([H])[H])nc(C([H])([H])C([H])([H])[H])c(C([H])([H])N(C(=O)N2C([H])([H])C([H])([H])C([H])([H])C([H])(n3nc(-c4c([H])c([H])c(Oc5c([H])c([H])c(F)c([H])c5F)c([H])c4[H])c(C(=O)N([H])[H])c3N([H])[H])C2([H])[H])C([H])([H])[H])c1[H]

$$$$
73:0:0
     RDKit          3D

 88 95  0  0  1  0  0  0  0  0999 V2000
  -28.6160  -21.8520   20.0740 C   0  0  0  0  0  3  0  0  0  0  0  0
  -28.9550  -23.4540   20.4480 C   0  0  0  0  0  3  0  0  0  0  0  0
  -28.3630  -24.7810   18.3240 C   0  0  0  0  0  1  0  0  0  0  0  0
  -28.1140  -24.7710   19.8430 C   0  0  0  0  0  3  0  0  0  0  0  0
  -28.2700  -26.2520   20.2790 O   0  0  0  0  0  0  0  0  0  0  0  0
  -24.6140  -31.9110   23.2280 C   0  0  0  0  0  0  0  0  0  0  0  0
  -27.1970  -27.2130   20.2000 C   0  0  0  0  0  0  0  0  0  0  0  0
  -23.4130  -30.5100   21.5950 C   0  0  0  0  0  3  0  0  0  0  0  0
  -24.8610  -28.9410   20.1730 C   0  0  0  0  0  0  0  0  0  0  0  0
  -25.9660  -30.7850   21.4240 C   0  0  0  0  0  2  0  0  0  0  0  0
  -26.0410  -29.3940   20.7750 C   0  0  0  0  0  0  0  0  0  0  0  0
  -27.2090  -28.5460   20.7720 C   0  0  0  0  0  3  0  0  0  0  0  0
  -25.9810  -26.8550   19.5710 C   0  0  0  0  0  3  0  0  0  0  0  0
  -24.8420  -27.6830   19.5570 C   0  0  0  0  0  3  0  0  0  0  0  0
  -23.6320  -29.8330   20.2180 C   0  0  0  0  0  2  0  0  0  0  0  0
  -24.6850  -31.0890   22.1370 N   0  0  0  0  0  0  0  0  0  0  0  0
  -23.5280  -32.1940   23.7570 O   0  0  0  0  0  0  0  0  0  0  0  0
  -22.7400  -29.5000   22.5590 C   0  0  0  0  0  0  0  0  0  0  0  0
  -21.4150  -29.3120   22.4210 N   0  0  0  0  0  0  0  0  0  0  0  0
  -23.4100  -28.8910   23.3950 O   0  0  0  0  0  0  0  0  0  0  0  0
  -20.9300  -29.8560   21.7210 H   0  0  0  0  0  0  0  0  0  0  0  0
  -18.0440  -28.0700   22.8910 C   0  0  0  0  0  0  0  0  0  0  0  0
  -20.5960  -28.3750   23.1930 C   0  0  0  0  0  3  0  0  0  0  0  0
  -20.7270  -26.9350   22.6430 C   0  0  0  0  0  2  0  0  0  0  0  0
  -19.6450  -26.5800   21.6180 C   0  0  0  0  0  2  0  0  0  0  0  0
  -18.2510  -26.7140   22.2390 C   0  0  0  0  0  2  0  0  0  0  0  0
  -19.1450  -28.8560   23.3250 C   0  0  0  0  0  0  0  0  0  0  0  0
  -18.8980  -30.1240   23.8960 C   0  0  0  0  0  3  0  0  0  0  0  0
  -17.5830  -30.6060   24.0380 C   0  0  0  0  0  3  0  0  0  0  0  0
  -16.4970  -29.8170   23.6190 C   0  0  0  0  0  3  0  0  0  0  0  0
  -16.7290  -28.5520   23.0520 C   0  0  0  0  0  3  0  0  0  0  0  0
  -25.8920  -32.5500   23.8510 C   0  0  0  0  0  3  0  0  0  0  0  0
  -25.5790  -33.9490   24.1770 N   0  0  0  0  0  0  0  0  0  0  0  0
  -25.8930  -35.0010   23.4090 C   0  0  0  0  0  0  0  0  0  0  0  0
  -26.5440  -34.8960   22.3660 O   0  0  0  0  0  0  0  0  0  0  0  0
  -24.9970  -34.1060   24.9870 H   0  0  0  0  0  0  0  0  0  0  0  0
  -24.1500  -36.7880   23.0810 C   0  0  0  0  0  1  0  0  0  0  0  0
  -25.4090  -36.3910   23.8690 C   0  0  0  0  0  3  0  0  0  0  0  0
  -27.5510  -37.2970   24.6590 C   0  0  0  0  0  1  0  0  0  0  0  0
  -26.4350  -37.4480   23.7290 N   0  0  0  0  0  0  0  0  0  0  0  0
  -26.0260  -38.3680   23.8720 H   0  0  0  0  0  0  0  0  0  0  0  0
  -26.4030  -31.7870   25.1350 C   0  0  1  0  0  0  0  0  0  0  0  0
  -25.3030  -31.5530   26.1990 C   0  0  0  0  0  1  0  0  0  0  0  0
  -26.9900  -30.4080   24.7590 C   0  0  0  0  0  1  0  0  0  0  0  0
  -27.5480  -32.5890   25.7980 C   0  0  0  0  0  1  0  0  0  0  0  0
  -29.5890  -20.5240   20.3890 C   0  0  0  0  0  2  0  0  0  0  0  0
  -29.2100  -18.9220   20.0590 C   0  0  1  0  0  0  0  0  0  0  0  0
  -28.1050  -18.6640   20.7560 F   0  0  0  0  0  0  0  0  0  0  0  0
  -28.7780  -18.8350   18.3330 Cl  0  0  0  0  0  0  0  0  0  0  0  0
  -30.2370  -17.6360   20.3540 C   0  0  0  0  0  2  0  0  0  0  0  0
  -30.5510  -14.9470   20.1680 C   0  0  0  0  0  0  0  0  0  0  0  0
  -30.3600  -12.6180   19.2110 C   0  0  0  0  0  2  0  0  0  0  0  0
  -29.3940  -12.6080   18.0050 C   0  0  0  0  0  2  0  0  0  0  0  0
  -27.9400  -12.4200   18.4740 C   0  0  0  0  0  2  0  0  0  0  0  0
  -27.5770  -13.3410   19.6690 C   0  0  0  0  0  3  0  0  0  0  0  0
  -28.6610  -13.3250   20.7670 C   0  0  0  0  0  2  0  0  0  0  0  0
  -29.9260  -13.7070   20.1270 N   0  0  0  0  0  0  0  0  0  0  0  0
  -31.7450  -15.0010   19.8600 O   0  0  0  0  0  0  0  0  0  0  0  0
  -29.8040  -16.1300   20.3510 N   0  0  0  0  0  0  0  0  0  0  0  0
  -28.8230  -15.9830   20.5320 H   0  0  0  0  0  0  0  0  0  0  0  0
  -25.2250  -13.9390   20.4850 C   0  0  0  0  0  0  0  0  0  0  0  0
  -24.1600  -13.1710   20.8700 C   0  0  0  0  0  0  0  0  0  0  0  0
  -24.6070  -11.8150   20.8000 C   0  0  0  0  0  0  0  0  0  0  0  0
  -26.2490  -13.0530   20.1990 N   0  0  0  0  0  0  0  0  0  0  0  0
  -25.8880  -11.7680   20.4540 N   0  0  0  0  0  0  0  0  0  0  0  0
  -23.8680  -10.5580   20.9850 C   0  0  0  0  0  0  0  0  0  0  0  0
  -24.3010   -9.5750   21.9010 C   0  0  0  0  0  3  0  0  0  0  0  0
  -23.5620   -8.3840   22.0760 C   0  0  0  0  0  3  0  0  0  0  0  0
  -22.3760   -8.1700   21.3340 C   0  0  0  0  0  0  0  0  0  0  0  0
  -21.9620   -9.1420   20.4070 C   0  0  0  0  0  3  0  0  0  0  0  0
  -22.7010  -10.3240   20.2310 C   0  0  0  0  0  3  0  0  0  0  0  0
  -21.6080   -7.0340   21.4190 O   0  0  0  0  0  0  0  0  0  0  0  0
  -21.5520   -6.2870   22.5680 C   0  0  0  0  0  0  0  0  0  0  0  0
  -21.1020   -6.8310   23.7900 C   0  0  0  0  0  3  0  0  0  0  0  0
  -20.9960   -6.0090   24.9300 C   0  0  0  0  0  3  0  0  0  0  0  0
  -21.3290   -4.6440   24.8490 C   0  0  0  0  0  0  0  0  0  0  0  0
  -21.7730   -4.0990   23.6310 C   0  0  0  0  0  3  0  0  0  0  0  0
  -21.8810   -4.9170   22.4930 C   0  0  0  0  0  0  0  0  0  0  0  0
  -22.2880   -4.3820   21.3170 F   0  0  0  0  0  0  0  0  0  0  0  0
  -21.2210   -3.8530   25.9410 F   0  0  0  0  0  0  0  0  0  0  0  0
  -22.7790  -13.6610   21.1870 C   0  0  0  0  0  0  0  0  0  0  0  0
  -22.0640  -12.9580   22.0580 N   0  0  0  0  0  0  0  0  0  0  0  0
  -22.3420  -14.7010   20.6960 O   0  0  0  0  0  0  0  0  0  0  0  0
  -22.4320  -12.1160   22.4760 H   0  0  0  0  0  0  0  0  0  0  0  0
  -21.1360  -13.2680   22.3130 H   0  0  0  0  0  0  0  0  0  0  0  0
  -25.4000  -15.3110   20.3280 N   0  0  0  0  0  0  0  0  0  0  0  0
  -24.6410  -15.9670   20.4740 H   0  0  0  0  0  0  0  0  0  0  0  0
  -26.2330  -15.7500   19.9570 H   0  0  0  0  0  0  0  0  0  0  0  0
  1 46  1  0
  1  2  2  0
  4  3  1  0
  4  5  1  0
  4  2  1  0
  6 17  2  0
  7  5  1  0
  7 12  1  0
  8 16  1  0
  8 18  1  0
  9 15  1  0
  9 11  1  0
 10 16  1  0
 11 10  1  0
 12 11  2  0
 13  7  2  0
 14 13  1  0
 14  9  2  0
 15  8  1  0
 16  6  1  0
 18 20  2  0
 19 18  1  0
 21 19  1  0
 22 31  2  0
 22 27  1  0
 23 19  1  0
 23 27  1  0
 24 23  1  0
 25 26  1  0
 25 24  1  0
 26 22  1  0
 27 28  2  0
 28 29  1  0
 30 29  2  0
 31 30  1  0
 32  6  1  0
 32 33  1  0
 32 42  1  0
 33 36  1  0
 34 38  1  0
 34 33  1  0
 35 34  2  0
 38 37  1  0
 40 38  1  0
 40 41  1  0
 40 39  1  0
 42 45  1  1
 42 43  1  0
 44 42  1  0
 47 49  1  0
 47 50  1  0
 47 46  1  0
 47 48  1  1
 51 59  1  0
 52 57  1  0
 53 54  1  0
 53 52  1  0
 55 54  1  0
 55 64  1  0
 55 56  1  0
 57 51  1  0
 57 56  1  0
 58 51  2  0
 59 50  1  0
 59 60  1  0
 61 62  2  0
 62 81  1  0
 63 62  1  0
 63 66  1  0
 64 65  1  0
 64 61  1  0
 65 63  2  0
 66 67  1  0
 67 68  2  0
 69 72  1  0
 69 68  1  0
 70 69  2  0
 71 70  1  0
 71 66  2  0
 72 73  1  0
 73 74  1  0
 74 75  2  0
 76 75  1  0
 76 80  1  0
 77 76  2  0
 78 73  2  0
 78 77  1  0
 79 78  1  0
 81 82  1  0
 82 85  1  0
 82 84  1  0
 83 81  2  0
 86 87  1  0
 86 61  1  0
 88 86  1  0
M  ISO  4   4 101   5 101  51 100  59 100
M  END
>  <TORSDO>  (74) 
F 21

>  <SCORE>  (74) 
-13.435

>  <name>  (74) 
73

>  <ligand_id>  (74) 
73

>  <original_smiles>  (74) 
[H]c1c([H])c([H])c2c(c1[H])C([H])([H])C([H])([H])C([H])([H])C2([H])N([H])C(=O)C1([H])N(C(=O)C([H])(N([H])C(=O)C([H])(N([H])C([H])([H])[H])C([H])([H])[H])C(C([H])([H])[H])(C([H])([H])[H])C([H])([H])[H])C([H])([H])c2c([H])c(OC([H])(C([H])([H])[H])C([H])([H])C([H])([H])C([H])([H])C(F)(Cl)C([H])([H])N([H])C(=O)N3C([H])([H])C([H])([H])C([H])([H])C([H])(n4nc(-c5c([H])c([H])c(Oc6c([H])c([H])c(F)c([H])c6F)c([H])c5[H])c(C(=O)N([H])[H])c4N([H])[H])C3([H])[H])c([H])c([H])c2C1([H])[H]

>  <smiles>  (74) 
[H]c1c([H])c([H])c2c(c1[H])C([H])([H])C([H])([H])C([H])([H])C2([H])N([H])C(=O)C1([H])N(C(=O)C([H])(N([H])C(=O)C([H])(N([H])C([H])([H])[H])C([H])([H])[H])C(C([H])([H])[H])(C([H])([H])[H])C([H])([H])[H])C([H])([H])c2c([H])c(OC([H])(C([H])([H])[H])C([H])([H])C([H])([H])C([H])([H])C(F)(Cl)C([H])([H])N([H])C(=O)N3C([H])([H])C([H])([H])C([H])([H])C([H])(n4nc(-c5c([H])c([H])c(Oc6c([H])c([H])c(F)c([H])c6F)c([H])c5[H])c(C(=O)N([H])[H])c4N([H])[H])C3([H])[H])c([H])c([H])c2C1([H])[H]

$$$$
74:0:0
     RDKit          3D

100108  0  0  1  0  0  0  0  0999 V2000
  -28.7480  -21.3560   18.1370 C   0  0  0  0  0  3  0  0  0  0  0  0
  -29.2660  -20.3110   17.3600 C   0  0  0  0  0  0  0  0  0  0  0  0
  -30.0510  -19.3050   17.9860 C   0  0  0  0  0  0  0  0  0  0  0  0
  -29.0040  -21.4040   19.5120 C   0  0  0  0  0  0  0  0  0  0  0  0
  -30.1520  -19.3130   19.4150 C   0  0  0  0  0  0  0  0  0  0  0  0
  -28.9650  -20.3250   15.8660 C   0  0  0  0  0  1  0  0  0  0  0  0
  -29.6660  -20.3770   20.1370 N   0  0  0  0  0  0  0  0  0  0  0  0
  -30.8140  -18.3090   17.0960 C   0  0  0  0  0  2  0  0  0  0  0  0
  -33.2170  -19.2170   17.4500 C   0  0  0  0  0  1  0  0  0  0  0  0
  -32.0790  -18.9460   16.4480 C   0  0  0  0  0  3  0  0  0  0  0  0
  -32.5600  -18.2230   15.1640 C   0  0  0  0  0  2  0  0  0  0  0  0
  -33.2490  -16.9450   15.4170 N   0  0  0  0  0  4  0  0  0  0  0  0
  -34.0570  -17.0870   15.9960 H   0  0  0  0  0  0  0  0  0  0  0  0
  -33.5630  -16.5530   14.5460 H   0  0  0  0  0  0  0  0  0  0  0  0
  -32.6410  -16.2780   15.8530 H   0  0  0  0  0  0  0  0  0  0  0  0
  -28.4560  -22.5930   20.3520 C   0  0  0  0  0  3  0  0  0  0  0  0
  -28.6090  -24.0610   19.7720 C   0  0  0  0  0  3  0  0  0  0  0  0
  -28.5110  -25.2520   22.0560 C   0  0  0  0  0  1  0  0  0  0  0  0
  -27.9490  -25.2110   20.6280 C   0  0  0  0  0  3  0  0  0  0  0  0
  -28.0980  -26.5760   20.1160 O   0  0  0  0  0  0  0  0  0  0  0  0
  -24.4860  -31.9360   23.2870 C   0  0  0  0  0  0  0  0  0  0  0  0
  -26.9740  -27.3990   20.1450 C   0  0  0  0  0  0  0  0  0  0  0  0
  -23.2300  -30.5690   21.6570 C   0  0  0  0  0  3  0  0  0  0  0  0
  -24.6320  -29.0100   20.1930 C   0  0  0  0  0  0  0  0  0  0  0  0
  -25.7650  -30.8650   21.4250 C   0  0  0  0  0  2  0  0  0  0  0  0
  -25.8140  -29.4920   20.7690 C   0  0  0  0  0  0  0  0  0  0  0  0
  -26.9940  -28.6940   20.7350 C   0  0  0  0  0  3  0  0  0  0  0  0
  -25.7750  -26.9560   19.5510 C   0  0  0  0  0  3  0  0  0  0  0  0
  -24.6120  -27.7490   19.5770 C   0  0  0  0  0  3  0  0  0  0  0  0
  -23.4090  -29.8980   20.2700 C   0  0  0  0  0  2  0  0  0  0  0  0
  -24.5130  -31.1400   22.1800 N   0  0  0  0  0  0  0  0  0  0  0  0
  -23.4170  -32.2240   23.8440 O   0  0  0  0  0  0  0  0  0  0  0  0
  -22.5670  -29.5580   22.6240 C   0  0  0  0  0  0  0  0  0  0  0  0
  -21.2410  -29.3840   22.4920 N   0  0  0  0  0  0  0  0  0  0  0  0
  -23.2420  -28.9350   23.4470 O   0  0  0  0  0  0  0  0  0  0  0  0
  -20.7590  -29.9320   21.7940 H   0  0  0  0  0  0  0  0  0  0  0  0
  -17.8580  -28.1900   22.9710 C   0  0  0  0  0  0  0  0  0  0  0  0
  -20.4150  -28.4500   23.2590 C   0  0  0  0  0  3  0  0  0  0  0  0
  -20.5220  -27.0150   22.6920 C   0  0  0  0  0  2  0  0  0  0  0  0
  -19.4280  -26.6860   21.6700 C   0  0  0  0  0  2  0  0  0  0  0  0
  -18.0410  -26.8370   22.3050 C   0  0  0  0  0  2  0  0  0  0  0  0
  -18.9750  -28.9550   23.4030 C   0  0  0  0  0  0  0  0  0  0  0  0
  -18.7550  -30.2240   23.9820 C   0  0  0  0  0  3  0  0  0  0  0  0
  -17.4500  -30.7270   24.1350 C   0  0  0  0  0  3  0  0  0  0  0  0
  -16.3460  -29.9590   23.7200 C   0  0  0  0  0  3  0  0  0  0  0  0
  -16.5510  -28.6920   23.1440 C   0  0  0  0  0  3  0  0  0  0  0  0
  -25.7930  -32.5390   23.8920 C   0  0  0  0  0  3  0  0  0  0  0  0
  -26.2860  -31.7750   25.1790 C   0  0  1  0  0  0  0  0  0  0  0  0
  -25.1860  -31.5880   26.2490 C   0  0  0  0  0  1  0  0  0  0  0  0
  -26.8250  -30.3730   24.8110 C   0  0  0  0  0  1  0  0  0  0  0  0
  -27.4600  -32.5480   25.8270 C   0  0  0  0  0  1  0  0  0  0  0  0
  -25.5260  -33.9510   24.1960 N   0  0  0  0  0  0  0  0  0  0  0  0
  -25.9090  -34.9800   23.4290 C   0  0  0  0  0  0  0  0  0  0  0  0
  -26.5940  -34.8370   22.4110 O   0  0  0  0  0  0  0  0  0  0  0  0
  -24.9150  -34.1320   24.9790 H   0  0  0  0  0  0  0  0  0  0  0  0
  -24.2820  -36.8500   22.9930 C   0  0  0  0  0  1  0  0  0  0  0  0
  -25.4670  -36.3920   23.8590 C   0  0  0  0  0  3  0  0  0  0  0  0
  -27.5970  -37.1950   24.7830 C   0  0  0  0  0  1  0  0  0  0  0  0
  -26.5480  -37.3980   23.7860 N   0  0  0  0  0  0  0  0  0  0  0  0
  -26.1740  -38.3360   23.9050 H   0  0  0  0  0  0  0  0  0  0  0  0
  -30.9190  -18.2020   20.2140 C   0  0  0  0  0  2  0  0  0  0  0  0
  -30.1120  -17.2860   21.2150 C   0  0  0  0  0  2  0  0  0  0  0  0
  -30.7470  -14.7770   20.8130 C   0  0  0  0  0  0  0  0  0  0  0  0
  -30.5950  -12.5730   19.7140 C   0  0  0  0  0  2  0  0  0  0  0  0
  -29.6950  -12.7260   18.4700 C   0  0  0  0  0  2  0  0  0  0  0  0
  -28.2070  -12.5490   18.8370 C   0  0  0  0  0  2  0  0  0  0  0  0
  -27.7870  -13.3840   20.0740 C   0  0  0  0  0  3  0  0  0  0  0  0
  -28.8040  -13.2210   21.2250 C   0  0  0  0  0  2  0  0  0  0  0  0
  -30.1340  -13.5640   20.6980 N   0  0  0  0  0  0  0  0  0  0  0  0
  -31.9460  -14.9460   20.5960 O   0  0  0  0  0  0  0  0  0  0  0  0
  -29.8960  -15.8290   20.9450 N   0  0  0  0  0  0  0  0  0  0  0  0
  -28.9280  -15.5480   20.9850 H   0  0  0  0  0  0  0  0  0  0  0  0
  -25.3500  -13.9450   20.6780 C   0  0  0  0  0  0  0  0  0  0  0  0
  -24.2800  -13.1520   20.9940 C   0  0  0  0  0  0  0  0  0  0  0  0
  -24.7670  -11.8110   20.9870 C   0  0  0  0  0  0  0  0  0  0  0  0
  -26.4210  -13.0840   20.4970 N   0  0  0  0  0  0  0  0  0  0  0  0
  -26.0720  -11.7960   20.7420 N   0  0  0  0  0  0  0  0  0  0  0  0
  -24.0560  -10.5370   21.1370 C   0  0  0  0  0  0  0  0  0  0  0  0
  -24.4370   -9.5870   22.1130 C   0  0  0  0  0  3  0  0  0  0  0  0
  -23.7240   -8.3760   22.2500 C   0  0  0  0  0  3  0  0  0  0  0  0
  -22.6170   -8.1050   21.4120 C   0  0  0  0  0  0  0  0  0  0  0  0
  -22.2560   -9.0420   20.4280 C   0  0  0  0  0  3  0  0  0  0  0  0
  -22.9690  -10.2440   20.2890 C   0  0  0  0  0  3  0  0  0  0  0  0
  -21.8820   -6.9440   21.4570 O   0  0  0  0  0  0  0  0  0  0  0  0
  -21.7470   -6.2250   22.6180 C   0  0  0  0  0  0  0  0  0  0  0  0
  -21.1540   -6.7790   23.7740 C   0  0  0  0  0  3  0  0  0  0  0  0
  -20.9690   -5.9810   24.9220 C   0  0  0  0  0  3  0  0  0  0  0  0
  -21.3670   -4.6310   24.9130 C   0  0  0  0  0  0  0  0  0  0  0  0
  -21.9530   -4.0770   23.7610 C   0  0  0  0  0  3  0  0  0  0  0  0
  -22.1390   -4.8720   22.6160 C   0  0  0  0  0  0  0  0  0  0  0  0
  -22.6850   -4.3260   21.5010 F   0  0  0  0  0  0  0  0  0  0  0  0
  -21.1840   -3.8620   26.0120 F   0  0  0  0  0  0  0  0  0  0  0  0
  -22.8630  -13.6050   21.1920 C   0  0  0  0  0  0  0  0  0  0  0  0
  -22.1020  -12.8920   22.0160 N   0  0  0  0  0  0  0  0  0  0  0  0
  -22.4350  -14.6240   20.6530 O   0  0  0  0  0  0  0  0  0  0  0  0
  -22.4610  -12.0660   22.4730 H   0  0  0  0  0  0  0  0  0  0  0  0
  -21.1480  -13.1760   22.1910 H   0  0  0  0  0  0  0  0  0  0  0  0
  -25.4960  -15.3190   20.5060 N   0  0  0  0  0  0  0  0  0  0  0  0
  -24.7030  -15.9480   20.5640 H   0  0  0  0  0  0  0  0  0  0  0  0
  -26.3390  -15.7780   20.1850 H   0  0  0  0  0  0  0  0  0  0  0  0
  1  4  1  0
  2  3  1  0
  2  1  2  0
  3  5  2  0
  4  7  2  0
  4 16  1  0
  5  7  1  0
  5 61  1  0
  6  2  1  0
  8  3  1  0
 10  8  1  0
 10  9  1  0
 11 12  1  0
 11 10  1  0
 12 15  1  0
 12 13  1  0
 14 12  1  0
 17 16  2  0
 17 19  1  0
 19 18  1  0
 20 22  1  0
 20 19  1  0
 21 32  2  0
 22 27  1  0
 23 31  1  0
 23 33  1  0
 24 30  1  0
 24 26  1  0
 25 31  1  0
 26 25  1  0
 27 26  2  0
 28 29  1  0
 28 22  2  0
 29 24  2  0
 30 23  1  0
 31 21  1  0
 33 35  2  0
 34 33  1  0
 36 34  1  0
 37 46  2  0
 37 42  1  0
 38 34  1  0
 38 42  1  0
 39 38  1  0
 40 41  1  0
 40 39  1  0
 41 37  1  0
 42 43  2  0
 43 44  1  0
 45 44  2  0
 46 45  1  0
 47 21  1  0
 47 52  1  0
 47 48  1  0
 48 51  1  1
 48 49  1  0
 50 48  1  0
 52 55  1  0
 53 57  1  0
 53 52  1  0
 54 53  2  0
 57 56  1  0
 59 57  1  0
 59 60  1  0
 59 58  1  0
 61 62  1  0
 63 71  1  0
 64 69  1  0
 65 66  1  0
 65 64  1  0
 67 66  1  0
 67 76  1  0
 67 68  1  0
 69 63  1  0
 69 68  1  0
 70 63  2  0
 71 72  1  0
 71 62  1  0
 73 74  2  0
 74 93  1  0
 75 74  1  0
 75 78  1  0
 76 73  1  0
 76 77  1  0
 77 75  2  0
 78 79  1  0
 79 80  2  0
 81 84  1  0
 81 80  1  0
 82 81  2  0
 83 82  1  0
 83 78  2  0
 84 85  1  0
 85 86  1  0
 86 87  2  0
 88 87  1  0
 88 92  1  0
 89 88  2  0
 90 85  2  0
 90 89  1  0
 91 90  1  0
 93 94  1  0
 94 97  1  0
 94 96  1  0
 95 93  2  0
 98 99  1  0
 98 73  1  0
100 98  1  0
M  ISO  4  19 101  20 101  63 100  71 100
M  END
>  <TORSDO>  (75) 
F 25

>  <SCORE>  (75) 
-12.264

>  <name>  (75) 
74

>  <ligand_id>  (75) 
74

>  <original_smiles>  (75) 
[H]c1c([H])c([H])c2c(c1[H])C([H])([H])C([H])([H])C([H])([H])C2([H])N([H])C(=O)C1([H])N(C(=O)C([H])(N([H])C(=O)C([H])(N([H])C([H])([H])[H])C([H])([H])[H])C(C([H])([H])[H])(C([H])([H])[H])C([H])([H])[H])C([H])([H])c2c([H])c(OC([H])(C([H])([H])[H])C([H])([H])C([H])([H])c3nc(C([H])([H])C([H])([H])N([H])C(=O)N4C([H])([H])C([H])([H])C([H])([H])C([H])(n5nc(-c6c([H])c([H])c(Oc7c([H])c([H])c(F)c([H])c7F)c([H])c6[H])c(C(=O)N([H])[H])c5N([H])[H])C4([H])[H])c(C([H])([H])C([H])(C([H])([H])[H])C([H])([H])[N+]([H])([H])[H])c(C([H])([H])[H])c3[H])c([H])c([H])c2C1([H])[H]

>  <smiles>  (75) 
[H]c1c([H])c([H])c2c(c1[H])C([H])([H])C([H])([H])C([H])([H])C2([H])N([H])C(=O)C1([H])N(C(=O)C([H])(N([H])C(=O)C([H])(N([H])C([H])([H])[H])C([H])([H])[H])C(C([H])([H])[H])(C([H])([H])[H])C([H])([H])[H])C([H])([H])c2c([H])c(OC([H])(C([H])([H])[H])C([H])([H])C([H])([H])c3nc(C([H])([H])C([H])([H])N([H])C(=O)N4C([H])([H])C([H])([H])C([H])([H])C([H])(n5nc(-c6c([H])c([H])c(Oc7c([H])c([H])c(F)c([H])c7F)c([H])c6[H])c(C(=O)N([H])[H])c5N([H])[H])C4([H])[H])c(C([H])([H])C([H])(C([H])([H])[H])C([H])([H])[N+]([H])([H])[H])c(C([H])([H])[H])c3[H])c([H])c([H])c2C1([H])[H]

$$$$
75:0:0
     RDKit          3D

 92100  0  0  1  0  0  0  0  0999 V2000
  -29.7910  -19.1080   19.1660 C   0  0  0  0  0  3  0  0  0  0  0  0
  -29.4620  -19.8020   21.2170 C   0  0  0  0  0  3  0  0  0  0  0  0
  -29.8530  -18.6590   20.5180 C   0  0  0  0  0  0  0  0  0  0  0  0
  -29.4330  -20.4440   19.0890 C   0  0  0  0  0  0  0  0  0  0  0  0
  -29.2020  -20.9240   20.3850 N   0  0  0  0  0  0  0  0  0  0  0  0
  -27.8430  -21.5990   17.4920 C   0  0  0  0  0  1  0  0  0  0  0  0
  -30.0170  -20.6850   16.6380 C   0  0  0  0  0  1  0  0  0  0  0  0
  -29.3060  -21.2990   17.8560 C   0  0  0  0  0  3  0  0  0  0  0  0
  -30.3870  -17.2600   21.0710 C   0  0  0  0  0  2  0  0  0  0  0  0
  -30.6330  -14.7530   20.3560 C   0  0  0  0  0  0  0  0  0  0  0  0
  -30.4050  -12.5050   19.2820 C   0  0  0  0  0  2  0  0  0  0  0  0
  -29.4650  -12.6060   18.0620 C   0  0  0  0  0  2  0  0  0  0  0  0
  -27.9940  -12.4330   18.4910 C   0  0  0  0  0  2  0  0  0  0  0  0
  -27.6280  -13.3010   19.7250 C   0  0  0  0  0  3  0  0  0  0  0  0
  -28.6890  -13.1870   20.8400 C   0  0  0  0  0  2  0  0  0  0  0  0
  -29.9820  -13.5450   20.2470 N   0  0  0  0  0  0  0  0  0  0  0  0
  -31.8240  -14.8390   20.0480 O   0  0  0  0  0  0  0  0  0  0  0  0
  -29.8910  -15.8850   20.6450 N   0  0  0  0  0  0  0  0  0  0  0  0
  -28.9030  -15.7290   20.7740 H   0  0  0  0  0  0  0  0  0  0  0  0
  -25.2380  -13.8950   20.4400 C   0  0  0  0  0  0  0  0  0  0  0  0
  -24.1710  -13.1230   20.8120 C   0  0  0  0  0  0  0  0  0  0  0  0
  -24.6360  -11.7720   20.7920 C   0  0  0  0  0  0  0  0  0  0  0  0
  -26.2830  -13.0140   20.2130 N   0  0  0  0  0  0  0  0  0  0  0  0
  -25.9280  -11.7330   20.4880 N   0  0  0  0  0  0  0  0  0  0  0  0
  -23.9090  -10.5110   20.9850 C   0  0  0  0  0  0  0  0  0  0  0  0
  -24.3330   -9.5530   21.9330 C   0  0  0  0  0  3  0  0  0  0  0  0
  -23.6080   -8.3560   22.1150 C   0  0  0  0  0  3  0  0  0  0  0  0
  -22.4440   -8.1070   21.3500 C   0  0  0  0  0  0  0  0  0  0  0  0
  -22.0380   -9.0540   20.3930 C   0  0  0  0  0  3  0  0  0  0  0  0
  -22.7640  -10.2440   20.2080 C   0  0  0  0  0  3  0  0  0  0  0  0
  -21.6890   -6.9620   21.4410 O   0  0  0  0  0  0  0  0  0  0  0  0
  -21.6240   -6.2340   22.6020 C   0  0  0  0  0  0  0  0  0  0  0  0
  -21.1610   -6.7990   23.8110 C   0  0  0  0  0  3  0  0  0  0  0  0
  -21.0430   -5.9960   24.9630 C   0  0  0  0  0  3  0  0  0  0  0  0
  -21.3780   -4.6300   24.9080 C   0  0  0  0  0  0  0  0  0  0  0  0
  -21.8350   -4.0640   23.7040 C   0  0  0  0  0  3  0  0  0  0  0  0
  -21.9540   -4.8650   22.5540 C   0  0  0  0  0  0  0  0  0  0  0  0
  -22.3730   -4.3100   21.3910 F   0  0  0  0  0  0  0  0  0  0  0  0
  -21.2590   -3.8570   26.0120 F   0  0  0  0  0  0  0  0  0  0  0  0
  -22.7730  -13.6000   21.0740 C   0  0  0  0  0  0  0  0  0  0  0  0
  -22.0400  -12.9090   21.9400 N   0  0  0  0  0  0  0  0  0  0  0  0
  -22.3380  -14.6220   20.5460 O   0  0  0  0  0  0  0  0  0  0  0  0
  -22.4030  -12.0800   22.3890 H   0  0  0  0  0  0  0  0  0  0  0  0
  -21.1000  -13.2100   22.1540 H   0  0  0  0  0  0  0  0  0  0  0  0
  -25.4000  -15.2640   20.2510 N   0  0  0  0  0  0  0  0  0  0  0  0
  -24.6300  -15.9170   20.3460 H   0  0  0  0  0  0  0  0  0  0  0  0
  -26.2410  -15.6990   19.8920 H   0  0  0  0  0  0  0  0  0  0  0  0
  -28.6490  -22.2770   20.8710 C   0  0  0  0  0  3  0  0  0  0  0  0
  -29.0170  -23.7440   20.2700 C   0  0  0  0  0  3  0  0  0  0  0  0
  -28.4520  -25.1750   22.3600 C   0  0  0  0  0  1  0  0  0  0  0  0
  -28.2140  -25.0350   20.8470 C   0  0  0  0  0  3  0  0  0  0  0  0
  -28.4250  -26.4240   20.3060 O   0  0  0  0  0  0  0  0  0  0  0  0
  -24.6370  -31.8910   23.2390 C   0  0  0  0  0  0  0  0  0  0  0  0
  -27.3210  -27.3050   20.2590 C   0  0  0  0  0  0  0  0  0  0  0  0
  -23.4670  -30.4760   21.5890 C   0  0  0  0  0  3  0  0  0  0  0  0
  -24.9510  -28.9240   20.1910 C   0  0  0  0  0  0  0  0  0  0  0  0
  -26.0090  -30.8050   21.4400 C   0  0  0  0  0  2  0  0  0  0  0  0
  -26.1090  -29.4200   20.8040 C   0  0  0  0  0  0  0  0  0  0  0  0
  -27.2990  -28.6240   20.8250 C   0  0  0  0  0  3  0  0  0  0  0  0
  -26.1430  -26.8750   19.6110 C   0  0  0  0  0  3  0  0  0  0  0  0
  -24.9720  -27.6590   19.5820 C   0  0  0  0  0  3  0  0  0  0  0  0
  -23.7080  -29.7940   20.2160 C   0  0  0  0  0  2  0  0  0  0  0  0
  -24.7230  -31.0760   22.1460 N   0  0  0  0  0  0  0  0  0  0  0  0
  -23.5440  -32.1620   23.7570 O   0  0  0  0  0  0  0  0  0  0  0  0
  -22.7970  -29.4610   22.5460 C   0  0  0  0  0  0  0  0  0  0  0  0
  -21.4720  -29.2860   22.4130 N   0  0  0  0  0  0  0  0  0  0  0  0
  -23.4710  -28.8340   23.3680 O   0  0  0  0  0  0  0  0  0  0  0  0
  -20.9870  -29.8440   21.7240 H   0  0  0  0  0  0  0  0  0  0  0  0
  -18.0860  -28.1070   22.9150 C   0  0  0  0  0  0  0  0  0  0  0  0
  -20.6480  -28.3490   23.1800 C   0  0  0  0  0  3  0  0  0  0  0  0
  -20.7370  -26.9190   22.5960 C   0  0  0  0  0  2  0  0  0  0  0  0
  -19.6320  -26.6110   21.5810 C   0  0  0  0  0  2  0  0  0  0  0  0
  -18.2520  -26.7610   22.2300 C   0  0  0  0  0  2  0  0  0  0  0  0
  -19.2120  -28.8590   23.3470 C   0  0  0  0  0  0  0  0  0  0  0  0
  -19.0020  -30.1180   23.9490 C   0  0  0  0  0  3  0  0  0  0  0  0
  -17.7020  -30.6270   24.1210 C   0  0  0  0  0  3  0  0  0  0  0  0
  -16.5910  -29.8740   23.7060 C   0  0  0  0  0  3  0  0  0  0  0  0
  -16.7850  -28.6150   23.1080 C   0  0  0  0  0  3  0  0  0  0  0  0
  -25.9050  -32.5390   23.8770 C   0  0  0  0  0  3  0  0  0  0  0  0
  -25.5810  -33.9380   24.1910 N   0  0  0  0  0  0  0  0  0  0  0  0
  -25.9180  -34.9870   23.4290 C   0  0  0  0  0  0  0  0  0  0  0  0
  -26.6020  -34.8810   22.4070 O   0  0  0  0  0  0  0  0  0  0  0  0
  -24.9730  -34.0940   24.9810 H   0  0  0  0  0  0  0  0  0  0  0  0
  -24.1890  -36.7720   23.0350 C   0  0  0  0  0  1  0  0  0  0  0  0
  -25.4160  -36.3760   23.8700 C   0  0  0  0  0  3  0  0  0  0  0  0
  -27.5300  -37.2770   24.7370 C   0  0  0  0  0  1  0  0  0  0  0  0
  -26.4470  -37.4330   23.7700 N   0  0  0  0  0  0  0  0  0  0  0  0
  -26.0340  -38.3520   23.9020 H   0  0  0  0  0  0  0  0  0  0  0  0
  -26.4040  -31.7820   25.1690 C   0  0  1  0  0  0  0  0  0  0  0  0
  -25.2950  -31.5500   26.2220 C   0  0  0  0  0  1  0  0  0  0  0  0
  -27.0020  -30.4060   24.8010 C   0  0  0  0  0  1  0  0  0  0  0  0
  -27.5390  -32.5890   25.8410 C   0  0  0  0  0  1  0  0  0  0  0  0
  1  3  1  0
  3  9  1  0
  3  2  2  0
  4  1  2  0
  4  5  1  0
  5 48  1  0
  5  2  1  0
  6  8  1  0
  7  8  1  0
  8  4  1  0
 10 18  1  0
 11 16  1  0
 12 13  1  0
 12 11  1  0
 14 13  1  0
 14 23  1  0
 14 15  1  0
 16 10  1  0
 16 15  1  0
 17 10  2  0
 18 19  1  0
 18  9  1  0
 20 21  2  0
 21 40  1  0
 22 21  1  0
 22 25  1  0
 23 20  1  0
 23 24  1  0
 24 22  2  0
 25 26  1  0
 26 27  2  0
 28 31  1  0
 28 27  1  0
 29 28  2  0
 30 29  1  0
 30 25  2  0
 31 32  1  0
 32 33  1  0
 33 34  2  0
 35 34  1  0
 35 39  1  0
 36 35  2  0
 37 32  2  0
 37 36  1  0
 38 37  1  0
 40 41  1  0
 41 44  1  0
 41 43  1  0
 42 40  2  0
 45 46  1  0
 45 20  1  0
 47 45  1  0
 49 51  1  0
 49 48  2  0
 51 50  1  0
 52 51  1  0
 53 64  2  0
 54 52  1  0
 54 59  1  0
 55 63  1  0
 55 65  1  0
 56 62  1  0
 56 58  1  0
 57 63  1  0
 58 59  2  0
 58 57  1  0
 60 54  2  0
 61 60  1  0
 61 56  2  0
 62 55  1  0
 63 53  1  0
 65 67  2  0
 66 65  1  0
 68 66  1  0
 69 78  2  0
 69 74  1  0
 70 66  1  0
 70 74  1  0
 71 70  1  0
 72 73  1  0
 72 71  1  0
 73 69  1  0
 74 75  2  0
 75 76  1  0
 77 76  2  0
 78 77  1  0
 79 53  1  0
 79 80  1  0
 79 89  1  0
 80 83  1  0
 81 85  1  0
 81 80  1  0
 82 81  2  0
 85 84  1  0
 87 85  1  0
 87 88  1  0
 87 86  1  0
 89 92  1  1
 89 90  1  0
 91 89  1  0
M  ISO  4  10 100  18 100  51 101  52 101
M  END
>  <TORSDO>  (76) 
F 21

>  <SCORE>  (76) 
-13.392

>  <name>  (76) 
75

>  <ligand_id>  (76) 
75

>  <original_smiles>  (76) 
[H]c1c([H])c([H])c2c(c1[H])C([H])([H])C([H])([H])C([H])([H])C2([H])N([H])C(=O)C1([H])N(C(=O)C([H])(N([H])C(=O)C([H])(N([H])C([H])([H])[H])C([H])([H])[H])C(C([H])([H])[H])(C([H])([H])[H])C([H])([H])[H])C([H])([H])c2c([H])c(OC([H])(C([H])([H])[H])C([H])([H])C([H])([H])n3c([H])c(C([H])([H])N([H])C(=O)N4C([H])([H])C([H])([H])C([H])([H])C([H])(n5nc(-c6c([H])c([H])c(Oc7c([H])c([H])c(F)c([H])c7F)c([H])c6[H])c(C(=O)N([H])[H])c5N([H])[H])C4([H])[H])c([H])c3C([H])(C([H])([H])[H])C([H])([H])[H])c([H])c([H])c2C1([H])[H]

>  <smiles>  (76) 
[H]c1c([H])c([H])c2c(c1[H])C([H])([H])C([H])([H])C([H])([H])C2([H])N([H])C(=O)C1([H])N(C(=O)C([H])(N([H])C(=O)C([H])(N([H])C([H])([H])[H])C([H])([H])[H])C(C([H])([H])[H])(C([H])([H])[H])C([H])([H])[H])C([H])([H])c2c([H])c(OC([H])(C([H])([H])[H])C([H])([H])C([H])([H])n3c([H])c(C([H])([H])N([H])C(=O)N4C([H])([H])C([H])([H])C([H])([H])C([H])(n5nc(-c6c([H])c([H])c(Oc7c([H])c([H])c(F)c([H])c7F)c([H])c6[H])c(C(=O)N([H])[H])c5N([H])[H])C4([H])[H])c([H])c3C([H])(C([H])([H])[H])C([H])([H])[H])c([H])c([H])c2C1([H])[H]

$$$$
76:0:0
     RDKit          3D

 93101  0  0  1  0  0  0  0  0999 V2000
  -29.3280  -23.0770   20.7620 N   0  0  0  0  0  4  0  0  0  0  0  0
  -28.6780  -22.8280   21.4930 H   0  0  0  0  0  0  0  0  0  0  0  0
  -28.9040  -22.8050   19.8870 H   0  0  0  0  0  0  0  0  0  0  0  0
  -29.8020  -25.0880   22.1900 C   0  0  0  0  0  1  0  0  0  0  0  0
  -29.5050  -24.5640   20.7660 C   0  0  0  0  0  3  0  0  0  0  0  0
  -28.2510  -25.2720   20.1840 C   0  0  0  0  0  2  0  0  0  0  0  0
  -28.3770  -26.7060   20.1790 O   0  0  0  0  0  0  0  0  0  0  0  0
  -24.5620  -31.8870   23.2230 C   0  0  0  0  0  0  0  0  0  0  0  0
  -27.2010  -27.4330   20.1480 C   0  0  0  0  0  0  0  0  0  0  0  0
  -23.3520  -30.4790   21.5900 C   0  0  0  0  0  3  0  0  0  0  0  0
  -24.8020  -28.9420   20.1620 C   0  0  0  0  0  0  0  0  0  0  0  0
  -25.8770  -30.8390   21.3800 C   0  0  0  0  0  2  0  0  0  0  0  0
  -25.9630  -29.4680   20.7420 C   0  0  0  0  0  0  0  0  0  0  0  0
  -27.1640  -28.7230   20.7290 C   0  0  0  0  0  3  0  0  0  0  0  0
  -26.0200  -26.9270   19.5530 C   0  0  0  0  0  3  0  0  0  0  0  0
  -24.8270  -27.6710   19.5610 C   0  0  0  0  0  3  0  0  0  0  0  0
  -23.5570  -29.7980   20.2120 C   0  0  0  0  0  2  0  0  0  0  0  0
  -24.6160  -31.0830   22.1240 N   0  0  0  0  0  0  0  0  0  0  0  0
  -23.4830  -32.1590   23.7660 O   0  0  0  0  0  0  0  0  0  0  0  0
  -22.7080  -29.4570   22.5550 C   0  0  0  0  0  0  0  0  0  0  0  0
  -21.3820  -29.2790   22.4370 N   0  0  0  0  0  0  0  0  0  0  0  0
  -23.3950  -28.8300   23.3640 O   0  0  0  0  0  0  0  0  0  0  0  0
  -20.8900  -29.8380   21.7560 H   0  0  0  0  0  0  0  0  0  0  0  0
  -18.0060  -28.0980   22.9600 C   0  0  0  0  0  0  0  0  0  0  0  0
  -20.5670  -28.3440   23.2130 C   0  0  0  0  0  3  0  0  0  0  0  0
  -20.6590  -26.9130   22.6340 C   0  0  0  0  0  2  0  0  0  0  0  0
  -19.5490  -26.5960   21.6280 C   0  0  0  0  0  2  0  0  0  0  0  0
  -18.1720  -26.7480   22.2820 C   0  0  0  0  0  2  0  0  0  0  0  0
  -19.1310  -28.8540   23.3820 C   0  0  0  0  0  0  0  0  0  0  0  0
  -18.9230  -30.1190   23.9740 C   0  0  0  0  0  3  0  0  0  0  0  0
  -17.6220  -30.6270   24.1500 C   0  0  0  0  0  3  0  0  0  0  0  0
  -16.5120  -29.8670   23.7430 C   0  0  0  0  0  3  0  0  0  0  0  0
  -16.7040  -28.6040   23.1540 C   0  0  0  0  0  3  0  0  0  0  0  0
  -25.8510  -32.5210   23.8360 C   0  0  0  0  0  3  0  0  0  0  0  0
  -25.5390  -33.9150   24.1760 N   0  0  0  0  0  0  0  0  0  0  0  0
  -25.8590  -34.9720   23.4180 C   0  0  0  0  0  0  0  0  0  0  0  0
  -26.5220  -34.8760   22.3810 O   0  0  0  0  0  0  0  0  0  0  0  0
  -24.9480  -34.0630   24.9820 H   0  0  0  0  0  0  0  0  0  0  0  0
  -24.1200  -36.7570   23.0840 C   0  0  0  0  0  1  0  0  0  0  0  0
  -25.3680  -36.3560   23.8850 C   0  0  0  0  0  3  0  0  0  0  0  0
  -27.5050  -37.2450   24.7040 C   0  0  0  0  0  1  0  0  0  0  0  0
  -26.3950  -37.4130   23.7690 N   0  0  0  0  0  0  0  0  0  0  0  0
  -25.9870  -38.3300   23.9270 H   0  0  0  0  0  0  0  0  0  0  0  0
  -26.3850  -31.7440   25.1020 C   0  0  1  0  0  0  0  0  0  0  0  0
  -25.3030  -31.4930   26.1790 C   0  0  0  0  0  1  0  0  0  0  0  0
  -26.9710  -30.3730   24.6910 C   0  0  0  0  0  1  0  0  0  0  0  0
  -27.5370  -32.5400   25.7580 C   0  0  0  0  0  1  0  0  0  0  0  0
  -30.5580  -22.2520   20.9220 C   0  0  0  0  0  2  0  0  0  0  0  0
  -30.2540  -20.7760   21.3110 C   0  0  0  0  0  2  0  0  0  0  0  0
  -32.0050  -19.1640   20.2430 C   0  0  0  0  0  2  0  0  0  0  0  0
  -31.4080  -18.8760   22.6770 C   0  0  0  0  0  2  0  0  0  0  0  0
  -31.1510  -17.9310   19.8790 C   0  0  0  0  0  2  0  0  0  0  0  0
  -30.5350  -17.6480   22.3500 C   0  0  0  0  0  2  0  0  0  0  0  0
  -31.5220  -19.8940   21.5170 C   0  0  0  0  0  3  0  0  0  0  0  0
  -31.0050  -16.9250   21.0590 C   0  0  0  0  0  3  0  0  0  0  0  0
  -30.7330  -14.5800   20.2340 C   0  0  0  0  0  0  0  0  0  0  0  0
  -30.3660  -12.3860   19.1420 C   0  0  0  0  0  2  0  0  0  0  0  0
  -29.4020  -12.5240   17.9470 C   0  0  0  0  0  2  0  0  0  0  0  0
  -27.9410  -12.3550   18.4090 C   0  0  0  0  0  2  0  0  0  0  0  0
  -27.6120  -13.2310   19.6420 C   0  0  0  0  0  3  0  0  0  0  0  0
  -28.7020  -13.0990   20.7400 C   0  0  0  0  0  2  0  0  0  0  0  0
  -30.0000  -13.4240   20.1300 N   0  0  0  0  0  0  0  0  0  0  0  0
  -31.8980  -14.6080   19.8260 O   0  0  0  0  0  0  0  0  0  0  0  0
  -28.8070  -16.1670   20.3170 C   0  0  0  0  0  1  0  0  0  0  0  0
  -30.1620  -15.7430   20.7050 N   0  0  0  0  0  0  0  0  0  0  0  0
  -25.2460  -13.8950   20.3970 C   0  0  0  0  0  0  0  0  0  0  0  0
  -24.1760  -13.1430   20.7930 C   0  0  0  0  0  0  0  0  0  0  0  0
  -24.6200  -11.7840   20.7670 C   0  0  0  0  0  0  0  0  0  0  0  0
  -26.2740  -12.9920   20.1570 N   0  0  0  0  0  0  0  0  0  0  0  0
  -25.9020  -11.7210   20.4400 N   0  0  0  0  0  0  0  0  0  0  0  0
  -23.8830  -10.5340   20.9720 C   0  0  0  0  0  0  0  0  0  0  0  0
  -24.3220   -9.5670   21.9020 C   0  0  0  0  0  3  0  0  0  0  0  0
  -23.5880   -8.3790   22.0950 C   0  0  0  0  0  3  0  0  0  0  0  0
  -22.4030   -8.1500   21.3560 C   0  0  0  0  0  0  0  0  0  0  0  0
  -21.9850   -9.1060   20.4140 C   0  0  0  0  0  3  0  0  0  0  0  0
  -22.7200  -10.2860   20.2180 C   0  0  0  0  0  3  0  0  0  0  0  0
  -21.6390   -7.0140   21.4600 O   0  0  0  0  0  0  0  0  0  0  0  0
  -21.5940   -6.2810   22.6180 C   0  0  0  0  0  0  0  0  0  0  0  0
  -21.1930   -6.8500   23.8460 C   0  0  0  0  0  3  0  0  0  0  0  0
  -21.0970   -6.0430   24.9980 C   0  0  0  0  0  3  0  0  0  0  0  0
  -21.3900   -4.6690   24.9220 C   0  0  0  0  0  0  0  0  0  0  0  0
  -21.7860   -4.0990   23.6990 C   0  0  0  0  0  3  0  0  0  0  0  0
  -21.8850   -4.9030   22.5490 C   0  0  0  0  0  0  0  0  0  0  0  0
  -22.2460   -4.3450   21.3690 F   0  0  0  0  0  0  0  0  0  0  0  0
  -21.2890   -3.8920   26.0260 F   0  0  0  0  0  0  0  0  0  0  0  0
  -22.7890  -13.6400   21.0810 C   0  0  0  0  0  0  0  0  0  0  0  0
  -22.0670  -12.9600   21.9640 N   0  0  0  0  0  0  0  0  0  0  0  0
  -22.3560  -14.6670   20.5610 O   0  0  0  0  0  0  0  0  0  0  0  0
  -22.4300  -12.1280   22.4050 H   0  0  0  0  0  0  0  0  0  0  0  0
  -21.1370  -13.2740   22.2020 H   0  0  0  0  0  0  0  0  0  0  0  0
  -25.4190  -15.2620   20.1980 N   0  0  0  0  0  0  0  0  0  0  0  0
  -24.6610  -15.9250   20.3150 H   0  0  0  0  0  0  0  0  0  0  0  0
  -26.2650  -15.6860   19.8400 H   0  0  0  0  0  0  0  0  0  0  0  0
  1  5  1  0
  1 48  1  0
  1  2  1  0
  3  1  1  0
  5  4  1  0
  6  5  1  0
  7  6  1  0
  8 19  2  0
  9  7  1  0
  9 14  1  0
 10 18  1  0
 10 20  1  0
 11 17  1  0
 11 13  1  0
 12 18  1  0
 13 12  1  0
 14 13  2  0
 15 16  1  0
 15  9  2  0
 16 11  2  0
 17 10  1  0
 18  8  1  0
 20 22  2  0
 21 20  1  0
 23 21  1  0
 24 33  2  0
 24 29  1  0
 25 21  1  0
 25 29  1  0
 26 25  1  0
 27 28  1  0
 27 26  1  0
 28 24  1  0
 29 30  2  0
 30 31  1  0
 32 31  2  0
 33 32  1  0
 34  8  1  0
 34 35  1  0
 34 44  1  0
 35 38  1  0
 36 40  1  0
 36 35  1  0
 37 36  2  0
 40 39  1  0
 42 40  1  0
 42 43  1  0
 42 41  1  0
 44 47  1  1
 44 45  1  0
 46 44  1  0
 48 49  1  0
 50 54  1  0
 52 50  1  0
 52 55  1  0
 53 51  1  0
 54 49  1  0
 54 51  1  0
 55 65  1  0
 55 53  1  0
 56 65  1  0
 57 62  1  0
 58 59  1  0
 58 57  1  0
 60 59  1  0
 60 69  1  0
 60 61  1  0
 62 56  1  0
 62 61  1  0
 63 56  2  0
 64 65  1  0
 66 67  2  0
 67 86  1  0
 68 67  1  0
 68 71  1  0
 69 66  1  0
 69 70  1  0
 70 68  2  0
 71 72  1  0
 72 73  2  0
 74 77  1  0
 74 73  1  0
 75 74  2  0
 76 75  1  0
 76 71  2  0
 77 78  1  0
 78 79  1  0
 79 80  2  0
 81 80  1  0
 81 85  1  0
 82 81  2  0
 83 78  2  0
 83 82  1  0
 84 83  1  0
 86 87  1  0
 87 90  1  0
 87 89  1  0
 88 86  2  0
 91 92  1  0
 91 66  1  0
 93 91  1  0
M  ISO  4   6 101   7 101  56 100  65 100
M  END
>  <TORSDO>  (77) 
F 21

>  <SCORE>  (77) 
-13.476

>  <name>  (77) 
76

>  <ligand_id>  (77) 
76

>  <original_smiles>  (77) 
[H]c1c([H])c([H])c2c(c1[H])C([H])([H])C([H])([H])C([H])([H])C2([H])N([H])C(=O)C1([H])N(C(=O)C([H])(N([H])C(=O)C([H])(N([H])C([H])([H])[H])C([H])([H])[H])C(C([H])([H])[H])(C([H])([H])[H])C([H])([H])[H])C([H])([H])c2c([H])c(OC([H])([H])C([H])(C([H])([H])[H])[N+]([H])([H])C([H])([H])C([H])([H])C3([H])C([H])([H])C([H])([H])C([H])(N(C(=O)N4C([H])([H])C([H])([H])C([H])([H])C([H])(n5nc(-c6c([H])c([H])c(Oc7c([H])c([H])c(F)c([H])c7F)c([H])c6[H])c(C(=O)N([H])[H])c5N([H])[H])C4([H])[H])C([H])([H])[H])C([H])([H])C3([H])[H])c([H])c([H])c2C1([H])[H]

>  <smiles>  (77) 
[H]c1c([H])c([H])c2c(c1[H])C([H])([H])C([H])([H])C([H])([H])C2([H])N([H])C(=O)C1([H])N(C(=O)C([H])(N([H])C(=O)C([H])(N([H])C([H])([H])[H])C([H])([H])[H])C(C([H])([H])[H])(C([H])([H])[H])C([H])([H])[H])C([H])([H])c2c([H])c(OC([H])([H])C([H])(C([H])([H])[H])[N+]([H])([H])C([H])([H])C([H])([H])C3([H])C([H])([H])C([H])([H])C([H])(N(C(=O)N4C([H])([H])C([H])([H])C([H])([H])C([H])(n5nc(-c6c([H])c([H])c(Oc7c([H])c([H])c(F)c([H])c7F)c([H])c6[H])c(C(=O)N([H])[H])c5N([H])[H])C4([H])[H])C([H])([H])[H])C([H])([H])C3([H])[H])c([H])c([H])c2C1([H])[H]

$$$$
77:0:0
     RDKit          3D

 91 99  0  0  1  0  0  0  0  0999 V2000
  -28.3240  -20.2400   19.6300 C   0  0  0  0  0  3  0  0  0  0  0  0
  -27.8890  -21.6470   19.4560 C   0  0  0  0  0  0  0  0  0  0  0  0
  -28.4730  -22.8340   20.1040 C   0  0  0  0  0  0  0  0  0  0  0  0
  -29.3920  -19.7900   20.4790 C   0  0  0  0  0  0  0  0  0  0  0  0
  -29.5370  -22.2920   20.9380 C   0  0  0  0  0  0  0  0  0  0  0  0
  -30.3660  -23.2530   21.7640 C   0  0  0  0  0  1  0  0  0  0  0  0
  -29.9380  -20.9270   21.0920 N   0  0  0  0  0  0  0  0  0  0  0  0
  -25.4790  -21.0430   18.9010 C   0  0  0  0  0  1  0  0  0  0  0  0
  -27.1460  -21.5050   17.0350 C   0  0  0  0  0  1  0  0  0  0  0  0
  -26.7250  -21.8370   18.4750 C   0  0  0  0  0  3  0  0  0  0  0  0
  -27.8780  -24.4550   19.7980 C   0  0  0  0  0  2  0  0  0  0  0  0
  -28.2510  -26.0070   20.1150 O   0  0  0  0  0  0  0  0  0  0  0  0
  -24.6220  -31.8800   23.1410 C   0  0  0  0  0  0  0  0  0  0  0  0
  -27.2450  -27.1030   20.0560 C   0  0  0  0  0  0  0  0  0  0  0  0
  -23.4430  -30.4820   21.4940 C   0  0  0  0  0  3  0  0  0  0  0  0
  -24.9120  -28.9290   20.0450 C   0  0  0  0  0  0  0  0  0  0  0  0
  -26.0050  -30.7460   21.3370 C   0  0  0  0  0  2  0  0  0  0  0  0
  -26.0970  -29.3480   20.6640 C   0  0  0  0  0  0  0  0  0  0  0  0
  -27.2590  -28.4560   20.6490 C   0  0  0  0  0  3  0  0  0  0  0  0
  -26.0280  -26.8360   19.3840 C   0  0  0  0  0  3  0  0  0  0  0  0
  -24.9010  -27.6930   19.3840 C   0  0  0  0  0  3  0  0  0  0  0  0
  -23.6770  -29.8230   20.1090 C   0  0  0  0  0  2  0  0  0  0  0  0
  -24.7110  -31.0620   22.0440 N   0  0  0  0  0  0  0  0  0  0  0  0
  -23.5300  -32.1450   23.6710 O   0  0  0  0  0  0  0  0  0  0  0  0
  -22.7730  -29.4600   22.4500 C   0  0  0  0  0  0  0  0  0  0  0  0
  -21.4450  -29.2780   22.3340 N   0  0  0  0  0  0  0  0  0  0  0  0
  -23.4550  -28.8340   23.2660 O   0  0  0  0  0  0  0  0  0  0  0  0
  -20.9480  -29.8360   21.6540 H   0  0  0  0  0  0  0  0  0  0  0  0
  -18.0770  -28.0430   22.8820 C   0  0  0  0  0  0  0  0  0  0  0  0
  -20.6410  -28.3190   23.1010 C   0  0  0  0  0  3  0  0  0  0  0  0
  -20.7390  -26.9010   22.4940 C   0  0  0  0  0  2  0  0  0  0  0  0
  -19.6200  -26.5920   21.4950 C   0  0  0  0  0  2  0  0  0  0  0  0
  -18.2500  -26.7110   22.1700 C   0  0  0  0  0  2  0  0  0  0  0  0
  -19.2000  -28.8050   23.3050 C   0  0  0  0  0  0  0  0  0  0  0  0
  -18.9820  -30.0490   23.9360 C   0  0  0  0  0  3  0  0  0  0  0  0
  -17.6760  -30.5320   24.1440 C   0  0  0  0  0  3  0  0  0  0  0  0
  -16.5700  -29.7680   23.7350 C   0  0  0  0  0  3  0  0  0  0  0  0
  -16.7720  -28.5250   23.1100 C   0  0  0  0  0  3  0  0  0  0  0  0
  -25.8850  -32.5370   23.7730 C   0  0  0  0  0  3  0  0  0  0  0  0
  -26.4010  -31.7760   25.0570 C   0  0  1  0  0  0  0  0  0  0  0  0
  -25.3030  -31.5270   26.1180 C   0  0  0  0  0  1  0  0  0  0  0  0
  -27.0070  -30.4060   24.6820 C   0  0  0  0  0  1  0  0  0  0  0  0
  -27.5350  -32.5880   25.7260 C   0  0  0  0  0  1  0  0  0  0  0  0
  -25.5490  -33.9310   24.1120 N   0  0  0  0  0  0  0  0  0  0  0  0
  -25.8820  -35.0010   23.3770 C   0  0  0  0  0  0  0  0  0  0  0  0
  -26.5680  -34.9190   22.3550 O   0  0  0  0  0  0  0  0  0  0  0  0
  -24.9400  -34.0670   24.9050 H   0  0  0  0  0  0  0  0  0  0  0  0
  -24.1490  -36.7930   23.0240 C   0  0  0  0  0  1  0  0  0  0  0  0
  -25.3780  -36.3800   23.8490 C   0  0  0  0  0  3  0  0  0  0  0  0
  -27.4860  -37.2730   24.7390 C   0  0  0  0  0  1  0  0  0  0  0  0
  -26.4050  -37.4420   23.7720 N   0  0  0  0  0  0  0  0  0  0  0  0
  -25.9890  -38.3580   23.9190 H   0  0  0  0  0  0  0  0  0  0  0  0
  -30.1230  -18.2230   20.6750 C   0  0  0  0  0  2  0  0  0  0  0  0
  -30.4190  -15.3710   20.5060 C   0  0  0  0  0  0  0  0  0  0  0  0
  -30.3830  -12.9930   19.4950 C   0  0  0  0  0  2  0  0  0  0  0  0
  -29.4810  -12.8730   18.2420 C   0  0  0  0  0  2  0  0  0  0  0  0
  -28.0250  -12.5860   18.6460 C   0  0  0  0  0  2  0  0  0  0  0  0
  -27.5590  -13.4840   19.8190 C   0  0  0  0  0  3  0  0  0  0  0  0
  -28.5910  -13.5640   20.9650 C   0  0  0  0  0  2  0  0  0  0  0  0
  -29.8350  -14.0850   20.3760 N   0  0  0  0  0  0  0  0  0  0  0  0
  -31.6400  -15.3790   20.3000 O   0  0  0  0  0  0  0  0  0  0  0  0
  -29.6820  -16.6360   20.6620 N   0  0  0  0  0  0  0  0  0  0  0  0
  -28.6870  -16.5070   20.7700 H   0  0  0  0  0  0  0  0  0  0  0  0
  -25.1780  -13.9950   20.5760 C   0  0  0  0  0  0  0  0  0  0  0  0
  -24.1110  -13.1950   20.8780 C   0  0  0  0  0  0  0  0  0  0  0  0
  -24.5810  -11.8510   20.7650 C   0  0  0  0  0  0  0  0  0  0  0  0
  -26.2250  -13.1370   20.2890 N   0  0  0  0  0  0  0  0  0  0  0  0
  -25.8760  -11.8370   20.4720 N   0  0  0  0  0  0  0  0  0  0  0  0
  -23.8520  -10.5780   20.8610 C   0  0  0  0  0  0  0  0  0  0  0  0
  -24.2860   -9.5380   21.7110 C   0  0  0  0  0  3  0  0  0  0  0  0
  -23.5550   -8.3340   21.8020 C   0  0  0  0  0  3  0  0  0  0  0  0
  -22.3740   -8.1610   21.0400 C   0  0  0  0  0  0  0  0  0  0  0  0
  -21.9580   -9.1900   20.1780 C   0  0  0  0  0  3  0  0  0  0  0  0
  -22.6900  -10.3870   20.0860 C   0  0  0  0  0  3  0  0  0  0  0  0
  -21.6140   -7.0160   21.0440 O   0  0  0  0  0  0  0  0  0  0  0  0
  -21.6000   -6.1660   22.1210 C   0  0  0  0  0  0  0  0  0  0  0  0
  -21.1890   -6.5940   23.4020 C   0  0  0  0  0  3  0  0  0  0  0  0
  -21.1210   -5.6710   24.4650 C   0  0  0  0  0  3  0  0  0  0  0  0
  -21.4550   -4.3200   24.2480 C   0  0  0  0  0  0  0  0  0  0  0  0
  -21.8590   -3.8920   22.9710 C   0  0  0  0  0  3  0  0  0  0  0  0
  -21.9270   -4.8120   21.9110 C   0  0  0  0  0  0  0  0  0  0  0  0
  -22.2970   -4.3880   20.6780 F   0  0  0  0  0  0  0  0  0  0  0  0
  -21.3830   -3.4320   25.2660 F   0  0  0  0  0  0  0  0  0  0  0  0
  -22.7100  -13.6550   21.1550 C   0  0  0  0  0  0  0  0  0  0  0  0
  -21.9690  -12.9090   21.9670 N   0  0  0  0  0  0  0  0  0  0  0  0
  -22.2800  -14.7080   20.6890 O   0  0  0  0  0  0  0  0  0  0  0  0
  -22.3310  -12.0550   22.3660 H   0  0  0  0  0  0  0  0  0  0  0  0
  -21.0300  -13.1980   22.1960 H   0  0  0  0  0  0  0  0  0  0  0  0
  -25.3390  -15.3750   20.4890 N   0  0  0  0  0  0  0  0  0  0  0  0
  -24.5630  -16.0140   20.6250 H   0  0  0  0  0  0  0  0  0  0  0  0
  -26.1790  -15.8350   20.1670 H   0  0  0  0  0  0  0  0  0  0  0  0
  1  4  1  0
  2  1  2  0
  2  3  1  0
  3  5  2  0
  4 53  1  0
  4  7  2  0
  5  7  1  0
  5  6  1  0
  9 10  1  0
 10  8  1  0
 10  2  1  0
 11  3  1  0
 11 12  1  0
 13 24  2  0
 14 12  1  0
 14 19  1  0
 15 23  1  0
 15 25  1  0
 16 22  1  0
 16 18  1  0
 17 23  1  0
 18 17  1  0
 19 18  2  0
 20 21  1  0
 20 14  2  0
 21 16  2  0
 22 15  1  0
 23 13  1  0
 25 27  2  0
 26 25  1  0
 28 26  1  0
 29 38  2  0
 29 34  1  0
 30 26  1  0
 30 34  1  0
 31 30  1  0
 32 33  1  0
 32 31  1  0
 33 29  1  0
 34 35  2  0
 35 36  1  0
 37 36  2  0
 38 37  1  0
 39 13  1  0
 39 44  1  0
 39 40  1  0
 40 43  1  1
 40 41  1  0
 42 40  1  0
 44 47  1  0
 45 49  1  0
 45 44  1  0
 46 45  2  0
 49 48  1  0
 51 49  1  0
 51 52  1  0
 51 50  1  0
 54 62  1  0
 55 60  1  0
 56 57  1  0
 56 55  1  0
 58 57  1  0
 58 67  1  0
 58 59  1  0
 60 54  1  0
 60 59  1  0
 61 54  2  0
 62 53  1  0
 62 63  1  0
 64 65  2  0
 65 84  1  0
 66 69  1  0
 66 65  1  0
 67 68  1  0
 67 64  1  0
 68 66  2  0
 69 70  1  0
 70 71  2  0
 72 75  1  0
 72 71  1  0
 73 72  2  0
 74 73  1  0
 74 69  2  0
 75 76  1  0
 76 77  1  0
 77 78  2  0
 79 78  1  0
 79 83  1  0
 80 79  2  0
 81 76  2  0
 81 80  1  0
 82 81  1  0
 84 85  1  0
 85 88  1  0
 85 87  1  0
 86 84  2  0
 89 64  1  0
 89 90  1  0
 91 89  1  0
M  ISO  4  11 101  12 101  54 100  62 100
M  END
>  <TORSDO>  (78) 
F 19

>  <SCORE>  (78) 
-14.517

>  <name>  (78) 
77

>  <ligand_id>  (78) 
77

>  <original_smiles>  (78) 
[H]c1c([H])c([H])c2c(c1[H])C([H])([H])C([H])([H])C([H])([H])C2([H])N([H])C(=O)C1([H])N(C(=O)C([H])(N([H])C(=O)C([H])(N([H])C([H])([H])[H])C([H])([H])[H])C(C([H])([H])[H])(C([H])([H])[H])C([H])([H])[H])C([H])([H])c2c([H])c(OC([H])([H])c3c(C([H])([H])[H])nc(C([H])([H])N([H])C(=O)N4C([H])([H])C([H])([H])C([H])([H])C([H])(n5nc(-c6c([H])c([H])c(Oc7c([H])c([H])c(F)c([H])c7F)c([H])c6[H])c(C(=O)N([H])[H])c5N([H])[H])C4([H])[H])c([H])c3C([H])(C([H])([H])[H])C([H])([H])[H])c([H])c([H])c2C1([H])[H]

>  <smiles>  (78) 
[H]c1c([H])c([H])c2c(c1[H])C([H])([H])C([H])([H])C([H])([H])C2([H])N([H])C(=O)C1([H])N(C(=O)C([H])(N([H])C(=O)C([H])(N([H])C([H])([H])[H])C([H])([H])[H])C(C([H])([H])[H])(C([H])([H])[H])C([H])([H])[H])C([H])([H])c2c([H])c(OC([H])([H])c3c(C([H])([H])[H])nc(C([H])([H])N([H])C(=O)N4C([H])([H])C([H])([H])C([H])([H])C([H])(n5nc(-c6c([H])c([H])c(Oc7c([H])c([H])c(F)c([H])c7F)c([H])c6[H])c(C(=O)N([H])[H])c5N([H])[H])C4([H])[H])c([H])c3C([H])(C([H])([H])[H])C([H])([H])[H])c([H])c([H])c2C1([H])[H]

$$$$
78:0:0
     RDKit          3D

 84 88  0  0  1  0  0  0  0  0999 V2000
  -28.3930  -23.3790   19.8880 C   0  0  0  0  0 15  0  0  0  0  0  0
  -30.0310  -21.6830   21.4170 C   0  0  0  0  0  1  0  0  0  0  0  0
  -27.6180  -21.0420   21.2730 C   0  0  0  0  0  1  0  0  0  0  0  0
  -28.8670  -21.3980   20.4560 C   0  0  0  0  0  2  0  0  0  0  0  0
  -29.4560  -19.4750   19.8290 C   0  0  0  0  0  1  0  0  0  0  0  0
  -30.2070  -16.1150   20.0280 C   0  0  0  0  0  0  0  0  0  0  0  0
  -30.3640  -13.4810   19.2300 C   0  0  0  0  0  2  0  0  0  0  0  0
  -29.4800  -12.9230   18.0630 C   0  0  0  0  0  2  0  0  0  0  0  0
  -28.0950  -12.4960   18.5650 C   0  0  0  0  0  2  0  0  0  0  0  0
  -27.5700  -13.5120   19.5980 C   0  0  0  0  0  3  0  0  0  0  0  0
  -28.6050  -13.9520   20.6720 C   0  0  0  0  0  2  0  0  0  0  0  0
  -29.7120  -14.6880   19.9790 N   0  0  0  0  0  0  0  0  0  0  0  0
  -31.4310  -15.9810   19.7820 O   0  0  0  0  0  0  0  0  0  0  0  0
  -29.4850  -17.5910   20.1660 N   0  0  0  0  0  0  0  0  0  0  0  0
  -28.5490  -17.3600   20.4680 H   0  0  0  0  0  0  0  0  0  0  0  0
  -25.2340  -14.0180   20.4290 C   0  0  0  0  0  0  0  0  0  0  0  0
  -24.1850  -13.2370   20.8160 C   0  0  0  0  0  0  0  0  0  0  0  0
  -24.6540  -11.8870   20.7660 C   0  0  0  0  0  0  0  0  0  0  0  0
  -26.2730  -13.1520   20.1550 N   0  0  0  0  0  0  0  0  0  0  0  0
  -25.9410  -11.8590   20.4230 N   0  0  0  0  0  0  0  0  0  0  0  0
  -23.9260  -10.6250   20.9680 C   0  0  0  0  0  0  0  0  0  0  0  0
  -24.3690   -9.6540   21.8950 C   0  0  0  0  0  3  0  0  0  0  0  0
  -23.6340   -8.4640   22.0920 C   0  0  0  0  0  3  0  0  0  0  0  0
  -22.4440   -8.2350   21.3610 C   0  0  0  0  0  0  0  0  0  0  0  0
  -22.0190   -9.1950   20.4250 C   0  0  0  0  0  3  0  0  0  0  0  0
  -22.7530  -10.3760   20.2260 C   0  0  0  0  0  3  0  0  0  0  0  0
  -21.6810   -7.0960   21.4650 O   0  0  0  0  0  0  0  0  0  0  0  0
  -21.6450   -6.3560   22.6190 C   0  0  0  0  0  0  0  0  0  0  0  0
  -21.2390   -6.9140   23.8500 C   0  0  0  0  0  3  0  0  0  0  0  0
  -21.1520   -6.1010   24.9970 C   0  0  0  0  0  3  0  0  0  0  0  0
  -21.4600   -4.7300   24.9150 C   0  0  0  0  0  0  0  0  0  0  0  0
  -21.8580   -4.1710   23.6880 C   0  0  0  0  0  3  0  0  0  0  0  0
  -21.9490   -4.9810   22.5430 C   0  0  0  0  0  0  0  0  0  0  0  0
  -22.3130   -4.4320   21.3580 F   0  0  0  0  0  0  0  0  0  0  0  0
  -21.3680   -3.9470   26.0160 F   0  0  0  0  0  0  0  0  0  0  0  0
  -22.7950  -13.7160   21.1110 C   0  0  0  0  0  0  0  0  0  0  0  0
  -22.0850  -13.0310   21.9980 N   0  0  0  0  0  0  0  0  0  0  0  0
  -22.3500  -14.7400   20.5910 O   0  0  0  0  0  0  0  0  0  0  0  0
  -22.4620  -12.2080   22.4430 H   0  0  0  0  0  0  0  0  0  0  0  0
  -21.1530  -13.3370   22.2370 H   0  0  0  0  0  0  0  0  0  0  0  0
  -25.3910  -15.3880   20.2500 N   0  0  0  0  0  0  0  0  0  0  0  0
  -24.6260  -16.0420   20.3740 H   0  0  0  0  0  0  0  0  0  0  0  0
  -26.2260  -15.8190   19.8760 H   0  0  0  0  0  0  0  0  0  0  0  0
  -28.2260  -25.2270   20.3080 O   0  0  0  0  0  1  0  0  0  0  0  0
  -24.7120  -31.8280   23.1410 C   0  0  0  0  0  0  0  0  0  0  0  0
  -27.2760  -26.5470   20.1900 C   0  0  0  0  0  0  0  0  0  0  0  0
  -23.5420  -30.4050   21.5170 C   0  0  0  0  0  3  0  0  0  0  0  0
  -25.0060  -28.7140   20.1230 C   0  0  0  0  0  0  0  0  0  0  0  0
  -26.1300  -30.4980   21.4210 C   0  0  0  0  0  2  0  0  0  0  0  0
  -26.2030  -29.0370   20.7690 C   0  0  0  0  0  0  0  0  0  0  0  0
  -27.3030  -27.9880   20.7700 C   0  0  0  0  0  3  0  0  0  0  0  0
  -26.0430  -26.5040   19.4680 C   0  0  0  0  0  3  0  0  0  0  0  0
  -24.9800  -27.4770   19.4470 C   0  0  0  0  0  3  0  0  0  0  0  0
  -23.7980  -29.6820   20.1590 C   0  0  0  0  0  2  0  0  0  0  0  0
  -24.8210  -30.9510   22.0760 N   0  0  0  0  0  0  0  0  0  0  0  0
  -23.6130  -32.1310   23.6400 O   0  0  0  0  0  0  0  0  0  0  0  0
  -22.8120  -29.4500   22.5020 C   0  0  0  0  0  0  0  0  0  0  0  0
  -21.4760  -29.3040   22.3900 N   0  0  0  0  0  0  0  0  0  0  0  0
  -23.4660  -28.8330   23.3460 O   0  0  0  0  0  0  0  0  0  0  0  0
  -20.9930  -29.8530   21.6920 H   0  0  0  0  0  0  0  0  0  0  0  0
  -18.0920  -28.0800   22.9390 C   0  0  0  0  0  0  0  0  0  0  0  0
  -20.6540  -28.3700   23.1740 C   0  0  0  0  0  3  0  0  0  0  0  0
  -20.7580  -26.9340   22.6090 C   0  0  0  0  0  2  0  0  0  0  0  0
  -19.6510  -26.6010   21.6030 C   0  0  0  0  0  2  0  0  0  0  0  0
  -18.2740  -26.7340   22.2580 C   0  0  0  0  0  2  0  0  0  0  0  0
  -19.2090  -28.8560   23.3540 C   0  0  0  0  0  0  0  0  0  0  0  0
  -18.9800  -30.1110   23.9600 C   0  0  0  0  0  3  0  0  0  0  0  0
  -17.6700  -30.5930   24.1470 C   0  0  0  0  0  3  0  0  0  0  0  0
  -16.5700  -29.8170   23.7420 C   0  0  0  0  0  3  0  0  0  0  0  0
  -16.7820  -28.5600   23.1460 C   0  0  0  0  0  3  0  0  0  0  0  0
  -25.9590  -32.5060   23.7860 C   0  0  0  0  0  3  0  0  0  0  0  0
  -25.6110  -33.9030   24.1290 N   0  0  0  0  0  0  0  0  0  0  0  0
  -25.9300  -34.9840   23.4050 C   0  0  0  0  0  0  0  0  0  0  0  0
  -26.5950  -34.9120   22.3700 O   0  0  0  0  0  0  0  0  0  0  0  0
  -25.0140  -34.0310   24.9330 H   0  0  0  0  0  0  0  0  0  0  0  0
  -24.1730  -36.7730   23.1230 C   0  0  0  0  0  1  0  0  0  0  0  0
  -25.4350  -36.3620   23.8990 C   0  0  0  0  0  3  0  0  0  0  0  0
  -27.5710  -37.2690   24.7100 C   0  0  0  0  0  1  0  0  0  0  0  0
  -26.4520  -37.4330   23.7870 N   0  0  0  0  0  0  0  0  0  0  0  0
  -26.0360  -38.3460   23.9520 H   0  0  0  0  0  0  0  0  0  0  0  0
  -26.4680  -31.7590   25.0820 C   0  0  1  0  0  0  0  0  0  0  0  0
  -25.3620  -31.5250   26.1400 C   0  0  0  0  0  1  0  0  0  0  0  0
  -27.0660  -30.3780   24.7330 C   0  0  0  0  0  1  0  0  0  0  0  0
  -27.6060  -32.5710   25.7450 C   0  0  0  0  0  1  0  0  0  0  0  0
  4  3  1  0
  4  2  1  0
  5 14  1  0
  6 14  1  0
  7 12  1  0
  8  9  1  0
  8  7  1  0
 10  9  1  0
 10 19  1  0
 10 11  1  0
 12  6  1  0
 12 11  1  0
 13  6  2  0
 14 15  1  0
 16 17  2  0
 17 36  1  0
 18 17  1  0
 18 21  1  0
 19 20  1  0
 19 16  1  0
 20 18  2  0
 21 22  1  0
 22 23  2  0
 24 27  1  0
 24 23  1  0
 25 24  2  0
 26 25  1  0
 26 21  2  0
 27 28  1  0
 28 29  1  0
 29 30  2  0
 31 30  1  0
 31 35  1  0
 32 31  2  0
 33 28  2  0
 33 32  1  0
 34 33  1  0
 36 37  1  0
 37 40  1  0
 37 39  1  0
 38 36  2  0
 41 42  1  0
 41 16  1  0
 43 41  1  0
 45 56  2  0
 46 44  1  0
 46 51  1  0
 47 55  1  0
 47 57  1  0
 48 54  1  0
 48 50  1  0
 49 55  1  0
 50 51  2  0
 50 49  1  0
 52 46  2  0
 53 52  1  0
 53 48  2  0
 54 47  1  0
 55 45  1  0
 57 59  2  0
 58 57  1  0
 60 58  1  0
 61 70  2  0
 61 66  1  0
 62 58  1  0
 62 66  1  0
 63 62  1  0
 64 65  1  0
 64 63  1  0
 65 61  1  0
 66 67  2  0
 67 68  1  0
 69 68  2  0
 70 69  1  0
 71 45  1  0
 71 72  1  0
 71 81  1  0
 72 75  1  0
 73 77  1  0
 73 72  1  0
 74 73  2  0
 77 76  1  0
 79 77  1  0
 79 80  1  0
 79 78  1  0
 81 84  1  1
 81 82  1  0
 83 81  1  0
M  ISO  4   1 101   6 100  14 100  44 101
M  END
>  <TORSDO>  (79) 
F 18

>  <SCORE>  (79) 
-15.543

>  <name>  (79) 
78

>  <ligand_id>  (79) 
78

>  <original_smiles>  (79) 
[H]c1c([H])c([H])c2c(c1[H])C([H])([H])C([H])([H])C([H])([H])C2([H])N([H])C(=O)C1([H])N(C(=O)C([H])(N([H])C(=O)C([H])(N([H])C([H])([H])[H])C([H])([H])[H])C(C([H])([H])[H])(C([H])([H])[H])C([H])([H])[H])C([H])([H])c2c([H])c(OC([H])([H])C(C([H])([H])[H])(C([H])([H])[H])C([H])([H])N([H])C(=O)N3C([H])([H])C([H])([H])C([H])([H])C([H])(n4nc(-c5c([H])c([H])c(Oc6c([H])c([H])c(F)c([H])c6F)c([H])c5[H])c(C(=O)N([H])[H])c4N([H])[H])C3([H])[H])c([H])c([H])c2C1([H])[H]

>  <smiles>  (79) 
[H]c1c([H])c([H])c2c(c1[H])C([H])([H])C([H])([H])C([H])([H])C2([H])N([H])C(=O)C1([H])N(C(=O)C([H])(N([H])C(=O)C([H])(N([H])C([H])([H])[H])C([H])([H])[H])C(C([H])([H])[H])(C([H])([H])[H])C([H])([H])[H])C([H])([H])c2c([H])c(OC([H])([H])C(C([H])([H])[H])(C([H])([H])[H])C([H])([H])N([H])C(=O)N3C([H])([H])C([H])([H])C([H])([H])C([H])(n4nc(-c5c([H])c([H])c(Oc6c([H])c([H])c(F)c([H])c6F)c([H])c5[H])c(C(=O)N([H])[H])c4N([H])[H])C3([H])[H])c([H])c([H])c2C1([H])[H]

$$$$
79:0:0
     RDKit          3D

 91 99  0  0  1  0  0  0  0  0999 V2000
  -27.1380  -22.4390   21.1650 C   0  0  0  0  0  1  0  0  0  0  0  0
  -28.5460  -22.6340   20.5760 C   0  0  0  0  0  3  0  0  0  0  0  0
  -28.5670  -20.8370   18.6650 C   0  0  0  0  0  3  0  0  0  0  0  0
  -28.9560  -21.2390   19.9190 C   0  0  0  0  0  0  0  0  0  0  0  0
  -29.6780  -20.1130   20.5600 C   0  0  0  0  0  0  0  0  0  0  0  0
  -29.8050  -18.9190   19.8140 C   0  0  0  0  0  0  0  0  0  0  0  0
  -30.2430  -20.2320   21.9490 C   0  0  0  0  0  1  0  0  0  0  0  0
  -29.0250  -19.1790   18.2740 S   0  0  0  0  0  0  0  0  0  0  0  0
  -30.6580  -17.6080   20.0940 C   0  0  0  0  0  2  0  0  0  0  0  0
  -30.9230  -15.0210   19.7550 C   0  0  0  0  0  0  0  0  0  0  0  0
  -30.7150  -12.6580   18.9590 C   0  0  0  0  0  2  0  0  0  0  0  0
  -29.7210  -12.5840   17.7810 C   0  0  0  0  0  2  0  0  0  0  0  0
  -28.2780  -12.4310   18.2980 C   0  0  0  0  0  2  0  0  0  0  0  0
  -27.9380  -13.4360   19.4300 C   0  0  0  0  0  3  0  0  0  0  0  0
  -29.0450  -13.4810   20.5030 C   0  0  0  0  0  2  0  0  0  0  0  0
  -30.3010  -13.7950   19.8130 N   0  0  0  0  0  0  0  0  0  0  0  0
  -32.1030  -15.0910   19.4000 O   0  0  0  0  0  0  0  0  0  0  0  0
  -30.1650  -16.1720   19.9210 N   0  0  0  0  0  0  0  0  0  0  0  0
  -29.1850  -16.0220   20.1030 H   0  0  0  0  0  0  0  0  0  0  0  0
  -25.6320  -14.0840   20.3480 C   0  0  0  0  0  0  0  0  0  0  0  0
  -24.5680  -13.3350   20.7670 C   0  0  0  0  0  0  0  0  0  0  0  0
  -24.9780  -11.9710   20.6610 C   0  0  0  0  0  0  0  0  0  0  0  0
  -26.6230  -13.1780   20.0080 N   0  0  0  0  0  0  0  0  0  0  0  0
  -26.2420  -11.9000   20.2610 N   0  0  0  0  0  0  0  0  0  0  0  0
  -24.2210  -10.7280   20.8610 C   0  0  0  0  0  0  0  0  0  0  0  0
  -24.6280   -9.7580   21.8020 C   0  0  0  0  0  3  0  0  0  0  0  0
  -23.8710   -8.5810   21.9890 C   0  0  0  0  0  3  0  0  0  0  0  0
  -22.6940   -8.3660   21.2350 C   0  0  0  0  0  0  0  0  0  0  0  0
  -22.3060   -9.3250   20.2820 C   0  0  0  0  0  3  0  0  0  0  0  0
  -23.0630  -10.4930   20.0930 C   0  0  0  0  0  3  0  0  0  0  0  0
  -21.9100   -7.2410   21.3300 O   0  0  0  0  0  0  0  0  0  0  0  0
  -21.7700   -6.5610   22.5130 C   0  0  0  0  0  0  0  0  0  0  0  0
  -21.2240   -7.1710   23.6640 C   0  0  0  0  0  3  0  0  0  0  0  0
  -21.0330   -6.4150   24.8380 C   0  0  0  0  0  3  0  0  0  0  0  0
  -21.3800   -5.0510   24.8620 C   0  0  0  0  0  0  0  0  0  0  0  0
  -21.9170   -4.4400   23.7150 C   0  0  0  0  0  3  0  0  0  0  0  0
  -22.1090   -5.1930   22.5430 C   0  0  0  0  0  0  0  0  0  0  0  0
  -22.6090   -4.5950   21.4350 F   0  0  0  0  0  0  0  0  0  0  0  0
  -21.1890   -4.3220   25.9870 F   0  0  0  0  0  0  0  0  0  0  0  0
  -23.2100  -13.8500   21.1490 C   0  0  0  0  0  0  0  0  0  0  0  0
  -22.5190  -13.1510   22.0420 N   0  0  0  0  0  0  0  0  0  0  0  0
  -22.7760  -14.9050   20.6900 O   0  0  0  0  0  0  0  0  0  0  0  0
  -22.8850  -12.2960   22.4310 H   0  0  0  0  0  0  0  0  0  0  0  0
  -21.6100  -13.4780   22.3400 H   0  0  0  0  0  0  0  0  0  0  0  0
  -25.8330  -15.4540   20.2040 N   0  0  0  0  0  0  0  0  0  0  0  0
  -25.0930  -16.1240   20.3900 H   0  0  0  0  0  0  0  0  0  0  0  0
  -26.6600  -15.8790   19.8070 H   0  0  0  0  0  0  0  0  0  0  0  0
  -28.5960  -24.0640   19.7860 C   0  0  0  0  0  2  0  0  0  0  0  0
  -28.0640  -25.2620   20.5550 N   0  0  0  0  0  0  0  0  0  0  0  0
  -28.5280  -25.3120   21.4580 H   0  0  0  0  0  0  0  0  0  0  0  0
  -28.3270  -26.6110   19.8930 O   0  0  0  0  0  0  0  0  0  0  0  0
  -24.6290  -31.9540   23.1990 C   0  0  0  0  0  0  0  0  0  0  0  0
  -27.2230  -27.4850   19.9630 C   0  0  0  0  0  0  0  0  0  0  0  0
  -23.4060  -30.5780   21.5540 C   0  0  0  0  0  3  0  0  0  0  0  0
  -24.8440  -29.0820   20.0510 C   0  0  0  0  0  0  0  0  0  0  0  0
  -25.9370  -30.9310   21.3180 C   0  0  0  0  0  2  0  0  0  0  0  0
  -26.0220  -29.5670   20.6370 C   0  0  0  0  0  0  0  0  0  0  0  0
  -27.2160  -28.7770   20.5860 C   0  0  0  0  0  3  0  0  0  0  0  0
  -26.0260  -27.0650   19.3520 C   0  0  0  0  0  3  0  0  0  0  0  0
  -24.8490  -27.8380   19.4000 C   0  0  0  0  0  3  0  0  0  0  0  0
  -23.5960  -29.9400   20.1520 C   0  0  0  0  0  2  0  0  0  0  0  0
  -24.6780  -31.1720   22.0790 N   0  0  0  0  0  0  0  0  0  0  0  0
  -23.5550  -32.2020   23.7660 O   0  0  0  0  0  0  0  0  0  0  0  0
  -22.7810  -29.5290   22.5040 C   0  0  0  0  0  0  0  0  0  0  0  0
  -21.4560  -29.3220   22.3920 N   0  0  0  0  0  0  0  0  0  0  0  0
  -23.4850  -28.9050   23.3010 O   0  0  0  0  0  0  0  0  0  0  0  0
  -20.9440  -29.8830   21.7260 H   0  0  0  0  0  0  0  0  0  0  0  0
  -18.1230  -28.0040   22.8880 C   0  0  0  0  0  0  0  0  0  0  0  0
  -20.6710  -28.3490   23.1550 C   0  0  0  0  0  3  0  0  0  0  0  0
  -20.8210  -26.9270   22.5650 C   0  0  0  0  0  2  0  0  0  0  0  0
  -19.7290  -26.5770   21.5500 C   0  0  0  0  0  2  0  0  0  0  0  0
  -18.3440  -26.6690   22.1980 C   0  0  0  0  0  2  0  0  0  0  0  0
  -19.2160  -28.8010   23.3220 C   0  0  0  0  0  0  0  0  0  0  0  0
  -18.9550  -30.0480   23.9280 C   0  0  0  0  0  3  0  0  0  0  0  0
  -17.6350  -30.5030   24.1020 C   0  0  0  0  0  3  0  0  0  0  0  0
  -16.5560  -29.7030   23.6860 C   0  0  0  0  0  3  0  0  0  0  0  0
  -16.8010  -28.4560   23.0850 C   0  0  0  0  0  3  0  0  0  0  0  0
  -25.9160  -32.5910   23.8060 C   0  0  0  0  0  3  0  0  0  0  0  0
  -26.4580  -31.8150   25.0700 C   0  0  1  0  0  0  0  0  0  0  0  0
  -25.3820  -31.5590   26.1500 C   0  0  0  0  0  1  0  0  0  0  0  0
  -27.0480  -30.4460   24.6610 C   0  0  0  0  0  1  0  0  0  0  0  0
  -27.6100  -32.6170   25.7210 C   0  0  0  0  0  1  0  0  0  0  0  0
  -25.6040  -33.9850   24.1530 N   0  0  0  0  0  0  0  0  0  0  0  0
  -25.9120  -35.0470   23.3970 C   0  0  0  0  0  0  0  0  0  0  0  0
  -26.5610  -34.9560   22.3510 O   0  0  0  0  0  0  0  0  0  0  0  0
  -25.0290  -34.1290   24.9710 H   0  0  0  0  0  0  0  0  0  0  0  0
  -24.1780  -36.8400   23.0820 C   0  0  0  0  0  1  0  0  0  0  0  0
  -25.4260  -36.4270   23.8780 C   0  0  0  0  0  3  0  0  0  0  0  0
  -27.5630  -37.3110   24.7080 C   0  0  0  0  0  1  0  0  0  0  0  0
  -26.4550  -37.4850   23.7710 N   0  0  0  0  0  0  0  0  0  0  0  0
  -26.0470  -38.4020   23.9320 H   0  0  0  0  0  0  0  0  0  0  0  0
  2  1  1  0
  3  4  2  0
  4  5  1  0
  4  2  1  0
  5  7  1  0
  6  9  1  0
  6  5  2  0
  8  3  1  0
  8  6  1  0
 10 16  1  0
 10 18  1  0
 11 16  1  0
 12 13  1  0
 12 11  1  0
 14 13  1  0
 14 23  1  0
 14 15  1  0
 16 15  1  0
 17 10  2  0
 18  9  1  0
 18 19  1  0
 20 21  2  0
 21 40  1  0
 22 21  1  0
 22 25  1  0
 23 24  1  0
 23 20  1  0
 24 22  2  0
 25 26  1  0
 26 27  2  0
 28 31  1  0
 28 27  1  0
 29 28  2  0
 30 29  1  0
 30 25  2  0
 31 32  1  0
 32 37  2  0
 32 33  1  0
 33 34  2  0
 34 35  1  0
 35 39  1  0
 36 35  2  0
 37 36  1  0
 38 37  1  0
 40 41  1  0
 41 44  1  0
 41 43  1  0
 42 40  2  0
 45 20  1  0
 45 46  1  0
 47 45  1  0
 48 49  1  0
 48  2  1  0
 49 50  1  0
 51 53  1  0
 51 49  1  0
 52 63  2  0
 53 58  1  0
 54 62  1  0
 54 64  1  0
 55 61  1  0
 55 57  1  0
 56 62  1  0
 57 56  1  0
 58 57  2  0
 59 60  1  0
 59 53  2  0
 60 55  2  0
 61 54  1  0
 62 52  1  0
 64 66  2  0
 65 64  1  0
 67 65  1  0
 68 77  2  0
 68 73  1  0
 69 65  1  0
 69 73  1  0
 70 69  1  0
 71 72  1  0
 71 70  1  0
 72 68  1  0
 73 74  2  0
 74 75  1  0
 76 75  2  0
 77 76  1  0
 78 52  1  0
 78 83  1  0
 78 79  1  0
 79 82  1  1
 79 80  1  0
 81 79  1  0
 83 86  1  0
 84 88  1  0
 84 83  1  0
 85 84  2  0
 88 87  1  0
 90 88  1  0
 90 91  1  0
 90 89  1  0
M  ISO  4  10 100  18 100  49 101  51 101
M  END
>  <TORSDO>  (80) 
F 20

>  <SCORE>  (80) 
-13.328

>  <name>  (80) 
79

>  <ligand_id>  (80) 
79

>  <original_smiles>  (80) 
[H]c1sc(C([H])([H])N([H])C(=O)N2C([H])([H])C([H])([H])C([H])([H])C([H])(n3nc(-c4c([H])c([H])c(Oc5c([H])c([H])c(F)c([H])c5F)c([H])c4[H])c(C(=O)N([H])[H])c3N([H])[H])C2([H])[H])c(C([H])([H])[H])c1C([H])(C([H])([H])[H])C([H])([H])N([H])Oc1c([H])c([H])c2c(c1[H])C([H])([H])N(C(=O)C([H])(N([H])C(=O)C([H])(N([H])C([H])([H])[H])C([H])([H])[H])C(C([H])([H])[H])(C([H])([H])[H])C([H])([H])[H])C([H])(C(=O)N([H])C1([H])c3c([H])c([H])c([H])c([H])c3C([H])([H])C([H])([H])C1([H])[H])C2([H])[H]

>  <smiles>  (80) 
[H]c1sc(C([H])([H])N([H])C(=O)N2C([H])([H])C([H])([H])C([H])([H])C([H])(n3nc(-c4c([H])c([H])c(Oc5c([H])c([H])c(F)c([H])c5F)c([H])c4[H])c(C(=O)N([H])[H])c3N([H])[H])C2([H])[H])c(C([H])([H])[H])c1C([H])(C([H])([H])[H])C([H])([H])N([H])Oc1c([H])c([H])c2c(c1[H])C([H])([H])N(C(=O)C([H])(N([H])C(=O)C([H])(N([H])C([H])([H])[H])C([H])([H])[H])C(C([H])([H])[H])(C([H])([H])[H])C([H])([H])[H])C([H])(C(=O)N([H])C1([H])c3c([H])c([H])c([H])c([H])c3C([H])([H])C([H])([H])C1([H])[H])C2([H])[H]

$$$$
80:0:0
     RDKit          3D

 95103  0  0  1  0  0  0  0  0999 V2000
  -30.3570  -21.1890   20.9900 C   0  0  0  0  0  3  0  0  0  0  0  0
  -28.3830  -21.2410   19.7360 C   0  0  0  0  0  3  0  0  0  0  0  0
  -29.3380  -22.0230   20.4290 C   0  0  0  0  0  0  0  0  0  0  0  0
  -30.4490  -19.7480   20.8450 C   0  0  0  0  0  0  0  0  0  0  0  0
  -28.4210  -19.7940   19.5420 C   0  0  0  0  0  0  0  0  0  0  0  0
  -29.4710  -18.9500   20.1410 C   0  0  0  0  0  0  0  0  0  0  0  0
  -27.5780  -18.1160   17.6770 C   0  0  0  0  0  1  0  0  0  0  0  0
  -26.6680  -20.3680   17.7180 C   0  0  0  0  0  1  0  0  0  0  0  0
  -27.2320  -19.2600   18.6630 C   0  0  2  0  0  0  0  0  0  0  0  0
  -24.7550  -18.4460   19.0260 C   0  0  0  0  0  1  0  0  0  0  0  0
  -26.1130  -18.8240   19.6440 C   0  0  0  0  0  2  0  0  0  0  0  0
  -31.6050  -18.6120   22.8420 C   0  0  0  0  0  1  0  0  0  0  0  0
  -31.7140  -19.0960   21.3900 C   0  0  0  0  0  2  0  0  0  0  0  0
  -29.4110  -23.6630   20.4840 C   0  0  0  0  0  3  0  0  0  0  0  0
  -28.1960  -24.7800   20.3440 C   0  0  0  0  0  3  0  0  0  0  0  0
  -28.4390  -26.3100   20.3030 O   0  0  0  0  0  0  0  0  0  0  0  0
  -24.6570  -31.8690   23.1940 C   0  0  0  0  0  0  0  0  0  0  0  0
  -27.3570  -27.2470   20.2050 C   0  0  0  0  0  0  0  0  0  0  0  0
  -23.5080  -30.4690   21.5190 C   0  0  0  0  0  3  0  0  0  0  0  0
  -25.0100  -28.9340   20.1070 C   0  0  0  0  0  0  0  0  0  0  0  0
  -26.0580  -30.7850   21.3990 C   0  0  0  0  0  2  0  0  0  0  0  0
  -26.1660  -29.4020   20.7440 C   0  0  0  0  0  0  0  0  0  0  0  0
  -27.3440  -28.5770   20.7700 C   0  0  0  0  0  3  0  0  0  0  0  0
  -26.1790  -26.8700   19.5220 C   0  0  0  0  0  3  0  0  0  0  0  0
  -25.0300  -27.6850   19.4730 C   0  0  0  0  0  3  0  0  0  0  0  0
  -23.7600  -29.7990   20.1410 C   0  0  0  0  0  2  0  0  0  0  0  0
  -24.7590  -31.0610   22.0930 N   0  0  0  0  0  0  0  0  0  0  0  0
  -23.5580  -32.1390   23.7030 O   0  0  0  0  0  0  0  0  0  0  0  0
  -22.8250  -29.4440   22.4590 C   0  0  0  0  0  0  0  0  0  0  0  0
  -21.4960  -29.2800   22.3270 N   0  0  0  0  0  0  0  0  0  0  0  0
  -23.4940  -28.7970   23.2690 O   0  0  0  0  0  0  0  0  0  0  0  0
  -21.0200  -29.8250   21.6230 H   0  0  0  0  0  0  0  0  0  0  0  0
  -18.1020  -28.1480   22.8490 C   0  0  0  0  0  0  0  0  0  0  0  0
  -20.6660  -28.3500   23.0930 C   0  0  0  0  0  3  0  0  0  0  0  0
  -20.7260  -26.9200   22.5070 C   0  0  0  0  0  2  0  0  0  0  0  0
  -19.6150  -26.6390   21.4890 C   0  0  0  0  0  2  0  0  0  0  0  0
  -18.2370  -26.8130   22.1360 C   0  0  0  0  0  2  0  0  0  0  0  0
  -19.2400  -28.8750   23.2830 C   0  0  0  0  0  0  0  0  0  0  0  0
  -19.0580  -30.1230   23.9140 C   0  0  0  0  0  3  0  0  0  0  0  0
  -17.7710  -30.6430   24.1200 C   0  0  0  0  0  3  0  0  0  0  0  0
  -16.6420  -29.9080   23.7140 C   0  0  0  0  0  3  0  0  0  0  0  0
  -16.8090  -28.6640   23.0800 C   0  0  0  0  0  3  0  0  0  0  0  0
  -25.9160  -32.5140   23.8510 C   0  0  0  0  0  3  0  0  0  0  0  0
  -25.5850  -33.9100   24.1800 N   0  0  0  0  0  0  0  0  0  0  0  0
  -25.9340  -34.9700   23.4400 C   0  0  0  0  0  0  0  0  0  0  0  0
  -26.6370  -34.8780   22.4300 O   0  0  0  0  0  0  0  0  0  0  0  0
  -24.9620  -34.0570   24.9620 H   0  0  0  0  0  0  0  0  0  0  0  0
  -24.2180  -36.7650   23.0330 C   0  0  0  0  0  1  0  0  0  0  0  0
  -25.4270  -36.3550   23.8890 C   0  0  0  0  0  3  0  0  0  0  0  0
  -27.5220  -37.2440   24.8090 C   0  0  0  0  0  1  0  0  0  0  0  0
  -26.4600  -37.4120   23.8210 N   0  0  0  0  0  0  0  0  0  0  0  0
  -26.0440  -38.3300   23.9580 H   0  0  0  0  0  0  0  0  0  0  0  0
  -26.4040  -31.7470   25.1390 C   0  0  1  0  0  0  0  0  0  0  0  0
  -25.2880  -31.5070   26.1820 C   0  0  0  0  0  1  0  0  0  0  0  0
  -27.0000  -30.3710   24.7660 C   0  0  0  0  0  1  0  0  0  0  0  0
  -27.5340  -32.5480   25.8310 C   0  0  0  0  0  1  0  0  0  0  0  0
  -29.5390  -17.2970   19.9760 C   0  0  0  0  0  2  0  0  0  0  0  0
  -31.0010  -14.9910   20.2530 C   0  0  0  0  0  0  0  0  0  0  0  0
  -30.7610  -12.6390   19.3640 C   0  0  0  0  0  2  0  0  0  0  0  0
  -29.8570  -12.5960   18.1170 C   0  0  0  0  0  2  0  0  0  0  0  0
  -28.3880  -12.4170   18.5420 C   0  0  0  0  0  2  0  0  0  0  0  0
  -27.9790  -13.3920   19.6790 C   0  0  0  0  0  3  0  0  0  0  0  0
  -29.0200  -13.4490   20.8140 C   0  0  0  0  0  2  0  0  0  0  0  0
  -30.3110  -13.7880   20.2070 N   0  0  0  0  0  0  0  0  0  0  0  0
  -32.1930  -14.9630   19.9280 O   0  0  0  0  0  0  0  0  0  0  0  0
  -30.4570  -16.2350   20.6520 N   0  0  0  0  0  0  0  0  0  0  0  0
  -31.2140  -16.7470   21.0840 H   0  0  0  0  0  0  0  0  0  0  0  0
  -25.6090  -14.0100   20.4140 C   0  0  0  0  0  0  0  0  0  0  0  0
  -24.5290  -13.2550   20.7790 C   0  0  0  0  0  0  0  0  0  0  0  0
  -24.9720  -11.8980   20.7570 C   0  0  0  0  0  0  0  0  0  0  0  0
  -26.6370  -13.1150   20.1760 N   0  0  0  0  0  0  0  0  0  0  0  0
  -26.2640  -11.8400   20.4510 N   0  0  0  0  0  0  0  0  0  0  0  0
  -24.2200  -10.6490   20.9470 C   0  0  0  0  0  0  0  0  0  0  0  0
  -24.6180   -9.6830   21.8980 C   0  0  0  0  0  3  0  0  0  0  0  0
  -23.8660   -8.5020   22.0780 C   0  0  0  0  0  3  0  0  0  0  0  0
  -22.7060   -8.2750   21.3030 C   0  0  0  0  0  0  0  0  0  0  0  0
  -22.3260   -9.2280   20.3410 C   0  0  0  0  0  3  0  0  0  0  0  0
  -23.0770  -10.4010   20.1600 C   0  0  0  0  0  3  0  0  0  0  0  0
  -21.9250   -7.1470   21.3920 O   0  0  0  0  0  0  0  0  0  0  0  0
  -21.8180   -6.4370   22.5630 C   0  0  0  0  0  0  0  0  0  0  0  0
  -21.3440   -7.0320   23.7520 C   0  0  0  0  0  3  0  0  0  0  0  0
  -21.1840   -6.2530   24.9140 C   0  0  0  0  0  3  0  0  0  0  0  0
  -21.4850   -4.8780   24.8880 C   0  0  0  0  0  0  0  0  0  0  0  0
  -21.9490   -4.2820   23.7030 C   0  0  0  0  0  3  0  0  0  0  0  0
  -22.1140   -5.0580   22.5420 C   0  0  0  0  0  0  0  0  0  0  0  0
  -22.5410   -4.4760   21.3960 F   0  0  0  0  0  0  0  0  0  0  0  0
  -21.3270   -4.1260   26.0010 F   0  0  0  0  0  0  0  0  0  0  0  0
  -23.1380  -13.7580   21.0360 C   0  0  0  0  0  0  0  0  0  0  0  0
  -22.4010  -13.0910   21.9190 N   0  0  0  0  0  0  0  0  0  0  0  0
  -22.7150  -14.7750   20.4880 O   0  0  0  0  0  0  0  0  0  0  0  0
  -22.7570  -12.2590   22.3600 H   0  0  0  0  0  0  0  0  0  0  0  0
  -21.4760  -13.4220   22.1550 H   0  0  0  0  0  0  0  0  0  0  0  0
  -25.8060  -15.3700   20.2390 N   0  0  0  0  0  0  0  0  0  0  0  0
  -25.0650  -16.0530   20.3580 H   0  0  0  0  0  0  0  0  0  0  0  0
  -26.6730  -15.7670   19.9110 H   0  0  0  0  0  0  0  0  0  0  0  0
  2  3  1  0
  3 14  1  0
  3  1  2  0
  4  1  1  0
  4 13  1  0
  5  2  2  0
  5  6  1  0
  6  4  2  0
  9  7  1  6
  8  9  1  0
  9  5  1  0
  9 11  1  0
 10 11  1  0
 13 12  1  0
 15 14  2  0
 16 15  1  0
 17 28  2  0
 18 16  1  0
 18 23  1  0
 19 27  1  0
 19 29  1  0
 20 26  1  0
 20 22  1  0
 21 27  1  0
 22 23  2  0
 22 21  1  0
 24 18  2  0
 25 24  1  0
 25 20  2  0
 26 19  1  0
 27 17  1  0
 29 31  2  0
 30 29  1  0
 32 30  1  0
 33 42  2  0
 33 38  1  0
 34 30  1  0
 34 38  1  0
 35 34  1  0
 36 37  1  0
 36 35  1  0
 37 33  1  0
 38 39  2  0
 39 40  1  0
 41 40  2  0
 42 41  1  0
 43 17  1  0
 43 44  1  0
 43 53  1  0
 44 47  1  0
 45 49  1  0
 45 44  1  0
 46 45  2  0
 49 48  1  0
 51 49  1  0
 51 52  1  0
 51 50  1  0
 53 56  1  1
 53 54  1  0
 55 53  1  0
 57  6  1  0
 57 66  1  0
 58 66  1  0
 59 64  1  0
 60 61  1  0
 60 59  1  0
 62 61  1  0
 62 71  1  0
 62 63  1  0
 64 58  1  0
 64 63  1  0
 65 58  2  0
 66 67  1  0
 68 69  2  0
 69 88  1  0
 70 69  1  0
 70 73  1  0
 71 68  1  0
 71 72  1  0
 72 70  2  0
 73 74  1  0
 74 75  2  0
 76 79  1  0
 76 75  1  0
 77 76  2  0
 78 77  1  0
 78 73  2  0
 79 80  1  0
 80 81  1  0
 81 82  2  0
 83 82  1  0
 83 87  1  0
 84 83  2  0
 85 80  2  0
 85 84  1  0
 86 85  1  0
 88 89  1  0
 89 92  1  0
 89 91  1  0
 90 88  2  0
 93 94  1  0
 93 68  1  0
 95 93  1  0
M  ISO  4  15 101  16 101  58 100  66 100
M  END
>  <TORSDO>  (81) 
F 22

>  <SCORE>  (81) 
-11.840

>  <name>  (81) 
80

>  <ligand_id>  (81) 
80

>  <original_smiles>  (81) 
[H]c1c([H])c([H])c2c(c1[H])C([H])([H])C([H])([H])C([H])([H])C2([H])N([H])C(=O)C1([H])N(C(=O)C([H])(N([H])C(=O)C([H])(N([H])C([H])([H])[H])C([H])([H])[H])C(C([H])([H])[H])(C([H])([H])[H])C([H])([H])[H])C([H])([H])c2c([H])c(OC([H])([H])C([H])([H])c3c([H])c(C([H])([H])C([H])([H])[H])c(C([H])([H])N([H])C(=O)N4C([H])([H])C([H])([H])C([H])([H])C([H])(n5nc(-c6c([H])c([H])c(Oc7c([H])c([H])c(F)c([H])c7F)c([H])c6[H])c(C(=O)N([H])[H])c5N([H])[H])C4([H])[H])c(C(C([H])([H])[H])(C([H])([H])[H])C([H])([H])C([H])([H])[H])c3[H])c([H])c([H])c2C1([H])[H]

>  <smiles>  (81) 
[H]c1c([H])c([H])c2c(c1[H])C([H])([H])C([H])([H])C([H])([H])C2([H])N([H])C(=O)C1([H])N(C(=O)C([H])(N([H])C(=O)C([H])(N([H])C([H])([H])[H])C([H])([H])[H])C(C([H])([H])[H])(C([H])([H])[H])C([H])([H])[H])C([H])([H])c2c([H])c(OC([H])([H])C([H])([H])c3c([H])c(C([H])([H])C([H])([H])[H])c(C([H])([H])N([H])C(=O)N4C([H])([H])C([H])([H])C([H])([H])C([H])(n5nc(-c6c([H])c([H])c(Oc7c([H])c([H])c(F)c([H])c7F)c([H])c6[H])c(C(=O)N([H])[H])c5N([H])[H])C4([H])[H])c(C(C([H])([H])[H])(C([H])([H])[H])C([H])([H])C([H])([H])[H])c3[H])c([H])c([H])c2C1([H])[H]

$$$$
81:0:0
     RDKit          3D

 91 99  0  0  1  0  0  0  0  0999 V2000
  -29.8530  -20.6620   20.7000 C   0  0  0  0  0  3  0  0  0  0  0  0
  -29.5460  -19.3510   20.2300 C   0  0  0  0  0  0  0  0  0  0  0  0
  -28.4300  -19.6750   19.3690 C   0  0  0  0  0  0  0  0  0  0  0  0
  -28.1850  -21.0630   19.3470 C   0  0  0  0  0  0  0  0  0  0  0  0
  -27.1890  -21.8570   18.5570 C   0  0  0  0  0  1  0  0  0  0  0  0
  -29.0480  -21.7630   20.1980 N   0  0  0  0  0  0  0  0  0  0  0  0
  -27.9350  -18.7150   17.0700 C   0  0  0  0  0  1  0  0  0  0  0  0
  -26.1730  -18.5950   18.9260 C   0  0  0  0  0  1  0  0  0  0  0  0
  -27.6700  -18.6220   18.5800 C   0  0  0  0  0  3  0  0  0  0  0  0
  -30.3340  -17.8820   20.5320 C   0  0  0  0  0  2  0  0  0  0  0  0
  -30.6310  -15.1340   20.3210 C   0  0  0  0  0  0  0  0  0  0  0  0
  -30.5110  -12.7720   19.3750 C   0  0  0  0  0  2  0  0  0  0  0  0
  -29.5740  -12.7020   18.1480 C   0  0  0  0  0  2  0  0  0  0  0  0
  -28.1160  -12.4760   18.5920 C   0  0  0  0  0  2  0  0  0  0  0  0
  -27.7060  -13.4010   19.7670 C   0  0  0  0  0  3  0  0  0  0  0  0
  -28.7690  -13.4430   20.8850 C   0  0  0  0  0  2  0  0  0  0  0  0
  -30.0250  -13.8750   20.2570 N   0  0  0  0  0  0  0  0  0  0  0  0
  -31.8430  -15.1640   20.0810 O   0  0  0  0  0  0  0  0  0  0  0  0
  -29.8820  -16.3520   20.4480 N   0  0  0  0  0  0  0  0  0  0  0  0
  -28.8920  -16.2070   20.5710 H   0  0  0  0  0  0  0  0  0  0  0  0
  -25.3360  -13.9610   20.5410 C   0  0  0  0  0  0  0  0  0  0  0  0
  -24.2740  -13.1820   20.9040 C   0  0  0  0  0  0  0  0  0  0  0  0
  -24.7390  -11.8330   20.8500 C   0  0  0  0  0  0  0  0  0  0  0  0
  -26.3770  -13.0890   20.2770 N   0  0  0  0  0  0  0  0  0  0  0  0
  -26.0280  -11.8010   20.5310 N   0  0  0  0  0  0  0  0  0  0  0  0
  -24.0130  -10.5690   21.0250 C   0  0  0  0  0  0  0  0  0  0  0  0
  -24.4410   -9.5920   21.9500 C   0  0  0  0  0  3  0  0  0  0  0  0
  -23.7120   -8.3930   22.1140 C   0  0  0  0  0  3  0  0  0  0  0  0
  -22.5410   -8.1650   21.3530 C   0  0  0  0  0  0  0  0  0  0  0  0
  -22.1310   -9.1310   20.4170 C   0  0  0  0  0  3  0  0  0  0  0  0
  -22.8610  -10.3210   20.2510 C   0  0  0  0  0  3  0  0  0  0  0  0
  -21.7840   -7.0210   21.4280 O   0  0  0  0  0  0  0  0  0  0  0  0
  -21.7160   -6.2770   22.5770 C   0  0  0  0  0  0  0  0  0  0  0  0
  -21.2410   -6.8220   23.7910 C   0  0  0  0  0  3  0  0  0  0  0  0
  -21.1220   -6.0030   24.9320 C   0  0  0  0  0  3  0  0  0  0  0  0
  -21.4680   -4.6390   24.8600 C   0  0  0  0  0  0  0  0  0  0  0  0
  -21.9360   -4.0950   23.6510 C   0  0  0  0  0  3  0  0  0  0  0  0
  -22.0560   -4.9100   22.5130 C   0  0  0  0  0  0  0  0  0  0  0  0
  -22.4880   -4.3750   21.3450 F   0  0  0  0  0  0  0  0  0  0  0  0
  -21.3460   -3.8510   25.9530 F   0  0  0  0  0  0  0  0  0  0  0  0
  -22.8780  -13.6570   21.1860 C   0  0  0  0  0  0  0  0  0  0  0  0
  -22.1550  -12.9570   22.0540 N   0  0  0  0  0  0  0  0  0  0  0  0
  -22.4370  -14.6840   20.6730 O   0  0  0  0  0  0  0  0  0  0  0  0
  -22.5250  -12.1270   22.4910 H   0  0  0  0  0  0  0  0  0  0  0  0
  -21.2190  -13.2590   22.2830 H   0  0  0  0  0  0  0  0  0  0  0  0
  -25.4970  -15.3330   20.3870 N   0  0  0  0  0  0  0  0  0  0  0  0
  -24.7250  -15.9790   20.5140 H   0  0  0  0  0  0  0  0  0  0  0  0
  -26.3270  -15.7760   20.0190 H   0  0  0  0  0  0  0  0  0  0  0  0
  -29.1750  -23.3490   20.4980 C   0  0  0  0  0  3  0  0  0  0  0  0
  -28.1480  -24.6590   20.0850 C   0  0  0  0  0  3  0  0  0  0  0  0
  -28.3460  -26.1990   20.3810 O   0  0  0  0  0  0  0  0  0  0  0  0
  -24.6230  -31.9030   23.2970 C   0  0  0  0  0  0  0  0  0  0  0  0
  -27.2880  -27.1920   20.2940 C   0  0  0  0  0  0  0  0  0  0  0  0
  -23.4640  -30.5060   21.6310 C   0  0  0  0  0  3  0  0  0  0  0  0
  -24.9500  -28.9410   20.2250 C   0  0  0  0  0  0  0  0  0  0  0  0
  -26.0210  -30.7800   21.5170 C   0  0  0  0  0  2  0  0  0  0  0  0
  -26.1160  -29.3880   20.8580 C   0  0  0  0  0  0  0  0  0  0  0  0
  -27.2850  -28.5310   20.8720 C   0  0  0  0  0  3  0  0  0  0  0  0
  -26.0930  -26.8530   19.6220 C   0  0  0  0  0  3  0  0  0  0  0  0
  -24.9540  -27.6890   19.5910 C   0  0  0  0  0  3  0  0  0  0  0  0
  -23.7160  -29.8320   20.2540 C   0  0  0  0  0  2  0  0  0  0  0  0
  -24.7220  -31.0850   22.2020 N   0  0  0  0  0  0  0  0  0  0  0  0
  -23.5250  -32.1800   23.8050 O   0  0  0  0  0  0  0  0  0  0  0  0
  -22.7710  -29.4930   22.5770 C   0  0  0  0  0  0  0  0  0  0  0  0
  -21.4460  -29.3160   22.4250 N   0  0  0  0  0  0  0  0  0  0  0  0
  -23.4290  -28.8690   23.4120 O   0  0  0  0  0  0  0  0  0  0  0  0
  -20.9700  -29.8710   21.7290 H   0  0  0  0  0  0  0  0  0  0  0  0
  -18.0610  -28.1040   22.8750 C   0  0  0  0  0  0  0  0  0  0  0  0
  -20.6150  -28.3710   23.1770 C   0  0  0  0  0  3  0  0  0  0  0  0
  -20.7270  -26.9440   22.5940 C   0  0  0  0  0  2  0  0  0  0  0  0
  -19.6410  -26.6270   21.5620 C   0  0  0  0  0  2  0  0  0  0  0  0
  -18.2500  -26.7620   22.1880 C   0  0  0  0  0  2  0  0  0  0  0  0
  -19.1710  -28.8660   23.3250 C   0  0  0  0  0  0  0  0  0  0  0  0
  -18.9390  -30.1220   23.9280 C   0  0  0  0  0  3  0  0  0  0  0  0
  -17.6300  -30.6160   24.0830 C   0  0  0  0  0  3  0  0  0  0  0  0
  -16.5340  -29.8500   23.6480 C   0  0  0  0  0  3  0  0  0  0  0  0
  -16.7500  -28.5960   23.0500 C   0  0  0  0  0  3  0  0  0  0  0  0
  -25.8840  -32.5450   23.9510 C   0  0  0  0  0  3  0  0  0  0  0  0
  -26.3590  -31.7900   25.2550 C   0  0  1  0  0  0  0  0  0  0  0  0
  -25.2320  -31.5670   26.2910 C   0  0  0  0  0  1  0  0  0  0  0  0
  -26.9540  -30.4080   24.9050 C   0  0  0  0  0  1  0  0  0  0  0  0
  -27.4870  -32.5950   25.9440 C   0  0  0  0  0  1  0  0  0  0  0  0
  -25.5630  -33.9480   24.2620 N   0  0  0  0  0  0  0  0  0  0  0  0
  -25.8920  -34.9970   23.4950 C   0  0  0  0  0  0  0  0  0  0  0  0
  -26.5620  -34.8850   22.4660 O   0  0  0  0  0  0  0  0  0  0  0  0
  -24.9670  -34.1090   25.0610 H   0  0  0  0  0  0  0  0  0  0  0  0
  -24.1500  -36.7780   23.1350 C   0  0  0  0  0  1  0  0  0  0  0  0
  -25.4010  -36.3900   23.9390 C   0  0  0  0  0  3  0  0  0  0  0  0
  -27.5330  -37.3080   24.7430 C   0  0  0  0  0  1  0  0  0  0  0  0
  -26.4260  -37.4480   23.8000 N   0  0  0  0  0  0  0  0  0  0  0  0
  -26.0140  -38.3680   23.9290 H   0  0  0  0  0  0  0  0  0  0  0  0
  2 10  1  0
  2  1  2  0
  3  2  1  0
  4  3  2  0
  4  6  1  0
  5  4  1  0
  6 49  1  0
  6  1  1  0
  7  9  1  0
  9  8  1  0
  9  3  1  0
 11 19  1  0
 12 17  1  0
 13 14  1  0
 13 12  1  0
 15 14  1  0
 15 24  1  0
 15 16  1  0
 17 11  1  0
 17 16  1  0
 18 11  2  0
 19 10  1  0
 19 20  1  0
 21 22  2  0
 22 41  1  0
 23 22  1  0
 23 26  1  0
 24 25  1  0
 24 21  1  0
 25 23  2  0
 26 27  1  0
 27 28  2  0
 29 32  1  0
 29 28  1  0
 30 29  2  0
 31 30  1  0
 31 26  2  0
 32 33  1  0
 33 34  1  0
 34 35  2  0
 36 35  1  0
 36 40  1  0
 37 36  2  0
 38 33  2  0
 38 37  1  0
 39 38  1  0
 41 42  1  0
 42 45  1  0
 42 44  1  0
 43 41  2  0
 46 47  1  0
 46 21  1  0
 48 46  1  0
 50 51  1  0
 50 49  2  0
 52 63  2  0
 53 51  1  0
 53 58  1  0
 54 62  1  0
 54 64  1  0
 55 61  1  0
 55 57  1  0
 56 62  1  0
 57 58  2  0
 57 56  1  0
 59 53  2  0
 60 59  1  0
 60 55  2  0
 61 54  1  0
 62 52  1  0
 64 66  2  0
 65 64  1  0
 67 65  1  0
 68 77  2  0
 68 73  1  0
 69 65  1  0
 69 73  1  0
 70 69  1  0
 71 72  1  0
 71 70  1  0
 72 68  1  0
 73 74  2  0
 74 75  1  0
 76 75  2  0
 77 76  1  0
 78 52  1  0
 78 83  1  0
 78 79  1  0
 79 82  1  1
 79 80  1  0
 81 79  1  0
 83 86  1  0
 84 88  1  0
 84 83  1  0
 85 84  2  0
 88 87  1  0
 90 91  1  0
 90 88  1  0
 90 89  1  0
M  ISO  4  11 100  19 100  50 101  51 101
M  END
>  <TORSDO>  (82) 
F 20

>  <SCORE>  (82) 
-15.103

>  <name>  (82) 
81

>  <ligand_id>  (82) 
81

>  <original_smiles>  (82) 
[H]c1c([H])c([H])c2c(c1[H])C([H])([H])C([H])([H])C([H])([H])C2([H])N([H])C(=O)C1([H])N(C(=O)C([H])(N([H])C(=O)C([H])(N([H])C([H])([H])[H])C([H])([H])[H])C(C([H])([H])[H])(C([H])([H])[H])C([H])([H])[H])C([H])([H])c2c([H])c(OC([H])([H])C([H])([H])n3c([H])c(C([H])([H])N([H])C(=O)N4C([H])([H])C([H])([H])C([H])([H])C([H])(n5nc(-c6c([H])c([H])c(Oc7c([H])c([H])c(F)c([H])c7F)c([H])c6[H])c(C(=O)N([H])[H])c5N([H])[H])C4([H])[H])c(C([H])(C([H])([H])[H])C([H])([H])[H])c3C([H])([H])[H])c([H])c([H])c2C1([H])[H]

>  <smiles>  (82) 
[H]c1c([H])c([H])c2c(c1[H])C([H])([H])C([H])([H])C([H])([H])C2([H])N([H])C(=O)C1([H])N(C(=O)C([H])(N([H])C(=O)C([H])(N([H])C([H])([H])[H])C([H])([H])[H])C(C([H])([H])[H])(C([H])([H])[H])C([H])([H])[H])C([H])([H])c2c([H])c(OC([H])([H])C([H])([H])n3c([H])c(C([H])([H])N([H])C(=O)N4C([H])([H])C([H])([H])C([H])([H])C([H])(n5nc(-c6c([H])c([H])c(Oc7c([H])c([H])c(F)c([H])c7F)c([H])c6[H])c(C(=O)N([H])[H])c5N([H])[H])C4([H])[H])c(C([H])(C([H])([H])[H])C([H])([H])[H])c3C([H])([H])[H])c([H])c([H])c2C1([H])[H]

$$$$
82:0:0
     RDKit          3D

 94102  0  0  1  0  0  0  0  0999 V2000
  -29.0200  -19.9410   21.1470 C   0  0  0  0  0  3  0  0  0  0  0  0
  -30.5610  -21.5470   21.1040 C   0  0  0  0  0  3  0  0  0  0  0  0
  -30.2300  -19.3370   21.3810 C   0  0  0  0  0  0  0  0  0  0  0  0
  -31.2240  -20.3710   21.3350 C   0  0  0  0  0  0  0  0  0  0  0  0
  -29.2110  -21.2990   20.9950 N   0  0  0  0  0  0  0  0  0  0  0  0
  -33.0860  -20.3660   23.0160 C   0  0  0  0  0  1  0  0  0  0  0  0
  -33.5120  -21.2530   20.6870 C   0  0  0  0  0  1  0  0  0  0  0  0
  -32.7250  -20.2310   21.5310 C   0  0  0  0  0  3  0  0  0  0  0  0
  -30.4200  -17.8530   21.6450 C   0  0  0  0  0  2  0  0  0  0  0  0
  -30.8470  -17.0880   20.3750 C   0  0  0  0  0  2  0  0  0  0  0  0
  -31.1600  -14.7000   19.7290 C   0  0  0  0  0  0  0  0  0  0  0  0
  -30.8170  -12.4450   18.7830 C   0  0  0  0  0  2  0  0  0  0  0  0
  -29.7870  -12.5040   17.6360 C   0  0  0  0  0  2  0  0  0  0  0  0
  -28.3460  -12.4060   18.1740 C   0  0  0  0  0  2  0  0  0  0  0  0
  -28.0840  -13.3890   19.3450 C   0  0  0  0  0  3  0  0  0  0  0  0
  -29.2020  -13.2690   20.4030 C   0  0  0  0  0  2  0  0  0  0  0  0
  -30.4970  -13.5150   19.7380 N   0  0  0  0  0  0  0  0  0  0  0  0
  -32.1580  -14.9170   19.0320 O   0  0  0  0  0  0  0  0  0  0  0  0
  -30.6010  -15.6520   20.4890 N   0  0  0  0  0  0  0  0  0  0  0  0
  -29.8070  -15.3640   21.0430 H   0  0  0  0  0  0  0  0  0  0  0  0
  -25.8110  -14.1150   20.3220 C   0  0  0  0  0  0  0  0  0  0  0  0
  -24.7290  -13.3920   20.7500 C   0  0  0  0  0  0  0  0  0  0  0  0
  -25.0810  -12.0190   20.5850 C   0  0  0  0  0  0  0  0  0  0  0  0
  -26.7620  -13.1830   19.9320 N   0  0  0  0  0  0  0  0  0  0  0  0
  -26.3270  -11.9130   20.1430 N   0  0  0  0  0  0  0  0  0  0  0  0
  -24.2860  -10.7990   20.7700 C   0  0  0  0  0  0  0  0  0  0  0  0
  -24.6930   -9.7800   21.6570 C   0  0  0  0  0  3  0  0  0  0  0  0
  -23.9020   -8.6230   21.8300 C   0  0  0  0  0  3  0  0  0  0  0  0
  -22.6880   -8.4790   21.1140 C   0  0  0  0  0  0  0  0  0  0  0  0
  -22.3010   -9.4870   20.2130 C   0  0  0  0  0  3  0  0  0  0  0  0
  -23.0920  -10.6340   20.0380 C   0  0  0  0  0  3  0  0  0  0  0  0
  -21.8700   -7.3780   21.1970 O   0  0  0  0  0  0  0  0  0  0  0  0
  -21.7490   -6.6580   22.3580 C   0  0  0  0  0  0  0  0  0  0  0  0
  -21.3060   -7.2510   23.5610 C   0  0  0  0  0  3  0  0  0  0  0  0
  -21.1290   -6.4600   24.7130 C   0  0  0  0  0  3  0  0  0  0  0  0
  -21.3860   -5.0760   24.6640 C   0  0  0  0  0  0  0  0  0  0  0  0
  -21.8230   -4.4830   23.4650 C   0  0  0  0  0  3  0  0  0  0  0  0
  -22.0010   -5.2720   22.3170 C   0  0  0  0  0  0  0  0  0  0  0  0
  -22.4010   -4.6920   21.1590 F   0  0  0  0  0  0  0  0  0  0  0  0
  -21.2090   -4.3140   25.7680 F   0  0  0  0  0  0  0  0  0  0  0  0
  -23.4040  -13.9450   21.1950 C   0  0  0  0  0  0  0  0  0  0  0  0
  -22.7230  -13.2460   22.0990 N   0  0  0  0  0  0  0  0  0  0  0  0
  -22.9890  -15.0250   20.7820 O   0  0  0  0  0  0  0  0  0  0  0  0
  -23.0720  -12.3690   22.4560 H   0  0  0  0  0  0  0  0  0  0  0  0
  -21.8400  -13.5980   22.4410 H   0  0  0  0  0  0  0  0  0  0  0  0
  -26.0590  -15.4800   20.2150 N   0  0  0  0  0  0  0  0  0  0  0  0
  -25.3550  -16.1760   20.4390 H   0  0  0  0  0  0  0  0  0  0  0  0
  -26.9070  -15.8830   19.8370 H   0  0  0  0  0  0  0  0  0  0  0  0
  -28.1400  -22.2750   20.8310 C   0  0  0  0  0  2  0  0  0  0  0  0
  -28.5950  -23.7080   20.4460 C   0  0  0  0  0  2  0  0  0  0  0  0
  -26.3390  -24.6650   21.1540 C   0  0  0  0  0  1  0  0  0  0  0  0
  -27.4420  -24.6730   20.0730 C   0  0  0  0  0  3  0  0  0  0  0  0
  -27.9810  -26.1080   19.8240 C   0  0  0  0  0  2  0  0  0  0  0  0
  -27.3170  -26.7720   18.7500 O   0  0  0  0  0  0  0  0  0  0  0  0
  -24.4890  -31.7260   23.0450 C   0  0  0  0  0  0  0  0  0  0  0  0
  -26.2460  -27.5610   19.0830 C   0  0  0  0  0  0  0  0  0  0  0  0
  -22.9320  -30.6240   21.4680 C   0  0  0  0  0  3  0  0  0  0  0  0
  -24.0180  -29.1890   19.6590 C   0  0  0  0  0  0  0  0  0  0  0  0
  -25.4190  -30.8360   20.9120 C   0  0  0  0  0  2  0  0  0  0  0  0
  -25.2900  -29.5520   20.1210 C   0  0  0  0  0  0  0  0  0  0  0  0
  -26.4090  -28.7370   19.8440 C   0  0  0  0  0  3  0  0  0  0  0  0
  -24.9700  -27.2240   18.5920 C   0  0  0  0  0  3  0  0  0  0  0  0
  -23.8500  -28.0180   18.8980 C   0  0  0  0  0  3  0  0  0  0  0  0
  -22.8700  -30.1100   20.0040 C   0  0  0  0  0  2  0  0  0  0  0  0
  -24.3080  -31.0670   21.8640 N   0  0  0  0  0  0  0  0  0  0  0  0
  -23.5280  -32.0030   23.7790 O   0  0  0  0  0  0  0  0  0  0  0  0
  -22.3470  -29.5370   22.3990 C   0  0  0  0  0  0  0  0  0  0  0  0
  -21.0170  -29.3600   22.3480 N   0  0  0  0  0  0  0  0  0  0  0  0
  -23.0830  -28.8620   23.1210 O   0  0  0  0  0  0  0  0  0  0  0  0
  -20.4840  -29.9580   21.7320 H   0  0  0  0  0  0  0  0  0  0  0  0
  -17.7090  -27.9860   22.8330 C   0  0  0  0  0  0  0  0  0  0  0  0
  -20.2510  -28.3690   23.1040 C   0  0  0  0  0  3  0  0  0  0  0  0
  -20.4260  -26.9550   22.5040 C   0  0  0  0  0  2  0  0  0  0  0  0
  -19.3380  -26.5930   21.4880 C   0  0  0  0  0  2  0  0  0  0  0  0
  -17.9510  -26.6590   22.1360 C   0  0  0  0  0  2  0  0  0  0  0  0
  -18.7880  -28.7970   23.2740 C   0  0  0  0  0  0  0  0  0  0  0  0
  -18.5080  -30.0390   23.8840 C   0  0  0  0  0  3  0  0  0  0  0  0
  -17.1810  -30.4710   24.0590 C   0  0  0  0  0  3  0  0  0  0  0  0
  -16.1150  -29.6580   23.6380 C   0  0  0  0  0  3  0  0  0  0  0  0
  -16.3800  -28.4170   23.0300 C   0  0  0  0  0  3  0  0  0  0  0  0
  -25.9040  -32.1840   23.5150 C   0  0  0  0  0  3  0  0  0  0  0  0
  -25.7730  -33.5410   24.0580 N   0  0  0  0  0  0  0  0  0  0  0  0
  -26.1470  -34.6550   23.4140 C   0  0  0  0  0  0  0  0  0  0  0  0
  -26.7110  -34.6370   22.3170 O   0  0  0  0  0  0  0  0  0  0  0  0
  -25.2770  -33.6350   24.9320 H   0  0  0  0  0  0  0  0  0  0  0  0
  -24.6100  -36.6430   23.4460 C   0  0  0  0  0  1  0  0  0  0  0  0
  -25.8460  -36.0030   24.0970 C   0  0  0  0  0  3  0  0  0  0  0  0
  -28.1120  -36.5340   24.8770 C   0  0  0  0  0  1  0  0  0  0  0  0
  -26.9810  -36.9510   24.0520 N   0  0  0  0  0  0  0  0  0  0  0  0
  -26.6920  -37.8770   24.3560 H   0  0  0  0  0  0  0  0  0  0  0  0
  -26.5460  -31.2140   24.5820 C   0  0  1  0  0  0  0  0  0  0  0  0
  -25.6180  -30.9090   25.7810 C   0  0  0  0  0  1  0  0  0  0  0  0
  -26.9340  -29.8660   23.9310 C   0  0  0  0  0  1  0  0  0  0  0  0
  -27.8540  -31.8320   25.1300 C   0  0  0  0  0  1  0  0  0  0  0  0
  1  3  2  0
  2  4  2  0
  3  9  1  0
  4  3  1  0
  4  8  1  0
  5  2  1  0
  5  1  1  0
  7  8  1  0
  8  6  1  0
 10 19  1  0
 10  9  1  0
 11 17  1  0
 11 19  1  0
 12 17  1  0
 13 14  1  0
 13 12  1  0
 15 14  1  0
 15 24  1  0
 15 16  1  0
 17 16  1  0
 18 11  2  0
 19 20  1  0
 21 22  2  0
 22 41  1  0
 23 22  1  0
 23 26  1  0
 24 25  1  0
 24 21  1  0
 25 23  2  0
 26 27  1  0
 27 28  2  0
 29 32  1  0
 29 28  1  0
 30 29  2  0
 31 30  1  0
 31 26  2  0
 32 33  1  0
 33 34  1  0
 34 35  2  0
 36 35  1  0
 36 40  1  0
 37 36  2  0
 38 33  2  0
 38 37  1  0
 39 38  1  0
 41 42  1  0
 42 45  1  0
 42 44  1  0
 43 41  2  0
 46 21  1  0
 46 47  1  0
 48 46  1  0
 49  5  1  0
 50 49  1  0
 52 50  1  0
 52 51  1  0
 53 52  1  0
 54 56  1  0
 54 53  1  0
 55 66  2  0
 56 61  1  0
 57 65  1  0
 57 67  1  0
 58 64  1  0
 58 60  1  0
 59 65  1  0
 60 59  1  0
 61 60  2  0
 62 63  1  0
 62 56  2  0
 63 58  2  0
 64 57  1  0
 65 55  1  0
 67 69  2  0
 68 67  1  0
 70 68  1  0
 71 80  2  0
 71 76  1  0
 72 68  1  0
 72 76  1  0
 73 72  1  0
 74 75  1  0
 74 73  1  0
 75 71  1  0
 76 77  2  0
 77 78  1  0
 79 78  2  0
 80 79  1  0
 81 55  1  0
 81 82  1  0
 81 91  1  0
 82 85  1  0
 83 82  1  0
 83 87  1  0
 84 83  2  0
 87 86  1  0
 89 87  1  0
 89 90  1  0
 89 88  1  0
 91 94  1  1
 91 92  1  0
 93 91  1  0
M  ISO  4  11 100  19 100  53 101  54 101
M  END
>  <TORSDO>  (83) 
F 23

>  <SCORE>  (83) 
-11.409

>  <name>  (83) 
82

>  <ligand_id>  (83) 
82

>  <original_smiles>  (83) 
[H]c1c([H])c([H])c2c(c1[H])C([H])([H])C([H])([H])C([H])([H])C2([H])N([H])C(=O)C1([H])N(C(=O)C([H])(N([H])C(=O)C([H])(N([H])C([H])([H])[H])C([H])([H])[H])C(C([H])([H])[H])(C([H])([H])[H])C([H])([H])[H])C([H])([H])c2c([H])c(OC([H])([H])C([H])(C([H])([H])[H])C([H])([H])C([H])([H])n3c([H])c(C([H])([H])C([H])([H])N([H])C(=O)N4C([H])([H])C([H])([H])C([H])([H])C([H])(n5nc(-c6c([H])c([H])c(Oc7c([H])c([H])c(F)c([H])c7F)c([H])c6[H])c(C(=O)N([H])[H])c5N([H])[H])C4([H])[H])c(C([H])(C([H])([H])[H])C([H])([H])[H])c3[H])c([H])c([H])c2C1([H])[H]

>  <smiles>  (83) 
[H]c1c([H])c([H])c2c(c1[H])C([H])([H])C([H])([H])C([H])([H])C2([H])N([H])C(=O)C1([H])N(C(=O)C([H])(N([H])C(=O)C([H])(N([H])C([H])([H])[H])C([H])([H])[H])C(C([H])([H])[H])(C([H])([H])[H])C([H])([H])[H])C([H])([H])c2c([H])c(OC([H])([H])C([H])(C([H])([H])[H])C([H])([H])C([H])([H])n3c([H])c(C([H])([H])C([H])([H])N([H])C(=O)N4C([H])([H])C([H])([H])C([H])([H])C([H])(n5nc(-c6c([H])c([H])c(Oc7c([H])c([H])c(F)c([H])c7F)c([H])c6[H])c(C(=O)N([H])[H])c5N([H])[H])C4([H])[H])c(C([H])(C([H])([H])[H])C([H])([H])[H])c3[H])c([H])c([H])c2C1([H])[H]

$$$$
83:0:0
     RDKit          3D

 91 99  0  0  1  0  0  0  0  0999 V2000
  -27.5460  -21.9890   18.3780 C   0  0  0  0  0  3  0  0  0  0  0  0
  -28.8400  -21.2810   20.2790 C   0  0  0  0  0  3  0  0  0  0  0  0
  -27.5740  -20.6470   17.9570 C   0  0  0  0  0  3  0  0  0  0  0  0
  -28.1420  -22.3560   19.5990 C   0  0  0  0  0  0  0  0  0  0  0  0
  -28.8700  -19.9180   19.7780 C   0  0  0  0  0  0  0  0  0  0  0  0
  -28.1860  -19.6450   18.6420 N   0  0  0  0  0  0  0  0  0  0  0  0
  -28.1500  -23.9360   21.6770 C   0  0  0  0  0  1  0  0  0  0  0  0
  -27.8230  -23.8120   20.1760 C   0  0  0  0  0  3  0  0  0  0  0  0
  -28.2110  -25.1420   19.3400 C   0  0  0  0  0  2  0  0  0  0  0  0
  -28.2450  -26.5040   19.9680 O   0  0  0  0  0  0  0  0  0  0  0  0
  -24.6390  -31.9210   23.2190 C   0  0  0  0  0  0  0  0  0  0  0  0
  -27.1170  -27.3430   20.0250 C   0  0  0  0  0  0  0  0  0  0  0  0
  -23.3900  -30.5500   21.6100 C   0  0  0  0  0  3  0  0  0  0  0  0
  -24.7790  -28.9870   20.1580 C   0  0  0  0  0  0  0  0  0  0  0  0
  -25.9350  -30.8310   21.3670 C   0  0  0  0  0  2  0  0  0  0  0  0
  -25.9740  -29.4550   20.7100 C   0  0  0  0  0  0  0  0  0  0  0  0
  -27.1440  -28.6380   20.6440 C   0  0  0  0  0  3  0  0  0  0  0  0
  -25.8830  -26.9320   19.4700 C   0  0  0  0  0  3  0  0  0  0  0  0
  -24.7300  -27.7350   19.5410 C   0  0  0  0  0  3  0  0  0  0  0  0
  -23.5620  -29.8850   20.2260 C   0  0  0  0  0  2  0  0  0  0  0  0
  -24.6800  -31.1140   22.1220 N   0  0  0  0  0  0  0  0  0  0  0  0
  -23.5640  -32.2020   23.7740 O   0  0  0  0  0  0  0  0  0  0  0  0
  -22.7510  -29.5200   22.5790 C   0  0  0  0  0  0  0  0  0  0  0  0
  -21.4220  -29.3320   22.4670 N   0  0  0  0  0  0  0  0  0  0  0  0
  -23.4490  -28.8950   23.3830 O   0  0  0  0  0  0  0  0  0  0  0  0
  -20.9130  -29.9300   21.8300 H   0  0  0  0  0  0  0  0  0  0  0  0
  -18.0720  -28.0760   22.9610 C   0  0  0  0  0  0  0  0  0  0  0  0
  -20.6260  -28.3750   23.2310 C   0  0  0  0  0  3  0  0  0  0  0  0
  -20.7610  -26.9510   22.6490 C   0  0  0  0  0  2  0  0  0  0  0  0
  -19.6580  -26.5770   21.6540 C   0  0  0  0  0  2  0  0  0  0  0  0
  -18.2630  -26.7310   22.2780 C   0  0  0  0  0  2  0  0  0  0  0  0
  -19.1820  -28.8520   23.3940 C   0  0  0  0  0  0  0  0  0  0  0  0
  -18.9510  -30.1090   23.9920 C   0  0  0  0  0  3  0  0  0  0  0  0
  -17.6430  -30.6060   24.1380 C   0  0  0  0  0  3  0  0  0  0  0  0
  -16.5470  -29.8330   23.7160 C   0  0  0  0  0  3  0  0  0  0  0  0
  -16.7630  -28.5690   23.1400 C   0  0  0  0  0  3  0  0  0  0  0  0
  -25.9310  -32.5520   23.8160 C   0  0  0  0  0  3  0  0  0  0  0  0
  -26.4710  -31.7810   25.0850 C   0  0  1  0  0  0  0  0  0  0  0  0
  -25.3900  -31.5430   26.1690 C   0  0  0  0  0  1  0  0  0  0  0  0
  -27.0460  -30.4060   24.6820 C   0  0  0  0  0  1  0  0  0  0  0  0
  -27.6290  -32.5790   25.7310 C   0  0  0  0  0  1  0  0  0  0  0  0
  -25.6130  -33.9450   24.1610 N   0  0  0  0  0  0  0  0  0  0  0  0
  -25.9340  -35.0080   23.4100 C   0  0  0  0  0  0  0  0  0  0  0  0
  -26.5890  -34.9220   22.3660 O   0  0  0  0  0  0  0  0  0  0  0  0
  -25.0200  -34.0890   24.9660 H   0  0  0  0  0  0  0  0  0  0  0  0
  -24.1980  -36.8080   23.0950 C   0  0  0  0  0  1  0  0  0  0  0  0
  -25.4500  -36.3940   23.8890 C   0  0  0  0  0  3  0  0  0  0  0  0
  -27.5910  -37.2770   24.7010 C   0  0  0  0  0  1  0  0  0  0  0  0
  -26.4800  -37.4510   23.7700 N   0  0  0  0  0  0  0  0  0  0  0  0
  -26.0730  -38.3700   23.9220 H   0  0  0  0  0  0  0  0  0  0  0  0
  -29.3830  -18.6400   20.6110 C   0  0  0  0  0  2  0  0  0  0  0  0
  -30.3090  -17.3580   18.4690 C   0  0  0  0  0  1  0  0  0  0  0  0
  -30.2510  -17.3910   20.0110 C   0  0  0  0  0  3  0  0  0  0  0  0
  -30.7150  -14.8280   20.4210 C   0  0  0  0  0  0  0  0  0  0  0  0
  -30.5130  -12.5600   19.4210 C   0  0  0  0  0  2  0  0  0  0  0  0
  -29.5920  -12.6550   18.1890 C   0  0  0  0  0  2  0  0  0  0  0  0
  -28.1160  -12.4930   18.5990 C   0  0  0  0  0  2  0  0  0  0  0  0
  -27.7270  -13.3680   19.8180 C   0  0  0  0  0  3  0  0  0  0  0  0
  -28.7730  -13.2770   20.9510 C   0  0  0  0  0  2  0  0  0  0  0  0
  -30.0790  -13.6080   20.3680 N   0  0  0  0  0  0  0  0  0  0  0  0
  -31.9120  -14.9070   20.1370 O   0  0  0  0  0  0  0  0  0  0  0  0
  -29.9460  -15.9720   20.5180 N   0  0  0  0  0  0  0  0  0  0  0  0
  -28.9890  -15.8000   20.7890 H   0  0  0  0  0  0  0  0  0  0  0  0
  -25.3120  -13.9440   20.4740 C   0  0  0  0  0  0  0  0  0  0  0  0
  -24.2450  -13.1700   20.8230 C   0  0  0  0  0  0  0  0  0  0  0  0
  -24.7220  -11.8190   20.8280 C   0  0  0  0  0  0  0  0  0  0  0  0
  -26.3710  -13.0780   20.2790 N   0  0  0  0  0  0  0  0  0  0  0  0
  -26.0210  -11.7920   20.5570 N   0  0  0  0  0  0  0  0  0  0  0  0
  -24.0030  -10.5530   21.0110 C   0  0  0  0  0  0  0  0  0  0  0  0
  -24.4130   -9.5980   21.9670 C   0  0  0  0  0  3  0  0  0  0  0  0
  -23.6880   -8.4000   22.1440 C   0  0  0  0  0  3  0  0  0  0  0  0
  -22.5350   -8.1430   21.3630 C   0  0  0  0  0  0  0  0  0  0  0  0
  -22.1430   -9.0850   20.3950 C   0  0  0  0  0  3  0  0  0  0  0  0
  -22.8720  -10.2760   20.2180 C   0  0  0  0  0  3  0  0  0  0  0  0
  -21.7870   -6.9920   21.4420 O   0  0  0  0  0  0  0  0  0  0  0  0
  -21.7070   -6.2640   22.6020 C   0  0  0  0  0  0  0  0  0  0  0  0
  -21.2360   -6.8280   23.8080 C   0  0  0  0  0  3  0  0  0  0  0  0
  -21.1100   -6.0250   24.9590 C   0  0  0  0  0  3  0  0  0  0  0  0
  -21.4490   -4.6590   24.9050 C   0  0  0  0  0  0  0  0  0  0  0  0
  -21.9180   -4.0970   23.7040 C   0  0  0  0  0  3  0  0  0  0  0  0
  -22.0460   -4.8970   22.5560 C   0  0  0  0  0  0  0  0  0  0  0  0
  -22.4760   -4.3430   21.3970 F   0  0  0  0  0  0  0  0  0  0  0  0
  -21.3210   -3.8860   26.0090 F   0  0  0  0  0  0  0  0  0  0  0  0
  -22.8350  -13.6360   21.0470 C   0  0  0  0  0  0  0  0  0  0  0  0
  -22.0870  -12.9470   21.8950 N   0  0  0  0  0  0  0  0  0  0  0  0
  -22.4050  -14.6500   20.4970 O   0  0  0  0  0  0  0  0  0  0  0  0
  -22.4470  -12.1280   22.3610 H   0  0  0  0  0  0  0  0  0  0  0  0
  -21.1440  -13.2460   22.0930 H   0  0  0  0  0  0  0  0  0  0  0  0
  -25.4730  -15.3190   20.2760 N   0  0  0  0  0  0  0  0  0  0  0  0
  -24.6910  -15.9650   20.3460 H   0  0  0  0  0  0  0  0  0  0  0  0
  -26.3270  -15.7500   19.9430 H   0  0  0  0  0  0  0  0  0  0  0  0
  1  4  1  0
  3  1  2  0
  3  6  1  0
  4  8  1  0
  4  2  2  0
  5  2  1  0
  5 51  1  0
  6  5  2  0
  8  7  1  0
  9 10  1  0
  9  8  1  0
 10 12  1  0
 11 22  2  0
 12 17  1  0
 13 21  1  0
 13 23  1  0
 14 20  1  0
 14 16  1  0
 15 21  1  0
 16 15  1  0
 17 16  2  0
 18 19  1  0
 18 12  2  0
 19 14  2  0
 20 13  1  0
 21 11  1  0
 23 25  2  0
 24 23  1  0
 26 24  1  0
 27 36  2  0
 27 32  1  0
 28 24  1  0
 28 32  1  0
 29 28  1  0
 30 31  1  0
 30 29  1  0
 31 27  1  0
 32 33  2  0
 33 34  1  0
 35 34  2  0
 36 35  1  0
 37 11  1  0
 37 42  1  0
 37 38  1  0
 38 41  1  1
 38 39  1  0
 40 38  1  0
 42 45  1  0
 43 47  1  0
 43 42  1  0
 44 43  2  0
 47 46  1  0
 49 47  1  0
 49 50  1  0
 49 48  1  0
 53 52  1  0
 53 62  1  0
 53 51  1  0
 54 62  1  0
 55 60  1  0
 56 57  1  0
 56 55  1  0
 58 57  1  0
 58 67  1  0
 58 59  1  0
 60 54  1  0
 60 59  1  0
 61 54  2  0
 62 63  1  0
 64 65  2  0
 65 66  1  0
 65 84  1  0
 66 69  1  0
 67 64  1  0
 67 68  1  0
 68 66  2  0
 69 70  1  0
 70 71  2  0
 72 75  1  0
 72 71  1  0
 73 72  2  0
 74 73  1  0
 74 69  2  0
 75 76  1  0
 76 77  1  0
 77 78  2  0
 79 78  1  0
 79 83  1  0
 80 79  2  0
 81 76  2  0
 81 80  1  0
 82 81  1  0
 84 85  1  0
 85 88  1  0
 85 87  1  0
 86 84  2  0
 89 90  1  0
 89 64  1  0
 91 89  1  0
M  ISO  4   9 101  10 101  54 100  62 100
M  END
>  <TORSDO>  (84) 
F 20

>  <SCORE>  (84) 
-13.836

>  <name>  (84) 
83

>  <ligand_id>  (84) 
83

>  <original_smiles>  (84) 
[H]c1nc(C([H])([H])C([H])(N([H])C(=O)N2C([H])([H])C([H])([H])C([H])([H])C([H])(n3nc(-c4c([H])c([H])c(Oc5c([H])c([H])c(F)c([H])c5F)c([H])c4[H])c(C(=O)N([H])[H])c3N([H])[H])C2([H])[H])C([H])([H])[H])c([H])c(C([H])(C([H])([H])[H])C([H])([H])Oc2c([H])c([H])c3c(c2[H])C([H])([H])N(C(=O)C([H])(N([H])C(=O)C([H])(N([H])C([H])([H])[H])C([H])([H])[H])C(C([H])([H])[H])(C([H])([H])[H])C([H])([H])[H])C([H])(C(=O)N([H])C2([H])c4c([H])c([H])c([H])c([H])c4C([H])([H])C([H])([H])C2([H])[H])C3([H])[H])c1[H]

>  <smiles>  (84) 
[H]c1nc(C([H])([H])C([H])(N([H])C(=O)N2C([H])([H])C([H])([H])C([H])([H])C([H])(n3nc(-c4c([H])c([H])c(Oc5c([H])c([H])c(F)c([H])c5F)c([H])c4[H])c(C(=O)N([H])[H])c3N([H])[H])C2([H])[H])C([H])([H])[H])c([H])c(C([H])(C([H])([H])[H])C([H])([H])Oc2c([H])c([H])c3c(c2[H])C([H])([H])N(C(=O)C([H])(N([H])C(=O)C([H])(N([H])C([H])([H])[H])C([H])([H])[H])C(C([H])([H])[H])(C([H])([H])[H])C([H])([H])[H])C([H])(C(=O)N([H])C2([H])c4c([H])c([H])c([H])c([H])c4C([H])([H])C([H])([H])C2([H])[H])C3([H])[H])c1[H]

$$$$
84:0:0
     RDKit          3D

 91 98  0  0  1  0  0  0  0  0999 V2000
  -28.8400  -22.4300   20.5800 C   0  0  0  0  0  3  0  0  0  0  0  0
  -29.2600  -23.9220   20.1330 C   0  0  0  0  0  3  0  0  0  0  0  0
  -30.3860  -24.2630   20.7640 F   0  0  0  0  0  0  0  0  0  0  0  0
  -28.1780  -25.0800   20.3480 C   0  0  0  0  0  2  0  0  0  0  0  0
  -28.4110  -26.4920   19.9430 O   0  0  0  0  0  0  0  0  0  0  0  0
  -24.6160  -31.7290   23.1660 C   0  0  0  0  0  0  0  0  0  0  0  0
  -27.2830  -27.3320   19.9380 C   0  0  0  0  0  0  0  0  0  0  0  0
  -23.4210  -30.3620   21.4930 C   0  0  0  0  0  3  0  0  0  0  0  0
  -24.8860  -28.8930   20.0010 C   0  0  0  0  0  0  0  0  0  0  0  0
  -25.9510  -30.7400   21.2940 C   0  0  0  0  0  2  0  0  0  0  0  0
  -26.0510  -29.3850   20.6040 C   0  0  0  0  0  0  0  0  0  0  0  0
  -27.2530  -28.6160   20.5650 C   0  0  0  0  0  3  0  0  0  0  0  0
  -26.0970  -26.9050   19.2960 C   0  0  0  0  0  3  0  0  0  0  0  0
  -24.9100  -27.6580   19.3400 C   0  0  0  0  0  3  0  0  0  0  0  0
  -23.6330  -29.7380   20.0890 C   0  0  0  0  0  2  0  0  0  0  0  0
  -24.6820  -30.9590   22.0410 N   0  0  0  0  0  0  0  0  0  0  0  0
  -23.5330  -31.9670   23.7210 O   0  0  0  0  0  0  0  0  0  0  0  0
  -22.7900  -29.3010   22.4250 C   0  0  0  0  0  0  0  0  0  0  0  0
  -21.4710  -29.0790   22.2860 N   0  0  0  0  0  0  0  0  0  0  0  0
  -23.4860  -28.6790   23.2310 O   0  0  0  0  0  0  0  0  0  0  0  0
  -20.9670  -29.6340   21.6090 H   0  0  0  0  0  0  0  0  0  0  0  0
  -18.1440  -27.7300   22.7090 C   0  0  0  0  0  0  0  0  0  0  0  0
  -20.6820  -28.0990   23.0320 C   0  0  0  0  0  3  0  0  0  0  0  0
  -20.8600  -26.6790   22.4440 C   0  0  0  0  0  2  0  0  0  0  0  0
  -19.7920  -26.3190   21.4060 C   0  0  0  0  0  2  0  0  0  0  0  0
  -18.3940  -26.3960   22.0240 C   0  0  0  0  0  2  0  0  0  0  0  0
  -19.2190  -28.5360   23.1690 C   0  0  0  0  0  0  0  0  0  0  0  0
  -18.9330  -29.7810   23.7690 C   0  0  0  0  0  3  0  0  0  0  0  0
  -17.6040  -30.2220   23.9150 C   0  0  0  0  0  3  0  0  0  0  0  0
  -16.5430  -29.4130   23.4730 C   0  0  0  0  0  3  0  0  0  0  0  0
  -16.8140  -28.1690   22.8750 C   0  0  0  0  0  3  0  0  0  0  0  0
  -25.8920  -32.3660   23.7930 C   0  0  0  0  0  3  0  0  0  0  0  0
  -25.5660  -33.7550   24.1520 N   0  0  0  0  0  0  0  0  0  0  0  0
  -25.8830  -34.8250   23.4130 C   0  0  0  0  0  0  0  0  0  0  0  0
  -26.5490  -34.7510   22.3770 O   0  0  0  0  0  0  0  0  0  0  0  0
  -24.9750  -33.8860   24.9600 H   0  0  0  0  0  0  0  0  0  0  0  0
  -24.1340  -36.6060   23.0970 C   0  0  0  0  0  1  0  0  0  0  0  0
  -25.3800  -36.1990   23.9000 C   0  0  0  0  0  3  0  0  0  0  0  0
  -27.5000  -37.0950   24.7570 C   0  0  0  0  0  1  0  0  0  0  0  0
  -26.4010  -37.2640   23.8100 N   0  0  0  0  0  0  0  0  0  0  0  0
  -25.9840  -38.1780   23.9690 H   0  0  0  0  0  0  0  0  0  0  0  0
  -26.4250  -31.5780   25.0530 C   0  0  1  0  0  0  0  0  0  0  0  0
  -25.3400  -31.3050   26.1190 C   0  0  0  0  0  1  0  0  0  0  0  0
  -27.0260  -30.2170   24.6310 C   0  0  0  0  0  1  0  0  0  0  0  0
  -27.5680  -32.3750   25.7250 C   0  0  0  0  0  1  0  0  0  0  0  0
  -29.4480  -22.5140   23.1180 C   0  0  0  0  0  1  0  0  0  0  0  0
  -28.3490  -22.3760   22.0520 C   0  0  0  0  0  2  0  0  0  0  0  0
  -29.8350  -21.2050   20.2810 C   0  0  0  0  0  3  0  0  0  0  0  0
  -29.2460  -19.7200   20.3990 C   0  0  0  0  0  3  0  0  0  0  0  0
  -30.1900  -18.4560   20.5030 C   0  0  0  0  0  0  0  0  0  0  0  0
  -31.2460  -18.5350   21.1350 O   0  0  0  0  0  0  0  0  0  0  0  0
  -30.1560  -17.0890   18.2950 C   0  0  0  0  0  1  0  0  0  0  0  0
  -29.7460  -17.1130   19.7790 C   0  0  0  0  0  0  0  0  0  0  0  0
  -30.7340  -14.7120   20.2270 C   0  0  0  0  0  0  0  0  0  0  0  0
  -30.5460  -12.4490   19.2260 C   0  0  0  0  0  2  0  0  0  0  0  0
  -29.6040  -12.5600   18.0050 C   0  0  0  0  0  2  0  0  0  0  0  0
  -28.1310  -12.3980   18.4290 C   0  0  0  0  0  2  0  0  0  0  0  0
  -27.7660  -13.2740   19.6570 C   0  0  0  0  0  3  0  0  0  0  0  0
  -28.8240  -13.1430   20.7790 C   0  0  0  0  0  2  0  0  0  0  0  0
  -30.1370  -13.4780   20.2040 N   0  0  0  0  0  0  0  0  0  0  0  0
  -31.8870  -14.8760   19.8170 O   0  0  0  0  0  0  0  0  0  0  0  0
  -29.8870  -15.7640   20.4540 N   0  0  0  0  0  4  0  0  0  0  0  0
  -29.0420  -15.4750   20.9240 H   0  0  0  0  0  0  0  0  0  0  0  0
  -25.3670  -13.8720   20.3640 C   0  0  0  0  0  0  0  0  0  0  0  0
  -24.3040  -13.0990   20.7460 C   0  0  0  0  0  0  0  0  0  0  0  0
  -24.7730  -11.7500   20.7340 C   0  0  0  0  0  0  0  0  0  0  0  0
  -26.4170  -12.9940   20.1430 N   0  0  0  0  0  0  0  0  0  0  0  0
  -26.0630  -11.7130   20.4270 N   0  0  0  0  0  0  0  0  0  0  0  0
  -24.0520  -10.4880   20.9420 C   0  0  0  0  0  0  0  0  0  0  0  0
  -24.4750   -9.5470   21.9080 C   0  0  0  0  0  3  0  0  0  0  0  0
  -23.7550   -8.3480   22.1040 C   0  0  0  0  0  3  0  0  0  0  0  0
  -22.5990   -8.0820   21.3330 C   0  0  0  0  0  0  0  0  0  0  0  0
  -22.1950   -9.0100   20.3570 C   0  0  0  0  0  3  0  0  0  0  0  0
  -22.9150  -10.2000   20.1610 C   0  0  0  0  0  3  0  0  0  0  0  0
  -21.8510   -6.9320   21.4370 O   0  0  0  0  0  0  0  0  0  0  0  0
  -21.7710   -6.2290   22.6120 C   0  0  0  0  0  0  0  0  0  0  0  0
  -21.2670   -6.8110   23.7950 C   0  0  0  0  0  3  0  0  0  0  0  0
  -21.1370   -6.0320   24.9620 C   0  0  0  0  0  3  0  0  0  0  0  0
  -21.4990   -4.6720   24.9450 C   0  0  0  0  0  0  0  0  0  0  0  0
  -21.9950   -4.0890   23.7660 C   0  0  0  0  0  3  0  0  0  0  0  0
  -22.1270   -4.8660   22.6010 C   0  0  0  0  0  0  0  0  0  0  0  0
  -22.5850   -4.2950   21.4620 F   0  0  0  0  0  0  0  0  0  0  0  0
  -21.3660   -3.9200   26.0630 F   0  0  0  0  0  0  0  0  0  0  0  0
  -22.9030  -13.5740   21.0120 C   0  0  0  0  0  0  0  0  0  0  0  0
  -22.1790  -12.8870   21.8880 N   0  0  0  0  0  0  0  0  0  0  0  0
  -22.4600  -14.5880   20.4750 O   0  0  0  0  0  0  0  0  0  0  0  0
  -22.5480  -12.0680   22.3480 H   0  0  0  0  0  0  0  0  0  0  0  0
  -21.2390  -13.1880   22.1070 H   0  0  0  0  0  0  0  0  0  0  0  0
  -25.5220  -15.2400   20.1650 N   0  0  0  0  0  0  0  0  0  0  0  0
  -24.7460  -15.8870   20.2510 H   0  0  0  0  0  0  0  0  0  0  0  0
  -26.3550  -15.6740   19.7890 H   0  0  0  0  0  0  0  0  0  0  0  0
  1 48  1  0
  1 47  1  0
  2  4  1  0
  2  1  1  0
  2  3  1  0
  5  4  1  0
  6 17  2  0
  7  5  1  0
  7 12  1  0
  8 16  1  0
  8 18  1  0
  9 15  1  0
  9 11  1  0
 10 16  1  0
 11 10  1  0
 12 11  2  0
 13 14  1  0
 13  7  2  0
 14  9  2  0
 15  8  1  0
 16  6  1  0
 18 20  2  0
 19 18  1  0
 21 19  1  0
 22 31  2  0
 22 27  1  0
 23 19  1  0
 23 27  1  0
 24 23  1  0
 25 26  1  0
 25 24  1  0
 26 22  1  0
 27 28  2  0
 28 29  1  0
 30 29  2  0
 31 30  1  0
 32  6  1  0
 32 33  1  0
 32 42  1  0
 33 36  1  0
 34 38  1  0
 34 33  1  0
 35 34  2  0
 38 37  1  0
 40 38  1  0
 40 41  1  0
 40 39  1  0
 42 45  1  1
 42 43  1  0
 44 42  1  0
 47 46  1  0
 48 49  2  0
 49 50  1  0
 50 51  2  0
 52 53  1  0
 53 62  2  3
 53 50  1  0
 54 62  1  0
 55 60  1  0
 56 57  1  0
 56 55  1  0
 58 57  1  0
 58 67  1  0
 58 59  1  0
 60 54  1  0
 60 59  1  0
 61 54  2  0
 62 63  1  0
 64 65  2  0
 65 84  1  0
 66 65  1  0
 66 69  1  0
 67 64  1  0
 67 68  1  0
 68 66  2  0
 69 70  1  0
 70 71  2  0
 72 75  1  0
 72 71  1  0
 73 72  2  0
 74 73  1  0
 74 69  2  0
 75 76  1  0
 76 77  1  0
 77 78  2  0
 79 78  1  0
 79 83  1  0
 80 79  2  0
 81 76  2  0
 81 80  1  0
 82 81  1  0
 84 85  1  0
 85 88  1  0
 85 87  1  0
 86 84  2  0
 89 90  1  0
 89 64  1  0
 91 89  1  0
M  ISO  4   4 101   5 101  54 100  62 100
M  END
>  <TORSDO>  (85) 
F 23

>  <SCORE>  (85) 
-12.403

>  <name>  (85) 
84

>  <ligand_id>  (85) 
84

>  <original_smiles>  (85) 
[H]c1c([H])c([H])c2c(c1[H])C([H])([H])C([H])([H])C([H])([H])C2([H])N([H])C(=O)C1([H])N(C(=O)C([H])(N([H])C(=O)C([H])(N([H])C([H])([H])[H])C([H])([H])[H])C(C([H])([H])[H])(C([H])([H])[H])C([H])([H])[H])C([H])([H])c2c([H])c(OC([H])([H])C([H])(F)C([H])(C([H])([H])C([H])([H])[H])C([H])([H])C([H])([H])C(=O)C([H])(N([H])C(=O)N3C([H])([H])C([H])([H])C([H])([H])C([H])(n4nc(-c5c([H])c([H])c(Oc6c([H])c([H])c(F)c([H])c6F)c([H])c5[H])c(C(=O)N([H])[H])c4N([H])[H])C3([H])[H])C([H])([H])[H])c([H])c([H])c2C1([H])[H]

>  <smiles>  (85) 
[H]c1c([H])c([H])c2c(c1[H])C([H])([H])C([H])([H])C([H])([H])C2([H])N([H])C(=O)C1([H])N(C(=O)C([H])(N([H])C(=O)C([H])(N([H])C([H])([H])[H])C([H])([H])[H])C(C([H])([H])[H])(C([H])([H])[H])C([H])([H])[H])C([H])([H])c2c([H])c(OC([H])([H])C([H])(F)C([H])(C([H])([H])C([H])([H])[H])C([H])([H])C([H])([H])C(=O)C([H])(N([H])C(=O)N3C([H])([H])C([H])([H])C([H])([H])C([H])(n4nc(-c5c([H])c([H])c(Oc6c([H])c([H])c(F)c([H])c6F)c([H])c5[H])c(C(=O)N([H])[H])c4N([H])[H])C3([H])[H])C([H])([H])[H])c([H])c([H])c2C1([H])[H]

$$$$
85:0:0
     RDKit          3D

 93101  0  0  1  0  0  0  0  0999 V2000
  -28.3390  -21.2480   20.9490 C   0  0  0  0  0  2  0  0  0  0  0  0
  -27.4760  -20.1680   20.7570 C   0  0  0  0  0  2  0  0  0  0  0  0
  -29.5580  -20.9380   20.4260 C   0  0  0  0  0  3  0  0  0  0  0  0
  -28.1450  -19.2540   20.0120 C   0  0  0  0  0  3  0  0  0  0  0  0
  -29.5380  -19.4600   20.0500 N   0  0  0  0  0  0  0  0  0  0  0  0
  -30.5320  -22.2210   20.4760 C   0  0  0  0  0  2  0  0  0  0  0  0
  -30.1060  -23.8370   20.0930 C   0  0  0  0  0  3  0  0  0  0  0  0
  -29.3350  -25.0680   20.9580 C   0  0  0  0  0  3  0  0  0  0  0  0
  -29.2790  -26.5950   20.6370 O   0  0  0  0  0  0  0  0  0  0  0  0
  -24.8620  -31.8540   23.3940 C   0  0  0  0  0  0  0  0  0  0  0  0
  -28.0890  -27.4110   20.5870 C   0  0  0  0  0  0  0  0  0  0  0  0
  -23.9190  -30.3770   21.6570 C   0  0  0  0  0  3  0  0  0  0  0  0
  -25.6080  -28.9260   20.3670 C   0  0  0  0  0  0  0  0  0  0  0  0
  -26.4440  -30.8580   21.7000 C   0  0  0  0  0  2  0  0  0  0  0  0
  -26.6910  -29.4800   21.0640 C   0  0  0  0  0  0  0  0  0  0  0  0
  -27.9310  -28.7410   21.1480 C   0  0  0  0  0  3  0  0  0  0  0  0
  -26.9680  -26.9380   19.8720 C   0  0  0  0  0  3  0  0  0  0  0  0
  -25.7580  -27.6680   19.7600 C   0  0  0  0  0  3  0  0  0  0  0  0
  -24.3130  -29.7230   20.3050 C   0  0  0  0  0  2  0  0  0  0  0  0
  -25.0880  -31.0520   22.3080 N   0  0  0  0  0  0  0  0  0  0  0  0
  -23.7160  -32.0460   23.8310 O   0  0  0  0  0  0  0  0  0  0  0  0
  -23.2460  -29.3140   22.5620 C   0  0  0  0  0  0  0  0  0  0  0  0
  -21.9470  -29.0470   22.3330 N   0  0  0  0  0  0  0  0  0  0  0  0
  -23.8980  -28.7310   23.4320 O   0  0  0  0  0  0  0  0  0  0  0  0
  -21.4740  -29.5740   21.6110 H   0  0  0  0  0  0  0  0  0  0  0  0
  -18.6240  -27.6350   22.6080 C   0  0  0  0  0  0  0  0  0  0  0  0
  -21.1420  -28.0430   23.0330 C   0  0  0  0  0  3  0  0  0  0  0  0
  -21.3650  -26.6340   22.4340 C   0  0  0  0  0  2  0  0  0  0  0  0
  -20.3470  -26.2720   21.3500 C   0  0  0  0  0  2  0  0  0  0  0  0
  -18.9230  -26.3170   21.9120 C   0  0  0  0  0  2  0  0  0  0  0  0
  -19.6660  -28.4520   23.1220 C   0  0  0  0  0  0  0  0  0  0  0  0
  -19.3350  -29.6830   23.7290 C   0  0  0  0  0  3  0  0  0  0  0  0
  -17.9930  -30.0960   23.8300 C   0  0  0  0  0  3  0  0  0  0  0  0
  -16.9650  -29.2780   23.3310 C   0  0  0  0  0  3  0  0  0  0  0  0
  -17.2800  -28.0480   22.7270 C   0  0  0  0  0  3  0  0  0  0  0  0
  -26.0300  -32.5830   24.1270 C   0  0  0  0  0  3  0  0  0  0  0  0
  -25.6150  -33.9760   24.3580 N   0  0  0  0  0  0  0  0  0  0  0  0
  -25.9600  -35.0140   23.5860 C   0  0  0  0  0  0  0  0  0  0  0  0
  -26.7270  -34.9050   22.6250 O   0  0  0  0  0  0  0  0  0  0  0  0
  -24.9410  -34.1300   25.0940 H   0  0  0  0  0  0  0  0  0  0  0  0
  -24.1660  -36.6840   23.0100 C   0  0  0  0  0  1  0  0  0  0  0  0
  -25.3610  -36.3930   23.9310 C   0  0  0  0  0  3  0  0  0  0  0  0
  -27.3660  -37.4520   24.8780 C   0  0  0  0  0  1  0  0  0  0  0  0
  -26.3390  -37.5000   23.8410 N   0  0  0  0  0  0  0  0  0  0  0  0
  -25.8690  -38.4000   23.9000 H   0  0  0  0  0  0  0  0  0  0  0  0
  -26.4310  -31.8960   25.4910 C   0  0  1  0  0  0  0  0  0  0  0  0
  -25.2310  -31.6320   26.4310 C   0  0  0  0  0  1  0  0  0  0  0  0
  -27.1380  -30.5430   25.2390 C   0  0  0  0  0  1  0  0  0  0  0  0
  -27.4420  -32.7870   26.2500 C   0  0  0  0  0  1  0  0  0  0  0  0
  -27.4250  -18.2950   19.1600 C   0  0  0  0  0  2  0  0  0  0  0  0
  -27.0810  -18.9200   17.7830 C   0  0  0  0  0  2  0  0  0  0  0  0
  -26.7290  -21.4840   17.8750 C   0  0  0  0  0  1  0  0  0  0  0  0
  -25.1320  -20.0470   16.6000 C   0  0  0  0  0  1  0  0  0  0  0  0
  -26.0670  -20.0970   17.8180 C   0  0  0  0  0  3  0  0  0  0  0  0
  -30.5670  -18.2690   19.6500 C   0  0  0  0  0  2  0  0  0  0  0  0
  -31.1110  -15.4670   19.8000 C   0  0  0  0  0  0  0  0  0  0  0  0
  -30.9830  -13.0540   18.9660 C   0  0  0  0  0  2  0  0  0  0  0  0
  -29.9890  -12.9010   17.7910 C   0  0  0  0  0  2  0  0  0  0  0  0
  -28.5560  -12.6810   18.3080 C   0  0  0  0  0  2  0  0  0  0  0  0
  -28.1810  -13.6550   19.4530 C   0  0  0  0  0  3  0  0  0  0  0  0
  -29.2920  -13.7620   20.5210 C   0  0  0  0  0  2  0  0  0  0  0  0
  -30.5220  -14.1920   19.8280 N   0  0  0  0  0  0  0  0  0  0  0  0
  -32.2990  -15.4910   19.4520 O   0  0  0  0  0  0  0  0  0  0  0  0
  -30.3520  -16.6880   19.9570 N   0  0  0  0  0  0  0  0  0  0  0  0
  -29.4110  -16.4960   20.2520 H   0  0  0  0  0  0  0  0  0  0  0  0
  -25.8590  -14.2130   20.3770 C   0  0  0  0  0  0  0  0  0  0  0  0
  -24.8070  -13.4600   20.7900 C   0  0  0  0  0  0  0  0  0  0  0  0
  -25.2420  -12.1110   20.6690 C   0  0  0  0  0  0  0  0  0  0  0  0
  -26.8740  -13.3430   20.0300 N   0  0  0  0  0  0  0  0  0  0  0  0
  -26.5110  -12.0580   20.2700 N   0  0  0  0  0  0  0  0  0  0  0  0
  -24.4910  -10.8700   20.8490 C   0  0  0  0  0  0  0  0  0  0  0  0
  -24.8520   -9.9300   21.8360 C   0  0  0  0  0  3  0  0  0  0  0  0
  -24.0950   -8.7520   22.0040 C   0  0  0  0  0  3  0  0  0  0  0  0
  -22.9680   -8.5100   21.1830 C   0  0  0  0  0  0  0  0  0  0  0  0
  -22.6290   -9.4410   20.1850 C   0  0  0  0  0  3  0  0  0  0  0  0
  -23.3860  -10.6090   20.0160 C   0  0  0  0  0  3  0  0  0  0  0  0
  -22.1940   -7.3780   21.2570 O   0  0  0  0  0  0  0  0  0  0  0  0
  -21.9250   -6.7700   22.4560 C   0  0  0  0  0  0  0  0  0  0  0  0
  -21.2710   -7.4500   23.5060 C   0  0  0  0  0  3  0  0  0  0  0  0
  -20.9490   -6.7660   24.6960 C   0  0  0  0  0  3  0  0  0  0  0  0
  -21.2780   -5.4040   24.8370 C   0  0  0  0  0  0  0  0  0  0  0  0
  -21.9270   -4.7240   23.7910 C   0  0  0  0  0  3  0  0  0  0  0  0
  -22.2480   -5.4060   22.6030 C   0  0  0  0  0  0  0  0  0  0  0  0
  -22.8560   -4.7430   21.5910 F   0  0  0  0  0  0  0  0  0  0  0  0
  -20.9630   -4.7440   25.9750 F   0  0  0  0  0  0  0  0  0  0  0  0
  -23.4490  -13.9780   21.1680 C   0  0  0  0  0  0  0  0  0  0  0  0
  -22.7620  -13.2860   22.0660 N   0  0  0  0  0  0  0  0  0  0  0  0
  -23.0100  -15.0320   20.7060 O   0  0  0  0  0  0  0  0  0  0  0  0
  -23.1350  -12.4360   22.4640 H   0  0  0  0  0  0  0  0  0  0  0  0
  -21.8580  -13.6190   22.3710 H   0  0  0  0  0  0  0  0  0  0  0  0
  -26.0010  -15.5670   20.2420 N   0  0  0  0  0  0  0  0  0  0  0  0
  -25.2190  -16.1840   20.4210 H   0  0  0  0  0  0  0  0  0  0  0  0
  -26.7510  -16.0130   19.7360 H   0  0  0  0  0  0  0  0  0  0  0  0
  2  1  1  0
  3  6  1  0
  3  1  1  0
  4 50  1  0
  4  5  1  0
  4  2  1  0
  5  3  1  0
  7  6  1  0
  7  8  2  0
  9  8  1  0
 10 21  2  0
 11  9  1  0
 11 16  1  0
 12 20  1  0
 12 22  1  0
 13 15  1  0
 14 20  1  0
 15 16  2  0
 15 14  1  0
 17 11  2  0
 18 17  1  0
 18 13  2  0
 19 13  1  0
 19 12  1  0
 20 10  1  0
 22 24  2  0
 23 22  1  0
 25 23  1  0
 26 35  2  0
 26 31  1  0
 27 23  1  0
 27 31  1  0
 28 27  1  0
 29 30  1  0
 29 28  1  0
 30 26  1  0
 31 32  2  0
 32 33  1  0
 34 33  2  0
 35 34  1  0
 36 10  1  0
 36 37  1  0
 36 46  1  0
 37 40  1  0
 38 42  1  0
 38 37  1  0
 39 38  2  0
 42 41  1  0
 44 45  1  0
 44 42  1  0
 44 43  1  0
 46 49  1  1
 46 47  1  0
 48 46  1  0
 51 54  1  0
 51 50  1  0
 53 54  1  0
 54 52  1  0
 55 64  1  0
 55  5  1  0
 56 62  1  0
 56 64  1  0
 57 62  1  0
 58 59  1  0
 58 57  1  0
 60 59  1  0
 60 69  1  0
 60 61  1  0
 62 61  1  0
 63 56  2  0
 64 65  1  0
 66 67  2  0
 67 86  1  0
 68 67  1  0
 68 71  1  0
 69 70  1  0
 69 66  1  0
 70 68  2  0
 71 72  1  0
 72 73  2  0
 74 77  1  0
 74 73  1  0
 75 74  2  0
 76 75  1  0
 76 71  2  0
 77 78  1  0
 78 83  2  0
 78 79  1  0
 79 80  2  0
 80 81  1  0
 81 85  1  0
 82 81  2  0
 83 82  1  0
 84 83  1  0
 86 87  1  0
 87 90  1  0
 87 89  1  0
 88 86  2  0
 91 66  1  0
 91 92  1  0
 93 91  1  0
M  ISO  4   8 101   9 101  56 100  64 100
M  END
>  <TORSDO>  (86) 
F 23

>  <SCORE>  (86) 
-11.054

>  <name>  (86) 
85

>  <ligand_id>  (86) 
85

>  <original_smiles>  (86) 
[H]c1c([H])c([H])c2c(c1[H])C([H])([H])C([H])([H])C([H])([H])C2([H])N([H])C(=O)C1([H])N(C(=O)C([H])(N([H])C(=O)C([H])(N([H])C([H])([H])[H])C([H])([H])[H])C(C([H])([H])[H])(C([H])([H])[H])C([H])([H])[H])C([H])([H])c2c([H])c(OC([H])([H])C([H])([H])C([H])([H])c3c([H])c([H])c(C([H])([H])C([H])([H])C([H])(C([H])([H])[H])C([H])([H])[H])n3C([H])([H])N([H])C(=O)N3C([H])([H])C([H])([H])C([H])([H])C([H])(n4nc(-c5c([H])c([H])c(Oc6c([H])c([H])c(F)c([H])c6F)c([H])c5[H])c(C(=O)N([H])[H])c4N([H])[H])C3([H])[H])c([H])c([H])c2C1([H])[H]

>  <smiles>  (86) 
[H]c1c([H])c([H])c2c(c1[H])C([H])([H])C([H])([H])C([H])([H])C2([H])N([H])C(=O)C1([H])N(C(=O)C([H])(N([H])C(=O)C([H])(N([H])C([H])([H])[H])C([H])([H])[H])C(C([H])([H])[H])(C([H])([H])[H])C([H])([H])[H])C([H])([H])c2c([H])c(OC([H])([H])C([H])([H])C([H])([H])c3c([H])c([H])c(C([H])([H])C([H])([H])C([H])(C([H])([H])[H])C([H])([H])[H])n3C([H])([H])N([H])C(=O)N3C([H])([H])C([H])([H])C([H])([H])C([H])(n4nc(-c5c([H])c([H])c(Oc6c([H])c([H])c(F)c([H])c6F)c([H])c5[H])c(C(=O)N([H])[H])c4N([H])[H])C3([H])[H])c([H])c([H])c2C1([H])[H]

$$$$
86:0:0
     RDKit          3D

 97105  0  0  1  0  0  0  0  0999 V2000
  -28.5890  -20.4110   20.3350 C   0  0  0  0  0  3  0  0  0  0  0  0
  -30.4210  -21.5250   20.1010 C   0  0  0  0  0  3  0  0  0  0  0  0
  -29.9980  -20.1680   20.2500 C   0  0  0  0  0  0  0  0  0  0  0  0
  -28.2470  -21.7650   20.2080 C   0  0  0  0  0  0  0  0  0  0  0  0
  -29.3960  -22.5650   20.0680 N   0  0  0  0  0  0  0  0  0  0  0  0
  -29.9290  -24.3340   18.3430 C   0  0  0  0  0  1  0  0  0  0  0  0
  -29.5780  -24.1600   19.8260 C   0  0  0  0  0  3  0  0  0  0  0  0
  -28.5390  -25.4680   20.2160 C   0  0  0  0  0  2  0  0  0  0  0  0
  -28.5990  -26.9720   19.7260 O   0  0  0  0  0  0  0  0  0  0  0  0
  -24.7190  -32.0800   23.4550 C   0  0  0  0  0  0  0  0  0  0  0  0
  -27.4930  -27.9070   19.8310 C   0  0  0  0  0  0  0  0  0  0  0  0
  -23.5750  -30.8590   21.6490 C   0  0  0  0  0  3  0  0  0  0  0  0
  -25.0860  -29.5500   20.0280 C   0  0  0  0  0  0  0  0  0  0  0  0
  -26.1160  -31.2560   21.5180 C   0  0  0  0  0  2  0  0  0  0  0  0
  -26.2490  -29.9640   20.6880 C   0  0  0  0  0  0  0  0  0  0  0  0
  -27.4530  -29.1630   20.5710 C   0  0  0  0  0  3  0  0  0  0  0  0
  -26.2960  -27.6080   19.1450 C   0  0  0  0  0  3  0  0  0  0  0  0
  -25.1220  -28.3880   19.2430 C   0  0  0  0  0  3  0  0  0  0  0  0
  -23.8200  -30.3770   20.1940 C   0  0  0  0  0  2  0  0  0  0  0  0
  -24.8240  -31.4160   22.2640 N   0  0  0  0  0  0  0  0  0  0  0  0
  -23.6250  -32.2400   24.0180 O   0  0  0  0  0  0  0  0  0  0  0  0
  -22.9510  -29.7030   22.4710 C   0  0  0  0  0  0  0  0  0  0  0  0
  -21.6430  -29.4530   22.2880 N   0  0  0  0  0  0  0  0  0  0  0  0
  -23.6490  -29.0350   23.2390 O   0  0  0  0  0  0  0  0  0  0  0  0
  -21.1300  -30.0490   21.6520 H   0  0  0  0  0  0  0  0  0  0  0  0
  -18.3400  -27.9940   22.5950 C   0  0  0  0  0  0  0  0  0  0  0  0
  -20.8790  -28.3750   22.9230 C   0  0  0  0  0  3  0  0  0  0  0  0
  -21.0720  -27.0410   22.1680 C   0  0  0  0  0  2  0  0  0  0  0  0
  -19.9940  -26.7890   21.1090 C   0  0  0  0  0  2  0  0  0  0  0  0
  -18.6040  -26.7590   21.7500 C   0  0  0  0  0  2  0  0  0  0  0  0
  -19.4080  -28.7620   23.1310 C   0  0  0  0  0  0  0  0  0  0  0  0
  -19.1080  -29.9180   23.8820 C   0  0  0  0  0  3  0  0  0  0  0  0
  -17.7740  -30.3110   24.0980 C   0  0  0  0  0  3  0  0  0  0  0  0
  -16.7220  -29.5420   23.5750 C   0  0  0  0  0  3  0  0  0  0  0  0
  -17.0050  -28.3820   22.8320 C   0  0  0  0  0  3  0  0  0  0  0  0
  -25.9690  -32.6880   24.1620 C   0  0  0  0  0  3  0  0  0  0  0  0
  -25.6350  -34.0660   24.5580 N   0  0  0  0  0  0  0  0  0  0  0  0
  -25.9630  -35.1630   23.8650 C   0  0  0  0  0  0  0  0  0  0  0  0
  -26.6460  -35.1240   22.8380 O   0  0  0  0  0  0  0  0  0  0  0  0
  -25.0270  -34.1680   25.3570 H   0  0  0  0  0  0  0  0  0  0  0  0
  -24.2100  -36.9510   23.6030 C   0  0  0  0  0  1  0  0  0  0  0  0
  -25.4550  -36.5190   24.3930 C   0  0  0  0  0  3  0  0  0  0  0  0
  -27.5680  -37.4010   25.2820 C   0  0  0  0  0  1  0  0  0  0  0  0
  -26.4730  -37.5930   24.3350 N   0  0  0  0  0  0  0  0  0  0  0  0
  -26.0520  -38.4990   24.5160 H   0  0  0  0  0  0  0  0  0  0  0  0
  -26.4400  -31.8550   25.4180 C   0  0  1  0  0  0  0  0  0  0  0  0
  -25.3090  -31.5650   26.4330 C   0  0  0  0  0  1  0  0  0  0  0  0
  -27.0420  -30.4970   24.9850 C   0  0  0  0  0  1  0  0  0  0  0  0
  -27.5620  -32.6170   26.1600 C   0  0  0  0  0  1  0  0  0  0  0  0
  -30.8750  -18.7270   20.3260 C   0  0  0  0  0  2  0  0  0  0  0  0
  -31.2230  -15.9930   20.4720 C   0  0  0  0  0  0  0  0  0  0  0  0
  -31.2150  -13.5870   19.6400 C   0  0  0  0  0  2  0  0  0  0  0  0
  -30.3610  -13.4310   18.3600 C   0  0  0  0  0  2  0  0  0  0  0  0
  -28.8850  -13.1860   18.7230 C   0  0  0  0  0  2  0  0  0  0  0  0
  -28.3810  -14.1560   19.8220 C   0  0  0  0  0  3  0  0  0  0  0  0
  -29.3670  -14.2860   21.0020 C   0  0  0  0  0  2  0  0  0  0  0  0
  -30.6500  -14.7180   20.4370 N   0  0  0  0  0  0  0  0  0  0  0  0
  -32.4420  -16.0450   20.2730 O   0  0  0  0  0  0  0  0  0  0  0  0
  -30.4470  -17.2010   20.5140 N   0  0  0  0  0  0  0  0  0  0  0  0
  -29.4560  -17.0500   20.6310 H   0  0  0  0  0  0  0  0  0  0  0  0
  -25.9720  -14.6990   20.4790 C   0  0  0  0  0  0  0  0  0  0  0  0
  -24.8990  -13.9090   20.7850 C   0  0  0  0  0  0  0  0  0  0  0  0
  -25.3740  -12.5620   20.7450 C   0  0  0  0  0  0  0  0  0  0  0  0
  -27.0290  -13.8330   20.2620 N   0  0  0  0  0  0  0  0  0  0  0  0
  -26.6790  -12.5410   20.4920 N   0  0  0  0  0  0  0  0  0  0  0  0
  -24.6500  -11.2920   20.8740 C   0  0  0  0  0  0  0  0  0  0  0  0
  -24.9920  -10.3400   21.8600 C   0  0  0  0  0  3  0  0  0  0  0  0
  -24.2630   -9.1370   21.9770 C   0  0  0  0  0  3  0  0  0  0  0  0
  -23.1800   -8.8760   21.1060 C   0  0  0  0  0  0  0  0  0  0  0  0
  -22.8590   -9.8150   20.1090 C   0  0  0  0  0  3  0  0  0  0  0  0
  -23.5890  -11.0090   19.9900 C   0  0  0  0  0  3  0  0  0  0  0  0
  -22.4330   -7.7220   21.1260 O   0  0  0  0  0  0  0  0  0  0  0  0
  -22.1680   -7.0580   22.2970 C   0  0  0  0  0  0  0  0  0  0  0  0
  -21.4960   -7.6830   23.3700 C   0  0  0  0  0  3  0  0  0  0  0  0
  -21.1810   -6.9430   24.5290 C   0  0  0  0  0  3  0  0  0  0  0  0
  -21.5280   -5.5820   24.6110 C   0  0  0  0  0  0  0  0  0  0  0  0
  -22.1930   -4.9570   23.5410 C   0  0  0  0  0  3  0  0  0  0  0  0
  -22.5080   -5.6930   22.3860 C   0  0  0  0  0  0  0  0  0  0  0  0
  -23.1300   -5.0800   21.3490 F   0  0  0  0  0  0  0  0  0  0  0  0
  -21.2200   -4.8710   25.7210 F   0  0  0  0  0  0  0  0  0  0  0  0
  -23.4890  -14.3720   21.0030 C   0  0  0  0  0  0  0  0  0  0  0  0
  -22.7340  -13.6650   21.8360 N   0  0  0  0  0  0  0  0  0  0  0  0
  -23.0630  -15.3960   20.4700 O   0  0  0  0  0  0  0  0  0  0  0  0
  -23.0910  -12.8340   22.2850 H   0  0  0  0  0  0  0  0  0  0  0  0
  -21.7870  -13.9610   22.0290 H   0  0  0  0  0  0  0  0  0  0  0  0
  -26.1320  -16.0750   20.3390 N   0  0  0  0  0  0  0  0  0  0  0  0
  -25.3500  -16.7160   20.4320 H   0  0  0  0  0  0  0  0  0  0  0  0
  -26.9850  -16.5310   20.0460 H   0  0  0  0  0  0  0  0  0  0  0  0
  -26.8590  -22.3480   20.1680 C   0  0  0  0  0  3  0  0  0  0  0  0
  -26.0710  -21.9120   18.8970 C   0  0  0  0  0  2  0  0  0  0  0  0
  -25.8660  -19.4290   19.1010 C   0  0  0  0  0  1  0  0  0  0  0  0
  -26.1790  -20.4560   16.9060 C   0  0  0  0  0  1  0  0  0  0  0  0
  -26.4450  -20.5720   18.3600 N   0  0  1  0  0  4  0  0  0  0  0  0
  -27.4480  -20.5130   18.4690 H   0  0  0  0  0  0  0  0  0  0  0  0
  -26.0880  -22.1690   21.4990 C   0  0  0  0  0  2  0  0  0  0  0  0
  -25.1350  -23.2000   21.6960 O   0  0  0  0  0  0  0  0  0  0  0  0
  -24.7940  -23.1110   22.5820 H   0  0  0  0  0  0  0  0  0  0  0  0
  2  3  2  0
  3 50  1  0
  3  1  1  0
  4  1  2  0
  5  2  1  0
  5  4  1  0
  7  6  1  0
  7  5  1  0
  7  8  1  0
  9 11  1  0
  9  8  1  0
 10 21  2  0
 11 16  1  0
 12 20  1  0
 12 22  1  0
 13 19  1  0
 13 15  1  0
 14 20  1  0
 15 14  1  0
 16 15  2  0
 17 18  1  0
 17 11  2  0
 18 13  2  0
 19 12  1  0
 20 10  1  0
 22 24  2  0
 23 22  1  0
 25 23  1  0
 26 35  2  0
 26 31  1  0
 27 23  1  0
 27 31  1  0
 28 27  1  0
 29 30  1  0
 29 28  1  0
 30 26  1  0
 31 32  2  0
 32 33  1  0
 34 33  2  0
 35 34  1  0
 36 10  1  0
 36 37  1  0
 36 46  1  0
 37 40  1  0
 38 42  1  0
 38 37  1  0
 39 38  2  0
 42 41  1  0
 44 42  1  0
 44 45  1  0
 44 43  1  0
 46 49  1  1
 46 47  1  0
 48 46  1  0
 50 59  1  0
 51 59  1  0
 52 57  1  0
 53 54  1  0
 53 52  1  0
 55 54  1  0
 55 64  1  0
 55 56  1  0
 57 51  1  0
 57 56  1  0
 58 51  2  0
 59 60  1  0
 61 62  2  0
 62 81  1  0
 63 62  1  0
 63 66  1  0
 64 61  1  0
 64 65  1  0
 65 63  2  0
 66 67  1  0
 67 68  2  0
 69 72  1  0
 69 68  1  0
 70 69  2  0
 71 70  1  0
 71 66  2  0
 72 73  1  0
 73 78  2  0
 73 74  1  0
 74 75  2  0
 75 76  1  0
 76 80  1  0
 77 76  2  0
 78 77  1  0
 79 78  1  0
 81 82  1  0
 82 85  1  0
 82 84  1  0
 83 81  2  0
 86 87  1  0
 86 61  1  0
 88 86  1  0
 89 90  1  0
 89  4  1  0
 89 95  1  0
 92 93  1  0
 93 94  1  6
 93 90  1  0
 93 91  1  0
 95 96  1  0
 96 97  1  0
M  ISO  4   8 101   9 101  51 100  59 100
M  END
>  <TORSDO>  (87) 
F 24

>  <SCORE>  (87) 
-8.932

>  <name>  (87) 
86

>  <ligand_id>  (87) 
86

>  <original_smiles>  (87) 
[H]OC([H])([H])C([H])(c1c([H])c(C([H])([H])N([H])C(=O)N2C([H])([H])C([H])([H])C([H])([H])C([H])(n3nc(-c4c([H])c([H])c(Oc5c([H])c([H])c(F)c([H])c5F)c([H])c4[H])c(C(=O)N([H])[H])c3N([H])[H])C2([H])[H])c([H])n1C([H])(C([H])([H])[H])C([H])([H])Oc1c([H])c([H])c2c(c1[H])C([H])([H])N(C(=O)C([H])(N([H])C(=O)C([H])(N([H])C([H])([H])[H])C([H])([H])[H])C(C([H])([H])[H])(C([H])([H])[H])C([H])([H])[H])C([H])(C(=O)N([H])C1([H])c3c([H])c([H])c([H])c([H])c3C([H])([H])C([H])([H])C1([H])[H])C2([H])[H])C([H])([H])[N+]([H])(C([H])([H])[H])C([H])([H])[H]

>  <smiles>  (87) 
[H]OC([H])([H])C([H])(c1c([H])c(C([H])([H])N([H])C(=O)N2C([H])([H])C([H])([H])C([H])([H])C([H])(n3nc(-c4c([H])c([H])c(Oc5c([H])c([H])c(F)c([H])c5F)c([H])c4[H])c(C(=O)N([H])[H])c3N([H])[H])C2([H])[H])c([H])n1C([H])(C([H])([H])[H])C([H])([H])Oc1c([H])c([H])c2c(c1[H])C([H])([H])N(C(=O)C([H])(N([H])C(=O)C([H])(N([H])C([H])([H])[H])C([H])([H])[H])C(C([H])([H])[H])(C([H])([H])[H])C([H])([H])[H])C([H])(C(=O)N([H])C1([H])c3c([H])c([H])c([H])c([H])c3C([H])([H])C([H])([H])C1([H])[H])C2([H])[H])C([H])([H])[N+]([H])(C([H])([H])[H])C([H])([H])[H]

$$$$
87:0:0
     RDKit          3D

 93101  0  0  1  0  0  0  0  0999 V2000
  -29.3490  -21.4880   19.9580 C   0  0  0  0  0  2  0  0  0  0  0  0
  -30.4520  -20.6820   23.4140 C   0  0  0  0  0  3  0  0  0  0  0  0
  -29.8210  -21.4750   22.4350 C   0  0  0  0  0  3  0  0  0  0  0  0
  -30.9210  -19.5620   22.8000 C   0  0  0  0  0  0  0  0  0  0  0  0
  -29.9190  -20.8460   21.2270 C   0  0  0  0  0  0  0  0  0  0  0  0
  -31.7210  -18.4930   23.4580 C   0  0  0  0  0  1  0  0  0  0  0  0
  -30.5530  -19.5710   21.4450 N   0  0  0  0  0  0  0  0  0  0  0  0
  -30.9220  -18.4450   20.5000 C   0  0  0  0  0  2  0  0  0  0  0  0
  -30.1120  -17.0660   20.6200 C   0  0  0  0  0  2  0  0  0  0  0  0
  -31.2870  -14.8040   20.1060 C   0  0  0  0  0  0  0  0  0  0  0  0
  -30.8900  -12.6200   18.9670 C   0  0  0  0  0  2  0  0  0  0  0  0
  -29.9290  -12.8010   17.7730 C   0  0  0  0  0  2  0  0  0  0  0  0
  -28.4600  -12.7220   18.2320 C   0  0  0  0  0  2  0  0  0  0  0  0
  -28.1780  -13.6030   19.4760 C   0  0  0  0  0  3  0  0  0  0  0  0
  -29.2410  -13.3740   20.5710 C   0  0  0  0  0  2  0  0  0  0  0  0
  -30.5660  -13.6420   19.9840 N   0  0  0  0  0  0  0  0  0  0  0  0
  -32.3370  -14.9790   19.4800 O   0  0  0  0  0  0  0  0  0  0  0  0
  -31.0770  -15.5130   22.3820 C   0  0  0  0  0  1  0  0  0  0  0  0
  -30.8120  -15.7620   20.9640 N   0  0  0  0  0  0  0  0  0  0  0  0
  -25.8400  -14.3410   20.2500 C   0  0  0  0  0  0  0  0  0  0  0  0
  -24.7360  -13.6310   20.6360 C   0  0  0  0  0  0  0  0  0  0  0  0
  -25.1130  -12.2540   20.5800 C   0  0  0  0  0  0  0  0  0  0  0  0
  -26.8230  -13.4000   19.9840 N   0  0  0  0  0  0  0  0  0  0  0  0
  -26.3910  -12.1400   20.2410 N   0  0  0  0  0  0  0  0  0  0  0  0
  -24.3150  -11.0360   20.7740 C   0  0  0  0  0  0  0  0  0  0  0  0
  -24.6920  -10.0460   21.7070 C   0  0  0  0  0  3  0  0  0  0  0  0
  -23.8970   -8.8930   21.8890 C   0  0  0  0  0  3  0  0  0  0  0  0
  -22.7110   -8.7230   21.1350 C   0  0  0  0  0  0  0  0  0  0  0  0
  -22.3530   -9.7000   20.1920 C   0  0  0  0  0  3  0  0  0  0  0  0
  -23.1470  -10.8450   20.0080 C   0  0  0  0  0  3  0  0  0  0  0  0
  -21.8920   -7.6240   21.2260 O   0  0  0  0  0  0  0  0  0  0  0  0
  -21.7730   -6.9090   22.3910 C   0  0  0  0  0  0  0  0  0  0  0  0
  -21.3770   -7.5170   23.6020 C   0  0  0  0  0  3  0  0  0  0  0  0
  -21.2000   -6.7320   24.7590 C   0  0  0  0  0  3  0  0  0  0  0  0
  -21.4080   -5.3410   24.7060 C   0  0  0  0  0  0  0  0  0  0  0  0
  -21.7960   -4.7330   23.4990 C   0  0  0  0  0  3  0  0  0  0  0  0
  -21.9750   -5.5140   22.3440 C   0  0  0  0  0  0  0  0  0  0  0  0
  -22.3290   -4.9200   21.1790 F   0  0  0  0  0  0  0  0  0  0  0  0
  -21.2310   -4.5850   25.8150 F   0  0  0  0  0  0  0  0  0  0  0  0
  -23.3780  -14.1900   20.9450 C   0  0  0  0  0  0  0  0  0  0  0  0
  -22.6380  -13.5440   21.8400 N   0  0  0  0  0  0  0  0  0  0  0  0
  -22.9820  -15.2340   20.4280 O   0  0  0  0  0  0  0  0  0  0  0  0
  -22.9700  -12.6980   22.2800 H   0  0  0  0  0  0  0  0  0  0  0  0
  -21.7260  -13.9010   22.0890 H   0  0  0  0  0  0  0  0  0  0  0  0
  -26.0860  -15.7010   20.0850 N   0  0  0  0  0  0  0  0  0  0  0  0
  -25.3680  -16.4020   20.2290 H   0  0  0  0  0  0  0  0  0  0  0  0
  -26.9610  -16.0890   19.7560 H   0  0  0  0  0  0  0  0  0  0  0  0
  -29.6720  -22.9960   17.9530 C   0  0  0  0  0  1  0  0  0  0  0  0
  -31.4190  -22.8960   19.7130 C   0  0  0  0  0  1  0  0  0  0  0  0
  -29.8910  -22.9170   19.4780 C   0  0  2  0  0  0  0  0  0  0  0  0
  -29.3540  -24.2860   20.1340 C   0  0  0  0  0  2  0  0  0  0  0  0
  -28.1540  -25.1450   19.5530 C   0  0  0  0  0  2  0  0  0  0  0  0
  -28.2450  -26.6050   19.7820 O   0  0  0  0  0  0  0  0  0  0  0  0
  -24.5410  -31.8360   23.0490 C   0  0  0  0  0  0  0  0  0  0  0  0
  -27.0950  -27.4080   19.7750 C   0  0  0  0  0  0  0  0  0  0  0  0
  -23.2920  -30.4650   21.4180 C   0  0  0  0  0  3  0  0  0  0  0  0
  -24.7060  -28.9730   19.8970 C   0  0  0  0  0  0  0  0  0  0  0  0
  -25.8160  -30.8250   21.1480 C   0  0  0  0  0  2  0  0  0  0  0  0
  -25.8870  -29.4660   20.4640 C   0  0  0  0  0  0  0  0  0  0  0  0
  -27.0810  -28.6920   20.3980 C   0  0  0  0  0  3  0  0  0  0  0  0
  -25.8930  -26.9720   19.1720 C   0  0  0  0  0  3  0  0  0  0  0  0
  -24.7090  -27.7320   19.2410 C   0  0  0  0  0  3  0  0  0  0  0  0
  -23.4600  -29.8270   20.0130 C   0  0  0  0  0  2  0  0  0  0  0  0
  -24.5700  -31.0580   21.9280 N   0  0  0  0  0  0  0  0  0  0  0  0
  -23.4760  -32.0870   23.6310 O   0  0  0  0  0  0  0  0  0  0  0  0
  -22.6790  -29.4160   22.3750 C   0  0  0  0  0  0  0  0  0  0  0  0
  -21.3570  -29.2010   22.2680 N   0  0  0  0  0  0  0  0  0  0  0  0
  -23.3900  -28.8000   23.1730 O   0  0  0  0  0  0  0  0  0  0  0  0
  -20.8420  -29.7520   21.5960 H   0  0  0  0  0  0  0  0  0  0  0  0
  -18.0360  -27.8550   22.7570 C   0  0  0  0  0  0  0  0  0  0  0  0
  -20.5780  -28.2290   23.0380 C   0  0  0  0  0  3  0  0  0  0  0  0
  -20.7470  -26.8020   22.4670 C   0  0  0  0  0  2  0  0  0  0  0  0
  -19.6660  -26.4280   21.4500 C   0  0  0  0  0  2  0  0  0  0  0  0
  -18.2750  -26.5120   22.0870 C   0  0  0  0  0  2  0  0  0  0  0  0
  -19.1170  -28.6680   23.1890 C   0  0  0  0  0  0  0  0  0  0  0  0
  -18.8390  -29.9230   23.7750 C   0  0  0  0  0  3  0  0  0  0  0  0
  -17.5130  -30.3650   23.9340 C   0  0  0  0  0  3  0  0  0  0  0  0
  -16.4450  -29.5500   23.5190 C   0  0  0  0  0  3  0  0  0  0  0  0
  -16.7080  -28.2970   22.9350 C   0  0  0  0  0  3  0  0  0  0  0  0
  -25.8400  -32.4660   23.6410 C   0  0  0  0  0  3  0  0  0  0  0  0
  -25.5210  -33.8410   24.0490 N   0  0  0  0  0  0  0  0  0  0  0  0
  -25.8140  -34.9350   23.3320 C   0  0  0  0  0  0  0  0  0  0  0  0
  -26.4520  -34.8930   22.2770 O   0  0  0  0  0  0  0  0  0  0  0  0
  -24.9500  -33.9470   24.8740 H   0  0  0  0  0  0  0  0  0  0  0  0
  -24.0440  -36.7090   23.1280 C   0  0  0  0  0  1  0  0  0  0  0  0
  -25.3210  -36.2910   23.8730 C   0  0  0  0  0  3  0  0  0  0  0  0
  -27.4740  -37.1690   24.6620 C   0  0  0  0  0  1  0  0  0  0  0  0
  -26.3320  -37.3670   23.7730 N   0  0  0  0  0  0  0  0  0  0  0  0
  -25.9180  -38.2700   23.9860 H   0  0  0  0  0  0  0  0  0  0  0  0
  -26.4300  -31.6490   24.8560 C   0  0  1  0  0  0  0  0  0  0  0  0
  -25.3930  -31.3460   25.9620 C   0  0  0  0  0  1  0  0  0  0  0  0
  -27.0140  -30.3010   24.3760 C   0  0  0  0  0  1  0  0  0  0  0  0
  -27.5990  -32.4340   25.4960 C   0  0  0  0  0  1  0  0  0  0  0  0
  1  5  1  0
  3  2  1  0
  4  2  2  0
  4  6  1  0
  5  7  1  0
  5  3  2  0
  7  4  1  0
  8  9  1  0
  8  7  1  0
  9 19  1  0
 10 19  1  0
 11 16  1  0
 12 13  1  0
 12 11  1  0
 14 13  1  0
 14 23  1  0
 14 15  1  0
 16 10  1  0
 16 15  1  0
 17 10  2  0
 19 18  1  0
 20 21  2  0
 21 40  1  0
 22 21  1  0
 22 25  1  0
 23 24  1  0
 23 20  1  0
 24 22  2  0
 25 26  1  0
 26 27  2  0
 28 31  1  0
 28 27  1  0
 29 28  2  0
 30 29  1  0
 30 25  2  0
 31 32  1  0
 32 33  1  0
 33 34  2  0
 35 34  1  0
 35 39  1  0
 36 35  2  0
 37 32  2  0
 37 36  1  0
 38 37  1  0
 40 41  1  0
 41 44  1  0
 41 43  1  0
 42 40  2  0
 45 46  1  0
 45 20  1  0
 47 45  1  0
 50 48  1  6
 50 49  1  0
 50  1  1  0
 50 51  1  0
 52 53  1  0
 52 51  1  0
 54 65  2  0
 55 53  1  0
 55 60  1  0
 56 64  1  0
 56 66  1  0
 57 63  1  0
 57 59  1  0
 58 64  1  0
 59 58  1  0
 60 59  2  0
 61 62  1  0
 61 55  2  0
 62 57  2  0
 63 56  1  0
 64 54  1  0
 66 68  2  0
 67 66  1  0
 69 67  1  0
 70 79  2  0
 70 75  1  0
 71 67  1  0
 71 75  1  0
 72 71  1  0
 73 74  1  0
 73 72  1  0
 74 70  1  0
 75 76  2  0
 76 77  1  0
 78 77  2  0
 79 78  1  0
 80 54  1  0
 80 81  1  0
 80 90  1  0
 81 84  1  0
 82 86  1  0
 82 81  1  0
 83 82  2  0
 86 85  1  0
 88 86  1  0
 88 89  1  0
 88 87  1  0
 90 93  1  1
 90 91  1  0
 92 90  1  0
M  ISO  4  10 100  19 100  52 101  53 101
M  END
>  <TORSDO>  (88) 
F 22

>  <SCORE>  (88) 
-11.089

>  <name>  (88) 
87

>  <ligand_id>  (88) 
87

>  <original_smiles>  (88) 
[H]c1c([H])c([H])c2c(c1[H])C([H])([H])C([H])([H])C([H])([H])C2([H])N([H])C(=O)C1([H])N(C(=O)C([H])(N([H])C(=O)C([H])(N([H])C([H])([H])[H])C([H])([H])[H])C(C([H])([H])[H])(C([H])([H])[H])C([H])([H])[H])C([H])([H])c2c([H])c(OC([H])([H])C([H])([H])C(C([H])([H])[H])(C([H])([H])[H])C([H])([H])c3c([H])c([H])c(C([H])([H])[H])n3C([H])([H])C([H])([H])N(C(=O)N3C([H])([H])C([H])([H])C([H])([H])C([H])(n4nc(-c5c([H])c([H])c(Oc6c([H])c([H])c(F)c([H])c6F)c([H])c5[H])c(C(=O)N([H])[H])c4N([H])[H])C3([H])[H])C([H])([H])[H])c([H])c([H])c2C1([H])[H]

>  <smiles>  (88) 
[H]c1c([H])c([H])c2c(c1[H])C([H])([H])C([H])([H])C([H])([H])C2([H])N([H])C(=O)C1([H])N(C(=O)C([H])(N([H])C(=O)C([H])(N([H])C([H])([H])[H])C([H])([H])[H])C(C([H])([H])[H])(C([H])([H])[H])C([H])([H])[H])C([H])([H])c2c([H])c(OC([H])([H])C([H])([H])C(C([H])([H])[H])(C([H])([H])[H])C([H])([H])c3c([H])c([H])c(C([H])([H])[H])n3C([H])([H])C([H])([H])N(C(=O)N3C([H])([H])C([H])([H])C([H])([H])C([H])(n4nc(-c5c([H])c([H])c(Oc6c([H])c([H])c(F)c([H])c6F)c([H])c5[H])c(C(=O)N([H])[H])c4N([H])[H])C3([H])[H])C([H])([H])[H])c([H])c([H])c2C1([H])[H]

$$$$
88:0:0
     RDKit          3D

 99107  0  0  1  0  0  0  0  0999 V2000
  -29.3420  -21.6060   20.6840 C   0  0  0  0  0  3  0  0  0  0  0  0
  -28.9440  -22.6570   18.5530 C   0  0  0  0  0  3  0  0  0  0  0  0
  -29.2200  -22.8040   19.9240 C   0  0  0  0  0  0  0  0  0  0  0  0
  -29.1550  -20.3320   20.0650 C   0  0  0  0  0  0  0  0  0  0  0  0
  -28.8200  -20.3310   18.6860 C   0  0  0  0  0  0  0  0  0  0  0  0
  -28.7140  -21.4700   17.9630 N   0  0  0  0  0  0  0  0  0  0  0  0
  -28.4270  -19.0670   17.9140 C   0  0  0  0  0  3  0  0  0  0  0  0
  -29.0820  -18.9960   16.7510 F   0  0  0  0  0  0  0  0  0  0  0  0
  -26.9140  -18.9860   17.6430 C   0  0  0  0  0  2  0  0  0  0  0  0
  -24.9740  -20.1980   16.6790 C   0  0  0  0  0  1  0  0  0  0  0  0
  -26.4420  -20.0980   16.7910 N   0  0  0  0  0  4  0  0  0  0  0  0
  -26.8180  -20.9620   17.1590 H   0  0  0  0  0  0  0  0  0  0  0  0
  -26.8410  -19.9790   15.8720 H   0  0  0  0  0  0  0  0  0  0  0  0
  -29.3900  -24.2260   20.5250 C   0  0  0  0  0  2  0  0  0  0  0  0
  -28.3110  -25.2630   20.0610 C   0  0  0  0  0  2  0  0  0  0  0  0
  -28.4700  -26.6660   20.4300 O   0  0  0  0  0  0  0  0  0  0  0  0
  -24.6360  -31.9920   23.3220 C   0  0  0  0  0  0  0  0  0  0  0  0
  -27.3280  -27.4660   20.3470 C   0  0  0  0  0  0  0  0  0  0  0  0
  -23.4630  -30.5620   21.6870 C   0  0  0  0  0  3  0  0  0  0  0  0
  -24.9430  -29.0200   20.2950 C   0  0  0  0  0  0  0  0  0  0  0  0
  -25.9970  -30.9150   21.5280 C   0  0  0  0  0  2  0  0  0  0  0  0
  -26.0960  -29.5350   20.8990 C   0  0  0  0  0  0  0  0  0  0  0  0
  -27.2930  -28.7660   20.9200 C   0  0  0  0  0  3  0  0  0  0  0  0
  -26.1510  -26.9990   19.7110 C   0  0  0  0  0  3  0  0  0  0  0  0
  -24.9680  -27.7550   19.6950 C   0  0  0  0  0  3  0  0  0  0  0  0
  -23.6960  -29.8770   20.3160 C   0  0  0  0  0  2  0  0  0  0  0  0
  -24.7160  -31.1730   22.2350 N   0  0  0  0  0  0  0  0  0  0  0  0
  -23.5450  -32.2680   23.8400 O   0  0  0  0  0  0  0  0  0  0  0  0
  -22.8010  -29.5480   22.6480 C   0  0  0  0  0  0  0  0  0  0  0  0
  -21.4800  -29.3530   22.4990 N   0  0  0  0  0  0  0  0  0  0  0  0
  -23.4740  -28.9400   23.4850 O   0  0  0  0  0  0  0  0  0  0  0  0
  -20.9980  -29.8980   21.7980 H   0  0  0  0  0  0  0  0  0  0  0  0
  -18.1050  -28.1430   22.9630 C   0  0  0  0  0  0  0  0  0  0  0  0
  -20.6570  -28.4200   23.2680 C   0  0  0  0  0  3  0  0  0  0  0  0
  -20.7760  -26.9830   22.7120 C   0  0  0  0  0  2  0  0  0  0  0  0
  -19.6910  -26.6400   21.6860 C   0  0  0  0  0  2  0  0  0  0  0  0
  -18.3000  -26.7860   22.3080 C   0  0  0  0  0  2  0  0  0  0  0  0
  -19.2130  -28.9170   23.3990 C   0  0  0  0  0  0  0  0  0  0  0  0
  -18.9780  -30.1870   23.9700 C   0  0  0  0  0  3  0  0  0  0  0  0
  -17.6690  -30.6840   24.1090 C   0  0  0  0  0  3  0  0  0  0  0  0
  -16.5750  -29.9070   23.6900 C   0  0  0  0  0  3  0  0  0  0  0  0
  -16.7940  -28.6380   23.1230 C   0  0  0  0  0  3  0  0  0  0  0  0
  -25.9080  -32.6390   23.9520 C   0  0  0  0  0  3  0  0  0  0  0  0
  -25.5880  -34.0410   24.2520 N   0  0  0  0  0  0  0  0  0  0  0  0
  -25.9250  -35.0810   23.4780 C   0  0  0  0  0  0  0  0  0  0  0  0
  -26.6110  -34.9620   22.4590 O   0  0  0  0  0  0  0  0  0  0  0  0
  -24.9810  -34.2070   25.0410 H   0  0  0  0  0  0  0  0  0  0  0  0
  -24.1870  -36.8540   23.0720 C   0  0  0  0  0  1  0  0  0  0  0  0
  -25.4240  -36.4740   23.9030 C   0  0  0  0  0  3  0  0  0  0  0  0
  -27.5430  -37.3930   24.7380 C   0  0  0  0  0  1  0  0  0  0  0  0
  -26.4500  -37.5330   23.7790 N   0  0  0  0  0  0  0  0  0  0  0  0
  -26.0340  -38.4520   23.9060 H   0  0  0  0  0  0  0  0  0  0  0  0
  -26.4110  -31.8910   25.2480 C   0  0  1  0  0  0  0  0  0  0  0  0
  -25.2970  -31.6440   26.2920 C   0  0  0  0  0  1  0  0  0  0  0  0
  -27.0290  -30.5200   24.8860 C   0  0  0  0  0  1  0  0  0  0  0  0
  -27.5320  -32.7130   25.9270 C   0  0  0  0  0  1  0  0  0  0  0  0
  -29.1740  -19.0140   20.8930 C   0  0  0  0  0  2  0  0  0  0  0  0
  -31.7110  -19.1920   20.8980 C   0  0  0  0  0  1  0  0  0  0  0  0
  -30.5740  -17.7040   22.5430 C   0  0  0  0  0  1  0  0  0  0  0  0
  -30.5260  -18.2190   21.0900 C   0  0  1  0  0  0  0  0  0  0  0  0
  -30.7570  -16.9980   20.1160 C   0  0  0  0  0  2  0  0  0  0  0  0
  -30.9310  -14.4970   20.1880 C   0  0  0  0  0  0  0  0  0  0  0  0
  -30.5600  -12.2660   19.2060 C   0  0  0  0  0  2  0  0  0  0  0  0
  -29.6120  -12.4060   17.9980 C   0  0  0  0  0  2  0  0  0  0  0  0
  -28.1450  -12.3060   18.4570 C   0  0  0  0  0  2  0  0  0  0  0  0
  -27.8320  -13.2260   19.6680 C   0  0  0  0  0  3  0  0  0  0  0  0
  -28.9040  -13.0970   20.7760 C   0  0  0  0  0  2  0  0  0  0  0  0
  -30.2170  -13.3340   20.1640 N   0  0  0  0  0  0  0  0  0  0  0  0
  -32.0790  -14.5550   19.7440 O   0  0  0  0  0  0  0  0  0  0  0  0
  -30.2650  -15.6410   20.4990 N   0  0  0  0  0  0  0  0  0  0  0  0
  -29.3200  -15.5530   20.8380 H   0  0  0  0  0  0  0  0  0  0  0  0
  -25.4790  -13.8960   20.4550 C   0  0  0  0  0  0  0  0  0  0  0  0
  -24.3960  -13.1550   20.8390 C   0  0  0  0  0  0  0  0  0  0  0  0
  -24.8110  -11.7890   20.7830 C   0  0  0  0  0  0  0  0  0  0  0  0
  -26.4860  -12.9850   20.1840 N   0  0  0  0  0  0  0  0  0  0  0  0
  -26.0910  -11.7120   20.4430 N   0  0  0  0  0  0  0  0  0  0  0  0
  -24.0480  -10.5500   20.9790 C   0  0  0  0  0  0  0  0  0  0  0  0
  -24.4520   -9.5730   21.9150 C   0  0  0  0  0  3  0  0  0  0  0  0
  -23.6910   -8.3980   22.0990 C   0  0  0  0  0  3  0  0  0  0  0  0
  -22.5100   -8.1930   21.3460 C   0  0  0  0  0  0  0  0  0  0  0  0
  -22.1250   -9.1570   20.3990 C   0  0  0  0  0  3  0  0  0  0  0  0
  -22.8860  -10.3230   20.2140 C   0  0  0  0  0  3  0  0  0  0  0  0
  -21.7220   -7.0700   21.4380 O   0  0  0  0  0  0  0  0  0  0  0  0
  -21.6290   -6.3490   22.6010 C   0  0  0  0  0  0  0  0  0  0  0  0
  -21.1890   -6.9350   23.8080 C   0  0  0  0  0  3  0  0  0  0  0  0
  -21.0440   -6.1420   24.9640 C   0  0  0  0  0  3  0  0  0  0  0  0
  -21.3270   -4.7640   24.9130 C   0  0  0  0  0  0  0  0  0  0  0  0
  -21.7580   -4.1770   23.7100 C   0  0  0  0  0  3  0  0  0  0  0  0
  -21.9070   -4.9690   22.5580 C   0  0  0  0  0  0  0  0  0  0  0  0
  -22.3050   -4.3940   21.3970 F   0  0  0  0  0  0  0  0  0  0  0  0
  -21.1800   -4.0000   26.0210 F   0  0  0  0  0  0  0  0  0  0  0  0
  -23.0230  -13.6750   21.1540 C   0  0  0  0  0  0  0  0  0  0  0  0
  -22.2980  -12.9980   22.0370 N   0  0  0  0  0  0  0  0  0  0  0  0
  -22.6040  -14.7170   20.6490 O   0  0  0  0  0  0  0  0  0  0  0  0
  -22.6500  -12.1540   22.4650 H   0  0  0  0  0  0  0  0  0  0  0  0
  -21.3790  -13.3300   22.2920 H   0  0  0  0  0  0  0  0  0  0  0  0
  -25.6890  -15.2630   20.2960 N   0  0  0  0  0  0  0  0  0  0  0  0
  -24.9670  -15.9450   20.4970 H   0  0  0  0  0  0  0  0  0  0  0  0
  -26.5780  -15.6750   20.0460 H   0  0  0  0  0  0  0  0  0  0  0  0
  2  3  1  0
  3 14  1  0
  3  1  2  0
  4  1  1  0
  4 57  1  0
  5  4  2  0
  6  2  2  0
  6  5  1  0
  7  8  1  0
  7  5  1  0
  9  7  1  0
 10 11  1  0
 11 12  1  0
 11  9  1  0
 13 11  1  0
 15 16  1  0
 15 14  1  0
 17 28  2  0
 18 16  1  0
 18 23  1  0
 19 27  1  0
 19 29  1  0
 20 26  1  0
 20 22  1  0
 21 27  1  0
 22 23  2  0
 22 21  1  0
 24 18  2  0
 25 24  1  0
 25 20  2  0
 26 19  1  0
 27 17  1  0
 29 31  2  0
 30 29  1  0
 32 30  1  0
 33 42  2  0
 33 38  1  0
 34 30  1  0
 34 38  1  0
 35 34  1  0
 36 37  1  0
 36 35  1  0
 37 33  1  0
 38 39  2  0
 39 40  1  0
 41 40  2  0
 42 41  1  0
 43 17  1  0
 43 44  1  0
 43 53  1  0
 44 47  1  0
 45 49  1  0
 45 44  1  0
 46 45  2  0
 49 48  1  0
 51 49  1  0
 51 52  1  0
 51 50  1  0
 53 56  1  1
 53 54  1  0
 55 53  1  0
 57 60  1  0
 60 58  1  1
 60 59  1  0
 61 70  1  0
 61 60  1  0
 62 70  1  0
 63 68  1  0
 64 65  1  0
 64 63  1  0
 66 65  1  0
 66 75  1  0
 66 67  1  0
 68 62  1  0
 68 67  1  0
 69 62  2  0
 70 71  1  0
 72 73  2  0
 73 92  1  0
 74 73  1  0
 74 77  1  0
 75 76  1  0
 75 72  1  0
 76 74  2  0
 77 78  1  0
 78 79  2  0
 80 83  1  0
 80 79  1  0
 81 80  2  0
 82 81  1  0
 82 77  2  0
 83 84  1  0
 84 85  1  0
 85 86  2  0
 87 86  1  0
 87 91  1  0
 88 87  2  0
 89 84  2  0
 89 88  1  0
 90 89  1  0
 92 93  1  0
 93 96  1  0
 93 95  1  0
 94 92  2  0
 97 72  1  0
 97 98  1  0
 99 97  1  0
M  ISO  4  15 101  16 101  62 100  70 100
M  END
>  <TORSDO>  (89) 
F 24

>  <SCORE>  (89) 
-11.571

>  <name>  (89) 
88

>  <ligand_id>  (89) 
88

>  <original_smiles>  (89) 
[H]c1nc(C([H])(F)C([H])([H])[N+]([H])([H])C([H])([H])[H])c(C([H])([H])C(C([H])([H])[H])(C([H])([H])[H])C([H])([H])N([H])C(=O)N2C([H])([H])C([H])([H])C([H])([H])C([H])(n3nc(-c4c([H])c([H])c(Oc5c([H])c([H])c(F)c([H])c5F)c([H])c4[H])c(C(=O)N([H])[H])c3N([H])[H])C2([H])[H])c([H])c1C([H])([H])C([H])([H])Oc1c([H])c([H])c2c(c1[H])C([H])([H])N(C(=O)C([H])(N([H])C(=O)C([H])(N([H])C([H])([H])[H])C([H])([H])[H])C(C([H])([H])[H])(C([H])([H])[H])C([H])([H])[H])C([H])(C(=O)N([H])C1([H])c3c([H])c([H])c([H])c([H])c3C([H])([H])C([H])([H])C1([H])[H])C2([H])[H]

>  <smiles>  (89) 
[H]c1nc(C([H])(F)C([H])([H])[N+]([H])([H])C([H])([H])[H])c(C([H])([H])C(C([H])([H])[H])(C([H])([H])[H])C([H])([H])N([H])C(=O)N2C([H])([H])C([H])([H])C([H])([H])C([H])(n3nc(-c4c([H])c([H])c(Oc5c([H])c([H])c(F)c([H])c5F)c([H])c4[H])c(C(=O)N([H])[H])c3N([H])[H])C2([H])[H])c([H])c1C([H])([H])C([H])([H])Oc1c([H])c([H])c2c(c1[H])C([H])([H])N(C(=O)C([H])(N([H])C(=O)C([H])(N([H])C([H])([H])[H])C([H])([H])[H])C(C([H])([H])[H])(C([H])([H])[H])C([H])([H])[H])C([H])(C(=O)N([H])C1([H])c3c([H])c([H])c([H])c([H])c3C([H])([H])C([H])([H])C1([H])[H])C2([H])[H]

$$$$
89:0:0
     RDKit          3D

 89 97  0  0  1  0  0  0  0  0999 V2000
  -29.9520  -22.2640   20.0880 C   0  0  0  0  0  3  0  0  0  0  0  0
  -27.7880  -21.5020   20.0190 C   0  0  0  0  0  3  0  0  0  0  0  0
  -28.5800  -22.7300   20.0430 C   0  0  0  0  0  0  0  0  0  0  0  0
  -29.6130  -19.6250   20.0590 C   0  0  0  0  0  0  0  0  0  0  0  0
  -30.4200  -20.8530   20.1010 C   0  0  0  0  0  0  0  0  0  0  0  0
  -28.2380  -20.0880   20.0170 C   0  0  0  0  0  0  0  0  0  0  0  0
  -32.1370  -20.6590   20.1310 Cl  0  0  0  0  0  0  0  0  0  0  0  0
  -27.0010  -18.8910   19.8940 Cl  0  0  0  0  0  0  0  0  0  0  0  0
  -30.2870  -18.0260   19.8800 C   0  0  0  0  0  2  0  0  0  0  0  0
  -30.6340  -15.1990   20.0160 C   0  0  0  0  0  0  0  0  0  0  0  0
  -30.4880  -12.8260   19.0020 C   0  0  0  0  0  2  0  0  0  0  0  0
  -29.4790  -12.7190   17.8320 C   0  0  0  0  0  2  0  0  0  0  0  0
  -28.0600  -12.4480   18.3610 C   0  0  0  0  0  2  0  0  0  0  0  0
  -27.7100  -13.3510   19.5720 C   0  0  0  0  0  3  0  0  0  0  0  0
  -28.8380  -13.3670   20.6240 C   0  0  0  0  0  2  0  0  0  0  0  0
  -30.0330  -13.9100   19.9480 N   0  0  0  0  0  0  0  0  0  0  0  0
  -31.7940  -15.2100   19.5770 O   0  0  0  0  0  0  0  0  0  0  0  0
  -29.1060  -16.4920   21.5130 C   0  0  0  0  0  1  0  0  0  0  0  0
  -29.9480  -16.4780   20.3190 N   0  0  0  0  0  0  0  0  0  0  0  0
  -25.3860  -13.9020   20.4740 C   0  0  0  0  0  0  0  0  0  0  0  0
  -24.3440  -13.1170   20.8810 C   0  0  0  0  0  0  0  0  0  0  0  0
  -24.7990  -11.7670   20.7770 C   0  0  0  0  0  0  0  0  0  0  0  0
  -26.4090  -13.0300   20.1430 N   0  0  0  0  0  0  0  0  0  0  0  0
  -26.0700  -11.7380   20.3890 N   0  0  0  0  0  0  0  0  0  0  0  0
  -24.0780  -10.5010   20.9680 C   0  0  0  0  0  0  0  0  0  0  0  0
  -24.5210   -9.5280   21.8910 C   0  0  0  0  0  3  0  0  0  0  0  0
  -23.7970   -8.3300   22.0720 C   0  0  0  0  0  3  0  0  0  0  0  0
  -22.6150   -8.0960   21.3300 C   0  0  0  0  0  0  0  0  0  0  0  0
  -22.1890   -9.0590   20.3980 C   0  0  0  0  0  3  0  0  0  0  0  0
  -22.9140  -10.2490   20.2140 C   0  0  0  0  0  3  0  0  0  0  0  0
  -21.8630   -6.9490   21.4200 O   0  0  0  0  0  0  0  0  0  0  0  0
  -21.7740   -6.2360   22.5880 C   0  0  0  0  0  0  0  0  0  0  0  0
  -21.3040   -6.8220   23.7840 C   0  0  0  0  0  3  0  0  0  0  0  0
  -21.1620   -6.0350   24.9450 C   0  0  0  0  0  3  0  0  0  0  0  0
  -21.4820   -4.6660   24.9120 C   0  0  0  0  0  0  0  0  0  0  0  0
  -21.9460   -4.0800   23.7210 C   0  0  0  0  0  3  0  0  0  0  0  0
  -22.0900   -4.8620   22.5620 C   0  0  0  0  0  0  0  0  0  0  0  0
  -22.5160   -4.2880   21.4120 F   0  0  0  0  0  0  0  0  0  0  0  0
  -21.3400   -3.9080   26.0240 F   0  0  0  0  0  0  0  0  0  0  0  0
  -22.9690  -13.5920   21.2520 C   0  0  0  0  0  0  0  0  0  0  0  0
  -22.2950  -12.8800   22.1500 N   0  0  0  0  0  0  0  0  0  0  0  0
  -22.5020  -14.6280   20.7830 O   0  0  0  0  0  0  0  0  0  0  0  0
  -22.6850  -12.0410   22.5510 H   0  0  0  0  0  0  0  0  0  0  0  0
  -21.3780  -13.1840   22.4420 H   0  0  0  0  0  0  0  0  0  0  0  0
  -25.5410  -15.2770   20.3300 N   0  0  0  0  0  0  0  0  0  0  0  0
  -24.7870  -15.9280   20.5180 H   0  0  0  0  0  0  0  0  0  0  0  0
  -26.3750  -15.7290   19.9780 H   0  0  0  0  0  0  0  0  0  0  0  0
  -27.8590  -24.2990   19.8410 C   0  0  0  0  0  2  0  0  0  0  0  0
  -28.2210  -25.8550   20.1380 O   0  0  0  0  0  0  0  0  0  0  0  0
  -24.6100  -31.7570   23.0980 C   0  0  0  0  0  0  0  0  0  0  0  0
  -27.2140  -26.9450   20.0650 C   0  0  0  0  0  0  0  0  0  0  0  0
  -23.4290  -30.3540   21.4570 C   0  0  0  0  0  3  0  0  0  0  0  0
  -24.8930  -28.7780   20.0310 C   0  0  0  0  0  0  0  0  0  0  0  0
  -25.9920  -30.6020   21.3080 C   0  0  0  0  0  2  0  0  0  0  0  0
  -26.0760  -29.1990   20.6490 C   0  0  0  0  0  0  0  0  0  0  0  0
  -27.2320  -28.3020   20.6470 C   0  0  0  0  0  3  0  0  0  0  0  0
  -25.9970  -26.6730   19.3960 C   0  0  0  0  0  3  0  0  0  0  0  0
  -24.8750  -27.5340   19.3850 C   0  0  0  0  0  3  0  0  0  0  0  0
  -23.6630  -29.6800   20.0780 C   0  0  0  0  0  2  0  0  0  0  0  0
  -24.6980  -30.9300   22.0070 N   0  0  0  0  0  0  0  0  0  0  0  0
  -23.5180  -32.0320   23.6210 O   0  0  0  0  0  0  0  0  0  0  0  0
  -22.7500  -29.3450   22.4210 C   0  0  0  0  0  0  0  0  0  0  0  0
  -21.4200  -29.1730   22.3060 N   0  0  0  0  0  0  0  0  0  0  0  0
  -23.4280  -28.7180   23.2400 O   0  0  0  0  0  0  0  0  0  0  0  0
  -20.9260  -29.7290   21.6220 H   0  0  0  0  0  0  0  0  0  0  0  0
  -18.0460  -27.9630   22.8540 C   0  0  0  0  0  0  0  0  0  0  0  0
  -20.6100  -28.2260   23.0790 C   0  0  0  0  0  3  0  0  0  0  0  0
  -20.7010  -26.8010   22.4860 C   0  0  0  0  0  2  0  0  0  0  0  0
  -19.5830  -26.4910   21.4860 C   0  0  0  0  0  2  0  0  0  0  0  0
  -18.2130  -26.6250   22.1540 C   0  0  0  0  0  2  0  0  0  0  0  0
  -19.1710  -28.7220   23.2750 C   0  0  0  0  0  0  0  0  0  0  0  0
  -18.9580  -29.9750   23.8910 C   0  0  0  0  0  3  0  0  0  0  0  0
  -17.6550  -30.4680   24.0900 C   0  0  0  0  0  3  0  0  0  0  0  0
  -16.5450  -29.7070   23.6850 C   0  0  0  0  0  3  0  0  0  0  0  0
  -16.7420  -28.4550   23.0720 C   0  0  0  0  0  3  0  0  0  0  0  0
  -25.8760  -32.4130   23.7280 C   0  0  0  0  0  3  0  0  0  0  0  0
  -25.5400  -33.8040   24.0790 N   0  0  0  0  0  0  0  0  0  0  0  0
  -25.8370  -34.8760   23.3340 C   0  0  0  0  0  0  0  0  0  0  0  0
  -26.4880  -34.8010   22.2890 O   0  0  0  0  0  0  0  0  0  0  0  0
  -24.9640  -33.9350   24.8980 H   0  0  0  0  0  0  0  0  0  0  0  0
  -24.0620  -36.6400   23.0580 C   0  0  0  0  0  1  0  0  0  0  0  0
  -25.3360  -36.2500   23.8250 C   0  0  0  0  0  3  0  0  0  0  0  0
  -27.4740  -37.1760   24.6050 C   0  0  0  0  0  1  0  0  0  0  0  0
  -26.3420  -37.3270   23.6950 N   0  0  0  0  0  0  0  0  0  0  0  0
  -25.9180  -38.2360   23.8630 H   0  0  0  0  0  0  0  0  0  0  0  0
  -26.4010  -31.6440   25.0030 C   0  0  1  0  0  0  0  0  0  0  0  0
  -25.3100  -31.3870   26.0680 C   0  0  0  0  0  1  0  0  0  0  0  0
  -27.0070  -30.2770   24.6140 C   0  0  0  0  0  1  0  0  0  0  0  0
  -27.5420  -32.4510   25.6680 C   0  0  0  0  0  1  0  0  0  0  0  0
  1  5  1  0
  2  3  1  0
  3  1  2  0
  4  5  2  0
  5  7  1  0
  6  2  2  0
  6  4  1  0
  8  6  1  0
  9  4  1  0
  9 19  1  0
 10 19  1  0
 11 16  1  0
 12 13  1  0
 12 11  1  0
 14 13  1  0
 14 23  1  0
 14 15  1  0
 16 10  1  0
 16 15  1  0
 17 10  2  0
 19 18  1  0
 20 21  2  0
 21 40  1  0
 22 21  1  0
 22 25  1  0
 23 24  1  0
 23 20  1  0
 24 22  2  0
 25 26  1  0
 26 27  2  0
 28 31  1  0
 28 27  1  0
 29 28  2  0
 30 29  1  0
 30 25  2  0
 31 32  1  0
 32 33  1  0
 33 34  2  0
 35 34  1  0
 35 39  1  0
 36 35  2  0
 37 32  2  0
 37 36  1  0
 38 37  1  0
 40 41  1  0
 41 44  1  0
 41 43  1  0
 42 40  2  0
 45 20  1  0
 45 46  1  0
 47 45  1  0
 48  3  1  0
 48 49  1  0
 50 61  2  0
 51 49  1  0
 51 56  1  0
 52 60  1  0
 52 62  1  0
 53 59  1  0
 53 55  1  0
 54 60  1  0
 55 54  1  0
 56 55  2  0
 57 51  2  0
 58 57  1  0
 58 53  2  0
 59 52  1  0
 60 50  1  0
 62 64  2  0
 63 62  1  0
 65 63  1  0
 66 75  2  0
 66 71  1  0
 67 63  1  0
 67 71  1  0
 68 67  1  0
 69 70  1  0
 69 68  1  0
 70 66  1  0
 71 72  2  0
 72 73  1  0
 74 73  2  0
 75 74  1  0
 76 50  1  0
 76 77  1  0
 76 86  1  0
 77 80  1  0
 78 82  1  0
 78 77  1  0
 79 78  2  0
 82 81  1  0
 84 82  1  0
 84 85  1  0
 84 83  1  0
 86 89  1  1
 86 87  1  0
 88 86  1  0
M  ISO  4  10 100  19 100  48 101  49 101
M  END
>  <TORSDO>  (90) 
F 18

>  <SCORE>  (90) 
-15.247

>  <name>  (90) 
89

>  <ligand_id>  (90) 
89

>  <original_smiles>  (90) 
[H]c1c([H])c([H])c2c(c1[H])C([H])([H])C([H])([H])C([H])([H])C2([H])N([H])C(=O)C1([H])N(C(=O)C([H])(N([H])C(=O)C([H])(N([H])C([H])([H])[H])C([H])([H])[H])C(C([H])([H])[H])(C([H])([H])[H])C([H])([H])[H])C([H])([H])c2c([H])c(OC([H])([H])c3c([H])c(Cl)c(C([H])([H])N(C(=O)N4C([H])([H])C([H])([H])C([H])([H])C([H])(n5nc(-c6c([H])c([H])c(Oc7c([H])c([H])c(F)c([H])c7F)c([H])c6[H])c(C(=O)N([H])[H])c5N([H])[H])C4([H])[H])C([H])([H])[H])c(Cl)c3[H])c([H])c([H])c2C1([H])[H]

>  <smiles>  (90) 
[H]c1c([H])c([H])c2c(c1[H])C([H])([H])C([H])([H])C([H])([H])C2([H])N([H])C(=O)C1([H])N(C(=O)C([H])(N([H])C(=O)C([H])(N([H])C([H])([H])[H])C([H])([H])[H])C(C([H])([H])[H])(C([H])([H])[H])C([H])([H])[H])C([H])([H])c2c([H])c(OC([H])([H])c3c([H])c(Cl)c(C([H])([H])N(C(=O)N4C([H])([H])C([H])([H])C([H])([H])C([H])(n5nc(-c6c([H])c([H])c(Oc7c([H])c([H])c(F)c([H])c7F)c([H])c6[H])c(C(=O)N([H])[H])c5N([H])[H])C4([H])[H])C([H])([H])[H])c(Cl)c3[H])c([H])c([H])c2C1([H])[H]

$$$$
90:0:0
     RDKit          3D

 84 91  0  0  1  0  0  0  0  0999 V2000
  -27.9890  -23.9360   20.2020 C   0  0  0  0  0  2  0  0  0  0  0  0
  -29.8470  -22.5030   21.5740 C   0  0  0  0  0  1  0  0  0  0  0  0
  -29.0130  -22.3130   20.3020 C   0  0  0  0  0  3  0  0  0  0  0  0
  -28.7670  -20.4090   20.2300 C   0  0  0  0  0  3  0  0  0  0  0  0
  -29.8010  -18.7890   20.2140 C   0  0  0  0  0  3  0  0  0  0  0  0
  -30.2760  -15.6810   20.1230 C   0  0  0  0  0  0  0  0  0  0  0  0
  -30.3440  -13.1650   19.2400 C   0  0  0  0  0  2  0  0  0  0  0  0
  -29.4090  -12.7920   18.0550 C   0  0  0  0  0  2  0  0  0  0  0  0
  -27.9970  -12.4330   18.5480 C   0  0  0  0  0  2  0  0  0  0  0  0
  -27.5260  -13.4010   19.6560 C   0  0  0  0  0  3  0  0  0  0  0  0
  -28.6040  -13.6630   20.7350 C   0  0  0  0  0  2  0  0  0  0  0  0
  -29.7440  -14.3190   20.0460 N   0  0  0  0  0  0  0  0  0  0  0  0
  -31.5050  -15.6200   19.9270 O   0  0  0  0  0  0  0  0  0  0  0  0
  -28.0730  -16.9360   20.3140 C   0  0  0  0  0  1  0  0  0  0  0  0
  -29.5220  -17.0500   20.2170 N   0  0  0  0  0  0  0  0  0  0  0  0
  -25.1820  -13.9120   20.5040 C   0  0  0  0  0  0  0  0  0  0  0  0
  -24.1390  -13.1200   20.8860 C   0  0  0  0  0  0  0  0  0  0  0  0
  -24.6160  -11.7760   20.8090 C   0  0  0  0  0  0  0  0  0  0  0  0
  -26.2260  -13.0540   20.2100 N   0  0  0  0  0  0  0  0  0  0  0  0
  -25.9000  -11.7590   20.4590 N   0  0  0  0  0  0  0  0  0  0  0  0
  -23.9020  -10.5070   20.9890 C   0  0  0  0  0  0  0  0  0  0  0  0
  -24.3390   -9.5360   21.9170 C   0  0  0  0  0  3  0  0  0  0  0  0
  -23.6180   -8.3360   22.0880 C   0  0  0  0  0  3  0  0  0  0  0  0
  -22.4460   -8.0970   21.3320 C   0  0  0  0  0  0  0  0  0  0  0  0
  -22.0290   -9.0560   20.3930 C   0  0  0  0  0  3  0  0  0  0  0  0
  -22.7500  -10.2490   20.2200 C   0  0  0  0  0  3  0  0  0  0  0  0
  -21.6970   -6.9480   21.4130 O   0  0  0  0  0  0  0  0  0  0  0  0
  -21.6140   -6.2230   22.5760 C   0  0  0  0  0  0  0  0  0  0  0  0
  -21.1110   -6.7860   23.7690 C   0  0  0  0  0  3  0  0  0  0  0  0
  -20.9780   -5.9860   24.9220 C   0  0  0  0  0  3  0  0  0  0  0  0
  -21.3390   -4.6260   24.8820 C   0  0  0  0  0  0  0  0  0  0  0  0
  -21.8350   -4.0640   23.6930 C   0  0  0  0  0  3  0  0  0  0  0  0
  -21.9700   -4.8600   22.5430 C   0  0  0  0  0  0  0  0  0  0  0  0
  -22.4290   -4.3080   21.3940 F   0  0  0  0  0  0  0  0  0  0  0  0
  -21.2040   -3.8560   25.9870 F   0  0  0  0  0  0  0  0  0  0  0  0
  -22.7490  -13.5850   21.2050 C   0  0  0  0  0  0  0  0  0  0  0  0
  -22.0520  -12.8740   22.0830 N   0  0  0  0  0  0  0  0  0  0  0  0
  -22.2920  -14.6160   20.7120 O   0  0  0  0  0  0  0  0  0  0  0  0
  -22.4380  -12.0410   22.5030 H   0  0  0  0  0  0  0  0  0  0  0  0
  -21.1210  -13.1680   22.3420 H   0  0  0  0  0  0  0  0  0  0  0  0
  -25.3130  -15.2870   20.3500 N   0  0  0  0  0  0  0  0  0  0  0  0
  -24.5350  -15.9190   20.5070 H   0  0  0  0  0  0  0  0  0  0  0  0
  -26.1460  -15.7570   20.0220 H   0  0  0  0  0  0  0  0  0  0  0  0
  -28.1770  -25.6660   20.3010 O   0  0  0  0  0  0  0  0  0  0  0  0
  -24.6940  -31.9040   23.2460 C   0  0  0  0  0  0  0  0  0  0  0  0
  -27.1920  -26.8510   20.2520 C   0  0  0  0  0  0  0  0  0  0  0  0
  -23.4910  -30.5140   21.6120 C   0  0  0  0  0  3  0  0  0  0  0  0
  -24.9250  -28.8630   20.1970 C   0  0  0  0  0  0  0  0  0  0  0  0
  -26.0680  -30.6550   21.4780 C   0  0  0  0  0  2  0  0  0  0  0  0
  -26.1240  -29.2250   20.8240 C   0  0  0  0  0  0  0  0  0  0  0  0
  -27.2440  -28.2480   20.8170 C   0  0  0  0  0  3  0  0  0  0  0  0
  -25.9580  -26.6830   19.5750 C   0  0  0  0  0  3  0  0  0  0  0  0
  -24.8780  -27.6150   19.5500 C   0  0  0  0  0  3  0  0  0  0  0  0
  -23.7200  -29.8140   20.2430 C   0  0  0  0  0  2  0  0  0  0  0  0
  -24.7750  -31.0560   22.1650 N   0  0  0  0  0  0  0  0  0  0  0  0
  -23.6060  -32.2100   23.7610 O   0  0  0  0  0  0  0  0  0  0  0  0
  -22.7740  -29.5390   22.5860 C   0  0  0  0  0  0  0  0  0  0  0  0
  -21.4420  -29.3880   22.4620 N   0  0  0  0  0  0  0  0  0  0  0  0
  -23.4290  -28.9160   23.4260 O   0  0  0  0  0  0  0  0  0  0  0  0
  -20.9640  -29.9400   21.7630 H   0  0  0  0  0  0  0  0  0  0  0  0
  -18.0520  -28.1880   22.9740 C   0  0  0  0  0  0  0  0  0  0  0  0
  -20.6120  -28.4580   23.2370 C   0  0  0  0  0  3  0  0  0  0  0  0
  -20.7130  -27.0200   22.6740 C   0  0  0  0  0  2  0  0  0  0  0  0
  -19.6140  -26.6920   21.6580 C   0  0  0  0  0  2  0  0  0  0  0  0
  -18.2300  -26.8370   22.3000 C   0  0  0  0  0  2  0  0  0  0  0  0
  -19.1690  -28.9550   23.3980 C   0  0  0  0  0  0  0  0  0  0  0  0
  -18.9440  -30.2150   23.9940 C   0  0  0  0  0  3  0  0  0  0  0  0
  -17.6370  -30.7100   24.1640 C   0  0  0  0  0  3  0  0  0  0  0  0
  -16.5350  -29.9410   23.7500 C   0  0  0  0  0  3  0  0  0  0  0  0
  -16.7440  -28.6810   23.1620 C   0  0  0  0  0  3  0  0  0  0  0  0
  -25.9660  -32.5450   23.8820 C   0  0  0  0  0  3  0  0  0  0  0  0
  -26.4610  -31.7830   25.1740 C   0  0  1  0  0  0  0  0  0  0  0  0
  -25.3560  -31.5690   26.2350 C   0  0  0  0  0  1  0  0  0  0  0  0
  -27.0350  -30.3940   24.8150 C   0  0  0  0  0  1  0  0  0  0  0  0
  -27.6130  -32.5740   25.8390 C   0  0  0  0  0  1  0  0  0  0  0  0
  -25.6540  -33.9480   24.2170 N   0  0  0  0  0  0  0  0  0  0  0  0
  -25.9610  -35.0080   23.4570 C   0  0  0  0  0  0  0  0  0  0  0  0
  -26.5930  -34.9090   22.4030 O   0  0  0  0  0  0  0  0  0  0  0  0
  -25.0860  -34.0980   25.0370 H   0  0  0  0  0  0  0  0  0  0  0  0
  -24.2080  -36.8030   23.2060 C   0  0  0  0  0  1  0  0  0  0  0  0
  -25.4970  -36.4000   23.9410 C   0  0  0  0  0  3  0  0  0  0  0  0
  -27.6690  -37.3070   24.6460 C   0  0  0  0  0  1  0  0  0  0  0  0
  -26.5160  -37.4580   23.7630 N   0  0  0  0  0  0  0  0  0  0  0  0
  -26.1130  -38.3770   23.9230 H   0  0  0  0  0  0  0  0  0  0  0  0
  1 44  1  0
  1  3  1  0
  3  2  1  0
  4  3  1  0
  5 15  1  0
  5  4  2  0
  6 15  1  0
  7 12  1  0
  8  9  1  0
  8  7  1  0
 10  9  1  0
 10 19  1  0
 10 11  1  0
 12  6  1  0
 12 11  1  0
 13  6  2  0
 15 14  1  0
 16 17  2  0
 17 36  1  0
 18 17  1  0
 18 21  1  0
 19 20  1  0
 19 16  1  0
 20 18  2  0
 21 22  1  0
 22 23  2  0
 24 27  1  0
 24 23  1  0
 25 24  2  0
 26 25  1  0
 26 21  2  0
 27 28  1  0
 28 29  1  0
 29 30  2  0
 31 30  1  0
 31 35  1  0
 32 31  2  0
 33 28  2  0
 33 32  1  0
 34 33  1  0
 36 37  1  0
 37 40  1  0
 37 39  1  0
 38 36  2  0
 41 16  1  0
 41 42  1  0
 43 41  1  0
 45 56  2  0
 46 44  1  0
 46 51  1  0
 47 55  1  0
 47 57  1  0
 48 54  1  0
 48 50  1  0
 49 55  1  0
 50 49  1  0
 51 50  2  0
 52 46  2  0
 53 52  1  0
 53 48  2  0
 54 47  1  0
 55 45  1  0
 57 59  2  0
 58 57  1  0
 60 58  1  0
 61 70  2  0
 61 66  1  0
 62 58  1  0
 62 66  1  0
 63 62  1  0
 64 65  1  0
 64 63  1  0
 65 61  1  0
 66 67  2  0
 67 68  1  0
 69 68  2  0
 70 69  1  0
 71 45  1  0
 71 76  1  0
 71 72  1  0
 72 75  1  1
 72 73  1  0
 74 72  1  0
 76 79  1  0
 77 81  1  0
 77 76  1  0
 78 77  2  0
 81 80  1  0
 83 84  1  0
 83 81  1  0
 83 82  1  0
M  ISO  4   1 101   6 100  15 100  44 101
M  END
>  <TORSDO>  (91) 
F 19

>  <SCORE>  (91) 
-16.472

>  <name>  (91) 
90

>  <ligand_id>  (91) 
90

>  <original_smiles>  (91) 
[H]c1c([H])c([H])c2c(c1[H])C([H])([H])C([H])([H])C([H])([H])C2([H])N([H])C(=O)C1([H])N(C(=O)C([H])(N([H])C(=O)C([H])(N([H])C([H])([H])[H])C([H])([H])[H])C(C([H])([H])[H])(C([H])([H])[H])C([H])([H])[H])C([H])([H])c2c([H])c(OC([H])([H])C([H])(C([H])([H])[H])C([H])([H])C([H])([H])N(C(=O)N3C([H])([H])C([H])([H])C([H])([H])C([H])(n4nc(-c5c([H])c([H])c(Oc6c([H])c([H])c(F)c([H])c6F)c([H])c5[H])c(C(=O)N([H])[H])c4N([H])[H])C3([H])[H])C([H])([H])[H])c([H])c([H])c2C1([H])[H]

>  <smiles>  (91) 
[H]c1c([H])c([H])c2c(c1[H])C([H])([H])C([H])([H])C([H])([H])C2([H])N([H])C(=O)C1([H])N(C(=O)C([H])(N([H])C(=O)C([H])(N([H])C([H])([H])[H])C([H])([H])[H])C(C([H])([H])[H])(C([H])([H])[H])C([H])([H])[H])C([H])([H])c2c([H])c(OC([H])([H])C([H])(C([H])([H])[H])C([H])([H])C([H])([H])N(C(=O)N3C([H])([H])C([H])([H])C([H])([H])C([H])(n4nc(-c5c([H])c([H])c(Oc6c([H])c([H])c(F)c([H])c6F)c([H])c5[H])c(C(=O)N([H])[H])c4N([H])[H])C3([H])[H])C([H])([H])[H])c([H])c([H])c2C1([H])[H]

$$$$
92:0:0
     RDKit          3D

 96104  0  0  1  0  0  0  0  0999 V2000
  -28.4850  -20.5740   19.7050 C   0  0  0  0  0  2  0  0  0  0  0  0
  -29.3560  -18.5770   18.5250 C   0  0  0  0  0  3  0  0  0  0  0  0
  -30.5030  -17.8490   18.4460 C   0  0  0  0  0  0  0  0  0  0  0  0
  -31.4640  -18.4600   19.3100 C   0  0  0  0  0  0  0  0  0  0  0  0
  -30.8640  -19.5800   19.8540 C   0  0  0  0  0  0  0  0  0  0  0  0
  -31.4070  -20.6390   20.7690 C   0  0  0  0  0  1  0  0  0  0  0  0
  -29.5520  -19.6290   19.3870 N   0  0  0  0  0  0  0  0  0  0  0  0
  -33.3230  -17.7280   20.9460 C   0  0  0  0  0  1  0  0  0  0  0  0
  -33.8670  -18.8090   18.7010 C   0  0  0  0  0  1  0  0  0  0  0  0
  -32.8850  -17.9360   19.4870 C   0  0  0  0  0  3  0  0  0  0  0  0
  -30.6940  -16.6260   17.5900 C   0  0  0  0  0  2  0  0  0  0  0  0
  -31.3030  -14.3650   18.3960 C   0  0  0  0  0  0  0  0  0  0  0  0
  -31.4210  -11.9840   19.0070 C   0  0  0  0  0  2  0  0  0  0  0  0
  -30.4730  -11.1720   18.1010 C   0  0  0  0  0  2  0  0  0  0  0  0
  -29.0370  -11.1610   18.6630 C   0  0  0  0  0  2  0  0  0  0  0  0
  -28.5290  -12.5720   19.0530 C   0  0  0  0  0  3  0  0  0  0  0  0
  -29.5860  -13.3030   19.9060 C   0  0  0  0  0  2  0  0  0  0  0  0
  -30.8510  -13.3300   19.1480 N   0  0  0  0  0  0  0  0  0  0  0  0
  -32.3480  -14.3360   17.7400 O   0  0  0  0  0  0  0  0  0  0  0  0
  -30.4770  -15.4090   18.3520 N   0  0  0  0  0  0  0  0  0  0  0  0
  -29.5950  -15.3070   18.8260 H   0  0  0  0  0  0  0  0  0  0  0  0
  -26.4210  -13.5360   20.1780 C   0  0  0  0  0  0  0  0  0  0  0  0
  -25.2980  -12.9320   20.6880 C   0  0  0  0  0  0  0  0  0  0  0  0
  -25.4970  -11.5300   20.5230 C   0  0  0  0  0  0  0  0  0  0  0  0
  -27.2370  -12.5050   19.7370 N   0  0  0  0  0  0  0  0  0  0  0  0
  -26.6910  -11.2900   19.9950 N   0  0  0  0  0  0  0  0  0  0  0  0
  -24.5950  -10.4010   20.7810 C   0  0  0  0  0  0  0  0  0  0  0  0
  -24.8980   -9.4270   21.7560 C   0  0  0  0  0  3  0  0  0  0  0  0
  -24.0110   -8.3570   21.9980 C   0  0  0  0  0  3  0  0  0  0  0  0
  -22.8050   -8.2570   21.2650 C   0  0  0  0  0  0  0  0  0  0  0  0
  -22.5190   -9.2190   20.2780 C   0  0  0  0  0  3  0  0  0  0  0  0
  -23.4060  -10.2800   20.0360 C   0  0  0  0  0  3  0  0  0  0  0  0
  -21.8940   -7.2400   21.4160 O   0  0  0  0  0  0  0  0  0  0  0  0
  -21.6290   -6.6840   22.6430 C   0  0  0  0  0  0  0  0  0  0  0  0
  -21.1160   -7.4500   23.7120 C   0  0  0  0  0  3  0  0  0  0  0  0
  -20.7900   -6.8270   24.9350 C   0  0  0  0  0  3  0  0  0  0  0  0
  -20.9680   -5.4380   25.0850 C   0  0  0  0  0  0  0  0  0  0  0  0
  -21.4700   -4.6720   24.0180 C   0  0  0  0  0  3  0  0  0  0  0  0
  -21.7960   -5.2930   22.8010 C   0  0  0  0  0  0  0  0  0  0  0  0
  -22.2620   -4.5480   21.7690 F   0  0  0  0  0  0  0  0  0  0  0  0
  -20.6500   -4.8350   26.2550 F   0  0  0  0  0  0  0  0  0  0  0  0
  -24.0710  -13.6230   21.2140 C   0  0  0  0  0  0  0  0  0  0  0  0
  -23.4060  -13.0330   22.2010 N   0  0  0  0  0  0  0  0  0  0  0  0
  -23.7200  -14.7180   20.7800 O   0  0  0  0  0  0  0  0  0  0  0  0
  -23.7020  -12.1450   22.5780 H   0  0  0  0  0  0  0  0  0  0  0  0
  -22.5840  -13.4760   22.5890 H   0  0  0  0  0  0  0  0  0  0  0  0
  -26.8080  -14.8650   20.0410 N   0  0  0  0  0  0  0  0  0  0  0  0
  -26.2200  -15.6380   20.3250 H   0  0  0  0  0  0  0  0  0  0  0  0
  -27.7040  -15.1700   19.6780 H   0  0  0  0  0  0  0  0  0  0  0  0
  -28.8000  -22.0130   19.2210 C   0  0  0  0  0  2  0  0  0  0  0  0
  -27.5970  -22.9970   19.3310 C   0  0  0  0  0  3  0  0  0  0  0  0
  -25.1030  -22.4800   19.0600 C   0  0  0  0  0  1  0  0  0  0  0  0
  -26.4620  -22.6040   18.3520 C   0  0  0  0  0  2  0  0  0  0  0  0
  -28.0300  -24.5000   19.2790 C   0  0  0  0  0  2  0  0  0  0  0  0
  -27.2830  -25.4670   18.3140 C   0  0  0  0  0  2  0  0  0  0  0  0
  -27.4130  -26.8490   18.6840 O   0  0  0  0  0  0  0  0  0  0  0  0
  -24.6810  -31.7700   23.0470 C   0  0  0  0  0  0  0  0  0  0  0  0
  -26.2980  -27.6060   18.9980 C   0  0  0  0  0  0  0  0  0  0  0  0
  -23.0740  -30.6870   21.5120 C   0  0  0  0  0  3  0  0  0  0  0  0
  -24.0940  -29.2640   19.6630 C   0  0  0  0  0  0  0  0  0  0  0  0
  -25.5440  -30.8950   20.8760 C   0  0  0  0  0  2  0  0  0  0  0  0
  -25.3820  -29.6210   20.0710 C   0  0  0  0  0  0  0  0  0  0  0  0
  -26.4840  -28.8010   19.7350 C   0  0  0  0  0  3  0  0  0  0  0  0
  -24.9800  -27.2570   18.6180 C   0  0  0  0  0  3  0  0  0  0  0  0
  -23.8880  -28.0830   18.9350 C   0  0  0  0  0  3  0  0  0  0  0  0
  -22.9650  -30.1930   20.0450 C   0  0  0  0  0  2  0  0  0  0  0  0
  -24.4620  -31.1220   21.8670 N   0  0  0  0  0  0  0  0  0  0  0  0
  -23.7470  -32.0390   23.8130 O   0  0  0  0  0  0  0  0  0  0  0  0
  -22.5200  -29.5880   22.4480 C   0  0  0  0  0  0  0  0  0  0  0  0
  -21.1960  -29.3720   22.3910 N   0  0  0  0  0  0  0  0  0  0  0  0
  -23.2740  -28.9400   23.1790 O   0  0  0  0  0  0  0  0  0  0  0  0
  -20.6490  -29.9540   21.7700 H   0  0  0  0  0  0  0  0  0  0  0  0
  -17.9370  -27.8680   22.8420 C   0  0  0  0  0  0  0  0  0  0  0  0
  -20.4560  -28.3630   23.1490 C   0  0  0  0  0  3  0  0  0  0  0  0
  -20.6980  -26.9490   22.5740 C   0  0  0  0  0  2  0  0  0  0  0  0
  -19.6400  -26.5260   21.5510 C   0  0  0  0  0  2  0  0  0  0  0  0
  -18.2490  -26.5340   22.1870 C   0  0  0  0  0  2  0  0  0  0  0  0
  -18.9740  -28.7330   23.2820 C   0  0  0  0  0  0  0  0  0  0  0  0
  -18.6320  -29.9740   23.8630 C   0  0  0  0  0  3  0  0  0  0  0  0
  -17.2840  -30.3550   24.0040 C   0  0  0  0  0  3  0  0  0  0  0  0
  -16.2620  -29.4900   23.5760 C   0  0  0  0  0  3  0  0  0  0  0  0
  -16.5890  -28.2510   22.9970 C   0  0  0  0  0  3  0  0  0  0  0  0
  -26.1120  -32.2200   23.4830 C   0  0  0  0  0  3  0  0  0  0  0  0
  -25.9980  -33.5730   24.0430 N   0  0  0  0  0  0  0  0  0  0  0  0
  -26.3330  -34.6950   23.3940 C   0  0  0  0  0  0  0  0  0  0  0  0
  -26.8460  -34.6920   22.2720 O   0  0  0  0  0  0  0  0  0  0  0  0
  -25.5310  -33.6540   24.9340 H   0  0  0  0  0  0  0  0  0  0  0  0
  -24.7650  -36.6570   23.5400 C   0  0  0  0  0  1  0  0  0  0  0  0
  -26.0530  -36.0330   24.1030 C   0  0  0  0  0  3  0  0  0  0  0  0
  -28.3590  -36.5990   24.7340 C   0  0  0  0  0  1  0  0  0  0  0  0
  -27.1660  -37.0000   23.9910 N   0  0  0  0  0  0  0  0  0  0  0  0
  -26.8820  -37.9190   24.3210 H   0  0  0  0  0  0  0  0  0  0  0  0
  -26.7840  -31.2380   24.5190 C   0  0  1  0  0  0  0  0  0  0  0  0
  -25.8900  -30.9180   25.7390 C   0  0  0  0  0  1  0  0  0  0  0  0
  -27.1580  -29.8990   23.8430 C   0  0  0  0  0  1  0  0  0  0  0  0
  -28.1030  -31.8540   25.0450 C   0  0  0  0  0  1  0  0  0  0  0  0
  2  7  1  0
  3  2  2  0
  3  4  1  0
  4 10  1  0
  4  5  2  0
  5  6  1  0
  7  1  1  0
  7  5  1  0
  9 10  1  0
 10  8  1  0
 11 20  1  0
 11  3  1  0
 12 18  1  0
 13 18  1  0
 14 15  1  0
 14 13  1  0
 16 15  1  0
 16 25  1  0
 16 17  1  0
 18 17  1  0
 19 12  2  0
 20 12  1  0
 20 21  1  0
 22 23  2  0
 23 42  1  0
 24 23  1  0
 24 27  1  0
 25 26  1  0
 25 22  1  0
 26 24  2  0
 27 28  1  0
 28 29  2  0
 30 33  1  0
 30 29  1  0
 31 30  2  0
 32 31  1  0
 32 27  2  0
 33 34  1  0
 34 39  2  0
 34 35  1  0
 35 36  2  0
 36 37  1  0
 37 41  1  0
 38 37  2  0
 39 38  1  0
 40 39  1  0
 42 43  1  0
 43 45  1  0
 43 46  1  0
 44 42  2  0
 47 22  1  0
 47 48  1  0
 49 47  1  0
 50 51  1  0
 50  1  1  0
 51 53  1  0
 53 52  1  0
 54 51  1  0
 55 56  1  0
 55 54  1  0
 56 58  1  0
 57 68  2  0
 58 63  1  0
 59 67  1  0
 59 69  1  0
 60 66  1  0
 60 62  1  0
 61 67  1  0
 62 61  1  0
 63 62  2  0
 64 65  1  0
 64 58  2  0
 65 60  2  0
 66 59  1  0
 67 57  1  0
 69 71  2  0
 70 69  1  0
 72 70  1  0
 73 82  2  0
 73 78  1  0
 74 70  1  0
 74 78  1  0
 75 74  1  0
 76 77  1  0
 76 75  1  0
 77 73  1  0
 78 79  2  0
 79 80  1  0
 81 80  2  0
 82 81  1  0
 83 57  1  0
 83 84  1  0
 83 93  1  0
 84 87  1  0
 85 84  1  0
 85 89  1  0
 86 85  2  0
 89 88  1  0
 91 89  1  0
 91 92  1  0
 91 90  1  0
 93 96  1  1
 93 94  1  0
 95 93  1  0
M  ISO  4  12 100  20 100  55 101  56 101
M  END
>  <TORSDO>  (92) 
F 24

>  <SCORE>  (92) 
-8.824

>  <name>  (92) 
92

>  <ligand_id>  (92) 
92

>  <original_smiles>  (92) 
[H]c1c([H])c([H])c2c(c1[H])C([H])([H])C([H])([H])C([H])([H])C2([H])N([H])C(=O)C1([H])N(C(=O)C([H])(N([H])C(=O)C([H])(N([H])C([H])([H])[H])C([H])([H])[H])C(C([H])([H])[H])(C([H])([H])[H])C([H])([H])[H])C([H])([H])c2c([H])c(OC([H])([H])C([H])([H])C([H])(C([H])([H])C([H])([H])[H])C([H])([H])C([H])([H])n3c([H])c(C([H])([H])N([H])C(=O)N4C([H])([H])C([H])([H])C([H])([H])C([H])(n5nc(-c6c([H])c([H])c(Oc7c([H])c([H])c(F)c([H])c7F)c([H])c6[H])c(C(=O)N([H])[H])c5N([H])[H])C4([H])[H])c(C([H])(C([H])([H])[H])C([H])([H])[H])c3C([H])([H])[H])c([H])c([H])c2C1([H])[H]

>  <smiles>  (92) 
[H]c1c([H])c([H])c2c(c1[H])C([H])([H])C([H])([H])C([H])([H])C2([H])N([H])C(=O)C1([H])N(C(=O)C([H])(N([H])C(=O)C([H])(N([H])C([H])([H])[H])C([H])([H])[H])C(C([H])([H])[H])(C([H])([H])[H])C([H])([H])[H])C([H])([H])c2c([H])c(OC([H])([H])C([H])([H])C([H])(C([H])([H])C([H])([H])[H])C([H])([H])C([H])([H])n3c([H])c(C([H])([H])N([H])C(=O)N4C([H])([H])C([H])([H])C([H])([H])C([H])(n5nc(-c6c([H])c([H])c(Oc7c([H])c([H])c(F)c([H])c7F)c([H])c6[H])c(C(=O)N([H])[H])c5N([H])[H])C4([H])[H])c(C([H])(C([H])([H])[H])C([H])([H])[H])c3C([H])([H])[H])c([H])c([H])c2C1([H])[H]

$$$$
93:0:0
     RDKit          3D

 94102  0  0  1  0  0  0  0  0999 V2000
  -30.3790  -18.8760   21.8470 C   0  0  0  0  0  3  0  0  0  0  0  0
  -29.8590  -21.2550   21.7220 C   0  0  0  0  0  3  0  0  0  0  0  0
  -30.3790  -20.1560   22.4400 C   0  0  0  0  0  0  0  0  0  0  0  0
  -29.8490  -18.7060   20.5620 C   0  0  0  0  0  0  0  0  0  0  0  0
  -29.3280  -21.0780   20.4290 C   0  0  0  0  0  0  0  0  0  0  0  0
  -29.3210  -19.7950   19.8870 N   0  0  0  0  0  0  0  0  0  0  0  0
  -32.4290  -20.8940   23.6670 C   0  0  0  0  0  1  0  0  0  0  0  0
  -30.9480  -19.1180   24.7040 C   0  0  0  0  0  1  0  0  0  0  0  0
  -30.9950  -20.3730   23.8150 C   0  0  0  0  0  3  0  0  0  0  0  0
  -29.1810  -22.2860   18.1970 C   0  0  0  0  0  1  0  0  0  0  0  0
  -27.1350  -21.9870   19.6070 C   0  0  0  0  0  1  0  0  0  0  0  0
  -28.6420  -22.2940   19.6440 C   0  0  1  0  0  0  0  0  0  0  0  0
  -28.8270  -23.8130   20.2210 C   0  0  0  0  0  3  0  0  0  0  0  0
  -27.9740  -25.0390   19.5960 C   0  0  0  0  0  3  0  0  0  0  0  0
  -28.1620  -26.4870   19.9620 O   0  0  0  0  0  0  0  0  0  0  0  0
  -24.5520  -31.8860   23.1890 C   0  0  0  0  0  0  0  0  0  0  0  0
  -27.0680  -27.3850   19.9290 C   0  0  0  0  0  0  0  0  0  0  0  0
  -23.3030  -30.5320   21.5490 C   0  0  0  0  0  3  0  0  0  0  0  0
  -24.7140  -29.0310   20.0320 C   0  0  0  0  0  0  0  0  0  0  0  0
  -25.8400  -30.8460   21.3110 C   0  0  0  0  0  2  0  0  0  0  0  0
  -25.9000  -29.4860   20.6200 C   0  0  0  0  0  0  0  0  0  0  0  0
  -27.0780  -28.6730   20.5680 C   0  0  0  0  0  3  0  0  0  0  0  0
  -25.8660  -27.0270   19.2780 C   0  0  0  0  0  3  0  0  0  0  0  0
  -24.7010  -27.8090   19.3510 C   0  0  0  0  0  3  0  0  0  0  0  0
  -23.4780  -29.9010   20.1450 C   0  0  0  0  0  2  0  0  0  0  0  0
  -24.5850  -31.1050   22.0710 N   0  0  0  0  0  0  0  0  0  0  0  0
  -23.4850  -32.1470   23.7630 O   0  0  0  0  0  0  0  0  0  0  0  0
  -22.6730  -29.4840   22.5000 C   0  0  0  0  0  0  0  0  0  0  0  0
  -21.3510  -29.2710   22.3770 N   0  0  0  0  0  0  0  0  0  0  0  0
  -23.3700  -28.8660   23.3090 O   0  0  0  0  0  0  0  0  0  0  0  0
  -20.8440  -29.8250   21.7010 H   0  0  0  0  0  0  0  0  0  0  0  0
  -18.0170  -27.9450   22.8440 C   0  0  0  0  0  0  0  0  0  0  0  0
  -20.5610  -28.3050   23.1410 C   0  0  0  0  0  3  0  0  0  0  0  0
  -20.7240  -26.8770   22.5720 C   0  0  0  0  0  2  0  0  0  0  0  0
  -19.6470  -26.5080   21.5470 C   0  0  0  0  0  2  0  0  0  0  0  0
  -18.2530  -26.6010   22.1750 C   0  0  0  0  0  2  0  0  0  0  0  0
  -19.1010  -28.7510   23.2830 C   0  0  0  0  0  0  0  0  0  0  0  0
  -18.8260  -30.0050   23.8710 C   0  0  0  0  0  3  0  0  0  0  0  0
  -17.5020  -30.4560   24.0210 C   0  0  0  0  0  3  0  0  0  0  0  0
  -16.4320  -29.6490   23.5970 C   0  0  0  0  0  3  0  0  0  0  0  0
  -16.6910  -28.3940   23.0160 C   0  0  0  0  0  3  0  0  0  0  0  0
  -25.8520  -32.5060   23.7880 C   0  0  0  0  0  3  0  0  0  0  0  0
  -25.5500  -33.8950   24.1620 N   0  0  0  0  0  0  0  0  0  0  0  0
  -25.8480  -34.9670   23.4140 C   0  0  0  0  0  0  0  0  0  0  0  0
  -26.4790  -34.8910   22.3560 O   0  0  0  0  0  0  0  0  0  0  0  0
  -24.9900  -34.0270   24.9900 H   0  0  0  0  0  0  0  0  0  0  0  0
  -24.0910  -36.7500   23.1780 C   0  0  0  0  0  1  0  0  0  0  0  0
  -25.3740  -36.3420   23.9210 C   0  0  0  0  0  3  0  0  0  0  0  0
  -27.5350  -37.2340   24.6700 C   0  0  0  0  0  1  0  0  0  0  0  0
  -26.3920  -37.4050   23.7760 N   0  0  0  0  0  0  0  0  0  0  0  0
  -25.9860  -38.3190   23.9530 H   0  0  0  0  0  0  0  0  0  0  0  0
  -26.4050  -31.7060   25.0330 C   0  0  1  0  0  0  0  0  0  0  0  0
  -25.3360  -31.4430   26.1200 C   0  0  0  0  0  1  0  0  0  0  0  0
  -26.9830  -30.3380   24.5980 C   0  0  0  0  0  1  0  0  0  0  0  0
  -27.5690  -32.4900   25.6840 C   0  0  0  0  0  1  0  0  0  0  0  0
  -29.9810  -17.3040   19.8560 C   0  0  0  0  0  2  0  0  0  0  0  0
  -30.5290  -14.8910   20.6180 C   0  0  0  0  0  0  0  0  0  0  0  0
  -30.4490  -12.5140   19.9050 C   0  0  0  0  0  2  0  0  0  0  0  0
  -29.5850  -12.4100   18.6290 C   0  0  0  0  0  2  0  0  0  0  0  0
  -28.0970  -12.2410   18.9890 C   0  0  0  0  0  2  0  0  0  0  0  0
  -27.6210  -13.2510   20.0670 C   0  0  0  0  0  3  0  0  0  0  0  0
  -28.6130  -13.3420   21.2490 C   0  0  0  0  0  2  0  0  0  0  0  0
  -29.9380  -13.6530   20.6970 N   0  0  0  0  0  0  0  0  0  0  0  0
  -31.7220  -14.9910   20.3240 O   0  0  0  0  0  0  0  0  0  0  0  0
  -29.7140  -15.9990   20.5900 N   0  0  0  0  0  0  0  0  0  0  0  0
  -28.7560  -15.8480   20.8600 H   0  0  0  0  0  0  0  0  0  0  0  0
  -25.2120  -13.8510   20.7290 C   0  0  0  0  0  0  0  0  0  0  0  0
  -24.1300  -13.0800   21.0550 C   0  0  0  0  0  0  0  0  0  0  0  0
  -24.5820  -11.7270   21.0170 C   0  0  0  0  0  0  0  0  0  0  0  0
  -26.2580  -12.9670   20.5110 N   0  0  0  0  0  0  0  0  0  0  0  0
  -25.8820  -11.6840   20.7470 N   0  0  0  0  0  0  0  0  0  0  0  0
  -23.8390  -10.4670   21.1650 C   0  0  0  0  0  0  0  0  0  0  0  0
  -24.2440   -9.4770   22.0860 C   0  0  0  0  0  3  0  0  0  0  0  0
  -23.5030   -8.2820   22.2230 C   0  0  0  0  0  3  0  0  0  0  0  0
  -22.3450   -8.0710   21.4390 C   0  0  0  0  0  0  0  0  0  0  0  0
  -21.9600   -9.0510   20.5080 C   0  0  0  0  0  3  0  0  0  0  0  0
  -22.7000  -10.2370   20.3690 C   0  0  0  0  0  3  0  0  0  0  0  0
  -21.5780   -6.9330   21.4890 O   0  0  0  0  0  0  0  0  0  0  0  0
  -21.5250   -6.1460   22.6110 C   0  0  0  0  0  0  0  0  0  0  0  0
  -21.0760   -6.6490   23.8530 C   0  0  0  0  0  3  0  0  0  0  0  0
  -20.9730   -5.7900   24.9640 C   0  0  0  0  0  3  0  0  0  0  0  0
  -21.3080   -4.4280   24.8380 C   0  0  0  0  0  0  0  0  0  0  0  0
  -21.7480   -3.9240   23.6010 C   0  0  0  0  0  3  0  0  0  0  0  0
  -21.8550   -4.7800   22.4920 C   0  0  0  0  0  0  0  0  0  0  0  0
  -22.2610   -4.2850   21.2980 F   0  0  0  0  0  0  0  0  0  0  0  0
  -21.2020   -3.6010   25.9040 F   0  0  0  0  0  0  0  0  0  0  0  0
  -22.7270  -13.5660   21.2890 C   0  0  0  0  0  0  0  0  0  0  0  0
  -21.9650  -12.8600   22.1180 N   0  0  0  0  0  0  0  0  0  0  0  0
  -22.3140  -14.6010   20.7690 O   0  0  0  0  0  0  0  0  0  0  0  0
  -22.3150  -12.0270   22.5680 H   0  0  0  0  0  0  0  0  0  0  0  0
  -21.0190  -13.1570   22.3080 H   0  0  0  0  0  0  0  0  0  0  0  0
  -25.3890  -15.2230   20.5770 N   0  0  0  0  0  0  0  0  0  0  0  0
  -24.6210  -15.8780   20.6840 H   0  0  0  0  0  0  0  0  0  0  0  0
  -26.2380  -15.6630   20.2440 H   0  0  0  0  0  0  0  0  0  0  0  0
  1  3  1  0
  2  3  2  0
  3  9  1  0
  4  1  2  0
  5  2  1  0
  6  5  2  0
  6  4  1  0
  7  9  1  0
  9  8  1  0
 12 10  1  6
 11 12  1  0
 12 13  1  0
 12  5  1  0
 14 15  1  0
 14 13  2  0
 16 27  2  0
 17 15  1  0
 17 22  1  0
 18 26  1  0
 18 28  1  0
 19 25  1  0
 19 21  1  0
 20 26  1  0
 21 20  1  0
 22 21  2  0
 23 24  1  0
 23 17  2  0
 24 19  2  0
 25 18  1  0
 26 16  1  0
 28 30  2  0
 29 28  1  0
 31 29  1  0
 32 41  2  0
 32 37  1  0
 33 29  1  0
 33 37  1  0
 34 33  1  0
 35 36  1  0
 35 34  1  0
 36 32  1  0
 37 38  2  0
 38 39  1  0
 40 39  2  0
 41 40  1  0
 42 16  1  0
 42 43  1  0
 42 52  1  0
 43 46  1  0
 44 48  1  0
 44 43  1  0
 45 44  2  0
 48 47  1  0
 50 48  1  0
 50 51  1  0
 50 49  1  0
 52 55  1  1
 52 53  1  0
 54 52  1  0
 56  4  1  0
 56 65  1  0
 57 63  1  0
 58 63  1  0
 59 60  1  0
 59 58  1  0
 61 60  1  0
 61 70  1  0
 61 62  1  0
 63 62  1  0
 64 57  2  0
 65 57  1  0
 65 66  1  0
 67 68  2  0
 68 87  1  0
 69 68  1  0
 69 72  1  0
 70 67  1  0
 70 71  1  0
 71 69  2  0
 72 73  1  0
 73 74  2  0
 75 78  1  0
 75 74  1  0
 76 75  2  0
 77 76  1  0
 77 72  2  0
 78 79  1  0
 79 80  1  0
 80 81  2  0
 82 81  1  0
 82 86  1  0
 83 82  2  0
 84 79  2  0
 84 83  1  0
 85 84  1  0
 87 88  1  0
 88 91  1  0
 88 90  1  0
 89 87  2  0
 92 93  1  0
 92 67  1  0
 94 92  1  0
M  ISO  4  14 101  15 101  57 100  65 100
M  END
>  <TORSDO>  (93) 
F 21

>  <SCORE>  (93) 
-12.263

>  <name>  (93) 
93

>  <ligand_id>  (93) 
93

>  <original_smiles>  (93) 
[H]c1c([H])c([H])c2c(c1[H])C([H])([H])C([H])([H])C([H])([H])C2([H])N([H])C(=O)C1([H])N(C(=O)C([H])(N([H])C(=O)C([H])(N([H])C([H])([H])[H])C([H])([H])[H])C(C([H])([H])[H])(C([H])([H])[H])C([H])([H])[H])C([H])([H])c2c([H])c(OC([H])([H])C([H])([H])C(c3nc(C([H])([H])N([H])C(=O)N4C([H])([H])C([H])([H])C([H])([H])C([H])(n5nc(-c6c([H])c([H])c(Oc7c([H])c([H])c(F)c([H])c7F)c([H])c6[H])c(C(=O)N([H])[H])c5N([H])[H])C4([H])[H])c([H])c(C([H])(C([H])([H])[H])C([H])([H])[H])c3[H])(C([H])([H])[H])C([H])([H])[H])c([H])c([H])c2C1([H])[H]

>  <smiles>  (93) 
[H]c1c([H])c([H])c2c(c1[H])C([H])([H])C([H])([H])C([H])([H])C2([H])N([H])C(=O)C1([H])N(C(=O)C([H])(N([H])C(=O)C([H])(N([H])C([H])([H])[H])C([H])([H])[H])C(C([H])([H])[H])(C([H])([H])[H])C([H])([H])[H])C([H])([H])c2c([H])c(OC([H])([H])C([H])([H])C(c3nc(C([H])([H])N([H])C(=O)N4C([H])([H])C([H])([H])C([H])([H])C([H])(n5nc(-c6c([H])c([H])c(Oc7c([H])c([H])c(F)c([H])c7F)c([H])c6[H])c(C(=O)N([H])[H])c5N([H])[H])C4([H])[H])c([H])c(C([H])(C([H])([H])[H])C([H])([H])[H])c3[H])(C([H])([H])[H])C([H])([H])[H])c([H])c([H])c2C1([H])[H]

$$$$
94:0:0
     RDKit          3D

 95103  0  0  1  0  0  0  0  0999 V2000
  -32.2600  -21.4400   18.9740 C   0  0  0  0  0  2  0  0  0  0  0  0
  -31.6750  -20.8650   20.2620 C   0  0  0  0  0  2  0  0  0  0  0  0
  -31.0940  -22.1900   18.3250 C   0  0  0  0  0  2  0  0  0  0  0  0
  -30.1980  -20.6010   19.9270 C   0  0  0  0  0  3  0  0  0  0  0  0
  -29.8500  -21.7370   19.0090 N   0  0  1  0  0  4  0  0  0  0  0  0
  -29.3740  -21.2170   18.2860 H   0  0  0  0  0  0  0  0  0  0  0  0
  -27.9020  -22.8370   18.0540 C   0  0  0  0  0  1  0  0  0  0  0  0
  -27.8310  -22.2400   20.4710 C   0  0  0  0  0  1  0  0  0  0  0  0
  -28.7670  -22.7550   19.3380 C   0  0  1  0  0  0  0  0  0  0  0  0
  -29.2720  -24.2100   19.7440 C   0  0  0  0  0  2  0  0  0  0  0  0
  -28.1570  -25.2780   19.6340 C   0  0  0  0  0  2  0  0  0  0  0  0
  -28.3460  -26.6170   20.1280 O   0  0  0  0  0  0  0  0  0  0  0  0
  -24.5950  -31.8520   23.2460 C   0  0  0  0  0  0  0  0  0  0  0  0
  -27.1890  -27.3900   20.1240 C   0  0  0  0  0  0  0  0  0  0  0  0
  -23.3750  -30.4720   21.6040 C   0  0  0  0  0  3  0  0  0  0  0  0
  -24.8090  -28.9430   20.1680 C   0  0  0  0  0  0  0  0  0  0  0  0
  -25.9070  -30.8030   21.4110 C   0  0  0  0  0  2  0  0  0  0  0  0
  -25.9810  -29.4360   20.7600 C   0  0  0  0  0  0  0  0  0  0  0  0
  -27.1720  -28.6660   20.7420 C   0  0  0  0  0  3  0  0  0  0  0  0
  -25.9840  -26.9350   19.5200 C   0  0  0  0  0  3  0  0  0  0  0  0
  -24.8060  -27.6890   19.5510 C   0  0  0  0  0  3  0  0  0  0  0  0
  -23.5740  -29.8100   20.2190 C   0  0  0  0  0  2  0  0  0  0  0  0
  -24.6450  -31.0550   22.1440 N   0  0  0  0  0  0  0  0  0  0  0  0
  -23.5160  -32.1330   23.7860 O   0  0  0  0  0  0  0  0  0  0  0  0
  -22.7170  -29.4430   22.5540 C   0  0  0  0  0  0  0  0  0  0  0  0
  -21.3920  -29.2750   22.4310 N   0  0  0  0  0  0  0  0  0  0  0  0
  -23.3960  -28.8030   23.3630 O   0  0  0  0  0  0  0  0  0  0  0  0
  -20.9030  -29.8430   21.7520 H   0  0  0  0  0  0  0  0  0  0  0  0
  -18.0040  -28.1220   22.9360 C   0  0  0  0  0  0  0  0  0  0  0  0
  -20.5660  -28.3410   23.1970 C   0  0  0  0  0  3  0  0  0  0  0  0
  -20.6470  -26.9150   22.6100 C   0  0  0  0  0  2  0  0  0  0  0  0
  -19.5350  -26.6130   21.6000 C   0  0  0  0  0  2  0  0  0  0  0  0
  -18.1580  -26.7740   22.2510 C   0  0  0  0  0  2  0  0  0  0  0  0
  -19.1360  -28.8660   23.3630 C   0  0  0  0  0  0  0  0  0  0  0  0
  -18.9380  -30.1300   23.9590 C   0  0  0  0  0  3  0  0  0  0  0  0
  -17.6420  -30.6470   24.1400 C   0  0  0  0  0  3  0  0  0  0  0  0
  -16.5230  -29.8980   23.7350 C   0  0  0  0  0  3  0  0  0  0  0  0
  -16.7070  -28.6390   23.1330 C   0  0  0  0  0  3  0  0  0  0  0  0
  -25.8890  -32.4710   23.8630 C   0  0  0  0  0  3  0  0  0  0  0  0
  -25.5900  -33.8680   24.2010 N   0  0  0  0  0  0  0  0  0  0  0  0
  -25.9100  -34.9190   23.4350 C   0  0  0  0  0  0  0  0  0  0  0  0
  -26.5670  -34.8150   22.3950 O   0  0  0  0  0  0  0  0  0  0  0  0
  -25.0160  -34.0220   25.0170 H   0  0  0  0  0  0  0  0  0  0  0  0
  -24.1840  -36.7190   23.0970 C   0  0  0  0  0  1  0  0  0  0  0  0
  -25.4290  -36.3060   23.8980 C   0  0  0  0  0  3  0  0  0  0  0  0
  -27.5730  -37.1870   24.7130 C   0  0  0  0  0  1  0  0  0  0  0  0
  -26.4630  -37.3590   23.7780 N   0  0  0  0  0  0  0  0  0  0  0  0
  -26.0580  -38.2780   23.9330 H   0  0  0  0  0  0  0  0  0  0  0  0
  -26.4080  -31.6850   25.1300 C   0  0  1  0  0  0  0  0  0  0  0  0
  -25.3170  -31.4320   26.1970 C   0  0  0  0  0  1  0  0  0  0  0  0
  -26.9980  -30.3130   24.7260 C   0  0  0  0  0  1  0  0  0  0  0  0
  -27.5630  -32.4710   25.7930 C   0  0  0  0  0  1  0  0  0  0  0  0
  -28.5040  -19.0400   18.7130 C   0  0  0  0  0  1  0  0  0  0  0  0
  -29.9650  -19.2380   19.1710 C   0  0  0  0  0  3  0  0  0  0  0  0
  -30.4790  -17.9230   19.8370 C   0  0  0  0  0  2  0  0  0  0  0  0
  -29.7580  -17.4280   21.1140 C   0  0  0  0  0  2  0  0  0  0  0  0
  -29.3850  -15.9160   21.1390 C   0  0  0  0  0  2  0  0  0  0  0  0
  -30.7020  -14.2240   19.8800 C   0  0  0  0  0  0  0  0  0  0  0  0
  -30.1760  -12.1420   18.6490 C   0  0  0  0  0  2  0  0  0  0  0  0
  -29.1140  -12.3670   17.5590 C   0  0  0  0  0  2  0  0  0  0  0  0
  -27.6980  -12.2230   18.1430 C   0  0  0  0  0  2  0  0  0  0  0  0
  -27.5060  -13.0580   19.4340 C   0  0  0  0  0  3  0  0  0  0  0  0
  -28.6660  -12.8090   20.4290 C   0  0  0  0  0  2  0  0  0  0  0  0
  -29.9370  -13.1020   19.7410 N   0  0  0  0  0  0  0  0  0  0  0  0
  -31.6680  -14.4540   19.1460 O   0  0  0  0  0  0  0  0  0  0  0  0
  -31.6380  -15.2030   21.8940 C   0  0  0  0  0  1  0  0  0  0  0  0
  -30.5080  -14.9680   20.9920 N   0  0  0  0  0  0  0  0  0  0  0  0
  -25.1940  -13.6940   20.3780 C   0  0  0  0  0  0  0  0  0  0  0  0
  -24.1590  -12.9320   20.8490 C   0  0  0  0  0  0  0  0  0  0  0  0
  -24.6010  -11.5750   20.7710 C   0  0  0  0  0  0  0  0  0  0  0  0
  -26.2020  -12.8030   20.0450 N   0  0  0  0  0  0  0  0  0  0  0  0
  -25.8530  -11.5230   20.3360 N   0  0  0  0  0  0  0  0  0  0  0  0
  -23.8860  -10.3200   21.0310 C   0  0  0  0  0  0  0  0  0  0  0  0
  -24.3740   -9.3700   21.9570 C   0  0  0  0  0  3  0  0  0  0  0  0
  -23.6590   -8.1780   22.2040 C   0  0  0  0  0  3  0  0  0  0  0  0
  -22.4410   -7.9280   21.5260 C   0  0  0  0  0  0  0  0  0  0  0  0
  -21.9750   -8.8640   20.5860 C   0  0  0  0  0  3  0  0  0  0  0  0
  -22.6900  -10.0480   20.3380 C   0  0  0  0  0  3  0  0  0  0  0  0
  -21.6910   -6.7870   21.6840 O   0  0  0  0  0  0  0  0  0  0  0  0
  -21.6840   -6.0890   22.8650 C   0  0  0  0  0  0  0  0  0  0  0  0
  -21.2990   -6.6890   24.0830 C   0  0  0  0  0  3  0  0  0  0  0  0
  -21.2390   -5.9170   25.2610 C   0  0  0  0  0  3  0  0  0  0  0  0
  -21.5510   -4.5450   25.2200 C   0  0  0  0  0  0  0  0  0  0  0  0
  -21.9280   -3.9430   24.0060 C   0  0  0  0  0  3  0  0  0  0  0  0
  -21.9900   -4.7140   22.8320 C   0  0  0  0  0  0  0  0  0  0  0  0
  -22.3330   -4.1260   21.6600 F   0  0  0  0  0  0  0  0  0  0  0  0
  -21.4850   -3.8000   26.3480 F   0  0  0  0  0  0  0  0  0  0  0  0
  -22.8000  -13.4200   21.2570 C   0  0  0  0  0  0  0  0  0  0  0  0
  -22.1570  -12.7320   22.1930 N   0  0  0  0  0  0  0  0  0  0  0  0
  -22.3210  -14.4480   20.7790 O   0  0  0  0  0  0  0  0  0  0  0  0
  -22.5620  -11.9000   22.5980 H   0  0  0  0  0  0  0  0  0  0  0  0
  -21.2460  -13.0360   22.5040 H   0  0  0  0  0  0  0  0  0  0  0  0
  -25.3520  -15.0660   20.1890 N   0  0  0  0  0  0  0  0  0  0  0  0
  -24.6140  -15.7260   20.4040 H   0  0  0  0  0  0  0  0  0  0  0  0
  -26.1820  -15.5080   19.8180 H   0  0  0  0  0  0  0  0  0  0  0  0
  1  2  1  0
  3  1  1  0
  3  5  1  0
  4 54  1  0
  4  2  1  0
  5  9  1  0
  5  4  1  0
  5  6  1  6
  9  7  1  6
  9 10  1  0
  9  8  1  0
 11 10  1  0
 11 12  1  0
 13 24  2  0
 14 12  1  0
 14 19  1  0
 15 23  1  0
 15 25  1  0
 16 22  1  0
 16 18  1  0
 17 23  1  0
 18 17  1  0
 19 18  2  0
 20 21  1  0
 20 14  2  0
 21 16  2  0
 22 15  1  0
 23 13  1  0
 25 27  2  0
 26 25  1  0
 28 26  1  0
 29 38  2  0
 29 34  1  0
 30 26  1  0
 30 34  1  0
 31 30  1  0
 32 33  1  0
 32 31  1  0
 33 29  1  0
 34 35  2  0
 35 36  1  0
 37 36  2  0
 38 37  1  0
 39 13  1  0
 39 40  1  0
 39 49  1  0
 40 43  1  0
 41 45  1  0
 41 40  1  0
 42 41  2  0
 45 44  1  0
 47 45  1  0
 47 48  1  0
 47 46  1  0
 49 52  1  1
 49 50  1  0
 51 49  1  0
 54 53  1  0
 54 55  1  0
 55 56  1  0
 56 57  1  0
 58 67  1  0
 59 64  1  0
 60 61  1  0
 60 59  1  0
 62 61  1  0
 62 71  1  0
 62 63  1  0
 64 58  1  0
 64 63  1  0
 65 58  2  0
 67 57  1  0
 67 66  1  0
 68 69  2  0
 69 88  1  0
 70 69  1  0
 70 73  1  0
 71 72  1  0
 71 68  1  0
 72 70  2  0
 73 74  1  0
 74 75  2  0
 76 79  1  0
 76 75  1  0
 77 76  2  0
 78 77  1  0
 78 73  2  0
 79 80  1  0
 80 81  1  0
 81 82  2  0
 83 82  1  0
 83 87  1  0
 84 83  2  0
 85 80  2  0
 85 84  1  0
 86 85  1  0
 88 89  1  0
 89 92  1  0
 89 91  1  0
 90 88  2  0
 93 68  1  0
 93 94  1  0
 95 93  1  0
M  ISO  4  11 101  12 101  58 100  67 100
M  END
>  <TORSDO>  (94) 
F 23

>  <SCORE>  (94) 
-12.057

>  <name>  (94) 
94

>  <ligand_id>  (94) 
94

>  <original_smiles>  (94) 
[H]c1c([H])c([H])c2c(c1[H])C([H])([H])C([H])([H])C([H])([H])C2([H])N([H])C(=O)C1([H])N(C(=O)C([H])(N([H])C(=O)C([H])(N([H])C([H])([H])[H])C([H])([H])[H])C(C([H])([H])[H])(C([H])([H])[H])C([H])([H])[H])C([H])([H])c2c([H])c(OC([H])([H])C([H])([H])C(C([H])([H])[H])(C([H])([H])[H])[N+]3([H])C([H])([H])C([H])([H])C([H])([H])C3([H])C([H])(C([H])([H])[H])C([H])([H])C([H])([H])C([H])([H])N(C(=O)N3C([H])([H])C([H])([H])C([H])([H])C([H])(n4nc(-c5c([H])c([H])c(Oc6c([H])c([H])c(F)c([H])c6F)c([H])c5[H])c(C(=O)N([H])[H])c4N([H])[H])C3([H])[H])C([H])([H])[H])c([H])c([H])c2C1([H])[H]

>  <smiles>  (94) 
[H]c1c([H])c([H])c2c(c1[H])C([H])([H])C([H])([H])C([H])([H])C2([H])N([H])C(=O)C1([H])N(C(=O)C([H])(N([H])C(=O)C([H])(N([H])C([H])([H])[H])C([H])([H])[H])C(C([H])([H])[H])(C([H])([H])[H])C([H])([H])[H])C([H])([H])c2c([H])c(OC([H])([H])C([H])([H])C(C([H])([H])[H])(C([H])([H])[H])[N+]3([H])C([H])([H])C([H])([H])C([H])([H])C3([H])C([H])(C([H])([H])[H])C([H])([H])C([H])([H])C([H])([H])N(C(=O)N3C([H])([H])C([H])([H])C([H])([H])C([H])(n4nc(-c5c([H])c([H])c(Oc6c([H])c([H])c(F)c([H])c6F)c([H])c5[H])c(C(=O)N([H])[H])c4N([H])[H])C3([H])[H])C([H])([H])[H])c([H])c([H])c2C1([H])[H]

$$$$
95:0:0
     RDKit          3D

 92100  0  0  1  0  0  0  0  0999 V2000
  -29.1480  -23.7610   19.8720 C   0  0  0  0  0  2  0  0  0  0  0  0
  -29.4290  -23.8130   22.3950 C   0  0  0  0  0  2  0  0  0  0  0  0
  -30.0470  -22.5000   19.8280 C   0  0  0  0  0  2  0  0  0  0  0  0
  -30.3480  -22.5800   22.3070 C   0  0  0  0  0  2  0  0  0  0  0  0
  -29.4210  -24.6610   21.1020 C   0  0  0  0  0  3  0  0  0  0  0  0
  -29.9230  -21.6820   21.1350 C   0  0  0  0  0  3  0  0  0  0  0  0
  -30.6750  -20.3960   21.1090 N   0  0  0  0  0  4  0  0  0  0  0  0
  -31.0700  -20.2590   22.0260 H   0  0  0  0  0  0  0  0  0  0  0  0
  -31.4430  -20.4570   20.4560 H   0  0  0  0  0  0  0  0  0  0  0  0
  -29.8290  -19.2100   20.8110 C   0  0  0  0  0  2  0  0  0  0  0  0
  -30.5380  -17.8350   20.9700 C   0  0  0  0  0  2  0  0  0  0  0  0
  -29.5370  -16.6790   20.7290 C   0  0  0  0  0  2  0  0  0  0  0  0
  -30.6400  -14.4410   20.4460 C   0  0  0  0  0  0  0  0  0  0  0  0
  -30.3680  -12.3150   19.2220 C   0  0  0  0  0  2  0  0  0  0  0  0
  -29.4190  -12.5740   18.0330 C   0  0  0  0  0  2  0  0  0  0  0  0
  -27.9450  -12.4320   18.4600 C   0  0  0  0  0  2  0  0  0  0  0  0
  -27.6230  -13.2290   19.7520 C   0  0  0  0  0  3  0  0  0  0  0  0
  -28.6720  -12.9240   20.8470 C   0  0  0  0  0  2  0  0  0  0  0  0
  -30.0090  -13.2440   20.3050 N   0  0  0  0  0  0  0  0  0  0  0  0
  -31.6910  -14.7360   19.8660 O   0  0  0  0  0  0  0  0  0  0  0  0
  -29.9390  -15.3340   21.1620 N   0  0  0  0  0  0  0  0  0  0  0  0
  -29.2300  -14.8790   21.7190 H   0  0  0  0  0  0  0  0  0  0  0  0
  -25.2140  -13.8590   20.4180 C   0  0  0  0  0  0  0  0  0  0  0  0
  -24.1410  -13.0940   20.7880 C   0  0  0  0  0  0  0  0  0  0  0  0
  -24.5990  -11.7420   20.7790 C   0  0  0  0  0  0  0  0  0  0  0  0
  -26.2590  -12.9720   20.2150 N   0  0  0  0  0  0  0  0  0  0  0  0
  -25.8900  -11.6930   20.4830 N   0  0  0  0  0  0  0  0  0  0  0  0
  -23.8700  -10.4850   20.9820 C   0  0  0  0  0  0  0  0  0  0  0  0
  -24.2970   -9.5280   21.9300 C   0  0  0  0  0  3  0  0  0  0  0  0
  -23.5680   -8.3340   22.1200 C   0  0  0  0  0  3  0  0  0  0  0  0
  -22.4000   -8.0870   21.3590 C   0  0  0  0  0  0  0  0  0  0  0  0
  -21.9930   -9.0330   20.4010 C   0  0  0  0  0  3  0  0  0  0  0  0
  -22.7210  -10.2190   20.2100 C   0  0  0  0  0  3  0  0  0  0  0  0
  -21.6430   -6.9470   21.4570 O   0  0  0  0  0  0  0  0  0  0  0  0
  -21.5890   -6.2150   22.6170 C   0  0  0  0  0  0  0  0  0  0  0  0
  -21.1570   -6.7810   23.8350 C   0  0  0  0  0  3  0  0  0  0  0  0
  -21.0530   -5.9770   24.9870 C   0  0  0  0  0  3  0  0  0  0  0  0
  -21.3700   -4.6070   24.9210 C   0  0  0  0  0  0  0  0  0  0  0  0
  -21.7950   -4.0410   23.7060 C   0  0  0  0  0  3  0  0  0  0  0  0
  -21.9020   -4.8420   22.5560 C   0  0  0  0  0  0  0  0  0  0  0  0
  -22.2930   -4.2880   21.3850 F   0  0  0  0  0  0  0  0  0  0  0  0
  -21.2610   -3.8320   26.0250 F   0  0  0  0  0  0  0  0  0  0  0  0
  -22.7450  -13.5780   21.0480 C   0  0  0  0  0  0  0  0  0  0  0  0
  -22.0110  -12.8920   21.9170 N   0  0  0  0  0  0  0  0  0  0  0  0
  -22.3110  -14.6010   20.5180 O   0  0  0  0  0  0  0  0  0  0  0  0
  -22.3720  -12.0620   22.3630 H   0  0  0  0  0  0  0  0  0  0  0  0
  -21.0730  -13.2000   22.1380 H   0  0  0  0  0  0  0  0  0  0  0  0
  -25.3750  -15.2280   20.2220 N   0  0  0  0  0  0  0  0  0  0  0  0
  -24.5970  -15.8710   20.3170 H   0  0  0  0  0  0  0  0  0  0  0  0
  -26.2270  -15.6790   19.9150 H   0  0  0  0  0  0  0  0  0  0  0  0
  -28.3910  -25.8060   21.2510 C   0  0  0  0  0  2  0  0  0  0  0  0
  -28.3820  -26.7160   20.1490 O   0  0  0  0  0  0  0  0  0  0  0  0
  -24.5830  -31.8770   23.2290 C   0  0  0  0  0  0  0  0  0  0  0  0
  -27.2360  -27.4720   20.1340 C   0  0  0  0  0  0  0  0  0  0  0  0
  -23.3760  -30.4740   21.5870 C   0  0  0  0  0  3  0  0  0  0  0  0
  -24.8330  -28.9480   20.1520 C   0  0  0  0  0  0  0  0  0  0  0  0
  -25.8950  -30.8510   21.3780 C   0  0  0  0  0  2  0  0  0  0  0  0
  -25.9870  -29.4820   20.7390 C   0  0  0  0  0  0  0  0  0  0  0  0
  -27.1970  -28.7500   20.7280 C   0  0  0  0  0  3  0  0  0  0  0  0
  -26.0700  -26.9430   19.5460 C   0  0  0  0  0  3  0  0  0  0  0  0
  -24.8670  -27.6740   19.5550 C   0  0  0  0  0  3  0  0  0  0  0  0
  -23.5810  -29.7920   20.2060 C   0  0  0  0  0  2  0  0  0  0  0  0
  -24.6360  -31.0830   22.1230 N   0  0  0  0  0  0  0  0  0  0  0  0
  -23.5030  -32.1510   23.7730 O   0  0  0  0  0  0  0  0  0  0  0  0
  -22.7290  -29.4530   22.5500 C   0  0  0  0  0  0  0  0  0  0  0  0
  -21.4050  -29.2720   22.4260 N   0  0  0  0  0  0  0  0  0  0  0  0
  -23.4140  -28.8270   23.3630 O   0  0  0  0  0  0  0  0  0  0  0  0
  -20.9160  -29.8320   21.7430 H   0  0  0  0  0  0  0  0  0  0  0  0
  -18.0310  -28.0820   22.9330 C   0  0  0  0  0  0  0  0  0  0  0  0
  -20.5890  -28.3320   23.1940 C   0  0  0  0  0  3  0  0  0  0  0  0
  -20.6860  -26.9060   22.6100 C   0  0  0  0  0  2  0  0  0  0  0  0
  -19.5820  -26.5870   21.6000 C   0  0  0  0  0  2  0  0  0  0  0  0
  -18.2000  -26.7360   22.2480 C   0  0  0  0  0  2  0  0  0  0  0  0
  -19.1530  -28.8390   23.3590 C   0  0  0  0  0  0  0  0  0  0  0  0
  -18.9400  -30.1020   23.9540 C   0  0  0  0  0  3  0  0  0  0  0  0
  -17.6370  -30.6060   24.1270 C   0  0  0  0  0  3  0  0  0  0  0  0
  -16.5310  -29.8450   23.7170 C   0  0  0  0  0  3  0  0  0  0  0  0
  -16.7280  -28.5870   23.1260 C   0  0  0  0  0  3  0  0  0  0  0  0
  -25.8720  -32.5070   23.8490 C   0  0  0  0  0  3  0  0  0  0  0  0
  -25.5680  -33.9060   24.1780 N   0  0  0  0  0  0  0  0  0  0  0  0
  -25.9040  -34.9570   23.4200 C   0  0  0  0  0  0  0  0  0  0  0  0
  -26.5780  -34.8520   22.3920 O   0  0  0  0  0  0  0  0  0  0  0  0
  -24.9730  -34.0620   24.9790 H   0  0  0  0  0  0  0  0  0  0  0  0
  -24.1820  -36.7560   23.0510 C   0  0  0  0  0  1  0  0  0  0  0  0
  -25.4130  -36.3470   23.8750 C   0  0  0  0  0  3  0  0  0  0  0  0
  -27.5440  -37.2200   24.7280 C   0  0  0  0  0  1  0  0  0  0  0  0
  -26.4500  -37.3970   23.7770 N   0  0  0  0  0  0  0  0  0  0  0  0
  -26.0450  -38.3170   23.9280 H   0  0  0  0  0  0  0  0  0  0  0  0
  -26.3970  -31.7350   25.1210 C   0  0  1  0  0  0  0  0  0  0  0  0
  -25.3070  -31.4870   26.1900 C   0  0  0  0  0  1  0  0  0  0  0  0
  -26.9870  -30.3630   24.7210 C   0  0  0  0  0  1  0  0  0  0  0  0
  -27.5500  -32.5290   25.7770 C   0  0  0  0  0  1  0  0  0  0  0  0
  1  5  1  0
  3  1  1  0
  3  6  1  0
  4  2  1  0
  5 51  1  0
  5  2  1  0
  6  7  1  0
  6  4  1  0
  7  8  1  0
  9  7  1  0
 10 11  1  0
 10  7  1  0
 12 11  1  0
 12 21  1  0
 13 21  1  0
 14 19  1  0
 15 16  1  0
 15 14  1  0
 17 16  1  0
 17 26  1  0
 17 18  1  0
 19 13  1  0
 19 18  1  0
 20 13  2  0
 21 22  1  0
 23 24  2  0
 24 43  1  0
 25 24  1  0
 25 28  1  0
 26 23  1  0
 26 27  1  0
 27 25  2  0
 28 29  1  0
 29 30  2  0
 31 34  1  0
 31 30  1  0
 32 31  2  0
 33 32  1  0
 33 28  2  0
 34 35  1  0
 35 36  1  0
 36 37  2  0
 38 37  1  0
 38 42  1  0
 39 38  2  0
 40 35  2  0
 40 39  1  0
 41 40  1  0
 43 44  1  0
 44 47  1  0
 44 46  1  0
 45 43  2  0
 48 49  1  0
 48 23  1  0
 50 48  1  0
 52 51  1  0
 53 64  2  0
 54 52  1  0
 54 59  1  0
 55 63  1  0
 55 65  1  0
 56 62  1  0
 56 58  1  0
 57 63  1  0
 58 57  1  0
 59 58  2  0
 60 61  1  0
 60 54  2  0
 61 56  2  0
 62 55  1  0
 63 53  1  0
 65 67  2  0
 66 65  1  0
 68 66  1  0
 69 78  2  0
 69 74  1  0
 70 66  1  0
 70 74  1  0
 71 70  1  0
 72 73  1  0
 72 71  1  0
 73 69  1  0
 74 75  2  0
 75 76  1  0
 77 76  2  0
 78 77  1  0
 79 53  1  0
 79 80  1  0
 79 89  1  0
 80 83  1  0
 81 85  1  0
 81 80  1  0
 82 81  2  0
 85 84  1  0
 87 85  1  0
 87 88  1  0
 87 86  1  0
 89 92  1  1
 89 90  1  0
 91 89  1  0
M  ISO  4  13 100  21 100  51 101  52 101
M  END
>  <TORSDO>  (95) 
F 21

>  <SCORE>  (95) 
-13.568

>  <name>  (95) 
95

>  <ligand_id>  (95) 
95

>  <original_smiles>  (95) 
[H]c1c([H])c([H])c2c(c1[H])C([H])([H])C([H])([H])C([H])([H])C2([H])N([H])C(=O)C1([H])N(C(=O)C([H])(N([H])C(=O)C([H])(N([H])C([H])([H])[H])C([H])([H])[H])C(C([H])([H])[H])(C([H])([H])[H])C([H])([H])[H])C([H])([H])c2c([H])c(OC([H])([H])C3([H])C([H])([H])C([H])([H])C([H])([N+]([H])([H])C([H])([H])C([H])([H])C([H])([H])N([H])C(=O)N4C([H])([H])C([H])([H])C([H])([H])C([H])(n5nc(-c6c([H])c([H])c(Oc7c([H])c([H])c(F)c([H])c7F)c([H])c6[H])c(C(=O)N([H])[H])c5N([H])[H])C4([H])[H])C([H])([H])C3([H])[H])c([H])c([H])c2C1([H])[H]

>  <smiles>  (95) 
[H]c1c([H])c([H])c2c(c1[H])C([H])([H])C([H])([H])C([H])([H])C2([H])N([H])C(=O)C1([H])N(C(=O)C([H])(N([H])C(=O)C([H])(N([H])C([H])([H])[H])C([H])([H])[H])C(C([H])([H])[H])(C([H])([H])[H])C([H])([H])[H])C([H])([H])c2c([H])c(OC([H])([H])C3([H])C([H])([H])C([H])([H])C([H])([N+]([H])([H])C([H])([H])C([H])([H])C([H])([H])N([H])C(=O)N4C([H])([H])C([H])([H])C([H])([H])C([H])(n5nc(-c6c([H])c([H])c(Oc7c([H])c([H])c(F)c([H])c7F)c([H])c6[H])c(C(=O)N([H])[H])c5N([H])[H])C4([H])[H])C([H])([H])C3([H])[H])c([H])c([H])c2C1([H])[H]

$$$$
96:0:0
     RDKit          3D

 90 98  0  0  1  0  0  0  0  0999 V2000
  -29.8500  -21.4120   20.5870 C   0  0  0  0  0  2  0  0  0  0  0  0
  -29.8340  -20.6410   22.9480 C   0  0  0  0  0  1  0  0  0  0  0  0
  -29.4690  -20.2980   21.5460 N   0  0  2  0  0  4  0  0  0  0  0  0
  -28.4590  -20.3100   21.5380 H   0  0  0  0  0  0  0  0  0  0  0  0
  -31.1190  -14.8360   20.0340 C   0  0  0  0  0  0  0  0  0  0  0  0
  -30.7190  -12.6530   18.9170 C   0  0  0  0  0  2  0  0  0  0  0  0
  -29.7370  -12.8100   17.7400 C   0  0  0  0  0  2  0  0  0  0  0  0
  -28.2860  -12.6520   18.2310 C   0  0  0  0  0  2  0  0  0  0  0  0
  -27.9860  -13.5150   19.4840 C   0  0  0  0  0  3  0  0  0  0  0  0
  -29.0920  -13.3810   20.5570 C   0  0  0  0  0  2  0  0  0  0  0  0
  -30.3810  -13.6850   19.9190 N   0  0  0  0  0  0  0  0  0  0  0  0
  -32.2780  -14.8780   19.6100 O   0  0  0  0  0  0  0  0  0  0  0  0
  -31.2430  -18.3510   21.4660 C   0  0  0  0  0  2  0  0  0  0  0  0
  -29.3440  -18.2170   19.9360 C   0  0  0  0  0  2  0  0  0  0  0  0
  -31.3420  -16.7910   21.5560 C   0  0  0  0  0  2  0  0  0  0  0  0
  -29.3820  -16.6480   19.9630 C   0  0  0  0  0  2  0  0  0  0  0  0
  -29.7930  -18.8300   21.2710 C   0  0  0  0  0  3  0  0  0  0  0  0
  -30.5600  -15.9750   20.5820 N   0  0  0  0  0  0  0  0  0  0  0  0
  -25.6400  -14.1480   20.3130 C   0  0  0  0  0  0  0  0  0  0  0  0
  -24.5770  -13.3880   20.7130 C   0  0  0  0  0  0  0  0  0  0  0  0
  -25.0140  -12.0290   20.6430 C   0  0  0  0  0  0  0  0  0  0  0  0
  -26.6590  -13.2530   20.0250 N   0  0  0  0  0  0  0  0  0  0  0  0
  -26.2910  -11.9730   20.2860 N   0  0  0  0  0  0  0  0  0  0  0  0
  -24.2750  -10.7770   20.8380 C   0  0  0  0  0  0  0  0  0  0  0  0
  -24.6690   -9.8300   21.8090 C   0  0  0  0  0  3  0  0  0  0  0  0
  -23.9300   -8.6410   21.9900 C   0  0  0  0  0  3  0  0  0  0  0  0
  -22.7830   -8.3910   21.1990 C   0  0  0  0  0  0  0  0  0  0  0  0
  -22.4080   -9.3270   20.2190 C   0  0  0  0  0  3  0  0  0  0  0  0
  -23.1480  -10.5070   20.0360 C   0  0  0  0  0  3  0  0  0  0  0  0
  -22.0190   -7.2530   21.2890 O   0  0  0  0  0  0  0  0  0  0  0  0
  -21.8610   -6.5860   22.4760 C   0  0  0  0  0  0  0  0  0  0  0  0
  -21.2940   -7.2050   23.6100 C   0  0  0  0  0  3  0  0  0  0  0  0
  -21.0850   -6.4610   24.7880 C   0  0  0  0  0  3  0  0  0  0  0  0
  -21.4330   -5.0980   24.8330 C   0  0  0  0  0  0  0  0  0  0  0  0
  -21.9930   -4.4770   23.7020 C   0  0  0  0  0  3  0  0  0  0  0  0
  -22.2030   -5.2190   22.5260 C   0  0  0  0  0  0  0  0  0  0  0  0
  -22.7240   -4.6110   21.4330 F   0  0  0  0  0  0  0  0  0  0  0  0
  -21.2250   -4.3810   25.9610 F   0  0  0  0  0  0  0  0  0  0  0  0
  -23.2000  -13.8840   21.0440 C   0  0  0  0  0  0  0  0  0  0  0  0
  -22.4960  -13.1910   21.9320 N   0  0  0  0  0  0  0  0  0  0  0  0
  -22.7580  -14.9210   20.5500 O   0  0  0  0  0  0  0  0  0  0  0  0
  -22.8660  -12.3520   22.3520 H   0  0  0  0  0  0  0  0  0  0  0  0
  -21.5730  -13.5050   22.1960 H   0  0  0  0  0  0  0  0  0  0  0  0
  -25.8160  -15.5180   20.1450 N   0  0  0  0  0  0  0  0  0  0  0  0
  -25.0540  -16.1740   20.2770 H   0  0  0  0  0  0  0  0  0  0  0  0
  -26.6420  -15.9440   19.7460 H   0  0  0  0  0  0  0  0  0  0  0  0
  -28.9310  -22.7120   20.7110 C   0  0  0  0  0  2  0  0  0  0  0  0
  -29.4340  -24.1520   20.2720 C   0  0  0  0  0  2  0  0  0  0  0  0
  -28.3040  -25.2530   20.3650 C   0  0  0  0  0  2  0  0  0  0  0  0
  -28.5680  -26.6840   20.1100 O   0  0  0  0  0  0  0  0  0  0  0  0
  -24.6540  -31.8590   23.2400 C   0  0  0  0  0  0  0  0  0  0  0  0
  -27.4320  -27.5030   20.0680 C   0  0  0  0  0  0  0  0  0  0  0  0
  -23.5060  -30.4740   21.5500 C   0  0  0  0  0  3  0  0  0  0  0  0
  -25.0150  -29.0240   20.0880 C   0  0  0  0  0  0  0  0  0  0  0  0
  -26.0340  -30.8850   21.3960 C   0  0  0  0  0  2  0  0  0  0  0  0
  -26.1630  -29.5340   20.7090 C   0  0  0  0  0  0  0  0  0  0  0  0
  -27.3760  -28.7850   20.6910 C   0  0  0  0  0  3  0  0  0  0  0  0
  -26.2630  -27.0570   19.4060 C   0  0  0  0  0  3  0  0  0  0  0  0
  -25.0660  -27.7910   19.4280 C   0  0  0  0  0  3  0  0  0  0  0  0
  -23.7500  -29.8520   20.1520 C   0  0  0  0  0  2  0  0  0  0  0  0
  -24.7490  -31.0880   22.1200 N   0  0  0  0  0  0  0  0  0  0  0  0
  -23.5590  -32.0850   23.7750 O   0  0  0  0  0  0  0  0  0  0  0  0
  -22.8740  -29.4050   22.4730 C   0  0  0  0  0  0  0  0  0  0  0  0
  -21.5620  -29.1660   22.3090 N   0  0  0  0  0  0  0  0  0  0  0  0
  -23.5630  -28.7930   23.2930 O   0  0  0  0  0  0  0  0  0  0  0  0
  -21.0640  -29.7130   21.6200 H   0  0  0  0  0  0  0  0  0  0  0  0
  -18.2400  -27.7800   22.6730 C   0  0  0  0  0  0  0  0  0  0  0  0
  -20.7690  -28.1770   23.0400 C   0  0  0  0  0  3  0  0  0  0  0  0
  -20.9700  -26.7590   22.4570 C   0  0  0  0  0  2  0  0  0  0  0  0
  -19.9260  -26.3860   21.4010 C   0  0  0  0  0  2  0  0  0  0  0  0
  -18.5160  -26.4490   21.9940 C   0  0  0  0  0  2  0  0  0  0  0  0
  -19.2990  -28.5990   23.1510 C   0  0  0  0  0  0  0  0  0  0  0  0
  -18.9900  -29.8420   23.7430 C   0  0  0  0  0  3  0  0  0  0  0  0
  -17.6550  -30.2690   23.8650 C   0  0  0  0  0  3  0  0  0  0  0  0
  -16.6100  -29.4490   23.4050 C   0  0  0  0  0  3  0  0  0  0  0  0
  -16.9030  -28.2070   22.8140 C   0  0  0  0  0  3  0  0  0  0  0  0
  -25.9130  -32.5120   23.8890 C   0  0  0  0  0  3  0  0  0  0  0  0
  -26.4190  -31.7420   25.1710 C   0  0  1  0  0  0  0  0  0  0  0  0
  -25.3090  -31.4730   26.2130 C   0  0  0  0  0  1  0  0  0  0  0  0
  -27.0420  -30.3800   24.7830 C   0  0  0  0  0  1  0  0  0  0  0  0
  -27.5370  -32.5580   25.8630 C   0  0  0  0  0  1  0  0  0  0  0  0
  -25.5690  -33.9020   24.2220 N   0  0  0  0  0  0  0  0  0  0  0  0
  -25.9140  -34.9660   23.4860 C   0  0  0  0  0  0  0  0  0  0  0  0
  -26.6220  -34.8850   22.4790 O   0  0  0  0  0  0  0  0  0  0  0  0
  -24.9450  -34.0380   25.0030 H   0  0  0  0  0  0  0  0  0  0  0  0
  -24.1790  -36.7410   23.0790 C   0  0  0  0  0  1  0  0  0  0  0  0
  -25.3870  -36.3420   23.9390 C   0  0  0  0  0  3  0  0  0  0  0  0
  -27.4680  -37.2450   24.8800 C   0  0  0  0  0  1  0  0  0  0  0  0
  -26.4100  -37.4090   23.8850 N   0  0  0  0  0  0  0  0  0  0  0  0
  -25.9850  -38.3220   24.0230 H   0  0  0  0  0  0  0  0  0  0  0  0
  1 47  1  0
  1  3  1  0
  3  2  1  0
  3  4  1  1
  5 18  1  0
  6 11  1  0
  7  8  1  0
  7  6  1  0
  9  8  1  0
  9 22  1  0
  9 10  1  0
 11  5  1  0
 11 10  1  0
 12  5  2  0
 13 15  1  0
 14 16  1  0
 14 17  1  0
 16 18  1  0
 17 13  1  0
 17  3  1  0
 18 15  1  0
 19 20  2  0
 20 39  1  0
 21 20  1  0
 21 24  1  0
 22 23  1  0
 22 19  1  0
 23 21  2  0
 24 25  1  0
 25 26  2  0
 27 30  1  0
 27 26  1  0
 28 27  2  0
 29 28  1  0
 29 24  2  0
 30 31  1  0
 31 36  2  0
 31 32  1  0
 32 33  2  0
 33 34  1  0
 34 38  1  0
 35 34  2  0
 36 35  1  0
 37 36  1  0
 39 40  1  0
 40 43  1  0
 40 42  1  0
 41 39  2  0
 44 45  1  0
 44 19  1  0
 46 44  1  0
 48 49  1  0
 48 47  1  0
 50 49  1  0
 51 62  2  0
 52 50  1  0
 52 57  1  0
 53 61  1  0
 53 63  1  0
 54 60  1  0
 54 56  1  0
 55 61  1  0
 56 55  1  0
 57 56  2  0
 58 59  1  0
 58 52  2  0
 59 54  2  0
 60 53  1  0
 61 51  1  0
 63 65  2  0
 64 63  1  0
 66 64  1  0
 67 76  2  0
 67 72  1  0
 68 64  1  0
 68 72  1  0
 69 68  1  0
 70 71  1  0
 70 69  1  0
 71 67  1  0
 72 73  2  0
 73 74  1  0
 75 74  2  0
 76 75  1  0
 77 51  1  0
 77 82  1  0
 77 78  1  0
 78 81  1  1
 78 79  1  0
 80 78  1  0
 82 85  1  0
 83 87  1  0
 83 82  1  0
 84 83  2  0
 87 86  1  0
 89 87  1  0
 89 90  1  0
 89 88  1  0
M  ISO  4   5 100  18 100  49 101  50 101
M  END
>  <TORSDO>  (96) 
F 20

>  <SCORE>  (96) 
-12.806

>  <name>  (96) 
96

>  <ligand_id>  (96) 
96

>  <original_smiles>  (96) 
[H]c1c([H])c([H])c2c(c1[H])C([H])([H])C([H])([H])C([H])([H])C2([H])N([H])C(=O)C1([H])N(C(=O)C([H])(N([H])C(=O)C([H])(N([H])C([H])([H])[H])C([H])([H])[H])C(C([H])([H])[H])(C([H])([H])[H])C([H])([H])[H])C([H])([H])c2c([H])c(OC([H])([H])C([H])([H])C([H])([H])C([H])([H])[N+]([H])(C([H])([H])[H])C3([H])C([H])([H])C([H])([H])N(C(=O)N4C([H])([H])C([H])([H])C([H])([H])C([H])(n5nc(-c6c([H])c([H])c(Oc7c([H])c([H])c(F)c([H])c7F)c([H])c6[H])c(C(=O)N([H])[H])c5N([H])[H])C4([H])[H])C([H])([H])C3([H])[H])c([H])c([H])c2C1([H])[H]

>  <smiles>  (96) 
[H]c1c([H])c([H])c2c(c1[H])C([H])([H])C([H])([H])C([H])([H])C2([H])N([H])C(=O)C1([H])N(C(=O)C([H])(N([H])C(=O)C([H])(N([H])C([H])([H])[H])C([H])([H])[H])C(C([H])([H])[H])(C([H])([H])[H])C([H])([H])[H])C([H])([H])c2c([H])c(OC([H])([H])C([H])([H])C([H])([H])C([H])([H])[N+]([H])(C([H])([H])[H])C3([H])C([H])([H])C([H])([H])N(C(=O)N4C([H])([H])C([H])([H])C([H])([H])C([H])(n5nc(-c6c([H])c([H])c(Oc7c([H])c([H])c(F)c([H])c7F)c([H])c6[H])c(C(=O)N([H])[H])c5N([H])[H])C4([H])[H])C([H])([H])C3([H])[H])c([H])c([H])c2C1([H])[H]

$$$$
97:0:0
     RDKit          3D

101109  0  0  1  0  0  0  0  0999 V2000
  -29.0110  -20.6490   19.7750 C   0  0  0  0  0  3  0  0  0  0  0  0
  -29.1630  -19.2550   19.9590 C   0  0  0  0  0  3  0  0  0  0  0  0
  -30.3980  -21.0490   21.7130 C   0  0  0  0  0  3  0  0  0  0  0  0
  -29.5500  -21.5680   20.7040 C   0  0  0  0  0  0  0  0  0  0  0  0
  -29.8470  -18.7450   21.0860 C   0  0  0  0  0  0  0  0  0  0  0  0
  -30.5310  -19.6610   21.9270 C   0  0  0  0  0  0  0  0  0  0  0  0
  -27.5350  -23.0220   20.9580 C   0  0  0  0  0  1  0  0  0  0  0  0
  -29.6820  -23.8360   21.8960 C   0  0  0  0  0  1  0  0  0  0  0  0
  -29.0630  -23.0410   20.7220 C   0  0  1  0  0  0  0  0  0  0  0  0
  -28.6260  -24.6980   18.8010 C   0  0  0  0  0  3  0  0  0  0  0  0
  -29.4270  -23.8310   19.4600 C   0  0  0  0  0  3  0  0  0  0  0  0
  -29.0450  -25.5560   17.6170 C   0  0  0  0  0  2  0  0  0  0  0  0
  -28.8530  -26.9550   17.8800 O   0  0  0  0  0  0  0  0  0  0  0  0
  -24.9220  -30.4310   22.6950 C   0  0  0  0  0  0  0  0  0  0  0  0
  -27.6010  -27.4540   18.1910 C   0  0  0  0  0  0  0  0  0  0  0  0
  -23.6740  -29.4530   20.7970 C   0  0  0  0  0  3  0  0  0  0  0  0
  -25.0910  -28.5990   18.8600 C   0  0  0  0  0  0  0  0  0  0  0  0
  -26.1200  -30.1520   20.5230 C   0  0  0  0  0  2  0  0  0  0  0  0
  -26.2560  -29.0540   19.4870 C   0  0  0  0  0  0  0  0  0  0  0  0
  -27.5080  -28.4920   19.1490 C   0  0  0  0  0  3  0  0  0  0  0  0
  -26.4040  -26.9980   17.5810 C   0  0  0  0  0  3  0  0  0  0  0  0
  -25.1610  -27.5700   17.9070 C   0  0  0  0  0  3  0  0  0  0  0  0
  -23.7880  -29.2540   19.2640 C   0  0  0  0  0  2  0  0  0  0  0  0
  -24.9290  -30.0110   21.3980 N   0  0  0  0  0  0  0  0  0  0  0  0
  -23.8870  -30.3980   23.3740 O   0  0  0  0  0  0  0  0  0  0  0  0
  -23.2270  -28.1200   21.4390 C   0  0  0  0  0  0  0  0  0  0  0  0
  -21.9680  -27.7240   21.1870 N   0  0  0  0  0  0  0  0  0  0  0  0
  -24.0100  -27.4550   22.1210 O   0  0  0  0  0  0  0  0  0  0  0  0
  -21.3810  -28.3300   20.6300 H   0  0  0  0  0  0  0  0  0  0  0  0
  -18.9860  -25.7000   20.9540 C   0  0  0  0  0  0  0  0  0  0  0  0
  -21.3470  -26.4860   21.6580 C   0  0  0  0  0  3  0  0  0  0  0  0
  -21.8780  -25.2640   20.8730 C   0  0  0  0  0  2  0  0  0  0  0  0
  -21.0120  -24.9040   19.6610 C   0  0  0  0  0  2  0  0  0  0  0  0
  -19.5780  -24.5920   20.1000 C   0  0  0  0  0  2  0  0  0  0  0  0
  -19.8180  -26.5990   21.6740 C   0  0  0  0  0  0  0  0  0  0  0  0
  -19.2170  -27.6360   22.4220 C   0  0  0  0  0  3  0  0  0  0  0  0
  -17.8170  -27.7750   22.4630 C   0  0  0  0  0  3  0  0  0  0  0  0
  -16.9990  -26.8720   21.7630 C   0  0  0  0  0  3  0  0  0  0  0  0
  -17.5850  -25.8360   21.0130 C   0  0  0  0  0  3  0  0  0  0  0  0
  -26.2060  -30.9960   23.3790 C   0  0  0  0  0  3  0  0  0  0  0  0
  -26.8210  -30.0180   24.4550 C   0  0  1  0  0  0  0  0  0  0  0  0
  -25.7910  -29.5070   25.4890 C   0  0  0  0  0  1  0  0  0  0  0  0
  -27.4480  -28.7840   23.7670 C   0  0  0  0  0  1  0  0  0  0  0  0
  -27.9620  -30.7290   25.2210 C   0  0  0  0  0  1  0  0  0  0  0  0
  -25.8530  -32.2850   23.9870 N   0  0  0  0  0  0  0  0  0  0  0  0
  -26.1600  -33.4800   23.4670 C   0  0  0  0  0  0  0  0  0  0  0  0
  -26.8420  -33.6120   22.4460 O   0  0  0  0  0  0  0  0  0  0  0  0
  -25.2480  -32.2560   24.7950 H   0  0  0  0  0  0  0  0  0  0  0  0
  -24.3920  -35.2680   23.4510 C   0  0  0  0  0  1  0  0  0  0  0  0
  -25.6260  -34.7280   24.1930 C   0  0  0  0  0  3  0  0  0  0  0  0
  -27.7130  -35.4660   25.2550 C   0  0  0  0  0  1  0  0  0  0  0  0
  -26.6310  -35.8040   24.3350 N   0  0  0  0  0  0  0  0  0  0  0  0
  -26.1970  -36.6640   24.6610 H   0  0  0  0  0  0  0  0  0  0  0  0
  -29.5050  -17.3250   21.5590 C   0  0  0  0  0  2  0  0  0  0  0  0
  -31.3150  -15.7580   22.4990 C   0  0  0  0  0  1  0  0  0  0  0  0
  -30.3670  -16.0490   21.3070 C   0  0  0  0  0  3  0  0  0  0  0  0
  -31.6830  -14.8150   19.4860 C   0  0  0  0  0  0  0  0  0  0  0  0
  -31.4060  -12.5310   18.5670 C   0  0  0  0  0  2  0  0  0  0  0  0
  -30.3130  -12.5280   17.4740 C   0  0  0  0  0  2  0  0  0  0  0  0
  -28.8870  -12.4260   18.0600 C   0  0  0  0  0  2  0  0  0  0  0  0
  -28.6650  -13.3800   19.2660 C   0  0  0  0  0  3  0  0  0  0  0  0
  -29.8390  -13.1790   20.2420 C   0  0  0  0  0  2  0  0  0  0  0  0
  -31.0720  -13.5890   19.5440 N   0  0  0  0  0  0  0  0  0  0  0  0
  -32.6880  -14.9990   18.7900 O   0  0  0  0  0  0  0  0  0  0  0  0
  -31.0780  -15.9060   20.0270 N   0  0  0  0  0  0  0  0  0  0  0  0
  -31.4590  -16.7750   19.6830 H   0  0  0  0  0  0  0  0  0  0  0  0
  -26.4160  -14.0760   20.3180 C   0  0  0  0  0  0  0  0  0  0  0  0
  -25.3620  -13.3400   20.7900 C   0  0  0  0  0  0  0  0  0  0  0  0
  -25.7350  -11.9720   20.6280 C   0  0  0  0  0  0  0  0  0  0  0  0
  -27.3710  -13.1560   19.9070 N   0  0  0  0  0  0  0  0  0  0  0  0
  -26.9670  -11.8820   20.1430 N   0  0  0  0  0  0  0  0  0  0  0  0
  -24.9700  -10.7390   20.8550 C   0  0  0  0  0  0  0  0  0  0  0  0
  -25.3140   -9.8350   21.8840 C   0  0  0  0  0  3  0  0  0  0  0  0
  -24.5540   -8.6640   22.0890 C   0  0  0  0  0  3  0  0  0  0  0  0
  -23.4360   -8.3890   21.2660 C   0  0  0  0  0  0  0  0  0  0  0  0
  -23.1130   -9.2810   20.2280 C   0  0  0  0  0  3  0  0  0  0  0  0
  -23.8760  -10.4430   20.0210 C   0  0  0  0  0  3  0  0  0  0  0  0
  -22.6560   -7.2660   21.3780 O   0  0  0  0  0  0  0  0  0  0  0  0
  -22.2040   -6.8220   22.5950 C   0  0  0  0  0  0  0  0  0  0  0  0
  -21.4520   -7.6500   23.4570 C   0  0  0  0  0  3  0  0  0  0  0  0
  -20.9440   -7.1320   24.6650 C   0  0  0  0  0  3  0  0  0  0  0  0
  -21.1800   -5.7890   25.0120 C   0  0  0  0  0  0  0  0  0  0  0  0
  -21.9240   -4.9610   24.1530 C   0  0  0  0  0  3  0  0  0  0  0  0
  -22.4310   -5.4760   22.9480 C   0  0  0  0  0  0  0  0  0  0  0  0
  -23.1290   -4.6680   22.1140 F   0  0  0  0  0  0  0  0  0  0  0  0
  -20.6870   -5.2900   26.1710 F   0  0  0  0  0  0  0  0  0  0  0  0
  -24.0430  -13.8710   21.2750 C   0  0  0  0  0  0  0  0  0  0  0  0
  -23.4350  -13.2130   22.2570 N   0  0  0  0  0  0  0  0  0  0  0  0
  -23.5630  -14.9070   20.8170 O   0  0  0  0  0  0  0  0  0  0  0  0
  -23.8320  -12.3740   22.6560 H   0  0  0  0  0  0  0  0  0  0  0  0
  -22.5550  -13.5550   22.6160 H   0  0  0  0  0  0  0  0  0  0  0  0
  -26.6300  -15.4460   20.1940 N   0  0  0  0  0  0  0  0  0  0  0  0
  -25.9150  -16.1230   20.4420 H   0  0  0  0  0  0  0  0  0  0  0  0
  -27.4490  -15.8720   19.7810 H   0  0  0  0  0  0  0  0  0  0  0  0
  -31.2970  -19.2100   23.1600 C   0  0  0  0  0  2  0  0  0  0  0  0
  -30.5800  -19.5930   24.4700 C   0  0  0  0  0  2  0  0  0  0  0  0
  -30.0400  -18.3690   25.2280 C   0  0  0  0  0  2  0  0  0  0  0  0
  -27.7160  -17.9080   25.9050 C   0  0  0  0  0  1  0  0  0  0  0  0
  -29.3230  -18.7210   27.5740 C   0  0  0  0  0  1  0  0  0  0  0  0
  -28.9290  -18.7230   26.1460 N   0  0  1  0  0  4  0  0  0  0  0  0
  -28.6610  -19.6690   25.9210 H   0  0  0  0  0  0  0  0  0  0  0  0
  1  2  2  0
  1  4  1  0
  2  5  1  0
  3  6  1  0
  4  9  1  0
  4  3  2  0
  5 54  1  0
  5  6  2  0
  6 95  1  0
  9  7  1  1
  9  8  1  0
 10 11  2  0
 11  9  1  0
 12 13  1  0
 12 10  1  0
 13 15  1  0
 14 25  2  0
 15 20  1  0
 16 24  1  0
 16 26  1  0
 17 23  1  0
 17 19  1  0
 18 24  1  0
 19 18  1  0
 20 19  2  0
 21 22  1  0
 21 15  2  0
 22 17  2  0
 23 16  1  0
 24 14  1  0
 26 28  2  0
 27 26  1  0
 29 27  1  0
 30 39  2  0
 30 35  1  0
 31 27  1  0
 31 35  1  0
 32 31  1  0
 33 34  1  0
 33 32  1  0
 34 30  1  0
 35 36  2  0
 36 37  1  0
 38 37  2  0
 39 38  1  0
 40 14  1  0
 40 45  1  0
 40 41  1  0
 41 44  1  1
 41 42  1  0
 43 41  1  0
 45 48  1  0
 46 45  1  0
 46 50  1  0
 47 46  2  0
 50 49  1  0
 50 52  1  0
 52 53  1  0
 52 51  1  0
 56 54  1  0
 56 55  1  0
 57 63  1  0
 57 65  1  0
 58 63  1  0
 59 60  1  0
 59 58  1  0
 61 60  1  0
 61 70  1  0
 61 62  1  0
 63 62  1  0
 64 57  2  0
 65 56  1  0
 66 65  1  0
 67 68  2  0
 68 87  1  0
 69 68  1  0
 69 72  1  0
 70 71  1  0
 70 67  1  0
 71 69  2  0
 72 73  1  0
 73 74  2  0
 75 78  1  0
 75 74  1  0
 76 75  2  0
 77 76  1  0
 77 72  2  0
 78 79  1  0
 79 84  2  0
 79 80  1  0
 80 81  2  0
 81 82  1  0
 82 86  1  0
 83 82  2  0
 84 83  1  0
 85 84  1  0
 87 88  1  0
 88 91  1  0
 88 90  1  0
 89 87  2  0
 92 67  1  0
 92 93  1  0
 94 92  1  0
 95 96  1  0
 96 97  1  0
 97100  1  0
 98100  1  0
100 99  1  0
100101  1  6
M  ISO  4  12 101  13 101  57 100  65 100
M  END
>  <TORSDO>  (97) 
F 25

>  <SCORE>  (97) 
3.077

>  <name>  (97) 
97

>  <ligand_id>  (97) 
97

>  <original_smiles>  (97) 
[H]C(=C([H])C(c1c([H])c([H])c(C([H])([H])C([H])(N([H])C(=O)N2C([H])([H])C([H])([H])C([H])([H])C([H])(n3nc(-c4c([H])c([H])c(Oc5c([H])c([H])c(F)c([H])c5F)c([H])c4[H])c(C(=O)N([H])[H])c3N([H])[H])C2([H])[H])C([H])([H])[H])c(C([H])([H])C([H])([H])C([H])([H])[N+]([H])(C([H])([H])[H])C([H])([H])[H])c1[H])(C([H])([H])[H])C([H])([H])[H])C([H])([H])Oc1c([H])c([H])c2c(c1[H])C([H])([H])N(C(=O)C([H])(N([H])C(=O)C([H])(N([H])C([H])([H])[H])C([H])([H])[H])C(C([H])([H])[H])(C([H])([H])[H])C([H])([H])[H])C([H])(C(=O)N([H])C1([H])c3c([H])c([H])c([H])c([H])c3C([H])([H])C([H])([H])C1([H])[H])C2([H])[H]

>  <smiles>  (97) 
[H]C(=C([H])C(c1c([H])c([H])c(C([H])([H])C([H])(N([H])C(=O)N2C([H])([H])C([H])([H])C([H])([H])C([H])(n3nc(-c4c([H])c([H])c(Oc5c([H])c([H])c(F)c([H])c5F)c([H])c4[H])c(C(=O)N([H])[H])c3N([H])[H])C2([H])[H])C([H])([H])[H])c(C([H])([H])C([H])([H])C([H])([H])[N+]([H])(C([H])([H])[H])C([H])([H])[H])c1[H])(C([H])([H])[H])C([H])([H])[H])C([H])([H])Oc1c([H])c([H])c2c(c1[H])C([H])([H])N(C(=O)C([H])(N([H])C(=O)C([H])(N([H])C([H])([H])[H])C([H])([H])[H])C(C([H])([H])[H])(C([H])([H])[H])C([H])([H])[H])C([H])(C(=O)N([H])C1([H])c3c([H])c([H])c([H])c([H])c3C([H])([H])C([H])([H])C1([H])[H])C2([H])[H]

$$$$
