0:0:0
     RDKit          3D

 88 95  0  0  1  0  0  0  0  0999 V2000
  -28.6290  -22.5130   19.9230 C   0  0  1  0  0  0  0  0  0  0  0  0
  -28.0260  -21.8890   17.4690 C   0  0  0  0  0  1  0  0  0  0  0  0
  -26.3640  -23.2080   18.7740 C   0  0  0  0  0  1  0  0  0  0  0  0
  -27.4860  -22.1590   18.8980 C   0  0  0  0  0  3  0  0  0  0  0  0
  -26.8310  -21.8990   21.7900 C   0  0  0  0  0  1  0  0  0  0  0  0
  -28.1120  -22.6550   21.3860 C   0  0  0  0  0  2  0  0  0  0  0  0
  -29.6340  -20.8670   19.7990 C   0  0  0  0  0  2  0  0  0  0  0  0
  -30.1760  -19.0670   20.2510 C   0  0  0  0  0  2  0  0  0  0  0  0
  -30.6340  -15.9860   19.9700 C   0  0  0  0  0  0  0  0  0  0  0  0
  -30.6920  -13.4650   19.1100 C   0  0  0  0  0  2  0  0  0  0  0  0
  -29.7540  -13.0670   17.9380 C   0  0  0  0  0  2  0  0  0  0  0  0
  -28.3410  -12.7180   18.4400 C   0  0  0  0  0  2  0  0  0  0  0  0
  -27.8650  -13.7190   19.5140 C   0  0  0  0  0  3  0  0  0  0  0  0
  -28.9370  -14.0120   20.5900 C   0  0  0  0  0  2  0  0  0  0  0  0
  -30.0900  -14.6340   19.8890 N   0  0  0  0  0  0  0  0  0  0  0  0
  -31.8720  -15.9140   19.8360 O   0  0  0  0  0  0  0  0  0  0  0  0
  -28.4430  -17.2690   20.0970 C   0  0  0  0  0  1  0  0  0  0  0  0
  -29.8880  -17.3570   20.0030 N   0  0  0  0  0  0  0  0  0  0  0  0
  -25.5320  -14.2680   20.3750 C   0  0  0  0  0  0  0  0  0  0  0  0
  -24.4760  -13.4870   20.7550 C   0  0  0  0  0  0  0  0  0  0  0  0
  -24.9330  -12.1400   20.6710 C   0  0  0  0  0  0  0  0  0  0  0  0
  -26.5600  -13.3930   20.0700 N   0  0  0  0  0  0  0  0  0  0  0  0
  -26.2150  -12.1020   20.3130 N   0  0  0  0  0  0  0  0  0  0  0  0
  -24.2000  -10.8780   20.8450 C   0  0  0  0  0  0  0  0  0  0  0  0
  -24.6220   -9.9020   21.7720 C   0  0  0  0  0  3  0  0  0  0  0  0
  -23.8860   -8.7090   21.9380 C   0  0  0  0  0  3  0  0  0  0  0  0
  -22.7180   -8.4850   21.1710 C   0  0  0  0  0  0  0  0  0  0  0  0
  -22.3150   -9.4510   20.2330 C   0  0  0  0  0  3  0  0  0  0  0  0
  -23.0520  -10.6350   20.0650 C   0  0  0  0  0  3  0  0  0  0  0  0
  -21.9530   -7.3460   21.2440 O   0  0  0  0  0  0  0  0  0  0  0  0
  -21.8500   -6.6220   22.4040 C   0  0  0  0  0  0  0  0  0  0  0  0
  -21.3260   -7.1830   23.5900 C   0  0  0  0  0  3  0  0  0  0  0  0
  -21.1790   -6.3820   24.7400 C   0  0  0  0  0  3  0  0  0  0  0  0
  -21.5400   -5.0220   24.7050 C   0  0  0  0  0  0  0  0  0  0  0  0
  -22.0590   -4.4630   23.5230 C   0  0  0  0  0  3  0  0  0  0  0  0
  -22.2110   -5.2590   22.3770 C   0  0  0  0  0  0  0  0  0  0  0  0
  -22.6890   -4.7090   21.2340 F   0  0  0  0  0  0  0  0  0  0  0  0
  -21.3900   -4.2530   25.8070 F   0  0  0  0  0  0  0  0  0  0  0  0
  -23.0920  -13.9760   21.0800 C   0  0  0  0  0  0  0  0  0  0  0  0
  -22.3880  -13.2700   21.9560 N   0  0  0  0  0  0  0  0  0  0  0  0
  -22.6520  -15.0150   20.5920 O   0  0  0  0  0  0  0  0  0  0  0  0
  -22.7660  -12.4330   22.3710 H   0  0  0  0  0  0  0  0  0  0  0  0
  -21.4610  -13.5720   22.2160 H   0  0  0  0  0  0  0  0  0  0  0  0
  -25.6830  -15.6380   20.2290 N   0  0  0  0  0  0  0  0  0  0  0  0
  -24.9030  -16.2740   20.3810 H   0  0  0  0  0  0  0  0  0  0  0  0
  -26.5170  -16.1050   19.8990 H   0  0  0  0  0  0  0  0  0  0  0  0
  -28.9070  -24.3730   19.5550 C   0  0  0  0  0  2  0  0  0  0  0  0
  -28.5020  -26.0290   19.9490 O   0  0  0  0  0  0  0  0  0  0  0  0
  -24.6510  -31.9060   23.0650 C   0  0  0  0  0  0  0  0  0  0  0  0
  -27.4330  -27.1350   19.8470 C   0  0  0  0  0  0  0  0  0  0  0  0
  -23.5190  -30.5000   21.3900 C   0  0  0  0  0  3  0  0  0  0  0  0
  -25.0410  -29.0000   19.8930 C   0  0  0  0  0  0  0  0  0  0  0  0
  -26.0790  -30.8020   21.2470 C   0  0  0  0  0  2  0  0  0  0  0  0
  -26.2160  -29.4090   20.5310 C   0  0  0  0  0  0  0  0  0  0  0  0
  -27.3870  -28.4980   20.4890 C   0  0  0  0  0  3  0  0  0  0  0  0
  -26.2110  -26.9300   19.1540 C   0  0  0  0  0  3  0  0  0  0  0  0
  -25.0690  -27.7860   19.1860 C   0  0  0  0  0  3  0  0  0  0  0  0
  -23.7850  -29.8700   19.9920 C   0  0  0  0  0  2  0  0  0  0  0  0
  -24.7680  -31.1050   21.9530 N   0  0  0  0  0  0  0  0  0  0  0  0
  -23.5500  -32.1310   23.5920 O   0  0  0  0  0  0  0  0  0  0  0  0
  -22.8650  -29.4560   22.3350 C   0  0  0  0  0  0  0  0  0  0  0  0
  -21.5360  -29.2610   22.2360 N   0  0  0  0  0  0  0  0  0  0  0  0
  -23.5620  -28.8250   23.1310 O   0  0  0  0  0  0  0  0  0  0  0  0
  -21.0200  -29.8300   21.5810 H   0  0  0  0  0  0  0  0  0  0  0  0
  -18.1940  -27.9490   22.7970 C   0  0  0  0  0  0  0  0  0  0  0  0
  -20.7580  -28.2660   22.9830 C   0  0  0  0  0  3  0  0  0  0  0  0
  -20.8700  -26.8710   22.3310 C   0  0  0  0  0  2  0  0  0  0  0  0
  -19.7410  -26.5750   21.3410 C   0  0  0  0  0  2  0  0  0  0  0  0
  -18.3800  -26.6430   22.0390 C   0  0  0  0  0  2  0  0  0  0  0  0
  -19.3100  -28.7170   23.2260 C   0  0  0  0  0  0  0  0  0  0  0  0
  -19.0840  -29.9330   23.9080 C   0  0  0  0  0  3  0  0  0  0  0  0
  -17.7740  -30.3860   24.1550 C   0  0  0  0  0  3  0  0  0  0  0  0
  -16.6720  -29.6190   23.7380 C   0  0  0  0  0  3  0  0  0  0  0  0
  -16.8860  -28.4000   23.0690 C   0  0  0  0  0  3  0  0  0  0  0  0
  -25.8840  -32.5980   23.7210 C   0  0  0  0  0  3  0  0  0  0  0  0
  -25.5050  -33.9770   24.0900 N   0  0  0  0  0  0  0  0  0  0  0  0
  -25.7890  -35.0730   23.3730 C   0  0  0  0  0  0  0  0  0  0  0  0
  -26.4610  -35.0370   22.3380 O   0  0  0  0  0  0  0  0  0  0  0  0
  -24.9090  -34.0800   24.8990 H   0  0  0  0  0  0  0  0  0  0  0  0
  -23.9880  -36.8160   23.1070 C   0  0  0  0  0  1  0  0  0  0  0  0
  -25.2540  -36.4260   23.8880 C   0  0  0  0  0  3  0  0  0  0  0  0
  -27.3500  -37.3870   24.7400 C   0  0  0  0  0  1  0  0  0  0  0  0
  -26.2400  -37.5280   23.7980 N   0  0  0  0  0  0  0  0  0  0  0  0
  -25.7910  -38.4240   23.9720 H   0  0  0  0  0  0  0  0  0  0  0  0
  -26.4150  -31.8310   24.9950 C   0  0  1  0  0  0  0  0  0  0  0  0
  -25.3240  -31.5440   26.0530 C   0  0  0  0  0  1  0  0  0  0  0  0
  -27.0540  -30.4790   24.6040 C   0  0  0  0  0  1  0  0  0  0  0  0
  -27.5280  -32.6620   25.6800 C   0  0  0  0  0  1  0  0  0  0  0  0
  1 47  1  6
  1  6  1  0
  2  4  1  0
  3  4  1  0
  4  1  1  0
  6  5  1  0
  7  1  1  0
  7  8  1  0
  9 18  1  0
 10 15  1  0
 11 12  1  0
 11 10  1  0
 13 12  1  0
 13 22  1  0
 13 14  1  0
 15  9  1  0
 15 14  1  0
 16  9  2  0
 18 17  1  0
 18  8  1  0
 19 20  2  0
 20 39  1  0
 21 20  1  0
 21 24  1  0
 22 23  1  0
 22 19  1  0
 23 21  2  0
 24 25  1  0
 25 26  2  0
 27 30  1  0
 27 26  1  0
 28 27  2  0
 29 28  1  0
 29 24  2  0
 30 31  1  0
 31 32  1  0
 32 33  2  0
 34 33  1  0
 34 38  1  0
 35 34  2  0
 36 31  2  0
 36 35  1  0
 37 36  1  0
 39 40  1  0
 40 43  1  0
 40 42  1  0
 41 39  2  0
 44 19  1  0
 44 45  1  0
 46 44  1  0
 47 48  1  0
 49 60  2  0
 50 48  1  0
 50 55  1  0
 51 59  1  0
 51 61  1  0
 52 58  1  0
 52 54  1  0
 53 59  1  0
 54 53  1  0
 55 54  2  0
 56 57  1  0
 56 50  2  0
 57 52  2  0
 58 51  1  0
 59 49  1  0
 61 63  2  0
 62 61  1  0
 64 62  1  0
 65 74  2  0
 65 70  1  0
 66 62  1  0
 66 70  1  0
 67 66  1  0
 68 69  1  0
 68 67  1  0
 69 65  1  0
 70 71  2  0
 71 72  1  0
 73 72  2  0
 74 73  1  0
 75 49  1  0
 75 76  1  0
 75 85  1  0
 76 79  1  0
 77 81  1  0
 77 76  1  0
 78 77  2  0
 81 80  1  0
 83 81  1  0
 83 84  1  0
 83 82  1  0
 85 88  1  1
 85 86  1  0
 87 85  1  0
M  ISO  4   9 100  18 100  47 101  48 101
M  END
>  <TORSDO>  (1) 
F 21

>  <SCORE>  (1) 
-13.620

>  <name>  (1) 
0

>  <ligand_id>  (1) 
0

>  <original_smiles>  (1) 
[H]c1c([H])c([H])c2c(c1[H])C([H])([H])C([H])([H])C([H])([H])C2([H])N([H])C(=O)C1([H])N(C(=O)C([H])(N([H])C(=O)C([H])(N([H])C([H])([H])[H])C([H])([H])[H])C(C([H])([H])[H])(C([H])([H])[H])C([H])([H])[H])C([H])([H])c2c([H])c(OC([H])([H])C(C([H])([H])C([H])([H])[H])(C([H])([H])C([H])([H])N(C(=O)N3C([H])([H])C([H])([H])C([H])([H])C([H])(n4nc(-c5c([H])c([H])c(Oc6c([H])c([H])c(F)c([H])c6F)c([H])c5[H])c(C(=O)N([H])[H])c4N([H])[H])C3([H])[H])C([H])([H])[H])C([H])(C([H])([H])[H])C([H])([H])[H])c([H])c([H])c2C1([H])[H]

>  <smiles>  (1) 
[H]c1c([H])c([H])c2c(c1[H])C([H])([H])C([H])([H])C([H])([H])C2([H])N([H])C(=O)C1([H])N(C(=O)C([H])(N([H])C(=O)C([H])(N([H])C([H])([H])[H])C([H])([H])[H])C(C([H])([H])[H])(C([H])([H])[H])C([H])([H])[H])C([H])([H])c2c([H])c(OC([H])([H])C(C([H])([H])C([H])([H])[H])(C([H])([H])C([H])([H])N(C(=O)N3C([H])([H])C([H])([H])C([H])([H])C([H])(n4nc(-c5c([H])c([H])c(Oc6c([H])c([H])c(F)c([H])c6F)c([H])c5[H])c(C(=O)N([H])[H])c4N([H])[H])C3([H])[H])C([H])([H])[H])C([H])(C([H])([H])[H])C([H])([H])[H])c([H])c([H])c2C1([H])[H]

$$$$
1:0:0
     RDKit          3D

 89 97  0  0  1  0  0  0  0  0999 V2000
  -28.4780  -21.0970   20.8990 C   0  0  0  0  0  3  0  0  0  0  0  0
  -29.8920  -21.8540   19.5170 C   0  0  0  0  0  3  0  0  0  0  0  0
  -29.6300  -20.5640   20.1930 C   0  0  0  0  0  0  0  0  0  0  0  0
  -28.1360  -22.4500   20.6400 C   0  0  0  0  0  0  0  0  0  0  0  0
  -29.0190  -23.0840   19.7350 N   0  0  0  0  0  0  0  0  0  0  0  0
  -26.7660  -23.1360   22.6840 C   0  0  0  0  0  1  0  0  0  0  0  0
  -25.6150  -22.8150   20.4530 C   0  0  0  0  0  1  0  0  0  0  0  0
  -26.9300  -23.2150   21.1530 C   0  0  0  0  0  3  0  0  0  0  0  0
  -30.4530  -18.9350   20.3020 C   0  0  0  0  0  2  0  0  0  0  0  0
  -30.8410  -15.9430   20.6000 C   0  0  0  0  0  0  0  0  0  0  0  0
  -30.8970  -13.3910   19.9410 C   0  0  0  0  0  2  0  0  0  0  0  0
  -30.1210  -13.0420   18.6430 C   0  0  0  0  0  2  0  0  0  0  0  0
  -28.6390  -12.7900   18.9410 C   0  0  0  0  0  2  0  0  0  0  0  0
  -28.0700  -13.8400   19.9240 C   0  0  0  0  0  3  0  0  0  0  0  0
  -28.9850  -14.1410   21.1280 C   0  0  0  0  0  2  0  0  0  0  0  0
  -30.2700  -14.6190   20.5850 N   0  0  0  0  0  0  0  0  0  0  0  0
  -32.0780  -15.8820   20.5010 O   0  0  0  0  0  0  0  0  0  0  0  0
  -30.1080  -17.2730   20.5430 N   0  0  0  0  0  0  0  0  0  0  0  0
  -29.1160  -17.1340   20.6380 H   0  0  0  0  0  0  0  0  0  0  0  0
  -25.6770  -14.4700   20.4960 C   0  0  0  0  0  0  0  0  0  0  0  0
  -24.5600  -13.7300   20.7570 C   0  0  0  0  0  0  0  0  0  0  0  0
  -24.9760  -12.3630   20.7380 C   0  0  0  0  0  0  0  0  0  0  0  0
  -26.7000  -13.5570   20.3210 N   0  0  0  0  0  0  0  0  0  0  0  0
  -26.2870  -12.2790   20.5350 N   0  0  0  0  0  0  0  0  0  0  0  0
  -24.1820  -11.1300   20.8490 C   0  0  0  0  0  0  0  0  0  0  0  0
  -24.5300  -10.1040   21.7520 C   0  0  0  0  0  3  0  0  0  0  0  0
  -23.7390   -8.9380   21.8510 C   0  0  0  0  0  3  0  0  0  0  0  0
  -22.5800   -8.7960   21.0520 C   0  0  0  0  0  0  0  0  0  0  0  0
  -22.2510   -9.8120   20.1360 C   0  0  0  0  0  3  0  0  0  0  0  0
  -23.0420  -10.9680   20.0360 C   0  0  0  0  0  3  0  0  0  0  0  0
  -21.7650   -7.6890   21.0640 O   0  0  0  0  0  0  0  0  0  0  0  0
  -21.7160   -6.8460   22.1420 C   0  0  0  0  0  0  0  0  0  0  0  0
  -21.3720   -7.3050   23.4320 C   0  0  0  0  0  3  0  0  0  0  0  0
  -21.2630   -6.3890   24.5000 C   0  0  0  0  0  3  0  0  0  0  0  0
  -21.4900   -5.0180   24.2750 C   0  0  0  0  0  0  0  0  0  0  0  0
  -21.8280   -4.5590   22.9900 C   0  0  0  0  0  3  0  0  0  0  0  0
  -21.9370   -5.4720   21.9260 C   0  0  0  0  0  0  0  0  0  0  0  0
  -22.2450   -5.0220   20.6850 F   0  0  0  0  0  0  0  0  0  0  0  0
  -21.3770   -4.1400   25.2960 F   0  0  0  0  0  0  0  0  0  0  0  0
  -23.1660  -14.2590   20.9130 C   0  0  0  0  0  0  0  0  0  0  0  0
  -22.3500  -13.5840   21.7120 N   0  0  0  0  0  0  0  0  0  0  0  0
  -22.8160  -15.3060   20.3730 O   0  0  0  0  0  0  0  0  0  0  0  0
  -22.6560  -12.7380   22.1700 H   0  0  0  0  0  0  0  0  0  0  0  0
  -21.4090  -13.9130   21.8630 H   0  0  0  0  0  0  0  0  0  0  0  0
  -25.9050  -15.8360   20.3650 N   0  0  0  0  0  0  0  0  0  0  0  0
  -25.1440  -16.5030   20.4160 H   0  0  0  0  0  0  0  0  0  0  0  0
  -26.7750  -16.2560   20.0680 H   0  0  0  0  0  0  0  0  0  0  0  0
  -28.8110  -24.6120   18.9540 C   0  0  0  0  0  2  0  0  0  0  0  0
  -28.8660  -26.1810   19.4660 O   0  0  0  0  0  0  0  0  0  0  0  0
  -24.7400  -31.6550   22.7610 C   0  0  0  0  0  0  0  0  0  0  0  0
  -27.7780  -27.2390   19.4020 C   0  0  0  0  0  0  0  0  0  0  0  0
  -23.6900  -30.2540   21.0280 C   0  0  0  0  0  3  0  0  0  0  0  0
  -25.2970  -28.9180   19.4870 C   0  0  0  0  0  0  0  0  0  0  0  0
  -26.2230  -30.7320   20.9010 C   0  0  0  0  0  2  0  0  0  0  0  0
  -26.4390  -29.3810   20.1470 C   0  0  0  0  0  0  0  0  0  0  0  0
  -27.6660  -28.5610   20.0870 C   0  0  0  0  0  3  0  0  0  0  0  0
  -26.5920  -26.9670   18.6760 C   0  0  0  0  0  3  0  0  0  0  0  0
  -25.4000  -27.7390   18.7320 C   0  0  0  0  0  3  0  0  0  0  0  0
  -23.9840  -29.6990   19.6060 C   0  0  0  0  0  2  0  0  0  0  0  0
  -24.9040  -30.9090   21.6190 N   0  0  0  0  0  0  0  0  0  0  0  0
  -23.6290  -31.7890   23.3020 O   0  0  0  0  0  0  0  0  0  0  0  0
  -23.1150  -29.1250   21.9250 C   0  0  0  0  0  0  0  0  0  0  0  0
  -21.8030  -28.8460   21.8140 N   0  0  0  0  0  0  0  0  0  0  0  0
  -23.8600  -28.5060   22.6900 O   0  0  0  0  0  0  0  0  0  0  0  0
  -21.2500  -29.4050   21.1800 H   0  0  0  0  0  0  0  0  0  0  0  0
  -18.5640  -27.2960   22.3270 C   0  0  0  0  0  0  0  0  0  0  0  0
  -21.0990  -27.7750   22.5260 C   0  0  0  0  0  3  0  0  0  0  0  0
  -21.3010  -26.4140   21.8200 C   0  0  0  0  0  2  0  0  0  0  0  0
  -20.1890  -26.0840   20.8180 C   0  0  0  0  0  2  0  0  0  0  0  0
  -18.8300  -26.0380   21.5200 C   0  0  0  0  0  2  0  0  0  0  0  0
  -19.6280  -28.1190   22.7870 C   0  0  0  0  0  0  0  0  0  0  0  0
  -19.3210  -29.2930   23.5090 C   0  0  0  0  0  3  0  0  0  0  0  0
  -17.9840  -29.6460   23.7740 C   0  0  0  0  0  3  0  0  0  0  0  0
  -16.9360  -28.8230   23.3230 C   0  0  0  0  0  3  0  0  0  0  0  0
  -17.2270  -27.6490   22.6060 C   0  0  0  0  0  3  0  0  0  0  0  0
  -25.9380  -32.3900   23.4320 C   0  0  0  0  0  3  0  0  0  0  0  0
  -26.5730  -31.5690   24.6230 C   0  0  1  0  0  0  0  0  0  0  0  0
  -25.5400  -31.1040   25.6750 C   0  0  0  0  0  1  0  0  0  0  0  0
  -27.3130  -30.3160   24.1010 C   0  0  0  0  0  1  0  0  0  0  0  0
  -27.6380  -32.4310   25.3430 C   0  0  0  0  0  1  0  0  0  0  0  0
  -25.4570  -33.6940   23.9220 N   0  0  0  0  0  0  0  0  0  0  0  0
  -25.6600  -34.8680   23.3110 C   0  0  0  0  0  0  0  0  0  0  0  0
  -26.3390  -34.9760   22.2870 O   0  0  0  0  0  0  0  0  0  0  0  0
  -24.8500  -33.6730   24.7290 H   0  0  0  0  0  0  0  0  0  0  0  0
  -23.7250  -36.4720   23.1680 C   0  0  0  0  0  1  0  0  0  0  0  0
  -25.0120  -36.1230   23.9310 C   0  0  0  0  0  3  0  0  0  0  0  0
  -27.0290  -37.1560   24.8790 C   0  0  0  0  0  1  0  0  0  0  0  0
  -25.9070  -37.3020   23.9550 N   0  0  0  0  0  0  0  0  0  0  0  0
  -25.3910  -38.1390   24.2150 H   0  0  0  0  0  0  0  0  0  0  0  0
  2  5  1  0
  2  3  2  0
  3  9  1  0
  3  1  1  0
  4  1  2  0
  4  8  1  0
  5  4  1  0
  7  8  1  0
  8  6  1  0
  9 18  1  0
 11 16  1  0
 12 13  1  0
 12 11  1  0
 14 13  1  0
 14 23  1  0
 14 15  1  0
 16 10  1  0
 16 15  1  0
 17 10  2  0
 18 10  1  0
 18 19  1  0
 20 21  2  0
 21 40  1  0
 22 21  1  0
 22 25  1  0
 23 20  1  0
 23 24  1  0
 24 22  2  0
 25 26  1  0
 26 27  2  0
 28 31  1  0
 28 27  1  0
 29 28  2  0
 30 29  1  0
 30 25  2  0
 31 32  1  0
 32 33  1  0
 33 34  2  0
 35 34  1  0
 35 39  1  0
 36 35  2  0
 37 32  2  0
 37 36  1  0
 38 37  1  0
 40 41  1  0
 41 44  1  0
 41 43  1  0
 42 40  2  0
 45 46  1  0
 45 20  1  0
 47 45  1  0
 48 49  1  0
 48  5  1  0
 50 61  2  0
 51 49  1  0
 51 56  1  0
 52 60  1  0
 52 62  1  0
 53 59  1  0
 53 55  1  0
 54 60  1  0
 55 54  1  0
 56 55  2  0
 57 58  1  0
 57 51  2  0
 58 53  2  0
 59 52  1  0
 60 50  1  0
 62 64  2  0
 63 62  1  0
 65 63  1  0
 66 75  2  0
 66 71  1  0
 67 63  1  0
 67 71  1  0
 68 67  1  0
 69 70  1  0
 69 68  1  0
 70 66  1  0
 71 72  2  0
 72 73  1  0
 74 73  2  0
 75 74  1  0
 76 50  1  0
 76 81  1  0
 76 77  1  0
 77 80  1  1
 77 78  1  0
 79 77  1  0
 81 84  1  0
 82 81  1  0
 82 86  1  0
 83 82  2  0
 86 85  1  0
 86 88  1  0
 88 89  1  0
 88 87  1  0
M  ISO  4  10 100  18 100  48 101  49 101
M  END
>  <TORSDO>  (2) 
F 19

>  <SCORE>  (2) 
-11.629

>  <name>  (2) 
1

>  <ligand_id>  (2) 
1

>  <original_smiles>  (2) 
[H]c1c([H])c([H])c2c(c1[H])C([H])([H])C([H])([H])C([H])([H])C2([H])N([H])C(=O)C1([H])N(C(=O)C([H])(N([H])C(=O)C([H])(N([H])C([H])([H])[H])C([H])([H])[H])C(C([H])([H])[H])(C([H])([H])[H])C([H])([H])[H])C([H])([H])c2c([H])c(OC([H])([H])n3c([H])c(C([H])([H])N([H])C(=O)N4C([H])([H])C([H])([H])C([H])([H])C([H])(n5nc(-c6c([H])c([H])c(Oc7c([H])c([H])c(F)c([H])c7F)c([H])c6[H])c(C(=O)N([H])[H])c5N([H])[H])C4([H])[H])c([H])c3C([H])(C([H])([H])[H])C([H])([H])[H])c([H])c([H])c2C1([H])[H]

>  <smiles>  (2) 
[H]c1c([H])c([H])c2c(c1[H])C([H])([H])C([H])([H])C([H])([H])C2([H])N([H])C(=O)C1([H])N(C(=O)C([H])(N([H])C(=O)C([H])(N([H])C([H])([H])[H])C([H])([H])[H])C(C([H])([H])[H])(C([H])([H])[H])C([H])([H])[H])C([H])([H])c2c([H])c(OC([H])([H])n3c([H])c(C([H])([H])N([H])C(=O)N4C([H])([H])C([H])([H])C([H])([H])C([H])(n5nc(-c6c([H])c([H])c(Oc7c([H])c([H])c(F)c([H])c7F)c([H])c6[H])c(C(=O)N([H])[H])c5N([H])[H])C4([H])[H])c([H])c3C([H])(C([H])([H])[H])C([H])([H])[H])c([H])c([H])c2C1([H])[H]

$$$$
2:0:0
     RDKit          3D

 95101  0  0  1  0  0  0  0  0999 V2000
  -27.3070  -24.6600   21.3820 C   0  0  0  0  0  2  0  0  0  0  0  0
  -28.8700  -27.6170   19.7110 C   0  0  0  0  0  3  0  0  0  0  0  0
  -26.7050  -26.1650   20.5700 C   0  0  0  0  0  3  0  0  0  0  0  0
  -28.7440  -23.7520   21.1200 C   0  0  0  0  0  2  0  0  0  0  0  0
  -30.2250  -26.5180   20.1180 C   0  0  0  0  0  3  0  0  0  0  0  0
  -30.0330  -24.8760   20.7960 C   0  0  0  0  0  3  0  0  0  0  0  0
  -31.3600  -24.2140   21.1570 C   0  0  1  0  0  0  0  0  0  0  0  0
  -31.1470  -23.2770   22.0810 F   0  0  0  0  0  0  0  0  0  0  0  0
  -31.9260  -23.6600   20.0900 F   0  0  0  0  0  0  0  0  0  0  0  0
  -32.2060  -25.0850   21.7000 F   0  0  0  0  0  0  0  0  0  0  0  0
  -32.0850  -28.2180   19.7510 C   0  0  0  0  0  1  0  0  0  0  0  0
  -31.1170  -26.7760   17.8650 C   0  0  0  0  0  1  0  0  0  0  0  0
  -31.4920  -26.8490   19.3600 C   0  0  0  0  0  3  0  0  0  0  0  0
  -28.7030  -21.6390   20.7240 C   0  0  0  0  0 15  0  0  0  0  0  0
  -29.3520  -19.4690   20.8600 C   0  0  0  0  0 15  0  0  0  0  0  0
  -29.7950  -15.9000   19.9500 C   0  0  0  0  0  0  0  0  0  0  0  0
  -29.8150  -13.2710   18.7910 C   0  0  0  0  0  2  0  0  0  0  0  0
  -28.8150  -12.6280   17.7430 C   0  0  0  0  0  2  0  0  0  0  0  0
  -27.5360  -12.0920   18.3890 C   0  0  0  0  0  2  0  0  0  0  0  0
  -27.1120  -13.0370   19.5190 C   0  0  0  0  0  3  0  0  0  0  0  0
  -28.2800  -13.5380   20.4520 C   0  0  0  0  0  2  0  0  0  0  0  0
  -29.2360  -14.4530   19.7010 N   0  0  0  0  0  0  0  0  0  0  0  0
  -30.9920  -15.6730   19.6190 O   0  0  0  0  0  0  0  0  0  0  0  0
  -29.1970  -17.4890   20.3340 N   0  0  0  0  0  2  0  0  0  0  0  0
  -28.2000  -17.3050   20.3470 H   0  0  0  0  0  0  0  0  0  0  0  0
  -24.9030  -13.4210   20.6980 C   0  0  0  0  0  0  0  0  0  0  0  0
  -23.9280  -12.5950   21.1800 C   0  0  0  0  0  0  0  0  0  0  0  0
  -24.3940  -11.2570   20.9750 C   0  0  0  0  0  0  0  0  0  0  0  0
  -25.9080  -12.5950   20.2310 N   0  0  0  0  0  0  0  0  0  0  0  0
  -25.6230  -11.2800   20.4520 N   0  0  0  0  0  0  0  0  0  0  0  0
  -23.6930   -9.9770   21.1950 C   0  0  0  0  0  0  0  0  0  0  0  0
  -24.2020   -8.9920   22.0730 C   0  0  0  0  0  3  0  0  0  0  0  0
  -23.4960   -7.7880   22.2940 C   0  0  0  0  0  3  0  0  0  0  0  0
  -22.2610   -7.5570   21.6410 C   0  0  0  0  0  0  0  0  0  0  0  0
  -21.7630   -8.5310   20.7560 C   0  0  0  0  0  3  0  0  0  0  0  0
  -22.4710   -9.7260   20.5330 C   0  0  0  0  0  3  0  0  0  0  0  0
  -21.5270   -6.4010   21.7660 O   0  0  0  0  0  0  0  0  0  0  0  0
  -21.5760   -5.6390   22.9050 C   0  0  0  0  0  0  0  0  0  0  0  0
  -21.1690   -6.1520   24.1560 C   0  0  0  0  0  3  0  0  0  0  0  0
  -21.1650   -5.3160   25.2910 C   0  0  0  0  0  3  0  0  0  0  0  0
  -21.5600   -3.9700   25.1770 C   0  0  0  0  0  0  0  0  0  0  0  0
  -21.9600   -3.4570   23.9320 C   0  0  0  0  0  3  0  0  0  0  0  0
  -21.9630   -4.2880   22.7970 C   0  0  0  0  0  0  0  0  0  0  0  0
  -22.3280   -3.7860   21.5930 F   0  0  0  0  0  0  0  0  0  0  0  0
  -21.5490   -3.1620   26.2640 F   0  0  0  0  0  0  0  0  0  0  0  0
  -22.5910  -13.0370   21.7010 C   0  0  0  0  0  0  0  0  0  0  0  0
  -22.0160  -12.3000   22.6460 N   0  0  0  0  0  0  0  0  0  0  0  0
  -22.0670  -14.0780   21.3030 O   0  0  0  0  0  0  0  0  0  0  0  0
  -22.4440  -11.4530   22.9920 H   0  0  0  0  0  0  0  0  0  0  0  0
  -21.1310  -12.6020   23.0330 H   0  0  0  0  0  0  0  0  0  0  0  0
  -25.0280  -14.8020   20.5810 N   0  0  0  0  0  0  0  0  0  0  0  0
  -24.3140  -15.4620   20.8650 H   0  0  0  0  0  0  0  0  0  0  0  0
  -25.8230  -15.2420   20.1370 H   0  0  0  0  0  0  0  0  0  0  0  0
  -26.1480  -25.0570   19.6300 C   0  0  0  0  0  2  0  0  0  0  0  0
  -27.1900  -25.2140   18.5750 O   0  0  0  0  0  0  0  0  0  0  0  0
  -24.5870  -31.7190   22.9910 C   0  0  0  0  0  0  0  0  0  0  0  0
  -27.6620  -26.3880   18.7960 C   0  0  0  0  0  3  0  0  0  0  0  0
  -23.5820  -30.2470   21.3310 C   0  0  0  0  0  3  0  0  0  0  0  0
  -25.2700  -28.7530   19.8800 C   0  0  0  0  0  0  0  0  0  0  0  0
  -26.1690  -30.2840   21.5320 C   0  0  0  0  0  2  0  0  0  0  0  0
  -26.3610  -28.7400   21.0740 C   0  0  0  0  0  3  0  0  0  0  0  0
  -27.7700  -27.5570   21.1120 C   0  0  0  0  0  3  0  0  0  0  0  0
  -26.4390  -27.0650   17.8540 C   0  0  0  0  0  3  0  0  0  0  0  0
  -25.3440  -28.0330   18.4900 C   0  0  0  0  0  3  0  0  0  0  0  0
  -23.9800  -29.6300   19.9670 C   0  0  0  0  0  3  0  0  0  0  0  0
  -24.7970  -30.8080   21.9850 N   0  0  0  0  0  0  0  0  0  0  0  0
  -23.4510  -31.9610   23.4390 O   0  0  0  0  0  0  0  0  0  0  0  0
  -22.8900  -29.2030   22.2430 C   0  0  0  0  0  0  0  0  0  0  0  0
  -21.5700  -28.9640   22.1070 N   0  0  0  0  0  0  0  0  0  0  0  0
  -23.5740  -28.6000   23.0740 O   0  0  0  0  0  0  0  0  0  0  0  0
  -21.0550  -29.5080   21.4310 H   0  0  0  0  0  0  0  0  0  0  0  0
  -18.3060  -27.4250   22.6680 C   0  0  0  0  0  0  0  0  0  0  0  0
  -20.8330  -27.9320   22.8540 C   0  0  0  0  0  3  0  0  0  0  0  0
  -21.0450  -26.5350   22.2260 C   0  0  0  0  0  2  0  0  0  0  0  0
  -19.9500  -26.1520   21.2290 C   0  0  0  0  0  2  0  0  0  0  0  0
  -18.5870  -26.1330   21.9210 C   0  0  0  0  0  2  0  0  0  0  0  0
  -19.3570  -28.2850   23.0850 C   0  0  0  0  0  0  0  0  0  0  0  0
  -19.0360  -29.4840   23.7560 C   0  0  0  0  0  3  0  0  0  0  0  0
  -17.6940  -29.8350   23.9990 C   0  0  0  0  0  3  0  0  0  0  0  0
  -16.6570  -28.9780   23.5860 C   0  0  0  0  0  3  0  0  0  0  0  0
  -16.9650  -27.7710   22.9320 C   0  0  0  0  0  3  0  0  0  0  0  0
  -25.7710  -32.5040   23.6230 C   0  0  0  0  0  3  0  0  0  0  0  0
  -25.3340  -33.9020   23.8330 N   0  0  0  0  0  0  0  0  0  0  0  0
  -25.7830  -34.9820   23.1770 C   0  0  0  0  0  0  0  0  0  0  0  0
  -26.6520  -34.9100   22.3040 O   0  0  0  0  0  0  0  0  0  0  0  0
  -24.5830  -34.0370   24.4930 H   0  0  0  0  0  0  0  0  0  0  0  0
  -24.1520  -36.7710   22.4700 C   0  0  0  0  0  1  0  0  0  0  0  0
  -25.1770  -36.3570   23.5410 C   0  0  0  0  0  3  0  0  0  0  0  0
  -27.0580  -37.2320   24.8520 C   0  0  0  0  0  1  0  0  0  0  0  0
  -26.1860  -37.4310   23.6980 N   0  0  0  0  0  0  0  0  0  0  0  0
  -25.7410  -38.3410   23.7910 H   0  0  0  0  0  0  0  0  0  0  0  0
  -26.2380  -31.8900   25.0010 C   0  0  1  0  0  0  0  0  0  0  0  0
  -25.0680  -31.6220   25.9760 C   0  0  0  0  0  1  0  0  0  0  0  0
  -26.9850  -30.5490   24.8650 C   0  0  0  0  0  1  0  0  0  0  0  0
  -27.2450  -32.8520   25.6700 C   0  0  0  0  0  1  0  0  0  0  0  0
  2  5  1  0
  2 62  1  0
  3 62  1  0
  3  1  1  0
  4  1  1  0
  5  6  1  0
  6  4  1  0
  6  7  1  0
  7 10  1  1
  7  8  1  0
  9  7  1  0
 12 13  1  0
 13 11  1  0
 13  5  1  0
 16 24  1  0
 17 22  1  0
 18 19  1  0
 18 17  1  0
 19 20  1  0
 20 29  1  0
 20 21  1  0
 22 16  1  0
 22 21  1  0
 23 16  2  0
 24 25  1  0
 26 27  2  0
 27 46  1  0
 28 27  1  0
 28 31  1  0
 29 30  1  0
 29 26  1  0
 30 28  2  0
 31 32  1  0
 32 33  2  0
 34 37  1  0
 34 33  1  0
 35 34  2  0
 36 35  1  0
 36 31  2  0
 37 38  1  0
 38 39  1  0
 39 40  2  0
 41 40  1  0
 41 45  1  0
 42 41  2  0
 43 38  2  0
 43 42  1  0
 44 43  1  0
 46 47  1  0
 47 49  1  0
 47 50  1  0
 48 46  2  0
 51 26  1  0
 51 52  1  0
 53 51  1  0
 54  3  1  0
 55 57  1  0
 55 54  1  0
 56 67  2  0
 56 82  1  0
 57  2  1  0
 58 66  1  0
 58 68  1  0
 59 65  2  0
 59 61  1  0
 60 66  1  0
 61 62  1  0
 61 60  1  0
 63 64  2  0
 63 57  1  0
 64 59  1  0
 65 58  1  0
 66 56  1  0
 68 70  2  0
 69 68  1  0
 69 73  1  0
 71 69  1  0
 72 81  2  0
 72 77  1  0
 73 77  1  0
 74 73  1  0
 75 76  1  0
 75 74  1  0
 76 72  1  0
 77 78  2  0
 78 79  1  0
 80 79  2  0
 81 80  1  0
 82 83  1  0
 82 92  1  0
 83 86  1  0
 84 88  1  0
 84 83  1  0
 85 84  2  0
 87 88  1  0
 88 90  1  0
 90 91  1  0
 90 89  1  0
 92 95  1  1
 92 93  1  0
 94 92  1  0
M  ISO  4  16 100  24 100  54 101  55 101
M  END
>  <TORSDO>  (3) 
F 21

>  <SCORE>  (3) 
-12.613

>  <name>  (3) 
2

>  <ligand_id>  (3) 
2

>  <original_smiles>  (3) 
[H]c1c([H])c([H])c2c(c1[H])C([H])([H])C([H])([H])C([H])([H])C2([H])N([H])C(=O)C1([H])N(C(=O)C([H])(N([H])C(=O)C([H])(N([H])C([H])([H])[H])C([H])([H])[H])C(C([H])([H])[H])(C([H])([H])[H])C([H])([H])[H])C([H])([H])c2c([H])c(OC([H])([H])c3c([H])c(C([H])([H])C([H])([H])N([H])C(=O)N4C([H])([H])C([H])([H])C([H])([H])C([H])(n5nc(-c6c([H])c([H])c(Oc7c([H])c([H])c(F)c([H])c7F)c([H])c6[H])c(C(=O)N([H])[H])c5N([H])[H])C4([H])[H])c(C(F)(F)F)c(C([H])(C([H])([H])[H])C([H])([H])[H])c3[H])c([H])c([H])c2C1([H])[H]

>  <smiles>  (3) 
[H]c1c([H])c([H])c2c(c1[H])C([H])([H])C([H])([H])C([H])([H])C2([H])N([H])C(=O)C1([H])N(C(=O)C([H])(N([H])C(=O)C([H])(N([H])C([H])([H])[H])C([H])([H])[H])C(C([H])([H])[H])(C([H])([H])[H])C([H])([H])[H])C([H])([H])c2c([H])c(OC([H])([H])c3c([H])c(C([H])([H])C([H])([H])N([H])C(=O)N4C([H])([H])C([H])([H])C([H])([H])C([H])(n5nc(-c6c([H])c([H])c(Oc7c([H])c([H])c(F)c([H])c7F)c([H])c6[H])c(C(=O)N([H])[H])c5N([H])[H])C4([H])[H])c(C(F)(F)F)c(C([H])(C([H])([H])[H])C([H])([H])[H])c3[H])c([H])c([H])c2C1([H])[H]

$$$$
3:0:0
     RDKit          3D

102110  0  0  1  0  0  0  0  0999 V2000
  -29.0620  -21.3900   21.5640 C   0  0  0  0  0  3  0  0  0  0  0  0
  -28.5840  -19.8720   19.7630 C   0  0  0  0  0  3  0  0  0  0  0  0
  -28.3600  -21.1670   20.3710 C   0  0  0  0  0  0  0  0  0  0  0  0
  -30.0170  -20.4780   22.0560 C   0  0  0  0  0  0  0  0  0  0  0  0
  -29.5380  -18.8800   20.2310 C   0  0  0  0  0  0  0  0  0  0  0  0
  -30.3400  -19.2650   21.3610 C   0  0  0  0  0  0  0  0  0  0  0  0
  -30.7090  -20.8940   23.3500 C   0  0  0  0  0  1  0  0  0  0  0  0
  -26.8710  -21.9700   18.4190 C   0  0  0  0  0  1  0  0  0  0  0  0
  -27.3500  -22.2900   19.8500 C   0  0  0  0  0  3  0  0  0  0  0  0
  -29.2470  -24.0700   19.8110 C   0  0  0  0  0  1  0  0  0  0  0  0
  -27.7310  -23.8650   20.0000 C   0  0  0  0  0  3  0  0  0  0  0  0
  -26.9040  -24.9430   19.1250 C   0  0  0  0  0  2  0  0  0  0  0  0
  -27.1550  -26.4180   19.2220 O   0  0  0  0  0  0  0  0  0  0  0  0
  -24.7790  -31.8320   23.3790 C   0  0  0  0  0  0  0  0  0  0  0  0
  -26.1540  -27.3900   19.4400 C   0  0  0  0  0  0  0  0  0  0  0  0
  -23.1310  -30.8160   21.8500 C   0  0  0  0  0  3  0  0  0  0  0  0
  -24.0810  -29.2890   20.0340 C   0  0  0  0  0  0  0  0  0  0  0  0
  -25.6260  -30.8290   21.2430 C   0  0  0  0  0  2  0  0  0  0  0  0
  -25.3920  -29.5450   20.4510 C   0  0  0  0  0  0  0  0  0  0  0  0
  -26.4270  -28.6070   20.1470 C   0  0  0  0  0  3  0  0  0  0  0  0
  -24.8180  -27.1990   19.0180 C   0  0  0  0  0  3  0  0  0  0  0  0
  -23.7950  -28.1180   19.3150 C   0  0  0  0  0  3  0  0  0  0  0  0
  -23.0140  -30.3040   20.3930 C   0  0  0  0  0  2  0  0  0  0  0  0
  -24.5430  -31.1670   22.2110 N   0  0  0  0  0  0  0  0  0  0  0  0
  -23.8490  -32.1760   24.1240 O   0  0  0  0  0  0  0  0  0  0  0  0
  -22.4920  -29.7770   22.8030 C   0  0  0  0  0  0  0  0  0  0  0  0
  -21.1750  -29.5500   22.6560 N   0  0  0  0  0  0  0  0  0  0  0  0
  -23.1790  -29.1790   23.6360 O   0  0  0  0  0  0  0  0  0  0  0  0
  -20.6710  -30.0970   21.9720 H   0  0  0  0  0  0  0  0  0  0  0  0
  -17.9140  -27.9970   22.8930 C   0  0  0  0  0  0  0  0  0  0  0  0
  -20.3790  -28.5830   23.4150 C   0  0  0  0  0  3  0  0  0  0  0  0
  -20.7040  -27.1310   22.9910 C   0  0  0  0  0  2  0  0  0  0  0  0
  -19.7730  -26.6010   21.8950 C   0  0  0  0  0  2  0  0  0  0  0  0
  -18.3170  -26.6290   22.3680 C   0  0  0  0  0  2  0  0  0  0  0  0
  -18.8830  -28.9200   23.3690 C   0  0  0  0  0  0  0  0  0  0  0  0
  -18.4560  -30.1920   23.8110 C   0  0  0  0  0  3  0  0  0  0  0  0
  -17.0940  -30.5430   23.7850 C   0  0  0  0  0  3  0  0  0  0  0  0
  -16.1380  -29.6180   23.3280 C   0  0  0  0  0  3  0  0  0  0  0  0
  -16.5490  -28.3470   22.8880 C   0  0  0  0  0  3  0  0  0  0  0  0
  -26.2240  -32.2130   23.8260 C   0  0  0  0  0  3  0  0  0  0  0  0
  -26.1660  -33.5510   24.4290 N   0  0  0  0  0  0  0  0  0  0  0  0
  -26.5580  -34.6790   23.8210 C   0  0  0  0  0  0  0  0  0  0  0  0
  -27.0720  -34.6890   22.7000 O   0  0  0  0  0  0  0  0  0  0  0  0
  -25.7120  -33.6270   25.3270 H   0  0  0  0  0  0  0  0  0  0  0  0
  -25.0910  -36.7100   24.0260 C   0  0  0  0  0  1  0  0  0  0  0  0
  -26.3410  -36.0060   24.5750 C   0  0  0  0  0  3  0  0  0  0  0  0
  -28.6680  -36.4300   25.2330 C   0  0  0  0  0  1  0  0  0  0  0  0
  -27.5020  -36.9190   24.5020 N   0  0  0  0  0  0  0  0  0  0  0  0
  -27.2620  -37.8370   24.8680 H   0  0  0  0  0  0  0  0  0  0  0  0
  -26.8550  -31.1750   24.8330 C   0  0  1  0  0  0  0  0  0  0  0  0
  -25.9470  -30.8440   26.0410 C   0  0  0  0  0  1  0  0  0  0  0  0
  -27.1860  -29.8480   24.1120 C   0  0  0  0  0  1  0  0  0  0  0  0
  -28.1930  -31.7270   25.3770 C   0  0  0  0  0  1  0  0  0  0  0  0
  -31.5280  -17.0580   22.1810 C   0  0  0  0  0  1  0  0  0  0  0  0
  -31.6470  -18.5350   21.7710 C   0  0  0  0  0  3  0  0  0  0  0  0
  -32.7420  -18.8030   20.8080 N   0  0  0  0  0  4  0  0  0  0  0  0
  -32.5320  -18.2990   19.9640 H   0  0  0  0  0  0  0  0  0  0  0  0
  -33.6080  -18.4450   21.1770 H   0  0  0  0  0  0  0  0  0  0  0  0
  -34.0650  -20.8740   21.2940 C   0  0  0  0  0  1  0  0  0  0  0  0
  -32.9380  -20.2360   20.4570 C   0  0  0  0  0  3  0  0  0  0  0  0
  -34.4280  -19.7480   18.3920 C   0  0  0  0  0  1  0  0  0  0  0  0
  -31.9270  -20.0830   18.0960 C   0  0  0  0  0  1  0  0  0  0  0  0
  -33.1640  -20.4410   18.9380 C   0  0  0  0  0  3  0  0  0  0  0  0
  -29.7610  -17.5520   19.3720 C   0  0  0  0  0  2  0  0  0  0  0  0
  -30.2600  -15.0310   19.6300 C   0  0  0  0  0  0  0  0  0  0  0  0
  -30.1710  -12.6350   18.9430 C   0  0  0  0  0  2  0  0  0  0  0  0
  -29.1620  -12.4710   17.7850 C   0  0  0  0  0  2  0  0  0  0  0  0
  -27.7400  -12.2580   18.3350 C   0  0  0  0  0  2  0  0  0  0  0  0
  -27.3690  -13.2830   19.4400 C   0  0  0  0  0  3  0  0  0  0  0  0
  -28.4910  -13.4220   20.4920 C   0  0  0  0  0  2  0  0  0  0  0  0
  -29.7210  -13.7760   19.7750 N   0  0  0  0  0  0  0  0  0  0  0  0
  -31.3900  -15.1660   19.1540 O   0  0  0  0  0  0  0  0  0  0  0  0
  -29.4560  -16.1390   19.8330 N   0  0  0  0  0  0  0  0  0  0  0  0
  -28.5230  -15.9640   20.1760 H   0  0  0  0  0  0  0  0  0  0  0  0
  -25.0750  -13.8370   20.4440 C   0  0  0  0  0  0  0  0  0  0  0  0
  -24.0500  -13.0450   20.8860 C   0  0  0  0  0  0  0  0  0  0  0  0
  -24.4980  -11.6970   20.7340 C   0  0  0  0  0  0  0  0  0  0  0  0
  -26.0830  -12.9710   20.0530 N   0  0  0  0  0  0  0  0  0  0  0  0
  -25.7480  -11.6760   20.2870 N   0  0  0  0  0  0  0  0  0  0  0  0
  -23.7910  -10.4280   20.9330 C   0  0  0  0  0  0  0  0  0  0  0  0
  -24.2680   -9.4470   21.8320 C   0  0  0  0  0  3  0  0  0  0  0  0
  -23.5590   -8.2410   22.0210 C   0  0  0  0  0  3  0  0  0  0  0  0
  -22.3570   -8.0070   21.3110 C   0  0  0  0  0  0  0  0  0  0  0  0
  -21.8980   -8.9750   20.4010 C   0  0  0  0  0  3  0  0  0  0  0  0
  -22.6080  -10.1720   20.2100 C   0  0  0  0  0  3  0  0  0  0  0  0
  -21.6140   -6.8550   21.4120 O   0  0  0  0  0  0  0  0  0  0  0  0
  -21.5650   -6.1300   22.5750 C   0  0  0  0  0  0  0  0  0  0  0  0
  -21.1180   -6.6960   23.7890 C   0  0  0  0  0  3  0  0  0  0  0  0
  -21.0190   -5.8970   24.9440 C   0  0  0  0  0  3  0  0  0  0  0  0
  -21.3550   -4.5310   24.8880 C   0  0  0  0  0  0  0  0  0  0  0  0
  -21.7960   -3.9640   23.6790 C   0  0  0  0  0  3  0  0  0  0  0  0
  -21.8970   -4.7610   22.5250 C   0  0  0  0  0  0  0  0  0  0  0  0
  -22.3010   -4.2050   21.3580 F   0  0  0  0  0  0  0  0  0  0  0  0
  -21.2530   -3.7600   25.9960 F   0  0  0  0  0  0  0  0  0  0  0  0
  -22.6930  -13.5080   21.3310 C   0  0  0  0  0  0  0  0  0  0  0  0
  -22.0760  -12.7890   22.2620 N   0  0  0  0  0  0  0  0  0  0  0  0
  -22.1930  -14.5410   20.8880 O   0  0  0  0  0  0  0  0  0  0  0  0
  -22.4980  -11.9530   22.6390 H   0  0  0  0  0  0  0  0  0  0  0  0
  -21.1700  -13.0780   22.6020 H   0  0  0  0  0  0  0  0  0  0  0  0
  -25.2290  -15.2150   20.3190 N   0  0  0  0  0  0  0  0  0  0  0  0
  -24.4820  -15.8640   20.5370 H   0  0  0  0  0  0  0  0  0  0  0  0
  -26.0280  -15.6640   19.8910 H   0  0  0  0  0  0  0  0  0  0  0  0
  1  4  1  0
  2  5  2  0
  2  3  1  0
  3  1  2  0
  4  7  1  0
  5  6  1  0
  6 55  1  0
  6  4  2  0
  9  8  1  0
  9 11  1  0
  9  3  1  0
 11 10  1  0
 12 13  1  0
 12 11  1  0
 13 15  1  0
 14 25  2  0
 15 20  1  0
 16 24  1  0
 16 26  1  0
 17 23  1  0
 17 19  1  0
 18 24  1  0
 19 18  1  0
 20 19  2  0
 21 22  1  0
 21 15  2  0
 22 17  2  0
 23 16  1  0
 24 14  1  0
 26 28  2  0
 27 26  1  0
 29 27  1  0
 30 35  1  0
 31 27  1  0
 32 31  1  0
 33 34  1  0
 33 32  1  0
 34 30  1  0
 35 31  1  0
 35 36  2  0
 37 36  1  0
 38 37  2  0
 39 30  2  0
 39 38  1  0
 40 14  1  0
 40 41  1  0
 40 50  1  0
 41 44  1  0
 42 41  1  0
 42 46  1  0
 43 42  2  0
 46 45  1  0
 48 46  1  0
 48 49  1  0
 48 47  1  0
 50 53  1  1
 50 51  1  0
 52 50  1  0
 55 54  1  0
 56 58  1  0
 56 55  1  0
 57 56  1  0
 60 56  1  0
 60 59  1  0
 61 63  1  0
 62 63  1  0
 63 60  1  0
 64 73  1  0
 64  5  1  0
 65 71  1  0
 65 73  1  0
 66 71  1  0
 67 68  1  0
 67 66  1  0
 69 68  1  0
 69 78  1  0
 69 70  1  0
 71 70  1  0
 72 65  2  0
 73 74  1  0
 75 76  2  0
 76 95  1  0
 77 76  1  0
 77 80  1  0
 78 79  1  0
 78 75  1  0
 79 77  2  0
 80 81  1  0
 81 82  2  0
 83 86  1  0
 83 82  1  0
 84 83  2  0
 85 84  1  0
 85 80  2  0
 86 87  1  0
 87 88  1  0
 88 89  2  0
 90 89  1  0
 90 94  1  0
 91 90  2  0
 92 87  2  0
 92 91  1  0
 93 92  1  0
 95 96  1  0
 96 99  1  0
 96 98  1  0
 97 95  2  0
100 75  1  0
100101  1  0
102100  1  0
M  ISO  4  12 101  13 101  65 100  73 100
M  END
>  <TORSDO>  (4) 
F 24

>  <SCORE>  (4) 
-11.464

>  <name>  (4) 
3

>  <ligand_id>  (4) 
3

>  <original_smiles>  (4) 
[H]c1c([H])c([H])c2c(c1[H])C([H])([H])C([H])([H])C([H])([H])C2([H])N([H])C(=O)C1([H])N(C(=O)C([H])(N([H])C(=O)C([H])(N([H])C([H])([H])[H])C([H])([H])[H])C(C([H])([H])[H])(C([H])([H])[H])C([H])([H])[H])C([H])([H])c2c([H])c(OC([H])([H])C([H])(C([H])([H])[H])C([H])(c3c([H])c(C([H])([H])[H])c(C([H])(C([H])([H])[H])[N+]([H])([H])C([H])(C([H])([H])[H])C([H])(C([H])([H])[H])C([H])([H])[H])c(C([H])([H])N([H])C(=O)N4C([H])([H])C([H])([H])C([H])([H])C([H])(n5nc(-c6c([H])c([H])c(Oc7c([H])c([H])c(F)c([H])c7F)c([H])c6[H])c(C(=O)N([H])[H])c5N([H])[H])C4([H])[H])c3[H])C([H])([H])[H])c([H])c([H])c2C1([H])[H]

>  <smiles>  (4) 
[H]c1c([H])c([H])c2c(c1[H])C([H])([H])C([H])([H])C([H])([H])C2([H])N([H])C(=O)C1([H])N(C(=O)C([H])(N([H])C(=O)C([H])(N([H])C([H])([H])[H])C([H])([H])[H])C(C([H])([H])[H])(C([H])([H])[H])C([H])([H])[H])C([H])([H])c2c([H])c(OC([H])([H])C([H])(C([H])([H])[H])C([H])(c3c([H])c(C([H])([H])[H])c(C([H])(C([H])([H])[H])[N+]([H])([H])C([H])(C([H])([H])[H])C([H])(C([H])([H])[H])C([H])([H])[H])c(C([H])([H])N([H])C(=O)N4C([H])([H])C([H])([H])C([H])([H])C([H])(n5nc(-c6c([H])c([H])c(Oc7c([H])c([H])c(F)c([H])c7F)c([H])c6[H])c(C(=O)N([H])[H])c5N([H])[H])C4([H])[H])c3[H])C([H])([H])[H])c([H])c([H])c2C1([H])[H]

$$$$
4:0:0
     RDKit          3D

 93101  0  0  1  0  0  0  0  0999 V2000
  -28.8270  -18.8410   19.4270 C   0  0  0  0  0  3  0  0  0  0  0  0
  -29.9110  -20.0750   20.8880 C   0  0  0  0  0  3  0  0  0  0  0  0
  -29.8560  -18.7610   20.4100 C   0  0  0  0  0  0  0  0  0  0  0  0
  -28.2850  -20.1090   19.3800 C   0  0  0  0  0  0  0  0  0  0  0  0
  -28.9430  -20.9320   20.2930 N   0  0  0  0  0  0  0  0  0  0  0  0
  -30.7380  -17.4870   20.8030 C   0  0  0  0  0  2  0  0  0  0  0  0
  -30.8680  -14.9140   20.9190 C   0  0  0  0  0  0  0  0  0  0  0  0
  -30.7310  -12.6600   19.8240 C   0  0  0  0  0  2  0  0  0  0  0  0
  -29.8900  -12.7370   18.5290 C   0  0  0  0  0  2  0  0  0  0  0  0
  -28.3870  -12.5680   18.8320 C   0  0  0  0  0  2  0  0  0  0  0  0
  -27.9250  -13.4340   20.0330 C   0  0  0  0  0  3  0  0  0  0  0  0
  -28.8900  -13.2670   21.2240 C   0  0  0  0  0  2  0  0  0  0  0  0
  -30.2200  -13.6970   20.7590 N   0  0  0  0  0  0  0  0  0  0  0  0
  -32.0590  -14.9800   20.5940 O   0  0  0  0  0  0  0  0  0  0  0  0
  -29.1490  -16.2130   22.2090 C   0  0  0  0  0  1  0  0  0  0  0  0
  -30.1620  -16.1080   21.1510 N   0  0  0  0  0  0  0  0  0  0  0  0
  -25.4930  -14.0440   20.5750 C   0  0  0  0  0  0  0  0  0  0  0  0
  -24.3930  -13.2760   20.8520 C   0  0  0  0  0  0  0  0  0  0  0  0
  -24.8450  -11.9210   20.8350 C   0  0  0  0  0  0  0  0  0  0  0  0
  -26.5430  -13.1560   20.4080 N   0  0  0  0  0  0  0  0  0  0  0  0
  -26.1550  -11.8720   20.6240 N   0  0  0  0  0  0  0  0  0  0  0  0
  -24.0930  -10.6650   20.9500 C   0  0  0  0  0  0  0  0  0  0  0  0
  -24.4790   -9.6540   21.8570 C   0  0  0  0  0  3  0  0  0  0  0  0
  -23.7310   -8.4620   21.9610 C   0  0  0  0  0  3  0  0  0  0  0  0
  -22.5810   -8.2750   21.1580 C   0  0  0  0  0  0  0  0  0  0  0  0
  -22.2150   -9.2740   20.2410 C   0  0  0  0  0  3  0  0  0  0  0  0
  -22.9640  -10.4570   20.1340 C   0  0  0  0  0  3  0  0  0  0  0  0
  -21.8060   -7.1400   21.1730 O   0  0  0  0  0  0  0  0  0  0  0  0
  -21.7590   -6.3150   22.2680 C   0  0  0  0  0  0  0  0  0  0  0  0
  -21.3960   -6.7920   23.5460 C   0  0  0  0  0  3  0  0  0  0  0  0
  -21.2890   -5.8960   24.6280 C   0  0  0  0  0  3  0  0  0  0  0  0
  -21.5390   -4.5240   24.4360 C   0  0  0  0  0  0  0  0  0  0  0  0
  -21.8970   -4.0460   23.1630 C   0  0  0  0  0  3  0  0  0  0  0  0
  -22.0030   -4.9390   22.0820 C   0  0  0  0  0  0  0  0  0  0  0  0
  -22.3270   -4.4690   20.8530 F   0  0  0  0  0  0  0  0  0  0  0  0
  -21.4320   -3.6620   25.4740 F   0  0  0  0  0  0  0  0  0  0  0  0
  -22.9850  -13.7670   21.0230 C   0  0  0  0  0  0  0  0  0  0  0  0
  -22.1910  -13.0790   21.8360 N   0  0  0  0  0  0  0  0  0  0  0  0
  -22.5930  -14.7930   20.4700 O   0  0  0  0  0  0  0  0  0  0  0  0
  -22.5160  -12.2460   22.3060 H   0  0  0  0  0  0  0  0  0  0  0  0
  -21.2420  -13.3900   21.9910 H   0  0  0  0  0  0  0  0  0  0  0  0
  -25.6810  -15.4150   20.4290 N   0  0  0  0  0  0  0  0  0  0  0  0
  -24.9140  -16.0750   20.4970 H   0  0  0  0  0  0  0  0  0  0  0  0
  -26.5580  -15.8510   20.1760 H   0  0  0  0  0  0  0  0  0  0  0  0
  -27.1080  -20.5540   18.5700 C   0  0  0  0  0  2  0  0  0  0  0  0
  -25.8760  -19.6620   18.8070 C   0  0  0  0  0  2  0  0  0  0  0  0
  -23.7640  -18.6300   17.8780 C   0  0  0  0  0  1  0  0  0  0  0  0
  -24.1800  -21.1040   17.5430 C   0  0  0  0  0  1  0  0  0  0  0  0
  -24.8290  -19.7180   17.6790 C   0  0  0  0  0  3  0  0  0  0  0  0
  -28.5420  -22.3520   20.7190 C   0  0  0  0  0  2  0  0  0  0  0  0
  -28.4710  -23.6420   19.7380 C   0  0  0  0  0  3  0  0  0  0  0  0
  -27.8470  -25.0090   20.3530 C   0  0  0  0  0  3  0  0  0  0  0  0
  -27.9380  -26.3610   19.7110 O   0  0  0  0  0  0  0  0  0  0  0  0
  -24.3960  -31.7200   23.1160 C   0  0  0  0  0  0  0  0  0  0  0  0
  -26.8360  -27.2340   19.7980 C   0  0  0  0  0  0  0  0  0  0  0  0
  -23.1110  -30.3810   21.4870 C   0  0  0  0  0  3  0  0  0  0  0  0
  -24.4870  -28.8690   19.9440 C   0  0  0  0  0  0  0  0  0  0  0  0
  -25.6420  -30.6930   21.1950 C   0  0  0  0  0  2  0  0  0  0  0  0
  -25.6870  -29.3320   20.5010 C   0  0  0  0  0  0  0  0  0  0  0  0
  -26.8670  -28.5280   20.4140 C   0  0  0  0  0  3  0  0  0  0  0  0
  -25.6160  -26.8280   19.2220 C   0  0  0  0  0  3  0  0  0  0  0  0
  -24.4550  -27.6250   19.2910 C   0  0  0  0  0  3  0  0  0  0  0  0
  -23.2580  -29.7500   20.0770 C   0  0  0  0  0  2  0  0  0  0  0  0
  -24.4050  -30.9480   21.9890 N   0  0  0  0  0  0  0  0  0  0  0  0
  -23.3390  -31.9830   23.7090 O   0  0  0  0  0  0  0  0  0  0  0  0
  -22.4880  -29.3370   22.4450 C   0  0  0  0  0  0  0  0  0  0  0  0
  -21.1750  -29.0920   22.3050 N   0  0  0  0  0  0  0  0  0  0  0  0
  -23.1890  -28.7500   23.2740 O   0  0  0  0  0  0  0  0  0  0  0  0
  -20.6660  -29.6220   21.6110 H   0  0  0  0  0  0  0  0  0  0  0  0
  -17.8790  -27.6530   22.6980 C   0  0  0  0  0  0  0  0  0  0  0  0
  -20.3960  -28.1160   23.0660 C   0  0  0  0  0  3  0  0  0  0  0  0
  -20.6320  -26.6820   22.5370 C   0  0  0  0  0  2  0  0  0  0  0  0
  -19.6030  -26.2470   21.4890 C   0  0  0  0  0  2  0  0  0  0  0  0
  -18.1870  -26.3020   22.0710 C   0  0  0  0  0  2  0  0  0  0  0  0
  -18.9170  -28.5110   23.1510 C   0  0  0  0  0  0  0  0  0  0  0  0
  -18.5750  -29.7680   23.6960 C   0  0  0  0  0  3  0  0  0  0  0  0
  -17.2300  -30.1700   23.7930 C   0  0  0  0  0  3  0  0  0  0  0  0
  -16.2060  -29.3110   23.3550 C   0  0  0  0  0  3  0  0  0  0  0  0
  -16.5320  -28.0540   22.8130 C   0  0  0  0  0  3  0  0  0  0  0  0
  -25.7080  -32.3290   23.7000 C   0  0  0  0  0  3  0  0  0  0  0  0
  -25.4260  -33.7240   24.0680 N   0  0  0  0  0  0  0  0  0  0  0  0
  -25.7760  -34.7910   23.3380 C   0  0  0  0  0  0  0  0  0  0  0  0
  -26.4370  -34.7030   22.3000 O   0  0  0  0  0  0  0  0  0  0  0  0
  -24.8400  -33.8690   24.8770 H   0  0  0  0  0  0  0  0  0  0  0  0
  -24.0870  -36.6320   23.0380 C   0  0  0  0  0  1  0  0  0  0  0  0
  -25.3190  -36.1760   23.8370 C   0  0  0  0  0  3  0  0  0  0  0  0
  -27.4750  -36.9850   24.6880 C   0  0  0  0  0  1  0  0  0  0  0  0
  -26.3750  -37.2090   23.7550 N   0  0  0  0  0  0  0  0  0  0  0  0
  -25.9910  -38.1320   23.9330 H   0  0  0  0  0  0  0  0  0  0  0  0
  -26.2650  -31.5280   24.9410 C   0  0  1  0  0  0  0  0  0  0  0  0
  -25.2110  -31.2850   26.0470 C   0  0  0  0  0  1  0  0  0  0  0  0
  -26.8140  -30.1500   24.5060 C   0  0  0  0  0  1  0  0  0  0  0  0
  -27.4520  -32.2970   25.5700 C   0  0  0  0  0  1  0  0  0  0  0  0
  1  3  1  0
  3  6  1  0
  3  2  2  0
  4  1  2  0
  4  5  1  0
  5 50  1  0
  5  2  1  0
  6 16  1  0
  7 16  1  0
  8 13  1  0
  9 10  1  0
  9  8  1  0
 11 10  1  0
 11 20  1  0
 11 12  1  0
 13  7  1  0
 13 12  1  0
 14  7  2  0
 16 15  1  0
 17 18  2  0
 18 37  1  0
 19 18  1  0
 19 22  1  0
 20 17  1  0
 20 21  1  0
 21 19  2  0
 22 23  1  0
 23 24  2  0
 25 28  1  0
 25 24  1  0
 26 25  2  0
 27 26  1  0
 27 22  2  0
 28 29  1  0
 29 30  1  0
 30 31  2  0
 32 31  1  0
 32 36  1  0
 33 32  2  0
 34 29  2  0
 34 33  1  0
 35 34  1  0
 37 38  1  0
 38 41  1  0
 38 40  1  0
 39 37  2  0
 42 43  1  0
 42 17  1  0
 44 42  1  0
 45 46  1  0
 45  4  1  0
 48 49  1  0
 49 47  1  0
 49 46  1  0
 51 52  2  0
 51 50  1  0
 53 55  1  0
 53 52  1  0
 54 65  2  0
 55 60  1  0
 56 64  1  0
 56 66  1  0
 57 63  1  0
 57 59  1  0
 58 64  1  0
 59 58  1  0
 60 59  2  0
 61 62  1  0
 61 55  2  0
 62 57  2  0
 63 56  1  0
 64 54  1  0
 66 68  2  0
 67 66  1  0
 69 67  1  0
 70 79  2  0
 70 75  1  0
 71 67  1  0
 71 75  1  0
 72 71  1  0
 73 74  1  0
 73 72  1  0
 74 70  1  0
 75 76  2  0
 76 77  1  0
 78 77  2  0
 79 78  1  0
 80 54  1  0
 80 81  1  0
 80 90  1  0
 81 84  1  0
 82 86  1  0
 82 81  1  0
 83 82  2  0
 86 85  1  0
 88 86  1  0
 88 89  1  0
 88 87  1  0
 90 93  1  1
 90 91  1  0
 92 90  1  0
M  ISO  4   7 100  16 100  52 101  53 101
M  END
>  <TORSDO>  (5) 
F 23

>  <SCORE>  (5) 
-7.790

>  <name>  (5) 
4

>  <ligand_id>  (5) 
4

>  <original_smiles>  (5) 
[H]c1c([H])c([H])c2c(c1[H])C([H])([H])C([H])([H])C([H])([H])C2([H])N([H])C(=O)C1([H])N(C(=O)C([H])(N([H])C(=O)C([H])(N([H])C([H])([H])[H])C([H])([H])[H])C(C([H])([H])[H])(C([H])([H])[H])C([H])([H])[H])C([H])([H])c2c([H])c(OC([H])([H])C([H])([H])C([H])([H])n3c([H])c(C([H])([H])N(C(=O)N4C([H])([H])C([H])([H])C([H])([H])C([H])(n5nc(-c6c([H])c([H])c(Oc7c([H])c([H])c(F)c([H])c7F)c([H])c6[H])c(C(=O)N([H])[H])c5N([H])[H])C4([H])[H])C([H])([H])[H])c([H])c3C([H])([H])C([H])([H])C([H])(C([H])([H])[H])C([H])([H])[H])c([H])c([H])c2C1([H])[H]

>  <smiles>  (5) 
[H]c1c([H])c([H])c2c(c1[H])C([H])([H])C([H])([H])C([H])([H])C2([H])N([H])C(=O)C1([H])N(C(=O)C([H])(N([H])C(=O)C([H])(N([H])C([H])([H])[H])C([H])([H])[H])C(C([H])([H])[H])(C([H])([H])[H])C([H])([H])[H])C([H])([H])c2c([H])c(OC([H])([H])C([H])([H])C([H])([H])n3c([H])c(C([H])([H])N(C(=O)N4C([H])([H])C([H])([H])C([H])([H])C([H])(n5nc(-c6c([H])c([H])c(Oc7c([H])c([H])c(F)c([H])c7F)c([H])c6[H])c(C(=O)N([H])[H])c5N([H])[H])C4([H])[H])C([H])([H])[H])c([H])c3C([H])([H])C([H])([H])C([H])(C([H])([H])[H])C([H])([H])[H])c([H])c([H])c2C1([H])[H]

$$$$
5:0:0
     RDKit          3D

 94102  0  0  1  0  0  0  0  0999 V2000
  -30.0850  -20.7430   19.5180 C   0  0  0  0  0  3  0  0  0  0  0  0
  -30.2320  -19.5170   20.2370 C   0  0  0  0  0  0  0  0  0  0  0  0
  -29.8770  -19.9830   21.5500 C   0  0  0  0  0  0  0  0  0  0  0  0
  -29.5930  -21.3610   21.5500 C   0  0  0  0  0  0  0  0  0  0  0  0
  -29.2670  -22.2410   22.7220 C   0  0  0  0  0  1  0  0  0  0  0  0
  -29.7270  -21.9380   20.2790 N   0  0  0  0  0  0  0  0  0  0  0  0
  -29.8990  -19.0790   22.7640 C   0  0  0  0  0  2  0  0  0  0  0  0
  -32.3430  -19.6600   23.3210 C   0  0  0  0  0  1  0  0  0  0  0  0
  -31.2590  -17.5980   24.3110 C   0  0  0  0  0  1  0  0  0  0  0  0
  -31.3090  -18.5410   23.1020 C   0  0  0  0  0  3  0  0  0  0  0  0
  -30.7790  -17.9940   19.7330 C   0  0  0  0  0  2  0  0  0  0  0  0
  -31.0130  -15.2500   19.9680 C   0  0  0  0  0  0  0  0  0  0  0  0
  -30.8030  -12.8650   19.1060 C   0  0  0  0  0  2  0  0  0  0  0  0
  -29.8630  -12.8010   17.8800 C   0  0  0  0  0  2  0  0  0  0  0  0
  -28.4030  -12.6210   18.3320 C   0  0  0  0  0  2  0  0  0  0  0  0
  -28.0270  -13.5940   19.4800 C   0  0  0  0  0  3  0  0  0  0  0  0
  -29.0900  -13.6400   20.5970 C   0  0  0  0  0  2  0  0  0  0  0  0
  -30.3640  -14.0090   19.9620 N   0  0  0  0  0  0  0  0  0  0  0  0
  -32.2150  -15.2330   19.6790 O   0  0  0  0  0  0  0  0  0  0  0  0
  -30.3140  -16.5020   20.0670 N   0  0  0  0  0  0  0  0  0  0  0  0
  -29.3310  -16.4100   20.2690 H   0  0  0  0  0  0  0  0  0  0  0  0
  -25.6820  -14.2520   20.2510 C   0  0  0  0  0  0  0  0  0  0  0  0
  -24.5960  -13.5130   20.6400 C   0  0  0  0  0  0  0  0  0  0  0  0
  -25.0170  -12.1460   20.6150 C   0  0  0  0  0  0  0  0  0  0  0  0
  -26.6910  -13.3380   20.0040 N   0  0  0  0  0  0  0  0  0  0  0  0
  -26.3040  -12.0680   20.2910 N   0  0  0  0  0  0  0  0  0  0  0  0
  -24.2510  -10.9120   20.8240 C   0  0  0  0  0  0  0  0  0  0  0  0
  -24.6340   -9.9580   21.7950 C   0  0  0  0  0  3  0  0  0  0  0  0
  -23.8690   -8.7890   21.9910 C   0  0  0  0  0  3  0  0  0  0  0  0
  -22.7070   -8.5610   21.2160 C   0  0  0  0  0  0  0  0  0  0  0  0
  -22.3420   -9.5020   20.2350 C   0  0  0  0  0  3  0  0  0  0  0  0
  -23.1070  -10.6640   20.0380 C   0  0  0  0  0  3  0  0  0  0  0  0
  -21.9160   -7.4420   21.3200 O   0  0  0  0  0  0  0  0  0  0  0  0
  -21.7690   -6.7740   22.5110 C   0  0  0  0  0  0  0  0  0  0  0  0
  -21.2960   -7.4180   23.6720 C   0  0  0  0  0  3  0  0  0  0  0  0
  -21.0920   -6.6790   24.8550 C   0  0  0  0  0  3  0  0  0  0  0  0
  -21.3520   -5.2950   24.8740 C   0  0  0  0  0  0  0  0  0  0  0  0
  -21.8180   -4.6510   23.7150 C   0  0  0  0  0  3  0  0  0  0  0  0
  -22.0230   -5.3880   22.5340 C   0  0  0  0  0  0  0  0  0  0  0  0
  -22.4520   -4.7570   21.4150 F   0  0  0  0  0  0  0  0  0  0  0  0
  -21.1480   -4.5830   26.0070 F   0  0  0  0  0  0  0  0  0  0  0  0
  -23.2190  -14.0370   20.9210 C   0  0  0  0  0  0  0  0  0  0  0  0
  -22.4890  -13.3840   21.8160 N   0  0  0  0  0  0  0  0  0  0  0  0
  -22.8040  -15.0620   20.3790 O   0  0  0  0  0  0  0  0  0  0  0  0
  -22.8390  -12.5530   22.2710 H   0  0  0  0  0  0  0  0  0  0  0  0
  -21.5620  -13.7150   22.0480 H   0  0  0  0  0  0  0  0  0  0  0  0
  -25.8890  -15.6140   20.0580 N   0  0  0  0  0  0  0  0  0  0  0  0
  -25.1370  -16.2900   20.1340 H   0  0  0  0  0  0  0  0  0  0  0  0
  -26.7450  -16.0140   19.6980 H   0  0  0  0  0  0  0  0  0  0  0  0
  -29.7300  -23.5150   19.8650 C   0  0  0  0  0  3  0  0  0  0  0  0
  -31.8120  -23.5800   18.3190 C   0  0  0  0  0  1  0  0  0  0  0  0
  -30.2770  -23.6780   18.4250 C   0  0  0  0  0  2  0  0  0  0  0  0
  -28.5110  -24.7050   20.0520 C   0  0  0  0  0  2  0  0  0  0  0  0
  -28.6930  -26.2740   20.0100 O   0  0  0  0  0  0  0  0  0  0  0  0
  -24.8320  -31.7640   23.1490 C   0  0  0  0  0  0  0  0  0  0  0  0
  -27.5910  -27.2190   19.9900 C   0  0  0  0  0  0  0  0  0  0  0  0
  -23.6830  -30.3500   21.4910 C   0  0  0  0  0  3  0  0  0  0  0  0
  -25.1870  -28.8780   20.0180 C   0  0  0  0  0  0  0  0  0  0  0  0
  -26.2220  -30.7350   21.3060 C   0  0  0  0  0  2  0  0  0  0  0  0
  -26.3530  -29.3600   20.6230 C   0  0  0  0  0  0  0  0  0  0  0  0
  -27.5550  -28.5500   20.5880 C   0  0  0  0  0  3  0  0  0  0  0  0
  -26.3880  -26.8450   19.3550 C   0  0  0  0  0  3  0  0  0  0  0  0
  -25.2200  -27.6370   19.3670 C   0  0  0  0  0  3  0  0  0  0  0  0
  -23.9250  -29.7260   20.0910 C   0  0  0  0  0  2  0  0  0  0  0  0
  -24.9340  -30.9710   22.0380 N   0  0  0  0  0  0  0  0  0  0  0  0
  -23.7370  -31.9810   23.6930 O   0  0  0  0  0  0  0  0  0  0  0  0
  -23.0640  -29.2880   22.4360 C   0  0  0  0  0  0  0  0  0  0  0  0
  -21.7500  -29.0370   22.3050 N   0  0  0  0  0  0  0  0  0  0  0  0
  -23.7710  -28.6930   23.2540 O   0  0  0  0  0  0  0  0  0  0  0  0
  -21.2270  -29.5740   21.6290 H   0  0  0  0  0  0  0  0  0  0  0  0
  -18.4630  -27.5710   22.7400 C   0  0  0  0  0  0  0  0  0  0  0  0
  -20.9880  -28.0390   23.0630 C   0  0  0  0  0  3  0  0  0  0  0  0
  -21.2190  -26.6160   22.5020 C   0  0  0  0  0  2  0  0  0  0  0  0
  -20.1700  -26.1990   21.4660 C   0  0  0  0  0  2  0  0  0  0  0  0
  -18.7650  -26.2370   22.0730 C   0  0  0  0  0  2  0  0  0  0  0  0
  -19.5080  -28.4220   23.1910 C   0  0  0  0  0  0  0  0  0  0  0  0
  -19.1750  -29.6630   23.7730 C   0  0  0  0  0  3  0  0  0  0  0  0
  -17.8310  -30.0590   23.9100 C   0  0  0  0  0  3  0  0  0  0  0  0
  -16.8010  -29.2070   23.4730 C   0  0  0  0  0  3  0  0  0  0  0  0
  -17.1170  -27.9650   22.8940 C   0  0  0  0  0  3  0  0  0  0  0  0
  -26.0820  -32.4540   23.7740 C   0  0  0  0  0  3  0  0  0  0  0  0
  -25.7010  -33.8280   24.1410 N   0  0  0  0  0  0  0  0  0  0  0  0
  -25.9810  -34.9200   23.4180 C   0  0  0  0  0  0  0  0  0  0  0  0
  -26.6530  -34.8850   22.3850 O   0  0  0  0  0  0  0  0  0  0  0  0
  -25.1080  -33.9300   24.9510 H   0  0  0  0  0  0  0  0  0  0  0  0
  -24.1640  -36.6410   23.1400 C   0  0  0  0  0  1  0  0  0  0  0  0
  -25.4330  -36.2710   23.9250 C   0  0  0  0  0  3  0  0  0  0  0  0
  -27.5340  -37.2310   24.7620 C   0  0  0  0  0  1  0  0  0  0  0  0
  -26.4110  -37.3770   23.8370 N   0  0  0  0  0  0  0  0  0  0  0  0
  -25.9610  -38.2700   24.0210 H   0  0  0  0  0  0  0  0  0  0  0  0
  -26.6460  -31.6880   25.0320 C   0  0  1  0  0  0  0  0  0  0  0  0
  -25.5760  -31.3880   26.1080 C   0  0  0  0  0  1  0  0  0  0  0  0
  -27.2860  -30.3450   24.6110 C   0  0  0  0  0  1  0  0  0  0  0  0
  -27.7650  -32.5240   25.6960 C   0  0  0  0  0  1  0  0  0  0  0  0
  1  2  2  0
  1  6  1  0
  2  3  1  0
  3  7  1  0
  4  3  2  0
  4  5  1  0
  6  4  1  0
  7 10  1  0
 10  8  1  0
 10  9  1  0
 11 20  1  0
 11  2  1  0
 12 20  1  0
 13 18  1  0
 14 15  1  0
 14 13  1  0
 16 15  1  0
 16 25  1  0
 16 17  1  0
 18 12  1  0
 18 17  1  0
 19 12  2  0
 20 21  1  0
 22 23  2  0
 23 42  1  0
 24 23  1  0
 24 27  1  0
 25 22  1  0
 25 26  1  0
 26 24  2  0
 27 28  1  0
 28 29  2  0
 30 33  1  0
 30 29  1  0
 31 30  2  0
 32 31  1  0
 32 27  2  0
 33 34  1  0
 34 39  2  0
 34 35  1  0
 35 36  2  0
 36 37  1  0
 37 41  1  0
 38 37  2  0
 39 38  1  0
 40 39  1  0
 42 43  1  0
 43 46  1  0
 43 45  1  0
 44 42  2  0
 47 48  1  0
 47 22  1  0
 49 47  1  0
 50 52  1  0
 50 53  1  0
 50  6  1  0
 51 52  1  0
 54 53  1  0
 55 66  2  0
 56 54  1  0
 56 61  1  0
 57 65  1  0
 57 67  1  0
 58 64  1  0
 58 60  1  0
 59 65  1  0
 60 59  1  0
 61 60  2  0
 62 63  1  0
 62 56  2  0
 63 58  2  0
 64 57  1  0
 65 55  1  0
 67 69  2  0
 68 67  1  0
 70 68  1  0
 71 80  2  0
 71 76  1  0
 72 68  1  0
 72 76  1  0
 73 72  1  0
 74 75  1  0
 74 73  1  0
 75 71  1  0
 76 77  2  0
 77 78  1  0
 79 78  2  0
 80 79  1  0
 81 55  1  0
 81 82  1  0
 81 91  1  0
 82 85  1  0
 83 87  1  0
 83 82  1  0
 84 83  2  0
 87 86  1  0
 89 87  1  0
 89 90  1  0
 89 88  1  0
 91 94  1  1
 91 92  1  0
 93 91  1  0
M  ISO  4  12 100  20 100  53 101  54 101
M  END
>  <TORSDO>  (6) 
F 22

>  <SCORE>  (6) 
-9.697

>  <name>  (6) 
5

>  <ligand_id>  (6) 
5

>  <original_smiles>  (6) 
[H]c1c([H])c([H])c2c(c1[H])C([H])([H])C([H])([H])C([H])([H])C2([H])N([H])C(=O)C1([H])N(C(=O)C([H])(N([H])C(=O)C([H])(N([H])C([H])([H])[H])C([H])([H])[H])C(C([H])([H])[H])(C([H])([H])[H])C([H])([H])[H])C([H])([H])c2c([H])c(OC([H])([H])C([H])(n3c([H])c(C([H])([H])N([H])C(=O)N4C([H])([H])C([H])([H])C([H])([H])C([H])(n5nc(-c6c([H])c([H])c(Oc7c([H])c([H])c(F)c([H])c7F)c([H])c6[H])c(C(=O)N([H])[H])c5N([H])[H])C4([H])[H])c(C([H])([H])C([H])(C([H])([H])[H])C([H])([H])[H])c3C([H])([H])[H])C([H])([H])C([H])([H])[H])c([H])c([H])c2C1([H])[H]

>  <smiles>  (6) 
[H]c1c([H])c([H])c2c(c1[H])C([H])([H])C([H])([H])C([H])([H])C2([H])N([H])C(=O)C1([H])N(C(=O)C([H])(N([H])C(=O)C([H])(N([H])C([H])([H])[H])C([H])([H])[H])C(C([H])([H])[H])(C([H])([H])[H])C([H])([H])[H])C([H])([H])c2c([H])c(OC([H])([H])C([H])(n3c([H])c(C([H])([H])N([H])C(=O)N4C([H])([H])C([H])([H])C([H])([H])C([H])(n5nc(-c6c([H])c([H])c(Oc7c([H])c([H])c(F)c([H])c7F)c([H])c6[H])c(C(=O)N([H])[H])c5N([H])[H])C4([H])[H])c(C([H])([H])C([H])(C([H])([H])[H])C([H])([H])[H])c3C([H])([H])[H])C([H])([H])C([H])([H])[H])c([H])c([H])c2C1([H])[H]

$$$$
6:0:0
     RDKit          3D

 92100  0  0  1  0  0  0  0  0999 V2000
  -30.0250  -20.5790   20.5570 C   0  0  0  0  0  3  0  0  0  0  0  0
  -28.6300  -21.0730   18.9680 C   0  0  0  0  0  3  0  0  0  0  0  0
  -29.8500  -19.3100   19.9240 C   0  0  0  0  0  0  0  0  0  0  0  0
  -28.9170  -19.7030   18.8930 C   0  0  0  0  0  0  0  0  0  0  0  0
  -29.2970  -21.7140   20.0070 N   0  0  0  0  0  0  0  0  0  0  0  0
  -30.5940  -17.8240   20.2440 C   0  0  0  0  0  2  0  0  0  0  0  0
  -30.7790  -15.0690   20.0480 C   0  0  0  0  0  0  0  0  0  0  0  0
  -30.5640  -12.7210   19.0860 C   0  0  0  0  0  2  0  0  0  0  0  0
  -29.5980  -12.6870   17.8790 C   0  0  0  0  0  2  0  0  0  0  0  0
  -28.1450  -12.5030   18.3510 C   0  0  0  0  0  2  0  0  0  0  0  0
  -27.7890  -13.4290   19.5430 C   0  0  0  0  0  3  0  0  0  0  0  0
  -28.8750  -13.4290   20.6380 C   0  0  0  0  0  2  0  0  0  0  0  0
  -30.1300  -13.8290   19.9900 N   0  0  0  0  0  0  0  0  0  0  0  0
  -31.9820  -15.0640   19.7620 O   0  0  0  0  0  0  0  0  0  0  0  0
  -30.0790  -16.3120   20.2250 N   0  0  0  0  0  0  0  0  0  0  0  0
  -29.0950  -16.2040   20.4080 H   0  0  0  0  0  0  0  0  0  0  0  0
  -25.4510  -14.0530   20.3630 C   0  0  0  0  0  0  0  0  0  0  0  0
  -24.3760  -13.3020   20.7510 C   0  0  0  0  0  0  0  0  0  0  0  0
  -24.8030  -11.9400   20.6860 C   0  0  0  0  0  0  0  0  0  0  0  0
  -26.4620  -13.1530   20.0790 N   0  0  0  0  0  0  0  0  0  0  0  0
  -26.0840  -11.8740   20.3400 N   0  0  0  0  0  0  0  0  0  0  0  0
  -24.0470  -10.6960   20.8770 C   0  0  0  0  0  0  0  0  0  0  0  0
  -24.4610   -9.7120   21.8020 C   0  0  0  0  0  3  0  0  0  0  0  0
  -23.7040   -8.5340   21.9810 C   0  0  0  0  0  3  0  0  0  0  0  0
  -22.5180   -8.3320   21.2360 C   0  0  0  0  0  0  0  0  0  0  0  0
  -22.1230   -9.3030   20.3000 C   0  0  0  0  0  3  0  0  0  0  0  0
  -22.8800  -10.4730   20.1190 C   0  0  0  0  0  3  0  0  0  0  0  0
  -21.7330   -7.2070   21.3250 O   0  0  0  0  0  0  0  0  0  0  0  0
  -21.6450   -6.4820   22.4860 C   0  0  0  0  0  0  0  0  0  0  0  0
  -21.2100   -7.0640   23.6960 C   0  0  0  0  0  3  0  0  0  0  0  0
  -21.0660   -6.2670   24.8490 C   0  0  0  0  0  3  0  0  0  0  0  0
  -21.3470   -4.8890   24.7920 C   0  0  0  0  0  0  0  0  0  0  0  0
  -21.7760   -4.3060   23.5860 C   0  0  0  0  0  3  0  0  0  0  0  0
  -21.9210   -5.1010   22.4360 C   0  0  0  0  0  0  0  0  0  0  0  0
  -22.3130   -4.5310   21.2710 F   0  0  0  0  0  0  0  0  0  0  0  0
  -21.2030   -4.1200   25.8970 F   0  0  0  0  0  0  0  0  0  0  0  0
  -23.0010  -13.8140   21.0620 C   0  0  0  0  0  0  0  0  0  0  0  0
  -22.2810  -13.1370   21.9490 N   0  0  0  0  0  0  0  0  0  0  0  0
  -22.5740  -14.8510   20.5540 O   0  0  0  0  0  0  0  0  0  0  0  0
  -22.6400  -12.2990   22.3830 H   0  0  0  0  0  0  0  0  0  0  0  0
  -21.3580  -13.4610   22.1980 H   0  0  0  0  0  0  0  0  0  0  0  0
  -25.6460  -15.4200   20.1990 N   0  0  0  0  0  0  0  0  0  0  0  0
  -24.8990  -16.0900   20.3490 H   0  0  0  0  0  0  0  0  0  0  0  0
  -26.4790  -15.8350   19.8080 H   0  0  0  0  0  0  0  0  0  0  0  0
  -29.2850  -23.2660   20.4570 C   0  0  0  0  0  3  0  0  0  0  0  0
  -28.2910  -24.5660   19.9530 C   0  0  0  0  0  3  0  0  0  0  0  0
  -28.4540  -26.1050   20.2860 O   0  0  0  0  0  0  0  0  0  0  0  0
  -24.6240  -31.7600   23.1700 C   0  0  0  0  0  0  0  0  0  0  0  0
  -27.3840  -27.0850   20.1920 C   0  0  0  0  0  0  0  0  0  0  0  0
  -23.5020  -30.3490   21.4900 C   0  0  0  0  0  3  0  0  0  0  0  0
  -25.0240  -28.8050   20.1000 C   0  0  0  0  0  0  0  0  0  0  0  0
  -26.0570  -30.6580   21.4030 C   0  0  0  0  0  2  0  0  0  0  0  0
  -26.1780  -29.2670   20.7440 C   0  0  0  0  0  0  0  0  0  0  0  0
  -27.3580  -28.4250   20.7690 C   0  0  0  0  0  3  0  0  0  0  0  0
  -26.1990  -26.7320   19.5080 C   0  0  0  0  0  3  0  0  0  0  0  0
  -25.0490  -27.5530   19.4650 C   0  0  0  0  0  3  0  0  0  0  0  0
  -23.7770  -29.6790   20.1170 C   0  0  0  0  0  2  0  0  0  0  0  0
  -24.7460  -30.9460   22.0750 N   0  0  0  0  0  0  0  0  0  0  0  0
  -23.5170  -32.0210   23.6660 O   0  0  0  0  0  0  0  0  0  0  0  0
  -22.8130  -29.3250   22.4290 C   0  0  0  0  0  0  0  0  0  0  0  0
  -21.4840  -29.1640   22.2930 N   0  0  0  0  0  0  0  0  0  0  0  0
  -23.4770  -28.6800   23.2430 O   0  0  0  0  0  0  0  0  0  0  0  0
  -21.0040  -29.7350   21.6120 H   0  0  0  0  0  0  0  0  0  0  0  0
  -18.0900  -28.0000   22.7950 C   0  0  0  0  0  0  0  0  0  0  0  0
  -20.6560  -28.2130   23.0400 C   0  0  0  0  0  3  0  0  0  0  0  0
  -20.7280  -26.8010   22.4140 C   0  0  0  0  0  2  0  0  0  0  0  0
  -19.6100  -26.5320   21.4020 C   0  0  0  0  0  2  0  0  0  0  0  0
  -18.2380  -26.6750   22.0670 C   0  0  0  0  0  2  0  0  0  0  0  0
  -19.2250  -28.7310   23.2380 C   0  0  0  0  0  0  0  0  0  0  0  0
  -19.0320  -29.9720   23.8810 C   0  0  0  0  0  3  0  0  0  0  0  0
  -17.7360  -30.4840   24.0840 C   0  0  0  0  0  3  0  0  0  0  0  0
  -16.6150  -29.7510   23.6570 C   0  0  0  0  0  3  0  0  0  0  0  0
  -16.7930  -28.5100   23.0180 C   0  0  0  0  0  3  0  0  0  0  0  0
  -25.8680  -32.4200   23.8380 C   0  0  0  0  0  3  0  0  0  0  0  0
  -25.5210  -33.8140   24.1580 N   0  0  0  0  0  0  0  0  0  0  0  0
  -25.8630  -34.8760   23.4160 C   0  0  0  0  0  0  0  0  0  0  0  0
  -26.5680  -34.7860   22.4060 O   0  0  0  0  0  0  0  0  0  0  0  0
  -24.8980  -33.9570   24.9390 H   0  0  0  0  0  0  0  0  0  0  0  0
  -24.1140  -36.6440   23.0210 C   0  0  0  0  0  1  0  0  0  0  0  0
  -25.3420  -36.2570   23.8620 C   0  0  0  0  0  3  0  0  0  0  0  0
  -27.4390  -37.1800   24.7460 C   0  0  0  0  0  1  0  0  0  0  0  0
  -26.3600  -37.3280   23.7740 N   0  0  0  0  0  0  0  0  0  0  0  0
  -25.9350  -38.2420   23.9080 H   0  0  0  0  0  0  0  0  0  0  0  0
  -26.3480  -31.6630   25.1390 C   0  0  1  0  0  0  0  0  0  0  0  0
  -25.2180  -31.4180   26.1680 C   0  0  0  0  0  1  0  0  0  0  0  0
  -26.9620  -30.2900   24.7840 C   0  0  0  0  0  1  0  0  0  0  0  0
  -27.4630  -32.4750   25.8380 C   0  0  0  0  0  1  0  0  0  0  0  0
  -28.3440  -18.7630   17.8470 C   0  0  0  0  0  3  0  0  0  0  0  0
  -26.0090  -18.4640   18.9060 C   0  0  0  0  0  1  0  0  0  0  0  0
  -26.8180  -18.9200   17.6810 C   0  0  0  0  0  2  0  0  0  0  0  0
  -30.5800  -18.6330   16.5510 C   0  0  0  0  0  1  0  0  0  0  0  0
  -29.0680  -18.9010   16.4910 C   0  0  0  0  0  2  0  0  0  0  0  0
  2  5  1  0
  3  6  1  0
  3  1  2  0
  4  2  2  0
  4  3  1  0
  5 45  1  0
  5  1  1  0
  7 15  1  0
  8 13  1  0
  9 10  1  0
  9  8  1  0
 11 10  1  0
 11 20  1  0
 11 12  1  0
 13  7  1  0
 13 12  1  0
 14  7  2  0
 15  6  1  0
 15 16  1  0
 17 18  2  0
 18 37  1  0
 19 18  1  0
 19 22  1  0
 20 21  1  0
 20 17  1  0
 21 19  2  0
 22 23  1  0
 23 24  2  0
 25 28  1  0
 25 24  1  0
 26 25  2  0
 27 26  1  0
 27 22  2  0
 28 29  1  0
 29 30  1  0
 30 31  2  0
 32 31  1  0
 32 36  1  0
 33 32  2  0
 34 29  2  0
 34 33  1  0
 35 34  1  0
 37 38  1  0
 38 41  1  0
 38 40  1  0
 39 37  2  0
 42 43  1  0
 42 17  1  0
 44 42  1  0
 46 47  1  0
 46 45  2  0
 48 59  2  0
 49 47  1  0
 49 54  1  0
 50 58  1  0
 50 60  1  0
 51 57  1  0
 51 53  1  0
 52 58  1  0
 53 54  2  0
 53 52  1  0
 55 49  2  0
 56 55  1  0
 56 51  2  0
 57 50  1  0
 58 48  1  0
 60 62  2  0
 61 60  1  0
 63 61  1  0
 64 73  2  0
 64 69  1  0
 65 61  1  0
 65 69  1  0
 66 65  1  0
 67 68  1  0
 67 66  1  0
 68 64  1  0
 69 70  2  0
 70 71  1  0
 72 71  2  0
 73 72  1  0
 74 48  1  0
 74 75  1  0
 74 84  1  0
 75 78  1  0
 76 80  1  0
 76 75  1  0
 77 76  2  0
 80 79  1  0
 82 80  1  0
 82 83  1  0
 82 81  1  0
 84 87  1  1
 84 85  1  0
 86 84  1  0
 88  4  1  0
 90 88  1  0
 90 89  1  0
 92 91  1  0
 92 88  1  0
M  ISO  4   7 100  15 100  46 101  47 101
M  END
>  <TORSDO>  (7) 
F 22

>  <SCORE>  (7) 
-12.962

>  <name>  (7) 
6

>  <ligand_id>  (7) 
6

>  <original_smiles>  (7) 
[H]c1c([H])c([H])c2c(c1[H])C([H])([H])C([H])([H])C([H])([H])C2([H])N([H])C(=O)C1([H])N(C(=O)C([H])(N([H])C(=O)C([H])(N([H])C([H])([H])[H])C([H])([H])[H])C(C([H])([H])[H])(C([H])([H])[H])C([H])([H])[H])C([H])([H])c2c([H])c(OC([H])([H])C([H])([H])n3c([H])c(C([H])([H])N([H])C(=O)N4C([H])([H])C([H])([H])C([H])([H])C([H])(n5nc(-c6c([H])c([H])c(Oc7c([H])c([H])c(F)c([H])c7F)c([H])c6[H])c(C(=O)N([H])[H])c5N([H])[H])C4([H])[H])c(C([H])(C([H])([H])C([H])([H])[H])C([H])([H])C([H])([H])[H])c3[H])c([H])c([H])c2C1([H])[H]

>  <smiles>  (7) 
[H]c1c([H])c([H])c2c(c1[H])C([H])([H])C([H])([H])C([H])([H])C2([H])N([H])C(=O)C1([H])N(C(=O)C([H])(N([H])C(=O)C([H])(N([H])C([H])([H])[H])C([H])([H])[H])C(C([H])([H])[H])(C([H])([H])[H])C([H])([H])[H])C([H])([H])c2c([H])c(OC([H])([H])C([H])([H])n3c([H])c(C([H])([H])N([H])C(=O)N4C([H])([H])C([H])([H])C([H])([H])C([H])(n5nc(-c6c([H])c([H])c(Oc7c([H])c([H])c(F)c([H])c7F)c([H])c6[H])c(C(=O)N([H])[H])c5N([H])[H])C4([H])[H])c(C([H])(C([H])([H])C([H])([H])[H])C([H])([H])C([H])([H])[H])c3[H])c([H])c([H])c2C1([H])[H]

$$$$
7:0:0
     RDKit          3D

 91 99  0  0  1  0  0  0  0  0999 V2000
  -31.8200  -19.4340   22.9360 C   0  0  0  0  0  3  0  0  0  0  0  0
  -30.5450  -21.0630   21.9820 C   0  0  0  0  0  3  0  0  0  0  0  0
  -31.2990  -18.4370   22.0930 C   0  0  0  0  0  0  0  0  0  0  0  0
  -29.9440  -20.1930   21.0510 C   0  0  0  0  0  0  0  0  0  0  0  0
  -30.3000  -18.7510   21.1160 C   0  0  0  0  0  0  0  0  0  0  0  0
  -31.9070  -17.0570   22.2870 C   0  0  0  0  0  1  0  0  0  0  0  0
  -31.4460  -20.7140   22.9040 N   0  0  0  0  0  0  0  0  0  0  0  0
  -28.9250  -20.9800   20.1360 C   0  0  0  0  0  2  0  0  0  0  0  0
  -29.1960  -22.5220   19.6420 C   0  0  0  0  0  2  0  0  0  0  0  0
  -28.8900  -23.9000   20.4550 C   0  0  0  0  0  3  0  0  0  0  0  0
  -28.3480  -25.1900   19.6250 C   0  0  0  0  0  3  0  0  0  0  0  0
  -28.3830  -26.6230   20.1110 O   0  0  0  0  0  0  0  0  0  0  0  0
  -24.6430  -31.9880   23.2680 C   0  0  0  0  0  0  0  0  0  0  0  0
  -27.2610  -27.4970   20.0510 C   0  0  0  0  0  0  0  0  0  0  0  0
  -23.4370  -30.6160   21.6110 C   0  0  0  0  0  3  0  0  0  0  0  0
  -24.8840  -29.1270   20.1150 C   0  0  0  0  0  0  0  0  0  0  0  0
  -25.9760  -30.9610   21.4040 C   0  0  0  0  0  2  0  0  0  0  0  0
  -26.0590  -29.5970   20.7160 C   0  0  0  0  0  0  0  0  0  0  0  0
  -27.2460  -28.7950   20.6740 C   0  0  0  0  0  3  0  0  0  0  0  0
  -26.0630  -27.1160   19.4000 C   0  0  0  0  0  3  0  0  0  0  0  0
  -24.8920  -27.8960   19.4440 C   0  0  0  0  0  3  0  0  0  0  0  0
  -23.6390  -29.9880   20.2080 C   0  0  0  0  0  2  0  0  0  0  0  0
  -24.7060  -31.2060   22.1510 N   0  0  0  0  0  0  0  0  0  0  0  0
  -23.5620  -32.2370   23.8230 O   0  0  0  0  0  0  0  0  0  0  0  0
  -22.8000  -29.5640   22.5520 C   0  0  0  0  0  0  0  0  0  0  0  0
  -21.4770  -29.3570   22.4310 N   0  0  0  0  0  0  0  0  0  0  0  0
  -23.4990  -28.9370   23.3550 O   0  0  0  0  0  0  0  0  0  0  0  0
  -20.9710  -29.9230   21.7640 H   0  0  0  0  0  0  0  0  0  0  0  0
  -18.1320  -28.0570   22.9160 C   0  0  0  0  0  0  0  0  0  0  0  0
  -20.6840  -28.3850   23.1840 C   0  0  0  0  0  3  0  0  0  0  0  0
  -20.8230  -26.9660   22.5870 C   0  0  0  0  0  2  0  0  0  0  0  0
  -19.7280  -26.6280   21.5700 C   0  0  0  0  0  2  0  0  0  0  0  0
  -18.3440  -26.7250   22.2180 C   0  0  0  0  0  2  0  0  0  0  0  0
  -19.2310  -28.8430   23.3560 C   0  0  0  0  0  0  0  0  0  0  0  0
  -18.9770  -30.0910   23.9670 C   0  0  0  0  0  3  0  0  0  0  0  0
  -17.6580  -30.5500   24.1450 C   0  0  0  0  0  3  0  0  0  0  0  0
  -16.5750  -29.7600   23.7210 C   0  0  0  0  0  3  0  0  0  0  0  0
  -16.8130  -28.5170   23.1120 C   0  0  0  0  0  3  0  0  0  0  0  0
  -25.9240  -32.6270   23.8890 C   0  0  0  0  0  3  0  0  0  0  0  0
  -25.6090  -34.0230   24.2260 N   0  0  0  0  0  0  0  0  0  0  0  0
  -25.9300  -35.0810   23.4690 C   0  0  0  0  0  0  0  0  0  0  0  0
  -26.5910  -34.9840   22.4310 O   0  0  0  0  0  0  0  0  0  0  0  0
  -25.0310  -34.1730   25.0390 H   0  0  0  0  0  0  0  0  0  0  0  0
  -24.1870  -36.8630   23.1460 C   0  0  0  0  0  1  0  0  0  0  0  0
  -25.4420  -36.4640   23.9380 C   0  0  0  0  0  3  0  0  0  0  0  0
  -27.5820  -37.3570   24.7420 C   0  0  0  0  0  1  0  0  0  0  0  0
  -26.4660  -37.5230   23.8150 N   0  0  0  0  0  0  0  0  0  0  0  0
  -26.0560  -38.4410   23.9750 H   0  0  0  0  0  0  0  0  0  0  0  0
  -26.4480  -31.8560   25.1620 C   0  0  1  0  0  0  0  0  0  0  0  0
  -25.3580  -31.6000   26.2300 C   0  0  0  0  0  1  0  0  0  0  0  0
  -27.0510  -30.4880   24.7670 C   0  0  0  0  0  1  0  0  0  0  0  0
  -27.5880  -32.6640   25.8290 C   0  0  0  0  0  1  0  0  0  0  0  0
  -29.7700  -17.5740   20.1690 C   0  0  0  0  0  2  0  0  0  0  0  0
  -30.4440  -14.9860   20.0500 C   0  0  0  0  0  0  0  0  0  0  0  0
  -30.2080  -12.7500   18.9520 C   0  0  0  0  0  2  0  0  0  0  0  0
  -29.1940  -12.8560   17.7890 C   0  0  0  0  0  2  0  0  0  0  0  0
  -27.7580  -12.6370   18.3000 C   0  0  0  0  0  2  0  0  0  0  0  0
  -27.4480  -13.4690   19.5740 C   0  0  0  0  0  3  0  0  0  0  0  0
  -28.5750  -13.3440   20.6270 C   0  0  0  0  0  2  0  0  0  0  0  0
  -29.8330  -13.7500   19.9840 N   0  0  0  0  0  0  0  0  0  0  0  0
  -31.5480  -15.1410   19.5220 O   0  0  0  0  0  0  0  0  0  0  0  0
  -29.7330  -16.0730   20.5380 N   0  0  0  0  0  0  0  0  0  0  0  0
  -28.8950  -15.8110   21.0350 H   0  0  0  0  0  0  0  0  0  0  0  0
  -25.0850  -13.9830   20.4320 C   0  0  0  0  0  0  0  0  0  0  0  0
  -24.0620  -13.1760   20.8490 C   0  0  0  0  0  0  0  0  0  0  0  0
  -24.5590  -11.8390   20.7710 C   0  0  0  0  0  0  0  0  0  0  0  0
  -26.1380  -13.1380   20.1290 N   0  0  0  0  0  0  0  0  0  0  0  0
  -25.8310  -11.8420   20.3920 N   0  0  0  0  0  0  0  0  0  0  0  0
  -23.8790  -10.5540   20.9810 C   0  0  0  0  0  0  0  0  0  0  0  0
  -24.3560   -9.6070   21.9140 C   0  0  0  0  0  3  0  0  0  0  0  0
  -23.6710   -8.3890   22.1150 C   0  0  0  0  0  3  0  0  0  0  0  0
  -22.4940   -8.1070   21.3830 C   0  0  0  0  0  0  0  0  0  0  0  0
  -22.0350   -9.0420   20.4390 C   0  0  0  0  0  3  0  0  0  0  0  0
  -22.7210  -10.2510   20.2360 C   0  0  0  0  0  3  0  0  0  0  0  0
  -21.7810   -6.9370   21.4910 O   0  0  0  0  0  0  0  0  0  0  0  0
  -21.7420   -6.2220   22.6610 C   0  0  0  0  0  0  0  0  0  0  0  0
  -21.2820   -6.7910   23.8690 C   0  0  0  0  0  3  0  0  0  0  0  0
  -21.1970   -6.0000   25.0320 C   0  0  0  0  0  3  0  0  0  0  0  0
  -21.5630   -4.6410   24.9870 C   0  0  0  0  0  0  0  0  0  0  0  0
  -22.0160   -4.0720   23.7840 C   0  0  0  0  0  3  0  0  0  0  0  0
  -22.1030   -4.8600   22.6240 C   0  0  0  0  0  0  0  0  0  0  0  0
  -22.5210   -4.3010   21.4610 F   0  0  0  0  0  0  0  0  0  0  0  0
  -21.4730   -3.8780   26.1000 F   0  0  0  0  0  0  0  0  0  0  0  0
  -22.6680  -13.6090   21.2020 C   0  0  0  0  0  0  0  0  0  0  0  0
  -22.0080  -12.8750   22.0900 N   0  0  0  0  0  0  0  0  0  0  0  0
  -22.1760  -14.6340   20.7280 O   0  0  0  0  0  0  0  0  0  0  0  0
  -22.4200  -12.0430   22.4870 H   0  0  0  0  0  0  0  0  0  0  0  0
  -21.0770  -13.1440   22.3740 H   0  0  0  0  0  0  0  0  0  0  0  0
  -25.2020  -15.3590   20.2610 N   0  0  0  0  0  0  0  0  0  0  0  0
  -24.4340  -15.9950   20.4470 H   0  0  0  0  0  0  0  0  0  0  0  0
  -26.0050  -15.8200   19.8540 H   0  0  0  0  0  0  0  0  0  0  0  0
  2  7  2  0
  3  6  1  0
  3  1  2  0
  4  5  2  0
  4  2  1  0
  5  3  1  0
  7  1  1  0
  8  4  1  0
  9  8  1  0
  9 10  1  0
 11 12  1  0
 11 10  2  0
 13 24  2  0
 14 12  1  0
 14 19  1  0
 15 23  1  0
 15 25  1  0
 16 22  1  0
 16 18  1  0
 17 23  1  0
 18 17  1  0
 19 18  2  0
 20 21  1  0
 20 14  2  0
 21 16  2  0
 22 15  1  0
 23 13  1  0
 25 27  2  0
 26 25  1  0
 28 26  1  0
 29 38  2  0
 29 34  1  0
 30 26  1  0
 30 34  1  0
 31 30  1  0
 32 33  1  0
 32 31  1  0
 33 29  1  0
 34 35  2  0
 35 36  1  0
 37 36  2  0
 38 37  1  0
 39 13  1  0
 39 40  1  0
 39 49  1  0
 40 43  1  0
 41 45  1  0
 41 40  1  0
 42 41  2  0
 45 44  1  0
 47 45  1  0
 47 48  1  0
 47 46  1  0
 49 52  1  1
 49 50  1  0
 51 49  1  0
 53 62  1  0
 53  5  1  0
 54 62  1  0
 55 60  1  0
 56 57  1  0
 56 55  1  0
 58 57  1  0
 58 67  1  0
 58 59  1  0
 60 54  1  0
 60 59  1  0
 61 54  2  0
 62 63  1  0
 64 65  2  0
 65 84  1  0
 66 65  1  0
 66 69  1  0
 67 68  1  0
 67 64  1  0
 68 66  2  0
 69 70  1  0
 70 71  2  0
 72 75  1  0
 72 71  1  0
 73 72  2  0
 74 73  1  0
 74 69  2  0
 75 76  1  0
 76 77  1  0
 77 78  2  0
 79 78  1  0
 79 83  1  0
 80 79  2  0
 81 76  2  0
 81 80  1  0
 82 81  1  0
 84 85  1  0
 85 88  1  0
 85 87  1  0
 86 84  2  0
 89 64  1  0
 89 90  1  0
 91 89  1  0
M  ISO  4  11 101  12 101  54 100  62 100
M  END
>  <TORSDO>  (8) 
F 21

>  <SCORE>  (8) 
-12.188

>  <name>  (8) 
7

>  <ligand_id>  (8) 
7

>  <original_smiles>  (8) 
[H]c1nc([H])c(C([H])([H])C([H])([H])C([H])([H])C([H])([H])Oc2c([H])c([H])c3c(c2[H])C([H])([H])N(C(=O)C([H])(N([H])C(=O)C([H])(N([H])C([H])([H])[H])C([H])([H])[H])C(C([H])([H])[H])(C([H])([H])[H])C([H])([H])[H])C([H])(C(=O)N([H])C2([H])c4c([H])c([H])c([H])c([H])c4C([H])([H])C([H])([H])C2([H])[H])C3([H])[H])c(C([H])([H])N([H])C(=O)N2C([H])([H])C([H])([H])C([H])([H])C([H])(n3nc(-c4c([H])c([H])c(Oc5c([H])c([H])c(F)c([H])c5F)c([H])c4[H])c(C(=O)N([H])[H])c3N([H])[H])C2([H])[H])c1C([H])([H])[H]

>  <smiles>  (8) 
[H]c1nc([H])c(C([H])([H])C([H])([H])C([H])([H])C([H])([H])Oc2c([H])c([H])c3c(c2[H])C([H])([H])N(C(=O)C([H])(N([H])C(=O)C([H])(N([H])C([H])([H])[H])C([H])([H])[H])C(C([H])([H])[H])(C([H])([H])[H])C([H])([H])[H])C([H])(C(=O)N([H])C2([H])c4c([H])c([H])c([H])c([H])c4C([H])([H])C([H])([H])C2([H])[H])C3([H])[H])c(C([H])([H])N([H])C(=O)N2C([H])([H])C([H])([H])C([H])([H])C([H])(n3nc(-c4c([H])c([H])c(Oc5c([H])c([H])c(F)c([H])c5F)c([H])c4[H])c(C(=O)N([H])[H])c3N([H])[H])C2([H])[H])c1C([H])([H])[H]

$$$$
8:0:0
     RDKit          3D

101109  0  0  1  0  0  0  0  0999 V2000
  -30.6510  -20.0310   18.9310 C   0  0  0  0  0  3  0  0  0  0  0  0
  -29.6870  -18.9700   20.8920 C   0  0  0  0  0  3  0  0  0  0  0  0
  -30.0950  -20.1370   20.2160 C   0  0  0  0  0  0  0  0  0  0  0  0
  -30.7250  -18.7860   18.2790 C   0  0  0  0  0  0  0  0  0  0  0  0
  -29.7600  -17.7030   20.2660 C   0  0  0  0  0  0  0  0  0  0  0  0
  -30.2330  -17.6190   18.9220 C   0  0  0  0  0  0  0  0  0  0  0  0
  -30.1910  -16.3150   18.1340 C   0  0  0  0  0  1  0  0  0  0  0  0
  -29.8860  -21.5170   20.8210 C   0  0  0  0  0  2  0  0  0  0  0  0
  -28.7630  -22.2660   20.0700 C   0  0  0  0  0  2  0  0  0  0  0  0
  -28.6500  -23.7870   20.3360 C   0  0  0  0  0  2  0  0  0  0  0  0
  -27.1750  -23.3350   22.3000 C   0  0  0  0  0  1  0  0  0  0  0  0
  -28.2140  -24.2120   21.7010 N   0  0  2  0  0  4  0  0  0  0  0  0
  -29.0130  -24.1350   22.3140 H   0  0  0  0  0  0  0  0  0  0  0  0
  -27.7640  -25.6370   21.7400 C   0  0  0  0  0  2  0  0  0  0  0  0
  -28.8610  -26.7220   21.5840 C   0  0  0  0  0  2  0  0  0  0  0  0
  -29.2740  -27.1460   20.1530 C   0  0  0  0  0  2  0  0  0  0  0  0
  -28.2090  -27.1000   19.2050 O   0  0  0  0  0  0  0  0  0  0  0  0
  -24.5280  -31.7820   23.1630 C   0  0  0  0  0  0  0  0  0  0  0  0
  -27.0820  -27.8660   19.4060 C   0  0  0  0  0  0  0  0  0  0  0  0
  -23.2610  -30.6120   21.3860 C   0  0  0  0  0  3  0  0  0  0  0  0
  -24.6690  -29.3030   19.7100 C   0  0  0  0  0  0  0  0  0  0  0  0
  -25.7710  -31.0310   21.1430 C   0  0  0  0  0  2  0  0  0  0  0  0
  -25.8400  -29.7600   20.3260 C   0  0  0  0  0  0  0  0  0  0  0  0
  -27.0490  -29.0480   20.1820 C   0  0  0  0  0  3  0  0  0  0  0  0
  -25.8980  -27.4220   18.7830 C   0  0  0  0  0  3  0  0  0  0  0  0
  -24.6900  -28.1270   18.9380 C   0  0  0  0  0  3  0  0  0  0  0  0
  -23.4220  -30.1310   19.9180 C   0  0  0  0  0  2  0  0  0  0  0  0
  -24.5400  -31.1470   21.9580 N   0  0  0  0  0  0  0  0  0  0  0  0
  -23.4690  -31.9670   23.7780 O   0  0  0  0  0  0  0  0  0  0  0  0
  -22.6530  -29.4620   22.2170 C   0  0  0  0  0  0  0  0  0  0  0  0
  -21.3240  -29.2960   22.1250 N   0  0  0  0  0  0  0  0  0  0  0  0
  -23.3710  -28.7260   22.9010 O   0  0  0  0  0  0  0  0  0  0  0  0
  -20.8060  -29.9470   21.5520 H   0  0  0  0  0  0  0  0  0  0  0  0
  -17.9700  -28.0390   22.5920 C   0  0  0  0  0  0  0  0  0  0  0  0
  -20.5380  -28.2560   22.7870 C   0  0  0  0  0  3  0  0  0  0  0  0
  -20.6080  -26.9220   22.0080 C   0  0  0  0  0  2  0  0  0  0  0  0
  -19.4610  -26.7490   21.0060 C   0  0  0  0  0  2  0  0  0  0  0  0
  -18.1090  -26.8000   21.7230 C   0  0  0  0  0  2  0  0  0  0  0  0
  -19.1110  -28.7310   23.0770 C   0  0  0  0  0  0  0  0  0  0  0  0
  -18.9250  -29.8980   23.8510 C   0  0  0  0  0  3  0  0  0  0  0  0
  -17.6330  -30.3730   24.1410 C   0  0  0  0  0  3  0  0  0  0  0  0
  -16.5070  -29.6740   23.6700 C   0  0  0  0  0  3  0  0  0  0  0  0
  -16.6770  -28.5090   22.9010 C   0  0  0  0  0  3  0  0  0  0  0  0
  -25.8370  -32.3280   23.8150 C   0  0  0  0  0  3  0  0  0  0  0  0
  -25.5550  -33.6800   24.3110 N   0  0  0  0  0  0  0  0  0  0  0  0
  -25.8920  -34.8090   23.6730 C   0  0  0  0  0  0  0  0  0  0  0  0
  -26.5480  -34.8180   22.6280 O   0  0  0  0  0  0  0  0  0  0  0  0
  -24.9710  -33.7490   25.1320 H   0  0  0  0  0  0  0  0  0  0  0  0
  -24.1850  -36.6500   23.5490 C   0  0  0  0  0  1  0  0  0  0  0  0
  -25.4290  -36.1400   24.2940 C   0  0  0  0  0  3  0  0  0  0  0  0
  -27.5850  -36.8960   25.1930 C   0  0  0  0  0  1  0  0  0  0  0  0
  -26.4750  -37.1860   24.2900 N   0  0  0  0  0  0  0  0  0  0  0  0
  -26.0840  -38.0880   24.5490 H   0  0  0  0  0  0  0  0  0  0  0  0
  -26.3860  -31.4080   24.9740 C   0  0  1  0  0  0  0  0  0  0  0  0
  -25.3250  -31.0590   26.0430 C   0  0  0  0  0  1  0  0  0  0  0  0
  -26.9360  -30.0800   24.3990 C   0  0  0  0  0  1  0  0  0  0  0  0
  -27.5690  -32.1080   25.6830 C   0  0  0  0  0  1  0  0  0  0  0  0
  -31.3070  -18.7610   16.8710 C   0  0  0  0  0  2  0  0  0  0  0  0
  -30.2550  -19.1120   15.8040 C   0  0  0  0  0  2  0  0  0  0  0  0
  -31.2250  -17.7790   13.8450 C   0  0  0  0  0  1  0  0  0  0  0  0
  -29.7820  -19.8050   13.4180 C   0  0  0  0  0  1  0  0  0  0  0  0
  -30.8080  -19.1650   14.3660 C   0  0  0  0  0  3  0  0  0  0  0  0
  -29.2670  -16.4850   21.0640 C   0  0  0  0  0  2  0  0  0  0  0  0
  -30.8350  -14.5990   20.7500 C   0  0  0  0  0  0  0  0  0  0  0  0
  -30.5380  -12.4100   19.6390 C   0  0  0  0  0  2  0  0  0  0  0  0
  -29.6600  -12.5120   18.3790 C   0  0  0  0  0  2  0  0  0  0  0  0
  -28.1700  -12.3750   18.7440 C   0  0  0  0  0  2  0  0  0  0  0  0
  -27.7590  -13.2960   19.9200 C   0  0  0  0  0  3  0  0  0  0  0  0
  -28.7570  -13.1860   21.0970 C   0  0  0  0  0  2  0  0  0  0  0  0
  -30.1120  -13.4540   20.5860 N   0  0  0  0  0  0  0  0  0  0  0  0
  -31.9630  -14.7370   20.2660 O   0  0  0  0  0  0  0  0  0  0  0  0
  -31.1880  -16.1760   22.5500 C   0  0  0  0  0  1  0  0  0  0  0  0
  -30.3140  -15.5620   21.5460 N   0  0  0  0  0  0  0  0  0  0  0  0
  -25.3540  -13.9530   20.5520 C   0  0  0  0  0  0  0  0  0  0  0  0
  -24.2580  -13.1990   20.8760 C   0  0  0  0  0  0  0  0  0  0  0  0
  -24.6950  -11.8390   20.8510 C   0  0  0  0  0  0  0  0  0  0  0  0
  -26.3880  -13.0500   20.3510 N   0  0  0  0  0  0  0  0  0  0  0  0
  -25.9930  -11.7760   20.5920 N   0  0  0  0  0  0  0  0  0  0  0  0
  -23.9410  -10.5900   21.0000 C   0  0  0  0  0  0  0  0  0  0  0  0
  -24.3360   -9.5960   21.9220 C   0  0  0  0  0  3  0  0  0  0  0  0
  -23.5860   -8.4090   22.0600 C   0  0  0  0  0  3  0  0  0  0  0  0
  -22.4270   -8.2080   21.2740 C   0  0  0  0  0  0  0  0  0  0  0  0
  -22.0520   -9.1900   20.3410 C   0  0  0  0  0  3  0  0  0  0  0  0
  -22.8030  -10.3690   20.2010 C   0  0  0  0  0  3  0  0  0  0  0  0
  -21.6500   -7.0750   21.3220 O   0  0  0  0  0  0  0  0  0  0  0  0
  -21.5760   -6.3010   22.4510 C   0  0  0  0  0  0  0  0  0  0  0  0
  -21.1600   -6.8310   23.6920 C   0  0  0  0  0  3  0  0  0  0  0  0
  -21.0320   -5.9840   24.8120 C   0  0  0  0  0  3  0  0  0  0  0  0
  -21.3100   -4.6090   24.6900 C   0  0  0  0  0  0  0  0  0  0  0  0
  -21.7190   -4.0790   23.4540 C   0  0  0  0  0  3  0  0  0  0  0  0
  -21.8490   -4.9230   22.3370 C   0  0  0  0  0  0  0  0  0  0  0  0
  -22.2240   -4.4040   21.1430 F   0  0  0  0  0  0  0  0  0  0  0  0
  -21.1790   -3.7940   25.7620 F   0  0  0  0  0  0  0  0  0  0  0  0
  -22.8590  -13.7000   21.0960 C   0  0  0  0  0  0  0  0  0  0  0  0
  -22.0880  -13.0130   21.9310 N   0  0  0  0  0  0  0  0  0  0  0  0
  -22.4580  -14.7330   20.5630 O   0  0  0  0  0  0  0  0  0  0  0  0
  -22.4240  -12.1760   22.3840 H   0  0  0  0  0  0  0  0  0  0  0  0
  -21.1470  -13.3290   22.1220 H   0  0  0  0  0  0  0  0  0  0  0  0
  -25.5500  -15.3220   20.3920 N   0  0  0  0  0  0  0  0  0  0  0  0
  -24.7860  -15.9850   20.4720 H   0  0  0  0  0  0  0  0  0  0  0  0
  -26.4090  -15.7480   20.0700 H   0  0  0  0  0  0  0  0  0  0  0  0
  1  3  1  0
  3  8  1  0
  3  2  2  0
  4  6  1  0
  4  1  2  0
  5  2  1  0
  5 63  1  0
  6  5  2  0
  7  6  1  0
  9 10  1  0
  9  8  1  0
 10 12  1  0
 12 14  1  0
 12 11  1  0
 12 13  1  1
 15 14  1  0
 16 15  1  0
 17 19  1  0
 17 16  1  0
 18 29  2  0
 19 24  1  0
 20 28  1  0
 20 30  1  0
 21 27  1  0
 21 23  1  0
 22 28  1  0
 23 22  1  0
 24 23  2  0
 25 26  1  0
 25 19  2  0
 26 21  2  0
 27 20  1  0
 28 18  1  0
 30 32  2  0
 31 30  1  0
 33 31  1  0
 34 43  2  0
 34 39  1  0
 35 31  1  0
 35 39  1  0
 36 35  1  0
 37 38  1  0
 37 36  1  0
 38 34  1  0
 39 40  2  0
 40 41  1  0
 42 41  2  0
 43 42  1  0
 44 18  1  0
 44 45  1  0
 44 54  1  0
 45 48  1  0
 46 50  1  0
 46 45  1  0
 47 46  2  0
 50 49  1  0
 52 50  1  0
 52 53  1  0
 52 51  1  0
 54 57  1  1
 54 55  1  0
 56 54  1  0
 58  4  1  0
 59 58  1  0
 60 62  1  0
 61 62  1  0
 62 59  1  0
 63 73  1  0
 64 73  1  0
 65 70  1  0
 66 67  1  0
 66 65  1  0
 68 67  1  0
 68 77  1  0
 68 69  1  0
 70 64  1  0
 70 69  1  0
 71 64  2  0
 73 72  1  0
 74 75  2  0
 75 94  1  0
 76 75  1  0
 76 79  1  0
 77 74  1  0
 77 78  1  0
 78 76  2  0
 79 80  1  0
 80 81  2  0
 82 85  1  0
 82 81  1  0
 83 82  2  0
 84 83  1  0
 84 79  2  0
 85 86  1  0
 86 87  1  0
 87 88  2  0
 89 88  1  0
 89 93  1  0
 90 89  2  0
 91 86  2  0
 91 90  1  0
 92 91  1  0
 94 95  1  0
 95 98  1  0
 95 97  1  0
 96 94  2  0
 99100  1  0
 99 74  1  0
101 99  1  0
M  ISO  4  16 101  17 101  64 100  73 100
M  END
>  <TORSDO>  (9) 
F 27

>  <SCORE>  (9) 
-10.169

>  <name>  (9) 
8

>  <ligand_id>  (9) 
8

>  <original_smiles>  (9) 
[H]c1c([H])c([H])c2c(c1[H])C([H])([H])C([H])([H])C([H])([H])C2([H])N([H])C(=O)C1([H])N(C(=O)C([H])(N([H])C(=O)C([H])(N([H])C([H])([H])[H])C([H])([H])[H])C(C([H])([H])[H])(C([H])([H])[H])C([H])([H])[H])C([H])([H])c2c([H])c(OC([H])([H])C([H])([H])C([H])([H])[N+]([H])(C([H])([H])[H])C([H])([H])C([H])([H])C([H])([H])c3c([H])c(C([H])([H])N(C(=O)N4C([H])([H])C([H])([H])C([H])([H])C([H])(n5nc(-c6c([H])c([H])c(Oc7c([H])c([H])c(F)c([H])c7F)c([H])c6[H])c(C(=O)N([H])[H])c5N([H])[H])C4([H])[H])C([H])([H])[H])c(C([H])([H])[H])c(C([H])([H])C([H])([H])C([H])(C([H])([H])[H])C([H])([H])[H])c3[H])c([H])c([H])c2C1([H])[H]

>  <smiles>  (9) 
[H]c1c([H])c([H])c2c(c1[H])C([H])([H])C([H])([H])C([H])([H])C2([H])N([H])C(=O)C1([H])N(C(=O)C([H])(N([H])C(=O)C([H])(N([H])C([H])([H])[H])C([H])([H])[H])C(C([H])([H])[H])(C([H])([H])[H])C([H])([H])[H])C([H])([H])c2c([H])c(OC([H])([H])C([H])([H])C([H])([H])[N+]([H])(C([H])([H])[H])C([H])([H])C([H])([H])C([H])([H])c3c([H])c(C([H])([H])N(C(=O)N4C([H])([H])C([H])([H])C([H])([H])C([H])(n5nc(-c6c([H])c([H])c(Oc7c([H])c([H])c(F)c([H])c7F)c([H])c6[H])c(C(=O)N([H])[H])c5N([H])[H])C4([H])[H])C([H])([H])[H])c(C([H])([H])[H])c(C([H])([H])C([H])([H])C([H])(C([H])([H])[H])C([H])([H])[H])c3[H])c([H])c([H])c2C1([H])[H]

$$$$
9:0:0
     RDKit          3D

 90 97  0  0  1  0  0  0  0  0999 V2000
  -28.7050  -21.1940   22.3350 C   0  0  0  0  0  1  0  0  0  0  0  0
  -29.5870  -21.3290   21.0830 C   0  0  0  0  0  3  0  0  0  0  0  0
  -28.3370  -19.6760   19.5400 C   0  0  0  0  0  1  0  0  0  0  0  0
  -29.6590  -19.9210   20.2930 C   0  0  1  0  0  0  0  0  0  0  0  0
  -30.6850  -20.0940   19.3360 O   0  0  0  0  0  0  0  0  0  0  0  0
  -30.5580  -20.9380   18.9190 H   0  0  0  0  0  0  0  0  0  0  0  0
  -30.0370  -18.5670   21.0780 C   0  0  0  0  0  2  0  0  0  0  0  0
  -30.4340  -17.2760   20.2070 C   0  0  0  0  0  2  0  0  0  0  0  0
  -30.8100  -14.7470   20.2890 C   0  0  0  0  0  0  0  0  0  0  0  0
  -30.5200  -12.5250   19.2130 C   0  0  0  0  0  2  0  0  0  0  0  0
  -29.5840  -12.6720   17.9940 C   0  0  0  0  0  2  0  0  0  0  0  0
  -28.1140  -12.5250   18.4300 C   0  0  0  0  0  2  0  0  0  0  0  0
  -27.7610  -13.3810   19.6770 C   0  0  0  0  0  3  0  0  0  0  0  0
  -28.8270  -13.2460   20.7910 C   0  0  0  0  0  2  0  0  0  0  0  0
  -30.1360  -13.5560   20.2030 N   0  0  0  0  0  0  0  0  0  0  0  0
  -31.9580  -14.8560   19.8450 O   0  0  0  0  0  0  0  0  0  0  0  0
  -30.1140  -15.8690   20.6640 N   0  0  0  0  0  0  0  0  0  0  0  0
  -29.1740  -15.6970   20.9920 H   0  0  0  0  0  0  0  0  0  0  0  0
  -25.3640  -13.9650   20.3960 C   0  0  0  0  0  0  0  0  0  0  0  0
  -24.3020  -13.1890   20.7730 C   0  0  0  0  0  0  0  0  0  0  0  0
  -24.7740  -11.8400   20.7560 C   0  0  0  0  0  0  0  0  0  0  0  0
  -26.4140  -13.0910   20.1690 N   0  0  0  0  0  0  0  0  0  0  0  0
  -26.0640  -11.8080   20.4430 N   0  0  0  0  0  0  0  0  0  0  0  0
  -24.0530  -10.5740   20.9610 C   0  0  0  0  0  0  0  0  0  0  0  0
  -24.4800   -9.6210   21.9130 C   0  0  0  0  0  3  0  0  0  0  0  0
  -23.7550   -8.4240   22.1050 C   0  0  0  0  0  3  0  0  0  0  0  0
  -22.5890   -8.1710   21.3440 C   0  0  0  0  0  0  0  0  0  0  0  0
  -22.1820   -9.1110   20.3780 C   0  0  0  0  0  3  0  0  0  0  0  0
  -22.9090  -10.2980   20.1860 C   0  0  0  0  0  3  0  0  0  0  0  0
  -21.8380   -7.0240   21.4400 O   0  0  0  0  0  0  0  0  0  0  0  0
  -21.7690   -6.3070   22.6070 C   0  0  0  0  0  0  0  0  0  0  0  0
  -21.2940   -6.8820   23.8070 C   0  0  0  0  0  3  0  0  0  0  0  0
  -21.1730   -6.0900   24.9670 C   0  0  0  0  0  3  0  0  0  0  0  0
  -21.5200   -4.7260   24.9280 C   0  0  0  0  0  0  0  0  0  0  0  0
  -21.9930   -4.1520   23.7340 C   0  0  0  0  0  3  0  0  0  0  0  0
  -22.1150   -4.9400   22.5770 C   0  0  0  0  0  0  0  0  0  0  0  0
  -22.5490   -4.3770   21.4230 F   0  0  0  0  0  0  0  0  0  0  0  0
  -21.3990   -3.9650   26.0400 F   0  0  0  0  0  0  0  0  0  0  0  0
  -22.9020  -13.6590   21.0420 C   0  0  0  0  0  0  0  0  0  0  0  0
  -22.1800  -12.9670   21.9140 N   0  0  0  0  0  0  0  0  0  0  0  0
  -22.4600  -14.6810   20.5160 O   0  0  0  0  0  0  0  0  0  0  0  0
  -22.5520  -12.1410   22.3590 H   0  0  0  0  0  0  0  0  0  0  0  0
  -21.2410  -13.2670   22.1420 H   0  0  0  0  0  0  0  0  0  0  0  0
  -25.5150  -15.3350   20.2070 N   0  0  0  0  0  0  0  0  0  0  0  0
  -24.7380  -15.9780   20.3120 H   0  0  0  0  0  0  0  0  0  0  0  0
  -26.3570  -15.7830   19.8710 H   0  0  0  0  0  0  0  0  0  0  0  0
  -29.0820  -22.5990   20.2390 C   0  0  0  0  0  2  0  0  0  0  0  0
  -29.1970  -24.1050   20.7710 C   0  0  0  0  0  2  0  0  0  0  0  0
  -28.3080  -25.1560   19.9680 C   0  0  0  0  0  2  0  0  0  0  0  0
  -28.4000  -26.6080   20.2300 O   0  0  0  0  0  0  0  0  0  0  0  0
  -24.5280  -31.8740   23.1860 C   0  0  0  0  0  0  0  0  0  0  0  0
  -27.2530  -27.4110   20.1190 C   0  0  0  0  0  0  0  0  0  0  0  0
  -23.3580  -30.4680   21.5220 C   0  0  0  0  0  3  0  0  0  0  0  0
  -24.8480  -28.9630   20.0880 C   0  0  0  0  0  0  0  0  0  0  0  0
  -25.8880  -30.8420   21.3570 C   0  0  0  0  0  2  0  0  0  0  0  0
  -25.9990  -29.4720   20.7020 C   0  0  0  0  0  0  0  0  0  0  0  0
  -27.1990  -28.7080   20.7080 C   0  0  0  0  0  3  0  0  0  0  0  0
  -26.0830  -26.9590   19.4570 C   0  0  0  0  0  3  0  0  0  0  0  0
  -24.8920  -27.7110   19.4530 C   0  0  0  0  0  3  0  0  0  0  0  0
  -23.5930  -29.8070   20.1370 C   0  0  0  0  0  2  0  0  0  0  0  0
  -24.6090  -31.0790   22.0780 N   0  0  0  0  0  0  0  0  0  0  0  0
  -23.4370  -32.1250   23.7190 O   0  0  0  0  0  0  0  0  0  0  0  0
  -22.7110  -29.4310   22.4700 C   0  0  0  0  0  0  0  0  0  0  0  0
  -21.3900  -29.2250   22.3280 N   0  0  0  0  0  0  0  0  0  0  0  0
  -23.3950  -28.8140   23.2900 O   0  0  0  0  0  0  0  0  0  0  0  0
  -20.8980  -29.7780   21.6400 H   0  0  0  0  0  0  0  0  0  0  0  0
  -18.0320  -27.9630   22.7910 C   0  0  0  0  0  0  0  0  0  0  0  0
  -20.5820  -28.2660   23.0820 C   0  0  0  0  0  3  0  0  0  0  0  0
  -20.7140  -26.8420   22.4920 C   0  0  0  0  0  2  0  0  0  0  0  0
  -19.6240  -26.5110   21.4670 C   0  0  0  0  0  2  0  0  0  0  0  0
  -18.2370  -26.6250   22.1030 C   0  0  0  0  0  2  0  0  0  0  0  0
  -19.1320  -28.7420   23.2360 C   0  0  0  0  0  0  0  0  0  0  0  0
  -18.8860  -29.9950   23.8380 C   0  0  0  0  0  3  0  0  0  0  0  0
  -17.5710  -30.4670   24.0020 C   0  0  0  0  0  3  0  0  0  0  0  0
  -16.4850  -29.6860   23.5720 C   0  0  0  0  0  3  0  0  0  0  0  0
  -16.7160  -28.4360   22.9720 C   0  0  0  0  0  3  0  0  0  0  0  0
  -25.7970  -32.5220   23.8210 C   0  0  0  0  0  3  0  0  0  0  0  0
  -25.4690  -33.9160   24.1470 N   0  0  0  0  0  0  0  0  0  0  0  0
  -25.8000  -34.9730   23.3920 C   0  0  0  0  0  0  0  0  0  0  0  0
  -26.4830  -34.8750   22.3690 O   0  0  0  0  0  0  0  0  0  0  0  0
  -24.8600  -34.0660   24.9380 H   0  0  0  0  0  0  0  0  0  0  0  0
  -24.0610  -36.7500   23.0130 C   0  0  0  0  0  1  0  0  0  0  0  0
  -25.2930  -36.3560   23.8430 C   0  0  0  0  0  3  0  0  0  0  0  0
  -27.4060  -37.2590   24.7140 C   0  0  0  0  0  1  0  0  0  0  0  0
  -26.3200  -37.4170   23.7490 N   0  0  0  0  0  0  0  0  0  0  0  0
  -25.9040  -38.3340   23.8870 H   0  0  0  0  0  0  0  0  0  0  0  0
  -26.3090  -31.7560   25.1030 C   0  0  1  0  0  0  0  0  0  0  0  0
  -25.2060  -31.4990   26.1570 C   0  0  0  0  0  1  0  0  0  0  0  0
  -26.9150  -30.3860   24.7170 C   0  0  0  0  0  1  0  0  0  0  0  0
  -27.4430  -32.5630   25.7780 C   0  0  0  0  0  1  0  0  0  0  0  0
  2  1  1  0
  4  3  1  6
  4  7  1  0
  4  2  1  0
  5  4  1  0
  6  5  1  0
  8 17  1  0
  8  7  1  0
  9 17  1  0
 10 15  1  0
 11 12  1  0
 11 10  1  0
 13 12  1  0
 13 22  1  0
 13 14  1  0
 15  9  1  0
 15 14  1  0
 16  9  2  0
 17 18  1  0
 19 20  2  0
 20 39  1  0
 21 20  1  0
 21 24  1  0
 22 19  1  0
 22 23  1  0
 23 21  2  0
 24 25  1  0
 25 26  2  0
 27 30  1  0
 27 26  1  0
 28 27  2  0
 29 28  1  0
 29 24  2  0
 30 31  1  0
 31 32  1  0
 32 33  2  0
 34 33  1  0
 34 38  1  0
 35 34  2  0
 36 31  2  0
 36 35  1  0
 37 36  1  0
 39 40  1  0
 40 43  1  0
 40 42  1  0
 41 39  2  0
 44 45  1  0
 44 19  1  0
 46 44  1  0
 47 48  1  0
 47  2  1  0
 49 50  1  0
 49 48  1  0
 51 62  2  0
 52 50  1  0
 52 57  1  0
 53 61  1  0
 53 63  1  0
 54 60  1  0
 54 56  1  0
 55 61  1  0
 56 57  2  0
 56 55  1  0
 58 52  2  0
 59 58  1  0
 59 54  2  0
 60 53  1  0
 61 51  1  0
 63 65  2  0
 64 63  1  0
 66 64  1  0
 67 76  2  0
 67 72  1  0
 68 64  1  0
 68 72  1  0
 69 68  1  0
 70 71  1  0
 70 69  1  0
 71 67  1  0
 72 73  2  0
 73 74  1  0
 75 74  2  0
 76 75  1  0
 77 51  1  0
 77 78  1  0
 77 87  1  0
 78 81  1  0
 79 83  1  0
 79 78  1  0
 80 79  2  0
 83 82  1  0
 85 83  1  0
 85 86  1  0
 85 84  1  0
 87 90  1  1
 87 88  1  0
 89 87  1  0
M  ISO  4   9 100  17 100  49 101  50 101
M  END
>  <TORSDO>  (10) 
F 23

>  <SCORE>  (10) 
-12.349

>  <name>  (10) 
9

>  <ligand_id>  (10) 
9

>  <original_smiles>  (10) 
[H]OC(C([H])([H])[H])(C([H])([H])C([H])([H])N([H])C(=O)N1C([H])([H])C([H])([H])C([H])([H])C([H])(n2nc(-c3c([H])c([H])c(Oc4c([H])c([H])c(F)c([H])c4F)c([H])c3[H])c(C(=O)N([H])[H])c2N([H])[H])C1([H])[H])C([H])(C([H])([H])[H])C([H])([H])C([H])([H])C([H])([H])Oc1c([H])c([H])c2c(c1[H])C([H])([H])N(C(=O)C([H])(N([H])C(=O)C([H])(N([H])C([H])([H])[H])C([H])([H])[H])C(C([H])([H])[H])(C([H])([H])[H])C([H])([H])[H])C([H])(C(=O)N([H])C1([H])c3c([H])c([H])c([H])c([H])c3C([H])([H])C([H])([H])C1([H])[H])C2([H])[H]

>  <smiles>  (10) 
[H]OC(C([H])([H])[H])(C([H])([H])C([H])([H])N([H])C(=O)N1C([H])([H])C([H])([H])C([H])([H])C([H])(n2nc(-c3c([H])c([H])c(Oc4c([H])c([H])c(F)c([H])c4F)c([H])c3[H])c(C(=O)N([H])[H])c2N([H])[H])C1([H])[H])C([H])(C([H])([H])[H])C([H])([H])C([H])([H])C([H])([H])Oc1c([H])c([H])c2c(c1[H])C([H])([H])N(C(=O)C([H])(N([H])C(=O)C([H])(N([H])C([H])([H])[H])C([H])([H])[H])C(C([H])([H])[H])(C([H])([H])[H])C([H])([H])[H])C([H])(C(=O)N([H])C1([H])c3c([H])c([H])c([H])c([H])c3C([H])([H])C([H])([H])C1([H])[H])C2([H])[H]

$$$$
10:0:0
     RDKit          3D

 94102  0  0  1  0  0  0  0  0999 V2000
  -28.5560  -20.0200   19.3270 C   0  0  0  0  0  3  0  0  0  0  0  0
  -28.8840  -18.6930   19.7260 C   0  0  0  0  0  0  0  0  0  0  0  0
  -29.8630  -18.4760   20.7410 C   0  0  0  0  0  0  0  0  0  0  0  0
  -29.1720  -21.1580   19.9130 C   0  0  0  0  0  0  0  0  0  0  0  0
  -30.3770  -19.6840   21.3310 C   0  0  0  0  0  0  0  0  0  0  0  0
  -28.1940  -17.5410   19.0190 C   0  0  0  0  0  1  0  0  0  0  0  0
  -30.0220  -20.9470   20.9440 N   0  0  0  0  0  0  0  0  0  0  0  0
  -30.5770  -22.8660   18.7420 C   0  0  0  0  0  1  0  0  0  0  0  0
  -28.2390  -22.5990   17.9880 C   0  0  0  0  0  1  0  0  0  0  0  0
  -29.1390  -22.6100   19.2520 C   0  0  1  0  0  0  0  0  0  0  0  0
  -28.6840  -23.8500   20.1670 C   0  0  0  0  0  3  0  0  0  0  0  0
  -28.5500  -25.2930   19.4730 C   0  0  0  0  0  3  0  0  0  0  0  0
  -28.3780  -26.5250   20.2660 O   0  0  0  0  0  0  0  0  0  0  0  0
  -24.6070  -31.8610   23.2510 C   0  0  0  0  0  0  0  0  0  0  0  0
  -27.2280  -27.3240   20.1930 C   0  0  0  0  0  0  0  0  0  0  0  0
  -23.4060  -30.4740   21.5980 C   0  0  0  0  0  3  0  0  0  0  0  0
  -24.8590  -28.9300   20.1720 C   0  0  0  0  0  0  0  0  0  0  0  0
  -25.9470  -30.7940   21.4290 C   0  0  0  0  0  2  0  0  0  0  0  0
  -26.0240  -29.4190   20.7740 C   0  0  0  0  0  0  0  0  0  0  0  0
  -27.2070  -28.6280   20.7760 C   0  0  0  0  0  3  0  0  0  0  0  0
  -26.0260  -26.8620   19.6100 C   0  0  0  0  0  3  0  0  0  0  0  0
  -24.8590  -27.6520   19.5880 C   0  0  0  0  0  3  0  0  0  0  0  0
  -23.6280  -29.8120   20.2110 C   0  0  0  0  0  2  0  0  0  0  0  0
  -24.6720  -31.0590   22.1500 N   0  0  0  0  0  0  0  0  0  0  0  0
  -23.5210  -32.1400   23.7810 O   0  0  0  0  0  0  0  0  0  0  0  0
  -22.7400  -29.4490   22.5470 C   0  0  0  0  0  0  0  0  0  0  0  0
  -21.4140  -29.2790   22.4190 N   0  0  0  0  0  0  0  0  0  0  0  0
  -23.4160  -28.8110   23.3570 O   0  0  0  0  0  0  0  0  0  0  0  0
  -20.9290  -29.8430   21.7360 H   0  0  0  0  0  0  0  0  0  0  0  0
  -18.0260  -28.1260   22.9240 C   0  0  0  0  0  0  0  0  0  0  0  0
  -20.5890  -28.3460   23.1860 C   0  0  0  0  0  3  0  0  0  0  0  0
  -20.6690  -26.9210   22.5900 C   0  0  0  0  0  2  0  0  0  0  0  0
  -19.5570  -26.6250   21.5800 C   0  0  0  0  0  2  0  0  0  0  0  0
  -18.1810  -26.7830   22.2310 C   0  0  0  0  0  2  0  0  0  0  0  0
  -19.1580  -28.8660   23.3580 C   0  0  0  0  0  0  0  0  0  0  0  0
  -18.9550  -30.1270   23.9630 C   0  0  0  0  0  3  0  0  0  0  0  0
  -17.6580  -30.6410   24.1420 C   0  0  0  0  0  3  0  0  0  0  0  0
  -16.5430  -29.8960   23.7250 C   0  0  0  0  0  3  0  0  0  0  0  0
  -16.7280  -28.6400   23.1190 C   0  0  0  0  0  3  0  0  0  0  0  0
  -25.8880  -32.4890   23.8840 C   0  0  0  0  0  3  0  0  0  0  0  0
  -25.5740  -33.8830   24.2180 N   0  0  0  0  0  0  0  0  0  0  0  0
  -25.9040  -34.9420   23.4620 C   0  0  0  0  0  0  0  0  0  0  0  0
  -26.5730  -34.8460   22.4310 O   0  0  0  0  0  0  0  0  0  0  0  0
  -24.9810  -34.0350   25.0210 H   0  0  0  0  0  0  0  0  0  0  0  0
  -24.1750  -36.7390   23.1140 C   0  0  0  0  0  1  0  0  0  0  0  0
  -25.4110  -36.3240   23.9270 C   0  0  0  0  0  3  0  0  0  0  0  0
  -27.5400  -37.2110   24.7770 C   0  0  0  0  0  1  0  0  0  0  0  0
  -26.4410  -37.3810   23.8300 N   0  0  0  0  0  0  0  0  0  0  0  0
  -26.0270  -38.2970   23.9840 H   0  0  0  0  0  0  0  0  0  0  0  0
  -26.3950  -31.7110   25.1610 C   0  0  1  0  0  0  0  0  0  0  0  0
  -25.3010  -31.4680   26.2250 C   0  0  0  0  0  1  0  0  0  0  0  0
  -26.9760  -30.3330   24.7660 C   0  0  0  0  0  1  0  0  0  0  0  0
  -27.5390  -32.5030   25.8400 C   0  0  0  0  0  1  0  0  0  0  0  0
  -32.5810  -20.6150   22.2940 C   0  0  0  0  0  1  0  0  0  0  0  0
  -31.3730  -19.6790   22.4940 C   0  0  0  0  0  2  0  0  0  0  0  0
  -30.4270  -17.0670   21.2110 C   0  0  0  0  0  2  0  0  0  0  0  0
  -30.6220  -14.6240   20.4230 C   0  0  0  0  0  0  0  0  0  0  0  0
  -30.3700  -12.4150   19.3190 C   0  0  0  0  0  2  0  0  0  0  0  0
  -29.4190  -12.5450   18.1090 C   0  0  0  0  0  2  0  0  0  0  0  0
  -27.9440  -12.4050   18.5420 C   0  0  0  0  0  2  0  0  0  0  0  0
  -27.6000  -13.2590   19.7920 C   0  0  0  0  0  3  0  0  0  0  0  0
  -28.6610  -13.0970   20.9000 C   0  0  0  0  0  2  0  0  0  0  0  0
  -29.9640  -13.4300   20.3090 N   0  0  0  0  0  0  0  0  0  0  0  0
  -31.7940  -14.7380   20.0490 O   0  0  0  0  0  0  0  0  0  0  0  0
  -29.8950  -15.7170   20.8120 N   0  0  0  0  0  0  0  0  0  0  0  0
  -28.9280  -15.5410   21.0370 H   0  0  0  0  0  0  0  0  0  0  0  0
  -25.2150  -13.8580   20.5400 C   0  0  0  0  0  0  0  0  0  0  0  0
  -24.1510  -13.0860   20.9180 C   0  0  0  0  0  0  0  0  0  0  0  0
  -24.6090  -11.7330   20.8730 C   0  0  0  0  0  0  0  0  0  0  0  0
  -26.2540  -12.9770   20.2890 N   0  0  0  0  0  0  0  0  0  0  0  0
  -25.8960  -11.6940   20.5510 N   0  0  0  0  0  0  0  0  0  0  0  0
  -23.8790  -10.4730   21.0610 C   0  0  0  0  0  0  0  0  0  0  0  0
  -24.3150   -9.4950   21.9830 C   0  0  0  0  0  3  0  0  0  0  0  0
  -23.5850   -8.2990   22.1610 C   0  0  0  0  0  3  0  0  0  0  0  0
  -22.4040   -8.0750   21.4130 C   0  0  0  0  0  0  0  0  0  0  0  0
  -21.9850   -9.0420   20.4810 C   0  0  0  0  0  3  0  0  0  0  0  0
  -22.7170  -10.2280   20.3030 C   0  0  0  0  0  3  0  0  0  0  0  0
  -21.6430   -6.9340   21.5010 O   0  0  0  0  0  0  0  0  0  0  0  0
  -21.5990   -6.1830   22.6470 C   0  0  0  0  0  0  0  0  0  0  0  0
  -21.1820   -6.7300   23.8800 C   0  0  0  0  0  3  0  0  0  0  0  0
  -21.0850   -5.9060   25.0190 C   0  0  0  0  0  3  0  0  0  0  0  0
  -21.3960   -4.5350   24.9260 C   0  0  0  0  0  0  0  0  0  0  0  0
  -21.8080   -3.9890   23.6980 C   0  0  0  0  0  3  0  0  0  0  0  0
  -21.9050   -4.8100   22.5610 C   0  0  0  0  0  0  0  0  0  0  0  0
  -22.2800   -4.2730   21.3750 F   0  0  0  0  0  0  0  0  0  0  0  0
  -21.2980   -3.7420   26.0190 F   0  0  0  0  0  0  0  0  0  0  0  0
  -22.7560  -13.5680   21.2010 C   0  0  0  0  0  0  0  0  0  0  0  0
  -22.0280  -12.8690   22.0640 N   0  0  0  0  0  0  0  0  0  0  0  0
  -22.3180  -14.6020   20.6930 O   0  0  0  0  0  0  0  0  0  0  0  0
  -22.3910  -12.0390   22.5060 H   0  0  0  0  0  0  0  0  0  0  0  0
  -21.0890  -13.1710   22.2910 H   0  0  0  0  0  0  0  0  0  0  0  0
  -25.3770  -15.2280   20.3650 N   0  0  0  0  0  0  0  0  0  0  0  0
  -24.6100  -15.8810   20.4810 H   0  0  0  0  0  0  0  0  0  0  0  0
  -26.2080  -15.6570   19.9840 H   0  0  0  0  0  0  0  0  0  0  0  0
  1  2  2  0
  1  4  1  0
  2  3  1  0
  3 56  1  0
  3  5  2  0
  4  7  2  0
  5 55  1  0
  6  2  1  0
  7  5  1  0
 10  8  1  6
  9 10  1  0
 10  4  1  0
 10 11  1  0
 12 11  2  0
 12 13  1  0
 14 25  2  0
 15 13  1  0
 15 20  1  0
 16 24  1  0
 16 26  1  0
 17 23  1  0
 17 19  1  0
 18 24  1  0
 19 20  2  0
 19 18  1  0
 21 15  2  0
 22 21  1  0
 22 17  2  0
 23 16  1  0
 24 14  1  0
 26 28  2  0
 27 26  1  0
 29 27  1  0
 30 39  2  0
 30 35  1  0
 31 27  1  0
 31 35  1  0
 32 31  1  0
 33 34  1  0
 33 32  1  0
 34 30  1  0
 35 36  2  0
 36 37  1  0
 38 37  2  0
 39 38  1  0
 40 14  1  0
 40 41  1  0
 40 50  1  0
 41 44  1  0
 42 46  1  0
 42 41  1  0
 43 42  2  0
 46 45  1  0
 48 46  1  0
 48 49  1  0
 48 47  1  0
 50 53  1  1
 50 51  1  0
 52 50  1  0
 54 55  1  0
 57 65  1  0
 58 63  1  0
 59 60  1  0
 59 58  1  0
 61 60  1  0
 61 70  1  0
 61 62  1  0
 63 57  1  0
 63 62  1  0
 64 57  2  0
 65 66  1  0
 65 56  1  0
 67 68  2  0
 68 87  1  0
 69 68  1  0
 69 72  1  0
 70 67  1  0
 70 71  1  0
 71 69  2  0
 72 73  1  0
 73 74  2  0
 75 78  1  0
 75 74  1  0
 76 75  2  0
 77 76  1  0
 77 72  2  0
 78 79  1  0
 79 80  1  0
 80 81  2  0
 82 81  1  0
 82 86  1  0
 83 82  2  0
 84 79  2  0
 84 83  1  0
 85 84  1  0
 87 88  1  0
 88 91  1  0
 88 90  1  0
 89 87  2  0
 92 93  1  0
 92 67  1  0
 94 92  1  0
M  ISO  4  12 101  13 101  57 100  65 100
M  END
>  <TORSDO>  (11) 
F 21

>  <SCORE>  (11) 
-14.045

>  <name>  (11) 
10

>  <ligand_id>  (11) 
10

>  <original_smiles>  (11) 
[H]c1c([H])c([H])c2c(c1[H])C([H])([H])C([H])([H])C([H])([H])C2([H])N([H])C(=O)C1([H])N(C(=O)C([H])(N([H])C(=O)C([H])(N([H])C([H])([H])[H])C([H])([H])[H])C(C([H])([H])[H])(C([H])([H])[H])C([H])([H])[H])C([H])([H])c2c([H])c(OC([H])([H])C([H])([H])C(c3nc(C([H])([H])C([H])([H])[H])c(C([H])([H])N([H])C(=O)N4C([H])([H])C([H])([H])C([H])([H])C([H])(n5nc(-c6c([H])c([H])c(Oc7c([H])c([H])c(F)c([H])c7F)c([H])c6[H])c(C(=O)N([H])[H])c5N([H])[H])C4([H])[H])c(C([H])([H])[H])c3[H])(C([H])([H])[H])C([H])([H])[H])c([H])c([H])c2C1([H])[H]

>  <smiles>  (11) 
[H]c1c([H])c([H])c2c(c1[H])C([H])([H])C([H])([H])C([H])([H])C2([H])N([H])C(=O)C1([H])N(C(=O)C([H])(N([H])C(=O)C([H])(N([H])C([H])([H])[H])C([H])([H])[H])C(C([H])([H])[H])(C([H])([H])[H])C([H])([H])[H])C([H])([H])c2c([H])c(OC([H])([H])C([H])([H])C(c3nc(C([H])([H])C([H])([H])[H])c(C([H])([H])N([H])C(=O)N4C([H])([H])C([H])([H])C([H])([H])C([H])(n5nc(-c6c([H])c([H])c(Oc7c([H])c([H])c(F)c([H])c7F)c([H])c6[H])c(C(=O)N([H])[H])c5N([H])[H])C4([H])[H])c(C([H])([H])[H])c3[H])(C([H])([H])[H])C([H])([H])[H])c([H])c([H])c2C1([H])[H]

$$$$
11:0:0
     RDKit          3D

 93101  0  0  1  0  0  0  0  0999 V2000
  -30.3150  -18.4220   22.1190 C   0  0  0  0  0  3  0  0  0  0  0  0
  -29.6150  -19.8590   20.5670 C   0  0  0  0  0  3  0  0  0  0  0  0
  -29.8060  -18.5050   20.7980 C   0  0  0  0  0  0  0  0  0  0  0  0
  -30.4500  -19.6810   22.6390 C   0  0  0  0  0  0  0  0  0  0  0  0
  -30.0090  -20.6040   21.6860 N   0  0  0  0  0  0  0  0  0  0  0  0
  -32.5010  -20.5020   23.8170 C   0  0  0  0  0  1  0  0  0  0  0  0
  -30.9140  -18.9310   25.0000 C   0  0  0  0  0  1  0  0  0  0  0  0
  -31.0380  -20.0640   23.9720 C   0  0  0  0  0  3  0  0  0  0  0  0
  -29.5830  -17.3110   19.8490 C   0  0  0  0  0  2  0  0  0  0  0  0
  -30.2750  -14.9310   20.3280 C   0  0  0  0  0  0  0  0  0  0  0  0
  -30.2640  -12.5670   19.6160 C   0  0  0  0  0  2  0  0  0  0  0  0
  -29.3370  -12.4440   18.3870 C   0  0  0  0  0  2  0  0  0  0  0  0
  -27.8800  -12.2060   18.8310 C   0  0  0  0  0  2  0  0  0  0  0  0
  -27.4180  -13.1990   19.9310 C   0  0  0  0  0  3  0  0  0  0  0  0
  -28.4670  -13.3220   21.0600 C   0  0  0  0  0  2  0  0  0  0  0  0
  -29.7530  -13.6740   20.4440 N   0  0  0  0  0  0  0  0  0  0  0  0
  -31.4160  -15.1240   19.9000 O   0  0  0  0  0  0  0  0  0  0  0  0
  -29.4080  -15.9660   20.4660 N   0  0  0  0  0  0  0  0  0  0  0  0
  -28.4870  -15.7440   20.8100 H   0  0  0  0  0  0  0  0  0  0  0  0
  -25.0620  -13.6880   20.8370 C   0  0  0  0  0  0  0  0  0  0  0  0
  -24.0200  -12.8650   21.1720 C   0  0  0  0  0  0  0  0  0  0  0  0
  -24.4870  -11.5310   20.9590 C   0  0  0  0  0  0  0  0  0  0  0  0
  -26.0980  -12.8510   20.4490 N   0  0  0  0  0  0  0  0  0  0  0  0
  -25.7590  -11.5430   20.5810 N   0  0  0  0  0  0  0  0  0  0  0  0
  -23.7790  -10.2470   21.0410 C   0  0  0  0  0  0  0  0  0  0  0  0
  -24.2560   -9.1910   21.8480 C   0  0  0  0  0  3  0  0  0  0  0  0
  -23.5460   -7.9730   21.9260 C   0  0  0  0  0  3  0  0  0  0  0  0
  -22.3470   -7.8030   21.1950 C   0  0  0  0  0  0  0  0  0  0  0  0
  -21.8880   -8.8500   20.3760 C   0  0  0  0  0  3  0  0  0  0  0  0
  -22.5980  -10.0590   20.2950 C   0  0  0  0  0  3  0  0  0  0  0  0
  -21.6050   -6.6460   21.1880 O   0  0  0  0  0  0  0  0  0  0  0  0
  -21.6290   -5.7690   22.2430 C   0  0  0  0  0  0  0  0  0  0  0  0
  -21.2450   -6.1580   23.5440 C   0  0  0  0  0  3  0  0  0  0  0  0
  -21.2180   -5.2080   24.5840 C   0  0  0  0  0  3  0  0  0  0  0  0
  -21.5670   -3.8690   24.3240 C   0  0  0  0  0  0  0  0  0  0  0  0
  -21.9430   -3.4790   23.0270 C   0  0  0  0  0  3  0  0  0  0  0  0
  -21.9730   -4.4260   21.9890 C   0  0  0  0  0  0  0  0  0  0  0  0
  -22.3180   -4.0400   20.7370 F   0  0  0  0  0  0  0  0  0  0  0  0
  -21.5330   -2.9540   25.3210 F   0  0  0  0  0  0  0  0  0  0  0  0
  -22.6380  -13.2920   21.5710 C   0  0  0  0  0  0  0  0  0  0  0  0
  -21.9690  -12.5020   22.4040 N   0  0  0  0  0  0  0  0  0  0  0  0
  -22.1600  -14.3570   21.1820 O   0  0  0  0  0  0  0  0  0  0  0  0
  -22.3710  -11.6390   22.7390 H   0  0  0  0  0  0  0  0  0  0  0  0
  -21.0430  -12.7650   22.7110 H   0  0  0  0  0  0  0  0  0  0  0  0
  -25.2070  -15.0720   20.8100 N   0  0  0  0  0  0  0  0  0  0  0  0
  -24.4420  -15.6970   21.0390 H   0  0  0  0  0  0  0  0  0  0  0  0
  -26.0330  -15.5610   20.4850 H   0  0  0  0  0  0  0  0  0  0  0  0
  -30.0470  -22.0820   21.9130 C   0  0  0  0  0  2  0  0  0  0  0  0
  -29.7130  -23.1380   20.7690 C   0  0  0  0  0  2  0  0  0  0  0  0
  -27.4630  -24.0330   21.7090 C   0  0  0  0  0  1  0  0  0  0  0  0
  -28.6540  -24.3480   20.7650 C   0  0  0  0  0  3  0  0  0  0  0  0
  -29.2040  -25.8140   21.0530 C   0  0  0  0  0  2  0  0  0  0  0  0
  -28.9370  -26.8870   20.1060 O   0  0  0  0  0  0  0  0  0  0  0  0
  -24.7010  -31.7770   23.2500 C   0  0  0  0  0  0  0  0  0  0  0  0
  -27.7270  -27.5590   20.1650 C   0  0  0  0  0  0  0  0  0  0  0  0
  -23.6380  -30.3140   21.5640 C   0  0  0  0  0  3  0  0  0  0  0  0
  -25.2310  -28.9150   20.1420 C   0  0  0  0  0  0  0  0  0  0  0  0
  -26.1360  -30.8580   21.4240 C   0  0  0  0  0  2  0  0  0  0  0  0
  -26.3380  -29.5020   20.7700 C   0  0  0  0  0  0  0  0  0  0  0  0
  -27.5890  -28.8320   20.7820 C   0  0  0  0  0  3  0  0  0  0  0  0
  -26.6130  -27.0150   19.5000 C   0  0  0  0  0  3  0  0  0  0  0  0
  -25.3660  -27.6710   19.5030 C   0  0  0  0  0  3  0  0  0  0  0  0
  -23.9250  -29.6790   20.1780 C   0  0  0  0  0  2  0  0  0  0  0  0
  -24.8410  -31.0010   22.1370 N   0  0  0  0  0  0  0  0  0  0  0  0
  -23.5930  -31.9540   23.7740 O   0  0  0  0  0  0  0  0  0  0  0  0
  -23.0510  -29.2290   22.4970 C   0  0  0  0  0  0  0  0  0  0  0  0
  -21.7640  -28.8980   22.2990 N   0  0  0  0  0  0  0  0  0  0  0  0
  -23.7530  -28.6880   23.3550 O   0  0  0  0  0  0  0  0  0  0  0  0
  -21.2540  -29.3940   21.5820 H   0  0  0  0  0  0  0  0  0  0  0  0
  -18.5370  -27.2960   22.5880 C   0  0  0  0  0  0  0  0  0  0  0  0
  -21.0170  -27.8740   23.0290 C   0  0  0  0  0  3  0  0  0  0  0  0
  -21.3360  -26.4600   22.4890 C   0  0  0  0  0  2  0  0  0  0  0  0
  -20.3570  -25.9910   21.4090 C   0  0  0  0  0  2  0  0  0  0  0  0
  -18.9260  -25.9720   21.9530 C   0  0  0  0  0  2  0  0  0  0  0  0
  -19.5200  -28.1960   23.0790 C   0  0  0  0  0  0  0  0  0  0  0  0
  -19.1060  -29.4300   23.6260 C   0  0  0  0  0  3  0  0  0  0  0  0
  -17.7410  -29.7670   23.6940 C   0  0  0  0  0  3  0  0  0  0  0  0
  -16.7720  -28.8640   23.2200 C   0  0  0  0  0  3  0  0  0  0  0  0
  -17.1700  -27.6320   22.6730 C   0  0  0  0  0  3  0  0  0  0  0  0
  -25.9230  -32.4960   23.9040 C   0  0  0  0  0  3  0  0  0  0  0  0
  -25.5140  -33.8740   24.2110 N   0  0  0  0  0  0  0  0  0  0  0  0
  -25.7980  -34.9390   23.4500 C   0  0  0  0  0  0  0  0  0  0  0  0
  -26.5010  -34.8700   22.4380 O   0  0  0  0  0  0  0  0  0  0  0  0
  -24.8920  -33.9970   24.9960 H   0  0  0  0  0  0  0  0  0  0  0  0
  -23.9550  -36.6010   23.0420 C   0  0  0  0  0  1  0  0  0  0  0  0
  -25.2070  -36.2960   23.8790 C   0  0  0  0  0  3  0  0  0  0  0  0
  -27.2600  -37.3390   24.7290 C   0  0  0  0  0  1  0  0  0  0  0  0
  -26.1650  -37.4170   23.7660 N   0  0  0  0  0  0  0  0  0  0  0  0
  -25.6940  -38.3090   23.8920 H   0  0  0  0  0  0  0  0  0  0  0  0
  -26.4510  -31.7700   25.2020 C   0  0  1  0  0  0  0  0  0  0  0  0
  -25.3430  -31.4590   26.2360 C   0  0  0  0  0  1  0  0  0  0  0  0
  -27.1440  -30.4370   24.8400 C   0  0  0  0  0  1  0  0  0  0  0  0
  -27.5170  -32.6490   25.8970 C   0  0  0  0  0  1  0  0  0  0  0  0
  1  4  2  0
  2  3  2  0
  2  5  1  0
  3  1  1  0
  4  8  1  0
  5 48  1  0
  5  4  1  0
  6  8  1  0
  8  7  1  0
  9 18  1  0
  9  3  1  0
 10 16  1  0
 10 18  1  0
 11 16  1  0
 12 13  1  0
 12 11  1  0
 14 13  1  0
 14 23  1  0
 14 15  1  0
 16 15  1  0
 17 10  2  0
 18 19  1  0
 20 21  2  0
 21 40  1  0
 22 25  1  0
 22 21  1  0
 23 24  1  0
 23 20  1  0
 24 22  2  0
 25 26  1  0
 26 27  2  0
 28 27  1  0
 29 28  2  0
 30 29  1  0
 30 25  2  0
 31 28  1  0
 31 32  1  0
 32 33  1  0
 33 34  2  0
 35 34  1  0
 35 39  1  0
 36 35  2  0
 37 32  2  0
 37 36  1  0
 38 37  1  0
 40 41  1  0
 41 44  1  0
 41 43  1  0
 42 40  2  0
 45 20  1  0
 45 46  1  0
 47 45  1  0
 49 48  1  0
 51 49  1  0
 51 52  1  0
 51 50  1  0
 53 55  1  0
 53 52  1  0
 54 65  2  0
 55 60  1  0
 56 64  1  0
 56 66  1  0
 57 63  1  0
 57 59  1  0
 58 64  1  0
 59 60  2  0
 59 58  1  0
 61 62  1  0
 61 55  2  0
 62 57  2  0
 63 56  1  0
 64 54  1  0
 66 68  2  0
 67 66  1  0
 69 67  1  0
 70 79  2  0
 70 75  1  0
 71 67  1  0
 71 75  1  0
 72 71  1  0
 73 74  1  0
 73 72  1  0
 74 70  1  0
 75 76  2  0
 76 77  1  0
 78 77  2  0
 79 78  1  0
 80 54  1  0
 80 81  1  0
 80 90  1  0
 81 84  1  0
 82 86  1  0
 82 81  1  0
 83 82  2  0
 86 85  1  0
 88 86  1  0
 88 89  1  0
 88 87  1  0
 90 93  1  1
 90 91  1  0
 92 90  1  0
M  ISO  4  10 100  18 100  52 101  53 101
M  END
>  <TORSDO>  (12) 
F 22

>  <SCORE>  (12) 
-9.908

>  <name>  (12) 
11

>  <ligand_id>  (12) 
11

>  <original_smiles>  (12) 
[H]c1c([H])c([H])c2c(c1[H])C([H])([H])C([H])([H])C([H])([H])C2([H])N([H])C(=O)C1([H])N(C(=O)C([H])(N([H])C(=O)C([H])(N([H])C([H])([H])[H])C([H])([H])[H])C(C([H])([H])[H])(C([H])([H])[H])C([H])([H])[H])C([H])([H])c2c([H])c(OC([H])([H])C([H])(C([H])([H])[H])C([H])([H])C([H])([H])n3c([H])c(C([H])([H])N([H])C(=O)N4C([H])([H])C([H])([H])C([H])([H])C([H])(n5nc(-c6c([H])c([H])c(Oc7c([H])c([H])c(F)c([H])c7F)c([H])c6[H])c(C(=O)N([H])[H])c5N([H])[H])C4([H])[H])c([H])c3C([H])(C([H])([H])[H])C([H])([H])[H])c([H])c([H])c2C1([H])[H]

>  <smiles>  (12) 
[H]c1c([H])c([H])c2c(c1[H])C([H])([H])C([H])([H])C([H])([H])C2([H])N([H])C(=O)C1([H])N(C(=O)C([H])(N([H])C(=O)C([H])(N([H])C([H])([H])[H])C([H])([H])[H])C(C([H])([H])[H])(C([H])([H])[H])C([H])([H])[H])C([H])([H])c2c([H])c(OC([H])([H])C([H])(C([H])([H])[H])C([H])([H])C([H])([H])n3c([H])c(C([H])([H])N([H])C(=O)N4C([H])([H])C([H])([H])C([H])([H])C([H])(n5nc(-c6c([H])c([H])c(Oc7c([H])c([H])c(F)c([H])c7F)c([H])c6[H])c(C(=O)N([H])[H])c5N([H])[H])C4([H])[H])c([H])c3C([H])(C([H])([H])[H])C([H])([H])[H])c([H])c([H])c2C1([H])[H]

$$$$
12:0:0
     RDKit          3D

 95103  0  0  1  0  0  0  0  0999 V2000
  -28.7820  -21.8460   20.3130 C   0  0  0  0  0  2  0  0  0  0  0  0
  -29.4810  -18.3620   19.2310 C   0  0  0  0  0  3  0  0  0  0  0  0
  -29.6010  -19.5020   21.1280 C   0  0  0  0  0  3  0  0  0  0  0  0
  -29.8370  -18.2420   20.6030 C   0  0  0  0  0  0  0  0  0  0  0  0
  -29.0850  -19.6490   18.9560 C   0  0  0  0  0  0  0  0  0  0  0  0
  -29.1550  -20.3930   20.1390 N   0  0  0  0  0  0  0  0  0  0  0  0
  -27.1050  -20.3470   17.5670 C   0  0  0  0  0  1  0  0  0  0  0  0
  -29.1590  -19.4490   16.4350 C   0  0  0  0  0  1  0  0  0  0  0  0
  -28.6360  -20.2390   17.6460 C   0  0  0  0  0  3  0  0  0  0  0  0
  -30.4280  -16.9930   21.3080 C   0  0  0  0  0  2  0  0  0  0  0  0
  -30.6600  -14.5820   20.4640 C   0  0  0  0  0  0  0  0  0  0  0  0
  -30.4050  -12.3760   19.3520 C   0  0  0  0  0  2  0  0  0  0  0  0
  -29.4730  -12.5280   18.1320 C   0  0  0  0  0  2  0  0  0  0  0  0
  -27.9960  -12.3860   18.5520 C   0  0  0  0  0  2  0  0  0  0  0  0
  -27.6390  -13.2430   19.7960 C   0  0  0  0  0  3  0  0  0  0  0  0
  -28.6880  -13.0660   20.9160 C   0  0  0  0  0  2  0  0  0  0  0  0
  -30.0020  -13.3900   20.3430 N   0  0  0  0  0  0  0  0  0  0  0  0
  -31.8150  -14.7280   20.0570 O   0  0  0  0  0  0  0  0  0  0  0  0
  -29.9360  -15.6370   20.9300 N   0  0  0  0  0  0  0  0  0  0  0  0
  -28.9790  -15.4350   21.1740 H   0  0  0  0  0  0  0  0  0  0  0  0
  -25.2390  -13.8510   20.4890 C   0  0  0  0  0  0  0  0  0  0  0  0
  -24.1680  -13.0810   20.8580 C   0  0  0  0  0  0  0  0  0  0  0  0
  -24.6290  -11.7290   20.8390 C   0  0  0  0  0  0  0  0  0  0  0  0
  -26.2850  -12.9670   20.2700 N   0  0  0  0  0  0  0  0  0  0  0  0
  -25.9210  -11.6870   20.5400 N   0  0  0  0  0  0  0  0  0  0  0  0
  -23.8980  -10.4680   21.0320 C   0  0  0  0  0  0  0  0  0  0  0  0
  -24.3300   -9.5030   21.9680 C   0  0  0  0  0  3  0  0  0  0  0  0
  -23.6020   -8.3070   22.1490 C   0  0  0  0  0  3  0  0  0  0  0  0
  -22.4280   -8.0680   21.3960 C   0  0  0  0  0  0  0  0  0  0  0  0
  -22.0150   -9.0250   20.4520 C   0  0  0  0  0  3  0  0  0  0  0  0
  -22.7430  -10.2120   20.2690 C   0  0  0  0  0  3  0  0  0  0  0  0
  -21.6710   -6.9260   21.4890 O   0  0  0  0  0  0  0  0  0  0  0  0
  -21.6330   -6.1790   22.6380 C   0  0  0  0  0  0  0  0  0  0  0  0
  -21.2250   -6.7320   23.8730 C   0  0  0  0  0  3  0  0  0  0  0  0
  -21.1320   -5.9110   25.0150 C   0  0  0  0  0  3  0  0  0  0  0  0
  -21.4350   -4.5390   24.9250 C   0  0  0  0  0  0  0  0  0  0  0  0
  -21.8350   -3.9860   23.6960 C   0  0  0  0  0  3  0  0  0  0  0  0
  -21.9300   -4.8030   22.5560 C   0  0  0  0  0  0  0  0  0  0  0  0
  -22.2950   -4.2620   21.3680 F   0  0  0  0  0  0  0  0  0  0  0  0
  -21.3390   -3.7490   26.0190 F   0  0  0  0  0  0  0  0  0  0  0  0
  -22.7700  -13.5620   21.1170 C   0  0  0  0  0  0  0  0  0  0  0  0
  -22.0340  -12.8760   21.9830 N   0  0  0  0  0  0  0  0  0  0  0  0
  -22.3370  -14.5830   20.5850 O   0  0  0  0  0  0  0  0  0  0  0  0
  -22.3920  -12.0480   22.4360 H   0  0  0  0  0  0  0  0  0  0  0  0
  -21.0950  -13.1840   22.1950 H   0  0  0  0  0  0  0  0  0  0  0  0
  -25.4070  -15.2190   20.3020 N   0  0  0  0  0  0  0  0  0  0  0  0
  -24.6420  -15.8780   20.4070 H   0  0  0  0  0  0  0  0  0  0  0  0
  -26.2600  -15.6540   19.9720 H   0  0  0  0  0  0  0  0  0  0  0  0
  -31.2890  -22.3070   20.0830 C   0  0  0  0  0  1  0  0  0  0  0  0
  -29.9320  -22.9080   20.5480 C   0  0  0  0  0  3  0  0  0  0  0  0
  -30.8360  -25.3090   20.6870 C   0  0  0  0  0  1  0  0  0  0  0  0
  -29.8820  -24.4960   18.5120 C   0  0  0  0  0  1  0  0  0  0  0  0
  -29.7250  -24.4310   20.0470 C   0  0  1  0  0  0  0  0  0  0  0  0
  -28.3640  -25.1570   20.4120 C   0  0  0  0  0  2  0  0  0  0  0  0
  -28.4040  -26.6070   20.1750 O   0  0  0  0  0  0  0  0  0  0  0  0
  -24.6120  -31.8830   23.2360 C   0  0  0  0  0  0  0  0  0  0  0  0
  -27.2350  -27.3650   20.1830 C   0  0  0  0  0  0  0  0  0  0  0  0
  -23.4030  -30.4810   21.5990 C   0  0  0  0  0  3  0  0  0  0  0  0
  -24.8530  -28.9280   20.1780 C   0  0  0  0  0  0  0  0  0  0  0  0
  -25.9370  -30.8160   21.4060 C   0  0  0  0  0  2  0  0  0  0  0  0
  -26.0180  -29.4390   20.7650 C   0  0  0  0  0  0  0  0  0  0  0  0
  -27.2120  -28.6690   20.7520 C   0  0  0  0  0  3  0  0  0  0  0  0
  -26.0480  -26.8870   19.5850 C   0  0  0  0  0  3  0  0  0  0  0  0
  -24.8680  -27.6550   19.5820 C   0  0  0  0  0  3  0  0  0  0  0  0
  -23.6140  -29.7990   20.2210 C   0  0  0  0  0  2  0  0  0  0  0  0
  -24.6690  -31.0770   22.1380 N   0  0  0  0  0  0  0  0  0  0  0  0
  -23.5300  -32.1600   23.7730 O   0  0  0  0  0  0  0  0  0  0  0  0
  -22.7460  -29.4650   22.5620 C   0  0  0  0  0  0  0  0  0  0  0  0
  -21.4200  -29.2870   22.4360 N   0  0  0  0  0  0  0  0  0  0  0  0
  -23.4270  -28.8410   23.3800 O   0  0  0  0  0  0  0  0  0  0  0  0
  -20.9310  -29.8420   21.7470 H   0  0  0  0  0  0  0  0  0  0  0  0
  -18.0430  -28.0990   22.9390 C   0  0  0  0  0  0  0  0  0  0  0  0
  -20.6010  -28.3530   23.2080 C   0  0  0  0  0  3  0  0  0  0  0  0
  -20.7010  -26.9210   22.6340 C   0  0  0  0  0  2  0  0  0  0  0  0
  -19.5980  -26.5990   21.6210 C   0  0  0  0  0  2  0  0  0  0  0  0
  -18.2160  -26.7480   22.2650 C   0  0  0  0  0  2  0  0  0  0  0  0
  -19.1630  -28.8590   23.3680 C   0  0  0  0  0  0  0  0  0  0  0  0
  -18.9470  -30.1240   23.9570 C   0  0  0  0  0  3  0  0  0  0  0  0
  -17.6440  -30.6280   24.1230 C   0  0  0  0  0  3  0  0  0  0  0  0
  -16.5380  -29.8650   23.7100 C   0  0  0  0  0  3  0  0  0  0  0  0
  -16.7380  -28.6030   23.1240 C   0  0  0  0  0  3  0  0  0  0  0  0
  -25.8970  -32.5160   23.8550 C   0  0  0  0  0  3  0  0  0  0  0  0
  -25.5890  -33.9140   24.1850 N   0  0  0  0  0  0  0  0  0  0  0  0
  -25.9240  -34.9650   23.4260 C   0  0  0  0  0  0  0  0  0  0  0  0
  -26.5950  -34.8610   22.3950 O   0  0  0  0  0  0  0  0  0  0  0  0
  -24.9940  -34.0690   24.9850 H   0  0  0  0  0  0  0  0  0  0  0  0
  -24.1990  -36.7620   23.0690 C   0  0  0  0  0  1  0  0  0  0  0  0
  -25.4380  -36.3540   23.8830 C   0  0  0  0  0  3  0  0  0  0  0  0
  -27.5730  -37.2340   24.7180 C   0  0  0  0  0  1  0  0  0  0  0  0
  -26.4730  -37.4060   23.7730 N   0  0  0  0  0  0  0  0  0  0  0  0
  -26.0690  -38.3260   23.9220 H   0  0  0  0  0  0  0  0  0  0  0  0
  -26.4150  -31.7440   25.1310 C   0  0  1  0  0  0  0  0  0  0  0  0
  -25.3250  -31.5090   26.2020 C   0  0  0  0  0  1  0  0  0  0  0  0
  -26.9970  -30.3660   24.7390 C   0  0  0  0  0  1  0  0  0  0  0  0
  -27.5690  -32.5390   25.7900 C   0  0  0  0  0  1  0  0  0  0  0  0
  1 50  1  0
  2  4  1  0
  4  3  2  0
  4 10  1  0
  5  2  2  0
  5  6  1  0
  6  1  1  0
  6  3  1  0
  7  9  1  0
  8  9  1  0
  9  5  1  0
 11 19  1  0
 12 17  1  0
 13 14  1  0
 13 12  1  0
 15 14  1  0
 15 24  1  0
 15 16  1  0
 17 11  1  0
 17 16  1  0
 18 11  2  0
 19 20  1  0
 19 10  1  0
 21 22  2  0
 22 41  1  0
 23 22  1  0
 23 26  1  0
 24 21  1  0
 24 25  1  0
 25 23  2  0
 26 27  1  0
 27 28  2  0
 29 32  1  0
 29 28  1  0
 30 29  2  0
 31 30  1  0
 31 26  2  0
 32 33  1  0
 33 34  1  0
 34 35  2  0
 36 35  1  0
 36 40  1  0
 37 36  2  0
 38 33  2  0
 38 37  1  0
 39 38  1  0
 41 42  1  0
 42 45  1  0
 42 44  1  0
 43 41  2  0
 46 47  1  0
 46 21  1  0
 48 46  1  0
 50 49  1  0
 53 52  1  6
 53 54  1  0
 53 50  1  0
 53 51  1  0
 55 57  1  0
 55 54  1  0
 56 67  2  0
 57 62  1  0
 58 66  1  0
 58 68  1  0
 59 65  1  0
 59 61  1  0
 60 66  1  0
 61 60  1  0
 62 61  2  0
 63 57  2  0
 64 63  1  0
 64 59  2  0
 65 58  1  0
 66 56  1  0
 68 70  2  0
 69 68  1  0
 71 69  1  0
 72 81  2  0
 72 77  1  0
 73 69  1  0
 73 77  1  0
 74 73  1  0
 75 76  1  0
 75 74  1  0
 76 72  1  0
 77 78  2  0
 78 79  1  0
 80 79  2  0
 81 80  1  0
 82 56  1  0
 82 83  1  0
 82 92  1  0
 83 86  1  0
 84 88  1  0
 84 83  1  0
 85 84  2  0
 88 87  1  0
 90 88  1  0
 90 91  1  0
 90 89  1  0
 92 95  1  1
 92 93  1  0
 94 92  1  0
M  ISO  4  11 100  19 100  54 101  55 101
M  END
>  <TORSDO>  (13) 
F 22

>  <SCORE>  (13) 
-13.470

>  <name>  (13) 
12

>  <ligand_id>  (13) 
12

>  <original_smiles>  (13) 
[H]c1c([H])c([H])c2c(c1[H])C([H])([H])C([H])([H])C([H])([H])C2([H])N([H])C(=O)C1([H])N(C(=O)C([H])(N([H])C(=O)C([H])(N([H])C([H])([H])[H])C([H])([H])[H])C(C([H])([H])[H])(C([H])([H])[H])C([H])([H])[H])C([H])([H])c2c([H])c(OC([H])([H])C(C([H])([H])[H])(C([H])([H])[H])C([H])(C([H])([H])[H])C([H])([H])n3c([H])c(C([H])([H])N([H])C(=O)N4C([H])([H])C([H])([H])C([H])([H])C([H])(n5nc(-c6c([H])c([H])c(Oc7c([H])c([H])c(F)c([H])c7F)c([H])c6[H])c(C(=O)N([H])[H])c5N([H])[H])C4([H])[H])c([H])c3C([H])(C([H])([H])[H])C([H])([H])[H])c([H])c([H])c2C1([H])[H]

>  <smiles>  (13) 
[H]c1c([H])c([H])c2c(c1[H])C([H])([H])C([H])([H])C([H])([H])C2([H])N([H])C(=O)C1([H])N(C(=O)C([H])(N([H])C(=O)C([H])(N([H])C([H])([H])[H])C([H])([H])[H])C(C([H])([H])[H])(C([H])([H])[H])C([H])([H])[H])C([H])([H])c2c([H])c(OC([H])([H])C(C([H])([H])[H])(C([H])([H])[H])C([H])(C([H])([H])[H])C([H])([H])n3c([H])c(C([H])([H])N([H])C(=O)N4C([H])([H])C([H])([H])C([H])([H])C([H])(n5nc(-c6c([H])c([H])c(Oc7c([H])c([H])c(F)c([H])c7F)c([H])c6[H])c(C(=O)N([H])[H])c5N([H])[H])C4([H])[H])c([H])c3C([H])(C([H])([H])[H])C([H])([H])[H])c([H])c([H])c2C1([H])[H]

$$$$
13:0:0
     RDKit          3D

101 95  0  0  1  0  0  0  0  0999 V2000
  -26.4450  -14.7220   18.4490 C   0  0  0  0  0 15  0  0  0  0  0  0
  -26.4330  -15.3540   20.4750 C   0  0  0  0  0 15  0  0  0  0  0  0
  -26.8780  -12.7420   17.7900 C   0  0  0  0  0  1  0  0  0  0  0  0
  -26.6420  -13.7060   21.9980 C   0  0  0  0  0  1  0  0  0  0  0  0
  -27.0780  -11.5430   21.4430 C   0  0  0  0  0  1  0  0  0  0  0  0
  -27.0860  -10.9910   19.1560 C   0  0  0  0  0  1  0  0  0  0  0  0
  -27.1790   -9.7170   18.6920 F   0  0  0  0  0  0  0  0  0  0  0  0
  -26.7850  -14.0720   24.6310 C   0  0  0  0  0  1  0  0  0  0  0  0
  -25.9600  -14.0140   23.3400 C   0  0  0  0  0  2  0  0  0  0  0  0
  -28.4170  -11.1710   23.5490 C   0  0  0  0  0  1  0  0  0  0  0  0
  -27.3350  -10.5540   22.6320 C   0  0  0  0  0  3  0  0  0  0  0  0
  -27.8800   -8.3300   21.1200 C   0  0  0  0  0  1  0  0  0  0  0  0
  -27.8170   -9.0420   22.4780 C   0  0  0  0  0  3  0  0  0  0  0  0
  -27.2290   -8.1610   23.5180 N   0  0  0  0  0  4  0  0  0  0  0  0
  -26.2260   -8.1510   23.4950 H   0  0  0  0  0  0  0  0  0  0  0  0
  -27.5220   -8.4390   24.4390 H   0  0  0  0  0  0  0  0  0  0  0  0
  -27.5470   -7.2170   23.3800 H   0  0  0  0  0  0  0  0  0  0  0  0
  -26.4560  -17.4190   20.7730 C   0  0  0  0  0 15  0  0  0  0  0  0
  -27.2580  -19.4430   20.4520 C   0  0  0  0  0 15  0  0  0  0  0  0
  -27.0920  -21.6360   20.5970 C   0  0  0  0  0 15  0  0  0  0  0  0
  -27.8250  -23.4740   20.5310 O   0  0  0  0  0  1  0  0  0  0  0  0
  -25.1540  -30.6950   22.7030 C   0  0  0  0  0  0  0  0  0  0  0  0
  -27.3310  -25.0220   20.2910 C   0  0  0  0  0  0  0  0  0  0  0  0
  -24.0660  -29.2230   21.0840 C   0  0  0  0  0  3  0  0  0  0  0  0
  -25.5290  -27.4700   19.8180 C   0  0  0  0  0  0  0  0  0  0  0  0
  -26.6470  -29.1890   21.1870 C   0  0  0  0  0  2  0  0  0  0  0  0
  -26.6570  -27.6860   20.6100 C   0  0  0  0  0  0  0  0  0  0  0  0
  -27.5700  -26.4820   20.8100 C   0  0  0  0  0  3  0  0  0  0  0  0
  -26.3250  -25.1600   19.3180 C   0  0  0  0  0  3  0  0  0  0  0  0
  -25.4560  -26.2660   19.1150 C   0  0  0  0  0  3  0  0  0  0  0  0
  -24.3930  -28.5000   19.7460 C   0  0  0  0  0  2  0  0  0  0  0  0
  -25.3190  -29.7550   21.7030 N   0  0  0  0  0  0  0  0  0  0  0  0
  -24.0280  -31.0320   23.1190 O   0  0  0  0  0  0  0  0  0  0  0  0
  -23.3000  -28.2780   22.0520 C   0  0  0  0  0  0  0  0  0  0  0  0
  -21.9630  -28.1760   21.9190 N   0  0  0  0  0  0  0  0  0  0  0  0
  -23.9210  -27.6430   22.9090 O   0  0  0  0  0  0  0  0  0  0  0  0
  -21.5060  -28.7360   21.2120 H   0  0  0  0  0  0  0  0  0  0  0  0
  -18.5190  -27.1900   22.5300 C   0  0  0  0  0  0  0  0  0  0  0  0
  -21.1000  -27.2840   22.7060 C   0  0  0  0  0  3  0  0  0  0  0  0
  -21.0840  -25.8570   22.1050 C   0  0  0  0  0  2  0  0  0  0  0  0
  -19.9300  -25.6330   21.1230 C   0  0  0  0  0  2  0  0  0  0  0  0
  -18.5840  -25.8520   21.8160 C   0  0  0  0  0  2  0  0  0  0  0  0
  -19.6990  -27.8700   22.9360 C   0  0  0  0  0  0  0  0  0  0  0  0
  -19.5760  -29.1250   23.5720 C   0  0  0  0  0  3  0  0  0  0  0  0
  -18.3100  -29.6960   23.8020 C   0  0  0  0  0  3  0  0  0  0  0  0
  -17.1480  -29.0110   23.4090 C   0  0  0  0  0  3  0  0  0  0  0  0
  -17.2540  -27.7600   22.7790 C   0  0  0  0  0  3  0  0  0  0  0  0
  -26.3660  -31.4060   23.3760 C   0  0  0  0  0  3  0  0  0  0  0  0
  -26.8530  -30.6840   24.6960 C   0  0  1  0  0  0  0  0  0  0  0  0
  -25.7160  -30.4010   25.7050 C   0  0  0  0  0  1  0  0  0  0  0  0
  -27.5330  -29.3330   24.3840 C   0  0  0  0  0  1  0  0  0  0  0  0
  -27.9190  -31.5530   25.4060 C   0  0  0  0  0  1  0  0  0  0  0  0
  -25.9700  -32.7950   23.7000 N   0  0  0  0  0  0  0  0  0  0  0  0
  -26.2960  -33.8870   22.9950 C   0  0  0  0  0  0  0  0  0  0  0  0
  -27.0170  -33.8370   21.9960 O   0  0  0  0  0  0  0  0  0  0  0  0
  -25.3270  -32.9050   24.4680 H   0  0  0  0  0  0  0  0  0  0  0  0
  -24.5240  -35.6440   22.6170 C   0  0  0  0  0  1  0  0  0  0  0  0
  -25.7390  -35.2480   23.4700 C   0  0  0  0  0  3  0  0  0  0  0  0
  -27.7880  -36.2010   24.4370 C   0  0  0  0  0  1  0  0  0  0  0  0
  -26.7350  -36.3420   23.4370 N   0  0  0  0  0  0  0  0  0  0  0  0
  -26.2830  -37.2410   23.5780 H   0  0  0  0  0  0  0  0  0  0  0  0
  -28.2430  -13.2010   16.9910 C   0  0  0  0  0  2  0  0  0  0  0  0
  -29.5010  -14.1570   17.6890 C   0  0  0  0  0  2  0  0  0  0  0  0
  -31.3680  -13.2880   19.7780 C   0  0  0  0  0  0  0  0  0  0  0  0
  -31.3190  -10.9080   19.4520 C   0  0  0  0  0  2  0  0  0  0  0  0
  -30.4730  -10.8590   18.1860 C   0  0  0  0  0  2  0  0  0  0  0  0
  -29.0630  -10.9180   18.7230 C   0  0  0  0  0  2  0  0  0  0  0  0
  -28.8070  -12.0610   19.8700 C   0  0  0  0  0  2  0  0  0  0  0  0
  -29.7250  -11.9960   20.9980 C   0  0  0  0  0  2  0  0  0  0  0  0
  -30.9290  -12.0960   20.2250 N   0  0  0  0  0  0  0  0  0  0  0  0
  -32.5030  -13.5860   20.1430 O   0  0  0  0  0  0  0  0  0  0  0  0
  -30.8050  -13.8840   18.5990 N   0  0  0  0  0  0  0  0  0  0  0  0
  -31.5000  -14.5490   18.3010 H   0  0  0  0  0  0  0  0  0  0  0  0
  -25.7910  -13.7180   20.0430 C   0  0  0  0  0  1  0  0  0  0  0  0
  -24.3760  -13.1980   20.2660 C   0  0  0  0  0  0  0  0  0  0  0  0
  -24.5400  -11.9820   20.5440 C   0  0  0  0  0  1  0  0  0  0  0  0
  -27.3510  -13.4030   19.9830 N   0  0  0  0  0  1  0  0  0  0  0  0
  -25.4420  -13.1430   20.1180 N   0  0  0  0  0  0  0  0  0  0  0  0
  -23.9900  -10.5010   20.5840 C   0  0  0  0  0  3  0  0  0  0  0  0
  -24.3280   -9.4840   21.5390 C   0  0  0  0  0  3  0  0  0  0  0  0
  -23.5650   -8.2890   21.7460 C   0  0  0  0  0  3  0  0  0  0  0  0
  -22.3430   -8.1020   21.0600 C   0  0  0  0  0  0  0  0  0  0  0  0
  -21.9980   -9.0760   20.1050 C   0  0  0  0  0  3  0  0  0  0  0  0
  -22.8040  -10.2150   19.8620 C   0  0  0  0  0  3  0  0  0  0  0  0
  -21.4590   -7.0450   21.2240 O   0  0  0  0  0  0  0  0  0  0  0  0
  -21.3580   -6.2890   22.3760 C   0  0  0  0  0  0  0  0  0  0  0  0
  -21.0870   -6.8620   23.6380 C   0  0  0  0  0  3  0  0  0  0  0  0
  -20.9360   -6.0410   24.7790 C   0  0  0  0  0  3  0  0  0  0  0  0
  -21.0470   -4.6410   24.6630 C   0  0  0  0  0  0  0  0  0  0  0  0
  -21.2910   -4.0630   23.4040 C   0  0  0  0  0  3  0  0  0  0  0  0
  -21.4400   -4.8820   22.2700 C   0  0  0  0  0  0  0  0  0  0  0  0
  -21.6530   -4.3050   21.0620 F   0  0  0  0  0  0  0  0  0  0  0  0
  -20.9140   -3.8540   25.7560 F   0  0  0  0  0  0  0  0  0  0  0  0
  -23.0140  -13.8100   20.4010 C   0  0  0  0  0  0  0  0  0  0  0  0
  -22.2110  -13.2370   21.3050 N   0  0  0  0  0  0  0  0  0  0  0  0
  -22.7380  -14.7920   19.7470 O   0  0  0  0  0  0  0  0  0  0  0  0
  -22.5180  -12.4620   21.8700 H   0  0  0  0  0  0  0  0  0  0  0  0
  -21.3110  -13.6450   21.5130 H   0  0  0  0  0  0  0  0  0  0  0  0
  -27.5920  -13.8610   19.9600 N   0  0  0  0  0  0  0  0  0  0  0  0
  -27.6580  -14.8540   20.1490 H   0  0  0  0  0  0  0  0  0  0  0  0
  -27.7940  -13.7460   18.9740 H   0  0  0  0  0  0  0  0  0  0  0  0
  4  9  1  0
  5 11  1  0
  7  6  1  0
  9  8  1  0
 11 10  1  0
 13 12  1  0
 13 11  1  0
 13 14  1  0
 14 16  1  0
 15 14  1  0
 17 14  1  0
 22 33  2  0
 23 21  1  0
 23 28  1  0
 24 32  1  0
 24 34  1  0
 25 27  1  0
 26 32  1  0
 27 28  2  0
 27 26  1  0
 29 23  2  0
 30 29  1  0
 30 25  2  0
 31 25  1  0
 31 24  1  0
 32 22  1  0
 34 36  2  0
 35 34  1  0
 37 35  1  0
 38 47  2  0
 38 43  1  0
 39 35  1  0
 39 43  1  0
 40 39  1  0
 41 42  1  0
 41 40  1  0
 42 38  1  0
 43 44  2  0
 44 45  1  0
 46 45  2  0
 47 46  1  0
 48 22  1  0
 48 53  1  0
 48 49  1  0
 49 52  1  1
 49 50  1  0
 51 49  1  0
 53 56  1  0
 54 58  1  0
 54 53  1  0
 55 54  2  0
 58 57  1  0
 60 58  1  0
 60 61  1  0
 60 59  1  0
 62 63  1  0
 62  3  1  0
 63 72  1  0
 64 71  2  0
 64 70  1  0
 65 70  1  0
 66 67  1  0
 66 65  1  0
 67 68  1  0
 68 69  1  0
 70 69  1  0
 72 64  1  0
 73 72  1  0
 74 78  1  0
 75 94  1  0
 75 76  1  0
 78 75  2  0
 79 80  1  0
 80 81  2  0
 82 85  1  0
 82 81  1  0
 83 82  2  0
 84 83  1  0
 84 79  2  0
 85 86  1  0
 86 87  1  0
 87 88  2  0
 89 88  1  0
 89 93  1  0
 90 89  2  0
 91 86  2  0
 91 90  1  0
 92 91  1  0
 94 95  1  0
 95 98  1  0
 95 97  1  0
 96 94  2  0
 99 77  1  0
 99100  1  0
101 99  1  0
M  ISO  4  20 101  21 101  64 100  72 100
M  END
>  <TORSDO>  (14) 
F 25

>  <SCORE>  (14) 
9.112

>  <name>  (14) 
13

>  <ligand_id>  (14) 
13

>  <original_smiles>  (14) 
[H]c1c([H])c([H])c2c(c1[H])C([H])([H])C([H])([H])C([H])([H])C2([H])N([H])C(=O)C1([H])N(C(=O)C([H])(N([H])C(=O)C([H])(N([H])C([H])([H])[H])C([H])([H])[H])C(C([H])([H])[H])(C([H])([H])[H])C([H])([H])[H])C([H])([H])c2c([H])c(OC([H])([H])C([H])([H])C([H])([H])c3c([H])c(C([H])([H])C([H])([H])N([H])C(=O)N4C([H])([H])C([H])([H])C([H])([H])C([H])(n5nc(-c6c([H])c([H])c(Oc7c([H])c([H])c(F)c([H])c7F)c([H])c6[H])c(C(=O)N([H])[H])c5N([H])[H])C4([H])[H])c(F)c(C([H])(C([H])([H])[H])C([H])(C([H])([H])[H])[N+]([H])([H])[H])c3C([H])([H])C([H])([H])[H])c([H])c([H])c2C1([H])[H]

>  <smiles>  (14) 
[H]c1c([H])c([H])c2c(c1[H])C([H])([H])C([H])([H])C([H])([H])C2([H])N([H])C(=O)C1([H])N(C(=O)C([H])(N([H])C(=O)C([H])(N([H])C([H])([H])[H])C([H])([H])[H])C(C([H])([H])[H])(C([H])([H])[H])C([H])([H])[H])C([H])([H])c2c([H])c(OC([H])([H])C([H])([H])C([H])([H])c3c([H])c(C([H])([H])C([H])([H])N([H])C(=O)N4C([H])([H])C([H])([H])C([H])([H])C([H])(n5nc(-c6c([H])c([H])c(Oc7c([H])c([H])c(F)c([H])c7F)c([H])c6[H])c(C(=O)N([H])[H])c5N([H])[H])C4([H])[H])c(F)c(C([H])(C([H])([H])[H])C([H])(C([H])([H])[H])[N+]([H])([H])[H])c3C([H])([H])C([H])([H])[H])c([H])c([H])c2C1([H])[H]

$$$$
14:0:0
     RDKit          3D

 93 98  0  0  1  0  0  0  0  0999 V2000
  -27.2820  -26.6580   17.9290 C   0  0  0  0  0  2  0  0  0  0  0  0
  -28.2940  -25.8130   17.3520 C   0  0  0  0  0  0  0  0  0  0  0  0
  -26.7840  -26.0880   19.0670 C   0  0  0  0  0  2  0  0  0  0  0  0
  -28.3610  -24.5590   17.9210 C   0  0  0  0  0  0  0  0  0  0  0  0
  -29.2660  -26.2370   16.2860 C   0  0  0  0  0  1  0  0  0  0  0  0
  -29.3280  -23.4410   17.5750 C   0  0  0  0  0  1  0  0  0  0  0  0
  -27.4680  -24.3620   18.9590 N   0  0  0  0  0  2  0  0  0  0  0  0
  -25.7110  -27.2720   22.0390 C   0  0  0  0  0  3  0  0  0  0  0  0
  -25.3970  -26.7970   24.6730 C   0  0  0  0  0  1  0  0  0  0  0  0
  -26.2260  -26.5040   23.4180 C   0  0  0  0  0  3  0  0  0  0  0  0
  -27.7860  -26.5910   23.7090 C   0  0  0  0  0  2  0  0  0  0  0  0
  -28.7970  -25.9160   22.6850 C   0  0  0  0  0  2  0  0  0  0  0  0
  -28.9410  -26.5650   21.4200 O   0  0  0  0  0  0  0  0  0  0  0  0
  -24.7100  -31.9250   23.2100 C   0  0  0  0  0  0  0  0  0  0  0  0
  -27.7410  -26.9790   21.1880 C   0  0  0  0  0  0  0  0  0  0  0  0
  -23.5760  -30.4340   21.5340 C   0  0  0  0  0  3  0  0  0  0  0  0
  -25.0280  -28.5570   20.0310 C   0  0  0  0  0  0  0  0  0  0  0  0
  -26.0560  -30.8240   21.1370 C   0  0  0  0  0  2  0  0  0  0  0  0
  -26.3160  -29.3660   20.3280 C   0  0  0  0  0  0  0  0  0  0  0  0
  -27.6420  -28.5550   20.6580 C   0  0  0  0  0  3  0  0  0  0  0  0
  -26.1490  -25.9460   21.0770 C   0  0  0  0  0  0  0  0  0  0  0  0
  -24.8930  -26.9320   20.2860 C   0  0  0  0  0  0  0  0  0  0  0  0
  -23.7900  -29.5480   20.1900 C   0  0  0  0  0  2  0  0  0  0  0  0
  -24.8270  -31.0920   22.0610 N   0  0  0  0  0  0  0  0  0  0  0  0
  -23.6010  -32.1850   23.7320 O   0  0  0  0  0  0  0  0  0  0  0  0
  -22.7750  -29.6270   22.6000 C   0  0  0  0  0  0  0  0  0  0  0  0
  -21.4640  -29.3940   22.4080 N   0  0  0  0  0  0  0  0  0  0  0  0
  -23.3540  -29.1870   23.5900 O   0  0  0  0  0  0  0  0  0  0  0  0
  -21.0070  -29.8410   21.6200 H   0  0  0  0  0  0  0  0  0  0  0  0
  -18.1530  -28.0110   22.8470 C   0  0  0  0  0  0  0  0  0  0  0  0
  -20.6720  -28.4510   23.2000 C   0  0  0  0  0  3  0  0  0  0  0  0
  -20.8850  -27.0030   22.7070 C   0  0  0  0  0  2  0  0  0  0  0  0
  -19.8630  -26.5670   21.6460 C   0  0  0  0  0  2  0  0  0  0  0  0
  -18.4350  -26.6720   22.1880 C   0  0  0  0  0  2  0  0  0  0  0  0
  -19.2010  -28.8480   23.3080 C   0  0  0  0  0  0  0  0  0  0  0  0
  -18.8890  -30.0910   23.8900 C   0  0  0  0  0  3  0  0  0  0  0  0
  -17.5520  -30.5000   24.0310 C   0  0  0  0  0  3  0  0  0  0  0  0
  -16.5110  -29.6630   23.5890 C   0  0  0  0  0  3  0  0  0  0  0  0
  -16.8130  -28.4220   22.9990 C   0  0  0  0  0  3  0  0  0  0  0  0
  -25.9020  -32.6530   23.9610 C   0  0  0  0  0  3  0  0  0  0  0  0
  -25.5180  -34.0560   24.2860 N   0  0  0  0  0  0  0  0  0  0  0  0
  -25.9190  -35.1550   23.6330 C   0  0  0  0  0  0  0  0  0  0  0  0
  -26.6640  -35.0860   22.6550 O   0  0  0  0  0  0  0  0  0  0  0  0
  -24.8510  -34.1720   25.0320 H   0  0  0  0  0  0  0  0  0  0  0  0
  -24.1950  -36.9670   23.3100 C   0  0  0  0  0  1  0  0  0  0  0  0
  -25.4260  -36.5380   24.1210 C   0  0  0  0  0  3  0  0  0  0  0  0
  -27.5410  -37.4320   25.0080 C   0  0  0  0  0  1  0  0  0  0  0  0
  -26.4540  -37.6010   24.0490 N   0  0  0  0  0  0  0  0  0  0  0  0
  -26.0400  -38.5150   24.2040 H   0  0  0  0  0  0  0  0  0  0  0  0
  -26.3620  -31.9650   25.3170 C   0  0  1  0  0  0  0  0  0  0  0  0
  -25.2150  -31.6970   26.3240 C   0  0  0  0  0  1  0  0  0  0  0  0
  -27.0810  -30.6510   24.9940 C   0  0  0  0  0  1  0  0  0  0  0  0
  -27.4220  -32.8160   26.0660 C   0  0  0  0  0  1  0  0  0  0  0  0
  -27.6430  -22.4160   19.5530 C   0  0  0  0  0 15  0  0  0  0  0  0
  -28.7720  -20.4610   19.6020 C   0  0  0  0  0 15  0  0  0  0  0  0
  -30.5190  -18.6780   18.5130 C   0  0  0  0  0  1  0  0  0  0  0  0
  -29.1870  -18.2530   19.2290 C   0  0  0  0  0  1  0  0  0  0  0  0
  -29.9090  -16.2410   19.5730 C   0  0  0  0  0  2  0  0  0  0  0  0
  -30.1870  -13.5160   18.8410 C   0  0  0  0  0  2  0  0  0  0  0  0
  -29.2870  -12.7300   17.8110 C   0  0  0  0  0  2  0  0  0  0  0  0
  -27.9940  -12.2230   18.4480 C   0  0  0  0  0  2  0  0  0  0  0  0
  -27.4480  -13.2870   19.4080 C   0  0  0  0  0  3  0  0  0  0  0  0
  -28.5160  -13.9110   20.3590 C   0  0  0  0  0  2  0  0  0  0  0  0
  -29.4800  -14.7430   19.5390 N   0  0  0  0  0  0  0  0  0  0  0  0
  -31.1560  -16.0100   19.5650 O   0  0  0  0  0  1  0  0  0  0  0  0
  -25.1810  -13.7650   20.4200 C   0  0  0  0  0  0  0  0  0  0  0  0
  -24.1560  -12.9800   20.8620 C   0  0  0  0  0  0  0  0  0  0  0  0
  -24.6150  -11.6290   20.7530 C   0  0  0  0  0  0  0  0  0  0  0  0
  -26.2040  -12.9050   20.0730 N   0  0  0  0  0  0  0  0  0  0  0  0
  -25.8800  -11.6050   20.3280 N   0  0  0  0  0  0  0  0  0  0  0  0
  -23.8930  -10.3670   20.9830 C   0  0  0  0  0  0  0  0  0  0  0  0
  -24.3700   -9.3900   21.8840 C   0  0  0  0  0  3  0  0  0  0  0  0
  -23.6410   -8.2010   22.1030 C   0  0  0  0  0  3  0  0  0  0  0  0
  -22.4180   -7.9780   21.4240 C   0  0  0  0  0  0  0  0  0  0  0  0
  -21.9610   -8.9440   20.5100 C   0  0  0  0  0  3  0  0  0  0  0  0
  -22.6900  -10.1250   20.2910 C   0  0  0  0  0  3  0  0  0  0  0  0
  -21.6560   -6.8410   21.5560 O   0  0  0  0  0  0  0  0  0  0  0  0
  -21.6550   -6.1030   22.7120 C   0  0  0  0  0  0  0  0  0  0  0  0
  -21.2880   -6.6670   23.9540 C   0  0  0  0  0  3  0  0  0  0  0  0
  -21.2410   -5.8590   25.1070 C   0  0  0  0  0  3  0  0  0  0  0  0
  -21.5470   -4.4870   25.0200 C   0  0  0  0  0  0  0  0  0  0  0  0
  -21.9050   -3.9220   23.7830 C   0  0  0  0  0  3  0  0  0  0  0  0
  -21.9600   -4.7290   22.6320 C   0  0  0  0  0  0  0  0  0  0  0  0
  -22.2860   -4.1780   21.4380 F   0  0  0  0  0  0  0  0  0  0  0  0
  -21.4920   -3.7060   26.1240 F   0  0  0  0  0  0  0  0  0  0  0  0
  -22.7860  -13.4610   21.2390 C   0  0  0  0  0  0  0  0  0  0  0  0
  -22.1230  -12.7650   22.1530 N   0  0  0  0  0  0  0  0  0  0  0  0
  -22.3230  -14.4980   20.7620 O   0  0  0  0  0  0  0  0  0  0  0  0
  -22.5140  -11.9340   22.5700 H   0  0  0  0  0  0  0  0  0  0  0  0
  -21.2080  -13.0680   22.4480 H   0  0  0  0  0  0  0  0  0  0  0  0
  -25.3320  -15.1410   20.2520 N   0  0  0  0  0  0  0  0  0  0  0  0
  -24.5830  -15.7950   20.4600 H   0  0  0  0  0  0  0  0  0  0  0  0
  -26.1540  -15.5860   19.8590 H   0  0  0  0  0  0  0  0  0  0  0  0
  1  3  1  0
  2  4  2  0
  2  1  1  0
  4  7  1  0
  5  2  1  0
  6  4  1  0
  7  3  1  0
  8 22  1  0
  8 10  1  0
 10 11  1  0
 10  9  1  0
 12 11  1  0
 13 12  1  0
 14 25  2  0
 15 13  1  0
 16 24  1  0
 16 26  1  0
 17 23  1  0
 17 22  1  0
 17 19  2  0
 18 24  1  0
 19 20  1  0
 19 18  1  0
 20 15  2  0
 21 15  1  0
 21  8  1  0
 22 21  2  3
 23 16  1  0
 24 14  1  0
 26 28  2  0
 27 26  1  0
 29 27  1  0
 30 39  2  0
 30 35  1  0
 31 27  1  0
 31 35  1  0
 32 31  1  0
 33 34  1  0
 33 32  1  0
 34 30  1  0
 35 36  2  0
 36 37  1  0
 38 37  2  0
 39 38  1  0
 40 14  1  0
 40 41  1  0
 40 50  1  0
 41 44  1  0
 42 46  1  0
 42 41  1  0
 43 42  2  0
 46 45  1  0
 48 46  1  0
 48 49  1  0
 48 47  1  0
 50 53  1  1
 50 51  1  0
 52 50  1  0
 56 57  1  0
 59 64  1  0
 60 61  1  0
 60 59  1  0
 62 61  1  0
 62 69  1  0
 62 63  1  0
 64 58  1  0
 64 63  1  0
 65 58  1  0
 66 67  2  0
 67 86  1  0
 68 67  1  0
 68 71  1  0
 69 70  1  0
 69 66  1  0
 70 68  2  0
 71 72  1  0
 72 73  2  0
 74 77  1  0
 74 73  1  0
 75 74  2  0
 76 75  1  0
 76 71  2  0
 77 78  1  0
 78 79  1  0
 79 80  2  0
 81 80  1  0
 81 85  1  0
 82 81  2  0
 83 78  2  0
 83 82  1  0
 84 83  1  0
 86 87  1  0
 87 90  1  0
 87 89  1  0
 88 86  2  0
 91 66  1  0
 91 92  1  0
 93 91  1  0
M  ISO  4  12 101  13 101  57 100  58 100
M  END
>  <TORSDO>  (15) 
F 23

>  <SCORE>  (15) 
-14.308

>  <name>  (15) 
14

>  <ligand_id>  (15) 
14

>  <original_smiles>  (15) 
[H]c1c([H])c([H])c2c(c1[H])C([H])([H])C([H])([H])C([H])([H])C2([H])N([H])C(=O)C1([H])N(C(=O)C([H])(N([H])C(=O)C([H])(N([H])C([H])([H])[H])C([H])([H])[H])C(C([H])([H])[H])(C([H])([H])[H])C([H])([H])[H])C([H])([H])c2c([H])c(OC([H])([H])C([H])([H])C([H])(C([H])([H])[H])C([H])([H])c3c([H])c(C([H])([H])[H])c(C([H])([H])[H])n3C([H])([H])C([H])([H])C([H])(C(=O)N3C([H])([H])C([H])([H])C([H])([H])C([H])(n4nc(-c5c([H])c([H])c(Oc6c([H])c([H])c(F)c([H])c6F)c([H])c5[H])c(C(=O)N([H])[H])c4N([H])[H])C3([H])[H])C([H])([H])[H])c([H])c([H])c2C1([H])[H]

>  <smiles>  (15) 
[H]c1c([H])c([H])c2c(c1[H])C([H])([H])C([H])([H])C([H])([H])C2([H])N([H])C(=O)C1([H])N(C(=O)C([H])(N([H])C(=O)C([H])(N([H])C([H])([H])[H])C([H])([H])[H])C(C([H])([H])[H])(C([H])([H])[H])C([H])([H])[H])C([H])([H])c2c([H])c(OC([H])([H])C([H])([H])C([H])(C([H])([H])[H])C([H])([H])c3c([H])c(C([H])([H])[H])c(C([H])([H])[H])n3C([H])([H])C([H])([H])C([H])(C(=O)N3C([H])([H])C([H])([H])C([H])([H])C([H])(n4nc(-c5c([H])c([H])c(Oc6c([H])c([H])c(F)c([H])c6F)c([H])c5[H])c(C(=O)N([H])[H])c4N([H])[H])C3([H])[H])C([H])([H])[H])c([H])c([H])c2C1([H])[H]

$$$$
15:0:0
     RDKit          3D

 82 86  0  0  1  0  0  0  0  0999 V2000
  -28.1400  -24.6130   20.3000 O   0  0  0  0  0  1  0  0  0  0  0  0
  -24.7270  -31.7730   23.1130 C   0  0  0  0  0  0  0  0  0  0  0  0
  -27.2330  -26.1090   20.2600 C   0  0  0  0  0  0  0  0  0  0  0  0
  -23.5710  -30.3420   21.4930 C   0  0  0  0  0  3  0  0  0  0  0  0
  -25.0260  -28.5450   20.1520 C   0  0  0  0  0  0  0  0  0  0  0  0
  -26.1720  -30.2930   21.4630 C   0  0  0  0  0  2  0  0  0  0  0  0
  -26.2290  -28.7840   20.8250 C   0  0  0  0  0  0  0  0  0  0  0  0
  -27.2810  -27.6200   20.8270 C   0  0  0  0  0  3  0  0  0  0  0  0
  -25.9900  -26.2470   19.5230 C   0  0  0  0  0  3  0  0  0  0  0  0
  -24.9850  -27.3060   19.4750 C   0  0  0  0  0  3  0  0  0  0  0  0
  -23.8500  -29.5760   20.1560 C   0  0  0  0  0  2  0  0  0  0  0  0
  -24.8560  -30.8520   22.0750 N   0  0  0  0  0  0  0  0  0  0  0  0
  -23.6180  -32.1080   23.5760 O   0  0  0  0  0  0  0  0  0  0  0  0
  -22.7840  -29.4390   22.4860 C   0  0  0  0  0  0  0  0  0  0  0  0
  -21.4430  -29.3390   22.3680 N   0  0  0  0  0  0  0  0  0  0  0  0
  -23.4050  -28.8140   23.3480 O   0  0  0  0  0  0  0  0  0  0  0  0
  -20.9820  -29.8910   21.6570 H   0  0  0  0  0  0  0  0  0  0  0  0
  -18.0220  -28.1970   22.9250 C   0  0  0  0  0  0  0  0  0  0  0  0
  -20.5920  -28.4260   23.1490 C   0  0  0  0  0  3  0  0  0  0  0  0
  -20.6560  -26.9890   22.5770 C   0  0  0  0  0  2  0  0  0  0  0  0
  -19.5380  -26.6910   21.5720 C   0  0  0  0  0  2  0  0  0  0  0  0
  -18.1670  -26.8530   22.2330 C   0  0  0  0  0  2  0  0  0  0  0  0
  -19.1590  -28.9430   23.3390 C   0  0  0  0  0  0  0  0  0  0  0  0
  -18.9610  -30.1970   23.9590 C   0  0  0  0  0  3  0  0  0  0  0  0
  -17.6650  -30.7070   24.1600 C   0  0  0  0  0  3  0  0  0  0  0  0
  -16.5440  -29.9600   23.7540 C   0  0  0  0  0  3  0  0  0  0  0  0
  -16.7240  -28.7070   23.1440 C   0  0  0  0  0  3  0  0  0  0  0  0
  -25.9580  -32.4620   23.7820 C   0  0  0  0  0  3  0  0  0  0  0  0
  -25.6040  -33.8650   24.1210 N   0  0  0  0  0  0  0  0  0  0  0  0
  -25.9230  -34.9520   23.4050 C   0  0  0  0  0  0  0  0  0  0  0  0
  -26.5850  -34.8830   22.3670 O   0  0  0  0  0  0  0  0  0  0  0  0
  -25.0080  -33.9880   24.9270 H   0  0  0  0  0  0  0  0  0  0  0  0
  -24.1650  -36.7490   23.1560 C   0  0  0  0  0  1  0  0  0  0  0  0
  -25.4400  -36.3320   23.9080 C   0  0  0  0  0  3  0  0  0  0  0  0
  -27.5900  -37.2470   24.6790 C   0  0  0  0  0  1  0  0  0  0  0  0
  -26.4540  -37.4050   23.7750 N   0  0  0  0  0  0  0  0  0  0  0  0
  -26.0390  -38.3160   23.9440 H   0  0  0  0  0  0  0  0  0  0  0  0
  -26.4350  -31.7250   25.0960 C   0  0  1  0  0  0  0  0  0  0  0  0
  -25.3110  -31.5090   26.1390 C   0  0  0  0  0  1  0  0  0  0  0  0
  -27.0330  -30.3400   24.7740 C   0  0  0  0  0  1  0  0  0  0  0  0
  -27.5640  -32.5360   25.7730 C   0  0  0  0  0  1  0  0  0  0  0  0
  -27.3650  -22.4030   18.8900 C   0  0  0  0  0  1  0  0  0  0  0  0
  -28.1700  -22.5090   20.1860 C   0  0  0  0  0  1  0  0  0  0  0  0
  -29.1780  -20.3770   20.2550 C   0  0  0  0  0 15  0  0  0  0  0  0
  -29.9310  -16.6400   20.1760 C   0  0  0  0  0  0  0  0  0  0  0  0
  -30.3120  -13.8760   19.4120 C   0  0  0  0  0  2  0  0  0  0  0  0
  -29.5650  -13.0300   18.2990 C   0  0  0  0  0  2  0  0  0  0  0  0
  -28.2360  -12.4550   18.7930 C   0  0  0  0  0  2  0  0  0  0  0  0
  -27.5730  -13.4890   19.7150 C   0  0  0  0  0  3  0  0  0  0  0  0
  -28.5160  -14.1920   20.7610 C   0  0  0  0  0  2  0  0  0  0  0  0
  -29.5140  -15.1120   20.0530 N   0  0  0  0  0  0  0  0  0  0  0  0
  -31.1810  -16.4220   20.1210 O   0  0  0  0  0  0  0  0  0  0  0  0
  -29.1970  -18.2670   20.1960 N   0  0  0  0  0  2  0  0  0  0  0  0
  -28.2130  -18.0280   20.1650 H   0  0  0  0  0  0  0  0  0  0  0  0
  -25.2030  -13.8900   20.4640 C   0  0  0  0  0  0  0  0  0  0  0  0
  -24.1650  -13.0800   20.8200 C   0  0  0  0  0  0  0  0  0  0  0  0
  -24.6750  -11.7450   20.7990 C   0  0  0  0  0  0  0  0  0  0  0  0
  -26.2820  -13.0610   20.2470 N   0  0  0  0  0  0  0  0  0  0  0  0
  -25.9770  -11.7550   20.5010 N   0  0  0  0  0  0  0  0  0  0  0  0
  -23.9670  -10.4660   20.9900 C   0  0  0  0  0  0  0  0  0  0  0  0
  -24.3920   -9.5150   21.9440 C   0  0  0  0  0  3  0  0  0  0  0  0
  -23.6730   -8.3120   22.1300 C   0  0  0  0  0  3  0  0  0  0  0  0
  -22.5140   -8.0500   21.3610 C   0  0  0  0  0  0  0  0  0  0  0  0
  -22.1060   -8.9890   20.3980 C   0  0  0  0  0  3  0  0  0  0  0  0
  -22.8250  -10.1830   20.2120 C   0  0  0  0  0  3  0  0  0  0  0  0
  -21.7710   -6.8970   21.4540 O   0  0  0  0  0  0  0  0  0  0  0  0
  -21.7070   -6.1700   22.6160 C   0  0  0  0  0  0  0  0  0  0  0  0
  -21.2450   -6.7370   23.8240 C   0  0  0  0  0  3  0  0  0  0  0  0
  -21.1300   -5.9360   24.9780 C   0  0  0  0  0  3  0  0  0  0  0  0
  -21.4670   -4.5700   24.9260 C   0  0  0  0  0  0  0  0  0  0  0  0
  -21.9210   -4.0030   23.7220 C   0  0  0  0  0  3  0  0  0  0  0  0
  -22.0370   -4.8000   22.5710 C   0  0  0  0  0  0  0  0  0  0  0  0
  -22.4540   -4.2420   21.4080 F   0  0  0  0  0  0  0  0  0  0  0  0
  -21.3500   -3.7990   26.0330 F   0  0  0  0  0  0  0  0  0  0  0  0
  -22.7520  -13.5250   21.0580 C   0  0  0  0  0  0  0  0  0  0  0  0
  -22.0280  -12.8310   21.9260 N   0  0  0  0  0  0  0  0  0  0  0  0
  -22.3020  -14.5320   20.5110 O   0  0  0  0  0  0  0  0  0  0  0  0
  -22.4080  -12.0190   22.3910 H   0  0  0  0  0  0  0  0  0  0  0  0
  -21.0810  -13.1140   22.1300 H   0  0  0  0  0  0  0  0  0  0  0  0
  -25.3170  -15.2630   20.2690 N   0  0  0  0  0  0  0  0  0  0  0  0
  -24.5230  -15.8900   20.3550 H   0  0  0  0  0  0  0  0  0  0  0  0
  -26.1540  -15.7250   19.9390 H   0  0  0  0  0  0  0  0  0  0  0  0
  2 13  2  0
  3  1  1  0
  3  8  1  0
  4 12  1  0
  4 14  1  0
  5 11  1  0
  5  7  1  0
  6 12  1  0
  7  8  2  0
  7  6  1  0
  9  3  2  0
 10  9  1  0
 10  5  2  0
 11  4  1  0
 12  2  1  0
 14 16  2  0
 15 14  1  0
 17 15  1  0
 18 27  2  0
 18 23  1  0
 19 15  1  0
 19 23  1  0
 20 19  1  0
 21 22  1  0
 21 20  1  0
 22 18  1  0
 23 24  2  0
 24 25  1  0
 26 25  2  0
 27 26  1  0
 28  2  1  0
 28 29  1  0
 28 38  1  0
 29 32  1  0
 30 34  1  0
 30 29  1  0
 31 30  2  0
 34 33  1  0
 36 34  1  0
 36 37  1  0
 36 35  1  0
 38 41  1  1
 38 39  1  0
 40 38  1  0
 42 43  1  0
 45 53  1  0
 46 51  1  0
 47 48  1  0
 47 46  1  0
 49 48  1  0
 49 58  1  0
 49 50  1  0
 51 45  1  0
 51 50  1  0
 52 45  2  0
 54 53  1  0
 55 56  2  0
 56 75  1  0
 57 56  1  0
 57 60  1  0
 58 55  1  0
 58 59  1  0
 59 57  2  0
 60 61  1  0
 61 62  2  0
 63 66  1  0
 63 62  1  0
 64 63  2  0
 65 64  1  0
 65 60  2  0
 66 67  1  0
 67 68  1  0
 68 69  2  0
 70 69  1  0
 70 74  1  0
 71 70  2  0
 72 67  2  0
 72 71  1  0
 73 72  1  0
 75 76  1  0
 76 79  1  0
 76 78  1  0
 77 75  2  0
 80 81  1  0
 80 55  1  0
 82 80  1  0
M  ISO  4   1 101  43 101  45 100  53 100
M  END
>  <TORSDO>  (16) 
F 17

>  <SCORE>  (16) 
-16.137

>  <name>  (16) 
15

>  <ligand_id>  (16) 
15

>  <original_smiles>  (16) 
[H]c1c([H])c([H])c2c(c1[H])C([H])([H])C([H])([H])C([H])([H])C2([H])N([H])C(=O)C1([H])N(C(=O)C([H])(N([H])C(=O)C([H])(N([H])C([H])([H])[H])C([H])([H])[H])C(C([H])([H])[H])(C([H])([H])[H])C([H])([H])[H])C([H])([H])c2c([H])c(OC([H])(C([H])([H])[H])C([H])([H])N([H])C(=O)N3C([H])([H])C([H])([H])C([H])([H])C([H])(n4nc(-c5c([H])c([H])c(Oc6c([H])c([H])c(F)c([H])c6F)c([H])c5[H])c(C(=O)N([H])[H])c4N([H])[H])C3([H])[H])c([H])c([H])c2C1([H])[H]

>  <smiles>  (16) 
[H]c1c([H])c([H])c2c(c1[H])C([H])([H])C([H])([H])C([H])([H])C2([H])N([H])C(=O)C1([H])N(C(=O)C([H])(N([H])C(=O)C([H])(N([H])C([H])([H])[H])C([H])([H])[H])C(C([H])([H])[H])(C([H])([H])[H])C([H])([H])[H])C([H])([H])c2c([H])c(OC([H])(C([H])([H])[H])C([H])([H])N([H])C(=O)N3C([H])([H])C([H])([H])C([H])([H])C([H])(n4nc(-c5c([H])c([H])c(Oc6c([H])c([H])c(F)c([H])c6F)c([H])c5[H])c(C(=O)N([H])[H])c4N([H])[H])C3([H])[H])c([H])c([H])c2C1([H])[H]

$$$$
16:0:0
     RDKit          3D

 92100  0  0  1  0  0  0  0  0999 V2000
  -28.9500  -19.8070   19.8900 C   0  0  0  0  0  3  0  0  0  0  0  0
  -29.8380  -18.8120   20.3160 C   0  0  0  0  0  0  0  0  0  0  0  0
  -30.5560  -19.5360   21.3200 C   0  0  0  0  0  0  0  0  0  0  0  0
  -30.1570  -20.8120   21.4570 N   0  0  0  0  0  0  0  0  0  0  0  0
  -29.1540  -21.0310   20.5740 N   0  0  0  0  0  0  0  0  0  0  0  0
  -31.3080  -19.0510   23.6710 C   0  0  0  0  0  1  0  0  0  0  0  0
  -32.9970  -19.7650   21.8980 C   0  0  0  0  0  1  0  0  0  0  0  0
  -31.6830  -19.0200   22.1810 C   0  0  0  0  0  3  0  0  0  0  0  0
  -30.1270  -17.3520   19.7380 C   0  0  0  0  0  2  0  0  0  0  0  0
  -30.6870  -14.8840   20.3140 C   0  0  0  0  0  0  0  0  0  0  0  0
  -30.5050  -12.5780   19.3870 C   0  0  0  0  0  2  0  0  0  0  0  0
  -29.5890  -12.6190   18.1430 C   0  0  0  0  0  2  0  0  0  0  0  0
  -28.1130  -12.4500   18.5530 C   0  0  0  0  0  2  0  0  0  0  0  0
  -27.7170  -13.3660   19.7440 C   0  0  0  0  0  3  0  0  0  0  0  0
  -28.7580  -13.3180   20.8830 C   0  0  0  0  0  2  0  0  0  0  0  0
  -30.0650  -13.6550   20.3040 N   0  0  0  0  0  0  0  0  0  0  0  0
  -31.8640  -14.9740   19.9550 O   0  0  0  0  0  0  0  0  0  0  0  0
  -29.9170  -16.0270   20.4710 N   0  0  0  0  0  0  0  0  0  0  0  0
  -28.9810  -15.8630   20.8110 H   0  0  0  0  0  0  0  0  0  0  0  0
  -25.3190  -13.9530   20.4430 C   0  0  0  0  0  0  0  0  0  0  0  0
  -24.2530  -13.1780   20.8100 C   0  0  0  0  0  0  0  0  0  0  0  0
  -24.7220  -11.8280   20.7950 C   0  0  0  0  0  0  0  0  0  0  0  0
  -26.3680  -13.0760   20.2230 N   0  0  0  0  0  0  0  0  0  0  0  0
  -26.0150  -11.7930   20.4990 N   0  0  0  0  0  0  0  0  0  0  0  0
  -23.9990  -10.5650   20.9890 C   0  0  0  0  0  0  0  0  0  0  0  0
  -24.4270   -9.6050   21.9340 C   0  0  0  0  0  3  0  0  0  0  0  0
  -23.7020   -8.4070   22.1140 C   0  0  0  0  0  3  0  0  0  0  0  0
  -22.5360   -8.1590   21.3520 C   0  0  0  0  0  0  0  0  0  0  0  0
  -22.1280   -9.1080   20.3980 C   0  0  0  0  0  3  0  0  0  0  0  0
  -22.8520  -10.2970   20.2140 C   0  0  0  0  0  3  0  0  0  0  0  0
  -21.7830   -7.0130   21.4430 O   0  0  0  0  0  0  0  0  0  0  0  0
  -21.7280   -6.2780   22.6000 C   0  0  0  0  0  0  0  0  0  0  0  0
  -21.2850   -6.8400   23.8180 C   0  0  0  0  0  3  0  0  0  0  0  0
  -21.1770   -6.0310   24.9670 C   0  0  0  0  0  3  0  0  0  0  0  0
  -21.5010   -4.6620   24.8990 C   0  0  0  0  0  0  0  0  0  0  0  0
  -21.9370   -4.1010   23.6860 C   0  0  0  0  0  3  0  0  0  0  0  0
  -22.0470   -4.9070   22.5380 C   0  0  0  0  0  0  0  0  0  0  0  0
  -22.4470   -4.3570   21.3670 F   0  0  0  0  0  0  0  0  0  0  0  0
  -21.3900   -3.8830   26.0000 F   0  0  0  0  0  0  0  0  0  0  0  0
  -22.8510  -13.6520   21.0630 C   0  0  0  0  0  0  0  0  0  0  0  0
  -22.1190  -12.9610   21.9310 N   0  0  0  0  0  0  0  0  0  0  0  0
  -22.4150  -14.6690   20.5290 O   0  0  0  0  0  0  0  0  0  0  0  0
  -22.4850  -12.1400   22.3860 H   0  0  0  0  0  0  0  0  0  0  0  0
  -21.1770  -13.2620   22.1420 H   0  0  0  0  0  0  0  0  0  0  0  0
  -25.4780  -15.3230   20.2540 N   0  0  0  0  0  0  0  0  0  0  0  0
  -24.7060  -15.9730   20.3510 H   0  0  0  0  0  0  0  0  0  0  0  0
  -26.3190  -15.7610   19.9010 H   0  0  0  0  0  0  0  0  0  0  0  0
  -28.3230  -22.3080   20.6850 C   0  0  0  0  0  2  0  0  0  0  0  0
  -28.7500  -23.7610   20.0970 C   0  0  0  0  0  2  0  0  0  0  0  0
  -26.6890  -24.8280   21.3180 C   0  0  0  0  0  1  0  0  0  0  0  0
  -28.0950  -25.1140   20.7370 C   0  0  0  0  0  3  0  0  0  0  0  0
  -28.2350  -26.4720   20.0720 O   0  0  0  0  0  0  0  0  0  0  0  0
  -24.5890  -31.9170   23.2030 C   0  0  0  0  0  0  0  0  0  0  0  0
  -27.1550  -27.3850   20.0460 C   0  0  0  0  0  0  0  0  0  0  0  0
  -23.3660  -30.5410   21.5600 C   0  0  0  0  0  3  0  0  0  0  0  0
  -24.8000  -29.0220   20.0770 C   0  0  0  0  0  0  0  0  0  0  0  0
  -25.9020  -30.8630   21.3460 C   0  0  0  0  0  2  0  0  0  0  0  0
  -25.9770  -29.4930   20.6760 C   0  0  0  0  0  0  0  0  0  0  0  0
  -27.1590  -28.6850   20.6540 C   0  0  0  0  0  3  0  0  0  0  0  0
  -25.9740  -27.0040   19.3770 C   0  0  0  0  0  3  0  0  0  0  0  0
  -24.8030  -27.7850   19.4140 C   0  0  0  0  0  3  0  0  0  0  0  0
  -23.5600  -29.8910   20.1640 C   0  0  0  0  0  2  0  0  0  0  0  0
  -24.6390  -31.1250   22.0930 N   0  0  0  0  0  0  0  0  0  0  0  0
  -23.5140  -32.1810   23.7600 O   0  0  0  0  0  0  0  0  0  0  0  0
  -22.7220  -29.5050   22.5150 C   0  0  0  0  0  0  0  0  0  0  0  0
  -21.3950  -29.3250   22.4070 N   0  0  0  0  0  0  0  0  0  0  0  0
  -23.4170  -28.8710   23.3140 O   0  0  0  0  0  0  0  0  0  0  0  0
  -20.8930  -29.8890   21.7350 H   0  0  0  0  0  0  0  0  0  0  0  0
  -18.0350  -28.0840   22.9290 C   0  0  0  0  0  0  0  0  0  0  0  0
  -20.5930  -28.3710   23.1770 C   0  0  0  0  0  3  0  0  0  0  0  0
  -20.7060  -26.9460   22.5890 C   0  0  0  0  0  2  0  0  0  0  0  0
  -19.5990  -26.6190   21.5830 C   0  0  0  0  0  2  0  0  0  0  0  0
  -18.2200  -26.7430   22.2400 C   0  0  0  0  0  2  0  0  0  0  0  0
  -19.1490  -28.8560   23.3550 C   0  0  0  0  0  0  0  0  0  0  0  0
  -18.9220  -30.1100   23.9620 C   0  0  0  0  0  3  0  0  0  0  0  0
  -17.6130  -30.5940   24.1450 C   0  0  0  0  0  3  0  0  0  0  0  0
  -16.5140  -29.8200   23.7350 C   0  0  0  0  0  3  0  0  0  0  0  0
  -16.7250  -28.5670   23.1320 C   0  0  0  0  0  3  0  0  0  0  0  0
  -25.8790  -32.5470   23.8150 C   0  0  0  0  0  3  0  0  0  0  0  0
  -25.5730  -33.9450   24.1550 N   0  0  0  0  0  0  0  0  0  0  0  0
  -25.9010  -35.0030   23.4030 C   0  0  0  0  0  0  0  0  0  0  0  0
  -26.5630  -34.9050   22.3660 O   0  0  0  0  0  0  0  0  0  0  0  0
  -24.9830  -34.0940   24.9610 H   0  0  0  0  0  0  0  0  0  0  0  0
  -24.1770  -36.8060   23.0720 C   0  0  0  0  0  1  0  0  0  0  0  0
  -25.4210  -36.3890   23.8750 C   0  0  0  0  0  3  0  0  0  0  0  0
  -27.5620  -37.2610   24.7030 C   0  0  0  0  0  1  0  0  0  0  0  0
  -26.4570  -37.4400   23.7650 N   0  0  0  0  0  0  0  0  0  0  0  0
  -26.0560  -38.3610   23.9210 H   0  0  0  0  0  0  0  0  0  0  0  0
  -26.4080  -31.7710   25.0830 C   0  0  1  0  0  0  0  0  0  0  0  0
  -25.3270  -31.5330   26.1630 C   0  0  0  0  0  1  0  0  0  0  0  0
  -26.9850  -30.3920   24.6830 C   0  0  0  0  0  1  0  0  0  0  0  0
  -27.5680  -32.5600   25.7340 C   0  0  0  0  0  1  0  0  0  0  0  0
  1  2  2  0
  1  5  1  0
  2  3  1  0
  3  4  2  0
  3  8  1  0
  5 48  1  0
  5  4  1  0
  7  8  1  0
  8  6  1  0
  9  2  1  0
  9 18  1  0
 10 18  1  0
 11 16  1  0
 12 13  1  0
 12 11  1  0
 14 13  1  0
 14 23  1  0
 14 15  1  0
 16 10  1  0
 16 15  1  0
 17 10  2  0
 18 19  1  0
 20 21  2  0
 21 40  1  0
 22 21  1  0
 22 25  1  0
 23 20  1  0
 23 24  1  0
 24 22  2  0
 25 26  1  0
 26 27  2  0
 28 31  1  0
 28 27  1  0
 29 28  2  0
 30 29  1  0
 30 25  2  0
 31 32  1  0
 32 33  1  0
 33 34  2  0
 35 34  1  0
 35 39  1  0
 36 35  2  0
 37 32  2  0
 37 36  1  0
 38 37  1  0
 40 41  1  0
 41 44  1  0
 41 43  1  0
 42 40  2  0
 45 46  1  0
 45 20  1  0
 47 45  1  0
 49 48  1  0
 49 51  1  0
 51 50  1  0
 52 51  1  0
 53 64  2  0
 54 52  1  0
 54 59  1  0
 55 63  1  0
 55 65  1  0
 56 62  1  0
 56 58  1  0
 57 63  1  0
 58 57  1  0
 59 58  2  0
 60 61  1  0
 60 54  2  0
 61 56  2  0
 62 55  1  0
 63 53  1  0
 65 67  2  0
 66 65  1  0
 68 66  1  0
 69 78  2  0
 69 74  1  0
 70 66  1  0
 70 74  1  0
 71 70  1  0
 72 73  1  0
 72 71  1  0
 73 69  1  0
 74 75  2  0
 75 76  1  0
 77 76  2  0
 78 77  1  0
 79 53  1  0
 79 80  1  0
 79 89  1  0
 80 83  1  0
 81 85  1  0
 81 80  1  0
 82 81  2  0
 85 84  1  0
 87 85  1  0
 87 88  1  0
 87 86  1  0
 89 92  1  1
 89 90  1  0
 91 89  1  0
M  ISO  4  10 100  18 100  51 101  52 101
M  END
>  <TORSDO>  (17) 
F 21

>  <SCORE>  (17) 
-13.462

>  <name>  (17) 
16

>  <ligand_id>  (17) 
16

>  <original_smiles>  (17) 
[H]c1c([H])c([H])c2c(c1[H])C([H])([H])C([H])([H])C([H])([H])C2([H])N([H])C(=O)C1([H])N(C(=O)C([H])(N([H])C(=O)C([H])(N([H])C([H])([H])[H])C([H])([H])[H])C(C([H])([H])[H])(C([H])([H])[H])C([H])([H])[H])C([H])([H])c2c([H])c(OC([H])(C([H])([H])[H])C([H])([H])C([H])([H])n3nc(C([H])(C([H])([H])[H])C([H])([H])[H])c(C([H])([H])N([H])C(=O)N4C([H])([H])C([H])([H])C([H])([H])C([H])(n5nc(-c6c([H])c([H])c(Oc7c([H])c([H])c(F)c([H])c7F)c([H])c6[H])c(C(=O)N([H])[H])c5N([H])[H])C4([H])[H])c3[H])c([H])c([H])c2C1([H])[H]

>  <smiles>  (17) 
[H]c1c([H])c([H])c2c(c1[H])C([H])([H])C([H])([H])C([H])([H])C2([H])N([H])C(=O)C1([H])N(C(=O)C([H])(N([H])C(=O)C([H])(N([H])C([H])([H])[H])C([H])([H])[H])C(C([H])([H])[H])(C([H])([H])[H])C([H])([H])[H])C([H])([H])c2c([H])c(OC([H])(C([H])([H])[H])C([H])([H])C([H])([H])n3nc(C([H])(C([H])([H])[H])C([H])([H])[H])c(C([H])([H])N([H])C(=O)N4C([H])([H])C([H])([H])C([H])([H])C([H])(n5nc(-c6c([H])c([H])c(Oc7c([H])c([H])c(F)c([H])c7F)c([H])c6[H])c(C(=O)N([H])[H])c5N([H])[H])C4([H])[H])c3[H])c([H])c([H])c2C1([H])[H]

$$$$
17:0:0
     RDKit          3D

 92100  0  0  1  0  0  0  0  0999 V2000
  -29.7610  -21.1950   20.3810 C   0  0  0  0  0  3  0  0  0  0  0  0
  -29.3960  -20.0290   19.6980 C   0  0  0  0  0  0  0  0  0  0  0  0
  -28.3040  -20.4870   18.8790 C   0  0  0  0  0  0  0  0  0  0  0  0
  -28.2280  -21.8690   18.9160 C   0  0  0  0  0  0  0  0  0  0  0  0
  -27.4110  -22.7650   18.0250 C   0  0  0  0  0  1  0  0  0  0  0  0
  -29.0750  -22.3590   19.9140 N   0  0  0  0  0  0  0  0  0  0  0  0
  -27.9280  -19.4500   16.5930 C   0  0  0  0  0  1  0  0  0  0  0  0
  -25.9310  -19.9490   18.1190 C   0  0  0  0  0  1  0  0  0  0  0  0
  -27.4210  -19.5750   18.0380 C   0  0  0  0  0  3  0  0  0  0  0  0
  -30.0240  -18.5410   19.5810 C   0  0  0  0  0  2  0  0  0  0  0  0
  -30.2600  -17.4680   20.7650 C   0  0  0  0  0  2  0  0  0  0  0  0
  -30.7410  -14.8590   20.2460 C   0  0  0  0  0  0  0  0  0  0  0  0
  -30.5020  -12.5950   19.1940 C   0  0  0  0  0  2  0  0  0  0  0  0
  -29.5220  -12.6760   18.0020 C   0  0  0  0  0  2  0  0  0  0  0  0
  -28.0670  -12.4970   18.4770 C   0  0  0  0  0  2  0  0  0  0  0  0
  -27.7300  -13.3770   19.7080 C   0  0  0  0  0  3  0  0  0  0  0  0
  -28.8220  -13.2760   20.7950 C   0  0  0  0  0  2  0  0  0  0  0  0
  -30.1030  -13.6370   20.1680 N   0  0  0  0  0  0  0  0  0  0  0  0
  -31.9200  -14.9640   19.9030 O   0  0  0  0  0  0  0  0  0  0  0  0
  -29.9650  -15.9750   20.5270 N   0  0  0  0  0  0  0  0  0  0  0  0
  -29.0110  -15.7260   20.7310 H   0  0  0  0  0  0  0  0  0  0  0  0
  -25.3680  -13.9670   20.5240 C   0  0  0  0  0  0  0  0  0  0  0  0
  -24.3100  -13.1950   20.9110 C   0  0  0  0  0  0  0  0  0  0  0  0
  -24.7610  -11.8410   20.8380 C   0  0  0  0  0  0  0  0  0  0  0  0
  -26.4000  -13.0880   20.2360 N   0  0  0  0  0  0  0  0  0  0  0  0
  -26.0420  -11.8030   20.4890 N   0  0  0  0  0  0  0  0  0  0  0  0
  -24.0310  -10.5800   21.0210 C   0  0  0  0  0  0  0  0  0  0  0  0
  -24.4630   -9.6030   21.9440 C   0  0  0  0  0  3  0  0  0  0  0  0
  -23.7320   -8.4090   22.1180 C   0  0  0  0  0  3  0  0  0  0  0  0
  -22.5530   -8.1820   21.3680 C   0  0  0  0  0  0  0  0  0  0  0  0
  -22.1390   -9.1480   20.4330 C   0  0  0  0  0  3  0  0  0  0  0  0
  -22.8710  -10.3360   20.2590 C   0  0  0  0  0  3  0  0  0  0  0  0
  -21.7950   -7.0410   21.4500 O   0  0  0  0  0  0  0  0  0  0  0  0
  -21.7290   -6.3000   22.6030 C   0  0  0  0  0  0  0  0  0  0  0  0
  -21.2780   -6.8570   23.8210 C   0  0  0  0  0  3  0  0  0  0  0  0
  -21.1620   -6.0440   24.9650 C   0  0  0  0  0  3  0  0  0  0  0  0
  -21.4860   -4.6760   24.8940 C   0  0  0  0  0  0  0  0  0  0  0  0
  -21.9280   -4.1190   23.6820 C   0  0  0  0  0  3  0  0  0  0  0  0
  -22.0480   -4.9280   22.5390 C   0  0  0  0  0  0  0  0  0  0  0  0
  -22.4560   -4.3830   21.3680 F   0  0  0  0  0  0  0  0  0  0  0  0
  -21.3670   -3.8920   25.9910 F   0  0  0  0  0  0  0  0  0  0  0  0
  -22.9240  -13.6740   21.2330 C   0  0  0  0  0  0  0  0  0  0  0  0
  -22.2200  -12.9720   22.1130 N   0  0  0  0  0  0  0  0  0  0  0  0
  -22.4760  -14.7090   20.7380 O   0  0  0  0  0  0  0  0  0  0  0  0
  -22.5990  -12.1370   22.5370 H   0  0  0  0  0  0  0  0  0  0  0  0
  -21.2900  -13.2730   22.3690 H   0  0  0  0  0  0  0  0  0  0  0  0
  -25.5290  -15.3420   20.3650 N   0  0  0  0  0  0  0  0  0  0  0  0
  -24.7490  -15.9770   20.4910 H   0  0  0  0  0  0  0  0  0  0  0  0
  -26.3440  -15.7890   19.9710 H   0  0  0  0  0  0  0  0  0  0  0  0
  -29.2770  -23.8200   20.3820 C   0  0  0  0  0  3  0  0  0  0  0  0
  -28.3280  -25.0360   19.8660 C   0  0  0  0  0  3  0  0  0  0  0  0
  -28.4840  -26.4810   20.2420 O   0  0  0  0  0  0  0  0  0  0  0  0
  -24.6360  -31.8860   23.1780 C   0  0  0  0  0  0  0  0  0  0  0  0
  -27.3630  -27.3450   20.1490 C   0  0  0  0  0  0  0  0  0  0  0  0
  -23.4750  -30.4780   21.5160 C   0  0  0  0  0  3  0  0  0  0  0  0
  -24.9750  -28.9550   20.0980 C   0  0  0  0  0  0  0  0  0  0  0  0
  -26.0150  -30.8190   21.3830 C   0  0  0  0  0  2  0  0  0  0  0  0
  -26.1280  -29.4460   20.7250 C   0  0  0  0  0  0  0  0  0  0  0  0
  -27.3210  -28.6530   20.7410 C   0  0  0  0  0  3  0  0  0  0  0  0
  -26.1870  -26.9290   19.4790 C   0  0  0  0  0  3  0  0  0  0  0  0
  -25.0110  -27.7050   19.4590 C   0  0  0  0  0  3  0  0  0  0  0  0
  -23.7190  -29.8070   20.1380 C   0  0  0  0  0  2  0  0  0  0  0  0
  -24.7270  -31.0740   22.0840 N   0  0  0  0  0  0  0  0  0  0  0  0
  -23.5400  -32.1610   23.6880 O   0  0  0  0  0  0  0  0  0  0  0  0
  -22.8020  -29.4540   22.4590 C   0  0  0  0  0  0  0  0  0  0  0  0
  -21.4740  -29.2900   22.3280 N   0  0  0  0  0  0  0  0  0  0  0  0
  -23.4750  -28.8090   23.2680 O   0  0  0  0  0  0  0  0  0  0  0  0
  -20.9880  -29.8600   21.6500 H   0  0  0  0  0  0  0  0  0  0  0  0
  -18.0810  -28.1570   22.8530 C   0  0  0  0  0  0  0  0  0  0  0  0
  -20.6480  -28.3500   23.0880 C   0  0  0  0  0  3  0  0  0  0  0  0
  -20.7070  -26.9330   22.4720 C   0  0  0  0  0  2  0  0  0  0  0  0
  -19.5820  -26.6650   21.4660 C   0  0  0  0  0  2  0  0  0  0  0  0
  -18.2150  -26.8240   22.1360 C   0  0  0  0  0  2  0  0  0  0  0  0
  -19.2230  -28.8810   23.2870 C   0  0  0  0  0  0  0  0  0  0  0  0
  -19.0440  -30.1320   23.9150 C   0  0  0  0  0  3  0  0  0  0  0  0
  -17.7530  -30.6600   24.1120 C   0  0  0  0  0  3  0  0  0  0  0  0
  -16.6260  -29.9310   23.6960 C   0  0  0  0  0  3  0  0  0  0  0  0
  -16.7900  -28.6820   23.0720 C   0  0  0  0  0  3  0  0  0  0  0  0
  -25.9040  -32.5220   23.8250 C   0  0  0  0  0  3  0  0  0  0  0  0
  -25.5750  -33.9140   24.1590 N   0  0  0  0  0  0  0  0  0  0  0  0
  -25.9160  -34.9750   23.4140 C   0  0  0  0  0  0  0  0  0  0  0  0
  -26.6040  -34.8830   22.3940 O   0  0  0  0  0  0  0  0  0  0  0  0
  -24.9450  -34.0560   24.9350 H   0  0  0  0  0  0  0  0  0  0  0  0
  -24.1790  -36.7520   23.0430 C   0  0  0  0  0  1  0  0  0  0  0  0
  -25.4100  -36.3550   23.8710 C   0  0  0  0  0  3  0  0  0  0  0  0
  -27.5200  -37.2510   24.7460 C   0  0  0  0  0  1  0  0  0  0  0  0
  -26.4370  -37.4140   23.7800 N   0  0  0  0  0  0  0  0  0  0  0  0
  -26.0220  -38.3310   23.9240 H   0  0  0  0  0  0  0  0  0  0  0  0
  -26.4070  -31.7430   25.1030 C   0  0  1  0  0  0  0  0  0  0  0  0
  -25.2900  -31.4840   26.1420 C   0  0  0  0  0  1  0  0  0  0  0  0
  -27.0110  -30.3730   24.7130 C   0  0  0  0  0  1  0  0  0  0  0  0
  -27.5410  -32.5400   25.7850 C   0  0  0  0  0  1  0  0  0  0  0  0
  2  1  2  0
  3  4  2  0
  3  2  1  0
  4  6  1  0
  5  4  1  0
  6  1  1  0
  6 50  1  0
  7  9  1  0
  9  8  1  0
  9  3  1  0
 10  2  1  0
 10 11  1  0
 12 20  1  0
 13 18  1  0
 14 15  1  0
 14 13  1  0
 16 15  1  0
 16 25  1  0
 16 17  1  0
 18 12  1  0
 18 17  1  0
 19 12  2  0
 20 21  1  0
 20 11  1  0
 22 23  2  0
 23 42  1  0
 24 23  1  0
 24 27  1  0
 25 26  1  0
 25 22  1  0
 26 24  2  0
 27 28  1  0
 28 29  2  0
 30 33  1  0
 30 29  1  0
 31 30  2  0
 32 31  1  0
 32 27  2  0
 33 34  1  0
 34 35  1  0
 35 36  2  0
 37 36  1  0
 37 41  1  0
 38 37  2  0
 39 34  2  0
 39 38  1  0
 40 39  1  0
 42 43  1  0
 43 46  1  0
 43 45  1  0
 44 42  2  0
 47 48  1  0
 47 22  1  0
 49 47  1  0
 51 52  1  0
 51 50  2  0
 53 64  2  0
 54 52  1  0
 54 59  1  0
 55 63  1  0
 55 65  1  0
 56 62  1  0
 56 58  1  0
 57 63  1  0
 58 59  2  0
 58 57  1  0
 60 54  2  0
 61 60  1  0
 61 56  2  0
 62 55  1  0
 63 53  1  0
 65 67  2  0
 66 65  1  0
 68 66  1  0
 69 78  2  0
 69 74  1  0
 70 66  1  0
 70 74  1  0
 71 70  1  0
 72 73  1  0
 72 71  1  0
 73 69  1  0
 74 75  2  0
 75 76  1  0
 77 76  2  0
 78 77  1  0
 79 53  1  0
 79 80  1  0
 79 89  1  0
 80 83  1  0
 81 85  1  0
 81 80  1  0
 82 81  2  0
 85 84  1  0
 87 85  1  0
 87 88  1  0
 87 86  1  0
 89 92  1  1
 89 90  1  0
 91 89  1  0
M  ISO  4  12 100  20 100  51 101  52 101
M  END
>  <TORSDO>  (18) 
F 21

>  <SCORE>  (18) 
-13.515

>  <name>  (18) 
17

>  <ligand_id>  (18) 
17

>  <original_smiles>  (18) 
[H]c1c([H])c([H])c2c(c1[H])C([H])([H])C([H])([H])C([H])([H])C2([H])N([H])C(=O)C1([H])N(C(=O)C([H])(N([H])C(=O)C([H])(N([H])C([H])([H])[H])C([H])([H])[H])C(C([H])([H])[H])(C([H])([H])[H])C([H])([H])[H])C([H])([H])c2c([H])c(OC([H])([H])C([H])([H])n3c([H])c(C([H])([H])C([H])([H])N([H])C(=O)N4C([H])([H])C([H])([H])C([H])([H])C([H])(n5nc(-c6c([H])c([H])c(Oc7c([H])c([H])c(F)c([H])c7F)c([H])c6[H])c(C(=O)N([H])[H])c5N([H])[H])C4([H])[H])c(C([H])(C([H])([H])[H])C([H])([H])[H])c3C([H])([H])[H])c([H])c([H])c2C1([H])[H]

>  <smiles>  (18) 
[H]c1c([H])c([H])c2c(c1[H])C([H])([H])C([H])([H])C([H])([H])C2([H])N([H])C(=O)C1([H])N(C(=O)C([H])(N([H])C(=O)C([H])(N([H])C([H])([H])[H])C([H])([H])[H])C(C([H])([H])[H])(C([H])([H])[H])C([H])([H])[H])C([H])([H])c2c([H])c(OC([H])([H])C([H])([H])n3c([H])c(C([H])([H])C([H])([H])N([H])C(=O)N4C([H])([H])C([H])([H])C([H])([H])C([H])(n5nc(-c6c([H])c([H])c(Oc7c([H])c([H])c(F)c([H])c7F)c([H])c6[H])c(C(=O)N([H])[H])c5N([H])[H])C4([H])[H])c(C([H])(C([H])([H])[H])C([H])([H])[H])c3C([H])([H])[H])c([H])c([H])c2C1([H])[H]

$$$$
18:0:0
     RDKit          3D

 92100  0  0  1  0  0  0  0  0999 V2000
  -29.3070  -18.9460   19.9870 C   0  0  0  0  0  3  0  0  0  0  0  0
  -30.5110  -19.9710   21.7790 C   0  0  0  0  0  3  0  0  0  0  0  0
  -29.5780  -20.1300   20.7470 C   0  0  0  0  0  0  0  0  0  0  0  0
  -29.9170  -17.6560   20.2570 C   0  0  0  0  0  0  0  0  0  0  0  0
  -30.8430  -17.6780   21.3450 C   0  0  0  0  0  0  0  0  0  0  0  0
  -31.1150  -18.7990   22.0570 N   0  0  0  0  0  0  0  0  0  0  0  0
  -30.1250  -16.8910   17.9050 C   0  0  0  0  0  1  0  0  0  0  0  0
  -28.0750  -16.3480   19.0890 C   0  0  0  0  0  1  0  0  0  0  0  0
  -29.5930  -16.4140   19.2870 C   0  0  2  0  0  0  0  0  0  0  0  0
  -30.2140  -14.9020   19.4510 C   0  0  0  0  0  0  0  0  0  0  0  0
  -29.7900  -12.6770   18.4320 C   0  0  0  0  0  2  0  0  0  0  0  0
  -28.6600  -12.7600   17.3870 C   0  0  0  0  0  2  0  0  0  0  0  0
  -27.3040  -12.4620   18.0550 C   0  0  0  0  0  2  0  0  0  0  0  0
  -27.0860  -13.2810   19.3480 C   0  0  0  0  0  3  0  0  0  0  0  0
  -28.3400  -13.3210   20.2590 C   0  0  0  0  0  2  0  0  0  0  0  0
  -29.5130  -13.7090   19.4590 N   0  0  0  0  0  0  0  0  0  0  0  0
  -31.4120  -14.8300   19.1830 O   0  0  0  0  0  0  0  0  0  0  0  0
  -24.8670  -13.7620   20.5240 C   0  0  0  0  0  0  0  0  0  0  0  0
  -23.8960  -12.9320   21.0060 C   0  0  0  0  0  0  0  0  0  0  0  0
  -24.3840  -11.6030   20.8100 C   0  0  0  0  0  0  0  0  0  0  0  0
  -25.8740  -12.9270   20.0600 N   0  0  0  0  0  0  0  0  0  0  0  0
  -25.6060  -11.6230   20.2990 N   0  0  0  0  0  0  0  0  0  0  0  0
  -23.7360  -10.3080   21.0230 C   0  0  0  0  0  0  0  0  0  0  0  0
  -24.2650   -9.3630   21.9290 C   0  0  0  0  0  3  0  0  0  0  0  0
  -23.6130   -8.1300   22.1320 C   0  0  0  0  0  3  0  0  0  0  0  0
  -22.4220   -7.8330   21.4270 C   0  0  0  0  0  0  0  0  0  0  0  0
  -21.9150   -8.7680   20.5090 C   0  0  0  0  0  3  0  0  0  0  0  0
  -22.5670   -9.9940   20.3030 C   0  0  0  0  0  3  0  0  0  0  0  0
  -21.7360   -6.6500   21.5420 O   0  0  0  0  0  0  0  0  0  0  0  0
  -21.6840   -5.9620   22.7280 C   0  0  0  0  0  0  0  0  0  0  0  0
  -21.1450   -6.5370   23.8980 C   0  0  0  0  0  3  0  0  0  0  0  0
  -21.0450   -5.7710   25.0770 C   0  0  0  0  0  3  0  0  0  0  0  0
  -21.4780   -4.4320   25.0850 C   0  0  0  0  0  0  0  0  0  0  0  0
  -22.0120   -3.8570   23.9190 C   0  0  0  0  0  3  0  0  0  0  0  0
  -22.1120   -4.6190   22.7420 C   0  0  0  0  0  0  0  0  0  0  0  0
  -22.6080   -4.0560   21.6150 F   0  0  0  0  0  0  0  0  0  0  0  0
  -21.3770   -3.6930   26.2140 F   0  0  0  0  0  0  0  0  0  0  0  0
  -22.5490  -13.3420   21.5260 C   0  0  0  0  0  0  0  0  0  0  0  0
  -21.9970  -12.5760   22.4610 N   0  0  0  0  0  0  0  0  0  0  0  0
  -22.0000  -14.3730   21.1390 O   0  0  0  0  0  0  0  0  0  0  0  0
  -22.4570  -11.7410   22.7910 H   0  0  0  0  0  0  0  0  0  0  0  0
  -21.1020  -12.8320   22.8550 H   0  0  0  0  0  0  0  0  0  0  0  0
  -24.9590  -15.1470   20.4130 N   0  0  0  0  0  0  0  0  0  0  0  0
  -24.2030  -15.7630   20.6940 H   0  0  0  0  0  0  0  0  0  0  0  0
  -25.7300  -15.6410   19.9840 H   0  0  0  0  0  0  0  0  0  0  0  0
  -32.9210  -16.3280   20.8590 C   0  0  0  0  0  1  0  0  0  0  0  0
  -31.7200  -16.5190   21.7960 C   0  0  0  0  0  2  0  0  0  0  0  0
  -28.8210  -21.5050   20.5980 C   0  0  0  0  0  2  0  0  0  0  0  0
  -29.5840  -22.7770   20.0310 C   0  0  0  0  0  2  0  0  0  0  0  0
  -29.2310  -24.2670   20.5080 C   0  0  0  0  0  3  0  0  0  0  0  0
  -28.1890  -25.1900   19.7430 C   0  0  0  0  0  3  0  0  0  0  0  0
  -28.2860  -26.6470   19.9970 O   0  0  0  0  0  0  0  0  0  0  0  0
  -24.6130  -31.9530   23.1790 C   0  0  0  0  0  0  0  0  0  0  0  0
  -27.1440  -27.4630   19.9670 C   0  0  0  0  0  0  0  0  0  0  0  0
  -23.3590  -30.5780   21.5540 C   0  0  0  0  0  3  0  0  0  0  0  0
  -24.7670  -29.0580   20.0530 C   0  0  0  0  0  0  0  0  0  0  0  0
  -25.8880  -30.9130   21.2920 C   0  0  0  0  0  2  0  0  0  0  0  0
  -25.9500  -29.5450   20.6220 C   0  0  0  0  0  0  0  0  0  0  0  0
  -27.1370  -28.7570   20.5720 C   0  0  0  0  0  3  0  0  0  0  0  0
  -25.9390  -27.0310   19.3640 C   0  0  0  0  0  3  0  0  0  0  0  0
  -24.7630  -27.8060   19.4170 C   0  0  0  0  0  3  0  0  0  0  0  0
  -23.5280  -29.9230   20.1570 C   0  0  0  0  0  2  0  0  0  0  0  0
  -24.6400  -31.1640   22.0640 N   0  0  0  0  0  0  0  0  0  0  0  0
  -23.5470  -32.2180   23.7530 O   0  0  0  0  0  0  0  0  0  0  0  0
  -22.7330  -29.5430   22.5190 C   0  0  0  0  0  0  0  0  0  0  0  0
  -21.4090  -29.3360   22.4050 N   0  0  0  0  0  0  0  0  0  0  0  0
  -23.4340  -28.9300   23.3270 O   0  0  0  0  0  0  0  0  0  0  0  0
  -20.9020  -29.8830   21.7250 H   0  0  0  0  0  0  0  0  0  0  0  0
  -18.0670  -28.0580   22.9320 C   0  0  0  0  0  0  0  0  0  0  0  0
  -20.6200  -28.3790   23.1820 C   0  0  0  0  0  3  0  0  0  0  0  0
  -20.7520  -26.9500   22.6060 C   0  0  0  0  0  2  0  0  0  0  0  0
  -19.6510  -26.6010   21.6000 C   0  0  0  0  0  2  0  0  0  0  0  0
  -18.2710  -26.7130   22.2540 C   0  0  0  0  0  2  0  0  0  0  0  0
  -19.1710  -28.8470   23.3530 C   0  0  0  0  0  0  0  0  0  0  0  0
  -18.9250  -30.1030   23.9470 C   0  0  0  0  0  3  0  0  0  0  0  0
  -17.6100  -30.5730   24.1230 C   0  0  0  0  0  3  0  0  0  0  0  0
  -16.5210  -29.7810   23.7180 C   0  0  0  0  0  3  0  0  0  0  0  0
  -16.7510  -28.5250   23.1280 C   0  0  0  0  0  3  0  0  0  0  0  0
  -25.9150  -32.5780   23.7690 C   0  0  0  0  0  3  0  0  0  0  0  0
  -25.6080  -33.9660   24.1440 N   0  0  0  0  0  0  0  0  0  0  0  0
  -25.9070  -35.0390   23.4000 C   0  0  0  0  0  0  0  0  0  0  0  0
  -26.5370  -34.9660   22.3420 O   0  0  0  0  0  0  0  0  0  0  0  0
  -25.0430  -34.0960   24.9700 H   0  0  0  0  0  0  0  0  0  0  0  0
  -24.1550  -36.8300   23.1570 C   0  0  0  0  0  1  0  0  0  0  0  0
  -25.4300  -36.4130   23.9100 C   0  0  0  0  0  3  0  0  0  0  0  0
  -27.5860  -37.2950   24.6860 C   0  0  0  0  0  1  0  0  0  0  0  0
  -26.4520  -37.4740   23.7830 N   0  0  0  0  0  0  0  0  0  0  0  0
  -26.0460  -38.3890   23.9620 H   0  0  0  0  0  0  0  0  0  0  0  0
  -26.4820  -31.7800   25.0070 C   0  0  1  0  0  0  0  0  0  0  0  0
  -25.4250  -31.4920   26.0980 C   0  0  0  0  0  1  0  0  0  0  0  0
  -27.0780  -30.4250   24.5580 C   0  0  0  0  0  1  0  0  0  0  0  0
  -27.6380  -32.5760   25.6580 C   0  0  0  0  0  1  0  0  0  0  0  0
  1  4  2  0
  1  3  1  0
  2  6  1  0
  3  2  2  0
  4  5  1  0
  5 47  1  0
  5  6  2  0
  9  7  1  6
  8  9  1  0
  9 10  1  0
  9  4  1  0
 10 16  1  0
 11 16  1  0
 12 13  1  0
 12 11  1  0
 14 13  1  0
 14 21  1  0
 14 15  1  0
 16 15  1  0
 17 10  2  0
 18 19  2  0
 19 38  1  0
 20 19  1  0
 20 23  1  0
 21 22  1  0
 21 18  1  0
 22 20  2  0
 23 24  1  0
 24 25  2  0
 26 29  1  0
 26 25  1  0
 27 26  2  0
 28 27  1  0
 28 23  2  0
 29 30  1  0
 30 35  2  0
 30 31  1  0
 31 32  2  0
 32 33  1  0
 33 37  1  0
 34 33  2  0
 35 34  1  0
 36 35  1  0
 38 39  1  0
 39 41  1  0
 39 42  1  0
 40 38  2  0
 43 18  1  0
 43 44  1  0
 45 43  1  0
 46 47  1  0
 48  3  1  0
 49 50  1  0
 49 48  1  0
 51 52  1  0
 51 50  2  0
 53 64  2  0
 54 52  1  0
 54 59  1  0
 55 63  1  0
 55 65  1  0
 56 62  1  0
 56 58  1  0
 57 63  1  0
 58 57  1  0
 59 58  2  0
 60 61  1  0
 60 54  2  0
 61 56  2  0
 62 55  1  0
 63 53  1  0
 65 67  2  0
 66 65  1  0
 68 66  1  0
 69 78  2  0
 69 74  1  0
 70 66  1  0
 70 74  1  0
 71 70  1  0
 72 73  1  0
 72 71  1  0
 73 69  1  0
 74 75  2  0
 75 76  1  0
 77 76  2  0
 78 77  1  0
 79 53  1  0
 79 80  1  0
 79 89  1  0
 80 83  1  0
 81 85  1  0
 81 80  1  0
 82 81  2  0
 85 84  1  0
 87 85  1  0
 87 88  1  0
 87 86  1  0
 89 92  1  1
 89 90  1  0
 91 89  1  0
M  ISO  4   9 100  10 100  51 101  52 101
M  END
>  <TORSDO>  (19) 
F 22

>  <SCORE>  (19) 
-10.468

>  <name>  (19) 
18

>  <ligand_id>  (19) 
18

>  <original_smiles>  (19) 
[H]c1nc(C([H])([H])C([H])([H])[H])c(C(C(=O)N2C([H])([H])C([H])([H])C([H])([H])C([H])(n3nc(-c4c([H])c([H])c(Oc5c([H])c([H])c(F)c([H])c5F)c([H])c4[H])c(C(=O)N([H])[H])c3N([H])[H])C2([H])[H])(C([H])([H])[H])C([H])([H])[H])c([H])c1C([H])([H])C([H])([H])C([H])([H])C([H])([H])Oc1c([H])c([H])c2c(c1[H])C([H])([H])N(C(=O)C([H])(N([H])C(=O)C([H])(N([H])C([H])([H])[H])C([H])([H])[H])C(C([H])([H])[H])(C([H])([H])[H])C([H])([H])[H])C([H])(C(=O)N([H])C1([H])c3c([H])c([H])c([H])c([H])c3C([H])([H])C([H])([H])C1([H])[H])C2([H])[H]

>  <smiles>  (19) 
[H]c1nc(C([H])([H])C([H])([H])[H])c(C(C(=O)N2C([H])([H])C([H])([H])C([H])([H])C([H])(n3nc(-c4c([H])c([H])c(Oc5c([H])c([H])c(F)c([H])c5F)c([H])c4[H])c(C(=O)N([H])[H])c3N([H])[H])C2([H])[H])(C([H])([H])[H])C([H])([H])[H])c([H])c1C([H])([H])C([H])([H])C([H])([H])C([H])([H])Oc1c([H])c([H])c2c(c1[H])C([H])([H])N(C(=O)C([H])(N([H])C(=O)C([H])(N([H])C([H])([H])[H])C([H])([H])[H])C(C([H])([H])[H])(C([H])([H])[H])C([H])([H])[H])C([H])(C(=O)N([H])C1([H])c3c([H])c([H])c([H])c([H])c3C([H])([H])C([H])([H])C1([H])[H])C2([H])[H]

$$$$
19:0:0
     RDKit          3D

 93101  0  0  1  0  0  0  0  0999 V2000
  -30.3150  -18.4220   22.1190 C   0  0  0  0  0  3  0  0  0  0  0  0
  -29.6150  -19.8590   20.5670 C   0  0  0  0  0  3  0  0  0  0  0  0
  -29.8060  -18.5050   20.7980 C   0  0  0  0  0  0  0  0  0  0  0  0
  -30.4500  -19.6810   22.6390 C   0  0  0  0  0  0  0  0  0  0  0  0
  -30.0090  -20.6040   21.6860 N   0  0  0  0  0  0  0  0  0  0  0  0
  -32.5010  -20.5020   23.8170 C   0  0  0  0  0  1  0  0  0  0  0  0
  -30.9140  -18.9310   25.0000 C   0  0  0  0  0  1  0  0  0  0  0  0
  -31.0380  -20.0640   23.9720 C   0  0  0  0  0  3  0  0  0  0  0  0
  -29.5830  -17.3110   19.8490 C   0  0  0  0  0  2  0  0  0  0  0  0
  -30.2750  -14.9310   20.3280 C   0  0  0  0  0  0  0  0  0  0  0  0
  -30.2640  -12.5670   19.6160 C   0  0  0  0  0  2  0  0  0  0  0  0
  -29.3370  -12.4440   18.3870 C   0  0  0  0  0  2  0  0  0  0  0  0
  -27.8800  -12.2060   18.8310 C   0  0  0  0  0  2  0  0  0  0  0  0
  -27.4180  -13.1990   19.9310 C   0  0  0  0  0  3  0  0  0  0  0  0
  -28.4670  -13.3220   21.0600 C   0  0  0  0  0  2  0  0  0  0  0  0
  -29.7530  -13.6740   20.4440 N   0  0  0  0  0  0  0  0  0  0  0  0
  -31.4160  -15.1240   19.9000 O   0  0  0  0  0  0  0  0  0  0  0  0
  -29.4080  -15.9660   20.4660 N   0  0  0  0  0  0  0  0  0  0  0  0
  -28.4870  -15.7440   20.8100 H   0  0  0  0  0  0  0  0  0  0  0  0
  -25.0620  -13.6880   20.8370 C   0  0  0  0  0  0  0  0  0  0  0  0
  -24.0200  -12.8650   21.1720 C   0  0  0  0  0  0  0  0  0  0  0  0
  -24.4870  -11.5310   20.9590 C   0  0  0  0  0  0  0  0  0  0  0  0
  -26.0980  -12.8510   20.4490 N   0  0  0  0  0  0  0  0  0  0  0  0
  -25.7590  -11.5430   20.5810 N   0  0  0  0  0  0  0  0  0  0  0  0
  -23.7790  -10.2470   21.0410 C   0  0  0  0  0  0  0  0  0  0  0  0
  -24.2560   -9.1910   21.8480 C   0  0  0  0  0  3  0  0  0  0  0  0
  -23.5460   -7.9730   21.9260 C   0  0  0  0  0  3  0  0  0  0  0  0
  -22.3470   -7.8030   21.1950 C   0  0  0  0  0  0  0  0  0  0  0  0
  -21.8880   -8.8500   20.3760 C   0  0  0  0  0  3  0  0  0  0  0  0
  -22.5980  -10.0590   20.2950 C   0  0  0  0  0  3  0  0  0  0  0  0
  -21.6050   -6.6460   21.1880 O   0  0  0  0  0  0  0  0  0  0  0  0
  -21.6290   -5.7690   22.2430 C   0  0  0  0  0  0  0  0  0  0  0  0
  -21.2450   -6.1580   23.5440 C   0  0  0  0  0  3  0  0  0  0  0  0
  -21.2180   -5.2080   24.5840 C   0  0  0  0  0  3  0  0  0  0  0  0
  -21.5670   -3.8690   24.3240 C   0  0  0  0  0  0  0  0  0  0  0  0
  -21.9430   -3.4790   23.0270 C   0  0  0  0  0  3  0  0  0  0  0  0
  -21.9730   -4.4260   21.9890 C   0  0  0  0  0  0  0  0  0  0  0  0
  -22.3180   -4.0400   20.7370 F   0  0  0  0  0  0  0  0  0  0  0  0
  -21.5330   -2.9540   25.3210 F   0  0  0  0  0  0  0  0  0  0  0  0
  -22.6380  -13.2920   21.5710 C   0  0  0  0  0  0  0  0  0  0  0  0
  -21.9690  -12.5020   22.4040 N   0  0  0  0  0  0  0  0  0  0  0  0
  -22.1600  -14.3570   21.1820 O   0  0  0  0  0  0  0  0  0  0  0  0
  -22.3710  -11.6390   22.7390 H   0  0  0  0  0  0  0  0  0  0  0  0
  -21.0430  -12.7650   22.7110 H   0  0  0  0  0  0  0  0  0  0  0  0
  -25.2070  -15.0720   20.8100 N   0  0  0  0  0  0  0  0  0  0  0  0
  -24.4420  -15.6970   21.0390 H   0  0  0  0  0  0  0  0  0  0  0  0
  -26.0330  -15.5610   20.4850 H   0  0  0  0  0  0  0  0  0  0  0  0
  -30.0470  -22.0820   21.9130 C   0  0  0  0  0  2  0  0  0  0  0  0
  -29.7130  -23.1380   20.7690 C   0  0  0  0  0  2  0  0  0  0  0  0
  -27.4630  -24.0330   21.7090 C   0  0  0  0  0  1  0  0  0  0  0  0
  -28.6540  -24.3480   20.7650 C   0  0  0  0  0  3  0  0  0  0  0  0
  -29.2040  -25.8140   21.0530 C   0  0  0  0  0  2  0  0  0  0  0  0
  -28.9370  -26.8870   20.1060 O   0  0  0  0  0  0  0  0  0  0  0  0
  -24.7010  -31.7770   23.2500 C   0  0  0  0  0  0  0  0  0  0  0  0
  -27.7270  -27.5590   20.1650 C   0  0  0  0  0  0  0  0  0  0  0  0
  -23.6380  -30.3140   21.5640 C   0  0  0  0  0  3  0  0  0  0  0  0
  -25.2310  -28.9150   20.1420 C   0  0  0  0  0  0  0  0  0  0  0  0
  -26.1360  -30.8580   21.4240 C   0  0  0  0  0  2  0  0  0  0  0  0
  -26.3380  -29.5020   20.7700 C   0  0  0  0  0  0  0  0  0  0  0  0
  -27.5890  -28.8320   20.7820 C   0  0  0  0  0  3  0  0  0  0  0  0
  -26.6130  -27.0150   19.5000 C   0  0  0  0  0  3  0  0  0  0  0  0
  -25.3660  -27.6710   19.5030 C   0  0  0  0  0  3  0  0  0  0  0  0
  -23.9250  -29.6790   20.1780 C   0  0  0  0  0  2  0  0  0  0  0  0
  -24.8410  -31.0010   22.1370 N   0  0  0  0  0  0  0  0  0  0  0  0
  -23.5930  -31.9540   23.7740 O   0  0  0  0  0  0  0  0  0  0  0  0
  -23.0510  -29.2290   22.4970 C   0  0  0  0  0  0  0  0  0  0  0  0
  -21.7640  -28.8980   22.2990 N   0  0  0  0  0  0  0  0  0  0  0  0
  -23.7530  -28.6880   23.3550 O   0  0  0  0  0  0  0  0  0  0  0  0
  -21.2540  -29.3940   21.5820 H   0  0  0  0  0  0  0  0  0  0  0  0
  -18.5370  -27.2960   22.5880 C   0  0  0  0  0  0  0  0  0  0  0  0
  -21.0170  -27.8740   23.0290 C   0  0  0  0  0  3  0  0  0  0  0  0
  -21.3360  -26.4600   22.4890 C   0  0  0  0  0  2  0  0  0  0  0  0
  -20.3570  -25.9910   21.4090 C   0  0  0  0  0  2  0  0  0  0  0  0
  -18.9260  -25.9720   21.9530 C   0  0  0  0  0  2  0  0  0  0  0  0
  -19.5200  -28.1960   23.0790 C   0  0  0  0  0  0  0  0  0  0  0  0
  -19.1060  -29.4300   23.6260 C   0  0  0  0  0  3  0  0  0  0  0  0
  -17.7410  -29.7670   23.6940 C   0  0  0  0  0  3  0  0  0  0  0  0
  -16.7720  -28.8640   23.2200 C   0  0  0  0  0  3  0  0  0  0  0  0
  -17.1700  -27.6320   22.6730 C   0  0  0  0  0  3  0  0  0  0  0  0
  -25.9230  -32.4960   23.9040 C   0  0  0  0  0  3  0  0  0  0  0  0
  -25.5140  -33.8740   24.2110 N   0  0  0  0  0  0  0  0  0  0  0  0
  -25.7980  -34.9390   23.4500 C   0  0  0  0  0  0  0  0  0  0  0  0
  -26.5010  -34.8700   22.4380 O   0  0  0  0  0  0  0  0  0  0  0  0
  -24.8920  -33.9970   24.9960 H   0  0  0  0  0  0  0  0  0  0  0  0
  -23.9550  -36.6010   23.0420 C   0  0  0  0  0  1  0  0  0  0  0  0
  -25.2070  -36.2960   23.8790 C   0  0  0  0  0  3  0  0  0  0  0  0
  -27.2600  -37.3390   24.7290 C   0  0  0  0  0  1  0  0  0  0  0  0
  -26.1650  -37.4170   23.7660 N   0  0  0  0  0  0  0  0  0  0  0  0
  -25.6940  -38.3090   23.8920 H   0  0  0  0  0  0  0  0  0  0  0  0
  -26.4510  -31.7700   25.2020 C   0  0  1  0  0  0  0  0  0  0  0  0
  -25.3430  -31.4590   26.2360 C   0  0  0  0  0  1  0  0  0  0  0  0
  -27.1440  -30.4370   24.8400 C   0  0  0  0  0  1  0  0  0  0  0  0
  -27.5170  -32.6490   25.8970 C   0  0  0  0  0  1  0  0  0  0  0  0
  1  4  2  0
  2  3  2  0
  2  5  1  0
  3  1  1  0
  4  8  1  0
  5 48  1  0
  5  4  1  0
  6  8  1  0
  8  7  1  0
  9 18  1  0
  9  3  1  0
 10 16  1  0
 10 18  1  0
 11 16  1  0
 12 13  1  0
 12 11  1  0
 14 13  1  0
 14 23  1  0
 14 15  1  0
 16 15  1  0
 17 10  2  0
 18 19  1  0
 20 21  2  0
 21 40  1  0
 22 25  1  0
 22 21  1  0
 23 24  1  0
 23 20  1  0
 24 22  2  0
 25 26  1  0
 26 27  2  0
 28 27  1  0
 29 28  2  0
 30 29  1  0
 30 25  2  0
 31 28  1  0
 31 32  1  0
 32 33  1  0
 33 34  2  0
 35 34  1  0
 35 39  1  0
 36 35  2  0
 37 32  2  0
 37 36  1  0
 38 37  1  0
 40 41  1  0
 41 44  1  0
 41 43  1  0
 42 40  2  0
 45 20  1  0
 45 46  1  0
 47 45  1  0
 49 48  1  0
 51 49  1  0
 51 52  1  0
 51 50  1  0
 53 55  1  0
 53 52  1  0
 54 65  2  0
 55 60  1  0
 56 64  1  0
 56 66  1  0
 57 63  1  0
 57 59  1  0
 58 64  1  0
 59 60  2  0
 59 58  1  0
 61 62  1  0
 61 55  2  0
 62 57  2  0
 63 56  1  0
 64 54  1  0
 66 68  2  0
 67 66  1  0
 69 67  1  0
 70 79  2  0
 70 75  1  0
 71 67  1  0
 71 75  1  0
 72 71  1  0
 73 74  1  0
 73 72  1  0
 74 70  1  0
 75 76  2  0
 76 77  1  0
 78 77  2  0
 79 78  1  0
 80 54  1  0
 80 81  1  0
 80 90  1  0
 81 84  1  0
 82 86  1  0
 82 81  1  0
 83 82  2  0
 86 85  1  0
 88 86  1  0
 88 89  1  0
 88 87  1  0
 90 93  1  1
 90 91  1  0
 92 90  1  0
M  ISO  4  10 100  18 100  52 101  53 101
M  END
>  <TORSDO>  (20) 
F 22

>  <SCORE>  (20) 
-9.908

>  <name>  (20) 
19

>  <ligand_id>  (20) 
19

>  <original_smiles>  (20) 
[H]c1c([H])c([H])c2c(c1[H])C([H])([H])C([H])([H])C([H])([H])C2([H])N([H])C(=O)C1([H])N(C(=O)C([H])(N([H])C(=O)C([H])(N([H])C([H])([H])[H])C([H])([H])[H])C(C([H])([H])[H])(C([H])([H])[H])C([H])([H])[H])C([H])([H])c2c([H])c(OC([H])([H])C([H])(C([H])([H])[H])C([H])([H])C([H])([H])n3c([H])c(C([H])([H])N([H])C(=O)N4C([H])([H])C([H])([H])C([H])([H])C([H])(n5nc(-c6c([H])c([H])c(Oc7c([H])c([H])c(F)c([H])c7F)c([H])c6[H])c(C(=O)N([H])[H])c5N([H])[H])C4([H])[H])c([H])c3C([H])(C([H])([H])[H])C([H])([H])[H])c([H])c([H])c2C1([H])[H]

>  <smiles>  (20) 
[H]c1c([H])c([H])c2c(c1[H])C([H])([H])C([H])([H])C([H])([H])C2([H])N([H])C(=O)C1([H])N(C(=O)C([H])(N([H])C(=O)C([H])(N([H])C([H])([H])[H])C([H])([H])[H])C(C([H])([H])[H])(C([H])([H])[H])C([H])([H])[H])C([H])([H])c2c([H])c(OC([H])([H])C([H])(C([H])([H])[H])C([H])([H])C([H])([H])n3c([H])c(C([H])([H])N([H])C(=O)N4C([H])([H])C([H])([H])C([H])([H])C([H])(n5nc(-c6c([H])c([H])c(Oc7c([H])c([H])c(F)c([H])c7F)c([H])c6[H])c(C(=O)N([H])[H])c5N([H])[H])C4([H])[H])c([H])c3C([H])(C([H])([H])[H])C([H])([H])[H])c([H])c([H])c2C1([H])[H]

$$$$
20:0:0
     RDKit          3D

 92100  0  0  1  0  0  0  0  0999 V2000
  -28.4190  -20.4250   20.7810 C   0  0  0  0  0  3  0  0  0  0  0  0
  -27.9920  -21.8440   20.8420 C   0  0  0  0  0  3  0  0  0  0  0  0
  -29.3560  -20.9080   18.7520 C   0  0  0  0  0  3  0  0  0  0  0  0
  -29.1560  -19.8050   19.6950 C   0  0  0  0  0  0  0  0  0  0  0  0
  -28.2480  -22.8800   19.8510 C   0  0  0  0  0  0  0  0  0  0  0  0
  -28.9360  -22.2700   18.8020 N   0  0  0  0  0  0  0  0  0  0  0  0
  -27.4440  -24.4260   19.7630 C   0  0  0  0  0  2  0  0  0  0  0  0
  -27.8400  -25.9980   19.9420 O   0  0  0  0  0  0  0  0  0  0  0  0
  -24.5660  -31.9380   23.2000 C   0  0  0  0  0  0  0  0  0  0  0  0
  -26.8540  -27.1100   19.9400 C   0  0  0  0  0  0  0  0  0  0  0  0
  -23.2460  -30.5790   21.6260 C   0  0  0  0  0  3  0  0  0  0  0  0
  -24.5740  -28.9930   20.0790 C   0  0  0  0  0  0  0  0  0  0  0  0
  -25.7960  -30.7780   21.3020 C   0  0  0  0  0  2  0  0  0  0  0  0
  -25.8060  -29.3820   20.6240 C   0  0  0  0  0  0  0  0  0  0  0  0
  -26.9390  -28.4590   20.5340 C   0  0  0  0  0  3  0  0  0  0  0  0
  -25.5940  -26.8750   19.3440 C   0  0  0  0  0  3  0  0  0  0  0  0
  -24.4920  -27.7600   19.4180 C   0  0  0  0  0  3  0  0  0  0  0  0
  -23.3700  -29.9200   20.2260 C   0  0  0  0  0  2  0  0  0  0  0  0
  -24.5620  -31.1250   22.0940 N   0  0  0  0  0  0  0  0  0  0  0  0
  -23.5190  -32.2270   23.8010 O   0  0  0  0  0  0  0  0  0  0  0  0
  -22.6130  -29.5720   22.6220 C   0  0  0  0  0  0  0  0  0  0  0  0
  -21.2950  -29.3180   22.4970 N   0  0  0  0  0  0  0  0  0  0  0  0
  -23.3110  -29.0200   23.4740 O   0  0  0  0  0  0  0  0  0  0  0  0
  -20.7800  -29.8200   21.7880 H   0  0  0  0  0  0  0  0  0  0  0  0
  -18.0280  -27.8050   22.9350 C   0  0  0  0  0  0  0  0  0  0  0  0
  -20.5300  -28.3560   23.2990 C   0  0  0  0  0  3  0  0  0  0  0  0
  -20.8070  -26.9050   22.8410 C   0  0  0  0  0  2  0  0  0  0  0  0
  -19.8000  -26.3980   21.8030 C   0  0  0  0  0  2  0  0  0  0  0  0
  -18.3780  -26.4380   22.3700 C   0  0  0  0  0  2  0  0  0  0  0  0
  -19.0380  -28.7110   23.3560 C   0  0  0  0  0  0  0  0  0  0  0  0
  -18.6560  -29.9790   23.8460 C   0  0  0  0  0  3  0  0  0  0  0  0
  -17.2990  -30.3470   23.9170 C   0  0  0  0  0  3  0  0  0  0  0  0
  -16.3030  -29.4410   23.5110 C   0  0  0  0  0  3  0  0  0  0  0  0
  -16.6690  -28.1730   23.0260 C   0  0  0  0  0  3  0  0  0  0  0  0
  -25.8850  -32.5590   23.7510 C   0  0  0  0  0  3  0  0  0  0  0  0
  -26.4720  -31.7690   24.9850 C   0  0  1  0  0  0  0  0  0  0  0  0
  -25.4360  -31.4940   26.1010 C   0  0  0  0  0  1  0  0  0  0  0  0
  -27.0530  -30.4070   24.5430 C   0  0  0  0  0  1  0  0  0  0  0  0
  -27.6420  -32.5650   25.6090 C   0  0  0  0  0  1  0  0  0  0  0  0
  -25.6050  -33.9550   24.1300 N   0  0  0  0  0  0  0  0  0  0  0  0
  -25.8980  -35.0290   23.3830 C   0  0  0  0  0  0  0  0  0  0  0  0
  -26.4960  -34.9460   22.3060 O   0  0  0  0  0  0  0  0  0  0  0  0
  -25.0710  -34.0940   24.9760 H   0  0  0  0  0  0  0  0  0  0  0  0
  -24.1730  -36.8510   23.1930 C   0  0  0  0  0  1  0  0  0  0  0  0
  -25.4590  -36.4090   23.9100 C   0  0  0  0  0  3  0  0  0  0  0  0
  -27.6510  -37.2540   24.6270 C   0  0  0  0  0  1  0  0  0  0  0  0
  -26.4940  -37.4550   23.7580 N   0  0  0  0  0  0  0  0  0  0  0  0
  -26.1070  -38.3760   23.9520 H   0  0  0  0  0  0  0  0  0  0  0  0
  -29.9750  -18.2620   19.6010 C   0  0  0  0  0  0  0  0  0  0  0  0
  -30.3380  -15.3830   19.8370 C   0  0  0  0  0  0  0  0  0  0  0  0
  -30.3640  -12.8630   19.2840 C   0  0  0  0  0  2  0  0  0  0  0  0
  -29.4410  -12.4780   18.1020 C   0  0  0  0  0  2  0  0  0  0  0  0
  -28.0090  -12.2170   18.6000 C   0  0  0  0  0  2  0  0  0  0  0  0
  -27.5350  -13.3020   19.6000 C   0  0  0  0  0  3  0  0  0  0  0  0
  -28.5880  -13.6370   20.6780 C   0  0  0  0  0  2  0  0  0  0  0  0
  -29.7950  -14.0800   19.9640 N   0  0  0  0  0  0  0  0  0  0  0  0
  -31.5480  -15.3850   19.5770 O   0  0  0  0  0  0  0  0  0  0  0  0
  -29.5910  -16.6590   19.8410 N   0  0  0  0  0  4  0  0  0  0  0  0
  -28.6060  -16.5160   20.0000 H   0  0  0  0  0  0  0  0  0  0  0  0
  -25.2260  -13.8800   20.5140 C   0  0  0  0  0  0  0  0  0  0  0  0
  -24.1650  -13.1130   20.9030 C   0  0  0  0  0  0  0  0  0  0  0  0
  -24.5940  -11.7540   20.7830 C   0  0  0  0  0  0  0  0  0  0  0  0
  -26.2290  -12.9940   20.1690 N   0  0  0  0  0  0  0  0  0  0  0  0
  -25.8660  -11.7050   20.4010 N   0  0  0  0  0  0  0  0  0  0  0  0
  -23.8460  -10.5020   20.9530 C   0  0  0  0  0  0  0  0  0  0  0  0
  -24.2390   -9.5260   21.8950 C   0  0  0  0  0  3  0  0  0  0  0  0
  -23.4890   -8.3410   22.0550 C   0  0  0  0  0  3  0  0  0  0  0  0
  -22.3310   -8.1230   21.2700 C   0  0  0  0  0  0  0  0  0  0  0  0
  -21.9570   -9.0860   20.3170 C   0  0  0  0  0  3  0  0  0  0  0  0
  -22.7090  -10.2630   20.1560 C   0  0  0  0  0  3  0  0  0  0  0  0
  -21.5570   -6.9900   21.3390 O   0  0  0  0  0  0  0  0  0  0  0  0
  -21.3980   -6.2960   22.5100 C   0  0  0  0  0  0  0  0  0  0  0  0
  -20.8330   -6.8920   23.6590 C   0  0  0  0  0  3  0  0  0  0  0  0
  -20.6250   -6.1230   24.8220 C   0  0  0  0  0  3  0  0  0  0  0  0
  -20.9710   -4.7580   24.8360 C   0  0  0  0  0  0  0  0  0  0  0  0
  -21.5290   -4.1620   23.6910 C   0  0  0  0  0  3  0  0  0  0  0  0
  -21.7390   -4.9290   22.5310 C   0  0  0  0  0  0  0  0  0  0  0  0
  -22.2570   -4.3440   21.4240 F   0  0  0  0  0  0  0  0  0  0  0  0
  -20.7650   -4.0170   25.9490 F   0  0  0  0  0  0  0  0  0  0  0  0
  -22.7970  -13.6080   21.2670 C   0  0  0  0  0  0  0  0  0  0  0  0
  -22.1000  -12.8920   22.1410 N   0  0  0  0  0  0  0  0  0  0  0  0
  -22.3610  -14.6670   20.8140 O   0  0  0  0  0  0  0  0  0  0  0  0
  -22.4700  -12.0360   22.5260 H   0  0  0  0  0  0  0  0  0  0  0  0
  -21.1840  -13.2040   22.4300 H   0  0  0  0  0  0  0  0  0  0  0  0
  -25.4140  -15.2540   20.3930 N   0  0  0  0  0  0  0  0  0  0  0  0
  -24.6710  -15.9180   20.5840 H   0  0  0  0  0  0  0  0  0  0  0  0
  -26.2460  -15.6910   20.0210 H   0  0  0  0  0  0  0  0  0  0  0  0
  -31.3470  -18.5820   20.2730 C   0  0  0  0  0  2  0  0  0  0  0  0
  -33.8120  -18.4060   19.9350 C   0  0  0  0  0  1  0  0  0  0  0  0
  -32.4930  -17.7490   19.8530 N   0  0  0  0  0  4  0  0  0  0  0  0
  -32.5150  -16.9220   20.4270 H   0  0  0  0  0  0  0  0  0  0  0  0
  -32.3380  -17.4340   18.9050 H   0  0  0  0  0  0  0  0  0  0  0  0
  1  2  1  0
  3  6  2  0
  3  4  1  0
  4  1  2  0
  5  2  2  0
  6  5  1  0
  7  5  1  0
  7  8  1  0
  9 20  2  0
 10  8  1  0
 10 15  1  0
 11 19  1  0
 11 21  1  0
 12 18  1  0
 12 14  1  0
 13 19  1  0
 14 13  1  0
 15 14  2  0
 16 17  1  0
 16 10  2  0
 17 12  2  0
 18 11  1  0
 19  9  1  0
 21 23  2  0
 22 21  1  0
 24 22  1  0
 25 34  2  0
 25 30  1  0
 26 22  1  0
 26 30  1  0
 27 26  1  0
 28 29  1  0
 28 27  1  0
 29 25  1  0
 30 31  2  0
 31 32  1  0
 33 32  2  0
 34 33  1  0
 35  9  1  0
 35 40  1  0
 35 36  1  0
 36 39  1  1
 36 37  1  0
 38 36  1  0
 40 43  1  0
 41 45  1  0
 41 40  1  0
 42 41  2  0
 45 44  1  0
 47 45  1  0
 47 48  1  0
 47 46  1  0
 49  4  1  0
 49 58  2  0
 49 88  1  0
 50 58  1  0
 50 56  1  0
 51 56  1  0
 52 53  1  0
 52 51  1  0
 54 53  1  0
 54 63  1  0
 54 55  1  0
 56 55  1  0
 57 50  2  0
 58 59  1  0
 60 61  2  0
 61 80  1  0
 62 61  1  0
 62 65  1  0
 63 64  1  0
 63 60  1  0
 64 62  2  0
 65 66  1  0
 66 67  2  0
 68 71  1  0
 68 67  1  0
 69 68  2  0
 70 69  1  0
 70 65  2  0
 71 72  1  0
 72 77  2  0
 72 73  1  0
 73 74  2  0
 74 75  1  0
 75 79  1  0
 76 75  2  0
 77 76  1  0
 78 77  1  0
 80 81  1  0
 81 84  1  0
 81 83  1  0
 82 80  2  0
 85 60  1  0
 85 86  1  0
 87 85  1  0
 90 89  1  0
 90 88  1  0
 90 91  1  0
 92 90  1  0
M  ISO  4   7 101   8 101  50 100  58 100
M  END
>  <TORSDO>  (21) 
F 20

>  <SCORE>  (21) 
-14.339

>  <name>  (21) 
20

>  <ligand_id>  (21) 
20

>  <original_smiles>  (21) 
[H]c1nc(C([H])([H])Oc2c([H])c([H])c3c(c2[H])C([H])([H])N(C(=O)C([H])(N([H])C(=O)C([H])(N([H])C([H])([H])[H])C([H])([H])[H])C(C([H])([H])[H])(C([H])([H])[H])C([H])([H])[H])C([H])(C(=O)N([H])C2([H])c4c([H])c([H])c([H])c([H])c4C([H])([H])C([H])([H])C2([H])[H])C3([H])[H])c([H])c([H])c1C([H])(N([H])C(=O)N1C([H])([H])C([H])([H])C([H])([H])C([H])(n2nc(-c3c([H])c([H])c(Oc4c([H])c([H])c(F)c([H])c4F)c([H])c3[H])c(C(=O)N([H])[H])c2N([H])[H])C1([H])[H])C([H])([H])[N+]([H])([H])C([H])([H])[H]

>  <smiles>  (21) 
[H]c1nc(C([H])([H])Oc2c([H])c([H])c3c(c2[H])C([H])([H])N(C(=O)C([H])(N([H])C(=O)C([H])(N([H])C([H])([H])[H])C([H])([H])[H])C(C([H])([H])[H])(C([H])([H])[H])C([H])([H])[H])C([H])(C(=O)N([H])C2([H])c4c([H])c([H])c([H])c([H])c4C([H])([H])C([H])([H])C2([H])[H])C3([H])[H])c([H])c([H])c1C([H])(N([H])C(=O)N1C([H])([H])C([H])([H])C([H])([H])C([H])(n2nc(-c3c([H])c([H])c(Oc4c([H])c([H])c(F)c([H])c4F)c([H])c3[H])c(C(=O)N([H])[H])c2N([H])[H])C1([H])[H])C([H])([H])[N+]([H])([H])C([H])([H])[H]

$$$$
21:0:0
     RDKit          3D

 98106  0  0  1  0  0  0  0  0999 V2000
  -28.2190  -20.9490   19.9360 C   0  0  0  0  0  3  0  0  0  0  0  0
  -30.2020  -20.4230   20.7940 C   0  0  0  0  0  3  0  0  0  0  0  0
  -28.5000  -19.6610   19.5600 C   0  0  0  0  0  0  0  0  0  0  0  0
  -29.7750  -19.2930   20.1290 C   0  0  0  0  0  0  0  0  0  0  0  0
  -29.2720  -21.4580   20.6560 N   0  0  0  0  0  0  0  0  0  0  0  0
  -26.2640  -18.5720   19.4530 C   0  0  0  0  0  1  0  0  0  0  0  0
  -27.5730  -18.8330   18.6920 C   0  0  0  0  0  3  0  0  0  0  0  0
  -28.6140  -19.8430   16.5400 C   0  0  0  0  0  1  0  0  0  0  0  0
  -27.3260  -19.4790   17.3050 C   0  0  0  0  0  2  0  0  0  0  0  0
  -29.3850  -22.8240   21.2060 C   0  0  0  0  0  2  0  0  0  0  0  0
  -28.4050  -23.9120   20.6280 C   0  0  0  0  0  2  0  0  0  0  0  0
  -30.5010  -25.4610   20.5210 C   0  0  0  0  0  1  0  0  0  0  0  0
  -28.9810  -25.3420   20.3140 C   0  0  0  0  0  3  0  0  0  0  0  0
  -28.4840  -26.3940   21.1600 O   0  0  0  0  0  0  0  0  0  0  0  0
  -24.5540  -31.8520   23.3960 C   0  0  0  0  0  0  0  0  0  0  0  0
  -27.3130  -27.0920   20.9270 C   0  0  0  0  0  0  0  0  0  0  0  0
  -23.4350  -30.3330   21.7920 C   0  0  0  0  0  3  0  0  0  0  0  0
  -24.9480  -28.6350   20.6300 C   0  0  0  0  0  0  0  0  0  0  0  0
  -25.9810  -30.6140   21.7680 C   0  0  0  0  0  2  0  0  0  0  0  0
  -26.0710  -29.1920   21.2490 C   0  0  0  0  0  0  0  0  0  0  0  0
  -27.2470  -28.4250   21.3990 C   0  0  0  0  0  3  0  0  0  0  0  0
  -26.1690  -26.5400   20.3050 C   0  0  0  0  0  3  0  0  0  0  0  0
  -24.9880  -27.3040   20.1660 C   0  0  0  0  0  3  0  0  0  0  0  0
  -23.7240  -29.5150   20.5030 C   0  0  0  0  0  2  0  0  0  0  0  0
  -24.6690  -30.9560   22.3730 N   0  0  0  0  0  0  0  0  0  0  0  0
  -23.4440  -32.1980   23.8230 O   0  0  0  0  0  0  0  0  0  0  0  0
  -22.6830  -29.4250   22.7930 C   0  0  0  0  0  0  0  0  0  0  0  0
  -21.3660  -29.2620   22.5790 N   0  0  0  0  0  0  0  0  0  0  0  0
  -23.2850  -28.8580   23.7090 O   0  0  0  0  0  0  0  0  0  0  0  0
  -20.9400  -29.7510   21.8040 H   0  0  0  0  0  0  0  0  0  0  0  0
  -17.9200  -28.2400   22.9710 C   0  0  0  0  0  0  0  0  0  0  0  0
  -20.4720  -28.4070   23.3610 C   0  0  0  0  0  3  0  0  0  0  0  0
  -20.5450  -26.9440   22.8710 C   0  0  0  0  0  2  0  0  0  0  0  0
  -19.4770  -26.6110   21.8240 C   0  0  0  0  0  2  0  0  0  0  0  0
  -18.0710  -26.8450   22.3880 C   0  0  0  0  0  2  0  0  0  0  0  0
  -19.0500  -28.9770   23.4120 C   0  0  0  0  0  0  0  0  0  0  0  0
  -18.8630  -30.2860   23.9070 C   0  0  0  0  0  3  0  0  0  0  0  0
  -17.5790  -30.8570   23.9670 C   0  0  0  0  0  3  0  0  0  0  0  0
  -16.4610  -30.1190   23.5380 C   0  0  0  0  0  3  0  0  0  0  0  0
  -16.6310  -28.8140   23.0450 C   0  0  0  0  0  3  0  0  0  0  0  0
  -25.8100  -32.5110   24.0510 C   0  0  0  0  0  3  0  0  0  0  0  0
  -26.2650  -31.7980   25.3850 C   0  0  1  0  0  0  0  0  0  0  0  0
  -25.1100  -31.5540   26.3870 C   0  0  0  0  0  1  0  0  0  0  0  0
  -26.9210  -30.4310   25.0800 C   0  0  0  0  0  1  0  0  0  0  0  0
  -27.3390  -32.6550   26.1000 C   0  0  0  0  0  1  0  0  0  0  0  0
  -25.4910  -33.9230   24.3020 N   0  0  0  0  0  0  0  0  0  0  0  0
  -25.8600  -34.9410   23.5130 C   0  0  0  0  0  0  0  0  0  0  0  0
  -26.5770  -34.7910   22.5190 O   0  0  0  0  0  0  0  0  0  0  0  0
  -24.8600  -34.1080   25.0680 H   0  0  0  0  0  0  0  0  0  0  0  0
  -24.1460  -36.7110   23.0090 C   0  0  0  0  0  1  0  0  0  0  0  0
  -25.3530  -36.3470   23.8880 C   0  0  0  0  0  3  0  0  0  0  0  0
  -27.4540  -37.2710   24.7610 C   0  0  0  0  0  1  0  0  0  0  0  0
  -26.3890  -37.3980   23.7700 N   0  0  0  0  0  0  0  0  0  0  0  0
  -25.9760  -38.3230   23.8640 H   0  0  0  0  0  0  0  0  0  0  0  0
  -30.5290  -17.9470   19.9270 C   0  0  0  0  0  3  0  0  0  0  0  0
  -31.5950  -18.1320   18.9330 N   0  0  0  0  0  4  0  0  0  0  0  0
  -32.3200  -18.7250   19.2960 H   0  0  0  0  0  0  0  0  0  0  0  0
  -31.2080  -18.5650   18.1140 H   0  0  0  0  0  0  0  0  0  0  0  0
  -31.9990  -17.2520   18.6770 H   0  0  0  0  0  0  0  0  0  0  0  0
  -31.0650  -17.1890   21.1930 C   0  0  0  0  0  2  0  0  0  0  0  0
  -31.5190  -14.6560   20.9010 C   0  0  0  0  0  0  0  0  0  0  0  0
  -31.2980  -12.4540   19.8100 C   0  0  0  0  0  2  0  0  0  0  0  0
  -30.4540  -12.6420   18.5290 C   0  0  0  0  0  2  0  0  0  0  0  0
  -28.9480  -12.5390   18.8440 C   0  0  0  0  0  2  0  0  0  0  0  0
  -28.5230  -13.4060   20.0570 C   0  0  0  0  0  3  0  0  0  0  0  0
  -29.4860  -13.2120   21.2510 C   0  0  0  0  0  2  0  0  0  0  0  0
  -30.8550  -13.4730   20.7760 N   0  0  0  0  0  0  0  0  0  0  0  0
  -32.7000  -14.7960   20.5720 O   0  0  0  0  0  0  0  0  0  0  0  0
  -30.7490  -15.7280   21.2050 N   0  0  0  0  0  0  0  0  0  0  0  0
  -29.7970  -15.4910   21.4440 H   0  0  0  0  0  0  0  0  0  0  0  0
  -26.0950  -14.0880   20.5690 C   0  0  0  0  0  0  0  0  0  0  0  0
  -24.9790  -13.3510   20.8670 C   0  0  0  0  0  0  0  0  0  0  0  0
  -25.4020  -11.9870   20.8930 C   0  0  0  0  0  0  0  0  0  0  0  0
  -27.1290  -13.1750   20.4290 N   0  0  0  0  0  0  0  0  0  0  0  0
  -26.7110  -11.9050   20.6850 N   0  0  0  0  0  0  0  0  0  0  0  0
  -24.6230  -10.7490   21.0450 C   0  0  0  0  0  0  0  0  0  0  0  0
  -24.9240   -9.8090   22.0510 C   0  0  0  0  0  3  0  0  0  0  0  0
  -24.1520   -8.6360   22.1890 C   0  0  0  0  0  3  0  0  0  0  0  0
  -23.0660   -8.3940   21.3160 C   0  0  0  0  0  0  0  0  0  0  0  0
  -22.7820   -9.3250   20.3020 C   0  0  0  0  0  3  0  0  0  0  0  0
  -23.5540  -10.4900   20.1630 C   0  0  0  0  0  3  0  0  0  0  0  0
  -22.2770   -7.2700   21.3590 O   0  0  0  0  0  0  0  0  0  0  0  0
  -22.0280   -6.6060   22.5320 C   0  0  0  0  0  0  0  0  0  0  0  0
  -21.4340   -7.2480   23.6400 C   0  0  0  0  0  3  0  0  0  0  0  0
  -21.1360   -6.5130   24.8040 C   0  0  0  0  0  3  0  0  0  0  0  0
  -21.4220   -5.1350   24.8590 C   0  0  0  0  0  0  0  0  0  0  0  0
  -22.0050   -4.4910   23.7530 C   0  0  0  0  0  3  0  0  0  0  0  0
  -22.3070   -5.2250   22.5930 C   0  0  0  0  0  0  0  0  0  0  0  0
  -22.8520   -4.5970   21.5240 F   0  0  0  0  0  0  0  0  0  0  0  0
  -21.1270   -4.4260   25.9740 F   0  0  0  0  0  0  0  0  0  0  0  0
  -23.5790  -13.8750   21.0220 C   0  0  0  0  0  0  0  0  0  0  0  0
  -22.7720  -13.2380   21.8630 N   0  0  0  0  0  0  0  0  0  0  0  0
  -23.2060  -14.8880   20.4350 O   0  0  0  0  0  0  0  0  0  0  0  0
  -23.0730  -12.4210   22.3700 H   0  0  0  0  0  0  0  0  0  0  0  0
  -21.8310  -13.5800   22.0030 H   0  0  0  0  0  0  0  0  0  0  0  0
  -26.3120  -15.4480   20.3780 N   0  0  0  0  0  0  0  0  0  0  0  0
  -25.5670  -16.1330   20.4630 H   0  0  0  0  0  0  0  0  0  0  0  0
  -27.1500  -15.8230   19.9580 H   0  0  0  0  0  0  0  0  0  0  0  0
  1  5  1  0
  3  1  2  0
  3  4  1  0
  4  2  2  0
  5  2  1  0
  5 10  1  0
  7  6  1  0
  7  3  1  0
  8  9  1  0
  9  7  1  0
 11 10  1  0
 13 12  1  0
 13 11  1  0
 13 14  1  0
 15 26  2  0
 16 14  1  0
 16 21  1  0
 17 25  1  0
 17 27  1  0
 18 20  1  0
 19 25  1  0
 20 21  2  0
 20 19  1  0
 22 16  2  0
 23 22  1  0
 23 18  2  0
 24 18  1  0
 24 17  1  0
 25 15  1  0
 27 29  2  0
 28 27  1  0
 30 28  1  0
 31 40  2  0
 31 36  1  0
 32 28  1  0
 32 36  1  0
 33 32  1  0
 34 35  1  0
 34 33  1  0
 35 31  1  0
 36 37  2  0
 37 38  1  0
 39 38  2  0
 40 39  1  0
 41 15  1  0
 41 46  1  0
 41 42  1  0
 42 45  1  1
 42 43  1  0
 44 42  1  0
 46 49  1  0
 47 51  1  0
 47 46  1  0
 48 47  2  0
 51 50  1  0
 53 54  1  0
 53 51  1  0
 53 52  1  0
 55  4  1  0
 55 60  1  0
 56 57  1  0
 56 55  1  0
 58 56  1  0
 59 56  1  0
 60 69  1  0
 61 69  1  0
 62 67  1  0
 63 64  1  0
 63 62  1  0
 65 64  1  0
 65 74  1  0
 65 66  1  0
 67 61  1  0
 67 66  1  0
 68 61  2  0
 69 70  1  0
 71 72  2  0
 72 73  1  0
 72 91  1  0
 73 76  1  0
 74 71  1  0
 74 75  1  0
 75 73  2  0
 76 77  1  0
 77 78  2  0
 79 82  1  0
 79 78  1  0
 80 79  2  0
 81 80  1  0
 81 76  2  0
 82 83  1  0
 83 88  2  0
 83 84  1  0
 84 85  2  0
 85 86  1  0
 86 90  1  0
 87 86  2  0
 88 87  1  0
 89 88  1  0
 91 92  1  0
 92 95  1  0
 92 94  1  0
 93 91  2  0
 96 97  1  0
 96 71  1  0
 98 96  1  0
M  ISO  4  13 101  14 101  61 100  69 100
M  END
>  <TORSDO>  (22) 
F 24

>  <SCORE>  (22) 
-11.787

>  <name>  (22) 
21

>  <ligand_id>  (22) 
21

>  <original_smiles>  (22) 
[H]c1c([H])c([H])c2c(c1[H])C([H])([H])C([H])([H])C([H])([H])C2([H])N([H])C(=O)C1([H])N(C(=O)C([H])(N([H])C(=O)C([H])(N([H])C([H])([H])[H])C([H])([H])[H])C(C([H])([H])[H])(C([H])([H])[H])C([H])([H])[H])C([H])([H])c2c([H])c(OC([H])(C([H])([H])[H])C([H])([H])C([H])([H])n3c([H])c(C([H])(C([H])([H])[H])C([H])([H])C([H])([H])[H])c(C([H])(C([H])([H])N([H])C(=O)N4C([H])([H])C([H])([H])C([H])([H])C([H])(n5nc(-c6c([H])c([H])c(Oc7c([H])c([H])c(F)c([H])c7F)c([H])c6[H])c(C(=O)N([H])[H])c5N([H])[H])C4([H])[H])[N+]([H])([H])[H])c3[H])c([H])c([H])c2C1([H])[H]

>  <smiles>  (22) 
[H]c1c([H])c([H])c2c(c1[H])C([H])([H])C([H])([H])C([H])([H])C2([H])N([H])C(=O)C1([H])N(C(=O)C([H])(N([H])C(=O)C([H])(N([H])C([H])([H])[H])C([H])([H])[H])C(C([H])([H])[H])(C([H])([H])[H])C([H])([H])[H])C([H])([H])c2c([H])c(OC([H])(C([H])([H])[H])C([H])([H])C([H])([H])n3c([H])c(C([H])(C([H])([H])[H])C([H])([H])C([H])([H])[H])c(C([H])(C([H])([H])N([H])C(=O)N4C([H])([H])C([H])([H])C([H])([H])C([H])(n5nc(-c6c([H])c([H])c(Oc7c([H])c([H])c(F)c([H])c7F)c([H])c6[H])c(C(=O)N([H])[H])c5N([H])[H])C4([H])[H])[N+]([H])([H])[H])c3[H])c([H])c([H])c2C1([H])[H]

$$$$
22:0:0
     RDKit          3D

 89 97  0  0  1  0  0  0  0  0999 V2000
  -30.6720  -19.6240   21.6840 C   0  0  0  0  0  3  0  0  0  0  0  0
  -31.0040  -20.8490   22.2950 C   0  0  0  0  0  0  0  0  0  0  0  0
  -29.7130  -19.7640   20.7220 C   0  0  0  0  0  0  0  0  0  0  0  0
  -30.2220  -21.8260   21.7490 C   0  0  0  0  0  0  0  0  0  0  0  0
  -32.0470  -21.0260   23.3710 C   0  0  0  0  0  1  0  0  0  0  0  0
  -30.2490  -23.2750   22.1450 C   0  0  0  0  0  1  0  0  0  0  0  0
  -29.3530  -21.3200   20.7630 N   0  0  0  0  0  0  0  0  0  0  0  0
  -29.4740  -18.2290   19.9390 C   0  0  0  0  0  2  0  0  0  0  0  0
  -30.4150  -15.3610   20.1880 C   0  0  0  0  0  0  0  0  0  0  0  0
  -30.3970  -12.9050   19.3200 C   0  0  0  0  0  2  0  0  0  0  0  0
  -29.4690  -12.7180   18.0910 C   0  0  0  0  0  2  0  0  0  0  0  0
  -28.0230  -12.4400   18.5370 C   0  0  0  0  0  2  0  0  0  0  0  0
  -27.5850  -13.3800   19.6860 C   0  0  0  0  0  3  0  0  0  0  0  0
  -28.6420  -13.5160   20.8040 C   0  0  0  0  0  2  0  0  0  0  0  0
  -29.8720  -14.0370   20.1770 N   0  0  0  0  0  0  0  0  0  0  0  0
  -31.6010  -15.3810   19.8260 O   0  0  0  0  0  0  0  0  0  0  0  0
  -29.6470  -16.6170   20.4330 N   0  0  0  0  0  0  0  0  0  0  0  0
  -28.7870  -16.3470   20.8870 H   0  0  0  0  0  0  0  0  0  0  0  0
  -25.2150  -13.9190   20.4530 C   0  0  0  0  0  0  0  0  0  0  0  0
  -24.1620  -13.1360   20.8340 C   0  0  0  0  0  0  0  0  0  0  0  0
  -24.6370  -11.7890   20.8000 C   0  0  0  0  0  0  0  0  0  0  0  0
  -26.2620  -13.0520   20.2020 N   0  0  0  0  0  0  0  0  0  0  0  0
  -25.9270  -11.7640   20.4780 N   0  0  0  0  0  0  0  0  0  0  0  0
  -23.9180  -10.5230   21.0000 C   0  0  0  0  0  0  0  0  0  0  0  0
  -24.3620   -9.5560   21.9300 C   0  0  0  0  0  3  0  0  0  0  0  0
  -23.6400   -8.3590   22.1190 C   0  0  0  0  0  3  0  0  0  0  0  0
  -22.4600   -8.1150   21.3760 C   0  0  0  0  0  0  0  0  0  0  0  0
  -22.0350   -9.0690   20.4350 C   0  0  0  0  0  3  0  0  0  0  0  0
  -22.7570  -10.2590   20.2440 C   0  0  0  0  0  3  0  0  0  0  0  0
  -21.7090   -6.9680   21.4740 O   0  0  0  0  0  0  0  0  0  0  0  0
  -21.6740   -6.2260   22.6270 C   0  0  0  0  0  0  0  0  0  0  0  0
  -21.2640   -6.7810   23.8590 C   0  0  0  0  0  3  0  0  0  0  0  0
  -21.1750   -5.9640   25.0050 C   0  0  0  0  0  3  0  0  0  0  0  0
  -21.4910   -4.5950   24.9200 C   0  0  0  0  0  0  0  0  0  0  0  0
  -21.8950   -4.0390   23.6940 C   0  0  0  0  0  3  0  0  0  0  0  0
  -21.9840   -4.8530   22.5500 C   0  0  0  0  0  0  0  0  0  0  0  0
  -22.3540   -4.3080   21.3660 F   0  0  0  0  0  0  0  0  0  0  0  0
  -21.3990   -3.8100   26.0190 F   0  0  0  0  0  0  0  0  0  0  0  0
  -22.7640  -13.6040   21.1110 C   0  0  0  0  0  0  0  0  0  0  0  0
  -22.0470  -12.9100   21.9860 N   0  0  0  0  0  0  0  0  0  0  0  0
  -22.3180  -14.6240   20.5880 O   0  0  0  0  0  0  0  0  0  0  0  0
  -22.4230  -12.0870   22.4320 H   0  0  0  0  0  0  0  0  0  0  0  0
  -21.1080  -13.2060   22.2140 H   0  0  0  0  0  0  0  0  0  0  0  0
  -25.3630  -15.2910   20.2720 N   0  0  0  0  0  0  0  0  0  0  0  0
  -24.5840  -15.9300   20.3780 H   0  0  0  0  0  0  0  0  0  0  0  0
  -26.1890  -15.7340   19.8910 H   0  0  0  0  0  0  0  0  0  0  0  0
  -28.2990  -22.5080   20.2040 C   0  0  0  0  0  2  0  0  0  0  0  0
  -28.3780  -24.3110   19.8270 C   0  0  0  0  0  2  0  0  0  0  0  0
  -28.2170  -25.8600   20.4190 O   0  0  0  0  0  0  0  0  0  0  0  0
  -24.6290  -31.8810   23.2170 C   0  0  0  0  0  0  0  0  0  0  0  0
  -27.2070  -26.9570   20.2550 C   0  0  0  0  0  0  0  0  0  0  0  0
  -23.4430  -30.4690   21.5840 C   0  0  0  0  0  3  0  0  0  0  0  0
  -24.9010  -28.8470   20.1770 C   0  0  0  0  0  0  0  0  0  0  0  0
  -26.0100  -30.6710   21.4540 C   0  0  0  0  0  2  0  0  0  0  0  0
  -26.0830  -29.2530   20.8090 C   0  0  0  0  0  0  0  0  0  0  0  0
  -27.2210  -28.3260   20.8300 C   0  0  0  0  0  3  0  0  0  0  0  0
  -26.0000  -26.7100   19.5600 C   0  0  0  0  0  3  0  0  0  0  0  0
  -24.8870  -27.5970   19.5340 C   0  0  0  0  0  3  0  0  0  0  0  0
  -23.6810  -29.7690   20.2140 C   0  0  0  0  0  2  0  0  0  0  0  0
  -24.7160  -31.0360   22.1380 N   0  0  0  0  0  0  0  0  0  0  0  0
  -23.5360  -32.1760   23.7300 O   0  0  0  0  0  0  0  0  0  0  0  0
  -22.7410  -29.4860   22.5570 C   0  0  0  0  0  0  0  0  0  0  0  0
  -21.4100  -29.3300   22.4350 N   0  0  0  0  0  0  0  0  0  0  0  0
  -23.4020  -28.8630   23.3910 O   0  0  0  0  0  0  0  0  0  0  0  0
  -20.9300  -29.8840   21.7390 H   0  0  0  0  0  0  0  0  0  0  0  0
  -18.0180  -28.1480   22.9550 C   0  0  0  0  0  0  0  0  0  0  0  0
  -20.5800  -28.4020   23.2110 C   0  0  0  0  0  3  0  0  0  0  0  0
  -20.6720  -26.9660   22.6440 C   0  0  0  0  0  2  0  0  0  0  0  0
  -19.5670  -26.6450   21.6340 C   0  0  0  0  0  2  0  0  0  0  0  0
  -18.1870  -26.7960   22.2800 C   0  0  0  0  0  2  0  0  0  0  0  0
  -19.1410  -28.9090   23.3770 C   0  0  0  0  0  0  0  0  0  0  0  0
  -18.9260  -30.1690   23.9730 C   0  0  0  0  0  3  0  0  0  0  0  0
  -17.6220  -30.6720   24.1480 C   0  0  0  0  0  3  0  0  0  0  0  0
  -16.5140  -29.9090   23.7380 C   0  0  0  0  0  3  0  0  0  0  0  0
  -16.7130  -28.6490   23.1490 C   0  0  0  0  0  3  0  0  0  0  0  0
  -25.8960  -32.5300   23.8520 C   0  0  0  0  0  3  0  0  0  0  0  0
  -26.3930  -31.7760   25.1470 C   0  0  1  0  0  0  0  0  0  0  0  0
  -25.2860  -31.5570   26.2070 C   0  0  0  0  0  1  0  0  0  0  0  0
  -26.9790  -30.3900   24.7910 C   0  0  0  0  0  1  0  0  0  0  0  0
  -27.5390  -32.5760   25.8120 C   0  0  0  0  0  1  0  0  0  0  0  0
  -25.5740  -33.9310   24.1770 N   0  0  0  0  0  0  0  0  0  0  0  0
  -25.9090  -34.9900   23.4270 C   0  0  0  0  0  0  0  0  0  0  0  0
  -26.5810  -34.8910   22.3970 O   0  0  0  0  0  0  0  0  0  0  0  0
  -24.9740  -34.0810   24.9730 H   0  0  0  0  0  0  0  0  0  0  0  0
  -24.1800  -36.7900   23.0840 C   0  0  0  0  0  1  0  0  0  0  0  0
  -25.4230  -36.3810   23.8890 C   0  0  0  0  0  3  0  0  0  0  0  0
  -27.5600  -37.2700   24.7160 C   0  0  0  0  0  1  0  0  0  0  0  0
  -26.4560  -37.4350   23.7740 N   0  0  0  0  0  0  0  0  0  0  0  0
  -26.0500  -38.3560   23.9190 H   0  0  0  0  0  0  0  0  0  0  0  0
  1  2  1  0
  2  5  1  0
  3  7  1  0
  3  1  2  0
  4  6  1  0
  4  2  2  0
  7  4  1  0
  8 17  1  0
  8  3  1  0
  9 17  1  0
 10 15  1  0
 11 12  1  0
 11 10  1  0
 13 12  1  0
 13 22  1  0
 13 14  1  0
 15  9  1  0
 15 14  1  0
 16  9  2  0
 17 18  1  0
 19 20  2  0
 20 39  1  0
 21 20  1  0
 21 24  1  0
 22 19  1  0
 22 23  1  0
 23 21  2  0
 24 25  1  0
 25 26  2  0
 27 30  1  0
 27 26  1  0
 28 27  2  0
 29 28  1  0
 29 24  2  0
 30 31  1  0
 31 32  1  0
 32 33  2  0
 34 33  1  0
 34 38  1  0
 35 34  2  0
 36 31  2  0
 36 35  1  0
 37 36  1  0
 39 40  1  0
 40 43  1  0
 40 42  1  0
 41 39  2  0
 44 45  1  0
 44 19  1  0
 46 44  1  0
 47  7  1  0
 48 47  1  0
 48 49  1  0
 50 61  2  0
 51 49  1  0
 51 56  1  0
 52 60  1  0
 52 62  1  0
 53 59  1  0
 53 55  1  0
 54 60  1  0
 55 56  2  0
 55 54  1  0
 57 51  2  0
 58 57  1  0
 58 53  2  0
 59 52  1  0
 60 50  1  0
 62 64  2  0
 63 62  1  0
 65 63  1  0
 66 75  2  0
 66 71  1  0
 67 63  1  0
 67 71  1  0
 68 67  1  0
 69 70  1  0
 69 68  1  0
 70 66  1  0
 71 72  2  0
 72 73  1  0
 74 73  2  0
 75 74  1  0
 76 50  1  0
 76 81  1  0
 76 77  1  0
 77 80  1  1
 77 78  1  0
 79 77  1  0
 81 84  1  0
 82 86  1  0
 82 81  1  0
 83 82  2  0
 86 85  1  0
 88 86  1  0
 88 89  1  0
 88 87  1  0
M  ISO  4   9 100  17 100  48 101  49 101
M  END
>  <TORSDO>  (23) 
F 19

>  <SCORE>  (23) 
-17.117

>  <name>  (23) 
22

>  <ligand_id>  (23) 
22

>  <original_smiles>  (23) 
[H]c1c([H])c([H])c2c(c1[H])C([H])([H])C([H])([H])C([H])([H])C2([H])N([H])C(=O)C1([H])N(C(=O)C([H])(N([H])C(=O)C([H])(N([H])C([H])([H])[H])C([H])([H])[H])C(C([H])([H])[H])(C([H])([H])[H])C([H])([H])[H])C([H])([H])c2c([H])c(OC([H])([H])C([H])([H])n3c(C([H])([H])[H])c(C([H])([H])[H])c([H])c3C([H])([H])N([H])C(=O)N3C([H])([H])C([H])([H])C([H])([H])C([H])(n4nc(-c5c([H])c([H])c(Oc6c([H])c([H])c(F)c([H])c6F)c([H])c5[H])c(C(=O)N([H])[H])c4N([H])[H])C3([H])[H])c([H])c([H])c2C1([H])[H]

>  <smiles>  (23) 
[H]c1c([H])c([H])c2c(c1[H])C([H])([H])C([H])([H])C([H])([H])C2([H])N([H])C(=O)C1([H])N(C(=O)C([H])(N([H])C(=O)C([H])(N([H])C([H])([H])[H])C([H])([H])[H])C(C([H])([H])[H])(C([H])([H])[H])C([H])([H])[H])C([H])([H])c2c([H])c(OC([H])([H])C([H])([H])n3c(C([H])([H])[H])c(C([H])([H])[H])c([H])c3C([H])([H])N([H])C(=O)N3C([H])([H])C([H])([H])C([H])([H])C([H])(n4nc(-c5c([H])c([H])c(Oc6c([H])c([H])c(F)c([H])c6F)c([H])c5[H])c(C(=O)N([H])[H])c4N([H])[H])C3([H])[H])c([H])c([H])c2C1([H])[H]

$$$$
23:0:0
     RDKit          3D

 92100  0  0  1  0  0  0  0  0999 V2000
  -28.9780  -20.4580   21.2750 C   0  0  0  0  0  3  0  0  0  0  0  0
  -29.2170  -19.0610   21.3480 C   0  0  0  0  0  3  0  0  0  0  0  0
  -29.1770  -21.1830   20.0800 C   0  0  0  0  0  0  0  0  0  0  0  0
  -29.6370  -18.2930   20.2260 C   0  0  0  0  0  0  0  0  0  0  0  0
  -29.7940  -20.4720   19.0040 C   0  0  0  0  0  0  0  0  0  0  0  0
  -30.0130  -19.0480   19.0720 C   0  0  0  0  0  0  0  0  0  0  0  0
  -30.1340  -21.2250   17.7220 C   0  0  0  0  0  1  0  0  0  0  0  0
  -30.5790  -18.3270   17.8520 C   0  0  0  0  0  1  0  0  0  0  0  0
  -28.1810  -16.3650   21.0420 C   0  0  0  0  0  1  0  0  0  0  0  0
  -29.4370  -16.7120   20.2130 C   0  0  0  0  0  3  0  0  0  0  0  0
  -30.9920  -14.6710   19.8960 C   0  0  0  0  0  0  0  0  0  0  0  0
  -30.6340  -12.3970   18.9390 C   0  0  0  0  0  2  0  0  0  0  0  0
  -29.6430  -12.4570   17.7590 C   0  0  0  0  0  2  0  0  0  0  0  0
  -28.1900  -12.3470   18.2600 C   0  0  0  0  0  2  0  0  0  0  0  0
  -27.8990  -13.2880   19.4600 C   0  0  0  0  0  3  0  0  0  0  0  0
  -29.0110  -13.1760   20.5330 C   0  0  0  0  0  2  0  0  0  0  0  0
  -30.2890  -13.4870   19.8810 N   0  0  0  0  0  0  0  0  0  0  0  0
  -32.0910  -14.7280   19.3330 O   0  0  0  0  0  0  0  0  0  0  0  0
  -31.5510  -16.4460   21.4370 C   0  0  0  0  0  1  0  0  0  0  0  0
  -30.5460  -15.7680   20.6090 N   0  0  0  0  0  0  0  0  0  0  0  0
  -25.5620  -13.9690   20.2880 C   0  0  0  0  0  0  0  0  0  0  0  0
  -24.4920  -13.2360   20.7180 C   0  0  0  0  0  0  0  0  0  0  0  0
  -24.8980  -11.8680   20.6500 C   0  0  0  0  0  0  0  0  0  0  0  0
  -26.5660  -13.0550   20.0100 N   0  0  0  0  0  0  0  0  0  0  0  0
  -26.1690  -11.7830   20.2770 N   0  0  0  0  0  0  0  0  0  0  0  0
  -24.1280  -10.6360   20.8600 C   0  0  0  0  0  0  0  0  0  0  0  0
  -24.5360   -9.6610   21.7970 C   0  0  0  0  0  3  0  0  0  0  0  0
  -23.7670   -8.4950   21.9960 C   0  0  0  0  0  3  0  0  0  0  0  0
  -22.5770   -8.2940   21.2590 C   0  0  0  0  0  0  0  0  0  0  0  0
  -22.1880   -9.2560   20.3100 C   0  0  0  0  0  3  0  0  0  0  0  0
  -22.9570  -10.4140   20.1090 C   0  0  0  0  0  3  0  0  0  0  0  0
  -21.7810   -7.1800   21.3670 O   0  0  0  0  0  0  0  0  0  0  0  0
  -21.6740   -6.4840   22.5460 C   0  0  0  0  0  0  0  0  0  0  0  0
  -21.2340   -7.1020   23.7370 C   0  0  0  0  0  3  0  0  0  0  0  0
  -21.0710   -6.3360   24.9090 C   0  0  0  0  0  3  0  0  0  0  0  0
  -21.3380   -4.9530   24.8900 C   0  0  0  0  0  0  0  0  0  0  0  0
  -21.7710   -4.3370   23.7030 C   0  0  0  0  0  3  0  0  0  0  0  0
  -21.9350   -5.1000   22.5330 C   0  0  0  0  0  0  0  0  0  0  0  0
  -22.3320   -4.4960   21.3870 F   0  0  0  0  0  0  0  0  0  0  0  0
  -21.1750   -4.2160   26.0120 F   0  0  0  0  0  0  0  0  0  0  0  0
  -23.1340  -13.7680   21.0740 C   0  0  0  0  0  0  0  0  0  0  0  0
  -22.4310  -13.0970   21.9790 N   0  0  0  0  0  0  0  0  0  0  0  0
  -22.7090  -14.8160   20.5870 O   0  0  0  0  0  0  0  0  0  0  0  0
  -22.7890  -12.2500   22.3950 H   0  0  0  0  0  0  0  0  0  0  0  0
  -21.5230  -13.4350   22.2630 H   0  0  0  0  0  0  0  0  0  0  0  0
  -25.7470  -15.3320   20.0840 N   0  0  0  0  0  0  0  0  0  0  0  0
  -24.9970  -16.0000   20.2280 H   0  0  0  0  0  0  0  0  0  0  0  0
  -26.5830  -15.7500   19.7030 H   0  0  0  0  0  0  0  0  0  0  0  0
  -28.4720  -22.5760   19.8920 C   0  0  0  0  0  2  0  0  0  0  0  0
  -29.0660  -23.9720   20.3570 C   0  0  0  0  0  2  0  0  0  0  0  0
  -28.0950  -25.1620   19.9560 C   0  0  0  0  0  2  0  0  0  0  0  0
  -28.3260  -26.5830   20.2870 O   0  0  0  0  0  0  0  0  0  0  0  0
  -24.5280  -31.9460   23.2640 C   0  0  0  0  0  0  0  0  0  0  0  0
  -27.2050  -27.4310   20.2120 C   0  0  0  0  0  0  0  0  0  0  0  0
  -23.3500  -30.5420   21.6120 C   0  0  0  0  0  3  0  0  0  0  0  0
  -24.8240  -29.0180   20.1910 C   0  0  0  0  0  0  0  0  0  0  0  0
  -25.8890  -30.8850   21.4520 C   0  0  0  0  0  2  0  0  0  0  0  0
  -25.9850  -29.5120   20.8010 C   0  0  0  0  0  0  0  0  0  0  0  0
  -27.1770  -28.7290   20.8060 C   0  0  0  0  0  3  0  0  0  0  0  0
  -26.0190  -27.0000   19.5660 C   0  0  0  0  0  3  0  0  0  0  0  0
  -24.8430  -27.7660   19.5670 C   0  0  0  0  0  3  0  0  0  0  0  0
  -23.5800  -29.8790   20.2310 C   0  0  0  0  0  2  0  0  0  0  0  0
  -24.6070  -31.1400   22.1650 N   0  0  0  0  0  0  0  0  0  0  0  0
  -23.4380  -32.2130   23.7900 O   0  0  0  0  0  0  0  0  0  0  0  0
  -22.6910  -29.5130   22.5620 C   0  0  0  0  0  0  0  0  0  0  0  0
  -21.3770  -29.2880   22.3900 N   0  0  0  0  0  0  0  0  0  0  0  0
  -23.3600  -28.9220   23.4130 O   0  0  0  0  0  0  0  0  0  0  0  0
  -20.8950  -29.8190   21.6770 H   0  0  0  0  0  0  0  0  0  0  0  0
  -18.0310  -27.9660   22.7600 C   0  0  0  0  0  0  0  0  0  0  0  0
  -20.5610  -28.3360   23.1440 C   0  0  0  0  0  3  0  0  0  0  0  0
  -20.7480  -26.8960   22.6110 C   0  0  0  0  0  2  0  0  0  0  0  0
  -19.7090  -26.5040   21.5550 C   0  0  0  0  0  2  0  0  0  0  0  0
  -18.2930  -26.6080   22.1290 C   0  0  0  0  0  2  0  0  0  0  0  0
  -19.0960  -28.7840   23.2220 C   0  0  0  0  0  0  0  0  0  0  0  0
  -18.7990  -30.0500   23.7690 C   0  0  0  0  0  3  0  0  0  0  0  0
  -17.4680  -30.5010   23.8610 C   0  0  0  0  0  3  0  0  0  0  0  0
  -16.4160  -29.6810   23.4170 C   0  0  0  0  0  3  0  0  0  0  0  0
  -16.6980  -28.4170   22.8710 C   0  0  0  0  0  3  0  0  0  0  0  0
  -25.8010  -32.5870   23.8980 C   0  0  0  0  0  3  0  0  0  0  0  0
  -26.2910  -31.8390   25.1990 C   0  0  1  0  0  0  0  0  0  0  0  0
  -25.1730  -31.6120   26.2430 C   0  0  0  0  0  1  0  0  0  0  0  0
  -26.8910  -30.4590   24.8430 C   0  0  0  0  0  1  0  0  0  0  0  0
  -27.4200  -32.6520   25.8740 C   0  0  0  0  0  1  0  0  0  0  0  0
  -25.4880  -33.9910   24.1950 N   0  0  0  0  0  0  0  0  0  0  0  0
  -25.8210  -35.0280   23.4140 C   0  0  0  0  0  0  0  0  0  0  0  0
  -26.4940  -34.9020   22.3870 O   0  0  0  0  0  0  0  0  0  0  0  0
  -24.8930  -34.1630   24.9910 H   0  0  0  0  0  0  0  0  0  0  0  0
  -24.0850  -36.8050   23.0230 C   0  0  0  0  0  1  0  0  0  0  0  0
  -25.3300  -36.4250   23.8390 C   0  0  0  0  0  3  0  0  0  0  0  0
  -27.4630  -37.3390   24.6420 C   0  0  0  0  0  1  0  0  0  0  0  0
  -26.3580  -37.4780   23.6970 N   0  0  0  0  0  0  0  0  0  0  0  0
  -25.9480  -38.4000   23.8230 H   0  0  0  0  0  0  0  0  0  0  0  0
  1  2  1  0
  3  1  2  0
  4  2  2  0
  5  6  2  0
  5  3  1  0
  6  4  1  0
  7  5  1  0
  8  6  1  0
 10  4  1  0
 10 20  1  0
 10  9  1  0
 11 20  1  0
 12 17  1  0
 13 14  1  0
 13 12  1  0
 15 14  1  0
 15 24  1  0
 15 16  1  0
 17 11  1  0
 17 16  1  0
 18 11  2  0
 20 19  1  0
 21 22  2  0
 22 41  1  0
 23 22  1  0
 23 26  1  0
 24 25  1  0
 24 21  1  0
 25 23  2  0
 26 27  1  0
 27 28  2  0
 29 32  1  0
 29 28  1  0
 30 29  2  0
 31 30  1  0
 31 26  2  0
 32 33  1  0
 33 34  1  0
 34 35  2  0
 36 35  1  0
 36 40  1  0
 37 36  2  0
 38 33  2  0
 38 37  1  0
 39 38  1  0
 41 42  1  0
 42 45  1  0
 42 44  1  0
 43 41  2  0
 46 47  1  0
 46 21  1  0
 48 46  1  0
 49  3  1  0
 49 50  1  0
 51 52  1  0
 51 50  1  0
 53 64  2  0
 54 52  1  0
 54 59  1  0
 55 63  1  0
 55 65  1  0
 56 62  1  0
 56 58  1  0
 57 63  1  0
 58 59  2  0
 58 57  1  0
 60 61  1  0
 60 54  2  0
 61 56  2  0
 62 55  1  0
 63 53  1  0
 65 67  2  0
 66 65  1  0
 68 66  1  0
 69 78  2  0
 69 74  1  0
 70 66  1  0
 70 74  1  0
 71 70  1  0
 72 73  1  0
 72 71  1  0
 73 69  1  0
 74 75  2  0
 75 76  1  0
 77 76  2  0
 78 77  1  0
 79 53  1  0
 79 84  1  0
 79 80  1  0
 80 83  1  1
 80 81  1  0
 82 80  1  0
 84 87  1  0
 85 89  1  0
 85 84  1  0
 86 85  2  0
 89 88  1  0
 91 92  1  0
 91 89  1  0
 91 90  1  0
M  ISO  4  11 100  20 100  51 101  52 101
M  END
>  <TORSDO>  (24) 
F 20

>  <SCORE>  (24) 
-12.742

>  <name>  (24) 
23

>  <ligand_id>  (24) 
23

>  <original_smiles>  (24) 
[H]c1c([H])c([H])c2c(c1[H])C([H])([H])C([H])([H])C([H])([H])C2([H])N([H])C(=O)C1([H])N(C(=O)C([H])(N([H])C(=O)C([H])(N([H])C([H])([H])[H])C([H])([H])[H])C(C([H])([H])[H])(C([H])([H])[H])C([H])([H])[H])C([H])([H])c2c([H])c(OC([H])([H])C([H])([H])C([H])([H])c3c([H])c([H])c(C([H])(N(C(=O)N4C([H])([H])C([H])([H])C([H])([H])C([H])(n5nc(-c6c([H])c([H])c(Oc7c([H])c([H])c(F)c([H])c7F)c([H])c6[H])c(C(=O)N([H])[H])c5N([H])[H])C4([H])[H])C([H])([H])[H])C([H])([H])[H])c(C([H])([H])[H])c3C([H])([H])[H])c([H])c([H])c2C1([H])[H]

>  <smiles>  (24) 
[H]c1c([H])c([H])c2c(c1[H])C([H])([H])C([H])([H])C([H])([H])C2([H])N([H])C(=O)C1([H])N(C(=O)C([H])(N([H])C(=O)C([H])(N([H])C([H])([H])[H])C([H])([H])[H])C(C([H])([H])[H])(C([H])([H])[H])C([H])([H])[H])C([H])([H])c2c([H])c(OC([H])([H])C([H])([H])C([H])([H])c3c([H])c([H])c(C([H])(N(C(=O)N4C([H])([H])C([H])([H])C([H])([H])C([H])(n5nc(-c6c([H])c([H])c(Oc7c([H])c([H])c(F)c([H])c7F)c([H])c6[H])c(C(=O)N([H])[H])c5N([H])[H])C4([H])[H])C([H])([H])[H])C([H])([H])[H])c(C([H])([H])[H])c3C([H])([H])[H])c([H])c([H])c2C1([H])[H]

$$$$
24:0:0
     RDKit          3D

 93101  0  0  1  0  0  0  0  0999 V2000
  -30.3770  -15.3840   20.3500 C   0  0  0  0  0  0  0  0  0  0  0  0
  -30.3870  -12.9030   19.5210 C   0  0  0  0  0  2  0  0  0  0  0  0
  -29.4980  -12.6670   18.2730 C   0  0  0  0  0  2  0  0  0  0  0  0
  -28.0420  -12.3880   18.6860 C   0  0  0  0  0  2  0  0  0  0  0  0
  -27.5660  -13.3590   19.7960 C   0  0  0  0  0  3  0  0  0  0  0  0
  -28.5910  -13.5420   20.9370 C   0  0  0  0  0  2  0  0  0  0  0  0
  -29.8240  -14.0610   20.3240 N   0  0  0  0  0  0  0  0  0  0  0  0
  -31.5970  -15.3530   20.1120 O   0  0  0  0  0  0  0  0  0  0  0  0
  -30.8610  -18.5570   19.3580 C   0  0  0  0  0  3  0  0  0  0  0  0
  -31.2350  -19.8590   18.9370 C   0  0  0  0  0  0  0  0  0  0  0  0
  -30.5510  -21.0400   19.3870 C   0  0  0  0  0  0  0  0  0  0  0  0
  -29.3640  -20.9640   20.1710 C   0  0  0  0  0  0  0  0  0  0  0  0
  -29.7910  -18.2790   20.2110 C   0  0  0  0  0  0  0  0  0  0  0  0
  -31.1480  -22.4100   19.0690 C   0  0  0  0  0  1  0  0  0  0  0  0
  -29.0650  -19.5470   20.5590 N   0  0  0  0  0  0  0  0  0  0  0  0
  -29.6130  -16.6740   20.4980 N   0  0  0  0  0  0  0  0  0  0  0  0
  -28.6770  -16.4670   20.8090 H   0  0  0  0  0  0  0  0  0  0  0  0
  -25.1890  -13.9190   20.5150 C   0  0  0  0  0  0  0  0  0  0  0  0
  -24.1230  -13.1450   20.8740 C   0  0  0  0  0  0  0  0  0  0  0  0
  -24.5880  -11.7940   20.8550 C   0  0  0  0  0  0  0  0  0  0  0  0
  -26.2340  -13.0410   20.2880 N   0  0  0  0  0  0  0  0  0  0  0  0
  -25.8850  -11.7570   20.5620 N   0  0  0  0  0  0  0  0  0  0  0  0
  -23.8570  -10.5330   21.0420 C   0  0  0  0  0  0  0  0  0  0  0  0
  -24.2760   -9.5660   21.9820 C   0  0  0  0  0  3  0  0  0  0  0  0
  -23.5410   -8.3730   22.1590 C   0  0  0  0  0  3  0  0  0  0  0  0
  -22.3740   -8.1370   21.3940 C   0  0  0  0  0  0  0  0  0  0  0  0
  -21.9740   -9.0930   20.4430 C   0  0  0  0  0  3  0  0  0  0  0  0
  -22.7080  -10.2770   20.2650 C   0  0  0  0  0  3  0  0  0  0  0  0
  -21.6150   -6.9960   21.4790 O   0  0  0  0  0  0  0  0  0  0  0  0
  -21.5520   -6.2550   22.6320 C   0  0  0  0  0  0  0  0  0  0  0  0
  -21.1250   -6.8160   23.8550 C   0  0  0  0  0  3  0  0  0  0  0  0
  -21.0100   -6.0030   25.0010 C   0  0  0  0  0  3  0  0  0  0  0  0
  -21.3110   -4.6300   24.9240 C   0  0  0  0  0  0  0  0  0  0  0  0
  -21.7310   -4.0690   23.7040 C   0  0  0  0  0  3  0  0  0  0  0  0
  -21.8480   -4.8790   22.5610 C   0  0  0  0  0  0  0  0  0  0  0  0
  -22.2320   -4.3300   21.3840 F   0  0  0  0  0  0  0  0  0  0  0  0
  -21.1940   -3.8470   26.0210 F   0  0  0  0  0  0  0  0  0  0  0  0
  -22.7220  -13.6250   21.1140 C   0  0  0  0  0  0  0  0  0  0  0  0
  -21.9780  -12.9410   21.9750 N   0  0  0  0  0  0  0  0  0  0  0  0
  -22.2970  -14.6460   20.5740 O   0  0  0  0  0  0  0  0  0  0  0  0
  -22.3360  -12.1180   22.4370 H   0  0  0  0  0  0  0  0  0  0  0  0
  -21.0370  -13.2450   22.1770 H   0  0  0  0  0  0  0  0  0  0  0  0
  -25.3560  -15.2880   20.3300 N   0  0  0  0  0  0  0  0  0  0  0  0
  -24.5830  -15.9400   20.4230 H   0  0  0  0  0  0  0  0  0  0  0  0
  -26.1930  -15.7190   19.9660 H   0  0  0  0  0  0  0  0  0  0  0  0
  -28.6420  -22.5160   20.6900 C   0  0  0  0  0  2  0  0  0  0  0  0
  -28.2690  -24.1720   19.9440 C   0  0  0  0  0  2  0  0  0  0  0  0
  -28.2440  -25.7980   20.3870 O   0  0  0  0  0  0  0  0  0  0  0  0
  -24.6460  -31.8590   23.1930 C   0  0  0  0  0  0  0  0  0  0  0  0
  -27.2370  -26.9150   20.2440 C   0  0  0  0  0  0  0  0  0  0  0  0
  -23.4720  -30.4420   21.5580 C   0  0  0  0  0  3  0  0  0  0  0  0
  -24.9380  -28.8230   20.1560 C   0  0  0  0  0  0  0  0  0  0  0  0
  -26.0410  -30.6460   21.4380 C   0  0  0  0  0  2  0  0  0  0  0  0
  -26.1190  -29.2260   20.7900 C   0  0  0  0  0  0  0  0  0  0  0  0
  -27.2560  -28.2920   20.8110 C   0  0  0  0  0  3  0  0  0  0  0  0
  -26.0300  -26.6810   19.5440 C   0  0  0  0  0  3  0  0  0  0  0  0
  -24.9240  -27.5740   19.5110 C   0  0  0  0  0  3  0  0  0  0  0  0
  -23.7160  -29.7450   20.1900 C   0  0  0  0  0  2  0  0  0  0  0  0
  -24.7410  -31.0130   22.1150 N   0  0  0  0  0  0  0  0  0  0  0  0
  -23.5520  -32.1520   23.7010 O   0  0  0  0  0  0  0  0  0  0  0  0
  -22.7680  -29.4580   22.5290 C   0  0  0  0  0  0  0  0  0  0  0  0
  -21.4370  -29.3050   22.4090 N   0  0  0  0  0  0  0  0  0  0  0  0
  -23.4300  -28.8320   23.3610 O   0  0  0  0  0  0  0  0  0  0  0  0
  -20.9570  -29.8580   21.7120 H   0  0  0  0  0  0  0  0  0  0  0  0
  -18.0450  -28.1240   22.9380 C   0  0  0  0  0  0  0  0  0  0  0  0
  -20.6100  -28.3750   23.1850 C   0  0  0  0  0  3  0  0  0  0  0  0
  -20.6970  -26.9420   22.6100 C   0  0  0  0  0  2  0  0  0  0  0  0
  -19.5860  -26.6260   21.6030 C   0  0  0  0  0  2  0  0  0  0  0  0
  -18.2110  -26.7760   22.2550 C   0  0  0  0  0  2  0  0  0  0  0  0
  -19.1710  -28.8820   23.3610 C   0  0  0  0  0  0  0  0  0  0  0  0
  -18.9590  -30.1400   23.9640 C   0  0  0  0  0  3  0  0  0  0  0  0
  -17.6570  -30.6430   24.1450 C   0  0  0  0  0  3  0  0  0  0  0  0
  -16.5470  -29.8850   23.7350 C   0  0  0  0  0  3  0  0  0  0  0  0
  -16.7410  -28.6250   23.1400 C   0  0  0  0  0  3  0  0  0  0  0  0
  -25.9090  -32.5140   23.8320 C   0  0  0  0  0  3  0  0  0  0  0  0
  -26.4090  -31.7590   25.1280 C   0  0  1  0  0  0  0  0  0  0  0  0
  -25.3010  -31.5370   26.1840 C   0  0  0  0  0  1  0  0  0  0  0  0
  -26.9960  -30.3760   24.7720 C   0  0  0  0  0  1  0  0  0  0  0  0
  -27.5520  -32.5630   25.7920 C   0  0  0  0  0  1  0  0  0  0  0  0
  -25.5800  -33.9140   24.1600 N   0  0  0  0  0  0  0  0  0  0  0  0
  -25.9150  -34.9770   23.4160 C   0  0  0  0  0  0  0  0  0  0  0  0
  -26.5930  -34.8830   22.3890 O   0  0  0  0  0  0  0  0  0  0  0  0
  -24.9750  -34.0580   24.9540 H   0  0  0  0  0  0  0  0  0  0  0  0
  -24.1820  -36.7720   23.0660 C   0  0  0  0  0  1  0  0  0  0  0  0
  -25.4220  -36.3630   23.8790 C   0  0  0  0  0  3  0  0  0  0  0  0
  -27.5510  -37.2530   24.7240 C   0  0  0  0  0  1  0  0  0  0  0  0
  -26.4510  -37.4220   23.7770 N   0  0  0  0  0  0  0  0  0  0  0  0
  -26.0420  -38.3390   23.9280 H   0  0  0  0  0  0  0  0  0  0  0  0
  -32.4210  -19.9150   17.9550 C   0  0  0  0  0  3  0  0  0  0  0  0
  -34.1450  -20.0650   19.8920 C   0  0  0  0  0  1  0  0  0  0  0  0
  -33.7320  -19.3820   18.5780 C   0  0  0  0  0  2  0  0  0  0  0  0
  -30.8450  -19.6430   15.9170 C   0  0  0  0  0  1  0  0  0  0  0  0
  -32.1190  -19.1670   16.6350 C   0  0  0  0  0  2  0  0  0  0  0  0
  1 16  1  0
  2  7  1  0
  3  4  1  0
  3  2  1  0
  5  4  1  0
  5 21  1  0
  5  6  1  0
  7  1  1  0
  7  6  1  0
  8  1  2  0
  9 13  1  0
 10  9  2  0
 10 11  1  0
 11 12  2  0
 12 15  1  0
 12 46  1  0
 13 16  1  0
 13 15  2  0
 14 11  1  0
 16 17  1  0
 18 19  2  0
 19 38  1  0
 20 19  1  0
 20 23  1  0
 21 18  1  0
 21 22  1  0
 22 20  2  0
 23 24  1  0
 24 25  2  0
 26 29  1  0
 26 25  1  0
 27 26  2  0
 28 27  1  0
 28 23  2  0
 29 30  1  0
 30 31  1  0
 31 32  2  0
 33 32  1  0
 33 37  1  0
 34 33  2  0
 35 30  2  0
 35 34  1  0
 36 35  1  0
 38 39  1  0
 39 42  1  0
 39 41  1  0
 40 38  2  0
 43 44  1  0
 43 18  1  0
 45 43  1  0
 47 48  1  0
 47 46  1  0
 49 60  2  0
 50 48  1  0
 50 55  1  0
 51 59  1  0
 51 61  1  0
 52 58  1  0
 52 54  1  0
 53 59  1  0
 54 55  2  0
 54 53  1  0
 56 50  2  0
 57 56  1  0
 57 52  2  0
 58 51  1  0
 59 49  1  0
 61 63  2  0
 62 61  1  0
 64 62  1  0
 65 74  2  0
 65 70  1  0
 66 62  1  0
 66 70  1  0
 67 66  1  0
 68 69  1  0
 68 67  1  0
 69 65  1  0
 70 71  2  0
 71 72  1  0
 73 72  2  0
 74 73  1  0
 75 49  1  0
 75 80  1  0
 75 76  1  0
 76 79  1  1
 76 77  1  0
 78 76  1  0
 80 83  1  0
 81 85  1  0
 81 80  1  0
 82 81  2  0
 85 84  1  0
 87 85  1  0
 87 88  1  0
 87 86  1  0
 89 91  1  0
 89 10  1  0
 91 90  1  0
 92 93  1  0
 93 89  1  0
M  ISO  4   1 100  16 100  47 101  48 101
M  END
>  <TORSDO>  (25) 
F 20

>  <SCORE>  (25) 
-15.272

>  <name>  (25) 
24

>  <ligand_id>  (25) 
24

>  <original_smiles>  (25) 
[H]c1c([H])c([H])c2c(c1[H])C([H])([H])C([H])([H])C([H])([H])C2([H])N([H])C(=O)C1([H])N(C(=O)C([H])(N([H])C(=O)C([H])(N([H])C([H])([H])[H])C([H])([H])[H])C(C([H])([H])[H])(C([H])([H])[H])C([H])([H])[H])C([H])([H])c2c([H])c(OC([H])([H])C([H])([H])c3nc(N([H])C(=O)N4C([H])([H])C([H])([H])C([H])([H])C([H])(n5nc(-c6c([H])c([H])c(Oc7c([H])c([H])c(F)c([H])c7F)c([H])c6[H])c(C(=O)N([H])[H])c5N([H])[H])C4([H])[H])c([H])c(C([H])(C([H])([H])C([H])([H])[H])C([H])([H])C([H])([H])[H])c3C([H])([H])[H])c([H])c([H])c2C1([H])[H]

>  <smiles>  (25) 
[H]c1c([H])c([H])c2c(c1[H])C([H])([H])C([H])([H])C([H])([H])C2([H])N([H])C(=O)C1([H])N(C(=O)C([H])(N([H])C(=O)C([H])(N([H])C([H])([H])[H])C([H])([H])[H])C(C([H])([H])[H])(C([H])([H])[H])C([H])([H])[H])C([H])([H])c2c([H])c(OC([H])([H])C([H])([H])c3nc(N([H])C(=O)N4C([H])([H])C([H])([H])C([H])([H])C([H])(n5nc(-c6c([H])c([H])c(Oc7c([H])c([H])c(F)c([H])c7F)c([H])c6[H])c(C(=O)N([H])[H])c5N([H])[H])C4([H])[H])c([H])c(C([H])(C([H])([H])C([H])([H])[H])C([H])([H])C([H])([H])[H])c3C([H])([H])[H])c([H])c([H])c2C1([H])[H]

$$$$
25:0:0
     RDKit          3D

101109  0  0  1  0  0  0  0  0999 V2000
  -29.2190  -23.1600   19.5190 C   0  0  0  0  0  0  0  0  0  0  0  0
  -29.2810  -21.7210   19.3550 C   0  0  0  0  0  0  0  0  0  0  0  0
  -29.4890  -23.6760   18.2730 C   0  0  0  0  0  0  0  0  0  0  0  0
  -29.4910  -21.4230   18.0320 C   0  0  0  0  0  0  0  0  0  0  0  0
  -29.5840  -25.1110   17.8370 C   0  0  0  0  0  1  0  0  0  0  0  0
  -29.5550  -20.1160   17.2910 C   0  0  0  0  0  1  0  0  0  0  0  0
  -29.6440  -22.6320   17.3620 N   0  0  0  0  0  0  0  0  0  0  0  0
  -29.0910  -20.7360   20.3580 N   0  0  0  0  0  0  0  0  0  0  0  0
  -28.9060  -21.1380   21.2750 H   0  0  0  0  0  0  0  0  0  0  0  0
  -30.0530  -19.6010   20.4190 C   0  0  0  0  0  2  0  0  0  0  0  0
  -29.4470  -18.2010   20.8180 C   0  0  0  0  0  3  0  0  0  0  0  0
  -28.0490  -18.1430   20.3720 N   0  0  0  0  0  4  0  0  0  0  0  0
  -27.9760  -17.9320   19.3940 H   0  0  0  0  0  0  0  0  0  0  0  0
  -27.7060  -19.0830   20.5110 H   0  0  0  0  0  0  0  0  0  0  0  0
  -27.5000  -17.5040   20.9170 H   0  0  0  0  0  0  0  0  0  0  0  0
  -30.3270  -16.9710   20.3600 C   0  0  0  0  0  2  0  0  0  0  0  0
  -30.5940  -14.4870   20.2240 C   0  0  0  0  0  0  0  0  0  0  0  0
  -30.2530  -12.3300   19.0680 C   0  0  0  0  0  2  0  0  0  0  0  0
  -29.2620  -12.5540   17.9060 C   0  0  0  0  0  2  0  0  0  0  0  0
  -27.8090  -12.3990   18.3950 C   0  0  0  0  0  2  0  0  0  0  0  0
  -27.5270  -13.2000   19.6960 C   0  0  0  0  0  3  0  0  0  0  0  0
  -28.6330  -12.9770   20.7520 C   0  0  0  0  0  2  0  0  0  0  0  0
  -29.9210  -13.3040   20.1250 N   0  0  0  0  0  0  0  0  0  0  0  0
  -31.7210  -14.6360   19.7460 O   0  0  0  0  0  0  0  0  0  0  0  0
  -29.8910  -15.5700   20.6560 N   0  0  0  0  0  0  0  0  0  0  0  0
  -28.9710  -15.4020   21.0340 H   0  0  0  0  0  0  0  0  0  0  0  0
  -25.1700  -13.7800   20.5370 C   0  0  0  0  0  0  0  0  0  0  0  0
  -24.1230  -12.9970   20.9440 C   0  0  0  0  0  0  0  0  0  0  0  0
  -24.5800  -11.6470   20.8510 C   0  0  0  0  0  0  0  0  0  0  0  0
  -26.1990  -12.9070   20.2320 N   0  0  0  0  0  0  0  0  0  0  0  0
  -25.8530  -11.6170   20.4770 N   0  0  0  0  0  0  0  0  0  0  0  0
  -23.8630  -10.3810   21.0420 C   0  0  0  0  0  0  0  0  0  0  0  0
  -24.3250   -9.3990   21.9450 C   0  0  0  0  0  3  0  0  0  0  0  0
  -23.6070   -8.1970   22.1250 C   0  0  0  0  0  3  0  0  0  0  0  0
  -22.4130   -7.9680   21.4020 C   0  0  0  0  0  0  0  0  0  0  0  0
  -21.9710   -8.9370   20.4840 C   0  0  0  0  0  3  0  0  0  0  0  0
  -22.6900  -10.1310   20.3030 C   0  0  0  0  0  3  0  0  0  0  0  0
  -21.6650   -6.8190   21.4920 O   0  0  0  0  0  0  0  0  0  0  0  0
  -21.6360   -6.0680   22.6400 C   0  0  0  0  0  0  0  0  0  0  0  0
  -21.2100   -6.6080   23.8740 C   0  0  0  0  0  3  0  0  0  0  0  0
  -21.1280   -5.7830   25.0130 C   0  0  0  0  0  3  0  0  0  0  0  0
  -21.4630   -4.4190   24.9210 C   0  0  0  0  0  0  0  0  0  0  0  0
  -21.8830   -3.8780   23.6930 C   0  0  0  0  0  3  0  0  0  0  0  0
  -21.9670   -4.7000   22.5560 C   0  0  0  0  0  0  0  0  0  0  0  0
  -22.3510   -4.1690   21.3710 F   0  0  0  0  0  0  0  0  0  0  0  0
  -21.3780   -3.6240   26.0150 F   0  0  0  0  0  0  0  0  0  0  0  0
  -22.7410  -13.4670   21.2930 C   0  0  0  0  0  0  0  0  0  0  0  0
  -22.0560  -12.7490   22.1750 N   0  0  0  0  0  0  0  0  0  0  0  0
  -22.2810  -14.5040   20.8170 O   0  0  0  0  0  0  0  0  0  0  0  0
  -22.4460  -11.9130   22.5840 H   0  0  0  0  0  0  0  0  0  0  0  0
  -21.1270  -13.0410   22.4470 H   0  0  0  0  0  0  0  0  0  0  0  0
  -25.3240  -15.1530   20.3720 N   0  0  0  0  0  0  0  0  0  0  0  0
  -24.4930  -15.7320   20.4180 H   0  0  0  0  0  0  0  0  0  0  0  0
  -25.9910  -15.4920   19.6900 H   0  0  0  0  0  0  0  0  0  0  0  0
  -28.9500  -24.0120   20.7750 C   0  0  0  0  0  2  0  0  0  0  0  0
  -27.8040  -25.0860   20.6950 C   0  0  0  0  0  2  0  0  0  0  0  0
  -28.1020  -26.4340   20.2150 O   0  0  0  0  0  0  0  0  0  0  0  0
  -24.4930  -31.8510   23.2250 C   0  0  0  0  0  0  0  0  0  0  0  0
  -27.0020  -27.2810   20.1770 C   0  0  0  0  0  0  0  0  0  0  0  0
  -23.2490  -30.4670   21.6000 C   0  0  0  0  0  3  0  0  0  0  0  0
  -24.6610  -28.8900   20.1730 C   0  0  0  0  0  0  0  0  0  0  0  0
  -25.7870  -30.7550   21.3910 C   0  0  0  0  0  2  0  0  0  0  0  0
  -25.8390  -29.3770   20.7540 C   0  0  0  0  0  0  0  0  0  0  0  0
  -27.0170  -28.5820   20.7470 C   0  0  0  0  0  3  0  0  0  0  0  0
  -25.8090  -26.8350   19.5690 C   0  0  0  0  0  3  0  0  0  0  0  0
  -24.6430  -27.6220   19.5730 C   0  0  0  0  0  3  0  0  0  0  0  0
  -23.4390  -29.7800   20.2230 C   0  0  0  0  0  2  0  0  0  0  0  0
  -24.5290  -31.0400   22.1290 N   0  0  0  0  0  0  0  0  0  0  0  0
  -23.4200  -32.1510   23.7680 O   0  0  0  0  0  0  0  0  0  0  0  0
  -22.5790  -29.4650   22.5700 C   0  0  0  0  0  0  0  0  0  0  0  0
  -21.2500  -29.3090   22.4490 N   0  0  0  0  0  0  0  0  0  0  0  0
  -23.2520  -28.8330   23.3860 O   0  0  0  0  0  0  0  0  0  0  0  0
  -20.7670  -29.8700   21.7610 H   0  0  0  0  0  0  0  0  0  0  0  0
  -17.8560  -28.1780   22.9670 C   0  0  0  0  0  0  0  0  0  0  0  0
  -20.4180  -28.3930   23.2310 C   0  0  0  0  0  3  0  0  0  0  0  0
  -20.4940  -26.9550   22.6680 C   0  0  0  0  0  2  0  0  0  0  0  0
  -19.3850  -26.6420   21.6590 C   0  0  0  0  0  2  0  0  0  0  0  0
  -18.0070  -26.8190   22.3040 C   0  0  0  0  0  2  0  0  0  0  0  0
  -18.9890  -28.9240   23.3880 C   0  0  0  0  0  0  0  0  0  0  0  0
  -18.7930  -30.1960   23.9680 C   0  0  0  0  0  3  0  0  0  0  0  0
  -17.4980  -30.7230   24.1300 C   0  0  0  0  0  3  0  0  0  0  0  0
  -16.3800  -29.9750   23.7250 C   0  0  0  0  0  3  0  0  0  0  0  0
  -16.5590  -28.7050   23.1500 C   0  0  0  0  0  3  0  0  0  0  0  0
  -25.7940  -32.4600   23.8320 C   0  0  0  0  0  3  0  0  0  0  0  0
  -26.3050  -31.6850   25.1090 C   0  0  1  0  0  0  0  0  0  0  0  0
  -25.2140  -31.4710   26.1830 C   0  0  0  0  0  1  0  0  0  0  0  0
  -26.8610  -30.2970   24.7190 C   0  0  0  0  0  1  0  0  0  0  0  0
  -27.4730  -32.4630   25.7620 C   0  0  0  0  0  1  0  0  0  0  0  0
  -25.5160  -33.8660   24.1570 N   0  0  0  0  0  0  0  0  0  0  0  0
  -25.8650  -34.9070   23.3880 C   0  0  0  0  0  0  0  0  0  0  0  0
  -26.5250  -34.7820   22.3520 O   0  0  0  0  0  0  0  0  0  0  0  0
  -24.9320  -34.0380   24.9610 H   0  0  0  0  0  0  0  0  0  0  0  0
  -24.1700  -36.7310   23.0340 C   0  0  0  0  0  1  0  0  0  0  0  0
  -25.4100  -36.3070   23.8380 C   0  0  0  0  0  3  0  0  0  0  0  0
  -27.5660  -37.1570   24.6480 C   0  0  0  0  0  1  0  0  0  0  0  0
  -26.4620  -37.3390   23.7090 N   0  0  0  0  0  0  0  0  0  0  0  0
  -26.0760  -38.2680   23.8500 H   0  0  0  0  0  0  0  0  0  0  0  0
  -29.8850  -22.7990   15.9240 C   0  0  0  0  0  2  0  0  0  0  0  0
  -31.4840  -23.3420   14.0440 C   0  0  0  0  0  1  0  0  0  0  0  0
  -32.3220  -21.9370   15.9770 C   0  0  0  0  0  1  0  0  0  0  0  0
  -31.3620  -23.0640   15.5500 C   0  0  0  0  0  3  0  0  0  0  0  0
  1 55  1  0
  2  1  1  0
  2  8  1  0
  3  1  2  0
  4  2  2  0
  5  3  1  0
  6  4  1  0
  7  4  1  0
  7  3  1  0
  8 10  1  0
  8  9  1  0
 10 11  1  0
 11 16  1  0
 12 14  1  0
 12 11  1  0
 12 15  1  0
 13 12  1  0
 16 25  1  0
 17 25  1  0
 18 23  1  0
 19 20  1  0
 19 18  1  0
 21 20  1  0
 21 30  1  0
 21 22  1  0
 23 17  1  0
 23 22  1  0
 24 17  2  0
 25 26  1  0
 27 28  2  0
 28 47  1  0
 29 28  1  0
 29 32  1  0
 30 31  1  0
 30 27  1  0
 31 29  2  0
 32 33  1  0
 33 34  2  0
 35 38  1  0
 35 34  1  0
 36 35  2  0
 37 36  1  0
 37 32  2  0
 38 39  1  0
 39 40  1  0
 40 41  2  0
 42 41  1  0
 42 46  1  0
 43 42  2  0
 44 39  2  0
 44 43  1  0
 45 44  1  0
 47 48  1  0
 48 51  1  0
 48 50  1  0
 49 47  2  0
 52 53  1  0
 52 27  1  0
 54 52  1  0
 56 55  1  0
 57 56  1  0
 58 69  2  0
 59 57  1  0
 59 64  1  0
 60 68  1  0
 60 70  1  0
 61 67  1  0
 61 63  1  0
 62 68  1  0
 63 62  1  0
 64 63  2  0
 65 66  1  0
 65 59  2  0
 66 61  2  0
 67 60  1  0
 68 58  1  0
 70 72  2  0
 71 70  1  0
 73 71  1  0
 74 83  2  0
 74 79  1  0
 75 71  1  0
 75 79  1  0
 76 75  1  0
 77 78  1  0
 77 76  1  0
 78 74  1  0
 79 80  2  0
 80 81  1  0
 82 81  2  0
 83 82  1  0
 84 58  1  0
 84 89  1  0
 84 85  1  0
 85 88  1  1
 85 86  1  0
 87 85  1  0
 89 92  1  0
 90 94  1  0
 90 89  1  0
 91 90  2  0
 94 93  1  0
 96 94  1  0
 96 97  1  0
 96 95  1  0
 98  7  1  0
 99101  1  0
101 98  1  0
101100  1  0
M  ISO  4  17 100  25 100  56 101  57 101
M  END
>  <TORSDO>  (26) 
F 25

>  <SCORE>  (26) 
-12.340

>  <name>  (26) 
25

>  <ligand_id>  (26) 
25

>  <original_smiles>  (26) 
[H]c1c([H])c([H])c2c(c1[H])C([H])([H])C([H])([H])C([H])([H])C2([H])N([H])C(=O)C1([H])N(C(=O)C([H])(N([H])C(=O)C([H])(N([H])C([H])([H])[H])C([H])([H])[H])C(C([H])([H])[H])(C([H])([H])[H])C([H])([H])[H])C([H])([H])c2c([H])c(OC([H])([H])C([H])([H])c3c(N([H])C([H])([H])C([H])(C([H])([H])N([H])C(=O)N4C([H])([H])C([H])([H])C([H])([H])C([H])(n5nc(-c6c([H])c([H])c(Oc7c([H])c([H])c(F)c([H])c7F)c([H])c6[H])c(C(=O)N([H])[H])c5N([H])[H])C4([H])[H])[N+]([H])([H])[H])c(C([H])([H])[H])n(C([H])([H])C([H])(C([H])([H])[H])C([H])([H])[H])c3C([H])([H])[H])c([H])c([H])c2C1([H])[H]

>  <smiles>  (26) 
[H]c1c([H])c([H])c2c(c1[H])C([H])([H])C([H])([H])C([H])([H])C2([H])N([H])C(=O)C1([H])N(C(=O)C([H])(N([H])C(=O)C([H])(N([H])C([H])([H])[H])C([H])([H])[H])C(C([H])([H])[H])(C([H])([H])[H])C([H])([H])[H])C([H])([H])c2c([H])c(OC([H])([H])C([H])([H])c3c(N([H])C([H])([H])C([H])(C([H])([H])N([H])C(=O)N4C([H])([H])C([H])([H])C([H])([H])C([H])(n5nc(-c6c([H])c([H])c(Oc7c([H])c([H])c(F)c([H])c7F)c([H])c6[H])c(C(=O)N([H])[H])c5N([H])[H])C4([H])[H])[N+]([H])([H])[H])c(C([H])([H])[H])n(C([H])([H])C([H])(C([H])([H])[H])C([H])([H])[H])c3C([H])([H])[H])c([H])c([H])c2C1([H])[H]

$$$$
26:0:0
     RDKit          3D

 93100  0  0  1  0  0  0  0  0999 V2000
  -30.5540  -23.3270   18.1280 C   0  0  0  0  0  1  0  0  0  0  0  0
  -28.4310  -22.0180   18.2730 C   0  0  0  0  0  1  0  0  0  0  0  0
  -29.6780  -22.4670   19.0670 C   0  0  2  0  0  0  0  0  0  0  0  0
  -29.2950  -23.2290   20.3750 C   0  0  0  0  0  2  0  0  0  0  0  0
  -27.8430  -24.6780   21.8070 C   0  0  0  0  0  1  0  0  0  0  0  0
  -28.2280  -24.3590   20.3490 C   0  0  0  0  0  3  0  0  0  0  0  0
  -28.6720  -25.6200   19.5580 C   0  0  0  0  0  2  0  0  0  0  0  0
  -28.4630  -26.8670   20.2170 O   0  0  0  0  0  0  0  0  0  0  0  0
  -24.5500  -31.9140   23.2460 C   0  0  0  0  0  0  0  0  0  0  0  0
  -27.2500  -27.5180   20.1630 C   0  0  0  0  0  0  0  0  0  0  0  0
  -23.3600  -30.5120   21.5870 C   0  0  0  0  0  3  0  0  0  0  0  0
  -24.8320  -28.9850   20.1660 C   0  0  0  0  0  0  0  0  0  0  0  0
  -25.8790  -30.8820   21.4150 C   0  0  0  0  0  2  0  0  0  0  0  0
  -25.9740  -29.5170   20.7720 C   0  0  0  0  0  0  0  0  0  0  0  0
  -27.1790  -28.7860   20.7760 C   0  0  0  0  0  3  0  0  0  0  0  0
  -26.0900  -26.9890   19.5480 C   0  0  0  0  0  3  0  0  0  0  0  0
  -24.8840  -27.7180   19.5540 C   0  0  0  0  0  3  0  0  0  0  0  0
  -23.5830  -29.8370   20.2060 C   0  0  0  0  0  2  0  0  0  0  0  0
  -24.6130  -31.1170   22.1420 N   0  0  0  0  0  0  0  0  0  0  0  0
  -23.4650  -32.1820   23.7790 O   0  0  0  0  0  0  0  0  0  0  0  0
  -22.7090  -29.4840   22.5390 C   0  0  0  0  0  0  0  0  0  0  0  0
  -21.3860  -29.3030   22.4070 N   0  0  0  0  0  0  0  0  0  0  0  0
  -23.3900  -28.8570   23.3560 O   0  0  0  0  0  0  0  0  0  0  0  0
  -20.8980  -29.8640   21.7220 H   0  0  0  0  0  0  0  0  0  0  0  0
  -18.0050  -28.1280   22.9110 C   0  0  0  0  0  0  0  0  0  0  0  0
  -20.5670  -28.3610   23.1700 C   0  0  0  0  0  3  0  0  0  0  0  0
  -20.6550  -26.9370   22.5770 C   0  0  0  0  0  2  0  0  0  0  0  0
  -19.5430  -26.6360   21.5660 C   0  0  0  0  0  2  0  0  0  0  0  0
  -18.1660  -26.7850   22.2180 C   0  0  0  0  0  2  0  0  0  0  0  0
  -19.1340  -28.8740   23.3440 C   0  0  0  0  0  0  0  0  0  0  0  0
  -18.9310  -30.1330   23.9510 C   0  0  0  0  0  3  0  0  0  0  0  0
  -17.6320  -30.6460   24.1270 C   0  0  0  0  0  3  0  0  0  0  0  0
  -16.5180  -29.8960   23.7090 C   0  0  0  0  0  3  0  0  0  0  0  0
  -16.7050  -28.6380   23.1080 C   0  0  0  0  0  3  0  0  0  0  0  0
  -25.8330  -32.5450   23.8730 C   0  0  0  0  0  3  0  0  0  0  0  0
  -25.5260  -33.9460   24.1890 N   0  0  0  0  0  0  0  0  0  0  0  0
  -25.8700  -34.9900   23.4230 C   0  0  0  0  0  0  0  0  0  0  0  0
  -26.5520  -34.8760   22.4000 O   0  0  0  0  0  0  0  0  0  0  0  0
  -24.9360  -34.1110   24.9900 H   0  0  0  0  0  0  0  0  0  0  0  0
  -24.1610  -36.7840   23.0090 C   0  0  0  0  0  1  0  0  0  0  0  0
  -25.3760  -36.3840   23.8590 C   0  0  0  0  0  3  0  0  0  0  0  0
  -27.4870  -37.2610   24.7490 C   0  0  0  0  0  1  0  0  0  0  0  0
  -26.4150  -37.4310   23.7720 N   0  0  0  0  0  0  0  0  0  0  0  0
  -26.0100  -38.3530   23.9040 H   0  0  0  0  0  0  0  0  0  0  0  0
  -26.3400  -31.7810   25.1570 C   0  0  1  0  0  0  0  0  0  0  0  0
  -25.2400  -31.5490   26.2190 C   0  0  0  0  0  1  0  0  0  0  0  0
  -26.9260  -30.4000   24.7750 C   0  0  0  0  0  1  0  0  0  0  0  0
  -27.4880  -32.5770   25.8220 C   0  0  0  0  0  1  0  0  0  0  0  0
  -30.5380  -21.2350   19.4740 C   0  0  0  0  0  2  0  0  0  0  0  0
  -29.7520  -20.1390   20.0850 N   0  0  0  0  0  4  0  0  0  0  0  0
  -29.1400  -20.5150   20.7930 H   0  0  0  0  0  0  0  0  0  0  0  0
  -29.1820  -19.7360   19.3590 H   0  0  0  0  0  0  0  0  0  0  0  0
  -30.5820  -19.0780   20.6880 C   0  0  0  0  0  2  0  0  0  0  0  0
  -29.8100  -17.7540   20.8590 C   0  0  0  0  0  2  0  0  0  0  0  0
  -30.6620  -16.6870   21.5750 C   0  0  0  0  0  2  0  0  0  0  0  0
  -30.7190  -14.4430   20.5020 C   0  0  0  0  0  0  0  0  0  0  0  0
  -30.3690  -12.3730   19.2200 C   0  0  0  0  0  2  0  0  0  0  0  0
  -29.4100  -12.6350   18.0410 C   0  0  0  0  0  2  0  0  0  0  0  0
  -27.9430  -12.4860   18.4900 C   0  0  0  0  0  2  0  0  0  0  0  0
  -27.6270  -13.2770   19.7890 C   0  0  0  0  0  3  0  0  0  0  0  0
  -28.6910  -12.9890   20.8700 C   0  0  0  0  0  2  0  0  0  0  0  0
  -30.0160  -13.3000   20.3040 N   0  0  0  0  0  0  0  0  0  0  0  0
  -31.7780  -14.6940   19.9180 O   0  0  0  0  0  0  0  0  0  0  0  0
  -30.1560  -15.3340   21.3310 N   0  0  0  0  0  0  0  0  0  0  0  0
  -29.2950  -15.0620   21.7820 H   0  0  0  0  0  0  0  0  0  0  0  0
  -25.2240  -13.8710   20.4970 C   0  0  0  0  0  0  0  0  0  0  0  0
  -24.1610  -13.0920   20.8670 C   0  0  0  0  0  0  0  0  0  0  0  0
  -24.6320  -11.7430   20.8360 C   0  0  0  0  0  0  0  0  0  0  0  0
  -26.2750  -12.9970   20.2700 N   0  0  0  0  0  0  0  0  0  0  0  0
  -25.9200  -11.7120   20.5270 N   0  0  0  0  0  0  0  0  0  0  0  0
  -23.9150  -10.4760   21.0310 C   0  0  0  0  0  0  0  0  0  0  0  0
  -24.3490   -9.5190   21.9750 C   0  0  0  0  0  3  0  0  0  0  0  0
  -23.6350   -8.3150   22.1550 C   0  0  0  0  0  3  0  0  0  0  0  0
  -22.4720   -8.0590   21.3900 C   0  0  0  0  0  0  0  0  0  0  0  0
  -22.0570   -9.0050   20.4370 C   0  0  0  0  0  3  0  0  0  0  0  0
  -22.7720  -10.2000   20.2560 C   0  0  0  0  0  3  0  0  0  0  0  0
  -21.7300   -6.9050   21.4790 O   0  0  0  0  0  0  0  0  0  0  0  0
  -21.6720   -6.1720   22.6370 C   0  0  0  0  0  0  0  0  0  0  0  0
  -21.1880   -6.7230   23.8430 C   0  0  0  0  0  3  0  0  0  0  0  0
  -21.0820   -5.9160   24.9940 C   0  0  0  0  0  3  0  0  0  0  0  0
  -21.4490   -4.5590   24.9380 C   0  0  0  0  0  0  0  0  0  0  0  0
  -21.9270   -4.0070   23.7370 C   0  0  0  0  0  3  0  0  0  0  0  0
  -22.0350   -4.8100   22.5890 C   0  0  0  0  0  0  0  0  0  0  0  0
  -22.4750   -4.2690   21.4270 F   0  0  0  0  0  0  0  0  0  0  0  0
  -21.3400   -3.7810   26.0410 F   0  0  0  0  0  0  0  0  0  0  0  0
  -22.7610  -13.5580   21.1450 C   0  0  0  0  0  0  0  0  0  0  0  0
  -22.0370  -12.8540   22.0090 N   0  0  0  0  0  0  0  0  0  0  0  0
  -22.3150  -14.5830   20.6300 O   0  0  0  0  0  0  0  0  0  0  0  0
  -22.4080  -12.0260   22.4520 H   0  0  0  0  0  0  0  0  0  0  0  0
  -21.0980  -13.1500   22.2310 H   0  0  0  0  0  0  0  0  0  0  0  0
  -25.3800  -15.2430   20.3150 N   0  0  0  0  0  0  0  0  0  0  0  0
  -24.6110  -15.8980   20.4060 H   0  0  0  0  0  0  0  0  0  0  0  0
  -26.2380  -15.6810   20.0030 H   0  0  0  0  0  0  0  0  0  0  0  0
  3  1  1  6
  2  3  1  0
  3 49  1  0
  3  4  1  0
  6  4  1  0
  6  5  1  0
  7  8  1  0
  7  6  1  0
  9 20  2  0
 10  8  1  0
 10 15  1  0
 11 19  1  0
 11 21  1  0
 12 18  1  0
 12 14  1  0
 13 19  1  0
 14 15  2  0
 14 13  1  0
 16 17  1  0
 16 10  2  0
 17 12  2  0
 18 11  1  0
 19  9  1  0
 21 23  2  0
 22 21  1  0
 24 22  1  0
 25 34  2  0
 25 30  1  0
 26 22  1  0
 26 30  1  0
 27 26  1  0
 28 29  1  0
 28 27  1  0
 29 25  1  0
 30 31  2  0
 31 32  1  0
 33 32  2  0
 34 33  1  0
 35  9  1  0
 35 36  1  0
 35 45  1  0
 36 39  1  0
 37 41  1  0
 37 36  1  0
 38 37  2  0
 41 40  1  0
 43 41  1  0
 43 44  1  0
 43 42  1  0
 45 48  1  1
 45 46  1  0
 47 45  1  0
 49 50  1  0
 50 53  1  0
 50 51  1  0
 52 50  1  0
 53 54  1  0
 54 55  1  0
 56 64  1  0
 57 62  1  0
 58 59  1  0
 58 57  1  0
 60 59  1  0
 60 69  1  0
 60 61  1  0
 62 56  1  0
 62 61  1  0
 63 56  2  0
 64 55  1  0
 64 65  1  0
 66 67  2  0
 67 86  1  0
 68 67  1  0
 68 71  1  0
 69 66  1  0
 69 70  1  0
 70 68  2  0
 71 72  1  0
 72 73  2  0
 74 77  1  0
 74 73  1  0
 75 74  2  0
 76 75  1  0
 76 71  2  0
 77 78  1  0
 78 79  1  0
 79 80  2  0
 81 80  1  0
 81 85  1  0
 82 81  2  0
 83 78  2  0
 83 82  1  0
 84 83  1  0
 86 87  1  0
 87 90  1  0
 87 89  1  0
 88 86  2  0
 91 92  1  0
 91 66  1  0
 93 91  1  0
M  ISO  4   7 101   8 101  56 100  64 100
M  END
>  <TORSDO>  (27) 
F 24

>  <SCORE>  (27) 
-12.597

>  <name>  (27) 
26

>  <ligand_id>  (27) 
26

>  <original_smiles>  (27) 
[H]c1c([H])c([H])c2c(c1[H])C([H])([H])C([H])([H])C([H])([H])C2([H])N([H])C(=O)C1([H])N(C(=O)C([H])(N([H])C(=O)C([H])(N([H])C([H])([H])[H])C([H])([H])[H])C(C([H])([H])[H])(C([H])([H])[H])C([H])([H])[H])C([H])([H])c2c([H])c(OC([H])([H])C([H])(C([H])([H])[H])C([H])([H])C(C([H])([H])[H])(C([H])([H])[H])C([H])([H])[N+]([H])([H])C([H])([H])C([H])([H])C([H])([H])N([H])C(=O)N3C([H])([H])C([H])([H])C([H])([H])C([H])(n4nc(-c5c([H])c([H])c(Oc6c([H])c([H])c(F)c([H])c6F)c([H])c5[H])c(C(=O)N([H])[H])c4N([H])[H])C3([H])[H])c([H])c([H])c2C1([H])[H]

>  <smiles>  (27) 
[H]c1c([H])c([H])c2c(c1[H])C([H])([H])C([H])([H])C([H])([H])C2([H])N([H])C(=O)C1([H])N(C(=O)C([H])(N([H])C(=O)C([H])(N([H])C([H])([H])[H])C([H])([H])[H])C(C([H])([H])[H])(C([H])([H])[H])C([H])([H])[H])C([H])([H])c2c([H])c(OC([H])([H])C([H])(C([H])([H])[H])C([H])([H])C(C([H])([H])[H])(C([H])([H])[H])C([H])([H])[N+]([H])([H])C([H])([H])C([H])([H])C([H])([H])N([H])C(=O)N3C([H])([H])C([H])([H])C([H])([H])C([H])(n4nc(-c5c([H])c([H])c(Oc6c([H])c([H])c(F)c([H])c6F)c([H])c5[H])c(C(=O)N([H])[H])c4N([H])[H])C3([H])[H])c([H])c([H])c2C1([H])[H]

$$$$
27:0:0
     RDKit          3D

 91 99  0  0  1  0  0  0  0  0999 V2000
  -30.0250  -20.4250   21.7770 C   0  0  0  0  0  3  0  0  0  0  0  0
  -29.2370  -19.1250   19.9320 C   0  0  0  0  0  3  0  0  0  0  0  0
  -29.2160  -20.4390   20.6280 C   0  0  0  0  0  0  0  0  0  0  0  0
  -30.7210  -19.2520   22.1630 C   0  0  0  0  0  0  0  0  0  0  0  0
  -30.0150  -17.9130   20.3370 C   0  0  0  0  0  0  0  0  0  0  0  0
  -30.7370  -18.0770   21.4700 N   0  0  0  0  0  0  0  0  0  0  0  0
  -30.6910  -15.2920   19.8620 C   0  0  0  0  0  0  0  0  0  0  0  0
  -30.4790  -12.9340   18.9140 C   0  0  0  0  0  2  0  0  0  0  0  0
  -29.4640  -12.8260   17.7520 C   0  0  0  0  0  2  0  0  0  0  0  0
  -28.0220  -12.6710   18.2770 C   0  0  0  0  0  2  0  0  0  0  0  0
  -27.6970  -13.6040   19.4740 C   0  0  0  0  0  3  0  0  0  0  0  0
  -28.8310  -13.6340   20.5210 C   0  0  0  0  0  2  0  0  0  0  0  0
  -30.0480  -14.0480   19.8110 N   0  0  0  0  0  0  0  0  0  0  0  0
  -31.9080  -15.2730   19.6400 O   0  0  0  0  0  0  0  0  0  0  0  0
  -29.3400  -16.5960   18.3360 C   0  0  0  0  0  1  0  0  0  0  0  0
  -29.9580  -16.5240   19.6630 N   0  0  0  0  0  0  0  0  0  0  0  0
  -25.3880  -14.2010   20.4010 C   0  0  0  0  0  0  0  0  0  0  0  0
  -24.3370  -13.4320   20.8200 C   0  0  0  0  0  0  0  0  0  0  0  0
  -24.7750  -12.0770   20.7220 C   0  0  0  0  0  0  0  0  0  0  0  0
  -26.3960  -13.3120   20.0650 N   0  0  0  0  0  0  0  0  0  0  0  0
  -26.0420  -12.0270   20.3270 N   0  0  0  0  0  0  0  0  0  0  0  0
  -24.0420  -10.8200   20.9260 C   0  0  0  0  0  0  0  0  0  0  0  0
  -24.4860   -9.8430   21.8460 C   0  0  0  0  0  3  0  0  0  0  0  0
  -23.7510   -8.6530   22.0370 C   0  0  0  0  0  3  0  0  0  0  0  0
  -22.5580   -8.4310   21.3080 C   0  0  0  0  0  0  0  0  0  0  0  0
  -22.1340   -9.3950   20.3750 C   0  0  0  0  0  3  0  0  0  0  0  0
  -22.8710  -10.5760   20.1830 C   0  0  0  0  0  3  0  0  0  0  0  0
  -21.7950   -7.2930   21.4080 O   0  0  0  0  0  0  0  0  0  0  0  0
  -21.7270   -6.5710   22.5720 C   0  0  0  0  0  0  0  0  0  0  0  0
  -21.2740   -7.1480   23.7790 C   0  0  0  0  0  3  0  0  0  0  0  0
  -21.1530   -6.3540   24.9370 C   0  0  0  0  0  3  0  0  0  0  0  0
  -21.4740   -4.9830   24.8880 C   0  0  0  0  0  0  0  0  0  0  0  0
  -21.9160   -4.4060   23.6840 C   0  0  0  0  0  3  0  0  0  0  0  0
  -22.0410   -5.1980   22.5300 C   0  0  0  0  0  0  0  0  0  0  0  0
  -22.4500   -4.6320   21.3690 F   0  0  0  0  0  0  0  0  0  0  0  0
  -21.3500   -4.2180   25.9980 F   0  0  0  0  0  0  0  0  0  0  0  0
  -22.9680  -13.9260   21.1950 C   0  0  0  0  0  0  0  0  0  0  0  0
  -22.2930  -13.2270   22.0990 N   0  0  0  0  0  0  0  0  0  0  0  0
  -22.5140  -14.9650   20.7240 O   0  0  0  0  0  0  0  0  0  0  0  0
  -22.6760  -12.3840   22.5000 H   0  0  0  0  0  0  0  0  0  0  0  0
  -21.3810  -13.5430   22.3980 H   0  0  0  0  0  0  0  0  0  0  0  0
  -25.5690  -15.5740   20.2510 N   0  0  0  0  0  0  0  0  0  0  0  0
  -24.8290  -16.2420   20.4380 H   0  0  0  0  0  0  0  0  0  0  0  0
  -26.4140  -16.0070   19.9020 H   0  0  0  0  0  0  0  0  0  0  0  0
  -32.9440  -19.0690   23.3840 C   0  0  0  0  0  1  0  0  0  0  0  0
  -30.7840  -18.1660   24.4370 C   0  0  0  0  0  1  0  0  0  0  0  0
  -31.4220  -19.2220   23.5160 C   0  0  0  0  0  3  0  0  0  0  0  0
  -28.2930  -21.7790   20.3010 C   0  0  0  0  0  2  0  0  0  0  0  0
  -28.5620  -23.3990   20.7440 C   0  0  0  0  0  3  0  0  0  0  0  0
  -27.5870  -24.7230   20.3090 C   0  0  0  0  0  3  0  0  0  0  0  0
  -27.8720  -26.2600   20.4100 O   0  0  0  0  0  0  0  0  0  0  0  0
  -24.4310  -32.1210   23.2570 C   0  0  0  0  0  0  0  0  0  0  0  0
  -26.8390  -27.2670   20.3080 C   0  0  0  0  0  0  0  0  0  0  0  0
  -23.1630  -30.7100   21.6830 C   0  0  0  0  0  3  0  0  0  0  0  0
  -24.5450  -29.0640   20.2700 C   0  0  0  0  0  0  0  0  0  0  0  0
  -25.7180  -30.9110   21.4560 C   0  0  0  0  0  2  0  0  0  0  0  0
  -25.7460  -29.5010   20.8410 C   0  0  0  0  0  0  0  0  0  0  0  0
  -26.8930  -28.6180   20.8450 C   0  0  0  0  0  3  0  0  0  0  0  0
  -25.6160  -26.9390   19.6810 C   0  0  0  0  0  3  0  0  0  0  0  0
  -24.4930  -27.7940   19.6750 C   0  0  0  0  0  3  0  0  0  0  0  0
  -23.3360  -29.9880   20.3200 C   0  0  0  0  0  2  0  0  0  0  0  0
  -24.4590  -31.2720   22.1860 N   0  0  0  0  0  0  0  0  0  0  0  0
  -23.3640  -32.4460   23.8000 O   0  0  0  0  0  0  0  0  0  0  0  0
  -22.4860  -29.7460   22.6880 C   0  0  0  0  0  0  0  0  0  0  0  0
  -21.1670  -29.5290   22.5360 N   0  0  0  0  0  0  0  0  0  0  0  0
  -23.1500  -29.1940   23.5690 O   0  0  0  0  0  0  0  0  0  0  0  0
  -20.6880  -30.0210   21.7950 H   0  0  0  0  0  0  0  0  0  0  0  0
  -17.8300  -28.1920   22.9620 C   0  0  0  0  0  0  0  0  0  0  0  0
  -20.3510  -28.6200   23.3440 C   0  0  0  0  0  3  0  0  0  0  0  0
  -20.5600  -27.1510   22.9090 C   0  0  0  0  0  2  0  0  0  0  0  0
  -19.5390  -26.6790   21.8690 C   0  0  0  0  0  2  0  0  0  0  0  0
  -18.1150  -26.8010   22.4190 C   0  0  0  0  0  2  0  0  0  0  0  0
  -18.8800  -29.0510   23.3810 C   0  0  0  0  0  0  0  0  0  0  0  0
  -18.5600  -30.3440   23.8480 C   0  0  0  0  0  3  0  0  0  0  0  0
  -17.2240  -30.7810   23.9010 C   0  0  0  0  0  3  0  0  0  0  0  0
  -16.1870  -29.9220   23.4960 C   0  0  0  0  0  3  0  0  0  0  0  0
  -16.4900  -28.6300   23.0320 C   0  0  0  0  0  3  0  0  0  0  0  0
  -25.7370  -32.7440   23.8370 C   0  0  0  0  0  3  0  0  0  0  0  0
  -26.2630  -31.9960   25.1250 C   0  0  1  0  0  0  0  0  0  0  0  0
  -25.1820  -31.8030   26.2130 C   0  0  0  0  0  1  0  0  0  0  0  0
  -26.8220  -30.6000   24.7630 C   0  0  0  0  0  1  0  0  0  0  0  0
  -27.4310  -32.7920   25.7520 C   0  0  0  0  0  1  0  0  0  0  0  0
  -25.4600  -34.1560   24.1450 N   0  0  0  0  0  0  0  0  0  0  0  0
  -25.8270  -35.1930   23.3810 C   0  0  0  0  0  0  0  0  0  0  0  0
  -26.5030  -35.0610   22.3580 O   0  0  0  0  0  0  0  0  0  0  0  0
  -24.8580  -34.3340   24.9360 H   0  0  0  0  0  0  0  0  0  0  0  0
  -24.1630  -37.0430   22.9880 C   0  0  0  0  0  1  0  0  0  0  0  0
  -25.3750  -36.5990   23.8230 C   0  0  0  0  0  3  0  0  0  0  0  0
  -27.5180  -37.4260   24.6940 C   0  0  0  0  0  1  0  0  0  0  0  0
  -26.4410  -37.6200   23.7260 N   0  0  0  0  0  0  0  0  0  0  0  0
  -26.0600  -38.5520   23.8590 H   0  0  0  0  0  0  0  0  0  0  0  0
  1  4  1  0
  2  5  2  0
  2  3  1  0
  3  1  2  0
  4 47  1  0
  5  6  1  0
  6  4  2  0
  8 13  1  0
  9 10  1  0
  9  8  1  0
 11 10  1  0
 11 20  1  0
 11 12  1  0
 13  7  1  0
 13 12  1  0
 14  7  2  0
 15 16  1  0
 16  7  1  0
 16  5  1  0
 17 18  2  0
 18 37  1  0
 19 18  1  0
 19 22  1  0
 20 21  1  0
 20 17  1  0
 21 19  2  0
 22 23  1  0
 23 24  2  0
 25 28  1  0
 25 24  1  0
 26 25  2  0
 27 26  1  0
 27 22  2  0
 28 29  1  0
 29 30  1  0
 30 31  2  0
 32 31  1  0
 32 36  1  0
 33 32  2  0
 34 29  2  0
 34 33  1  0
 35 34  1  0
 37 38  1  0
 38 41  1  0
 38 40  1  0
 39 37  2  0
 42 17  1  0
 42 43  1  0
 44 42  1  0
 45 47  1  0
 47 46  1  0
 48  3  1  0
 48 49  1  0
 50 51  1  0
 50 49  2  0
 52 63  2  0
 53 51  1  0
 53 58  1  0
 54 62  1  0
 54 64  1  0
 55 61  1  0
 55 57  1  0
 56 62  1  0
 57 58  2  0
 57 56  1  0
 59 53  2  0
 60 59  1  0
 60 55  2  0
 61 54  1  0
 62 52  1  0
 64 66  2  0
 65 64  1  0
 67 65  1  0
 68 77  2  0
 68 73  1  0
 69 65  1  0
 69 73  1  0
 70 69  1  0
 71 72  1  0
 71 70  1  0
 72 68  1  0
 73 74  2  0
 74 75  1  0
 76 75  2  0
 77 76  1  0
 78 52  1  0
 78 83  1  0
 78 79  1  0
 79 82  1  1
 79 80  1  0
 81 79  1  0
 83 86  1  0
 84 88  1  0
 84 83  1  0
 85 84  2  0
 88 87  1  0
 90 88  1  0
 90 91  1  0
 90 89  1  0
M  ISO  4   7 100  16 100  50 101  51 101
M  END
>  <TORSDO>  (28) 
F 20

>  <SCORE>  (28) 
-10.645

>  <name>  (28) 
27

>  <ligand_id>  (28) 
27

>  <original_smiles>  (28) 
[H]c1c([H])c([H])c2c(c1[H])C([H])([H])C([H])([H])C([H])([H])C2([H])N([H])C(=O)C1([H])N(C(=O)C([H])(N([H])C(=O)C([H])(N([H])C([H])([H])[H])C([H])([H])[H])C(C([H])([H])[H])(C([H])([H])[H])C([H])([H])[H])C([H])([H])c2c([H])c(OC([H])([H])C([H])([H])C([H])([H])c3c([H])c(N(C(=O)N4C([H])([H])C([H])([H])C([H])([H])C([H])(n5nc(-c6c([H])c([H])c(Oc7c([H])c([H])c(F)c([H])c7F)c([H])c6[H])c(C(=O)N([H])[H])c5N([H])[H])C4([H])[H])C([H])([H])[H])nc(C([H])(C([H])([H])[H])C([H])([H])[H])c3[H])c([H])c([H])c2C1([H])[H]

>  <smiles>  (28) 
[H]c1c([H])c([H])c2c(c1[H])C([H])([H])C([H])([H])C([H])([H])C2([H])N([H])C(=O)C1([H])N(C(=O)C([H])(N([H])C(=O)C([H])(N([H])C([H])([H])[H])C([H])([H])[H])C(C([H])([H])[H])(C([H])([H])[H])C([H])([H])[H])C([H])([H])c2c([H])c(OC([H])([H])C([H])([H])C([H])([H])c3c([H])c(N(C(=O)N4C([H])([H])C([H])([H])C([H])([H])C([H])(n5nc(-c6c([H])c([H])c(Oc7c([H])c([H])c(F)c([H])c7F)c([H])c6[H])c(C(=O)N([H])[H])c5N([H])[H])C4([H])[H])C([H])([H])[H])nc(C([H])(C([H])([H])[H])C([H])([H])[H])c3[H])c([H])c([H])c2C1([H])[H]

$$$$
28:0:0
     RDKit          3D

 89 97  0  0  1  0  0  0  0  0999 V2000
  -28.6350  -20.3720   19.9840 C   0  0  0  0  0  3  0  0  0  0  0  0
  -29.5350  -19.3090   20.3440 C   0  0  0  0  0  0  0  0  0  0  0  0
  -30.3890  -20.0830   21.1960 C   0  0  0  0  0  0  0  0  0  0  0  0
  -30.0500  -21.4290   21.3000 C   0  0  0  0  0  0  0  0  0  0  0  0
  -30.7080  -22.5090   22.1000 C   0  0  0  0  0  1  0  0  0  0  0  0
  -28.9080  -21.7090   20.5420 N   0  0  0  0  0  0  0  0  0  0  0  0
  -31.7660  -19.4010   21.9820 Cl  0  0  0  0  0  0  0  0  0  0  0  0
  -29.8050  -17.7180   19.8110 C   0  0  0  0  0  2  0  0  0  0  0  0
  -30.4810  -15.0500   20.2730 C   0  0  0  0  0  0  0  0  0  0  0  0
  -30.3740  -12.6710   19.3630 C   0  0  0  0  0  2  0  0  0  0  0  0
  -29.4390  -12.6120   18.1310 C   0  0  0  0  0  2  0  0  0  0  0  0
  -27.9810  -12.3890   18.5700 C   0  0  0  0  0  2  0  0  0  0  0  0
  -27.5760  -13.3120   19.7480 C   0  0  0  0  0  3  0  0  0  0  0  0
  -28.6350  -13.3420   20.8720 C   0  0  0  0  0  2  0  0  0  0  0  0
  -29.8980  -13.7740   20.2600 N   0  0  0  0  0  0  0  0  0  0  0  0
  -31.6630  -15.1020   19.9170 O   0  0  0  0  0  0  0  0  0  0  0  0
  -29.7160  -16.2550   20.4660 N   0  0  0  0  0  0  0  0  0  0  0  0
  -28.8040  -16.0660   20.8560 H   0  0  0  0  0  0  0  0  0  0  0  0
  -25.2000  -13.8790   20.5010 C   0  0  0  0  0  0  0  0  0  0  0  0
  -24.1400  -13.1020   20.8770 C   0  0  0  0  0  0  0  0  0  0  0  0
  -24.6070  -11.7520   20.8430 C   0  0  0  0  0  0  0  0  0  0  0  0
  -26.2430  -13.0050   20.2540 N   0  0  0  0  0  0  0  0  0  0  0  0
  -25.8980  -11.7190   20.5260 N   0  0  0  0  0  0  0  0  0  0  0  0
  -23.8830  -10.4890   21.0370 C   0  0  0  0  0  0  0  0  0  0  0  0
  -24.3240   -9.5180   21.9630 C   0  0  0  0  0  3  0  0  0  0  0  0
  -23.5980   -8.3210   22.1450 C   0  0  0  0  0  3  0  0  0  0  0  0
  -22.4170   -8.0860   21.4020 C   0  0  0  0  0  0  0  0  0  0  0  0
  -21.9960   -9.0460   20.4640 C   0  0  0  0  0  3  0  0  0  0  0  0
  -22.7220  -10.2330   20.2790 C   0  0  0  0  0  3  0  0  0  0  0  0
  -21.6620   -6.9420   21.4940 O   0  0  0  0  0  0  0  0  0  0  0  0
  -21.6290   -6.1920   22.6420 C   0  0  0  0  0  0  0  0  0  0  0  0
  -21.2270   -6.7410   23.8790 C   0  0  0  0  0  3  0  0  0  0  0  0
  -21.1400   -5.9180   25.0200 C   0  0  0  0  0  3  0  0  0  0  0  0
  -21.4440   -4.5480   24.9240 C   0  0  0  0  0  0  0  0  0  0  0  0
  -21.8400   -3.9980   23.6920 C   0  0  0  0  0  3  0  0  0  0  0  0
  -21.9280   -4.8180   22.5540 C   0  0  0  0  0  0  0  0  0  0  0  0
  -22.2890   -4.2780   21.3650 F   0  0  0  0  0  0  0  0  0  0  0  0
  -21.3540   -3.7550   26.0190 F   0  0  0  0  0  0  0  0  0  0  0  0
  -22.7440  -13.5770   21.1540 C   0  0  0  0  0  0  0  0  0  0  0  0
  -22.0200  -12.8800   22.0220 N   0  0  0  0  0  0  0  0  0  0  0  0
  -22.3040  -14.6030   20.6350 O   0  0  0  0  0  0  0  0  0  0  0  0
  -22.3900  -12.0510   22.4640 H   0  0  0  0  0  0  0  0  0  0  0  0
  -21.0830  -13.1810   22.2510 H   0  0  0  0  0  0  0  0  0  0  0  0
  -25.3580  -15.2510   20.3220 N   0  0  0  0  0  0  0  0  0  0  0  0
  -24.5850  -15.8980   20.4330 H   0  0  0  0  0  0  0  0  0  0  0  0
  -26.1920  -15.6910   19.9560 H   0  0  0  0  0  0  0  0  0  0  0  0
  -28.0890  -23.1100   20.5850 C   0  0  0  0  0  2  0  0  0  0  0  0
  -28.3980  -24.6350   19.8650 C   0  0  0  0  0  2  0  0  0  0  0  0
  -28.2540  -26.1290   20.3770 O   0  0  0  0  0  0  0  0  0  0  0  0
  -24.6080  -31.8690   23.2400 C   0  0  0  0  0  0  0  0  0  0  0  0
  -27.1820  -27.0990   20.2410 C   0  0  0  0  0  0  0  0  0  0  0  0
  -23.4070  -30.4630   21.6070 C   0  0  0  0  0  3  0  0  0  0  0  0
  -24.8540  -28.8670   20.1880 C   0  0  0  0  0  0  0  0  0  0  0  0
  -25.9610  -30.7150   21.4430 C   0  0  0  0  0  2  0  0  0  0  0  0
  -26.0320  -29.3140   20.7990 C   0  0  0  0  0  0  0  0  0  0  0  0
  -27.1890  -28.4440   20.8090 C   0  0  0  0  0  3  0  0  0  0  0  0
  -25.9820  -26.7590   19.5830 C   0  0  0  0  0  3  0  0  0  0  0  0
  -24.8460  -27.6070   19.5630 C   0  0  0  0  0  3  0  0  0  0  0  0
  -23.6280  -29.7700   20.2320 C   0  0  0  0  0  2  0  0  0  0  0  0
  -24.6790  -31.0400   22.1510 N   0  0  0  0  0  0  0  0  0  0  0  0
  -23.5220  -32.1580   23.7660 O   0  0  0  0  0  0  0  0  0  0  0  0
  -22.7250  -29.4670   22.5790 C   0  0  0  0  0  0  0  0  0  0  0  0
  -21.3950  -29.3020   22.4570 N   0  0  0  0  0  0  0  0  0  0  0  0
  -23.3950  -28.8450   23.4070 O   0  0  0  0  0  0  0  0  0  0  0  0
  -20.9110  -29.8550   21.7640 H   0  0  0  0  0  0  0  0  0  0  0  0
  -18.0130  -28.1080   22.9690 C   0  0  0  0  0  0  0  0  0  0  0  0
  -20.5720  -28.3720   23.2340 C   0  0  0  0  0  3  0  0  0  0  0  0
  -20.6720  -26.9350   22.6700 C   0  0  0  0  0  2  0  0  0  0  0  0
  -19.5700  -26.6070   21.6570 C   0  0  0  0  0  2  0  0  0  0  0  0
  -18.1880  -26.7560   22.2990 C   0  0  0  0  0  2  0  0  0  0  0  0
  -19.1320  -28.8730   23.3930 C   0  0  0  0  0  0  0  0  0  0  0  0
  -18.9110  -30.1380   23.9810 C   0  0  0  0  0  3  0  0  0  0  0  0
  -17.6060  -30.6380   24.1470 C   0  0  0  0  0  3  0  0  0  0  0  0
  -16.5020  -29.8710   23.7370 C   0  0  0  0  0  3  0  0  0  0  0  0
  -16.7060  -28.6080   23.1540 C   0  0  0  0  0  3  0  0  0  0  0  0
  -25.8850  -32.5080   23.8650 C   0  0  0  0  0  3  0  0  0  0  0  0
  -26.3930  -31.7490   25.1530 C   0  0  1  0  0  0  0  0  0  0  0  0
  -25.2940  -31.5290   26.2200 C   0  0  0  0  0  1  0  0  0  0  0  0
  -26.9710  -30.3640   24.7830 C   0  0  0  0  0  1  0  0  0  0  0  0
  -27.5450  -32.5450   25.8110 C   0  0  0  0  0  1  0  0  0  0  0  0
  -25.5740  -33.9100   24.1900 N   0  0  0  0  0  0  0  0  0  0  0  0
  -25.9090  -34.9650   23.4340 C   0  0  0  0  0  0  0  0  0  0  0  0
  -26.5790  -34.8590   22.4030 O   0  0  0  0  0  0  0  0  0  0  0  0
  -24.9780  -34.0650   24.9900 H   0  0  0  0  0  0  0  0  0  0  0  0
  -24.1850  -36.7660   23.0860 C   0  0  0  0  0  1  0  0  0  0  0  0
  -25.4280  -36.3560   23.8930 C   0  0  0  0  0  3  0  0  0  0  0  0
  -27.5670  -37.2380   24.7160 C   0  0  0  0  0  1  0  0  0  0  0  0
  -26.4630  -37.4070   23.7760 N   0  0  0  0  0  0  0  0  0  0  0  0
  -26.0610  -38.3280   23.9220 H   0  0  0  0  0  0  0  0  0  0  0  0
  1  2  2  0
  1  6  1  0
  2  3  1  0
  3  4  2  0
  3  7  1  0
  4  5  1  0
  6 47  1  0
  6  4  1  0
  8  2  1  0
  8 17  1  0
  9 17  1  0
 10 15  1  0
 11 12  1  0
 11 10  1  0
 13 12  1  0
 13 22  1  0
 13 14  1  0
 15  9  1  0
 15 14  1  0
 16  9  2  0
 17 18  1  0
 19 20  2  0
 20 39  1  0
 21 20  1  0
 21 24  1  0
 22 19  1  0
 22 23  1  0
 23 21  2  0
 24 25  1  0
 25 26  2  0
 27 30  1  0
 27 26  1  0
 28 27  2  0
 29 28  1  0
 29 24  2  0
 30 31  1  0
 31 32  1  0
 32 33  2  0
 34 33  1  0
 34 38  1  0
 35 34  2  0
 36 31  2  0
 36 35  1  0
 37 36  1  0
 39 40  1  0
 40 43  1  0
 40 42  1  0
 41 39  2  0
 44 45  1  0
 44 19  1  0
 46 44  1  0
 48 49  1  0
 48 47  1  0
 50 61  2  0
 51 49  1  0
 51 56  1  0
 52 60  1  0
 52 62  1  0
 53 59  1  0
 53 55  1  0
 54 60  1  0
 55 56  2  0
 55 54  1  0
 57 51  2  0
 58 57  1  0
 58 53  2  0
 59 52  1  0
 60 50  1  0
 62 64  2  0
 63 62  1  0
 65 63  1  0
 66 75  2  0
 66 71  1  0
 67 63  1  0
 67 71  1  0
 68 67  1  0
 69 70  1  0
 69 68  1  0
 70 66  1  0
 71 72  2  0
 72 73  1  0
 74 73  2  0
 75 74  1  0
 76 50  1  0
 76 81  1  0
 76 77  1  0
 77 80  1  1
 77 78  1  0
 79 77  1  0
 81 84  1  0
 82 86  1  0
 82 81  1  0
 83 82  2  0
 86 85  1  0
 88 86  1  0
 88 89  1  0
 88 87  1  0
M  ISO  4   9 100  17 100  48 101  49 101
M  END
>  <TORSDO>  (29) 
F 19

>  <SCORE>  (29) 
-15.906

>  <name>  (29) 
28

>  <ligand_id>  (29) 
28

>  <original_smiles>  (29) 
[H]c1c([H])c([H])c2c(c1[H])C([H])([H])C([H])([H])C([H])([H])C2([H])N([H])C(=O)C1([H])N(C(=O)C([H])(N([H])C(=O)C([H])(N([H])C([H])([H])[H])C([H])([H])[H])C(C([H])([H])[H])(C([H])([H])[H])C([H])([H])[H])C([H])([H])c2c([H])c(OC([H])([H])C([H])([H])n3c([H])c(C([H])([H])N([H])C(=O)N4C([H])([H])C([H])([H])C([H])([H])C([H])(n5nc(-c6c([H])c([H])c(Oc7c([H])c([H])c(F)c([H])c7F)c([H])c6[H])c(C(=O)N([H])[H])c5N([H])[H])C4([H])[H])c(Cl)c3C([H])([H])[H])c([H])c([H])c2C1([H])[H]

>  <smiles>  (29) 
[H]c1c([H])c([H])c2c(c1[H])C([H])([H])C([H])([H])C([H])([H])C2([H])N([H])C(=O)C1([H])N(C(=O)C([H])(N([H])C(=O)C([H])(N([H])C([H])([H])[H])C([H])([H])[H])C(C([H])([H])[H])(C([H])([H])[H])C([H])([H])[H])C([H])([H])c2c([H])c(OC([H])([H])C([H])([H])n3c([H])c(C([H])([H])N([H])C(=O)N4C([H])([H])C([H])([H])C([H])([H])C([H])(n5nc(-c6c([H])c([H])c(Oc7c([H])c([H])c(F)c([H])c7F)c([H])c6[H])c(C(=O)N([H])[H])c5N([H])[H])C4([H])[H])c(Cl)c3C([H])([H])[H])c([H])c([H])c2C1([H])[H]

$$$$
29:0:0
     RDKit          3D

 99107  0  0  1  0  0  0  0  0999 V2000
  -26.1150  -19.7340   18.7890 C   0  0  0  0  0  3  0  0  0  0  0  0
  -28.7770  -20.3560   19.3680 C   0  0  0  0  0  3  0  0  0  0  0  0
  -27.0650  -18.7040   18.8900 C   0  0  0  0  0  0  0  0  0  0  0  0
  -28.3650  -19.0040   19.3710 C   0  0  0  0  0  0  0  0  0  0  0  0
  -27.8450  -21.4020   19.1360 C   0  0  0  0  0  0  0  0  0  0  0  0
  -26.4600  -21.0740   19.0780 C   0  0  0  0  0  0  0  0  0  0  0  0
  -26.6410  -17.2830   18.5670 C   0  0  0  0  0  1  0  0  0  0  0  0
  -24.0130  -21.3830   19.8640 C   0  0  0  0  0  1  0  0  0  0  0  0
  -25.0840  -23.2470   18.5760 C   0  0  0  0  0  1  0  0  0  0  0  0
  -25.3580  -22.0630   19.5120 C   0  0  0  0  0  3  0  0  0  0  0  0
  -28.3570  -22.8280   18.9400 C   0  0  0  0  0  2  0  0  0  0  0  0
  -27.8080  -23.4450   17.6240 C   0  0  0  0  0  2  0  0  0  0  0  0
  -29.9550  -24.7720   17.3020 C   0  0  0  0  0  1  0  0  0  0  0  0
  -28.7710  -24.0820   16.5940 C   0  0  0  0  0  3  0  0  0  0  0  0
  -27.9110  -25.0700   15.7650 C   0  0  0  0  0  2  0  0  0  0  0  0
  -28.5840  -26.2800   15.0820 C   0  0  0  0  0  2  0  0  0  0  0  0
  -27.6060  -27.2290   14.6270 O   0  0  0  0  0  0  0  0  0  0  0  0
  -25.4430  -27.4970   21.3940 C   0  0  0  0  0  0  0  0  0  0  0  0
  -26.5790  -27.4820   15.5070 C   0  0  0  0  0  0  0  0  0  0  0  0
  -23.6570  -27.6120   19.6840 C   0  0  0  0  0  3  0  0  0  0  0  0
  -24.4420  -27.9750   17.2840 C   0  0  0  0  0  0  0  0  0  0  0  0
  -26.0100  -28.4670   19.1740 C   0  0  0  0  0  2  0  0  0  0  0  0
  -25.7680  -28.0860   17.7290 C   0  0  0  0  0  0  0  0  0  0  0  0
  -26.8390  -27.8350   16.8460 C   0  0  0  0  0  3  0  0  0  0  0  0
  -25.2440  -27.3970   15.0620 C   0  0  0  0  0  3  0  0  0  0  0  0
  -24.1720  -27.6240   15.9490 C   0  0  0  0  0  3  0  0  0  0  0  0
  -23.3550  -28.2490   18.2980 C   0  0  0  0  0  2  0  0  0  0  0  0
  -25.0730  -27.8320   20.1260 N   0  0  0  0  0  0  0  0  0  0  0  0
  -24.6210  -27.0600   22.2070 O   0  0  0  0  0  0  0  0  0  0  0  0
  -23.2540  -26.1210   19.6410 C   0  0  0  0  0  0  0  0  0  0  0  0
  -21.9360  -25.8580   19.6350 N   0  0  0  0  0  0  0  0  0  0  0  0
  -24.1150  -25.2370   19.5800 O   0  0  0  0  0  0  0  0  0  0  0  0
  -21.2960  -26.6390   19.6550 H   0  0  0  0  0  0  0  0  0  0  0  0
  -18.7800  -24.1090   19.4120 C   0  0  0  0  0  0  0  0  0  0  0  0
  -21.3260  -24.5340   19.5510 C   0  0  0  0  0  3  0  0  0  0  0  0
  -21.3920  -23.9820   18.1060 C   0  0  0  0  0  2  0  0  0  0  0  0
  -20.1360  -24.2850   17.2800 C   0  0  0  0  0  2  0  0  0  0  0  0
  -18.9000  -23.6920   17.9550 C   0  0  0  0  0  2  0  0  0  0  0  0
  -19.9190  -24.5220   20.1580 C   0  0  0  0  0  0  0  0  0  0  0  0
  -19.7510  -24.9360   21.4970 C   0  0  0  0  0  3  0  0  0  0  0  0
  -18.4760  -24.9400   22.0970 C   0  0  0  0  0  3  0  0  0  0  0  0
  -17.3540  -24.5220   21.3560 C   0  0  0  0  0  3  0  0  0  0  0  0
  -17.5090  -24.1040   20.0220 C   0  0  0  0  0  3  0  0  0  0  0  0
  -26.9140  -27.6760   21.8910 C   0  0  0  0  0  3  0  0  0  0  0  0
  -26.8570  -28.0460   23.3120 N   0  0  0  0  0  0  0  0  0  0  0  0
  -26.9980  -29.2910   23.7800 C   0  0  0  0  0  0  0  0  0  0  0  0
  -27.2600  -30.2540   23.0530 O   0  0  0  0  0  0  0  0  0  0  0  0
  -26.5880  -27.3160   23.9560 H   0  0  0  0  0  0  0  0  0  0  0  0
  -25.4130  -30.0690   25.5690 C   0  0  0  0  0  1  0  0  0  0  0  0
  -26.8150  -29.5040   25.2930 C   0  0  0  0  0  3  0  0  0  0  0  0
  -29.1720  -29.8020   25.9120 C   0  0  0  0  0  1  0  0  0  0  0  0
  -27.8360  -30.3910   25.8890 N   0  0  0  0  0  0  0  0  0  0  0  0
  -27.5830  -30.6450   26.8400 H   0  0  0  0  0  0  0  0  0  0  0  0
  -27.8040  -26.3900   21.6810 C   0  0  1  0  0  0  0  0  0  0  0  0
  -27.1700  -25.0970   22.2420 C   0  0  0  0  0  1  0  0  0  0  0  0
  -28.0920  -26.1620   20.1770 C   0  0  0  0  0  1  0  0  0  0  0  0
  -29.1740  -26.5830   22.3710 C   0  0  0  0  0  1  0  0  0  0  0  0
  -29.1410  -17.9810   20.2150 C   0  0  0  0  0  2  0  0  0  0  0  0
  -31.5620  -18.6290   20.5100 C   0  0  0  0  0  1  0  0  0  0  0  0
  -30.9150  -17.3050   18.4600 C   0  0  0  0  0  1  0  0  0  0  0  0
  -30.6140  -17.5560   19.9580 C   0  0  2  0  0  0  0  0  0  0  0  0
  -31.5600  -15.2690   20.7220 C   0  0  0  0  0  0  0  0  0  0  0  0
  -31.4850  -12.8200   20.4420 C   0  0  0  0  0  2  0  0  0  0  0  0
  -30.7510  -12.5210   19.1190 C   0  0  0  0  0  2  0  0  0  0  0  0
  -29.2210  -12.4580   19.3270 C   0  0  0  0  0  2  0  0  0  0  0  0
  -28.6800  -13.6680   20.1380 C   0  0  0  0  0  3  0  0  0  0  0  0
  -29.5470  -13.9070   21.4020 C   0  0  0  0  0  2  0  0  0  0  0  0
  -30.9480  -14.0780   20.9780 N   0  0  0  0  0  0  0  0  0  0  0  0
  -32.7220  -15.3630   20.3210 O   0  0  0  0  0  0  0  0  0  0  0  0
  -30.7260  -16.3200   20.7710 N   0  0  0  0  0  0  0  0  0  0  0  0
  -29.8800  -16.0940   21.2770 H   0  0  0  0  0  0  0  0  0  0  0  0
  -26.2760  -14.4690   20.6370 C   0  0  0  0  0  0  0  0  0  0  0  0
  -25.1130  -13.7910   20.8580 C   0  0  0  0  0  0  0  0  0  0  0  0
  -25.4520  -12.4070   20.8020 C   0  0  0  0  0  0  0  0  0  0  0  0
  -27.2610  -13.5060   20.4650 N   0  0  0  0  0  0  0  0  0  0  0  0
  -26.7570  -12.2540   20.6140 N   0  0  0  0  0  0  0  0  0  0  0  0
  -24.5940  -11.2190   20.8540 C   0  0  0  0  0  0  0  0  0  0  0  0
  -24.8960  -10.1270   21.6960 C   0  0  0  0  0  3  0  0  0  0  0  0
  -24.0430   -9.0040   21.7430 C   0  0  0  0  0  3  0  0  0  0  0  0
  -22.8730   -8.9660   20.9480 C   0  0  0  0  0  0  0  0  0  0  0  0
  -22.5910  -10.0450   20.0930 C   0  0  0  0  0  3  0  0  0  0  0  0
  -23.4430  -11.1610   20.0430 C   0  0  0  0  0  3  0  0  0  0  0  0
  -22.0010   -7.9030   20.9060 O   0  0  0  0  0  0  0  0  0  0  0  0
  -21.8900   -7.0290   21.9570 C   0  0  0  0  0  0  0  0  0  0  0  0
  -21.5460   -7.4620   23.2550 C   0  0  0  0  0  3  0  0  0  0  0  0
  -21.3720   -6.5200   24.2890 C   0  0  0  0  0  3  0  0  0  0  0  0
  -21.5310   -5.1470   24.0270 C   0  0  0  0  0  0  0  0  0  0  0  0
  -21.8660   -4.7130   22.7310 C   0  0  0  0  0  3  0  0  0  0  0  0
  -22.0440   -5.6520   21.7010 C   0  0  0  0  0  0  0  0  0  0  0  0
  -22.3490   -5.2260   20.4510 F   0  0  0  0  0  0  0  0  0  0  0  0
  -21.3560   -4.2400   25.0180 F   0  0  0  0  0  0  0  0  0  0  0  0
  -23.7490  -14.3960   21.0180 C   0  0  0  0  0  0  0  0  0  0  0  0
  -22.8790  -13.7540   21.7900 N   0  0  0  0  0  0  0  0  0  0  0  0
  -23.4590  -15.4730   20.5000 O   0  0  0  0  0  0  0  0  0  0  0  0
  -23.1200  -12.8840   22.2390 H   0  0  0  0  0  0  0  0  0  0  0  0
  -21.9630  -14.1510   21.9320 H   0  0  0  0  0  0  0  0  0  0  0  0
  -26.5560  -15.8250   20.5640 N   0  0  0  0  0  0  0  0  0  0  0  0
  -25.8240  -16.5180   20.6570 H   0  0  0  0  0  0  0  0  0  0  0  0
  -27.4570  -16.2290   20.3560 H   0  0  0  0  0  0  0  0  0  0  0  0
  1  3  2  0
  1  6  1  0
  2  4  2  0
  3  4  1  0
  4 58  1  0
  5  2  1  0
  6  5  2  0
  6 10  1  0
  7  3  1  0
  9 10  1  0
 10  8  1  0
 11  5  1  0
 12 11  1  0
 14 13  1  0
 14 12  1  0
 15 14  1  0
 16 15  1  0
 17 16  1  0
 17 19  1  0
 18 29  2  0
 19 24  1  0
 20 30  1  0
 20 28  1  0
 21 23  1  0
 21 27  1  0
 22 28  1  0
 23 22  1  0
 24 23  2  0
 25 19  2  0
 25 26  1  0
 26 21  2  0
 27 20  1  0
 28 18  1  0
 31 30  1  0
 31 33  1  0
 32 30  2  0
 34 43  2  0
 34 39  1  0
 35 31  1  0
 35 39  1  0
 36 35  1  0
 37 38  1  0
 37 36  1  0
 38 34  1  0
 39 40  2  0
 40 41  1  0
 42 41  2  0
 43 42  1  0
 44 18  1  0
 44 45  1  0
 45 46  1  0
 45 48  1  0
 46 50  1  0
 47 46  2  0
 50 49  1  0
 50 52  1  0
 52 51  1  0
 52 53  1  0
 54 44  1  0
 54 55  1  1
 54 57  1  0
 56 54  1  0
 61 60  1  6
 61 58  1  0
 61 59  1  0
 61 70  1  0
 62 70  1  0
 62 68  1  0
 63 68  1  0
 64 65  1  0
 64 63  1  0
 66 65  1  0
 66 75  1  0
 66 67  1  0
 68 67  1  0
 69 62  2  0
 70 71  1  0
 72 73  2  0
 73 92  1  0
 74 77  1  0
 74 73  1  0
 75 76  1  0
 75 72  1  0
 76 74  2  0
 77 78  1  0
 78 79  2  0
 80 79  1  0
 81 80  2  0
 82 81  1  0
 82 77  2  0
 83 80  1  0
 83 84  1  0
 84 85  1  0
 85 86  2  0
 87 86  1  0
 87 91  1  0
 88 87  2  0
 89 84  2  0
 89 88  1  0
 90 89  1  0
 92 93  1  0
 93 96  1  0
 93 95  1  0
 94 92  2  0
 97 72  1  0
 97 98  1  0
 99 97  1  0
M  ISO  4  16 101  17 101  62 100  70 100
M  END
>  <TORSDO>  (30) 
F 24

>  <SCORE>  (30) 
-5.188

>  <name>  (30) 
29

>  <ligand_id>  (30) 
29

>  <original_smiles>  (30) 
[H]c1c([H])c([H])c2c(c1[H])C([H])([H])C([H])([H])C([H])([H])C2([H])N([H])C(=O)C1([H])N(C(=O)C([H])(N([H])C(=O)C([H])(N([H])C([H])([H])[H])C([H])([H])[H])C(C([H])([H])[H])(C([H])([H])[H])C([H])([H])[H])C([H])([H])c2c([H])c(OC([H])([H])C([H])([H])C([H])(C([H])([H])[H])C([H])([H])C([H])([H])c3c([H])c(C([H])([H])C(N([H])C(=O)N4C([H])([H])C([H])([H])C([H])([H])C([H])(n5nc(-c6c([H])c([H])c(Oc7c([H])c([H])c(F)c([H])c7F)c([H])c6[H])c(C(=O)N([H])[H])c5N([H])[H])C4([H])[H])(C([H])([H])[H])C([H])([H])[H])c(C([H])([H])[H])c([H])c3C([H])(C([H])([H])[H])C([H])([H])[H])c([H])c([H])c2C1([H])[H]

>  <smiles>  (30) 
[H]c1c([H])c([H])c2c(c1[H])C([H])([H])C([H])([H])C([H])([H])C2([H])N([H])C(=O)C1([H])N(C(=O)C([H])(N([H])C(=O)C([H])(N([H])C([H])([H])[H])C([H])([H])[H])C(C([H])([H])[H])(C([H])([H])[H])C([H])([H])[H])C([H])([H])c2c([H])c(OC([H])([H])C([H])([H])C([H])(C([H])([H])[H])C([H])([H])C([H])([H])c3c([H])c(C([H])([H])C(N([H])C(=O)N4C([H])([H])C([H])([H])C([H])([H])C([H])(n5nc(-c6c([H])c([H])c(Oc7c([H])c([H])c(F)c([H])c7F)c([H])c6[H])c(C(=O)N([H])[H])c5N([H])[H])C4([H])[H])(C([H])([H])[H])C([H])([H])[H])c(C([H])([H])[H])c([H])c3C([H])(C([H])([H])[H])C([H])([H])[H])c([H])c([H])c2C1([H])[H]

$$$$
30:0:0
     RDKit          3D

 86 93  0  0  1  0  0  0  0  0999 V2000
  -28.9930  -22.3080   20.3470 C   0  0  0  0  0  3  0  0  0  0  0  0
  -28.0470  -23.9510   20.0420 C   0  0  0  0  0  3  0  0  0  0  0  0
  -28.1700  -25.6640   20.3350 O   0  0  0  0  0  0  0  0  0  0  0  0
  -24.6470  -31.8900   23.2390 C   0  0  0  0  0  0  0  0  0  0  0  0
  -27.1830  -26.8450   20.2540 C   0  0  0  0  0  0  0  0  0  0  0  0
  -23.4530  -30.4890   21.6120 C   0  0  0  0  0  3  0  0  0  0  0  0
  -24.8970  -28.8380   20.1940 C   0  0  0  0  0  0  0  0  0  0  0  0
  -26.0310  -30.6420   21.4750 C   0  0  0  0  0  2  0  0  0  0  0  0
  -26.0940  -29.2110   20.8220 C   0  0  0  0  0  0  0  0  0  0  0  0
  -27.2220  -28.2420   20.8160 C   0  0  0  0  0  3  0  0  0  0  0  0
  -25.9540  -26.6690   19.5690 C   0  0  0  0  0  3  0  0  0  0  0  0
  -24.8670  -27.5930   19.5400 C   0  0  0  0  0  3  0  0  0  0  0  0
  -23.6830  -29.7820   20.2440 C   0  0  0  0  0  2  0  0  0  0  0  0
  -24.7360  -31.0370   22.1620 N   0  0  0  0  0  0  0  0  0  0  0  0
  -23.5550  -32.1910   23.7500 O   0  0  0  0  0  0  0  0  0  0  0  0
  -22.7370  -29.5160   22.5870 C   0  0  0  0  0  0  0  0  0  0  0  0
  -21.4080  -29.3490   22.4530 N   0  0  0  0  0  0  0  0  0  0  0  0
  -23.3930  -28.9030   23.4340 O   0  0  0  0  0  0  0  0  0  0  0  0
  -20.9300  -29.8910   21.7470 H   0  0  0  0  0  0  0  0  0  0  0  0
  -18.0220  -28.1340   22.9590 C   0  0  0  0  0  0  0  0  0  0  0  0
  -20.5810  -28.4160   23.2270 C   0  0  0  0  0  3  0  0  0  0  0  0
  -20.6890  -26.9800   22.6630 C   0  0  0  0  0  2  0  0  0  0  0  0
  -19.5930  -26.6460   21.6440 C   0  0  0  0  0  2  0  0  0  0  0  0
  -18.2070  -26.7850   22.2830 C   0  0  0  0  0  2  0  0  0  0  0  0
  -19.1350  -28.9050   23.3860 C   0  0  0  0  0  0  0  0  0  0  0  0
  -18.9060  -30.1650   23.9810 C   0  0  0  0  0  3  0  0  0  0  0  0
  -17.5970  -30.6560   24.1460 C   0  0  0  0  0  3  0  0  0  0  0  0
  -16.4980  -29.8830   23.7350 C   0  0  0  0  0  3  0  0  0  0  0  0
  -16.7120  -28.6230   23.1480 C   0  0  0  0  0  3  0  0  0  0  0  0
  -25.9120  -32.5410   23.8770 C   0  0  0  0  0  3  0  0  0  0  0  0
  -26.3880  -31.7980   25.1870 C   0  0  1  0  0  0  0  0  0  0  0  0
  -25.2710  -31.5940   26.2400 C   0  0  0  0  0  1  0  0  0  0  0  0
  -26.9690  -30.4080   24.8510 C   0  0  0  0  0  1  0  0  0  0  0  0
  -27.5320  -32.5980   25.8540 C   0  0  0  0  0  1  0  0  0  0  0  0
  -25.5930  -33.9480   24.1910 N   0  0  0  0  0  0  0  0  0  0  0  0
  -25.9170  -35.0020   23.4310 C   0  0  0  0  0  0  0  0  0  0  0  0
  -26.5740  -34.8910   22.3940 O   0  0  0  0  0  0  0  0  0  0  0  0
  -24.9980  -34.1020   24.9920 H   0  0  0  0  0  0  0  0  0  0  0  0
  -24.1810  -36.8000   23.1060 C   0  0  0  0  0  1  0  0  0  0  0  0
  -25.4410  -36.3970   23.8880 C   0  0  0  0  0  3  0  0  0  0  0  0
  -27.5930  -37.3000   24.6610 C   0  0  0  0  0  1  0  0  0  0  0  0
  -26.4720  -37.4510   23.7370 N   0  0  0  0  0  0  0  0  0  0  0  0
  -26.0690  -38.3760   23.8700 H   0  0  0  0  0  0  0  0  0  0  0  0
  -28.8830  -20.4430   19.8910 C   0  0  0  0  0  3  0  0  0  0  0  0
  -27.9550  -19.4010   17.6780 C   0  0  0  0  0  1  0  0  0  0  0  0
  -29.9870  -20.9000   17.6200 C   0  0  0  0  0  1  0  0  0  0  0  0
  -28.6770  -20.5720   18.3600 C   0  0  0  0  0  3  0  0  0  0  0  0
  -29.8450  -18.7990   20.2170 C   0  0  0  0  0  2  0  0  0  0  0  0
  -30.3210  -15.6820   20.1180 C   0  0  0  0  0  0  0  0  0  0  0  0
  -30.4170  -13.1620   19.2580 C   0  0  0  0  0  2  0  0  0  0  0  0
  -29.4790  -12.8020   18.0730 C   0  0  0  0  0  2  0  0  0  0  0  0
  -28.0470  -12.4810   18.5440 C   0  0  0  0  0  2  0  0  0  0  0  0
  -27.5900  -13.4330   19.6800 C   0  0  0  0  0  3  0  0  0  0  0  0
  -28.6800  -13.6290   20.7540 C   0  0  0  0  0  2  0  0  0  0  0  0
  -29.8090  -14.3120   20.0610 N   0  0  0  0  0  0  0  0  0  0  0  0
  -31.5580  -15.6240   19.9400 O   0  0  0  0  0  0  0  0  0  0  0  0
  -28.1180  -16.9610   20.3160 C   0  0  0  0  0  1  0  0  0  0  0  0
  -29.5670  -17.0550   20.1680 N   0  0  0  0  0  0  0  0  0  0  0  0
  -25.2310  -13.9390   20.4940 C   0  0  0  0  0  0  0  0  0  0  0  0
  -24.1870  -13.1470   20.8800 C   0  0  0  0  0  0  0  0  0  0  0  0
  -24.6700  -11.8040   20.8260 C   0  0  0  0  0  0  0  0  0  0  0  0
  -26.2820  -13.0810   20.2250 N   0  0  0  0  0  0  0  0  0  0  0  0
  -25.9570  -11.7880   20.4880 N   0  0  0  0  0  0  0  0  0  0  0  0
  -23.9560  -10.5340   21.0140 C   0  0  0  0  0  0  0  0  0  0  0  0
  -24.4050   -9.5670   21.9390 C   0  0  0  0  0  3  0  0  0  0  0  0
  -23.6910   -8.3640   22.1240 C   0  0  0  0  0  3  0  0  0  0  0  0
  -22.5090   -8.1210   21.3820 C   0  0  0  0  0  0  0  0  0  0  0  0
  -22.0790   -9.0780   20.4450 C   0  0  0  0  0  3  0  0  0  0  0  0
  -22.7950  -10.2720   20.2590 C   0  0  0  0  0  3  0  0  0  0  0  0
  -21.7630   -6.9720   21.4720 O   0  0  0  0  0  0  0  0  0  0  0  0
  -21.7130   -6.2350   22.6280 C   0  0  0  0  0  0  0  0  0  0  0  0
  -21.2440   -6.7800   23.8420 C   0  0  0  0  0  3  0  0  0  0  0  0
  -21.1510   -5.9660   24.9900 C   0  0  0  0  0  3  0  0  0  0  0  0
  -21.5120   -4.6060   24.9230 C   0  0  0  0  0  0  0  0  0  0  0  0
  -21.9720   -4.0610   23.7120 C   0  0  0  0  0  3  0  0  0  0  0  0
  -22.0700   -4.8730   22.5680 C   0  0  0  0  0  0  0  0  0  0  0  0
  -22.4920   -4.3350   21.3980 F   0  0  0  0  0  0  0  0  0  0  0  0
  -21.4160   -3.8230   26.0230 F   0  0  0  0  0  0  0  0  0  0  0  0
  -22.7910  -13.6130   21.1790 C   0  0  0  0  0  0  0  0  0  0  0  0
  -22.0850  -12.9090   22.0580 N   0  0  0  0  0  0  0  0  0  0  0  0
  -22.3360  -14.6340   20.6660 O   0  0  0  0  0  0  0  0  0  0  0  0
  -22.4660  -12.0840   22.4950 H   0  0  0  0  0  0  0  0  0  0  0  0
  -21.1510  -13.2100   22.3030 H   0  0  0  0  0  0  0  0  0  0  0  0
  -25.3630  -15.3110   20.3200 N   0  0  0  0  0  0  0  0  0  0  0  0
  -24.6000  -15.9640   20.4630 H   0  0  0  0  0  0  0  0  0  0  0  0
  -26.2090  -15.7570   19.9920 H   0  0  0  0  0  0  0  0  0  0  0  0
  2  3  1  0
  2  1  2  0
  4 15  2  0
  5  3  1  0
  5 10  1  0
  6 14  1  0
  6 16  1  0
  7 13  1  0
  7  9  1  0
  8 14  1  0
  9  8  1  0
 10  9  2  0
 11  5  2  0
 12 11  1  0
 12  7  2  0
 13  6  1  0
 14  4  1  0
 16 18  2  0
 17 16  1  0
 19 17  1  0
 20 29  2  0
 20 25  1  0
 21 17  1  0
 21 25  1  0
 22 21  1  0
 23 24  1  0
 23 22  1  0
 24 20  1  0
 25 26  2  0
 26 27  1  0
 28 27  2  0
 29 28  1  0
 30  4  1  0
 30 35  1  0
 30 31  1  0
 31 34  1  1
 31 32  1  0
 33 31  1  0
 35 38  1  0
 36 40  1  0
 36 35  1  0
 37 36  2  0
 40 39  1  0
 42 43  1  0
 42 40  1  0
 42 41  1  0
 44 48  1  0
 44  1  1  0
 45 47  1  0
 46 47  1  0
 47 44  1  0
 49 58  1  0
 50 55  1  0
 51 52  1  0
 51 50  1  0
 53 52  1  0
 53 62  1  0
 53 54  1  0
 55 49  1  0
 55 54  1  0
 56 49  2  0
 58 48  1  0
 58 57  1  0
 59 60  2  0
 60 79  1  0
 61 60  1  0
 61 64  1  0
 62 63  1  0
 62 59  1  0
 63 61  2  0
 64 65  1  0
 65 66  2  0
 67 70  1  0
 67 66  1  0
 68 67  2  0
 69 68  1  0
 69 64  2  0
 70 71  1  0
 71 72  1  0
 72 73  2  0
 74 73  1  0
 74 78  1  0
 75 74  2  0
 76 71  2  0
 76 75  1  0
 77 76  1  0
 79 80  1  0
 80 83  1  0
 80 82  1  0
 81 79  2  0
 84 85  1  0
 84 59  1  0
 86 84  1  0
M  ISO  4   2 101   3 101  49 100  58 100
M  END
>  <TORSDO>  (31) 
F 20

>  <SCORE>  (31) 
-16.393

>  <name>  (31) 
30

>  <ligand_id>  (31) 
30

>  <original_smiles>  (31) 
[H]c1c([H])c([H])c2c(c1[H])C([H])([H])C([H])([H])C([H])([H])C2([H])N([H])C(=O)C1([H])N(C(=O)C([H])(N([H])C(=O)C([H])(N([H])C([H])([H])[H])C([H])([H])[H])C(C([H])([H])[H])(C([H])([H])[H])C([H])([H])[H])C([H])([H])c2c([H])c(OC([H])([H])C([H])([H])C([H])(C([H])([H])N(C(=O)N3C([H])([H])C([H])([H])C([H])([H])C([H])(n4nc(-c5c([H])c([H])c(Oc6c([H])c([H])c(F)c([H])c6F)c([H])c5[H])c(C(=O)N([H])[H])c4N([H])[H])C3([H])[H])C([H])([H])[H])C([H])(C([H])([H])[H])C([H])([H])[H])c([H])c([H])c2C1([H])[H]

>  <smiles>  (31) 
[H]c1c([H])c([H])c2c(c1[H])C([H])([H])C([H])([H])C([H])([H])C2([H])N([H])C(=O)C1([H])N(C(=O)C([H])(N([H])C(=O)C([H])(N([H])C([H])([H])[H])C([H])([H])[H])C(C([H])([H])[H])(C([H])([H])[H])C([H])([H])[H])C([H])([H])c2c([H])c(OC([H])([H])C([H])([H])C([H])(C([H])([H])N(C(=O)N3C([H])([H])C([H])([H])C([H])([H])C([H])(n4nc(-c5c([H])c([H])c(Oc6c([H])c([H])c(F)c([H])c6F)c([H])c5[H])c(C(=O)N([H])[H])c4N([H])[H])C3([H])[H])C([H])([H])[H])C([H])(C([H])([H])[H])C([H])([H])[H])c([H])c([H])c2C1([H])[H]

$$$$
31:0:0
     RDKit          3D

 95103  0  0  1  0  0  0  0  0999 V2000
  -29.5900  -21.6960   22.2370 C   0  0  0  0  0  3  0  0  0  0  0  0
  -30.2830  -19.5970   22.1340 C   0  0  0  0  0  3  0  0  0  0  0  0
  -30.3880  -20.7220   22.8930 C   0  0  0  0  0  0  0  0  0  0  0  0
  -29.0340  -21.1950   21.0870 C   0  0  0  0  0  0  0  0  0  0  0  0
  -29.5140  -19.8190   20.9980 N   0  0  0  0  0  0  0  0  0  0  0  0
  -30.9110  -22.2410   24.8430 C   0  0  0  0  0  1  0  0  0  0  0  0
  -32.6970  -20.8150   23.8220 C   0  0  0  0  0  1  0  0  0  0  0  0
  -30.8540  -19.7590   25.1610 C   0  0  0  0  0  1  0  0  0  0  0  0
  -31.2000  -20.8860   24.1700 C   0  0  2  0  0  0  0  0  0  0  0  0
  -28.1190  -22.0960   20.1760 C   0  0  0  0  0  2  0  0  0  0  0  0
  -27.9180  -23.6770   20.5840 C   0  0  0  0  0  2  0  0  0  0  0  0
  -26.7220  -24.5000   18.4300 C   0  0  0  0  0  1  0  0  0  0  0  0
  -29.1250  -24.9530   18.7630 C   0  0  0  0  0  1  0  0  0  0  0  0
  -27.7710  -24.8730   19.4960 C   0  0  2  0  0  0  0  0  0  0  0  0
  -27.7090  -26.3250   19.9310 O   0  0  0  0  0  0  0  0  0  0  0  0
  -24.6560  -31.8550   23.4720 C   0  0  0  0  0  0  0  0  0  0  0  0
  -26.6210  -27.2290   20.0010 C   0  0  0  0  0  0  0  0  0  0  0  0
  -23.2170  -30.6540   21.8670 C   0  0  0  0  0  3  0  0  0  0  0  0
  -24.4130  -29.0610   20.2590 C   0  0  0  0  0  0  0  0  0  0  0  0
  -25.7550  -30.7600   21.4970 C   0  0  0  0  0  2  0  0  0  0  0  0
  -25.6630  -29.4130   20.7790 C   0  0  0  0  0  0  0  0  0  0  0  0
  -26.7640  -28.5110   20.6360 C   0  0  0  0  0  3  0  0  0  0  0  0
  -25.3380  -26.9320   19.4940 C   0  0  0  0  0  3  0  0  0  0  0  0
  -24.2550  -27.8280   19.6080 C   0  0  0  0  0  3  0  0  0  0  0  0
  -23.2680  -30.0380   20.4430 C   0  0  0  0  0  2  0  0  0  0  0  0
  -24.5690  -31.1040   22.3350 N   0  0  0  0  0  0  0  0  0  0  0  0
  -23.6440  -32.1920   24.1030 O   0  0  0  0  0  0  0  0  0  0  0  0
  -22.5400  -29.6470   22.8280 C   0  0  0  0  0  0  0  0  0  0  0  0
  -21.2260  -29.4270   22.6480 N   0  0  0  0  0  0  0  0  0  0  0  0
  -23.1980  -29.0660   23.6950 O   0  0  0  0  0  0  0  0  0  0  0  0
  -20.7540  -29.9500   21.9230 H   0  0  0  0  0  0  0  0  0  0  0  0
  -17.9180  -27.9820   22.8940 C   0  0  0  0  0  0  0  0  0  0  0  0
  -20.4010  -28.4880   23.4090 C   0  0  0  0  0  3  0  0  0  0  0  0
  -20.6790  -27.0290   22.9790 C   0  0  0  0  0  2  0  0  0  0  0  0
  -19.7280  -26.5280   21.8870 C   0  0  0  0  0  2  0  0  0  0  0  0
  -18.2750  -26.6030   22.3650 C   0  0  0  0  0  2  0  0  0  0  0  0
  -18.9170  -28.8720   23.3690 C   0  0  0  0  0  0  0  0  0  0  0  0
  -18.5340  -30.1540   23.8200 C   0  0  0  0  0  3  0  0  0  0  0  0
  -17.1830  -30.5510   23.8000 C   0  0  0  0  0  3  0  0  0  0  0  0
  -16.1970  -29.6600   23.3410 C   0  0  0  0  0  3  0  0  0  0  0  0
  -16.5640  -28.3780   22.8940 C   0  0  0  0  0  3  0  0  0  0  0  0
  -26.0310  -32.3460   24.0240 C   0  0  0  0  0  3  0  0  0  0  0  0
  -25.8540  -33.7250   24.5000 N   0  0  0  0  0  0  0  0  0  0  0  0
  -26.2030  -34.8210   23.8120 C   0  0  0  0  0  0  0  0  0  0  0  0
  -26.7790  -34.7690   22.7210 O   0  0  0  0  0  0  0  0  0  0  0  0
  -25.3400  -33.8430   25.3610 H   0  0  0  0  0  0  0  0  0  0  0  0
  -24.5870  -36.7480   23.7760 C   0  0  0  0  0  1  0  0  0  0  0  0
  -25.8600  -36.1900   24.4300 C   0  0  0  0  0  3  0  0  0  0  0  0
  -28.1170  -36.8550   25.1350 C   0  0  0  0  0  1  0  0  0  0  0  0
  -26.9530  -37.1800   24.3140 N   0  0  0  0  0  0  0  0  0  0  0  0
  -26.6290  -38.1070   24.5740 H   0  0  0  0  0  0  0  0  0  0  0  0
  -26.5980  -31.4310   25.1790 C   0  0  1  0  0  0  0  0  0  0  0  0
  -25.5780  -31.1480   26.3060 C   0  0  0  0  0  1  0  0  0  0  0  0
  -27.0700  -30.0700   24.6170 C   0  0  0  0  0  1  0  0  0  0  0  0
  -27.8390  -32.1000   25.8150 C   0  0  0  0  0  1  0  0  0  0  0  0
  -29.3050  -18.6370   20.0670 C   0  0  0  0  0  2  0  0  0  0  0  0
  -30.3430  -17.3750   20.1530 C   0  0  0  0  0  2  0  0  0  0  0  0
  -30.6410  -14.7740   19.9760 C   0  0  0  0  0  0  0  0  0  0  0  0
  -30.4110  -12.4690   19.0420 C   0  0  0  0  0  2  0  0  0  0  0  0
  -29.4180  -12.4990   17.8590 C   0  0  0  0  0  2  0  0  0  0  0  0
  -27.9710  -12.3310   18.3600 C   0  0  0  0  0  2  0  0  0  0  0  0
  -27.6460  -13.2510   19.5690 C   0  0  0  0  0  3  0  0  0  0  0  0
  -28.7540  -13.2050   20.6420 C   0  0  0  0  0  2  0  0  0  0  0  0
  -30.0160  -13.5470   19.9760 N   0  0  0  0  0  0  0  0  0  0  0  0
  -31.8100  -14.8670   19.5960 O   0  0  0  0  0  0  0  0  0  0  0  0
  -29.8850  -15.9130   20.2040 N   0  0  0  0  0  0  0  0  0  0  0  0
  -28.9210  -15.7550   20.4560 H   0  0  0  0  0  0  0  0  0  0  0  0
  -25.3180  -13.8510   20.4620 C   0  0  0  0  0  0  0  0  0  0  0  0
  -24.2630  -13.0800   20.8660 C   0  0  0  0  0  0  0  0  0  0  0  0
  -24.6980  -11.7240   20.7550 C   0  0  0  0  0  0  0  0  0  0  0  0
  -26.3290  -12.9650   20.1280 N   0  0  0  0  0  0  0  0  0  0  0  0
  -25.9670  -11.6780   20.3670 N   0  0  0  0  0  0  0  0  0  0  0  0
  -23.9600  -10.4680   20.9390 C   0  0  0  0  0  0  0  0  0  0  0  0
  -24.3970   -9.4800   21.8490 C   0  0  0  0  0  3  0  0  0  0  0  0
  -23.6590   -8.2880   22.0220 C   0  0  0  0  0  3  0  0  0  0  0  0
  -22.4710   -8.0770   21.2840 C   0  0  0  0  0  0  0  0  0  0  0  0
  -22.0520   -9.0530   20.3620 C   0  0  0  0  0  3  0  0  0  0  0  0
  -22.7890  -10.2360   20.1880 C   0  0  0  0  0  3  0  0  0  0  0  0
  -21.7030   -6.9400   21.3690 O   0  0  0  0  0  0  0  0  0  0  0  0
  -21.6240   -6.2090   22.5270 C   0  0  0  0  0  0  0  0  0  0  0  0
  -21.1620   -6.7750   23.7360 C   0  0  0  0  0  3  0  0  0  0  0  0
  -21.0310   -5.9700   24.8850 C   0  0  0  0  0  3  0  0  0  0  0  0
  -21.3510   -4.6010   24.8270 C   0  0  0  0  0  0  0  0  0  0  0  0
  -21.8050   -4.0340   23.6230 C   0  0  0  0  0  3  0  0  0  0  0  0
  -21.9380   -4.8360   22.4760 C   0  0  0  0  0  0  0  0  0  0  0  0
  -22.3550   -4.2800   21.3120 F   0  0  0  0  0  0  0  0  0  0  0  0
  -21.2170   -3.8260   25.9280 F   0  0  0  0  0  0  0  0  0  0  0  0
  -22.8930  -13.5680   21.2400 C   0  0  0  0  0  0  0  0  0  0  0  0
  -22.2090  -12.8570   22.1280 N   0  0  0  0  0  0  0  0  0  0  0  0
  -22.4430  -14.6170   20.7790 O   0  0  0  0  0  0  0  0  0  0  0  0
  -22.5860  -12.0080   22.5230 H   0  0  0  0  0  0  0  0  0  0  0  0
  -21.2920  -13.1670   22.4180 H   0  0  0  0  0  0  0  0  0  0  0  0
  -25.4940  -15.2240   20.3250 N   0  0  0  0  0  0  0  0  0  0  0  0
  -24.7410  -15.8790   20.5040 H   0  0  0  0  0  0  0  0  0  0  0  0
  -26.3150  -15.6650   19.9310 H   0  0  0  0  0  0  0  0  0  0  0  0
  1  3  1  0
  2  3  2  0
  3  9  1  0
  4  1  2  0
  5  4  1  0
  5  2  1  0
  9  7  1  6
  9  6  1  0
  9  8  1  0
 10 11  1  0
 10  4  1  0
 14 12  1  6
 13 14  1  0
 14 15  1  0
 14 11  1  0
 15 17  1  0
 16 27  2  0
 17 22  1  0
 18 26  1  0
 18 28  1  0
 19 25  1  0
 19 21  1  0
 20 26  1  0
 21 20  1  0
 22 21  2  0
 23 24  1  0
 23 17  2  0
 24 19  2  0
 25 18  1  0
 26 16  1  0
 28 30  2  0
 29 28  1  0
 31 29  1  0
 32 41  2  0
 32 37  1  0
 33 29  1  0
 34 33  1  0
 35 36  1  0
 35 34  1  0
 36 32  1  0
 37 33  1  0
 37 38  2  0
 39 38  1  0
 40 39  2  0
 41 40  1  0
 42 16  1  0
 42 43  1  0
 42 52  1  0
 43 46  1  0
 44 48  1  0
 44 43  1  0
 45 44  2  0
 48 47  1  0
 50 48  1  0
 50 51  1  0
 50 49  1  0
 52 55  1  1
 52 53  1  0
 54 52  1  0
 56 57  1  0
 56  5  1  0
 57 66  1  0
 58 64  1  0
 58 66  1  0
 59 64  1  0
 60 61  1  0
 60 59  1  0
 62 61  1  0
 62 71  1  0
 62 63  1  0
 64 63  1  0
 65 58  2  0
 66 67  1  0
 68 69  2  0
 69 88  1  0
 70 69  1  0
 70 73  1  0
 71 72  1  0
 71 68  1  0
 72 70  2  0
 73 74  1  0
 74 75  2  0
 76 79  1  0
 76 75  1  0
 77 76  2  0
 78 77  1  0
 78 73  2  0
 79 80  1  0
 80 81  1  0
 81 82  2  0
 83 82  1  0
 83 87  1  0
 84 83  2  0
 85 80  2  0
 85 84  1  0
 86 85  1  0
 88 89  1  0
 89 92  1  0
 89 91  1  0
 90 88  2  0
 93 68  1  0
 93 94  1  0
 95 93  1  0
M  ISO  4  14 101  15 101  58 100  66 100
M  END
>  <TORSDO>  (32) 
F 22

>  <SCORE>  (32) 
-11.267

>  <name>  (32) 
31

>  <ligand_id>  (32) 
31

>  <original_smiles>  (32) 
[H]c1c([H])c([H])c2c(c1[H])C([H])([H])C([H])([H])C([H])([H])C2([H])N([H])C(=O)C1([H])N(C(=O)C([H])(N([H])C(=O)C([H])(N([H])C([H])([H])[H])C([H])([H])[H])C(C([H])([H])[H])(C([H])([H])[H])C([H])([H])[H])C([H])([H])c2c([H])c(OC(C([H])([H])[H])(C([H])([H])[H])C([H])([H])C([H])([H])c3c([H])c(C(C([H])([H])[H])(C([H])([H])[H])C([H])([H])[H])c([H])n3C([H])([H])C([H])([H])N([H])C(=O)N3C([H])([H])C([H])([H])C([H])([H])C([H])(n4nc(-c5c([H])c([H])c(Oc6c([H])c([H])c(F)c([H])c6F)c([H])c5[H])c(C(=O)N([H])[H])c4N([H])[H])C3([H])[H])c([H])c([H])c2C1([H])[H]

>  <smiles>  (32) 
[H]c1c([H])c([H])c2c(c1[H])C([H])([H])C([H])([H])C([H])([H])C2([H])N([H])C(=O)C1([H])N(C(=O)C([H])(N([H])C(=O)C([H])(N([H])C([H])([H])[H])C([H])([H])[H])C(C([H])([H])[H])(C([H])([H])[H])C([H])([H])[H])C([H])([H])c2c([H])c(OC(C([H])([H])[H])(C([H])([H])[H])C([H])([H])C([H])([H])c3c([H])c(C(C([H])([H])[H])(C([H])([H])[H])C([H])([H])[H])c([H])n3C([H])([H])C([H])([H])N([H])C(=O)N3C([H])([H])C([H])([H])C([H])([H])C([H])(n4nc(-c5c([H])c([H])c(Oc6c([H])c([H])c(F)c([H])c6F)c([H])c5[H])c(C(=O)N([H])[H])c4N([H])[H])C3([H])[H])c([H])c([H])c2C1([H])[H]

$$$$
32:0:0
     RDKit          3D

 91 95  0  0  1  0  0  0  0  0999 V2000
  -26.6460  -18.4250   19.5800 C   0  0  0  0  0  3  0  0  0  0  0  0
  -28.3010  -16.7480   18.5460 C   0  0  0  0  0  3  0  0  0  0  0  0
  -27.2960  -15.6390   18.9970 C   0  0  0  0  0  3  0  0  0  0  0  0
  -26.4350  -16.8400   19.5190 C   0  0  0  0  0  0  0  0  0  0  0  0
  -27.7430  -19.4160   19.2060 C   0  0  0  0  0  3  0  0  0  0  0  0
  -28.4900  -18.2740   18.6250 N   0  0  0  0  0  0  0  0  0  0  0  0
  -27.3440  -13.5130   18.9690 C   0  0  0  0  0  1  0  0  0  0  0  0
  -29.0950  -13.9080   18.9120 C   0  0  0  0  0  2  0  0  0  0  0  0
  -31.2870  -13.1240   20.6520 C   0  0  0  0  0  0  0  0  0  0  0  0
  -31.7340  -10.6860   20.3520 C   0  0  0  0  0  2  0  0  0  0  0  0
  -31.0660  -10.3810   18.9810 C   0  0  0  0  0  2  0  0  0  0  0  0
  -29.5270  -10.2680   19.1770 C   0  0  0  0  0  2  0  0  0  0  0  0
  -29.0960  -11.3620   20.1890 C   0  0  0  0  0  3  0  0  0  0  0  0
  -29.7610  -11.4770   21.4980 C   0  0  0  0  0  2  0  0  0  0  0  0
  -31.0470  -11.8340   21.0040 N   0  0  0  0  0  0  0  0  0  0  0  0
  -32.4760  -13.4640   20.7930 O   0  0  0  0  0  0  0  0  0  0  0  0
  -30.1990  -13.9420   20.1250 N   0  0  0  0  0  0  0  0  0  0  0  0
  -30.4790  -14.9060   20.2500 H   0  0  0  0  0  0  0  0  0  0  0  0
  -26.5820  -13.4790   20.8650 C   0  0  0  0  0  2  0  0  0  0  0  0
  -25.2390  -12.8030   20.0780 C   0  0  0  0  0  3  0  0  0  0  0  0
  -25.4270  -11.2400   19.5550 C   0  0  0  0  0  3  0  0  0  0  0  0
  -27.9020  -12.0030   20.1610 N   0  0  0  0  0  2  0  0  0  0  0  0
  -26.9130  -11.0130   19.3720 N   0  0  0  0  0  2  0  0  0  0  0  0
  -24.6500   -9.9430   20.2650 C   0  0  0  0  0  0  0  0  0  0  0  0
  -25.0100   -9.0560   21.3910 C   0  0  0  0  0  3  0  0  0  0  0  0
  -24.1870   -7.9610   21.9090 C   0  0  0  0  0  3  0  0  0  0  0  0
  -22.9170   -7.6660   21.3390 C   0  0  0  0  0  0  0  0  0  0  0  0
  -22.5570   -8.5080   20.2690 C   0  0  0  0  0  3  0  0  0  0  0  0
  -23.3720   -9.5740   19.7770 C   0  0  0  0  0  3  0  0  0  0  0  0
  -22.0400   -6.6040   21.6180 O   0  0  0  0  0  0  0  0  0  0  0  0
  -21.7380   -6.0660   22.8630 C   0  0  0  0  0  0  0  0  0  0  0  0
  -21.2590   -6.8550   23.9320 C   0  0  0  0  0  3  0  0  0  0  0  0
  -20.9000   -6.2580   25.1620 C   0  0  0  0  0  3  0  0  0  0  0  0
  -21.0070   -4.8640   25.3370 C   0  0  0  0  0  0  0  0  0  0  0  0
  -21.4410   -4.0640   24.2670 C   0  0  0  0  0  3  0  0  0  0  0  0
  -21.7890   -4.6580   23.0370 C   0  0  0  0  0  0  0  0  0  0  0  0
  -22.1690   -3.8560   22.0130 F   0  0  0  0  0  0  0  0  0  0  0  0
  -20.6900   -4.2950   26.5260 F   0  0  0  0  0  0  0  0  0  0  0  0
  -23.8120  -13.1630   20.0610 C   0  0  0  0  0  0  0  0  0  0  0  0
  -23.0040  -12.5890   20.9560 N   0  0  0  0  0  0  0  0  0  0  0  0
  -23.3940  -13.7850   19.1040 O   0  0  0  0  0  0  0  0  0  0  0  0
  -23.3710  -11.9990   21.6860 H   0  0  0  0  0  0  0  0  0  0  0  0
  -22.0070  -12.7490   20.9050 H   0  0  0  0  0  0  0  0  0  0  0  0
  -27.0300  -14.6500   21.2580 N   0  0  0  0  0  0  0  0  0  0  0  0
  -26.5120  -15.4740   20.9620 H   0  0  0  0  0  0  0  0  0  0  0  0
  -28.0210  -14.7880   21.0940 H   0  0  0  0  0  0  0  0  0  0  0  0
  -27.8620  -21.4540   19.0070 C   0  0  0  0  0 15  0  0  0  0  0  0
  -28.4000  -23.1980   19.6470 O   0  0  0  0  0  1  0  0  0  0  0  0
  -24.8840  -29.8730   22.3660 C   0  0  0  0  0  0  0  0  0  0  0  0
  -27.7770  -24.6920   19.5640 C   0  0  0  0  0  0  0  0  0  0  0  0
  -24.0410  -28.4640   20.5610 C   0  0  0  0  0  3  0  0  0  0  0  0
  -25.7280  -26.9490   19.2720 C   0  0  0  0  0  0  0  0  0  0  0  0
  -26.6090  -28.6290   20.8520 C   0  0  0  0  0  2  0  0  0  0  0  0
  -26.7950  -27.2020   20.1360 C   0  0  0  0  0  0  0  0  0  0  0  0
  -27.8300  -26.0930   20.2570 C   0  0  0  0  0  3  0  0  0  0  0  0
  -26.7840  -24.7980   18.5920 C   0  0  0  0  0  3  0  0  0  0  0  0
  -25.7960  -25.8060   18.4730 C   0  0  0  0  0  3  0  0  0  0  0  0
  -24.5100  -27.8810   19.2010 C   0  0  0  0  0  2  0  0  0  0  0  0
  -25.2020  -29.0360   21.3120 N   0  0  0  0  0  0  0  0  0  0  0  0
  -23.7060  -30.0860   22.7070 O   0  0  0  0  0  0  0  0  0  0  0  0
  -23.2830  -27.3880   21.3880 C   0  0  0  0  0  0  0  0  0  0  0  0
  -21.9560  -27.2550   21.1980 N   0  0  0  0  0  0  0  0  0  0  0  0
  -23.9030  -26.6790   22.1850 O   0  0  0  0  0  0  0  0  0  0  0  0
  -21.5030  -27.8780   20.5420 H   0  0  0  0  0  0  0  0  0  0  0  0
  -18.5150  -26.2080   21.7250 C   0  0  0  0  0  0  0  0  0  0  0  0
  -21.1000  -26.2490   21.8430 C   0  0  0  0  0  3  0  0  0  0  0  0
  -21.0500  -24.9450   21.0110 C   0  0  0  0  0  2  0  0  0  0  0  0
  -19.8690  -24.8970   20.0360 C   0  0  0  0  0  2  0  0  0  0  0  0
  -18.5430  -25.0070   20.7950 C   0  0  0  0  0  2  0  0  0  0  0  0
  -19.7140  -26.7990   22.2060 C   0  0  0  0  0  0  0  0  0  0  0  0
  -19.6270  -27.9300   23.0460 C   0  0  0  0  0  3  0  0  0  0  0  0
  -18.3780  -28.4690   23.4050 C   0  0  0  0  0  3  0  0  0  0  0  0
  -17.1940  -27.8700   22.9370 C   0  0  0  0  0  3  0  0  0  0  0  0
  -17.2640  -26.7420   22.1020 C   0  0  0  0  0  3  0  0  0  0  0  0
  -25.9740  -30.6180   23.1930 C   0  0  0  0  0  3  0  0  0  0  0  0
  -25.4560  -31.9610   23.5420 N   0  0  0  0  0  0  0  0  0  0  0  0
  -25.7530  -33.1030   22.9080 C   0  0  0  0  0  0  0  0  0  0  0  0
  -26.5510  -33.1470   21.9700 O   0  0  0  0  0  0  0  0  0  0  0  0
  -24.7510  -31.9910   24.2640 H   0  0  0  0  0  0  0  0  0  0  0  0
  -23.8670  -34.7250   22.4880 C   0  0  0  0  0  1  0  0  0  0  0  0
  -25.0690  -34.4020   23.3900 C   0  0  0  0  0  3  0  0  0  0  0  0
  -26.9790  -35.4920   24.4900 C   0  0  0  0  0  1  0  0  0  0  0  0
  -25.9750  -35.5720   23.4310 N   0  0  0  0  0  0  0  0  0  0  0  0
  -25.4500  -36.4320   23.5580 H   0  0  0  0  0  0  0  0  0  0  0  0
  -26.3700  -29.8540   24.5180 C   0  0  1  0  0  0  0  0  0  0  0  0
  -25.1620  -29.4700   25.4070 C   0  0  0  0  0  1  0  0  0  0  0  0
  -27.1410  -28.5540   24.2060 C   0  0  0  0  0  1  0  0  0  0  0  0
  -27.3240  -30.7310   25.3620 C   0  0  0  0  0  1  0  0  0  0  0  0
  -25.1800  -16.4740   19.9690 O   0  0  0  0  0  0  0  0  0  0  0  0
  -23.8190  -15.6820   21.8640 C   0  0  0  0  0  1  0  0  0  0  0  0
  -24.9140  -16.6370   21.3720 C   0  0  0  0  0  2  0  0  0  0  0  0
  2  6  2  0
  2  3  1  0
  3  4  2  0
  4  1  1  0
  4 89  1  0
  5  1  2  0
  6  5  1  0
  8  7  1  0
  8 17  1  0
  9 16  2  0
  9 15  1  0
 10 15  1  0
 11 12  1  0
 11 10  1  0
 12 13  1  0
 13 22  1  0
 13 14  1  0
 15 14  1  0
 17 18  1  0
 17  9  1  0
 19 44  1  0
 20 19  1  0
 21 23  1  0
 21 20  1  0
 21 24  1  0
 23 22  1  0
 24 25  1  0
 25 26  2  0
 27 30  1  0
 27 26  1  0
 28 27  2  0
 29 24  2  0
 29 28  1  0
 30 31  1  0
 31 36  2  0
 31 32  1  0
 32 33  2  0
 33 34  1  0
 34 38  1  0
 35 34  2  0
 36 35  1  0
 37 36  1  0
 39 20  1  0
 39 40  1  0
 40 42  1  0
 41 39  2  0
 43 40  1  0
 45 44  1  0
 46 44  1  0
 49 60  2  0
 50 48  1  0
 50 55  1  0
 51 59  1  0
 51 61  1  0
 52 54  1  0
 53 59  1  0
 54 55  2  0
 54 53  1  0
 56 50  2  0
 57 56  1  0
 57 52  2  0
 58 52  1  0
 58 51  1  0
 59 49  1  0
 61 63  2  0
 62 61  1  0
 64 62  1  0
 65 74  2  0
 65 70  1  0
 66 62  1  0
 66 70  1  0
 67 66  1  0
 68 69  1  0
 68 67  1  0
 69 65  1  0
 70 71  2  0
 71 72  1  0
 73 72  2  0
 74 73  1  0
 75 49  1  0
 75 76  1  0
 75 85  1  0
 76 79  1  0
 77 81  1  0
 77 76  1  0
 78 77  2  0
 81 80  1  0
 81 83  1  0
 83 84  1  0
 83 82  1  0
 85 88  1  1
 85 86  1  0
 87 85  1  0
 89 91  1  0
 91 90  1  0
M  ISO  4   9 100  17 100  47 101  48 101
M  END
>  <TORSDO>  (33) 
F 21

>  <SCORE>  (33) 
1.200

>  <name>  (33) 
32

>  <ligand_id>  (33) 
32

>  <original_smiles>  (33) 
[H]c1nc(C([H])([H])Oc2c([H])c([H])c3c(c2[H])C([H])([H])N(C(=O)C([H])(N([H])C(=O)C([H])(N([H])C([H])([H])[H])C([H])([H])[H])C(C([H])([H])[H])(C([H])([H])[H])C([H])([H])[H])C([H])(C(=O)N([H])C2([H])c4c([H])c([H])c([H])c([H])c4C([H])([H])C([H])([H])C2([H])[H])C3([H])[H])c([H])c(OC([H])([H])C([H])([H])[H])c1C([H])([H])C([H])([H])N([H])C(=O)N1C([H])([H])C([H])([H])C([H])([H])C([H])(n2nc(-c3c([H])c([H])c(Oc4c([H])c([H])c(F)c([H])c4F)c([H])c3[H])c(C(=O)N([H])[H])c2N([H])[H])C1([H])[H]

>  <smiles>  (33) 
[H]c1nc(C([H])([H])Oc2c([H])c([H])c3c(c2[H])C([H])([H])N(C(=O)C([H])(N([H])C(=O)C([H])(N([H])C([H])([H])[H])C([H])([H])[H])C(C([H])([H])[H])(C([H])([H])[H])C([H])([H])[H])C([H])(C(=O)N([H])C2([H])c4c([H])c([H])c([H])c([H])c4C([H])([H])C([H])([H])C2([H])[H])C3([H])[H])c([H])c(OC([H])([H])C([H])([H])[H])c1C([H])([H])C([H])([H])N([H])C(=O)N1C([H])([H])C([H])([H])C([H])([H])C([H])(n2nc(-c3c([H])c([H])c(Oc4c([H])c([H])c(F)c([H])c4F)c([H])c3[H])c(C(=O)N([H])[H])c2N([H])[H])C1([H])[H]

$$$$
33:0:0
     RDKit          3D

 86 93  0  0  1  0  0  0  0  0999 V2000
  -28.9540  -22.2680   20.3680 C   0  0  0  0  0  3  0  0  0  0  0  0
  -28.0390  -23.9330   20.0650 C   0  0  0  0  0  3  0  0  0  0  0  0
  -28.1810  -25.6510   20.3400 O   0  0  0  0  0  0  0  0  0  0  0  0
  -24.6460  -31.8790   23.2620 C   0  0  0  0  0  0  0  0  0  0  0  0
  -27.1980  -26.8370   20.2700 C   0  0  0  0  0  0  0  0  0  0  0  0
  -23.4630  -30.4830   21.6180 C   0  0  0  0  0  3  0  0  0  0  0  0
  -24.9190  -28.8410   20.2130 C   0  0  0  0  0  0  0  0  0  0  0  0
  -26.0410  -30.6340   21.5040 C   0  0  0  0  0  2  0  0  0  0  0  0
  -26.1120  -29.2040   20.8520 C   0  0  0  0  0  0  0  0  0  0  0  0
  -27.2340  -28.2280   20.8500 C   0  0  0  0  0  3  0  0  0  0  0  0
  -25.9700  -26.6680   19.5820 C   0  0  0  0  0  3  0  0  0  0  0  0
  -24.8890  -27.5980   19.5520 C   0  0  0  0  0  3  0  0  0  0  0  0
  -23.7100  -29.7860   20.2500 C   0  0  0  0  0  2  0  0  0  0  0  0
  -24.7410  -31.0320   22.1800 N   0  0  0  0  0  0  0  0  0  0  0  0
  -23.5500  -32.1780   23.7680 O   0  0  0  0  0  0  0  0  0  0  0  0
  -22.7430  -29.5030   22.5840 C   0  0  0  0  0  0  0  0  0  0  0  0
  -21.4110  -29.3480   22.4510 N   0  0  0  0  0  0  0  0  0  0  0  0
  -23.3940  -28.8840   23.4280 O   0  0  0  0  0  0  0  0  0  0  0  0
  -20.9370  -29.9080   21.7540 H   0  0  0  0  0  0  0  0  0  0  0  0
  -18.0220  -28.1150   22.9300 C   0  0  0  0  0  0  0  0  0  0  0  0
  -20.5770  -28.4090   23.2170 C   0  0  0  0  0  3  0  0  0  0  0  0
  -20.6990  -26.9710   22.6600 C   0  0  0  0  0  2  0  0  0  0  0  0
  -19.6140  -26.6310   21.6340 C   0  0  0  0  0  2  0  0  0  0  0  0
  -18.2230  -26.7640   22.2600 C   0  0  0  0  0  2  0  0  0  0  0  0
  -19.1290  -28.8930   23.3640 C   0  0  0  0  0  0  0  0  0  0  0  0
  -18.8900  -30.1500   23.9560 C   0  0  0  0  0  3  0  0  0  0  0  0
  -17.5790  -30.6340   24.1170 C   0  0  0  0  0  3  0  0  0  0  0  0
  -16.4850  -29.8570   23.6950 C   0  0  0  0  0  3  0  0  0  0  0  0
  -16.7080  -28.6000   23.1060 C   0  0  0  0  0  3  0  0  0  0  0  0
  -25.9070  -32.5300   23.9080 C   0  0  0  0  0  3  0  0  0  0  0  0
  -26.3790  -31.7870   25.2190 C   0  0  1  0  0  0  0  0  0  0  0  0
  -25.2530  -31.5870   26.2660 C   0  0  0  0  0  1  0  0  0  0  0  0
  -26.9570  -30.3910   24.8930 C   0  0  0  0  0  1  0  0  0  0  0  0
  -27.5220  -32.5890   25.8860 C   0  0  0  0  0  1  0  0  0  0  0  0
  -25.5860  -33.9390   24.2150 N   0  0  0  0  0  0  0  0  0  0  0  0
  -25.9300  -34.9900   23.4560 C   0  0  0  0  0  0  0  0  0  0  0  0
  -26.6040  -34.8760   22.4310 O   0  0  0  0  0  0  0  0  0  0  0  0
  -24.9740  -34.0960   25.0000 H   0  0  0  0  0  0  0  0  0  0  0  0
  -24.2140  -36.8090   23.1110 C   0  0  0  0  0  1  0  0  0  0  0  0
  -25.4600  -36.3910   23.9060 C   0  0  0  0  0  3  0  0  0  0  0  0
  -27.6070  -37.2830   24.7090 C   0  0  0  0  0  1  0  0  0  0  0  0
  -26.4990  -37.4370   23.7690 N   0  0  0  0  0  0  0  0  0  0  0  0
  -26.0990  -38.3610   23.9120 H   0  0  0  0  0  0  0  0  0  0  0  0
  -28.7190  -20.3740   20.1260 C   0  0  0  0  0  3  0  0  0  0  0  0
  -27.1170  -19.0020   18.6320 C   0  0  0  0  0  1  0  0  0  0  0  0
  -28.9760  -20.3730   17.5930 C   0  0  0  0  0  1  0  0  0  0  0  0
  -27.9930  -20.2620   18.7660 C   0  0  0  0  0  3  0  0  0  0  0  0
  -29.7580  -18.7650   20.3200 C   0  0  0  0  0  2  0  0  0  0  0  0
  -30.3130  -15.6700   20.2010 C   0  0  0  0  0  0  0  0  0  0  0  0
  -30.4000  -13.1470   19.3700 C   0  0  0  0  0  2  0  0  0  0  0  0
  -29.5020  -12.8040   18.1510 C   0  0  0  0  0  2  0  0  0  0  0  0
  -28.0940  -12.4230   18.6280 C   0  0  0  0  0  2  0  0  0  0  0  0
  -27.5790  -13.4140   19.6950 C   0  0  0  0  0  3  0  0  0  0  0  0
  -28.6100  -13.7120   20.8010 C   0  0  0  0  0  2  0  0  0  0  0  0
  -29.7880  -14.3150   20.1420 N   0  0  0  0  0  0  0  0  0  0  0  0
  -31.5450  -15.6280   20.0190 O   0  0  0  0  0  0  0  0  0  0  0  0
  -29.5470  -17.0130   20.2690 N   0  0  0  0  0  0  0  0  0  0  0  0
  -28.5650  -16.7920   20.3300 H   0  0  0  0  0  0  0  0  0  0  0  0
  -25.2200  -13.9130   20.4920 C   0  0  0  0  0  0  0  0  0  0  0  0
  -24.1790  -13.1160   20.8720 C   0  0  0  0  0  0  0  0  0  0  0  0
  -24.6700  -11.7730   20.8320 C   0  0  0  0  0  0  0  0  0  0  0  0
  -26.2720  -13.0570   20.2290 N   0  0  0  0  0  0  0  0  0  0  0  0
  -25.9560  -11.7630   20.4970 N   0  0  0  0  0  0  0  0  0  0  0  0
  -23.9620  -10.5010   21.0230 C   0  0  0  0  0  0  0  0  0  0  0  0
  -24.4030   -9.5400   21.9600 C   0  0  0  0  0  3  0  0  0  0  0  0
  -23.6890   -8.3350   22.1380 C   0  0  0  0  0  3  0  0  0  0  0  0
  -22.5210   -8.0820   21.3800 C   0  0  0  0  0  0  0  0  0  0  0  0
  -22.1010   -9.0330   20.4340 C   0  0  0  0  0  3  0  0  0  0  0  0
  -22.8160  -10.2280   20.2540 C   0  0  0  0  0  3  0  0  0  0  0  0
  -21.7800   -6.9280   21.4700 O   0  0  0  0  0  0  0  0  0  0  0  0
  -21.7260   -6.1960   22.6280 C   0  0  0  0  0  0  0  0  0  0  0  0
  -21.2350   -6.7430   23.8350 C   0  0  0  0  0  3  0  0  0  0  0  0
  -21.1280   -5.9340   24.9850 C   0  0  0  0  0  3  0  0  0  0  0  0
  -21.5050   -4.5790   24.9320 C   0  0  0  0  0  0  0  0  0  0  0  0
  -21.9860   -4.0300   23.7300 C   0  0  0  0  0  3  0  0  0  0  0  0
  -22.0940   -4.8350   22.5810 C   0  0  0  0  0  0  0  0  0  0  0  0
  -22.5410   -4.2940   21.4230 F   0  0  0  0  0  0  0  0  0  0  0  0
  -21.3960   -3.8000   26.0340 F   0  0  0  0  0  0  0  0  0  0  0  0
  -22.7770  -13.5730   21.1510 C   0  0  0  0  0  0  0  0  0  0  0  0
  -22.0610  -12.8750   22.0230 N   0  0  0  0  0  0  0  0  0  0  0  0
  -22.3240  -14.5910   20.6280 O   0  0  0  0  0  0  0  0  0  0  0  0
  -22.4240  -12.0480   22.4750 H   0  0  0  0  0  0  0  0  0  0  0  0
  -21.1210  -13.1760   22.2400 H   0  0  0  0  0  0  0  0  0  0  0  0
  -25.3610  -15.2880   20.3110 N   0  0  0  0  0  0  0  0  0  0  0  0
  -24.5920  -15.9330   20.4560 H   0  0  0  0  0  0  0  0  0  0  0  0
  -26.1800  -15.7320   19.9190 H   0  0  0  0  0  0  0  0  0  0  0  0
  2  3  1  0
  2  1  2  0
  4 15  2  0
  5  3  1  0
  5 10  1  0
  6 14  1  0
  6 16  1  0
  7 13  1  0
  7  9  1  0
  8 14  1  0
  9  8  1  0
 10  9  2  0
 11  5  2  0
 12 11  1  0
 12  7  2  0
 13  6  1  0
 14  4  1  0
 16 18  2  0
 17 16  1  0
 19 17  1  0
 20 29  2  0
 20 25  1  0
 21 17  1  0
 21 25  1  0
 22 21  1  0
 23 24  1  0
 23 22  1  0
 24 20  1  0
 25 26  2  0
 26 27  1  0
 28 27  2  0
 29 28  1  0
 30  4  1  0
 30 35  1  0
 30 31  1  0
 31 34  1  1
 31 32  1  0
 33 31  1  0
 35 38  1  0
 36 40  1  0
 36 35  1  0
 37 36  2  0
 40 39  1  0
 42 40  1  0
 42 43  1  0
 42 41  1  0
 44 48  1  0
 44  1  1  0
 45 47  1  0
 46 47  1  0
 47 44  1  0
 49 57  1  0
 50 55  1  0
 51 52  1  0
 51 50  1  0
 53 52  1  0
 53 62  1  0
 53 54  1  0
 55 49  1  0
 55 54  1  0
 56 49  2  0
 57 48  1  0
 57 58  1  0
 59 60  2  0
 60 79  1  0
 61 60  1  0
 61 64  1  0
 62 59  1  0
 62 63  1  0
 63 61  2  0
 64 65  1  0
 65 66  2  0
 67 70  1  0
 67 66  1  0
 68 67  2  0
 69 68  1  0
 69 64  2  0
 70 71  1  0
 71 72  1  0
 72 73  2  0
 74 73  1  0
 74 78  1  0
 75 74  2  0
 76 71  2  0
 76 75  1  0
 77 76  1  0
 79 80  1  0
 80 83  1  0
 80 82  1  0
 81 79  2  0
 84 85  1  0
 84 59  1  0
 86 84  1  0
M  ISO  4   2 101   3 101  49 100  57 100
M  END
>  <TORSDO>  (34) 
F 20

>  <SCORE>  (34) 
-16.232

>  <name>  (34) 
33

>  <ligand_id>  (34) 
33

>  <original_smiles>  (34) 
[H]c1c([H])c([H])c2c(c1[H])C([H])([H])C([H])([H])C([H])([H])C2([H])N([H])C(=O)C1([H])N(C(=O)C([H])(N([H])C(=O)C([H])(N([H])C([H])([H])[H])C([H])([H])[H])C(C([H])([H])[H])(C([H])([H])[H])C([H])([H])[H])C([H])([H])c2c([H])c(OC([H])([H])C([H])([H])C([H])(C([H])([H])N([H])C(=O)N3C([H])([H])C([H])([H])C([H])([H])C([H])(n4nc(-c5c([H])c([H])c(Oc6c([H])c([H])c(F)c([H])c6F)c([H])c5[H])c(C(=O)N([H])[H])c4N([H])[H])C3([H])[H])C([H])(C([H])([H])[H])C([H])([H])[H])c([H])c([H])c2C1([H])[H]

>  <smiles>  (34) 
[H]c1c([H])c([H])c2c(c1[H])C([H])([H])C([H])([H])C([H])([H])C2([H])N([H])C(=O)C1([H])N(C(=O)C([H])(N([H])C(=O)C([H])(N([H])C([H])([H])[H])C([H])([H])[H])C(C([H])([H])[H])(C([H])([H])[H])C([H])([H])[H])C([H])([H])c2c([H])c(OC([H])([H])C([H])([H])C([H])(C([H])([H])N([H])C(=O)N3C([H])([H])C([H])([H])C([H])([H])C([H])(n4nc(-c5c([H])c([H])c(Oc6c([H])c([H])c(F)c([H])c6F)c([H])c5[H])c(C(=O)N([H])[H])c4N([H])[H])C3([H])[H])C([H])(C([H])([H])[H])C([H])([H])[H])c([H])c([H])c2C1([H])[H]

$$$$
34:0:0
     RDKit          3D

 86 93  0  0  1  0  0  0  0  0999 V2000
  -28.6020  -22.8410   20.4480 C   0  0  0  0  0  3  0  0  0  0  0  0
  -29.2090  -21.2920   19.8030 C   0  0  0  0  0  3  0  0  0  0  0  0
  -27.7190  -19.2160   20.4140 C   0  0  0  0  0  1  0  0  0  0  0  0
  -29.6390  -19.7470   21.8880 C   0  0  0  0  0  1  0  0  0  0  0  0
  -29.2030  -19.6170   20.4210 C   0  0  2  0  0  0  0  0  0  0  0  0
  -30.0500  -18.1700   19.8140 C   0  0  0  0  0  2  0  0  0  0  0  0
  -30.5900  -15.3080   19.8990 C   0  0  0  0  0  0  0  0  0  0  0  0
  -30.5150  -12.8970   18.9780 C   0  0  0  0  0  2  0  0  0  0  0  0
  -29.5300  -12.7370   17.7930 C   0  0  0  0  0  2  0  0  0  0  0  0
  -28.1040  -12.4660   18.3010 C   0  0  0  0  0  2  0  0  0  0  0  0
  -27.7190  -13.4030   19.4710 C   0  0  0  0  0  3  0  0  0  0  0  0
  -28.8210  -13.5060   20.5460 C   0  0  0  0  0  2  0  0  0  0  0  0
  -30.0270  -14.0080   19.8700 N   0  0  0  0  0  0  0  0  0  0  0  0
  -31.7820  -15.3350   19.5650 O   0  0  0  0  0  0  0  0  0  0  0  0
  -29.8300  -16.5540   20.0970 N   0  0  0  0  0  0  0  0  0  0  0  0
  -28.8860  -16.3540   20.3940 H   0  0  0  0  0  0  0  0  0  0  0  0
  -25.3880  -13.9480   20.3540 C   0  0  0  0  0  0  0  0  0  0  0  0
  -24.3480  -13.1640   20.7650 C   0  0  0  0  0  0  0  0  0  0  0  0
  -24.8140  -11.8150   20.6880 C   0  0  0  0  0  0  0  0  0  0  0  0
  -26.4170  -13.0790   20.0380 N   0  0  0  0  0  0  0  0  0  0  0  0
  -26.0860  -11.7900   20.3070 N   0  0  0  0  0  0  0  0  0  0  0  0
  -24.1010  -10.5480   20.8940 C   0  0  0  0  0  0  0  0  0  0  0  0
  -24.5190   -9.6120   21.8670 C   0  0  0  0  0  3  0  0  0  0  0  0
  -23.8040   -8.4100   22.0590 C   0  0  0  0  0  3  0  0  0  0  0  0
  -22.6570   -8.1340   21.2780 C   0  0  0  0  0  0  0  0  0  0  0  0
  -22.2570   -9.0580   20.2960 C   0  0  0  0  0  3  0  0  0  0  0  0
  -22.9720  -10.2520   20.1030 C   0  0  0  0  0  3  0  0  0  0  0  0
  -21.9150   -6.9820   21.3770 O   0  0  0  0  0  0  0  0  0  0  0  0
  -21.7590   -6.3280   22.5730 C   0  0  0  0  0  0  0  0  0  0  0  0
  -21.1850   -6.9590   23.6990 C   0  0  0  0  0  3  0  0  0  0  0  0
  -20.9810   -6.2280   24.8860 C   0  0  0  0  0  3  0  0  0  0  0  0
  -21.3400   -4.8680   24.9480 C   0  0  0  0  0  0  0  0  0  0  0  0
  -21.9050   -4.2370   23.8250 C   0  0  0  0  0  3  0  0  0  0  0  0
  -22.1120   -4.9650   22.6410 C   0  0  0  0  0  0  0  0  0  0  0  0
  -22.6380   -4.3480   21.5560 F   0  0  0  0  0  0  0  0  0  0  0  0
  -21.1360   -4.1640   26.0860 F   0  0  0  0  0  0  0  0  0  0  0  0
  -22.9650  -13.6330   21.1100 C   0  0  0  0  0  0  0  0  0  0  0  0
  -22.2820  -12.9250   22.0010 N   0  0  0  0  0  0  0  0  0  0  0  0
  -22.5020  -14.6640   20.6240 O   0  0  0  0  0  0  0  0  0  0  0  0
  -22.6700  -12.0900   22.4150 H   0  0  0  0  0  0  0  0  0  0  0  0
  -21.3550  -13.2200   22.2750 H   0  0  0  0  0  0  0  0  0  0  0  0
  -25.5420  -15.3210   20.1940 N   0  0  0  0  0  0  0  0  0  0  0  0
  -24.7830  -15.9680   20.3690 H   0  0  0  0  0  0  0  0  0  0  0  0
  -26.3560  -15.7660   19.7890 H   0  0  0  0  0  0  0  0  0  0  0  0
  -28.2750  -24.4340   19.7170 C   0  0  0  0  0  2  0  0  0  0  0  0
  -28.2580  -25.9860   20.2300 O   0  0  0  0  0  0  0  0  0  0  0  0
  -24.6820  -31.8720   23.1840 C   0  0  0  0  0  0  0  0  0  0  0  0
  -27.2280  -27.0450   20.1230 C   0  0  0  0  0  0  0  0  0  0  0  0
  -23.4720  -30.4650   21.5630 C   0  0  0  0  0  3  0  0  0  0  0  0
  -24.9110  -28.8790   20.1160 C   0  0  0  0  0  0  0  0  0  0  0  0
  -26.0300  -30.7040   21.3770 C   0  0  0  0  0  2  0  0  0  0  0  0
  -26.1000  -29.3000   20.7200 C   0  0  0  0  0  0  0  0  0  0  0  0
  -27.2490  -28.3990   20.7090 C   0  0  0  0  0  3  0  0  0  0  0  0
  -26.0120  -26.7700   19.4580 C   0  0  0  0  0  3  0  0  0  0  0  0
  -24.8890  -27.6350   19.4650 C   0  0  0  0  0  3  0  0  0  0  0  0
  -23.6830  -29.7850   20.1830 C   0  0  0  0  0  2  0  0  0  0  0  0
  -24.7500  -31.0420   22.0940 N   0  0  0  0  0  0  0  0  0  0  0  0
  -23.6000  -32.1540   23.7220 O   0  0  0  0  0  0  0  0  0  0  0  0
  -22.8050  -29.4630   22.5410 C   0  0  0  0  0  0  0  0  0  0  0  0
  -21.4770  -29.2790   22.4300 N   0  0  0  0  0  0  0  0  0  0  0  0
  -23.4890  -28.8530   23.3680 O   0  0  0  0  0  0  0  0  0  0  0  0
  -20.9740  -29.8200   21.7400 H   0  0  0  0  0  0  0  0  0  0  0  0
  -18.1200  -28.0140   22.9570 C   0  0  0  0  0  0  0  0  0  0  0  0
  -20.6730  -28.3360   23.2150 C   0  0  0  0  0  3  0  0  0  0  0  0
  -20.8010  -26.8990   22.6580 C   0  0  0  0  0  2  0  0  0  0  0  0
  -19.7080  -26.5410   21.6480 C   0  0  0  0  0  2  0  0  0  0  0  0
  -18.3230  -26.6640   22.2890 C   0  0  0  0  0  2  0  0  0  0  0  0
  -19.2220  -28.8060   23.3750 C   0  0  0  0  0  0  0  0  0  0  0  0
  -18.9750  -30.0660   23.9630 C   0  0  0  0  0  3  0  0  0  0  0  0
  -17.6590  -30.5370   24.1320 C   0  0  0  0  0  3  0  0  0  0  0  0
  -16.5720  -29.7450   23.7250 C   0  0  0  0  0  3  0  0  0  0  0  0
  -16.8030  -28.4840   23.1450 C   0  0  0  0  0  3  0  0  0  0  0  0
  -25.9610  -32.5220   23.7960 C   0  0  0  0  0  3  0  0  0  0  0  0
  -26.4980  -31.7570   25.0690 C   0  0  1  0  0  0  0  0  0  0  0  0
  -25.4180  -31.5120   26.1490 C   0  0  0  0  0  1  0  0  0  0  0  0
  -27.0890  -30.3840   24.6790 C   0  0  0  0  0  1  0  0  0  0  0  0
  -27.6480  -32.5630   25.7180 C   0  0  0  0  0  1  0  0  0  0  0  0
  -25.6370  -33.9170   24.1420 N   0  0  0  0  0  0  0  0  0  0  0  0
  -25.9490  -34.9850   23.3970 C   0  0  0  0  0  0  0  0  0  0  0  0
  -26.6030  -34.9020   22.3550 O   0  0  0  0  0  0  0  0  0  0  0  0
  -25.0540  -34.0550   24.9550 H   0  0  0  0  0  0  0  0  0  0  0  0
  -24.2060  -36.7790   23.0930 C   0  0  0  0  0  1  0  0  0  0  0  0
  -25.4590  -36.3660   23.8800 C   0  0  0  0  0  3  0  0  0  0  0  0
  -27.5960  -37.2600   24.7010 C   0  0  0  0  0  1  0  0  0  0  0  0
  -26.4840  -37.4280   23.7690 N   0  0  0  0  0  0  0  0  0  0  0  0
  -26.0730  -38.3440   23.9310 H   0  0  0  0  0  0  0  0  0  0  0  0
  2  5  1  0
  2  1  2  0
  5  3  1  1
  5  4  1  0
  6 15  1  0
  6  5  1  0
  7 15  1  0
  8 13  1  0
  9 10  1  0
  9  8  1  0
 11 10  1  0
 11 20  1  0
 11 12  1  0
 13  7  1  0
 13 12  1  0
 14  7  2  0
 15 16  1  0
 17 18  2  0
 18 37  1  0
 19 18  1  0
 19 22  1  0
 20 21  1  0
 20 17  1  0
 21 19  2  0
 22 23  1  0
 23 24  2  0
 25 28  1  0
 25 24  1  0
 26 25  2  0
 27 26  1  0
 27 22  2  0
 28 29  1  0
 29 34  2  0
 29 30  1  0
 30 31  2  0
 31 32  1  0
 32 36  1  0
 33 32  2  0
 34 33  1  0
 35 34  1  0
 37 38  1  0
 38 41  1  0
 38 40  1  0
 39 37  2  0
 42 17  1  0
 42 43  1  0
 44 42  1  0
 45 46  1  0
 45  1  1  0
 47 58  2  0
 48 46  1  0
 48 53  1  0
 49 57  1  0
 49 59  1  0
 50 56  1  0
 50 52  1  0
 51 57  1  0
 52 51  1  0
 53 52  2  0
 54 55  1  0
 54 48  2  0
 55 50  2  0
 56 49  1  0
 57 47  1  0
 59 61  2  0
 60 59  1  0
 62 60  1  0
 63 72  2  0
 63 68  1  0
 64 60  1  0
 64 68  1  0
 65 64  1  0
 66 67  1  0
 66 65  1  0
 67 63  1  0
 68 69  2  0
 69 70  1  0
 71 70  2  0
 72 71  1  0
 73 47  1  0
 73 78  1  0
 73 74  1  0
 74 77  1  1
 74 75  1  0
 76 74  1  0
 78 81  1  0
 79 83  1  0
 79 78  1  0
 80 79  2  0
 83 82  1  0
 85 83  1  0
 85 86  1  0
 85 84  1  0
M  ISO  4   7 100  15 100  45 101  46 101
M  END
>  <TORSDO>  (35) 
F 20

>  <SCORE>  (35) 
-14.622

>  <name>  (35) 
34

>  <ligand_id>  (35) 
34

>  <original_smiles>  (35) 
[H]c1c([H])c([H])c2c(c1[H])C([H])([H])C([H])([H])C([H])([H])C2([H])N([H])C(=O)C1([H])N(C(=O)C([H])(N([H])C(=O)C([H])(N([H])C([H])([H])[H])C([H])([H])[H])C(C([H])([H])[H])(C([H])([H])[H])C([H])([H])[H])C([H])([H])c2c([H])c(OC([H])([H])C([H])([H])C([H])([H])C(C([H])([H])[H])(C([H])([H])[H])C([H])([H])N([H])C(=O)N3C([H])([H])C([H])([H])C([H])([H])C([H])(n4nc(-c5c([H])c([H])c(Oc6c([H])c([H])c(F)c([H])c6F)c([H])c5[H])c(C(=O)N([H])[H])c4N([H])[H])C3([H])[H])c([H])c([H])c2C1([H])[H]

>  <smiles>  (35) 
[H]c1c([H])c([H])c2c(c1[H])C([H])([H])C([H])([H])C([H])([H])C2([H])N([H])C(=O)C1([H])N(C(=O)C([H])(N([H])C(=O)C([H])(N([H])C([H])([H])[H])C([H])([H])[H])C(C([H])([H])[H])(C([H])([H])[H])C([H])([H])[H])C([H])([H])c2c([H])c(OC([H])([H])C([H])([H])C([H])([H])C(C([H])([H])[H])(C([H])([H])[H])C([H])([H])N([H])C(=O)N3C([H])([H])C([H])([H])C([H])([H])C([H])(n4nc(-c5c([H])c([H])c(Oc6c([H])c([H])c(F)c([H])c6F)c([H])c5[H])c(C(=O)N([H])[H])c4N([H])[H])C3([H])[H])c([H])c([H])c2C1([H])[H]

$$$$
35:0:0
     RDKit          3D

 90 98  0  0  1  0  0  0  0  0999 V2000
  -29.2420  -21.6680   20.8390 C   0  0  0  0  0  3  0  0  0  0  0  0
  -29.3870  -18.7720   20.9550 C   0  0  0  0  0  3  0  0  0  0  0  0
  -29.9540  -19.6250   19.0280 C   0  0  0  0  0  3  0  0  0  0  0  0
  -29.5150  -20.0940   20.2590 C   0  0  0  0  0  0  0  0  0  0  0  0
  -29.8430  -17.6440   20.2280 C   0  0  0  0  0  0  0  0  0  0  0  0
  -30.6290  -17.4940   17.8110 C   0  0  0  0  0  1  0  0  0  0  0  0
  -30.1670  -18.2120   18.9910 N   0  0  0  0  0  0  0  0  0  0  0  0
  -30.6100  -15.0600   20.3000 C   0  0  0  0  0  0  0  0  0  0  0  0
  -30.5160  -12.6960   19.3830 C   0  0  0  0  0  2  0  0  0  0  0  0
  -29.6010  -12.6920   18.1340 C   0  0  0  0  0  2  0  0  0  0  0  0
  -28.1310  -12.4810   18.5340 C   0  0  0  0  0  2  0  0  0  0  0  0
  -27.7180  -13.3580   19.7410 C   0  0  0  0  0  3  0  0  0  0  0  0
  -28.7670  -13.3490   20.8760 C   0  0  0  0  0  2  0  0  0  0  0  0
  -30.0420  -13.7800   20.2930 N   0  0  0  0  0  0  0  0  0  0  0  0
  -31.7980  -15.1320   19.9580 O   0  0  0  0  0  0  0  0  0  0  0  0
  -29.8330  -16.2310   20.5770 N   0  0  0  0  0  0  0  0  0  0  0  0
  -29.0370  -15.9830   21.1490 H   0  0  0  0  0  0  0  0  0  0  0  0
  -25.3250  -13.9120   20.4540 C   0  0  0  0  0  0  0  0  0  0  0  0
  -24.2640  -13.1320   20.8110 C   0  0  0  0  0  0  0  0  0  0  0  0
  -24.7370  -11.7820   20.7870 C   0  0  0  0  0  0  0  0  0  0  0  0
  -26.3790  -13.0430   20.2220 N   0  0  0  0  0  0  0  0  0  0  0  0
  -26.0330  -11.7570   20.4880 N   0  0  0  0  0  0  0  0  0  0  0  0
  -24.0130  -10.5190   20.9710 C   0  0  0  0  0  0  0  0  0  0  0  0
  -24.4340   -9.5570   21.9180 C   0  0  0  0  0  3  0  0  0  0  0  0
  -23.7090   -8.3590   22.0910 C   0  0  0  0  0  3  0  0  0  0  0  0
  -22.5480   -8.1130   21.3190 C   0  0  0  0  0  0  0  0  0  0  0  0
  -22.1400   -9.0660   20.3690 C   0  0  0  0  0  3  0  0  0  0  0  0
  -22.8670  -10.2560   20.1940 C   0  0  0  0  0  3  0  0  0  0  0  0
  -21.7950   -6.9660   21.4030 O   0  0  0  0  0  0  0  0  0  0  0  0
  -21.7330   -6.2290   22.5570 C   0  0  0  0  0  0  0  0  0  0  0  0
  -21.2810   -6.7880   23.7740 C   0  0  0  0  0  3  0  0  0  0  0  0
  -21.1640   -5.9760   24.9200 C   0  0  0  0  0  3  0  0  0  0  0  0
  -21.4860   -4.6070   24.8500 C   0  0  0  0  0  0  0  0  0  0  0  0
  -21.9340   -4.0500   23.6390 C   0  0  0  0  0  3  0  0  0  0  0  0
  -22.0520   -4.8580   22.4940 C   0  0  0  0  0  0  0  0  0  0  0  0
  -22.4620   -4.3090   21.3250 F   0  0  0  0  0  0  0  0  0  0  0  0
  -21.3670   -3.8250   25.9480 F   0  0  0  0  0  0  0  0  0  0  0  0
  -22.8600  -13.6020   21.0630 C   0  0  0  0  0  0  0  0  0  0  0  0
  -22.1200  -12.9130   21.9190 N   0  0  0  0  0  0  0  0  0  0  0  0
  -22.4260  -14.6270   20.5340 O   0  0  0  0  0  0  0  0  0  0  0  0
  -22.4800  -12.0910   22.3840 H   0  0  0  0  0  0  0  0  0  0  0  0
  -21.1780  -13.2160   22.1180 H   0  0  0  0  0  0  0  0  0  0  0  0
  -25.4710  -15.2870   20.2900 N   0  0  0  0  0  0  0  0  0  0  0  0
  -24.6860  -15.9140   20.4470 H   0  0  0  0  0  0  0  0  0  0  0  0
  -26.3060  -15.7720   19.9960 H   0  0  0  0  0  0  0  0  0  0  0  0
  -30.8570  -20.8400   22.8500 C   0  0  0  0  0  1  0  0  0  0  0  0
  -30.3340  -21.9760   21.9260 C   0  0  0  0  0  2  0  0  0  0  0  0
  -29.0000  -23.1690   19.9980 C   0  0  0  0  0  2  0  0  0  0  0  0
  -28.1460  -24.5780   20.5440 C   0  0  0  0  0  2  0  0  0  0  0  0
  -28.3140  -26.1350   20.2360 O   0  0  0  0  0  0  0  0  0  0  0  0
  -24.6190  -31.8890   23.2050 C   0  0  0  0  0  0  0  0  0  0  0  0
  -27.2350  -27.1220   20.2280 C   0  0  0  0  0  0  0  0  0  0  0  0
  -23.4310  -30.4780   21.5730 C   0  0  0  0  0  3  0  0  0  0  0  0
  -24.8900  -28.8850   20.1710 C   0  0  0  0  0  0  0  0  0  0  0  0
  -25.9900  -30.7390   21.4190 C   0  0  0  0  0  2  0  0  0  0  0  0
  -26.0700  -29.3380   20.7750 C   0  0  0  0  0  0  0  0  0  0  0  0
  -27.2420  -28.4780   20.7730 C   0  0  0  0  0  3  0  0  0  0  0  0
  -26.0200  -26.7750   19.5950 C   0  0  0  0  0  3  0  0  0  0  0  0
  -24.8800  -27.6140   19.5660 C   0  0  0  0  0  3  0  0  0  0  0  0
  -23.6630  -29.7870   20.2010 C   0  0  0  0  0  2  0  0  0  0  0  0
  -24.7010  -31.0600   22.1200 N   0  0  0  0  0  0  0  0  0  0  0  0
  -23.5290  -32.1750   23.7250 O   0  0  0  0  0  0  0  0  0  0  0  0
  -22.7470  -29.4820   22.5430 C   0  0  0  0  0  0  0  0  0  0  0  0
  -21.4190  -29.3060   22.4140 N   0  0  0  0  0  0  0  0  0  0  0  0
  -23.4140  -28.8700   23.3810 O   0  0  0  0  0  0  0  0  0  0  0  0
  -20.9310  -29.8600   21.7250 H   0  0  0  0  0  0  0  0  0  0  0  0
  -18.0410  -28.0870   22.9180 C   0  0  0  0  0  0  0  0  0  0  0  0
  -20.5990  -28.3700   23.1910 C   0  0  0  0  0  3  0  0  0  0  0  0
  -20.7110  -26.9330   22.6330 C   0  0  0  0  0  2  0  0  0  0  0  0
  -19.6150  -26.5940   21.6160 C   0  0  0  0  0  2  0  0  0  0  0  0
  -18.2300  -26.7330   22.2540 C   0  0  0  0  0  2  0  0  0  0  0  0
  -19.1530  -28.8620   23.3460 C   0  0  0  0  0  0  0  0  0  0  0  0
  -18.9230  -30.1250   23.9320 C   0  0  0  0  0  3  0  0  0  0  0  0
  -17.6130  -30.6140   24.0960 C   0  0  0  0  0  3  0  0  0  0  0  0
  -16.5160  -29.8390   23.6820 C   0  0  0  0  0  3  0  0  0  0  0  0
  -16.7320  -28.5780   23.1000 C   0  0  0  0  0  3  0  0  0  0  0  0
  -25.8910  -32.5340   23.8360 C   0  0  0  0  0  3  0  0  0  0  0  0
  -26.3930  -31.7810   25.1310 C   0  0  1  0  0  0  0  0  0  0  0  0
  -25.2920  -31.5690   26.1960 C   0  0  0  0  0  1  0  0  0  0  0  0
  -26.9770  -30.3930   24.7770 C   0  0  0  0  0  1  0  0  0  0  0  0
  -27.5310  -32.5890   25.7990 C   0  0  0  0  0  1  0  0  0  0  0  0
  -25.5660  -33.9340   24.1570 N   0  0  0  0  0  0  0  0  0  0  0  0
  -25.9050  -34.9940   23.4090 C   0  0  0  0  0  0  0  0  0  0  0  0
  -26.5900  -34.8950   22.3870 O   0  0  0  0  0  0  0  0  0  0  0  0
  -24.9480  -34.0810   24.9420 H   0  0  0  0  0  0  0  0  0  0  0  0
  -24.1880  -36.8020   23.0420 C   0  0  0  0  0  1  0  0  0  0  0  0
  -25.4140  -36.3810   23.8690 C   0  0  0  0  0  3  0  0  0  0  0  0
  -27.5360  -37.2630   24.7380 C   0  0  0  0  0  1  0  0  0  0  0  0
  -26.4480  -37.4340   23.7780 N   0  0  0  0  0  0  0  0  0  0  0  0
  -26.0360  -38.3520   23.9200 H   0  0  0  0  0  0  0  0  0  0  0  0
  1 48  1  0
  1 47  1  0
  3  4  2  0
  4  1  1  0
  4  2  1  0
  5 16  1  0
  5  2  2  0
  6  7  1  0
  7  3  1  0
  7  5  1  0
  8 16  1  0
  9 14  1  0
 10 11  1  0
 10  9  1  0
 12 11  1  0
 12 21  1  0
 12 13  1  0
 14  8  1  0
 14 13  1  0
 15  8  2  0
 16 17  1  0
 18 19  2  0
 19 38  1  0
 20 19  1  0
 20 23  1  0
 21 18  1  0
 21 22  1  0
 22 20  2  0
 23 24  1  0
 24 25  2  0
 26 29  1  0
 26 25  1  0
 27 26  2  0
 28 27  1  0
 28 23  2  0
 29 30  1  0
 30 31  1  0
 31 32  2  0
 33 32  1  0
 33 37  1  0
 34 33  2  0
 35 30  2  0
 35 34  1  0
 36 35  1  0
 38 39  1  0
 39 42  1  0
 39 41  1  0
 40 38  2  0
 43 44  1  0
 43 18  1  0
 45 43  1  0
 47 46  1  0
 48 49  1  0
 50 49  1  0
 51 62  2  0
 52 50  1  0
 52 57  1  0
 53 61  1  0
 53 63  1  0
 54 60  1  0
 54 56  1  0
 55 61  1  0
 56 55  1  0
 57 56  2  0
 58 52  2  0
 59 58  1  0
 59 54  2  0
 60 53  1  0
 61 51  1  0
 63 65  2  0
 64 63  1  0
 66 64  1  0
 67 76  2  0
 67 72  1  0
 68 64  1  0
 68 72  1  0
 69 68  1  0
 70 71  1  0
 70 69  1  0
 71 67  1  0
 72 73  2  0
 73 74  1  0
 75 74  2  0
 76 75  1  0
 77 51  1  0
 77 82  1  0
 77 78  1  0
 78 81  1  1
 78 79  1  0
 80 78  1  0
 82 85  1  0
 83 87  1  0
 83 82  1  0
 84 83  2  0
 87 86  1  0
 89 87  1  0
 89 90  1  0
 89 88  1  0
M  ISO  4   8 100  16 100  49 101  50 101
M  END
>  <TORSDO>  (36) 
F 20

>  <SCORE>  (36) 
-15.425

>  <name>  (36) 
35

>  <ligand_id>  (36) 
35

>  <original_smiles>  (36) 
[H]c1c([H])c([H])c2c(c1[H])C([H])([H])C([H])([H])C([H])([H])C2([H])N([H])C(=O)C1([H])N(C(=O)C([H])(N([H])C(=O)C([H])(N([H])C([H])([H])[H])C([H])([H])[H])C(C([H])([H])[H])(C([H])([H])[H])C([H])([H])[H])C([H])([H])c2c([H])c(OC([H])([H])C([H])([H])C([H])(c3c([H])c(N([H])C(=O)N4C([H])([H])C([H])([H])C([H])([H])C([H])(n5nc(-c6c([H])c([H])c(Oc7c([H])c([H])c(F)c([H])c7F)c([H])c6[H])c(C(=O)N([H])[H])c5N([H])[H])C4([H])[H])n(C([H])([H])[H])c3[H])C([H])([H])C([H])([H])[H])c([H])c([H])c2C1([H])[H]

>  <smiles>  (36) 
[H]c1c([H])c([H])c2c(c1[H])C([H])([H])C([H])([H])C([H])([H])C2([H])N([H])C(=O)C1([H])N(C(=O)C([H])(N([H])C(=O)C([H])(N([H])C([H])([H])[H])C([H])([H])[H])C(C([H])([H])[H])(C([H])([H])[H])C([H])([H])[H])C([H])([H])c2c([H])c(OC([H])([H])C([H])([H])C([H])(c3c([H])c(N([H])C(=O)N4C([H])([H])C([H])([H])C([H])([H])C([H])(n5nc(-c6c([H])c([H])c(Oc7c([H])c([H])c(F)c([H])c7F)c([H])c6[H])c(C(=O)N([H])[H])c5N([H])[H])C4([H])[H])n(C([H])([H])[H])c3[H])C([H])([H])C([H])([H])[H])c([H])c([H])c2C1([H])[H]

$$$$
36:0:0
     RDKit          3D

 93101  0  0  1  0  0  0  0  0999 V2000
  -30.3590  -19.1940   19.3660 C   0  0  0  0  0  3  0  0  0  0  0  0
  -29.2980  -19.7150   21.2100 C   0  0  0  0  0  3  0  0  0  0  0  0
  -29.9360  -18.6290   20.6040 C   0  0  0  0  0  0  0  0  0  0  0  0
  -30.0480  -20.5400   19.2850 C   0  0  0  0  0  0  0  0  0  0  0  0
  -29.3490  -20.9140   20.4430 N   0  0  0  0  0  0  0  0  0  0  0  0
  -31.5770  -20.9970   17.3340 C   0  0  0  0  0  1  0  0  0  0  0  0
  -30.3840  -21.4970   18.1710 C   0  0  0  0  0  3  0  0  0  0  0  0
  -29.3660  -22.9590   16.2990 C   0  0  0  0  0  1  0  0  0  0  0  0
  -29.1630  -21.7870   17.2710 C   0  0  0  0  0  2  0  0  0  0  0  0
  -30.2880  -17.1850   21.1840 C   0  0  0  0  0  2  0  0  0  0  0  0
  -30.5480  -14.7430   20.2560 C   0  0  0  0  0  0  0  0  0  0  0  0
  -30.2870  -12.5390   19.1020 C   0  0  0  0  0  2  0  0  0  0  0  0
  -29.3040  -12.6740   17.9190 C   0  0  0  0  0  2  0  0  0  0  0  0
  -27.8480  -12.4840   18.3920 C   0  0  0  0  0  2  0  0  0  0  0  0
  -27.5230  -13.3130   19.6630 C   0  0  0  0  0  3  0  0  0  0  0  0
  -28.6200  -13.1620   20.7390 C   0  0  0  0  0  2  0  0  0  0  0  0
  -29.8940  -13.5410   20.1150 N   0  0  0  0  0  0  0  0  0  0  0  0
  -31.7290  -14.8480   19.9160 O   0  0  0  0  0  0  0  0  0  0  0  0
  -29.8100  -15.8550   20.6220 N   0  0  0  0  0  0  0  0  0  0  0  0
  -28.8240  -15.6810   20.7430 H   0  0  0  0  0  0  0  0  0  0  0  0
  -25.1500  -13.8830   20.4560 C   0  0  0  0  0  0  0  0  0  0  0  0
  -24.1000  -13.0980   20.8500 C   0  0  0  0  0  0  0  0  0  0  0  0
  -24.5750  -11.7500   20.7980 C   0  0  0  0  0  0  0  0  0  0  0  0
  -26.1950  -13.0130   20.1880 N   0  0  0  0  0  0  0  0  0  0  0  0
  -25.8570  -11.7260   20.4540 N   0  0  0  0  0  0  0  0  0  0  0  0
  -23.8630  -10.4810   20.9950 C   0  0  0  0  0  0  0  0  0  0  0  0
  -24.3170   -9.5170   21.9220 C   0  0  0  0  0  3  0  0  0  0  0  0
  -23.6060   -8.3120   22.1080 C   0  0  0  0  0  3  0  0  0  0  0  0
  -22.4260   -8.0610   21.3660 C   0  0  0  0  0  0  0  0  0  0  0  0
  -21.9930   -9.0150   20.4280 C   0  0  0  0  0  3  0  0  0  0  0  0
  -22.7030  -10.2120   20.2400 C   0  0  0  0  0  3  0  0  0  0  0  0
  -21.6840   -6.9100   21.4630 O   0  0  0  0  0  0  0  0  0  0  0  0
  -21.6530   -6.1690   22.6170 C   0  0  0  0  0  0  0  0  0  0  0  0
  -21.2180   -6.7170   23.8440 C   0  0  0  0  0  3  0  0  0  0  0  0
  -21.1340   -5.9000   24.9900 C   0  0  0  0  0  3  0  0  0  0  0  0
  -21.4760   -4.5360   24.9100 C   0  0  0  0  0  0  0  0  0  0  0  0
  -21.9040   -3.9870   23.6870 C   0  0  0  0  0  3  0  0  0  0  0  0
  -21.9900   -4.8010   22.5440 C   0  0  0  0  0  0  0  0  0  0  0  0
  -22.3800   -4.2630   21.3650 F   0  0  0  0  0  0  0  0  0  0  0  0
  -21.3890   -3.7510   26.0080 F   0  0  0  0  0  0  0  0  0  0  0  0
  -22.7070  -13.5610   21.1600 C   0  0  0  0  0  0  0  0  0  0  0  0
  -22.0020  -12.8490   22.0330 N   0  0  0  0  0  0  0  0  0  0  0  0
  -22.2490  -14.5890   20.6610 O   0  0  0  0  0  0  0  0  0  0  0  0
  -22.3830  -12.0190   22.4610 H   0  0  0  0  0  0  0  0  0  0  0  0
  -21.0660  -13.1410   22.2780 H   0  0  0  0  0  0  0  0  0  0  0  0
  -25.2970  -15.2560   20.2780 N   0  0  0  0  0  0  0  0  0  0  0  0
  -24.5250  -15.9020   20.4030 H   0  0  0  0  0  0  0  0  0  0  0  0
  -26.1190  -15.7040   19.8910 H   0  0  0  0  0  0  0  0  0  0  0  0
  -28.6630  -22.2380   20.8310 C   0  0  0  0  0  3  0  0  0  0  0  0
  -29.1110  -23.7340   20.3650 C   0  0  0  0  0  3  0  0  0  0  0  0
  -28.3210  -25.1430   22.3960 C   0  0  0  0  0  1  0  0  0  0  0  0
  -28.2280  -25.0070   20.8670 C   0  0  0  0  0  3  0  0  0  0  0  0
  -28.4560  -26.4070   20.3540 O   0  0  0  0  0  0  0  0  0  0  0  0
  -24.6570  -31.8850   23.2570 C   0  0  0  0  0  0  0  0  0  0  0  0
  -27.3550  -27.2920   20.2960 C   0  0  0  0  0  0  0  0  0  0  0  0
  -23.4980  -30.4720   21.5980 C   0  0  0  0  0  3  0  0  0  0  0  0
  -24.9890  -28.9180   20.2130 C   0  0  0  0  0  0  0  0  0  0  0  0
  -26.0410  -30.7970   21.4680 C   0  0  0  0  0  2  0  0  0  0  0  0
  -26.1440  -29.4120   20.8340 C   0  0  0  0  0  0  0  0  0  0  0  0
  -27.3320  -28.6110   20.8620 C   0  0  0  0  0  3  0  0  0  0  0  0
  -26.1810  -26.8680   19.6370 C   0  0  0  0  0  3  0  0  0  0  0  0
  -25.0130  -27.6550   19.6020 C   0  0  0  0  0  3  0  0  0  0  0  0
  -23.7470  -29.7900   20.2270 C   0  0  0  0  0  2  0  0  0  0  0  0
  -24.7500  -31.0700   22.1650 N   0  0  0  0  0  0  0  0  0  0  0  0
  -23.5600  -32.1580   23.7670 O   0  0  0  0  0  0  0  0  0  0  0  0
  -22.8190  -29.4580   22.5510 C   0  0  0  0  0  0  0  0  0  0  0  0
  -21.4960  -29.2730   22.4010 N   0  0  0  0  0  0  0  0  0  0  0  0
  -23.4840  -28.8390   23.3870 O   0  0  0  0  0  0  0  0  0  0  0  0
  -21.0170  -29.8260   21.7030 H   0  0  0  0  0  0  0  0  0  0  0  0
  -18.1140  -28.0670   22.8510 C   0  0  0  0  0  0  0  0  0  0  0  0
  -20.6680  -28.3360   23.1610 C   0  0  0  0  0  3  0  0  0  0  0  0
  -20.7820  -26.9030   22.5920 C   0  0  0  0  0  2  0  0  0  0  0  0
  -19.7000  -26.5740   21.5600 C   0  0  0  0  0  2  0  0  0  0  0  0
  -18.3060  -26.7170   22.1810 C   0  0  0  0  0  2  0  0  0  0  0  0
  -19.2230  -28.8330   23.2980 C   0  0  0  0  0  0  0  0  0  0  0  0
  -18.9900  -30.0960   23.8830 C   0  0  0  0  0  3  0  0  0  0  0  0
  -17.6820  -30.5940   24.0270 C   0  0  0  0  0  3  0  0  0  0  0  0
  -16.5860  -29.8250   23.5970 C   0  0  0  0  0  3  0  0  0  0  0  0
  -16.8030  -28.5640   23.0140 C   0  0  0  0  0  3  0  0  0  0  0  0
  -25.9200  -32.5320   23.9020 C   0  0  0  0  0  3  0  0  0  0  0  0
  -25.5970  -33.9340   24.2070 N   0  0  0  0  0  0  0  0  0  0  0  0
  -25.9430  -34.9790   23.4430 C   0  0  0  0  0  0  0  0  0  0  0  0
  -26.6360  -34.8660   22.4300 O   0  0  0  0  0  0  0  0  0  0  0  0
  -24.9810  -34.0950   24.9900 H   0  0  0  0  0  0  0  0  0  0  0  0
  -24.2210  -36.7660   23.0310 C   0  0  0  0  0  1  0  0  0  0  0  0
  -25.4430  -36.3720   23.8750 C   0  0  0  0  0  3  0  0  0  0  0  0
  -27.5550  -37.2730   24.7470 C   0  0  0  0  0  1  0  0  0  0  0  0
  -26.4770  -37.4260   23.7740 N   0  0  0  0  0  0  0  0  0  0  0  0
  -26.0650  -38.3470   23.9010 H   0  0  0  0  0  0  0  0  0  0  0  0
  -26.4060  -31.7820   25.2030 C   0  0  1  0  0  0  0  0  0  0  0  0
  -25.2870  -31.5590   26.2470 C   0  0  0  0  0  1  0  0  0  0  0  0
  -27.0020  -30.4000   24.8460 C   0  0  0  0  0  1  0  0  0  0  0  0
  -27.5370  -32.5880   25.8820 C   0  0  0  0  0  1  0  0  0  0  0  0
  1  3  1  0
  3 10  1  0
  3  2  2  0
  4  1  2  0
  4  5  1  0
  5 49  1  0
  5  2  1  0
  7  6  1  0
  7  4  1  0
  8  9  1  0
  9  7  1  0
 11 19  1  0
 12 17  1  0
 13 14  1  0
 13 12  1  0
 15 14  1  0
 15 24  1  0
 15 16  1  0
 17 11  1  0
 17 16  1  0
 18 11  2  0
 19 20  1  0
 19 10  1  0
 21 22  2  0
 22 41  1  0
 23 22  1  0
 23 26  1  0
 24 25  1  0
 24 21  1  0
 25 23  2  0
 26 27  1  0
 27 28  2  0
 29 32  1  0
 29 28  1  0
 30 29  2  0
 31 30  1  0
 31 26  2  0
 32 33  1  0
 33 34  1  0
 34 35  2  0
 36 35  1  0
 36 40  1  0
 37 36  2  0
 38 33  2  0
 38 37  1  0
 39 38  1  0
 41 42  1  0
 42 45  1  0
 42 44  1  0
 43 41  2  0
 46 47  1  0
 46 21  1  0
 48 46  1  0
 50 49  2  0
 50 52  1  0
 52 51  1  0
 53 52  1  0
 54 65  2  0
 55 53  1  0
 55 60  1  0
 56 64  1  0
 56 66  1  0
 57 63  1  0
 57 59  1  0
 58 64  1  0
 59 60  2  0
 59 58  1  0
 61 55  2  0
 62 61  1  0
 62 57  2  0
 63 56  1  0
 64 54  1  0
 66 68  2  0
 67 66  1  0
 69 67  1  0
 70 79  2  0
 70 75  1  0
 71 67  1  0
 71 75  1  0
 72 71  1  0
 73 74  1  0
 73 72  1  0
 74 70  1  0
 75 76  2  0
 76 77  1  0
 78 77  2  0
 79 78  1  0
 80 54  1  0
 80 81  1  0
 80 90  1  0
 81 84  1  0
 82 86  1  0
 82 81  1  0
 83 82  2  0
 86 85  1  0
 88 86  1  0
 88 89  1  0
 88 87  1  0
 90 93  1  1
 90 91  1  0
 92 90  1  0
M  ISO  4  11 100  19 100  52 101  53 101
M  END
>  <TORSDO>  (37) 
F 22

>  <SCORE>  (37) 
-12.943

>  <name>  (37) 
36

>  <ligand_id>  (37) 
36

>  <original_smiles>  (37) 
[H]c1c([H])c([H])c2c(c1[H])C([H])([H])C([H])([H])C([H])([H])C2([H])N([H])C(=O)C1([H])N(C(=O)C([H])(N([H])C(=O)C([H])(N([H])C([H])([H])[H])C([H])([H])[H])C(C([H])([H])[H])(C([H])([H])[H])C([H])([H])[H])C([H])([H])c2c([H])c(OC([H])(C([H])([H])[H])C([H])([H])C([H])([H])n3c([H])c(C([H])([H])N([H])C(=O)N4C([H])([H])C([H])([H])C([H])([H])C([H])(n5nc(-c6c([H])c([H])c(Oc7c([H])c([H])c(F)c([H])c7F)c([H])c6[H])c(C(=O)N([H])[H])c5N([H])[H])C4([H])[H])c([H])c3C([H])(C([H])([H])[H])C([H])([H])C([H])([H])[H])c([H])c([H])c2C1([H])[H]

>  <smiles>  (37) 
[H]c1c([H])c([H])c2c(c1[H])C([H])([H])C([H])([H])C([H])([H])C2([H])N([H])C(=O)C1([H])N(C(=O)C([H])(N([H])C(=O)C([H])(N([H])C([H])([H])[H])C([H])([H])[H])C(C([H])([H])[H])(C([H])([H])[H])C([H])([H])[H])C([H])([H])c2c([H])c(OC([H])(C([H])([H])[H])C([H])([H])C([H])([H])n3c([H])c(C([H])([H])N([H])C(=O)N4C([H])([H])C([H])([H])C([H])([H])C([H])(n5nc(-c6c([H])c([H])c(Oc7c([H])c([H])c(F)c([H])c7F)c([H])c6[H])c(C(=O)N([H])[H])c5N([H])[H])C4([H])[H])c([H])c3C([H])(C([H])([H])[H])C([H])([H])C([H])([H])[H])c([H])c([H])c2C1([H])[H]

$$$$
37:0:0
     RDKit          3D

 90 98  0  0  1  0  0  0  0  0999 V2000
  -30.9260  -21.0560   18.1300 C   0  0  0  0  0  1  0  0  0  0  0  0
  -30.1640  -21.0110   19.4660 C   0  0  0  0  0  3  0  0  0  0  0  0
  -30.4600  -18.2150   19.4840 C   0  0  0  0  0  3  0  0  0  0  0  0
  -28.7290  -19.0930   20.5790 C   0  0  0  0  0  3  0  0  0  0  0  0
  -29.7920  -19.4910   19.8080 C   0  0  0  0  0  0  0  0  0  0  0  0
  -29.7810  -17.1430   20.0620 C   0  0  0  0  0  0  0  0  0  0  0  0
  -27.7030  -16.9830   21.5020 C   0  0  0  0  0  1  0  0  0  0  0  0
  -28.7060  -17.7070   20.7370 N   0  0  0  0  0  0  0  0  0  0  0  0
  -30.7300  -14.7620   19.5060 C   0  0  0  0  0  0  0  0  0  0  0  0
  -30.5490  -12.4740   18.4980 C   0  0  0  0  0  2  0  0  0  0  0  0
  -29.4500  -12.5030   17.4100 C   0  0  0  0  0  2  0  0  0  0  0  0
  -28.0500  -12.2830   18.0180 C   0  0  0  0  0  2  0  0  0  0  0  0
  -27.8040  -13.1550   19.2780 C   0  0  0  0  0  3  0  0  0  0  0  0
  -28.9990  -13.0610   20.2540 C   0  0  0  0  0  2  0  0  0  0  0  0
  -30.2040  -13.4860   19.5200 N   0  0  0  0  0  0  0  0  0  0  0  0
  -31.8160  -14.9890   18.9620 O   0  0  0  0  0  0  0  0  0  0  0  0
  -29.9010  -15.7420   20.0220 N   0  0  0  0  0  0  0  0  0  0  0  0
  -29.1460  -15.2870   20.5100 H   0  0  0  0  0  0  0  0  0  0  0  0
  -25.5370  -13.6920   20.3620 C   0  0  0  0  0  0  0  0  0  0  0  0
  -24.5270  -12.8920   20.8230 C   0  0  0  0  0  0  0  0  0  0  0  0
  -24.9700  -11.5470   20.6270 C   0  0  0  0  0  0  0  0  0  0  0  0
  -26.5340  -12.8330   19.9230 N   0  0  0  0  0  0  0  0  0  0  0  0
  -26.2040  -11.5340   20.1400 N   0  0  0  0  0  0  0  0  0  0  0  0
  -24.2650  -10.2720   20.8200 C   0  0  0  0  0  0  0  0  0  0  0  0
  -24.6700   -9.3460   21.8070 C   0  0  0  0  0  3  0  0  0  0  0  0
  -23.9660   -8.1370   21.9870 C   0  0  0  0  0  3  0  0  0  0  0  0
  -22.8410   -7.8440   21.1790 C   0  0  0  0  0  0  0  0  0  0  0  0
  -22.4550   -8.7580   20.1840 C   0  0  0  0  0  3  0  0  0  0  0  0
  -23.1610   -9.9590   20.0020 C   0  0  0  0  0  3  0  0  0  0  0  0
  -22.1130   -6.6820   21.2650 O   0  0  0  0  0  0  0  0  0  0  0  0
  -21.8320   -6.0960   22.4730 C   0  0  0  0  0  0  0  0  0  0  0  0
  -21.1040   -6.7720   23.4770 C   0  0  0  0  0  3  0  0  0  0  0  0
  -20.7780   -6.1090   24.6770 C   0  0  0  0  0  3  0  0  0  0  0  0
  -21.1690   -4.7700   24.8710 C   0  0  0  0  0  0  0  0  0  0  0  0
  -21.8880   -4.0940   23.8700 C   0  0  0  0  0  3  0  0  0  0  0  0
  -22.2160   -4.7550   22.6740 C   0  0  0  0  0  0  0  0  0  0  0  0
  -22.8910   -4.0920   21.7040 F   0  0  0  0  0  0  0  0  0  0  0  0
  -20.8480   -4.1300   26.0210 F   0  0  0  0  0  0  0  0  0  0  0  0
  -23.1850  -13.3440   21.3210 C   0  0  0  0  0  0  0  0  0  0  0  0
  -22.6010  -12.6100   22.2620 N   0  0  0  0  0  0  0  0  0  0  0  0
  -22.6690  -14.3830   20.9130 O   0  0  0  0  0  0  0  0  0  0  0  0
  -23.0340  -11.7690   22.6130 H   0  0  0  0  0  0  0  0  0  0  0  0
  -21.7070  -12.8950   22.6380 H   0  0  0  0  0  0  0  0  0  0  0  0
  -25.6830  -15.0710   20.2570 N   0  0  0  0  0  0  0  0  0  0  0  0
  -24.9270  -15.7070   20.4860 H   0  0  0  0  0  0  0  0  0  0  0  0
  -26.4510  -15.5300   19.7830 H   0  0  0  0  0  0  0  0  0  0  0  0
  -29.0340  -22.1850   19.4980 C   0  0  0  0  0  2  0  0  0  0  0  0
  -29.4260  -23.7700   19.4540 C   0  0  0  0  0  3  0  0  0  0  0  0
  -28.2680  -24.8930   19.2760 C   0  0  0  0  0  3  0  0  0  0  0  0
  -28.4850  -26.3740   19.4750 O   0  0  0  0  0  0  0  0  0  0  0  0
  -24.7270  -31.5390   22.9690 C   0  0  0  0  0  0  0  0  0  0  0  0
  -27.3610  -27.2400   19.5160 C   0  0  0  0  0  0  0  0  0  0  0  0
  -23.5210  -30.2590   21.2370 C   0  0  0  0  0  3  0  0  0  0  0  0
  -24.9740  -28.8460   19.6700 C   0  0  0  0  0  0  0  0  0  0  0  0
  -26.0570  -30.6170   21.0480 C   0  0  0  0  0  2  0  0  0  0  0  0
  -26.1470  -29.2950   20.2870 C   0  0  0  0  0  0  0  0  0  0  0  0
  -27.3430  -28.5070   20.1960 C   0  0  0  0  0  3  0  0  0  0  0  0
  -26.1530  -26.8620   18.8850 C   0  0  0  0  0  3  0  0  0  0  0  0
  -24.9810  -27.6390   18.9590 C   0  0  0  0  0  3  0  0  0  0  0  0
  -23.7260  -29.7000   19.8060 C   0  0  0  0  0  2  0  0  0  0  0  0
  -24.7880  -30.8190   21.8080 N   0  0  0  0  0  0  0  0  0  0  0  0
  -23.6460  -31.7550   23.5360 O   0  0  0  0  0  0  0  0  0  0  0  0
  -22.8810  -29.1600   22.1210 C   0  0  0  0  0  0  0  0  0  0  0  0
  -21.5530  -28.9900   22.0130 N   0  0  0  0  0  0  0  0  0  0  0  0
  -23.5810  -28.4690   22.8660 O   0  0  0  0  0  0  0  0  0  0  0  0
  -21.0460  -29.6030   21.3890 H   0  0  0  0  0  0  0  0  0  0  0  0
  -18.1780  -27.8040   22.5710 C   0  0  0  0  0  0  0  0  0  0  0  0
  -20.7540  -27.9850   22.7180 C   0  0  0  0  0  3  0  0  0  0  0  0
  -20.7890  -26.6280   21.9770 C   0  0  0  0  0  2  0  0  0  0  0  0
  -19.6220  -26.4440   20.9990 C   0  0  0  0  0  2  0  0  0  0  0  0
  -18.2830  -26.5400   21.7360 C   0  0  0  0  0  2  0  0  0  0  0  0
  -19.3380  -28.4920   23.0180 C   0  0  0  0  0  0  0  0  0  0  0  0
  -19.1820  -29.6810   23.7620 C   0  0  0  0  0  3  0  0  0  0  0  0
  -17.9030  -30.1830   24.0610 C   0  0  0  0  0  3  0  0  0  0  0  0
  -16.7580  -29.4910   23.6300 C   0  0  0  0  0  3  0  0  0  0  0  0
  -16.8970  -28.3020   22.8900 C   0  0  0  0  0  3  0  0  0  0  0  0
  -26.0060  -32.1390   23.6260 C   0  0  0  0  0  3  0  0  0  0  0  0
  -26.5620  -31.2640   24.8150 C   0  0  1  0  0  0  0  0  0  0  0  0
  -25.4960  -30.8960   25.8730 C   0  0  0  0  0  1  0  0  0  0  0  0
  -27.1720  -29.9470   24.2840 C   0  0  0  0  0  1  0  0  0  0  0  0
  -27.7040  -32.0220   25.5330 C   0  0  0  0  0  1  0  0  0  0  0  0
  -25.6750  -33.4920   24.0940 N   0  0  0  0  0  0  0  0  0  0  0  0
  -25.9180  -34.6180   23.4090 C   0  0  0  0  0  0  0  0  0  0  0  0
  -26.5150  -34.6260   22.3280 O   0  0  0  0  0  0  0  0  0  0  0  0
  -25.1390  -33.5580   24.9470 H   0  0  0  0  0  0  0  0  0  0  0  0
  -24.1000  -36.3530   23.3480 C   0  0  0  0  0  1  0  0  0  0  0  0
  -25.4220  -35.9430   24.0180 C   0  0  0  0  0  3  0  0  0  0  0  0
  -27.5770  -36.8650   24.7510 C   0  0  0  0  0  1  0  0  0  0  0  0
  -26.4010  -37.0470   23.9040 N   0  0  0  0  0  0  0  0  0  0  0  0
  -25.9690  -37.9350   24.1470 H   0  0  0  0  0  0  0  0  0  0  0  0
  2  1  1  0
  2 47  1  0
  2  5  1  0
  3  5  1  0
  3  6  2  0
  4  8  1  0
  5  4  2  0
  6  8  1  0
  8  7  1  0
  9 15  1  0
  9 17  1  0
 10 15  1  0
 11 12  1  0
 11 10  1  0
 13 12  1  0
 13 22  1  0
 13 14  1  0
 15 14  1  0
 16  9  2  0
 17  6  1  0
 17 18  1  0
 19 20  2  0
 20 39  1  0
 21 24  1  0
 21 20  1  0
 22 23  1  0
 22 19  1  0
 23 21  2  0
 24 25  1  0
 25 26  2  0
 27 30  1  0
 27 26  1  0
 28 27  2  0
 29 28  1  0
 29 24  2  0
 30 31  1  0
 31 36  2  0
 31 32  1  0
 32 33  2  0
 33 34  1  0
 34 38  1  0
 35 34  2  0
 36 35  1  0
 37 36  1  0
 39 40  1  0
 40 42  1  0
 40 43  1  0
 41 39  2  0
 44 19  1  0
 44 45  1  0
 46 44  1  0
 48 47  1  0
 49 48  2  0
 49 50  1  0
 50 52  1  0
 51 62  2  0
 52 57  1  0
 53 61  1  0
 53 63  1  0
 54 60  1  0
 54 56  1  0
 55 61  1  0
 56 55  1  0
 57 56  2  0
 58 59  1  0
 58 52  2  0
 59 54  2  0
 60 53  1  0
 61 51  1  0
 63 65  2  0
 64 63  1  0
 66 64  1  0
 67 76  2  0
 67 72  1  0
 68 64  1  0
 68 72  1  0
 69 68  1  0
 70 71  1  0
 70 69  1  0
 71 67  1  0
 72 73  2  0
 73 74  1  0
 75 74  2  0
 76 75  1  0
 77 51  1  0
 77 82  1  0
 77 78  1  0
 78 81  1  1
 78 79  1  0
 80 78  1  0
 82 85  1  0
 83 87  1  0
 83 82  1  0
 84 83  2  0
 87 86  1  0
 89 87  1  0
 89 90  1  0
 89 88  1  0
M  ISO  4   9 100  17 100  49 101  50 101
M  END
>  <TORSDO>  (38) 
F 20

>  <SCORE>  (38) 
-9.709

>  <name>  (38) 
37

>  <ligand_id>  (38) 
37

>  <original_smiles>  (38) 
[H]c1c([H])c([H])c2c(c1[H])C([H])([H])C([H])([H])C([H])([H])C2([H])N([H])C(=O)C1([H])N(C(=O)C([H])(N([H])C(=O)C([H])(N([H])C([H])([H])[H])C([H])([H])[H])C(C([H])([H])[H])(C([H])([H])[H])C([H])([H])[H])C([H])([H])c2c([H])c(OC([H])([H])C([H])([H])C([H])([H])C([H])(c3c([H])c(N([H])C(=O)N4C([H])([H])C([H])([H])C([H])([H])C([H])(n5nc(-c6c([H])c([H])c(Oc7c([H])c([H])c(F)c([H])c7F)c([H])c6[H])c(C(=O)N([H])[H])c5N([H])[H])C4([H])[H])n(C([H])([H])[H])c3[H])C([H])([H])[H])c([H])c([H])c2C1([H])[H]

>  <smiles>  (38) 
[H]c1c([H])c([H])c2c(c1[H])C([H])([H])C([H])([H])C([H])([H])C2([H])N([H])C(=O)C1([H])N(C(=O)C([H])(N([H])C(=O)C([H])(N([H])C([H])([H])[H])C([H])([H])[H])C(C([H])([H])[H])(C([H])([H])[H])C([H])([H])[H])C([H])([H])c2c([H])c(OC([H])([H])C([H])([H])C([H])([H])C([H])(c3c([H])c(N([H])C(=O)N4C([H])([H])C([H])([H])C([H])([H])C([H])(n5nc(-c6c([H])c([H])c(Oc7c([H])c([H])c(F)c([H])c7F)c([H])c6[H])c(C(=O)N([H])[H])c5N([H])[H])C4([H])[H])n(C([H])([H])[H])c3[H])C([H])([H])[H])c([H])c([H])c2C1([H])[H]

$$$$
38:0:0
     RDKit          3D

 93101  0  0  1  0  0  0  0  0999 V2000
  -30.1690  -20.7620   21.2320 C   0  0  0  0  0  3  0  0  0  0  0  0
  -28.8110  -19.2550   19.4170 C   0  0  0  0  0  3  0  0  0  0  0  0
  -30.5990  -19.4230   21.0050 C   0  0  0  0  0  0  0  0  0  0  0  0
  -29.9120  -18.6160   20.0490 C   0  0  0  0  0  0  0  0  0  0  0  0
  -29.0600  -21.3010   20.5460 C   0  0  0  0  0  0  0  0  0  0  0  0
  -28.3970  -20.5350   19.6480 N   0  0  0  0  0  0  0  0  0  0  0  0
  -31.6810  -19.1550   23.2950 C   0  0  0  0  0  1  0  0  0  0  0  0
  -33.1120  -19.4690   21.2170 C   0  0  0  0  0  1  0  0  0  0  0  0
  -31.8060  -18.8960   21.7840 C   0  0  0  0  0  3  0  0  0  0  0  0
  -30.0290  -16.8990   18.1200 C   0  0  0  0  0  1  0  0  0  0  0  0
  -30.4240  -17.1870   19.5850 C   0  0  0  0  0  3  0  0  0  0  0  0
  -30.8960  -14.7660   20.1770 C   0  0  0  0  0  0  0  0  0  0  0  0
  -30.5690  -12.5830   19.0320 C   0  0  0  0  0  2  0  0  0  0  0  0
  -29.5950  -12.7570   17.8470 C   0  0  0  0  0  2  0  0  0  0  0  0
  -28.1340  -12.6010   18.3150 C   0  0  0  0  0  2  0  0  0  0  0  0
  -27.8240  -13.4240   19.5950 C   0  0  0  0  0  3  0  0  0  0  0  0
  -28.9150  -13.2120   20.6640 C   0  0  0  0  0  2  0  0  0  0  0  0
  -30.2030  -13.5840   20.0570 N   0  0  0  0  0  0  0  0  0  0  0  0
  -32.0480  -14.8440   19.7320 O   0  0  0  0  0  0  0  0  0  0  0  0
  -29.5380  -16.1580   21.7100 C   0  0  0  0  0  1  0  0  0  0  0  0
  -30.1890  -15.9350   20.4120 N   0  0  0  0  0  0  0  0  0  0  0  0
  -25.4550  -14.0140   20.3960 C   0  0  0  0  0  0  0  0  0  0  0  0
  -24.3970  -13.2350   20.7830 C   0  0  0  0  0  0  0  0  0  0  0  0
  -24.8590  -11.8840   20.7190 C   0  0  0  0  0  0  0  0  0  0  0  0
  -26.4910  -13.1370   20.1150 N   0  0  0  0  0  0  0  0  0  0  0  0
  -26.1390  -11.8500   20.3700 N   0  0  0  0  0  0  0  0  0  0  0  0
  -24.1390  -10.6190   20.9130 C   0  0  0  0  0  0  0  0  0  0  0  0
  -24.5500   -9.6750   21.8800 C   0  0  0  0  0  3  0  0  0  0  0  0
  -23.8300   -8.4740   22.0610 C   0  0  0  0  0  3  0  0  0  0  0  0
  -22.6870   -8.2080   21.2720 C   0  0  0  0  0  0  0  0  0  0  0  0
  -22.2950   -9.1390   20.2930 C   0  0  0  0  0  3  0  0  0  0  0  0
  -23.0150  -10.3310   20.1120 C   0  0  0  0  0  3  0  0  0  0  0  0
  -21.9400   -7.0580   21.3600 O   0  0  0  0  0  0  0  0  0  0  0  0
  -21.7910   -6.3850   22.5460 C   0  0  0  0  0  0  0  0  0  0  0  0
  -21.2170   -6.9970   23.6820 C   0  0  0  0  0  3  0  0  0  0  0  0
  -21.0180   -6.2490   24.8590 C   0  0  0  0  0  3  0  0  0  0  0  0
  -21.3810   -4.8890   24.9000 C   0  0  0  0  0  0  0  0  0  0  0  0
  -21.9470   -4.2770   23.7670 C   0  0  0  0  0  3  0  0  0  0  0  0
  -22.1480   -5.0230   22.5920 C   0  0  0  0  0  0  0  0  0  0  0  0
  -22.6750   -4.4230   21.4980 F   0  0  0  0  0  0  0  0  0  0  0  0
  -21.1830   -4.1670   26.0260 F   0  0  0  0  0  0  0  0  0  0  0  0
  -23.0090  -13.7090   21.1020 C   0  0  0  0  0  0  0  0  0  0  0  0
  -22.3050  -12.9990   21.9770 N   0  0  0  0  0  0  0  0  0  0  0  0
  -22.5560  -14.7410   20.6100 O   0  0  0  0  0  0  0  0  0  0  0  0
  -22.6830  -12.1620   22.3950 H   0  0  0  0  0  0  0  0  0  0  0  0
  -21.3750  -13.3000   22.2340 H   0  0  0  0  0  0  0  0  0  0  0  0
  -25.6190  -15.3870   20.2360 N   0  0  0  0  0  0  0  0  0  0  0  0
  -24.8640  -16.0460   20.3890 H   0  0  0  0  0  0  0  0  0  0  0  0
  -26.4720  -15.8280   19.9190 H   0  0  0  0  0  0  0  0  0  0  0  0
  -28.4370  -22.6800   20.9380 C   0  0  0  0  0  2  0  0  0  0  0  0
  -28.8260  -24.0190   20.1940 C   0  0  0  0  0  2  0  0  0  0  0  0
  -28.0930  -25.2960   20.7780 C   0  0  0  0  0  2  0  0  0  0  0  0
  -28.3090  -26.6240   20.1800 O   0  0  0  0  0  0  0  0  0  0  0  0
  -24.5670  -31.9670   23.2180 C   0  0  0  0  0  0  0  0  0  0  0  0
  -27.1900  -27.4580   20.1530 C   0  0  0  0  0  0  0  0  0  0  0  0
  -23.3590  -30.5610   21.5870 C   0  0  0  0  0  3  0  0  0  0  0  0
  -24.8100  -29.0200   20.1520 C   0  0  0  0  0  0  0  0  0  0  0  0
  -25.8890  -30.9060   21.3800 C   0  0  0  0  0  2  0  0  0  0  0  0
  -25.9760  -29.5290   20.7390 C   0  0  0  0  0  0  0  0  0  0  0  0
  -27.1720  -28.7590   20.7300 C   0  0  0  0  0  3  0  0  0  0  0  0
  -26.0090  -26.9930   19.5380 C   0  0  0  0  0  3  0  0  0  0  0  0
  -24.8250  -27.7550   19.5430 C   0  0  0  0  0  3  0  0  0  0  0  0
  -23.5660  -29.8820   20.2070 C   0  0  0  0  0  2  0  0  0  0  0  0
  -24.6240  -31.1620   22.1200 N   0  0  0  0  0  0  0  0  0  0  0  0
  -23.4860  -32.2390   23.7620 O   0  0  0  0  0  0  0  0  0  0  0  0
  -22.7100  -29.5400   22.5530 C   0  0  0  0  0  0  0  0  0  0  0  0
  -21.3860  -29.3520   22.4310 N   0  0  0  0  0  0  0  0  0  0  0  0
  -23.3990  -28.9200   23.3690 O   0  0  0  0  0  0  0  0  0  0  0  0
  -20.8900  -29.9040   21.7450 H   0  0  0  0  0  0  0  0  0  0  0  0
  -18.0200  -28.1430   22.9550 C   0  0  0  0  0  0  0  0  0  0  0  0
  -20.5790  -28.4080   23.2050 C   0  0  0  0  0  3  0  0  0  0  0  0
  -20.6810  -26.9800   22.6210 C   0  0  0  0  0  2  0  0  0  0  0  0
  -19.5710  -26.6590   21.6150 C   0  0  0  0  0  2  0  0  0  0  0  0
  -18.1950  -26.7960   22.2730 C   0  0  0  0  0  2  0  0  0  0  0  0
  -19.1400  -28.9060   23.3780 C   0  0  0  0  0  0  0  0  0  0  0  0
  -18.9230  -30.1680   23.9740 C   0  0  0  0  0  3  0  0  0  0  0  0
  -17.6190  -30.6660   24.1510 C   0  0  0  0  0  3  0  0  0  0  0  0
  -16.5130  -29.8990   23.7450 C   0  0  0  0  0  3  0  0  0  0  0  0
  -16.7150  -28.6390   23.1540 C   0  0  0  0  0  3  0  0  0  0  0  0
  -25.8530  -32.6040   23.8310 C   0  0  0  0  0  3  0  0  0  0  0  0
  -25.5390  -34.0000   24.1640 N   0  0  0  0  0  0  0  0  0  0  0  0
  -25.8800  -35.0570   23.4140 C   0  0  0  0  0  0  0  0  0  0  0  0
  -26.5630  -34.9580   22.3900 O   0  0  0  0  0  0  0  0  0  0  0  0
  -24.9360  -34.1510   24.9590 H   0  0  0  0  0  0  0  0  0  0  0  0
  -24.1730  -36.8630   23.0270 C   0  0  0  0  0  1  0  0  0  0  0  0
  -25.3870  -36.4430   23.8720 C   0  0  0  0  0  3  0  0  0  0  0  0
  -27.4970  -37.3100   24.7790 C   0  0  0  0  0  1  0  0  0  0  0  0
  -26.4290  -37.4910   23.8010 N   0  0  0  0  0  0  0  0  0  0  0  0
  -26.0230  -38.4130   23.9410 H   0  0  0  0  0  0  0  0  0  0  0  0
  -26.3810  -31.8340   25.1030 C   0  0  1  0  0  0  0  0  0  0  0  0
  -25.2910  -31.5780   26.1700 C   0  0  0  0  0  1  0  0  0  0  0  0
  -26.9840  -30.4670   24.7040 C   0  0  0  0  0  1  0  0  0  0  0  0
  -27.5220  -32.6420   25.7670 C   0  0  0  0  0  1  0  0  0  0  0  0
  2  6  2  0
  2  4  1  0
  3  1  1  0
  3  9  1  0
  4  3  2  0
  5 50  1  0
  5  1  2  0
  6  5  1  0
  8  9  1  0
  9  7  1  0
 11 10  1  0
 11  4  1  0
 11 21  1  0
 12 21  1  0
 13 18  1  0
 14 15  1  0
 14 13  1  0
 16 15  1  0
 16 25  1  0
 16 17  1  0
 18 12  1  0
 18 17  1  0
 19 12  2  0
 21 20  1  0
 22 23  2  0
 23 42  1  0
 24 23  1  0
 24 27  1  0
 25 26  1  0
 25 22  1  0
 26 24  2  0
 27 28  1  0
 28 29  2  0
 30 33  1  0
 30 29  1  0
 31 30  2  0
 32 31  1  0
 32 27  2  0
 33 34  1  0
 34 39  2  0
 34 35  1  0
 35 36  2  0
 36 37  1  0
 37 41  1  0
 38 37  2  0
 39 38  1  0
 40 39  1  0
 42 43  1  0
 43 46  1  0
 43 45  1  0
 44 42  2  0
 47 48  1  0
 47 22  1  0
 49 47  1  0
 51 52  1  0
 51 50  1  0
 53 52  1  0
 54 65  2  0
 55 53  1  0
 55 60  1  0
 56 64  1  0
 56 66  1  0
 57 63  1  0
 57 59  1  0
 58 64  1  0
 59 58  1  0
 60 59  2  0
 61 62  1  0
 61 55  2  0
 62 57  2  0
 63 56  1  0
 64 54  1  0
 66 68  2  0
 67 66  1  0
 69 67  1  0
 70 79  2  0
 70 75  1  0
 71 67  1  0
 71 75  1  0
 72 71  1  0
 73 74  1  0
 73 72  1  0
 74 70  1  0
 75 76  2  0
 76 77  1  0
 78 77  2  0
 79 78  1  0
 80 54  1  0
 80 81  1  0
 80 90  1  0
 81 84  1  0
 82 86  1  0
 82 81  1  0
 83 82  2  0
 86 85  1  0
 88 86  1  0
 88 89  1  0
 88 87  1  0
 90 93  1  1
 90 91  1  0
 92 90  1  0
M  ISO  4  12 100  21 100  52 101  53 101
M  END
>  <TORSDO>  (39) 
F 21

>  <SCORE>  (39) 
-12.964

>  <name>  (39) 
38

>  <ligand_id>  (39) 
38

>  <original_smiles>  (39) 
[H]c1nc(C([H])([H])C([H])([H])C([H])([H])Oc2c([H])c([H])c3c(c2[H])C([H])([H])N(C(=O)C([H])(N([H])C(=O)C([H])(N([H])C([H])([H])[H])C([H])([H])[H])C(C([H])([H])[H])(C([H])([H])[H])C([H])([H])[H])C([H])(C(=O)N([H])C2([H])c4c([H])c([H])c([H])c([H])c4C([H])([H])C([H])([H])C2([H])[H])C3([H])[H])c([H])c(C([H])(C([H])([H])[H])C([H])([H])[H])c1C([H])(N(C(=O)N1C([H])([H])C([H])([H])C([H])([H])C([H])(n2nc(-c3c([H])c([H])c(Oc4c([H])c([H])c(F)c([H])c4F)c([H])c3[H])c(C(=O)N([H])[H])c2N([H])[H])C1([H])[H])C([H])([H])[H])C([H])([H])[H]

>  <smiles>  (39) 
[H]c1nc(C([H])([H])C([H])([H])C([H])([H])Oc2c([H])c([H])c3c(c2[H])C([H])([H])N(C(=O)C([H])(N([H])C(=O)C([H])(N([H])C([H])([H])[H])C([H])([H])[H])C(C([H])([H])[H])(C([H])([H])[H])C([H])([H])[H])C([H])(C(=O)N([H])C2([H])c4c([H])c([H])c([H])c([H])c4C([H])([H])C([H])([H])C2([H])[H])C3([H])[H])c([H])c(C([H])(C([H])([H])[H])C([H])([H])[H])c1C([H])(N(C(=O)N1C([H])([H])C([H])([H])C([H])([H])C([H])(n2nc(-c3c([H])c([H])c(Oc4c([H])c([H])c(F)c([H])c4F)c([H])c3[H])c(C(=O)N([H])[H])c2N([H])[H])C1([H])[H])C([H])([H])[H])C([H])([H])[H]

$$$$
39:0:0
     RDKit          3D

 95103  0  0  1  0  0  0  0  0999 V2000
  -29.7360  -19.9740   21.2850 C   0  0  0  0  0  3  0  0  0  0  0  0
  -29.9270  -18.8120   20.5290 C   0  0  0  0  0  0  0  0  0  0  0  0
  -29.5080  -19.1930   19.2060 C   0  0  0  0  0  0  0  0  0  0  0  0
  -29.1220  -20.5260   19.2630 C   0  0  0  0  0  0  0  0  0  0  0  0
  -29.2420  -21.0690   20.5310 N   0  0  0  0  0  0  0  0  0  0  0  0
  -30.5820  -18.6920   16.9620 C   0  0  0  0  0  1  0  0  0  0  0  0
  -28.1290  -18.1240   17.3600 C   0  0  0  0  0  1  0  0  0  0  0  0
  -29.5220  -18.2750   17.9920 C   0  0  0  0  0  3  0  0  0  0  0  0
  -28.6460  -21.2530   18.1870 N   0  0  0  0  0  0  0  0  0  0  0  0
  -28.5800  -20.8630   17.2540 H   0  0  0  0  0  0  0  0  0  0  0  0
  -28.3880  -22.2330   18.2220 H   0  0  0  0  0  0  0  0  0  0  0  0
  -30.5800  -17.4400   21.0270 C   0  0  0  0  0  2  0  0  0  0  0  0
  -30.8010  -14.9080   20.4220 C   0  0  0  0  0  0  0  0  0  0  0  0
  -30.5900  -12.6780   19.3140 C   0  0  0  0  0  2  0  0  0  0  0  0
  -29.6560  -12.7920   18.0900 C   0  0  0  0  0  2  0  0  0  0  0  0
  -28.1840  -12.6060   18.5120 C   0  0  0  0  0  2  0  0  0  0  0  0
  -27.8060  -13.4560   19.7550 C   0  0  0  0  0  3  0  0  0  0  0  0
  -28.8620  -13.3290   20.8750 C   0  0  0  0  0  2  0  0  0  0  0  0
  -30.1560  -13.7000   20.2930 N   0  0  0  0  0  0  0  0  0  0  0  0
  -31.9920  -15.0040   20.1130 O   0  0  0  0  0  0  0  0  0  0  0  0
  -30.0590  -16.0400   20.7230 N   0  0  0  0  0  0  0  0  0  0  0  0
  -29.0760  -15.8910   20.8880 H   0  0  0  0  0  0  0  0  0  0  0  0
  -25.4080  -14.0200   20.4620 C   0  0  0  0  0  0  0  0  0  0  0  0
  -24.3490  -13.2330   20.8240 C   0  0  0  0  0  0  0  0  0  0  0  0
  -24.8270  -11.8870   20.7990 C   0  0  0  0  0  0  0  0  0  0  0  0
  -26.4640  -13.1530   20.2350 N   0  0  0  0  0  0  0  0  0  0  0  0
  -26.1200  -11.8650   20.5000 N   0  0  0  0  0  0  0  0  0  0  0  0
  -24.1130  -10.6170   20.9800 C   0  0  0  0  0  0  0  0  0  0  0  0
  -24.5090   -9.6800   21.9610 C   0  0  0  0  0  3  0  0  0  0  0  0
  -23.7940   -8.4750   22.1290 C   0  0  0  0  0  3  0  0  0  0  0  0
  -22.6700   -8.1970   21.3160 C   0  0  0  0  0  0  0  0  0  0  0  0
  -22.2940   -9.1200   20.3250 C   0  0  0  0  0  3  0  0  0  0  0  0
  -23.0100  -10.3180   20.1550 C   0  0  0  0  0  3  0  0  0  0  0  0
  -21.9330   -7.0400   21.3910 O   0  0  0  0  0  0  0  0  0  0  0  0
  -21.7820   -6.3550   22.5710 C   0  0  0  0  0  0  0  0  0  0  0  0
  -21.1730   -6.9420   23.7020 C   0  0  0  0  0  3  0  0  0  0  0  0
  -20.9790   -6.1800   24.8700 C   0  0  0  0  0  3  0  0  0  0  0  0
  -21.3830   -4.8320   24.9090 C   0  0  0  0  0  0  0  0  0  0  0  0
  -21.9850   -4.2450   23.7820 C   0  0  0  0  0  3  0  0  0  0  0  0
  -22.1810   -5.0040   22.6150 C   0  0  0  0  0  0  0  0  0  0  0  0
  -22.7420   -4.4280   21.5250 F   0  0  0  0  0  0  0  0  0  0  0  0
  -21.1890   -4.0970   26.0290 F   0  0  0  0  0  0  0  0  0  0  0  0
  -22.9430  -13.6930   21.0800 C   0  0  0  0  0  0  0  0  0  0  0  0
  -22.2070  -12.9810   21.9260 N   0  0  0  0  0  0  0  0  0  0  0  0
  -22.5040  -14.7190   20.5630 O   0  0  0  0  0  0  0  0  0  0  0  0
  -22.5710  -12.1480   22.3660 H   0  0  0  0  0  0  0  0  0  0  0  0
  -21.2640  -13.2730   22.1360 H   0  0  0  0  0  0  0  0  0  0  0  0
  -25.5560  -15.3930   20.2840 N   0  0  0  0  0  0  0  0  0  0  0  0
  -24.7770  -16.0360   20.3790 H   0  0  0  0  0  0  0  0  0  0  0  0
  -26.3950  -15.8380   19.9340 H   0  0  0  0  0  0  0  0  0  0  0  0
  -28.7720  -22.4320   21.0500 C   0  0  0  0  0  3  0  0  0  0  0  0
  -29.0730  -23.8590   20.3340 C   0  0  0  0  0  3  0  0  0  0  0  0
  -28.6070  -25.3760   22.3960 C   0  0  0  0  0  1  0  0  0  0  0  0
  -28.3090  -25.1800   20.9010 C   0  0  0  0  0  3  0  0  0  0  0  0
  -28.5040  -26.5440   20.3010 O   0  0  0  0  0  0  0  0  0  0  0  0
  -24.6710  -31.9640   23.2480 C   0  0  0  0  0  0  0  0  0  0  0  0
  -27.3940  -27.4140   20.2580 C   0  0  0  0  0  0  0  0  0  0  0  0
  -23.5120  -30.5360   21.6030 C   0  0  0  0  0  3  0  0  0  0  0  0
  -25.0070  -29.0050   20.1970 C   0  0  0  0  0  0  0  0  0  0  0  0
  -26.0480  -30.8970   21.4430 C   0  0  0  0  0  2  0  0  0  0  0  0
  -26.1620  -29.5140   20.8050 C   0  0  0  0  0  0  0  0  0  0  0  0
  -27.3620  -28.7340   20.8190 C   0  0  0  0  0  3  0  0  0  0  0  0
  -26.2200  -26.9680   19.6150 C   0  0  0  0  0  3  0  0  0  0  0  0
  -25.0410  -27.7390   19.5880 C   0  0  0  0  0  3  0  0  0  0  0  0
  -23.7550  -29.8580   20.2280 C   0  0  0  0  0  2  0  0  0  0  0  0
  -24.7630  -31.1500   22.1550 N   0  0  0  0  0  0  0  0  0  0  0  0
  -23.5770  -32.2230   23.7690 O   0  0  0  0  0  0  0  0  0  0  0  0
  -22.8590  -29.5110   22.5620 C   0  0  0  0  0  0  0  0  0  0  0  0
  -21.5390  -29.3050   22.4220 N   0  0  0  0  0  0  0  0  0  0  0  0
  -23.5420  -28.9040   23.3920 O   0  0  0  0  0  0  0  0  0  0  0  0
  -21.0450  -29.8500   21.7280 H   0  0  0  0  0  0  0  0  0  0  0  0
  -18.1740  -28.0770   22.9350 C   0  0  0  0  0  0  0  0  0  0  0  0
  -20.7320  -28.3560   23.1910 C   0  0  0  0  0  3  0  0  0  0  0  0
  -20.8420  -26.9290   22.6030 C   0  0  0  0  0  2  0  0  0  0  0  0
  -19.7360  -26.6050   21.5940 C   0  0  0  0  0  2  0  0  0  0  0  0
  -18.3570  -26.7350   22.2470 C   0  0  0  0  0  2  0  0  0  0  0  0
  -19.2900  -28.8440   23.3650 C   0  0  0  0  0  0  0  0  0  0  0  0
  -19.0640  -30.1000   23.9690 C   0  0  0  0  0  3  0  0  0  0  0  0
  -17.7560  -30.5890   24.1490 C   0  0  0  0  0  3  0  0  0  0  0  0
  -16.6550  -29.8190   23.7340 C   0  0  0  0  0  3  0  0  0  0  0  0
  -16.8650  -28.5650   23.1320 C   0  0  0  0  0  3  0  0  0  0  0  0
  -25.9340  -32.6270   23.8800 C   0  0  0  0  0  3  0  0  0  0  0  0
  -25.5950  -34.0240   24.1900 N   0  0  0  0  0  0  0  0  0  0  0  0
  -25.9280  -35.0760   23.4310 C   0  0  0  0  0  0  0  0  0  0  0  0
  -26.6200  -34.9740   22.4140 O   0  0  0  0  0  0  0  0  0  0  0  0
  -24.9830  -34.1770   24.9780 H   0  0  0  0  0  0  0  0  0  0  0  0
  -24.1910  -36.8470   23.0190 C   0  0  0  0  0  1  0  0  0  0  0  0
  -25.4130  -36.4600   23.8670 C   0  0  0  0  0  3  0  0  0  0  0  0
  -27.5080  -37.3800   24.7590 C   0  0  0  0  0  1  0  0  0  0  0  0
  -26.4350  -37.5260   23.7790 N   0  0  0  0  0  0  0  0  0  0  0  0
  -26.0120  -38.4410   23.9050 H   0  0  0  0  0  0  0  0  0  0  0  0
  -26.4450  -31.8810   25.1740 C   0  0  1  0  0  0  0  0  0  0  0  0
  -25.3310  -31.5950   26.2080 C   0  0  0  0  0  1  0  0  0  0  0  0
  -27.1030  -30.5330   24.8030 C   0  0  0  0  0  1  0  0  0  0  0  0
  -27.5360  -32.7300   25.8700 C   0  0  0  0  0  1  0  0  0  0  0  0
  2 12  1  0
  2  1  2  0
  3  4  2  0
  3  2  1  0
  4  5  1  0
  5 51  1  0
  5  1  1  0
  6  8  1  0
  7  8  1  0
  8  3  1  0
  9 11  1  0
  9  4  1  0
 10  9  1  0
 13 21  1  0
 14 19  1  0
 15 16  1  0
 15 14  1  0
 17 16  1  0
 17 26  1  0
 17 18  1  0
 19 13  1  0
 19 18  1  0
 20 13  2  0
 21 22  1  0
 21 12  1  0
 23 24  2  0
 24 43  1  0
 25 24  1  0
 25 28  1  0
 26 23  1  0
 26 27  1  0
 27 25  2  0
 28 29  1  0
 29 30  2  0
 31 34  1  0
 31 30  1  0
 32 31  2  0
 33 32  1  0
 33 28  2  0
 34 35  1  0
 35 40  2  0
 35 36  1  0
 36 37  2  0
 37 38  1  0
 38 42  1  0
 39 38  2  0
 40 39  1  0
 41 40  1  0
 43 44  1  0
 44 47  1  0
 44 46  1  0
 45 43  2  0
 48 49  1  0
 48 23  1  0
 50 48  1  0
 52 54  1  0
 52 51  2  0
 54 53  1  0
 55 54  1  0
 56 67  2  0
 57 55  1  0
 57 62  1  0
 58 66  1  0
 58 68  1  0
 59 65  1  0
 59 61  1  0
 60 66  1  0
 61 62  2  0
 61 60  1  0
 63 57  2  0
 64 63  1  0
 64 59  2  0
 65 58  1  0
 66 56  1  0
 68 70  2  0
 69 68  1  0
 71 69  1  0
 72 81  2  0
 72 77  1  0
 73 69  1  0
 73 77  1  0
 74 73  1  0
 75 76  1  0
 75 74  1  0
 76 72  1  0
 77 78  2  0
 78 79  1  0
 80 79  2  0
 81 80  1  0
 82 56  1  0
 82 83  1  0
 82 92  1  0
 83 86  1  0
 84 88  1  0
 84 83  1  0
 85 84  2  0
 88 87  1  0
 90 88  1  0
 90 91  1  0
 90 89  1  0
 92 95  1  1
 92 93  1  0
 94 92  1  0
M  ISO  4  13 100  21 100  54 101  55 101
M  END
>  <TORSDO>  (40) 
F 22

>  <SCORE>  (40) 
-13.343

>  <name>  (40) 
39

>  <ligand_id>  (40) 
39

>  <original_smiles>  (40) 
[H]c1c([H])c([H])c2c(c1[H])C([H])([H])C([H])([H])C([H])([H])C2([H])N([H])C(=O)C1([H])N(C(=O)C([H])(N([H])C(=O)C([H])(N([H])C([H])([H])[H])C([H])([H])[H])C(C([H])([H])[H])(C([H])([H])[H])C([H])([H])[H])C([H])([H])c2c([H])c(OC([H])(C([H])([H])[H])C([H])([H])C([H])([H])n3c([H])c(C([H])([H])N([H])C(=O)N4C([H])([H])C([H])([H])C([H])([H])C([H])(n5nc(-c6c([H])c([H])c(Oc7c([H])c([H])c(F)c([H])c7F)c([H])c6[H])c(C(=O)N([H])[H])c5N([H])[H])C4([H])[H])c(C([H])(C([H])([H])[H])C([H])([H])[H])c3N([H])[H])c([H])c([H])c2C1([H])[H]

>  <smiles>  (40) 
[H]c1c([H])c([H])c2c(c1[H])C([H])([H])C([H])([H])C([H])([H])C2([H])N([H])C(=O)C1([H])N(C(=O)C([H])(N([H])C(=O)C([H])(N([H])C([H])([H])[H])C([H])([H])[H])C(C([H])([H])[H])(C([H])([H])[H])C([H])([H])[H])C([H])([H])c2c([H])c(OC([H])(C([H])([H])[H])C([H])([H])C([H])([H])n3c([H])c(C([H])([H])N([H])C(=O)N4C([H])([H])C([H])([H])C([H])([H])C([H])(n5nc(-c6c([H])c([H])c(Oc7c([H])c([H])c(F)c([H])c7F)c([H])c6[H])c(C(=O)N([H])[H])c5N([H])[H])C4([H])[H])c(C([H])(C([H])([H])[H])C([H])([H])[H])c3N([H])[H])c([H])c([H])c2C1([H])[H]

$$$$
40:0:0
     RDKit          3D

 94102  0  0  1  0  0  0  0  0999 V2000
  -30.0700  -22.7320   18.5460 C   0  0  0  0  0  3  0  0  0  0  0  0
  -30.8490  -21.6650   18.0760 C   0  0  0  0  0  3  0  0  0  0  0  0
  -29.1010  -21.2310   20.1570 C   0  0  0  0  0  3  0  0  0  0  0  0
  -29.1760  -22.5780   19.6220 C   0  0  0  0  0  0  0  0  0  0  0  0
  -30.7850  -20.3540   18.6130 C   0  0  0  0  0  0  0  0  0  0  0  0
  -29.8570  -20.0830   19.6800 C   0  0  0  0  0  0  0  0  0  0  0  0
  -33.0370  -19.2460   18.9260 C   0  0  0  0  0  1  0  0  0  0  0  0
  -32.2070  -19.5650   16.5730 C   0  0  0  0  0  1  0  0  0  0  0  0
  -31.7840  -19.3320   18.0390 C   0  0  0  0  0  3  0  0  0  0  0  0
  -29.6400  -18.6640   20.4010 C   0  0  0  0  0  3  0  0  0  0  0  0
  -30.1620  -17.2530   19.8170 C   0  0  0  0  0  3  0  0  0  0  0  0
  -30.6120  -14.7730   20.3220 C   0  0  0  0  0  0  0  0  0  0  0  0
  -30.3710  -12.5020   19.3540 C   0  0  0  0  0  2  0  0  0  0  0  0
  -29.4420  -12.6000   18.1250 C   0  0  0  0  0  2  0  0  0  0  0  0
  -27.9700  -12.4420   18.5510 C   0  0  0  0  0  2  0  0  0  0  0  0
  -27.6000  -13.3340   19.7660 C   0  0  0  0  0  3  0  0  0  0  0  0
  -28.6570  -13.2470   20.8910 C   0  0  0  0  0  2  0  0  0  0  0  0
  -29.9630  -13.5630   20.3000 N   0  0  0  0  0  0  0  0  0  0  0  0
  -31.7860  -14.8530   19.9570 O   0  0  0  0  0  0  0  0  0  0  0  0
  -29.8640  -15.9200   20.4830 N   0  0  0  0  0  0  0  0  0  0  0  0
  -28.9180  -15.7840   20.8070 H   0  0  0  0  0  0  0  0  0  0  0  0
  -25.2100  -13.9280   20.4900 C   0  0  0  0  0  0  0  0  0  0  0  0
  -24.1420  -13.1560   20.8600 C   0  0  0  0  0  0  0  0  0  0  0  0
  -24.6040  -11.8040   20.8310 C   0  0  0  0  0  0  0  0  0  0  0  0
  -26.2530  -13.0480   20.2550 N   0  0  0  0  0  0  0  0  0  0  0  0
  -25.8950  -11.7650   20.5220 N   0  0  0  0  0  0  0  0  0  0  0  0
  -23.8760  -10.5420   21.0200 C   0  0  0  0  0  0  0  0  0  0  0  0
  -24.2890   -9.5850   21.9730 C   0  0  0  0  0  3  0  0  0  0  0  0
  -23.5590   -8.3900   22.1510 C   0  0  0  0  0  3  0  0  0  0  0  0
  -22.4020   -8.1430   21.3750 C   0  0  0  0  0  0  0  0  0  0  0  0
  -22.0080   -9.0880   20.4110 C   0  0  0  0  0  3  0  0  0  0  0  0
  -22.7390  -10.2740   20.2320 C   0  0  0  0  0  3  0  0  0  0  0  0
  -21.6460   -6.9980   21.4610 O   0  0  0  0  0  0  0  0  0  0  0  0
  -21.5630   -6.2760   22.6240 C   0  0  0  0  0  0  0  0  0  0  0  0
  -21.0690   -6.8430   23.8190 C   0  0  0  0  0  3  0  0  0  0  0  0
  -20.9350   -6.0460   24.9740 C   0  0  0  0  0  3  0  0  0  0  0  0
  -21.2850   -4.6830   24.9340 C   0  0  0  0  0  0  0  0  0  0  0  0
  -21.7720   -4.1150   23.7430 C   0  0  0  0  0  3  0  0  0  0  0  0
  -21.9070   -4.9090   22.5900 C   0  0  0  0  0  0  0  0  0  0  0  0
  -22.3570   -4.3520   21.4400 F   0  0  0  0  0  0  0  0  0  0  0  0
  -21.1490   -3.9150   26.0400 F   0  0  0  0  0  0  0  0  0  0  0  0
  -22.7460  -13.6350   21.1300 C   0  0  0  0  0  0  0  0  0  0  0  0
  -22.0130  -12.9380   21.9930 N   0  0  0  0  0  0  0  0  0  0  0  0
  -22.3130  -14.6630   20.6120 O   0  0  0  0  0  0  0  0  0  0  0  0
  -22.3760  -12.1060   22.4350 H   0  0  0  0  0  0  0  0  0  0  0  0
  -21.0750  -13.2420   22.2150 H   0  0  0  0  0  0  0  0  0  0  0  0
  -25.3740  -15.2990   20.3090 N   0  0  0  0  0  0  0  0  0  0  0  0
  -24.6040  -15.9510   20.4090 H   0  0  0  0  0  0  0  0  0  0  0  0
  -26.2170  -15.7340   19.9540 H   0  0  0  0  0  0  0  0  0  0  0  0
  -28.4160  -23.8720   20.1860 C   0  0  0  0  0  3  0  0  0  0  0  0
  -26.4670  -22.9470   21.6960 C   0  0  0  0  0  1  0  0  0  0  0  0
  -26.8980  -23.6430   20.3930 C   0  0  0  0  0  2  0  0  0  0  0  0
  -28.6080  -25.2780   19.4030 C   0  0  0  0  0  2  0  0  0  0  0  0
  -28.4260  -26.5940   20.0710 O   0  0  0  0  0  0  0  0  0  0  0  0
  -24.5750  -31.7840   23.2300 C   0  0  0  0  0  0  0  0  0  0  0  0
  -27.2680  -27.3860   20.0040 C   0  0  0  0  0  0  0  0  0  0  0  0
  -23.4000  -30.4530   21.5110 C   0  0  0  0  0  3  0  0  0  0  0  0
  -24.8790  -28.9740   20.0330 C   0  0  0  0  0  0  0  0  0  0  0  0
  -25.9350  -30.7990   21.3710 C   0  0  0  0  0  2  0  0  0  0  0  0
  -26.0330  -29.4490   20.6680 C   0  0  0  0  0  0  0  0  0  0  0  0
  -27.2230  -28.6650   20.6450 C   0  0  0  0  0  3  0  0  0  0  0  0
  -26.0880  -26.9570   19.3530 C   0  0  0  0  0  3  0  0  0  0  0  0
  -24.9110  -27.7340   19.3700 C   0  0  0  0  0  3  0  0  0  0  0  0
  -23.6360  -29.8410   20.1030 C   0  0  0  0  0  2  0  0  0  0  0  0
  -24.6550  -31.0270   22.0970 N   0  0  0  0  0  0  0  0  0  0  0  0
  -23.4840  -32.0280   23.7680 O   0  0  0  0  0  0  0  0  0  0  0  0
  -22.7360  -29.3900   22.4170 C   0  0  0  0  0  0  0  0  0  0  0  0
  -21.4070  -29.2300   22.2870 N   0  0  0  0  0  0  0  0  0  0  0  0
  -23.4120  -28.7140   23.1960 O   0  0  0  0  0  0  0  0  0  0  0  0
  -20.9190  -29.8280   21.6350 H   0  0  0  0  0  0  0  0  0  0  0  0
  -18.0190  -28.0710   22.7810 C   0  0  0  0  0  0  0  0  0  0  0  0
  -20.5860  -28.2580   23.0120 C   0  0  0  0  0  3  0  0  0  0  0  0
  -20.6450  -26.8680   22.3370 C   0  0  0  0  0  2  0  0  0  0  0  0
  -19.5160  -26.6410   21.3270 C   0  0  0  0  0  2  0  0  0  0  0  0
  -18.1510  -26.7690   22.0090 C   0  0  0  0  0  2  0  0  0  0  0  0
  -19.1610  -28.7780   23.2390 C   0  0  0  0  0  0  0  0  0  0  0  0
  -18.9830  -30.0010   23.9220 C   0  0  0  0  0  3  0  0  0  0  0  0
  -17.6930  -30.5160   24.1500 C   0  0  0  0  0  3  0  0  0  0  0  0
  -16.5650  -29.8070   23.7050 C   0  0  0  0  0  3  0  0  0  0  0  0
  -16.7270  -28.5850   23.0280 C   0  0  0  0  0  3  0  0  0  0  0  0
  -25.8460  -32.3970   23.8930 C   0  0  0  0  0  3  0  0  0  0  0  0
  -25.5370  -33.7880   24.2500 N   0  0  0  0  0  0  0  0  0  0  0  0
  -25.8960  -34.8590   23.5280 C   0  0  0  0  0  0  0  0  0  0  0  0
  -26.5940  -34.7760   22.5140 O   0  0  0  0  0  0  0  0  0  0  0  0
  -24.9190  -33.9260   25.0360 H   0  0  0  0  0  0  0  0  0  0  0  0
  -24.2000  -36.6780   23.1560 C   0  0  0  0  0  1  0  0  0  0  0  0
  -25.4040  -36.2390   24.0050 C   0  0  0  0  0  3  0  0  0  0  0  0
  -27.5080  -37.0810   24.9510 C   0  0  0  0  0  1  0  0  0  0  0  0
  -26.4510  -37.2840   23.9640 N   0  0  0  0  0  0  0  0  0  0  0  0
  -26.0480  -38.2050   24.1180 H   0  0  0  0  0  0  0  0  0  0  0  0
  -26.3290  -31.5950   25.1630 C   0  0  1  0  0  0  0  0  0  0  0  0
  -25.2120  -31.3380   26.2010 C   0  0  0  0  0  1  0  0  0  0  0  0
  -26.9140  -30.2240   24.7500 C   0  0  0  0  0  1  0  0  0  0  0  0
  -27.4690  -32.3650   25.8690 C   0  0  0  0  0  1  0  0  0  0  0  0
  1  4  1  0
  2  1  2  0
  2  5  1  0
  4  3  2  0
  4 50  1  0
  5  6  2  0
  6  3  1  0
  6 10  1  0
  8  9  1  0
  9  5  1  0
  9  7  1  0
 11 10  2  0
 11 20  1  0
 12 20  1  0
 13 18  1  0
 14 15  1  0
 14 13  1  0
 16 15  1  0
 16 25  1  0
 16 17  1  0
 18 12  1  0
 18 17  1  0
 19 12  2  0
 20 21  1  0
 22 23  2  0
 23 42  1  0
 24 23  1  0
 24 27  1  0
 25 22  1  0
 25 26  1  0
 26 24  2  0
 27 28  1  0
 28 29  2  0
 30 33  1  0
 30 29  1  0
 31 30  2  0
 32 31  1  0
 32 27  2  0
 33 34  1  0
 34 35  1  0
 35 36  2  0
 37 36  1  0
 37 41  1  0
 38 37  2  0
 39 34  2  0
 39 38  1  0
 40 39  1  0
 42 43  1  0
 43 46  1  0
 43 45  1  0
 44 42  2  0
 47 48  1  0
 47 22  1  0
 49 47  1  0
 50 53  1  0
 50 52  1  0
 52 51  1  0
 53 54  1  0
 55 66  2  0
 56 54  1  0
 56 61  1  0
 57 65  1  0
 57 67  1  0
 58 64  1  0
 58 60  1  0
 59 65  1  0
 60 59  1  0
 61 60  2  0
 62 63  1  0
 62 56  2  0
 63 58  2  0
 64 57  1  0
 65 55  1  0
 67 69  2  0
 68 67  1  0
 70 68  1  0
 71 80  2  0
 71 76  1  0
 72 68  1  0
 72 76  1  0
 73 72  1  0
 74 75  1  0
 74 73  1  0
 75 71  1  0
 76 77  2  0
 77 78  1  0
 79 78  2  0
 80 79  1  0
 81 55  1  0
 81 82  1  0
 81 91  1  0
 82 85  1  0
 83 87  1  0
 83 82  1  0
 84 83  2  0
 87 86  1  0
 89 87  1  0
 89 90  1  0
 89 88  1  0
 91 94  1  1
 91 92  1  0
 93 91  1  0
M  ISO  4  12 100  20 100  53 101  54 101
M  END
>  <TORSDO>  (41) 
F 22

>  <SCORE>  (41) 
-12.950

>  <name>  (41) 
40

>  <ligand_id>  (41) 
40

>  <original_smiles>  (41) 
[H]c1c([H])c([H])c2c(c1[H])C([H])([H])C([H])([H])C([H])([H])C2([H])N([H])C(=O)C1([H])N(C(=O)C([H])(N([H])C(=O)C([H])(N([H])C([H])([H])[H])C([H])([H])[H])C(C([H])([H])[H])(C([H])([H])[H])C([H])([H])[H])C([H])([H])c2c([H])c(OC([H])([H])C([H])(c3c([H])c([H])c(C([H])(C([H])([H])[H])C([H])([H])[H])c(C([H])([H])C([H])([H])N([H])C(=O)N4C([H])([H])C([H])([H])C([H])([H])C([H])(n5nc(-c6c([H])c([H])c(Oc7c([H])c([H])c(F)c([H])c7F)c([H])c6[H])c(C(=O)N([H])[H])c5N([H])[H])C4([H])[H])c3[H])C([H])([H])C([H])([H])[H])c([H])c([H])c2C1([H])[H]

>  <smiles>  (41) 
[H]c1c([H])c([H])c2c(c1[H])C([H])([H])C([H])([H])C([H])([H])C2([H])N([H])C(=O)C1([H])N(C(=O)C([H])(N([H])C(=O)C([H])(N([H])C([H])([H])[H])C([H])([H])[H])C(C([H])([H])[H])(C([H])([H])[H])C([H])([H])[H])C([H])([H])c2c([H])c(OC([H])([H])C([H])(c3c([H])c([H])c(C([H])(C([H])([H])[H])C([H])([H])[H])c(C([H])([H])C([H])([H])N([H])C(=O)N4C([H])([H])C([H])([H])C([H])([H])C([H])(n5nc(-c6c([H])c([H])c(Oc7c([H])c([H])c(F)c([H])c7F)c([H])c6[H])c(C(=O)N([H])[H])c5N([H])[H])C4([H])[H])c3[H])C([H])([H])C([H])([H])[H])c([H])c([H])c2C1([H])[H]

$$$$
41:0:0
     RDKit          3D

 94102  0  0  1  0  0  0  0  0999 V2000
  -29.5040  -20.7610   20.6040 C   0  0  0  0  0  3  0  0  0  0  0  0
  -28.9450  -19.5630   20.2150 C   0  0  0  0  0  0  0  0  0  0  0  0
  -28.1240  -19.8660   19.0750 C   0  0  0  0  0  0  0  0  0  0  0  0
  -28.2550  -21.2130   18.8030 C   0  0  0  0  0  0  0  0  0  0  0  0
  -27.6550  -22.0370   17.6980 C   0  0  0  0  0  1  0  0  0  0  0  0
  -29.0990  -21.7820   19.7480 N   0  0  0  0  0  0  0  0  0  0  0  0
  -27.8160  -18.5890   16.9000 C   0  0  0  0  0  1  0  0  0  0  0  0
  -25.7840  -19.2470   18.2630 C   0  0  0  0  0  1  0  0  0  0  0  0
  -27.2740  -18.8580   18.3120 C   0  0  0  0  0  3  0  0  0  0  0  0
  -29.1060  -18.1820   20.8890 C   0  0  0  0  0  3  0  0  0  0  0  0
  -30.0250  -17.1540   20.1530 C   0  0  0  0  0  3  0  0  0  0  0  0
  -30.6950  -14.6980   20.2760 C   0  0  0  0  0  0  0  0  0  0  0  0
  -30.4650  -12.4890   19.1920 C   0  0  0  0  0  2  0  0  0  0  0  0
  -29.5210  -12.6890   17.9860 C   0  0  0  0  0  2  0  0  0  0  0  0
  -28.0490  -12.5130   18.4160 C   0  0  0  0  0  2  0  0  0  0  0  0
  -27.7020  -13.3430   19.6800 C   0  0  0  0  0  3  0  0  0  0  0  0
  -28.7650  -13.1580   20.7840 C   0  0  0  0  0  2  0  0  0  0  0  0
  -30.0780  -13.4840   20.2080 N   0  0  0  0  0  0  0  0  0  0  0  0
  -31.8390  -14.8830   19.8490 O   0  0  0  0  0  0  0  0  0  0  0  0
  -29.8900  -15.7410   20.6040 N   0  0  0  0  0  0  0  0  0  0  0  0
  -28.9900  -15.4810   20.9800 H   0  0  0  0  0  0  0  0  0  0  0  0
  -25.3130  -13.9170   20.4320 C   0  0  0  0  0  0  0  0  0  0  0  0
  -24.2600  -13.1310   20.8160 C   0  0  0  0  0  0  0  0  0  0  0  0
  -24.7360  -11.7840   20.7680 C   0  0  0  0  0  0  0  0  0  0  0  0
  -26.3610  -13.0470   20.1750 N   0  0  0  0  0  0  0  0  0  0  0  0
  -26.0230  -11.7610   20.4410 N   0  0  0  0  0  0  0  0  0  0  0  0
  -24.0290  -10.5140   20.9650 C   0  0  0  0  0  0  0  0  0  0  0  0
  -24.4400   -9.5810   21.9410 C   0  0  0  0  0  3  0  0  0  0  0  0
  -23.7270   -8.3760   22.1230 C   0  0  0  0  0  3  0  0  0  0  0  0
  -22.5920   -8.0940   21.3260 C   0  0  0  0  0  0  0  0  0  0  0  0
  -22.1990   -9.0170   20.3430 C   0  0  0  0  0  3  0  0  0  0  0  0
  -22.9100  -10.2160   20.1620 C   0  0  0  0  0  3  0  0  0  0  0  0
  -21.8550   -6.9360   21.4160 O   0  0  0  0  0  0  0  0  0  0  0  0
  -21.7290   -6.2520   22.5980 C   0  0  0  0  0  0  0  0  0  0  0  0
  -21.1730   -6.8510   23.7490 C   0  0  0  0  0  3  0  0  0  0  0  0
  -20.9990   -6.0900   24.9220 C   0  0  0  0  0  3  0  0  0  0  0  0
  -21.3690   -4.7320   24.9410 C   0  0  0  0  0  0  0  0  0  0  0  0
  -21.9170   -4.1340   23.7930 C   0  0  0  0  0  3  0  0  0  0  0  0
  -22.0950   -4.8920   22.6230 C   0  0  0  0  0  0  0  0  0  0  0  0
  -22.6050   -4.3080   21.5130 F   0  0  0  0  0  0  0  0  0  0  0  0
  -21.1940   -3.9960   26.0630 F   0  0  0  0  0  0  0  0  0  0  0  0
  -22.8640  -13.5910   21.1130 C   0  0  0  0  0  0  0  0  0  0  0  0
  -22.1560  -12.8770   21.9840 N   0  0  0  0  0  0  0  0  0  0  0  0
  -22.4070  -14.6120   20.6050 O   0  0  0  0  0  0  0  0  0  0  0  0
  -22.5380  -12.0520   22.4220 H   0  0  0  0  0  0  0  0  0  0  0  0
  -21.2200  -13.1670   22.2230 H   0  0  0  0  0  0  0  0  0  0  0  0
  -25.4610  -15.2900   20.2660 N   0  0  0  0  0  0  0  0  0  0  0  0
  -24.6800  -15.9250   20.3850 H   0  0  0  0  0  0  0  0  0  0  0  0
  -26.2960  -15.7510   19.9270 H   0  0  0  0  0  0  0  0  0  0  0  0
  -29.5990  -23.1760   19.7710 C   0  0  0  0  0  2  0  0  0  0  0  0
  -28.5970  -24.3290   20.1420 C   0  0  0  0  0  2  0  0  0  0  0  0
  -29.0920  -26.0140   18.1920 C   0  0  0  0  0  1  0  0  0  0  0  0
  -29.1320  -25.7400   19.7110 C   0  0  0  0  0  3  0  0  0  0  0  0
  -28.7580  -26.8990   20.4950 O   0  0  0  0  0  0  0  0  0  0  0  0
  -24.7160  -32.0040   23.3860 C   0  0  0  0  0  0  0  0  0  0  0  0
  -27.5410  -27.5570   20.4260 C   0  0  0  0  0  0  0  0  0  0  0  0
  -23.5780  -30.5410   21.7450 C   0  0  0  0  0  3  0  0  0  0  0  0
  -25.0980  -29.0090   20.3780 C   0  0  0  0  0  0  0  0  0  0  0  0
  -26.0980  -30.9600   21.5840 C   0  0  0  0  0  2  0  0  0  0  0  0
  -26.2310  -29.5750   20.9720 C   0  0  0  0  0  0  0  0  0  0  0  0
  -27.4490  -28.8540   20.9960 C   0  0  0  0  0  3  0  0  0  0  0  0
  -26.3780  -26.9980   19.8530 C   0  0  0  0  0  3  0  0  0  0  0  0
  -25.1670  -27.7180   19.8200 C   0  0  0  0  0  3  0  0  0  0  0  0
  -23.8330  -29.8370   20.3840 C   0  0  0  0  0  2  0  0  0  0  0  0
  -24.8150  -31.1850   22.2980 N   0  0  0  0  0  0  0  0  0  0  0  0
  -23.6180  -32.2540   23.9030 O   0  0  0  0  0  0  0  0  0  0  0  0
  -22.9350  -29.5240   22.7140 C   0  0  0  0  0  0  0  0  0  0  0  0
  -21.6260  -29.2770   22.5420 N   0  0  0  0  0  0  0  0  0  0  0  0
  -23.6130  -28.9550   23.5730 O   0  0  0  0  0  0  0  0  0  0  0  0
  -21.1400  -29.7880   21.8190 H   0  0  0  0  0  0  0  0  0  0  0  0
  -18.2970  -27.9260   22.9300 C   0  0  0  0  0  0  0  0  0  0  0  0
  -20.8230  -28.3240   23.3070 C   0  0  0  0  0  3  0  0  0  0  0  0
  -21.0250  -26.8830   22.7860 C   0  0  0  0  0  2  0  0  0  0  0  0
  -19.9890  -26.4700   21.7370 C   0  0  0  0  0  2  0  0  0  0  0  0
  -18.5720  -26.5660   22.3130 C   0  0  0  0  0  2  0  0  0  0  0  0
  -19.3550  -28.7580   23.3830 C   0  0  0  0  0  0  0  0  0  0  0  0
  -19.0470  -30.0290   23.9180 C   0  0  0  0  0  3  0  0  0  0  0  0
  -17.7130  -30.4680   24.0080 C   0  0  0  0  0  3  0  0  0  0  0  0
  -16.6690  -29.6340   23.5740 C   0  0  0  0  0  3  0  0  0  0  0  0
  -16.9600  -28.3650   23.0400 C   0  0  0  0  0  3  0  0  0  0  0  0
  -25.9740  -32.6800   24.0170 C   0  0  0  0  0  3  0  0  0  0  0  0
  -25.6320  -34.0800   24.2960 N   0  0  0  0  0  0  0  0  0  0  0  0
  -25.9580  -35.1140   23.5110 C   0  0  0  0  0  0  0  0  0  0  0  0
  -26.6520  -34.9920   22.4960 O   0  0  0  0  0  0  0  0  0  0  0  0
  -25.0190  -34.2490   25.0810 H   0  0  0  0  0  0  0  0  0  0  0  0
  -24.1970  -36.8550   23.0700 C   0  0  0  0  0  1  0  0  0  0  0  0
  -25.4340  -36.5060   23.9130 C   0  0  0  0  0  3  0  0  0  0  0  0
  -27.5330  -37.4700   24.7450 C   0  0  0  0  0  1  0  0  0  0  0  0
  -26.4430  -37.5780   23.7780 N   0  0  0  0  0  0  0  0  0  0  0  0
  -26.0130  -38.4930   23.8850 H   0  0  0  0  0  0  0  0  0  0  0  0
  -26.4750  -31.9560   25.3270 C   0  0  1  0  0  0  0  0  0  0  0  0
  -25.3580  -31.7010   26.3650 C   0  0  0  0  0  1  0  0  0  0  0  0
  -27.1220  -30.5950   24.9840 C   0  0  0  0  0  1  0  0  0  0  0  0
  -27.5720  -32.8070   26.0100 C   0  0  0  0  0  1  0  0  0  0  0  0
  2  1  2  0
  2 10  1  0
  3  2  1  0
  4  3  2  0
  4  6  1  0
  5  4  1  0
  6 50  1  0
  6  1  1  0
  7  9  1  0
  8  9  1  0
  9  3  1  0
 11 20  1  0
 11 10  2  0
 12 20  1  0
 13 18  1  0
 14 15  1  0
 14 13  1  0
 16 15  1  0
 16 25  1  0
 16 17  1  0
 18 12  1  0
 18 17  1  0
 19 12  2  0
 20 21  1  0
 22 23  2  0
 23 42  1  0
 24 23  1  0
 24 27  1  0
 25 22  1  0
 25 26  1  0
 26 24  2  0
 27 28  1  0
 28 29  2  0
 30 33  1  0
 30 29  1  0
 31 30  2  0
 32 31  1  0
 32 27  2  0
 33 34  1  0
 34 39  2  0
 34 35  1  0
 35 36  2  0
 36 37  1  0
 37 41  1  0
 38 37  2  0
 39 38  1  0
 40 39  1  0
 42 43  1  0
 43 46  1  0
 43 45  1  0
 44 42  2  0
 47 48  1  0
 47 22  1  0
 49 47  1  0
 50 51  1  0
 53 52  1  0
 53 51  1  0
 53 54  1  0
 55 66  2  0
 56 54  1  0
 56 61  1  0
 57 65  1  0
 57 67  1  0
 58 64  1  0
 58 60  1  0
 59 65  1  0
 60 61  2  0
 60 59  1  0
 62 56  2  0
 63 62  1  0
 63 58  2  0
 64 57  1  0
 65 55  1  0
 67 69  2  0
 68 67  1  0
 70 68  1  0
 71 80  2  0
 71 76  1  0
 72 68  1  0
 72 76  1  0
 73 72  1  0
 74 75  1  0
 74 73  1  0
 75 71  1  0
 76 77  2  0
 77 78  1  0
 79 78  2  0
 80 79  1  0
 81 55  1  0
 81 82  1  0
 81 91  1  0
 82 85  1  0
 83 87  1  0
 83 82  1  0
 84 83  2  0
 87 86  1  0
 89 90  1  0
 89 87  1  0
 89 88  1  0
 91 94  1  1
 91 92  1  0
 93 91  1  0
M  ISO  4  12 100  20 100  53 101  54 101
M  END
>  <TORSDO>  (42) 
F 22

>  <SCORE>  (42) 
-12.338

>  <name>  (42) 
41

>  <ligand_id>  (42) 
41

>  <original_smiles>  (42) 
[H]c1c([H])c([H])c2c(c1[H])C([H])([H])C([H])([H])C([H])([H])C2([H])N([H])C(=O)C1([H])N(C(=O)C([H])(N([H])C(=O)C([H])(N([H])C([H])([H])[H])C([H])([H])[H])C(C([H])([H])[H])(C([H])([H])[H])C([H])([H])[H])C([H])([H])c2c([H])c(OC([H])(C([H])([H])[H])C([H])([H])C([H])([H])n3c([H])c(C([H])([H])C([H])([H])N([H])C(=O)N4C([H])([H])C([H])([H])C([H])([H])C([H])(n5nc(-c6c([H])c([H])c(Oc7c([H])c([H])c(F)c([H])c7F)c([H])c6[H])c(C(=O)N([H])[H])c5N([H])[H])C4([H])[H])c(C([H])(C([H])([H])[H])C([H])([H])[H])c3C([H])([H])[H])c([H])c([H])c2C1([H])[H]

>  <smiles>  (42) 
[H]c1c([H])c([H])c2c(c1[H])C([H])([H])C([H])([H])C([H])([H])C2([H])N([H])C(=O)C1([H])N(C(=O)C([H])(N([H])C(=O)C([H])(N([H])C([H])([H])[H])C([H])([H])[H])C(C([H])([H])[H])(C([H])([H])[H])C([H])([H])[H])C([H])([H])c2c([H])c(OC([H])(C([H])([H])[H])C([H])([H])C([H])([H])n3c([H])c(C([H])([H])C([H])([H])N([H])C(=O)N4C([H])([H])C([H])([H])C([H])([H])C([H])(n5nc(-c6c([H])c([H])c(Oc7c([H])c([H])c(F)c([H])c7F)c([H])c6[H])c(C(=O)N([H])[H])c5N([H])[H])C4([H])[H])c(C([H])(C([H])([H])[H])C([H])([H])[H])c3C([H])([H])[H])c([H])c([H])c2C1([H])[H]

$$$$
42:0:0
     RDKit          3D

 95103  0  0  1  0  0  0  0  0999 V2000
  -30.2880  -19.3860   22.6170 C   0  0  0  0  0  3  0  0  0  0  0  0
  -30.5720  -18.3870   23.4960 C   0  0  0  0  0  0  0  0  0  0  0  0
  -30.6570  -17.1850   22.7280 C   0  0  0  0  0  0  0  0  0  0  0  0
  -30.5790  -17.5190   21.3900 C   0  0  0  0  0  0  0  0  0  0  0  0
  -30.8110  -15.7910   23.2970 C   0  0  0  0  0  1  0  0  0  0  0  0
  -30.1930  -18.8860   21.3310 N   0  0  0  0  0  0  0  0  0  0  0  0
  -29.3380  -18.8890   25.6230 C   0  0  0  0  0  1  0  0  0  0  0  0
  -31.7480  -19.6570   25.3290 C   0  0  0  0  0  1  0  0  0  0  0  0
  -30.7050  -18.5760   24.9960 C   0  0  0  0  0  3  0  0  0  0  0  0
  -30.7950  -16.5730   20.1850 C   0  0  0  0  0  2  0  0  0  0  0  0
  -31.4190  -14.2630   19.4580 C   0  0  0  0  0  0  0  0  0  0  0  0
  -30.6660  -12.2600   18.1980 C   0  0  0  0  0  2  0  0  0  0  0  0
  -29.6260  -12.6970   17.1480 C   0  0  0  0  0  2  0  0  0  0  0  0
  -28.2100  -12.6820   17.7540 C   0  0  0  0  0  2  0  0  0  0  0  0
  -28.1470  -13.4140   19.1210 C   0  0  0  0  0  3  0  0  0  0  0  0
  -29.3030  -12.9860   20.0560 C   0  0  0  0  0  2  0  0  0  0  0  0
  -30.5720  -13.1930   19.3410 N   0  0  0  0  0  0  0  0  0  0  0  0
  -32.3920  -14.3920   18.7070 O   0  0  0  0  0  0  0  0  0  0  0  0
  -32.3250  -15.0940   21.4580 C   0  0  0  0  0  1  0  0  0  0  0  0
  -31.2300  -15.1570   20.4770 N   0  0  0  0  0  0  0  0  0  0  0  0
  -25.9400  -14.2240   20.1540 C   0  0  0  0  0  0  0  0  0  0  0  0
  -24.8430  -13.5520   20.6220 C   0  0  0  0  0  0  0  0  0  0  0  0
  -25.1340  -12.1630   20.4650 C   0  0  0  0  0  0  0  0  0  0  0  0
  -26.8410  -13.2500   19.7530 N   0  0  0  0  0  0  0  0  0  0  0  0
  -26.3640  -12.0000   19.9920 N   0  0  0  0  0  0  0  0  0  0  0  0
  -24.2910  -10.9790   20.6900 C   0  0  0  0  0  0  0  0  0  0  0  0
  -24.6440   -9.9920   21.6350 C   0  0  0  0  0  3  0  0  0  0  0  0
  -23.8110   -8.8720   21.8510 C   0  0  0  0  0  3  0  0  0  0  0  0
  -22.6060   -8.7360   21.1200 C   0  0  0  0  0  0  0  0  0  0  0  0
  -22.2690   -9.7100   20.1620 C   0  0  0  0  0  3  0  0  0  0  0  0
  -23.1050  -10.8190   19.9450 C   0  0  0  0  0  3  0  0  0  0  0  0
  -21.7450   -7.6720   21.2450 O   0  0  0  0  0  0  0  0  0  0  0  0
  -21.5230   -7.0620   22.4520 C   0  0  0  0  0  0  0  0  0  0  0  0
  -21.0510   -7.7780   23.5750 C   0  0  0  0  0  3  0  0  0  0  0  0
  -20.7730   -7.0970   24.7770 C   0  0  0  0  0  3  0  0  0  0  0  0
  -20.9520   -5.7040   24.8560 C   0  0  0  0  0  0  0  0  0  0  0  0
  -21.4140   -4.9900   23.7380 C   0  0  0  0  0  3  0  0  0  0  0  0
  -21.6970   -5.6660   22.5400 C   0  0  0  0  0  0  0  0  0  0  0  0
  -22.1220   -4.9680   21.4580 F   0  0  0  0  0  0  0  0  0  0  0  0
  -20.6760   -5.0480   26.0080 F   0  0  0  0  0  0  0  0  0  0  0  0
  -23.5560  -14.1620   21.0960 C   0  0  0  0  0  0  0  0  0  0  0  0
  -22.8910  -13.5310   22.0580 N   0  0  0  0  0  0  0  0  0  0  0  0
  -23.1540  -15.2330   20.6450 O   0  0  0  0  0  0  0  0  0  0  0  0
  -23.2310  -12.6630   22.4460 H   0  0  0  0  0  0  0  0  0  0  0  0
  -22.0290  -13.9210   22.4090 H   0  0  0  0  0  0  0  0  0  0  0  0
  -26.2330  -15.5770   20.0210 N   0  0  0  0  0  0  0  0  0  0  0  0
  -25.5750  -16.2980   20.2900 H   0  0  0  0  0  0  0  0  0  0  0  0
  -27.0890  -15.9520   19.6360 H   0  0  0  0  0  0  0  0  0  0  0  0
  -29.7460  -19.7430   20.1930 C   0  0  0  0  0  3  0  0  0  0  0  0
  -29.2540  -21.2050   20.6010 C   0  0  0  0  0  3  0  0  0  0  0  0
  -27.7560  -21.7940   18.6210 C   0  0  0  0  0  1  0  0  0  0  0  0
  -28.9460  -22.2620   19.4770 C   0  0  0  0  0  3  0  0  0  0  0  0
  -28.8270  -23.7780   19.9500 C   0  0  0  0  0  3  0  0  0  0  0  0
  -27.5860  -24.6330   19.5150 C   0  0  0  0  0  3  0  0  0  0  0  0
  -27.7590  -26.0800   19.6100 O   0  0  0  0  0  0  0  0  0  0  0  0
  -24.2580  -31.3080   22.9890 C   0  0  0  0  0  0  0  0  0  0  0  0
  -26.6100  -26.8700   19.6470 C   0  0  0  0  0  0  0  0  0  0  0  0
  -22.9140  -29.9310   21.4400 C   0  0  0  0  0  3  0  0  0  0  0  0
  -24.2370  -28.4260   19.8590 C   0  0  0  0  0  0  0  0  0  0  0  0
  -25.4130  -30.2960   21.0210 C   0  0  0  0  0  2  0  0  0  0  0  0
  -25.4440  -28.9290   20.3570 C   0  0  0  0  0  0  0  0  0  0  0  0
  -26.6340  -28.1600   20.2460 C   0  0  0  0  0  3  0  0  0  0  0  0
  -25.3790  -26.4090   19.1240 C   0  0  0  0  0  3  0  0  0  0  0  0
  -24.2010  -27.1700   19.2350 C   0  0  0  0  0  3  0  0  0  0  0  0
  -22.9980  -29.2790   20.0340 C   0  0  0  0  0  2  0  0  0  0  0  0
  -24.2200  -30.5260   21.8740 N   0  0  0  0  0  0  0  0  0  0  0  0
  -23.2270  -31.5660   23.6260 O   0  0  0  0  0  0  0  0  0  0  0  0
  -22.3540  -28.8890   22.4360 C   0  0  0  0  0  0  0  0  0  0  0  0
  -21.0840  -28.4950   22.2440 N   0  0  0  0  0  0  0  0  0  0  0  0
  -23.0610  -28.4330   23.3390 O   0  0  0  0  0  0  0  0  0  0  0  0
  -20.5670  -28.9220   21.4880 H   0  0  0  0  0  0  0  0  0  0  0  0
  -17.9590  -26.6970   22.5140 C   0  0  0  0  0  0  0  0  0  0  0  0
  -20.3600  -27.5000   23.0360 C   0  0  0  0  0  3  0  0  0  0  0  0
  -20.8080  -26.0650   22.6730 C   0  0  0  0  0  2  0  0  0  0  0  0
  -19.9390  -25.4170   21.5920 C   0  0  0  0  0  2  0  0  0  0  0  0
  -18.4790  -25.3460   22.0490 C   0  0  0  0  0  2  0  0  0  0  0  0
  -18.8440  -27.7140   22.9620 C   0  0  0  0  0  0  0  0  0  0  0  0
  -18.3100  -28.9630   23.3490 C   0  0  0  0  0  3  0  0  0  0  0  0
  -16.9250  -29.2030   23.2920 C   0  0  0  0  0  3  0  0  0  0  0  0
  -16.0530  -28.1880   22.8620 C   0  0  0  0  0  3  0  0  0  0  0  0
  -16.5700  -26.9360   22.4810 C   0  0  0  0  0  3  0  0  0  0  0  0
  -25.5920  -31.9350   23.5040 C   0  0  0  0  0  3  0  0  0  0  0  0
  -25.3090  -33.3200   23.9020 N   0  0  0  0  0  0  0  0  0  0  0  0
  -25.5660  -34.3950   23.1420 C   0  0  0  0  0  0  0  0  0  0  0  0
  -26.1430  -34.3230   22.0540 O   0  0  0  0  0  0  0  0  0  0  0  0
  -24.8000  -33.4500   24.7620 H   0  0  0  0  0  0  0  0  0  0  0  0
  -23.8040  -36.1800   22.9790 C   0  0  0  0  0  1  0  0  0  0  0  0
  -25.1090  -35.7660   23.6770 C   0  0  0  0  0  3  0  0  0  0  0  0
  -27.3030  -36.6380   24.3510 C   0  0  0  0  0  1  0  0  0  0  0  0
  -26.1240  -36.8300   23.5110 N   0  0  0  0  0  0  0  0  0  0  0  0
  -25.7270  -37.7400   23.7260 H   0  0  0  0  0  0  0  0  0  0  0  0
  -26.2380  -31.1310   24.6980 C   0  0  1  0  0  0  0  0  0  0  0  0
  -25.2460  -30.7870   25.8320 C   0  0  0  0  0  1  0  0  0  0  0  0
  -26.8460  -29.8010   24.1920 C   0  0  0  0  0  1  0  0  0  0  0  0
  -27.4070  -31.9420   25.3070 C   0  0  0  0  0  1  0  0  0  0  0  0
  1  2  2  0
  2  9  1  0
  3  5  1  0
  3  2  1  0
  4  3  2  0
  6  4  1  0
  6  1  1  0
  9  8  1  0
  9  7  1  0
 10 20  1  0
 10  4  1  0
 11 20  1  0
 12 17  1  0
 13 14  1  0
 13 12  1  0
 15 14  1  0
 15 24  1  0
 15 16  1  0
 17 11  1  0
 17 16  1  0
 18 11  2  0
 20 19  1  0
 21 22  2  0
 22 41  1  0
 23 22  1  0
 23 26  1  0
 24 25  1  0
 24 21  1  0
 25 23  2  0
 26 27  1  0
 27 28  2  0
 29 32  1  0
 29 28  1  0
 30 29  2  0
 31 30  1  0
 31 26  2  0
 32 33  1  0
 33 38  2  0
 33 34  1  0
 34 35  2  0
 35 36  1  0
 36 40  1  0
 37 36  2  0
 38 37  1  0
 39 38  1  0
 41 42  1  0
 42 45  1  0
 42 44  1  0
 43 41  2  0
 46 21  1  0
 46 47  1  0
 48 46  1  0
 49 50  2  0
 49  6  1  0
 52 51  1  0
 52 53  1  0
 52 50  1  0
 54 55  1  0
 54 53  2  0
 55 57  1  0
 56 67  2  0
 57 62  1  0
 58 66  1  0
 58 68  1  0
 59 65  1  0
 59 61  1  0
 60 66  1  0
 61 60  1  0
 62 61  2  0
 63 64  1  0
 63 57  2  0
 64 59  2  0
 65 58  1  0
 66 56  1  0
 68 70  2  0
 69 68  1  0
 71 69  1  0
 72 77  1  0
 73 69  1  0
 74 73  1  0
 75 76  1  0
 75 74  1  0
 76 72  1  0
 77 73  1  0
 77 78  2  0
 79 78  1  0
 80 79  2  0
 81 72  2  0
 81 80  1  0
 82 56  1  0
 82 83  1  0
 82 92  1  0
 83 86  1  0
 84 88  1  0
 84 83  1  0
 85 84  2  0
 88 87  1  0
 90 88  1  0
 90 91  1  0
 90 89  1  0
 92 95  1  1
 92 93  1  0
 94 92  1  0
M  ISO  4  11 100  20 100  54 101  55 101
M  END
>  <TORSDO>  (43) 
F 23

>  <SCORE>  (43) 
0.661

>  <name>  (43) 
42

>  <ligand_id>  (43) 
42

>  <original_smiles>  (43) 
[H]c1c([H])c([H])c2c(c1[H])C([H])([H])C([H])([H])C([H])([H])C2([H])N([H])C(=O)C1([H])N(C(=O)C([H])(N([H])C(=O)C([H])(N([H])C([H])([H])[H])C([H])([H])[H])C(C([H])([H])[H])(C([H])([H])[H])C([H])([H])[H])C([H])([H])c2c([H])c(OC([H])([H])C([H])([H])C([H])(C([H])([H])[H])C([H])([H])C([H])([H])n3c([H])c(C([H])(C([H])([H])[H])C([H])([H])[H])c(C([H])([H])[H])c3C([H])([H])N(C(=O)N3C([H])([H])C([H])([H])C([H])([H])C([H])(n4nc(-c5c([H])c([H])c(Oc6c([H])c([H])c(F)c([H])c6F)c([H])c5[H])c(C(=O)N([H])[H])c4N([H])[H])C3([H])[H])C([H])([H])[H])c([H])c([H])c2C1([H])[H]

>  <smiles>  (43) 
[H]c1c([H])c([H])c2c(c1[H])C([H])([H])C([H])([H])C([H])([H])C2([H])N([H])C(=O)C1([H])N(C(=O)C([H])(N([H])C(=O)C([H])(N([H])C([H])([H])[H])C([H])([H])[H])C(C([H])([H])[H])(C([H])([H])[H])C([H])([H])[H])C([H])([H])c2c([H])c(OC([H])([H])C([H])([H])C([H])(C([H])([H])[H])C([H])([H])C([H])([H])n3c([H])c(C([H])(C([H])([H])[H])C([H])([H])[H])c(C([H])([H])[H])c3C([H])([H])N(C(=O)N3C([H])([H])C([H])([H])C([H])([H])C([H])(n4nc(-c5c([H])c([H])c(Oc6c([H])c([H])c(F)c([H])c6F)c([H])c5[H])c(C(=O)N([H])[H])c4N([H])[H])C3([H])[H])C([H])([H])[H])c([H])c([H])c2C1([H])[H]

$$$$
43:0:0
     RDKit          3D

 93101  0  0  1  0  0  0  0  0999 V2000
  -30.1940  -21.5720   18.8090 C   0  0  0  0  0  3  0  0  0  0  0  0
  -29.7760  -22.9530   18.7190 C   0  0  0  0  0  3  0  0  0  0  0  0
  -30.3640  -20.8380   20.0390 C   0  0  0  0  0  0  0  0  0  0  0  0
  -29.4890  -23.7520   19.8620 C   0  0  0  0  0  0  0  0  0  0  0  0
  -30.0680  -21.7310   21.1400 C   0  0  0  0  0  0  0  0  0  0  0  0
  -29.6450  -23.0600   21.0380 N   0  0  0  0  0  0  0  0  0  0  0  0
  -28.7670  -21.3530   23.2690 C   0  0  0  0  0  1  0  0  0  0  0  0
  -31.2350  -22.0080   23.3820 C   0  0  0  0  0  1  0  0  0  0  0  0
  -30.1430  -21.2630   22.5920 C   0  0  0  0  0  3  0  0  0  0  0  0
  -32.1600  -19.2440   21.0650 C   0  0  0  0  0  1  0  0  0  0  0  0
  -31.5750  -18.9340   18.7040 C   0  0  0  0  0  1  0  0  0  0  0  0
  -30.9680  -19.2760   20.0850 C   0  0  2  0  0  0  0  0  0  0  0  0
  -30.0160  -17.9550   20.3920 C   0  0  0  0  0  2  0  0  0  0  0  0
  -31.2160  -15.3630   20.3260 C   0  0  0  0  0  0  0  0  0  0  0  0
  -31.1360  -13.0140   19.3870 C   0  0  0  0  0  2  0  0  0  0  0  0
  -30.2010  -12.9950   18.1520 C   0  0  0  0  0  2  0  0  0  0  0  0
  -28.7330  -12.7900   18.5740 C   0  0  0  0  0  2  0  0  0  0  0  0
  -28.3280  -13.7000   19.7640 C   0  0  0  0  0  3  0  0  0  0  0  0
  -29.3830  -13.6710   20.8960 C   0  0  0  0  0  2  0  0  0  0  0  0
  -30.6690  -14.0830   20.3110 N   0  0  0  0  0  0  0  0  0  0  0  0
  -32.3700  -15.5130   19.9130 O   0  0  0  0  0  0  0  0  0  0  0  0
  -30.3670  -16.4350   20.6580 N   0  0  0  0  0  0  0  0  0  0  0  0
  -29.5580  -16.0120   21.0890 H   0  0  0  0  0  0  0  0  0  0  0  0
  -25.9590  -14.2830   20.5520 C   0  0  0  0  0  0  0  0  0  0  0  0
  -24.8810  -13.5080   20.8810 C   0  0  0  0  0  0  0  0  0  0  0  0
  -25.3160  -12.1530   20.7570 C   0  0  0  0  0  0  0  0  0  0  0  0
  -26.9830  -13.4010   20.2490 N   0  0  0  0  0  0  0  0  0  0  0  0
  -26.6040  -12.1100   20.4350 N   0  0  0  0  0  0  0  0  0  0  0  0
  -24.5640  -10.8960   20.8730 C   0  0  0  0  0  0  0  0  0  0  0  0
  -24.9430   -9.8900   21.7900 C   0  0  0  0  0  3  0  0  0  0  0  0
  -24.1930   -8.6990   21.8960 C   0  0  0  0  0  3  0  0  0  0  0  0
  -23.0500   -8.5050   21.0830 C   0  0  0  0  0  0  0  0  0  0  0  0
  -22.6900   -9.5000   20.1570 C   0  0  0  0  0  3  0  0  0  0  0  0
  -23.4420  -10.6820   20.0480 C   0  0  0  0  0  3  0  0  0  0  0  0
  -22.2740   -7.3700   21.1010 O   0  0  0  0  0  0  0  0  0  0  0  0
  -22.0800   -6.6480   22.2500 C   0  0  0  0  0  0  0  0  0  0  0  0
  -21.5140   -7.2280   23.4060 C   0  0  0  0  0  3  0  0  0  0  0  0
  -21.2660   -6.4330   24.5440 C   0  0  0  0  0  3  0  0  0  0  0  0
  -21.5750   -5.0600   24.5240 C   0  0  0  0  0  0  0  0  0  0  0  0
  -22.1330   -4.4800   23.3720 C   0  0  0  0  0  3  0  0  0  0  0  0
  -22.3820   -5.2710   22.2370 C   0  0  0  0  0  0  0  0  0  0  0  0
  -22.9000   -4.7020   21.1220 F   0  0  0  0  0  0  0  0  0  0  0  0
  -21.3300   -4.2940   25.6140 F   0  0  0  0  0  0  0  0  0  0  0  0
  -23.4970  -13.9950   21.1980 C   0  0  0  0  0  0  0  0  0  0  0  0
  -22.7670  -13.2640   22.0330 N   0  0  0  0  0  0  0  0  0  0  0  0
  -23.0710  -15.0540   20.7400 O   0  0  0  0  0  0  0  0  0  0  0  0
  -23.1260  -12.4040   22.4210 H   0  0  0  0  0  0  0  0  0  0  0  0
  -21.8390  -13.5680   22.2890 H   0  0  0  0  0  0  0  0  0  0  0  0
  -26.1470  -15.6590   20.4620 N   0  0  0  0  0  0  0  0  0  0  0  0
  -25.3860  -16.3130   20.6170 H   0  0  0  0  0  0  0  0  0  0  0  0
  -26.9900  -16.1080   20.1280 H   0  0  0  0  0  0  0  0  0  0  0  0
  -28.6160  -25.1470   19.8310 C   0  0  0  0  0  2  0  0  0  0  0  0
  -29.0320  -26.6240   20.0370 O   0  0  0  0  0  0  0  0  0  0  0  0
  -25.3370  -31.7490   23.8410 C   0  0  0  0  0  0  0  0  0  0  0  0
  -27.9900  -27.6230   20.1100 C   0  0  0  0  0  0  0  0  0  0  0  0
  -24.1850  -30.6880   21.9380 C   0  0  0  0  0  3  0  0  0  0  0  0
  -25.6730  -29.3740   20.3140 C   0  0  0  0  0  0  0  0  0  0  0  0
  -26.7490  -30.9380   21.9170 C   0  0  0  0  0  2  0  0  0  0  0  0
  -26.8370  -29.6880   21.0270 C   0  0  0  0  0  0  0  0  0  0  0  0
  -27.9950  -28.8330   20.9110 C   0  0  0  0  0  3  0  0  0  0  0  0
  -26.7920  -27.4180   19.3810 C   0  0  0  0  0  3  0  0  0  0  0  0
  -25.6630  -28.2500   19.4800 C   0  0  0  0  0  3  0  0  0  0  0  0
  -24.4540  -30.2670   20.4720 C   0  0  0  0  0  2  0  0  0  0  0  0
  -25.4420  -31.1340   22.6240 N   0  0  0  0  0  0  0  0  0  0  0  0
  -24.2340  -31.9530   24.3690 O   0  0  0  0  0  0  0  0  0  0  0  0
  -23.4610  -29.5340   22.6770 C   0  0  0  0  0  0  0  0  0  0  0  0
  -22.1430  -29.3910   22.4500 N   0  0  0  0  0  0  0  0  0  0  0  0
  -24.0900  -28.7760   23.4210 O   0  0  0  0  0  0  0  0  0  0  0  0
  -21.6910  -30.0540   21.8370 H   0  0  0  0  0  0  0  0  0  0  0  0
  -18.7490  -28.1310   22.5330 C   0  0  0  0  0  0  0  0  0  0  0  0
  -21.2830  -28.3440   23.0100 C   0  0  0  0  0  3  0  0  0  0  0  0
  -21.4360  -27.0190   22.2270 C   0  0  0  0  0  2  0  0  0  0  0  0
  -20.4070  -26.8590   21.1050 C   0  0  0  0  0  2  0  0  0  0  0  0
  -18.9830  -26.9040   21.6680 C   0  0  0  0  0  2  0  0  0  0  0  0
  -19.8290  -28.8150   23.1510 C   0  0  0  0  0  0  0  0  0  0  0  0
  -19.5590  -29.9680   23.9190 C   0  0  0  0  0  3  0  0  0  0  0  0
  -18.2410  -30.4360   24.0760 C   0  0  0  0  0  3  0  0  0  0  0  0
  -17.1740  -29.7450   23.4780 C   0  0  0  0  0  3  0  0  0  0  0  0
  -17.4280  -28.5930   22.7110 C   0  0  0  0  0  3  0  0  0  0  0  0
  -26.5960  -32.2400   24.6150 C   0  0  0  0  0  3  0  0  0  0  0  0
  -27.0180  -31.2730   25.7910 C   0  0  1  0  0  0  0  0  0  0  0  0
  -25.8590  -30.9260   26.7560 C   0  0  0  0  0  1  0  0  0  0  0  0
  -27.5770  -29.9430   25.2350 C   0  0  0  0  0  1  0  0  0  0  0  0
  -28.1560  -31.9170   26.6190 C   0  0  0  0  0  1  0  0  0  0  0  0
  -26.3040  -33.5850   25.1360 N   0  0  0  0  0  0  0  0  0  0  0  0
  -26.6850  -34.7290   24.5540 C   0  0  0  0  0  0  0  0  0  0  0  0
  -27.3870  -34.7590   23.5390 O   0  0  0  0  0  0  0  0  0  0  0  0
  -25.6860  -33.6350   25.9340 H   0  0  0  0  0  0  0  0  0  0  0  0
  -25.0030  -36.5960   24.4320 C   0  0  0  0  0  1  0  0  0  0  0  0
  -26.2160  -36.0470   25.1990 C   0  0  0  0  0  3  0  0  0  0  0  0
  -28.3420  -36.7540   26.2010 C   0  0  0  0  0  1  0  0  0  0  0  0
  -27.2710  -37.0820   25.2650 N   0  0  0  0  0  0  0  0  0  0  0  0
  -26.8780  -37.9800   25.5360 H   0  0  0  0  0  0  0  0  0  0  0  0
  1  3  1  0
  2  1  2  0
  2  4  1  0
  3 12  1  0
  3  5  2  0
  4  6  2  0
  5  9  1  0
  6  5  1  0
  9  7  1  0
  9  8  1  0
 12 11  1  6
 12 13  1  0
 12 10  1  0
 13 22  1  0
 14 22  1  0
 15 20  1  0
 16 17  1  0
 16 15  1  0
 18 17  1  0
 18 27  1  0
 18 19  1  0
 20 14  1  0
 20 19  1  0
 21 14  2  0
 22 23  1  0
 24 25  2  0
 25 44  1  0
 26 29  1  0
 26 25  1  0
 27 28  1  0
 27 24  1  0
 28 26  2  0
 29 30  1  0
 30 31  2  0
 32 35  1  0
 32 31  1  0
 33 32  2  0
 34 33  1  0
 34 29  2  0
 35 36  1  0
 36 37  1  0
 37 38  2  0
 39 38  1  0
 39 43  1  0
 40 39  2  0
 41 36  2  0
 41 40  1  0
 42 41  1  0
 44 45  1  0
 45 48  1  0
 45 47  1  0
 46 44  2  0
 49 24  1  0
 49 50  1  0
 51 49  1  0
 52  4  1  0
 52 53  1  0
 53 55  1  0
 54 65  2  0
 55 60  1  0
 56 64  1  0
 56 66  1  0
 57 63  1  0
 57 59  1  0
 58 64  1  0
 59 58  1  0
 60 59  2  0
 61 62  1  0
 61 55  2  0
 62 57  2  0
 63 56  1  0
 64 54  1  0
 66 68  2  0
 67 66  1  0
 69 67  1  0
 70 79  2  0
 70 75  1  0
 71 67  1  0
 71 75  1  0
 72 71  1  0
 73 74  1  0
 73 72  1  0
 74 70  1  0
 75 76  2  0
 76 77  1  0
 78 77  2  0
 79 78  1  0
 80 54  1  0
 80 85  1  0
 80 81  1  0
 81 84  1  1
 81 82  1  0
 83 81  1  0
 85 88  1  0
 86 85  1  0
 86 90  1  0
 87 86  2  0
 90 89  1  0
 90 92  1  0
 92 93  1  0
 92 91  1  0
M  ISO  4  14 100  22 100  52 101  53 101
M  END
>  <TORSDO>  (44) 
F 20

>  <SCORE>  (44) 
-9.744

>  <name>  (44) 
43

>  <ligand_id>  (44) 
43

>  <original_smiles>  (44) 
[H]c1c(C([H])([H])Oc2c([H])c([H])c3c(c2[H])C([H])([H])N(C(=O)C([H])(N([H])C(=O)C([H])(N([H])C([H])([H])[H])C([H])([H])[H])C(C([H])([H])[H])(C([H])([H])[H])C([H])([H])[H])C([H])(C(=O)N([H])C2([H])c4c([H])c([H])c([H])c([H])c4C([H])([H])C([H])([H])C2([H])[H])C3([H])[H])nc(C([H])(C([H])([H])[H])C([H])([H])[H])c(C(C([H])([H])[H])(C([H])([H])[H])C([H])([H])N([H])C(=O)N2C([H])([H])C([H])([H])C([H])([H])C([H])(n3nc(-c4c([H])c([H])c(Oc5c([H])c([H])c(F)c([H])c5F)c([H])c4[H])c(C(=O)N([H])[H])c3N([H])[H])C2([H])[H])c1[H]

>  <smiles>  (44) 
[H]c1c(C([H])([H])Oc2c([H])c([H])c3c(c2[H])C([H])([H])N(C(=O)C([H])(N([H])C(=O)C([H])(N([H])C([H])([H])[H])C([H])([H])[H])C(C([H])([H])[H])(C([H])([H])[H])C([H])([H])[H])C([H])(C(=O)N([H])C2([H])c4c([H])c([H])c([H])c([H])c4C([H])([H])C([H])([H])C2([H])[H])C3([H])[H])nc(C([H])(C([H])([H])[H])C([H])([H])[H])c(C(C([H])([H])[H])(C([H])([H])[H])C([H])([H])N([H])C(=O)N2C([H])([H])C([H])([H])C([H])([H])C([H])(n3nc(-c4c([H])c([H])c(Oc5c([H])c([H])c(F)c([H])c5F)c([H])c4[H])c(C(=O)N([H])[H])c3N([H])[H])C2([H])[H])c1[H]

$$$$
44:0:0
     RDKit          3D

 90 97  0  0  1  0  0  0  0  0999 V2000
  -29.3880  -20.4950   20.2540 C   0  0  0  0  0  2  0  0  0  0  0  0
  -29.1040  -18.0550   19.0660 C   0  0  0  0  0  1  0  0  0  0  0  0
  -30.1950  -18.8510   19.7830 C   0  0  0  0  0  3  0  0  0  0  0  0
  -31.1950  -17.5090   20.6640 C   0  0  0  0  0  3  0  0  0  0  0  0
  -31.8780  -15.8350   20.2790 C   0  0  0  0  0  0  0  0  0  0  0  0
  -31.8880  -13.2860   19.5370 C   0  0  0  0  0  2  0  0  0  0  0  0
  -30.9820  -12.9660   18.3120 C   0  0  0  0  0  2  0  0  0  0  0  0
  -29.5310  -12.7000   18.7460 C   0  0  0  0  0  2  0  0  0  0  0  0
  -29.0730  -13.7200   19.8140 C   0  0  0  0  0  3  0  0  0  0  0  0
  -30.1090  -13.9520   20.9320 C   0  0  0  0  0  2  0  0  0  0  0  0
  -31.3370  -14.4880   20.3040 N   0  0  0  0  0  0  0  0  0  0  0  0
  -33.0740  -15.7620   19.9420 O   0  0  0  0  0  0  0  0  0  0  0  0
  -26.7660  -14.3440   20.6860 C   0  0  0  0  0  0  0  0  0  0  0  0
  -25.6710  -13.6070   21.0350 C   0  0  0  0  0  0  0  0  0  0  0  0
  -26.0480  -12.2380   20.8690 C   0  0  0  0  0  0  0  0  0  0  0  0
  -27.7430  -13.4330   20.3350 N   0  0  0  0  0  0  0  0  0  0  0  0
  -27.3250  -12.1510   20.5080 N   0  0  0  0  0  0  0  0  0  0  0  0
  -25.2420  -11.0130   20.9700 C   0  0  0  0  0  0  0  0  0  0  0  0
  -25.5070  -10.0280   21.9460 C   0  0  0  0  0  3  0  0  0  0  0  0
  -24.7010   -8.8730   22.0370 C   0  0  0  0  0  3  0  0  0  0  0  0
  -23.6150   -8.6930   21.1490 C   0  0  0  0  0  0  0  0  0  0  0  0
  -23.3680   -9.6650   20.1630 C   0  0  0  0  0  3  0  0  0  0  0  0
  -24.1740  -10.8120   20.0710 C   0  0  0  0  0  3  0  0  0  0  0  0
  -22.7960   -7.5890   21.1450 O   0  0  0  0  0  0  0  0  0  0  0  0
  -22.4360   -6.9550   22.3080 C   0  0  0  0  0  0  0  0  0  0  0  0
  -21.7620   -7.6330   23.3460 C   0  0  0  0  0  3  0  0  0  0  0  0
  -21.3490   -6.9310   24.4950 C   0  0  0  0  0  3  0  0  0  0  0  0
  -21.6000   -5.5500   24.6030 C   0  0  0  0  0  0  0  0  0  0  0  0
  -22.2650   -4.8710   23.5680 C   0  0  0  0  0  3  0  0  0  0  0  0
  -22.6800   -5.5720   22.4210 C   0  0  0  0  0  0  0  0  0  0  0  0
  -23.3030   -4.9090   21.4170 F   0  0  0  0  0  0  0  0  0  0  0  0
  -21.1950   -4.8710   25.7030 F   0  0  0  0  0  0  0  0  0  0  0  0
  -24.3190  -14.1480   21.3950 C   0  0  0  0  0  0  0  0  0  0  0  0
  -23.5900  -13.4530   22.2610 N   0  0  0  0  0  0  0  0  0  0  0  0
  -23.9220  -15.2210   20.9460 O   0  0  0  0  0  0  0  0  0  0  0  0
  -23.9240  -12.5770   22.6390 H   0  0  0  0  0  0  0  0  0  0  0  0
  -22.6840  -13.7940   22.5470 H   0  0  0  0  0  0  0  0  0  0  0  0
  -27.0070  -15.7120   20.5980 N   0  0  0  0  0  0  0  0  0  0  0  0
  -26.2370  -16.3690   20.6430 H   0  0  0  0  0  0  0  0  0  0  0  0
  -27.8130  -16.0860   20.1150 H   0  0  0  0  0  0  0  0  0  0  0  0
  -30.9070  -17.6030   22.2160 C   0  0  0  0  0  2  0  0  0  0  0  0
  -31.7260  -18.4370   23.2720 C   0  0  0  0  0  2  0  0  0  0  0  0
  -30.1130  -19.0370   25.0750 C   0  0  0  0  0  1  0  0  0  0  0  0
  -31.8190  -20.6460   24.3610 C   0  0  0  0  0  1  0  0  0  0  0  0
  -30.9520  -19.5170   23.9530 N   0  0  1  0  0  4  0  0  0  0  0  0
  -30.3170  -19.8920   23.2630 H   0  0  0  0  0  0  0  0  0  0  0  0
  -28.9500  -22.1050   18.1220 C   0  0  0  0  0  1  0  0  0  0  0  0
  -29.2520  -22.2670   19.6130 C   0  0  0  0  0  3  0  0  0  0  0  0
  -28.3390  -23.8570   20.0510 C   0  0  0  0  0  2  0  0  0  0  0  0
  -28.5260  -25.5590   19.9450 O   0  0  0  0  0  0  0  0  0  0  0  0
  -24.9420  -31.6980   22.8580 C   0  0  0  0  0  0  0  0  0  0  0  0
  -27.5170  -26.7040   19.9100 C   0  0  0  0  0  0  0  0  0  0  0  0
  -23.7620  -30.2890   21.2220 C   0  0  0  0  0  3  0  0  0  0  0  0
  -25.2230  -28.6550   19.8280 C   0  0  0  0  0  0  0  0  0  0  0  0
  -26.3370  -30.4730   21.0990 C   0  0  0  0  0  2  0  0  0  0  0  0
  -26.4140  -29.0460   20.4520 C   0  0  0  0  0  0  0  0  0  0  0  0
  -27.5510  -28.0990   20.4590 C   0  0  0  0  0  3  0  0  0  0  0  0
  -26.2910  -26.4930   19.2340 C   0  0  0  0  0  3  0  0  0  0  0  0
  -25.1930  -27.4000   19.1960 C   0  0  0  0  0  3  0  0  0  0  0  0
  -24.0090  -29.5890   19.8560 C   0  0  0  0  0  2  0  0  0  0  0  0
  -25.0360  -30.8510   21.7790 N   0  0  0  0  0  0  0  0  0  0  0  0
  -23.8480  -31.9930   23.3680 O   0  0  0  0  0  0  0  0  0  0  0  0
  -23.0570  -29.3060   22.1940 C   0  0  0  0  0  0  0  0  0  0  0  0
  -21.7160  -29.2090   22.1290 N   0  0  0  0  0  0  0  0  0  0  0  0
  -23.7260  -28.6300   22.9790 O   0  0  0  0  0  0  0  0  0  0  0  0
  -21.2260  -29.8090   21.4810 H   0  0  0  0  0  0  0  0  0  0  0  0
  -18.3070  -28.1680   22.8130 C   0  0  0  0  0  0  0  0  0  0  0  0
  -20.8880  -28.2830   22.9120 C   0  0  0  0  0  3  0  0  0  0  0  0
  -20.8700  -26.8780   22.2660 C   0  0  0  0  0  2  0  0  0  0  0  0
  -19.6890  -26.6690   21.3130 C   0  0  0  0  0  2  0  0  0  0  0  0
  -18.3640  -26.8500   22.0600 C   0  0  0  0  0  2  0  0  0  0  0  0
  -19.4910  -28.8490   23.2000 C   0  0  0  0  0  0  0  0  0  0  0  0
  -19.3790  -30.0860   23.8730 C   0  0  0  0  0  3  0  0  0  0  0  0
  -18.1150  -30.6430   24.1520 C   0  0  0  0  0  3  0  0  0  0  0  0
  -16.9470  -29.9570   23.7770 C   0  0  0  0  0  3  0  0  0  0  0  0
  -17.0440  -28.7200   23.1140 C   0  0  0  0  0  3  0  0  0  0  0  0
  -26.2050  -32.3540   23.4960 C   0  0  0  0  0  3  0  0  0  0  0  0
  -25.8020  -33.6490   24.0770 N   0  0  0  0  0  0  0  0  0  0  0  0
  -26.0240  -34.8460   23.5190 C   0  0  0  0  0  0  0  0  0  0  0  0
  -26.6470  -34.9800   22.4640 O   0  0  0  0  0  0  0  0  0  0  0  0
  -25.2390  -33.6080   24.9140 H   0  0  0  0  0  0  0  0  0  0  0  0
  -24.1700  -36.5510   23.5650 C   0  0  0  0  0  1  0  0  0  0  0  0
  -25.4710  -36.0920   24.2440 C   0  0  0  0  0  3  0  0  0  0  0  0
  -27.5790  -36.9680   25.1510 C   0  0  0  0  0  1  0  0  0  0  0  0
  -26.4250  -37.2200   24.2920 N   0  0  0  0  0  0  0  0  0  0  0  0
  -25.9680  -38.0670   24.6180 H   0  0  0  0  0  0  0  0  0  0  0  0
  -26.8750  -31.4520   24.6060 C   0  0  1  0  0  0  0  0  0  0  0  0
  -25.8810  -30.9280   25.6720 C   0  0  0  0  0  1  0  0  0  0  0  0
  -27.5720  -30.2260   23.9790 C   0  0  0  0  0  1  0  0  0  0  0  0
  -27.9770  -32.2540   25.3380 C   0  0  0  0  0  1  0  0  0  0  0  0
  3  2  1  0
  3  1  1  0
  3  4  1  0
  4 41  1  0
  5 11  1  0
  5  4  1  0
  6 11  1  0
  7  8  1  0
  7  6  1  0
  9  8  1  0
  9 16  1  0
  9 10  1  0
 11 10  1  0
 12  5  2  0
 13 14  2  0
 14 33  1  0
 15 18  1  0
 15 14  1  0
 16 17  1  0
 16 13  1  0
 17 15  2  0
 18 19  1  0
 19 20  2  0
 21 20  1  0
 22 21  2  0
 23 22  1  0
 23 18  2  0
 24 21  1  0
 24 25  1  0
 25 30  2  0
 25 26  1  0
 26 27  2  0
 27 28  1  0
 28 32  1  0
 29 28  2  0
 30 29  1  0
 31 30  1  0
 33 34  1  0
 34 37  1  0
 34 36  1  0
 35 33  2  0
 38 39  1  0
 38 13  1  0
 40 38  1  0
 41 42  1  0
 42 45  1  0
 45 44  1  0
 45 43  1  0
 45 46  1  6
 48 47  1  0
 48 49  1  0
 48  1  1  0
 50 49  1  0
 51 62  2  0
 52 50  1  0
 52 57  1  0
 53 61  1  0
 53 63  1  0
 54 60  1  0
 54 56  1  0
 55 61  1  0
 56 57  2  0
 56 55  1  0
 58 52  2  0
 59 58  1  0
 59 54  2  0
 60 53  1  0
 61 51  1  0
 63 65  2  0
 64 63  1  0
 66 64  1  0
 67 76  2  0
 67 72  1  0
 68 64  1  0
 68 72  1  0
 69 68  1  0
 70 71  1  0
 70 69  1  0
 71 67  1  0
 72 73  2  0
 73 74  1  0
 75 74  2  0
 76 75  1  0
 77 51  1  0
 77 78  1  0
 77 87  1  0
 78 81  1  0
 79 78  1  0
 79 83  1  0
 80 79  2  0
 83 82  1  0
 83 85  1  0
 85 86  1  0
 85 84  1  0
 87 90  1  1
 87 88  1  0
 89 87  1  0
M  ISO  4   4 100   5 100  49 101  50 101
M  END
>  <TORSDO>  (45) 
F 23

>  <SCORE>  (45) 
-10.073

>  <name>  (45) 
44

>  <ligand_id>  (45) 
44

>  <original_smiles>  (45) 
[H]c1c([H])c([H])c2c(c1[H])C([H])([H])C([H])([H])C([H])([H])C2([H])N([H])C(=O)C1([H])N(C(=O)C([H])(N([H])C(=O)C([H])(N([H])C([H])([H])[H])C([H])([H])[H])C(C([H])([H])[H])(C([H])([H])[H])C([H])([H])[H])C([H])([H])c2c([H])c(OC([H])([H])C([H])(C([H])([H])[H])C([H])([H])C([H])(C([H])([H])[H])C([H])(C(=O)N3C([H])([H])C([H])([H])C([H])([H])C([H])(n4nc(-c5c([H])c([H])c(Oc6c([H])c([H])c(F)c([H])c6F)c([H])c5[H])c(C(=O)N([H])[H])c4N([H])[H])C3([H])[H])C([H])([H])C([H])([H])[N+]([H])(C([H])([H])[H])C([H])([H])[H])c([H])c([H])c2C1([H])[H]

>  <smiles>  (45) 
[H]c1c([H])c([H])c2c(c1[H])C([H])([H])C([H])([H])C([H])([H])C2([H])N([H])C(=O)C1([H])N(C(=O)C([H])(N([H])C(=O)C([H])(N([H])C([H])([H])[H])C([H])([H])[H])C(C([H])([H])[H])(C([H])([H])[H])C([H])([H])[H])C([H])([H])c2c([H])c(OC([H])([H])C([H])(C([H])([H])[H])C([H])([H])C([H])(C([H])([H])[H])C([H])(C(=O)N3C([H])([H])C([H])([H])C([H])([H])C([H])(n4nc(-c5c([H])c([H])c(Oc6c([H])c([H])c(F)c([H])c6F)c([H])c5[H])c(C(=O)N([H])[H])c4N([H])[H])C3([H])[H])C([H])([H])C([H])([H])[N+]([H])(C([H])([H])[H])C([H])([H])[H])c([H])c([H])c2C1([H])[H]

$$$$
45:0:0
     RDKit          3D

 85 92  0  0  1  0  0  0  0  0999 V2000
  -28.7390  -20.5760   20.2040 C   0  0  0  0  0  0  0  0  0  0  0  0
  -28.9350  -22.1230   20.2900 C   0  0  0  0  0  0  0  0  0  0  0  0
  -27.3060  -20.1520   19.9710 C   0  0  0  0  0  1  0  0  0  0  0  0
  -30.3690  -22.5440   20.5350 C   0  0  0  0  0  1  0  0  0  0  0  0
  -29.7340  -18.9720   20.2850 C   0  0  0  0  0  2  0  0  0  0  0  0
  -30.2860  -15.7880   20.2180 C   0  0  0  0  0  0  0  0  0  0  0  0
  -30.4160  -13.2340   19.3880 C   0  0  0  0  0  2  0  0  0  0  0  0
  -29.5340  -12.7930   18.1820 C   0  0  0  0  0  2  0  0  0  0  0  0
  -28.1200  -12.4130   18.6420 C   0  0  0  0  0  2  0  0  0  0  0  0
  -27.5920  -13.4100   19.6980 C   0  0  0  0  0  3  0  0  0  0  0  0
  -28.6170  -13.7570   20.8040 C   0  0  0  0  0  2  0  0  0  0  0  0
  -29.7710  -14.4120   20.1390 N   0  0  0  0  0  0  0  0  0  0  0  0
  -31.5220  -15.7150   20.0640 O   0  0  0  0  0  0  0  0  0  0  0  0
  -29.5340  -17.1760   20.2830 N   0  0  0  0  0  0  0  0  0  0  0  0
  -28.5480  -16.9660   20.3470 H   0  0  0  0  0  0  0  0  0  0  0  0
  -25.2260  -13.9050   20.4640 C   0  0  0  0  0  0  0  0  0  0  0  0
  -24.1780  -13.1090   20.8300 C   0  0  0  0  0  0  0  0  0  0  0  0
  -24.6680  -11.7680   20.8000 C   0  0  0  0  0  0  0  0  0  0  0  0
  -26.2830  -13.0500   20.2200 N   0  0  0  0  0  0  0  0  0  0  0  0
  -25.9630  -11.7560   20.4890 N   0  0  0  0  0  0  0  0  0  0  0  0
  -23.9580  -10.4940   20.9860 C   0  0  0  0  0  0  0  0  0  0  0  0
  -24.3770   -9.5460   21.9450 C   0  0  0  0  0  3  0  0  0  0  0  0
  -23.6610   -8.3420   22.1220 C   0  0  0  0  0  3  0  0  0  0  0  0
  -22.5120   -8.0780   21.3390 C   0  0  0  0  0  0  0  0  0  0  0  0
  -22.1120   -9.0140   20.3710 C   0  0  0  0  0  3  0  0  0  0  0  0
  -22.8290  -10.2090   20.1930 C   0  0  0  0  0  3  0  0  0  0  0  0
  -21.7700   -6.9240   21.4240 O   0  0  0  0  0  0  0  0  0  0  0  0
  -21.6700   -6.2160   22.5960 C   0  0  0  0  0  0  0  0  0  0  0  0
  -21.1370   -6.7900   23.7700 C   0  0  0  0  0  3  0  0  0  0  0  0
  -20.9880   -6.0060   24.9320 C   0  0  0  0  0  3  0  0  0  0  0  0
  -21.3620   -4.6500   24.9190 C   0  0  0  0  0  0  0  0  0  0  0  0
  -21.8890   -4.0750   23.7490 C   0  0  0  0  0  3  0  0  0  0  0  0
  -22.0390   -4.8560   22.5900 C   0  0  0  0  0  0  0  0  0  0  0  0
  -22.5270   -4.2910   21.4590 F   0  0  0  0  0  0  0  0  0  0  0  0
  -21.2140   -3.8950   26.0330 F   0  0  0  0  0  0  0  0  0  0  0  0
  -22.7740  -13.5660   21.0890 C   0  0  0  0  0  0  0  0  0  0  0  0
  -22.0530  -12.8690   21.9610 N   0  0  0  0  0  0  0  0  0  0  0  0
  -22.3230  -14.5790   20.5540 O   0  0  0  0  0  0  0  0  0  0  0  0
  -22.4320  -12.0520   22.4150 H   0  0  0  0  0  0  0  0  0  0  0  0
  -21.1110  -13.1590   22.1790 H   0  0  0  0  0  0  0  0  0  0  0  0
  -25.3650  -15.2780   20.2850 N   0  0  0  0  0  0  0  0  0  0  0  0
  -24.5820  -15.9160   20.3890 H   0  0  0  0  0  0  0  0  0  0  0  0
  -26.1970  -15.7280   19.9300 H   0  0  0  0  0  0  0  0  0  0  0  0
  -27.9390  -23.7250   20.1740 C   0  0  0  0  0  2  0  0  0  0  0  0
  -28.1710  -25.4900   20.3260 O   0  0  0  0  0  0  0  0  0  0  0  0
  -24.6780  -31.8610   23.2310 C   0  0  0  0  0  0  0  0  0  0  0  0
  -27.2120  -26.7330   20.2680 C   0  0  0  0  0  0  0  0  0  0  0  0
  -23.5020  -30.4660   21.5860 C   0  0  0  0  0  3  0  0  0  0  0  0
  -24.9550  -28.8040   20.1890 C   0  0  0  0  0  0  0  0  0  0  0  0
  -26.0840  -30.5870   21.4910 C   0  0  0  0  0  2  0  0  0  0  0  0
  -26.1490  -29.1480   20.8350 C   0  0  0  0  0  0  0  0  0  0  0  0
  -27.2600  -28.1430   20.8390 C   0  0  0  0  0  3  0  0  0  0  0  0
  -25.9850  -26.6120   19.5660 C   0  0  0  0  0  3  0  0  0  0  0  0
  -24.9160  -27.5620   19.5300 C   0  0  0  0  0  3  0  0  0  0  0  0
  -23.7530  -29.7640   20.2190 C   0  0  0  0  0  2  0  0  0  0  0  0
  -24.7800  -31.0050   22.1550 N   0  0  0  0  0  0  0  0  0  0  0  0
  -23.5810  -32.1650   23.7300 O   0  0  0  0  0  0  0  0  0  0  0  0
  -22.7700  -29.4950   22.5530 C   0  0  0  0  0  0  0  0  0  0  0  0
  -21.4370  -29.3490   22.4170 N   0  0  0  0  0  0  0  0  0  0  0  0
  -23.4140  -28.8700   23.3970 O   0  0  0  0  0  0  0  0  0  0  0  0
  -20.9660  -29.9020   21.7150 H   0  0  0  0  0  0  0  0  0  0  0  0
  -18.0380  -28.1580   22.9140 C   0  0  0  0  0  0  0  0  0  0  0  0
  -20.5990  -28.4160   23.1840 C   0  0  0  0  0  3  0  0  0  0  0  0
  -20.6950  -26.9840   22.6100 C   0  0  0  0  0  2  0  0  0  0  0  0
  -19.5960  -26.6680   21.5900 C   0  0  0  0  0  2  0  0  0  0  0  0
  -18.2120  -26.8130   22.2290 C   0  0  0  0  0  2  0  0  0  0  0  0
  -19.1580  -28.9180   23.3480 C   0  0  0  0  0  0  0  0  0  0  0  0
  -18.9370  -30.1740   23.9540 C   0  0  0  0  0  3  0  0  0  0  0  0
  -17.6320  -30.6710   24.1270 C   0  0  0  0  0  3  0  0  0  0  0  0
  -16.5270  -29.9110   23.7060 C   0  0  0  0  0  3  0  0  0  0  0  0
  -16.7310  -28.6550   23.1060 C   0  0  0  0  0  3  0  0  0  0  0  0
  -25.9360  -32.5100   23.8840 C   0  0  0  0  0  3  0  0  0  0  0  0
  -25.6170  -33.9160   24.2070 N   0  0  0  0  0  0  0  0  0  0  0  0
  -25.9420  -34.9750   23.4540 C   0  0  0  0  0  0  0  0  0  0  0  0
  -26.5980  -34.8730   22.4150 O   0  0  0  0  0  0  0  0  0  0  0  0
  -25.0300  -34.0670   25.0150 H   0  0  0  0  0  0  0  0  0  0  0  0
  -24.2030  -36.7760   23.1520 C   0  0  0  0  0  1  0  0  0  0  0  0
  -25.4690  -36.3690   23.9240 C   0  0  0  0  0  3  0  0  0  0  0  0
  -27.6210  -37.2710   24.6920 C   0  0  0  0  0  1  0  0  0  0  0  0
  -26.4970  -37.4230   23.7740 N   0  0  0  0  0  0  0  0  0  0  0  0
  -26.0910  -38.3440   23.9200 H   0  0  0  0  0  0  0  0  0  0  0  0
  -26.4090  -31.7590   25.1920 C   0  0  1  0  0  0  0  0  0  0  0  0
  -25.2860  -31.5520   26.2350 C   0  0  0  0  0  1  0  0  0  0  0  0
  -26.9910  -30.3690   24.8550 C   0  0  0  0  0  1  0  0  0  0  0  0
  -27.5490  -32.5570   25.8700 C   0  0  0  0  0  1  0  0  0  0  0  0
  1  5  1  0
  1  2  2  0
  2  4  1  0
  3  1  1  0
  6 14  1  0
  7 12  1  0
  8  9  1  0
  8  7  1  0
 10  9  1  0
 10 19  1  0
 10 11  1  0
 12  6  1  0
 12 11  1  0
 13  6  2  0
 14  5  1  0
 14 15  1  0
 16 17  2  0
 17 36  1  0
 18 17  1  0
 18 21  1  0
 19 16  1  0
 19 20  1  0
 20 18  2  0
 21 22  1  0
 22 23  2  0
 24 27  1  0
 24 23  1  0
 25 24  2  0
 26 25  1  0
 26 21  2  0
 27 28  1  0
 28 29  1  0
 29 30  2  0
 31 30  1  0
 31 35  1  0
 32 31  2  0
 33 28  2  0
 33 32  1  0
 34 33  1  0
 36 37  1  0
 37 40  1  0
 37 39  1  0
 38 36  2  0
 41 42  1  0
 41 16  1  0
 43 41  1  0
 44  2  1  0
 44 45  1  0
 46 57  2  0
 47 45  1  0
 47 52  1  0
 48 56  1  0
 48 58  1  0
 49 55  1  0
 49 51  1  0
 50 56  1  0
 51 52  2  0
 51 50  1  0
 53 47  2  0
 54 53  1  0
 54 49  2  0
 55 48  1  0
 56 46  1  0
 58 60  2  0
 59 58  1  0
 61 59  1  0
 62 71  2  0
 62 67  1  0
 63 59  1  0
 63 67  1  0
 64 63  1  0
 65 66  1  0
 65 64  1  0
 66 62  1  0
 67 68  2  0
 68 69  1  0
 70 69  2  0
 71 70  1  0
 72 46  1  0
 72 73  1  0
 72 82  1  0
 73 76  1  0
 74 78  1  0
 74 73  1  0
 75 74  2  0
 78 77  1  0
 80 81  1  0
 80 78  1  0
 80 79  1  0
 82 85  1  1
 82 83  1  0
 84 82  1  0
M  ISO  4   6 100  14 100  44 101  45 101
M  END
>  <TORSDO>  (46) 
F 18

>  <SCORE>  (46) 
-15.953

>  <name>  (46) 
45

>  <ligand_id>  (46) 
45

>  <original_smiles>  (46) 
[H]c1c([H])c([H])c2c(c1[H])C([H])([H])C([H])([H])C([H])([H])C2([H])N([H])C(=O)C1([H])N(C(=O)C([H])(N([H])C(=O)C([H])(N([H])C([H])([H])[H])C([H])([H])[H])C(C([H])([H])[H])(C([H])([H])[H])C([H])([H])[H])C([H])([H])c2c([H])c(OC([H])([H])C(=C(C([H])([H])[H])C([H])([H])N([H])C(=O)N3C([H])([H])C([H])([H])C([H])([H])C([H])(n4nc(-c5c([H])c([H])c(Oc6c([H])c([H])c(F)c([H])c6F)c([H])c5[H])c(C(=O)N([H])[H])c4N([H])[H])C3([H])[H])C([H])([H])[H])c([H])c([H])c2C1([H])[H]

>  <smiles>  (46) 
[H]c1c([H])c([H])c2c(c1[H])C([H])([H])C([H])([H])C([H])([H])C2([H])N([H])C(=O)C1([H])N(C(=O)C([H])(N([H])C(=O)C([H])(N([H])C([H])([H])[H])C([H])([H])[H])C(C([H])([H])[H])(C([H])([H])[H])C([H])([H])[H])C([H])([H])c2c([H])c(OC([H])([H])C(=C(C([H])([H])[H])C([H])([H])N([H])C(=O)N3C([H])([H])C([H])([H])C([H])([H])C([H])(n4nc(-c5c([H])c([H])c(Oc6c([H])c([H])c(F)c([H])c6F)c([H])c5[H])c(C(=O)N([H])[H])c4N([H])[H])C3([H])[H])C([H])([H])[H])c([H])c([H])c2C1([H])[H]

$$$$
46:0:0
     RDKit          3D

 98106  0  0  1  0  0  0  0  0999 V2000
  -29.4550  -19.8530   20.8830 C   0  0  0  0  0  3  0  0  0  0  0  0
  -27.8060  -19.8500   18.6640 C   0  0  0  0  0  3  0  0  0  0  0  0
  -28.6830  -21.0520   20.6250 C   0  0  0  0  0  0  0  0  0  0  0  0
  -29.4060  -18.6530   20.0710 C   0  0  0  0  0  0  0  0  0  0  0  0
  -27.7830  -20.9760   19.5240 C   0  0  0  0  0  0  0  0  0  0  0  0
  -28.6070  -18.7090   18.8970 C   0  0  0  0  0  0  0  0  0  0  0  0
  -28.5850  -17.5790   17.8550 C   0  0  1  0  0  0  0  0  0  0  0  0
  -27.9510  -17.9350   16.7340 F   0  0  0  0  0  0  0  0  0  0  0  0
  -29.8230  -17.2200   17.5100 F   0  0  0  0  0  0  0  0  0  0  0  0
  -27.9470  -16.5190   18.3410 F   0  0  0  0  0  0  0  0  0  0  0  0
  -25.3660  -21.7020   19.8820 C   0  0  0  0  0  1  0  0  0  0  0  0
  -26.7310  -22.0540   19.2590 C   0  0  0  0  0  3  0  0  0  0  0  0
  -26.9480  -24.0150   17.6830 C   0  0  0  0  0  1  0  0  0  0  0  0
  -25.4090  -22.0870   17.0150 C   0  0  0  0  0  1  0  0  0  0  0  0
  -26.6890  -22.5040   17.7730 C   0  0  0  0  0  3  0  0  0  0  0  0
  -28.6780  -22.3120   21.5990 C   0  0  0  0  0  2  0  0  0  0  0  0
  -29.1490  -23.7960   21.1420 C   0  0  0  0  0  3  0  0  0  0  0  0
  -28.0870  -25.0080   21.1880 C   0  0  0  0  0  3  0  0  0  0  0  0
  -28.4400  -26.4490   20.9210 O   0  0  0  0  0  0  0  0  0  0  0  0
  -24.5520  -32.0660   23.3920 C   0  0  0  0  0  0  0  0  0  0  0  0
  -27.3640  -27.3520   20.7410 C   0  0  0  0  0  0  0  0  0  0  0  0
  -23.4620  -30.5600   21.7760 C   0  0  0  0  0  3  0  0  0  0  0  0
  -25.0100  -28.9780   20.5030 C   0  0  0  0  0  0  0  0  0  0  0  0
  -26.0080  -30.9070   21.7100 C   0  0  0  0  0  2  0  0  0  0  0  0
  -26.1430  -29.4940   21.1390 C   0  0  0  0  0  0  0  0  0  0  0  0
  -27.3310  -28.6970   21.2430 C   0  0  0  0  0  3  0  0  0  0  0  0
  -26.2100  -26.9110   20.0540 C   0  0  0  0  0  3  0  0  0  0  0  0
  -25.0500  -27.6930   19.9480 C   0  0  0  0  0  3  0  0  0  0  0  0
  -23.7620  -29.8380   20.4400 C   0  0  0  0  0  2  0  0  0  0  0  0
  -24.6880  -31.2000   22.3490 N   0  0  0  0  0  0  0  0  0  0  0  0
  -23.4370  -32.3580   23.8490 O   0  0  0  0  0  0  0  0  0  0  0  0
  -22.7720  -29.5690   22.7440 C   0  0  0  0  0  0  0  0  0  0  0  0
  -21.4630  -29.3400   22.5460 N   0  0  0  0  0  0  0  0  0  0  0  0
  -23.4130  -29.0140   23.6400 O   0  0  0  0  0  0  0  0  0  0  0  0
  -20.9970  -29.8640   21.8200 H   0  0  0  0  0  0  0  0  0  0  0  0
  -18.0970  -28.0460   22.8740 C   0  0  0  0  0  0  0  0  0  0  0  0
  -20.6190  -28.4210   23.3130 C   0  0  0  0  0  3  0  0  0  0  0  0
  -20.8070  -26.9570   22.8490 C   0  0  0  0  0  2  0  0  0  0  0  0
  -19.7990  -26.5260   21.7790 C   0  0  0  0  0  2  0  0  0  0  0  0
  -18.3690  -26.6610   22.3120 C   0  0  0  0  0  2  0  0  0  0  0  0
  -19.1550  -28.8780   23.3280 C   0  0  0  0  0  0  0  0  0  0  0  0
  -18.8500  -30.1710   23.8030 C   0  0  0  0  0  3  0  0  0  0  0  0
  -17.5190  -30.6300   23.8420 C   0  0  0  0  0  3  0  0  0  0  0  0
  -16.4750  -29.7930   23.4070 C   0  0  0  0  0  3  0  0  0  0  0  0
  -16.7660  -28.5060   22.9260 C   0  0  0  0  0  3  0  0  0  0  0  0
  -25.7890  -32.7550   24.0450 C   0  0  0  0  0  3  0  0  0  0  0  0
  -26.2640  -32.0550   25.3770 C   0  0  1  0  0  0  0  0  0  0  0  0
  -25.1220  -31.8150   26.3930 C   0  0  0  0  0  1  0  0  0  0  0  0
  -26.9220  -30.6870   25.0760 C   0  0  0  0  0  1  0  0  0  0  0  0
  -27.3420  -32.9250   26.0720 C   0  0  0  0  0  1  0  0  0  0  0  0
  -25.4340  -34.1580   24.2920 N   0  0  0  0  0  0  0  0  0  0  0  0
  -25.7640  -35.1830   23.4930 C   0  0  0  0  0  0  0  0  0  0  0  0
  -26.4750  -35.0520   22.4940 O   0  0  0  0  0  0  0  0  0  0  0  0
  -24.8060  -34.3330   25.0630 H   0  0  0  0  0  0  0  0  0  0  0  0
  -23.9960  -36.9100   23.0050 C   0  0  0  0  0  1  0  0  0  0  0  0
  -25.2220  -36.5770   23.8680 C   0  0  0  0  0  3  0  0  0  0  0  0
  -27.3090  -37.5620   24.7140 C   0  0  0  0  0  1  0  0  0  0  0  0
  -26.2260  -37.6540   23.7380 N   0  0  0  0  0  0  0  0  0  0  0  0
  -25.7860  -38.5660   23.8360 H   0  0  0  0  0  0  0  0  0  0  0  0
  -30.3140  -17.3950   20.3840 C   0  0  0  0  0  2  0  0  0  0  0  0
  -30.5310  -14.8280   20.1700 C   0  0  0  0  0  0  0  0  0  0  0  0
  -30.2430  -12.6000   19.1210 C   0  0  0  0  0  2  0  0  0  0  0  0
  -29.2760  -12.7450   17.9260 C   0  0  0  0  0  2  0  0  0  0  0  0
  -27.8210  -12.5770   18.3970 C   0  0  0  0  0  2  0  0  0  0  0  0
  -27.4940  -13.4320   19.6490 C   0  0  0  0  0  3  0  0  0  0  0  0
  -28.5830  -13.3030   20.7350 C   0  0  0  0  0  2  0  0  0  0  0  0
  -29.8670  -13.6310   20.1040 N   0  0  0  0  0  0  0  0  0  0  0  0
  -31.7210  -14.9020   19.8640 O   0  0  0  0  0  0  0  0  0  0  0  0
  -29.7940  -15.9720   20.3680 N   0  0  0  0  0  0  0  0  0  0  0  0
  -28.8060  -15.8460   20.5310 H   0  0  0  0  0  0  0  0  0  0  0  0
  -25.1090  -14.0030   20.3910 C   0  0  0  0  0  0  0  0  0  0  0  0
  -24.0550  -13.2170   20.7780 C   0  0  0  0  0  0  0  0  0  0  0  0
  -24.5360  -11.8720   20.7500 C   0  0  0  0  0  0  0  0  0  0  0  0
  -26.1610  -13.1320   20.1590 N   0  0  0  0  0  0  0  0  0  0  0  0
  -25.8230  -11.8480   20.4360 N   0  0  0  0  0  0  0  0  0  0  0  0
  -23.8280  -10.6000   20.9470 C   0  0  0  0  0  0  0  0  0  0  0  0
  -24.2640   -9.6480   21.8970 C   0  0  0  0  0  3  0  0  0  0  0  0
  -23.5500   -8.4430   22.0830 C   0  0  0  0  0  3  0  0  0  0  0  0
  -22.3860   -8.1820   21.3190 C   0  0  0  0  0  0  0  0  0  0  0  0
  -21.9750   -9.1230   20.3560 C   0  0  0  0  0  3  0  0  0  0  0  0
  -22.6880  -10.3170   20.1690 C   0  0  0  0  0  3  0  0  0  0  0  0
  -21.6420   -7.0320   21.4120 O   0  0  0  0  0  0  0  0  0  0  0  0
  -21.5720   -6.3160   22.5810 C   0  0  0  0  0  0  0  0  0  0  0  0
  -21.1120   -6.8950   23.7830 C   0  0  0  0  0  3  0  0  0  0  0  0
  -20.9940   -6.1060   24.9450 C   0  0  0  0  0  3  0  0  0  0  0  0
  -21.3210   -4.7380   24.9020 C   0  0  0  0  0  0  0  0  0  0  0  0
  -21.7720   -4.1570   23.7040 C   0  0  0  0  0  3  0  0  0  0  0  0
  -21.8960   -4.9450   22.5460 C   0  0  0  0  0  0  0  0  0  0  0  0
  -22.3110   -4.3770   21.3890 F   0  0  0  0  0  0  0  0  0  0  0  0
  -21.1980   -3.9780   26.0160 F   0  0  0  0  0  0  0  0  0  0  0  0
  -22.6570  -13.6820   21.0640 C   0  0  0  0  0  0  0  0  0  0  0  0
  -21.9530  -12.9790   21.9450 N   0  0  0  0  0  0  0  0  0  0  0  0
  -22.1990  -14.7000   20.5470 O   0  0  0  0  0  0  0  0  0  0  0  0
  -22.3400  -12.1560   22.3800 H   0  0  0  0  0  0  0  0  0  0  0  0
  -21.0180  -13.2700   22.1900 H   0  0  0  0  0  0  0  0  0  0  0  0
  -25.2640  -15.3710   20.1920 N   0  0  0  0  0  0  0  0  0  0  0  0
  -24.4860  -16.0190   20.2060 H   0  0  0  0  0  0  0  0  0  0  0  0
  -26.1030  -15.7760   19.7960 H   0  0  0  0  0  0  0  0  0  0  0  0
  2  6  2  0
  2  5  1  0
  3  1  1  0
  3 16  1  0
  4 60  1  0
  4  1  2  0
  5  3  2  0
  6  4  1  0
  7 10  1  1
  7  6  1  0
  8  7  1  0
  9  7  1  0
 12  5  1  0
 12 11  1  0
 13 15  1  0
 14 15  1  0
 15 12  1  0
 17 18  2  0
 17 16  1  0
 19 18  1  0
 20 31  2  0
 21 19  1  0
 21 26  1  0
 22 30  1  0
 22 32  1  0
 23 25  1  0
 24 30  1  0
 25 26  2  0
 25 24  1  0
 27 21  2  0
 28 27  1  0
 28 23  2  0
 29 23  1  0
 29 22  1  0
 30 20  1  0
 32 34  2  0
 33 32  1  0
 35 33  1  0
 36 45  2  0
 36 41  1  0
 37 33  1  0
 37 41  1  0
 38 37  1  0
 39 40  1  0
 39 38  1  0
 40 36  1  0
 41 42  2  0
 42 43  1  0
 44 43  2  0
 45 44  1  0
 46 20  1  0
 46 51  1  0
 46 47  1  0
 47 50  1  1
 47 48  1  0
 49 47  1  0
 51 54  1  0
 52 56  1  0
 52 51  1  0
 53 52  2  0
 56 55  1  0
 58 59  1  0
 58 56  1  0
 58 57  1  0
 61 69  1  0
 62 67  1  0
 63 64  1  0
 63 62  1  0
 65 64  1  0
 65 74  1  0
 65 66  1  0
 67 61  1  0
 67 66  1  0
 68 61  2  0
 69 60  1  0
 69 70  1  0
 71 72  2  0
 72 91  1  0
 73 72  1  0
 73 76  1  0
 74 71  1  0
 74 75  1  0
 75 73  2  0
 76 77  1  0
 77 78  2  0
 79 82  1  0
 79 78  1  0
 80 79  2  0
 81 80  1  0
 81 76  2  0
 82 83  1  0
 83 84  1  0
 84 85  2  0
 86 85  1  0
 86 90  1  0
 87 86  2  0
 88 83  2  0
 88 87  1  0
 89 88  1  0
 91 92  1  0
 92 95  1  0
 92 94  1  0
 93 91  2  0
 96 97  1  0
 96 71  1  0
 98 96  1  0
M  ISO  4  18 101  19 101  61 100  69 100
M  END
>  <TORSDO>  (47) 
F 23

>  <SCORE>  (47) 
-10.991

>  <name>  (47) 
46

>  <ligand_id>  (47) 
46

>  <original_smiles>  (47) 
[H]c1c([H])c([H])c2c(c1[H])C([H])([H])C([H])([H])C([H])([H])C2([H])N([H])C(=O)C1([H])N(C(=O)C([H])(N([H])C(=O)C([H])(N([H])C([H])([H])[H])C([H])([H])[H])C(C([H])([H])[H])(C([H])([H])[H])C([H])([H])[H])C([H])([H])c2c([H])c(OC([H])([H])C([H])([H])C([H])([H])c3c([H])c(C([H])([H])N([H])C(=O)N4C([H])([H])C([H])([H])C([H])([H])C([H])(n5nc(-c6c([H])c([H])c(Oc7c([H])c([H])c(F)c([H])c7F)c([H])c6[H])c(C(=O)N([H])[H])c5N([H])[H])C4([H])[H])c(C(F)(F)F)c([H])c3C([H])(C([H])([H])[H])C([H])(C([H])([H])[H])C([H])([H])[H])c([H])c([H])c2C1([H])[H]

>  <smiles>  (47) 
[H]c1c([H])c([H])c2c(c1[H])C([H])([H])C([H])([H])C([H])([H])C2([H])N([H])C(=O)C1([H])N(C(=O)C([H])(N([H])C(=O)C([H])(N([H])C([H])([H])[H])C([H])([H])[H])C(C([H])([H])[H])(C([H])([H])[H])C([H])([H])[H])C([H])([H])c2c([H])c(OC([H])([H])C([H])([H])C([H])([H])c3c([H])c(C([H])([H])N([H])C(=O)N4C([H])([H])C([H])([H])C([H])([H])C([H])(n5nc(-c6c([H])c([H])c(Oc7c([H])c([H])c(F)c([H])c7F)c([H])c6[H])c(C(=O)N([H])[H])c5N([H])[H])C4([H])[H])c(C(F)(F)F)c([H])c3C([H])(C([H])([H])[H])C([H])(C([H])([H])[H])C([H])([H])[H])c([H])c([H])c2C1([H])[H]

$$$$
47:0:0
     RDKit          3D

 96104  0  0  1  0  0  0  0  0999 V2000
  -31.1300  -21.8070   18.9630 C   0  0  0  0  0  3  0  0  0  0  0  0
  -31.0030  -21.6950   17.5710 C   0  0  0  0  0  3  0  0  0  0  0  0
  -30.1780  -21.1180   19.7430 C   0  0  0  0  0  0  0  0  0  0  0  0
  -29.7910  -19.8120   19.1800 C   0  0  0  0  0  0  0  0  0  0  0  0
  -29.4970  -19.9390   17.7910 C   0  0  0  0  0  0  0  0  0  0  0  0
  -28.6420  -18.9440   17.0180 C   0  0  0  0  0  1  0  0  0  0  0  0
  -30.1010  -20.8630   17.0070 N   0  0  0  0  0  0  0  0  0  0  0  0
  -29.1290  -22.1910   20.3210 C   0  0  0  0  0  3  0  0  0  0  0  0
  -29.3450  -23.8150   20.1270 C   0  0  0  0  0  3  0  0  0  0  0  0
  -27.7700  -24.7710   21.9390 C   0  0  0  0  0  1  0  0  0  0  0  0
  -28.1750  -24.9030   20.4590 C   0  0  0  0  0  3  0  0  0  0  0  0
  -28.3640  -26.3910   20.2170 O   0  0  0  0  0  0  0  0  0  0  0  0
  -24.6130  -31.8770   23.2360 C   0  0  0  0  0  0  0  0  0  0  0  0
  -27.2460  -27.2740   20.1820 C   0  0  0  0  0  0  0  0  0  0  0  0
  -23.4180  -30.4780   21.5930 C   0  0  0  0  0  3  0  0  0  0  0  0
  -24.8780  -28.9210   20.1730 C   0  0  0  0  0  0  0  0  0  0  0  0
  -25.9630  -30.7800   21.4260 C   0  0  0  0  0  2  0  0  0  0  0  0
  -26.0490  -29.3990   20.7710 C   0  0  0  0  0  0  0  0  0  0  0  0
  -27.2330  -28.5900   20.7620 C   0  0  0  0  0  3  0  0  0  0  0  0
  -26.0460  -26.8690   19.5510 C   0  0  0  0  0  3  0  0  0  0  0  0
  -24.8820  -27.6630   19.5520 C   0  0  0  0  0  3  0  0  0  0  0  0
  -23.6390  -29.7960   20.2180 C   0  0  0  0  0  2  0  0  0  0  0  0
  -24.6860  -31.0640   22.1410 N   0  0  0  0  0  0  0  0  0  0  0  0
  -23.5270  -32.1560   23.7640 O   0  0  0  0  0  0  0  0  0  0  0  0
  -22.7480  -29.4640   22.5500 C   0  0  0  0  0  0  0  0  0  0  0  0
  -21.4230  -29.2850   22.4110 N   0  0  0  0  0  0  0  0  0  0  0  0
  -23.4180  -28.8420   23.3770 O   0  0  0  0  0  0  0  0  0  0  0  0
  -20.9420  -29.8310   21.7100 H   0  0  0  0  0  0  0  0  0  0  0  0
  -18.0450  -28.0770   22.8810 C   0  0  0  0  0  0  0  0  0  0  0  0
  -20.5980  -28.3480   23.1770 C   0  0  0  0  0  3  0  0  0  0  0  0
  -20.7140  -26.9150   22.6060 C   0  0  0  0  0  2  0  0  0  0  0  0
  -19.6230  -26.5850   21.5830 C   0  0  0  0  0  2  0  0  0  0  0  0
  -18.2330  -26.7270   22.2110 C   0  0  0  0  0  2  0  0  0  0  0  0
  -19.1550  -28.8450   23.3200 C   0  0  0  0  0  0  0  0  0  0  0  0
  -18.9250  -30.1080   23.9050 C   0  0  0  0  0  3  0  0  0  0  0  0
  -17.6170  -30.6030   24.0600 C   0  0  0  0  0  3  0  0  0  0  0  0
  -16.5190  -29.8320   23.6380 C   0  0  0  0  0  3  0  0  0  0  0  0
  -16.7340  -28.5710   23.0540 C   0  0  0  0  0  3  0  0  0  0  0  0
  -25.8930  -32.5070   23.8680 C   0  0  0  0  0  3  0  0  0  0  0  0
  -25.5840  -33.9070   24.1940 N   0  0  0  0  0  0  0  0  0  0  0  0
  -25.9220  -34.9570   23.4350 C   0  0  0  0  0  0  0  0  0  0  0  0
  -26.5910  -34.8490   22.4030 O   0  0  0  0  0  0  0  0  0  0  0  0
  -24.9880  -34.0660   24.9930 H   0  0  0  0  0  0  0  0  0  0  0  0
  -24.1930  -36.7510   23.0810 C   0  0  0  0  0  1  0  0  0  0  0  0
  -25.4370  -36.3470   23.8900 C   0  0  0  0  0  3  0  0  0  0  0  0
  -27.5740  -37.2290   24.7150 C   0  0  0  0  0  1  0  0  0  0  0  0
  -26.4710  -37.3990   23.7720 N   0  0  0  0  0  0  0  0  0  0  0  0
  -26.0690  -38.3210   23.9190 H   0  0  0  0  0  0  0  0  0  0  0  0
  -26.3980  -31.7360   25.1490 C   0  0  1  0  0  0  0  0  0  0  0  0
  -25.2930  -31.5050   26.2060 C   0  0  0  0  0  1  0  0  0  0  0  0
  -26.9770  -30.3560   24.7660 C   0  0  0  0  0  1  0  0  0  0  0  0
  -27.5500  -32.5270   25.8110 C   0  0  0  0  0  1  0  0  0  0  0  0
  -30.3410  -18.3100   19.5440 C   0  0  0  0  0  3  0  0  0  0  0  0
  -32.4370  -18.2870   18.1540 C   0  0  0  0  0  1  0  0  0  0  0  0
  -32.5640  -18.9020   20.5280 C   0  0  0  0  0  1  0  0  0  0  0  0
  -31.8230  -18.1420   19.4970 N   0  0  1  0  0  4  0  0  0  0  0  0
  -31.9590  -17.1620   19.7220 H   0  0  0  0  0  0  0  0  0  0  0  0
  -29.7460  -17.3610   20.6920 C   0  0  0  0  0  2  0  0  0  0  0  0
  -30.5580  -14.7650   20.3860 C   0  0  0  0  0  0  0  0  0  0  0  0
  -30.4070  -12.4880   19.3620 C   0  0  0  0  0  2  0  0  0  0  0  0
  -29.4560  -12.5520   18.1430 C   0  0  0  0  0  2  0  0  0  0  0  0
  -27.9830  -12.3760   18.5700 C   0  0  0  0  0  2  0  0  0  0  0  0
  -27.6030  -13.2560   19.7870 C   0  0  0  0  0  3  0  0  0  0  0  0
  -28.6650  -13.1560   20.9050 C   0  0  0  0  0  2  0  0  0  0  0  0
  -29.9650  -13.5250   20.3160 N   0  0  0  0  0  0  0  0  0  0  0  0
  -31.7410  -14.9420   20.0910 O   0  0  0  0  0  0  0  0  0  0  0  0
  -29.6950  -15.8300   20.5510 N   0  0  0  0  0  0  0  0  0  0  0  0
  -28.7550  -15.4850   20.6710 H   0  0  0  0  0  0  0  0  0  0  0  0
  -25.2100  -13.8520   20.4970 C   0  0  0  0  0  0  0  0  0  0  0  0
  -24.1400  -13.0800   20.8560 C   0  0  0  0  0  0  0  0  0  0  0  0
  -24.6030  -11.7270   20.8350 C   0  0  0  0  0  0  0  0  0  0  0  0
  -26.2570  -12.9710   20.2730 N   0  0  0  0  0  0  0  0  0  0  0  0
  -25.8970  -11.6890   20.5380 N   0  0  0  0  0  0  0  0  0  0  0  0
  -23.8750  -10.4650   21.0220 C   0  0  0  0  0  0  0  0  0  0  0  0
  -24.3010   -9.5030   21.9650 C   0  0  0  0  0  3  0  0  0  0  0  0
  -23.5770   -8.3060   22.1390 C   0  0  0  0  0  3  0  0  0  0  0  0
  -22.4120   -8.0600   21.3750 C   0  0  0  0  0  0  0  0  0  0  0  0
  -22.0020   -9.0140   20.4270 C   0  0  0  0  0  3  0  0  0  0  0  0
  -22.7260  -10.2050   20.2480 C   0  0  0  0  0  3  0  0  0  0  0  0
  -21.6600   -6.9140   21.4610 O   0  0  0  0  0  0  0  0  0  0  0  0
  -21.6080   -6.1720   22.6140 C   0  0  0  0  0  0  0  0  0  0  0  0
  -21.1710   -6.7280   23.8360 C   0  0  0  0  0  3  0  0  0  0  0  0
  -21.0610   -5.9150   24.9810 C   0  0  0  0  0  3  0  0  0  0  0  0
  -21.3800   -4.5440   24.9070 C   0  0  0  0  0  0  0  0  0  0  0  0
  -21.8110   -3.9880   23.6890 C   0  0  0  0  0  3  0  0  0  0  0  0
  -21.9200   -4.7990   22.5460 C   0  0  0  0  0  0  0  0  0  0  0  0
  -22.3140   -4.2560   21.3690 F   0  0  0  0  0  0  0  0  0  0  0  0
  -21.2700   -3.7570   26.0030 F   0  0  0  0  0  0  0  0  0  0  0  0
  -22.7410  -13.5580   21.1160 C   0  0  0  0  0  0  0  0  0  0  0  0
  -22.0100  -12.8600   21.9770 N   0  0  0  0  0  0  0  0  0  0  0  0
  -22.3030  -14.5830   20.5910 O   0  0  0  0  0  0  0  0  0  0  0  0
  -22.3760  -12.0310   22.4200 H   0  0  0  0  0  0  0  0  0  0  0  0
  -21.0690  -13.1530   22.1980 H   0  0  0  0  0  0  0  0  0  0  0  0
  -25.3790  -15.2230   20.3130 N   0  0  0  0  0  0  0  0  0  0  0  0
  -24.6120  -15.8800   20.4010 H   0  0  0  0  0  0  0  0  0  0  0  0
  -26.2190  -15.6470   19.9430 H   0  0  0  0  0  0  0  0  0  0  0  0
  1  3  1  0
  2  1  2  0
  3  8  1  0
  4 53  1  0
  4  3  2  3
  5  4  1  0
  6  5  1  0
  7  2  1  0
  7  5  2  0
  9  8  2  0
  9 11  1  0
 11 10  1  0
 12 11  1  0
 13 24  2  0
 14 12  1  0
 14 19  1  0
 15 23  1  0
 15 25  1  0
 16 22  1  0
 16 18  1  0
 17 23  1  0
 18 17  1  0
 19 18  2  0
 20 21  1  0
 20 14  2  0
 21 16  2  0
 22 15  1  0
 23 13  1  0
 25 27  2  0
 26 25  1  0
 28 26  1  0
 29 38  2  0
 29 34  1  0
 30 26  1  0
 30 34  1  0
 31 30  1  0
 32 33  1  0
 32 31  1  0
 33 29  1  0
 34 35  2  0
 35 36  1  0
 37 36  2  0
 38 37  1  0
 39 13  1  0
 39 40  1  0
 39 49  1  0
 40 43  1  0
 41 45  1  0
 41 40  1  0
 42 41  2  0
 45 44  1  0
 47 45  1  0
 47 48  1  0
 47 46  1  0
 49 52  1  1
 49 50  1  0
 51 49  1  0
 53 58  1  0
 54 56  1  0
 56 53  1  0
 56 57  1  1
 56 55  1  0
 59 67  1  0
 60 65  1  0
 61 62  1  0
 61 60  1  0
 63 62  1  0
 63 72  1  0
 63 64  1  0
 65 59  1  0
 65 64  1  0
 66 59  2  0
 67 68  1  0
 67 58  1  0
 69 70  2  0
 70 89  1  0
 71 70  1  0
 71 74  1  0
 72 69  1  0
 72 73  1  0
 73 71  2  0
 74 75  1  0
 75 76  2  0
 77 80  1  0
 77 76  1  0
 78 77  2  0
 79 78  1  0
 79 74  2  0
 80 81  1  0
 81 82  1  0
 82 83  2  0
 84 83  1  0
 84 88  1  0
 85 84  2  0
 86 81  2  0
 86 85  1  0
 87 86  1  0
 89 90  1  0
 90 93  1  0
 90 92  1  0
 91 89  2  0
 94 95  1  0
 94 69  1  0
 96 94  1  0
M  ISO  4  11 101  12 101  59 100  67 100
M  END
>  <TORSDO>  (48) 
F 22

>  <SCORE>  (48) 
-13.365

>  <name>  (48) 
47

>  <ligand_id>  (48) 
47

>  <original_smiles>  (48) 
[H]c1nc(C([H])([H])[H])c(C([H])(C([H])([H])N([H])C(=O)N2C([H])([H])C([H])([H])C([H])([H])C([H])(n3nc(-c4c([H])c([H])c(Oc5c([H])c([H])c(F)c([H])c5F)c([H])c4[H])c(C(=O)N([H])[H])c3N([H])[H])C2([H])[H])[N+]([H])(C([H])([H])[H])C([H])([H])[H])c(C([H])([H])C([H])([H])C([H])(Oc2c([H])c([H])c3c(c2[H])C([H])([H])N(C(=O)C([H])(N([H])C(=O)C([H])(N([H])C([H])([H])[H])C([H])([H])[H])C(C([H])([H])[H])(C([H])([H])[H])C([H])([H])[H])C([H])(C(=O)N([H])C2([H])c4c([H])c([H])c([H])c([H])c4C([H])([H])C([H])([H])C2([H])[H])C3([H])[H])C([H])([H])[H])c1[H]

>  <smiles>  (48) 
[H]c1nc(C([H])([H])[H])c(C([H])(C([H])([H])N([H])C(=O)N2C([H])([H])C([H])([H])C([H])([H])C([H])(n3nc(-c4c([H])c([H])c(Oc5c([H])c([H])c(F)c([H])c5F)c([H])c4[H])c(C(=O)N([H])[H])c3N([H])[H])C2([H])[H])[N+]([H])(C([H])([H])[H])C([H])([H])[H])c(C([H])([H])C([H])([H])C([H])(Oc2c([H])c([H])c3c(c2[H])C([H])([H])N(C(=O)C([H])(N([H])C(=O)C([H])(N([H])C([H])([H])[H])C([H])([H])[H])C(C([H])([H])[H])(C([H])([H])[H])C([H])([H])[H])C([H])(C(=O)N([H])C2([H])c4c([H])c([H])c([H])c([H])c4C([H])([H])C([H])([H])C2([H])[H])C3([H])[H])C([H])([H])[H])c1[H]

$$$$
48:0:0
     RDKit          3D

 89 97  0  0  1  0  0  0  0  0999 V2000
  -28.9940  -20.4720   19.9820 C   0  0  0  0  0  3  0  0  0  0  0  0
  -29.8270  -21.4680   21.7170 C   0  0  0  0  0  3  0  0  0  0  0  0
  -29.0160  -21.8080   20.6560 C   0  0  0  0  0  0  0  0  0  0  0  0
  -29.7790  -19.4230   20.5470 C   0  0  0  0  0  0  0  0  0  0  0  0
  -31.3310  -19.6230   22.5530 C   0  0  0  0  0  1  0  0  0  0  0  0
  -30.3230  -20.1350   21.6340 N   0  0  0  0  0  0  0  0  0  0  0  0
  -26.7440  -23.0340   20.5170 C   0  0  0  0  0  1  0  0  0  0  0  0
  -28.2430  -23.2660   20.2750 C   0  0  0  0  0  3  0  0  0  0  0  0
  -28.5340  -24.8460   20.8450 C   0  0  0  0  0  2  0  0  0  0  0  0
  -28.4380  -26.2510   20.1400 O   0  0  0  0  0  0  0  0  0  0  0  0
  -24.6490  -31.8450   23.1470 C   0  0  0  0  0  0  0  0  0  0  0  0
  -27.3360  -27.1860   20.1450 C   0  0  0  0  0  0  0  0  0  0  0  0
  -23.4920  -30.4380   21.4860 C   0  0  0  0  0  3  0  0  0  0  0  0
  -24.9890  -28.9070   20.0550 C   0  0  0  0  0  0  0  0  0  0  0  0
  -26.0400  -30.7610   21.3400 C   0  0  0  0  0  2  0  0  0  0  0  0
  -26.1500  -29.3660   20.6910 C   0  0  0  0  0  0  0  0  0  0  0  0
  -27.3250  -28.5270   20.7110 C   0  0  0  0  0  3  0  0  0  0  0  0
  -26.1660  -26.8420   19.4380 C   0  0  0  0  0  3  0  0  0  0  0  0
  -25.0130  -27.6660   19.4020 C   0  0  0  0  0  3  0  0  0  0  0  0
  -23.7410  -29.7800   20.1020 C   0  0  0  0  0  2  0  0  0  0  0  0
  -24.7470  -31.0380   22.0460 N   0  0  0  0  0  0  0  0  0  0  0  0
  -23.5530  -32.1030   23.6690 O   0  0  0  0  0  0  0  0  0  0  0  0
  -22.8340  -29.4050   22.4330 C   0  0  0  0  0  0  0  0  0  0  0  0
  -21.5120  -29.2000   22.2930 N   0  0  0  0  0  0  0  0  0  0  0  0
  -23.5150  -28.7920   23.2580 O   0  0  0  0  0  0  0  0  0  0  0  0
  -21.0180  -29.7480   21.6030 H   0  0  0  0  0  0  0  0  0  0  0  0
  -18.1600  -27.8980   22.7360 C   0  0  0  0  0  0  0  0  0  0  0  0
  -20.7070  -28.2340   23.0460 C   0  0  0  0  0  3  0  0  0  0  0  0
  -20.8600  -26.8080   22.4640 C   0  0  0  0  0  2  0  0  0  0  0  0
  -19.7840  -26.4600   21.4320 C   0  0  0  0  0  2  0  0  0  0  0  0
  -18.3880  -26.5580   22.0530 C   0  0  0  0  0  2  0  0  0  0  0  0
  -19.2490  -28.6910   23.1860 C   0  0  0  0  0  0  0  0  0  0  0  0
  -18.9790  -29.9440   23.7820 C   0  0  0  0  0  3  0  0  0  0  0  0
  -17.6570  -30.4030   23.9270 C   0  0  0  0  0  3  0  0  0  0  0  0
  -16.5840  -29.6040   23.4950 C   0  0  0  0  0  3  0  0  0  0  0  0
  -16.8350  -28.3530   22.9070 C   0  0  0  0  0  3  0  0  0  0  0  0
  -25.9110  -32.5010   23.7900 C   0  0  0  0  0  3  0  0  0  0  0  0
  -26.4260  -31.7390   25.0720 C   0  0  1  0  0  0  0  0  0  0  0  0
  -25.3210  -31.4840   26.1220 C   0  0  0  0  0  1  0  0  0  0  0  0
  -27.0400  -30.3710   24.6910 C   0  0  0  0  0  1  0  0  0  0  0  0
  -27.5620  -32.5480   25.7460 C   0  0  0  0  0  1  0  0  0  0  0  0
  -25.5760  -33.8950   24.1210 N   0  0  0  0  0  0  0  0  0  0  0  0
  -25.9080  -34.9580   23.3750 C   0  0  0  0  0  0  0  0  0  0  0  0
  -26.5970  -34.8680   22.3550 O   0  0  0  0  0  0  0  0  0  0  0  0
  -24.9790  -34.0420   24.9210 H   0  0  0  0  0  0  0  0  0  0  0  0
  -24.1700  -36.7350   22.9980 C   0  0  0  0  0  1  0  0  0  0  0  0
  -25.3970  -36.3380   23.8330 C   0  0  0  0  0  3  0  0  0  0  0  0
  -27.5020  -37.2370   24.7250 C   0  0  0  0  0  1  0  0  0  0  0  0
  -26.4220  -37.4020   23.7550 N   0  0  0  0  0  0  0  0  0  0  0  0
  -26.0040  -38.3170   23.9040 H   0  0  0  0  0  0  0  0  0  0  0  0
  -30.3250  -17.9240   20.0150 C   0  0  0  0  0  2  0  0  0  0  0  0
  -30.7180  -15.1860   20.1240 C   0  0  0  0  0  0  0  0  0  0  0  0
  -30.5950  -12.7960   19.2100 C   0  0  0  0  0  2  0  0  0  0  0  0
  -29.6460  -12.7070   17.9890 C   0  0  0  0  0  2  0  0  0  0  0  0
  -28.2000  -12.4690   18.4520 C   0  0  0  0  0  2  0  0  0  0  0  0
  -27.8010  -13.4170   19.6090 C   0  0  0  0  0  3  0  0  0  0  0  0
  -28.8740  -13.4840   20.7190 C   0  0  0  0  0  2  0  0  0  0  0  0
  -30.1260  -13.9140   20.0950 N   0  0  0  0  0  0  0  0  0  0  0  0
  -31.8920  -15.2330   19.7320 O   0  0  0  0  0  0  0  0  0  0  0  0
  -29.9910  -16.4010   20.3970 N   0  0  0  0  0  0  0  0  0  0  0  0
  -29.0530  -16.2470   20.7390 H   0  0  0  0  0  0  0  0  0  0  0  0
  -25.4550  -13.9960   20.4340 C   0  0  0  0  0  0  0  0  0  0  0  0
  -24.4000  -13.2230   20.8320 C   0  0  0  0  0  0  0  0  0  0  0  0
  -24.8520  -11.8700   20.7670 C   0  0  0  0  0  0  0  0  0  0  0  0
  -26.4820  -13.1150   20.1470 N   0  0  0  0  0  0  0  0  0  0  0  0
  -26.1310  -11.8290   20.4080 N   0  0  0  0  0  0  0  0  0  0  0  0
  -24.1220  -10.6100   20.9640 C   0  0  0  0  0  0  0  0  0  0  0  0
  -24.5600   -9.6450   21.8970 C   0  0  0  0  0  3  0  0  0  0  0  0
  -23.8310   -8.4520   22.0860 C   0  0  0  0  0  3  0  0  0  0  0  0
  -22.6500   -8.2140   21.3430 C   0  0  0  0  0  0  0  0  0  0  0  0
  -22.2300   -9.1670   20.4020 C   0  0  0  0  0  3  0  0  0  0  0  0
  -22.9580  -10.3540   20.2110 C   0  0  0  0  0  3  0  0  0  0  0  0
  -21.8940   -7.0700   21.4390 O   0  0  0  0  0  0  0  0  0  0  0  0
  -21.8250   -6.3480   22.6030 C   0  0  0  0  0  0  0  0  0  0  0  0
  -21.3560   -6.9180   23.8070 C   0  0  0  0  0  3  0  0  0  0  0  0
  -21.2380   -6.1230   24.9650 C   0  0  0  0  0  3  0  0  0  0  0  0
  -21.5780   -4.7570   24.9170 C   0  0  0  0  0  0  0  0  0  0  0  0
  -22.0340   -4.1860   23.7170 C   0  0  0  0  0  3  0  0  0  0  0  0
  -22.1580   -4.9810   22.5630 C   0  0  0  0  0  0  0  0  0  0  0  0
  -22.5820   -4.4220   21.4040 F   0  0  0  0  0  0  0  0  0  0  0  0
  -21.4540   -3.9900   26.0240 F   0  0  0  0  0  0  0  0  0  0  0  0
  -23.0180  -13.7100   21.1590 C   0  0  0  0  0  0  0  0  0  0  0  0
  -22.3200  -13.0150   22.0500 N   0  0  0  0  0  0  0  0  0  0  0  0
  -22.5690  -14.7380   20.6570 O   0  0  0  0  0  0  0  0  0  0  0  0
  -22.6940  -12.1800   22.4790 H   0  0  0  0  0  0  0  0  0  0  0  0
  -21.3920  -13.3180   22.3040 H   0  0  0  0  0  0  0  0  0  0  0  0
  -25.6190  -15.3680   20.2600 N   0  0  0  0  0  0  0  0  0  0  0  0
  -24.8550  -16.0210   20.3890 H   0  0  0  0  0  0  0  0  0  0  0  0
  -26.4510  -15.8010   19.8810 H   0  0  0  0  0  0  0  0  0  0  0  0
  1  4  2  0
  1  3  1  0
  3  2  2  0
  4  6  1  0
  6  2  1  0
  6  5  1  0
  8  7  1  0
  8  3  1  0
  8  9  1  0
 10 12  1  0
 10  9  1  0
 11 22  2  0
 12 17  1  0
 13 21  1  0
 13 23  1  0
 14 20  1  0
 14 16  1  0
 15 21  1  0
 16 17  2  0
 16 15  1  0
 18 12  2  0
 19 18  1  0
 19 14  2  0
 20 13  1  0
 21 11  1  0
 23 25  2  0
 24 23  1  0
 26 24  1  0
 27 36  2  0
 27 32  1  0
 28 24  1  0
 28 32  1  0
 29 28  1  0
 30 31  1  0
 30 29  1  0
 31 27  1  0
 32 33  2  0
 33 34  1  0
 35 34  2  0
 36 35  1  0
 37 11  1  0
 37 42  1  0
 37 38  1  0
 38 41  1  1
 38 39  1  0
 40 38  1  0
 42 45  1  0
 43 47  1  0
 43 42  1  0
 44 43  2  0
 47 46  1  0
 49 47  1  0
 49 50  1  0
 49 48  1  0
 51 60  1  0
 51  4  1  0
 52 60  1  0
 53 58  1  0
 54 55  1  0
 54 53  1  0
 56 55  1  0
 56 65  1  0
 56 57  1  0
 58 52  1  0
 58 57  1  0
 59 52  2  0
 60 61  1  0
 62 63  2  0
 63 82  1  0
 64 63  1  0
 64 67  1  0
 65 66  1  0
 65 62  1  0
 66 64  2  0
 67 68  1  0
 68 69  2  0
 70 73  1  0
 70 69  1  0
 71 70  2  0
 72 71  1  0
 72 67  2  0
 73 74  1  0
 74 75  1  0
 75 76  2  0
 77 76  1  0
 77 81  1  0
 78 77  2  0
 79 74  2  0
 79 78  1  0
 80 79  1  0
 82 83  1  0
 83 86  1  0
 83 85  1  0
 84 82  2  0
 87 88  1  0
 87 62  1  0
 89 87  1  0
M  ISO  4   9 101  10 101  52 100  60 100
M  END
>  <TORSDO>  (49) 
F 19

>  <SCORE>  (49) 
-14.755

>  <name>  (49) 
48

>  <ligand_id>  (49) 
48

>  <original_smiles>  (49) 
[H]c1c([H])c([H])c2c(c1[H])C([H])([H])C([H])([H])C([H])([H])C2([H])N([H])C(=O)C1([H])N(C(=O)C([H])(N([H])C(=O)C([H])(N([H])C([H])([H])[H])C([H])([H])[H])C(C([H])([H])[H])(C([H])([H])[H])C([H])([H])[H])C([H])([H])c2c([H])c(OC([H])([H])C([H])(c3c([H])c(C([H])([H])N([H])C(=O)N4C([H])([H])C([H])([H])C([H])([H])C([H])(n5nc(-c6c([H])c([H])c(Oc7c([H])c([H])c(F)c([H])c7F)c([H])c6[H])c(C(=O)N([H])[H])c5N([H])[H])C4([H])[H])n(C([H])([H])[H])c3[H])C([H])([H])[H])c([H])c([H])c2C1([H])[H]

>  <smiles>  (49) 
[H]c1c([H])c([H])c2c(c1[H])C([H])([H])C([H])([H])C([H])([H])C2([H])N([H])C(=O)C1([H])N(C(=O)C([H])(N([H])C(=O)C([H])(N([H])C([H])([H])[H])C([H])([H])[H])C(C([H])([H])[H])(C([H])([H])[H])C([H])([H])[H])C([H])([H])c2c([H])c(OC([H])([H])C([H])(c3c([H])c(C([H])([H])N([H])C(=O)N4C([H])([H])C([H])([H])C([H])([H])C([H])(n5nc(-c6c([H])c([H])c(Oc7c([H])c([H])c(F)c([H])c7F)c([H])c6[H])c(C(=O)N([H])[H])c5N([H])[H])C4([H])[H])n(C([H])([H])[H])c3[H])C([H])([H])[H])c([H])c([H])c2C1([H])[H]

$$$$
49:0:0
     RDKit          3D

 94102  0  0  1  0  0  0  0  0999 V2000
  -29.7660  -20.5820   20.8080 C   0  0  0  0  0  3  0  0  0  0  0  0
  -30.5480  -14.9880   20.2810 C   0  0  0  0  0  0  0  0  0  0  0  0
  -30.3910  -12.6400   19.3420 C   0  0  0  0  0  2  0  0  0  0  0  0
  -29.4410  -12.5400   18.1320 C   0  0  0  0  0  2  0  0  0  0  0  0
  -27.9750  -12.3390   18.5750 C   0  0  0  0  0  2  0  0  0  0  0  0
  -27.5700  -13.2470   19.7630 C   0  0  0  0  0  3  0  0  0  0  0  0
  -28.6560  -13.3240   20.8620 C   0  0  0  0  0  2  0  0  0  0  0  0
  -29.9060  -13.7480   20.2080 N   0  0  0  0  0  0  0  0  0  0  0  0
  -31.7780  -14.9880   20.1760 O   0  0  0  0  0  0  0  0  0  0  0  0
  -28.7670  -16.3680   19.2240 C   0  0  0  0  0  3  0  0  0  0  0  0
  -30.2150  -17.6300   20.8250 C   0  0  0  0  0  2  0  0  0  0  0  0
  -28.5480  -17.7020   18.4320 C   0  0  0  0  0  3  0  0  0  0  0  0
  -29.4600  -19.0100   20.2920 C   0  0  0  0  0  3  0  0  0  0  0  0
  -29.8320  -16.2300   20.2430 N   0  0  0  0  0  0  0  0  0  0  0  0
  -29.3670  -18.8780   18.8190 N   0  0  1  0  0  4  0  0  0  0  0  0
  -28.8050  -19.6660   18.5330 H   0  0  0  0  0  0  0  0  0  0  0  0
  -25.2030  -13.8550   20.5250 C   0  0  0  0  0  0  0  0  0  0  0  0
  -24.1360  -13.0900   20.9000 C   0  0  0  0  0  0  0  0  0  0  0  0
  -24.5950  -11.7360   20.8700 C   0  0  0  0  0  0  0  0  0  0  0  0
  -26.2400  -12.9680   20.2850 N   0  0  0  0  0  0  0  0  0  0  0  0
  -25.8850  -11.6890   20.5560 N   0  0  0  0  0  0  0  0  0  0  0  0
  -23.8710  -10.4780   21.0650 C   0  0  0  0  0  0  0  0  0  0  0  0
  -24.3180   -9.5080   21.9870 C   0  0  0  0  0  3  0  0  0  0  0  0
  -23.5980   -8.3070   22.1700 C   0  0  0  0  0  3  0  0  0  0  0  0
  -22.4160   -8.0720   21.4250 C   0  0  0  0  0  0  0  0  0  0  0  0
  -21.9860   -9.0320   20.4940 C   0  0  0  0  0  3  0  0  0  0  0  0
  -22.7070  -10.2240   20.3110 C   0  0  0  0  0  3  0  0  0  0  0  0
  -21.6700   -6.9210   21.5120 O   0  0  0  0  0  0  0  0  0  0  0  0
  -21.6480   -6.1640   22.6550 C   0  0  0  0  0  0  0  0  0  0  0  0
  -21.2500   -6.7040   23.8970 C   0  0  0  0  0  3  0  0  0  0  0  0
  -21.1770   -5.8740   25.0340 C   0  0  0  0  0  3  0  0  0  0  0  0
  -21.4900   -4.5050   24.9280 C   0  0  0  0  0  0  0  0  0  0  0  0
  -21.8820   -3.9650   23.6910 C   0  0  0  0  0  3  0  0  0  0  0  0
  -21.9570   -4.7920   22.5560 C   0  0  0  0  0  0  0  0  0  0  0  0
  -22.3130   -4.2630   21.3610 F   0  0  0  0  0  0  0  0  0  0  0  0
  -21.4100   -3.7060   26.0180 F   0  0  0  0  0  0  0  0  0  0  0  0
  -22.7400  -13.5730   21.1690 C   0  0  0  0  0  0  0  0  0  0  0  0
  -22.0030  -12.8870   22.0320 N   0  0  0  0  0  0  0  0  0  0  0  0
  -22.3060  -14.5970   20.6410 O   0  0  0  0  0  0  0  0  0  0  0  0
  -22.3600  -12.0590   22.4890 H   0  0  0  0  0  0  0  0  0  0  0  0
  -21.0670  -13.1990   22.2400 H   0  0  0  0  0  0  0  0  0  0  0  0
  -25.3740  -15.2240   20.3370 N   0  0  0  0  0  0  0  0  0  0  0  0
  -24.6230  -15.8960   20.4450 H   0  0  0  0  0  0  0  0  0  0  0  0
  -26.2250  -15.6290   19.9760 H   0  0  0  0  0  0  0  0  0  0  0  0
  -30.3470  -20.0970   16.9060 C   0  0  0  0  0  1  0  0  0  0  0  0
  -31.3000  -17.8090   17.4960 C   0  0  0  0  0  1  0  0  0  0  0  0
  -30.6250  -19.0910   18.0310 C   0  0  0  0  0  3  0  0  0  0  0  0
  -31.9160  -21.5900   21.4280 C   0  0  0  0  0  1  0  0  0  0  0  0
  -31.1890  -20.6370   20.6750 O   0  0  0  0  0  0  0  0  0  0  0  0
  -29.0350  -21.9600   20.1620 C   0  0  0  0  0  2  0  0  0  0  0  0
  -29.7020  -23.8480   21.9740 C   0  0  0  0  0  1  0  0  0  0  0  0
  -28.7120  -23.4550   20.8720 C   0  0  0  0  0  3  0  0  0  0  0  0
  -28.3650  -24.8100   19.9580 C   0  0  0  0  0  2  0  0  0  0  0  0
  -28.3090  -26.2840   20.4200 O   0  0  0  0  0  0  0  0  0  0  0  0
  -24.6220  -31.9140   23.2480 C   0  0  0  0  0  0  0  0  0  0  0  0
  -27.2170  -27.2080   20.2710 C   0  0  0  0  0  0  0  0  0  0  0  0
  -23.4270  -30.5140   21.6050 C   0  0  0  0  0  3  0  0  0  0  0  0
  -24.8830  -28.9340   20.1940 C   0  0  0  0  0  0  0  0  0  0  0  0
  -25.9770  -30.7870   21.4530 C   0  0  0  0  0  2  0  0  0  0  0  0
  -26.0530  -29.3940   20.8060 C   0  0  0  0  0  0  0  0  0  0  0  0
  -27.2170  -28.5460   20.8250 C   0  0  0  0  0  3  0  0  0  0  0  0
  -26.0210  -26.8390   19.6150 C   0  0  0  0  0  3  0  0  0  0  0  0
  -24.8780  -27.6710   19.5810 C   0  0  0  0  0  3  0  0  0  0  0  0
  -23.6510  -29.8250   20.2310 C   0  0  0  0  0  2  0  0  0  0  0  0
  -24.6940  -31.0920   22.1560 N   0  0  0  0  0  0  0  0  0  0  0  0
  -23.5350  -32.2010   23.7710 O   0  0  0  0  0  0  0  0  0  0  0  0
  -22.7410  -29.5110   22.5680 C   0  0  0  0  0  0  0  0  0  0  0  0
  -21.4140  -29.3420   22.4320 N   0  0  0  0  0  0  0  0  0  0  0  0
  -23.4060  -28.8860   23.3970 O   0  0  0  0  0  0  0  0  0  0  0  0
  -20.9330  -29.9030   21.7420 H   0  0  0  0  0  0  0  0  0  0  0  0
  -18.0280  -28.1470   22.9100 C   0  0  0  0  0  0  0  0  0  0  0  0
  -20.5830  -28.4110   23.2010 C   0  0  0  0  0  3  0  0  0  0  0  0
  -20.6880  -26.9730   22.6400 C   0  0  0  0  0  2  0  0  0  0  0  0
  -19.5970  -26.6430   21.6170 C   0  0  0  0  0  2  0  0  0  0  0  0
  -18.2100  -26.7940   22.2450 C   0  0  0  0  0  2  0  0  0  0  0  0
  -19.1430  -28.9140   23.3430 C   0  0  0  0  0  0  0  0  0  0  0  0
  -18.9200  -30.1800   23.9250 C   0  0  0  0  0  3  0  0  0  0  0  0
  -17.6130  -30.6830   24.0760 C   0  0  0  0  0  3  0  0  0  0  0  0
  -16.5120  -29.9130   23.6580 C   0  0  0  0  0  3  0  0  0  0  0  0
  -16.7220  -28.6480   23.0840 C   0  0  0  0  0  3  0  0  0  0  0  0
  -25.8980  -32.5460   23.8790 C   0  0  0  0  0  3  0  0  0  0  0  0
  -25.5910  -33.9490   24.2010 N   0  0  0  0  0  0  0  0  0  0  0  0
  -25.9280  -34.9990   23.4390 C   0  0  0  0  0  0  0  0  0  0  0  0
  -26.5990  -34.8900   22.4100 O   0  0  0  0  0  0  0  0  0  0  0  0
  -24.9970  -34.1100   25.0010 H   0  0  0  0  0  0  0  0  0  0  0  0
  -24.2000  -36.7940   23.0880 C   0  0  0  0  0  1  0  0  0  0  0  0
  -25.4460  -36.3920   23.8930 C   0  0  0  0  0  3  0  0  0  0  0  0
  -27.5850  -37.2760   24.7080 C   0  0  0  0  0  1  0  0  0  0  0  0
  -26.4790  -37.4410   23.7700 N   0  0  0  0  0  0  0  0  0  0  0  0
  -26.0750  -38.3630   23.9200 H   0  0  0  0  0  0  0  0  0  0  0  0
  -26.4020  -31.7820   25.1670 C   0  0  1  0  0  0  0  0  0  0  0  0
  -25.3000  -31.5610   26.2270 C   0  0  0  0  0  1  0  0  0  0  0  0
  -26.9820  -30.3970   24.7970 C   0  0  0  0  0  1  0  0  0  0  0  0
  -27.5500  -32.5790   25.8330 C   0  0  0  0  0  1  0  0  0  0  0  0
  1 50  1  0
  3  8  1  0
  4  5  1  0
  4  3  1  0
  6  5  1  0
  6 20  1  0
  6  7  1  0
  8  2  1  0
  8  7  1  0
  9  2  2  0
 10 14  1  0
 12 15  1  0
 12 10  2  0
 13  1  1  0
 13 11  1  0
 14  2  1  0
 14 11  1  0
 15 13  1  0
 15 16  1  6
 17 18  2  0
 18 37  1  0
 19 18  1  0
 19 22  1  0
 20 17  1  0
 20 21  1  0
 21 19  2  0
 22 23  1  0
 23 24  2  0
 25 28  1  0
 25 24  1  0
 26 25  2  0
 27 26  1  0
 27 22  2  0
 28 29  1  0
 29 30  1  0
 30 31  2  0
 32 31  1  0
 32 36  1  0
 33 32  2  0
 34 29  2  0
 34 33  1  0
 35 34  1  0
 37 38  1  0
 38 41  1  0
 38 40  1  0
 39 37  2  0
 42 43  1  0
 42 17  1  0
 44 42  1  0
 45 47  1  0
 46 47  1  0
 47 15  1  0
 49  1  1  0
 49 48  1  0
 50 52  1  0
 52 51  1  0
 53 54  1  0
 53 52  1  0
 55 66  2  0
 56 54  1  0
 56 61  1  0
 57 65  1  0
 57 67  1  0
 58 64  1  0
 58 60  1  0
 59 65  1  0
 60 61  2  0
 60 59  1  0
 62 56  2  0
 63 62  1  0
 63 58  2  0
 64 57  1  0
 65 55  1  0
 67 69  2  0
 68 67  1  0
 70 68  1  0
 71 80  2  0
 71 76  1  0
 72 68  1  0
 72 76  1  0
 73 72  1  0
 74 75  1  0
 74 73  1  0
 75 71  1  0
 76 77  2  0
 77 78  1  0
 79 78  2  0
 80 79  1  0
 81 55  1  0
 81 82  1  0
 81 91  1  0
 82 85  1  0
 83 87  1  0
 83 82  1  0
 84 83  2  0
 87 86  1  0
 89 87  1  0
 89 90  1  0
 89 88  1  0
 91 94  1  1
 91 92  1  0
 93 91  1  0
M  ISO  4   2 100  14 100  53 101  54 101
M  END
>  <TORSDO>  (50) 
F 21

>  <SCORE>  (50) 
-13.809

>  <name>  (50) 
49

>  <ligand_id>  (50) 
49

>  <original_smiles>  (50) 
[H]c1c([H])c([H])c2c(c1[H])C([H])([H])C([H])([H])C([H])([H])C2([H])N([H])C(=O)C1([H])N(C(=O)C([H])(N([H])C(=O)C([H])(N([H])C([H])([H])[H])C([H])([H])[H])C(C([H])([H])[H])(C([H])([H])[H])C([H])([H])[H])C([H])([H])c2c([H])c(OC([H])([H])C([H])(C([H])([H])[H])C([H])([H])C([H])(OC([H])([H])[H])C3([H])C([H])([H])N(C(=O)N4C([H])([H])C([H])([H])C([H])([H])C([H])(n5nc(-c6c([H])c([H])c(Oc7c([H])c([H])c(F)c([H])c7F)c([H])c6[H])c(C(=O)N([H])[H])c5N([H])[H])C4([H])[H])C([H])([H])C([H])([H])[N+]3([H])C([H])(C([H])([H])[H])C([H])([H])[H])c([H])c([H])c2C1([H])[H]

>  <smiles>  (50) 
[H]c1c([H])c([H])c2c(c1[H])C([H])([H])C([H])([H])C([H])([H])C2([H])N([H])C(=O)C1([H])N(C(=O)C([H])(N([H])C(=O)C([H])(N([H])C([H])([H])[H])C([H])([H])[H])C(C([H])([H])[H])(C([H])([H])[H])C([H])([H])[H])C([H])([H])c2c([H])c(OC([H])([H])C([H])(C([H])([H])[H])C([H])([H])C([H])(OC([H])([H])[H])C3([H])C([H])([H])N(C(=O)N4C([H])([H])C([H])([H])C([H])([H])C([H])(n5nc(-c6c([H])c([H])c(Oc7c([H])c([H])c(F)c([H])c7F)c([H])c6[H])c(C(=O)N([H])[H])c5N([H])[H])C4([H])[H])C([H])([H])C([H])([H])[N+]3([H])C([H])(C([H])([H])[H])C([H])([H])[H])c([H])c([H])c2C1([H])[H]

$$$$
50:0:0
     RDKit          3D

 95102  0  0  1  0  0  0  0  0999 V2000
  -29.2420  -20.4950   20.2990 N   0  0  1  0  0  4  0  0  0  0  0  0
  -28.3930  -20.1810   20.7460 H   0  0  0  0  0  0  0  0  0  0  0  0
  -30.9060  -22.2000   21.3160 C   0  0  0  0  0  1  0  0  0  0  0  0
  -29.4300  -21.9600   20.9440 C   0  0  0  0  0  3  0  0  0  0  0  0
  -28.8600  -23.4240   20.2660 C   0  0  0  0  0  2  0  0  0  0  0  0
  -28.7070  -24.9220   21.0500 C   0  0  0  0  0  2  0  0  0  0  0  0
  -28.7010  -26.3930   20.5270 O   0  0  0  0  0  0  0  0  0  0  0  0
  -24.7330  -31.9940   23.3040 C   0  0  0  0  0  0  0  0  0  0  0  0
  -27.5720  -27.2860   20.5170 C   0  0  0  0  0  0  0  0  0  0  0  0
  -23.6390  -30.5140   21.6620 C   0  0  0  0  0  3  0  0  0  0  0  0
  -25.1860  -28.9350   20.3500 C   0  0  0  0  0  0  0  0  0  0  0  0
  -26.1860  -30.8610   21.5790 C   0  0  0  0  0  2  0  0  0  0  0  0
  -26.3280  -29.4500   20.9780 C   0  0  0  0  0  0  0  0  0  0  0  0
  -27.5260  -28.6440   21.0320 C   0  0  0  0  0  3  0  0  0  0  0  0
  -26.3990  -26.8570   19.8670 C   0  0  0  0  0  3  0  0  0  0  0  0
  -25.2330  -27.6520   19.7790 C   0  0  0  0  0  3  0  0  0  0  0  0
  -23.9320  -29.7970   20.3170 C   0  0  0  0  0  2  0  0  0  0  0  0
  -24.8700  -31.1470   22.2370 N   0  0  0  0  0  0  0  0  0  0  0  0
  -23.6190  -32.2590   23.7820 O   0  0  0  0  0  0  0  0  0  0  0  0
  -22.9530  -29.5170   22.6300 C   0  0  0  0  0  0  0  0  0  0  0  0
  -21.6480  -29.2650   22.4260 N   0  0  0  0  0  0  0  0  0  0  0  0
  -23.6020  -28.9700   23.5240 O   0  0  0  0  0  0  0  0  0  0  0  0
  -21.1800  -29.7630   21.6810 H   0  0  0  0  0  0  0  0  0  0  0  0
  -18.3000  -27.9340   22.8090 C   0  0  0  0  0  0  0  0  0  0  0  0
  -20.8300  -28.3170   23.1860 C   0  0  0  0  0  3  0  0  0  0  0  0
  -21.0190  -26.8740   22.6650 C   0  0  0  0  0  2  0  0  0  0  0  0
  -19.9820  -26.4710   21.6110 C   0  0  0  0  0  2  0  0  0  0  0  0
  -18.5670  -26.5750   22.1840 C   0  0  0  0  0  2  0  0  0  0  0  0
  -19.3630  -28.7590   23.2650 C   0  0  0  0  0  0  0  0  0  0  0  0
  -19.0610  -30.0260   23.8080 C   0  0  0  0  0  3  0  0  0  0  0  0
  -17.7300  -30.4730   23.9000 C   0  0  0  0  0  3  0  0  0  0  0  0
  -16.6800  -29.6480   23.4590 C   0  0  0  0  0  3  0  0  0  0  0  0
  -16.9660  -28.3800   22.9200 C   0  0  0  0  0  3  0  0  0  0  0  0
  -25.9650  -32.6860   23.9620 C   0  0  0  0  0  3  0  0  0  0  0  0
  -26.4620  -31.9570   25.2710 C   0  0  1  0  0  0  0  0  0  0  0  0
  -25.3230  -31.6000   26.2560 C   0  0  0  0  0  1  0  0  0  0  0  0
  -27.2070  -30.6480   24.9230 C   0  0  0  0  0  1  0  0  0  0  0  0
  -27.4740  -32.8580   26.0190 C   0  0  0  0  0  1  0  0  0  0  0  0
  -25.5900  -34.0780   24.2610 N   0  0  0  0  0  0  0  0  0  0  0  0
  -25.8800  -35.1320   23.4870 C   0  0  0  0  0  0  0  0  0  0  0  0
  -26.5590  -35.0390   22.4610 O   0  0  0  0  0  0  0  0  0  0  0  0
  -24.9860  -34.2200   25.0580 H   0  0  0  0  0  0  0  0  0  0  0  0
  -24.0630  -36.8350   23.1210 C   0  0  0  0  0  1  0  0  0  0  0  0
  -25.3350  -36.5080   23.9200 C   0  0  0  0  0  3  0  0  0  0  0  0
  -27.4490  -37.5040   24.6800 C   0  0  0  0  0  1  0  0  0  0  0  0
  -26.3140  -37.6060   23.7650 N   0  0  0  0  0  0  0  0  0  0  0  0
  -25.8710  -38.5090   23.9120 H   0  0  0  0  0  0  0  0  0  0  0  0
  -28.8710  -20.6010   18.8580 C   0  0  0  0  0  2  0  0  0  0  0  0
  -29.2760  -19.3820   17.9940 C   0  0  0  0  0  2  0  0  0  0  0  0
  -28.9820  -19.5510   16.4910 C   0  0  0  0  0  2  0  0  0  0  0  0
  -30.1000  -18.9560   15.6260 C   0  0  0  0  0  0  0  0  0  0  0  0
  -30.3100  -19.4890   14.4300 N   0  0  0  0  0  0  0  0  0  0  0  0
  -30.7990  -18.0330   16.0400 O   0  0  0  0  0  0  0  0  0  0  0  0
  -29.7450  -20.2590   14.0950 H   0  0  0  0  0  0  0  0  0  0  0  0
  -31.0550  -19.1360   13.8470 H   0  0  0  0  0  0  0  0  0  0  0  0
  -30.2470  -19.2570   20.5040 C   0  0  0  0  0  2  0  0  0  0  0  0
  -29.8060  -17.7670   21.1790 C   0  0  0  0  0  2  0  0  0  0  0  0
  -30.7810  -15.1520   20.6480 C   0  0  0  0  0  0  0  0  0  0  0  0
  -30.7530  -12.8030   19.6690 C   0  0  0  0  0  2  0  0  0  0  0  0
  -29.8420  -12.7350   18.4210 C   0  0  0  0  0  2  0  0  0  0  0  0
  -28.3700  -12.5100   18.8190 C   0  0  0  0  0  2  0  0  0  0  0  0
  -27.9180  -13.4300   19.9830 C   0  0  0  0  0  3  0  0  0  0  0  0
  -28.9470  -13.4420   21.1290 C   0  0  0  0  0  2  0  0  0  0  0  0
  -30.2220  -13.8810   20.5440 N   0  0  0  0  0  0  0  0  0  0  0  0
  -32.0060  -15.2580   20.5330 O   0  0  0  0  0  0  0  0  0  0  0  0
  -29.9170  -16.2800   20.6310 N   0  0  0  0  0  0  0  0  0  0  0  0
  -28.9900  -15.9480   20.4040 H   0  0  0  0  0  0  0  0  0  0  0  0
  -25.5270  -13.9860   20.7060 C   0  0  0  0  0  0  0  0  0  0  0  0
  -24.4580  -13.2010   21.0290 C   0  0  0  0  0  0  0  0  0  0  0  0
  -24.9200  -11.8510   20.9540 C   0  0  0  0  0  0  0  0  0  0  0  0
  -26.5720  -13.1160   20.4460 N   0  0  0  0  0  0  0  0  0  0  0  0
  -26.2150  -11.8240   20.6660 N   0  0  0  0  0  0  0  0  0  0  0  0
  -24.1880  -10.5840   21.0810 C   0  0  0  0  0  0  0  0  0  0  0  0
  -24.5760   -9.5960   22.0130 C   0  0  0  0  0  3  0  0  0  0  0  0
  -23.8430   -8.3940   22.1290 C   0  0  0  0  0  3  0  0  0  0  0  0
  -22.7080   -8.1730   21.3120 C   0  0  0  0  0  0  0  0  0  0  0  0
  -22.3400   -9.1510   20.3710 C   0  0  0  0  0  3  0  0  0  0  0  0
  -23.0730  -10.3430   20.2530 C   0  0  0  0  0  3  0  0  0  0  0  0
  -21.9530   -7.0250   21.3370 O   0  0  0  0  0  0  0  0  0  0  0  0
  -21.7990   -6.2900   22.4840 C   0  0  0  0  0  0  0  0  0  0  0  0
  -21.2520   -6.8510   23.6590 C   0  0  0  0  0  3  0  0  0  0  0  0
  -21.0460   -6.0420   24.7950 C   0  0  0  0  0  3  0  0  0  0  0  0
  -21.3790   -4.6740   24.7560 C   0  0  0  0  0  0  0  0  0  0  0  0
  -21.9200   -4.1140   23.5850 C   0  0  0  0  0  3  0  0  0  0  0  0
  -22.1260   -4.9200   22.4510 C   0  0  0  0  0  0  0  0  0  0  0  0
  -22.6290   -4.3710   21.3190 F   0  0  0  0  0  0  0  0  0  0  0  0
  -21.1750   -3.8950   25.8430 F   0  0  0  0  0  0  0  0  0  0  0  0
  -23.0550  -13.6700   21.2830 C   0  0  0  0  0  0  0  0  0  0  0  0
  -22.3210  -12.9710   22.1420 N   0  0  0  0  0  0  0  0  0  0  0  0
  -22.6190  -14.6920   20.7540 O   0  0  0  0  0  0  0  0  0  0  0  0
  -22.6890  -12.1440   22.5880 H   0  0  0  0  0  0  0  0  0  0  0  0
  -21.3800  -13.2670   22.3560 H   0  0  0  0  0  0  0  0  0  0  0  0
  -25.6860  -15.3620   20.5740 N   0  0  0  0  0  0  0  0  0  0  0  0
  -24.8220  -15.8900   20.6020 H   0  0  0  0  0  0  0  0  0  0  0  0
  -26.2680  -15.6870   19.8030 H   0  0  0  0  0  0  0  0  0  0  0  0
  1 56  1  0
  1  2  1  1
  1  4  1  0
  4  3  1  0
  5  4  1  0
  5  6  1  0
  7  6  1  0
  8 19  2  0
  9  7  1  0
  9 14  1  0
 10 18  1  0
 10 20  1  0
 11 13  1  0
 12 18  1  0
 13 14  2  0
 13 12  1  0
 15  9  2  0
 16 15  1  0
 16 11  2  0
 17 11  1  0
 17 10  1  0
 18  8  1  0
 20 22  2  0
 21 20  1  0
 23 21  1  0
 24 33  2  0
 24 29  1  0
 25 21  1  0
 25 29  1  0
 26 25  1  0
 27 28  1  0
 27 26  1  0
 28 24  1  0
 29 30  2  0
 30 31  1  0
 32 31  2  0
 33 32  1  0
 34  8  1  0
 34 39  1  0
 34 35  1  0
 35 38  1  1
 35 36  1  0
 37 35  1  0
 39 42  1  0
 40 44  1  0
 40 39  1  0
 41 40  2  0
 44 43  1  0
 46 47  1  0
 46 44  1  0
 46 45  1  0
 48  1  1  0
 49 48  1  0
 50 49  1  0
 51 53  2  0
 51 50  1  0
 52 51  1  0
 54 52  1  0
 55 52  1  0
 56 57  1  0
 59 64  1  0
 60 61  1  0
 60 59  1  0
 62 61  1  0
 62 71  1  0
 62 63  1  0
 64 58  1  0
 64 63  1  0
 65 58  2  0
 66 58  1  0
 66 57  1  0
 67 66  1  0
 68 69  2  0
 69 88  1  0
 70 69  1  0
 70 73  1  0
 71 72  1  0
 71 68  1  0
 72 70  2  0
 73 74  1  0
 74 75  2  0
 76 79  1  0
 76 75  1  0
 77 76  2  0
 78 77  1  0
 78 73  2  0
 79 80  1  0
 80 81  1  0
 81 82  2  0
 83 82  1  0
 83 87  1  0
 84 83  2  0
 85 80  2  0
 85 84  1  0
 86 85  1  0
 88 89  1  0
 89 92  1  0
 89 91  1  0
 90 88  2  0
 93 94  1  0
 93 68  1  0
 95 93  1  0
M  ISO  4   6 101   7 101  58 100  66 100
M  END
>  <TORSDO>  (51) 
F 25

>  <SCORE>  (51) 
-12.722

>  <name>  (51) 
50

>  <ligand_id>  (51) 
50

>  <original_smiles>  (51) 
[H]c1c([H])c([H])c2c(c1[H])C([H])([H])C([H])([H])C([H])([H])C2([H])N([H])C(=O)C1([H])N(C(=O)C([H])(N([H])C(=O)C([H])(N([H])C([H])([H])[H])C([H])([H])[H])C(C([H])([H])[H])(C([H])([H])[H])C([H])([H])[H])C([H])([H])c2c([H])c(OC([H])([H])C([H])([H])C([H])(C([H])([H])[H])[N+]([H])(C([H])([H])C([H])([H])N([H])C(=O)N3C([H])([H])C([H])([H])C([H])([H])C([H])(n4nc(-c5c([H])c([H])c(Oc6c([H])c([H])c(F)c([H])c6F)c([H])c5[H])c(C(=O)N([H])[H])c4N([H])[H])C3([H])[H])C([H])([H])C([H])([H])C([H])([H])C(=O)N([H])[H])c([H])c([H])c2C1([H])[H]

>  <smiles>  (51) 
[H]c1c([H])c([H])c2c(c1[H])C([H])([H])C([H])([H])C([H])([H])C2([H])N([H])C(=O)C1([H])N(C(=O)C([H])(N([H])C(=O)C([H])(N([H])C([H])([H])[H])C([H])([H])[H])C(C([H])([H])[H])(C([H])([H])[H])C([H])([H])[H])C([H])([H])c2c([H])c(OC([H])([H])C([H])([H])C([H])(C([H])([H])[H])[N+]([H])(C([H])([H])C([H])([H])N([H])C(=O)N3C([H])([H])C([H])([H])C([H])([H])C([H])(n4nc(-c5c([H])c([H])c(Oc6c([H])c([H])c(F)c([H])c6F)c([H])c5[H])c(C(=O)N([H])[H])c4N([H])[H])C3([H])[H])C([H])([H])C([H])([H])C([H])([H])C(=O)N([H])[H])c([H])c([H])c2C1([H])[H]

$$$$
51:0:0
     RDKit          3D

 93101  0  0  1  0  0  0  0  0999 V2000
  -28.6860  -18.3330   20.5470 C   0  0  0  0  0  3  0  0  0  0  0  0
  -30.4680  -19.9430   20.4820 C   0  0  0  0  0  3  0  0  0  0  0  0
  -30.0610  -18.5670   20.6640 C   0  0  0  0  0  0  0  0  0  0  0  0
  -27.8010  -19.3350   20.0970 C   0  0  0  0  0  0  0  0  0  0  0  0
  -29.5950  -21.0080   20.0160 C   0  0  0  0  0  0  0  0  0  0  0  0
  -28.2670  -20.6070   19.6190 C   0  0  0  0  0  0  0  0  0  0  0  0
  -26.3250  -18.9670   20.1890 C   0  0  0  0  0  1  0  0  0  0  0  0
  -27.1330  -20.6390   17.2960 C   0  0  0  0  0  1  0  0  0  0  0  0
  -27.7490  -22.8030   18.1570 C   0  0  0  0  0  1  0  0  0  0  0  0
  -27.3300  -21.3950   18.6400 C   0  0  0  0  0  3  0  0  0  0  0  0
  -30.1720  -22.4860   19.8540 C   0  0  0  0  0  2  0  0  0  0  0  0
  -29.6620  -23.7680   20.7060 C   0  0  0  0  0  3  0  0  0  0  0  0
  -29.6430  -25.1900   19.9390 C   0  0  0  0  0  3  0  0  0  0  0  0
  -29.3720  -26.4960   20.6230 O   0  0  0  0  0  0  0  0  0  0  0  0
  -24.9340  -31.4700   23.4390 C   0  0  0  0  0  0  0  0  0  0  0  0
  -28.1800  -27.2410   20.4740 C   0  0  0  0  0  0  0  0  0  0  0  0
  -24.0030  -30.0490   21.6490 C   0  0  0  0  0  3  0  0  0  0  0  0
  -25.6980  -28.6820   20.3060 C   0  0  0  0  0  0  0  0  0  0  0  0
  -26.5160  -30.5710   21.7130 C   0  0  0  0  0  2  0  0  0  0  0  0
  -26.7660  -29.2300   21.0250 C   0  0  0  0  0  0  0  0  0  0  0  0
  -28.0050  -28.5210   21.0990 C   0  0  0  0  0  3  0  0  0  0  0  0
  -27.0750  -26.7490   19.7410 C   0  0  0  0  0  3  0  0  0  0  0  0
  -25.8570  -27.4500   19.6570 C   0  0  0  0  0  3  0  0  0  0  0  0
  -24.3940  -29.4540   20.2720 C   0  0  0  0  0  2  0  0  0  0  0  0
  -25.1630  -30.7150   22.3250 N   0  0  0  0  0  0  0  0  0  0  0  0
  -23.7880  -31.6380   23.8810 O   0  0  0  0  0  0  0  0  0  0  0  0
  -23.3450  -28.9430   22.5090 C   0  0  0  0  0  0  0  0  0  0  0  0
  -22.0610  -28.6510   22.2420 N   0  0  0  0  0  0  0  0  0  0  0  0
  -23.9940  -28.3520   23.3770 O   0  0  0  0  0  0  0  0  0  0  0  0
  -21.5930  -29.1850   21.5230 H   0  0  0  0  0  0  0  0  0  0  0  0
  -18.7870  -27.1150   22.3370 C   0  0  0  0  0  0  0  0  0  0  0  0
  -21.2600  -27.6170   22.9000 C   0  0  0  0  0  3  0  0  0  0  0  0
  -21.5690  -26.2190   22.3160 C   0  0  0  0  0  2  0  0  0  0  0  0
  -20.6250  -25.8180   21.1780 C   0  0  0  0  0  2  0  0  0  0  0  0
  -19.1730  -25.8080   21.6640 C   0  0  0  0  0  2  0  0  0  0  0  0
  -19.7680  -27.9710   22.9040 C   0  0  0  0  0  0  0  0  0  0  0  0
  -19.3580  -29.1890   23.4880 C   0  0  0  0  0  3  0  0  0  0  0  0
  -17.9990  -29.5540   23.5140 C   0  0  0  0  0  3  0  0  0  0  0  0
  -17.0300  -28.6950   22.9660 C   0  0  0  0  0  3  0  0  0  0  0  0
  -17.4250  -27.4770   22.3830 C   0  0  0  0  0  3  0  0  0  0  0  0
  -26.0970  -32.1790   24.1980 C   0  0  0  0  0  3  0  0  0  0  0  0
  -25.6980  -33.5760   24.4190 N   0  0  0  0  0  0  0  0  0  0  0  0
  -26.1180  -34.6140   23.6830 C   0  0  0  0  0  0  0  0  0  0  0  0
  -26.9470  -34.5000   22.7770 O   0  0  0  0  0  0  0  0  0  0  0  0
  -24.9780  -33.7370   25.1080 H   0  0  0  0  0  0  0  0  0  0  0  0
  -24.4150  -36.3330   22.9930 C   0  0  0  0  0  1  0  0  0  0  0  0
  -25.5240  -36.0000   24.0040 C   0  0  0  0  0  3  0  0  0  0  0  0
  -27.4820  -36.9800   25.1150 C   0  0  0  0  0  1  0  0  0  0  0  0
  -26.5300  -37.0840   24.0130 N   0  0  0  0  0  0  0  0  0  0  0  0
  -26.0800  -37.9950   24.0670 H   0  0  0  0  0  0  0  0  0  0  0  0
  -26.4590  -31.4840   25.5680 C   0  0  1  0  0  0  0  0  0  0  0  0
  -25.2400  -31.2630   26.4950 C   0  0  0  0  0  1  0  0  0  0  0  0
  -27.1210  -30.1080   25.3280 C   0  0  0  0  0  1  0  0  0  0  0  0
  -27.4920  -32.3440   26.3350 C   0  0  0  0  0  1  0  0  0  0  0  0
  -31.0240  -17.3790   21.0830 C   0  0  0  0  0  2  0  0  0  0  0  0
  -31.2370  -14.7900   20.9550 C   0  0  0  0  0  0  0  0  0  0  0  0
  -30.9790  -12.6100   19.7760 C   0  0  0  0  0  2  0  0  0  0  0  0
  -30.1520  -12.8370   18.4910 C   0  0  0  0  0  2  0  0  0  0  0  0
  -28.6430  -12.7380   18.7920 C   0  0  0  0  0  2  0  0  0  0  0  0
  -28.2270  -13.5620   20.0410 C   0  0  0  0  0  3  0  0  0  0  0  0
  -29.1820  -13.3240   21.2310 C   0  0  0  0  0  2  0  0  0  0  0  0
  -30.5430  -13.6190   20.7670 N   0  0  0  0  0  0  0  0  0  0  0  0
  -32.4450  -14.8430   20.7060 O   0  0  0  0  0  0  0  0  0  0  0  0
  -30.5240  -15.9450   21.2010 N   0  0  0  0  0  0  0  0  0  0  0  0
  -29.5350  -15.8280   21.3530 H   0  0  0  0  0  0  0  0  0  0  0  0
  -25.8040  -14.2430   20.5420 C   0  0  0  0  0  0  0  0  0  0  0  0
  -24.6820  -13.5090   20.8130 C   0  0  0  0  0  0  0  0  0  0  0  0
  -25.0980  -12.1430   20.8320 C   0  0  0  0  0  0  0  0  0  0  0  0
  -26.8330  -13.3260   20.4050 N   0  0  0  0  0  0  0  0  0  0  0  0
  -26.4100  -12.0580   20.6450 N   0  0  0  0  0  0  0  0  0  0  0  0
  -24.3130  -10.9080   20.9610 C   0  0  0  0  0  0  0  0  0  0  0  0
  -24.7120   -9.8650   21.8250 C   0  0  0  0  0  3  0  0  0  0  0  0
  -23.9300   -8.6960   21.9450 C   0  0  0  0  0  3  0  0  0  0  0  0
  -22.7330   -8.5630   21.2000 C   0  0  0  0  0  0  0  0  0  0  0  0
  -22.3530   -9.5950   20.3250 C   0  0  0  0  0  3  0  0  0  0  0  0
  -23.1360  -10.7550   20.2010 C   0  0  0  0  0  3  0  0  0  0  0  0
  -21.9230   -7.4540   21.2340 O   0  0  0  0  0  0  0  0  0  0  0  0
  -21.9420   -6.5790   22.2920 C   0  0  0  0  0  0  0  0  0  0  0  0
  -21.7650   -7.0160   23.6220 C   0  0  0  0  0  3  0  0  0  0  0  0
  -21.7220   -6.0760   24.6710 C   0  0  0  0  0  3  0  0  0  0  0  0
  -21.8480   -4.7020   24.3930 C   0  0  0  0  0  0  0  0  0  0  0  0
  -22.0210   -4.2660   23.0660 C   0  0  0  0  0  3  0  0  0  0  0  0
  -22.0650   -5.2020   22.0190 C   0  0  0  0  0  0  0  0  0  0  0  0
  -22.2100   -4.7750   20.7420 F   0  0  0  0  0  0  0  0  0  0  0  0
  -21.8000   -3.7980   25.3980 F   0  0  0  0  0  0  0  0  0  0  0  0
  -23.2830  -14.0370   20.9510 C   0  0  0  0  0  0  0  0  0  0  0  0
  -22.4700  -13.4040   21.7890 N   0  0  0  0  0  0  0  0  0  0  0  0
  -22.9200  -15.0470   20.3490 O   0  0  0  0  0  0  0  0  0  0  0  0
  -22.7760  -12.5880   22.2980 H   0  0  0  0  0  0  0  0  0  0  0  0
  -21.5270  -13.7410   21.9250 H   0  0  0  0  0  0  0  0  0  0  0  0
  -26.0310  -15.6060   20.3750 N   0  0  0  0  0  0  0  0  0  0  0  0
  -25.2770  -16.2840   20.4140 H   0  0  0  0  0  0  0  0  0  0  0  0
  -26.9150  -16.0190   20.1050 H   0  0  0  0  0  0  0  0  0  0  0  0
  1  3  1  0
  2  3  2  0
  3 55  1  0
  4  7  1  0
  4  1  2  0
  5  2  1  0
  6  5  2  0
  6  4  1  0
  8 10  1  0
  9 10  1  0
 10  6  1  0
 11  5  1  0
 11 12  1  0
 13 14  1  0
 13 12  2  0
 15 26  2  0
 16 14  1  0
 16 21  1  0
 17 25  1  0
 17 27  1  0
 18 20  1  0
 19 25  1  0
 20 21  2  0
 20 19  1  0
 22 16  2  0
 23 22  1  0
 23 18  2  0
 24 18  1  0
 24 17  1  0
 25 15  1  0
 27 29  2  0
 28 27  1  0
 30 28  1  0
 31 40  2  0
 31 36  1  0
 32 28  1  0
 32 36  1  0
 33 32  1  0
 34 35  1  0
 34 33  1  0
 35 31  1  0
 36 37  2  0
 37 38  1  0
 39 38  2  0
 40 39  1  0
 41 15  1  0
 41 42  1  0
 41 51  1  0
 42 45  1  0
 43 47  1  0
 43 42  1  0
 44 43  2  0
 47 46  1  0
 47 49  1  0
 49 50  1  0
 49 48  1  0
 51 54  1  1
 51 52  1  0
 53 51  1  0
 55 64  1  0
 56 64  1  0
 57 62  1  0
 58 59  1  0
 58 57  1  0
 60 59  1  0
 60 69  1  0
 60 61  1  0
 62 56  1  0
 62 61  1  0
 63 56  2  0
 64 65  1  0
 66 67  2  0
 67 68  1  0
 67 86  1  0
 68 71  1  0
 69 66  1  0
 69 70  1  0
 70 68  2  0
 71 72  1  0
 72 73  2  0
 74 77  1  0
 74 73  1  0
 75 74  2  0
 76 75  1  0
 76 71  2  0
 77 78  1  0
 78 79  1  0
 79 80  2  0
 81 80  1  0
 81 85  1  0
 82 81  2  0
 83 78  2  0
 83 82  1  0
 84 83  1  0
 86 87  1  0
 87 90  1  0
 87 89  1  0
 88 86  2  0
 91 92  1  0
 91 66  1  0
 93 91  1  0
M  ISO  4  13 101  14 101  56 100  64 100
M  END
>  <TORSDO>  (52) 
F 21

>  <SCORE>  (52) 
-11.042

>  <name>  (52) 
51

>  <ligand_id>  (52) 
51

>  <original_smiles>  (52) 
[H]c1c([H])c([H])c2c(c1[H])C([H])([H])C([H])([H])C([H])([H])C2([H])N([H])C(=O)C1([H])N(C(=O)C([H])(N([H])C(=O)C([H])(N([H])C([H])([H])[H])C([H])([H])[H])C(C([H])([H])[H])(C([H])([H])[H])C([H])([H])[H])C([H])([H])c2c([H])c(OC([H])([H])C([H])([H])C([H])([H])c3c([H])c(C([H])([H])N([H])C(=O)N4C([H])([H])C([H])([H])C([H])([H])C([H])(n5nc(-c6c([H])c([H])c(Oc7c([H])c([H])c(F)c([H])c7F)c([H])c6[H])c(C(=O)N([H])[H])c5N([H])[H])C4([H])[H])c([H])c(C([H])([H])[H])c3C([H])(C([H])([H])[H])C([H])([H])[H])c([H])c([H])c2C1([H])[H]

>  <smiles>  (52) 
[H]c1c([H])c([H])c2c(c1[H])C([H])([H])C([H])([H])C([H])([H])C2([H])N([H])C(=O)C1([H])N(C(=O)C([H])(N([H])C(=O)C([H])(N([H])C([H])([H])[H])C([H])([H])[H])C(C([H])([H])[H])(C([H])([H])[H])C([H])([H])[H])C([H])([H])c2c([H])c(OC([H])([H])C([H])([H])C([H])([H])c3c([H])c(C([H])([H])N([H])C(=O)N4C([H])([H])C([H])([H])C([H])([H])C([H])(n5nc(-c6c([H])c([H])c(Oc7c([H])c([H])c(F)c([H])c7F)c([H])c6[H])c(C(=O)N([H])[H])c5N([H])[H])C4([H])[H])c([H])c(C([H])([H])[H])c3C([H])(C([H])([H])[H])C([H])([H])[H])c([H])c([H])c2C1([H])[H]

$$$$
52:0:0
     RDKit          3D

 95103  0  0  1  0  0  0  0  0999 V2000
  -30.4270  -20.8720   18.8070 C   0  0  0  0  0  3  0  0  0  0  0  0
  -30.3660  -22.1850   18.2800 C   0  0  0  0  0  3  0  0  0  0  0  0
  -30.0620  -20.5940   20.1390 C   0  0  0  0  0  0  0  0  0  0  0  0
  -29.6490  -21.8380   20.8640 C   0  0  0  0  0  0  0  0  0  0  0  0
  -29.5650  -23.1970   20.2370 C   0  0  0  0  0  0  0  0  0  0  0  0
  -29.9510  -23.2920   18.9460 N   0  0  0  0  0  0  0  0  0  0  0  0
  -30.0960  -19.0120   20.6700 C   0  0  0  0  0  2  0  0  0  0  0  0
  -30.7710  -17.6580   19.8960 C   0  0  0  0  0  2  0  0  0  0  0  0
  -31.0550  -14.9020   19.8870 C   0  0  0  0  0  0  0  0  0  0  0  0
  -30.7390  -12.5990   18.8690 C   0  0  0  0  0  2  0  0  0  0  0  0
  -29.7620  -12.6650   17.6730 C   0  0  0  0  0  2  0  0  0  0  0  0
  -28.3050  -12.5300   18.1540 C   0  0  0  0  0  2  0  0  0  0  0  0
  -28.0040  -13.4240   19.3870 C   0  0  0  0  0  3  0  0  0  0  0  0
  -29.1020  -13.3340   20.4690 C   0  0  0  0  0  2  0  0  0  0  0  0
  -30.3720  -13.6860   19.8240 N   0  0  0  0  0  0  0  0  0  0  0  0
  -32.2360  -14.9010   19.5260 O   0  0  0  0  0  0  0  0  0  0  0  0
  -30.3780  -16.1320   20.1420 N   0  0  0  0  0  0  0  0  0  0  0  0
  -29.4180  -15.9950   20.4220 H   0  0  0  0  0  0  0  0  0  0  0  0
  -25.6630  -14.1000   20.1670 C   0  0  0  0  0  0  0  0  0  0  0  0
  -24.5850  -13.3720   20.5880 C   0  0  0  0  0  0  0  0  0  0  0  0
  -25.0050  -12.0060   20.5890 C   0  0  0  0  0  0  0  0  0  0  0  0
  -26.6710  -13.1820   19.9280 N   0  0  0  0  0  0  0  0  0  0  0  0
  -26.2870  -11.9190   20.2470 N   0  0  0  0  0  0  0  0  0  0  0  0
  -24.2420  -10.7750   20.8350 C   0  0  0  0  0  0  0  0  0  0  0  0
  -24.6590   -9.8270   21.7950 C   0  0  0  0  0  3  0  0  0  0  0  0
  -23.8970   -8.6610   22.0270 C   0  0  0  0  0  3  0  0  0  0  0  0
  -22.7040   -8.4360   21.3010 C   0  0  0  0  0  0  0  0  0  0  0  0
  -22.3040   -9.3710   20.3310 C   0  0  0  0  0  3  0  0  0  0  0  0
  -23.0670  -10.5290   20.0970 C   0  0  0  0  0  3  0  0  0  0  0  0
  -21.9120   -7.3210   21.4440 O   0  0  0  0  0  0  0  0  0  0  0  0
  -21.8200   -6.6520   22.6370 C   0  0  0  0  0  0  0  0  0  0  0  0
  -21.4150   -7.2980   23.8250 C   0  0  0  0  0  3  0  0  0  0  0  0
  -21.2660   -6.5560   25.0150 C   0  0  0  0  0  3  0  0  0  0  0  0
  -21.5120   -5.1710   25.0160 C   0  0  0  0  0  0  0  0  0  0  0  0
  -21.9100   -4.5250   23.8330 C   0  0  0  0  0  3  0  0  0  0  0  0
  -22.0610   -5.2630   22.6460 C   0  0  0  0  0  0  0  0  0  0  0  0
  -22.4250   -4.6310   21.5050 F   0  0  0  0  0  0  0  0  0  0  0  0
  -21.3610   -4.4570   26.1560 F   0  0  0  0  0  0  0  0  0  0  0  0
  -23.2110  -13.9030   20.8770 C   0  0  0  0  0  0  0  0  0  0  0  0
  -22.4940  -13.2800   21.8050 N   0  0  0  0  0  0  0  0  0  0  0  0
  -22.7850  -14.9100   20.3120 O   0  0  0  0  0  0  0  0  0  0  0  0
  -22.8520  -12.4670   22.2830 H   0  0  0  0  0  0  0  0  0  0  0  0
  -21.5730  -13.6210   22.0400 H   0  0  0  0  0  0  0  0  0  0  0  0
  -25.8620  -15.4590   19.9410 N   0  0  0  0  0  0  0  0  0  0  0  0
  -25.1070  -16.1290   20.0340 H   0  0  0  0  0  0  0  0  0  0  0  0
  -26.6970  -15.8570   19.5320 H   0  0  0  0  0  0  0  0  0  0  0  0
  -29.2820  -21.7060   22.3470 C   0  0  0  0  0  2  0  0  0  0  0  0
  -31.7040  -21.2730   22.8280 C   0  0  0  0  0  1  0  0  0  0  0  0
  -30.4340  -21.9000   23.2830 N   0  0  2  0  0  4  0  0  0  0  0  0
  -30.6210  -22.8900   23.2690 H   0  0  0  0  0  0  0  0  0  0  0  0
  -30.8970  -22.5120   25.6720 C   0  0  0  0  0  1  0  0  0  0  0  0
  -30.2170  -20.1300   25.1000 C   0  0  0  0  0  1  0  0  0  0  0  0
  -30.0900  -21.6180   24.7110 C   0  0  0  0  0  3  0  0  0  0  0  0
  -28.9600  -24.6100   20.8870 C   0  0  0  0  0  2  0  0  0  0  0  0
  -29.1970  -26.0930   20.4270 O   0  0  0  0  0  0  0  0  0  0  0  0
  -25.0130  -31.5240   23.2360 C   0  0  0  0  0  0  0  0  0  0  0  0
  -28.0960  -27.0310   20.3350 C   0  0  0  0  0  0  0  0  0  0  0  0
  -24.0250  -30.0880   21.4950 C   0  0  0  0  0  3  0  0  0  0  0  0
  -25.6710  -28.6390   20.1540 C   0  0  0  0  0  0  0  0  0  0  0  0
  -26.5620  -30.5160   21.5180 C   0  0  0  0  0  2  0  0  0  0  0  0
  -26.7740  -29.1430   20.8550 C   0  0  0  0  0  0  0  0  0  0  0  0
  -27.9900  -28.3570   20.9250 C   0  0  0  0  0  3  0  0  0  0  0  0
  -26.9670  -26.6410   19.5810 C   0  0  0  0  0  3  0  0  0  0  0  0
  -25.7820  -27.4040   19.4990 C   0  0  0  0  0  3  0  0  0  0  0  0
  -24.3870  -29.4560   20.1250 C   0  0  0  0  0  2  0  0  0  0  0  0
  -25.2150  -30.7310   22.1400 N   0  0  0  0  0  0  0  0  0  0  0  0
  -23.8760  -31.7260   23.6910 O   0  0  0  0  0  0  0  0  0  0  0  0
  -23.3490  -29.0180   22.3900 C   0  0  0  0  0  0  0  0  0  0  0  0
  -22.0480  -28.7590   22.1650 N   0  0  0  0  0  0  0  0  0  0  0  0
  -24.0010  -28.4250   23.2550 O   0  0  0  0  0  0  0  0  0  0  0  0
  -21.5760  -29.2940   21.4490 H   0  0  0  0  0  0  0  0  0  0  0  0
  -18.7340  -27.3140   22.3980 C   0  0  0  0  0  0  0  0  0  0  0  0
  -21.2400  -27.7550   22.8630 C   0  0  0  0  0  3  0  0  0  0  0  0
  -21.4880  -26.3420   22.2860 C   0  0  0  0  0  2  0  0  0  0  0  0
  -20.4910  -25.9560   21.1880 C   0  0  0  0  0  2  0  0  0  0  0  0
  -19.0580  -25.9910   21.7250 C   0  0  0  0  0  2  0  0  0  0  0  0
  -19.7590  -28.1500   22.9190 C   0  0  0  0  0  0  0  0  0  0  0  0
  -19.4020  -29.3820   23.5050 C   0  0  0  0  0  3  0  0  0  0  0  0
  -18.0540  -29.7830   23.5780 C   0  0  0  0  0  3  0  0  0  0  0  0
  -17.0440  -28.9470   23.0710 C   0  0  0  0  0  3  0  0  0  0  0  0
  -17.3840  -27.7140   22.4880 C   0  0  0  0  0  3  0  0  0  0  0  0
  -26.1990  -32.2290   23.9610 C   0  0  0  0  0  3  0  0  0  0  0  0
  -25.7870  -33.6120   24.2530 N   0  0  0  0  0  0  0  0  0  0  0  0
  -26.1090  -34.6790   23.5080 C   0  0  0  0  0  0  0  0  0  0  0  0
  -26.8470  -34.6060   22.5230 O   0  0  0  0  0  0  0  0  0  0  0  0
  -25.1340  -33.7370   25.0130 H   0  0  0  0  0  0  0  0  0  0  0  0
  -24.2980  -36.3660   23.0450 C   0  0  0  0  0  1  0  0  0  0  0  0
  -25.5190  -36.0420   23.9220 C   0  0  0  0  0  3  0  0  0  0  0  0
  -27.5510  -37.0640   24.8480 C   0  0  0  0  0  1  0  0  0  0  0  0
  -26.4920  -37.1540   23.8460 N   0  0  0  0  0  0  0  0  0  0  0  0
  -26.0250  -38.0500   23.9560 H   0  0  0  0  0  0  0  0  0  0  0  0
  -26.6380  -31.4960   25.2890 C   0  0  1  0  0  0  0  0  0  0  0  0
  -25.4690  -31.2210   26.2640 C   0  0  0  0  0  1  0  0  0  0  0  0
  -27.3150  -30.1420   24.9730 C   0  0  0  0  0  1  0  0  0  0  0  0
  -27.6900  -32.3510   26.0340 C   0  0  0  0  0  1  0  0  0  0  0  0
  1  3  1  0
  2  1  2  0
  2  6  1  0
  3  7  1  0
  3  4  2  0
  4 47  1  0
  5  4  1  0
  5 54  1  0
  6  5  2  0
  8 17  1  0
  8  7  1  0
  9 17  1  0
 10 15  1  0
 11 12  1  0
 11 10  1  0
 13 12  1  0
 13 22  1  0
 13 14  1  0
 15  9  1  0
 15 14  1  0
 16  9  2  0
 17 18  1  0
 19 20  2  0
 20 21  1  0
 20 39  1  0
 21 24  1  0
 22 19  1  0
 22 23  1  0
 23 21  2  0
 24 25  1  0
 25 26  2  0
 27 30  1  0
 27 26  1  0
 28 27  2  0
 29 28  1  0
 29 24  2  0
 30 31  1  0
 31 36  2  0
 31 32  1  0
 32 33  2  0
 33 34  1  0
 34 38  1  0
 35 34  2  0
 36 35  1  0
 37 36  1  0
 39 40  1  0
 40 43  1  0
 40 42  1  0
 41 39  2  0
 44 45  1  0
 44 19  1  0
 46 44  1  0
 47 49  1  0
 48 49  1  0
 49 53  1  0
 49 50  1  1
 53 52  1  0
 53 51  1  0
 55 54  1  0
 56 67  2  0
 57 55  1  0
 57 62  1  0
 58 66  1  0
 58 68  1  0
 59 61  1  0
 60 66  1  0
 61 62  2  0
 61 60  1  0
 63 57  2  0
 64 63  1  0
 64 59  2  0
 65 59  1  0
 65 58  1  0
 66 56  1  0
 68 70  2  0
 69 68  1  0
 71 69  1  0
 72 81  2  0
 72 77  1  0
 73 69  1  0
 73 77  1  0
 74 73  1  0
 75 76  1  0
 75 74  1  0
 76 72  1  0
 77 78  2  0
 78 79  1  0
 80 79  2  0
 81 80  1  0
 82 56  1  0
 82 83  1  0
 82 92  1  0
 83 86  1  0
 84 88  1  0
 84 83  1  0
 85 84  2  0
 88 87  1  0
 90 88  1  0
 90 91  1  0
 90 89  1  0
 92 95  1  1
 92 93  1  0
 94 92  1  0
M  ISO  4   9 100  17 100  54 101  55 101
M  END
>  <TORSDO>  (53) 
F 22

>  <SCORE>  (53) 
-10.840

>  <name>  (53) 
52

>  <ligand_id>  (53) 
52

>  <original_smiles>  (53) 
[H]c1nc(C([H])([H])Oc2c([H])c([H])c3c(c2[H])C([H])([H])N(C(=O)C([H])(N([H])C(=O)C([H])(N([H])C([H])([H])[H])C([H])([H])[H])C(C([H])([H])[H])(C([H])([H])[H])C([H])([H])[H])C([H])(C(=O)N([H])C2([H])c4c([H])c([H])c([H])c([H])c4C([H])([H])C([H])([H])C2([H])[H])C3([H])[H])c(C([H])([H])[N+]([H])(C([H])([H])[H])C([H])(C([H])([H])[H])C([H])([H])[H])c(C([H])([H])C([H])([H])N([H])C(=O)N2C([H])([H])C([H])([H])C([H])([H])C([H])(n3nc(-c4c([H])c([H])c(Oc5c([H])c([H])c(F)c([H])c5F)c([H])c4[H])c(C(=O)N([H])[H])c3N([H])[H])C2([H])[H])c1[H]

>  <smiles>  (53) 
[H]c1nc(C([H])([H])Oc2c([H])c([H])c3c(c2[H])C([H])([H])N(C(=O)C([H])(N([H])C(=O)C([H])(N([H])C([H])([H])[H])C([H])([H])[H])C(C([H])([H])[H])(C([H])([H])[H])C([H])([H])[H])C([H])(C(=O)N([H])C2([H])c4c([H])c([H])c([H])c([H])c4C([H])([H])C([H])([H])C2([H])[H])C3([H])[H])c(C([H])([H])[N+]([H])(C([H])([H])[H])C([H])(C([H])([H])[H])C([H])([H])[H])c(C([H])([H])C([H])([H])N([H])C(=O)N2C([H])([H])C([H])([H])C([H])([H])C([H])(n3nc(-c4c([H])c([H])c(Oc5c([H])c([H])c(F)c([H])c5F)c([H])c4[H])c(C(=O)N([H])[H])c3N([H])[H])C2([H])[H])c1[H]

$$$$
53:0:0
     RDKit          3D

 88 96  0  0  1  0  0  0  0  0999 V2000
  -29.1760  -21.4430   21.3680 C   0  0  0  0  0  2  0  0  0  0  0  0
  -28.9940  -21.4430   19.0870 C   0  0  0  0  0  2  0  0  0  0  0  0
  -28.4220  -22.9820   21.4360 C   0  0  0  0  0  2  0  0  0  0  0  0
  -28.2270  -22.9770   19.1120 C   0  0  0  0  0  2  0  0  0  0  0  0
  -28.9620  -20.2310   20.2400 C   0  0  0  0  0  3  0  0  0  0  0  0
  -28.4680  -24.1430   20.2570 C   0  0  0  0  0  3  0  0  0  0  0  0
  -31.0940  -18.8470   21.1430 C   0  0  0  0  0  1  0  0  0  0  0  0
  -30.5580  -18.6870   18.7300 C   0  0  0  0  0  1  0  0  0  0  0  0
  -29.9500  -18.6170   20.1430 C   0  0  2  0  0  0  0  0  0  0  0  0
  -30.3510  -15.5700   20.1930 C   0  0  0  0  0  0  0  0  0  0  0  0
  -30.3910  -13.0910   19.2820 C   0  0  0  0  0  2  0  0  0  0  0  0
  -29.4540  -12.7770   18.0850 C   0  0  0  0  0  2  0  0  0  0  0  0
  -28.0340  -12.4340   18.5640 C   0  0  0  0  0  2  0  0  0  0  0  0
  -27.5720  -13.3910   19.6880 C   0  0  0  0  0  3  0  0  0  0  0  0
  -28.6470  -13.5870   20.7810 C   0  0  0  0  0  2  0  0  0  0  0  0
  -29.8060  -14.2270   20.1130 N   0  0  0  0  0  0  0  0  0  0  0  0
  -31.5740  -15.5180   19.9690 O   0  0  0  0  0  0  0  0  0  0  0  0
  -28.1910  -16.8480   20.6000 C   0  0  0  0  0  1  0  0  0  0  0  0
  -29.6120  -16.9250   20.3010 N   0  0  0  0  0  0  0  0  0  0  0  0
  -25.2110  -13.9080   20.4960 C   0  0  0  0  0  0  0  0  0  0  0  0
  -24.1670  -13.1150   20.8740 C   0  0  0  0  0  0  0  0  0  0  0  0
  -24.6520  -11.7730   20.8190 C   0  0  0  0  0  0  0  0  0  0  0  0
  -26.2620  -13.0500   20.2240 N   0  0  0  0  0  0  0  0  0  0  0  0
  -25.9380  -11.7580   20.4860 N   0  0  0  0  0  0  0  0  0  0  0  0
  -23.9430  -10.5020   21.0040 C   0  0  0  0  0  0  0  0  0  0  0  0
  -24.3790   -9.5410   21.9420 C   0  0  0  0  0  3  0  0  0  0  0  0
  -23.6640   -8.3360   22.1180 C   0  0  0  0  0  3  0  0  0  0  0  0
  -22.5000   -8.0850   21.3550 C   0  0  0  0  0  0  0  0  0  0  0  0
  -22.0820   -9.0350   20.4070 C   0  0  0  0  0  3  0  0  0  0  0  0
  -22.7970  -10.2300   20.2290 C   0  0  0  0  0  3  0  0  0  0  0  0
  -21.7560   -6.9330   21.4410 O   0  0  0  0  0  0  0  0  0  0  0  0
  -21.6800   -6.2110   22.6050 C   0  0  0  0  0  0  0  0  0  0  0  0
  -21.1830   -6.7750   23.8000 C   0  0  0  0  0  3  0  0  0  0  0  0
  -21.0560   -5.9780   24.9560 C   0  0  0  0  0  3  0  0  0  0  0  0
  -21.4150   -4.6180   24.9160 C   0  0  0  0  0  0  0  0  0  0  0  0
  -21.9050   -4.0530   23.7250 C   0  0  0  0  0  3  0  0  0  0  0  0
  -22.0340   -4.8470   22.5720 C   0  0  0  0  0  0  0  0  0  0  0  0
  -22.4860   -4.2930   21.4220 F   0  0  0  0  0  0  0  0  0  0  0  0
  -21.2870   -3.8490   26.0230 F   0  0  0  0  0  0  0  0  0  0  0  0
  -22.7700  -13.5750   21.1700 C   0  0  0  0  0  0  0  0  0  0  0  0
  -22.0650  -12.8680   22.0440 N   0  0  0  0  0  0  0  0  0  0  0  0
  -22.3150  -14.5990   20.6620 O   0  0  0  0  0  0  0  0  0  0  0  0
  -22.4480  -12.0400   22.4770 H   0  0  0  0  0  0  0  0  0  0  0  0
  -21.1280  -13.1580   22.2870 H   0  0  0  0  0  0  0  0  0  0  0  0
  -25.3370  -15.2820   20.3290 N   0  0  0  0  0  0  0  0  0  0  0  0
  -24.5560  -15.9140   20.4660 H   0  0  0  0  0  0  0  0  0  0  0  0
  -26.1720  -15.7480   20.0080 H   0  0  0  0  0  0  0  0  0  0  0  0
  -28.2430  -25.8440   20.3250 O   0  0  0  0  0  0  0  0  0  0  0  0
  -24.6430  -31.9070   23.2470 C   0  0  0  0  0  0  0  0  0  0  0  0
  -27.1770  -26.9210   20.2740 C   0  0  0  0  0  0  0  0  0  0  0  0
  -23.4450  -30.5040   21.6180 C   0  0  0  0  0  3  0  0  0  0  0  0
  -24.8850  -28.8610   20.2100 C   0  0  0  0  0  0  0  0  0  0  0  0
  -26.0150  -30.6810   21.4740 C   0  0  0  0  0  2  0  0  0  0  0  0
  -26.0770  -29.2550   20.8290 C   0  0  0  0  0  0  0  0  0  0  0  0
  -27.2100  -28.3100   20.8260 C   0  0  0  0  0  3  0  0  0  0  0  0
  -25.9500  -26.6920   19.6090 C   0  0  0  0  0  3  0  0  0  0  0  0
  -24.8520  -27.6030   19.5790 C   0  0  0  0  0  3  0  0  0  0  0  0
  -23.6740  -29.8000   20.2490 C   0  0  0  0  0  2  0  0  0  0  0  0
  -24.7240  -31.0610   22.1660 N   0  0  0  0  0  0  0  0  0  0  0  0
  -23.5540  -32.2070   23.7650 O   0  0  0  0  0  0  0  0  0  0  0  0
  -22.7400  -29.5260   22.5950 C   0  0  0  0  0  0  0  0  0  0  0  0
  -21.4100  -29.3580   22.4620 N   0  0  0  0  0  0  0  0  0  0  0  0
  -23.3970  -28.9170   23.4410 O   0  0  0  0  0  0  0  0  0  0  0  0
  -20.9310  -29.9020   21.7570 H   0  0  0  0  0  0  0  0  0  0  0  0
  -18.0280  -28.1370   22.9610 C   0  0  0  0  0  0  0  0  0  0  0  0
  -20.5850  -28.4260   23.2370 C   0  0  0  0  0  3  0  0  0  0  0  0
  -20.7000  -26.9870   22.6820 C   0  0  0  0  0  2  0  0  0  0  0  0
  -19.6080  -26.6450   21.6620 C   0  0  0  0  0  2  0  0  0  0  0  0
  -18.2200  -26.7840   22.2950 C   0  0  0  0  0  2  0  0  0  0  0  0
  -19.1380  -28.9140   23.3870 C   0  0  0  0  0  0  0  0  0  0  0  0
  -18.9030  -30.1760   23.9730 C   0  0  0  0  0  3  0  0  0  0  0  0
  -17.5920  -30.6640   24.1340 C   0  0  0  0  0  3  0  0  0  0  0  0
  -16.4970  -29.8850   23.7200 C   0  0  0  0  0  3  0  0  0  0  0  0
  -16.7160  -28.6230   23.1390 C   0  0  0  0  0  3  0  0  0  0  0  0
  -25.9140  -32.5530   23.8800 C   0  0  0  0  0  3  0  0  0  0  0  0
  -25.5960  -33.9540   24.2150 N   0  0  0  0  0  0  0  0  0  0  0  0
  -25.9010  -35.0150   23.4560 C   0  0  0  0  0  0  0  0  0  0  0  0
  -26.5380  -34.9190   22.4060 O   0  0  0  0  0  0  0  0  0  0  0  0
  -25.0260  -34.1000   25.0350 H   0  0  0  0  0  0  0  0  0  0  0  0
  -24.1420  -36.8000   23.1920 C   0  0  0  0  0  1  0  0  0  0  0  0
  -25.4260  -36.4030   23.9380 C   0  0  0  0  0  3  0  0  0  0  0  0
  -27.5880  -37.3180   24.6630 C   0  0  0  0  0  1  0  0  0  0  0  0
  -26.4420  -37.4660   23.7700 N   0  0  0  0  0  0  0  0  0  0  0  0
  -26.0330  -38.3830   23.9300 H   0  0  0  0  0  0  0  0  0  0  0  0
  -26.4170  -31.7930   25.1700 C   0  0  1  0  0  0  0  0  0  0  0  0
  -25.3150  -31.5690   26.2320 C   0  0  0  0  0  1  0  0  0  0  0  0
  -27.0010  -30.4100   24.8040 C   0  0  0  0  0  1  0  0  0  0  0  0
  -27.5640  -32.5910   25.8350 C   0  0  0  0  0  1  0  0  0  0  0  0
  1  3  1  0
  2  4  1  0
  2  5  1  0
  4  6  1  0
  5  9  1  0
  5  1  1  0
  6 48  1  0
  6  3  1  0
  9  8  1  6
  9 19  1  0
  9  7  1  0
 10 19  1  0
 11 16  1  0
 12 13  1  0
 12 11  1  0
 14 13  1  0
 14 23  1  0
 14 15  1  0
 16 10  1  0
 16 15  1  0
 17 10  2  0
 19 18  1  0
 20 21  2  0
 21 40  1  0
 22 21  1  0
 22 25  1  0
 23 24  1  0
 23 20  1  0
 24 22  2  0
 25 26  1  0
 26 27  2  0
 28 31  1  0
 28 27  1  0
 29 28  2  0
 30 29  1  0
 30 25  2  0
 31 32  1  0
 32 33  1  0
 33 34  2  0
 35 34  1  0
 35 39  1  0
 36 35  2  0
 37 32  2  0
 37 36  1  0
 38 37  1  0
 40 41  1  0
 41 44  1  0
 41 43  1  0
 42 40  2  0
 45 46  1  0
 45 20  1  0
 47 45  1  0
 49 60  2  0
 50 48  1  0
 50 55  1  0
 51 59  1  0
 51 61  1  0
 52 58  1  0
 52 54  1  0
 53 59  1  0
 54 53  1  0
 55 54  2  0
 56 50  2  0
 57 56  1  0
 57 52  2  0
 58 51  1  0
 59 49  1  0
 61 63  2  0
 62 61  1  0
 64 62  1  0
 65 74  2  0
 65 70  1  0
 66 62  1  0
 66 70  1  0
 67 66  1  0
 68 69  1  0
 68 67  1  0
 69 65  1  0
 70 71  2  0
 71 72  1  0
 73 72  2  0
 74 73  1  0
 75 49  1  0
 75 76  1  0
 75 85  1  0
 76 79  1  0
 77 81  1  0
 77 76  1  0
 78 77  2  0
 81 80  1  0
 83 84  1  0
 83 81  1  0
 83 82  1  0
 85 88  1  1
 85 86  1  0
 87 85  1  0
M  ISO  4   6 101  10 100  19 100  48 101
M  END
>  <TORSDO>  (54) 
F 17

>  <SCORE>  (54) 
-16.899

>  <name>  (54) 
53

>  <ligand_id>  (54) 
53

>  <original_smiles>  (54) 
[H]c1c([H])c([H])c2c(c1[H])C([H])([H])C([H])([H])C([H])([H])C2([H])N([H])C(=O)C1([H])N(C(=O)C([H])(N([H])C(=O)C([H])(N([H])C([H])([H])[H])C([H])([H])[H])C(C([H])([H])[H])(C([H])([H])[H])C([H])([H])[H])C([H])([H])c2c([H])c(OC3([H])C([H])([H])C([H])([H])C([H])(C(N(C(=O)N4C([H])([H])C([H])([H])C([H])([H])C([H])(n5nc(-c6c([H])c([H])c(Oc7c([H])c([H])c(F)c([H])c7F)c([H])c6[H])c(C(=O)N([H])[H])c5N([H])[H])C4([H])[H])C([H])([H])[H])(C([H])([H])[H])C([H])([H])[H])C([H])([H])C3([H])[H])c([H])c([H])c2C1([H])[H]

>  <smiles>  (54) 
[H]c1c([H])c([H])c2c(c1[H])C([H])([H])C([H])([H])C([H])([H])C2([H])N([H])C(=O)C1([H])N(C(=O)C([H])(N([H])C(=O)C([H])(N([H])C([H])([H])[H])C([H])([H])[H])C(C([H])([H])[H])(C([H])([H])[H])C([H])([H])[H])C([H])([H])c2c([H])c(OC3([H])C([H])([H])C([H])([H])C([H])(C(N(C(=O)N4C([H])([H])C([H])([H])C([H])([H])C([H])(n5nc(-c6c([H])c([H])c(Oc7c([H])c([H])c(F)c([H])c7F)c([H])c6[H])c(C(=O)N([H])[H])c5N([H])[H])C4([H])[H])C([H])([H])[H])(C([H])([H])[H])C([H])([H])[H])C([H])([H])C3([H])[H])c([H])c([H])c2C1([H])[H]

$$$$
54:0:0
     RDKit          3D

 91 99  0  0  1  0  0  0  0  0999 V2000
  -29.7760  -19.3530   21.7590 C   0  0  0  0  0  3  0  0  0  0  0  0
  -29.7580  -20.1280   19.7510 C   0  0  0  0  0  3  0  0  0  0  0  0
  -29.9270  -18.8270   20.4240 C   0  0  0  0  0  0  0  0  0  0  0  0
  -29.5430  -20.7500   21.8130 C   0  0  0  0  0  0  0  0  0  0  0  0
  -29.3510  -21.5730   23.0460 C   0  0  0  0  0  1  0  0  0  0  0  0
  -29.5060  -21.3900   20.5500 N   0  0  0  0  0  0  0  0  0  0  0  0
  -30.7230  -15.9160   20.2850 C   0  0  0  0  0  0  0  0  0  0  0  0
  -30.7440  -13.4340   19.4170 C   0  0  0  0  0  2  0  0  0  0  0  0
  -29.8540  -13.1410   18.1820 C   0  0  0  0  0  2  0  0  0  0  0  0
  -28.4050  -12.8440   18.6050 C   0  0  0  0  0  2  0  0  0  0  0  0
  -27.9060  -13.8170   19.7020 C   0  0  0  0  0  3  0  0  0  0  0  0
  -28.9370  -14.0490   20.8280 C   0  0  0  0  0  2  0  0  0  0  0  0
  -30.1520  -14.5950   20.1850 N   0  0  0  0  0  0  0  0  0  0  0  0
  -31.9640  -15.8440   20.3070 O   0  0  0  0  0  0  0  0  0  0  0  0
  -30.0150  -17.2330   19.9540 N   0  0  0  0  0  0  0  0  0  0  0  0
  -25.5420  -14.4010   20.4230 C   0  0  0  0  0  0  0  0  0  0  0  0
  -24.4570  -13.6340   20.7410 C   0  0  0  0  0  0  0  0  0  0  0  0
  -24.9050  -12.2780   20.6960 C   0  0  0  0  0  0  0  0  0  0  0  0
  -26.5740  -13.5110   20.1910 N   0  0  0  0  0  0  0  0  0  0  0  0
  -26.2050  -12.2260   20.4230 N   0  0  0  0  0  0  0  0  0  0  0  0
  -24.1560  -11.0240   20.8360 C   0  0  0  0  0  0  0  0  0  0  0  0
  -24.5010  -10.0640   21.8120 C   0  0  0  0  0  3  0  0  0  0  0  0
  -23.7520   -8.8750   21.9410 C   0  0  0  0  0  3  0  0  0  0  0  0
  -22.6450   -8.6380   21.0930 C   0  0  0  0  0  0  0  0  0  0  0  0
  -22.3190   -9.5870   20.1070 C   0  0  0  0  0  3  0  0  0  0  0  0
  -23.0700  -10.7670   19.9760 C   0  0  0  0  0  3  0  0  0  0  0  0
  -21.8730   -7.5030   21.1310 O   0  0  0  0  0  0  0  0  0  0  0  0
  -21.6380   -6.8320   22.3060 C   0  0  0  0  0  0  0  0  0  0  0  0
  -21.0690   -7.4710   23.4270 C   0  0  0  0  0  3  0  0  0  0  0  0
  -20.7820   -6.7280   24.5900 C   0  0  0  0  0  3  0  0  0  0  0  0
  -21.0530   -5.3480   24.6290 C   0  0  0  0  0  0  0  0  0  0  0  0
  -21.6140   -4.7090   23.5100 C   0  0  0  0  0  3  0  0  0  0  0  0
  -21.9030   -5.4480   22.3500 C   0  0  0  0  0  0  0  0  0  0  0  0
  -22.4250   -4.8240   21.2670 F   0  0  0  0  0  0  0  0  0  0  0  0
  -20.7690   -4.6320   25.7420 F   0  0  0  0  0  0  0  0  0  0  0  0
  -23.0600  -14.1290   20.9740 C   0  0  0  0  0  0  0  0  0  0  0  0
  -22.3000  -13.4430   21.8210 N   0  0  0  0  0  0  0  0  0  0  0  0
  -22.6510  -15.1610   20.4440 O   0  0  0  0  0  0  0  0  0  0  0  0
  -22.6440  -12.6110   22.2780 H   0  0  0  0  0  0  0  0  0  0  0  0
  -21.3620  -13.7580   22.0200 H   0  0  0  0  0  0  0  0  0  0  0  0
  -25.7330  -15.7730   20.2800 N   0  0  0  0  0  0  0  0  0  0  0  0
  -24.9860  -16.4460   20.4110 H   0  0  0  0  0  0  0  0  0  0  0  0
  -26.6140  -16.2040   20.0320 H   0  0  0  0  0  0  0  0  0  0  0  0
  -29.2480  -17.0690   18.6940 C   0  0  0  0  0  2  0  0  0  0  0  0
  -30.8530  -18.3230   17.1110 C   0  0  0  0  0  1  0  0  0  0  0  0
  -29.4030  -18.1600   17.6000 C   0  0  0  0  0  3  0  0  0  0  0  0
  -28.3000  -18.9980   15.4080 C   0  0  0  0  0  1  0  0  0  0  0  0
  -28.4240  -17.8700   16.4420 C   0  0  0  0  0  2  0  0  0  0  0  0
  -29.4500  -23.0730   20.1720 C   0  0  0  0  0  3  0  0  0  0  0  0
  -28.4220  -24.5550   20.5480 C   0  0  0  0  0  3  0  0  0  0  0  0
  -28.4860  -26.2100   20.2210 O   0  0  0  0  0  0  0  0  0  0  0  0
  -24.5680  -32.0530   23.1820 C   0  0  0  0  0  0  0  0  0  0  0  0
  -27.4010  -27.2600   20.2050 C   0  0  0  0  0  0  0  0  0  0  0  0
  -23.4570  -30.5780   21.5550 C   0  0  0  0  0  3  0  0  0  0  0  0
  -24.9970  -29.0370   20.1490 C   0  0  0  0  0  0  0  0  0  0  0  0
  -26.0110  -30.9210   21.4070 C   0  0  0  0  0  2  0  0  0  0  0  0
  -26.1630  -29.5070   20.7650 C   0  0  0  0  0  0  0  0  0  0  0  0
  -27.3580  -28.6420   20.7610 C   0  0  0  0  0  3  0  0  0  0  0  0
  -26.1890  -26.9520   19.5410 C   0  0  0  0  0  3  0  0  0  0  0  0
  -25.0360  -27.7850   19.5160 C   0  0  0  0  0  3  0  0  0  0  0  0
  -23.7300  -29.8950   20.1850 C   0  0  0  0  0  2  0  0  0  0  0  0
  -24.7000  -31.2160   22.1010 N   0  0  0  0  0  0  0  0  0  0  0  0
  -23.4640  -32.2820   23.7030 O   0  0  0  0  0  0  0  0  0  0  0  0
  -22.8190  -29.5540   22.5300 C   0  0  0  0  0  0  0  0  0  0  0  0
  -21.5240  -29.2350   22.3450 N   0  0  0  0  0  0  0  0  0  0  0  0
  -23.5000  -29.0440   23.4230 O   0  0  0  0  0  0  0  0  0  0  0  0
  -21.0210  -29.6990   21.6010 H   0  0  0  0  0  0  0  0  0  0  0  0
  -18.2840  -27.6460   22.7200 C   0  0  0  0  0  0  0  0  0  0  0  0
  -20.7690  -28.2440   23.1190 C   0  0  0  0  0  3  0  0  0  0  0  0
  -21.0820  -26.8080   22.6330 C   0  0  0  0  0  2  0  0  0  0  0  0
  -20.0970  -26.3030   21.5750 C   0  0  0  0  0  2  0  0  0  0  0  0
  -18.6680  -26.3010   22.1270 C   0  0  0  0  0  2  0  0  0  0  0  0
  -19.2700  -28.5640   23.1700 C   0  0  0  0  0  0  0  0  0  0  0  0
  -18.8560  -29.8120   23.6850 C   0  0  0  0  0  3  0  0  0  0  0  0
  -17.4900  -30.1470   23.7530 C   0  0  0  0  0  3  0  0  0  0  0  0
  -16.5180  -29.2290   23.3180 C   0  0  0  0  0  3  0  0  0  0  0  0
  -16.9150  -27.9800   22.8070 C   0  0  0  0  0  3  0  0  0  0  0  0
  -25.7980  -32.7780   23.8080 C   0  0  0  0  0  3  0  0  0  0  0  0
  -25.4000  -34.1640   24.1200 N   0  0  0  0  0  0  0  0  0  0  0  0
  -25.6540  -35.2290   23.3470 C   0  0  0  0  0  0  0  0  0  0  0  0
  -26.3080  -35.1520   22.3050 O   0  0  0  0  0  0  0  0  0  0  0  0
  -24.8160  -34.2930   24.9340 H   0  0  0  0  0  0  0  0  0  0  0  0
  -23.8110  -36.9140   23.0250 C   0  0  0  0  0  1  0  0  0  0  0  0
  -25.0980  -36.5950   23.8020 C   0  0  0  0  0  3  0  0  0  0  0  0
  -27.2030  -37.6210   24.5460 C   0  0  0  0  0  1  0  0  0  0  0  0
  -26.0610  -37.7080   23.6400 N   0  0  0  0  0  0  0  0  0  0  0  0
  -25.6040  -38.6050   23.7920 H   0  0  0  0  0  0  0  0  0  0  0  0
  -26.3370  -32.0650   25.1090 C   0  0  1  0  0  0  0  0  0  0  0  0
  -25.2340  -31.7320   26.1410 C   0  0  0  0  0  1  0  0  0  0  0  0
  -27.0580  -30.7440   24.7600 C   0  0  0  0  0  1  0  0  0  0  0  0
  -27.3890  -32.9640   25.8010 C   0  0  0  0  0  1  0  0  0  0  0  0
  1  4  2  0
  2  3  2  0
  2  6  1  0
  3  1  1  0
  4  5  1  0
  6  4  1  0
  7 14  2  0
  8 13  1  0
  9 10  1  0
  9  8  1  0
 11 10  1  0
 11 19  1  0
 11 12  1  0
 13  7  1  0
 13 12  1  0
 15  7  1  0
 15  3  1  0
 16 17  2  0
 17 36  1  0
 18 17  1  0
 18 21  1  0
 19 16  1  0
 19 20  1  0
 20 18  2  0
 21 22  1  0
 22 23  2  0
 24 27  1  0
 24 23  1  0
 25 24  2  0
 26 25  1  0
 26 21  2  0
 27 28  1  0
 28 33  2  0
 28 29  1  0
 29 30  2  0
 30 31  1  0
 31 35  1  0
 32 31  2  0
 33 32  1  0
 34 33  1  0
 36 37  1  0
 37 40  1  0
 37 39  1  0
 38 36  2  0
 41 42  1  0
 41 16  1  0
 43 41  1  0
 44 15  1  0
 46 45  1  0
 46 44  1  0
 47 48  1  0
 48 46  1  0
 49 50  2  0
 49  6  1  0
 51 50  1  0
 52 63  2  0
 53 51  1  0
 53 58  1  0
 54 62  1  0
 54 64  1  0
 55 61  1  0
 55 57  1  0
 56 62  1  0
 57 56  1  0
 58 57  2  0
 59 53  2  0
 60 59  1  0
 60 55  2  0
 61 54  1  0
 62 52  1  0
 64 66  2  0
 65 64  1  0
 67 65  1  0
 68 77  2  0
 68 73  1  0
 69 65  1  0
 69 73  1  0
 70 69  1  0
 71 72  1  0
 71 70  1  0
 72 68  1  0
 73 74  2  0
 74 75  1  0
 76 75  2  0
 77 76  1  0
 78 52  1  0
 78 79  1  0
 78 88  1  0
 79 82  1  0
 80 84  1  0
 80 79  1  0
 81 80  2  0
 84 83  1  0
 86 87  1  0
 86 84  1  0
 86 85  1  0
 88 91  1  1
 88 89  1  0
 90 88  1  0
M  ISO  4   7 100  15 100  50 101  51 101
M  END
>  <TORSDO>  (55) 
F 21

>  <SCORE>  (55) 
-11.928

>  <name>  (55) 
54

>  <ligand_id>  (55) 
54

>  <original_smiles>  (55) 
[H]c1c([H])c([H])c2c(c1[H])C([H])([H])C([H])([H])C([H])([H])C2([H])N([H])C(=O)C1([H])N(C(=O)C([H])(N([H])C(=O)C([H])(N([H])C([H])([H])[H])C([H])([H])[H])C(C([H])([H])[H])(C([H])([H])[H])C([H])([H])[H])C([H])([H])c2c([H])c(OC([H])([H])C([H])([H])n3c([H])c(N(C(=O)N4C([H])([H])C([H])([H])C([H])([H])C([H])(n5nc(-c6c([H])c([H])c(Oc7c([H])c([H])c(F)c([H])c7F)c([H])c6[H])c(C(=O)N([H])[H])c5N([H])[H])C4([H])[H])C([H])([H])C([H])(C([H])([H])[H])C([H])([H])C([H])([H])[H])c([H])c3C([H])([H])[H])c([H])c([H])c2C1([H])[H]

>  <smiles>  (55) 
[H]c1c([H])c([H])c2c(c1[H])C([H])([H])C([H])([H])C([H])([H])C2([H])N([H])C(=O)C1([H])N(C(=O)C([H])(N([H])C(=O)C([H])(N([H])C([H])([H])[H])C([H])([H])[H])C(C([H])([H])[H])(C([H])([H])[H])C([H])([H])[H])C([H])([H])c2c([H])c(OC([H])([H])C([H])([H])n3c([H])c(N(C(=O)N4C([H])([H])C([H])([H])C([H])([H])C([H])(n5nc(-c6c([H])c([H])c(Oc7c([H])c([H])c(F)c([H])c7F)c([H])c6[H])c(C(=O)N([H])[H])c5N([H])[H])C4([H])[H])C([H])([H])C([H])(C([H])([H])[H])C([H])([H])C([H])([H])[H])c([H])c3C([H])([H])[H])c([H])c([H])c2C1([H])[H]

$$$$
55:0:0
     RDKit          3D

 90 98  0  0  1  0  0  0  0  0999 V2000
  -28.3010  -22.2710   20.6300 C   0  0  0  0  0  2  0  0  0  0  0  0
  -30.4650  -19.3260   21.4230 C   0  0  0  0  0  3  0  0  0  0  0  0
  -28.9910  -19.8130   19.8590 C   0  0  0  0  0  3  0  0  0  0  0  0
  -29.7930  -18.7540   20.3010 C   0  0  0  0  0  0  0  0  0  0  0  0
  -30.0770  -20.6380   21.6110 C   0  0  0  0  0  0  0  0  0  0  0  0
  -30.4930  -21.6010   22.6780 C   0  0  0  0  0  1  0  0  0  0  0  0
  -29.1370  -20.9880   20.6450 N   0  0  0  0  0  0  0  0  0  0  0  0
  -30.0360  -17.3200   19.6520 C   0  0  0  0  0  2  0  0  0  0  0  0
  -30.6190  -14.8350   20.1240 C   0  0  0  0  0  0  0  0  0  0  0  0
  -30.3710  -12.5590   19.1410 C   0  0  0  0  0  2  0  0  0  0  0  0
  -29.3980  -12.6490   17.9420 C   0  0  0  0  0  2  0  0  0  0  0  0
  -27.9400  -12.4890   18.4120 C   0  0  0  0  0  2  0  0  0  0  0  0
  -27.6110  -13.3700   19.6480 C   0  0  0  0  0  3  0  0  0  0  0  0
  -28.7040  -13.2730   20.7370 C   0  0  0  0  0  2  0  0  0  0  0  0
  -29.9860  -13.6130   20.1100 N   0  0  0  0  0  0  0  0  0  0  0  0
  -31.7770  -14.9280   19.7070 O   0  0  0  0  0  0  0  0  0  0  0  0
  -29.8670  -15.9760   20.3550 N   0  0  0  0  0  0  0  0  0  0  0  0
  -28.9520  -15.8100   20.7450 H   0  0  0  0  0  0  0  0  0  0  0  0
  -25.2550  -13.9640   20.4700 C   0  0  0  0  0  0  0  0  0  0  0  0
  -24.1960  -13.1910   20.8620 C   0  0  0  0  0  0  0  0  0  0  0  0
  -24.6460  -11.8370   20.7870 C   0  0  0  0  0  0  0  0  0  0  0  0
  -26.2820  -13.0820   20.1780 N   0  0  0  0  0  0  0  0  0  0  0  0
  -25.9240  -11.7960   20.4310 N   0  0  0  0  0  0  0  0  0  0  0  0
  -23.9150  -10.5770   20.9760 C   0  0  0  0  0  0  0  0  0  0  0  0
  -24.3480   -9.6040   21.9040 C   0  0  0  0  0  3  0  0  0  0  0  0
  -23.6160   -8.4100   22.0830 C   0  0  0  0  0  3  0  0  0  0  0  0
  -22.4380   -8.1800   21.3330 C   0  0  0  0  0  0  0  0  0  0  0  0
  -22.0240   -9.1420   20.3950 C   0  0  0  0  0  3  0  0  0  0  0  0
  -22.7560  -10.3270   20.2140 C   0  0  0  0  0  3  0  0  0  0  0  0
  -21.6770   -7.0390   21.4220 O   0  0  0  0  0  0  0  0  0  0  0  0
  -21.6070   -6.3090   22.5810 C   0  0  0  0  0  0  0  0  0  0  0  0
  -21.1180   -6.8660   23.7830 C   0  0  0  0  0  3  0  0  0  0  0  0
  -20.9970   -6.0610   24.9330 C   0  0  0  0  0  3  0  0  0  0  0  0
  -21.3530   -4.7000   24.8820 C   0  0  0  0  0  0  0  0  0  0  0  0
  -21.8350   -4.1430   23.6850 C   0  0  0  0  0  3  0  0  0  0  0  0
  -21.9580   -4.9450   22.5370 C   0  0  0  0  0  0  0  0  0  0  0  0
  -22.4030   -4.3970   21.3800 F   0  0  0  0  0  0  0  0  0  0  0  0
  -21.2300   -3.9250   25.9840 F   0  0  0  0  0  0  0  0  0  0  0  0
  -22.8150  -13.6740   21.1940 C   0  0  0  0  0  0  0  0  0  0  0  0
  -22.1080  -12.9610   22.0640 N   0  0  0  0  0  0  0  0  0  0  0  0
  -22.3720  -14.7200   20.7190 O   0  0  0  0  0  0  0  0  0  0  0  0
  -22.4810  -12.1150   22.4680 H   0  0  0  0  0  0  0  0  0  0  0  0
  -21.1820  -13.2650   22.3290 H   0  0  0  0  0  0  0  0  0  0  0  0
  -25.4250  -15.3370   20.3140 N   0  0  0  0  0  0  0  0  0  0  0  0
  -24.6670  -15.9930   20.4670 H   0  0  0  0  0  0  0  0  0  0  0  0
  -26.2570  -15.7760   19.9450 H   0  0  0  0  0  0  0  0  0  0  0  0
  -28.8520  -23.7580   20.2610 C   0  0  0  0  0  2  0  0  0  0  0  0
  -26.6830  -24.7900   21.3480 C   0  0  0  0  0  1  0  0  0  0  0  0
  -28.1240  -25.0940   20.8640 C   0  0  0  0  0  3  0  0  0  0  0  0
  -28.3050  -26.4620   20.2290 O   0  0  0  0  0  0  0  0  0  0  0  0
  -24.5810  -31.9180   23.2320 C   0  0  0  0  0  0  0  0  0  0  0  0
  -27.2290  -27.3780   20.1640 C   0  0  0  0  0  0  0  0  0  0  0  0
  -23.4000  -30.5350   21.5630 C   0  0  0  0  0  3  0  0  0  0  0  0
  -24.8740  -29.0130   20.1220 C   0  0  0  0  0  0  0  0  0  0  0  0
  -25.9430  -30.8580   21.4140 C   0  0  0  0  0  2  0  0  0  0  0  0
  -26.0350  -29.4870   20.7510 C   0  0  0  0  0  0  0  0  0  0  0  0
  -27.2160  -28.6800   20.7650 C   0  0  0  0  0  3  0  0  0  0  0  0
  -26.0680  -26.9930   19.4620 C   0  0  0  0  0  3  0  0  0  0  0  0
  -24.8960  -27.7740   19.4640 C   0  0  0  0  0  3  0  0  0  0  0  0
  -23.6310  -29.8800   20.1750 C   0  0  0  0  0  2  0  0  0  0  0  0
  -24.6600  -31.1220   22.1260 N   0  0  0  0  0  0  0  0  0  0  0  0
  -23.4900  -32.1830   23.7600 O   0  0  0  0  0  0  0  0  0  0  0  0
  -22.7330  -29.5040   22.5050 C   0  0  0  0  0  0  0  0  0  0  0  0
  -21.4040  -29.3440   22.3850 N   0  0  0  0  0  0  0  0  0  0  0  0
  -23.4090  -28.8530   23.3050 O   0  0  0  0  0  0  0  0  0  0  0  0
  -20.9160  -29.9230   21.7150 H   0  0  0  0  0  0  0  0  0  0  0  0
  -18.0150  -28.1810   22.8940 C   0  0  0  0  0  0  0  0  0  0  0  0
  -20.5800  -28.3990   23.1410 C   0  0  0  0  0  3  0  0  0  0  0  0
  -20.6550  -26.9810   22.5280 C   0  0  0  0  0  2  0  0  0  0  0  0
  -19.5370  -26.7000   21.5180 C   0  0  0  0  0  2  0  0  0  0  0  0
  -18.1650  -26.8480   22.1810 C   0  0  0  0  0  2  0  0  0  0  0  0
  -19.1490  -28.9160   23.3310 C   0  0  0  0  0  0  0  0  0  0  0  0
  -18.9540  -30.1660   23.9580 C   0  0  0  0  0  3  0  0  0  0  0  0
  -17.6580  -30.6790   24.1550 C   0  0  0  0  0  3  0  0  0  0  0  0
  -16.5390  -29.9400   23.7320 C   0  0  0  0  0  3  0  0  0  0  0  0
  -16.7180  -28.6930   23.1090 C   0  0  0  0  0  3  0  0  0  0  0  0
  -25.8540  -32.5500   23.8750 C   0  0  0  0  0  3  0  0  0  0  0  0
  -26.3390  -31.7880   25.1690 C   0  0  1  0  0  0  0  0  0  0  0  0
  -25.2230  -31.5610   26.2150 C   0  0  0  0  0  1  0  0  0  0  0  0
  -26.9270  -30.4050   24.8030 C   0  0  0  0  0  1  0  0  0  0  0  0
  -27.4760  -32.5850   25.8490 C   0  0  0  0  0  1  0  0  0  0  0  0
  -25.5440  -33.9530   24.1880 N   0  0  0  0  0  0  0  0  0  0  0  0
  -25.8930  -34.9990   23.4270 C   0  0  0  0  0  0  0  0  0  0  0  0
  -26.5770  -34.8850   22.4060 O   0  0  0  0  0  0  0  0  0  0  0  0
  -24.9390  -34.1160   24.9790 H   0  0  0  0  0  0  0  0  0  0  0  0
  -24.1850  -36.8040   23.0260 C   0  0  0  0  0  1  0  0  0  0  0  0
  -25.4050  -36.3940   23.8670 C   0  0  0  0  0  3  0  0  0  0  0  0
  -27.5220  -37.2730   24.7470 C   0  0  0  0  0  1  0  0  0  0  0  0
  -26.4480  -37.4390   23.7710 N   0  0  0  0  0  0  0  0  0  0  0  0
  -26.0430  -38.3630   23.8980 H   0  0  0  0  0  0  0  0  0  0  0  0
  1  7  1  0
  2  5  2  0
  3  4  2  0
  3  7  1  0
  4  2  1  0
  5  6  1  0
  7  5  1  0
  8  4  1  0
  8 17  1  0
  9 17  1  0
 10 15  1  0
 11 12  1  0
 11 10  1  0
 13 12  1  0
 13 22  1  0
 13 14  1  0
 15  9  1  0
 15 14  1  0
 16  9  2  0
 17 18  1  0
 19 20  2  0
 20 39  1  0
 21 20  1  0
 21 24  1  0
 22 23  1  0
 22 19  1  0
 23 21  2  0
 24 25  1  0
 25 26  2  0
 27 30  1  0
 27 26  1  0
 28 27  2  0
 29 28  1  0
 29 24  2  0
 30 31  1  0
 31 32  1  0
 32 33  2  0
 34 33  1  0
 34 38  1  0
 35 34  2  0
 36 31  2  0
 36 35  1  0
 37 36  1  0
 39 40  1  0
 40 43  1  0
 40 42  1  0
 41 39  2  0
 44 45  1  0
 44 19  1  0
 46 44  1  0
 47  1  1  0
 47 49  1  0
 49 48  1  0
 50 49  1  0
 51 62  2  0
 52 50  1  0
 52 57  1  0
 53 61  1  0
 53 63  1  0
 54 60  1  0
 54 56  1  0
 55 61  1  0
 56 57  2  0
 56 55  1  0
 58 59  1  0
 58 52  2  0
 59 54  2  0
 60 53  1  0
 61 51  1  0
 63 65  2  0
 64 63  1  0
 66 64  1  0
 67 76  2  0
 67 72  1  0
 68 64  1  0
 68 72  1  0
 69 68  1  0
 70 71  1  0
 70 69  1  0
 71 67  1  0
 72 73  2  0
 73 74  1  0
 75 74  2  0
 76 75  1  0
 77 51  1  0
 77 82  1  0
 77 78  1  0
 78 81  1  1
 78 79  1  0
 80 78  1  0
 82 85  1  0
 83 87  1  0
 83 82  1  0
 84 83  2  0
 87 86  1  0
 89 87  1  0
 89 90  1  0
 89 88  1  0
M  ISO  4   9 100  17 100  49 101  50 101
M  END
>  <TORSDO>  (56) 
F 20

>  <SCORE>  (56) 
-14.031

>  <name>  (56) 
55

>  <ligand_id>  (56) 
55

>  <original_smiles>  (56) 
[H]c1c([H])c([H])c2c(c1[H])C([H])([H])C([H])([H])C([H])([H])C2([H])N([H])C(=O)C1([H])N(C(=O)C([H])(N([H])C(=O)C([H])(N([H])C([H])([H])[H])C([H])([H])[H])C(C([H])([H])[H])(C([H])([H])[H])C([H])([H])[H])C([H])([H])c2c([H])c(OC([H])(C([H])([H])[H])C([H])([H])C([H])([H])n3c([H])c(C([H])([H])N([H])C(=O)N4C([H])([H])C([H])([H])C([H])([H])C([H])(n5nc(-c6c([H])c([H])c(Oc7c([H])c([H])c(F)c([H])c7F)c([H])c6[H])c(C(=O)N([H])[H])c5N([H])[H])C4([H])[H])c([H])c3C([H])([H])[H])c([H])c([H])c2C1([H])[H]

>  <smiles>  (56) 
[H]c1c([H])c([H])c2c(c1[H])C([H])([H])C([H])([H])C([H])([H])C2([H])N([H])C(=O)C1([H])N(C(=O)C([H])(N([H])C(=O)C([H])(N([H])C([H])([H])[H])C([H])([H])[H])C(C([H])([H])[H])(C([H])([H])[H])C([H])([H])[H])C([H])([H])c2c([H])c(OC([H])(C([H])([H])[H])C([H])([H])C([H])([H])n3c([H])c(C([H])([H])N([H])C(=O)N4C([H])([H])C([H])([H])C([H])([H])C([H])(n5nc(-c6c([H])c([H])c(Oc7c([H])c([H])c(F)c([H])c7F)c([H])c6[H])c(C(=O)N([H])[H])c5N([H])[H])C4([H])[H])c([H])c3C([H])([H])[H])c([H])c([H])c2C1([H])[H]

$$$$
56:0:0
     RDKit          3D

 92100  0  0  1  0  0  0  0  0999 V2000
  -29.7910  -19.1080   19.1660 C   0  0  0  0  0  3  0  0  0  0  0  0
  -29.4620  -19.8020   21.2170 C   0  0  0  0  0  3  0  0  0  0  0  0
  -29.8530  -18.6590   20.5180 C   0  0  0  0  0  0  0  0  0  0  0  0
  -29.4330  -20.4440   19.0890 C   0  0  0  0  0  0  0  0  0  0  0  0
  -29.2020  -20.9240   20.3850 N   0  0  0  0  0  0  0  0  0  0  0  0
  -27.8430  -21.5990   17.4920 C   0  0  0  0  0  1  0  0  0  0  0  0
  -30.0170  -20.6850   16.6380 C   0  0  0  0  0  1  0  0  0  0  0  0
  -29.3060  -21.2990   17.8560 C   0  0  0  0  0  3  0  0  0  0  0  0
  -30.3870  -17.2600   21.0710 C   0  0  0  0  0  2  0  0  0  0  0  0
  -30.6330  -14.7530   20.3560 C   0  0  0  0  0  0  0  0  0  0  0  0
  -30.4050  -12.5050   19.2820 C   0  0  0  0  0  2  0  0  0  0  0  0
  -29.4650  -12.6060   18.0620 C   0  0  0  0  0  2  0  0  0  0  0  0
  -27.9940  -12.4330   18.4910 C   0  0  0  0  0  2  0  0  0  0  0  0
  -27.6280  -13.3010   19.7250 C   0  0  0  0  0  3  0  0  0  0  0  0
  -28.6890  -13.1870   20.8400 C   0  0  0  0  0  2  0  0  0  0  0  0
  -29.9820  -13.5450   20.2470 N   0  0  0  0  0  0  0  0  0  0  0  0
  -31.8240  -14.8390   20.0480 O   0  0  0  0  0  0  0  0  0  0  0  0
  -29.8910  -15.8850   20.6450 N   0  0  0  0  0  0  0  0  0  0  0  0
  -28.9030  -15.7290   20.7740 H   0  0  0  0  0  0  0  0  0  0  0  0
  -25.2380  -13.8950   20.4400 C   0  0  0  0  0  0  0  0  0  0  0  0
  -24.1710  -13.1230   20.8120 C   0  0  0  0  0  0  0  0  0  0  0  0
  -24.6360  -11.7720   20.7920 C   0  0  0  0  0  0  0  0  0  0  0  0
  -26.2830  -13.0140   20.2130 N   0  0  0  0  0  0  0  0  0  0  0  0
  -25.9280  -11.7330   20.4880 N   0  0  0  0  0  0  0  0  0  0  0  0
  -23.9090  -10.5110   20.9850 C   0  0  0  0  0  0  0  0  0  0  0  0
  -24.3330   -9.5530   21.9330 C   0  0  0  0  0  3  0  0  0  0  0  0
  -23.6080   -8.3560   22.1150 C   0  0  0  0  0  3  0  0  0  0  0  0
  -22.4440   -8.1070   21.3500 C   0  0  0  0  0  0  0  0  0  0  0  0
  -22.0380   -9.0540   20.3930 C   0  0  0  0  0  3  0  0  0  0  0  0
  -22.7640  -10.2440   20.2080 C   0  0  0  0  0  3  0  0  0  0  0  0
  -21.6890   -6.9620   21.4410 O   0  0  0  0  0  0  0  0  0  0  0  0
  -21.6240   -6.2340   22.6020 C   0  0  0  0  0  0  0  0  0  0  0  0
  -21.1610   -6.7990   23.8110 C   0  0  0  0  0  3  0  0  0  0  0  0
  -21.0430   -5.9960   24.9630 C   0  0  0  0  0  3  0  0  0  0  0  0
  -21.3780   -4.6300   24.9080 C   0  0  0  0  0  0  0  0  0  0  0  0
  -21.8350   -4.0640   23.7040 C   0  0  0  0  0  3  0  0  0  0  0  0
  -21.9540   -4.8650   22.5540 C   0  0  0  0  0  0  0  0  0  0  0  0
  -22.3730   -4.3100   21.3910 F   0  0  0  0  0  0  0  0  0  0  0  0
  -21.2590   -3.8570   26.0120 F   0  0  0  0  0  0  0  0  0  0  0  0
  -22.7730  -13.6000   21.0740 C   0  0  0  0  0  0  0  0  0  0  0  0
  -22.0400  -12.9090   21.9400 N   0  0  0  0  0  0  0  0  0  0  0  0
  -22.3380  -14.6220   20.5460 O   0  0  0  0  0  0  0  0  0  0  0  0
  -22.4030  -12.0800   22.3890 H   0  0  0  0  0  0  0  0  0  0  0  0
  -21.1000  -13.2100   22.1540 H   0  0  0  0  0  0  0  0  0  0  0  0
  -25.4000  -15.2640   20.2510 N   0  0  0  0  0  0  0  0  0  0  0  0
  -24.6300  -15.9170   20.3460 H   0  0  0  0  0  0  0  0  0  0  0  0
  -26.2410  -15.6990   19.8920 H   0  0  0  0  0  0  0  0  0  0  0  0
  -28.6490  -22.2770   20.8710 C   0  0  0  0  0  3  0  0  0  0  0  0
  -29.0170  -23.7440   20.2700 C   0  0  0  0  0  3  0  0  0  0  0  0
  -28.4520  -25.1750   22.3600 C   0  0  0  0  0  1  0  0  0  0  0  0
  -28.2140  -25.0350   20.8470 C   0  0  0  0  0  3  0  0  0  0  0  0
  -28.4250  -26.4240   20.3060 O   0  0  0  0  0  0  0  0  0  0  0  0
  -24.6370  -31.8910   23.2390 C   0  0  0  0  0  0  0  0  0  0  0  0
  -27.3210  -27.3050   20.2590 C   0  0  0  0  0  0  0  0  0  0  0  0
  -23.4670  -30.4760   21.5890 C   0  0  0  0  0  3  0  0  0  0  0  0
  -24.9510  -28.9240   20.1910 C   0  0  0  0  0  0  0  0  0  0  0  0
  -26.0090  -30.8050   21.4400 C   0  0  0  0  0  2  0  0  0  0  0  0
  -26.1090  -29.4200   20.8040 C   0  0  0  0  0  0  0  0  0  0  0  0
  -27.2990  -28.6240   20.8250 C   0  0  0  0  0  3  0  0  0  0  0  0
  -26.1430  -26.8750   19.6110 C   0  0  0  0  0  3  0  0  0  0  0  0
  -24.9720  -27.6590   19.5820 C   0  0  0  0  0  3  0  0  0  0  0  0
  -23.7080  -29.7940   20.2160 C   0  0  0  0  0  2  0  0  0  0  0  0
  -24.7230  -31.0760   22.1460 N   0  0  0  0  0  0  0  0  0  0  0  0
  -23.5440  -32.1620   23.7570 O   0  0  0  0  0  0  0  0  0  0  0  0
  -22.7970  -29.4610   22.5460 C   0  0  0  0  0  0  0  0  0  0  0  0
  -21.4720  -29.2860   22.4130 N   0  0  0  0  0  0  0  0  0  0  0  0
  -23.4710  -28.8340   23.3680 O   0  0  0  0  0  0  0  0  0  0  0  0
  -20.9870  -29.8440   21.7240 H   0  0  0  0  0  0  0  0  0  0  0  0
  -18.0860  -28.1070   22.9150 C   0  0  0  0  0  0  0  0  0  0  0  0
  -20.6480  -28.3490   23.1800 C   0  0  0  0  0  3  0  0  0  0  0  0
  -20.7370  -26.9190   22.5960 C   0  0  0  0  0  2  0  0  0  0  0  0
  -19.6320  -26.6110   21.5810 C   0  0  0  0  0  2  0  0  0  0  0  0
  -18.2520  -26.7610   22.2300 C   0  0  0  0  0  2  0  0  0  0  0  0
  -19.2120  -28.8590   23.3470 C   0  0  0  0  0  0  0  0  0  0  0  0
  -19.0020  -30.1180   23.9490 C   0  0  0  0  0  3  0  0  0  0  0  0
  -17.7020  -30.6270   24.1210 C   0  0  0  0  0  3  0  0  0  0  0  0
  -16.5910  -29.8740   23.7060 C   0  0  0  0  0  3  0  0  0  0  0  0
  -16.7850  -28.6150   23.1080 C   0  0  0  0  0  3  0  0  0  0  0  0
  -25.9050  -32.5390   23.8770 C   0  0  0  0  0  3  0  0  0  0  0  0
  -25.5810  -33.9380   24.1910 N   0  0  0  0  0  0  0  0  0  0  0  0
  -25.9180  -34.9870   23.4290 C   0  0  0  0  0  0  0  0  0  0  0  0
  -26.6020  -34.8810   22.4070 O   0  0  0  0  0  0  0  0  0  0  0  0
  -24.9730  -34.0940   24.9810 H   0  0  0  0  0  0  0  0  0  0  0  0
  -24.1890  -36.7720   23.0350 C   0  0  0  0  0  1  0  0  0  0  0  0
  -25.4160  -36.3760   23.8700 C   0  0  0  0  0  3  0  0  0  0  0  0
  -27.5300  -37.2770   24.7370 C   0  0  0  0  0  1  0  0  0  0  0  0
  -26.4470  -37.4330   23.7700 N   0  0  0  0  0  0  0  0  0  0  0  0
  -26.0340  -38.3520   23.9020 H   0  0  0  0  0  0  0  0  0  0  0  0
  -26.4040  -31.7820   25.1690 C   0  0  1  0  0  0  0  0  0  0  0  0
  -25.2950  -31.5500   26.2220 C   0  0  0  0  0  1  0  0  0  0  0  0
  -27.0020  -30.4060   24.8010 C   0  0  0  0  0  1  0  0  0  0  0  0
  -27.5390  -32.5890   25.8410 C   0  0  0  0  0  1  0  0  0  0  0  0
  1  3  1  0
  3  9  1  0
  3  2  2  0
  4  1  2  0
  4  5  1  0
  5 48  1  0
  5  2  1  0
  6  8  1  0
  7  8  1  0
  8  4  1  0
 10 18  1  0
 11 16  1  0
 12 13  1  0
 12 11  1  0
 14 13  1  0
 14 23  1  0
 14 15  1  0
 16 10  1  0
 16 15  1  0
 17 10  2  0
 18 19  1  0
 18  9  1  0
 20 21  2  0
 21 40  1  0
 22 21  1  0
 22 25  1  0
 23 20  1  0
 23 24  1  0
 24 22  2  0
 25 26  1  0
 26 27  2  0
 28 31  1  0
 28 27  1  0
 29 28  2  0
 30 29  1  0
 30 25  2  0
 31 32  1  0
 32 33  1  0
 33 34  2  0
 35 34  1  0
 35 39  1  0
 36 35  2  0
 37 32  2  0
 37 36  1  0
 38 37  1  0
 40 41  1  0
 41 44  1  0
 41 43  1  0
 42 40  2  0
 45 46  1  0
 45 20  1  0
 47 45  1  0
 49 51  1  0
 49 48  2  0
 51 50  1  0
 52 51  1  0
 53 64  2  0
 54 52  1  0
 54 59  1  0
 55 63  1  0
 55 65  1  0
 56 62  1  0
 56 58  1  0
 57 63  1  0
 58 59  2  0
 58 57  1  0
 60 54  2  0
 61 60  1  0
 61 56  2  0
 62 55  1  0
 63 53  1  0
 65 67  2  0
 66 65  1  0
 68 66  1  0
 69 78  2  0
 69 74  1  0
 70 66  1  0
 70 74  1  0
 71 70  1  0
 72 73  1  0
 72 71  1  0
 73 69  1  0
 74 75  2  0
 75 76  1  0
 77 76  2  0
 78 77  1  0
 79 53  1  0
 79 80  1  0
 79 89  1  0
 80 83  1  0
 81 85  1  0
 81 80  1  0
 82 81  2  0
 85 84  1  0
 87 85  1  0
 87 88  1  0
 87 86  1  0
 89 92  1  1
 89 90  1  0
 91 89  1  0
M  ISO  4  10 100  18 100  51 101  52 101
M  END
>  <TORSDO>  (57) 
F 21

>  <SCORE>  (57) 
-13.392

>  <name>  (57) 
56

>  <ligand_id>  (57) 
56

>  <original_smiles>  (57) 
[H]c1c([H])c([H])c2c(c1[H])C([H])([H])C([H])([H])C([H])([H])C2([H])N([H])C(=O)C1([H])N(C(=O)C([H])(N([H])C(=O)C([H])(N([H])C([H])([H])[H])C([H])([H])[H])C(C([H])([H])[H])(C([H])([H])[H])C([H])([H])[H])C([H])([H])c2c([H])c(OC([H])(C([H])([H])[H])C([H])([H])C([H])([H])n3c([H])c(C([H])([H])N([H])C(=O)N4C([H])([H])C([H])([H])C([H])([H])C([H])(n5nc(-c6c([H])c([H])c(Oc7c([H])c([H])c(F)c([H])c7F)c([H])c6[H])c(C(=O)N([H])[H])c5N([H])[H])C4([H])[H])c([H])c3C([H])(C([H])([H])[H])C([H])([H])[H])c([H])c([H])c2C1([H])[H]

>  <smiles>  (57) 
[H]c1c([H])c([H])c2c(c1[H])C([H])([H])C([H])([H])C([H])([H])C2([H])N([H])C(=O)C1([H])N(C(=O)C([H])(N([H])C(=O)C([H])(N([H])C([H])([H])[H])C([H])([H])[H])C(C([H])([H])[H])(C([H])([H])[H])C([H])([H])[H])C([H])([H])c2c([H])c(OC([H])(C([H])([H])[H])C([H])([H])C([H])([H])n3c([H])c(C([H])([H])N([H])C(=O)N4C([H])([H])C([H])([H])C([H])([H])C([H])(n5nc(-c6c([H])c([H])c(Oc7c([H])c([H])c(F)c([H])c7F)c([H])c6[H])c(C(=O)N([H])[H])c5N([H])[H])C4([H])[H])c([H])c3C([H])(C([H])([H])[H])C([H])([H])[H])c([H])c([H])c2C1([H])[H]

$$$$
57:0:0
     RDKit          3D

 89 96  0  0  1  0  0  0  0  0999 V2000
  -28.1630  -22.9510   18.5850 C   0  0  0  0  0  1  0  0  0  0  0  0
  -30.2860  -23.8850   19.4780 C   0  0  0  0  0  1  0  0  0  0  0  0
  -28.9170  -23.2910   19.8900 C   0  0  2  0  0  0  0  0  0  0  0  0
  -29.3740  -21.8440   20.6980 C   0  0  0  0  0  2  0  0  0  0  0  0
  -27.3880  -20.2710   20.3000 C   0  0  0  0  0  1  0  0  0  0  0  0
  -28.8430  -20.3430   20.5890 N   0  0  1  0  0  4  0  0  0  0  0  0
  -28.8730  -20.1090   21.5710 H   0  0  0  0  0  0  0  0  0  0  0  0
  -29.6150  -19.0720   19.9880 C   0  0  0  0  0  2  0  0  0  0  0  0
  -30.0130  -17.6710   20.8640 C   0  0  0  0  0  2  0  0  0  0  0  0
  -30.6790  -14.9820   20.3030 C   0  0  0  0  0  0  0  0  0  0  0  0
  -30.5750  -12.6260   19.3490 C   0  0  0  0  0  2  0  0  0  0  0  0
  -29.6540  -12.5670   18.1060 C   0  0  0  0  0  2  0  0  0  0  0  0
  -28.1790  -12.3780   18.5240 C   0  0  0  0  0  2  0  0  0  0  0  0
  -27.7660  -13.3120   19.6930 C   0  0  0  0  0  3  0  0  0  0  0  0
  -28.8080  -13.3170   20.8270 C   0  0  0  0  0  2  0  0  0  0  0  0
  -30.0860  -13.7250   20.2250 N   0  0  0  0  0  0  0  0  0  0  0  0
  -31.8930  -15.0530   20.0930 O   0  0  0  0  0  0  0  0  0  0  0  0
  -29.8610  -16.1460   20.4250 N   0  0  0  0  0  0  0  0  0  0  0  0
  -28.8910  -15.8740   20.4150 H   0  0  0  0  0  0  0  0  0  0  0  0
  -25.3810  -13.9140   20.4020 C   0  0  0  0  0  0  0  0  0  0  0  0
  -24.3110  -13.1500   20.7790 C   0  0  0  0  0  0  0  0  0  0  0  0
  -24.7690  -11.7970   20.7740 C   0  0  0  0  0  0  0  0  0  0  0  0
  -26.4220  -13.0270   20.1810 N   0  0  0  0  0  0  0  0  0  0  0  0
  -26.0610  -11.7500   20.4700 N   0  0  0  0  0  0  0  0  0  0  0  0
  -24.0330  -10.5430   20.9770 C   0  0  0  0  0  0  0  0  0  0  0  0
  -24.4520   -9.5810   21.9210 C   0  0  0  0  0  3  0  0  0  0  0  0
  -23.7150   -8.3920   22.1050 C   0  0  0  0  0  3  0  0  0  0  0  0
  -22.5440   -8.1550   21.3470 C   0  0  0  0  0  0  0  0  0  0  0  0
  -22.1480   -9.1040   20.3890 C   0  0  0  0  0  3  0  0  0  0  0  0
  -22.8870  -10.2850   20.2030 C   0  0  0  0  0  3  0  0  0  0  0  0
  -21.7760   -7.0230   21.4490 O   0  0  0  0  0  0  0  0  0  0  0  0
  -21.7150   -6.2950   22.6100 C   0  0  0  0  0  0  0  0  0  0  0  0
  -21.2890   -6.8680   23.8280 C   0  0  0  0  0  3  0  0  0  0  0  0
  -21.1690   -6.0680   24.9820 C   0  0  0  0  0  3  0  0  0  0  0  0
  -21.4730   -4.6940   24.9190 C   0  0  0  0  0  0  0  0  0  0  0  0
  -21.8990   -4.1210   23.7080 C   0  0  0  0  0  3  0  0  0  0  0  0
  -22.0170   -4.9180   22.5570 C   0  0  0  0  0  0  0  0  0  0  0  0
  -22.4070   -4.3550   21.3860 F   0  0  0  0  0  0  0  0  0  0  0  0
  -21.3550   -3.9230   26.0230 F   0  0  0  0  0  0  0  0  0  0  0  0
  -22.9140  -13.6410   21.0260 C   0  0  0  0  0  0  0  0  0  0  0  0
  -22.1700  -12.9710   21.8980 N   0  0  0  0  0  0  0  0  0  0  0  0
  -22.4900  -14.6590   20.4800 O   0  0  0  0  0  0  0  0  0  0  0  0
  -22.5220  -12.1530   22.3750 H   0  0  0  0  0  0  0  0  0  0  0  0
  -21.2290  -13.2860   22.0940 H   0  0  0  0  0  0  0  0  0  0  0  0
  -25.5430  -15.2820   20.2060 N   0  0  0  0  0  0  0  0  0  0  0  0
  -24.7510  -15.9130   20.2710 H   0  0  0  0  0  0  0  0  0  0  0  0
  -26.3540  -15.7090   19.7750 H   0  0  0  0  0  0  0  0  0  0  0  0
  -28.1740  -24.6510   20.6030 C   0  0  0  0  0  2  0  0  0  0  0  0
  -28.3420  -26.1610   20.2130 O   0  0  0  0  0  0  0  0  0  0  0  0
  -24.6060  -31.8040   23.1770 C   0  0  0  0  0  0  0  0  0  0  0  0
  -27.2630  -27.1160   20.1910 C   0  0  0  0  0  0  0  0  0  0  0  0
  -23.4420  -30.4060   21.5110 C   0  0  0  0  0  3  0  0  0  0  0  0
  -24.9250  -28.8440   20.1090 C   0  0  0  0  0  0  0  0  0  0  0  0
  -25.9970  -30.6980   21.3850 C   0  0  0  0  0  2  0  0  0  0  0  0
  -26.0940  -29.3070   20.7320 C   0  0  0  0  0  0  0  0  0  0  0  0
  -27.2660  -28.4630   20.7470 C   0  0  0  0  0  3  0  0  0  0  0  0
  -26.0670  -26.7490   19.5410 C   0  0  0  0  0  3  0  0  0  0  0  0
  -24.9240  -27.5800   19.5010 C   0  0  0  0  0  3  0  0  0  0  0  0
  -23.6950  -29.7400   20.1330 C   0  0  0  0  0  2  0  0  0  0  0  0
  -24.7010  -30.9930   22.0780 N   0  0  0  0  0  0  0  0  0  0  0  0
  -23.5090  -32.0710   23.6940 O   0  0  0  0  0  0  0  0  0  0  0  0
  -22.7600  -29.3880   22.4600 C   0  0  0  0  0  0  0  0  0  0  0  0
  -21.4360  -29.1940   22.3070 N   0  0  0  0  0  0  0  0  0  0  0  0
  -23.4250  -28.7710   23.2970 O   0  0  0  0  0  0  0  0  0  0  0  0
  -20.9560  -29.7440   21.6080 H   0  0  0  0  0  0  0  0  0  0  0  0
  -18.0700  -27.9310   22.7330 C   0  0  0  0  0  0  0  0  0  0  0  0
  -20.6160  -28.2470   23.0640 C   0  0  0  0  0  3  0  0  0  0  0  0
  -20.7590  -26.8140   22.5020 C   0  0  0  0  0  2  0  0  0  0  0  0
  -19.6900  -26.4630   21.4630 C   0  0  0  0  0  2  0  0  0  0  0  0
  -18.2890  -26.5830   22.0690 C   0  0  0  0  0  2  0  0  0  0  0  0
  -19.1600  -28.7180   23.1870 C   0  0  0  0  0  0  0  0  0  0  0  0
  -18.8980  -29.9780   23.7720 C   0  0  0  0  0  3  0  0  0  0  0  0
  -17.5780  -30.4490   23.9030 C   0  0  0  0  0  3  0  0  0  0  0  0
  -16.5020  -29.6590   23.4630 C   0  0  0  0  0  3  0  0  0  0  0  0
  -16.7490  -28.4010   22.8850 C   0  0  0  0  0  3  0  0  0  0  0  0
  -25.8680  -32.4490   23.8250 C   0  0  0  0  0  3  0  0  0  0  0  0
  -25.5390  -33.8470   24.1470 N   0  0  0  0  0  0  0  0  0  0  0  0
  -25.8860  -34.9030   23.4020 C   0  0  0  0  0  0  0  0  0  0  0  0
  -26.5790  -34.8070   22.3870 O   0  0  0  0  0  0  0  0  0  0  0  0
  -24.9280  -33.9950   24.9360 H   0  0  0  0  0  0  0  0  0  0  0  0
  -24.1610  -36.6950   23.0210 C   0  0  0  0  0  1  0  0  0  0  0  0
  -25.3850  -36.2880   23.8580 C   0  0  0  0  0  3  0  0  0  0  0  0
  -27.4940  -37.1760   24.7460 C   0  0  0  0  0  1  0  0  0  0  0  0
  -26.4140  -37.3460   23.7770 N   0  0  0  0  0  0  0  0  0  0  0  0
  -26.0000  -38.2620   23.9240 H   0  0  0  0  0  0  0  0  0  0  0  0
  -26.3590  -31.6910   25.1190 C   0  0  1  0  0  0  0  0  0  0  0  0
  -25.2430  -31.4600   26.1640 C   0  0  0  0  0  1  0  0  0  0  0  0
  -26.9550  -30.3120   24.7530 C   0  0  0  0  0  1  0  0  0  0  0  0
  -27.4940  -32.4970   25.7980 C   0  0  0  0  0  1  0  0  0  0  0  0
  3  1  1  6
  2  3  1  0
  3 48  1  0
  3  4  1  0
  5  6  1  0
  6  4  1  0
  6  7  1  1
  8  6  1  0
  8  9  1  0
 10 18  1  0
 11 16  1  0
 12 13  1  0
 12 11  1  0
 14 13  1  0
 14 23  1  0
 14 15  1  0
 16 10  1  0
 16 15  1  0
 17 10  2  0
 18  9  1  0
 19 18  1  0
 20 21  2  0
 21 40  1  0
 22 21  1  0
 22 25  1  0
 23 20  1  0
 23 24  1  0
 24 22  2  0
 25 26  1  0
 26 27  2  0
 28 31  1  0
 28 27  1  0
 29 28  2  0
 30 29  1  0
 30 25  2  0
 31 32  1  0
 32 33  1  0
 33 34  2  0
 35 34  1  0
 35 39  1  0
 36 35  2  0
 37 32  2  0
 37 36  1  0
 38 37  1  0
 40 41  1  0
 41 44  1  0
 41 43  1  0
 42 40  2  0
 45 46  1  0
 45 20  1  0
 47 45  1  0
 49 48  1  0
 50 61  2  0
 51 49  1  0
 51 56  1  0
 52 60  1  0
 52 62  1  0
 53 59  1  0
 53 55  1  0
 54 60  1  0
 55 56  2  0
 55 54  1  0
 57 51  2  0
 58 57  1  0
 58 53  2  0
 59 52  1  0
 60 50  1  0
 62 64  2  0
 63 62  1  0
 65 63  1  0
 66 75  2  0
 66 71  1  0
 67 63  1  0
 67 71  1  0
 68 67  1  0
 69 70  1  0
 69 68  1  0
 70 66  1  0
 71 72  2  0
 72 73  1  0
 74 73  2  0
 75 74  1  0
 76 50  1  0
 76 77  1  0
 76 86  1  0
 77 80  1  0
 78 82  1  0
 78 77  1  0
 79 78  2  0
 82 81  1  0
 84 82  1  0
 84 85  1  0
 84 83  1  0
 86 89  1  1
 86 87  1  0
 88 86  1  0
M  ISO  4  10 100  18 100  48 101  49 101
M  END
>  <TORSDO>  (58) 
F 21

>  <SCORE>  (58) 
-14.892

>  <name>  (58) 
57

>  <ligand_id>  (58) 
57

>  <original_smiles>  (58) 
[H]c1c([H])c([H])c2c(c1[H])C([H])([H])C([H])([H])C([H])([H])C2([H])N([H])C(=O)C1([H])N(C(=O)C([H])(N([H])C(=O)C([H])(N([H])C([H])([H])[H])C([H])([H])[H])C(C([H])([H])[H])(C([H])([H])[H])C([H])([H])[H])C([H])([H])c2c([H])c(OC([H])([H])C(C([H])([H])[H])(C([H])([H])[H])C([H])([H])[N+]([H])(C([H])([H])[H])C([H])([H])C([H])([H])N([H])C(=O)N3C([H])([H])C([H])([H])C([H])([H])C([H])(n4nc(-c5c([H])c([H])c(Oc6c([H])c([H])c(F)c([H])c6F)c([H])c5[H])c(C(=O)N([H])[H])c4N([H])[H])C3([H])[H])c([H])c([H])c2C1([H])[H]

>  <smiles>  (58) 
[H]c1c([H])c([H])c2c(c1[H])C([H])([H])C([H])([H])C([H])([H])C2([H])N([H])C(=O)C1([H])N(C(=O)C([H])(N([H])C(=O)C([H])(N([H])C([H])([H])[H])C([H])([H])[H])C(C([H])([H])[H])(C([H])([H])[H])C([H])([H])[H])C([H])([H])c2c([H])c(OC([H])([H])C(C([H])([H])[H])(C([H])([H])[H])C([H])([H])[N+]([H])(C([H])([H])[H])C([H])([H])C([H])([H])N([H])C(=O)N3C([H])([H])C([H])([H])C([H])([H])C([H])(n4nc(-c5c([H])c([H])c(Oc6c([H])c([H])c(F)c([H])c6F)c([H])c5[H])c(C(=O)N([H])[H])c4N([H])[H])C3([H])[H])c([H])c([H])c2C1([H])[H]

$$$$
58:0:0
     RDKit          3D

 93101  0  0  1  0  0  0  0  0999 V2000
  -28.6750  -21.1560   20.7360 C   0  0  0  0  0  3  0  0  0  0  0  0
  -29.4140  -20.0840   20.2240 C   0  0  0  0  0  0  0  0  0  0  0  0
  -30.4470  -20.7510   19.4660 C   0  0  0  0  0  0  0  0  0  0  0  0
  -30.3500  -22.1230   19.6600 C   0  0  0  0  0  0  0  0  0  0  0  0
  -29.2090  -22.4250   20.4010 N   0  0  0  0  0  0  0  0  0  0  0  0
  -30.9070  -19.1890   17.4950 C   0  0  0  0  0  1  0  0  0  0  0  0
  -32.7190  -19.5920   19.3270 C   0  0  0  0  0  1  0  0  0  0  0  0
  -31.5000  -20.1300   18.5600 C   0  0  0  0  0  3  0  0  0  0  0  0
  -31.1460  -23.6030   17.7170 C   0  0  0  0  0  1  0  0  0  0  0  0
  -31.2860  -23.2100   19.1970 C   0  0  0  0  0  2  0  0  0  0  0  0
  -29.0840  -18.5110   20.3510 C   0  0  0  0  0  3  0  0  0  0  0  0
  -30.1980  -17.3560   20.6100 C   0  0  0  0  0  3  0  0  0  0  0  0
  -30.5730  -14.7560   20.4090 C   0  0  0  0  0  0  0  0  0  0  0  0
  -30.3820  -12.4970   19.3580 C   0  0  0  0  0  2  0  0  0  0  0  0
  -29.4430  -12.5780   18.1350 C   0  0  0  0  0  2  0  0  0  0  0  0
  -27.9730  -12.4100   18.5670 C   0  0  0  0  0  2  0  0  0  0  0  0
  -27.6010  -13.2850   19.7940 C   0  0  0  0  0  3  0  0  0  0  0  0
  -28.6580  -13.1690   20.9110 C   0  0  0  0  0  2  0  0  0  0  0  0
  -29.9510  -13.5330   20.3240 N   0  0  0  0  0  0  0  0  0  0  0  0
  -31.7600  -14.8680   20.0920 O   0  0  0  0  0  0  0  0  0  0  0  0
  -29.7940  -15.8780   20.6500 N   0  0  0  0  0  0  0  0  0  0  0  0
  -28.8270  -15.6830   20.8610 H   0  0  0  0  0  0  0  0  0  0  0  0
  -25.2090  -13.8690   20.5140 C   0  0  0  0  0  0  0  0  0  0  0  0
  -24.1450  -13.0930   20.8840 C   0  0  0  0  0  0  0  0  0  0  0  0
  -24.6130  -11.7420   20.8540 C   0  0  0  0  0  0  0  0  0  0  0  0
  -26.2560  -12.9930   20.2810 N   0  0  0  0  0  0  0  0  0  0  0  0
  -25.9050  -11.7090   20.5490 N   0  0  0  0  0  0  0  0  0  0  0  0
  -23.8930  -10.4770   21.0430 C   0  0  0  0  0  0  0  0  0  0  0  0
  -24.3260   -9.5130   21.9790 C   0  0  0  0  0  3  0  0  0  0  0  0
  -23.6030   -8.3140   22.1580 C   0  0  0  0  0  3  0  0  0  0  0  0
  -22.4350   -8.0680   21.3980 C   0  0  0  0  0  0  0  0  0  0  0  0
  -22.0210   -9.0220   20.4510 C   0  0  0  0  0  3  0  0  0  0  0  0
  -22.7430  -10.2130   20.2710 C   0  0  0  0  0  3  0  0  0  0  0  0
  -21.6860   -6.9180   21.4810 O   0  0  0  0  0  0  0  0  0  0  0  0
  -21.6360   -6.1750   22.6320 C   0  0  0  0  0  0  0  0  0  0  0  0
  -21.1930   -6.7260   23.8540 C   0  0  0  0  0  3  0  0  0  0  0  0
  -21.0950   -5.9110   25.0000 C   0  0  0  0  0  3  0  0  0  0  0  0
  -21.4230   -4.5440   24.9220 C   0  0  0  0  0  0  0  0  0  0  0  0
  -21.8540   -3.9920   23.7030 C   0  0  0  0  0  3  0  0  0  0  0  0
  -21.9570   -4.8050   22.5610 C   0  0  0  0  0  0  0  0  0  0  0  0
  -22.3560   -4.2630   21.3850 F   0  0  0  0  0  0  0  0  0  0  0  0
  -21.3180   -3.7590   26.0200 F   0  0  0  0  0  0  0  0  0  0  0  0
  -22.7450  -13.5630   21.1500 C   0  0  0  0  0  0  0  0  0  0  0  0
  -22.0190  -12.8610   22.0100 N   0  0  0  0  0  0  0  0  0  0  0  0
  -22.3070  -14.5870   20.6280 O   0  0  0  0  0  0  0  0  0  0  0  0
  -22.3910  -12.0320   22.4500 H   0  0  0  0  0  0  0  0  0  0  0  0
  -21.0790  -13.1520   22.2330 H   0  0  0  0  0  0  0  0  0  0  0  0
  -25.3690  -15.2410   20.3310 N   0  0  0  0  0  0  0  0  0  0  0  0
  -24.5970  -15.8890   20.4350 H   0  0  0  0  0  0  0  0  0  0  0  0
  -26.1980  -15.6740   19.9450 H   0  0  0  0  0  0  0  0  0  0  0  0
  -28.7560  -23.8110   20.8870 C   0  0  0  0  0  3  0  0  0  0  0  0
  -28.3740  -25.0040   19.8630 C   0  0  0  0  0  3  0  0  0  0  0  0
  -28.3390  -26.4420   20.3040 O   0  0  0  0  0  0  0  0  0  0  0  0
  -24.6020  -31.8970   23.2360 C   0  0  0  0  0  0  0  0  0  0  0  0
  -27.2090  -27.2890   20.2080 C   0  0  0  0  0  0  0  0  0  0  0  0
  -23.3990  -30.4920   21.6030 C   0  0  0  0  0  3  0  0  0  0  0  0
  -24.8510  -28.9370   20.1800 C   0  0  0  0  0  0  0  0  0  0  0  0
  -25.9440  -30.7990   21.4240 C   0  0  0  0  0  2  0  0  0  0  0  0
  -26.0200  -29.4180   20.7760 C   0  0  0  0  0  0  0  0  0  0  0  0
  -27.1990  -28.6080   20.7780 C   0  0  0  0  0  3  0  0  0  0  0  0
  -26.0110  -26.8740   19.5810 C   0  0  0  0  0  3  0  0  0  0  0  0
  -24.8500  -27.6730   19.5700 C   0  0  0  0  0  3  0  0  0  0  0  0
  -23.6150  -29.8150   20.2230 C   0  0  0  0  0  2  0  0  0  0  0  0
  -24.6670  -31.0810   22.1420 N   0  0  0  0  0  0  0  0  0  0  0  0
  -23.5180  -32.1770   23.7690 O   0  0  0  0  0  0  0  0  0  0  0  0
  -22.7360  -29.4780   22.5680 C   0  0  0  0  0  0  0  0  0  0  0  0
  -21.4100  -29.3010   22.4410 N   0  0  0  0  0  0  0  0  0  0  0  0
  -23.4150  -28.8560   23.3890 O   0  0  0  0  0  0  0  0  0  0  0  0
  -20.9240  -29.8590   21.7540 H   0  0  0  0  0  0  0  0  0  0  0  0
  -18.0290  -28.1120   22.9550 C   0  0  0  0  0  0  0  0  0  0  0  0
  -20.5890  -28.3680   23.2160 C   0  0  0  0  0  3  0  0  0  0  0  0
  -20.6860  -26.9340   22.6420 C   0  0  0  0  0  2  0  0  0  0  0  0
  -19.5800  -26.6130   21.6320 C   0  0  0  0  0  2  0  0  0  0  0  0
  -18.1990  -26.7610   22.2800 C   0  0  0  0  0  2  0  0  0  0  0  0
  -19.1510  -28.8720   23.3790 C   0  0  0  0  0  0  0  0  0  0  0  0
  -18.9370  -30.1370   23.9700 C   0  0  0  0  0  3  0  0  0  0  0  0
  -17.6340  -30.6400   24.1420 C   0  0  0  0  0  3  0  0  0  0  0  0
  -16.5260  -29.8770   23.7320 C   0  0  0  0  0  3  0  0  0  0  0  0
  -16.7240  -28.6160   23.1430 C   0  0  0  0  0  3  0  0  0  0  0  0
  -25.8830  -32.5310   23.8590 C   0  0  0  0  0  3  0  0  0  0  0  0
  -25.5720  -33.9310   24.1830 N   0  0  0  0  0  0  0  0  0  0  0  0
  -25.9070  -34.9830   23.4240 C   0  0  0  0  0  0  0  0  0  0  0  0
  -26.5780  -34.8760   22.3950 O   0  0  0  0  0  0  0  0  0  0  0  0
  -24.9770  -34.0900   24.9830 H   0  0  0  0  0  0  0  0  0  0  0  0
  -24.1840  -36.7800   23.0610 C   0  0  0  0  0  1  0  0  0  0  0  0
  -25.4200  -36.3730   23.8780 C   0  0  0  0  0  3  0  0  0  0  0  0
  -27.5510  -37.2560   24.7180 C   0  0  0  0  0  1  0  0  0  0  0  0
  -26.4550  -37.4240   23.7680 N   0  0  0  0  0  0  0  0  0  0  0  0
  -26.0510  -38.3460   23.9100 H   0  0  0  0  0  0  0  0  0  0  0  0
  -26.3970  -31.7650   25.1400 C   0  0  1  0  0  0  0  0  0  0  0  0
  -25.3030  -31.5350   26.2080 C   0  0  0  0  0  1  0  0  0  0  0  0
  -26.9810  -30.3840   24.7610 C   0  0  0  0  0  1  0  0  0  0  0  0
  -27.5470  -32.5650   25.7970 C   0  0  0  0  0  1  0  0  0  0  0  0
  2 11  1  0
  2  1  2  0
  3  4  2  0
  3  2  1  0
  4  5  1  0
  5  1  1  0
  5 51  1  0
  6  8  1  0
  8  7  1  0
  8  3  1  0
  9 10  1  0
 10  4  1  0
 11 12  2  0
 12 21  1  0
 13 21  1  0
 14 19  1  0
 15 16  1  0
 15 14  1  0
 17 16  1  0
 17 26  1  0
 17 18  1  0
 19 13  1  0
 19 18  1  0
 20 13  2  0
 21 22  1  0
 23 24  2  0
 24 43  1  0
 25 24  1  0
 25 28  1  0
 26 23  1  0
 26 27  1  0
 27 25  2  0
 28 29  1  0
 29 30  2  0
 31 34  1  0
 31 30  1  0
 32 31  2  0
 33 32  1  0
 33 28  2  0
 34 35  1  0
 35 36  1  0
 36 37  2  0
 38 37  1  0
 38 42  1  0
 39 38  2  0
 40 35  2  0
 40 39  1  0
 41 40  1  0
 43 44  1  0
 44 47  1  0
 44 46  1  0
 45 43  2  0
 48 49  1  0
 48 23  1  0
 50 48  1  0
 52 53  1  0
 52 51  2  0
 54 65  2  0
 55 53  1  0
 55 60  1  0
 56 64  1  0
 56 66  1  0
 57 63  1  0
 57 59  1  0
 58 64  1  0
 59 60  2  0
 59 58  1  0
 61 55  2  0
 62 61  1  0
 62 57  2  0
 63 56  1  0
 64 54  1  0
 66 68  2  0
 67 66  1  0
 69 67  1  0
 70 79  2  0
 70 75  1  0
 71 67  1  0
 71 75  1  0
 72 71  1  0
 73 74  1  0
 73 72  1  0
 74 70  1  0
 75 76  2  0
 76 77  1  0
 78 77  2  0
 79 78  1  0
 80 54  1  0
 80 81  1  0
 80 90  1  0
 81 84  1  0
 82 86  1  0
 82 81  1  0
 83 82  2  0
 86 85  1  0
 88 86  1  0
 88 89  1  0
 88 87  1  0
 90 93  1  1
 90 91  1  0
 92 90  1  0
M  ISO  4  13 100  21 100  52 101  53 101
M  END
>  <TORSDO>  (59) 
F 22

>  <SCORE>  (59) 
-13.269

>  <name>  (59) 
58

>  <ligand_id>  (59) 
58

>  <original_smiles>  (59) 
[H]c1c([H])c([H])c2c(c1[H])C([H])([H])C([H])([H])C([H])([H])C2([H])N([H])C(=O)C1([H])N(C(=O)C([H])(N([H])C(=O)C([H])(N([H])C([H])([H])[H])C([H])([H])[H])C(C([H])([H])[H])(C([H])([H])[H])C([H])([H])[H])C([H])([H])c2c([H])c(OC([H])([H])C([H])([H])n3c([H])c(C([H])([H])C([H])([H])N([H])C(=O)N4C([H])([H])C([H])([H])C([H])([H])C([H])(n5nc(-c6c([H])c([H])c(Oc7c([H])c([H])c(F)c([H])c7F)c([H])c6[H])c(C(=O)N([H])[H])c5N([H])[H])C4([H])[H])c(C([H])(C([H])([H])[H])C([H])([H])[H])c3C([H])([H])C([H])([H])[H])c([H])c([H])c2C1([H])[H]

>  <smiles>  (59) 
[H]c1c([H])c([H])c2c(c1[H])C([H])([H])C([H])([H])C([H])([H])C2([H])N([H])C(=O)C1([H])N(C(=O)C([H])(N([H])C(=O)C([H])(N([H])C([H])([H])[H])C([H])([H])[H])C(C([H])([H])[H])(C([H])([H])[H])C([H])([H])[H])C([H])([H])c2c([H])c(OC([H])([H])C([H])([H])n3c([H])c(C([H])([H])C([H])([H])N([H])C(=O)N4C([H])([H])C([H])([H])C([H])([H])C([H])(n5nc(-c6c([H])c([H])c(Oc7c([H])c([H])c(F)c([H])c7F)c([H])c6[H])c(C(=O)N([H])[H])c5N([H])[H])C4([H])[H])c(C([H])(C([H])([H])[H])C([H])([H])[H])c3C([H])([H])C([H])([H])[H])c([H])c([H])c2C1([H])[H]

$$$$
59:0:0
     RDKit          3D

 90 98  0  0  1  0  0  0  0  0999 V2000
  -28.8930  -21.6300   20.4700 C   0  0  0  0  0  3  0  0  0  0  0  0
  -30.3640  -18.6390   18.4710 C   0  0  0  0  0  3  0  0  0  0  0  0
  -29.9130  -20.8160   18.3340 C   0  0  0  0  0  3  0  0  0  0  0  0
  -30.4490  -19.7770   17.6350 C   0  0  0  0  0  0  0  0  0  0  0  0
  -29.8250  -18.9570   19.6890 C   0  0  0  0  0  0  0  0  0  0  0  0
  -31.0350  -19.8370   16.2480 C   0  0  0  0  0  1  0  0  0  0  0  0
  -29.5050  -20.4390   19.6120 N   0  0  0  0  0  0  0  0  0  0  0  0
  -29.7970  -17.7410   20.7700 C   0  0  0  0  0  2  0  0  0  0  0  0
  -30.5190  -15.0270   20.3290 C   0  0  0  0  0  0  0  0  0  0  0  0
  -30.4250  -12.6720   19.3710 C   0  0  0  0  0  2  0  0  0  0  0  0
  -29.4730  -12.6160   18.1520 C   0  0  0  0  0  2  0  0  0  0  0  0
  -28.0170  -12.3850   18.6050 C   0  0  0  0  0  2  0  0  0  0  0  0
  -27.6150  -13.3020   19.7890 C   0  0  0  0  0  3  0  0  0  0  0  0
  -28.6870  -13.3250   20.8980 C   0  0  0  0  0  2  0  0  0  0  0  0
  -29.9410  -13.7570   20.2680 N   0  0  0  0  0  0  0  0  0  0  0  0
  -31.7330  -15.1050   20.1130 O   0  0  0  0  0  0  0  0  0  0  0  0
  -29.6910  -16.1840   20.4280 N   0  0  0  0  0  0  0  0  0  0  0  0
  -28.7250  -15.9010   20.4220 H   0  0  0  0  0  0  0  0  0  0  0  0
  -25.2450  -13.8640   20.5730 C   0  0  0  0  0  0  0  0  0  0  0  0
  -24.1900  -13.0810   20.9550 C   0  0  0  0  0  0  0  0  0  0  0  0
  -24.6580  -11.7340   20.9050 C   0  0  0  0  0  0  0  0  0  0  0  0
  -26.2870  -12.9910   20.3080 N   0  0  0  0  0  0  0  0  0  0  0  0
  -25.9450  -11.7040   20.5740 N   0  0  0  0  0  0  0  0  0  0  0  0
  -23.9370  -10.4680   21.0940 C   0  0  0  0  0  0  0  0  0  0  0  0
  -24.3810   -9.4920   22.0130 C   0  0  0  0  0  3  0  0  0  0  0  0
  -23.6570   -8.2930   22.1890 C   0  0  0  0  0  3  0  0  0  0  0  0
  -22.4750   -8.0600   21.4470 C   0  0  0  0  0  0  0  0  0  0  0  0
  -22.0520   -9.0240   20.5140 C   0  0  0  0  0  3  0  0  0  0  0  0
  -22.7780  -10.2140   20.3350 C   0  0  0  0  0  3  0  0  0  0  0  0
  -21.7200   -6.9150   21.5360 O   0  0  0  0  0  0  0  0  0  0  0  0
  -21.6850   -6.1620   22.6810 C   0  0  0  0  0  0  0  0  0  0  0  0
  -21.2660   -6.7020   23.9170 C   0  0  0  0  0  3  0  0  0  0  0  0
  -21.1800   -5.8750   25.0540 C   0  0  0  0  0  3  0  0  0  0  0  0
  -21.5000   -4.5080   24.9580 C   0  0  0  0  0  0  0  0  0  0  0  0
  -21.9140   -3.9670   23.7280 C   0  0  0  0  0  3  0  0  0  0  0  0
  -22.0020   -4.7900   22.5920 C   0  0  0  0  0  0  0  0  0  0  0  0
  -22.3800   -4.2590   21.4050 F   0  0  0  0  0  0  0  0  0  0  0  0
  -21.4100   -3.7110   26.0490 F   0  0  0  0  0  0  0  0  0  0  0  0
  -22.7950  -13.5550   21.2460 C   0  0  0  0  0  0  0  0  0  0  0  0
  -22.0730  -12.8470   22.1090 N   0  0  0  0  0  0  0  0  0  0  0  0
  -22.3520  -14.5860   20.7420 O   0  0  0  0  0  0  0  0  0  0  0  0
  -22.4430  -12.0130   22.5430 H   0  0  0  0  0  0  0  0  0  0  0  0
  -21.1370  -13.1460   22.3410 H   0  0  0  0  0  0  0  0  0  0  0  0
  -25.3960  -15.2360   20.4030 N   0  0  0  0  0  0  0  0  0  0  0  0
  -24.6140  -15.8730   20.5080 H   0  0  0  0  0  0  0  0  0  0  0  0
  -26.2180  -15.6830   20.0220 H   0  0  0  0  0  0  0  0  0  0  0  0
  -28.8270  -23.2520   19.9000 C   0  0  0  0  0  3  0  0  0  0  0  0
  -26.7030  -24.2400   21.0300 C   0  0  0  0  0  1  0  0  0  0  0  0
  -28.1430  -24.6190   20.6480 C   0  0  0  0  0  3  0  0  0  0  0  0
  -28.2680  -26.1420   20.2230 O   0  0  0  0  0  0  0  0  0  0  0  0
  -24.5950  -31.8520   23.2360 C   0  0  0  0  0  0  0  0  0  0  0  0
  -27.2040  -27.1300   20.2160 C   0  0  0  0  0  0  0  0  0  0  0  0
  -23.4130  -30.4590   21.5800 C   0  0  0  0  0  3  0  0  0  0  0  0
  -24.8780  -28.8890   20.1680 C   0  0  0  0  0  0  0  0  0  0  0  0
  -25.9710  -30.7200   21.4470 C   0  0  0  0  0  2  0  0  0  0  0  0
  -26.0510  -29.3270   20.7940 C   0  0  0  0  0  0  0  0  0  0  0  0
  -27.2150  -28.4630   20.8030 C   0  0  0  0  0  3  0  0  0  0  0  0
  -26.0150  -26.8170   19.5230 C   0  0  0  0  0  3  0  0  0  0  0  0
  -24.8730  -27.6450   19.5180 C   0  0  0  0  0  3  0  0  0  0  0  0
  -23.6530  -29.7890   20.2020 C   0  0  0  0  0  2  0  0  0  0  0  0
  -24.6790  -31.0340   22.1410 N   0  0  0  0  0  0  0  0  0  0  0  0
  -23.5030  -32.1320   23.7520 O   0  0  0  0  0  0  0  0  0  0  0  0
  -22.7270  -29.4480   22.5340 C   0  0  0  0  0  0  0  0  0  0  0  0
  -21.4000  -29.2830   22.4040 N   0  0  0  0  0  0  0  0  0  0  0  0
  -23.3930  -28.8130   23.3560 O   0  0  0  0  0  0  0  0  0  0  0  0
  -20.9180  -29.8460   21.7170 H   0  0  0  0  0  0  0  0  0  0  0  0
  -18.0100  -28.1040   22.9080 C   0  0  0  0  0  0  0  0  0  0  0  0
  -20.5740  -28.3440   23.1670 C   0  0  0  0  0  3  0  0  0  0  0  0
  -20.6600  -26.9170   22.5760 C   0  0  0  0  0  2  0  0  0  0  0  0
  -19.5520  -26.6160   21.5620 C   0  0  0  0  0  2  0  0  0  0  0  0
  -18.1740  -26.7620   22.2140 C   0  0  0  0  0  2  0  0  0  0  0  0
  -19.1360  -28.8530   23.3410 C   0  0  0  0  0  0  0  0  0  0  0  0
  -18.9280  -30.1080   23.9530 C   0  0  0  0  0  3  0  0  0  0  0  0
  -17.6270  -30.6150   24.1320 C   0  0  0  0  0  3  0  0  0  0  0  0
  -16.5160  -29.8640   23.7130 C   0  0  0  0  0  3  0  0  0  0  0  0
  -16.7080  -28.6100   23.1070 C   0  0  0  0  0  3  0  0  0  0  0  0
  -25.8650  -32.4900   23.8780 C   0  0  0  0  0  3  0  0  0  0  0  0
  -26.3630  -31.7230   25.1640 C   0  0  1  0  0  0  0  0  0  0  0  0
  -25.2560  -31.4890   26.2180 C   0  0  0  0  0  1  0  0  0  0  0  0
  -26.9510  -30.3430   24.7890 C   0  0  0  0  0  1  0  0  0  0  0  0
  -27.5040  -32.5190   25.8370 C   0  0  0  0  0  1  0  0  0  0  0  0
  -25.5460  -33.8880   24.2070 N   0  0  0  0  0  0  0  0  0  0  0  0
  -25.8820  -34.9480   23.4590 C   0  0  0  0  0  0  0  0  0  0  0  0
  -26.5620  -34.8520   22.4350 O   0  0  0  0  0  0  0  0  0  0  0  0
  -24.9440  -34.0370   25.0040 H   0  0  0  0  0  0  0  0  0  0  0  0
  -24.1580  -36.7450   23.1000 C   0  0  0  0  0  1  0  0  0  0  0  0
  -25.3890  -36.3340   23.9230 C   0  0  0  0  0  3  0  0  0  0  0  0
  -27.5140  -37.2140   24.7840 C   0  0  0  0  0  1  0  0  0  0  0  0
  -26.4230  -37.3890   23.8290 N   0  0  0  0  0  0  0  0  0  0  0  0
  -26.0140  -38.3080   23.9800 H   0  0  0  0  0  0  0  0  0  0  0  0
  2  5  2  0
  3  7  1  0
  4  3  2  0
  4  2  1  0
  5  8  1  0
  6  4  1  0
  7  5  1  0
  7  1  1  0
  9 17  1  0
 10 15  1  0
 11 12  1  0
 11 10  1  0
 13 12  1  0
 13 22  1  0
 13 14  1  0
 15  9  1  0
 15 14  1  0
 16  9  2  0
 17  8  1  0
 18 17  1  0
 19 20  2  0
 20 39  1  0
 21 20  1  0
 21 24  1  0
 22 19  1  0
 22 23  1  0
 23 21  2  0
 24 25  1  0
 25 26  2  0
 27 30  1  0
 27 26  1  0
 28 27  2  0
 29 28  1  0
 29 24  2  0
 30 31  1  0
 31 32  1  0
 32 33  2  0
 34 33  1  0
 34 38  1  0
 35 34  2  0
 36 31  2  0
 36 35  1  0
 37 36  1  0
 39 40  1  0
 40 43  1  0
 40 42  1  0
 41 39  2  0
 44 45  1  0
 44 19  1  0
 46 44  1  0
 47  1  2  0
 47 49  1  0
 49 48  1  0
 50 49  1  0
 51 62  2  0
 52 50  1  0
 52 57  1  0
 53 61  1  0
 53 63  1  0
 54 60  1  0
 54 56  1  0
 55 61  1  0
 56 57  2  0
 56 55  1  0
 58 52  2  0
 59 58  1  0
 59 54  2  0
 60 53  1  0
 61 51  1  0
 63 65  2  0
 64 63  1  0
 66 64  1  0
 67 76  2  0
 67 72  1  0
 68 64  1  0
 68 72  1  0
 69 68  1  0
 70 71  1  0
 70 69  1  0
 71 67  1  0
 72 73  2  0
 73 74  1  0
 75 74  2  0
 76 75  1  0
 77 51  1  0
 77 82  1  0
 77 78  1  0
 78 81  1  1
 78 79  1  0
 80 78  1  0
 82 85  1  0
 83 87  1  0
 83 82  1  0
 84 83  2  0
 87 86  1  0
 89 87  1  0
 89 90  1  0
 89 88  1  0
M  ISO  4   9 100  17 100  49 101  50 101
M  END
>  <TORSDO>  (60) 
F 20

>  <SCORE>  (60) 
-14.791

>  <name>  (60) 
59

>  <ligand_id>  (60) 
59

>  <original_smiles>  (60) 
[H]c1c([H])c([H])c2c(c1[H])C([H])([H])C([H])([H])C([H])([H])C2([H])N([H])C(=O)C1([H])N(C(=O)C([H])(N([H])C(=O)C([H])(N([H])C([H])([H])[H])C([H])([H])[H])C(C([H])([H])[H])(C([H])([H])[H])C([H])([H])[H])C([H])([H])c2c([H])c(OC([H])(C([H])([H])[H])C([H])([H])C([H])([H])n3c([H])c(C([H])([H])[H])c([H])c3C([H])([H])N([H])C(=O)N3C([H])([H])C([H])([H])C([H])([H])C([H])(n4nc(-c5c([H])c([H])c(Oc6c([H])c([H])c(F)c([H])c6F)c([H])c5[H])c(C(=O)N([H])[H])c4N([H])[H])C3([H])[H])c([H])c([H])c2C1([H])[H]

>  <smiles>  (60) 
[H]c1c([H])c([H])c2c(c1[H])C([H])([H])C([H])([H])C([H])([H])C2([H])N([H])C(=O)C1([H])N(C(=O)C([H])(N([H])C(=O)C([H])(N([H])C([H])([H])[H])C([H])([H])[H])C(C([H])([H])[H])(C([H])([H])[H])C([H])([H])[H])C([H])([H])c2c([H])c(OC([H])(C([H])([H])[H])C([H])([H])C([H])([H])n3c([H])c(C([H])([H])[H])c([H])c3C([H])([H])N([H])C(=O)N3C([H])([H])C([H])([H])C([H])([H])C([H])(n4nc(-c5c([H])c([H])c(Oc6c([H])c([H])c(F)c([H])c6F)c([H])c5[H])c(C(=O)N([H])[H])c4N([H])[H])C3([H])[H])c([H])c([H])c2C1([H])[H]

$$$$
60:0:0
     RDKit          3D

 91 99  0  0  1  0  0  0  0  0999 V2000
  -28.7200  -21.1980   20.6380 C   0  0  0  0  0  3  0  0  0  0  0  0
  -30.2120  -20.3120   19.0170 C   0  0  0  0  0  3  0  0  0  0  0  0
  -29.4340  -19.9220   20.1270 C   0  0  0  0  0  0  0  0  0  0  0  0
  -28.7880  -22.6510   20.1000 C   0  0  0  0  0  0  0  0  0  0  0  0
  -30.3050  -21.6620   18.5390 C   0  0  0  0  0  0  0  0  0  0  0  0
  -29.6120  -22.7390   19.0330 N   0  0  0  0  0  0  0  0  0  0  0  0
  -32.1930  -20.8740   16.9620 C   0  0  0  0  0  1  0  0  0  0  0  0
  -32.1410  -23.2210   17.7470 C   0  0  0  0  0  1  0  0  0  0  0  0
  -30.3920  -22.3900   16.1270 C   0  0  0  0  0  1  0  0  0  0  0  0
  -31.2410  -22.0260   17.3610 C   0  0  2  0  0  0  0  0  0  0  0  0
  -29.6780  -18.2790   20.7470 C   0  0  0  0  0  2  0  0  0  0  0  0
  -30.3890  -15.3850   20.2210 C   0  0  0  0  0  0  0  0  0  0  0  0
  -30.3950  -12.9310   19.3100 C   0  0  0  0  0  2  0  0  0  0  0  0
  -29.4570  -12.6580   18.1060 C   0  0  0  0  0  2  0  0  0  0  0  0
  -28.0220  -12.3630   18.5790 C   0  0  0  0  0  2  0  0  0  0  0  0
  -27.5680  -13.3350   19.6960 C   0  0  0  0  0  3  0  0  0  0  0  0
  -28.6340  -13.5270   20.7930 C   0  0  0  0  0  2  0  0  0  0  0  0
  -29.8270  -14.0740   20.1190 N   0  0  0  0  0  0  0  0  0  0  0  0
  -31.6240  -15.3690   20.1060 O   0  0  0  0  0  0  0  0  0  0  0  0
  -29.6110  -16.6670   20.2350 N   0  0  0  0  0  0  0  0  0  0  0  0
  -28.6470  -16.4390   20.0510 H   0  0  0  0  0  0  0  0  0  0  0  0
  -25.2080  -13.8720   20.4910 C   0  0  0  0  0  0  0  0  0  0  0  0
  -24.1570  -13.0860   20.8690 C   0  0  0  0  0  0  0  0  0  0  0  0
  -24.6340  -11.7390   20.8290 C   0  0  0  0  0  0  0  0  0  0  0  0
  -26.2550  -13.0050   20.2310 N   0  0  0  0  0  0  0  0  0  0  0  0
  -25.9230  -11.7160   20.5050 N   0  0  0  0  0  0  0  0  0  0  0  0
  -23.9170  -10.4710   21.0220 C   0  0  0  0  0  0  0  0  0  0  0  0
  -24.3610   -9.5040   21.9500 C   0  0  0  0  0  3  0  0  0  0  0  0
  -23.6410   -8.3040   22.1320 C   0  0  0  0  0  3  0  0  0  0  0  0
  -22.4620   -8.0630   21.3870 C   0  0  0  0  0  0  0  0  0  0  0  0
  -22.0370   -9.0200   20.4490 C   0  0  0  0  0  3  0  0  0  0  0  0
  -22.7580  -10.2110   20.2640 C   0  0  0  0  0  3  0  0  0  0  0  0
  -21.7120   -6.9160   21.4790 O   0  0  0  0  0  0  0  0  0  0  0  0
  -21.6750   -6.1700   22.6310 C   0  0  0  0  0  0  0  0  0  0  0  0
  -21.2570   -6.7220   23.8610 C   0  0  0  0  0  3  0  0  0  0  0  0
  -21.1670   -5.9030   25.0050 C   0  0  0  0  0  3  0  0  0  0  0  0
  -21.4870   -4.5340   24.9190 C   0  0  0  0  0  0  0  0  0  0  0  0
  -21.8990   -3.9830   23.6930 C   0  0  0  0  0  3  0  0  0  0  0  0
  -21.9900   -4.7990   22.5520 C   0  0  0  0  0  0  0  0  0  0  0  0
  -22.3670   -4.2570   21.3680 F   0  0  0  0  0  0  0  0  0  0  0  0
  -21.3940   -3.7460   26.0150 F   0  0  0  0  0  0  0  0  0  0  0  0
  -22.7590  -13.5520   21.1500 C   0  0  0  0  0  0  0  0  0  0  0  0
  -22.0420  -12.8510   22.0190 N   0  0  0  0  0  0  0  0  0  0  0  0
  -22.3120  -14.5770   20.6330 O   0  0  0  0  0  0  0  0  0  0  0  0
  -22.4170  -12.0210   22.4550 H   0  0  0  0  0  0  0  0  0  0  0  0
  -21.1050  -13.1450   22.2520 H   0  0  0  0  0  0  0  0  0  0  0  0
  -25.3560  -15.2450   20.3150 N   0  0  0  0  0  0  0  0  0  0  0  0
  -24.5820  -15.8890   20.4380 H   0  0  0  0  0  0  0  0  0  0  0  0
  -26.1910  -15.6940   19.9620 H   0  0  0  0  0  0  0  0  0  0  0  0
  -27.9240  -24.1580   20.4790 C   0  0  0  0  0  2  0  0  0  0  0  0
  -28.2120  -25.7950   20.2690 O   0  0  0  0  0  0  0  0  0  0  0  0
  -24.6380  -31.8670   23.1840 C   0  0  0  0  0  0  0  0  0  0  0  0
  -27.2050  -26.9150   20.2460 C   0  0  0  0  0  0  0  0  0  0  0  0
  -23.4550  -30.4520   21.5560 C   0  0  0  0  0  3  0  0  0  0  0  0
  -24.9110  -28.8240   20.1660 C   0  0  0  0  0  0  0  0  0  0  0  0
  -26.0260  -30.6510   21.4250 C   0  0  0  0  0  2  0  0  0  0  0  0
  -26.0990  -29.2280   20.7870 C   0  0  0  0  0  0  0  0  0  0  0  0
  -27.2420  -28.2980   20.7940 C   0  0  0  0  0  3  0  0  0  0  0  0
  -25.9840  -26.6760   19.5750 C   0  0  0  0  0  3  0  0  0  0  0  0
  -24.8810  -27.5700   19.5370 C   0  0  0  0  0  3  0  0  0  0  0  0
  -23.6930  -29.7520   20.1910 C   0  0  0  0  0  2  0  0  0  0  0  0
  -24.7280  -31.0190   22.1080 N   0  0  0  0  0  0  0  0  0  0  0  0
  -23.5450  -32.1640   23.6930 O   0  0  0  0  0  0  0  0  0  0  0  0
  -22.7510  -29.4720   22.5310 C   0  0  0  0  0  0  0  0  0  0  0  0
  -21.4190  -29.3200   22.4140 N   0  0  0  0  0  0  0  0  0  0  0  0
  -23.4140  -28.8450   23.3620 O   0  0  0  0  0  0  0  0  0  0  0  0
  -20.9360  -29.8750   21.7220 H   0  0  0  0  0  0  0  0  0  0  0  0
  -18.0260  -28.1460   22.9540 C   0  0  0  0  0  0  0  0  0  0  0  0
  -20.5910  -28.3920   23.1940 C   0  0  0  0  0  3  0  0  0  0  0  0
  -20.6750  -26.9560   22.6240 C   0  0  0  0  0  2  0  0  0  0  0  0
  -19.5620  -26.6400   21.6200 C   0  0  0  0  0  2  0  0  0  0  0  0
  -18.1860  -26.7960   22.2750 C   0  0  0  0  0  2  0  0  0  0  0  0
  -19.1540  -28.9020   23.3700 C   0  0  0  0  0  0  0  0  0  0  0  0
  -18.9470  -30.1640   23.9690 C   0  0  0  0  0  3  0  0  0  0  0  0
  -17.6460  -30.6700   24.1510 C   0  0  0  0  0  3  0  0  0  0  0  0
  -16.5330  -29.9130   23.7470 C   0  0  0  0  0  3  0  0  0  0  0  0
  -16.7240  -28.6510   23.1540 C   0  0  0  0  0  3  0  0  0  0  0  0
  -25.9040  -32.5200   23.8170 C   0  0  0  0  0  3  0  0  0  0  0  0
  -26.4060  -31.7660   25.1100 C   0  0  1  0  0  0  0  0  0  0  0  0
  -25.3040  -31.5410   26.1720 C   0  0  0  0  0  1  0  0  0  0  0  0
  -26.9960  -30.3840   24.7510 C   0  0  0  0  0  1  0  0  0  0  0  0
  -27.5500  -32.5700   25.7720 C   0  0  0  0  0  1  0  0  0  0  0  0
  -25.5780  -33.9200   24.1460 N   0  0  0  0  0  0  0  0  0  0  0  0
  -25.9130  -34.9820   23.4020 C   0  0  0  0  0  0  0  0  0  0  0  0
  -26.5890  -34.8880   22.3740 O   0  0  0  0  0  0  0  0  0  0  0  0
  -24.9780  -34.0670   24.9440 H   0  0  0  0  0  0  0  0  0  0  0  0
  -24.1880  -36.7840   23.0530 C   0  0  0  0  0  1  0  0  0  0  0  0
  -25.4230  -36.3690   23.8690 C   0  0  0  0  0  3  0  0  0  0  0  0
  -27.5490  -37.2510   24.7220 C   0  0  0  0  0  1  0  0  0  0  0  0
  -26.4550  -37.4240   23.7700 N   0  0  0  0  0  0  0  0  0  0  0  0
  -26.0470  -38.3430   23.9190 H   0  0  0  0  0  0  0  0  0  0  0  0
  2  3  2  0
  3  1  1  0
  3 11  1  0
  4 50  1  0
  4  1  2  0
  5  2  1  0
  5  6  2  0
  6  4  1  0
 10  7  1  6
  9 10  1  0
 10  8  1  0
 10  5  1  0
 12 20  1  0
 13 18  1  0
 14 15  1  0
 14 13  1  0
 16 15  1  0
 16 25  1  0
 16 17  1  0
 18 12  1  0
 18 17  1  0
 19 12  2  0
 20 11  1  0
 21 20  1  0
 22 23  2  0
 23 42  1  0
 24 23  1  0
 24 27  1  0
 25 22  1  0
 25 26  1  0
 26 24  2  0
 27 28  1  0
 28 29  2  0
 30 33  1  0
 30 29  1  0
 31 30  2  0
 32 31  1  0
 32 27  2  0
 33 34  1  0
 34 35  1  0
 35 36  2  0
 37 36  1  0
 37 41  1  0
 38 37  2  0
 39 34  2  0
 39 38  1  0
 40 39  1  0
 42 43  1  0
 43 46  1  0
 43 45  1  0
 44 42  2  0
 47 48  1  0
 47 22  1  0
 49 47  1  0
 51 50  1  0
 52 63  2  0
 53 51  1  0
 53 58  1  0
 54 62  1  0
 54 64  1  0
 55 61  1  0
 55 57  1  0
 56 62  1  0
 57 58  2  0
 57 56  1  0
 59 53  2  0
 60 59  1  0
 60 55  2  0
 61 54  1  0
 62 52  1  0
 64 66  2  0
 65 64  1  0
 67 65  1  0
 68 77  2  0
 68 73  1  0
 69 65  1  0
 69 73  1  0
 70 69  1  0
 71 72  1  0
 71 70  1  0
 72 68  1  0
 73 74  2  0
 74 75  1  0
 76 75  2  0
 77 76  1  0
 78 52  1  0
 78 83  1  0
 78 79  1  0
 79 82  1  1
 79 80  1  0
 81 79  1  0
 83 86  1  0
 84 88  1  0
 84 83  1  0
 85 84  2  0
 88 87  1  0
 90 88  1  0
 90 91  1  0
 90 89  1  0
M  ISO  4  12 100  20 100  50 101  51 101
M  END
>  <TORSDO>  (61) 
F 19

>  <SCORE>  (61) 
-16.148

>  <name>  (61) 
60

>  <ligand_id>  (61) 
60

>  <original_smiles>  (61) 
[H]c1c([H])c([H])c2c(c1[H])C([H])([H])C([H])([H])C([H])([H])C2([H])N([H])C(=O)C1([H])N(C(=O)C([H])(N([H])C(=O)C([H])(N([H])C([H])([H])[H])C([H])([H])[H])C(C([H])([H])[H])(C([H])([H])[H])C([H])([H])[H])C([H])([H])c2c([H])c(OC([H])([H])c3nc(C(C([H])([H])[H])(C([H])([H])[H])C([H])([H])[H])c([H])c(C([H])([H])N([H])C(=O)N4C([H])([H])C([H])([H])C([H])([H])C([H])(n5nc(-c6c([H])c([H])c(Oc7c([H])c([H])c(F)c([H])c7F)c([H])c6[H])c(C(=O)N([H])[H])c5N([H])[H])C4([H])[H])c3[H])c([H])c([H])c2C1([H])[H]

>  <smiles>  (61) 
[H]c1c([H])c([H])c2c(c1[H])C([H])([H])C([H])([H])C([H])([H])C2([H])N([H])C(=O)C1([H])N(C(=O)C([H])(N([H])C(=O)C([H])(N([H])C([H])([H])[H])C([H])([H])[H])C(C([H])([H])[H])(C([H])([H])[H])C([H])([H])[H])C([H])([H])c2c([H])c(OC([H])([H])c3nc(C(C([H])([H])[H])(C([H])([H])[H])C([H])([H])[H])c([H])c(C([H])([H])N([H])C(=O)N4C([H])([H])C([H])([H])C([H])([H])C([H])(n5nc(-c6c([H])c([H])c(Oc7c([H])c([H])c(F)c([H])c7F)c([H])c6[H])c(C(=O)N([H])[H])c5N([H])[H])C4([H])[H])c3[H])c([H])c([H])c2C1([H])[H]

$$$$
61:0:0
     RDKit          3D

 91 94  0  0  1  0  0  0  0  0999 V2000
  -29.3400  -16.1670   21.2630 C   0  0  0  0  0  3  0  0  0  0  0  0
  -29.4780  -17.7440   21.0050 C   0  0  0  0  0  2  0  0  0  0  0  0
  -28.5670  -14.8560   20.6700 C   0  0  0  0  0  2  0  0  0  0  0  0
  -28.6140  -18.7890   20.3020 C   0  0  0  0  0  3  0  0  0  0  0  0
  -27.6040  -16.1670   20.6470 C   0  0  1  0  0  0  0  0  0  0  0  0
  -26.6740  -16.1620   21.8820 C   0  0  0  0  0  1  0  0  0  0  0  0
  -27.6120  -17.6760   20.1950 N   0  0  0  0  0  0  0  0  0  0  0  0
  -29.7890  -13.2060   18.5310 C   0  0  0  0  0  1  0  0  0  0  0  0
  -32.1840  -12.7460   17.3570 C   0  0  0  0  0  1  0  0  0  0  0  0
  -31.1750  -13.7660   17.9300 C   0  0  0  0  0  3  0  0  0  0  0  0
  -31.6580  -14.5160   19.1190 C   0  0  0  0  0  0  0  0  0  0  0  0
  -30.7620  -13.1970   20.7110 C   0  0  0  0  0  3  0  0  0  0  0  0
  -29.5560  -11.8680   20.5870 C   0  0  0  0  0  3  0  0  0  0  0  0
  -28.2570  -11.7020   19.4950 C   0  0  0  0  0  2  0  0  0  0  0  0
  -27.5480  -13.2410   19.0920 C   0  0  0  0  0  2  0  0  0  0  0  0
  -28.7910  -14.9770   18.6940 C   0  0  0  0  0 15  0  0  0  0  0  0
  -30.5970  -14.7030   19.7040 N   0  0  0  0  0  2  0  0  0  0  0  0
  -32.7620  -14.5320   19.6320 O   0  0  0  0  0  0  0  0  0  0  0  0
  -25.2470  -13.6390   20.2510 C   0  0  0  0  0  3  0  0  0  0  0  0
  -24.2840  -12.8100   20.7720 C   0  0  0  0  0  0  0  0  0  0  0  0
  -24.7990  -11.4940   20.8250 C   0  0  0  0  0  0  0  0  0  0  0  0
  -26.3800  -12.9280   20.0620 N   0  0  0  0  0  0  0  0  0  0  0  0
  -26.0620  -11.6370   20.5600 N   0  0  0  0  0  2  0  0  0  0  0  0
  -24.1530  -10.1580   21.0030 C   0  0  0  0  0  0  0  0  0  0  0  0
  -24.6010   -9.1800   21.9250 C   0  0  0  0  0  3  0  0  0  0  0  0
  -23.8940   -7.9630   22.1020 C   0  0  0  0  0  3  0  0  0  0  0  0
  -22.7230   -7.6960   21.3530 C   0  0  0  0  0  0  0  0  0  0  0  0
  -22.3070   -8.6430   20.4010 C   0  0  0  0  0  3  0  0  0  0  0  0
  -23.0130   -9.8510   20.2270 C   0  0  0  0  0  3  0  0  0  0  0  0
  -21.9750   -6.5430   21.4440 O   0  0  0  0  0  0  0  0  0  0  0  0
  -21.8800   -5.8220   22.6100 C   0  0  0  0  0  0  0  0  0  0  0  0
  -21.4220   -6.4010   23.8120 C   0  0  0  0  0  3  0  0  0  0  0  0
  -21.2790   -5.6090   24.9700 C   0  0  0  0  0  3  0  0  0  0  0  0
  -21.5870   -4.2340   24.9250 C   0  0  0  0  0  0  0  0  0  0  0  0
  -22.0320   -3.6520   23.7240 C   0  0  0  0  0  3  0  0  0  0  0  0
  -22.1730   -4.4430   22.5710 C   0  0  0  0  0  0  0  0  0  0  0  0
  -22.5800   -3.8680   21.4130 F   0  0  0  0  0  0  0  0  0  0  0  0
  -21.4480   -3.4720   26.0350 F   0  0  0  0  0  0  0  0  0  0  0  0
  -22.8800  -13.2040   21.0220 C   0  0  0  0  0  0  0  0  0  0  0  0
  -22.2000  -12.4950   21.9130 N   0  0  0  0  0  0  0  0  0  0  0  0
  -22.4040  -14.1870   20.4620 O   0  0  0  0  0  0  0  0  0  0  0  0
  -22.6150  -11.7050   22.3850 H   0  0  0  0  0  0  0  0  0  0  0  0
  -21.2480  -12.7530   22.1290 H   0  0  0  0  0  0  0  0  0  0  0  0
  -25.2210  -14.9450   19.8210 N   0  0  0  0  0  0  0  0  0  0  0  0
  -26.0110  -15.4460   19.4260 H   0  0  0  0  0  0  0  0  0  0  0  0
  -24.3830  -15.5120   19.8700 H   0  0  0  0  0  0  0  0  0  0  0  0
  -28.6980  -20.8660   20.2700 C   0  0  0  0  0  1  0  0  0  0  0  0
  -28.4460  -21.1960   21.6260 O   0  0  0  0  0  0  0  0  0  0  0  0
  -27.9540  -20.4650   21.9820 H   0  0  0  0  0  0  0  0  0  0  0  0
  -28.2570  -22.8650   19.5000 C   0  0  0  0  0 15  0  0  0  0  0  0
  -28.5160  -24.8140   19.5360 O   0  0  0  0  0  1  0  0  0  0  0  0
  -25.3700  -31.3910   22.9020 C   0  0  0  0  0  0  0  0  0  0  0  0
  -27.7180  -26.2640   19.5130 C   0  0  0  0  0  0  0  0  0  0  0  0
  -24.1780  -30.1390   21.1630 C   0  0  0  0  0  3  0  0  0  0  0  0
  -25.5990  -28.5890   19.5800 C   0  0  0  0  0  0  0  0  0  0  0  0
  -26.7630  -30.1980   21.0490 C   0  0  0  0  0  2  0  0  0  0  0  0
  -26.7970  -28.7910   20.2700 C   0  0  0  0  0  0  0  0  0  0  0  0
  -27.8330  -27.6690   20.1980 C   0  0  0  0  0  3  0  0  0  0  0  0
  -26.5360  -26.4060   18.7260 C   0  0  0  0  0  3  0  0  0  0  0  0
  -25.5370  -27.4420   18.7680 C   0  0  0  0  0  3  0  0  0  0  0  0
  -24.4150  -29.5760   19.7270 C   0  0  0  0  0  2  0  0  0  0  0  0
  -25.4670  -30.6170   21.7580 N   0  0  0  0  0  0  0  0  0  0  0  0
  -24.2770  -31.6400   23.4420 O   0  0  0  0  0  0  0  0  0  0  0  0
  -23.4740  -29.0760   22.0520 C   0  0  0  0  0  0  0  0  0  0  0  0
  -22.1330  -28.9570   21.9760 N   0  0  0  0  0  0  0  0  0  0  0  0
  -24.1490  -28.3590   22.7940 O   0  0  0  0  0  0  0  0  0  0  0  0
  -21.6310  -29.5900   21.3680 H   0  0  0  0  0  0  0  0  0  0  0  0
  -18.7530  -27.7330   22.5420 C   0  0  0  0  0  0  0  0  0  0  0  0
  -21.3300  -27.9430   22.6740 C   0  0  0  0  0  3  0  0  0  0  0  0
  -21.3690  -26.5920   21.9220 C   0  0  0  0  0  2  0  0  0  0  0  0
  -20.2040  -26.4120   20.9430 C   0  0  0  0  0  2  0  0  0  0  0  0
  -18.8660  -26.4840   21.6830 C   0  0  0  0  0  2  0  0  0  0  0  0
  -19.9090  -28.4260   22.9930 C   0  0  0  0  0  0  0  0  0  0  0  0
  -19.7430  -29.5950   23.7680 C   0  0  0  0  0  3  0  0  0  0  0  0
  -18.4580  -30.0720   24.0880 C   0  0  0  0  0  3  0  0  0  0  0  0
  -17.3180  -29.3760   23.6460 C   0  0  0  0  0  3  0  0  0  0  0  0
  -17.4670  -28.2070   22.8790 C   0  0  0  0  0  3  0  0  0  0  0  0
  -26.6230  -32.0140   23.5900 C   0  0  0  0  0  3  0  0  0  0  0  0
  -26.2300  -33.3000   24.2110 N   0  0  0  0  0  0  0  0  0  0  0  0
  -26.4670  -34.5170   23.7030 C   0  0  0  0  0  0  0  0  0  0  0  0
  -27.0890  -34.6820   22.6510 O   0  0  0  0  0  0  0  0  0  0  0  0
  -25.6650  -33.2360   25.0460 H   0  0  0  0  0  0  0  0  0  0  0  0
  -24.6250  -36.2380   23.8400 C   0  0  0  0  0  1  0  0  0  0  0  0
  -25.9350  -35.7450   24.4770 C   0  0  0  0  0  3  0  0  0  0  0  0
  -28.0610  -36.5870   25.3790 C   0  0  0  0  0  1  0  0  0  0  0  0
  -26.8980  -36.8680   24.5420 N   0  0  0  0  0  0  0  0  0  0  0  0
  -26.4490  -37.7080   24.8960 H   0  0  0  0  0  0  0  0  0  0  0  0
  -27.2510  -31.0730   24.6930 C   0  0  1  0  0  0  0  0  0  0  0  0
  -26.2340  -30.5890   25.7540 C   0  0  0  0  0  1  0  0  0  0  0  0
  -27.8890  -29.8160   24.0620 C   0  0  0  0  0  1  0  0  0  0  0  0
  -28.3920  -31.8140   25.4290 C   0  0  0  0  0  1  0  0  0  0  0  0
  1  3  1  0
  2  1  1  0
  4  2  1  0
  5  3  1  0
  5  1  1  0
  5  6  1  1
  7  4  2  0
  7  5  1  0
  9 10  1  0
 10  8  1  0
 10 11  1  0
 11 18  2  0
 11 17  1  0
 13 12  2  0
 14 13  1  0
 15 14  1  0
 15 22  1  0
 17 12  1  0
 19 44  1  0
 19 20  1  0
 20 21  2  0
 20 39  1  0
 21 24  1  0
 22 19  1  0
 22 23  1  0
 23 21  1  0
 24 25  1  0
 25 26  2  0
 27 30  1  0
 27 26  1  0
 28 27  2  0
 29 28  1  0
 29 24  2  0
 30 31  1  0
 31 32  1  0
 32 33  2  0
 34 33  1  0
 34 38  1  0
 35 34  2  0
 36 31  2  0
 36 35  1  0
 37 36  1  0
 39 40  1  0
 40 43  1  0
 40 42  1  0
 41 39  2  0
 44 46  1  0
 45 44  1  0
 47 48  1  0
 48 49  1  0
 52 63  2  0
 53 51  1  0
 53 58  1  0
 54 62  1  0
 54 64  1  0
 55 61  1  0
 55 57  1  0
 56 62  1  0
 57 56  1  0
 58 57  2  0
 59 60  1  0
 59 53  2  0
 60 55  2  0
 61 54  1  0
 62 52  1  0
 64 66  2  0
 65 64  1  0
 67 65  1  0
 68 77  2  0
 68 73  1  0
 69 65  1  0
 69 73  1  0
 70 69  1  0
 71 72  1  0
 71 70  1  0
 72 68  1  0
 73 74  2  0
 74 75  1  0
 76 75  2  0
 77 76  1  0
 78 52  1  0
 78 79  1  0
 78 88  1  0
 79 82  1  0
 80 79  1  0
 80 84  1  0
 81 80  2  0
 84 83  1  0
 84 86  1  0
 86 87  1  0
 86 85  1  0
 88 91  1  1
 88 89  1  0
 90 88  1  0
M  ISO  4  10 100  11 100  50 101  51 101
M  END
>  <TORSDO>  (62) 
F 21

>  <SCORE>  (62) 
-9.191

>  <name>  (62) 
61

>  <ligand_id>  (62) 
61

>  <original_smiles>  (62) 
[H]OC([H])(c1nc(C([H])([H])[H])c(C([H])([H])C([H])(C(=O)N2C([H])([H])C([H])([H])C([H])([H])C([H])(n3nc(-c4c([H])c([H])c(Oc5c([H])c([H])c(F)c([H])c5F)c([H])c4[H])c(C(=O)N([H])[H])c3N([H])[H])C2([H])[H])C([H])([H])[H])c([H])c1[H])C([H])([H])Oc1c([H])c([H])c2c(c1[H])C([H])([H])N(C(=O)C([H])(N([H])C(=O)C([H])(N([H])C([H])([H])[H])C([H])([H])[H])C(C([H])([H])[H])(C([H])([H])[H])C([H])([H])[H])C([H])(C(=O)N([H])C1([H])c3c([H])c([H])c([H])c([H])c3C([H])([H])C([H])([H])C1([H])[H])C2([H])[H]

>  <smiles>  (62) 
[H]OC([H])(c1nc(C([H])([H])[H])c(C([H])([H])C([H])(C(=O)N2C([H])([H])C([H])([H])C([H])([H])C([H])(n3nc(-c4c([H])c([H])c(Oc5c([H])c([H])c(F)c([H])c5F)c([H])c4[H])c(C(=O)N([H])[H])c3N([H])[H])C2([H])[H])C([H])([H])[H])c([H])c1[H])C([H])([H])Oc1c([H])c([H])c2c(c1[H])C([H])([H])N(C(=O)C([H])(N([H])C(=O)C([H])(N([H])C([H])([H])[H])C([H])([H])[H])C(C([H])([H])[H])(C([H])([H])[H])C([H])([H])[H])C([H])(C(=O)N([H])C1([H])c3c([H])c([H])c([H])c([H])c3C([H])([H])C([H])([H])C1([H])[H])C2([H])[H]

$$$$
62:0:0
     RDKit          3D

101106  0  0  1  0  0  0  0  0999 V2000
  -28.9570  -23.1660   21.5210 C   0  0  0  0  0  1  0  0  0  0  0  0
  -28.6620  -23.0500   20.0170 C   0  0  0  0  0  2  0  0  0  0  0  0
  -28.5530  -25.1550   19.9380 O   0  0  0  0  0  1  0  0  0  0  0  0
  -25.2860  -32.1810   23.2760 C   0  0  0  0  0  0  0  0  0  0  0  0
  -27.6360  -26.6390   20.0920 C   0  0  0  0  0  0  0  0  0  0  0  0
  -24.0500  -30.8270   21.6510 C   0  0  0  0  0  3  0  0  0  0  0  0
  -25.4340  -29.0780   20.1840 C   0  0  0  0  0  0  0  0  0  0  0  0
  -26.6480  -30.7720   21.5020 C   0  0  0  0  0  2  0  0  0  0  0  0
  -26.6690  -29.2880   20.8040 C   0  0  0  0  0  0  0  0  0  0  0  0
  -27.7210  -28.1270   20.7060 C   0  0  0  0  0  3  0  0  0  0  0  0
  -26.3580  -26.8050   19.4270 C   0  0  0  0  0  3  0  0  0  0  0  0
  -25.3540  -27.8660   19.4660 C   0  0  0  0  0  3  0  0  0  0  0  0
  -24.2660  -30.1140   20.2750 C   0  0  0  0  0  2  0  0  0  0  0  0
  -25.3620  -31.3080   22.1930 N   0  0  0  0  0  0  0  0  0  0  0  0
  -24.2030  -32.4970   23.8070 O   0  0  0  0  0  0  0  0  0  0  0  0
  -23.3080  -29.8830   22.6390 C   0  0  0  0  0  0  0  0  0  0  0  0
  -22.0350  -29.5150   22.3740 N   0  0  0  0  0  0  0  0  0  0  0  0
  -23.9080  -29.4650   23.6310 O   0  0  0  0  0  0  0  0  0  0  0  0
  -21.5830  -29.9010   21.5570 H   0  0  0  0  0  0  0  0  0  0  0  0
  -18.7630  -27.9550   22.7890 C   0  0  0  0  0  0  0  0  0  0  0  0
  -21.2640  -28.5300   23.1480 C   0  0  0  0  0  3  0  0  0  0  0  0
  -21.5520  -27.0950   22.6490 C   0  0  0  0  0  2  0  0  0  0  0  0
  -20.5470  -26.6050   21.6030 C   0  0  0  0  0  2  0  0  0  0  0  0
  -19.1260  -26.6120   22.1780 C   0  0  0  0  0  2  0  0  0  0  0  0
  -19.7650  -28.8610   23.2300 C   0  0  0  0  0  0  0  0  0  0  0  0
  -19.3680  -30.1030   23.7720 C   0  0  0  0  0  3  0  0  0  0  0  0
  -18.0070  -30.4440   23.8740 C   0  0  0  0  0  3  0  0  0  0  0  0
  -17.0200  -29.5400   23.4440 C   0  0  0  0  0  3  0  0  0  0  0  0
  -17.3990  -28.2980   22.9060 C   0  0  0  0  0  3  0  0  0  0  0  0
  -26.5500  -32.8360   23.9160 C   0  0  0  0  0  3  0  0  0  0  0  0
  -27.1080  -32.0180   25.1470 C   0  0  1  0  0  0  0  0  0  0  0  0
  -26.0310  -31.6590   26.2000 C   0  0  0  0  0  1  0  0  0  0  0  0
  -27.7650  -30.6990   24.6900 C   0  0  0  0  0  1  0  0  0  0  0  0
  -28.2180  -32.8280   25.8570 C   0  0  0  0  0  1  0  0  0  0  0  0
  -26.2060  -34.2050   24.3720 N   0  0  0  0  0  0  0  0  0  0  0  0
  -26.4540  -35.3420   23.7030 C   0  0  0  0  0  0  0  0  0  0  0  0
  -27.0330  -35.3520   22.6160 O   0  0  0  0  0  0  0  0  0  0  0  0
  -25.6830  -34.2630   25.2320 H   0  0  0  0  0  0  0  0  0  0  0  0
  -24.6400  -37.0990   23.7370 C   0  0  0  0  0  1  0  0  0  0  0  0
  -25.9940  -36.6780   24.3340 C   0  0  0  0  0  3  0  0  0  0  0  0
  -28.1790  -37.6220   24.9490 C   0  0  0  0  0  1  0  0  0  0  0  0
  -26.9610  -37.7840   24.1610 N   0  0  0  0  0  0  0  0  0  0  0  0
  -26.5390  -38.6740   24.4100 H   0  0  0  0  0  0  0  0  0  0  0  0
  -29.6880  -20.9370   19.7750 C   0  0  0  0  0 15  0  0  0  0  0  0
  -30.6400  -17.2460   19.9200 C   0  0  0  0  0  0  0  0  0  0  0  0
  -31.0790  -14.4780   19.1910 C   0  0  0  0  0  2  0  0  0  0  0  0
  -30.3100  -13.6060   18.1130 C   0  0  0  0  0  2  0  0  0  0  0  0
  -29.0220  -12.9950   18.6670 C   0  0  0  0  0  2  0  0  0  0  0  0
  -28.3670  -14.0170   19.6080 C   0  0  0  0  0  3  0  0  0  0  0  0
  -29.3300  -14.7540   20.6110 C   0  0  0  0  0  2  0  0  0  0  0  0
  -30.2770  -15.6980   19.8630 N   0  0  0  0  0  0  0  0  0  0  0  0
  -31.8850  -17.0750   19.7450 O   0  0  0  0  0  0  0  0  0  0  0  0
  -29.8510  -18.8420   19.9910 N   0  0  0  0  0  2  0  0  0  0  0  0
  -28.8950  -18.5520   20.1550 H   0  0  0  0  0  0  0  0  0  0  0  0
  -26.0690  -14.3680   20.5750 C   0  0  0  0  0  0  0  0  0  0  0  0
  -25.0490  -13.5390   20.9360 C   0  0  0  0  0  0  0  0  0  0  0  0
  -25.5320  -12.2050   20.7510 C   0  0  0  0  0  0  0  0  0  0  0  0
  -27.1140  -13.5520   20.1950 N   0  0  0  0  0  0  0  0  0  0  0  0
  -26.8070  -12.2310   20.3500 N   0  0  0  0  0  0  0  0  0  0  0  0
  -24.8180  -10.9210   20.8780 C   0  0  0  0  0  0  0  0  0  0  0  0
  -25.1840   -9.9600   21.8470 C   0  0  0  0  0  3  0  0  0  0  0  0
  -24.4620   -8.7530   21.9700 C   0  0  0  0  0  3  0  0  0  0  0  0
  -23.3580   -8.4940   21.1230 C   0  0  0  0  0  0  0  0  0  0  0  0
  -23.0090   -9.4440   20.1480 C   0  0  0  0  0  3  0  0  0  0  0  0
  -23.7320  -10.6430   20.0220 C   0  0  0  0  0  3  0  0  0  0  0  0
  -22.6160   -7.3370   21.1520 O   0  0  0  0  0  0  0  0  0  0  0  0
  -22.1330   -6.8180   22.3270 C   0  0  0  0  0  0  0  0  0  0  0  0
  -21.3140   -7.5730   23.1930 C   0  0  0  0  0  3  0  0  0  0  0  0
  -20.7820   -6.9790   24.3560 C   0  0  0  0  0  3  0  0  0  0  0  0
  -21.0640   -5.6320   24.6510 C   0  0  0  0  0  0  0  0  0  0  0  0
  -21.8730   -4.8770   23.7860 C   0  0  0  0  0  3  0  0  0  0  0  0
  -22.4050   -5.4670   22.6260 C   0  0  0  0  0  0  0  0  0  0  0  0
  -23.1690   -4.7280   21.7860 F   0  0  0  0  0  0  0  0  0  0  0  0
  -20.5470   -5.0600   25.7640 F   0  0  0  0  0  0  0  0  0  0  0  0
  -23.6680  -13.9740   21.3260 C   0  0  0  0  0  0  0  0  0  0  0  0
  -23.0180  -13.2290   22.2110 N   0  0  0  0  0  0  0  0  0  0  0  0
  -23.1790  -15.0130   20.8850 O   0  0  0  0  0  0  0  0  0  0  0  0
  -23.4280  -12.3870   22.5880 H   0  0  0  0  0  0  0  0  0  0  0  0
  -22.0940  -13.5020   22.5180 H   0  0  0  0  0  0  0  0  0  0  0  0
  -26.1920  -15.7510   20.4980 N   0  0  0  0  0  0  0  0  0  0  0  0
  -25.4230  -16.3780   20.7050 H   0  0  0  0  0  0  0  0  0  0  0  0
  -27.0090  -16.2240   20.1370 H   0  0  0  0  0  0  0  0  0  0  0  0
  -27.1570  -22.7950   19.7510 C   0  0  0  0  0  2  0  0  0  0  0  0
  -26.4740  -21.9080   20.7310 N   0  0  0  0  0  4  0  0  0  0  0  0
  -25.5100  -21.7670   20.4620 H   0  0  0  0  0  0  0  0  0  0  0  0
  -26.8840  -20.9890   20.7290 H   0  0  0  0  0  0  0  0  0  0  0  0
  -26.3630  -22.3760   22.1320 C   0  0  0  0  0  2  0  0  0  0  0  0
  -25.4680  -23.6280   22.2290 C   0  0  0  0  0  3  0  0  0  0  0  0
  -25.1340  -24.0430   20.9140 O   0  0  0  0  0  0  0  0  0  0  0  0
  -24.5400  -24.7830   20.9950 H   0  0  0  0  0  0  0  0  0  0  0  0
  -26.1310  -24.8010   22.9980 C   0  0  0  0  0  2  0  0  0  0  0  0
  -23.7680  -25.3670   23.6920 C   0  0  0  0  0  1  0  0  0  0  0  0
  -25.1240  -27.1770   22.6990 C   0  0  0  0  0  1  0  0  0  0  0  0
  -25.2180  -25.9280   23.6070 C   0  0  2  0  0  0  0  0  0  0  0  0
  -26.2470  -28.1860   27.3990 C   0  0  0  0  0  2  0  0  0  0  0  0
  -25.0800  -27.2040   27.4130 C   0  0  0  0  0  2  0  0  0  0  0  0
  -27.3900  -27.6030   26.5680 C   0  0  0  0  0  2  0  0  0  0  0  0
  -24.6300  -26.8550   25.9870 C   0  0  0  0  0  2  0  0  0  0  0  0
  -26.9640  -27.3420   25.1060 C   0  0  0  0  0  3  0  0  0  0  0  0
  -25.7610  -26.3250   25.0480 C   0  0  0  0  0  3  0  0  0  0  0  0
  -28.2300  -26.9690   24.3120 C   0  0  0  0  0  1  0  0  0  0  0  0
  2  1  1  0
  3  5  1  0
  4 15  2  0
  5 10  1  0
  6 14  1  0
  6 16  1  0
  7 13  1  0
  7  9  1  0
  8 14  1  0
  9  8  1  0
 10  9  2  0
 11 12  1  0
 11  5  2  0
 12  7  2  0
 13  6  1  0
 14  4  1  0
 16 18  2  0
 17 16  1  0
 19 17  1  0
 20 29  2  0
 20 25  1  0
 21 17  1  0
 21 25  1  0
 22 21  1  0
 23 24  1  0
 23 22  1  0
 24 20  1  0
 25 26  2  0
 26 27  1  0
 28 27  2  0
 29 28  1  0
 30  4  1  0
 30 35  1  0
 30 31  1  0
 31 34  1  1
 31 32  1  0
 33 31  1  0
 35 38  1  0
 36 40  1  0
 36 35  1  0
 37 36  2  0
 40 39  1  0
 42 40  1  0
 42 43  1  0
 42 41  1  0
 45 53  1  0
 46 51  1  0
 47 48  1  0
 47 46  1  0
 49 48  1  0
 49 58  1  0
 49 50  1  0
 51 45  1  0
 51 50  1  0
 52 45  2  0
 53 54  1  0
 55 56  2  0
 56 75  1  0
 57 60  1  0
 57 56  1  0
 58 59  1  0
 58 55  1  0
 59 57  2  0
 60 61  1  0
 61 62  2  0
 63 66  1  0
 63 62  1  0
 64 63  2  0
 65 64  1  0
 65 60  2  0
 66 67  1  0
 67 72  2  0
 67 68  1  0
 68 69  2  0
 69 70  1  0
 70 74  1  0
 71 70  2  0
 72 71  1  0
 73 72  1  0
 75 76  1  0
 76 79  1  0
 76 78  1  0
 77 75  2  0
 80 55  1  0
 80 81  1  0
 82 80  1  0
 83  2  1  0
 83 84  1  0
 84 87  1  0
 85 84  1  0
 86 84  1  0
 88 87  1  0
 88 91  1  0
 89 90  1  0
 89 88  1  0
 91 94  1  0
 94 93  1  6
 94 92  1  0
 95 96  1  0
 97 95  1  0
 98 96  1  0
 99101  1  0
 99 97  1  0
100 94  1  0
100 99  1  0
100 98  1  0
M  ISO  4   2 101   3 101  45 100  53 100
M  END
>  <TORSDO>  (63) 
F 25

>  <SCORE>  (63) 
-9.775

>  <name>  (63) 
62

>  <ligand_id>  (63) 
62

>  <original_smiles>  (63) 
[H]OC([H])(C([H])([H])C(C([H])([H])[H])(C([H])([H])[H])C1([H])C([H])([H])C([H])([H])C([H])([H])C([H])([H])C1([H])C([H])([H])[H])C([H])([H])[N+]([H])([H])C([H])([H])C(Oc1c([H])c([H])c2c(c1[H])C([H])([H])N(C(=O)C([H])(N([H])C(=O)C([H])(N([H])C([H])([H])[H])C([H])([H])[H])C(C([H])([H])[H])(C([H])([H])[H])C([H])([H])[H])C([H])(C(=O)N([H])C1([H])c3c([H])c([H])c([H])c([H])c3C([H])([H])C([H])([H])C1([H])[H])C2([H])[H])(C([H])([H])[H])C([H])([H])N([H])C(=O)N1C([H])([H])C([H])([H])C([H])([H])C([H])(n2nc(-c3c([H])c([H])c(Oc4c([H])c([H])c(F)c([H])c4F)c([H])c3[H])c(C(=O)N([H])[H])c2N([H])[H])C1([H])[H]

>  <smiles>  (63) 
[H]OC([H])(C([H])([H])C(C([H])([H])[H])(C([H])([H])[H])C1([H])C([H])([H])C([H])([H])C([H])([H])C([H])([H])C1([H])C([H])([H])[H])C([H])([H])[N+]([H])([H])C([H])([H])C(Oc1c([H])c([H])c2c(c1[H])C([H])([H])N(C(=O)C([H])(N([H])C(=O)C([H])(N([H])C([H])([H])[H])C([H])([H])[H])C(C([H])([H])[H])(C([H])([H])[H])C([H])([H])[H])C([H])(C(=O)N([H])C1([H])c3c([H])c([H])c([H])c([H])c3C([H])([H])C([H])([H])C1([H])[H])C2([H])[H])(C([H])([H])[H])C([H])([H])N([H])C(=O)N1C([H])([H])C([H])([H])C([H])([H])C([H])(n2nc(-c3c([H])c([H])c(Oc4c([H])c([H])c(F)c([H])c4F)c([H])c3[H])c(C(=O)N([H])[H])c2N([H])[H])C1([H])[H]

$$$$
63:0:0
     RDKit          3D

 89 96  0  0  1  0  0  0  0  0999 V2000
  -31.0680  -20.5010   20.0390 C   0  0  0  0  0  1  0  0  0  0  0  0
  -29.7010  -19.7850   19.8760 C   0  0  2  0  0  0  0  0  0  0  0  0
  -30.4170  -18.8780   17.6250 C   0  0  0  0  0  1  0  0  0  0  0  0
  -28.0390  -19.0060   18.1560 C   0  0  0  0  0  1  0  0  0  0  0  0
  -29.3810  -19.5840   18.4210 N   0  0  1  0  0  4  0  0  0  0  0  0
  -29.3380  -20.5100   18.0200 H   0  0  0  0  0  0  0  0  0  0  0  0
  -28.7700  -21.2120   20.4220 C   0  0  0  0  0  2  0  0  0  0  0  0
  -28.9670  -22.9500   20.0610 C   0  0  0  0  0  3  0  0  0  0  0  0
  -27.9750  -24.3850   20.3610 C   0  0  0  0  0  3  0  0  0  0  0  0
  -28.2460  -25.9830   20.2770 O   0  0  0  0  0  0  0  0  0  0  0  0
  -24.6220  -31.8690   23.2180 C   0  0  0  0  0  0  0  0  0  0  0  0
  -27.2160  -27.0390   20.2380 C   0  0  0  0  0  0  0  0  0  0  0  0
  -23.4450  -30.4670   21.5730 C   0  0  0  0  0  3  0  0  0  0  0  0
  -24.9090  -28.8740   20.1710 C   0  0  0  0  0  0  0  0  0  0  0  0
  -26.0110  -30.6960   21.4550 C   0  0  0  0  0  2  0  0  0  0  0  0
  -26.0900  -29.2940   20.7980 C   0  0  0  0  0  0  0  0  0  0  0  0
  -27.2410  -28.3990   20.8060 C   0  0  0  0  0  3  0  0  0  0  0  0
  -26.0060  -26.7570   19.5650 C   0  0  0  0  0  3  0  0  0  0  0  0
  -24.8890  -27.6250   19.5360 C   0  0  0  0  0  3  0  0  0  0  0  0
  -23.6890  -29.7890   20.1990 C   0  0  0  0  0  2  0  0  0  0  0  0
  -24.7130  -31.0370   22.1340 N   0  0  0  0  0  0  0  0  0  0  0  0
  -23.5280  -32.1570   23.7290 O   0  0  0  0  0  0  0  0  0  0  0  0
  -22.7510  -29.4640   22.5320 C   0  0  0  0  0  0  0  0  0  0  0  0
  -21.4230  -29.2910   22.3940 N   0  0  0  0  0  0  0  0  0  0  0  0
  -23.4120  -28.8460   23.3700 O   0  0  0  0  0  0  0  0  0  0  0  0
  -20.9430  -29.8400   21.6960 H   0  0  0  0  0  0  0  0  0  0  0  0
  -18.0430  -28.0720   22.8740 C   0  0  0  0  0  0  0  0  0  0  0  0
  -20.5980  -28.3550   23.1640 C   0  0  0  0  0  3  0  0  0  0  0  0
  -20.7130  -26.9180   22.6060 C   0  0  0  0  0  2  0  0  0  0  0  0
  -19.6260  -26.5790   21.5820 C   0  0  0  0  0  2  0  0  0  0  0  0
  -18.2360  -26.7200   22.2080 C   0  0  0  0  0  2  0  0  0  0  0  0
  -19.1520  -28.8460   23.3090 C   0  0  0  0  0  0  0  0  0  0  0  0
  -18.9160  -30.1090   23.8950 C   0  0  0  0  0  3  0  0  0  0  0  0
  -17.6050  -30.5990   24.0480 C   0  0  0  0  0  3  0  0  0  0  0  0
  -16.5120  -29.8240   23.6280 C   0  0  0  0  0  3  0  0  0  0  0  0
  -16.7310  -28.5610   23.0480 C   0  0  0  0  0  3  0  0  0  0  0  0
  -25.8890  -32.5140   23.8560 C   0  0  0  0  0  3  0  0  0  0  0  0
  -25.5670  -33.9170   24.1700 N   0  0  0  0  0  0  0  0  0  0  0  0
  -25.9070  -34.9710   23.4150 C   0  0  0  0  0  0  0  0  0  0  0  0
  -26.5890  -34.8660   22.3940 O   0  0  0  0  0  0  0  0  0  0  0  0
  -24.9590  -34.0710   24.9610 H   0  0  0  0  0  0  0  0  0  0  0  0
  -24.1840  -36.7680   23.0430 C   0  0  0  0  0  1  0  0  0  0  0  0
  -25.4170  -36.3620   23.8660 C   0  0  0  0  0  3  0  0  0  0  0  0
  -27.5420  -37.2520   24.7180 C   0  0  0  0  0  1  0  0  0  0  0  0
  -26.4510  -37.4150   23.7610 N   0  0  0  0  0  0  0  0  0  0  0  0
  -26.0430  -38.3360   23.9000 H   0  0  0  0  0  0  0  0  0  0  0  0
  -26.3810  -31.7630   25.1550 C   0  0  1  0  0  0  0  0  0  0  0  0
  -25.2670  -31.5430   26.2050 C   0  0  0  0  0  1  0  0  0  0  0  0
  -26.9710  -30.3770   24.8090 C   0  0  0  0  0  1  0  0  0  0  0  0
  -27.5220  -32.5660   25.8230 C   0  0  0  0  0  1  0  0  0  0  0  0
  -30.0840  -18.1770   20.6030 C   0  0  0  0  0  2  0  0  0  0  0  0
  -30.4210  -15.3010   20.1840 C   0  0  0  0  0  0  0  0  0  0  0  0
  -30.3880  -12.9050   19.1660 C   0  0  0  0  0  2  0  0  0  0  0  0
  -29.4210  -12.6910   17.9710 C   0  0  0  0  0  2  0  0  0  0  0  0
  -27.9800  -12.4080   18.4390 C   0  0  0  0  0  2  0  0  0  0  0  0
  -27.5660  -13.3290   19.6090 C   0  0  0  0  0  3  0  0  0  0  0  0
  -28.6560  -13.4030   20.7000 C   0  0  0  0  0  2  0  0  0  0  0  0
  -29.8470  -13.9980   20.0580 N   0  0  0  0  0  0  0  0  0  0  0  0
  -31.6370  -15.2990   19.9300 O   0  0  0  0  0  0  0  0  0  0  0  0
  -28.3340  -16.5420   20.9110 C   0  0  0  0  0  1  0  0  0  0  0  0
  -29.6830  -16.5930   20.3610 N   0  0  0  0  0  0  0  0  0  0  0  0
  -25.1950  -13.8810   20.4040 C   0  0  0  0  0  0  0  0  0  0  0  0
  -24.1530  -13.1000   20.8120 C   0  0  0  0  0  0  0  0  0  0  0  0
  -24.6340  -11.7560   20.7760 C   0  0  0  0  0  0  0  0  0  0  0  0
  -26.2480  -13.0170   20.1490 N   0  0  0  0  0  0  0  0  0  0  0  0
  -25.9190  -11.7320   20.4360 N   0  0  0  0  0  0  0  0  0  0  0  0
  -23.9230  -10.4910   20.9780 C   0  0  0  0  0  0  0  0  0  0  0  0
  -24.3720   -9.5320   21.9110 C   0  0  0  0  0  3  0  0  0  0  0  0
  -23.6570   -8.3290   22.0980 C   0  0  0  0  0  3  0  0  0  0  0  0
  -22.4790   -8.0820   21.3540 C   0  0  0  0  0  0  0  0  0  0  0  0
  -22.0510   -9.0290   20.4080 C   0  0  0  0  0  3  0  0  0  0  0  0
  -22.7670  -10.2220   20.2190 C   0  0  0  0  0  3  0  0  0  0  0  0
  -21.7330   -6.9330   21.4550 O   0  0  0  0  0  0  0  0  0  0  0  0
  -21.6910   -6.2010   22.6140 C   0  0  0  0  0  0  0  0  0  0  0  0
  -21.2560   -6.7590   23.8360 C   0  0  0  0  0  3  0  0  0  0  0  0
  -21.1670   -5.9530   24.9870 C   0  0  0  0  0  3  0  0  0  0  0  0
  -21.5030   -4.5860   24.9180 C   0  0  0  0  0  0  0  0  0  0  0  0
  -21.9300   -4.0260   23.7010 C   0  0  0  0  0  3  0  0  0  0  0  0
  -22.0220   -4.8310   22.5520 C   0  0  0  0  0  0  0  0  0  0  0  0
  -22.4170   -4.2820   21.3770 F   0  0  0  0  0  0  0  0  0  0  0  0
  -21.4100   -3.8080   26.0210 F   0  0  0  0  0  0  0  0  0  0  0  0
  -22.7570  -13.5690   21.1090 C   0  0  0  0  0  0  0  0  0  0  0  0
  -22.0450  -12.8730   21.9890 N   0  0  0  0  0  0  0  0  0  0  0  0
  -22.3050  -14.5940   20.5960 O   0  0  0  0  0  0  0  0  0  0  0  0
  -22.4180  -12.0500   22.4380 H   0  0  0  0  0  0  0  0  0  0  0  0
  -21.1080  -13.1710   22.2210 H   0  0  0  0  0  0  0  0  0  0  0  0
  -25.3010  -15.2490   20.1920 N   0  0  0  0  0  0  0  0  0  0  0  0
  -24.4750  -15.8370   20.2460 H   0  0  0  0  0  0  0  0  0  0  0  0
  -26.0630  -15.6820   19.6900 H   0  0  0  0  0  0  0  0  0  0  0  0
  2  1  1  6
  2  7  1  0
  2 51  1  0
  3  5  1  0
  4  5  1  0
  5  2  1  0
  5  6  1  6
  8  9  2  0
  8  7  1  0
 10  9  1  0
 11 22  2  0
 12 10  1  0
 12 17  1  0
 13 21  1  0
 13 23  1  0
 14 20  1  0
 14 16  1  0
 15 21  1  0
 16 17  2  0
 16 15  1  0
 18 12  2  0
 19 18  1  0
 19 14  2  0
 20 13  1  0
 21 11  1  0
 23 25  2  0
 24 23  1  0
 26 24  1  0
 27 36  2  0
 27 32  1  0
 28 24  1  0
 28 32  1  0
 29 28  1  0
 30 31  1  0
 30 29  1  0
 31 27  1  0
 32 33  2  0
 33 34  1  0
 35 34  2  0
 36 35  1  0
 37 11  1  0
 37 38  1  0
 37 47  1  0
 38 41  1  0
 39 43  1  0
 39 38  1  0
 40 39  2  0
 43 42  1  0
 45 43  1  0
 45 46  1  0
 45 44  1  0
 47 50  1  1
 47 48  1  0
 49 47  1  0
 52 61  1  0
 53 58  1  0
 54 55  1  0
 54 53  1  0
 56 55  1  0
 56 65  1  0
 56 57  1  0
 58 52  1  0
 58 57  1  0
 59 52  2  0
 61 51  1  0
 61 60  1  0
 62 63  2  0
 63 82  1  0
 64 63  1  0
 64 67  1  0
 65 62  1  0
 65 66  1  0
 66 64  2  0
 67 68  1  0
 68 69  2  0
 70 73  1  0
 70 69  1  0
 71 70  2  0
 72 71  1  0
 72 67  2  0
 73 74  1  0
 74 75  1  0
 75 76  2  0
 77 76  1  0
 77 81  1  0
 78 77  2  0
 79 74  2  0
 79 78  1  0
 80 79  1  0
 82 83  1  0
 83 86  1  0
 83 85  1  0
 84 82  2  0
 87 88  1  0
 87 62  1  0
 89 87  1  0
M  ISO  4   9 101  10 101  52 100  61 100
M  END
>  <TORSDO>  (64) 
F 21

>  <SCORE>  (64) 
-15.326

>  <name>  (64) 
63

>  <ligand_id>  (64) 
63

>  <original_smiles>  (64) 
[H]c1c([H])c([H])c2c(c1[H])C([H])([H])C([H])([H])C([H])([H])C2([H])N([H])C(=O)C1([H])N(C(=O)C([H])(N([H])C(=O)C([H])(N([H])C([H])([H])[H])C([H])([H])[H])C(C([H])([H])[H])(C([H])([H])[H])C([H])([H])[H])C([H])([H])c2c([H])c(OC([H])([H])C([H])([H])C([H])([H])C(C([H])([H])[H])(C([H])([H])N(C(=O)N3C([H])([H])C([H])([H])C([H])([H])C([H])(n4nc(-c5c([H])c([H])c(Oc6c([H])c([H])c(F)c([H])c6F)c([H])c5[H])c(C(=O)N([H])[H])c4N([H])[H])C3([H])[H])C([H])([H])[H])[N+]([H])(C([H])([H])[H])C([H])([H])[H])c([H])c([H])c2C1([H])[H]

>  <smiles>  (64) 
[H]c1c([H])c([H])c2c(c1[H])C([H])([H])C([H])([H])C([H])([H])C2([H])N([H])C(=O)C1([H])N(C(=O)C([H])(N([H])C(=O)C([H])(N([H])C([H])([H])[H])C([H])([H])[H])C(C([H])([H])[H])(C([H])([H])[H])C([H])([H])[H])C([H])([H])c2c([H])c(OC([H])([H])C([H])([H])C([H])([H])C(C([H])([H])[H])(C([H])([H])N(C(=O)N3C([H])([H])C([H])([H])C([H])([H])C([H])(n4nc(-c5c([H])c([H])c(Oc6c([H])c([H])c(F)c([H])c6F)c([H])c5[H])c(C(=O)N([H])[H])c4N([H])[H])C3([H])[H])C([H])([H])[H])[N+]([H])(C([H])([H])[H])C([H])([H])[H])c([H])c([H])c2C1([H])[H]

$$$$
64:0:0
     RDKit          3D

 94102  0  0  1  0  0  0  0  0999 V2000
  -30.1370  -19.7730   19.8550 C   0  0  0  0  0  3  0  0  0  0  0  0
  -28.0180  -20.0230   20.3530 C   0  0  0  0  0  3  0  0  0  0  0  0
  -29.1280  -20.7860   20.1100 C   0  0  0  0  0  0  0  0  0  0  0  0
  -29.6760  -18.4680   20.0430 C   0  0  0  0  0  0  0  0  0  0  0  0
  -28.3200  -18.6490   20.3440 N   0  0  0  0  0  0  0  0  0  0  0  0
  -29.2820  -22.3620   20.2900 C   0  0  0  0  0  2  0  0  0  0  0  0
  -28.2030  -23.4540   19.7830 C   0  0  0  0  0  2  0  0  0  0  0  0
  -28.7750  -25.0230   21.8260 C   0  0  0  0  0  1  0  0  0  0  0  0
  -27.9840  -24.8920   20.5180 C   0  0  0  0  0  3  0  0  0  0  0  0
  -28.1500  -26.2140   19.8440 O   0  0  0  0  0  0  0  0  0  0  0  0
  -24.6970  -31.6760   23.1510 C   0  0  0  0  0  0  0  0  0  0  0  0
  -27.0810  -27.1240   19.9010 C   0  0  0  0  0  0  0  0  0  0  0  0
  -23.4120  -30.3770   21.4900 C   0  0  0  0  0  3  0  0  0  0  0  0
  -24.7790  -28.8210   19.9870 C   0  0  0  0  0  0  0  0  0  0  0  0
  -25.9580  -30.6120   21.2640 C   0  0  0  0  0  2  0  0  0  0  0  0
  -25.9780  -29.2520   20.5730 C   0  0  0  0  0  0  0  0  0  0  0  0
  -27.1360  -28.4150   20.5160 C   0  0  0  0  0  3  0  0  0  0  0  0
  -25.8650  -26.7470   19.2970 C   0  0  0  0  0  3  0  0  0  0  0  0
  -24.7250  -27.5740   19.3410 C   0  0  0  0  0  3  0  0  0  0  0  0
  -23.5760  -29.7400   20.0850 C   0  0  0  0  0  2  0  0  0  0  0  0
  -24.7090  -30.9050   22.0240 N   0  0  0  0  0  0  0  0  0  0  0  0
  -23.6360  -31.9720   23.7200 O   0  0  0  0  0  0  0  0  0  0  0  0
  -22.7320  -29.3540   22.4300 C   0  0  0  0  0  0  0  0  0  0  0  0
  -21.4000  -29.2190   22.3150 N   0  0  0  0  0  0  0  0  0  0  0  0
  -23.4010  -28.6850   23.2220 O   0  0  0  0  0  0  0  0  0  0  0  0
  -20.9220  -29.8090   21.6480 H   0  0  0  0  0  0  0  0  0  0  0  0
  -17.9960  -28.1060   22.8250 C   0  0  0  0  0  0  0  0  0  0  0  0
  -20.5630  -28.2850   23.0680 C   0  0  0  0  0  3  0  0  0  0  0  0
  -20.6160  -26.8670   22.4530 C   0  0  0  0  0  2  0  0  0  0  0  0
  -19.4930  -26.6000   21.4470 C   0  0  0  0  0  2  0  0  0  0  0  0
  -18.1260  -26.7690   22.1160 C   0  0  0  0  0  2  0  0  0  0  0  0
  -19.1410  -28.8250   23.2600 C   0  0  0  0  0  0  0  0  0  0  0  0
  -18.9670  -30.0760   23.8900 C   0  0  0  0  0  3  0  0  0  0  0  0
  -17.6790  -30.6070   24.0900 C   0  0  0  0  0  3  0  0  0  0  0  0
  -16.5480  -29.8870   23.6680 C   0  0  0  0  0  3  0  0  0  0  0  0
  -16.7090  -28.6380   23.0420 C   0  0  0  0  0  3  0  0  0  0  0  0
  -26.0140  -32.2420   23.7670 C   0  0  0  0  0  3  0  0  0  0  0  0
  -25.7450  -33.6210   24.2000 N   0  0  0  0  0  0  0  0  0  0  0  0
  -26.0840  -34.7170   23.5070 C   0  0  0  0  0  0  0  0  0  0  0  0
  -26.7250  -34.6710   22.4540 O   0  0  0  0  0  0  0  0  0  0  0  0
  -25.1770  -33.7320   25.0270 H   0  0  0  0  0  0  0  0  0  0  0  0
  -24.3880  -36.5670   23.3290 C   0  0  0  0  0  1  0  0  0  0  0  0
  -25.6420  -36.0820   24.0730 C   0  0  0  0  0  3  0  0  0  0  0  0
  -27.8210  -36.8630   24.8960 C   0  0  0  0  0  1  0  0  0  0  0  0
  -26.6950  -37.1180   24.0010 N   0  0  0  0  0  0  0  0  0  0  0  0
  -26.3150  -38.0350   24.2220 H   0  0  0  0  0  0  0  0  0  0  0  0
  -26.5570  -31.3800   24.9720 C   0  0  1  0  0  0  0  0  0  0  0  0
  -25.4950  -31.0920   26.0590 C   0  0  0  0  0  1  0  0  0  0  0  0
  -27.0970  -30.0190   24.4730 C   0  0  0  0  0  1  0  0  0  0  0  0
  -27.7420  -32.1070   25.6450 C   0  0  0  0  0  1  0  0  0  0  0  0
  -30.5340  -17.1330   20.1200 C   0  0  0  0  0  2  0  0  0  0  0  0
  -30.8360  -14.5840   20.3580 C   0  0  0  0  0  0  0  0  0  0  0  0
  -30.8570  -12.2120   19.5880 C   0  0  0  0  0  2  0  0  0  0  0  0
  -30.0930  -12.1040   18.2510 C   0  0  0  0  0  2  0  0  0  0  0  0
  -28.5870  -11.8950   18.5030 C   0  0  0  0  0  2  0  0  0  0  0  0
  -28.0160  -12.8810   19.5560 C   0  0  0  0  0  3  0  0  0  0  0  0
  -28.9160  -12.9780   20.8070 C   0  0  0  0  0  2  0  0  0  0  0  0
  -30.2610  -13.3350   20.3470 N   0  0  0  0  0  0  0  0  0  0  0  0
  -32.0510  -14.6950   20.1690 O   0  0  0  0  0  0  0  0  0  0  0  0
  -30.0300  -15.7150   20.3610 N   0  0  0  0  0  0  0  0  0  0  0  0
  -29.0370  -15.5800   20.4520 H   0  0  0  0  0  0  0  0  0  0  0  0
  -25.5180  -13.3830   19.8280 C   0  0  0  0  0  0  0  0  0  0  0  0
  -24.4570  -12.6010   20.1940 C   0  0  0  0  0  0  0  0  0  0  0  0
  -24.9970  -11.3070   20.4680 C   0  0  0  0  0  0  0  0  0  0  0  0
  -26.6340  -12.5680   19.9020 N   0  0  0  0  0  0  0  0  0  0  0  0
  -26.3190  -11.3230   20.3460 N   0  0  0  0  0  0  0  0  0  0  0  0
  -24.3250  -10.0380   20.7750 C   0  0  0  0  0  0  0  0  0  0  0  0
  -24.6930   -9.2570   21.8930 C   0  0  0  0  0  3  0  0  0  0  0  0
  -24.0180   -8.0500   22.1780 C   0  0  0  0  0  3  0  0  0  0  0  0
  -22.9620   -7.6140   21.3430 C   0  0  0  0  0  0  0  0  0  0  0  0
  -22.6170   -8.3810   20.2160 C   0  0  0  0  0  3  0  0  0  0  0  0
  -23.2920   -9.5790   19.9320 C   0  0  0  0  0  3  0  0  0  0  0  0
  -22.2690   -6.4420   21.5280 O   0  0  0  0  0  0  0  0  0  0  0  0
  -22.1240   -5.8800   22.7710 C   0  0  0  0  0  0  0  0  0  0  0  0
  -21.5330   -6.5840   23.8440 C   0  0  0  0  0  3  0  0  0  0  0  0
  -21.3410   -5.9440   25.0840 C   0  0  0  0  0  3  0  0  0  0  0  0
  -21.7280   -4.6020   25.2530 C   0  0  0  0  0  0  0  0  0  0  0  0
  -22.3090   -3.8970   24.1850 C   0  0  0  0  0  3  0  0  0  0  0  0
  -22.5040   -4.5340   22.9460 C   0  0  0  0  0  0  0  0  0  0  0  0
  -23.0460   -3.8430   21.9140 F   0  0  0  0  0  0  0  0  0  0  0  0
  -21.5350   -3.9840   26.4420 F   0  0  0  0  0  0  0  0  0  0  0  0
  -23.0100  -13.0020   20.1850 C   0  0  0  0  0  0  0  0  0  0  0  0
  -22.2100  -12.4290   21.0770 N   0  0  0  0  0  0  0  0  0  0  0  0
  -22.5900  -13.8630   19.4130 O   0  0  0  0  0  0  0  0  0  0  0  0
  -22.5550  -11.7380   21.7250 H   0  0  0  0  0  0  0  0  0  0  0  0
  -21.2340  -12.6890   21.1150 H   0  0  0  0  0  0  0  0  0  0  0  0
  -25.6260  -14.7030   19.4060 N   0  0  0  0  0  0  0  0  0  0  0  0
  -24.8100  -15.2890   19.2780 H   0  0  0  0  0  0  0  0  0  0  0  0
  -26.4760  -15.1260   19.0620 H   0  0  0  0  0  0  0  0  0  0  0  0
  -27.3510  -17.6330   20.7440 C   0  0  0  0  0  2  0  0  0  0  0  0
  -26.0960  -17.5900   19.8400 C   0  0  0  0  0  2  0  0  0  0  0  0
  -24.9330  -15.6120   20.9940 C   0  0  0  0  0  1  0  0  0  0  0  0
  -23.5860  -17.2890   19.6650 C   0  0  0  0  0  1  0  0  0  0  0  0
  -24.8250  -17.0790   20.5510 C   0  0  0  0  0  3  0  0  0  0  0  0
  1  4  2  0
  1  3  1  0
  3  6  1  0
  3  2  2  0
  4 51  1  0
  4  5  1  0
  5  2  1  0
  5 90  1  0
  7  6  1  0
  7  9  1  0
  9  8  1  0
 10 12  1  0
 10  9  1  0
 11 22  2  0
 12 17  1  0
 13 21  1  0
 13 23  1  0
 14 20  1  0
 14 16  1  0
 15 21  1  0
 16 15  1  0
 17 16  2  0
 18 19  1  0
 18 12  2  0
 19 14  2  0
 20 13  1  0
 21 11  1  0
 23 25  2  0
 24 23  1  0
 26 24  1  0
 27 36  2  0
 27 32  1  0
 28 24  1  0
 28 32  1  0
 29 28  1  0
 30 31  1  0
 30 29  1  0
 31 27  1  0
 32 33  2  0
 33 34  1  0
 35 34  2  0
 36 35  1  0
 37 11  1  0
 37 38  1  0
 37 47  1  0
 38 41  1  0
 39 43  1  0
 39 38  1  0
 40 39  2  0
 43 42  1  0
 45 43  1  0
 45 46  1  0
 45 44  1  0
 47 50  1  1
 47 48  1  0
 49 47  1  0
 51 60  1  0
 52 60  1  0
 53 58  1  0
 54 55  1  0
 54 53  1  0
 56 55  1  0
 56 65  1  0
 56 57  1  0
 58 52  1  0
 58 57  1  0
 59 52  2  0
 60 61  1  0
 62 65  1  0
 62 63  2  0
 63 64  1  0
 64 67  1  0
 65 66  1  0
 66 64  2  0
 67 68  1  0
 68 69  2  0
 70 73  1  0
 70 69  1  0
 71 70  2  0
 72 71  1  0
 72 67  2  0
 73 74  1  0
 74 79  2  0
 74 75  1  0
 75 76  2  0
 76 77  1  0
 77 81  1  0
 78 77  2  0
 79 78  1  0
 80 79  1  0
 82 63  1  0
 82 83  1  0
 83 86  1  0
 83 85  1  0
 84 82  2  0
 87 62  1  0
 88 87  1  0
 89 87  1  0
 91 94  1  0
 91 90  1  0
 93 94  1  0
 94 92  1  0
M  ISO  4   9 101  10 101  52 100  60 100
M  END
>  <TORSDO>  (65) 
F 23

>  <SCORE>  (65) 
-7.443

>  <name>  (65) 
64

>  <ligand_id>  (65) 
64

>  <original_smiles>  (65) 
[H]c1c([H])c([H])c2c(c1[H])C([H])([H])C([H])([H])C([H])([H])C2([H])N([H])C(=O)C1([H])N(C(=O)C([H])(N([H])C(=O)C([H])(N([H])C([H])([H])[H])C([H])([H])[H])C(C([H])([H])[H])(C([H])([H])[H])C([H])([H])[H])C([H])([H])c2c([H])c(OC([H])(C([H])([H])[H])C([H])([H])C([H])([H])c3c([H])c(C([H])([H])N([H])C(=O)N4C([H])([H])C([H])([H])C([H])([H])C([H])(n5nc(-c6c([H])c([H])c(Oc7c([H])c([H])c(F)c([H])c7F)c([H])c6[H])c(C(=O)N([H])[H])c5N([H])[H])C4([H])[H])n(C([H])([H])C([H])([H])C([H])(C([H])([H])[H])C([H])([H])[H])c3[H])c([H])c([H])c2C1([H])[H]

>  <smiles>  (65) 
[H]c1c([H])c([H])c2c(c1[H])C([H])([H])C([H])([H])C([H])([H])C2([H])N([H])C(=O)C1([H])N(C(=O)C([H])(N([H])C(=O)C([H])(N([H])C([H])([H])[H])C([H])([H])[H])C(C([H])([H])[H])(C([H])([H])[H])C([H])([H])[H])C([H])([H])c2c([H])c(OC([H])(C([H])([H])[H])C([H])([H])C([H])([H])c3c([H])c(C([H])([H])N([H])C(=O)N4C([H])([H])C([H])([H])C([H])([H])C([H])(n5nc(-c6c([H])c([H])c(Oc7c([H])c([H])c(F)c([H])c7F)c([H])c6[H])c(C(=O)N([H])[H])c5N([H])[H])C4([H])[H])n(C([H])([H])C([H])([H])C([H])(C([H])([H])[H])C([H])([H])[H])c3[H])c([H])c([H])c2C1([H])[H]

$$$$
65:0:0
     RDKit          3D

 94102  0  0  1  0  0  0  0  0999 V2000
  -29.8260  -20.8450   20.9730 C   0  0  0  0  0  3  0  0  0  0  0  0
  -28.2380  -21.1410   19.4470 C   0  0  0  0  0  3  0  0  0  0  0  0
  -29.7370  -19.6480   20.2680 C   0  0  0  0  0  0  0  0  0  0  0  0
  -28.7200  -19.8670   19.2860 C   0  0  0  0  0  0  0  0  0  0  0  0
  -28.8940  -21.7740   20.4850 N   0  0  0  0  0  0  0  0  0  0  0  0
  -26.7340  -18.7130   18.2660 C   0  0  0  0  0  1  0  0  0  0  0  0
  -28.2610  -18.8790   18.2330 C   0  0  0  0  0  3  0  0  0  0  0  0
  -28.4110  -18.3510   15.7130 C   0  0  0  0  0  1  0  0  0  0  0  0
  -28.7730  -19.3180   16.8470 C   0  0  0  0  0  2  0  0  0  0  0  0
  -30.5640  -18.3350   20.3900 C   0  0  0  0  0  2  0  0  0  0  0  0
  -30.1420  -17.3010   21.4970 C   0  0  0  0  0  2  0  0  0  0  0  0
  -30.7780  -14.8930   20.6430 C   0  0  0  0  0  0  0  0  0  0  0  0
  -30.6460  -12.6870   19.4930 C   0  0  0  0  0  2  0  0  0  0  0  0
  -29.7020  -12.7760   18.2700 C   0  0  0  0  0  2  0  0  0  0  0  0
  -28.2270  -12.5780   18.6830 C   0  0  0  0  0  2  0  0  0  0  0  0
  -27.8360  -13.4500   19.9050 C   0  0  0  0  0  3  0  0  0  0  0  0
  -28.8770  -13.2800   21.0330 C   0  0  0  0  0  2  0  0  0  0  0  0
  -30.1880  -13.6700   20.4910 N   0  0  0  0  0  0  0  0  0  0  0  0
  -31.9260  -15.1240   20.2490 O   0  0  0  0  0  0  0  0  0  0  0  0
  -29.9610  -15.8620   21.1330 N   0  0  0  0  0  0  0  0  0  0  0  0
  -29.0540  -15.5010   21.3850 H   0  0  0  0  0  0  0  0  0  0  0  0
  -25.4220  -14.0190   20.5850 C   0  0  0  0  0  0  0  0  0  0  0  0
  -24.3570  -13.2340   20.9260 C   0  0  0  0  0  0  0  0  0  0  0  0
  -24.8360  -11.8890   20.8940 C   0  0  0  0  0  0  0  0  0  0  0  0
  -26.4820  -13.1540   20.3610 N   0  0  0  0  0  0  0  0  0  0  0  0
  -26.1320  -11.8660   20.6110 N   0  0  0  0  0  0  0  0  0  0  0  0
  -24.1230  -10.6190   21.0600 C   0  0  0  0  0  0  0  0  0  0  0  0
  -24.5060   -9.6830   22.0480 C   0  0  0  0  0  3  0  0  0  0  0  0
  -23.7920   -8.4740   22.2020 C   0  0  0  0  0  3  0  0  0  0  0  0
  -22.6820   -8.1950   21.3690 C   0  0  0  0  0  0  0  0  0  0  0  0
  -22.3210   -9.1190   20.3740 C   0  0  0  0  0  3  0  0  0  0  0  0
  -23.0340  -10.3190   20.2170 C   0  0  0  0  0  3  0  0  0  0  0  0
  -21.9480   -7.0350   21.4310 O   0  0  0  0  0  0  0  0  0  0  0  0
  -21.7730   -6.3550   22.6090 C   0  0  0  0  0  0  0  0  0  0  0  0
  -21.1640   -6.9550   23.7320 C   0  0  0  0  0  3  0  0  0  0  0  0
  -20.9410   -6.1960   24.9000 C   0  0  0  0  0  3  0  0  0  0  0  0
  -21.3200   -4.8420   24.9430 C   0  0  0  0  0  0  0  0  0  0  0  0
  -21.9210   -4.2420   23.8210 C   0  0  0  0  0  3  0  0  0  0  0  0
  -22.1450   -4.9960   22.6580 C   0  0  0  0  0  0  0  0  0  0  0  0
  -22.7070   -4.4070   21.5740 F   0  0  0  0  0  0  0  0  0  0  0  0
  -21.1000   -4.1130   26.0620 F   0  0  0  0  0  0  0  0  0  0  0  0
  -22.9500  -13.6930   21.1720 C   0  0  0  0  0  0  0  0  0  0  0  0
  -22.2180  -12.9910   22.0280 N   0  0  0  0  0  0  0  0  0  0  0  0
  -22.5080  -14.7140   20.6440 O   0  0  0  0  0  0  0  0  0  0  0  0
  -22.5900  -12.1640   22.4740 H   0  0  0  0  0  0  0  0  0  0  0  0
  -21.2760  -13.2830   22.2460 H   0  0  0  0  0  0  0  0  0  0  0  0
  -25.5790  -15.3900   20.4310 N   0  0  0  0  0  0  0  0  0  0  0  0
  -24.8000  -16.0300   20.5290 H   0  0  0  0  0  0  0  0  0  0  0  0
  -26.4250  -15.8420   20.1110 H   0  0  0  0  0  0  0  0  0  0  0  0
  -28.5010  -23.1290   20.9830 C   0  0  0  0  0  2  0  0  0  0  0  0
  -29.4750  -24.3670   20.7880 C   0  0  0  0  0  2  0  0  0  0  0  0
  -29.1340  -25.7430   18.5010 C   0  0  0  0  0  1  0  0  0  0  0  0
  -29.4360  -25.7730   20.0230 C   0  0  0  0  0  3  0  0  0  0  0  0
  -29.0740  -27.0080   20.7490 O   0  0  0  0  0  0  0  0  0  0  0  0
  -24.7940  -32.1160   23.4460 C   0  0  0  0  0  0  0  0  0  0  0  0
  -27.8500  -27.6810   20.6610 C   0  0  0  0  0  0  0  0  0  0  0  0
  -23.7760  -30.6230   21.7650 C   0  0  0  0  0  3  0  0  0  0  0  0
  -25.3920  -29.1250   20.4860 C   0  0  0  0  0  0  0  0  0  0  0  0
  -26.2980  -31.0890   21.7310 C   0  0  0  0  0  2  0  0  0  0  0  0
  -26.4930  -29.7060   21.1260 C   0  0  0  0  0  0  0  0  0  0  0  0
  -27.7230  -28.9990   21.1940 C   0  0  0  0  0  3  0  0  0  0  0  0
  -26.6970  -27.1110   20.0820 C   0  0  0  0  0  3  0  0  0  0  0  0
  -25.4890  -27.8250   19.9670 C   0  0  0  0  0  3  0  0  0  0  0  0
  -24.1140  -29.9320   20.4210 C   0  0  0  0  0  2  0  0  0  0  0  0
  -24.9710  -31.2930   22.3720 N   0  0  0  0  0  0  0  0  0  0  0  0
  -23.6660  -32.3460   23.9020 O   0  0  0  0  0  0  0  0  0  0  0  0
  -23.1070  -29.5900   22.7020 C   0  0  0  0  0  0  0  0  0  0  0  0
  -21.8100  -29.3290   22.4790 N   0  0  0  0  0  0  0  0  0  0  0  0
  -23.7550  -29.0300   23.5900 O   0  0  0  0  0  0  0  0  0  0  0  0
  -21.3440  -29.8350   21.7360 H   0  0  0  0  0  0  0  0  0  0  0  0
  -18.4730  -27.9610   22.7670 C   0  0  0  0  0  0  0  0  0  0  0  0
  -20.9890  -28.3630   23.2100 C   0  0  0  0  0  3  0  0  0  0  0  0
  -21.2060  -26.9270   22.6770 C   0  0  0  0  0  2  0  0  0  0  0  0
  -20.1960  -26.5270   21.5960 C   0  0  0  0  0  2  0  0  0  0  0  0
  -18.7670  -26.6100   22.1400 C   0  0  0  0  0  2  0  0  0  0  0  0
  -19.5160  -28.7920   23.2570 C   0  0  0  0  0  0  0  0  0  0  0  0
  -19.1900  -30.0530   23.8020 C   0  0  0  0  0  3  0  0  0  0  0  0
  -17.8550  -30.4860   23.8650 C   0  0  0  0  0  3  0  0  0  0  0  0
  -16.8230  -29.6550   23.3930 C   0  0  0  0  0  3  0  0  0  0  0  0
  -17.1330  -28.3950   22.8500 C   0  0  0  0  0  3  0  0  0  0  0  0
  -25.9990  -32.8260   24.1370 C   0  0  0  0  0  3  0  0  0  0  0  0
  -25.6150  -34.2260   24.3660 N   0  0  0  0  0  0  0  0  0  0  0  0
  -25.9610  -35.2490   23.5750 C   0  0  0  0  0  0  0  0  0  0  0  0
  -26.7070  -35.1170   22.6000 O   0  0  0  0  0  0  0  0  0  0  0  0
  -24.9540  -34.3980   25.1100 H   0  0  0  0  0  0  0  0  0  0  0  0
  -24.1900  -36.9440   23.0070 C   0  0  0  0  0  1  0  0  0  0  0  0
  -25.3910  -36.6390   23.9180 C   0  0  0  0  0  3  0  0  0  0  0  0
  -27.4350  -37.6550   24.8210 C   0  0  0  0  0  1  0  0  0  0  0  0
  -26.3850  -37.7280   23.8090 N   0  0  0  0  0  0  0  0  0  0  0  0
  -25.9350  -38.6370   23.8810 H   0  0  0  0  0  0  0  0  0  0  0  0
  -26.4310  -32.1390   25.4920 C   0  0  1  0  0  0  0  0  0  0  0  0
  -25.2500  -31.8530   26.4500 C   0  0  0  0  0  1  0  0  0  0  0  0
  -27.1530  -30.7980   25.2190 C   0  0  0  0  0  1  0  0  0  0  0  0
  -27.4420  -33.0430   26.2390 C   0  0  0  0  0  1  0  0  0  0  0  0
  2  5  1  0
  3 10  1  0
  3  1  2  0
  4  2  2  0
  4  3  1  0
  5  1  1  0
  5 50  1  0
  7  6  1  0
  7  4  1  0
  8  9  1  0
  9  7  1  0
 10 11  1  0
 12 20  1  0
 13 18  1  0
 14 15  1  0
 14 13  1  0
 16 15  1  0
 16 25  1  0
 16 17  1  0
 18 12  1  0
 18 17  1  0
 19 12  2  0
 20 21  1  0
 20 11  1  0
 22 23  2  0
 23 42  1  0
 24 23  1  0
 24 27  1  0
 25 22  1  0
 25 26  1  0
 26 24  2  0
 27 28  1  0
 28 29  2  0
 30 33  1  0
 30 29  1  0
 31 30  2  0
 32 31  1  0
 32 27  2  0
 33 34  1  0
 34 39  2  0
 34 35  1  0
 35 36  2  0
 36 37  1  0
 37 41  1  0
 38 37  2  0
 39 38  1  0
 40 39  1  0
 42 43  1  0
 43 46  1  0
 43 45  1  0
 44 42  2  0
 47 48  1  0
 47 22  1  0
 49 47  1  0
 51 50  1  0
 53 52  1  0
 53 54  1  0
 53 51  1  0
 55 66  2  0
 56 54  1  0
 56 61  1  0
 57 65  1  0
 57 67  1  0
 58 60  1  0
 59 65  1  0
 60 61  2  0
 60 59  1  0
 62 56  2  0
 63 62  1  0
 63 58  2  0
 64 58  1  0
 64 57  1  0
 65 55  1  0
 67 69  2  0
 68 67  1  0
 70 68  1  0
 71 80  2  0
 71 76  1  0
 72 68  1  0
 72 76  1  0
 73 72  1  0
 74 75  1  0
 74 73  1  0
 75 71  1  0
 76 77  2  0
 77 78  1  0
 79 78  2  0
 80 79  1  0
 81 55  1  0
 81 82  1  0
 81 91  1  0
 82 85  1  0
 83 87  1  0
 83 82  1  0
 84 83  2  0
 87 86  1  0
 89 90  1  0
 89 87  1  0
 89 88  1  0
 91 94  1  1
 91 92  1  0
 93 91  1  0
M  ISO  4  12 100  20 100  53 101  54 101
M  END
>  <TORSDO>  (66) 
F 23

>  <SCORE>  (66) 
-12.022

>  <name>  (66) 
65

>  <ligand_id>  (66) 
65

>  <original_smiles>  (66) 
[H]c1c([H])c([H])c2c(c1[H])C([H])([H])C([H])([H])C([H])([H])C2([H])N([H])C(=O)C1([H])N(C(=O)C([H])(N([H])C(=O)C([H])(N([H])C([H])([H])[H])C([H])([H])[H])C(C([H])([H])[H])(C([H])([H])[H])C([H])([H])[H])C([H])([H])c2c([H])c(OC([H])(C([H])([H])[H])C([H])([H])C([H])([H])n3c([H])c(C([H])([H])C([H])([H])N([H])C(=O)N4C([H])([H])C([H])([H])C([H])([H])C([H])(n5nc(-c6c([H])c([H])c(Oc7c([H])c([H])c(F)c([H])c7F)c([H])c6[H])c(C(=O)N([H])[H])c5N([H])[H])C4([H])[H])c(C([H])(C([H])([H])[H])C([H])([H])C([H])([H])[H])c3[H])c([H])c([H])c2C1([H])[H]

>  <smiles>  (66) 
[H]c1c([H])c([H])c2c(c1[H])C([H])([H])C([H])([H])C([H])([H])C2([H])N([H])C(=O)C1([H])N(C(=O)C([H])(N([H])C(=O)C([H])(N([H])C([H])([H])[H])C([H])([H])[H])C(C([H])([H])[H])(C([H])([H])[H])C([H])([H])[H])C([H])([H])c2c([H])c(OC([H])(C([H])([H])[H])C([H])([H])C([H])([H])n3c([H])c(C([H])([H])C([H])([H])N([H])C(=O)N4C([H])([H])C([H])([H])C([H])([H])C([H])(n5nc(-c6c([H])c([H])c(Oc7c([H])c([H])c(F)c([H])c7F)c([H])c6[H])c(C(=O)N([H])[H])c5N([H])[H])C4([H])[H])c(C([H])(C([H])([H])[H])C([H])([H])C([H])([H])[H])c3[H])c([H])c([H])c2C1([H])[H]

$$$$
66:0:0
     RDKit          3D

 98106  0  0  1  0  0  0  0  0999 V2000
  -29.8430  -23.0050   19.0980 C   0  0  0  0  0  3  0  0  0  0  0  0
  -30.0460  -24.3980   19.1220 C   0  0  0  0  0  3  0  0  0  0  0  0
  -28.6840  -22.4740   19.6960 C   0  0  0  0  0  0  0  0  0  0  0  0
  -29.0890  -25.2180   19.7510 C   0  0  0  0  0  0  0  0  0  0  0  0
  -27.7790  -23.3720   20.3080 C   0  0  0  0  0  0  0  0  0  0  0  0
  -27.9740  -24.7140   20.3250 N   0  0  0  0  0  0  0  0  0  0  0  0
  -28.4710  -21.0250   19.7170 C   0  0  0  0  0  0  0  0  0  0  0  0
  -27.4140  -20.4790   19.0930 N   0  0  0  0  0  4  0  0  0  0  0  0
  -29.3580  -20.2490   20.3700 N   0  0  0  0  0  0  0  0  0  0  0  0
  -26.8100  -21.0460   18.5160 H   0  0  0  0  0  0  0  0  0  0  0  0
  -27.2210  -19.4910   19.1040 H   0  0  0  0  0  0  0  0  0  0  0  0
  -30.1070  -20.7340   20.8460 H   0  0  0  0  0  0  0  0  0  0  0  0
  -29.2900  -18.8020   20.6390 C   0  0  0  0  0  2  0  0  0  0  0  0
  -30.6900  -18.2150   20.9040 C   0  0  0  0  0  2  0  0  0  0  0  0
  -30.7320  -17.0640   21.9310 C   0  0  0  0  0  2  0  0  0  0  0  0
  -30.6500  -14.9330   20.6320 C   0  0  0  0  0  0  0  0  0  0  0  0
  -30.4540  -12.6830   19.6400 C   0  0  0  0  0  2  0  0  0  0  0  0
  -29.5650  -12.6910   18.3830 C   0  0  0  0  0  2  0  0  0  0  0  0
  -28.0800  -12.5340   18.7610 C   0  0  0  0  0  2  0  0  0  0  0  0
  -27.6450  -13.5100   19.8850 C   0  0  0  0  0  3  0  0  0  0  0  0
  -28.6420  -13.4650   21.0630 C   0  0  0  0  0  2  0  0  0  0  0  0
  -29.9920  -13.7490   20.5390 N   0  0  0  0  0  0  0  0  0  0  0  0
  -31.6950  -15.1820   20.0230 O   0  0  0  0  0  0  0  0  0  0  0  0
  -30.1080  -15.8200   21.4780 N   0  0  0  0  0  0  0  0  0  0  0  0
  -29.2650  -15.5240   21.9490 H   0  0  0  0  0  0  0  0  0  0  0  0
  -25.2350  -14.1250   20.5550 C   0  0  0  0  0  0  0  0  0  0  0  0
  -24.1530  -13.3530   20.8840 C   0  0  0  0  0  0  0  0  0  0  0  0
  -24.6030  -11.9980   20.8290 C   0  0  0  0  0  0  0  0  0  0  0  0
  -26.2770  -13.2400   20.3260 N   0  0  0  0  0  0  0  0  0  0  0  0
  -25.8980  -11.9540   20.5460 N   0  0  0  0  0  0  0  0  0  0  0  0
  -23.8630  -10.7390   20.9750 C   0  0  0  0  0  0  0  0  0  0  0  0
  -24.2200   -9.7800   21.9480 C   0  0  0  0  0  3  0  0  0  0  0  0
  -23.4830   -8.5840   22.0790 C   0  0  0  0  0  3  0  0  0  0  0  0
  -22.3730   -8.3370   21.2350 C   0  0  0  0  0  0  0  0  0  0  0  0
  -22.0370   -9.2850   20.2520 C   0  0  0  0  0  3  0  0  0  0  0  0
  -22.7740  -10.4730   20.1200 C   0  0  0  0  0  3  0  0  0  0  0  0
  -21.6150   -7.1930   21.2740 O   0  0  0  0  0  0  0  0  0  0  0  0
  -21.4090   -6.5050   22.4430 C   0  0  0  0  0  0  0  0  0  0  0  0
  -20.7830   -7.1020   23.5590 C   0  0  0  0  0  3  0  0  0  0  0  0
  -20.5280   -6.3390   24.7150 C   0  0  0  0  0  3  0  0  0  0  0  0
  -20.8870   -4.9790   24.7550 C   0  0  0  0  0  0  0  0  0  0  0  0
  -21.5050   -4.3800   23.6420 C   0  0  0  0  0  3  0  0  0  0  0  0
  -21.7610   -5.1410   22.4890 C   0  0  0  0  0  0  0  0  0  0  0  0
  -22.3370   -4.5540   21.4120 F   0  0  0  0  0  0  0  0  0  0  0  0
  -20.6360   -4.2420   25.8620 F   0  0  0  0  0  0  0  0  0  0  0  0
  -22.7540  -13.8360   21.1400 C   0  0  0  0  0  0  0  0  0  0  0  0
  -22.0050  -13.1280   21.9780 N   0  0  0  0  0  0  0  0  0  0  0  0
  -22.3320  -14.8740   20.6320 O   0  0  0  0  0  0  0  0  0  0  0  0
  -22.3570  -12.2870   22.4120 H   0  0  0  0  0  0  0  0  0  0  0  0
  -21.0650  -13.4320   22.1910 H   0  0  0  0  0  0  0  0  0  0  0  0
  -25.4160  -15.4970   20.4120 N   0  0  0  0  0  0  0  0  0  0  0  0
  -24.6520  -16.1570   20.5060 H   0  0  0  0  0  0  0  0  0  0  0  0
  -26.2740  -15.9210   20.0830 H   0  0  0  0  0  0  0  0  0  0  0  0
  -25.2950  -23.6850   20.6960 C   0  0  0  0  0  1  0  0  0  0  0  0
  -26.7860  -22.8060   22.5690 C   0  0  0  0  0  1  0  0  0  0  0  0
  -26.5460  -22.8700   21.0520 C   0  0  0  0  0  3  0  0  0  0  0  0
  -29.2980  -26.7240   19.8350 C   0  0  0  0  0  2  0  0  0  0  0  0
  -28.7030  -27.4050   18.7330 O   0  0  0  0  0  0  0  0  0  0  0  0
  -24.5680  -31.2770   23.0540 C   0  0  0  0  0  0  0  0  0  0  0  0
  -27.4740  -27.9500   18.9920 C   0  0  0  0  0  0  0  0  0  0  0  0
  -23.4180  -30.1350   21.1840 C   0  0  0  0  0  3  0  0  0  0  0  0
  -24.9390  -29.1070   19.4130 C   0  0  0  0  0  0  0  0  0  0  0  0
  -25.8740  -30.8130   20.9870 C   0  0  0  0  0  2  0  0  0  0  0  0
  -26.0640  -29.6270   20.0660 C   0  0  0  0  0  0  0  0  0  0  0  0
  -27.3350  -29.0510   19.8610 C   0  0  0  0  0  3  0  0  0  0  0  0
  -26.3390  -27.4300   18.3380 C   0  0  0  0  0  3  0  0  0  0  0  0
  -25.0690  -28.0010   18.5510 C   0  0  0  0  0  3  0  0  0  0  0  0
  -23.6170  -29.7890   19.6830 C   0  0  0  0  0  2  0  0  0  0  0  0
  -24.6390  -30.7450   21.8010 N   0  0  0  0  0  0  0  0  0  0  0  0
  -23.4980  -31.3040   23.6770 O   0  0  0  0  0  0  0  0  0  0  0  0
  -22.9310  -28.8660   21.9190 C   0  0  0  0  0  0  0  0  0  0  0  0
  -21.6310  -28.5590   21.7810 N   0  0  0  0  0  0  0  0  0  0  0  0
  -23.7160  -28.1700   22.5670 O   0  0  0  0  0  0  0  0  0  0  0  0
  -21.0520  -29.1860   21.2410 H   0  0  0  0  0  0  0  0  0  0  0  0
  -18.4420  -26.8840   22.0470 C   0  0  0  0  0  0  0  0  0  0  0  0
  -20.9590  -27.3920   22.3500 C   0  0  0  0  0  3  0  0  0  0  0  0
  -21.2120  -26.1310   21.4910 C   0  0  0  0  0  2  0  0  0  0  0  0
  -20.1250  -25.8880   20.4400 C   0  0  0  0  0  2  0  0  0  0  0  0
  -18.7560  -25.7310   21.1100 C   0  0  0  0  0  2  0  0  0  0  0  0
  -19.4760  -27.6750   22.6170 C   0  0  0  0  0  0  0  0  0  0  0  0
  -19.1280  -28.7570   23.4530 C   0  0  0  0  0  3  0  0  0  0  0  0
  -17.7800  -29.0520   23.7260 C   0  0  0  0  0  3  0  0  0  0  0  0
  -16.7620  -28.2560   23.1750 C   0  0  0  0  0  3  0  0  0  0  0  0
  -17.0930  -27.1740   22.3400 C   0  0  0  0  0  3  0  0  0  0  0  0
  -25.8190  -31.8960   23.7540 C   0  0  0  0  0  3  0  0  0  0  0  0
  -25.4340  -33.2220   24.2530 N   0  0  0  0  0  0  0  0  0  0  0  0
  -25.7400  -34.3810   23.6520 C   0  0  0  0  0  0  0  0  0  0  0  0
  -26.4470  -34.4440   22.6420 O   0  0  0  0  0  0  0  0  0  0  0  0
  -24.8090  -33.2430   25.0460 H   0  0  0  0  0  0  0  0  0  0  0  0
  -23.9380  -36.1240   23.4670 C   0  0  0  0  0  1  0  0  0  0  0  0
  -25.1710  -35.6720   24.2670 C   0  0  0  0  0  3  0  0  0  0  0  0
  -27.2280  -36.5330   25.2910 C   0  0  0  0  0  1  0  0  0  0  0  0
  -26.1540  -36.7750   24.3330 N   0  0  0  0  0  0  0  0  0  0  0  0
  -25.6990  -37.6490   24.5810 H   0  0  0  0  0  0  0  0  0  0  0  0
  -26.3870  -31.0020   24.9230 C   0  0  1  0  0  0  0  0  0  0  0  0
  -25.3180  -30.5790   25.9570 C   0  0  0  0  0  1  0  0  0  0  0  0
  -27.0370  -29.7160   24.3600 C   0  0  0  0  0  1  0  0  0  0  0  0
  -27.5020  -31.7670   25.6760 C   0  0  0  0  0  1  0  0  0  0  0  0
  1  2  2  0
  1  3  1  0
  2  4  1  0
  3  7  1  0
  3  5  2  0
  4 57  1  0
  4  6  2  0
  5  6  1  0
  5 56  1  0
  7  9  1  0
  8 11  1  0
  8  7  2  0
  9 13  1  0
  9 12  1  0
 10  8  1  0
 13 14  1  0
 14 15  1  0
 16 24  1  0
 17 22  1  0
 18 19  1  0
 18 17  1  0
 20 19  1  0
 20 29  1  0
 20 21  1  0
 22 16  1  0
 22 21  1  0
 23 16  2  0
 24 15  1  0
 24 25  1  0
 26 27  2  0
 27 46  1  0
 28 27  1  0
 28 31  1  0
 29 30  1  0
 29 26  1  0
 30 28  2  0
 31 32  1  0
 32 33  2  0
 34 37  1  0
 34 33  1  0
 35 34  2  0
 36 35  1  0
 36 31  2  0
 37 38  1  0
 38 43  2  0
 38 39  1  0
 39 40  2  0
 40 41  1  0
 41 45  1  0
 42 41  2  0
 43 42  1  0
 44 43  1  0
 46 47  1  0
 47 50  1  0
 47 49  1  0
 48 46  2  0
 51 52  1  0
 51 26  1  0
 53 51  1  0
 54 56  1  0
 56 55  1  0
 58 60  1  0
 58 57  1  0
 59 70  2  0
 60 65  1  0
 61 69  1  0
 61 71  1  0
 62 68  1  0
 62 64  1  0
 63 69  1  0
 64 63  1  0
 65 64  2  0
 66 67  1  0
 66 60  2  0
 67 62  2  0
 68 61  1  0
 69 59  1  0
 71 73  2  0
 72 71  1  0
 74 72  1  0
 75 84  2  0
 75 80  1  0
 76 72  1  0
 76 80  1  0
 77 76  1  0
 78 79  1  0
 78 77  1  0
 79 75  1  0
 80 81  2  0
 81 82  1  0
 83 82  2  0
 84 83  1  0
 85 59  1  0
 85 86  1  0
 85 95  1  0
 86 89  1  0
 87 86  1  0
 87 91  1  0
 88 87  2  0
 91 90  1  0
 91 93  1  0
 93 94  1  0
 93 92  1  0
 95 98  1  1
 95 96  1  0
 97 95  1  0
M  ISO  4  16 100  24 100  57 101  58 101
M  END
>  <TORSDO>  (67) 
F 22

>  <SCORE>  (67) 
-9.362

>  <name>  (67) 
66

>  <ligand_id>  (67) 
66

>  <original_smiles>  (67) 
[H]c1c(C([H])([H])Oc2c([H])c([H])c3c(c2[H])C([H])([H])N(C(=O)C([H])(N([H])C(=O)C([H])(N([H])C([H])([H])[H])C([H])([H])[H])C(C([H])([H])[H])(C([H])([H])[H])C([H])([H])[H])C([H])(C(=O)N([H])C2([H])c4c([H])c([H])c([H])c([H])c4C([H])([H])C([H])([H])C2([H])[H])C3([H])[H])nc(C([H])(C([H])([H])[H])C([H])([H])[H])c(C(N([H])[H])=[N+]([H])C([H])([H])C([H])([H])C([H])([H])N([H])C(=O)N2C([H])([H])C([H])([H])C([H])([H])C([H])(n3nc(-c4c([H])c([H])c(Oc5c([H])c([H])c(F)c([H])c5F)c([H])c4[H])c(C(=O)N([H])[H])c3N([H])[H])C2([H])[H])c1[H]

>  <smiles>  (67) 
[H]c1c(C([H])([H])Oc2c([H])c([H])c3c(c2[H])C([H])([H])N(C(=O)C([H])(N([H])C(=O)C([H])(N([H])C([H])([H])[H])C([H])([H])[H])C(C([H])([H])[H])(C([H])([H])[H])C([H])([H])[H])C([H])(C(=O)N([H])C2([H])c4c([H])c([H])c([H])c([H])c4C([H])([H])C([H])([H])C2([H])[H])C3([H])[H])nc(C([H])(C([H])([H])[H])C([H])([H])[H])c(C(N([H])[H])=[N+]([H])C([H])([H])C([H])([H])C([H])([H])N([H])C(=O)N2C([H])([H])C([H])([H])C([H])([H])C([H])(n3nc(-c4c([H])c([H])c(Oc5c([H])c([H])c(F)c([H])c5F)c([H])c4[H])c(C(=O)N([H])[H])c3N([H])[H])C2([H])[H])c1[H]

$$$$
67:0:0
     RDKit          3D

 89 97  0  0  1  0  0  0  0  0999 V2000
  -27.6590  -19.3510   18.8090 C   0  0  0  0  0  3  0  0  0  0  0  0
  -27.8250  -20.6680   19.2920 C   0  0  0  0  0  3  0  0  0  0  0  0
  -28.4130  -18.2690   19.3200 C   0  0  0  0  0  3  0  0  0  0  0  0
  -29.5300  -19.8340   20.8060 C   0  0  0  0  0  3  0  0  0  0  0  0
  -28.7630  -20.9590   20.3040 C   0  0  0  0  0  0  0  0  0  0  0  0
  -29.3730  -18.4730   20.3320 C   0  0  0  0  0  0  0  0  0  0  0  0
  -28.8530  -22.4260   20.9040 C   0  0  0  0  0  2  0  0  0  0  0  0
  -28.5300  -23.7550   20.0440 C   0  0  0  0  0  3  0  0  0  0  0  0
  -28.2810  -25.1240   20.8520 C   0  0  0  0  0  3  0  0  0  0  0  0
  -28.3750  -26.4660   20.2150 O   0  0  0  0  0  0  0  0  0  0  0  0
  -24.6080  -31.8630   23.2410 C   0  0  0  0  0  0  0  0  0  0  0  0
  -27.2510  -27.3020   20.2200 C   0  0  0  0  0  0  0  0  0  0  0  0
  -23.4180  -30.4560   21.5960 C   0  0  0  0  0  3  0  0  0  0  0  0
  -24.8810  -28.9020   20.1850 C   0  0  0  0  0  0  0  0  0  0  0  0
  -25.9540  -30.7840   21.4240 C   0  0  0  0  0  2  0  0  0  0  0  0
  -26.0440  -29.4020   20.7860 C   0  0  0  0  0  0  0  0  0  0  0  0
  -27.2340  -28.6140   20.7890 C   0  0  0  0  0  3  0  0  0  0  0  0
  -26.0680  -26.8490   19.6020 C   0  0  0  0  0  3  0  0  0  0  0  0
  -24.8960  -27.6320   19.5810 C   0  0  0  0  0  3  0  0  0  0  0  0
  -23.6430  -29.7750   20.2190 C   0  0  0  0  0  2  0  0  0  0  0  0
  -24.6780  -31.0530   22.1440 N   0  0  0  0  0  0  0  0  0  0  0  0
  -23.5200  -32.1360   23.7700 O   0  0  0  0  0  0  0  0  0  0  0  0
  -22.7530  -29.4410   22.5550 C   0  0  0  0  0  0  0  0  0  0  0  0
  -21.4260  -29.2700   22.4290 N   0  0  0  0  0  0  0  0  0  0  0  0
  -23.4300  -28.8120   23.3720 O   0  0  0  0  0  0  0  0  0  0  0  0
  -20.9410  -29.8290   21.7430 H   0  0  0  0  0  0  0  0  0  0  0  0
  -18.0430  -28.0900   22.9280 C   0  0  0  0  0  0  0  0  0  0  0  0
  -20.6040  -28.3320   23.1960 C   0  0  0  0  0  3  0  0  0  0  0  0
  -20.6960  -26.9040   22.6110 C   0  0  0  0  0  2  0  0  0  0  0  0
  -19.5890  -26.5920   21.5980 C   0  0  0  0  0  2  0  0  0  0  0  0
  -18.2100  -26.7430   22.2450 C   0  0  0  0  0  2  0  0  0  0  0  0
  -19.1670  -28.8430   23.3610 C   0  0  0  0  0  0  0  0  0  0  0  0
  -18.9550  -30.1030   23.9600 C   0  0  0  0  0  3  0  0  0  0  0  0
  -17.6540  -30.6110   24.1330 C   0  0  0  0  0  3  0  0  0  0  0  0
  -16.5450  -29.8550   23.7170 C   0  0  0  0  0  3  0  0  0  0  0  0
  -16.7410  -28.5960   23.1190 C   0  0  0  0  0  3  0  0  0  0  0  0
  -25.8850  -32.4990   23.8720 C   0  0  0  0  0  3  0  0  0  0  0  0
  -26.3910  -31.7340   25.1570 C   0  0  1  0  0  0  0  0  0  0  0  0
  -25.2900  -31.5030   26.2190 C   0  0  0  0  0  1  0  0  0  0  0  0
  -26.9750  -30.3530   24.7770 C   0  0  0  0  0  1  0  0  0  0  0  0
  -27.5390  -32.5300   25.8240 C   0  0  0  0  0  1  0  0  0  0  0  0
  -25.5720  -33.8990   24.1950 N   0  0  0  0  0  0  0  0  0  0  0  0
  -25.9090  -34.9490   23.4320 C   0  0  0  0  0  0  0  0  0  0  0  0
  -26.5840  -34.8400   22.4060 O   0  0  0  0  0  0  0  0  0  0  0  0
  -24.9750  -34.0570   24.9920 H   0  0  0  0  0  0  0  0  0  0  0  0
  -24.1840  -36.7420   23.0600 C   0  0  0  0  0  1  0  0  0  0  0  0
  -25.4190  -36.3400   23.8820 C   0  0  0  0  0  3  0  0  0  0  0  0
  -27.5490  -37.2270   24.7240 C   0  0  0  0  0  1  0  0  0  0  0  0
  -26.4540  -37.3920   23.7720 N   0  0  0  0  0  0  0  0  0  0  0  0
  -26.0470  -38.3130   23.9120 H   0  0  0  0  0  0  0  0  0  0  0  0
  -30.2470  -17.2560   20.8540 C   0  0  0  0  0  2  0  0  0  0  0  0
  -30.5790  -14.6990   20.3870 C   0  0  0  0  0  0  0  0  0  0  0  0
  -30.3650  -12.4500   19.3310 C   0  0  0  0  0  2  0  0  0  0  0  0
  -29.4120  -12.5470   18.1190 C   0  0  0  0  0  2  0  0  0  0  0  0
  -27.9440  -12.3780   18.5620 C   0  0  0  0  0  2  0  0  0  0  0  0
  -27.5890  -13.2510   19.7950 C   0  0  0  0  0  3  0  0  0  0  0  0
  -28.6560  -13.1290   20.9020 C   0  0  0  0  0  2  0  0  0  0  0  0
  -29.9490  -13.4820   20.3030 N   0  0  0  0  0  0  0  0  0  0  0  0
  -31.7590  -14.8150   20.0400 O   0  0  0  0  0  0  0  0  0  0  0  0
  -29.8140  -15.8070   20.6840 N   0  0  0  0  0  0  0  0  0  0  0  0
  -28.8480  -15.6170   20.9020 H   0  0  0  0  0  0  0  0  0  0  0  0
  -25.2060  -13.8480   20.5410 C   0  0  0  0  0  0  0  0  0  0  0  0
  -24.1430  -13.0730   20.9170 C   0  0  0  0  0  0  0  0  0  0  0  0
  -24.6050  -11.7210   20.8790 C   0  0  0  0  0  0  0  0  0  0  0  0
  -26.2470  -12.9670   20.2940 N   0  0  0  0  0  0  0  0  0  0  0  0
  -25.8920  -11.6840   20.5600 N   0  0  0  0  0  0  0  0  0  0  0  0
  -23.8800  -10.4580   21.0710 C   0  0  0  0  0  0  0  0  0  0  0  0
  -24.3270   -9.4790   21.9850 C   0  0  0  0  0  3  0  0  0  0  0  0
  -23.6010   -8.2820   22.1660 C   0  0  0  0  0  3  0  0  0  0  0  0
  -22.4130   -8.0540   21.4310 C   0  0  0  0  0  0  0  0  0  0  0  0
  -21.9850   -9.0220   20.5060 C   0  0  0  0  0  3  0  0  0  0  0  0
  -22.7110  -10.2110   20.3240 C   0  0  0  0  0  3  0  0  0  0  0  0
  -21.6580   -6.9110   21.5210 O   0  0  0  0  0  0  0  0  0  0  0  0
  -21.6350   -6.1520   22.6640 C   0  0  0  0  0  0  0  0  0  0  0  0
  -21.2340   -6.6880   23.9070 C   0  0  0  0  0  3  0  0  0  0  0  0
  -21.1590   -5.8550   25.0420 C   0  0  0  0  0  3  0  0  0  0  0  0
  -21.4740   -4.4880   24.9340 C   0  0  0  0  0  0  0  0  0  0  0  0
  -21.8690   -3.9510   23.6960 C   0  0  0  0  0  3  0  0  0  0  0  0
  -21.9460   -4.7810   22.5630 C   0  0  0  0  0  0  0  0  0  0  0  0
  -22.3070   -4.2540   21.3690 F   0  0  0  0  0  0  0  0  0  0  0  0
  -21.3940   -3.6860   26.0220 F   0  0  0  0  0  0  0  0  0  0  0  0
  -22.7490  -13.5500   21.2010 C   0  0  0  0  0  0  0  0  0  0  0  0
  -22.0250  -12.8510   22.0700 N   0  0  0  0  0  0  0  0  0  0  0  0
  -22.3090  -14.5770   20.6870 O   0  0  0  0  0  0  0  0  0  0  0  0
  -22.3930  -12.0190   22.5060 H   0  0  0  0  0  0  0  0  0  0  0  0
  -21.0900  -13.1550   22.3020 H   0  0  0  0  0  0  0  0  0  0  0  0
  -25.3670  -15.2190   20.3640 N   0  0  0  0  0  0  0  0  0  0  0  0
  -24.5970  -15.8690   20.4830 H   0  0  0  0  0  0  0  0  0  0  0  0
  -26.2020  -15.6600   20.0010 H   0  0  0  0  0  0  0  0  0  0  0  0
  1  2  2  0
  1  3  1  0
  2  5  1  0
  3  6  2  0
  5  4  2  0
  5  7  1  0
  6  4  1  0
  6 51  1  0
  8  9  2  0
  8  7  1  0
 10 12  1  0
 10  9  1  0
 11 22  2  0
 12 17  1  0
 13 21  1  0
 13 23  1  0
 14 20  1  0
 14 16  1  0
 15 21  1  0
 16 17  2  0
 16 15  1  0
 18 12  2  0
 19 18  1  0
 19 14  2  0
 20 13  1  0
 21 11  1  0
 23 25  2  0
 24 23  1  0
 26 24  1  0
 27 36  2  0
 27 32  1  0
 28 24  1  0
 28 32  1  0
 29 28  1  0
 30 31  1  0
 30 29  1  0
 31 27  1  0
 32 33  2  0
 33 34  1  0
 35 34  2  0
 36 35  1  0
 37 11  1  0
 37 42  1  0
 37 38  1  0
 38 41  1  1
 38 39  1  0
 40 38  1  0
 42 45  1  0
 43 47  1  0
 43 42  1  0
 44 43  2  0
 47 46  1  0
 49 47  1  0
 49 50  1  0
 49 48  1  0
 52 60  1  0
 53 58  1  0
 54 55  1  0
 54 53  1  0
 56 55  1  0
 56 65  1  0
 56 57  1  0
 58 52  1  0
 58 57  1  0
 59 52  2  0
 60 51  1  0
 60 61  1  0
 62 63  2  0
 63 82  1  0
 64 63  1  0
 64 67  1  0
 65 62  1  0
 65 66  1  0
 66 64  2  0
 67 68  1  0
 68 69  2  0
 70 73  1  0
 70 69  1  0
 71 70  2  0
 72 71  1  0
 72 67  2  0
 73 74  1  0
 74 75  1  0
 75 76  2  0
 77 76  1  0
 77 81  1  0
 78 77  2  0
 79 74  2  0
 79 78  1  0
 80 79  1  0
 82 83  1  0
 83 86  1  0
 83 85  1  0
 84 82  2  0
 87 88  1  0
 87 62  1  0
 89 87  1  0
M  ISO  4   9 101  10 101  52 100  60 100
M  END
>  <TORSDO>  (68) 
F 20

>  <SCORE>  (68) 
-13.967

>  <name>  (68) 
67

>  <ligand_id>  (68) 
67

>  <original_smiles>  (68) 
[H]c1c([H])c(C([H])([H])N([H])C(=O)N2C([H])([H])C([H])([H])C([H])([H])C([H])(n3nc(-c4c([H])c([H])c(Oc5c([H])c([H])c(F)c([H])c5F)c([H])c4[H])c(C(=O)N([H])[H])c3N([H])[H])C2([H])[H])c([H])c(C([H])([H])C([H])([H])C([H])([H])Oc2c([H])c([H])c3c(c2[H])C([H])([H])N(C(=O)C([H])(N([H])C(=O)C([H])(N([H])C([H])([H])[H])C([H])([H])[H])C(C([H])([H])[H])(C([H])([H])[H])C([H])([H])[H])C([H])(C(=O)N([H])C2([H])c4c([H])c([H])c([H])c([H])c4C([H])([H])C([H])([H])C2([H])[H])C3([H])[H])c1[H]

>  <smiles>  (68) 
[H]c1c([H])c(C([H])([H])N([H])C(=O)N2C([H])([H])C([H])([H])C([H])([H])C([H])(n3nc(-c4c([H])c([H])c(Oc5c([H])c([H])c(F)c([H])c5F)c([H])c4[H])c(C(=O)N([H])[H])c3N([H])[H])C2([H])[H])c([H])c(C([H])([H])C([H])([H])C([H])([H])Oc2c([H])c([H])c3c(c2[H])C([H])([H])N(C(=O)C([H])(N([H])C(=O)C([H])(N([H])C([H])([H])[H])C([H])([H])[H])C(C([H])([H])[H])(C([H])([H])[H])C([H])([H])[H])C([H])(C(=O)N([H])C2([H])c4c([H])c([H])c([H])c([H])c4C([H])([H])C([H])([H])C2([H])[H])C3([H])[H])c1[H]

$$$$
68:0:0
     RDKit          3D

 93101  0  0  1  0  0  0  0  0999 V2000
  -29.0300  -20.3320   19.6470 C   0  0  0  0  0  3  0  0  0  0  0  0
  -29.7570  -19.2150   20.1680 C   0  0  0  0  0  0  0  0  0  0  0  0
  -30.5300  -19.9010   21.1750 C   0  0  0  0  0  0  0  0  0  0  0  0
  -30.2650  -21.2840   21.1920 C   0  0  0  0  0  0  0  0  0  0  0  0
  -29.3200  -21.6450   20.2130 N   0  0  0  0  0  0  0  0  0  0  0  0
  -31.0340  -18.3990   23.1720 C   0  0  0  0  0  1  0  0  0  0  0  0
  -31.5960  -19.1950   21.9920 C   0  0  0  0  0  2  0  0  0  0  0  0
  -30.8840  -22.1700   23.5010 C   0  0  0  0  0  1  0  0  0  0  0  0
  -30.9540  -22.3790   21.9820 C   0  0  0  0  0  3  0  0  0  0  0  0
  -32.6460  -22.6070   20.0110 C   0  0  0  0  0  1  0  0  0  0  0  0
  -32.4020  -22.6830   21.5290 C   0  0  0  0  0  2  0  0  0  0  0  0
  -29.9190  -17.6250   19.6050 C   0  0  0  0  0  2  0  0  0  0  0  0
  -30.5380  -14.9520   20.0440 C   0  0  0  0  0  0  0  0  0  0  0  0
  -30.3770  -12.5600   19.1770 C   0  0  0  0  0  2  0  0  0  0  0  0
  -29.4060  -12.4960   17.9730 C   0  0  0  0  0  2  0  0  0  0  0  0
  -27.9590  -12.2860   18.4590 C   0  0  0  0  0  2  0  0  0  0  0  0
  -27.5960  -13.2330   19.6330 C   0  0  0  0  0  3  0  0  0  0  0  0
  -28.6910  -13.2740   20.7220 C   0  0  0  0  0  2  0  0  0  0  0  0
  -29.9400  -13.6830   20.0680 N   0  0  0  0  0  0  0  0  0  0  0  0
  -31.7050  -14.9870   19.6360 O   0  0  0  0  0  0  0  0  0  0  0  0
  -29.8050  -16.1690   20.2660 N   0  0  0  0  0  0  0  0  0  0  0  0
  -28.9100  -16.0070   20.7010 H   0  0  0  0  0  0  0  0  0  0  0  0
  -25.2630  -13.8360   20.4930 C   0  0  0  0  0  0  0  0  0  0  0  0
  -24.2040  -13.0720   20.9000 C   0  0  0  0  0  0  0  0  0  0  0  0
  -24.6420  -11.7140   20.8180 C   0  0  0  0  0  0  0  0  0  0  0  0
  -26.2770  -12.9440   20.1860 N   0  0  0  0  0  0  0  0  0  0  0  0
  -25.9160  -11.6600   20.4470 N   0  0  0  0  0  0  0  0  0  0  0  0
  -23.8990  -10.4620   21.0180 C   0  0  0  0  0  0  0  0  0  0  0  0
  -24.3500   -9.4680   21.9150 C   0  0  0  0  0  3  0  0  0  0  0  0
  -23.6060   -8.2830   22.1030 C   0  0  0  0  0  3  0  0  0  0  0  0
  -22.3960   -8.0850   21.3960 C   0  0  0  0  0  0  0  0  0  0  0  0
  -21.9650   -9.0680   20.4860 C   0  0  0  0  0  3  0  0  0  0  0  0
  -22.7090  -10.2430   20.2960 C   0  0  0  0  0  3  0  0  0  0  0  0
  -21.6220   -6.9540   21.4930 O   0  0  0  0  0  0  0  0  0  0  0  0
  -21.6060   -6.1880   22.6330 C   0  0  0  0  0  0  0  0  0  0  0  0
  -21.2460   -6.7280   23.8860 C   0  0  0  0  0  3  0  0  0  0  0  0
  -21.1750   -5.8930   25.0200 C   0  0  0  0  0  3  0  0  0  0  0  0
  -21.4520   -4.5190   24.9000 C   0  0  0  0  0  0  0  0  0  0  0  0
  -21.8040   -3.9770   23.6510 C   0  0  0  0  0  3  0  0  0  0  0  0
  -21.8780   -4.8100   22.5200 C   0  0  0  0  0  0  0  0  0  0  0  0
  -22.1970   -4.2790   21.3160 F   0  0  0  0  0  0  0  0  0  0  0  0
  -21.3750   -3.7130   25.9850 F   0  0  0  0  0  0  0  0  0  0  0  0
  -22.8300  -13.5730   21.2420 C   0  0  0  0  0  0  0  0  0  0  0  0
  -22.1270  -12.8790   22.1320 N   0  0  0  0  0  0  0  0  0  0  0  0
  -22.3900  -14.6140   20.7570 O   0  0  0  0  0  0  0  0  0  0  0  0
  -22.4920  -12.0370   22.5470 H   0  0  0  0  0  0  0  0  0  0  0  0
  -21.2070  -13.1960   22.4000 H   0  0  0  0  0  0  0  0  0  0  0  0
  -25.4390  -15.2060   20.3300 N   0  0  0  0  0  0  0  0  0  0  0  0
  -24.6760  -15.8640   20.4640 H   0  0  0  0  0  0  0  0  0  0  0  0
  -26.2610  -15.6390   19.9260 H   0  0  0  0  0  0  0  0  0  0  0  0
  -28.9420  -23.1340   19.6820 C   0  0  0  0  0  2  0  0  0  0  0  0
  -28.2220  -24.4880   20.4570 C   0  0  0  0  0  2  0  0  0  0  0  0
  -28.4210  -26.0340   20.1680 O   0  0  0  0  0  0  0  0  0  0  0  0
  -24.6700  -31.7030   23.1740 C   0  0  0  0  0  0  0  0  0  0  0  0
  -27.3490  -27.0130   20.1490 C   0  0  0  0  0  0  0  0  0  0  0  0
  -23.5150  -30.3010   21.5120 C   0  0  0  0  0  3  0  0  0  0  0  0
  -25.0020  -28.7510   20.0970 C   0  0  0  0  0  0  0  0  0  0  0  0
  -26.0710  -30.5920   21.3880 C   0  0  0  0  0  2  0  0  0  0  0  0
  -26.1700  -29.2040   20.7240 C   0  0  0  0  0  0  0  0  0  0  0  0
  -27.3460  -28.3540   20.7230 C   0  0  0  0  0  3  0  0  0  0  0  0
  -26.1560  -26.6740   19.4760 C   0  0  0  0  0  3  0  0  0  0  0  0
  -25.0120  -27.5030   19.4550 C   0  0  0  0  0  3  0  0  0  0  0  0
  -23.7650  -29.6380   20.1330 C   0  0  0  0  0  2  0  0  0  0  0  0
  -24.7710  -30.8880   22.0790 N   0  0  0  0  0  0  0  0  0  0  0  0
  -23.5720  -31.9720   23.6860 O   0  0  0  0  0  0  0  0  0  0  0  0
  -22.8360  -29.2800   22.4580 C   0  0  0  0  0  0  0  0  0  0  0  0
  -21.5140  -29.0820   22.3030 N   0  0  0  0  0  0  0  0  0  0  0  0
  -23.5010  -28.6700   23.3000 O   0  0  0  0  0  0  0  0  0  0  0  0
  -21.0340  -29.6210   21.5940 H   0  0  0  0  0  0  0  0  0  0  0  0
  -18.1550  -27.7840   22.7130 C   0  0  0  0  0  0  0  0  0  0  0  0
  -20.6960  -28.1290   23.0580 C   0  0  0  0  0  3  0  0  0  0  0  0
  -20.8600  -26.6970   22.5000 C   0  0  0  0  0  2  0  0  0  0  0  0
  -19.8000  -26.3310   21.4560 C   0  0  0  0  0  2  0  0  0  0  0  0
  -18.3940  -26.4360   22.0550 C   0  0  0  0  0  2  0  0  0  0  0  0
  -19.2350  -28.5860   23.1710 C   0  0  0  0  0  0  0  0  0  0  0  0
  -18.9560  -29.8420   23.7510 C   0  0  0  0  0  3  0  0  0  0  0  0
  -17.6310  -30.3010   23.8740 C   0  0  0  0  0  3  0  0  0  0  0  0
  -16.5650  -29.4980   23.4320 C   0  0  0  0  0  3  0  0  0  0  0  0
  -16.8290  -28.2420   22.8570 C   0  0  0  0  0  3  0  0  0  0  0  0
  -25.9290  -32.3540   23.8240 C   0  0  0  0  0  3  0  0  0  0  0  0
  -25.5940  -33.7480   24.1560 N   0  0  0  0  0  0  0  0  0  0  0  0
  -25.9220  -34.8120   23.4120 C   0  0  0  0  0  0  0  0  0  0  0  0
  -26.6030  -34.7260   22.3880 O   0  0  0  0  0  0  0  0  0  0  0  0
  -24.9850  -33.8890   24.9490 H   0  0  0  0  0  0  0  0  0  0  0  0
  -24.1660  -36.5810   23.0680 C   0  0  0  0  0  1  0  0  0  0  0  0
  -25.4140  -36.1930   23.8760 C   0  0  0  0  0  3  0  0  0  0  0  0
  -27.5340  -37.1050   24.7120 C   0  0  0  0  0  1  0  0  0  0  0  0
  -26.4310  -37.2600   23.7680 N   0  0  0  0  0  0  0  0  0  0  0  0
  -26.0120  -38.1740   23.9170 H   0  0  0  0  0  0  0  0  0  0  0  0
  -26.4270  -31.5870   25.1100 C   0  0  1  0  0  0  0  0  0  0  0  0
  -25.3140  -31.3410   26.1570 C   0  0  0  0  0  1  0  0  0  0  0  0
  -27.0270  -30.2120   24.7360 C   0  0  0  0  0  1  0  0  0  0  0  0
  -27.5600  -32.3900   25.7900 C   0  0  0  0  0  1  0  0  0  0  0  0
  1  2  2  0
  1  5  1  0
  2  3  1  0
  3  4  2  0
  3  7  1  0
  4  9  1  0
  5  4  1  0
  7  6  1  0
  9  8  1  0
 10 11  1  0
 11  9  1  0
 12  2  1  0
 12 21  1  0
 13 19  1  0
 13 21  1  0
 14 19  1  0
 15 16  1  0
 15 14  1  0
 17 16  1  0
 17 26  1  0
 17 18  1  0
 19 18  1  0
 20 13  2  0
 21 22  1  0
 23 24  2  0
 24 43  1  0
 25 24  1  0
 25 28  1  0
 26 27  1  0
 26 23  1  0
 27 25  2  0
 28 29  1  0
 29 30  2  0
 31 34  1  0
 31 30  1  0
 32 31  2  0
 33 32  1  0
 33 28  2  0
 34 35  1  0
 35 36  1  0
 36 37  2  0
 38 37  1  0
 38 42  1  0
 39 38  2  0
 40 35  2  0
 40 39  1  0
 41 40  1  0
 43 44  1  0
 44 47  1  0
 44 46  1  0
 45 43  2  0
 48 49  1  0
 48 23  1  0
 50 48  1  0
 51  5  1  0
 51 52  1  0
 53 52  1  0
 54 65  2  0
 55 53  1  0
 55 60  1  0
 56 64  1  0
 56 66  1  0
 57 63  1  0
 57 59  1  0
 58 64  1  0
 59 58  1  0
 60 59  2  0
 61 55  2  0
 62 61  1  0
 62 57  2  0
 63 56  1  0
 64 54  1  0
 66 68  2  0
 67 66  1  0
 69 67  1  0
 70 79  2  0
 70 75  1  0
 71 67  1  0
 71 75  1  0
 72 71  1  0
 73 74  1  0
 73 72  1  0
 74 70  1  0
 75 76  2  0
 76 77  1  0
 78 77  2  0
 79 78  1  0
 80 54  1  0
 80 81  1  0
 80 90  1  0
 81 84  1  0
 82 86  1  0
 82 81  1  0
 83 82  2  0
 86 85  1  0
 88 86  1  0
 88 89  1  0
 88 87  1  0
 90 93  1  1
 90 91  1  0
 92 90  1  0
M  ISO  4  13 100  21 100  52 101  53 101
M  END
>  <TORSDO>  (69) 
F 22

>  <SCORE>  (69) 
-13.194

>  <name>  (69) 
68

>  <ligand_id>  (69) 
68

>  <original_smiles>  (69) 
[H]c1c([H])c([H])c2c(c1[H])C([H])([H])C([H])([H])C([H])([H])C2([H])N([H])C(=O)C1([H])N(C(=O)C([H])(N([H])C(=O)C([H])(N([H])C([H])([H])[H])C([H])([H])[H])C(C([H])([H])[H])(C([H])([H])[H])C([H])([H])[H])C([H])([H])c2c([H])c(OC([H])([H])C([H])([H])n3c([H])c(C([H])([H])N([H])C(=O)N4C([H])([H])C([H])([H])C([H])([H])C([H])(n5nc(-c6c([H])c([H])c(Oc7c([H])c([H])c(F)c([H])c7F)c([H])c6[H])c(C(=O)N([H])[H])c5N([H])[H])C4([H])[H])c(C([H])([H])C([H])([H])[H])c3C([H])(C([H])([H])[H])C([H])([H])C([H])([H])[H])c([H])c([H])c2C1([H])[H]

>  <smiles>  (69) 
[H]c1c([H])c([H])c2c(c1[H])C([H])([H])C([H])([H])C([H])([H])C2([H])N([H])C(=O)C1([H])N(C(=O)C([H])(N([H])C(=O)C([H])(N([H])C([H])([H])[H])C([H])([H])[H])C(C([H])([H])[H])(C([H])([H])[H])C([H])([H])[H])C([H])([H])c2c([H])c(OC([H])([H])C([H])([H])n3c([H])c(C([H])([H])N([H])C(=O)N4C([H])([H])C([H])([H])C([H])([H])C([H])(n5nc(-c6c([H])c([H])c(Oc7c([H])c([H])c(F)c([H])c7F)c([H])c6[H])c(C(=O)N([H])[H])c5N([H])[H])C4([H])[H])c(C([H])([H])C([H])([H])[H])c3C([H])(C([H])([H])[H])C([H])([H])C([H])([H])[H])c([H])c([H])c2C1([H])[H]

$$$$
69:0:0
     RDKit          3D

 96104  0  0  1  0  0  0  0  0999 V2000
  -30.2420  -21.1930   22.0280 C   0  0  0  0  0  3  0  0  0  0  0  0
  -28.7710  -20.9020   20.1260 C   0  0  0  0  0  3  0  0  0  0  0  0
  -30.3310  -22.5750   21.7490 C   0  0  0  0  0  3  0  0  0  0  0  0
  -28.8490  -22.2880   19.8570 C   0  0  0  0  0  3  0  0  0  0  0  0
  -29.4860  -20.3340   21.2030 C   0  0  0  0  0  0  0  0  0  0  0  0
  -29.6540  -23.1520   20.6420 C   0  0  0  0  0  0  0  0  0  0  0  0
  -30.1480  -24.7510   18.7500 C   0  0  0  0  0  1  0  0  0  0  0  0
  -30.9770  -25.3250   21.0250 C   0  0  0  0  0  1  0  0  0  0  0  0
  -29.8180  -24.6530   20.2550 C   0  0  2  0  0  0  0  0  0  0  0  0
  -28.5150  -25.4560   20.5370 C   0  0  0  0  0  2  0  0  0  0  0  0
  -28.6330  -26.8570   20.1920 O   0  0  0  0  0  0  0  0  0  0  0  0
  -24.6800  -31.9380   23.2650 C   0  0  0  0  0  0  0  0  0  0  0  0
  -27.4600  -27.5840   20.1720 C   0  0  0  0  0  0  0  0  0  0  0  0
  -23.5360  -30.5440   21.5720 C   0  0  0  0  0  3  0  0  0  0  0  0
  -25.0480  -29.0640   20.1500 C   0  0  0  0  0  0  0  0  0  0  0  0
  -26.0610  -30.9480   21.4410 C   0  0  0  0  0  2  0  0  0  0  0  0
  -26.1850  -29.5920   20.7750 C   0  0  0  0  0  0  0  0  0  0  0  0
  -27.3960  -28.8610   20.7800 C   0  0  0  0  0  3  0  0  0  0  0  0
  -26.3100  -27.0840   19.5240 C   0  0  0  0  0  3  0  0  0  0  0  0
  -25.1070  -27.8120   19.5180 C   0  0  0  0  0  3  0  0  0  0  0  0
  -23.7870  -29.8980   20.1850 C   0  0  0  0  0  2  0  0  0  0  0  0
  -24.7750  -31.1570   22.1520 N   0  0  0  0  0  0  0  0  0  0  0  0
  -23.5820  -32.1820   23.7840 O   0  0  0  0  0  0  0  0  0  0  0  0
  -22.8830  -29.4920   22.5000 C   0  0  0  0  0  0  0  0  0  0  0  0
  -21.5650  -29.2890   22.3400 N   0  0  0  0  0  0  0  0  0  0  0  0
  -23.5610  -28.8630   23.3170 O   0  0  0  0  0  0  0  0  0  0  0  0
  -21.0800  -29.8520   21.6550 H   0  0  0  0  0  0  0  0  0  0  0  0
  -18.1970  -28.0470   22.7620 C   0  0  0  0  0  0  0  0  0  0  0  0
  -20.7490  -28.3220   23.0740 C   0  0  0  0  0  3  0  0  0  0  0  0
  -20.8740  -26.9080   22.4600 C   0  0  0  0  0  2  0  0  0  0  0  0
  -19.7880  -26.6020   21.4240 C   0  0  0  0  0  2  0  0  0  0  0  0
  -18.3970  -26.7180   22.0520 C   0  0  0  0  0  2  0  0  0  0  0  0
  -19.3020  -28.8080   23.2260 C   0  0  0  0  0  0  0  0  0  0  0  0
  -19.0650  -30.0540   23.8480 C   0  0  0  0  0  3  0  0  0  0  0  0
  -17.7540  -30.5390   24.0080 C   0  0  0  0  0  3  0  0  0  0  0  0
  -16.6620  -29.7750   23.5600 C   0  0  0  0  0  3  0  0  0  0  0  0
  -16.8840  -28.5310   22.9440 C   0  0  0  0  0  3  0  0  0  0  0  0
  -25.9410  -32.5810   23.9220 C   0  0  0  0  0  3  0  0  0  0  0  0
  -25.6060  -33.9730   24.2500 N   0  0  0  0  0  0  0  0  0  0  0  0
  -25.9400  -35.0320   23.4990 C   0  0  0  0  0  0  0  0  0  0  0  0
  -26.6320  -34.9400   22.4810 O   0  0  0  0  0  0  0  0  0  0  0  0
  -24.9900  -34.1180   25.0370 H   0  0  0  0  0  0  0  0  0  0  0  0
  -24.1900  -36.7980   23.1140 C   0  0  0  0  0  1  0  0  0  0  0  0
  -25.4210  -36.4120   23.9480 C   0  0  0  0  0  3  0  0  0  0  0  0
  -27.5230  -37.3290   24.8260 C   0  0  0  0  0  1  0  0  0  0  0  0
  -26.4390  -37.4820   23.8580 N   0  0  0  0  0  0  0  0  0  0  0  0
  -26.0150  -38.3950   24.0020 H   0  0  0  0  0  0  0  0  0  0  0  0
  -26.4330  -31.8090   25.2070 C   0  0  1  0  0  0  0  0  0  0  0  0
  -25.3090  -31.5280   26.2330 C   0  0  0  0  0  1  0  0  0  0  0  0
  -27.0640  -30.4520   24.8170 C   0  0  0  0  0  1  0  0  0  0  0  0
  -27.5360  -32.6240   25.9200 C   0  0  0  0  0  1  0  0  0  0  0  0
  -29.4490  -18.8230   21.4720 C   0  0  0  0  0  2  0  0  0  0  0  0
  -31.2530  -17.5940   22.8110 C   0  0  0  0  0  1  0  0  0  0  0  0
  -30.8460  -18.1280   21.4240 C   0  0  0  0  0  3  0  0  0  0  0  0
  -31.0770  -17.0600   20.3010 C   0  0  0  0  0  3  0  0  0  0  0  0
  -31.2290  -14.5620   20.3490 C   0  0  0  0  0  0  0  0  0  0  0  0
  -30.8420  -12.3710   19.3020 C   0  0  0  0  0  2  0  0  0  0  0  0
  -29.9330  -12.5630   18.0730 C   0  0  0  0  0  2  0  0  0  0  0  0
  -28.4520  -12.4810   18.4860 C   0  0  0  0  0  2  0  0  0  0  0  0
  -28.1180  -13.3720   19.7140 C   0  0  0  0  0  3  0  0  0  0  0  0
  -29.1580  -13.1970   20.8450 C   0  0  0  0  0  2  0  0  0  0  0  0
  -30.4920  -13.4210   20.2740 N   0  0  0  0  0  0  0  0  0  0  0  0
  -32.3960  -14.6070   19.9550 O   0  0  0  0  0  0  0  0  0  0  0  0
  -30.5650  -15.7040   20.6340 N   0  0  0  0  0  0  0  0  0  0  0  0
  -29.6030  -15.6230   20.9240 H   0  0  0  0  0  0  0  0  0  0  0  0
  -25.7350  -14.0490   20.4010 C   0  0  0  0  0  0  0  0  0  0  0  0
  -24.6430  -13.3100   20.7660 C   0  0  0  0  0  0  0  0  0  0  0  0
  -25.0650  -11.9450   20.7490 C   0  0  0  0  0  0  0  0  0  0  0  0
  -26.7560  -13.1370   20.1860 N   0  0  0  0  0  0  0  0  0  0  0  0
  -26.3570  -11.8660   20.4550 N   0  0  0  0  0  0  0  0  0  0  0  0
  -24.3010  -10.7060   20.9390 C   0  0  0  0  0  0  0  0  0  0  0  0
  -24.6670   -9.7550   21.9180 C   0  0  0  0  0  3  0  0  0  0  0  0
  -23.9040   -8.5810   22.0950 C   0  0  0  0  0  3  0  0  0  0  0  0
  -22.7610   -8.3490   21.2930 C   0  0  0  0  0  0  0  0  0  0  0  0
  -22.4150   -9.2870   20.3040 C   0  0  0  0  0  3  0  0  0  0  0  0
  -23.1790  -10.4520   20.1260 C   0  0  0  0  0  3  0  0  0  0  0  0
  -21.9740   -7.2240   21.3770 O   0  0  0  0  0  0  0  0  0  0  0  0
  -21.8160   -6.5430   22.5570 C   0  0  0  0  0  0  0  0  0  0  0  0
  -21.2840   -7.1620   23.7080 C   0  0  0  0  0  3  0  0  0  0  0  0
  -21.0730   -6.4080   24.8800 C   0  0  0  0  0  3  0  0  0  0  0  0
  -21.3850   -5.0360   24.9000 C   0  0  0  0  0  0  0  0  0  0  0  0
  -21.9100   -4.4160   23.7510 C   0  0  0  0  0  3  0  0  0  0  0  0
  -22.1220   -5.1680   22.5830 C   0  0  0  0  0  0  0  0  0  0  0  0
  -22.6080   -4.5620   21.4730 F   0  0  0  0  0  0  0  0  0  0  0  0
  -21.1760   -4.3080   26.0220 F   0  0  0  0  0  0  0  0  0  0  0  0
  -23.2570  -13.8290   21.0200 C   0  0  0  0  0  0  0  0  0  0  0  0
  -22.5060  -13.1660   21.8940 N   0  0  0  0  0  0  0  0  0  0  0  0
  -22.8490  -14.8580   20.4840 O   0  0  0  0  0  0  0  0  0  0  0  0
  -22.8500  -12.3320   22.3480 H   0  0  0  0  0  0  0  0  0  0  0  0
  -21.5760  -13.4930   22.1100 H   0  0  0  0  0  0  0  0  0  0  0  0
  -25.9430  -15.4120   20.2150 N   0  0  0  0  0  0  0  0  0  0  0  0
  -25.1940  -16.0890   20.3040 H   0  0  0  0  0  0  0  0  0  0  0  0
  -26.8080  -15.8210   19.8860 H   0  0  0  0  0  0  0  0  0  0  0  0
  -30.7330  -16.4110   17.8060 C   0  0  0  0  0  1  0  0  0  0  0  0
  -31.5180  -18.7150   18.3920 C   0  0  0  0  0  1  0  0  0  0  0  0
  -30.6640  -17.5230   18.8680 C   0  0  0  0  0  3  0  0  0  0  0  0
  2  5  1  0
  3  1  1  0
  4  2  2  0
  4  6  1  0
  5 52  1  0
  5  1  2  0
  6  3  2  0
  9  7  1  6
  9 10  1  0
  9  6  1  0
  9  8  1  0
 11 10  1  0
 12 23  2  0
 13 11  1  0
 13 18  1  0
 14 22  1  0
 14 24  1  0
 15 21  1  0
 15 17  1  0
 16 22  1  0
 17 18  2  0
 17 16  1  0
 19 13  2  0
 20 19  1  0
 20 15  2  0
 21 14  1  0
 22 12  1  0
 24 26  2  0
 25 24  1  0
 27 25  1  0
 28 37  2  0
 28 33  1  0
 29 25  1  0
 29 33  1  0
 30 29  1  0
 31 32  1  0
 31 30  1  0
 32 28  1  0
 33 34  2  0
 34 35  1  0
 36 35  2  0
 37 36  1  0
 38 12  1  0
 38 39  1  0
 38 48  1  0
 39 42  1  0
 40 44  1  0
 40 39  1  0
 41 40  2  0
 44 43  1  0
 46 44  1  0
 46 47  1  0
 46 45  1  0
 48 51  1  1
 48 49  1  0
 50 48  1  0
 54 52  1  0
 54 53  1  0
 55 96  1  0
 55 64  1  0
 55 54  1  0
 56 64  1  0
 57 62  1  0
 58 59  1  0
 58 57  1  0
 60 59  1  0
 60 69  1  0
 60 61  1  0
 62 56  1  0
 62 61  1  0
 63 56  2  0
 64 65  1  0
 66 67  2  0
 67 86  1  0
 68 67  1  0
 68 71  1  0
 69 66  1  0
 69 70  1  0
 70 68  2  0
 71 72  1  0
 72 73  2  0
 74 77  1  0
 74 73  1  0
 75 74  2  0
 76 75  1  0
 76 71  2  0
 77 78  1  0
 78 83  2  0
 78 79  1  0
 79 80  2  0
 80 81  1  0
 81 85  1  0
 82 81  2  0
 83 82  1  0
 84 83  1  0
 86 87  1  0
 87 90  1  0
 87 89  1  0
 88 86  2  0
 91 92  1  0
 91 66  1  0
 93 91  1  0
 94 96  1  0
 95 96  1  0
M  ISO  4  10 101  11 101  56 100  64 100
M  END
>  <TORSDO>  (70) 
F 22

>  <SCORE>  (70) 
-12.008

>  <name>  (70) 
69

>  <ligand_id>  (70) 
69

>  <original_smiles>  (70) 
[H]c1c([H])c([H])c2c(c1[H])C([H])([H])C([H])([H])C([H])([H])C2([H])N([H])C(=O)C1([H])N(C(=O)C([H])(N([H])C(=O)C([H])(N([H])C([H])([H])[H])C([H])([H])[H])C(C([H])([H])[H])(C([H])([H])[H])C([H])([H])[H])C([H])([H])c2c([H])c(OC([H])([H])C(c3c([H])c([H])c(C([H])([H])C([H])(C([H])([H])[H])C([H])(N([H])C(=O)N4C([H])([H])C([H])([H])C([H])([H])C([H])(n5nc(-c6c([H])c([H])c(Oc7c([H])c([H])c(F)c([H])c7F)c([H])c6[H])c(C(=O)N([H])[H])c5N([H])[H])C4([H])[H])C([H])(C([H])([H])[H])C([H])([H])[H])c([H])c3[H])(C([H])([H])[H])C([H])([H])[H])c([H])c([H])c2C1([H])[H]

>  <smiles>  (70) 
[H]c1c([H])c([H])c2c(c1[H])C([H])([H])C([H])([H])C([H])([H])C2([H])N([H])C(=O)C1([H])N(C(=O)C([H])(N([H])C(=O)C([H])(N([H])C([H])([H])[H])C([H])([H])[H])C(C([H])([H])[H])(C([H])([H])[H])C([H])([H])[H])C([H])([H])c2c([H])c(OC([H])([H])C(c3c([H])c([H])c(C([H])([H])C([H])(C([H])([H])[H])C([H])(N([H])C(=O)N4C([H])([H])C([H])([H])C([H])([H])C([H])(n5nc(-c6c([H])c([H])c(Oc7c([H])c([H])c(F)c([H])c7F)c([H])c6[H])c(C(=O)N([H])[H])c5N([H])[H])C4([H])[H])C([H])(C([H])([H])[H])C([H])([H])[H])c([H])c3[H])(C([H])([H])[H])C([H])([H])[H])c([H])c([H])c2C1([H])[H]

$$$$
70:0:0
     RDKit          3D

 93100  0  0  1  0  0  0  0  0999 V2000
  -28.4680  -21.8520   22.1940 C   0  0  0  0  0  1  0  0  0  0  0  0
  -29.1340  -22.0370   20.8710 N   0  0  1  0  0  4  0  0  0  0  0  0
  -30.1190  -22.1130   21.0870 H   0  0  0  0  0  0  0  0  0  0  0  0
  -29.0300  -20.6520   20.0710 C   0  0  0  0  0  2  0  0  0  0  0  0
  -30.1000  -19.3070   20.1430 C   0  0  2  0  0  0  0  0  0  0  0  0
  -31.9350  -20.0440   21.9450 C   0  0  0  0  0  1  0  0  0  0  0  0
  -30.7850  -19.1020   21.5340 C   0  0  0  0  0  2  0  0  0  0  0  0
  -31.7040  -20.9110   18.7530 C   0  0  0  0  0  1  0  0  0  0  0  0
  -31.1620  -19.4970   19.0190 C   0  0  0  0  0  2  0  0  0  0  0  0
  -29.5100  -17.7660   19.7540 C   0  0  0  0  0  2  0  0  0  0  0  0
  -30.7040  -15.2360   20.0350 C   0  0  0  0  0  0  0  0  0  0  0  0
  -30.6770  -12.8350   19.2270 C   0  0  0  0  0  2  0  0  0  0  0  0
  -29.7180  -12.6970   18.0180 C   0  0  0  0  0  2  0  0  0  0  0  0
  -28.2610  -12.4960   18.4790 C   0  0  0  0  0  2  0  0  0  0  0  0
  -27.8640  -13.4600   19.6290 C   0  0  0  0  0  3  0  0  0  0  0  0
  -28.9380  -13.5080   20.7370 C   0  0  0  0  0  2  0  0  0  0  0  0
  -30.1960  -13.9400   20.1090 N   0  0  0  0  0  0  0  0  0  0  0  0
  -31.8330  -15.3760   19.5550 O   0  0  0  0  0  0  0  0  0  0  0  0
  -29.8780  -16.3430   20.3560 N   0  0  0  0  0  0  0  0  0  0  0  0
  -29.1130  -16.0210   20.9330 H   0  0  0  0  0  0  0  0  0  0  0  0
  -25.5260  -14.0520   20.4940 C   0  0  0  0  0  0  0  0  0  0  0  0
  -24.4690  -13.2760   20.8880 C   0  0  0  0  0  0  0  0  0  0  0  0
  -24.9090  -11.9230   20.7800 C   0  0  0  0  0  0  0  0  0  0  0  0
  -26.5420  -13.1660   20.1680 N   0  0  0  0  0  0  0  0  0  0  0  0
  -26.1810  -11.8790   20.4050 N   0  0  0  0  0  0  0  0  0  0  0  0
  -24.1740  -10.6620   20.9630 C   0  0  0  0  0  0  0  0  0  0  0  0
  -24.5850   -9.6970   21.9110 C   0  0  0  0  0  3  0  0  0  0  0  0
  -23.8500   -8.5030   22.0760 C   0  0  0  0  0  3  0  0  0  0  0  0
  -22.6940   -8.2660   21.2930 C   0  0  0  0  0  0  0  0  0  0  0  0
  -22.3050   -9.2220   20.3390 C   0  0  0  0  0  3  0  0  0  0  0  0
  -23.0380  -10.4060   20.1690 C   0  0  0  0  0  3  0  0  0  0  0  0
  -21.9310   -7.1260   21.3680 O   0  0  0  0  0  0  0  0  0  0  0  0
  -21.7810   -6.4390   22.5450 C   0  0  0  0  0  0  0  0  0  0  0  0
  -21.1990   -7.0360   23.6850 C   0  0  0  0  0  3  0  0  0  0  0  0
  -20.9940   -6.2730   24.8540 C   0  0  0  0  0  3  0  0  0  0  0  0
  -21.3630   -4.9140   24.8820 C   0  0  0  0  0  0  0  0  0  0  0  0
  -21.9360   -4.3170   23.7450 C   0  0  0  0  0  3  0  0  0  0  0  0
  -22.1400   -5.0770   22.5800 C   0  0  0  0  0  0  0  0  0  0  0  0
  -22.6740   -4.4910   21.4810 F   0  0  0  0  0  0  0  0  0  0  0  0
  -21.1610   -4.1790   26.0010 F   0  0  0  0  0  0  0  0  0  0  0  0
  -23.0950  -13.7630   21.2460 C   0  0  0  0  0  0  0  0  0  0  0  0
  -22.4010  -13.0560   22.1360 N   0  0  0  0  0  0  0  0  0  0  0  0
  -22.6410  -14.8030   20.7730 O   0  0  0  0  0  0  0  0  0  0  0  0
  -22.7870  -12.2180   22.5450 H   0  0  0  0  0  0  0  0  0  0  0  0
  -21.4800  -13.3600   22.4130 H   0  0  0  0  0  0  0  0  0  0  0  0
  -25.7010  -15.4270   20.3660 N   0  0  0  0  0  0  0  0  0  0  0  0
  -24.9560  -16.0870   20.5720 H   0  0  0  0  0  0  0  0  0  0  0  0
  -26.5260  -15.8650   19.9740 H   0  0  0  0  0  0  0  0  0  0  0  0
  -28.7870  -23.4620   20.1860 C   0  0  0  0  0  2  0  0  0  0  0  0
  -29.5340  -25.1870   22.0660 C   0  0  0  0  0  1  0  0  0  0  0  0
  -27.0890  -24.8420   21.6390 C   0  0  0  0  0  1  0  0  0  0  0  0
  -28.4720  -24.9660   20.9650 C   0  0  2  0  0  0  0  0  0  0  0  0
  -28.5110  -26.3820   20.2610 O   0  0  0  0  0  0  0  0  0  0  0  0
  -24.7130  -31.9530   23.2680 C   0  0  0  0  0  0  0  0  0  0  0  0
  -27.4370  -27.3570   20.2320 C   0  0  0  0  0  0  0  0  0  0  0  0
  -23.5660  -30.5560   21.5900 C   0  0  0  0  0  3  0  0  0  0  0  0
  -25.0710  -29.0530   20.1550 C   0  0  0  0  0  0  0  0  0  0  0  0
  -26.1120  -30.9050   21.4510 C   0  0  0  0  0  2  0  0  0  0  0  0
  -26.2340  -29.5230   20.7850 C   0  0  0  0  0  0  0  0  0  0  0  0
  -27.4220  -28.6970   20.7950 C   0  0  0  0  0  3  0  0  0  0  0  0
  -26.2540  -26.9950   19.5490 C   0  0  0  0  0  3  0  0  0  0  0  0
  -25.0990  -27.8050   19.5130 C   0  0  0  0  0  3  0  0  0  0  0  0
  -23.8190  -29.9150   20.2020 C   0  0  0  0  0  2  0  0  0  0  0  0
  -24.8150  -31.1580   22.1570 N   0  0  0  0  0  0  0  0  0  0  0  0
  -23.6140  -32.1950   23.7910 O   0  0  0  0  0  0  0  0  0  0  0  0
  -22.9050  -29.5110   22.5250 C   0  0  0  0  0  0  0  0  0  0  0  0
  -21.5830  -29.3110   22.3830 N   0  0  0  0  0  0  0  0  0  0  0  0
  -23.5840  -28.8830   23.3400 O   0  0  0  0  0  0  0  0  0  0  0  0
  -21.0920  -29.8620   21.6920 H   0  0  0  0  0  0  0  0  0  0  0  0
  -18.2210  -28.0420   22.8470 C   0  0  0  0  0  0  0  0  0  0  0  0
  -20.7740  -28.3430   23.1310 C   0  0  0  0  0  3  0  0  0  0  0  0
  -20.9060  -26.9300   22.5180 C   0  0  0  0  0  2  0  0  0  0  0  0
  -19.8140  -26.6120   21.4940 C   0  0  0  0  0  2  0  0  0  0  0  0
  -18.4270  -26.7130   22.1370 C   0  0  0  0  0  2  0  0  0  0  0  0
  -19.3240  -28.8140   23.2980 C   0  0  0  0  0  0  0  0  0  0  0  0
  -19.0780  -30.0570   23.9230 C   0  0  0  0  0  3  0  0  0  0  0  0
  -17.7630  -30.5260   24.0990 C   0  0  0  0  0  3  0  0  0  0  0  0
  -16.6770  -29.7510   23.6640 C   0  0  0  0  0  3  0  0  0  0  0  0
  -16.9050  -28.5100   23.0450 C   0  0  0  0  0  3  0  0  0  0  0  0
  -25.9680  -32.6110   23.9190 C   0  0  0  0  0  3  0  0  0  0  0  0
  -25.6320  -34.0080   24.2320 N   0  0  0  0  0  0  0  0  0  0  0  0
  -25.9570  -35.0590   23.4690 C   0  0  0  0  0  0  0  0  0  0  0  0
  -26.6390  -34.9560   22.4460 O   0  0  0  0  0  0  0  0  0  0  0  0
  -25.0300  -34.1610   25.0280 H   0  0  0  0  0  0  0  0  0  0  0  0
  -24.2020  -36.8200   23.0900 C   0  0  0  0  0  1  0  0  0  0  0  0
  -25.4470  -36.4460   23.9100 C   0  0  0  0  0  3  0  0  0  0  0  0
  -27.5560  -37.3780   24.7510 C   0  0  0  0  0  1  0  0  0  0  0  0
  -26.4630  -37.5140   23.7910 N   0  0  0  0  0  0  0  0  0  0  0  0
  -26.0400  -38.4300   23.9220 H   0  0  0  0  0  0  0  0  0  0  0  0
  -26.4580  -31.8610   25.2190 C   0  0  1  0  0  0  0  0  0  0  0  0
  -25.3320  -31.6020   26.2480 C   0  0  0  0  0  1  0  0  0  0  0  0
  -27.0870  -30.4960   24.8570 C   0  0  0  0  0  1  0  0  0  0  0  0
  -27.5650  -32.6850   25.9150 C   0  0  0  0  0  1  0  0  0  0  0  0
  2  3  1  1
  2  1  1  0
  5  4  1  1
  4  2  1  0
  5  7  1  0
  7  6  1  0
  8  9  1  0
  9  5  1  0
 10  5  1  0
 10 19  1  0
 11 17  1  0
 11 19  1  0
 12 17  1  0
 13 14  1  0
 13 12  1  0
 15 14  1  0
 15 24  1  0
 15 16  1  0
 17 16  1  0
 18 11  2  0
 19 20  1  0
 21 22  2  0
 22 41  1  0
 23 22  1  0
 23 26  1  0
 24 25  1  0
 24 21  1  0
 25 23  2  0
 26 27  1  0
 27 28  2  0
 29 32  1  0
 29 28  1  0
 30 29  2  0
 31 30  1  0
 31 26  2  0
 32 33  1  0
 33 38  2  0
 33 34  1  0
 34 35  2  0
 35 36  1  0
 36 40  1  0
 37 36  2  0
 38 37  1  0
 39 38  1  0
 41 42  1  0
 42 45  1  0
 42 44  1  0
 43 41  2  0
 46 21  1  0
 46 47  1  0
 48 46  1  0
 49  2  1  0
 49 52  1  0
 52 51  1  1
 52 50  1  0
 53 52  1  0
 54 65  2  0
 55 53  1  0
 55 60  1  0
 56 64  1  0
 56 66  1  0
 57 63  1  0
 57 59  1  0
 58 64  1  0
 59 60  2  0
 59 58  1  0
 61 55  2  0
 62 61  1  0
 62 57  2  0
 63 56  1  0
 64 54  1  0
 66 68  2  0
 67 66  1  0
 69 67  1  0
 70 79  2  0
 70 75  1  0
 71 67  1  0
 71 75  1  0
 72 71  1  0
 73 74  1  0
 73 72  1  0
 74 70  1  0
 75 76  2  0
 76 77  1  0
 78 77  2  0
 79 78  1  0
 80 54  1  0
 80 81  1  0
 80 90  1  0
 81 84  1  0
 82 86  1  0
 82 81  1  0
 83 82  2  0
 86 85  1  0
 88 86  1  0
 88 89  1  0
 88 87  1  0
 90 93  1  1
 90 91  1  0
 92 90  1  0
M  ISO  4  11 100  19 100  52 101  53 101
M  END
>  <TORSDO>  (71) 
F 23

>  <SCORE>  (71) 
-14.272

>  <name>  (71) 
70

>  <ligand_id>  (71) 
70

>  <original_smiles>  (71) 
[H]c1c([H])c([H])c2c(c1[H])C([H])([H])C([H])([H])C([H])([H])C2([H])N([H])C(=O)C1([H])N(C(=O)C([H])(N([H])C(=O)C([H])(N([H])C([H])([H])[H])C([H])([H])[H])C(C([H])([H])[H])(C([H])([H])[H])C([H])([H])[H])C([H])([H])c2c([H])c(OC(C([H])([H])[H])(C([H])([H])[H])C([H])([H])[N+]([H])(C([H])([H])[H])C([H])([H])C(C([H])([H])N([H])C(=O)N3C([H])([H])C([H])([H])C([H])([H])C([H])(n4nc(-c5c([H])c([H])c(Oc6c([H])c([H])c(F)c([H])c6F)c([H])c5[H])c(C(=O)N([H])[H])c4N([H])[H])C3([H])[H])(C([H])([H])C([H])([H])[H])C([H])([H])C([H])([H])[H])c([H])c([H])c2C1([H])[H]

>  <smiles>  (71) 
[H]c1c([H])c([H])c2c(c1[H])C([H])([H])C([H])([H])C([H])([H])C2([H])N([H])C(=O)C1([H])N(C(=O)C([H])(N([H])C(=O)C([H])(N([H])C([H])([H])[H])C([H])([H])[H])C(C([H])([H])[H])(C([H])([H])[H])C([H])([H])[H])C([H])([H])c2c([H])c(OC(C([H])([H])[H])(C([H])([H])[H])C([H])([H])[N+]([H])(C([H])([H])[H])C([H])([H])C(C([H])([H])N([H])C(=O)N3C([H])([H])C([H])([H])C([H])([H])C([H])(n4nc(-c5c([H])c([H])c(Oc6c([H])c([H])c(F)c([H])c6F)c([H])c5[H])c(C(=O)N([H])[H])c4N([H])[H])C3([H])[H])(C([H])([H])C([H])([H])[H])C([H])([H])C([H])([H])[H])c([H])c([H])c2C1([H])[H]

$$$$
71:0:0
     RDKit          3D

 96 98  0  0  1  0  0  0  0  0999 V2000
  -22.8300  -22.4460   19.6320 C   0  0  0  0  0  1  0  0  0  0  0  0
  -23.4220  -23.5470   20.5360 C   0  0  0  0  0  2  0  0  0  0  0  0
  -22.0440  -24.2090   21.6190 N   0  0  0  0  0  0  0  0  0  0  0  0
  -21.5020  -23.3640   21.6870 H   0  0  0  0  0  0  0  0  0  0  0  0
  -22.4540  -24.2620   22.5390 H   0  0  0  0  0  0  0  0  0  0  0  0
  -20.5580  -25.4500   21.7240 C   0  0  0  0  0  1  0  0  0  0  0  0
  -20.9300  -27.9780   20.2310 C   0  0  0  0  0  1  0  0  0  0  0  0
  -22.8440  -28.3420   19.6450 C   0  0  0  0  0  1  0  0  0  0  0  0
  -24.5900  -27.8360   19.8390 O   0  0  0  0  0  0  0  0  0  0  0  0
  -24.8350  -31.8440   23.6320 C   0  0  0  0  0  0  0  0  0  0  0  0
  -25.8880  -28.2280   19.3250 C   0  0  0  0  0  3  0  0  0  0  0  0
  -23.4630  -31.1310   21.7450 C   0  0  0  0  0  3  0  0  0  0  0  0
  -24.7130  -30.4940   19.5490 C   0  0  0  0  0  3  0  0  0  0  0  0
  -26.0010  -31.2990   21.5050 C   0  0  0  0  0  2  0  0  0  0  0  0
  -25.8200  -30.3190   20.3780 C   0  0  0  0  0  3  0  0  0  0  0  0
  -26.5880  -29.1600   20.1560 C   0  0  0  0  0  2  0  0  0  0  0  0
  -25.5620  -28.7150   18.0940 C   0  0  0  0  0  2  0  0  0  0  0  0
  -24.7340  -29.8390   18.2790 C   0  0  0  0  0  2  0  0  0  0  0  0
  -23.5170  -31.2000   20.1690 C   0  0  0  0  0  2  0  0  0  0  0  0
  -24.7840  -31.4780   22.3260 N   0  0  0  0  0  0  0  0  0  0  0  0
  -23.8010  -31.9890   24.3040 O   0  0  0  0  0  0  0  0  0  0  0  0
  -23.0560  -29.7660   22.3850 C   0  0  0  0  0  0  0  0  0  0  0  0
  -21.8860  -29.5960   22.9470 N   0  0  0  0  0  0  0  0  0  0  0  0
  -23.8280  -28.8280   22.4640 O   0  0  0  0  0  0  0  0  0  0  0  0
  -21.2550  -30.3830   22.9790 H   0  0  0  0  0  0  0  0  0  0  0  0
  -18.4980  -28.7030   22.2550 C   0  0  0  0  0  0  0  0  0  0  0  0
  -21.2380  -28.2470   23.0680 C   0  0  0  0  0  2  0  0  0  0  0  0
  -21.9070  -26.8530   21.7140 C   0  0  0  0  0  1  0  0  0  0  0  0
  -20.1080  -26.6700   20.0490 C   0  0  0  0  0  1  0  0  0  0  0  0
  -18.5790  -27.7670   20.7710 C   0  0  0  0  0  1  0  0  0  0  0  0
  -19.6510  -28.9390   23.1760 C   0  0  0  0  0  0  0  0  0  0  0  0
  -19.4530  -29.9890   24.1910 C   0  0  0  0  0  3  0  0  0  0  0  0
  -18.2530  -30.7080   24.4700 C   0  0  0  0  0  3  0  0  0  0  0  0
  -17.1180  -30.3610   23.7280 C   0  0  0  0  0  3  0  0  0  0  0  0
  -17.2590  -29.3990   22.6690 C   0  0  0  0  0  3  0  0  0  0  0  0
  -26.1920  -32.1140   24.3260 C   0  0  0  0  0  3  0  0  0  0  0  0
  -26.1960  -33.5380   24.6790 N   0  0  0  0  0  0  0  0  0  0  0  0
  -26.8180  -34.4890   23.9710 C   0  0  0  0  0  0  0  0  0  0  0  0
  -27.5250  -34.2370   22.9910 O   0  0  0  0  0  0  0  0  0  0  0  0
  -25.5730  -33.8210   25.4210 H   0  0  0  0  0  0  0  0  0  0  0  0
  -25.6200  -36.6530   23.5140 C   0  0  0  0  0  1  0  0  0  0  0  0
  -26.6320  -35.9470   24.4290 C   0  0  0  0  0  3  0  0  0  0  0  0
  -28.8160  -36.2500   25.5050 C   0  0  0  0  0  1  0  0  0  0  0  0
  -27.8960  -36.7130   24.4680 N   0  0  0  0  0  0  0  0  0  0  0  0
  -27.7160  -37.7000   24.6250 H   0  0  0  0  0  0  0  0  0  0  0  0
  -26.4310  -31.2120   25.5980 C   0  0  1  0  0  0  0  0  0  0  0  0
  -25.2650  -31.2410   26.6150 C   0  0  0  0  0  1  0  0  0  0  0  0
  -26.6580  -29.7350   25.2020 C   0  0  0  0  0  1  0  0  0  0  0  0
  -27.7140  -31.6800   26.3170 C   0  0  0  0  0  1  0  0  0  0  0  0
  -25.3250  -22.7610   20.6240 C   0  0  0  0  0 15  0  0  0  0  0  0
  -27.0230  -19.8920   20.3390 C   0  0  0  0  0  3  0  0  0  0  0  0
  -28.3520  -19.3090   19.7900 C   0  0  0  0  0  0  0  0  0  0  0  0
  -27.6980  -21.5910   19.2880 C   0  0  0  0  0  0  0  0  0  0  0  0
  -26.5620  -21.3740   20.0450 N   0  0  0  0  0  0  0  0  0  0  0  0
  -28.6100  -20.5120   19.1120 N   0  0  0  0  0  0  0  0  0  0  0  0
  -29.4460  -20.6130   18.5600 H   0  0  0  0  0  0  0  0  0  0  0  0
  -30.7330  -16.9200   19.7050 C   0  0  0  0  0  0  0  0  0  0  0  0
  -31.7980  -14.4160   19.2280 C   0  0  0  0  0  2  0  0  0  0  0  0
  -31.1050  -13.5550   18.1050 C   0  0  0  0  0  2  0  0  0  0  0  0
  -29.6940  -13.1020   18.5320 C   0  0  0  0  0  2  0  0  0  0  0  0
  -29.0090  -14.2450   19.3130 C   0  0  0  0  0  3  0  0  0  0  0  0
  -29.8520  -14.7040   20.4970 C   0  0  0  0  0  2  0  0  0  0  0  0
  -30.8510  -15.4750   19.8550 N   0  0  0  0  0  0  0  0  0  0  0  0
  -31.9090  -17.2280   19.3230 O   0  0  0  0  0  0  0  0  0  0  0  0
  -29.3730  -17.8060   19.8970 N   0  0  0  0  0  0  0  0  0  0  0  0
  -28.7500  -17.1360   20.3360 H   0  0  0  0  0  0  0  0  0  0  0  0
  -26.7470  -14.9120   20.1570 C   0  0  0  0  0  0  0  0  0  0  0  0
  -25.6740  -14.1680   20.5370 C   0  0  0  0  0  0  0  0  0  0  0  0
  -26.0810  -12.8020   20.4440 C   0  0  0  0  0  0  0  0  0  0  0  0
  -27.7030  -13.9820   19.8060 N   0  0  0  0  0  0  0  0  0  0  0  0
  -27.3430  -12.7120   20.0700 N   0  0  0  0  0  0  0  0  0  0  0  0
  -25.3250  -11.5650   20.6140 C   0  0  0  0  0  0  0  0  0  0  0  0
  -25.6720  -10.6150   21.5970 C   0  0  0  0  0  3  0  0  0  0  0  0
  -24.9120   -9.4360   21.7430 C   0  0  0  0  0  3  0  0  0  0  0  0
  -23.7950   -9.2080   20.9040 C   0  0  0  0  0  0  0  0  0  0  0  0
  -23.4740  -10.1450   19.9080 C   0  0  0  0  0  3  0  0  0  0  0  0
  -24.2340  -11.3150   19.7600 C   0  0  0  0  0  3  0  0  0  0  0  0
  -23.0080   -8.0860   20.9590 O   0  0  0  0  0  0  0  0  0  0  0  0
  -22.5150   -7.6180   22.1480 C   0  0  0  0  0  0  0  0  0  0  0  0
  -21.8300   -8.4560   23.0540 C   0  0  0  0  0  3  0  0  0  0  0  0
  -21.2780   -7.9130   24.2310 C   0  0  0  0  0  3  0  0  0  0  0  0
  -21.4040   -6.5370   24.4990 C   0  0  0  0  0  0  0  0  0  0  0  0
  -22.0820   -5.7020   23.5940 C   0  0  0  0  0  3  0  0  0  0  0  0
  -22.6370   -6.2420   22.4210 C   0  0  0  0  0  0  0  0  0  0  0  0
  -23.2730   -5.4310   21.5410 F   0  0  0  0  0  0  0  0  0  0  0  0
  -20.8650   -6.0130   25.6250 F   0  0  0  0  0  0  0  0  0  0  0  0
  -24.3120  -14.6930   20.8610 C   0  0  0  0  0  0  0  0  0  0  0  0
  -23.6370  -14.0940   21.8330 N   0  0  0  0  0  0  0  0  0  0  0  0
  -23.8610  -15.6770   20.2750 O   0  0  0  0  0  0  0  0  0  0  0  0
  -24.0180  -13.2990   22.3250 H   0  0  0  0  0  0  0  0  0  0  0  0
  -22.7270  -14.4430   22.1000 H   0  0  0  0  0  0  0  0  0  0  0  0
  -26.9660  -16.2870   20.0500 N   0  0  0  0  0  0  0  0  0  0  0  0
  -26.1210  -16.8480   20.0640 H   0  0  0  0  0  0  0  0  0  0  0  0
  -27.7020  -16.7140   19.4980 H   0  0  0  0  0  0  0  0  0  0  0  0
  -29.2480  -23.3700   19.3140 C   0  0  0  0  0  1  0  0  0  0  0  0
  -28.0040  -22.8510   18.8230 O   0  0  0  0  0  0  0  0  0  0  0  0
  1  2  1  0
  2  3  1  0
  3  4  1  0
  3  5  1  0
  8  9  1  0
 10 21  2  0
 11  9  1  0
 11 16  1  0
 12 20  1  0
 12 22  1  0
 13 18  1  0
 13 19  1  0
 13 15  1  0
 14 20  1  0
 15 16  1  0
 15 14  1  0
 17 18  1  0
 17 11  1  0
 19 12  1  0
 20 10  1  0
 22 24  2  0
 22 23  1  0
 23 25  1  0
 23 27  1  0
 26 35  2  0
 26 31  1  0
 27 31  1  0
 28  6  1  0
 29  7  1  0
 30 26  1  0
 31 32  2  0
 32 33  1  0
 34 33  2  0
 35 34  1  0
 36 10  1  0
 36 37  1  0
 36 46  1  0
 37 40  1  0
 38 42  1  0
 38 37  1  0
 39 38  2  0
 42 41  1  0
 42 44  1  0
 44 45  1  0
 44 43  1  0
 46 49  1  1
 46 47  1  0
 48 46  1  0
 52 65  1  0
 52 51  2  0
 53 54  2  0
 54 51  1  0
 55 53  1  0
 55 52  1  0
 56 55  1  0
 57 63  1  0
 57 65  1  0
 58 63  1  0
 59 60  1  0
 59 58  1  0
 61 60  1  0
 61 70  1  0
 61 62  1  0
 63 62  1  0
 64 57  2  0
 65 66  1  0
 67 68  2  0
 68 87  1  0
 69 68  1  0
 69 72  1  0
 70 71  1  0
 70 67  1  0
 71 69  2  0
 72 73  1  0
 73 74  2  0
 75 78  1  0
 75 74  1  0
 76 75  2  0
 77 76  1  0
 77 72  2  0
 78 79  1  0
 79 84  2  0
 79 80  1  0
 80 81  2  0
 81 82  1  0
 82 86  1  0
 83 82  2  0
 84 83  1  0
 85 84  1  0
 87 88  1  0
 88 91  1  0
 88 90  1  0
 89 87  2  0
 92 93  1  0
 92 67  1  0
 94 92  1  0
 96 53  1  0
 96 95  1  0
M  ISO  4   8 101   9 101  57 100  65 100
M  END
>  <TORSDO>  (72) 
F 23

>  <SCORE>  (72) 
-7.549

>  <name>  (72) 
71

>  <ligand_id>  (72) 
71

>  <original_smiles>  (72) 
[H]c1c([H])c([H])c2c(c1[H])C([H])([H])C([H])([H])C([H])([H])C2([H])N([H])C(=O)C1([H])N(C(=O)C([H])(N([H])C(=O)C([H])(N([H])C([H])([H])[H])C([H])([H])[H])C(C([H])([H])[H])(C([H])([H])[H])C([H])([H])[H])C([H])([H])c2c([H])c(OC([H])([H])C([H])([H])C([H])([H])[N+]([H])([H])C([H])(C([H])([H])[H])C([H])([H])n3c([H])c(N([H])C(=O)N4C([H])([H])C([H])([H])C([H])([H])C([H])(n5nc(-c6c([H])c([H])c(Oc7c([H])c([H])c(F)c([H])c7F)c([H])c6[H])c(C(=O)N([H])[H])c5N([H])[H])C4([H])[H])[n+]([H])c3OC([H])([H])[H])c([H])c([H])c2C1([H])[H]

>  <smiles>  (72) 
[H]c1c([H])c([H])c2c(c1[H])C([H])([H])C([H])([H])C([H])([H])C2([H])N([H])C(=O)C1([H])N(C(=O)C([H])(N([H])C(=O)C([H])(N([H])C([H])([H])[H])C([H])([H])[H])C(C([H])([H])[H])(C([H])([H])[H])C([H])([H])[H])C([H])([H])c2c([H])c(OC([H])([H])C([H])([H])C([H])([H])[N+]([H])([H])C([H])(C([H])([H])[H])C([H])([H])n3c([H])c(N([H])C(=O)N4C([H])([H])C([H])([H])C([H])([H])C([H])(n5nc(-c6c([H])c([H])c(Oc7c([H])c([H])c(F)c([H])c7F)c([H])c6[H])c(C(=O)N([H])[H])c5N([H])[H])C4([H])[H])[n+]([H])c3OC([H])([H])[H])c([H])c([H])c2C1([H])[H]

$$$$
72:0:0
     RDKit          3D

 91 99  0  0  1  0  0  0  0  0999 V2000
  -29.6250  -20.1840   20.7100 C   0  0  0  0  0  3  0  0  0  0  0  0
  -30.2920  -19.8100   18.4950 C   0  0  0  0  0  3  0  0  0  0  0  0
  -30.1740  -19.2310   19.7990 C   0  0  0  0  0  0  0  0  0  0  0  0
  -29.3110  -21.5550   20.3330 C   0  0  0  0  0  0  0  0  0  0  0  0
  -29.5420  -22.0540   19.0010 C   0  0  0  0  0  0  0  0  0  0  0  0
  -30.0050  -21.1130   18.1200 N   0  0  0  0  0  0  0  0  0  0  0  0
  -29.8430  -22.7090   22.5190 C   0  0  0  0  0  1  0  0  0  0  0  0
  -27.4400  -22.0800   21.9850 C   0  0  0  0  0  1  0  0  0  0  0  0
  -28.7990  -22.5130   21.4110 C   0  0  0  0  0  3  0  0  0  0  0  0
  -30.8860  -17.7910   20.1570 C   0  0  0  0  0  2  0  0  0  0  0  0
  -31.0550  -15.2140   20.7720 C   0  0  0  0  0  0  0  0  0  0  0  0
  -31.0190  -12.7470   20.2740 C   0  0  0  0  0  2  0  0  0  0  0  0
  -30.2690  -12.4810   18.9500 C   0  0  0  0  0  2  0  0  0  0  0  0
  -28.7580  -12.3300   19.2070 C   0  0  0  0  0  2  0  0  0  0  0  0
  -28.1990  -13.4450   20.1310 C   0  0  0  0  0  3  0  0  0  0  0  0
  -29.0880  -13.6820   21.3700 C   0  0  0  0  0  2  0  0  0  0  0  0
  -30.4370  -13.9760   20.8780 N   0  0  0  0  0  0  0  0  0  0  0  0
  -32.2820  -15.2340   20.6440 O   0  0  0  0  0  0  0  0  0  0  0  0
  -30.3150  -16.4030   20.5800 N   0  0  0  0  0  0  0  0  0  0  0  0
  -29.3120  -16.3210   20.6500 H   0  0  0  0  0  0  0  0  0  0  0  0
  -25.7800  -14.1270   20.6170 C   0  0  0  0  0  0  0  0  0  0  0  0
  -24.6530  -13.3970   20.8790 C   0  0  0  0  0  0  0  0  0  0  0  0
  -25.0630  -12.0290   20.9040 C   0  0  0  0  0  0  0  0  0  0  0  0
  -26.8050  -13.2060   20.4900 N   0  0  0  0  0  0  0  0  0  0  0  0
  -26.3760  -11.9390   20.7280 N   0  0  0  0  0  0  0  0  0  0  0  0
  -24.2700  -10.7980   21.0220 C   0  0  0  0  0  0  0  0  0  0  0  0
  -24.5840   -9.8060   21.9770 C   0  0  0  0  0  3  0  0  0  0  0  0
  -23.7930   -8.6420   22.0860 C   0  0  0  0  0  3  0  0  0  0  0  0
  -22.6750   -8.4610   21.2370 C   0  0  0  0  0  0  0  0  0  0  0  0
  -22.3810   -9.4410   20.2730 C   0  0  0  0  0  3  0  0  0  0  0  0
  -23.1720  -10.5960   20.1630 C   0  0  0  0  0  3  0  0  0  0  0  0
  -21.8650   -7.3510   21.2540 O   0  0  0  0  0  0  0  0  0  0  0  0
  -21.7350   -6.5720   22.3760 C   0  0  0  0  0  0  0  0  0  0  0  0
  -21.2580   -7.0970   23.5960 C   0  0  0  0  0  3  0  0  0  0  0  0
  -21.0730   -6.2460   24.7040 C   0  0  0  0  0  3  0  0  0  0  0  0
  -21.3550   -4.8720   24.5920 C   0  0  0  0  0  0  0  0  0  0  0  0
  -21.8250   -4.3460   23.3760 C   0  0  0  0  0  3  0  0  0  0  0  0
  -22.0110   -5.1930   22.2700 C   0  0  0  0  0  0  0  0  0  0  0  0
  -22.4440   -4.6780   21.0950 F   0  0  0  0  0  0  0  0  0  0  0  0
  -21.1710   -4.0530   25.6540 F   0  0  0  0  0  0  0  0  0  0  0  0
  -23.2550  -13.9320   21.0000 C   0  0  0  0  0  0  0  0  0  0  0  0
  -22.4150  -13.2780   21.7940 N   0  0  0  0  0  0  0  0  0  0  0  0
  -22.9150  -14.9670   20.4260 O   0  0  0  0  0  0  0  0  0  0  0  0
  -22.7020  -12.4410   22.2810 H   0  0  0  0  0  0  0  0  0  0  0  0
  -21.4730  -13.6190   21.9190 H   0  0  0  0  0  0  0  0  0  0  0  0
  -26.0140  -15.4880   20.4490 N   0  0  0  0  0  0  0  0  0  0  0  0
  -25.2630  -16.1690   20.4740 H   0  0  0  0  0  0  0  0  0  0  0  0
  -26.9010  -15.8900   20.1750 H   0  0  0  0  0  0  0  0  0  0  0  0
  -29.6350  -23.6390   18.5700 C   0  0  0  0  0  2  0  0  0  0  0  0
  -28.4240  -24.7130   18.2220 C   0  0  0  0  0  2  0  0  0  0  0  0
  -28.5710  -26.2430   18.3800 O   0  0  0  0  0  0  0  0  0  0  0  0
  -24.7230  -30.8770   22.5510 C   0  0  0  0  0  0  0  0  0  0  0  0
  -27.4350  -27.0990   18.5410 C   0  0  0  0  0  0  0  0  0  0  0  0
  -23.5270  -29.7470   20.7130 C   0  0  0  0  0  3  0  0  0  0  0  0
  -24.9940  -28.6040   18.9460 C   0  0  0  0  0  0  0  0  0  0  0  0
  -26.0410  -30.2430   20.5010 C   0  0  0  0  0  2  0  0  0  0  0  0
  -26.1690  -29.0200   19.5840 C   0  0  0  0  0  0  0  0  0  0  0  0
  -27.3890  -28.2860   19.3680 C   0  0  0  0  0  3  0  0  0  0  0  0
  -26.2280  -26.7750   17.8870 C   0  0  0  0  0  3  0  0  0  0  0  0
  -25.0320  -27.4960   18.0850 C   0  0  0  0  0  3  0  0  0  0  0  0
  -23.7140  -29.3740   19.2190 C   0  0  0  0  0  2  0  0  0  0  0  0
  -24.7850  -30.3000   21.3130 N   0  0  0  0  0  0  0  0  0  0  0  0
  -23.6510  -30.9690   23.1690 O   0  0  0  0  0  0  0  0  0  0  0  0
  -22.9710  -28.5220   21.4800 C   0  0  0  0  0  0  0  0  0  0  0  0
  -21.6560  -28.2690   21.3560 N   0  0  0  0  0  0  0  0  0  0  0  0
  -23.7230  -27.8080   22.1480 O   0  0  0  0  0  0  0  0  0  0  0  0
  -21.1010  -28.9030   20.7990 H   0  0  0  0  0  0  0  0  0  0  0  0
  -18.4020  -26.7170   21.6890 C   0  0  0  0  0  0  0  0  0  0  0  0
  -20.9400  -27.1380   21.9530 C   0  0  0  0  0  3  0  0  0  0  0  0
  -21.1350  -25.8520   21.1180 C   0  0  0  0  0  2  0  0  0  0  0  0
  -20.0280  -25.6310   20.0810 C   0  0  0  0  0  2  0  0  0  0  0  0
  -18.6610  -25.5370   20.7670 C   0  0  0  0  0  2  0  0  0  0  0  0
  -19.4700  -27.4780   22.2330 C   0  0  0  0  0  0  0  0  0  0  0  0
  -19.1720  -28.5840   23.0570 C   0  0  0  0  0  3  0  0  0  0  0  0
  -17.8370  -28.9310   23.3400 C   0  0  0  0  0  3  0  0  0  0  0  0
  -16.7830  -28.1660   22.8110 C   0  0  0  0  0  3  0  0  0  0  0  0
  -17.0660  -27.0590   21.9920 C   0  0  0  0  0  3  0  0  0  0  0  0
  -25.9900  -31.4670   23.2410 C   0  0  0  0  0  3  0  0  0  0  0  0
  -26.6150  -30.5010   24.3220 C   0  0  1  0  0  0  0  0  0  0  0  0
  -25.5950  -29.9900   25.3650 C   0  0  0  0  0  1  0  0  0  0  0  0
  -27.2570  -29.2650   23.6480 C   0  0  0  0  0  1  0  0  0  0  0  0
  -27.7510  -31.2280   25.0800 C   0  0  0  0  0  1  0  0  0  0  0  0
  -25.6080  -32.7470   23.8570 N   0  0  0  0  0  0  0  0  0  0  0  0
  -25.8420  -33.9530   23.3210 C   0  0  0  0  0  0  0  0  0  0  0  0
  -26.4690  -34.1060   22.2700 O   0  0  0  0  0  0  0  0  0  0  0  0
  -25.0430  -32.6960   24.6920 H   0  0  0  0  0  0  0  0  0  0  0  0
  -23.9940  -35.6590   23.4020 C   0  0  0  0  0  1  0  0  0  0  0  0
  -25.2950  -35.1840   24.0690 C   0  0  0  0  0  3  0  0  0  0  0  0
  -27.4050  -36.0330   24.9960 C   0  0  0  0  0  1  0  0  0  0  0  0
  -26.2550  -36.3080   24.1380 N   0  0  0  0  0  0  0  0  0  0  0  0
  -25.8000  -37.1510   24.4770 H   0  0  0  0  0  0  0  0  0  0  0  0
  2  3  1  0
  3 10  1  0
  3  1  2  0
  4  1  1  0
  4  9  1  0
  5  4  2  0
  6  2  2  0
  6  5  1  0
  9  8  1  0
  9  7  1  0
 10 19  1  0
 11 17  1  0
 12 17  1  0
 13 14  1  0
 13 12  1  0
 15 14  1  0
 15 24  1  0
 15 16  1  0
 17 16  1  0
 18 11  2  0
 19 20  1  0
 19 11  1  0
 21 22  2  0
 22 23  1  0
 22 41  1  0
 23 26  1  0
 24 21  1  0
 24 25  1  0
 25 23  2  0
 26 27  1  0
 27 28  2  0
 29 32  1  0
 29 28  1  0
 30 29  2  0
 31 30  1  0
 31 26  2  0
 32 33  1  0
 33 34  1  0
 34 35  2  0
 36 35  1  0
 36 40  1  0
 37 36  2  0
 38 33  2  0
 38 37  1  0
 39 38  1  0
 41 42  1  0
 42 45  1  0
 42 44  1  0
 43 41  2  0
 46 47  1  0
 46 21  1  0
 48 46  1  0
 49  5  1  0
 50 51  1  0
 50 49  1  0
 51 53  1  0
 52 63  2  0
 53 58  1  0
 54 62  1  0
 54 64  1  0
 55 61  1  0
 55 57  1  0
 56 62  1  0
 57 56  1  0
 58 57  2  0
 59 60  1  0
 59 53  2  0
 60 55  2  0
 61 54  1  0
 62 52  1  0
 64 66  2  0
 65 64  1  0
 67 65  1  0
 68 77  2  0
 68 73  1  0
 69 65  1  0
 69 73  1  0
 70 69  1  0
 71 72  1  0
 71 70  1  0
 72 68  1  0
 73 74  2  0
 74 75  1  0
 76 75  2  0
 77 76  1  0
 78 52  1  0
 78 83  1  0
 78 79  1  0
 79 82  1  1
 79 80  1  0
 81 79  1  0
 83 86  1  0
 84 83  1  0
 84 88  1  0
 85 84  2  0
 88 87  1  0
 88 90  1  0
 90 91  1  0
 90 89  1  0
M  ISO  4  11 100  19 100  50 101  51 101
M  END
>  <TORSDO>  (73) 
F 20

>  <SCORE>  (73) 
-9.956

>  <name>  (73) 
72

>  <ligand_id>  (73) 
72

>  <original_smiles>  (73) 
[H]c1nc(C([H])([H])C([H])([H])Oc2c([H])c([H])c3c(c2[H])C([H])([H])N(C(=O)C([H])(N([H])C(=O)C([H])(N([H])C([H])([H])[H])C([H])([H])[H])C(C([H])([H])[H])(C([H])([H])[H])C([H])([H])[H])C([H])(C(=O)N([H])C2([H])c4c([H])c([H])c([H])c([H])c4C([H])([H])C([H])([H])C2([H])[H])C3([H])[H])c(C([H])(C([H])([H])[H])C([H])([H])[H])c([H])c1C([H])([H])N([H])C(=O)N1C([H])([H])C([H])([H])C([H])([H])C([H])(n2nc(-c3c([H])c([H])c(Oc4c([H])c([H])c(F)c([H])c4F)c([H])c3[H])c(C(=O)N([H])[H])c2N([H])[H])C1([H])[H]

>  <smiles>  (73) 
[H]c1nc(C([H])([H])C([H])([H])Oc2c([H])c([H])c3c(c2[H])C([H])([H])N(C(=O)C([H])(N([H])C(=O)C([H])(N([H])C([H])([H])[H])C([H])([H])[H])C(C([H])([H])[H])(C([H])([H])[H])C([H])([H])[H])C([H])(C(=O)N([H])C2([H])c4c([H])c([H])c([H])c([H])c4C([H])([H])C([H])([H])C2([H])[H])C3([H])[H])c(C([H])(C([H])([H])[H])C([H])([H])[H])c([H])c1C([H])([H])N([H])C(=O)N1C([H])([H])C([H])([H])C([H])([H])C([H])(n2nc(-c3c([H])c([H])c(Oc4c([H])c([H])c(F)c([H])c4F)c([H])c3[H])c(C(=O)N([H])[H])c2N([H])[H])C1([H])[H]

$$$$
73:0:0
     RDKit          3D

 83 87  0  0  1  0  0  0  0  0999 V2000
  -28.2210  -23.3020   20.4940 C   0  0  0  0  0 15  0  0  0  0  0  0
  -29.7530  -21.6320   18.7720 C   0  0  0  0  0  1  0  0  0  0  0  0
  -28.7670  -21.3500   19.9090 C   0  0  0  0  0  1  0  0  0  0  0  0
  -29.3500  -19.4110   20.4900 C   0  0  0  0  0  1  0  0  0  0  0  0
  -30.1140  -16.0580   20.1340 C   0  0  0  0  0  0  0  0  0  0  0  0
  -30.3020  -13.4330   19.3050 C   0  0  0  0  0  2  0  0  0  0  0  0
  -29.4380  -12.8330   18.1470 C   0  0  0  0  0  2  0  0  0  0  0  0
  -28.0510  -12.4020   18.6400 C   0  0  0  0  0  2  0  0  0  0  0  0
  -27.4980  -13.4290   19.6480 C   0  0  0  0  0  3  0  0  0  0  0  0
  -28.5220  -13.8970   20.7180 C   0  0  0  0  0  2  0  0  0  0  0  0
  -29.6120  -14.6400   20.0080 N   0  0  0  0  0  0  0  0  0  0  0  0
  -31.3590  -15.9110   20.0830 O   0  0  0  0  0  0  0  0  0  0  0  0
  -29.3760  -17.5310   20.1330 N   0  0  0  0  0  0  0  0  0  0  0  0
  -28.4100  -17.2900   19.9600 H   0  0  0  0  0  0  0  0  0  0  0  0
  -25.1500  -13.9280   20.4450 C   0  0  0  0  0  0  0  0  0  0  0  0
  -24.0980  -13.1430   20.8180 C   0  0  0  0  0  0  0  0  0  0  0  0
  -24.5760  -11.7960   20.7850 C   0  0  0  0  0  0  0  0  0  0  0  0
  -26.1980  -13.0660   20.1950 N   0  0  0  0  0  0  0  0  0  0  0  0
  -25.8680  -11.7730   20.4640 N   0  0  0  0  0  0  0  0  0  0  0  0
  -23.8520  -10.5310   20.9810 C   0  0  0  0  0  0  0  0  0  0  0  0
  -24.2900   -9.5630   21.9110 C   0  0  0  0  0  3  0  0  0  0  0  0
  -23.5590   -8.3680   22.0990 C   0  0  0  0  0  3  0  0  0  0  0  0
  -22.3760   -8.1340   21.3590 C   0  0  0  0  0  0  0  0  0  0  0  0
  -21.9560   -9.0920   20.4190 C   0  0  0  0  0  3  0  0  0  0  0  0
  -22.6870  -10.2770   20.2290 C   0  0  0  0  0  3  0  0  0  0  0  0
  -21.6180   -6.9930   21.4560 O   0  0  0  0  0  0  0  0  0  0  0  0
  -21.5840   -6.2460   22.6070 C   0  0  0  0  0  0  0  0  0  0  0  0
  -21.1870   -6.8000   23.8440 C   0  0  0  0  0  3  0  0  0  0  0  0
  -21.1010   -5.9800   24.9870 C   0  0  0  0  0  3  0  0  0  0  0  0
  -21.4020   -4.6080   24.8950 C   0  0  0  0  0  0  0  0  0  0  0  0
  -21.7930   -4.0530   23.6640 C   0  0  0  0  0  3  0  0  0  0  0  0
  -21.8800   -4.8700   22.5230 C   0  0  0  0  0  0  0  0  0  0  0  0
  -22.2360   -4.3260   21.3340 F   0  0  0  0  0  0  0  0  0  0  0  0
  -21.3130   -3.8190   25.9910 F   0  0  0  0  0  0  0  0  0  0  0  0
  -22.6990  -13.6150   21.0870 C   0  0  0  0  0  0  0  0  0  0  0  0
  -21.9760  -12.9240   21.9590 N   0  0  0  0  0  0  0  0  0  0  0  0
  -22.2600  -14.6360   20.5570 O   0  0  0  0  0  0  0  0  0  0  0  0
  -22.3470  -12.1010   22.4100 H   0  0  0  0  0  0  0  0  0  0  0  0
  -21.0370  -13.2240   22.1830 H   0  0  0  0  0  0  0  0  0  0  0  0
  -25.2980  -15.3000   20.2600 N   0  0  0  0  0  0  0  0  0  0  0  0
  -24.5250  -15.9480   20.3710 H   0  0  0  0  0  0  0  0  0  0  0  0
  -26.1390  -15.7410   19.9140 H   0  0  0  0  0  0  0  0  0  0  0  0
  -28.1790  -25.1830   20.2260 O   0  0  0  0  0  1  0  0  0  0  0  0
  -24.6310  -31.7980   23.1340 C   0  0  0  0  0  0  0  0  0  0  0  0
  -27.2010  -26.4870   20.2560 C   0  0  0  0  0  0  0  0  0  0  0  0
  -23.4740  -30.3690   21.5090 C   0  0  0  0  0  3  0  0  0  0  0  0
  -24.9430  -28.6620   20.1490 C   0  0  0  0  0  0  0  0  0  0  0  0
  -26.0640  -30.4560   21.4320 C   0  0  0  0  0  2  0  0  0  0  0  0
  -26.1400  -28.9880   20.7980 C   0  0  0  0  0  0  0  0  0  0  0  0
  -27.2430  -27.9390   20.8040 C   0  0  0  0  0  3  0  0  0  0  0  0
  -25.9610  -26.4350   19.5510 C   0  0  0  0  0  3  0  0  0  0  0  0
  -24.9060  -27.4150   19.5000 C   0  0  0  0  0  3  0  0  0  0  0  0
  -23.7410  -29.6380   20.1590 C   0  0  0  0  0  2  0  0  0  0  0  0
  -24.7500  -30.9140   22.0770 N   0  0  0  0  0  0  0  0  0  0  0  0
  -23.5260  -32.1060   23.6200 O   0  0  0  0  0  0  0  0  0  0  0  0
  -22.7340  -29.4180   22.4920 C   0  0  0  0  0  0  0  0  0  0  0  0
  -21.3960  -29.2860   22.3760 N   0  0  0  0  0  0  0  0  0  0  0  0
  -23.3790  -28.7940   23.3380 O   0  0  0  0  0  0  0  0  0  0  0  0
  -20.9220  -29.8380   21.6760 H   0  0  0  0  0  0  0  0  0  0  0  0
  -17.9960  -28.1080   22.9280 C   0  0  0  0  0  0  0  0  0  0  0  0
  -20.5630  -28.3590   23.1560 C   0  0  0  0  0  3  0  0  0  0  0  0
  -20.6440  -26.9240   22.5820 C   0  0  0  0  0  2  0  0  0  0  0  0
  -19.5290  -26.6140   21.5780 C   0  0  0  0  0  2  0  0  0  0  0  0
  -18.1550  -26.7630   22.2390 C   0  0  0  0  0  2  0  0  0  0  0  0
  -19.1260  -28.8640   23.3430 C   0  0  0  0  0  0  0  0  0  0  0  0
  -18.9170  -30.1190   23.9560 C   0  0  0  0  0  3  0  0  0  0  0  0
  -17.6160  -30.6190   24.1520 C   0  0  0  0  0  3  0  0  0  0  0  0
  -16.5030  -29.8620   23.7470 C   0  0  0  0  0  3  0  0  0  0  0  0
  -16.6940  -28.6070   23.1410 C   0  0  0  0  0  3  0  0  0  0  0  0
  -25.8720  -32.4770   23.7870 C   0  0  0  0  0  3  0  0  0  0  0  0
  -25.5220  -33.8740   24.1250 N   0  0  0  0  0  0  0  0  0  0  0  0
  -25.8400  -34.9550   23.3980 C   0  0  0  0  0  0  0  0  0  0  0  0
  -26.5110  -34.8820   22.3670 O   0  0  0  0  0  0  0  0  0  0  0  0
  -24.9200  -34.0030   24.9260 H   0  0  0  0  0  0  0  0  0  0  0  0
  -24.0820  -36.7400   23.1050 C   0  0  0  0  0  1  0  0  0  0  0  0
  -25.3410  -36.3330   23.8870 C   0  0  0  0  0  3  0  0  0  0  0  0
  -27.4730  -37.2460   24.7010 C   0  0  0  0  0  1  0  0  0  0  0  0
  -26.3550  -37.4060   23.7750 N   0  0  0  0  0  0  0  0  0  0  0  0
  -25.9360  -38.3160   23.9390 H   0  0  0  0  0  0  0  0  0  0  0  0
  -26.3690  -31.7320   25.0890 C   0  0  1  0  0  0  0  0  0  0  0  0
  -25.2570  -31.5010   26.1410 C   0  0  0  0  0  1  0  0  0  0  0  0
  -26.9740  -30.3530   24.7470 C   0  0  0  0  0  1  0  0  0  0  0  0
  -27.5000  -32.5480   25.7610 C   0  0  0  0  0  1  0  0  0  0  0  0
  2  3  1  0
  6 11  1  0
  7  8  1  0
  7  6  1  0
  9  8  1  0
  9 18  1  0
  9 10  1  0
 11  5  1  0
 11 10  1  0
 12  5  2  0
 13  5  1  0
 13  4  1  0
 14 13  1  0
 15 16  2  0
 16 35  1  0
 17 16  1  0
 17 20  1  0
 18 15  1  0
 18 19  1  0
 19 17  2  0
 20 21  1  0
 21 22  2  0
 23 26  1  0
 23 22  1  0
 24 23  2  0
 25 24  1  0
 25 20  2  0
 26 27  1  0
 27 28  1  0
 28 29  2  0
 30 29  1  0
 30 34  1  0
 31 30  2  0
 32 27  2  0
 32 31  1  0
 33 32  1  0
 35 36  1  0
 36 39  1  0
 36 38  1  0
 37 35  2  0
 40 41  1  0
 40 15  1  0
 42 40  1  0
 43 45  1  0
 44 55  2  0
 45 50  1  0
 46 54  1  0
 46 56  1  0
 47 53  1  0
 47 49  1  0
 48 54  1  0
 49 50  2  0
 49 48  1  0
 51 45  2  0
 52 51  1  0
 52 47  2  0
 53 46  1  0
 54 44  1  0
 56 58  2  0
 57 56  1  0
 59 57  1  0
 60 69  2  0
 60 65  1  0
 61 57  1  0
 61 65  1  0
 62 61  1  0
 63 64  1  0
 63 62  1  0
 64 60  1  0
 65 66  2  0
 66 67  1  0
 68 67  2  0
 69 68  1  0
 70 44  1  0
 70 71  1  0
 70 80  1  0
 71 74  1  0
 72 76  1  0
 72 71  1  0
 73 72  2  0
 76 75  1  0
 78 76  1  0
 78 79  1  0
 78 77  1  0
 80 83  1  1
 80 81  1  0
 82 80  1  0
M  ISO  4   1 101   5 100  13 100  43 101
M  END
>  <TORSDO>  (74) 
F 18

>  <SCORE>  (74) 
-16.099

>  <name>  (74) 
73

>  <ligand_id>  (74) 
73

>  <original_smiles>  (74) 
[H]c1c([H])c([H])c2c(c1[H])C([H])([H])C([H])([H])C([H])([H])C2([H])N([H])C(=O)C1([H])N(C(=O)C([H])(N([H])C(=O)C([H])(N([H])C([H])([H])[H])C([H])([H])[H])C(C([H])([H])[H])(C([H])([H])[H])C([H])([H])[H])C([H])([H])c2c([H])c(OC([H])([H])C([H])(C([H])([H])[H])C([H])([H])N([H])C(=O)N3C([H])([H])C([H])([H])C([H])([H])C([H])(n4nc(-c5c([H])c([H])c(Oc6c([H])c([H])c(F)c([H])c6F)c([H])c5[H])c(C(=O)N([H])[H])c4N([H])[H])C3([H])[H])c([H])c([H])c2C1([H])[H]

>  <smiles>  (74) 
[H]c1c([H])c([H])c2c(c1[H])C([H])([H])C([H])([H])C([H])([H])C2([H])N([H])C(=O)C1([H])N(C(=O)C([H])(N([H])C(=O)C([H])(N([H])C([H])([H])[H])C([H])([H])[H])C(C([H])([H])[H])(C([H])([H])[H])C([H])([H])[H])C([H])([H])c2c([H])c(OC([H])([H])C([H])(C([H])([H])[H])C([H])([H])N([H])C(=O)N3C([H])([H])C([H])([H])C([H])([H])C([H])(n4nc(-c5c([H])c([H])c(Oc6c([H])c([H])c(F)c([H])c6F)c([H])c5[H])c(C(=O)N([H])[H])c4N([H])[H])C3([H])[H])c([H])c([H])c2C1([H])[H]

$$$$
74:0:0
     RDKit          3D

 96104  0  0  1  0  0  0  0  0999 V2000
  -31.0520  -20.9950   20.1150 C   0  0  0  0  0  3  0  0  0  0  0  0
  -32.6240  -19.7550   18.7630 C   0  0  0  0  0  3  0  0  0  0  0  0
  -32.0470  -20.9960   19.1290 C   0  0  0  0  0  0  0  0  0  0  0  0
  -30.5690  -19.7960   20.6800 C   0  0  0  0  0  0  0  0  0  0  0  0
  -32.1840  -18.5190   19.3200 C   0  0  0  0  0  0  0  0  0  0  0  0
  -31.0880  -18.5430   20.2360 C   0  0  0  0  0  0  0  0  0  0  0  0
  -30.4360  -17.2530   20.7270 C   0  0  0  0  0  1  0  0  0  0  0  0
  -28.5670  -21.1150   21.4860 C   0  0  0  0  0  1  0  0  0  0  0  0
  -30.0750  -19.9670   23.1750 C   0  0  0  0  0  1  0  0  0  0  0  0
  -29.4810  -19.9090   21.7560 C   0  0  0  0  0  3  0  0  0  0  0  0
  -32.2140  -16.8770   17.4300 C   0  0  0  0  0  1  0  0  0  0  0  0
  -32.8690  -17.2240   18.7850 C   0  0  0  0  0  3  0  0  0  0  0  0
  -33.4380  -14.8400   19.0980 C   0  0  0  0  0  0  0  0  0  0  0  0
  -32.7340  -12.6200   18.2720 C   0  0  0  0  0  2  0  0  0  0  0  0
  -31.6710  -12.7800   17.1680 C   0  0  0  0  0  2  0  0  0  0  0  0
  -30.2630  -12.8490   17.7870 C   0  0  0  0  0  2  0  0  0  0  0  0
  -30.1740  -13.8630   18.9580 C   0  0  0  0  0  3  0  0  0  0  0  0
  -31.3450  -13.6880   19.9540 C   0  0  0  0  0  2  0  0  0  0  0  0
  -32.6050  -13.7620   19.1960 N   0  0  0  0  0  0  0  0  0  0  0  0
  -34.4630  -14.8060   18.4080 O   0  0  0  0  0  0  0  0  0  0  0  0
  -33.7680  -16.2800   20.9220 C   0  0  0  0  0  1  0  0  0  0  0  0
  -33.0430  -16.0150   19.6690 N   0  0  0  0  0  0  0  0  0  0  0  0
  -28.0690  -14.8250   20.0810 C   0  0  0  0  0  0  0  0  0  0  0  0
  -26.9350  -14.2260   20.5600 C   0  0  0  0  0  0  0  0  0  0  0  0
  -27.1080  -12.8240   20.3500 C   0  0  0  0  0  0  0  0  0  0  0  0
  -28.8760  -13.7940   19.6220 N   0  0  0  0  0  0  0  0  0  0  0  0
  -28.3100  -12.5810   19.8410 N   0  0  0  0  0  0  0  0  0  0  0  0
  -26.1790  -11.7060   20.5510 C   0  0  0  0  0  0  0  0  0  0  0  0
  -26.3490  -10.7850   21.6070 C   0  0  0  0  0  3  0  0  0  0  0  0
  -25.4310   -9.7290   21.7890 C   0  0  0  0  0  3  0  0  0  0  0  0
  -24.3260   -9.5910   20.9150 C   0  0  0  0  0  0  0  0  0  0  0  0
  -24.1750  -10.4980   19.8510 C   0  0  0  0  0  3  0  0  0  0  0  0
  -25.0920  -11.5450   19.6680 C   0  0  0  0  0  3  0  0  0  0  0  0
  -23.3950   -8.5840   20.9990 O   0  0  0  0  0  0  0  0  0  0  0  0
  -22.8360   -8.2210   22.1980 C   0  0  0  0  0  0  0  0  0  0  0  0
  -22.1640   -9.1500   23.0210 C   0  0  0  0  0  3  0  0  0  0  0  0
  -21.5450   -8.7170   24.2120 C   0  0  0  0  0  3  0  0  0  0  0  0
  -21.5920   -7.3580   24.5770 C   0  0  0  0  0  0  0  0  0  0  0  0
  -22.2580   -6.4300   23.7560 C   0  0  0  0  0  3  0  0  0  0  0  0
  -22.8740   -6.8610   22.5680 C   0  0  0  0  0  0  0  0  0  0  0  0
  -23.4950   -5.9600   21.7690 F   0  0  0  0  0  0  0  0  0  0  0  0
  -20.9930   -6.9410   25.7170 F   0  0  0  0  0  0  0  0  0  0  0  0
  -25.7160  -14.9230   21.0930 C   0  0  0  0  0  0  0  0  0  0  0  0
  -25.0810  -14.3500   22.1110 N   0  0  0  0  0  0  0  0  0  0  0  0
  -25.3510  -16.0060   20.6400 O   0  0  0  0  0  0  0  0  0  0  0  0
  -25.3990  -13.4740   22.4970 H   0  0  0  0  0  0  0  0  0  0  0  0
  -24.2720  -14.8000   22.5130 H   0  0  0  0  0  0  0  0  0  0  0  0
  -28.4620  -16.1550   19.9750 N   0  0  0  0  0  0  0  0  0  0  0  0
  -27.8550  -16.9130   20.2630 H   0  0  0  0  0  0  0  0  0  0  0  0
  -29.3120  -16.4770   19.5350 H   0  0  0  0  0  0  0  0  0  0  0  0
  -32.5270  -22.3360   18.5450 C   0  0  0  0  0  2  0  0  0  0  0  0
  -31.5090  -23.1360   17.6690 C   0  0  0  0  0  2  0  0  0  0  0  0
  -29.5430  -23.9920   19.0780 C   0  0  0  0  0  1  0  0  0  0  0  0
  -30.8170  -24.3900   18.3160 C   0  0  0  0  0  3  0  0  0  0  0  0
  -30.4940  -25.5180   17.2850 C   0  0  0  0  0  2  0  0  0  0  0  0
  -30.1060  -26.7720   17.8910 O   0  0  0  0  0  0  0  0  0  0  0  0
  -25.4660  -29.5820   22.5120 C   0  0  0  0  0  0  0  0  0  0  0  0
  -28.7790  -27.1200   18.1070 C   0  0  0  0  0  0  0  0  0  0  0  0
  -24.4730  -28.5340   20.5030 C   0  0  0  0  0  3  0  0  0  0  0  0
  -26.1070  -27.9260   18.6420 C   0  0  0  0  0  0  0  0  0  0  0  0
  -26.8280  -29.5280   20.4220 C   0  0  0  0  0  2  0  0  0  0  0  0
  -27.1640  -28.4950   19.3610 C   0  0  0  0  0  0  0  0  0  0  0  0
  -28.4960  -28.0990   19.0920 C   0  0  0  0  0  3  0  0  0  0  0  0
  -27.6910  -26.5520   17.4020 C   0  0  0  0  0  3  0  0  0  0  0  0
  -26.3660  -26.9520   17.6630 C   0  0  0  0  0  3  0  0  0  0  0  0
  -24.7120  -28.4030   18.9760 C   0  0  0  0  0  2  0  0  0  0  0  0
  -25.6080  -29.2150   21.2070 N   0  0  0  0  0  0  0  0  0  0  0  0
  -24.3990  -29.4020   23.1170 O   0  0  0  0  0  0  0  0  0  0  0  0
  -24.1460  -27.1360   21.0770 C   0  0  0  0  0  0  0  0  0  0  0  0
  -22.9860  -26.5840   20.6840 N   0  0  0  0  0  0  0  0  0  0  0  0
  -24.9360  -26.5610   21.8300 O   0  0  0  0  0  0  0  0  0  0  0  0
  -22.3890  -27.1210   20.0700 H   0  0  0  0  0  0  0  0  0  0  0  0
  -20.3210  -24.2080   20.1420 C   0  0  0  0  0  0  0  0  0  0  0  0
  -22.4920  -25.2610   21.0630 C   0  0  0  0  0  3  0  0  0  0  0  0
  -23.2410  -24.1480   20.2920 C   0  0  0  0  0  2  0  0  0  0  0  0
  -22.5290  -23.7290   19.0020 C   0  0  0  0  0  2  0  0  0  0  0  0
  -21.1180  -23.2190   19.3080 C   0  0  0  0  0  2  0  0  0  0  0  0
  -20.9660  -25.1770   20.9540 C   0  0  0  0  0  0  0  0  0  0  0  0
  -20.1800  -26.0950   21.6820 C   0  0  0  0  0  3  0  0  0  0  0  0
  -18.7750  -26.0550   21.6120 C   0  0  0  0  0  3  0  0  0  0  0  0
  -18.1390  -25.0810   20.8210 C   0  0  0  0  0  3  0  0  0  0  0  0
  -18.9110  -24.1600   20.0910 C   0  0  0  0  0  3  0  0  0  0  0  0
  -26.6260  -30.2670   23.3010 C   0  0  0  0  0  3  0  0  0  0  0  0
  -26.0670  -31.4450   23.9770 N   0  0  0  0  0  0  0  0  0  0  0  0
  -26.2410  -32.7100   23.5700 C   0  0  0  0  0  0  0  0  0  0  0  0
  -26.9590  -33.0110   22.6120 O   0  0  0  0  0  0  0  0  0  0  0  0
  -25.4250  -31.2710   24.7360 H   0  0  0  0  0  0  0  0  0  0  0  0
  -24.2800  -34.2810   23.5440 C   0  0  0  0  0  1  0  0  0  0  0  0
  -25.5010  -33.8140   24.3490 C   0  0  0  0  0  3  0  0  0  0  0  0
  -27.3880  -34.6730   25.6630 C   0  0  0  0  0  1  0  0  0  0  0  0
  -26.3550  -34.9760   24.6760 N   0  0  0  0  0  0  0  0  0  0  0  0
  -25.7950  -35.7460   25.0320 H   0  0  0  0  0  0  0  0  0  0  0  0
  -27.3250  -29.3060   24.3410 C   0  0  1  0  0  0  0  0  0  0  0  0
  -26.3300  -28.5280   25.2330 C   0  0  0  0  0  1  0  0  0  0  0  0
  -28.2140  -28.2720   23.6140 C   0  0  0  0  0  1  0  0  0  0  0  0
  -28.2610  -30.1220   25.2630 C   0  0  0  0  0  1  0  0  0  0  0  0
  1  4  1  0
  2  3  1  0
  2  5  2  0
  3  1  2  0
  4 10  1  0
  5  6  1  0
  6  4  2  0
  6  7  1  0
  8 10  1  0
 10  9  1  0
 12 11  1  0
 12  5  1  0
 12 22  1  0
 13 19  1  0
 13 22  1  0
 14 19  1  0
 15 16  1  0
 15 14  1  0
 17 16  1  0
 17 26  1  0
 17 18  1  0
 19 18  1  0
 20 13  2  0
 22 21  1  0
 23 24  2  0
 24 43  1  0
 25 28  1  0
 25 24  1  0
 26 27  1  0
 26 23  1  0
 27 25  2  0
 28 29  1  0
 29 30  2  0
 31 34  1  0
 31 30  1  0
 32 31  2  0
 33 32  1  0
 33 28  2  0
 34 35  1  0
 35 40  2  0
 35 36  1  0
 36 37  2  0
 37 38  1  0
 38 42  1  0
 39 38  2  0
 40 39  1  0
 41 40  1  0
 43 44  1  0
 44 46  1  0
 44 47  1  0
 45 43  2  0
 48 23  1  0
 48 49  1  0
 50 48  1  0
 51  3  1  0
 52 54  1  0
 52 51  1  0
 54 53  1  0
 55 56  1  0
 55 54  1  0
 56 58  1  0
 57 68  2  0
 58 63  1  0
 59 69  1  0
 59 67  1  0
 60 66  1  0
 60 62  1  0
 61 67  1  0
 62 61  1  0
 63 62  2  0
 64 65  1  0
 64 58  2  0
 65 60  2  0
 66 59  1  0
 67 57  1  0
 69 71  2  0
 70 69  1  0
 72 70  1  0
 73 78  1  0
 74 70  1  0
 75 74  1  0
 76 77  1  0
 76 75  1  0
 77 73  1  0
 78 74  1  0
 78 79  2  0
 80 79  1  0
 81 80  2  0
 82 73  2  0
 82 81  1  0
 83 57  1  0
 83 84  1  0
 83 93  1  0
 84 87  1  0
 85 84  1  0
 85 89  1  0
 86 85  2  0
 89 88  1  0
 89 91  1  0
 91 92  1  0
 91 90  1  0
 93 94  1  1
 93 96  1  0
 95 93  1  0
M  ISO  4  13 100  22 100  55 101  56 101
M  END
>  <TORSDO>  (75) 
F 22

>  <SCORE>  (75) 
-1.337

>  <name>  (75) 
74

>  <ligand_id>  (75) 
74

>  <original_smiles>  (75) 
[H]c1c([H])c([H])c2c(c1[H])C([H])([H])C([H])([H])C([H])([H])C2([H])N([H])C(=O)C1([H])N(C(=O)C([H])(N([H])C(=O)C([H])(N([H])C([H])([H])[H])C([H])([H])[H])C(C([H])([H])[H])(C([H])([H])[H])C([H])([H])[H])C([H])([H])c2c([H])c(OC([H])([H])C([H])(C([H])([H])[H])C([H])([H])C([H])([H])c3c([H])c(C([H])(N(C(=O)N4C([H])([H])C([H])([H])C([H])([H])C([H])(n5nc(-c6c([H])c([H])c(Oc7c([H])c([H])c(F)c([H])c7F)c([H])c6[H])c(C(=O)N([H])[H])c5N([H])[H])C4([H])[H])C([H])([H])[H])C([H])([H])[H])c(C([H])([H])[H])c(C([H])(C([H])([H])[H])C([H])([H])[H])c3[H])c([H])c([H])c2C1([H])[H]

>  <smiles>  (75) 
[H]c1c([H])c([H])c2c(c1[H])C([H])([H])C([H])([H])C([H])([H])C2([H])N([H])C(=O)C1([H])N(C(=O)C([H])(N([H])C(=O)C([H])(N([H])C([H])([H])[H])C([H])([H])[H])C(C([H])([H])[H])(C([H])([H])[H])C([H])([H])[H])C([H])([H])c2c([H])c(OC([H])([H])C([H])(C([H])([H])[H])C([H])([H])C([H])([H])c3c([H])c(C([H])(N(C(=O)N4C([H])([H])C([H])([H])C([H])([H])C([H])(n5nc(-c6c([H])c([H])c(Oc7c([H])c([H])c(F)c([H])c7F)c([H])c6[H])c(C(=O)N([H])[H])c5N([H])[H])C4([H])[H])C([H])([H])[H])C([H])([H])[H])c(C([H])([H])[H])c(C([H])(C([H])([H])[H])C([H])([H])[H])c3[H])c([H])c([H])c2C1([H])[H]

$$$$
75:0:0
     RDKit          3D

 89 96  0  0  1  0  0  0  0  0999 V2000
  -30.4300  -22.4400   20.1750 C   0  0  0  0  0  1  0  0  0  0  0  0
  -29.0210  -21.9180   19.8700 C   0  0  0  0  0  3  0  0  0  0  0  0
  -26.6330  -23.0520   19.5380 C   0  0  0  0  0  1  0  0  0  0  0  0
  -27.9470  -23.1540   20.3310 C   0  0  0  0  0  3  0  0  0  0  0  0
  -28.1830  -24.7900   20.7680 C   0  0  0  0  0  2  0  0  0  0  0  0
  -28.2410  -26.1770   20.0710 O   0  0  0  0  0  0  0  0  0  0  0  0
  -24.5950  -31.8170   23.1600 C   0  0  0  0  0  0  0  0  0  0  0  0
  -27.1790  -27.1430   20.1110 C   0  0  0  0  0  0  0  0  0  0  0  0
  -23.3970  -30.4340   21.5050 C   0  0  0  0  0  3  0  0  0  0  0  0
  -24.8530  -28.8750   20.0710 C   0  0  0  0  0  0  0  0  0  0  0  0
  -25.9500  -30.7160   21.3400 C   0  0  0  0  0  2  0  0  0  0  0  0
  -26.0290  -29.3250   20.6890 C   0  0  0  0  0  0  0  0  0  0  0  0
  -27.1950  -28.4720   20.6960 C   0  0  0  0  0  3  0  0  0  0  0  0
  -25.9880  -26.7940   19.4490 C   0  0  0  0  0  3  0  0  0  0  0  0
  -24.8440  -27.6240   19.4350 C   0  0  0  0  0  3  0  0  0  0  0  0
  -23.6230  -29.7690   20.1210 C   0  0  0  0  0  2  0  0  0  0  0  0
  -24.6670  -31.0090   22.0580 N   0  0  0  0  0  0  0  0  0  0  0  0
  -23.5090  -32.0970   23.6880 O   0  0  0  0  0  0  0  0  0  0  0  0
  -22.7260  -29.4140   22.4540 C   0  0  0  0  0  0  0  0  0  0  0  0
  -21.3950  -29.2550   22.3350 N   0  0  0  0  0  0  0  0  0  0  0  0
  -23.4000  -28.7660   23.2580 O   0  0  0  0  0  0  0  0  0  0  0  0
  -20.9080  -29.8260   21.6590 H   0  0  0  0  0  0  0  0  0  0  0  0
  -18.0060  -28.0950   22.8600 C   0  0  0  0  0  0  0  0  0  0  0  0
  -20.5710  -28.3100   23.0940 C   0  0  0  0  0  3  0  0  0  0  0  0
  -20.6410  -26.8920   22.4820 C   0  0  0  0  0  2  0  0  0  0  0  0
  -19.5200  -26.6150   21.4760 C   0  0  0  0  0  2  0  0  0  0  0  0
  -18.1520  -26.7620   22.1450 C   0  0  0  0  0  2  0  0  0  0  0  0
  -19.1430  -28.8310   23.2910 C   0  0  0  0  0  0  0  0  0  0  0  0
  -18.9510  -30.0810   23.9180 C   0  0  0  0  0  3  0  0  0  0  0  0
  -17.6560  -30.5940   24.1190 C   0  0  0  0  0  3  0  0  0  0  0  0
  -16.5340  -29.8550   23.7040 C   0  0  0  0  0  3  0  0  0  0  0  0
  -16.7110  -28.6090   23.0790 C   0  0  0  0  0  3  0  0  0  0  0  0
  -25.8740  -32.4440   23.7950 C   0  0  0  0  0  3  0  0  0  0  0  0
  -25.5670  -33.8430   24.1390 N   0  0  0  0  0  0  0  0  0  0  0  0
  -25.9010  -34.9040   23.3960 C   0  0  0  0  0  0  0  0  0  0  0  0
  -26.5740  -34.8120   22.3660 O   0  0  0  0  0  0  0  0  0  0  0  0
  -24.9670  -33.9880   24.9380 H   0  0  0  0  0  0  0  0  0  0  0  0
  -24.1750  -36.7030   23.0530 C   0  0  0  0  0  1  0  0  0  0  0  0
  -25.4110  -36.2880   23.8670 C   0  0  0  0  0  3  0  0  0  0  0  0
  -27.5430  -37.1610   24.7210 C   0  0  0  0  0  1  0  0  0  0  0  0
  -26.4460  -37.3400   23.7730 N   0  0  0  0  0  0  0  0  0  0  0  0
  -26.0420  -38.2610   23.9270 H   0  0  0  0  0  0  0  0  0  0  0  0
  -26.3810  -31.6600   25.0670 C   0  0  1  0  0  0  0  0  0  0  0  0
  -25.2830  -31.4190   26.1270 C   0  0  0  0  0  1  0  0  0  0  0  0
  -26.9620  -30.2830   24.6710 C   0  0  0  0  0  1  0  0  0  0  0  0
  -27.5320  -32.4400   25.7420 C   0  0  0  0  0  1  0  0  0  0  0  0
  -29.0890  -20.4580   20.4320 O   0  0  0  0  0  0  0  0  0  0  0  0
  -28.9530  -19.1720   18.2750 C   0  0  0  0  0  1  0  0  0  0  0  0
  -27.5820  -18.6040   20.2860 C   0  0  0  0  0  1  0  0  0  0  0  0
  -28.9890  -19.0240   19.8080 C   0  0  2  0  0  0  0  0  0  0  0  0
  -30.0620  -17.7420   20.1880 C   0  0  0  0  0  2  0  0  0  0  0  0
  -30.5540  -14.9950   20.0000 C   0  0  0  0  0  0  0  0  0  0  0  0
  -30.4370  -12.5900   19.1500 C   0  0  0  0  0  2  0  0  0  0  0  0
  -29.4740  -12.5020   17.9410 C   0  0  0  0  0  2  0  0  0  0  0  0
  -28.0230  -12.3030   18.4260 C   0  0  0  0  0  2  0  0  0  0  0  0
  -27.6480  -13.2790   19.5730 C   0  0  0  0  0  3  0  0  0  0  0  0
  -28.7330  -13.3260   20.6690 C   0  0  0  0  0  2  0  0  0  0  0  0
  -29.9800  -13.7210   20.0110 N   0  0  0  0  0  0  0  0  0  0  0  0
  -31.7450  -15.0590   19.6760 O   0  0  0  0  0  0  0  0  0  0  0  0
  -29.7570  -16.1730   20.1740 N   0  0  0  0  0  0  0  0  0  0  0  0
  -28.7900  -15.9660   20.3650 H   0  0  0  0  0  0  0  0  0  0  0  0
  -25.3360  -13.9120   20.4600 C   0  0  0  0  0  0  0  0  0  0  0  0
  -24.2720  -13.1620   20.8710 C   0  0  0  0  0  0  0  0  0  0  0  0
  -24.6930  -11.7960   20.7800 C   0  0  0  0  0  0  0  0  0  0  0  0
  -26.3330  -13.0110   20.1340 N   0  0  0  0  0  0  0  0  0  0  0  0
  -25.9600  -11.7290   20.3970 N   0  0  0  0  0  0  0  0  0  0  0  0
  -23.9440  -10.5490   20.9840 C   0  0  0  0  0  0  0  0  0  0  0  0
  -24.3840   -9.5560   21.8880 C   0  0  0  0  0  3  0  0  0  0  0  0
  -23.6350   -8.3760   22.0780 C   0  0  0  0  0  3  0  0  0  0  0  0
  -22.4270   -8.1830   21.3650 C   0  0  0  0  0  0  0  0  0  0  0  0
  -22.0020   -9.1620   20.4530 C   0  0  0  0  0  3  0  0  0  0  0  0
  -22.7540  -10.3320   20.2610 C   0  0  0  0  0  3  0  0  0  0  0  0
  -21.6420   -7.0620   21.4690 O   0  0  0  0  0  0  0  0  0  0  0  0
  -21.6150   -6.3090   22.6130 C   0  0  0  0  0  0  0  0  0  0  0  0
  -21.2280   -6.8590   23.8550 C   0  0  0  0  0  3  0  0  0  0  0  0
  -21.1420   -6.0300   24.9940 C   0  0  0  0  0  3  0  0  0  0  0  0
  -21.4250   -4.6550   24.8870 C   0  0  0  0  0  0  0  0  0  0  0  0
  -21.8050   -4.1050   23.6510 C   0  0  0  0  0  3  0  0  0  0  0  0
  -21.8980   -4.9300   22.5170 C   0  0  0  0  0  0  0  0  0  0  0  0
  -22.2410   -4.3910   21.3210 F   0  0  0  0  0  0  0  0  0  0  0  0
  -21.3330   -3.8610   25.9810 F   0  0  0  0  0  0  0  0  0  0  0  0
  -22.9060  -13.6690   21.2270 C   0  0  0  0  0  0  0  0  0  0  0  0
  -22.2020  -12.9800   22.1200 N   0  0  0  0  0  0  0  0  0  0  0  0
  -22.4730  -14.7190   20.7560 O   0  0  0  0  0  0  0  0  0  0  0  0
  -22.5650  -12.1330   22.5320 H   0  0  0  0  0  0  0  0  0  0  0  0
  -21.2890  -13.3070   22.4050 H   0  0  0  0  0  0  0  0  0  0  0  0
  -25.5330  -15.2830   20.3080 N   0  0  0  0  0  0  0  0  0  0  0  0
  -24.7900  -15.9600   20.4580 H   0  0  0  0  0  0  0  0  0  0  0  0
  -26.3820  -15.6970   19.9580 H   0  0  0  0  0  0  0  0  0  0  0  0
  2  1  1  0
  2  4  1  0
  2 47  1  0
  4  3  1  0
  4  5  1  0
  6  8  1  0
  6  5  1  0
  7 18  2  0
  8 13  1  0
  9 17  1  0
  9 19  1  0
 10 16  1  0
 10 12  1  0
 11 17  1  0
 12 13  2  0
 12 11  1  0
 14  8  2  0
 15 14  1  0
 15 10  2  0
 16  9  1  0
 17  7  1  0
 19 21  2  0
 20 19  1  0
 22 20  1  0
 23 32  2  0
 23 28  1  0
 24 20  1  0
 24 28  1  0
 25 24  1  0
 26 27  1  0
 26 25  1  0
 27 23  1  0
 28 29  2  0
 29 30  1  0
 31 30  2  0
 32 31  1  0
 33  7  1  0
 33 34  1  0
 33 43  1  0
 34 37  1  0
 35 39  1  0
 35 34  1  0
 36 35  2  0
 39 38  1  0
 41 39  1  0
 41 42  1  0
 41 40  1  0
 43 46  1  1
 43 44  1  0
 45 43  1  0
 50 48  1  6
 50 51  1  0
 50 49  1  0
 50 47  1  0
 52 58  1  0
 52 60  1  0
 53 58  1  0
 54 55  1  0
 54 53  1  0
 56 55  1  0
 56 65  1  0
 56 57  1  0
 58 57  1  0
 59 52  2  0
 60 51  1  0
 60 61  1  0
 62 63  2  0
 63 82  1  0
 64 63  1  0
 64 67  1  0
 65 66  1  0
 65 62  1  0
 66 64  2  0
 67 68  1  0
 68 69  2  0
 70 73  1  0
 70 69  1  0
 71 70  2  0
 72 71  1  0
 72 67  2  0
 73 74  1  0
 74 75  1  0
 75 76  2  0
 77 76  1  0
 77 81  1  0
 78 77  2  0
 79 74  2  0
 79 78  1  0
 80 79  1  0
 82 83  1  0
 83 86  1  0
 83 85  1  0
 84 82  2  0
 87 88  1  0
 87 62  1  0
 89 87  1  0
M  ISO  4   5 101   6 101  52 100  60 100
M  END
>  <TORSDO>  (76) 
F 21

>  <SCORE>  (76) 
-14.936

>  <name>  (76) 
75

>  <ligand_id>  (76) 
75

>  <original_smiles>  (76) 
[H]c1c([H])c([H])c2c(c1[H])C([H])([H])C([H])([H])C([H])([H])C2([H])N([H])C(=O)C1([H])N(C(=O)C([H])(N([H])C(=O)C([H])(N([H])C([H])([H])[H])C([H])([H])[H])C(C([H])([H])[H])(C([H])([H])[H])C([H])([H])[H])C([H])([H])c2c([H])c(OC([H])([H])C([H])(C([H])([H])[H])C([H])(OC(C([H])([H])[H])(C([H])([H])[H])C([H])([H])N([H])C(=O)N3C([H])([H])C([H])([H])C([H])([H])C([H])(n4nc(-c5c([H])c([H])c(Oc6c([H])c([H])c(F)c([H])c6F)c([H])c5[H])c(C(=O)N([H])[H])c4N([H])[H])C3([H])[H])C([H])([H])[H])c([H])c([H])c2C1([H])[H]

>  <smiles>  (76) 
[H]c1c([H])c([H])c2c(c1[H])C([H])([H])C([H])([H])C([H])([H])C2([H])N([H])C(=O)C1([H])N(C(=O)C([H])(N([H])C(=O)C([H])(N([H])C([H])([H])[H])C([H])([H])[H])C(C([H])([H])[H])(C([H])([H])[H])C([H])([H])[H])C([H])([H])c2c([H])c(OC([H])([H])C([H])(C([H])([H])[H])C([H])(OC(C([H])([H])[H])(C([H])([H])[H])C([H])([H])N([H])C(=O)N3C([H])([H])C([H])([H])C([H])([H])C([H])(n4nc(-c5c([H])c([H])c(Oc6c([H])c([H])c(F)c([H])c6F)c([H])c5[H])c(C(=O)N([H])[H])c4N([H])[H])C3([H])[H])C([H])([H])[H])c([H])c([H])c2C1([H])[H]

$$$$
76:0:0
     RDKit          3D

 95103  0  0  1  0  0  0  0  0999 V2000
  -30.4150  -20.1040   19.5170 C   0  0  0  0  0  3  0  0  0  0  0  0
  -30.4590  -18.9760   20.3380 C   0  0  0  0  0  0  0  0  0  0  0  0
  -29.7770  -19.4160   21.5250 C   0  0  0  0  0  0  0  0  0  0  0  0
  -29.3660  -20.7330   21.3590 C   0  0  0  0  0  0  0  0  0  0  0  0
  -28.5890  -21.6150   22.2940 C   0  0  0  0  0  1  0  0  0  0  0  0
  -29.7400  -21.2000   20.1030 N   0  0  0  0  0  0  0  0  0  0  0  0
  -29.5050  -18.5970   22.7690 C   0  0  0  0  0  2  0  0  0  0  0  0
  -30.5490  -18.8220   23.8800 C   0  0  0  0  0  2  0  0  0  0  0  0
  -31.3720  -18.1910   26.1920 C   0  0  0  0  0  1  0  0  0  0  0  0
  -28.9790  -18.9260   25.9040 C   0  0  0  0  0  1  0  0  0  0  0  0
  -30.1650  -18.2010   25.2410 C   0  0  0  0  0  3  0  0  0  0  0  0
  -31.1800  -17.5920   19.9890 C   0  0  0  0  0  2  0  0  0  0  0  0
  -31.2810  -15.0110   19.9540 C   0  0  0  0  0  0  0  0  0  0  0  0
  -30.9640  -12.7130   19.0340 C   0  0  0  0  0  2  0  0  0  0  0  0
  -30.0080  -12.7640   17.8220 C   0  0  0  0  0  2  0  0  0  0  0  0
  -28.5430  -12.6630   18.2880 C   0  0  0  0  0  2  0  0  0  0  0  0
  -28.2230  -13.6210   19.4650 C   0  0  0  0  0  3  0  0  0  0  0  0
  -29.2950  -13.5510   20.5720 C   0  0  0  0  0  2  0  0  0  0  0  0
  -30.5910  -13.8220   19.9410 N   0  0  0  0  0  0  0  0  0  0  0  0
  -32.4590  -15.0360   19.5900 O   0  0  0  0  0  0  0  0  0  0  0  0
  -30.5960  -16.1970   20.1660 N   0  0  0  0  0  0  0  0  0  0  0  0
  -29.6170  -16.1320   20.3930 H   0  0  0  0  0  0  0  0  0  0  0  0
  -25.9010  -14.3390   20.2820 C   0  0  0  0  0  0  0  0  0  0  0  0
  -24.8000  -13.6220   20.6630 C   0  0  0  0  0  0  0  0  0  0  0  0
  -25.1750  -12.2470   20.5810 C   0  0  0  0  0  0  0  0  0  0  0  0
  -26.8790  -13.4040   19.9880 N   0  0  0  0  0  0  0  0  0  0  0  0
  -26.4520  -12.1380   20.2300 N   0  0  0  0  0  0  0  0  0  0  0  0
  -24.3770  -11.0270   20.7560 C   0  0  0  0  0  0  0  0  0  0  0  0
  -24.7750  -10.0040   21.6440 C   0  0  0  0  0  3  0  0  0  0  0  0
  -23.9800   -8.8490   21.8100 C   0  0  0  0  0  3  0  0  0  0  0  0
  -22.7720   -8.7090   21.0870 C   0  0  0  0  0  0  0  0  0  0  0  0
  -22.3910   -9.7210   20.1860 C   0  0  0  0  0  3  0  0  0  0  0  0
  -23.1860  -10.8660   20.0180 C   0  0  0  0  0  3  0  0  0  0  0  0
  -21.9480   -7.6130   21.1650 O   0  0  0  0  0  0  0  0  0  0  0  0
  -21.8770   -6.8450   22.3000 C   0  0  0  0  0  0  0  0  0  0  0  0
  -21.5040   -7.3920   23.5470 C   0  0  0  0  0  3  0  0  0  0  0  0
  -21.3770   -6.5550   24.6720 C   0  0  0  0  0  3  0  0  0  0  0  0
  -21.6120   -5.1720   24.5520 C   0  0  0  0  0  0  0  0  0  0  0  0
  -21.9790   -4.6250   23.3110 C   0  0  0  0  0  3  0  0  0  0  0  0
  -22.1080   -5.4600   22.1870 C   0  0  0  0  0  0  0  0  0  0  0  0
  -22.4400   -4.9240   20.9870 F   0  0  0  0  0  0  0  0  0  0  0  0
  -21.4820   -4.3650   25.6330 F   0  0  0  0  0  0  0  0  0  0  0  0
  -23.4440  -14.1780   20.9900 C   0  0  0  0  0  0  0  0  0  0  0  0
  -22.7050  -13.5130   21.8710 N   0  0  0  0  0  0  0  0  0  0  0  0
  -23.0520  -15.2360   20.4990 O   0  0  0  0  0  0  0  0  0  0  0  0
  -23.0360  -12.6540   22.2860 H   0  0  0  0  0  0  0  0  0  0  0  0
  -21.7970  -13.8680   22.1340 H   0  0  0  0  0  0  0  0  0  0  0  0
  -26.1470  -15.7010   20.1370 N   0  0  0  0  0  0  0  0  0  0  0  0
  -25.4200  -16.3940   20.2780 H   0  0  0  0  0  0  0  0  0  0  0  0
  -26.9950  -16.0910   19.7470 H   0  0  0  0  0  0  0  0  0  0  0  0
  -29.3110  -22.5060   19.4320 C   0  0  0  0  0  2  0  0  0  0  0  0
  -31.0430  -24.3400   19.9960 C   0  0  0  0  0  1  0  0  0  0  0  0
  -29.5500  -23.9860   20.0440 C   0  0  0  0  0  3  0  0  0  0  0  0
  -28.6560  -25.1550   19.3730 C   0  0  0  0  0  2  0  0  0  0  0  0
  -28.7260  -26.6090   19.7520 O   0  0  0  0  0  0  0  0  0  0  0  0
  -24.8940  -31.7090   23.1940 C   0  0  0  0  0  0  0  0  0  0  0  0
  -27.5860  -27.4520   19.7420 C   0  0  0  0  0  0  0  0  0  0  0  0
  -23.7030  -30.3920   21.4820 C   0  0  0  0  0  3  0  0  0  0  0  0
  -25.1720  -29.0110   19.9050 C   0  0  0  0  0  0  0  0  0  0  0  0
  -26.2280  -30.8040   21.2720 C   0  0  0  0  0  2  0  0  0  0  0  0
  -26.3380  -29.4780   20.5220 C   0  0  0  0  0  0  0  0  0  0  0  0
  -27.5430  -28.7080   20.4370 C   0  0  0  0  0  3  0  0  0  0  0  0
  -26.3960  -27.0730   19.0760 C   0  0  0  0  0  3  0  0  0  0  0  0
  -25.2060  -27.8190   19.1730 C   0  0  0  0  0  3  0  0  0  0  0  0
  -23.9080  -29.8360   20.0480 C   0  0  0  0  0  2  0  0  0  0  0  0
  -24.9620  -30.9840   22.0390 N   0  0  0  0  0  0  0  0  0  0  0  0
  -23.8140  -31.9060   23.7710 O   0  0  0  0  0  0  0  0  0  0  0  0
  -23.1010  -29.2800   22.3730 C   0  0  0  0  0  0  0  0  0  0  0  0
  -21.7900  -29.0270   22.2240 N   0  0  0  0  0  0  0  0  0  0  0  0
  -23.8110  -28.6500   23.1590 O   0  0  0  0  0  0  0  0  0  0  0  0
  -21.2680  -29.5930   21.5690 H   0  0  0  0  0  0  0  0  0  0  0  0
  -18.5000  -27.5700   22.6000 C   0  0  0  0  0  0  0  0  0  0  0  0
  -21.0280  -27.9970   22.9330 C   0  0  0  0  0  3  0  0  0  0  0  0
  -21.2410  -26.6040   22.2930 C   0  0  0  0  0  2  0  0  0  0  0  0
  -20.1820  -26.2580   21.2410 C   0  0  0  0  0  2  0  0  0  0  0  0
  -18.7840  -26.2700   21.8650 C   0  0  0  0  0  2  0  0  0  0  0  0
  -19.5540  -28.3880   23.0870 C   0  0  0  0  0  0  0  0  0  0  0  0
  -19.2360  -29.6010   23.7360 C   0  0  0  0  0  3  0  0  0  0  0  0
  -17.8950  -30.0000   23.9020 C   0  0  0  0  0  3  0  0  0  0  0  0
  -16.8560  -29.1790   23.4310 C   0  0  0  0  0  3  0  0  0  0  0  0
  -17.1590  -27.9660   22.7860 C   0  0  0  0  0  3  0  0  0  0  0  0
  -26.1670  -32.3440   23.8320 C   0  0  0  0  0  3  0  0  0  0  0  0
  -25.8000  -33.6840   24.3150 N   0  0  0  0  0  0  0  0  0  0  0  0
  -26.0700  -34.8270   23.6700 C   0  0  0  0  0  0  0  0  0  0  0  0
  -26.7230  -34.8640   22.6230 O   0  0  0  0  0  0  0  0  0  0  0  0
  -25.2170  -33.7240   25.1370 H   0  0  0  0  0  0  0  0  0  0  0  0
  -24.2530  -36.5640   23.5410 C   0  0  0  0  0  1  0  0  0  0  0  0
  -25.5290  -36.1350   24.2820 C   0  0  0  0  0  3  0  0  0  0  0  0
  -27.6370  -37.0320   25.1700 C   0  0  0  0  0  1  0  0  0  0  0  0
  -26.5100  -37.2420   24.2650 N   0  0  0  0  0  0  0  0  0  0  0  0
  -26.0650  -38.1200   24.5140 H   0  0  0  0  0  0  0  0  0  0  0  0
  -26.7700  -31.4790   25.0070 C   0  0  1  0  0  0  0  0  0  0  0  0
  -25.7310  -31.0780   26.0800 C   0  0  0  0  0  1  0  0  0  0  0  0
  -27.4020  -30.1790   24.4590 C   0  0  0  0  0  1  0  0  0  0  0  0
  -27.9040  -32.2620   25.7050 C   0  0  0  0  0  1  0  0  0  0  0  0
  1  6  1  0
  1  2  2  0
  2  3  1  0
  3  7  1  0
  4  3  2  0
  4  5  1  0
  6  4  1  0
  7  8  1  0
  8 11  1  0
 11 10  1  0
 11  9  1  0
 12 21  1  0
 12  2  1  0
 13 21  1  0
 14 19  1  0
 15 16  1  0
 15 14  1  0
 17 16  1  0
 17 26  1  0
 17 18  1  0
 19 13  1  0
 19 18  1  0
 20 13  2  0
 21 22  1  0
 23 24  2  0
 24 43  1  0
 25 24  1  0
 25 28  1  0
 26 27  1  0
 26 23  1  0
 27 25  2  0
 28 29  1  0
 29 30  2  0
 31 34  1  0
 31 30  1  0
 32 31  2  0
 33 32  1  0
 33 28  2  0
 34 35  1  0
 35 36  1  0
 36 37  2  0
 38 37  1  0
 38 42  1  0
 39 38  2  0
 40 35  2  0
 40 39  1  0
 41 40  1  0
 43 44  1  0
 44 47  1  0
 44 46  1  0
 45 43  2  0
 48 49  1  0
 48 23  1  0
 50 48  1  0
 51 53  1  0
 51  6  1  0
 53 52  1  0
 54 55  1  0
 54 53  1  0
 56 67  2  0
 57 55  1  0
 57 62  1  0
 58 66  1  0
 58 68  1  0
 59 65  1  0
 59 61  1  0
 60 66  1  0
 61 60  1  0
 62 61  2  0
 63 64  1  0
 63 57  2  0
 64 59  2  0
 65 58  1  0
 66 56  1  0
 68 70  2  0
 69 68  1  0
 71 69  1  0
 72 81  2  0
 72 77  1  0
 73 69  1  0
 73 77  1  0
 74 73  1  0
 75 76  1  0
 75 74  1  0
 76 72  1  0
 77 78  2  0
 78 79  1  0
 80 79  2  0
 81 80  1  0
 82 56  1  0
 82 83  1  0
 82 92  1  0
 83 86  1  0
 84 88  1  0
 84 83  1  0
 85 84  2  0
 88 87  1  0
 90 88  1  0
 90 91  1  0
 90 89  1  0
 92 95  1  1
 92 93  1  0
 94 92  1  0
M  ISO  4  13 100  21 100  54 101  55 101
M  END
>  <TORSDO>  (77) 
F 23

>  <SCORE>  (77) 
0.054

>  <name>  (77) 
76

>  <ligand_id>  (77) 
76

>  <original_smiles>  (77) 
[H]c1c([H])c([H])c2c(c1[H])C([H])([H])C([H])([H])C([H])([H])C2([H])N([H])C(=O)C1([H])N(C(=O)C([H])(N([H])C(=O)C([H])(N([H])C([H])([H])[H])C([H])([H])[H])C(C([H])([H])[H])(C([H])([H])[H])C([H])([H])[H])C([H])([H])c2c([H])c(OC([H])([H])C([H])(C([H])([H])[H])C([H])([H])n3c([H])c(C([H])([H])N([H])C(=O)N4C([H])([H])C([H])([H])C([H])([H])C([H])(n5nc(-c6c([H])c([H])c(Oc7c([H])c([H])c(F)c([H])c7F)c([H])c6[H])c(C(=O)N([H])[H])c5N([H])[H])C4([H])[H])c(C([H])([H])C([H])([H])C([H])(C([H])([H])[H])C([H])([H])[H])c3C([H])([H])[H])c([H])c([H])c2C1([H])[H]

>  <smiles>  (77) 
[H]c1c([H])c([H])c2c(c1[H])C([H])([H])C([H])([H])C([H])([H])C2([H])N([H])C(=O)C1([H])N(C(=O)C([H])(N([H])C(=O)C([H])(N([H])C([H])([H])[H])C([H])([H])[H])C(C([H])([H])[H])(C([H])([H])[H])C([H])([H])[H])C([H])([H])c2c([H])c(OC([H])([H])C([H])(C([H])([H])[H])C([H])([H])n3c([H])c(C([H])([H])N([H])C(=O)N4C([H])([H])C([H])([H])C([H])([H])C([H])(n5nc(-c6c([H])c([H])c(Oc7c([H])c([H])c(F)c([H])c7F)c([H])c6[H])c(C(=O)N([H])[H])c5N([H])[H])C4([H])[H])c(C([H])([H])C([H])([H])C([H])(C([H])([H])[H])C([H])([H])[H])c3C([H])([H])[H])c([H])c([H])c2C1([H])[H]

$$$$
77:0:0
     RDKit          3D

 91 99  0  0  1  0  0  0  0  0999 V2000
  -30.1540  -19.9240   19.2680 C   0  0  0  0  0  3  0  0  0  0  0  0
  -28.1580  -20.8650   20.2180 C   0  0  0  0  0  3  0  0  0  0  0  0
  -29.3580  -21.1000   19.5300 C   0  0  0  0  0  0  0  0  0  0  0  0
  -29.7560  -18.6040   19.7100 C   0  0  0  0  0  0  0  0  0  0  0  0
  -28.5560  -18.5680   20.4630 C   0  0  0  0  0  0  0  0  0  0  0  0
  -28.0350  -17.3080   21.1270 C   0  0  0  0  0  1  0  0  0  0  0  0
  -27.7830  -19.6570   20.6830 N   0  0  0  0  0  0  0  0  0  0  0  0
  -29.6530  -22.5460   18.9510 C   0  0  0  0  0  2  0  0  0  0  0  0
  -29.4250  -23.6830   21.3280 C   0  0  0  0  0  1  0  0  0  0  0  0
  -29.6460  -23.9110   19.8230 C   0  0  0  0  0  3  0  0  0  0  0  0
  -28.6920  -25.0880   19.2950 C   0  0  0  0  0  2  0  0  0  0  0  0
  -28.8110  -26.4990   19.7670 O   0  0  0  0  0  0  0  0  0  0  0  0
  -24.7360  -31.5000   23.0440 C   0  0  0  0  0  0  0  0  0  0  0  0
  -27.6610  -27.3150   19.7270 C   0  0  0  0  0  0  0  0  0  0  0  0
  -23.6420  -30.1400   21.2980 C   0  0  0  0  0  3  0  0  0  0  0  0
  -25.2050  -28.7940   19.7850 C   0  0  0  0  0  0  0  0  0  0  0  0
  -26.1600  -30.6240   21.1780 C   0  0  0  0  0  2  0  0  0  0  0  0
  -26.3340  -29.3000   20.4430 C   0  0  0  0  0  0  0  0  0  0  0  0
  -27.5620  -28.5720   20.4090 C   0  0  0  0  0  3  0  0  0  0  0  0
  -26.5130  -26.8900   19.0170 C   0  0  0  0  0  3  0  0  0  0  0  0
  -25.3010  -27.6010   19.0570 C   0  0  0  0  0  3  0  0  0  0  0  0
  -23.9130  -29.5800   19.8780 C   0  0  0  0  0  2  0  0  0  0  0  0
  -24.8630  -30.7700   21.8980 N   0  0  0  0  0  0  0  0  0  0  0  0
  -23.6310  -31.6730   23.5780 O   0  0  0  0  0  0  0  0  0  0  0  0
  -23.0370  -29.0210   22.1780 C   0  0  0  0  0  0  0  0  0  0  0  0
  -21.7180  -28.7980   22.0510 N   0  0  0  0  0  0  0  0  0  0  0  0
  -23.7520  -28.3620   22.9370 O   0  0  0  0  0  0  0  0  0  0  0  0
  -21.1980  -29.3920   21.4240 H   0  0  0  0  0  0  0  0  0  0  0  0
  -18.3950  -27.4430   22.5170 C   0  0  0  0  0  0  0  0  0  0  0  0
  -20.9510  -27.7620   22.7470 C   0  0  0  0  0  3  0  0  0  0  0  0
  -21.0820  -26.3980   22.0300 C   0  0  0  0  0  2  0  0  0  0  0  0
  -19.9580  -26.1350   21.0220 C   0  0  0  0  0  2  0  0  0  0  0  0
  -18.5950  -26.1660   21.7200 C   0  0  0  0  0  2  0  0  0  0  0  0
  -19.5010  -28.2010   22.9860 C   0  0  0  0  0  0  0  0  0  0  0  0
  -19.2580  -29.3970   23.6960 C   0  0  0  0  0  3  0  0  0  0  0  0
  -17.9430  -29.8350   23.9410 C   0  0  0  0  0  3  0  0  0  0  0  0
  -16.8520  -29.0730   23.4850 C   0  0  0  0  0  3  0  0  0  0  0  0
  -17.0790  -27.8800   22.7780 C   0  0  0  0  0  3  0  0  0  0  0  0
  -25.9680  -32.1700   23.7240 C   0  0  0  0  0  3  0  0  0  0  0  0
  -26.4970  -31.3680   24.9770 C   0  0  1  0  0  0  0  0  0  0  0  0
  -25.3950  -31.0240   26.0050 C   0  0  0  0  0  1  0  0  0  0  0  0
  -27.1610  -30.0410   24.5400 C   0  0  0  0  0  1  0  0  0  0  0  0
  -27.5890  -32.1880   25.7030 C   0  0  0  0  0  1  0  0  0  0  0  0
  -25.5780  -33.5340   24.1110 N   0  0  0  0  0  0  0  0  0  0  0  0
  -25.8560  -34.6360   23.4010 C   0  0  0  0  0  0  0  0  0  0  0  0
  -26.5400  -34.6140   22.3730 O   0  0  0  0  0  0  0  0  0  0  0  0
  -24.9730  -33.6210   24.9140 H   0  0  0  0  0  0  0  0  0  0  0  0
  -24.0280  -36.3380   23.1090 C   0  0  0  0  0  1  0  0  0  0  0  0
  -25.2870  -35.9740   23.9110 C   0  0  0  0  0  3  0  0  0  0  0  0
  -27.3580  -36.9530   24.7990 C   0  0  0  0  0  1  0  0  0  0  0  0
  -26.2580  -37.0890   23.8480 N   0  0  0  0  0  0  0  0  0  0  0  0
  -25.7950  -37.9780   24.0220 H   0  0  0  0  0  0  0  0  0  0  0  0
  -30.6570  -17.3210   19.4240 C   0  0  0  0  0  2  0  0  0  0  0  0
  -31.0320  -14.7700   19.6330 C   0  0  0  0  0  0  0  0  0  0  0  0
  -30.7400  -12.4540   18.7850 C   0  0  0  0  0  2  0  0  0  0  0  0
  -29.7230  -12.4890   17.6260 C   0  0  0  0  0  2  0  0  0  0  0  0
  -28.2820  -12.3670   18.1610 C   0  0  0  0  0  2  0  0  0  0  0  0
  -28.0030  -13.3170   19.3590 C   0  0  0  0  0  3  0  0  0  0  0  0
  -29.1380  -13.2700   20.4050 C   0  0  0  0  0  2  0  0  0  0  0  0
  -30.3950  -13.5590   19.7030 N   0  0  0  0  0  0  0  0  0  0  0  0
  -32.1850  -14.8500   19.2020 O   0  0  0  0  0  0  0  0  0  0  0  0
  -30.2770  -15.9060   19.8220 N   0  0  0  0  0  0  0  0  0  0  0  0
  -29.3260  -15.7530   20.1150 H   0  0  0  0  0  0  0  0  0  0  0  0
  -25.7280  -13.9770   20.3460 C   0  0  0  0  0  0  0  0  0  0  0  0
  -24.6640  -13.2330   20.7750 C   0  0  0  0  0  0  0  0  0  0  0  0
  -25.0490  -11.8650   20.6220 C   0  0  0  0  0  0  0  0  0  0  0  0
  -26.6970  -13.0650   19.9590 N   0  0  0  0  0  0  0  0  0  0  0  0
  -26.2990  -11.7860   20.1850 N   0  0  0  0  0  0  0  0  0  0  0  0
  -24.2770  -10.6290   20.8100 C   0  0  0  0  0  0  0  0  0  0  0  0
  -24.6530   -9.6620   21.7680 C   0  0  0  0  0  3  0  0  0  0  0  0
  -23.8840   -8.4910   21.9420 C   0  0  0  0  0  3  0  0  0  0  0  0
  -22.7240   -8.2800   21.1590 C   0  0  0  0  0  0  0  0  0  0  0  0
  -22.3670   -9.2360   20.1900 C   0  0  0  0  0  3  0  0  0  0  0  0
  -23.1370  -10.3980   20.0140 C   0  0  0  0  0  3  0  0  0  0  0  0
  -21.9300   -7.1620   21.2430 O   0  0  0  0  0  0  0  0  0  0  0  0
  -21.6920   -6.5340   22.4400 C   0  0  0  0  0  0  0  0  0  0  0  0
  -21.0840   -7.2040   23.5240 C   0  0  0  0  0  3  0  0  0  0  0  0
  -20.7950   -6.5030   24.7120 C   0  0  0  0  0  3  0  0  0  0  0  0
  -21.1030   -5.1340   24.8140 C   0  0  0  0  0  0  0  0  0  0  0  0
  -21.7040   -4.4640   23.7340 C   0  0  0  0  0  3  0  0  0  0  0  0
  -21.9950   -5.1620   22.5490 C   0  0  0  0  0  0  0  0  0  0  0  0
  -22.5550   -4.5080   21.5020 F   0  0  0  0  0  0  0  0  0  0  0  0
  -20.8180   -4.4570   25.9520 F   0  0  0  0  0  0  0  0  0  0  0  0
  -23.3250  -13.7590   21.2060 C   0  0  0  0  0  0  0  0  0  0  0  0
  -22.6560  -13.0630   22.1180 N   0  0  0  0  0  0  0  0  0  0  0  0
  -22.8850  -14.8200   20.7660 O   0  0  0  0  0  0  0  0  0  0  0  0
  -23.0250  -12.2030   22.4950 H   0  0  0  0  0  0  0  0  0  0  0  0
  -21.7610  -13.3990   22.4460 H   0  0  0  0  0  0  0  0  0  0  0  0
  -25.9470  -15.3460   20.2270 N   0  0  0  0  0  0  0  0  0  0  0  0
  -25.2150  -16.0170   20.4320 H   0  0  0  0  0  0  0  0  0  0  0  0
  -26.7360  -15.7590   19.7480 H   0  0  0  0  0  0  0  0  0  0  0  0
  1  3  2  0
  1  4  1  0
  2  7  2  0
  3  2  1  0
  4  5  2  0
  5  7  1  0
  5  6  1  0
  8  3  1  0
  8 10  1  0
 10  9  1  0
 11 12  1  0
 11 10  1  0
 13 24  2  0
 14 12  1  0
 14 19  1  0
 15 23  1  0
 15 25  1  0
 16 22  1  0
 16 18  1  0
 17 23  1  0
 18 17  1  0
 19 18  2  0
 20 21  1  0
 20 14  2  0
 21 16  2  0
 22 15  1  0
 23 13  1  0
 25 27  2  0
 26 25  1  0
 28 26  1  0
 29 38  2  0
 29 34  1  0
 30 26  1  0
 30 34  1  0
 31 30  1  0
 32 33  1  0
 32 31  1  0
 33 29  1  0
 34 35  2  0
 35 36  1  0
 37 36  2  0
 38 37  1  0
 39 13  1  0
 39 44  1  0
 39 40  1  0
 40 43  1  1
 40 41  1  0
 42 40  1  0
 44 47  1  0
 45 49  1  0
 45 44  1  0
 46 45  2  0
 49 48  1  0
 51 49  1  0
 51 52  1  0
 51 50  1  0
 53  4  1  0
 53 62  1  0
 54 60  1  0
 54 62  1  0
 55 60  1  0
 56 57  1  0
 56 55  1  0
 58 57  1  0
 58 67  1  0
 58 59  1  0
 60 59  1  0
 61 54  2  0
 62 63  1  0
 64 65  2  0
 65 84  1  0
 66 65  1  0
 66 69  1  0
 67 68  1  0
 67 64  1  0
 68 66  2  0
 69 70  1  0
 70 71  2  0
 72 75  1  0
 72 71  1  0
 73 72  2  0
 74 73  1  0
 74 69  2  0
 75 76  1  0
 76 81  2  0
 76 77  1  0
 77 78  2  0
 78 79  1  0
 79 83  1  0
 80 79  2  0
 81 80  1  0
 82 81  1  0
 84 85  1  0
 85 88  1  0
 85 87  1  0
 86 84  2  0
 89 64  1  0
 89 90  1  0
 91 89  1  0
M  ISO  4  11 101  12 101  54 100  62 100
M  END
>  <TORSDO>  (78) 
F 20

>  <SCORE>  (78) 
-11.297

>  <name>  (78) 
77

>  <ligand_id>  (78) 
77

>  <original_smiles>  (78) 
[H]c1nc(C([H])([H])[H])c(C([H])([H])N([H])C(=O)N2C([H])([H])C([H])([H])C([H])([H])C([H])(n3nc(-c4c([H])c([H])c(Oc5c([H])c([H])c(F)c([H])c5F)c([H])c4[H])c(C(=O)N([H])[H])c3N([H])[H])C2([H])[H])c([H])c1C([H])([H])C([H])(C([H])([H])[H])C([H])([H])Oc1c([H])c([H])c2c(c1[H])C([H])([H])N(C(=O)C([H])(N([H])C(=O)C([H])(N([H])C([H])([H])[H])C([H])([H])[H])C(C([H])([H])[H])(C([H])([H])[H])C([H])([H])[H])C([H])(C(=O)N([H])C1([H])c3c([H])c([H])c([H])c([H])c3C([H])([H])C([H])([H])C1([H])[H])C2([H])[H]

>  <smiles>  (78) 
[H]c1nc(C([H])([H])[H])c(C([H])([H])N([H])C(=O)N2C([H])([H])C([H])([H])C([H])([H])C([H])(n3nc(-c4c([H])c([H])c(Oc5c([H])c([H])c(F)c([H])c5F)c([H])c4[H])c(C(=O)N([H])[H])c3N([H])[H])C2([H])[H])c([H])c1C([H])([H])C([H])(C([H])([H])[H])C([H])([H])Oc1c([H])c([H])c2c(c1[H])C([H])([H])N(C(=O)C([H])(N([H])C(=O)C([H])(N([H])C([H])([H])[H])C([H])([H])[H])C(C([H])([H])[H])(C([H])([H])[H])C([H])([H])[H])C([H])(C(=O)N([H])C1([H])c3c([H])c([H])c([H])c([H])c3C([H])([H])C([H])([H])C1([H])[H])C2([H])[H]

$$$$
78:0:0
     RDKit          3D

 92100  0  0  1  0  0  0  0  0999 V2000
  -29.1930  -22.7590   20.6350 C   0  0  0  0  0  3  0  0  0  0  0  0
  -28.9450  -22.1170   19.3690 C   0  0  0  0  0  0  0  0  0  0  0  0
  -29.3340  -21.9630   21.7310 C   0  0  0  0  0  0  0  0  0  0  0  0
  -29.1650  -20.6060   19.5580 C   0  0  0  0  0  0  0  0  0  0  0  0
  -29.5700  -20.3360   21.2450 S   0  0  0  0  0  0  0  0  0  0  0  0
  -27.4890  -22.8640   17.2770 C   0  0  0  0  0  1  0  0  0  0  0  0
  -28.4860  -23.4290   18.3110 C   0  0  0  0  0  3  0  0  0  0  0  0
  -27.9310  -25.1020   18.7840 C   0  0  0  0  0  2  0  0  0  0  0  0
  -27.4510  -26.5410   18.1110 O   0  0  0  0  0  0  0  0  0  0  0  0
  -24.4270  -31.7310   22.8150 C   0  0  0  0  0  0  0  0  0  0  0  0
  -26.4190  -27.5220   18.5730 C   0  0  0  0  0  0  0  0  0  0  0  0
  -22.9570  -30.5260   21.2320 C   0  0  0  0  0  3  0  0  0  0  0  0
  -24.1250  -29.2620   19.3150 C   0  0  0  0  0  0  0  0  0  0  0  0
  -25.4410  -30.9080   20.6330 C   0  0  0  0  0  2  0  0  0  0  0  0
  -25.4050  -29.6300   19.7400 C   0  0  0  0  0  0  0  0  0  0  0  0
  -26.5430  -28.7910   19.3310 C   0  0  0  0  0  3  0  0  0  0  0  0
  -25.0910  -27.2890   18.1730 C   0  0  0  0  0  3  0  0  0  0  0  0
  -23.9800  -28.1130   18.5150 C   0  0  0  0  0  3  0  0  0  0  0  0
  -22.9240  -30.1030   19.7420 C   0  0  0  0  0  2  0  0  0  0  0  0
  -24.3000  -31.0800   21.6090 N   0  0  0  0  0  0  0  0  0  0  0  0
  -23.4630  -31.8680   23.5810 O   0  0  0  0  0  0  0  0  0  0  0  0
  -22.4930  -29.3550   22.1520 C   0  0  0  0  0  0  0  0  0  0  0  0
  -21.1770  -29.0270   22.1480 N   0  0  0  0  0  0  0  0  0  0  0  0
  -23.3190  -28.7350   22.8240 O   0  0  0  0  0  0  0  0  0  0  0  0
  -20.5480  -29.5700   21.5720 H   0  0  0  0  0  0  0  0  0  0  0  0
  -18.0400  -27.3070   22.7170 C   0  0  0  0  0  0  0  0  0  0  0  0
  -20.5650  -27.9070   22.8840 C   0  0  0  0  0  3  0  0  0  0  0  0
  -20.7690  -26.5530   22.1540 C   0  0  0  0  0  2  0  0  0  0  0  0
  -19.6570  -26.2840   21.1200 C   0  0  0  0  0  2  0  0  0  0  0  0
  -18.3560  -26.0660   21.9020 C   0  0  0  0  0  2  0  0  0  0  0  0
  -19.0710  -28.1880   23.1540 C   0  0  0  0  0  0  0  0  0  0  0  0
  -18.7080  -29.3360   23.8800 C   0  0  0  0  0  3  0  0  0  0  0  0
  -17.3610  -29.6450   24.1370 C   0  0  0  0  0  3  0  0  0  0  0  0
  -16.3370  -28.7730   23.6850 C   0  0  0  0  0  3  0  0  0  0  0  0
  -16.6860  -27.6150   22.9740 C   0  0  0  0  0  3  0  0  0  0  0  0
  -25.7870  -32.3280   23.2940 C   0  0  0  0  0  3  0  0  0  0  0  0
  -25.5040  -33.6080   23.9690 N   0  0  0  0  0  0  0  0  0  0  0  0
  -25.6430  -34.8210   23.4180 C   0  0  0  0  0  0  0  0  0  0  0  0
  -26.0880  -34.9880   22.2780 O   0  0  0  0  0  0  0  0  0  0  0  0
  -25.0780  -33.5370   24.8830 H   0  0  0  0  0  0  0  0  0  0  0  0
  -23.8250  -36.5070   23.8490 C   0  0  0  0  0  1  0  0  0  0  0  0
  -25.2310  -36.0440   24.2630 C   0  0  0  0  0  3  0  0  0  0  0  0
  -27.4650  -36.9110   24.8030 C   0  0  0  0  0  1  0  0  0  0  0  0
  -26.1790  -37.1770   24.1600 N   0  0  0  0  0  0  0  0  0  0  0  0
  -25.7870  -38.0160   24.5810 H   0  0  0  0  0  0  0  0  0  0  0  0
  -26.5920  -31.3700   24.2670 C   0  0  1  0  0  0  0  0  0  0  0  0
  -25.7510  -30.8430   25.4550 C   0  0  0  0  0  1  0  0  0  0  0  0
  -27.1360  -30.1400   23.5080 C   0  0  0  0  0  1  0  0  0  0  0  0
  -27.8270  -32.1170   24.8220 C   0  0  0  0  0  1  0  0  0  0  0  0
  -30.3560  -21.8630   24.0680 C   0  0  0  0  0  1  0  0  0  0  0  0
  -29.2040  -22.3720   23.1830 C   0  0  0  0  0  3  0  0  0  0  0  0
  -29.4220  -24.6810   24.4890 C   0  0  0  0  0  1  0  0  0  0  0  0
  -29.0010  -23.9060   23.2240 C   0  0  0  0  0  2  0  0  0  0  0  0
  -29.1760  -18.9720   18.9550 C   0  0  0  0  0  2  0  0  0  0  0  0
  -30.3400  -16.3400   19.8210 C   0  0  0  0  0  0  0  0  0  0  0  0
  -30.6220  -13.7850   19.4550 C   0  0  0  0  0  2  0  0  0  0  0  0
  -29.8110  -13.3060   18.2320 C   0  0  0  0  0  2  0  0  0  0  0  0
  -28.3830  -12.9290   18.6610 C   0  0  0  0  0  2  0  0  0  0  0  0
  -27.7760  -13.9670   19.6400 C   0  0  0  0  0  3  0  0  0  0  0  0
  -28.7500  -14.4360   20.7400 C   0  0  0  0  0  2  0  0  0  0  0  0
  -29.9300  -14.9880   20.0470 N   0  0  0  0  0  0  0  0  0  0  0  0
  -31.5440  -16.4160   19.5260 O   0  0  0  0  0  0  0  0  0  0  0  0
  -29.4830  -17.5590   19.8200 N   0  0  0  0  0  0  0  0  0  0  0  0
  -29.5910  -17.8760   20.7820 H   0  0  0  0  0  0  0  0  0  0  0  0
  -25.4080  -14.3620   20.4910 C   0  0  0  0  0  0  0  0  0  0  0  0
  -24.3980  -13.5070   20.8570 C   0  0  0  0  0  0  0  0  0  0  0  0
  -24.9380  -12.1960   20.7470 C   0  0  0  0  0  0  0  0  0  0  0  0
  -26.4850  -13.5510   20.1770 N   0  0  0  0  0  0  0  0  0  0  0  0
  -26.2200  -12.2390   20.4010 N   0  0  0  0  0  0  0  0  0  0  0  0
  -24.2850  -10.8900   20.9010 C   0  0  0  0  0  0  0  0  0  0  0  0
  -24.6150  -10.0140   21.9580 C   0  0  0  0  0  3  0  0  0  0  0  0
  -23.9520   -8.7720   22.0960 C   0  0  0  0  0  3  0  0  0  0  0  0
  -22.9460   -8.3980   21.1690 C   0  0  0  0  0  0  0  0  0  0  0  0
  -22.6480   -9.2600   20.0990 C   0  0  0  0  0  3  0  0  0  0  0  0
  -23.3120  -10.4910   19.9630 C   0  0  0  0  0  3  0  0  0  0  0  0
  -22.2770   -7.1970   21.2020 O   0  0  0  0  0  0  0  0  0  0  0  0
  -21.8560   -6.6450   22.3850 C   0  0  0  0  0  0  0  0  0  0  0  0
  -20.9590   -7.3180   23.2450 C   0  0  0  0  0  3  0  0  0  0  0  0
  -20.4930   -6.6830   24.4130 C   0  0  0  0  0  3  0  0  0  0  0  0
  -20.9170   -5.3770   24.7220 C   0  0  0  0  0  0  0  0  0  0  0  0
  -21.8000   -4.7010   23.8620 C   0  0  0  0  0  3  0  0  0  0  0  0
  -22.2670   -5.3330   22.6970 C   0  0  0  0  0  0  0  0  0  0  0  0
  -23.1040   -4.6730   21.8620 F   0  0  0  0  0  0  0  0  0  0  0  0
  -20.4640   -4.7620   25.8400 F   0  0  0  0  0  0  0  0  0  0  0  0
  -22.9900  -13.9050   21.1740 C   0  0  0  0  0  0  0  0  0  0  0  0
  -22.3400  -13.1560   22.0630 N   0  0  0  0  0  0  0  0  0  0  0  0
  -22.4810  -14.9110   20.6910 O   0  0  0  0  0  0  0  0  0  0  0  0
  -22.7770  -12.3510   22.4790 H   0  0  0  0  0  0  0  0  0  0  0  0
  -21.3970  -13.3960   22.3240 H   0  0  0  0  0  0  0  0  0  0  0  0
  -25.4860  -15.7430   20.3810 N   0  0  0  0  0  0  0  0  0  0  0  0
  -24.6840  -16.3370   20.5700 H   0  0  0  0  0  0  0  0  0  0  0  0
  -26.3050  -16.2650   20.0890 H   0  0  0  0  0  0  0  0  0  0  0  0
  1  3  2  0
  2  4  2  0
  2  1  1  0
  3 51  1  0
  4  5  1  0
  5  3  1  0
  7  6  1  0
  7  8  1  0
  7  2  1  0
  9 11  1  0
  9  8  1  0
 10 21  2  0
 11 16  1  0
 12 20  1  0
 12 22  1  0
 13 15  1  0
 13 19  1  0
 14 20  1  0
 15 14  1  0
 16 15  2  0
 17 18  1  0
 17 11  2  0
 18 13  2  0
 19 12  1  0
 20 10  1  0
 22 24  2  0
 23 22  1  0
 25 23  1  0
 26 35  2  0
 26 31  1  0
 27 23  1  0
 27 31  1  0
 28 27  1  0
 29 30  1  0
 29 28  1  0
 30 26  1  0
 31 32  2  0
 32 33  1  0
 34 33  2  0
 35 34  1  0
 36 10  1  0
 36 37  1  0
 36 46  1  0
 37 40  1  0
 38 37  1  0
 38 42  1  0
 39 38  2  0
 42 41  1  0
 44 42  1  0
 44 45  1  0
 44 43  1  0
 46 49  1  1
 46 47  1  0
 48 46  1  0
 51 53  1  0
 51 50  1  0
 53 52  1  0
 54  4  1  0
 54 63  1  0
 55 61  1  0
 56 61  1  0
 57 58  1  0
 57 56  1  0
 59 58  1  0
 59 68  1  0
 59 60  1  0
 61 60  1  0
 62 55  2  0
 63 55  1  0
 63 64  1  0
 65 66  2  0
 66 85  1  0
 67 66  1  0
 67 70  1  0
 68 69  1  0
 68 65  1  0
 69 67  2  0
 70 71  1  0
 71 72  2  0
 73 76  1  0
 73 72  1  0
 74 73  2  0
 75 74  1  0
 75 70  2  0
 76 77  1  0
 77 82  2  0
 77 78  1  0
 78 79  2  0
 79 80  1  0
 80 84  1  0
 81 80  2  0
 82 81  1  0
 83 82  1  0
 85 86  1  0
 86 89  1  0
 86 88  1  0
 87 85  2  0
 90 65  1  0
 90 91  1  0
 92 90  1  0
M  ISO  4   8 101   9 101  55 100  63 100
M  END
>  <TORSDO>  (79) 
F 21

>  <SCORE>  (79) 
-10.825

>  <name>  (79) 
78

>  <ligand_id>  (79) 
78

>  <original_smiles>  (79) 
[H]c1c([H])c([H])c2c(c1[H])C([H])([H])C([H])([H])C([H])([H])C2([H])N([H])C(=O)C1([H])N(C(=O)C([H])(N([H])C(=O)C([H])(N([H])C([H])([H])[H])C([H])([H])[H])C(C([H])([H])[H])(C([H])([H])[H])C([H])([H])[H])C([H])([H])c2c([H])c(OC([H])([H])C([H])(c3c(C([H])([H])N([H])C(=O)N4C([H])([H])C([H])([H])C([H])([H])C([H])(n5nc(-c6c([H])c([H])c(Oc7c([H])c([H])c(F)c([H])c7F)c([H])c6[H])c(C(=O)N([H])[H])c5N([H])[H])C4([H])[H])sc(C([H])(C([H])([H])[H])C([H])([H])C([H])([H])[H])c3[H])C([H])([H])[H])c([H])c([H])c2C1([H])[H]

>  <smiles>  (79) 
[H]c1c([H])c([H])c2c(c1[H])C([H])([H])C([H])([H])C([H])([H])C2([H])N([H])C(=O)C1([H])N(C(=O)C([H])(N([H])C(=O)C([H])(N([H])C([H])([H])[H])C([H])([H])[H])C(C([H])([H])[H])(C([H])([H])[H])C([H])([H])[H])C([H])([H])c2c([H])c(OC([H])([H])C([H])(c3c(C([H])([H])N([H])C(=O)N4C([H])([H])C([H])([H])C([H])([H])C([H])(n5nc(-c6c([H])c([H])c(Oc7c([H])c([H])c(F)c([H])c7F)c([H])c6[H])c(C(=O)N([H])[H])c5N([H])[H])C4([H])[H])sc(C([H])(C([H])([H])[H])C([H])([H])C([H])([H])[H])c3[H])C([H])([H])[H])c([H])c([H])c2C1([H])[H]

$$$$
79:0:0
     RDKit          3D

 94102  0  0  1  0  0  0  0  0999 V2000
  -29.2770  -20.7180   18.4710 C   0  0  0  0  0  3  0  0  0  0  0  0
  -29.0000  -22.0460   18.6850 C   0  0  0  0  0  3  0  0  0  0  0  0
  -29.3490  -21.0420   20.6390 C   0  0  0  0  0  3  0  0  0  0  0  0
  -29.5150  -20.0090   19.6950 C   0  0  0  0  0  0  0  0  0  0  0  0
  -29.0130  -22.3130   20.0410 N   0  0  0  0  0  0  0  0  0  0  0  0
  -27.4240  -23.5050   21.5290 C   0  0  0  0  0  1  0  0  0  0  0  0
  -29.8740  -24.0280   21.6180 C   0  0  0  0  0  1  0  0  0  0  0  0
  -28.6980  -23.6850   20.6880 C   0  0  1  0  0  0  0  0  0  0  0  0
  -28.4440  -24.9780   19.7140 C   0  0  0  0  0  2  0  0  0  0  0  0
  -28.3530  -26.3980   20.2360 O   0  0  0  0  0  0  0  0  0  0  0  0
  -24.6200  -31.8630   23.2280 C   0  0  0  0  0  0  0  0  0  0  0  0
  -27.2180  -27.2470   20.1610 C   0  0  0  0  0  0  0  0  0  0  0  0
  -23.4100  -30.4650   21.5940 C   0  0  0  0  0  3  0  0  0  0  0  0
  -24.8540  -28.9030   20.1630 C   0  0  0  0  0  0  0  0  0  0  0  0
  -25.9510  -30.7660   21.4020 C   0  0  0  0  0  2  0  0  0  0  0  0
  -26.0290  -29.3810   20.7520 C   0  0  0  0  0  0  0  0  0  0  0  0
  -27.2090  -28.5660   20.7370 C   0  0  0  0  0  3  0  0  0  0  0  0
  -26.0060  -26.8320   19.5590 C   0  0  0  0  0  3  0  0  0  0  0  0
  -24.8470  -27.6380   19.5540 C   0  0  0  0  0  3  0  0  0  0  0  0
  -23.6200  -29.7840   20.2150 C   0  0  0  0  0  2  0  0  0  0  0  0
  -24.6810  -31.0480   22.1320 N   0  0  0  0  0  0  0  0  0  0  0  0
  -23.5390  -32.1440   23.7620 O   0  0  0  0  0  0  0  0  0  0  0  0
  -22.7430  -29.4520   22.5570 C   0  0  0  0  0  0  0  0  0  0  0  0
  -21.4160  -29.2820   22.4370 N   0  0  0  0  0  0  0  0  0  0  0  0
  -23.4210  -28.8240   23.3760 O   0  0  0  0  0  0  0  0  0  0  0  0
  -20.9270  -29.8420   21.7530 H   0  0  0  0  0  0  0  0  0  0  0  0
  -18.0390  -28.0830   22.9440 C   0  0  0  0  0  0  0  0  0  0  0  0
  -20.5970  -28.3450   23.2100 C   0  0  0  0  0  3  0  0  0  0  0  0
  -20.7000  -26.9120   22.6380 C   0  0  0  0  0  2  0  0  0  0  0  0
  -19.5970  -26.5850   21.6260 C   0  0  0  0  0  2  0  0  0  0  0  0
  -18.2150  -26.7330   22.2690 C   0  0  0  0  0  2  0  0  0  0  0  0
  -19.1580  -28.8460   23.3710 C   0  0  0  0  0  0  0  0  0  0  0  0
  -18.9390  -30.1100   23.9620 C   0  0  0  0  0  3  0  0  0  0  0  0
  -17.6340  -30.6110   24.1300 C   0  0  0  0  0  3  0  0  0  0  0  0
  -16.5290  -29.8450   23.7190 C   0  0  0  0  0  3  0  0  0  0  0  0
  -16.7340  -28.5820   23.1320 C   0  0  0  0  0  3  0  0  0  0  0  0
  -25.9050  -32.4970   23.8450 C   0  0  0  0  0  3  0  0  0  0  0  0
  -25.5960  -33.8940   24.1820 N   0  0  0  0  0  0  0  0  0  0  0  0
  -25.9210  -34.9490   23.4230 C   0  0  0  0  0  0  0  0  0  0  0  0
  -26.5820  -34.8500   22.3860 O   0  0  0  0  0  0  0  0  0  0  0  0
  -25.0120  -34.0460   24.9920 H   0  0  0  0  0  0  0  0  0  0  0  0
  -24.1910  -36.7480   23.0940 C   0  0  0  0  0  1  0  0  0  0  0  0
  -25.4380  -36.3370   23.8920 C   0  0  0  0  0  3  0  0  0  0  0  0
  -27.5790  -37.2180   24.7100 C   0  0  0  0  0  1  0  0  0  0  0  0
  -26.4710  -37.3900   23.7740 N   0  0  0  0  0  0  0  0  0  0  0  0
  -26.0640  -38.3100   23.9300 H   0  0  0  0  0  0  0  0  0  0  0  0
  -26.4230  -31.7260   25.1210 C   0  0  1  0  0  0  0  0  0  0  0  0
  -25.3330  -31.4920   26.1950 C   0  0  0  0  0  1  0  0  0  0  0  0
  -27.0050  -30.3480   24.7300 C   0  0  0  0  0  1  0  0  0  0  0  0
  -27.5770  -32.5200   25.7800 C   0  0  0  0  0  1  0  0  0  0  0  0
  -29.9010  -18.4290   19.6600 C   0  0  0  0  0  3  0  0  0  0  0  0
  -31.2130  -18.3140   19.0120 N   0  0  0  0  0  4  0  0  0  0  0  0
  -31.9170  -18.7160   19.6050 H   0  0  0  0  0  0  0  0  0  0  0  0
  -31.2080  -18.8080   18.1390 H   0  0  0  0  0  0  0  0  0  0  0  0
  -31.4380  -17.3500   18.8450 H   0  0  0  0  0  0  0  0  0  0  0  0
  -29.8740  -17.3790   20.8870 C   0  0  0  0  0  2  0  0  0  0  0  0
  -30.5470  -14.7800   20.4110 C   0  0  0  0  0  0  0  0  0  0  0  0
  -30.4050  -12.4960   19.3830 C   0  0  0  0  0  2  0  0  0  0  0  0
  -29.4570  -12.5330   18.1630 C   0  0  0  0  0  2  0  0  0  0  0  0
  -27.9900  -12.3460   18.5980 C   0  0  0  0  0  2  0  0  0  0  0  0
  -27.6030  -13.2410   19.8030 C   0  0  0  0  0  3  0  0  0  0  0  0
  -28.6610  -13.1600   20.9240 C   0  0  0  0  0  2  0  0  0  0  0  0
  -29.9530  -13.5380   20.3320 N   0  0  0  0  0  0  0  0  0  0  0  0
  -31.7340  -14.9300   20.1100 O   0  0  0  0  0  0  0  0  0  0  0  0
  -29.7120  -15.8670   20.6240 N   0  0  0  0  0  0  0  0  0  0  0  0
  -28.7550  -15.5680   20.7360 H   0  0  0  0  0  0  0  0  0  0  0  0
  -25.2110  -13.8290   20.5230 C   0  0  0  0  0  0  0  0  0  0  0  0
  -24.1480  -13.0510   20.8950 C   0  0  0  0  0  0  0  0  0  0  0  0
  -24.6180  -11.7020   20.8700 C   0  0  0  0  0  0  0  0  0  0  0  0
  -26.2590  -12.9510   20.2930 N   0  0  0  0  0  0  0  0  0  0  0  0
  -25.9090  -11.6690   20.5660 N   0  0  0  0  0  0  0  0  0  0  0  0
  -23.8960  -10.4380   21.0620 C   0  0  0  0  0  0  0  0  0  0  0  0
  -24.3370   -9.4660   21.9900 C   0  0  0  0  0  3  0  0  0  0  0  0
  -23.6140   -8.2670   22.1670 C   0  0  0  0  0  3  0  0  0  0  0  0
  -22.4370   -8.0300   21.4190 C   0  0  0  0  0  0  0  0  0  0  0  0
  -22.0150   -8.9880   20.4820 C   0  0  0  0  0  3  0  0  0  0  0  0
  -22.7380  -10.1790   20.3020 C   0  0  0  0  0  3  0  0  0  0  0  0
  -21.6840   -6.8840   21.5090 O   0  0  0  0  0  0  0  0  0  0  0  0
  -21.6570   -6.1290   22.6540 C   0  0  0  0  0  0  0  0  0  0  0  0
  -21.2570   -6.6720   23.8940 C   0  0  0  0  0  3  0  0  0  0  0  0
  -21.1760   -5.8440   25.0330 C   0  0  0  0  0  3  0  0  0  0  0  0
  -21.4840   -4.4750   24.9320 C   0  0  0  0  0  0  0  0  0  0  0  0
  -21.8780   -3.9320   23.6950 C   0  0  0  0  0  3  0  0  0  0  0  0
  -21.9600   -4.7560   22.5590 C   0  0  0  0  0  0  0  0  0  0  0  0
  -22.3190   -4.2230   21.3670 F   0  0  0  0  0  0  0  0  0  0  0  0
  -21.3990   -3.6770   26.0210 F   0  0  0  0  0  0  0  0  0  0  0  0
  -22.7480  -13.5240   21.1570 C   0  0  0  0  0  0  0  0  0  0  0  0
  -22.0180  -12.8260   22.0200 N   0  0  0  0  0  0  0  0  0  0  0  0
  -22.3100  -14.5470   20.6310 O   0  0  0  0  0  0  0  0  0  0  0  0
  -22.3860  -11.9990   22.4660 H   0  0  0  0  0  0  0  0  0  0  0  0
  -21.0790  -13.1250   22.2400 H   0  0  0  0  0  0  0  0  0  0  0  0
  -25.3680  -15.1980   20.3390 N   0  0  0  0  0  0  0  0  0  0  0  0
  -24.5900  -15.8400   20.4310 H   0  0  0  0  0  0  0  0  0  0  0  0
  -26.1920  -15.6350   19.9470 H   0  0  0  0  0  0  0  0  0  0  0  0
  1  2  2  0
  1  4  1  0
  2  5  1  0
  4  3  2  0
  5  3  1  0
  5  8  1  0
  8  6  1  1
  8  7  1  0
  9 10  1  0
  9  8  1  0
 11 22  2  0
 12 10  1  0
 12 17  1  0
 13 21  1  0
 13 23  1  0
 14 20  1  0
 14 16  1  0
 15 21  1  0
 16 15  1  0
 17 16  2  0
 18 12  2  0
 19 18  1  0
 19 14  2  0
 20 13  1  0
 21 11  1  0
 23 25  2  0
 24 23  1  0
 26 24  1  0
 27 36  2  0
 27 32  1  0
 28 24  1  0
 28 32  1  0
 29 28  1  0
 30 31  1  0
 30 29  1  0
 31 27  1  0
 32 33  2  0
 33 34  1  0
 35 34  2  0
 36 35  1  0
 37 11  1  0
 37 38  1  0
 37 47  1  0
 38 41  1  0
 39 43  1  0
 39 38  1  0
 40 39  2  0
 43 42  1  0
 45 43  1  0
 45 46  1  0
 45 44  1  0
 47 50  1  1
 47 48  1  0
 49 47  1  0
 51  4  1  0
 51 56  1  0
 52 53  1  0
 52 51  1  0
 54 52  1  0
 55 52  1  0
 57 65  1  0
 58 63  1  0
 59 60  1  0
 59 58  1  0
 61 60  1  0
 61 70  1  0
 61 62  1  0
 63 57  1  0
 63 62  1  0
 64 57  2  0
 65 66  1  0
 65 56  1  0
 67 68  2  0
 68 87  1  0
 69 68  1  0
 69 72  1  0
 70 67  1  0
 70 71  1  0
 71 69  2  0
 72 73  1  0
 73 74  2  0
 75 78  1  0
 75 74  1  0
 76 75  2  0
 77 76  1  0
 77 72  2  0
 78 79  1  0
 79 80  1  0
 80 81  2  0
 82 81  1  0
 82 86  1  0
 83 82  2  0
 84 79  2  0
 84 83  1  0
 85 84  1  0
 87 88  1  0
 88 91  1  0
 88 90  1  0
 89 87  2  0
 92 93  1  0
 92 67  1  0
 94 92  1  0
M  ISO  4   9 101  10 101  57 100  65 100
M  END
>  <TORSDO>  (80) 
F 21

>  <SCORE>  (80) 
-13.713

>  <name>  (80) 
79

>  <ligand_id>  (80) 
79

>  <original_smiles>  (80) 
[H]c1c([H])c([H])c2c(c1[H])C([H])([H])C([H])([H])C([H])([H])C2([H])N([H])C(=O)C1([H])N(C(=O)C([H])(N([H])C(=O)C([H])(N([H])C([H])([H])[H])C([H])([H])[H])C(C([H])([H])[H])(C([H])([H])[H])C([H])([H])[H])C([H])([H])c2c([H])c(OC([H])([H])C(n3c([H])c([H])c(C([H])(C([H])([H])N([H])C(=O)N4C([H])([H])C([H])([H])C([H])([H])C([H])(n5nc(-c6c([H])c([H])c(Oc7c([H])c([H])c(F)c([H])c7F)c([H])c6[H])c(C(=O)N([H])[H])c5N([H])[H])C4([H])[H])[N+]([H])([H])[H])c3[H])(C([H])([H])[H])C([H])([H])[H])c([H])c([H])c2C1([H])[H]

>  <smiles>  (80) 
[H]c1c([H])c([H])c2c(c1[H])C([H])([H])C([H])([H])C([H])([H])C2([H])N([H])C(=O)C1([H])N(C(=O)C([H])(N([H])C(=O)C([H])(N([H])C([H])([H])[H])C([H])([H])[H])C(C([H])([H])[H])(C([H])([H])[H])C([H])([H])[H])C([H])([H])c2c([H])c(OC([H])([H])C(n3c([H])c([H])c(C([H])(C([H])([H])N([H])C(=O)N4C([H])([H])C([H])([H])C([H])([H])C([H])(n5nc(-c6c([H])c([H])c(Oc7c([H])c([H])c(F)c([H])c7F)c([H])c6[H])c(C(=O)N([H])[H])c5N([H])[H])C4([H])[H])[N+]([H])([H])[H])c3[H])(C([H])([H])[H])C([H])([H])[H])c([H])c([H])c2C1([H])[H]

$$$$
80:0:0
     RDKit          3D

 92100  0  0  1  0  0  0  0  0999 V2000
  -29.8950  -19.1240   18.4670 C   0  0  0  0  0  3  0  0  0  0  0  0
  -30.2100  -19.9190   17.3650 C   0  0  0  0  0  3  0  0  0  0  0  0
  -29.4650  -19.6310   19.7150 C   0  0  0  0  0  0  0  0  0  0  0  0
  -30.0770  -21.3010   17.4690 C   0  0  0  0  0  0  0  0  0  0  0  0
  -29.1600  -21.2050   19.6740 C   0  0  0  0  0  0  0  0  0  0  0  0
  -29.5060  -21.8570   18.5430 N   0  0  0  0  0  0  0  0  0  0  0  0
  -31.4650  -23.3840   17.0680 C   0  0  0  0  0  1  0  0  0  0  0  0
  -30.5920  -22.2940   16.4100 C   0  0  0  0  0  3  0  0  0  0  0  0
  -30.5330  -21.1530   14.0900 C   0  0  0  0  0  1  0  0  0  0  0  0
  -31.3980  -21.6460   15.2540 C   0  0  0  0  0  2  0  0  0  0  0  0
  -29.6130  -18.2320   20.7370 C   0  0  0  0  0  2  0  0  0  0  0  0
  -30.3980  -15.3130   20.3840 C   0  0  0  0  0  0  0  0  0  0  0  0
  -30.4170  -12.8610   19.5060 C   0  0  0  0  0  2  0  0  0  0  0  0
  -29.5130  -12.6160   18.2710 C   0  0  0  0  0  2  0  0  0  0  0  0
  -28.0550  -12.3450   18.6900 C   0  0  0  0  0  2  0  0  0  0  0  0
  -27.5830  -13.3150   19.8040 C   0  0  0  0  0  3  0  0  0  0  0  0
  -28.6170  -13.4820   20.9390 C   0  0  0  0  0  2  0  0  0  0  0  0
  -29.8430  -14.0030   20.3080 N   0  0  0  0  0  0  0  0  0  0  0  0
  -31.6300  -15.3170   20.2380 O   0  0  0  0  0  0  0  0  0  0  0  0
  -29.5910  -16.5670   20.4310 N   0  0  0  0  0  0  0  0  0  0  0  0
  -28.6260  -16.2740   20.4200 H   0  0  0  0  0  0  0  0  0  0  0  0
  -25.1980  -13.8720   20.5130 C   0  0  0  0  0  0  0  0  0  0  0  0
  -24.1310  -13.0950   20.8710 C   0  0  0  0  0  0  0  0  0  0  0  0
  -24.6030  -11.7460   20.8600 C   0  0  0  0  0  0  0  0  0  0  0  0
  -26.2470  -12.9980   20.2940 N   0  0  0  0  0  0  0  0  0  0  0  0
  -25.9010  -11.7140   20.5730 N   0  0  0  0  0  0  0  0  0  0  0  0
  -23.8750  -10.4830   21.0480 C   0  0  0  0  0  0  0  0  0  0  0  0
  -24.2990   -9.5200   21.9890 C   0  0  0  0  0  3  0  0  0  0  0  0
  -23.5680   -8.3250   22.1670 C   0  0  0  0  0  3  0  0  0  0  0  0
  -22.3990   -8.0860   21.4030 C   0  0  0  0  0  0  0  0  0  0  0  0
  -21.9950   -9.0390   20.4530 C   0  0  0  0  0  3  0  0  0  0  0  0
  -22.7250  -10.2260   20.2730 C   0  0  0  0  0  3  0  0  0  0  0  0
  -21.6430   -6.9420   21.4890 O   0  0  0  0  0  0  0  0  0  0  0  0
  -21.5900   -6.1970   22.6410 C   0  0  0  0  0  0  0  0  0  0  0  0
  -21.1750   -6.7550   23.8700 C   0  0  0  0  0  3  0  0  0  0  0  0
  -21.0700   -5.9380   25.0130 C   0  0  0  0  0  3  0  0  0  0  0  0
  -21.3700   -4.5660   24.9300 C   0  0  0  0  0  0  0  0  0  0  0  0
  -21.7780   -4.0070   23.7060 C   0  0  0  0  0  3  0  0  0  0  0  0
  -21.8840   -4.8210   22.5630 C   0  0  0  0  0  0  0  0  0  0  0  0
  -22.2560   -4.2750   21.3810 F   0  0  0  0  0  0  0  0  0  0  0  0
  -21.2640   -3.7800   26.0250 F   0  0  0  0  0  0  0  0  0  0  0  0
  -22.7290  -13.5730   21.1100 C   0  0  0  0  0  0  0  0  0  0  0  0
  -21.9850  -12.8820   21.9680 N   0  0  0  0  0  0  0  0  0  0  0  0
  -22.3010  -14.5920   20.5710 O   0  0  0  0  0  0  0  0  0  0  0  0
  -22.3450  -12.0580   22.4250 H   0  0  0  0  0  0  0  0  0  0  0  0
  -21.0430  -13.1840   22.1740 H   0  0  0  0  0  0  0  0  0  0  0  0
  -25.3570  -15.2410   20.3230 N   0  0  0  0  0  0  0  0  0  0  0  0
  -24.5830  -15.8890   20.4170 H   0  0  0  0  0  0  0  0  0  0  0  0
  -26.1930  -15.6770   19.9580 H   0  0  0  0  0  0  0  0  0  0  0  0
  -28.7060  -22.6260   20.5630 C   0  0  0  0  0  2  0  0  0  0  0  0
  -28.0760  -24.2230   19.9370 C   0  0  0  0  0  2  0  0  0  0  0  0
  -28.1870  -25.8320   20.3200 O   0  0  0  0  0  0  0  0  0  0  0  0
  -24.6470  -31.8360   23.1930 C   0  0  0  0  0  0  0  0  0  0  0  0
  -27.1820  -26.9330   20.2010 C   0  0  0  0  0  0  0  0  0  0  0  0
  -23.4440  -30.4300   21.5700 C   0  0  0  0  0  3  0  0  0  0  0  0
  -24.8860  -28.8230   20.1420 C   0  0  0  0  0  0  0  0  0  0  0  0
  -26.0090  -30.6400   21.4120 C   0  0  0  0  0  2  0  0  0  0  0  0
  -26.0760  -29.2260   20.7650 C   0  0  0  0  0  0  0  0  0  0  0  0
  -27.2120  -28.2980   20.7760 C   0  0  0  0  0  3  0  0  0  0  0  0
  -25.9690  -26.6880   19.5180 C   0  0  0  0  0  3  0  0  0  0  0  0
  -24.8610  -27.5730   19.5030 C   0  0  0  0  0  3  0  0  0  0  0  0
  -23.6650  -29.7390   20.1950 C   0  0  0  0  0  2  0  0  0  0  0  0
  -24.7220  -30.9960   22.1120 N   0  0  0  0  0  0  0  0  0  0  0  0
  -23.5600  -32.1310   23.7180 O   0  0  0  0  0  0  0  0  0  0  0  0
  -22.7570  -29.4390   22.5460 C   0  0  0  0  0  0  0  0  0  0  0  0
  -21.4270  -29.2740   22.4300 N   0  0  0  0  0  0  0  0  0  0  0  0
  -23.4280  -28.8190   23.3760 O   0  0  0  0  0  0  0  0  0  0  0  0
  -20.9440  -29.8180   21.7290 H   0  0  0  0  0  0  0  0  0  0  0  0
  -18.0480  -28.0770   22.9560 C   0  0  0  0  0  0  0  0  0  0  0  0
  -20.6070  -28.3450   23.2130 C   0  0  0  0  0  3  0  0  0  0  0  0
  -20.7100  -26.9100   22.6480 C   0  0  0  0  0  2  0  0  0  0  0  0
  -19.6040  -26.5790   21.6400 C   0  0  0  0  0  2  0  0  0  0  0  0
  -18.2230  -26.7260   22.2860 C   0  0  0  0  0  2  0  0  0  0  0  0
  -19.1660  -28.8440   23.3770 C   0  0  0  0  0  0  0  0  0  0  0  0
  -18.9460  -30.1090   23.9650 C   0  0  0  0  0  3  0  0  0  0  0  0
  -17.6390  -30.6030   24.1430 C   0  0  0  0  0  3  0  0  0  0  0  0
  -16.5360  -29.8300   23.7410 C   0  0  0  0  0  3  0  0  0  0  0  0
  -16.7410  -28.5700   23.1520 C   0  0  0  0  0  3  0  0  0  0  0  0
  -25.9200  -32.4850   23.8140 C   0  0  0  0  0  3  0  0  0  0  0  0
  -25.6000  -33.8840   24.1500 N   0  0  0  0  0  0  0  0  0  0  0  0
  -25.9280  -34.9490   23.4050 C   0  0  0  0  0  0  0  0  0  0  0  0
  -26.5960  -34.8580   22.3720 O   0  0  0  0  0  0  0  0  0  0  0  0
  -25.0000  -34.0300   24.9470 H   0  0  0  0  0  0  0  0  0  0  0  0
  -24.1900  -36.7450   23.0890 C   0  0  0  0  0  1  0  0  0  0  0  0
  -25.4410  -36.3320   23.8830 C   0  0  0  0  0  3  0  0  0  0  0  0
  -27.5800  -37.2150   24.7020 C   0  0  0  0  0  1  0  0  0  0  0  0
  -26.4660  -37.3920   23.7730 N   0  0  0  0  0  0  0  0  0  0  0  0
  -26.0570  -38.3070   23.9400 H   0  0  0  0  0  0  0  0  0  0  0  0
  -26.4360  -31.7260   25.1000 C   0  0  1  0  0  0  0  0  0  0  0  0
  -25.3420  -31.5000   26.1710 C   0  0  0  0  0  1  0  0  0  0  0  0
  -27.0190  -30.3440   24.7290 C   0  0  0  0  0  1  0  0  0  0  0  0
  -27.5870  -32.5260   25.7530 C   0  0  0  0  0  1  0  0  0  0  0  0
  1  3  1  0
  2  4  1  0
  2  1  2  0
  3 11  1  0
  4  6  2  0
  5  3  2  0
  5 50  1  0
  6  5  1  0
  8  7  1  0
  8  4  1  0
  9 10  1  0
 10  8  1  0
 12 20  1  0
 13 18  1  0
 14 15  1  0
 14 13  1  0
 16 15  1  0
 16 25  1  0
 16 17  1  0
 18 12  1  0
 18 17  1  0
 19 12  2  0
 20 11  1  0
 21 20  1  0
 22 23  2  0
 23 42  1  0
 24 23  1  0
 24 27  1  0
 25 22  1  0
 25 26  1  0
 26 24  2  0
 27 28  1  0
 28 29  2  0
 30 33  1  0
 30 29  1  0
 31 30  2  0
 32 31  1  0
 32 27  2  0
 33 34  1  0
 34 35  1  0
 35 36  2  0
 37 36  1  0
 37 41  1  0
 38 37  2  0
 39 34  2  0
 39 38  1  0
 40 39  1  0
 42 43  1  0
 43 46  1  0
 43 45  1  0
 44 42  2  0
 47 48  1  0
 47 22  1  0
 49 47  1  0
 51 52  1  0
 51 50  1  0
 53 64  2  0
 54 52  1  0
 54 59  1  0
 55 63  1  0
 55 65  1  0
 56 62  1  0
 56 58  1  0
 57 63  1  0
 58 59  2  0
 58 57  1  0
 60 54  2  0
 61 60  1  0
 61 56  2  0
 62 55  1  0
 63 53  1  0
 65 67  2  0
 66 65  1  0
 68 66  1  0
 69 78  2  0
 69 74  1  0
 70 66  1  0
 70 74  1  0
 71 70  1  0
 72 73  1  0
 72 71  1  0
 73 69  1  0
 74 75  2  0
 75 76  1  0
 77 76  2  0
 78 77  1  0
 79 53  1  0
 79 80  1  0
 79 89  1  0
 80 83  1  0
 81 85  1  0
 81 80  1  0
 82 81  2  0
 85 84  1  0
 87 85  1  0
 87 88  1  0
 87 86  1  0
 89 92  1  1
 89 90  1  0
 91 89  1  0
M  ISO  4  12 100  20 100  51 101  52 101
M  END
>  <TORSDO>  (81) 
F 21

>  <SCORE>  (81) 
-15.559

>  <name>  (81) 
80

>  <ligand_id>  (81) 
80

>  <original_smiles>  (81) 
[H]c1c(C([H])(C([H])([H])[H])C([H])([H])C([H])([H])[H])nc(C([H])([H])C([H])([H])Oc2c([H])c([H])c3c(c2[H])C([H])([H])N(C(=O)C([H])(N([H])C(=O)C([H])(N([H])C([H])([H])[H])C([H])([H])[H])C(C([H])([H])[H])(C([H])([H])[H])C([H])([H])[H])C([H])(C(=O)N([H])C2([H])c4c([H])c([H])c([H])c([H])c4C([H])([H])C([H])([H])C2([H])[H])C3([H])[H])c(C([H])([H])N([H])C(=O)N2C([H])([H])C([H])([H])C([H])([H])C([H])(n3nc(-c4c([H])c([H])c(Oc5c([H])c([H])c(F)c([H])c5F)c([H])c4[H])c(C(=O)N([H])[H])c3N([H])[H])C2([H])[H])c1[H]

>  <smiles>  (81) 
[H]c1c(C([H])(C([H])([H])[H])C([H])([H])C([H])([H])[H])nc(C([H])([H])C([H])([H])Oc2c([H])c([H])c3c(c2[H])C([H])([H])N(C(=O)C([H])(N([H])C(=O)C([H])(N([H])C([H])([H])[H])C([H])([H])[H])C(C([H])([H])[H])(C([H])([H])[H])C([H])([H])[H])C([H])(C(=O)N([H])C2([H])c4c([H])c([H])c([H])c([H])c4C([H])([H])C([H])([H])C2([H])[H])C3([H])[H])c(C([H])([H])N([H])C(=O)N2C([H])([H])C([H])([H])C([H])([H])C([H])(n3nc(-c4c([H])c([H])c(Oc5c([H])c([H])c(F)c([H])c5F)c([H])c4[H])c(C(=O)N([H])[H])c3N([H])[H])C2([H])[H])c1[H]

$$$$
81:0:0
     RDKit          3D

 98106  0  0  1  0  0  0  0  0999 V2000
  -29.1520  -20.9430   21.0330 C   0  0  0  0  0  3  0  0  0  0  0  0
  -28.3720  -22.1450   18.6870 C   0  0  0  0  0  3  0  0  0  0  0  0
  -28.8590  -22.3660   20.9930 C   0  0  0  0  0  0  0  0  0  0  0  0
  -29.0000  -20.0320   19.9380 C   0  0  0  0  0  0  0  0  0  0  0  0
  -28.4230  -23.0480   19.8040 C   0  0  0  0  0  0  0  0  0  0  0  0
  -28.6390  -20.7170   18.7300 C   0  0  0  0  0  0  0  0  0  0  0  0
  -29.0560  -20.5090   16.2100 C   0  0  0  0  0  1  0  0  0  0  0  0
  -26.8900  -19.6900   17.2550 C   0  0  0  0  0  1  0  0  0  0  0  0
  -28.3940  -19.9000   17.4610 C   0  0  0  0  0  3  0  0  0  0  0  0
  -28.9080  -23.0930   22.3240 C   0  0  0  0  0  2  0  0  0  0  0  0
  -30.2180  -22.8170   23.0750 C   0  0  0  0  0  2  0  0  0  0  0  0
  -29.9960  -22.4540   24.5560 C   0  0  0  0  0  2  0  0  0  0  0  0
  -31.2420  -21.9860   25.1820 N   0  0  0  0  0  4  0  0  0  0  0  0
  -31.7000  -21.3140   24.5920 H   0  0  0  0  0  0  0  0  0  0  0  0
  -31.0500  -21.5520   26.0680 H   0  0  0  0  0  0  0  0  0  0  0  0
  -31.8660  -22.7600   25.3370 H   0  0  0  0  0  0  0  0  0  0  0  0
  -28.9000  -18.4140   20.1580 C   0  0  0  0  0  3  0  0  0  0  0  0
  -30.0630  -17.2660   19.9800 C   0  0  0  0  0  3  0  0  0  0  0  0
  -30.4550  -14.6040   19.9040 C   0  0  0  0  0  0  0  0  0  0  0  0
  -30.2270  -12.2720   18.9850 C   0  0  0  0  0  2  0  0  0  0  0  0
  -29.2320  -12.2610   17.8050 C   0  0  0  0  0  2  0  0  0  0  0  0
  -27.7930  -12.0730   18.3160 C   0  0  0  0  0  2  0  0  0  0  0  0
  -27.4560  -13.0190   19.5020 C   0  0  0  0  0  3  0  0  0  0  0  0
  -28.5690  -13.0250   20.5730 C   0  0  0  0  0  2  0  0  0  0  0  0
  -29.8280  -13.3710   19.9010 N   0  0  0  0  0  0  0  0  0  0  0  0
  -31.6260  -14.6830   19.5260 O   0  0  0  0  0  0  0  0  0  0  0  0
  -29.7010  -15.7600   20.1270 N   0  0  0  0  0  0  0  0  0  0  0  0
  -28.7380  -15.5770   20.3690 H   0  0  0  0  0  0  0  0  0  0  0  0
  -25.1280  -13.6040   20.4070 C   0  0  0  0  0  0  0  0  0  0  0  0
  -24.0850  -12.8270   20.8320 C   0  0  0  0  0  0  0  0  0  0  0  0
  -24.5390  -11.4750   20.7490 C   0  0  0  0  0  0  0  0  0  0  0  0
  -26.1480  -12.7230   20.0820 N   0  0  0  0  0  0  0  0  0  0  0  0
  -25.8060  -11.4370   20.3520 N   0  0  0  0  0  0  0  0  0  0  0  0
  -23.8200  -10.2140   20.9680 C   0  0  0  0  0  0  0  0  0  0  0  0
  -24.2610   -9.2620   21.9130 C   0  0  0  0  0  3  0  0  0  0  0  0
  -23.5390   -8.0660   22.1160 C   0  0  0  0  0  3  0  0  0  0  0  0
  -22.3600   -7.8140   21.3730 C   0  0  0  0  0  0  0  0  0  0  0  0
  -21.9410   -8.7510   20.4130 C   0  0  0  0  0  3  0  0  0  0  0  0
  -22.6640   -9.9390   20.2110 C   0  0  0  0  0  3  0  0  0  0  0  0
  -21.6080   -6.6700   21.4840 O   0  0  0  0  0  0  0  0  0  0  0  0
  -21.5210   -5.9780   22.6640 C   0  0  0  0  0  0  0  0  0  0  0  0
  -20.9800   -6.5580   23.8310 C   0  0  0  0  0  3  0  0  0  0  0  0
  -20.8480   -5.7880   25.0040 C   0  0  0  0  0  3  0  0  0  0  0  0
  -21.2480   -4.4390   25.0100 C   0  0  0  0  0  0  0  0  0  0  0  0
  -21.7800   -3.8570   23.8440 C   0  0  0  0  0  3  0  0  0  0  0  0
  -21.9140   -4.6240   22.6750 C   0  0  0  0  0  0  0  0  0  0  0  0
  -22.4110   -4.0540   21.5510 F   0  0  0  0  0  0  0  0  0  0  0  0
  -21.1130   -3.6950   26.1330 F   0  0  0  0  0  0  0  0  0  0  0  0
  -22.7110  -13.3090   21.1990 C   0  0  0  0  0  0  0  0  0  0  0  0
  -22.0280  -12.6000   22.0930 N   0  0  0  0  0  0  0  0  0  0  0  0
  -22.2510  -14.3450   20.7250 O   0  0  0  0  0  0  0  0  0  0  0  0
  -22.4080  -11.7530   22.4930 H   0  0  0  0  0  0  0  0  0  0  0  0
  -21.1120  -12.9090   22.3810 H   0  0  0  0  0  0  0  0  0  0  0  0
  -25.2910  -14.9760   20.2470 N   0  0  0  0  0  0  0  0  0  0  0  0
  -24.5490  -15.6340   20.4570 H   0  0  0  0  0  0  0  0  0  0  0  0
  -26.1070  -15.4150   19.8410 H   0  0  0  0  0  0  0  0  0  0  0  0
  -27.6540  -24.4940   19.6960 C   0  0  0  0  0  2  0  0  0  0  0  0
  -28.0840  -25.9380   20.0210 O   0  0  0  0  0  0  0  0  0  0  0  0
  -24.5960  -31.6230   23.1250 C   0  0  0  0  0  0  0  0  0  0  0  0
  -27.0690  -26.9610   19.9550 C   0  0  0  0  0  0  0  0  0  0  0  0
  -23.3610  -30.2880   21.4650 C   0  0  0  0  0  3  0  0  0  0  0  0
  -24.7730  -28.7430   19.9820 C   0  0  0  0  0  0  0  0  0  0  0  0
  -25.9210  -30.5170   21.2870 C   0  0  0  0  0  2  0  0  0  0  0  0
  -25.9650  -29.1460   20.5950 C   0  0  0  0  0  0  0  0  0  0  0  0
  -27.1160  -28.2740   20.5660 C   0  0  0  0  0  3  0  0  0  0  0  0
  -25.8480  -26.6680   19.2910 C   0  0  0  0  0  3  0  0  0  0  0  0
  -24.7280  -27.5160   19.3110 C   0  0  0  0  0  3  0  0  0  0  0  0
  -23.5590  -29.6520   20.0660 C   0  0  0  0  0  2  0  0  0  0  0  0
  -24.6480  -30.8270   22.0130 N   0  0  0  0  0  0  0  0  0  0  0  0
  -23.5180  -31.9160   23.6640 O   0  0  0  0  0  0  0  0  0  0  0  0
  -22.6750  -29.2650   22.4030 C   0  0  0  0  0  0  0  0  0  0  0  0
  -21.3490  -29.1010   22.2630 N   0  0  0  0  0  0  0  0  0  0  0  0
  -23.3400  -28.6200   23.2190 O   0  0  0  0  0  0  0  0  0  0  0  0
  -20.8720  -29.6720   21.5790 H   0  0  0  0  0  0  0  0  0  0  0  0
  -17.9560  -27.9190   22.7320 C   0  0  0  0  0  0  0  0  0  0  0  0
  -20.5160  -28.1580   23.0170 C   0  0  0  0  0  3  0  0  0  0  0  0
  -20.6140  -26.7360   22.4190 C   0  0  0  0  0  2  0  0  0  0  0  0
  -19.5130  -26.4360   21.3960 C   0  0  0  0  0  2  0  0  0  0  0  0
  -18.1280  -26.5800   22.0360 C   0  0  0  0  0  2  0  0  0  0  0  0
  -19.0780  -28.6680   23.1780 C   0  0  0  0  0  0  0  0  0  0  0  0
  -18.8650  -29.9220   23.7890 C   0  0  0  0  0  3  0  0  0  0  0  0
  -17.5620  -30.4260   23.9640 C   0  0  0  0  0  3  0  0  0  0  0  0
  -16.4540  -29.6740   23.5330 C   0  0  0  0  0  3  0  0  0  0  0  0
  -16.6530  -28.4250   22.9220 C   0  0  0  0  0  3  0  0  0  0  0  0
  -25.8870  -32.2230   23.7560 C   0  0  0  0  0  3  0  0  0  0  0  0
  -26.3870  -31.4220   25.0190 C   0  0  1  0  0  0  0  0  0  0  0  0
  -25.2870  -31.1750   26.0790 C   0  0  0  0  0  1  0  0  0  0  0  0
  -26.9520  -30.0430   24.6050 C   0  0  0  0  0  1  0  0  0  0  0  0
  -27.5500  -32.1890   25.6930 C   0  0  0  0  0  1  0  0  0  0  0  0
  -25.6020  -33.6220   24.1130 N   0  0  0  0  0  0  0  0  0  0  0  0
  -25.9150  -34.6840   23.3590 C   0  0  0  0  0  0  0  0  0  0  0  0
  -26.5440  -34.5880   22.3020 O   0  0  0  0  0  0  0  0  0  0  0  0
  -25.0380  -33.7720   24.9370 H   0  0  0  0  0  0  0  0  0  0  0  0
  -24.1790  -36.4940   23.1280 C   0  0  0  0  0  1  0  0  0  0  0  0
  -25.4650  -36.0740   23.8580 C   0  0  0  0  0  3  0  0  0  0  0  0
  -27.6430  -36.9520   24.5760 C   0  0  0  0  0  1  0  0  0  0  0  0
  -26.4950  -37.1210   23.6900 N   0  0  0  0  0  0  0  0  0  0  0  0
  -26.1030  -38.0430   23.8590 H   0  0  0  0  0  0  0  0  0  0  0  0
  2  6  2  0
  2  5  1  0
  3  1  1  0
  3 10  1  0
  4 17  1  0
  4  1  2  0
  5  3  2  0
  6  4  1  0
  7  9  1  0
  8  9  1  0
  9  6  1  0
 10 11  1  0
 11 12  1  0
 12 13  1  0
 13 16  1  0
 13 15  1  0
 14 13  1  0
 18 27  1  0
 18 17  2  0
 19 27  1  0
 20 25  1  0
 21 22  1  0
 21 20  1  0
 23 22  1  0
 23 32  1  0
 23 24  1  0
 25 19  1  0
 25 24  1  0
 26 19  2  0
 27 28  1  0
 29 30  2  0
 30 49  1  0
 31 30  1  0
 31 34  1  0
 32 33  1  0
 32 29  1  0
 33 31  2  0
 34 35  1  0
 35 36  2  0
 37 40  1  0
 37 36  1  0
 38 37  2  0
 39 38  1  0
 39 34  2  0
 40 41  1  0
 41 46  2  0
 41 42  1  0
 42 43  2  0
 43 44  1  0
 44 48  1  0
 45 44  2  0
 46 45  1  0
 47 46  1  0
 49 50  1  0
 50 53  1  0
 50 52  1  0
 51 49  2  0
 54 29  1  0
 54 55  1  0
 56 54  1  0
 57  5  1  0
 57 58  1  0
 59 70  2  0
 60 58  1  0
 60 65  1  0
 61 69  1  0
 61 71  1  0
 62 68  1  0
 62 64  1  0
 63 69  1  0
 64 63  1  0
 65 64  2  0
 66 67  1  0
 66 60  2  0
 67 62  2  0
 68 61  1  0
 69 59  1  0
 71 73  2  0
 72 71  1  0
 74 72  1  0
 75 84  2  0
 75 80  1  0
 76 72  1  0
 76 80  1  0
 77 76  1  0
 78 79  1  0
 78 77  1  0
 79 75  1  0
 80 81  2  0
 81 82  1  0
 83 82  2  0
 84 83  1  0
 85 59  1  0
 85 90  1  0
 85 86  1  0
 86 89  1  1
 86 87  1  0
 88 86  1  0
 90 93  1  0
 91 95  1  0
 91 90  1  0
 92 91  2  0
 95 94  1  0
 97 95  1  0
 97 98  1  0
 97 96  1  0
M  ISO  4  19 100  27 100  57 101  58 101
M  END
>  <TORSDO>  (82) 
F 24

>  <SCORE>  (82) 
-12.167

>  <name>  (82) 
81

>  <ligand_id>  (82) 
81

>  <original_smiles>  (82) 
[H]c1c([H])c([H])c2c(c1[H])C([H])([H])C([H])([H])C([H])([H])C2([H])N([H])C(=O)C1([H])N(C(=O)C([H])(N([H])C(=O)C([H])(N([H])C([H])([H])[H])C([H])([H])[H])C(C([H])([H])[H])(C([H])([H])[H])C([H])([H])[H])C([H])([H])c2c([H])c(OC([H])([H])c3c([H])c(C([H])(C([H])([H])[H])C([H])([H])[H])c(C([H])([H])C([H])([H])N([H])C(=O)N4C([H])([H])C([H])([H])C([H])([H])C([H])(n5nc(-c6c([H])c([H])c(Oc7c([H])c([H])c(F)c([H])c7F)c([H])c6[H])c(C(=O)N([H])[H])c5N([H])[H])C4([H])[H])c([H])c3C([H])([H])C([H])([H])C([H])([H])[N+]([H])([H])[H])c([H])c([H])c2C1([H])[H]

>  <smiles>  (82) 
[H]c1c([H])c([H])c2c(c1[H])C([H])([H])C([H])([H])C([H])([H])C2([H])N([H])C(=O)C1([H])N(C(=O)C([H])(N([H])C(=O)C([H])(N([H])C([H])([H])[H])C([H])([H])[H])C(C([H])([H])[H])(C([H])([H])[H])C([H])([H])[H])C([H])([H])c2c([H])c(OC([H])([H])c3c([H])c(C([H])(C([H])([H])[H])C([H])([H])[H])c(C([H])([H])C([H])([H])N([H])C(=O)N4C([H])([H])C([H])([H])C([H])([H])C([H])(n5nc(-c6c([H])c([H])c(Oc7c([H])c([H])c(F)c([H])c7F)c([H])c6[H])c(C(=O)N([H])[H])c5N([H])[H])C4([H])[H])c([H])c3C([H])([H])C([H])([H])C([H])([H])[N+]([H])([H])[H])c([H])c([H])c2C1([H])[H]

$$$$
82:0:0
     RDKit          3D

 90 97  0  0  1  0  0  0  0  0999 V2000
  -28.9680  -20.3480   18.2550 C   0  0  0  0  0  1  0  0  0  0  0  0
  -29.5050  -20.4050   19.6990 C   0  0  1  0  0  0  0  0  0  0  0  0
  -29.8430  -18.9910   21.8530 C   0  0  0  0  0  1  0  0  0  0  0  0
  -27.9060  -18.4390   20.4180 C   0  0  0  0  0  1  0  0  0  0  0  0
  -29.3910  -18.8560   20.3870 C   0  0  1  0  0  0  0  0  0  0  0  0
  -30.2200  -17.5420   19.7470 C   0  0  0  0  0  2  0  0  0  0  0  0
  -30.7650  -14.8860   19.9150 C   0  0  0  0  0  0  0  0  0  0  0  0
  -30.5530  -12.5740   18.9400 C   0  0  0  0  0  2  0  0  0  0  0  0
  -29.5450  -12.6350   17.7700 C   0  0  0  0  0  2  0  0  0  0  0  0
  -28.1060  -12.4390   18.2830 C   0  0  0  0  0  2  0  0  0  0  0  0
  -27.8000  -13.3160   19.5260 C   0  0  0  0  0  3  0  0  0  0  0  0
  -28.9260  -13.2400   20.5800 C   0  0  0  0  0  2  0  0  0  0  0  0
  -30.1670  -13.6340   19.9090 N   0  0  0  0  0  0  0  0  0  0  0  0
  -31.9320  -14.9730   19.5210 O   0  0  0  0  0  0  0  0  0  0  0  0
  -29.9830  -16.0400   20.1380 N   0  0  0  0  0  0  0  0  0  0  0  0
  -29.0490  -15.8310   20.4550 H   0  0  0  0  0  0  0  0  0  0  0  0
  -25.4790  -13.9020   20.4350 C   0  0  0  0  0  0  0  0  0  0  0  0
  -24.4340  -13.1290   20.8520 C   0  0  0  0  0  0  0  0  0  0  0  0
  -24.8730  -11.7740   20.7440 C   0  0  0  0  0  0  0  0  0  0  0  0
  -26.4910  -13.0190   20.0990 N   0  0  0  0  0  0  0  0  0  0  0  0
  -26.1400  -11.7300   20.3470 N   0  0  0  0  0  0  0  0  0  0  0  0
  -24.1410  -10.5150   20.9390 C   0  0  0  0  0  0  0  0  0  0  0  0
  -24.5880   -9.5370   21.8550 C   0  0  0  0  0  3  0  0  0  0  0  0
  -23.8580   -8.3450   22.0410 C   0  0  0  0  0  3  0  0  0  0  0  0
  -22.6670   -8.1190   21.3110 C   0  0  0  0  0  0  0  0  0  0  0  0
  -22.2390   -9.0850   20.3820 C   0  0  0  0  0  3  0  0  0  0  0  0
  -22.9690  -10.2700   20.1940 C   0  0  0  0  0  3  0  0  0  0  0  0
  -21.9080   -6.9790   21.4060 O   0  0  0  0  0  0  0  0  0  0  0  0
  -21.8310   -6.2600   22.5720 C   0  0  0  0  0  0  0  0  0  0  0  0
  -21.3650   -6.8360   23.7730 C   0  0  0  0  0  3  0  0  0  0  0  0
  -21.2420   -6.0430   24.9330 C   0  0  0  0  0  3  0  0  0  0  0  0
  -21.5700   -4.6750   24.8900 C   0  0  0  0  0  0  0  0  0  0  0  0
  -22.0260   -4.0990   23.6910 C   0  0  0  0  0  3  0  0  0  0  0  0
  -22.1540   -4.8890   22.5350 C   0  0  0  0  0  0  0  0  0  0  0  0
  -22.5740   -4.3240   21.3790 F   0  0  0  0  0  0  0  0  0  0  0  0
  -21.4410   -3.9110   25.9990 F   0  0  0  0  0  0  0  0  0  0  0  0
  -23.0660  -13.6140   21.2310 C   0  0  0  0  0  0  0  0  0  0  0  0
  -22.3890  -12.9020   22.1240 N   0  0  0  0  0  0  0  0  0  0  0  0
  -22.6100  -14.6600   20.7700 O   0  0  0  0  0  0  0  0  0  0  0  0
  -22.7670  -12.0530   22.5170 H   0  0  0  0  0  0  0  0  0  0  0  0
  -21.4730  -13.2100   22.4180 H   0  0  0  0  0  0  0  0  0  0  0  0
  -25.6480  -15.2760   20.2840 N   0  0  0  0  0  0  0  0  0  0  0  0
  -24.8850  -15.9270   20.4360 H   0  0  0  0  0  0  0  0  0  0  0  0
  -26.4630  -15.7130   19.8770 H   0  0  0  0  0  0  0  0  0  0  0  0
  -30.8930  -20.6480   19.5960 O   0  0  0  0  0  0  0  0  0  0  0  0
  -31.0220  -21.4380   19.0860 H   0  0  0  0  0  0  0  0  0  0  0  0
  -28.8840  -21.8050   20.3900 C   0  0  0  0  0  2  0  0  0  0  0  0
  -29.0530  -23.3720   19.8100 C   0  0  0  0  0  3  0  0  0  0  0  0
  -28.2590  -24.7100   20.4300 C   0  0  0  0  0  3  0  0  0  0  0  0
  -28.4950  -26.2110   20.1090 O   0  0  0  0  0  0  0  0  0  0  0  0
  -24.6700  -31.7470   23.1110 C   0  0  0  0  0  0  0  0  0  0  0  0
  -27.4110  -27.1530   20.0790 C   0  0  0  0  0  0  0  0  0  0  0  0
  -23.5340  -30.3460   21.4310 C   0  0  0  0  0  3  0  0  0  0  0  0
  -25.0430  -28.8260   20.0210 C   0  0  0  0  0  0  0  0  0  0  0  0
  -26.0810  -30.6840   21.3110 C   0  0  0  0  0  2  0  0  0  0  0  0
  -26.2020  -29.3020   20.6500 C   0  0  0  0  0  0  0  0  0  0  0  0
  -27.3910  -28.4830   20.6540 C   0  0  0  0  0  3  0  0  0  0  0  0
  -26.2290  -26.7750   19.4090 C   0  0  0  0  0  3  0  0  0  0  0  0
  -25.0690  -27.5760   19.3840 C   0  0  0  0  0  3  0  0  0  0  0  0
  -23.7940  -29.6900   20.0510 C   0  0  0  0  0  2  0  0  0  0  0  0
  -24.7820  -30.9460   22.0080 N   0  0  0  0  0  0  0  0  0  0  0  0
  -23.5670  -31.9990   23.6200 O   0  0  0  0  0  0  0  0  0  0  0  0
  -22.8620  -29.3110   22.3680 C   0  0  0  0  0  0  0  0  0  0  0  0
  -21.5340  -29.1400   22.2370 N   0  0  0  0  0  0  0  0  0  0  0  0
  -23.5380  -28.6670   23.1750 O   0  0  0  0  0  0  0  0  0  0  0  0
  -21.0460  -29.7180   21.5670 H   0  0  0  0  0  0  0  0  0  0  0  0
  -18.1500  -27.9430   22.7200 C   0  0  0  0  0  0  0  0  0  0  0  0
  -20.7130  -28.1810   22.9790 C   0  0  0  0  0  3  0  0  0  0  0  0
  -20.8000  -26.7670   22.3570 C   0  0  0  0  0  2  0  0  0  0  0  0
  -19.6890  -26.4830   21.3410 C   0  0  0  0  0  2  0  0  0  0  0  0
  -18.3140  -26.6150   22.0000 C   0  0  0  0  0  2  0  0  0  0  0  0
  -19.2770  -28.6850   23.1670 C   0  0  0  0  0  0  0  0  0  0  0  0
  -19.0700  -29.9290   23.8000 C   0  0  0  0  0  3  0  0  0  0  0  0
  -17.7690  -30.4290   23.9980 C   0  0  0  0  0  3  0  0  0  0  0  0
  -16.6560  -29.6820   23.5680 C   0  0  0  0  0  3  0  0  0  0  0  0
  -16.8490  -28.4430   22.9340 C   0  0  0  0  0  3  0  0  0  0  0  0
  -25.9210  -32.4020   23.7710 C   0  0  0  0  0  3  0  0  0  0  0  0
  -25.5700  -33.7890   24.1110 N   0  0  0  0  0  0  0  0  0  0  0  0
  -25.8930  -34.8640   23.3800 C   0  0  0  0  0  0  0  0  0  0  0  0
  -26.5850  -34.7910   22.3610 O   0  0  0  0  0  0  0  0  0  0  0  0
  -24.9510  -33.9140   24.8990 H   0  0  0  0  0  0  0  0  0  0  0  0
  -24.1350  -36.6310   23.0270 C   0  0  0  0  0  1  0  0  0  0  0  0
  -25.3690  -36.2340   23.8530 C   0  0  0  0  0  3  0  0  0  0  0  0
  -27.4670  -37.1540   24.7390 C   0  0  0  0  0  1  0  0  0  0  0  0
  -26.3790  -37.3110   23.7770 N   0  0  0  0  0  0  0  0  0  0  0  0
  -25.9460  -38.2180   23.9300 H   0  0  0  0  0  0  0  0  0  0  0  0
  -26.4160  -31.6300   25.0550 C   0  0  1  0  0  0  0  0  0  0  0  0
  -25.3010  -31.3680   26.0950 C   0  0  0  0  0  1  0  0  0  0  0  0
  -27.0340  -30.2660   24.6710 C   0  0  0  0  0  1  0  0  0  0  0  0
  -27.5310  -32.4430   25.7550 C   0  0  0  0  0  1  0  0  0  0  0  0
  2  1  1  6
  2  5  1  0
  2 47  1  0
  5  4  1  1
  5  3  1  0
  6 15  1  0
  6  5  1  0
  7 15  1  0
  8 13  1  0
  9 10  1  0
  9  8  1  0
 11 10  1  0
 11 20  1  0
 11 12  1  0
 13  7  1  0
 13 12  1  0
 14  7  2  0
 15 16  1  0
 17 18  2  0
 18 37  1  0
 19 18  1  0
 19 22  1  0
 20 21  1  0
 20 17  1  0
 21 19  2  0
 22 23  1  0
 23 24  2  0
 25 28  1  0
 25 24  1  0
 26 25  2  0
 27 26  1  0
 27 22  2  0
 28 29  1  0
 29 30  1  0
 30 31  2  0
 32 31  1  0
 32 36  1  0
 33 32  2  0
 34 29  2  0
 34 33  1  0
 35 34  1  0
 37 38  1  0
 38 41  1  0
 38 40  1  0
 39 37  2  0
 42 17  1  0
 42 43  1  0
 44 42  1  0
 45  2  1  0
 46 45  1  0
 48 47  1  0
 48 49  2  0
 50 49  1  0
 51 62  2  0
 52 50  1  0
 52 57  1  0
 53 61  1  0
 53 63  1  0
 54 60  1  0
 54 56  1  0
 55 61  1  0
 56 57  2  0
 56 55  1  0
 58 52  2  0
 59 58  1  0
 59 54  2  0
 60 53  1  0
 61 51  1  0
 63 65  2  0
 64 63  1  0
 66 64  1  0
 67 76  2  0
 67 72  1  0
 68 64  1  0
 68 72  1  0
 69 68  1  0
 70 71  1  0
 70 69  1  0
 71 67  1  0
 72 73  2  0
 73 74  1  0
 75 74  2  0
 76 75  1  0
 77 51  1  0
 77 78  1  0
 77 87  1  0
 78 81  1  0
 79 83  1  0
 79 78  1  0
 80 79  2  0
 83 82  1  0
 85 83  1  0
 85 86  1  0
 85 84  1  0
 87 90  1  1
 87 88  1  0
 89 87  1  0
M  ISO  4   7 100  15 100  49 101  50 101
M  END
>  <TORSDO>  (83) 
F 22

>  <SCORE>  (83) 
-12.752

>  <name>  (83) 
82

>  <ligand_id>  (83) 
82

>  <original_smiles>  (83) 
[H]OC(C([H])([H])[H])(C([H])([H])C([H])([H])C([H])([H])Oc1c([H])c([H])c2c(c1[H])C([H])([H])N(C(=O)C([H])(N([H])C(=O)C([H])(N([H])C([H])([H])[H])C([H])([H])[H])C(C([H])([H])[H])(C([H])([H])[H])C([H])([H])[H])C([H])(C(=O)N([H])C1([H])c3c([H])c([H])c([H])c([H])c3C([H])([H])C([H])([H])C1([H])[H])C2([H])[H])C(C([H])([H])[H])(C([H])([H])[H])C([H])([H])N([H])C(=O)N1C([H])([H])C([H])([H])C([H])([H])C([H])(n2nc(-c3c([H])c([H])c(Oc4c([H])c([H])c(F)c([H])c4F)c([H])c3[H])c(C(=O)N([H])[H])c2N([H])[H])C1([H])[H]

>  <smiles>  (83) 
[H]OC(C([H])([H])[H])(C([H])([H])C([H])([H])C([H])([H])Oc1c([H])c([H])c2c(c1[H])C([H])([H])N(C(=O)C([H])(N([H])C(=O)C([H])(N([H])C([H])([H])[H])C([H])([H])[H])C(C([H])([H])[H])(C([H])([H])[H])C([H])([H])[H])C([H])(C(=O)N([H])C1([H])c3c([H])c([H])c([H])c([H])c3C([H])([H])C([H])([H])C1([H])[H])C2([H])[H])C(C([H])([H])[H])(C([H])([H])[H])C([H])([H])N([H])C(=O)N1C([H])([H])C([H])([H])C([H])([H])C([H])(n2nc(-c3c([H])c([H])c(Oc4c([H])c([H])c(F)c([H])c4F)c([H])c3[H])c(C(=O)N([H])[H])c2N([H])[H])C1([H])[H]

$$$$
83:0:0
     RDKit          3D

 91 99  0  0  1  0  0  0  0  0999 V2000
  -28.1990  -21.8910   20.3480 C   0  0  0  0  0  3  0  0  0  0  0  0
  -29.1750  -20.8530   20.3050 C   0  0  0  0  0  0  0  0  0  0  0  0
  -30.3530  -21.6760   20.1130 C   0  0  0  0  0  0  0  0  0  0  0  0
  -30.0320  -23.0500   20.0890 C   0  0  0  0  0  0  0  0  0  0  0  0
  -30.9140  -24.2490   19.9130 C   0  0  0  0  0  1  0  0  0  0  0  0
  -28.6550  -23.2650   20.1960 N   0  0  0  0  0  0  0  0  0  0  0  0
  -32.6430  -21.2990   21.1550 C   0  0  0  0  0  1  0  0  0  0  0  0
  -32.4060  -21.5220   18.6140 C   0  0  0  0  0  1  0  0  0  0  0  0
  -31.7420  -21.0830   19.9300 C   0  0  0  0  0  3  0  0  0  0  0  0
  -28.9770  -19.1670   20.4150 C   0  0  0  0  0  3  0  0  0  0  0  0
  -30.0790  -17.8520   20.3170 C   0  0  0  0  0  3  0  0  0  0  0  0
  -30.4880  -15.0760   20.2920 C   0  0  0  0  0  0  0  0  0  0  0  0
  -30.3770  -12.7070   19.3570 C   0  0  0  0  0  2  0  0  0  0  0  0
  -29.4360  -12.6310   18.1310 C   0  0  0  0  0  2  0  0  0  0  0  0
  -27.9810  -12.3980   18.5770 C   0  0  0  0  0  2  0  0  0  0  0  0
  -27.5700  -13.3220   19.7530 C   0  0  0  0  0  3  0  0  0  0  0  0
  -28.6350  -13.3690   20.8690 C   0  0  0  0  0  2  0  0  0  0  0  0
  -29.8900  -13.8080   20.2450 N   0  0  0  0  0  0  0  0  0  0  0  0
  -31.6890  -15.1200   20.0090 O   0  0  0  0  0  0  0  0  0  0  0  0
  -29.7290  -16.2880   20.4440 N   0  0  0  0  0  0  0  0  0  0  0  0
  -28.7550  -16.1120   20.6380 H   0  0  0  0  0  0  0  0  0  0  0  0
  -25.1960  -13.8790   20.5230 C   0  0  0  0  0  0  0  0  0  0  0  0
  -24.1400  -13.0950   20.8970 C   0  0  0  0  0  0  0  0  0  0  0  0
  -24.6110  -11.7470   20.8520 C   0  0  0  0  0  0  0  0  0  0  0  0
  -26.2410  -13.0090   20.2640 N   0  0  0  0  0  0  0  0  0  0  0  0
  -25.9000  -11.7200   20.5290 N   0  0  0  0  0  0  0  0  0  0  0  0
  -23.8910  -10.4800   21.0370 C   0  0  0  0  0  0  0  0  0  0  0  0
  -24.3270   -9.5110   21.9680 C   0  0  0  0  0  3  0  0  0  0  0  0
  -23.6040   -8.3110   22.1440 C   0  0  0  0  0  3  0  0  0  0  0  0
  -22.4330   -8.0690   21.3870 C   0  0  0  0  0  0  0  0  0  0  0  0
  -22.0180   -9.0270   20.4440 C   0  0  0  0  0  3  0  0  0  0  0  0
  -22.7400  -10.2190   20.2670 C   0  0  0  0  0  3  0  0  0  0  0  0
  -21.6830   -6.9230   21.4710 O   0  0  0  0  0  0  0  0  0  0  0  0
  -21.6240   -6.1830   22.6250 C   0  0  0  0  0  0  0  0  0  0  0  0
  -21.1610   -6.7340   23.8400 C   0  0  0  0  0  3  0  0  0  0  0  0
  -21.0510   -5.9210   24.9860 C   0  0  0  0  0  3  0  0  0  0  0  0
  -21.3940   -4.5570   24.9180 C   0  0  0  0  0  0  0  0  0  0  0  0
  -21.8520   -4.0060   23.7080 C   0  0  0  0  0  3  0  0  0  0  0  0
  -21.9630   -4.8170   22.5650 C   0  0  0  0  0  0  0  0  0  0  0  0
  -22.3830   -4.2760   21.3950 F   0  0  0  0  0  0  0  0  0  0  0  0
  -21.2840   -3.7730   26.0160 F   0  0  0  0  0  0  0  0  0  0  0  0
  -22.7430  -13.5640   21.1810 C   0  0  0  0  0  0  0  0  0  0  0  0
  -22.0250  -12.8630   22.0510 N   0  0  0  0  0  0  0  0  0  0  0  0
  -22.2970  -14.5880   20.6660 O   0  0  0  0  0  0  0  0  0  0  0  0
  -22.4000  -12.0360   22.4920 H   0  0  0  0  0  0  0  0  0  0  0  0
  -21.0870  -13.1590   22.2800 H   0  0  0  0  0  0  0  0  0  0  0  0
  -25.3500  -15.2520   20.3540 N   0  0  0  0  0  0  0  0  0  0  0  0
  -24.5770  -15.8970   20.4730 H   0  0  0  0  0  0  0  0  0  0  0  0
  -26.1810  -15.6960   19.9830 H   0  0  0  0  0  0  0  0  0  0  0  0
  -27.7610  -24.5980   20.0290 C   0  0  0  0  0  2  0  0  0  0  0  0
  -28.1850  -26.0720   20.2650 O   0  0  0  0  0  0  0  0  0  0  0  0
  -24.6250  -31.8900   23.2550 C   0  0  0  0  0  0  0  0  0  0  0  0
  -27.1700  -27.1250   20.2010 C   0  0  0  0  0  0  0  0  0  0  0  0
  -23.4200  -30.5070   21.6110 C   0  0  0  0  0  3  0  0  0  0  0  0
  -24.8620  -28.9330   20.1780 C   0  0  0  0  0  0  0  0  0  0  0  0
  -25.9830  -30.7430   21.4560 C   0  0  0  0  0  2  0  0  0  0  0  0
  -26.0490  -29.3500   20.7930 C   0  0  0  0  0  0  0  0  0  0  0  0
  -27.2030  -28.4640   20.7880 C   0  0  0  0  0  3  0  0  0  0  0  0
  -25.9520  -26.8370   19.5380 C   0  0  0  0  0  3  0  0  0  0  0  0
  -24.8320  -27.6910   19.5330 C   0  0  0  0  0  3  0  0  0  0  0  0
  -23.6420  -29.8410   20.2300 C   0  0  0  0  0  2  0  0  0  0  0  0
  -24.6970  -31.0690   22.1610 N   0  0  0  0  0  0  0  0  0  0  0  0
  -23.5390  -32.1800   23.7800 O   0  0  0  0  0  0  0  0  0  0  0  0
  -22.7320  -29.5000   22.5680 C   0  0  0  0  0  0  0  0  0  0  0  0
  -21.4030  -29.3370   22.4400 N   0  0  0  0  0  0  0  0  0  0  0  0
  -23.3980  -28.8690   23.3940 O   0  0  0  0  0  0  0  0  0  0  0  0
  -20.9210  -29.8950   21.7490 H   0  0  0  0  0  0  0  0  0  0  0  0
  -18.0150  -28.1490   22.9390 C   0  0  0  0  0  0  0  0  0  0  0  0
  -20.5760  -28.4010   23.2080 C   0  0  0  0  0  3  0  0  0  0  0  0
  -20.6720  -26.9700   22.6310 C   0  0  0  0  0  2  0  0  0  0  0  0
  -19.5680  -26.6540   21.6160 C   0  0  0  0  0  2  0  0  0  0  0  0
  -18.1870  -26.8020   22.2580 C   0  0  0  0  0  2  0  0  0  0  0  0
  -19.1360  -28.9080   23.3710 C   0  0  0  0  0  0  0  0  0  0  0  0
  -18.9190  -30.1680   23.9710 C   0  0  0  0  0  3  0  0  0  0  0  0
  -17.6150  -30.6700   24.1390 C   0  0  0  0  0  3  0  0  0  0  0  0
  -16.5100  -29.9100   23.7220 C   0  0  0  0  0  3  0  0  0  0  0  0
  -16.7100  -28.6510   23.1290 C   0  0  0  0  0  3  0  0  0  0  0  0
  -25.9040  -32.5190   23.8860 C   0  0  0  0  0  3  0  0  0  0  0  0
  -26.4080  -31.7430   25.1660 C   0  0  1  0  0  0  0  0  0  0  0  0
  -25.3070  -31.5130   26.2270 C   0  0  0  0  0  1  0  0  0  0  0  0
  -26.9850  -30.3610   24.7820 C   0  0  0  0  0  1  0  0  0  0  0  0
  -27.5590  -32.5320   25.8340 C   0  0  0  0  0  1  0  0  0  0  0  0
  -25.5960  -33.9170   24.2240 N   0  0  0  0  0  0  0  0  0  0  0  0
  -25.9050  -34.9750   23.4610 C   0  0  0  0  0  0  0  0  0  0  0  0
  -26.5450  -34.8750   22.4120 O   0  0  0  0  0  0  0  0  0  0  0  0
  -25.0200  -34.0690   25.0390 H   0  0  0  0  0  0  0  0  0  0  0  0
  -24.1500  -36.7600   23.1870 C   0  0  0  0  0  1  0  0  0  0  0  0
  -25.4310  -36.3620   23.9390 C   0  0  0  0  0  3  0  0  0  0  0  0
  -27.5930  -37.2680   24.6700 C   0  0  0  0  0  1  0  0  0  0  0  0
  -26.4500  -37.4220   23.7740 N   0  0  0  0  0  0  0  0  0  0  0  0
  -26.0440  -38.3400   23.9350 H   0  0  0  0  0  0  0  0  0  0  0  0
  2  1  2  0
  2 10  1  0
  3  2  1  0
  4  3  2  0
  4  6  1  0
  5  4  1  0
  6  1  1  0
  8  9  1  0
  9  3  1  0
  9  7  1  0
 11 10  2  0
 11 20  1  0
 12 20  1  0
 13 18  1  0
 14 15  1  0
 14 13  1  0
 16 15  1  0
 16 25  1  0
 16 17  1  0
 18 12  1  0
 18 17  1  0
 19 12  2  0
 20 21  1  0
 22 23  2  0
 23 42  1  0
 24 23  1  0
 24 27  1  0
 25 22  1  0
 25 26  1  0
 26 24  2  0
 27 28  1  0
 28 29  2  0
 30 33  1  0
 30 29  1  0
 31 30  2  0
 32 31  1  0
 32 27  2  0
 33 34  1  0
 34 35  1  0
 35 36  2  0
 37 36  1  0
 37 41  1  0
 38 37  2  0
 39 34  2  0
 39 38  1  0
 40 39  1  0
 42 43  1  0
 43 46  1  0
 43 45  1  0
 44 42  2  0
 47 48  1  0
 47 22  1  0
 49 47  1  0
 50  6  1  0
 50 51  1  0
 52 63  2  0
 53 51  1  0
 53 58  1  0
 54 62  1  0
 54 64  1  0
 55 61  1  0
 55 57  1  0
 56 62  1  0
 57 56  1  0
 58 57  2  0
 59 53  2  0
 60 59  1  0
 60 55  2  0
 61 54  1  0
 62 52  1  0
 64 66  2  0
 65 64  1  0
 67 65  1  0
 68 77  2  0
 68 73  1  0
 69 65  1  0
 69 73  1  0
 70 69  1  0
 71 72  1  0
 71 70  1  0
 72 68  1  0
 73 74  2  0
 74 75  1  0
 76 75  2  0
 77 76  1  0
 78 52  1  0
 78 83  1  0
 78 79  1  0
 79 82  1  1
 79 80  1  0
 81 79  1  0
 83 86  1  0
 84 88  1  0
 84 83  1  0
 85 84  2  0
 88 87  1  0
 90 91  1  0
 90 88  1  0
 90 89  1  0
M  ISO  4  12 100  20 100  50 101  51 101
M  END
>  <TORSDO>  (84) 
F 20

>  <SCORE>  (84) 
-14.871

>  <name>  (84) 
83

>  <ligand_id>  (84) 
83

>  <original_smiles>  (84) 
[H]c1c([H])c([H])c2c(c1[H])C([H])([H])C([H])([H])C([H])([H])C2([H])N([H])C(=O)C1([H])N(C(=O)C([H])(N([H])C(=O)C([H])(N([H])C([H])([H])[H])C([H])([H])[H])C(C([H])([H])[H])(C([H])([H])[H])C([H])([H])[H])C([H])([H])c2c([H])c(OC([H])([H])n3c([H])c(C([H])([H])C([H])([H])N([H])C(=O)N4C([H])([H])C([H])([H])C([H])([H])C([H])(n5nc(-c6c([H])c([H])c(Oc7c([H])c([H])c(F)c([H])c7F)c([H])c6[H])c(C(=O)N([H])[H])c5N([H])[H])C4([H])[H])c(C([H])(C([H])([H])[H])C([H])([H])[H])c3C([H])([H])[H])c([H])c([H])c2C1([H])[H]

>  <smiles>  (84) 
[H]c1c([H])c([H])c2c(c1[H])C([H])([H])C([H])([H])C([H])([H])C2([H])N([H])C(=O)C1([H])N(C(=O)C([H])(N([H])C(=O)C([H])(N([H])C([H])([H])[H])C([H])([H])[H])C(C([H])([H])[H])(C([H])([H])[H])C([H])([H])[H])C([H])([H])c2c([H])c(OC([H])([H])n3c([H])c(C([H])([H])C([H])([H])N([H])C(=O)N4C([H])([H])C([H])([H])C([H])([H])C([H])(n5nc(-c6c([H])c([H])c(Oc7c([H])c([H])c(F)c([H])c7F)c([H])c6[H])c(C(=O)N([H])[H])c5N([H])[H])C4([H])[H])c(C([H])(C([H])([H])[H])C([H])([H])[H])c3C([H])([H])[H])c([H])c([H])c2C1([H])[H]

$$$$
84:0:0
     RDKit          3D

 91 99  0  0  1  0  0  0  0  0999 V2000
  -28.3060  -21.9480   19.1310 C   0  0  0  0  0  2  0  0  0  0  0  0
  -29.3780  -22.0980   21.2900 C   0  0  0  0  0  2  0  0  0  0  0  0
  -28.2640  -23.5880   19.0260 C   0  0  0  0  0  2  0  0  0  0  0  0
  -29.3220  -23.7350   21.1940 C   0  0  0  0  0  2  0  0  0  0  0  0
  -29.4930  -21.2520   19.9460 C   0  0  0  0  0  3  0  0  0  0  0  0
  -28.2100  -24.5140   20.3350 C   0  0  0  0  0  3  0  0  0  0  0  0
  -30.3330  -19.4880   18.2510 C   0  0  0  0  0  1  0  0  0  0  0  0
  -31.5320  -19.6870   20.3710 C   0  0  0  0  0  1  0  0  0  0  0  0
  -30.1110  -19.6110   19.7750 C   0  0  1  0  0  0  0  0  0  0  0  0
  -29.4530  -18.0550   20.1440 C   0  0  0  0  0  2  0  0  0  0  0  0
  -28.8440  -16.0950   21.6710 C   0  0  0  0  0  1  0  0  0  0  0  0
  -30.0320  -16.5080   20.7690 C   0  0  1  0  0  0  0  0  0  0  0  0
  -30.5460  -15.0580   19.9800 C   0  0  0  0  0  0  0  0  0  0  0  0
  -30.4040  -12.7140   18.9150 C   0  0  0  0  0  2  0  0  0  0  0  0
  -29.3810  -12.6720   17.7490 C   0  0  0  0  0  2  0  0  0  0  0  0
  -27.9480  -12.4260   18.2590 C   0  0  0  0  0  2  0  0  0  0  0  0
  -27.6290  -13.2920   19.5020 C   0  0  0  0  0  3  0  0  0  0  0  0
  -28.7600  -13.1900   20.5420 C   0  0  0  0  0  2  0  0  0  0  0  0
  -29.9730  -13.7590   19.9130 N   0  0  0  0  0  0  0  0  0  0  0  0
  -31.6540  -15.1130   19.4240 O   0  0  0  0  0  0  0  0  0  0  0  0
  -25.3000  -13.8680   20.3990 C   0  0  0  0  0  0  0  0  0  0  0  0
  -24.2600  -13.0920   20.8270 C   0  0  0  0  0  0  0  0  0  0  0  0
  -24.7120  -11.7400   20.7370 C   0  0  0  0  0  0  0  0  0  0  0  0
  -26.3210  -12.9910   20.0730 N   0  0  0  0  0  0  0  0  0  0  0  0
  -25.9800  -11.7030   20.3380 N   0  0  0  0  0  0  0  0  0  0  0  0
  -23.9900  -10.4790   20.9470 C   0  0  0  0  0  0  0  0  0  0  0  0
  -24.4540   -9.5060   21.8600 C   0  0  0  0  0  3  0  0  0  0  0  0
  -23.7300   -8.3110   22.0590 C   0  0  0  0  0  3  0  0  0  0  0  0
  -22.5290   -8.0800   21.3470 C   0  0  0  0  0  0  0  0  0  0  0  0
  -22.0840   -9.0430   20.4230 C   0  0  0  0  0  3  0  0  0  0  0  0
  -22.8090  -10.2290   20.2210 C   0  0  0  0  0  3  0  0  0  0  0  0
  -21.7740   -6.9370   21.4560 O   0  0  0  0  0  0  0  0  0  0  0  0
  -21.7370   -6.2080   22.6180 C   0  0  0  0  0  0  0  0  0  0  0  0
  -21.3390   -6.7820   23.8450 C   0  0  0  0  0  3  0  0  0  0  0  0
  -21.2490   -5.9800   25.0000 C   0  0  0  0  0  3  0  0  0  0  0  0
  -21.5460   -4.6050   24.9300 C   0  0  0  0  0  0  0  0  0  0  0  0
  -21.9370   -4.0310   23.7060 C   0  0  0  0  0  3  0  0  0  0  0  0
  -22.0290   -4.8310   22.5530 C   0  0  0  0  0  0  0  0  0  0  0  0
  -22.3860   -4.2690   21.3740 F   0  0  0  0  0  0  0  0  0  0  0  0
  -21.4520   -3.8330   26.0370 F   0  0  0  0  0  0  0  0  0  0  0  0
  -22.8880  -13.5720   21.2010 C   0  0  0  0  0  0  0  0  0  0  0  0
  -22.2170  -12.8670   22.1040 N   0  0  0  0  0  0  0  0  0  0  0  0
  -22.4230  -14.6090   20.7300 O   0  0  0  0  0  0  0  0  0  0  0  0
  -22.6070  -12.0270   22.5080 H   0  0  0  0  0  0  0  0  0  0  0  0
  -21.2990  -13.1700   22.3980 H   0  0  0  0  0  0  0  0  0  0  0  0
  -25.4490  -15.2420   20.2330 N   0  0  0  0  0  0  0  0  0  0  0  0
  -24.6900  -15.8890   20.4110 H   0  0  0  0  0  0  0  0  0  0  0  0
  -26.2700  -15.6910   19.8490 H   0  0  0  0  0  0  0  0  0  0  0  0
  -30.8870  -17.6860   22.9910 C   0  0  0  0  0  1  0  0  0  0  0  0
  -31.1980  -16.7850   21.7740 C   0  0  0  0  0  2  0  0  0  0  0  0
  -28.3310  -26.0970   20.2610 O   0  0  0  0  0  0  0  0  0  0  0  0
  -24.6250  -31.8160   23.2020 C   0  0  0  0  0  0  0  0  0  0  0  0
  -27.2430  -27.0610   20.2170 C   0  0  0  0  0  0  0  0  0  0  0  0
  -23.4370  -30.3920   21.5770 C   0  0  0  0  0  3  0  0  0  0  0  0
  -24.8970  -28.8060   20.1670 C   0  0  0  0  0  0  0  0  0  0  0  0
  -25.9880  -30.6710   21.4050 C   0  0  0  0  0  2  0  0  0  0  0  0
  -26.0750  -29.2680   20.7670 C   0  0  0  0  0  0  0  0  0  0  0  0
  -27.2470  -28.4150   20.7650 C   0  0  0  0  0  3  0  0  0  0  0  0
  -26.0340  -26.7010   19.5880 C   0  0  0  0  0  3  0  0  0  0  0  0
  -24.8910  -27.5380   19.5610 C   0  0  0  0  0  3  0  0  0  0  0  0
  -23.6620  -29.6990   20.2070 C   0  0  0  0  0  2  0  0  0  0  0  0
  -24.7040  -30.9840   22.1170 N   0  0  0  0  0  0  0  0  0  0  0  0
  -23.5360  -32.0950   23.7280 O   0  0  0  0  0  0  0  0  0  0  0  0
  -22.7660  -29.3930   22.5530 C   0  0  0  0  0  0  0  0  0  0  0  0
  -21.4370  -29.2180   22.4380 N   0  0  0  0  0  0  0  0  0  0  0  0
  -23.4440  -28.7740   23.3760 O   0  0  0  0  0  0  0  0  0  0  0  0
  -20.9440  -29.7680   21.7490 H   0  0  0  0  0  0  0  0  0  0  0  0
  -18.0660  -27.9980   22.9700 C   0  0  0  0  0  0  0  0  0  0  0  0
  -20.6240  -28.2820   23.2210 C   0  0  0  0  0  3  0  0  0  0  0  0
  -20.7330  -26.8450   22.6570 C   0  0  0  0  0  2  0  0  0  0  0  0
  -19.6280  -26.5070   21.6510 C   0  0  0  0  0  2  0  0  0  0  0  0
  -18.2490  -26.6460   22.3010 C   0  0  0  0  0  2  0  0  0  0  0  0
  -19.1810  -28.7730   23.3880 C   0  0  0  0  0  0  0  0  0  0  0  0
  -18.9550  -30.0360   23.9750 C   0  0  0  0  0  3  0  0  0  0  0  0
  -17.6460  -30.5260   24.1490 C   0  0  0  0  0  3  0  0  0  0  0  0
  -16.5460  -29.7500   23.7470 C   0  0  0  0  0  3  0  0  0  0  0  0
  -16.7560  -28.4880   23.1640 C   0  0  0  0  0  3  0  0  0  0  0  0
  -25.8970  -32.4700   23.8230 C   0  0  0  0  0  3  0  0  0  0  0  0
  -26.4270  -31.7080   25.1010 C   0  0  1  0  0  0  0  0  0  0  0  0
  -25.3400  -31.4600   26.1740 C   0  0  0  0  0  1  0  0  0  0  0  0
  -27.0260  -30.3360   24.7140 C   0  0  0  0  0  1  0  0  0  0  0  0
  -27.5700  -32.5180   25.7560 C   0  0  0  0  0  1  0  0  0  0  0  0
  -25.5650  -33.8630   24.1620 N   0  0  0  0  0  0  0  0  0  0  0  0
  -25.8710  -34.9280   23.4100 C   0  0  0  0  0  0  0  0  0  0  0  0
  -26.5290  -34.8420   22.3700 O   0  0  0  0  0  0  0  0  0  0  0  0
  -24.9770  -34.0010   24.9720 H   0  0  0  0  0  0  0  0  0  0  0  0
  -24.1060  -36.6980   23.1050 C   0  0  0  0  0  1  0  0  0  0  0  0
  -25.3710  -36.3070   23.8850 C   0  0  0  0  0  3  0  0  0  0  0  0
  -27.5090  -37.2250   24.6750 C   0  0  0  0  0  1  0  0  0  0  0  0
  -26.3830  -37.3790   23.7570 N   0  0  0  0  0  0  0  0  0  0  0  0
  -25.9640  -38.2910   23.9230 H   0  0  0  0  0  0  0  0  0  0  0  0
  1  5  1  0
  3  1  1  0
  3  6  1  0
  4  2  1  0
  5  9  1  0
  5  2  1  0
  6 51  1  0
  6  4  1  0
  9  7  1  6
  9 10  1  0
  9  8  1  0
 10 12  1  0
 12 11  1  1
 12 50  1  0
 13 12  1  0
 14 19  1  0
 15 16  1  0
 15 14  1  0
 17 16  1  0
 17 24  1  0
 17 18  1  0
 19 13  1  0
 19 18  1  0
 20 13  2  0
 21 22  2  0
 22 41  1  0
 23 22  1  0
 23 26  1  0
 24 25  1  0
 24 21  1  0
 25 23  2  0
 26 27  1  0
 27 28  2  0
 29 32  1  0
 29 28  1  0
 30 29  2  0
 31 30  1  0
 31 26  2  0
 32 33  1  0
 33 34  1  0
 34 35  2  0
 36 35  1  0
 36 40  1  0
 37 36  2  0
 38 33  2  0
 38 37  1  0
 39 38  1  0
 41 42  1  0
 42 45  1  0
 42 44  1  0
 43 41  2  0
 46 21  1  0
 46 47  1  0
 48 46  1  0
 50 49  1  0
 52 63  2  0
 53 51  1  0
 53 58  1  0
 54 62  1  0
 54 64  1  0
 55 61  1  0
 55 57  1  0
 56 62  1  0
 57 56  1  0
 58 57  2  0
 59 53  2  0
 60 59  1  0
 60 55  2  0
 61 54  1  0
 62 52  1  0
 64 66  2  0
 65 64  1  0
 67 65  1  0
 68 77  2  0
 68 73  1  0
 69 65  1  0
 69 73  1  0
 70 69  1  0
 71 72  1  0
 71 70  1  0
 72 68  1  0
 73 74  2  0
 74 75  1  0
 76 75  2  0
 77 76  1  0
 78 52  1  0
 78 83  1  0
 78 79  1  0
 79 82  1  1
 79 80  1  0
 81 79  1  0
 83 86  1  0
 84 88  1  0
 84 83  1  0
 85 84  2  0
 88 87  1  0
 90 88  1  0
 90 91  1  0
 90 89  1  0
M  ISO  4   6 101  12 100  13 100  51 101
M  END
>  <TORSDO>  (85) 
F 20

>  <SCORE>  (85) 
-14.274

>  <name>  (85) 
84

>  <ligand_id>  (85) 
84

>  <original_smiles>  (85) 
[H]c1c([H])c([H])c2c(c1[H])C([H])([H])C([H])([H])C([H])([H])C2([H])N([H])C(=O)C1([H])N(C(=O)C([H])(N([H])C(=O)C([H])(N([H])C([H])([H])[H])C([H])([H])[H])C(C([H])([H])[H])(C([H])([H])[H])C([H])([H])[H])C([H])([H])c2c([H])c(OC3([H])C([H])([H])C([H])([H])C([H])(C(C([H])([H])[H])(C([H])([H])[H])C([H])([H])C(C(=O)N4C([H])([H])C([H])([H])C([H])([H])C([H])(n5nc(-c6c([H])c([H])c(Oc7c([H])c([H])c(F)c([H])c7F)c([H])c6[H])c(C(=O)N([H])[H])c5N([H])[H])C4([H])[H])(C([H])([H])[H])C([H])([H])C([H])([H])[H])C([H])([H])C3([H])[H])c([H])c([H])c2C1([H])[H]

>  <smiles>  (85) 
[H]c1c([H])c([H])c2c(c1[H])C([H])([H])C([H])([H])C([H])([H])C2([H])N([H])C(=O)C1([H])N(C(=O)C([H])(N([H])C(=O)C([H])(N([H])C([H])([H])[H])C([H])([H])[H])C(C([H])([H])[H])(C([H])([H])[H])C([H])([H])[H])C([H])([H])c2c([H])c(OC3([H])C([H])([H])C([H])([H])C([H])(C(C([H])([H])[H])(C([H])([H])[H])C([H])([H])C(C(=O)N4C([H])([H])C([H])([H])C([H])([H])C([H])(n5nc(-c6c([H])c([H])c(Oc7c([H])c([H])c(F)c([H])c7F)c([H])c6[H])c(C(=O)N([H])[H])c5N([H])[H])C4([H])[H])(C([H])([H])[H])C([H])([H])C([H])([H])[H])C([H])([H])C3([H])[H])c([H])c([H])c2C1([H])[H]

$$$$
85:0:0
     RDKit          3D

 93101  0  0  1  0  0  0  0  0999 V2000
  -30.2860  -23.6320   20.9120 C   0  0  0  0  0  3  0  0  0  0  0  0
  -31.2530  -22.6360   21.1520 C   0  0  0  0  0  3  0  0  0  0  0  0
  -28.7410  -21.8260   20.5140 C   0  0  0  0  0  3  0  0  0  0  0  0
  -28.9620  -23.3060   20.6160 C   0  0  0  0  0  0  0  0  0  0  0  0
  -31.0220  -21.2240   21.1310 C   0  0  0  0  0  0  0  0  0  0  0  0
  -29.7200  -20.7200   20.7320 C   0  0  0  0  0  0  0  0  0  0  0  0
  -33.4160  -21.1030   22.1800 C   0  0  0  0  0  1  0  0  0  0  0  0
  -32.8080  -19.5910   20.3750 C   0  0  0  0  0  1  0  0  0  0  0  0
  -31.7870  -19.4260   22.7850 C   0  0  0  0  0  1  0  0  0  0  0  0
  -32.2050  -20.3230   21.5940 C   0  0  2  0  0  0  0  0  0  0  0  0
  -26.5640  -23.9950   19.9890 C   0  0  0  0  0  1  0  0  0  0  0  0
  -27.8650  -24.5530   20.5990 C   0  0  0  0  0  3  0  0  0  0  0  0
  -28.1850  -26.0750   20.2720 O   0  0  0  0  0  0  0  0  0  0  0  0
  -24.6500  -31.8880   23.2380 C   0  0  0  0  0  0  0  0  0  0  0  0
  -27.1750  -27.1240   20.2150 C   0  0  0  0  0  0  0  0  0  0  0  0
  -23.4380  -30.5000   21.6040 C   0  0  0  0  0  3  0  0  0  0  0  0
  -24.8760  -28.9270   20.1700 C   0  0  0  0  0  0  0  0  0  0  0  0
  -25.9990  -30.7330   21.4470 C   0  0  0  0  0  2  0  0  0  0  0  0
  -26.0580  -29.3380   20.8020 C   0  0  0  0  0  0  0  0  0  0  0  0
  -27.2030  -28.4490   20.8220 C   0  0  0  0  0  3  0  0  0  0  0  0
  -26.0090  -26.8920   19.4520 C   0  0  0  0  0  3  0  0  0  0  0  0
  -24.8680  -27.7140   19.4750 C   0  0  0  0  0  3  0  0  0  0  0  0
  -23.6550  -29.8300   20.2220 C   0  0  0  0  0  2  0  0  0  0  0  0
  -24.7160  -31.0620   22.1490 N   0  0  0  0  0  0  0  0  0  0  0  0
  -23.5660  -32.1830   23.7620 O   0  0  0  0  0  0  0  0  0  0  0  0
  -22.7560  -29.4940   22.5630 C   0  0  0  0  0  0  0  0  0  0  0  0
  -21.4250  -29.3330   22.4420 N   0  0  0  0  0  0  0  0  0  0  0  0
  -23.4250  -28.8590   23.3830 O   0  0  0  0  0  0  0  0  0  0  0  0
  -20.9410  -29.8970   21.7570 H   0  0  0  0  0  0  0  0  0  0  0  0
  -18.0360  -28.1610   22.9570 C   0  0  0  0  0  0  0  0  0  0  0  0
  -20.5980  -28.4050   23.2180 C   0  0  0  0  0  3  0  0  0  0  0  0
  -20.6880  -26.9700   22.6480 C   0  0  0  0  0  2  0  0  0  0  0  0
  -19.5810  -26.6520   21.6370 C   0  0  0  0  0  2  0  0  0  0  0  0
  -18.2020  -26.8100   22.2830 C   0  0  0  0  0  2  0  0  0  0  0  0
  -19.1610  -28.9170   23.3820 C   0  0  0  0  0  0  0  0  0  0  0  0
  -18.9510  -30.1810   23.9740 C   0  0  0  0  0  3  0  0  0  0  0  0
  -17.6500  -30.6880   24.1460 C   0  0  0  0  0  3  0  0  0  0  0  0
  -16.5400  -29.9300   23.7370 C   0  0  0  0  0  3  0  0  0  0  0  0
  -16.7340  -28.6680   23.1480 C   0  0  0  0  0  3  0  0  0  0  0  0
  -25.9330  -32.5170   23.8580 C   0  0  0  0  0  3  0  0  0  0  0  0
  -26.4490  -31.7380   25.1290 C   0  0  1  0  0  0  0  0  0  0  0  0
  -25.3580  -31.5010   26.1980 C   0  0  0  0  0  1  0  0  0  0  0  0
  -27.0250  -30.3590   24.7360 C   0  0  0  0  0  1  0  0  0  0  0  0
  -27.6070  -32.5230   25.7880 C   0  0  0  0  0  1  0  0  0  0  0  0
  -25.6240  -33.9150   24.2030 N   0  0  0  0  0  0  0  0  0  0  0  0
  -25.9330  -34.9760   23.4460 C   0  0  0  0  0  0  0  0  0  0  0  0
  -26.5740  -34.8820   22.3960 O   0  0  0  0  0  0  0  0  0  0  0  0
  -25.0490  -34.0620   25.0200 H   0  0  0  0  0  0  0  0  0  0  0  0
  -24.1810  -36.7600   23.1710 C   0  0  0  0  0  1  0  0  0  0  0  0
  -25.4570  -36.3600   23.9280 C   0  0  0  0  0  3  0  0  0  0  0  0
  -27.6190  -37.2560   24.6730 C   0  0  0  0  0  1  0  0  0  0  0  0
  -26.4770  -37.4200   23.7760 N   0  0  0  0  0  0  0  0  0  0  0  0
  -26.0730  -38.3370   23.9430 H   0  0  0  0  0  0  0  0  0  0  0  0
  -29.2880  -19.0910   20.6920 C   0  0  0  0  0  3  0  0  0  0  0  0
  -30.1810  -17.6870   20.2810 C   0  0  0  0  0  3  0  0  0  0  0  0
  -30.4730  -14.9630   20.2080 C   0  0  0  0  0  0  0  0  0  0  0  0
  -30.2930  -12.6320   19.2210 C   0  0  0  0  0  2  0  0  0  0  0  0
  -29.3280  -12.6120   18.0130 C   0  0  0  0  0  2  0  0  0  0  0  0
  -27.8770  -12.3970   18.4830 C   0  0  0  0  0  2  0  0  0  0  0  0
  -27.5070  -13.2990   19.6900 C   0  0  0  0  0  3  0  0  0  0  0  0
  -28.5940  -13.3000   20.7860 C   0  0  0  0  0  2  0  0  0  0  0  0
  -29.8500  -13.7160   20.1480 N   0  0  0  0  0  0  0  0  0  0  0  0
  -31.6590  -15.0120   19.8680 O   0  0  0  0  0  0  0  0  0  0  0  0
  -29.7470  -16.1690   20.4400 N   0  0  0  0  0  0  0  0  0  0  0  0
  -28.7770  -16.0260   20.6770 H   0  0  0  0  0  0  0  0  0  0  0  0
  -25.1440  -13.8590   20.4970 C   0  0  0  0  0  0  0  0  0  0  0  0
  -24.0930  -13.0750   20.8890 C   0  0  0  0  0  0  0  0  0  0  0  0
  -24.5630  -11.7270   20.8330 C   0  0  0  0  0  0  0  0  0  0  0  0
  -26.1840  -12.9890   20.2200 N   0  0  0  0  0  0  0  0  0  0  0  0
  -25.8450  -11.7000   20.4890 N   0  0  0  0  0  0  0  0  0  0  0  0
  -23.8450  -10.4610   21.0300 C   0  0  0  0  0  0  0  0  0  0  0  0
  -24.3020   -9.4860   21.9460 C   0  0  0  0  0  3  0  0  0  0  0  0
  -23.5810   -8.2880   22.1330 C   0  0  0  0  0  3  0  0  0  0  0  0
  -22.3900   -8.0530   21.4040 C   0  0  0  0  0  0  0  0  0  0  0  0
  -21.9540   -9.0150   20.4770 C   0  0  0  0  0  3  0  0  0  0  0  0
  -22.6750  -10.2060   20.2890 C   0  0  0  0  0  3  0  0  0  0  0  0
  -21.6400   -6.9060   21.5020 O   0  0  0  0  0  0  0  0  0  0  0  0
  -21.6200   -6.1540   22.6490 C   0  0  0  0  0  0  0  0  0  0  0  0
  -21.2220   -6.6980   23.8900 C   0  0  0  0  0  3  0  0  0  0  0  0
  -21.1500   -5.8720   25.0300 C   0  0  0  0  0  3  0  0  0  0  0  0
  -21.4630   -4.5030   24.9280 C   0  0  0  0  0  0  0  0  0  0  0  0
  -21.8530   -3.9590   23.6930 C   0  0  0  0  0  3  0  0  0  0  0  0
  -21.9270   -4.7810   22.5560 C   0  0  0  0  0  0  0  0  0  0  0  0
  -22.2840   -4.2470   21.3630 F   0  0  0  0  0  0  0  0  0  0  0  0
  -21.3850   -3.7080   26.0220 F   0  0  0  0  0  0  0  0  0  0  0  0
  -22.7020  -13.5450   21.1980 C   0  0  0  0  0  0  0  0  0  0  0  0
  -21.9980  -12.8420   22.0780 N   0  0  0  0  0  0  0  0  0  0  0  0
  -22.2490  -14.5730   20.6960 O   0  0  0  0  0  0  0  0  0  0  0  0
  -22.3790  -12.0100   22.5040 H   0  0  0  0  0  0  0  0  0  0  0  0
  -21.0660  -13.1400   22.3280 H   0  0  0  0  0  0  0  0  0  0  0  0
  -25.2930  -15.2330   20.3280 N   0  0  0  0  0  0  0  0  0  0  0  0
  -24.5200  -15.8730   20.4650 H   0  0  0  0  0  0  0  0  0  0  0  0
  -26.1160  -15.6830   19.9510 H   0  0  0  0  0  0  0  0  0  0  0  0
  1  2  1  0
  3  4  1  0
  3  6  2  0
  4  1  2  0
  5  2  2  0
  5 10  1  0
  6  5  1  0
 10  8  1  6
 10  7  1  0
 10  9  1  0
 12 11  1  0
 12  4  1  0
 13 12  1  0
 14 25  2  0
 15 13  1  0
 15 20  1  0
 16 24  1  0
 16 26  1  0
 17 23  1  0
 17 19  1  0
 18 24  1  0
 19 20  2  0
 19 18  1  0
 21 22  1  0
 21 15  2  0
 22 17  2  0
 23 16  1  0
 24 14  1  0
 26 28  2  0
 27 26  1  0
 29 27  1  0
 30 39  2  0
 30 35  1  0
 31 27  1  0
 31 35  1  0
 32 31  1  0
 33 34  1  0
 33 32  1  0
 34 30  1  0
 35 36  2  0
 36 37  1  0
 38 37  2  0
 39 38  1  0
 40 14  1  0
 40 45  1  0
 40 41  1  0
 41 44  1  1
 41 42  1  0
 43 41  1  0
 45 48  1  0
 46 50  1  0
 46 45  1  0
 47 46  2  0
 50 49  1  0
 52 50  1  0
 52 53  1  0
 52 51  1  0
 54  6  1  0
 55 64  1  0
 55 54  2  0
 56 64  1  0
 57 62  1  0
 58 59  1  0
 58 57  1  0
 60 59  1  0
 60 69  1  0
 60 61  1  0
 62 56  1  0
 62 61  1  0
 63 56  2  0
 64 65  1  0
 66 67  2  0
 67 86  1  0
 68 67  1  0
 68 71  1  0
 69 70  1  0
 69 66  1  0
 70 68  2  0
 71 72  1  0
 72 73  2  0
 74 77  1  0
 74 73  1  0
 75 74  2  0
 76 75  1  0
 76 71  2  0
 77 78  1  0
 78 79  1  0
 79 80  2  0
 81 80  1  0
 81 85  1  0
 82 81  2  0
 83 78  2  0
 83 82  1  0
 84 83  1  0
 86 87  1  0
 87 90  1  0
 87 89  1  0
 88 86  2  0
 91 92  1  0
 91 66  1  0
 93 91  1  0
M  ISO  4  12 101  13 101  56 100  64 100
M  END
>  <TORSDO>  (86) 
F 20

>  <SCORE>  (86) 
-14.730

>  <name>  (86) 
85

>  <ligand_id>  (86) 
85

>  <original_smiles>  (86) 
[H]c1c([H])c([H])c2c(c1[H])C([H])([H])C([H])([H])C([H])([H])C2([H])N([H])C(=O)C1([H])N(C(=O)C([H])(N([H])C(=O)C([H])(N([H])C([H])([H])[H])C([H])([H])[H])C(C([H])([H])[H])(C([H])([H])[H])C([H])([H])[H])C([H])([H])c2c([H])c(OC([H])(c3c([H])c([H])c(C(C([H])([H])[H])(C([H])([H])[H])C([H])([H])[H])c(C([H])([H])C([H])([H])N([H])C(=O)N4C([H])([H])C([H])([H])C([H])([H])C([H])(n5nc(-c6c([H])c([H])c(Oc7c([H])c([H])c(F)c([H])c7F)c([H])c6[H])c(C(=O)N([H])[H])c5N([H])[H])C4([H])[H])c3[H])C([H])([H])[H])c([H])c([H])c2C1([H])[H]

>  <smiles>  (86) 
[H]c1c([H])c([H])c2c(c1[H])C([H])([H])C([H])([H])C([H])([H])C2([H])N([H])C(=O)C1([H])N(C(=O)C([H])(N([H])C(=O)C([H])(N([H])C([H])([H])[H])C([H])([H])[H])C(C([H])([H])[H])(C([H])([H])[H])C([H])([H])[H])C([H])([H])c2c([H])c(OC([H])(c3c([H])c([H])c(C(C([H])([H])[H])(C([H])([H])[H])C([H])([H])[H])c(C([H])([H])C([H])([H])N([H])C(=O)N4C([H])([H])C([H])([H])C([H])([H])C([H])(n5nc(-c6c([H])c([H])c(Oc7c([H])c([H])c(F)c([H])c7F)c([H])c6[H])c(C(=O)N([H])[H])c5N([H])[H])C4([H])[H])c3[H])C([H])([H])[H])c([H])c([H])c2C1([H])[H]

$$$$
86:0:0
     RDKit          3D

 92100  0  0  1  0  0  0  0  0999 V2000
  -30.6960  -19.1150   18.9670 C   0  0  0  0  0  3  0  0  0  0  0  0
  -31.5710  -18.0500   20.9530 C   0  0  0  0  0  3  0  0  0  0  0  0
  -30.4860  -20.4430   19.6390 C   0  0  0  0  0  0  0  0  0  0  0  0
  -30.8400  -20.4340   21.0160 C   0  0  0  0  0  0  0  0  0  0  0  0
  -31.2610  -17.8740   19.5910 C   0  0  0  0  0  0  0  0  0  0  0  0
  -31.3440  -19.2610   21.6470 C   0  0  0  0  0  0  0  0  0  0  0  0
  -30.7090  -21.7120   21.8360 C   0  0  0  0  0  1  0  0  0  0  0  0
  -32.0250  -15.1980   19.4090 C   0  0  0  0  0  0  0  0  0  0  0  0
  -31.7220  -12.7770   18.6670 C   0  0  0  0  0  2  0  0  0  0  0  0
  -30.7230  -12.6630   17.4910 C   0  0  0  0  0  2  0  0  0  0  0  0
  -29.2710  -12.6000   18.0060 C   0  0  0  0  0  2  0  0  0  0  0  0
  -28.9800  -13.6620   19.0990 C   0  0  0  0  0  3  0  0  0  0  0  0
  -30.0890  -13.7110   20.1680 C   0  0  0  0  0  2  0  0  0  0  0  0
  -31.3420  -13.9820   19.4530 N   0  0  0  0  0  0  0  0  0  0  0  0
  -33.2490  -15.1450   19.2400 O   0  0  0  0  0  0  0  0  0  0  0  0
  -31.3000  -16.4010   19.1270 N   0  0  0  0  0  0  0  0  0  0  0  0
  -30.3830  -16.1210   18.8190 H   0  0  0  0  0  0  0  0  0  0  0  0
  -26.7700  -14.5120   20.0650 C   0  0  0  0  0  0  0  0  0  0  0  0
  -25.6240  -13.8700   20.4470 C   0  0  0  0  0  0  0  0  0  0  0  0
  -25.8770  -12.4750   20.2770 C   0  0  0  0  0  0  0  0  0  0  0  0
  -27.6500  -13.5160   19.6780 N   0  0  0  0  0  0  0  0  0  0  0  0
  -27.1270  -12.2780   19.8730 N   0  0  0  0  0  0  0  0  0  0  0  0
  -24.9800  -11.3200   20.4180 C   0  0  0  0  0  0  0  0  0  0  0  0
  -25.2890  -10.2450   21.2800 C   0  0  0  0  0  3  0  0  0  0  0  0
  -24.4000   -9.1570   21.4130 C   0  0  0  0  0  3  0  0  0  0  0  0
  -23.1860   -9.1380   20.6830 C   0  0  0  0  0  0  0  0  0  0  0  0
  -22.8950  -10.2000   19.8090 C   0  0  0  0  0  3  0  0  0  0  0  0
  -23.7830  -11.2800   19.6750 C   0  0  0  0  0  3  0  0  0  0  0  0
  -22.2750   -8.1110   20.7310 O   0  0  0  0  0  0  0  0  0  0  0  0
  -22.0970   -7.3580   21.8630 C   0  0  0  0  0  0  0  0  0  0  0  0
  -21.6860   -7.9340   23.0850 C   0  0  0  0  0  3  0  0  0  0  0  0
  -21.4490   -7.1130   24.2050 C   0  0  0  0  0  3  0  0  0  0  0  0
  -21.6120   -5.7190   24.1060 C   0  0  0  0  0  0  0  0  0  0  0  0
  -22.0160   -5.1430   22.8870 C   0  0  0  0  0  3  0  0  0  0  0  0
  -22.2540   -5.9590   21.7690 C   0  0  0  0  0  0  0  0  0  0  0  0
  -22.6230   -5.3980   20.5930 F   0  0  0  0  0  0  0  0  0  0  0  0
  -21.3760   -4.9290   25.1790 F   0  0  0  0  0  0  0  0  0  0  0  0
  -24.3330  -14.5210   20.8500 C   0  0  0  0  0  0  0  0  0  0  0  0
  -23.5780  -13.8860   21.7390 N   0  0  0  0  0  0  0  0  0  0  0  0
  -24.0100  -15.6260   20.4110 O   0  0  0  0  0  0  0  0  0  0  0  0
  -23.8550  -12.9910   22.1140 H   0  0  0  0  0  0  0  0  0  0  0  0
  -22.7110  -14.3030   22.0490 H   0  0  0  0  0  0  0  0  0  0  0  0
  -27.1250  -15.8550   19.9860 N   0  0  0  0  0  0  0  0  0  0  0  0
  -26.4700  -16.5960   20.2060 H   0  0  0  0  0  0  0  0  0  0  0  0
  -28.0110  -16.2020   19.6430 H   0  0  0  0  0  0  0  0  0  0  0  0
  -30.5240  -18.9050   23.8140 C   0  0  0  0  0  1  0  0  0  0  0  0
  -31.6310  -19.2570   22.9880 O   0  0  0  0  0  0  0  0  0  0  0  0
  -30.0840  -21.9160   18.9530 C   0  0  0  0  0  2  0  0  0  0  0  0
  -28.8580  -23.0680   19.3070 C   0  0  0  0  0  2  0  0  0  0  0  0
  -30.3170  -24.8060   20.6580 C   0  0  0  0  0  1  0  0  0  0  0  0
  -28.9330  -24.6220   20.0270 C   0  0  0  0  0  3  0  0  0  0  0  0
  -28.6880  -26.0590   19.4540 O   0  0  0  0  0  0  0  0  0  0  0  0
  -24.5250  -31.0390   23.0790 C   0  0  0  0  0  0  0  0  0  0  0  0
  -27.5150  -26.8820   19.6250 C   0  0  0  0  0  0  0  0  0  0  0  0
  -23.4500  -29.6930   21.3160 C   0  0  0  0  0  3  0  0  0  0  0  0
  -25.0280  -28.3910   19.7590 C   0  0  0  0  0  0  0  0  0  0  0  0
  -25.9640  -30.2150   21.1740 C   0  0  0  0  0  2  0  0  0  0  0  0
  -26.1660  -28.8960   20.4010 C   0  0  0  0  0  0  0  0  0  0  0  0
  -27.4110  -28.1630   20.3100 C   0  0  0  0  0  3  0  0  0  0  0  0
  -26.3360  -26.4690   18.9720 C   0  0  0  0  0  3  0  0  0  0  0  0
  -25.1230  -27.1920   19.0330 C   0  0  0  0  0  3  0  0  0  0  0  0
  -23.7230  -29.1650   19.8830 C   0  0  0  0  0  2  0  0  0  0  0  0
  -24.6650  -30.3350   21.9130 N   0  0  0  0  0  0  0  0  0  0  0  0
  -23.4210  -31.1670   23.6310 O   0  0  0  0  0  0  0  0  0  0  0  0
  -22.8770  -28.5420   22.1810 C   0  0  0  0  0  0  0  0  0  0  0  0
  -21.6040  -28.1740   21.9480 N   0  0  0  0  0  0  0  0  0  0  0  0
  -23.5830  -27.9860   23.0260 O   0  0  0  0  0  0  0  0  0  0  0  0
  -21.0840  -28.6830   21.2470 H   0  0  0  0  0  0  0  0  0  0  0  0
  -18.4720  -26.3570   22.0630 C   0  0  0  0  0  0  0  0  0  0  0  0
  -20.8950  -27.0780   22.6120 C   0  0  0  0  0  3  0  0  0  0  0  0
  -21.3220  -25.7090   22.0350 C   0  0  0  0  0  2  0  0  0  0  0  0
  -20.4130  -25.2210   20.9030 C   0  0  0  0  0  2  0  0  0  0  0  0
  -18.9680  -25.0870   21.3920 C   0  0  0  0  0  2  0  0  0  0  0  0
  -19.3770  -27.3000   22.6220 C   0  0  0  0  0  0  0  0  0  0  0  0
  -18.8630  -28.4780   23.2050 C   0  0  0  0  0  3  0  0  0  0  0  0
  -17.4770  -28.7220   23.2340 C   0  0  0  0  0  3  0  0  0  0  0  0
  -16.5860  -27.7800   22.6920 C   0  0  0  0  0  3  0  0  0  0  0  0
  -17.0830  -26.6000   22.1130 C   0  0  0  0  0  3  0  0  0  0  0  0
  -25.7410  -31.7340   23.7660 C   0  0  0  0  0  3  0  0  0  0  0  0
  -26.2690  -30.9500   25.0300 C   0  0  1  0  0  0  0  0  0  0  0  0
  -25.1650  -30.6150   26.0620 C   0  0  0  0  0  1  0  0  0  0  0  0
  -26.9390  -29.6210   24.6120 C   0  0  0  0  0  1  0  0  0  0  0  0
  -27.3570  -31.7830   25.7470 C   0  0  0  0  0  1  0  0  0  0  0  0
  -25.3260  -33.0940   24.1440 N   0  0  0  0  0  0  0  0  0  0  0  0
  -25.6470  -34.2070   23.4700 C   0  0  0  0  0  0  0  0  0  0  0  0
  -26.3870  -34.1970   22.4820 O   0  0  0  0  0  0  0  0  0  0  0  0
  -24.6720  -33.1690   24.9090 H   0  0  0  0  0  0  0  0  0  0  0  0
  -23.8430  -35.9240   23.1020 C   0  0  0  0  0  1  0  0  0  0  0  0
  -25.0550  -35.5400   23.9680 C   0  0  0  0  0  3  0  0  0  0  0  0
  -27.0740  -36.5000   24.9850 C   0  0  0  0  0  1  0  0  0  0  0  0
  -26.0300  -36.6530   23.9740 N   0  0  0  0  0  0  0  0  0  0  0  0
  -25.5630  -37.5420   24.1320 H   0  0  0  0  0  0  0  0  0  0  0  0
  1  5  2  0
  1  3  1  0
  2  6  2  0
  3  4  2  0
  4  6  1  0
  4  7  1  0
  5  2  1  0
  6 47  1  0
  8 14  1  0
  9 14  1  0
 10 11  1  0
 10  9  1  0
 12 11  1  0
 12 21  1  0
 12 13  1  0
 14 13  1  0
 15  8  2  0
 16  8  1  0
 16  5  1  0
 17 16  1  0
 18 19  2  0
 19 38  1  0
 20 23  1  0
 20 19  1  0
 21 22  1  0
 21 18  1  0
 22 20  2  0
 23 24  1  0
 24 25  2  0
 26 29  1  0
 26 25  1  0
 27 26  2  0
 28 27  1  0
 28 23  2  0
 29 30  1  0
 30 31  1  0
 31 32  2  0
 33 32  1  0
 33 37  1  0
 34 33  2  0
 35 30  2  0
 35 34  1  0
 36 35  1  0
 38 39  1  0
 39 42  1  0
 39 41  1  0
 40 38  2  0
 43 18  1  0
 43 44  1  0
 45 43  1  0
 47 46  1  0
 48 49  1  0
 48  3  1  0
 49 51  1  0
 51 50  1  0
 52 54  1  0
 52 51  1  0
 53 64  2  0
 54 59  1  0
 55 63  1  0
 55 65  1  0
 56 62  1  0
 56 58  1  0
 57 63  1  0
 58 57  1  0
 59 58  2  0
 60 61  1  0
 60 54  2  0
 61 56  2  0
 62 55  1  0
 63 53  1  0
 65 67  2  0
 66 65  1  0
 68 66  1  0
 69 78  2  0
 69 74  1  0
 70 66  1  0
 70 74  1  0
 71 70  1  0
 72 73  1  0
 72 71  1  0
 73 69  1  0
 74 75  2  0
 75 76  1  0
 77 76  2  0
 78 77  1  0
 79 53  1  0
 79 84  1  0
 79 80  1  0
 80 83  1  1
 80 81  1  0
 82 80  1  0
 84 87  1  0
 85 89  1  0
 85 84  1  0
 86 85  2  0
 89 88  1  0
 89 91  1  0
 91 92  1  0
 91 90  1  0
M  ISO  4   8 100  16 100  51 101  52 101
M  END
>  <TORSDO>  (87) 
F 20

>  <SCORE>  (87) 
-9.908

>  <name>  (87) 
86

>  <ligand_id>  (87) 
86

>  <original_smiles>  (87) 
[H]c1c([H])c([H])c2c(c1[H])C([H])([H])C([H])([H])C([H])([H])C2([H])N([H])C(=O)C1([H])N(C(=O)C([H])(N([H])C(=O)C([H])(N([H])C([H])([H])[H])C([H])([H])[H])C(C([H])([H])[H])(C([H])([H])[H])C([H])([H])[H])C([H])([H])c2c([H])c(OC([H])(C([H])([H])[H])C([H])([H])C([H])([H])c3c([H])c(N([H])C(=O)N4C([H])([H])C([H])([H])C([H])([H])C([H])(n5nc(-c6c([H])c([H])c(Oc7c([H])c([H])c(F)c([H])c7F)c([H])c6[H])c(C(=O)N([H])[H])c5N([H])[H])C4([H])[H])c([H])c(OC([H])([H])[H])c3C([H])([H])[H])c([H])c([H])c2C1([H])[H]

>  <smiles>  (87) 
[H]c1c([H])c([H])c2c(c1[H])C([H])([H])C([H])([H])C([H])([H])C2([H])N([H])C(=O)C1([H])N(C(=O)C([H])(N([H])C(=O)C([H])(N([H])C([H])([H])[H])C([H])([H])[H])C(C([H])([H])[H])(C([H])([H])[H])C([H])([H])[H])C([H])([H])c2c([H])c(OC([H])(C([H])([H])[H])C([H])([H])C([H])([H])c3c([H])c(N([H])C(=O)N4C([H])([H])C([H])([H])C([H])([H])C([H])(n5nc(-c6c([H])c([H])c(Oc7c([H])c([H])c(F)c([H])c7F)c([H])c6[H])c(C(=O)N([H])[H])c5N([H])[H])C4([H])[H])c([H])c(OC([H])([H])[H])c3C([H])([H])[H])c([H])c([H])c2C1([H])[H]

$$$$
87:0:0
     RDKit          3D

 95103  0  0  1  0  0  0  0  0999 V2000
  -28.4880  -21.5150   20.5700 C   0  0  0  0  0  3  0  0  0  0  0  0
  -30.1900  -22.7760   19.9510 C   0  0  0  0  0  3  0  0  0  0  0  0
  -29.5970  -20.6870   20.6100 C   0  0  0  0  0  0  0  0  0  0  0  0
  -30.7100  -21.5250   20.2070 C   0  0  0  0  0  0  0  0  0  0  0  0
  -28.8380  -22.8100   20.2000 N   0  0  0  0  0  0  0  0  0  0  0  0
  -33.0250  -22.5000   20.4420 C   0  0  0  0  0  1  0  0  0  0  0  0
  -32.5240  -20.8590   18.6270 C   0  0  0  0  0  1  0  0  0  0  0  0
  -32.7170  -20.1120   21.0170 C   0  0  0  0  0  1  0  0  0  0  0  0
  -32.2140  -21.2320   20.0850 C   0  0  2  0  0  0  0  0  0  0  0  0
  -29.5790  -19.2330   21.1740 C   0  0  0  0  0  2  0  0  0  0  0  0
  -28.1520  -17.6040   19.8810 C   0  0  0  0  0  1  0  0  0  0  0  0
  -30.4140  -18.1470   18.9560 C   0  0  0  0  0  1  0  0  0  0  0  0
  -29.6110  -17.9380   20.2540 C   0  0  1  0  0  0  0  0  0  0  0  0
  -30.2540  -16.7240   21.0430 C   0  0  0  0  0  2  0  0  0  0  0  0
  -30.6050  -14.3480   20.0740 C   0  0  0  0  0  0  0  0  0  0  0  0
  -30.3360  -12.1350   18.9790 C   0  0  0  0  0  2  0  0  0  0  0  0
  -29.3130  -12.2330   17.8280 C   0  0  0  0  0  2  0  0  0  0  0  0
  -27.8700  -12.0780   18.3490 C   0  0  0  0  0  2  0  0  0  0  0  0
  -27.5800  -12.9560   19.5930 C   0  0  0  0  0  3  0  0  0  0  0  0
  -28.6970  -12.8000   20.6450 C   0  0  0  0  0  2  0  0  0  0  0  0
  -29.9740  -13.1410   19.9930 N   0  0  0  0  0  0  0  0  0  0  0  0
  -31.7170  -14.5490   19.5740 O   0  0  0  0  0  0  0  0  0  0  0  0
  -29.8800  -15.3400   20.6420 N   0  0  0  0  0  0  0  0  0  0  0  0
  -28.9680  -15.0430   20.9600 H   0  0  0  0  0  0  0  0  0  0  0  0
  -25.2290  -13.5700   20.4380 C   0  0  0  0  0  0  0  0  0  0  0  0
  -24.1830  -12.8030   20.8750 C   0  0  0  0  0  0  0  0  0  0  0  0
  -24.6360  -11.4500   20.8190 C   0  0  0  0  0  0  0  0  0  0  0  0
  -26.2570  -12.6850   20.1490 N   0  0  0  0  0  0  0  0  0  0  0  0
  -25.9070  -11.4040   20.4330 N   0  0  0  0  0  0  0  0  0  0  0  0
  -23.9180  -10.1900   21.0560 C   0  0  0  0  0  0  0  0  0  0  0  0
  -24.3580   -9.2620   22.0240 C   0  0  0  0  0  3  0  0  0  0  0  0
  -23.6420   -8.0650   22.2450 C   0  0  0  0  0  3  0  0  0  0  0  0
  -22.4720   -7.7890   21.4970 C   0  0  0  0  0  0  0  0  0  0  0  0
  -22.0530   -8.7080   20.5190 C   0  0  0  0  0  3  0  0  0  0  0  0
  -22.7690   -9.8960   20.2960 C   0  0  0  0  0  3  0  0  0  0  0  0
  -21.7270   -6.6420   21.6280 O   0  0  0  0  0  0  0  0  0  0  0  0
  -21.6440   -5.9710   22.8200 C   0  0  0  0  0  0  0  0  0  0  0  0
  -21.1280   -6.5820   23.9850 C   0  0  0  0  0  3  0  0  0  0  0  0
  -20.9900   -5.8320   25.1710 C   0  0  0  0  0  3  0  0  0  0  0  0
  -21.3600   -4.4750   25.1950 C   0  0  0  0  0  0  0  0  0  0  0  0
  -21.8700   -3.8640   24.0350 C   0  0  0  0  0  3  0  0  0  0  0  0
  -22.0070   -4.6100   22.8510 C   0  0  0  0  0  0  0  0  0  0  0  0
  -22.4780   -4.0090   21.7300 F   0  0  0  0  0  0  0  0  0  0  0  0
  -21.2230   -3.7530   26.3310 F   0  0  0  0  0  0  0  0  0  0  0  0
  -22.8070  -13.2860   21.2300 C   0  0  0  0  0  0  0  0  0  0  0  0
  -22.1250  -12.5940   22.1360 N   0  0  0  0  0  0  0  0  0  0  0  0
  -22.3460  -14.3140   20.7360 O   0  0  0  0  0  0  0  0  0  0  0  0
  -22.5090  -11.7650   22.5650 H   0  0  0  0  0  0  0  0  0  0  0  0
  -21.2040  -12.9090   22.4070 H   0  0  0  0  0  0  0  0  0  0  0  0
  -25.3900  -14.9400   20.2460 N   0  0  0  0  0  0  0  0  0  0  0  0
  -24.6390  -15.6060   20.3950 H   0  0  0  0  0  0  0  0  0  0  0  0
  -26.2140  -15.3680   19.8430 H   0  0  0  0  0  0  0  0  0  0  0  0
  -27.9650  -24.0150   20.2100 C   0  0  0  0  0  2  0  0  0  0  0  0
  -28.3780  -25.2430   19.3190 C   0  0  0  0  0  2  0  0  0  0  0  0
  -28.3190  -26.5620   19.9340 O   0  0  0  0  0  0  0  0  0  0  0  0
  -24.6210  -31.7730   23.1440 C   0  0  0  0  0  0  0  0  0  0  0  0
  -27.1480  -27.3120   19.9410 C   0  0  0  0  0  0  0  0  0  0  0  0
  -23.3710  -30.4140   21.5000 C   0  0  0  0  0  3  0  0  0  0  0  0
  -24.7770  -28.8810   20.0240 C   0  0  0  0  0  0  0  0  0  0  0  0
  -25.9000  -30.7370   21.2650 C   0  0  0  0  0  2  0  0  0  0  0  0
  -25.9570  -29.3730   20.5970 C   0  0  0  0  0  0  0  0  0  0  0  0
  -27.1420  -28.5990   20.5460 C   0  0  0  0  0  3  0  0  0  0  0  0
  -25.9400  -26.8410   19.3790 C   0  0  0  0  0  3  0  0  0  0  0  0
  -24.7680  -27.6170   19.4150 C   0  0  0  0  0  3  0  0  0  0  0  0
  -23.5480  -29.7560   20.1070 C   0  0  0  0  0  2  0  0  0  0  0  0
  -24.6510  -30.9900   22.0270 N   0  0  0  0  0  0  0  0  0  0  0  0
  -23.5530  -32.0470   23.7100 O   0  0  0  0  0  0  0  0  0  0  0  0
  -22.7210  -29.3850   22.4550 C   0  0  0  0  0  0  0  0  0  0  0  0
  -21.3980  -29.1940   22.3190 N   0  0  0  0  0  0  0  0  0  0  0  0
  -23.4040  -28.7650   23.2740 O   0  0  0  0  0  0  0  0  0  0  0  0
  -20.9120  -29.7470   21.6260 H   0  0  0  0  0  0  0  0  0  0  0  0
  -18.0400  -27.9340   22.7700 C   0  0  0  0  0  0  0  0  0  0  0  0
  -20.5860  -28.2480   23.0840 C   0  0  0  0  0  3  0  0  0  0  0  0
  -20.7270  -26.8130   22.5270 C   0  0  0  0  0  2  0  0  0  0  0  0
  -19.6490  -26.4570   21.4970 C   0  0  0  0  0  2  0  0  0  0  0  0
  -18.2540  -26.5810   22.1130 C   0  0  0  0  0  2  0  0  0  0  0  0
  -19.1340  -28.7230   23.2130 C   0  0  0  0  0  0  0  0  0  0  0  0
  -18.8780  -29.9870   23.7880 C   0  0  0  0  0  3  0  0  0  0  0  0
  -17.5610  -30.4630   23.9250 C   0  0  0  0  0  3  0  0  0  0  0  0
  -16.4810  -29.6730   23.4970 C   0  0  0  0  0  3  0  0  0  0  0  0
  -16.7210  -28.4090   22.9270 C   0  0  0  0  0  3  0  0  0  0  0  0
  -25.9250  -32.3820   23.7490 C   0  0  0  0  0  3  0  0  0  0  0  0
  -25.6340  -33.7750   24.1110 N   0  0  0  0  0  0  0  0  0  0  0  0
  -25.9520  -34.8390   23.3600 C   0  0  0  0  0  0  0  0  0  0  0  0
  -26.5930  -34.7500   22.3090 O   0  0  0  0  0  0  0  0  0  0  0  0
  -25.0620  -33.9150   24.9300 H   0  0  0  0  0  0  0  0  0  0  0  0
  -24.2270  -36.6500   23.0880 C   0  0  0  0  0  1  0  0  0  0  0  0
  -25.4890  -36.2240   23.8550 C   0  0  0  0  0  3  0  0  0  0  0  0
  -27.6510  -37.0860   24.6390 C   0  0  0  0  0  1  0  0  0  0  0  0
  -26.5270  -37.2720   23.7260 N   0  0  0  0  0  0  0  0  0  0  0  0
  -26.1300  -38.1930   23.8950 H   0  0  0  0  0  0  0  0  0  0  0  0
  -26.4590  -31.5810   25.0000 C   0  0  1  0  0  0  0  0  0  0  0  0
  -25.3830  -31.3320   26.0820 C   0  0  0  0  0  1  0  0  0  0  0  0
  -27.0240  -30.2090   24.5690 C   0  0  0  0  0  1  0  0  0  0  0  0
  -27.6320  -32.3530   25.6510 C   0  0  0  0  0  1  0  0  0  0  0  0
  1  3  2  0
  2  5  1  0
  2  4  2  0
  3 10  1  0
  4  3  1  0
  5 53  1  0
  5  1  1  0
  9  7  1  6
  9  4  1  0
  9  6  1  0
  9  8  1  0
 13 11  1  6
 12 13  1  0
 13 14  1  0
 13 10  1  0
 15 23  1  0
 16 21  1  0
 17 18  1  0
 17 16  1  0
 19 18  1  0
 19 28  1  0
 19 20  1  0
 21 15  1  0
 21 20  1  0
 22 15  2  0
 23 24  1  0
 23 14  1  0
 25 26  2  0
 26 45  1  0
 27 26  1  0
 27 30  1  0
 28 29  1  0
 28 25  1  0
 29 27  2  0
 30 31  1  0
 31 32  2  0
 33 36  1  0
 33 32  1  0
 34 33  2  0
 35 34  1  0
 35 30  2  0
 36 37  1  0
 37 42  2  0
 37 38  1  0
 38 39  2  0
 39 40  1  0
 40 44  1  0
 41 40  2  0
 42 41  1  0
 43 42  1  0
 45 46  1  0
 46 49  1  0
 46 48  1  0
 47 45  2  0
 50 51  1  0
 50 25  1  0
 52 50  1  0
 54 55  1  0
 54 53  1  0
 55 57  1  0
 56 67  2  0
 57 62  1  0
 58 66  1  0
 58 68  1  0
 59 65  1  0
 59 61  1  0
 60 66  1  0
 61 60  1  0
 62 61  2  0
 63 64  1  0
 63 57  2  0
 64 59  2  0
 65 58  1  0
 66 56  1  0
 68 70  2  0
 69 68  1  0
 71 69  1  0
 72 81  2  0
 72 77  1  0
 73 69  1  0
 73 77  1  0
 74 73  1  0
 75 76  1  0
 75 74  1  0
 76 72  1  0
 77 78  2  0
 78 79  1  0
 80 79  2  0
 81 80  1  0
 82 56  1  0
 82 83  1  0
 82 92  1  0
 83 86  1  0
 84 88  1  0
 84 83  1  0
 85 84  2  0
 88 87  1  0
 90 88  1  0
 90 91  1  0
 90 89  1  0
 92 95  1  1
 92 93  1  0
 94 92  1  0
M  ISO  4  15 100  23 100  54 101  55 101
M  END
>  <TORSDO>  (88) 
F 22

>  <SCORE>  (88) 
-12.654

>  <name>  (88) 
87

>  <ligand_id>  (88) 
87

>  <original_smiles>  (88) 
[H]c1c([H])c([H])c2c(c1[H])C([H])([H])C([H])([H])C([H])([H])C2([H])N([H])C(=O)C1([H])N(C(=O)C([H])(N([H])C(=O)C([H])(N([H])C([H])([H])[H])C([H])([H])[H])C(C([H])([H])[H])(C([H])([H])[H])C([H])([H])[H])C([H])([H])c2c([H])c(OC([H])([H])C([H])([H])n3c([H])c(C([H])([H])C(C([H])([H])[H])(C([H])([H])[H])C([H])([H])N([H])C(=O)N4C([H])([H])C([H])([H])C([H])([H])C([H])(n5nc(-c6c([H])c([H])c(Oc7c([H])c([H])c(F)c([H])c7F)c([H])c6[H])c(C(=O)N([H])[H])c5N([H])[H])C4([H])[H])c(C(C([H])([H])[H])(C([H])([H])[H])C([H])([H])[H])c3[H])c([H])c([H])c2C1([H])[H]

>  <smiles>  (88) 
[H]c1c([H])c([H])c2c(c1[H])C([H])([H])C([H])([H])C([H])([H])C2([H])N([H])C(=O)C1([H])N(C(=O)C([H])(N([H])C(=O)C([H])(N([H])C([H])([H])[H])C([H])([H])[H])C(C([H])([H])[H])(C([H])([H])[H])C([H])([H])[H])C([H])([H])c2c([H])c(OC([H])([H])C([H])([H])n3c([H])c(C([H])([H])C(C([H])([H])[H])(C([H])([H])[H])C([H])([H])N([H])C(=O)N4C([H])([H])C([H])([H])C([H])([H])C([H])(n5nc(-c6c([H])c([H])c(Oc7c([H])c([H])c(F)c([H])c7F)c([H])c6[H])c(C(=O)N([H])[H])c5N([H])[H])C4([H])[H])c(C(C([H])([H])[H])(C([H])([H])[H])C([H])([H])[H])c3[H])c([H])c([H])c2C1([H])[H]

$$$$
88:0:0
     RDKit          3D

 93101  0  0  1  0  0  0  0  0999 V2000
  -30.9820  -21.8670   19.0250 C   0  0  0  0  0  3  0  0  0  0  0  0
  -29.9410  -21.3000   19.7180 C   0  0  0  0  0  0  0  0  0  0  0  0
  -31.2000  -19.6870   18.7220 C   0  0  0  0  0  3  0  0  0  0  0  0
  -30.1720  -19.8660   19.6020 N   0  0  0  0  0  0  0  0  0  0  0  0
  -31.7030  -20.8860   18.4430 N   0  0  0  0  0  0  0  0  0  0  0  0
  -32.5010  -21.0580   17.8440 H   0  0  0  0  0  0  0  0  0  0  0  0
  -33.2690  -18.3460   18.0770 C   0  0  0  0  0  1  0  0  0  0  0  0
  -31.2150  -18.3070   16.5720 C   0  0  0  0  0  1  0  0  0  0  0  0
  -31.7300  -18.4480   18.0170 C   0  0  0  0  0  3  0  0  0  0  0  0
  -28.8650  -22.2480   20.3720 C   0  0  0  0  0  2  0  0  0  0  0  0
  -28.9720  -23.8300   19.9520 C   0  0  0  0  0  3  0  0  0  0  0  0
  -28.1310  -25.0060   20.6530 C   0  0  0  0  0  3  0  0  0  0  0  0
  -28.3500  -26.4340   20.2440 O   0  0  0  0  0  0  0  0  0  0  0  0
  -24.6100  -31.8830   23.2260 C   0  0  0  0  0  0  0  0  0  0  0  0
  -27.2460  -27.3070   20.2080 C   0  0  0  0  0  0  0  0  0  0  0  0
  -23.4210  -30.4810   21.5780 C   0  0  0  0  0  3  0  0  0  0  0  0
  -24.8850  -28.9280   20.1690 C   0  0  0  0  0  0  0  0  0  0  0  0
  -25.9630  -30.8050   21.4130 C   0  0  0  0  0  2  0  0  0  0  0  0
  -26.0520  -29.4230   20.7680 C   0  0  0  0  0  0  0  0  0  0  0  0
  -27.2400  -28.6260   20.7700 C   0  0  0  0  0  3  0  0  0  0  0  0
  -26.0590  -26.8750   19.5790 C   0  0  0  0  0  3  0  0  0  0  0  0
  -24.8930  -27.6600   19.5660 C   0  0  0  0  0  3  0  0  0  0  0  0
  -23.6460  -29.7980   20.2030 C   0  0  0  0  0  2  0  0  0  0  0  0
  -24.6830  -31.0740   22.1290 N   0  0  0  0  0  0  0  0  0  0  0  0
  -23.5210  -32.1590   23.7520 O   0  0  0  0  0  0  0  0  0  0  0  0
  -22.7500  -29.4670   22.5370 C   0  0  0  0  0  0  0  0  0  0  0  0
  -21.4260  -29.2820   22.3960 N   0  0  0  0  0  0  0  0  0  0  0  0
  -23.4230  -28.8480   23.3640 O   0  0  0  0  0  0  0  0  0  0  0  0
  -20.9410  -29.8390   21.7070 H   0  0  0  0  0  0  0  0  0  0  0  0
  -18.0500  -28.0660   22.8600 C   0  0  0  0  0  0  0  0  0  0  0  0
  -20.6030  -28.3410   23.1620 C   0  0  0  0  0  3  0  0  0  0  0  0
  -20.7200  -26.9080   22.5970 C   0  0  0  0  0  2  0  0  0  0  0  0
  -19.6350  -26.5740   21.5680 C   0  0  0  0  0  2  0  0  0  0  0  0
  -18.2440  -26.7150   22.1940 C   0  0  0  0  0  2  0  0  0  0  0  0
  -19.1590  -28.8380   23.2990 C   0  0  0  0  0  0  0  0  0  0  0  0
  -18.9230  -30.1030   23.8800 C   0  0  0  0  0  3  0  0  0  0  0  0
  -17.6130  -30.5940   24.0300 C   0  0  0  0  0  3  0  0  0  0  0  0
  -16.5190  -29.8210   23.6060 C   0  0  0  0  0  3  0  0  0  0  0  0
  -16.7400  -28.5580   23.0260 C   0  0  0  0  0  3  0  0  0  0  0  0
  -25.8860  -32.5190   23.8590 C   0  0  0  0  0  3  0  0  0  0  0  0
  -25.5700  -33.9170   24.1840 N   0  0  0  0  0  0  0  0  0  0  0  0
  -25.9060  -34.9700   23.4270 C   0  0  0  0  0  0  0  0  0  0  0  0
  -26.5810  -34.8670   22.4000 O   0  0  0  0  0  0  0  0  0  0  0  0
  -24.9640  -34.0700   24.9760 H   0  0  0  0  0  0  0  0  0  0  0  0
  -24.1780  -36.7650   23.0690 C   0  0  0  0  0  1  0  0  0  0  0  0
  -25.4160  -36.3590   23.8830 C   0  0  0  0  0  3  0  0  0  0  0  0
  -27.5470  -37.2480   24.7190 C   0  0  0  0  0  1  0  0  0  0  0  0
  -26.4470  -37.4130   23.7720 N   0  0  0  0  0  0  0  0  0  0  0  0
  -26.0390  -38.3330   23.9180 H   0  0  0  0  0  0  0  0  0  0  0  0
  -26.3920  -31.7530   25.1430 C   0  0  1  0  0  0  0  0  0  0  0  0
  -25.2890  -31.5210   26.2020 C   0  0  0  0  0  1  0  0  0  0  0  0
  -26.9770  -30.3720   24.7650 C   0  0  0  0  0  1  0  0  0  0  0  0
  -27.5350  -32.5480   25.8100 C   0  0  0  0  0  1  0  0  0  0  0  0
  -29.4600  -18.5800   20.0990 C   0  0  0  0  0  2  0  0  0  0  0  0
  -30.3010  -17.3660   20.8000 C   0  0  0  0  0  2  0  0  0  0  0  0
  -30.6060  -14.7520   20.4230 C   0  0  0  0  0  0  0  0  0  0  0  0
  -30.3880  -12.4940   19.3690 C   0  0  0  0  0  2  0  0  0  0  0  0
  -29.4490  -12.5800   18.1460 C   0  0  0  0  0  2  0  0  0  0  0  0
  -27.9800  -12.4050   18.5720 C   0  0  0  0  0  2  0  0  0  0  0  0
  -27.6050  -13.2740   19.8030 C   0  0  0  0  0  3  0  0  0  0  0  0
  -28.6620  -13.1780   20.9230 C   0  0  0  0  0  2  0  0  0  0  0  0
  -29.9570  -13.5380   20.3290 N   0  0  0  0  0  0  0  0  0  0  0  0
  -31.7990  -14.8400   20.1240 O   0  0  0  0  0  0  0  0  0  0  0  0
  -29.8590  -15.9000   20.6500 N   0  0  0  0  0  0  0  0  0  0  0  0
  -28.8760  -15.7290   20.7980 H   0  0  0  0  0  0  0  0  0  0  0  0
  -25.2120  -13.8520   20.5150 C   0  0  0  0  0  0  0  0  0  0  0  0
  -24.1480  -13.0720   20.8840 C   0  0  0  0  0  0  0  0  0  0  0  0
  -24.6190  -11.7250   20.8600 C   0  0  0  0  0  0  0  0  0  0  0  0
  -26.2600  -12.9770   20.2870 N   0  0  0  0  0  0  0  0  0  0  0  0
  -25.9110  -11.6920   20.5550 N   0  0  0  0  0  0  0  0  0  0  0  0
  -23.8960  -10.4590   21.0480 C   0  0  0  0  0  0  0  0  0  0  0  0
  -24.3300   -9.4960   21.9840 C   0  0  0  0  0  3  0  0  0  0  0  0
  -23.6110   -8.2940   22.1620 C   0  0  0  0  0  3  0  0  0  0  0  0
  -22.4430   -8.0500   21.4040 C   0  0  0  0  0  0  0  0  0  0  0  0
  -22.0270   -9.0010   20.4570 C   0  0  0  0  0  3  0  0  0  0  0  0
  -22.7480  -10.1950   20.2770 C   0  0  0  0  0  3  0  0  0  0  0  0
  -21.6930   -6.9010   21.4910 O   0  0  0  0  0  0  0  0  0  0  0  0
  -21.6460   -6.1550   22.6410 C   0  0  0  0  0  0  0  0  0  0  0  0
  -21.2170   -6.7060   23.8690 C   0  0  0  0  0  3  0  0  0  0  0  0
  -21.1190   -5.8860   25.0110 C   0  0  0  0  0  3  0  0  0  0  0  0
  -21.4420   -4.5180   24.9260 C   0  0  0  0  0  0  0  0  0  0  0  0
  -21.8660   -3.9690   23.7040 C   0  0  0  0  0  3  0  0  0  0  0  0
  -21.9640   -4.7840   22.5640 C   0  0  0  0  0  0  0  0  0  0  0  0
  -22.3530   -4.2450   21.3830 F   0  0  0  0  0  0  0  0  0  0  0  0
  -21.3410   -3.7290   26.0220 F   0  0  0  0  0  0  0  0  0  0  0  0
  -22.7480  -13.5430   21.1480 C   0  0  0  0  0  0  0  0  0  0  0  0
  -22.0200  -12.8430   22.0110 N   0  0  0  0  0  0  0  0  0  0  0  0
  -22.3090  -14.5660   20.6260 O   0  0  0  0  0  0  0  0  0  0  0  0
  -22.3890  -12.0130   22.4510 H   0  0  0  0  0  0  0  0  0  0  0  0
  -21.0790  -13.1390   22.2310 H   0  0  0  0  0  0  0  0  0  0  0  0
  -25.3670  -15.2220   20.3330 N   0  0  0  0  0  0  0  0  0  0  0  0
  -24.5850  -15.8630   20.4160 H   0  0  0  0  0  0  0  0  0  0  0  0
  -26.1980  -15.6610   19.9600 H   0  0  0  0  0  0  0  0  0  0  0  0
  1  2  2  0
  2 10  1  0
  3  9  1  0
  3  4  1  0
  4  2  1  0
  4 54  1  0
  5  3  1  0
  5  1  1  0
  6  5  1  0
  8  9  1  0
  9  7  1  0
 11 10  1  0
 11 12  2  0
 13 12  1  0
 14 25  2  0
 15 13  1  0
 15 20  1  0
 16 24  1  0
 16 26  1  0
 17 23  1  0
 17 19  1  0
 18 24  1  0
 19 20  2  0
 19 18  1  0
 21 15  2  0
 22 21  1  0
 22 17  2  0
 23 16  1  0
 24 14  1  0
 26 28  2  0
 27 26  1  0
 29 27  1  0
 30 39  2  0
 30 35  1  0
 31 27  1  0
 31 35  1  0
 32 31  1  0
 33 34  1  0
 33 32  1  0
 34 30  1  0
 35 36  2  0
 36 37  1  0
 38 37  2  0
 39 38  1  0
 40 14  1  0
 40 41  1  0
 40 50  1  0
 41 44  1  0
 42 46  1  0
 42 41  1  0
 43 42  2  0
 46 45  1  0
 48 46  1  0
 48 49  1  0
 48 47  1  0
 50 53  1  1
 50 51  1  0
 52 50  1  0
 54 55  1  0
 56 64  1  0
 57 62  1  0
 58 59  1  0
 58 57  1  0
 60 59  1  0
 60 69  1  0
 60 61  1  0
 62 56  1  0
 62 61  1  0
 63 56  2  0
 64 65  1  0
 64 55  1  0
 66 67  2  0
 67 86  1  0
 68 67  1  0
 68 71  1  0
 69 66  1  0
 69 70  1  0
 70 68  2  0
 71 72  1  0
 72 73  2  0
 74 77  1  0
 74 73  1  0
 75 74  2  0
 76 75  1  0
 76 71  2  0
 77 78  1  0
 78 79  1  0
 79 80  2  0
 81 80  1  0
 81 85  1  0
 82 81  2  0
 83 78  2  0
 83 82  1  0
 84 83  1  0
 86 87  1  0
 87 90  1  0
 87 89  1  0
 88 86  2  0
 91 92  1  0
 91 66  1  0
 93 91  1  0
M  ISO  4  12 101  13 101  56 100  64 100
M  END
>  <TORSDO>  (89) 
F 22

>  <SCORE>  (89) 
-13.126

>  <name>  (89) 
88

>  <ligand_id>  (89) 
88

>  <original_smiles>  (89) 
[H]c1c([H])c([H])c2c(c1[H])C([H])([H])C([H])([H])C([H])([H])C2([H])N([H])C(=O)C1([H])N(C(=O)C([H])(N([H])C(=O)C([H])(N([H])C([H])([H])[H])C([H])([H])[H])C(C([H])([H])[H])(C([H])([H])[H])C([H])([H])[H])C([H])([H])c2c([H])c(OC([H])([H])C([H])([H])C([H])([H])c3c([H])[n+]([H])c(C([H])(C([H])([H])[H])C([H])([H])[H])n3C([H])([H])C([H])([H])N([H])C(=O)N3C([H])([H])C([H])([H])C([H])([H])C([H])(n4nc(-c5c([H])c([H])c(Oc6c([H])c([H])c(F)c([H])c6F)c([H])c5[H])c(C(=O)N([H])[H])c4N([H])[H])C3([H])[H])c([H])c([H])c2C1([H])[H]

>  <smiles>  (89) 
[H]c1c([H])c([H])c2c(c1[H])C([H])([H])C([H])([H])C([H])([H])C2([H])N([H])C(=O)C1([H])N(C(=O)C([H])(N([H])C(=O)C([H])(N([H])C([H])([H])[H])C([H])([H])[H])C(C([H])([H])[H])(C([H])([H])[H])C([H])([H])[H])C([H])([H])c2c([H])c(OC([H])([H])C([H])([H])C([H])([H])c3c([H])[n+]([H])c(C([H])(C([H])([H])[H])C([H])([H])[H])n3C([H])([H])C([H])([H])N([H])C(=O)N3C([H])([H])C([H])([H])C([H])([H])C([H])(n4nc(-c5c([H])c([H])c(Oc6c([H])c([H])c(F)c([H])c6F)c([H])c5[H])c(C(=O)N([H])[H])c4N([H])[H])C3([H])[H])c([H])c([H])c2C1([H])[H]

$$$$
89:0:0
     RDKit          3D

 95103  0  0  1  0  0  0  0  0999 V2000
  -30.5160  -19.9160   20.7500 C   0  0  0  0  0  3  0  0  0  0  0  0
  -28.4650  -20.2930   20.2070 C   0  0  0  0  0  3  0  0  0  0  0  0
  -29.3810  -19.1900   20.2850 C   0  0  0  0  0  0  0  0  0  0  0  0
  -30.3200  -21.2930   20.8610 C   0  0  0  0  0  0  0  0  0  0  0  0
  -28.9770  -21.6300   20.5580 N   0  0  0  0  0  0  0  0  0  0  0  0
  -29.3950  -17.5710   19.7780 C   0  0  0  0  0  2  0  0  0  0  0  0
  -30.2740  -14.9710   20.3050 C   0  0  0  0  0  0  0  0  0  0  0  0
  -30.2430  -12.5760   19.4370 C   0  0  0  0  0  2  0  0  0  0  0  0
  -29.2950  -12.4710   18.2170 C   0  0  0  0  0  2  0  0  0  0  0  0
  -27.8500  -12.2070   18.6770 C   0  0  0  0  0  2  0  0  0  0  0  0
  -27.4300  -13.1310   19.8480 C   0  0  0  0  0  3  0  0  0  0  0  0
  -28.5020  -13.2070   20.9580 C   0  0  0  0  0  2  0  0  0  0  0  0
  -29.7430  -13.6740   20.3270 N   0  0  0  0  0  0  0  0  0  0  0  0
  -31.4460  -15.0640   19.9200 O   0  0  0  0  0  0  0  0  0  0  0  0
  -29.4660  -16.1450   20.5060 N   0  0  0  0  0  0  0  0  0  0  0  0
  -28.5910  -15.9140   20.9510 H   0  0  0  0  0  0  0  0  0  0  0  0
  -25.0610  -13.6390   20.6650 C   0  0  0  0  0  0  0  0  0  0  0  0
  -24.0230  -12.8330   21.0460 C   0  0  0  0  0  0  0  0  0  0  0  0
  -24.5140  -11.4940   20.9710 C   0  0  0  0  0  0  0  0  0  0  0  0
  -26.1140  -12.7890   20.3760 N   0  0  0  0  0  0  0  0  0  0  0  0
  -25.7960  -11.4910   20.6240 N   0  0  0  0  0  0  0  0  0  0  0  0
  -23.8170  -10.2120   21.1530 C   0  0  0  0  0  0  0  0  0  0  0  0
  -24.2840   -9.2400   22.0640 C   0  0  0  0  0  3  0  0  0  0  0  0
  -23.5850   -8.0260   22.2340 C   0  0  0  0  0  3  0  0  0  0  0  0
  -22.4050   -7.7750   21.4950 C   0  0  0  0  0  0  0  0  0  0  0  0
  -21.9580   -8.7380   20.5710 C   0  0  0  0  0  3  0  0  0  0  0  0
  -22.6580   -9.9420   20.3980 C   0  0  0  0  0  3  0  0  0  0  0  0
  -21.6750   -6.6140   21.5750 O   0  0  0  0  0  0  0  0  0  0  0  0
  -21.6640   -5.8470   22.7140 C   0  0  0  0  0  0  0  0  0  0  0  0
  -21.2010   -6.3540   23.9490 C   0  0  0  0  0  3  0  0  0  0  0  0
  -21.1430   -5.5120   25.0770 C   0  0  0  0  0  3  0  0  0  0  0  0
  -21.5380   -4.1640   24.9720 C   0  0  0  0  0  0  0  0  0  0  0  0
  -21.9940   -3.6570   23.7430 C   0  0  0  0  0  3  0  0  0  0  0  0
  -22.0550   -4.4980   22.6160 C   0  0  0  0  0  0  0  0  0  0  0  0
  -22.4740   -3.9980   21.4280 F   0  0  0  0  0  0  0  0  0  0  0  0
  -21.4750   -3.3540   26.0540 F   0  0  0  0  0  0  0  0  0  0  0  0
  -22.6240  -13.2760   21.3630 C   0  0  0  0  0  0  0  0  0  0  0  0
  -21.9330  -12.5450   22.2290 N   0  0  0  0  0  0  0  0  0  0  0  0
  -22.1550  -14.3040   20.8780 O   0  0  0  0  0  0  0  0  0  0  0  0
  -22.3250  -11.7140   22.6460 H   0  0  0  0  0  0  0  0  0  0  0  0
  -20.9950  -12.8240   22.4820 H   0  0  0  0  0  0  0  0  0  0  0  0
  -25.1900  -15.0160   20.5120 N   0  0  0  0  0  0  0  0  0  0  0  0
  -24.4080  -15.6470   20.6540 H   0  0  0  0  0  0  0  0  0  0  0  0
  -26.0080  -15.4800   20.1400 H   0  0  0  0  0  0  0  0  0  0  0  0
  -28.2120  -23.0460   20.7940 C   0  0  0  0  0  2  0  0  0  0  0  0
  -28.2610  -24.5430   19.9480 C   0  0  0  0  0  2  0  0  0  0  0  0
  -28.1820  -26.0490   20.4440 O   0  0  0  0  0  0  0  0  0  0  0  0
  -24.5870  -31.8440   23.2930 C   0  0  0  0  0  0  0  0  0  0  0  0
  -27.1250  -27.0400   20.3100 C   0  0  0  0  0  0  0  0  0  0  0  0
  -23.3820  -30.4540   21.6520 C   0  0  0  0  0  3  0  0  0  0  0  0
  -24.8200  -28.8420   20.2430 C   0  0  0  0  0  0  0  0  0  0  0  0
  -25.9410  -30.6730   21.5080 C   0  0  0  0  0  2  0  0  0  0  0  0
  -25.9990  -29.2720   20.8630 C   0  0  0  0  0  0  0  0  0  0  0  0
  -27.1460  -28.3850   20.8810 C   0  0  0  0  0  3  0  0  0  0  0  0
  -25.9220  -26.7200   19.6460 C   0  0  0  0  0  3  0  0  0  0  0  0
  -24.7980  -27.5820   19.6190 C   0  0  0  0  0  3  0  0  0  0  0  0
  -23.6050  -29.7600   20.2790 C   0  0  0  0  0  2  0  0  0  0  0  0
  -24.6560  -31.0150   22.2060 N   0  0  0  0  0  0  0  0  0  0  0  0
  -23.5010  -32.1470   23.8110 O   0  0  0  0  0  0  0  0  0  0  0  0
  -22.6810  -29.4660   22.6190 C   0  0  0  0  0  0  0  0  0  0  0  0
  -21.3530  -29.3000   22.4730 N   0  0  0  0  0  0  0  0  0  0  0  0
  -23.3350  -28.8510   23.4640 O   0  0  0  0  0  0  0  0  0  0  0  0
  -20.8820  -29.8480   21.7670 H   0  0  0  0  0  0  0  0  0  0  0  0
  -17.9640  -28.1020   22.9260 C   0  0  0  0  0  0  0  0  0  0  0  0
  -20.5170  -28.3750   23.2430 C   0  0  0  0  0  3  0  0  0  0  0  0
  -20.6320  -26.9320   22.6970 C   0  0  0  0  0  2  0  0  0  0  0  0
  -19.5540  -26.5900   21.6650 C   0  0  0  0  0  2  0  0  0  0  0  0
  -18.1580  -26.7420   22.2760 C   0  0  0  0  0  2  0  0  0  0  0  0
  -19.0720  -28.8740   23.3670 C   0  0  0  0  0  0  0  0  0  0  0  0
  -18.8350  -30.1450   23.9350 C   0  0  0  0  0  3  0  0  0  0  0  0
  -17.5260  -30.6420   24.0690 C   0  0  0  0  0  3  0  0  0  0  0  0
  -16.4330  -29.8680   23.6440 C   0  0  0  0  0  3  0  0  0  0  0  0
  -16.6520  -28.5990   23.0780 C   0  0  0  0  0  3  0  0  0  0  0  0
  -25.8680  -32.4690   23.9270 C   0  0  0  0  0  3  0  0  0  0  0  0
  -25.5750  -33.8790   24.2370 N   0  0  0  0  0  0  0  0  0  0  0  0
  -25.9270  -34.9210   23.4720 C   0  0  0  0  0  0  0  0  0  0  0  0
  -26.5960  -34.7960   22.4430 O   0  0  0  0  0  0  0  0  0  0  0  0
  -24.9810  -34.0510   25.0350 H   0  0  0  0  0  0  0  0  0  0  0  0
  -24.2330  -36.7470   23.0960 C   0  0  0  0  0  1  0  0  0  0  0  0
  -25.4630  -36.3240   23.9160 C   0  0  0  0  0  3  0  0  0  0  0  0
  -27.6010  -37.1870   24.7580 C   0  0  0  0  0  1  0  0  0  0  0  0
  -26.5150  -37.3570   23.7990 N   0  0  0  0  0  0  0  0  0  0  0  0
  -26.1220  -38.2860   23.9240 H   0  0  0  0  0  0  0  0  0  0  0  0
  -26.3500  -31.7130   25.2260 C   0  0  1  0  0  0  0  0  0  0  0  0
  -25.2360  -31.5130   26.2800 C   0  0  0  0  0  1  0  0  0  0  0  0
  -26.9180  -30.3190   24.8740 C   0  0  0  0  0  1  0  0  0  0  0  0
  -27.5020  -32.5020   25.8930 C   0  0  0  0  0  1  0  0  0  0  0  0
  -31.4390  -22.2290   21.3130 C   0  0  0  0  0  3  0  0  0  0  0  0
  -31.0660  -23.6340   21.5330 N   0  0  0  0  0  4  0  0  0  0  0  0
  -30.8660  -24.0870   20.6600 H   0  0  0  0  0  0  0  0  0  0  0  0
  -31.8290  -24.1160   21.9750 H   0  0  0  0  0  0  0  0  0  0  0  0
  -30.2740  -23.6880   22.1480 H   0  0  0  0  0  0  0  0  0  0  0  0
  -33.2680  -23.3850   19.7900 C   0  0  0  0  0  1  0  0  0  0  0  0
  -33.8460  -21.3320   21.1480 C   0  0  0  0  0  1  0  0  0  0  0  0
  -32.7200  -22.0850   20.4160 C   0  0  0  0  0  3  0  0  0  0  0  0
  1  4  2  0
  2  3  2  0
  2  5  1  0
  3  1  1  0
  4 88  1  0
  5 45  1  0
  5  4  1  0
  6  3  1  0
  6 15  1  0
  7 13  1  0
  7 15  1  0
  8 13  1  0
  9 10  1  0
  9  8  1  0
 11 10  1  0
 11 20  1  0
 11 12  1  0
 13 12  1  0
 14  7  2  0
 15 16  1  0
 17 18  2  0
 18 37  1  0
 19 18  1  0
 19 22  1  0
 20 21  1  0
 20 17  1  0
 21 19  2  0
 22 23  1  0
 23 24  2  0
 25 28  1  0
 25 24  1  0
 26 25  2  0
 27 26  1  0
 27 22  2  0
 28 29  1  0
 29 30  1  0
 30 31  2  0
 32 31  1  0
 32 36  1  0
 33 32  2  0
 34 29  2  0
 34 33  1  0
 35 34  1  0
 37 38  1  0
 38 41  1  0
 38 40  1  0
 39 37  2  0
 42 43  1  0
 42 17  1  0
 44 42  1  0
 46 47  1  0
 46 45  1  0
 48 59  2  0
 49 47  1  0
 49 54  1  0
 50 58  1  0
 50 60  1  0
 51 57  1  0
 51 53  1  0
 52 58  1  0
 53 54  2  0
 53 52  1  0
 55 49  2  0
 56 55  1  0
 56 51  2  0
 57 50  1  0
 58 48  1  0
 60 62  2  0
 61 60  1  0
 63 61  1  0
 64 73  2  0
 64 69  1  0
 65 61  1  0
 65 69  1  0
 66 65  1  0
 67 68  1  0
 67 66  1  0
 68 64  1  0
 69 70  2  0
 70 71  1  0
 72 71  2  0
 73 72  1  0
 74 48  1  0
 74 75  1  0
 74 84  1  0
 75 78  1  0
 76 80  1  0
 76 75  1  0
 77 76  2  0
 80 79  1  0
 82 80  1  0
 82 83  1  0
 82 81  1  0
 84 87  1  1
 84 85  1  0
 86 84  1  0
 88 95  1  0
 88 89  1  0
 89 91  1  0
 89 92  1  0
 90 89  1  0
 93 95  1  0
 95 94  1  0
M  ISO  4   7 100  15 100  46 101  47 101
M  END
>  <TORSDO>  (90) 
F 22

>  <SCORE>  (90) 
-14.492

>  <name>  (90) 
89

>  <ligand_id>  (90) 
89

>  <original_smiles>  (90) 
[H]c1c([H])c([H])c2c(c1[H])C([H])([H])C([H])([H])C([H])([H])C2([H])N([H])C(=O)C1([H])N(C(=O)C([H])(N([H])C(=O)C([H])(N([H])C([H])([H])[H])C([H])([H])[H])C(C([H])([H])[H])(C([H])([H])[H])C([H])([H])[H])C([H])([H])c2c([H])c(OC([H])([H])C([H])([H])n3c([H])c(C([H])([H])N([H])C(=O)N4C([H])([H])C([H])([H])C([H])([H])C([H])(n5nc(-c6c([H])c([H])c(Oc7c([H])c([H])c(F)c([H])c7F)c([H])c6[H])c(C(=O)N([H])[H])c5N([H])[H])C4([H])[H])c([H])c3C([H])(C([H])(C([H])([H])[H])C([H])([H])[H])[N+]([H])([H])[H])c([H])c([H])c2C1([H])[H]

>  <smiles>  (90) 
[H]c1c([H])c([H])c2c(c1[H])C([H])([H])C([H])([H])C([H])([H])C2([H])N([H])C(=O)C1([H])N(C(=O)C([H])(N([H])C(=O)C([H])(N([H])C([H])([H])[H])C([H])([H])[H])C(C([H])([H])[H])(C([H])([H])[H])C([H])([H])[H])C([H])([H])c2c([H])c(OC([H])([H])C([H])([H])n3c([H])c(C([H])([H])N([H])C(=O)N4C([H])([H])C([H])([H])C([H])([H])C([H])(n5nc(-c6c([H])c([H])c(Oc7c([H])c([H])c(F)c([H])c7F)c([H])c6[H])c(C(=O)N([H])[H])c5N([H])[H])C4([H])[H])c([H])c3C([H])(C([H])(C([H])([H])[H])C([H])([H])[H])[N+]([H])([H])[H])c([H])c([H])c2C1([H])[H]

$$$$
90:0:0
     RDKit          3D

 95103  0  0  1  0  0  0  0  0999 V2000
  -31.1090  -19.1150   19.5600 C   0  0  0  0  0  3  0  0  0  0  0  0
  -30.7720  -20.9490   21.6000 C   0  0  0  0  0  3  0  0  0  0  0  0
  -29.9140  -19.0750   20.3120 C   0  0  0  0  0  3  0  0  0  0  0  0
  -29.6520  -20.4130   20.9550 C   0  0  0  0  0  3  0  0  0  0  0  0
  -32.1330  -19.9980   19.9740 C   0  0  0  0  0  0  0  0  0  0  0  0
  -31.9900  -20.8010   21.0540 N   0  0  0  0  0  0  0  0  0  0  0  0
  -28.6060  -21.6430   20.5880 C   0  0  0  0  0  2  0  0  0  0  0  0
  -28.9910  -23.3130   20.6470 C   0  0  0  0  0  3  0  0  0  0  0  0
  -27.9540  -24.6200   20.3530 C   0  0  0  0  0  3  0  0  0  0  0  0
  -28.2370  -26.1580   20.4770 O   0  0  0  0  0  0  0  0  0  0  0  0
  -24.6250  -31.9410   23.2910 C   0  0  0  0  0  0  0  0  0  0  0  0
  -27.1930  -27.1570   20.3670 C   0  0  0  0  0  0  0  0  0  0  0  0
  -23.4320  -30.5130   21.6760 C   0  0  0  0  0  3  0  0  0  0  0  0
  -24.8870  -28.9220   20.2740 C   0  0  0  0  0  0  0  0  0  0  0  0
  -25.9910  -30.7780   21.5180 C   0  0  0  0  0  2  0  0  0  0  0  0
  -26.0650  -29.3770   20.8830 C   0  0  0  0  0  0  0  0  0  0  0  0
  -27.2220  -28.5120   20.9000 C   0  0  0  0  0  3  0  0  0  0  0  0
  -25.9890  -26.8070   19.7210 C   0  0  0  0  0  3  0  0  0  0  0  0
  -24.8660  -27.6570   19.6690 C   0  0  0  0  0  3  0  0  0  0  0  0
  -23.6570  -29.8110   20.3090 C   0  0  0  0  0  2  0  0  0  0  0  0
  -24.7040  -31.0980   22.2150 N   0  0  0  0  0  0  0  0  0  0  0  0
  -23.5370  -32.2400   23.8060 O   0  0  0  0  0  0  0  0  0  0  0  0
  -22.7440  -29.5260   22.6540 C   0  0  0  0  0  0  0  0  0  0  0  0
  -21.4190  -29.3460   22.5170 N   0  0  0  0  0  0  0  0  0  0  0  0
  -23.4070  -28.9260   23.5030 O   0  0  0  0  0  0  0  0  0  0  0  0
  -20.9400  -29.8790   21.8060 H   0  0  0  0  0  0  0  0  0  0  0  0
  -18.0350  -28.1320   22.9780 C   0  0  0  0  0  0  0  0  0  0  0  0
  -20.5870  -28.4240   23.2950 C   0  0  0  0  0  3  0  0  0  0  0  0
  -20.7130  -26.9740   22.7640 C   0  0  0  0  0  2  0  0  0  0  0  0
  -19.6360  -26.6120   21.7380 C   0  0  0  0  0  2  0  0  0  0  0  0
  -18.2390  -26.7660   22.3460 C   0  0  0  0  0  2  0  0  0  0  0  0
  -19.1360  -28.9190   23.4080 C   0  0  0  0  0  0  0  0  0  0  0  0
  -18.8880  -30.2010   23.9500 C   0  0  0  0  0  3  0  0  0  0  0  0
  -17.5720  -30.6850   24.0760 C   0  0  0  0  0  3  0  0  0  0  0  0
  -16.4860  -29.8940   23.6660 C   0  0  0  0  0  3  0  0  0  0  0  0
  -16.7190  -28.6190   23.1190 C   0  0  0  0  0  3  0  0  0  0  0  0
  -25.9020  -32.5840   23.9120 C   0  0  0  0  0  3  0  0  0  0  0  0
  -25.5990  -33.9910   24.2170 N   0  0  0  0  0  0  0  0  0  0  0  0
  -25.9420  -35.0310   23.4430 C   0  0  0  0  0  0  0  0  0  0  0  0
  -26.6110  -34.9090   22.4140 O   0  0  0  0  0  0  0  0  0  0  0  0
  -25.0050  -34.1690   25.0150 H   0  0  0  0  0  0  0  0  0  0  0  0
  -24.2320  -36.8330   23.0600 C   0  0  0  0  0  1  0  0  0  0  0  0
  -25.4670  -36.4300   23.8830 C   0  0  0  0  0  3  0  0  0  0  0  0
  -27.6010  -37.3080   24.7190 C   0  0  0  0  0  1  0  0  0  0  0  0
  -26.5100  -37.4720   23.7610 N   0  0  0  0  0  0  0  0  0  0  0  0
  -26.1070  -38.3970   23.8960 H   0  0  0  0  0  0  0  0  0  0  0  0
  -26.4040  -31.8400   25.2080 C   0  0  1  0  0  0  0  0  0  0  0  0
  -25.2990  -31.6250   26.2670 C   0  0  0  0  0  1  0  0  0  0  0  0
  -26.9850  -30.4540   24.8520 C   0  0  0  0  0  1  0  0  0  0  0  0
  -27.5570  -32.6420   25.8630 C   0  0  0  0  0  1  0  0  0  0  0  0
  -29.9810  -17.5980   21.0480 C   0  0  0  0  0  2  0  0  0  0  0  0
  -30.6030  -14.9870   20.3010 C   0  0  0  0  0  0  0  0  0  0  0  0
  -30.4720  -12.6660   19.2630 C   0  0  0  0  0  2  0  0  0  0  0  0
  -29.5140  -12.6480   18.0520 C   0  0  0  0  0  2  0  0  0  0  0  0
  -28.0530  -12.4470   18.4940 C   0  0  0  0  0  2  0  0  0  0  0  0
  -27.6690  -13.3410   19.6990 C   0  0  0  0  0  3  0  0  0  0  0  0
  -28.7410  -13.3130   20.8070 C   0  0  0  0  0  2  0  0  0  0  0  0
  -29.9990  -13.7390   20.1820 N   0  0  0  0  0  0  0  0  0  0  0  0
  -31.8190  -15.0580   20.1030 O   0  0  0  0  0  0  0  0  0  0  0  0
  -29.8060  -16.1560   20.4350 N   0  0  0  0  0  0  0  0  0  0  0  0
  -28.8260  -15.9730   20.2730 H   0  0  0  0  0  0  0  0  0  0  0  0
  -25.2910  -13.9060   20.4530 C   0  0  0  0  0  0  0  0  0  0  0  0
  -24.2310  -13.1220   20.8280 C   0  0  0  0  0  0  0  0  0  0  0  0
  -24.7050  -11.7800   20.7980 C   0  0  0  0  0  0  0  0  0  0  0  0
  -26.3360  -13.0330   20.2070 N   0  0  0  0  0  0  0  0  0  0  0  0
  -25.9960  -11.7490   20.4830 N   0  0  0  0  0  0  0  0  0  0  0  0
  -23.9860  -10.5120   20.9950 C   0  0  0  0  0  0  0  0  0  0  0  0
  -24.4190   -9.5610   21.9430 C   0  0  0  0  0  3  0  0  0  0  0  0
  -23.7080   -8.3570   22.1310 C   0  0  0  0  0  3  0  0  0  0  0  0
  -22.5470   -8.0960   21.3680 C   0  0  0  0  0  0  0  0  0  0  0  0
  -22.1290   -9.0340   20.4080 C   0  0  0  0  0  3  0  0  0  0  0  0
  -22.8410  -10.2310   20.2220 C   0  0  0  0  0  3  0  0  0  0  0  0
  -21.8070   -6.9420   21.4640 O   0  0  0  0  0  0  0  0  0  0  0  0
  -21.7340   -6.2210   22.6280 C   0  0  0  0  0  0  0  0  0  0  0  0
  -21.2450   -6.7860   23.8220 C   0  0  0  0  0  3  0  0  0  0  0  0
  -21.1270   -5.9910   24.9800 C   0  0  0  0  0  3  0  0  0  0  0  0
  -21.4840   -4.6300   24.9370 C   0  0  0  0  0  0  0  0  0  0  0  0
  -21.9570   -4.0610   23.7420 C   0  0  0  0  0  3  0  0  0  0  0  0
  -22.0780   -4.8540   22.5870 C   0  0  0  0  0  0  0  0  0  0  0  0
  -22.5210   -4.3000   21.4330 F   0  0  0  0  0  0  0  0  0  0  0  0
  -21.3590   -3.8610   26.0430 F   0  0  0  0  0  0  0  0  0  0  0  0
  -22.8330  -13.5900   21.1030 C   0  0  0  0  0  0  0  0  0  0  0  0
  -22.1150  -12.8890   21.9730 N   0  0  0  0  0  0  0  0  0  0  0  0
  -22.3860  -14.6070   20.5810 O   0  0  0  0  0  0  0  0  0  0  0  0
  -22.4960  -12.0660   22.4140 H   0  0  0  0  0  0  0  0  0  0  0  0
  -21.1730  -13.1820   22.1940 H   0  0  0  0  0  0  0  0  0  0  0  0
  -25.4450  -15.2740   20.2720 N   0  0  0  0  0  0  0  0  0  0  0  0
  -24.6700  -15.9220   20.3530 H   0  0  0  0  0  0  0  0  0  0  0  0
  -26.2760  -15.7110   19.9040 H   0  0  0  0  0  0  0  0  0  0  0  0
  -33.4010  -20.2070   19.1300 C   0  0  0  0  0  3  0  0  0  0  0  0
  -34.8500  -18.3350   20.1910 C   0  0  0  0  0  1  0  0  0  0  0  0
  -35.1720  -20.7270   21.0040 C   0  0  0  0  0  1  0  0  0  0  0  0
  -34.7540  -19.8310   19.8120 C   0  0  0  0  0  3  0  0  0  0  0  0
  -34.3620  -22.0530   17.4730 C   0  0  0  0  0  1  0  0  0  0  0  0
  -33.3450  -21.6530   18.5470 C   0  0  0  0  0  2  0  0  0  0  0  0
  1  5  2  0
  1  3  1  0
  3  4  1  0
  3 51  1  0
  4  7  1  0
  4  2  1  0
  5  6  1  0
  6  2  2  0
  7  8  1  0
  9 10  1  0
  9  8  2  0
 11 22  2  0
 12 10  1  0
 12 17  1  0
 13 21  1  0
 13 23  1  0
 14 20  1  0
 14 16  1  0
 15 21  1  0
 16 17  2  0
 16 15  1  0
 18 12  2  0
 19 18  1  0
 19 14  2  0
 20 13  1  0
 21 11  1  0
 23 25  2  0
 24 23  1  0
 26 24  1  0
 27 36  2  0
 27 32  1  0
 28 24  1  0
 28 32  1  0
 29 28  1  0
 30 31  1  0
 30 29  1  0
 31 27  1  0
 32 33  2  0
 33 34  1  0
 35 34  2  0
 36 35  1  0
 37 11  1  0
 37 38  1  0
 37 47  1  0
 38 41  1  0
 39 43  1  0
 39 38  1  0
 40 39  2  0
 43 42  1  0
 45 43  1  0
 45 46  1  0
 45 44  1  0
 47 50  1  1
 47 48  1  0
 49 47  1  0
 52 60  1  0
 53 58  1  0
 54 55  1  0
 54 53  1  0
 56 55  1  0
 56 65  1  0
 56 57  1  0
 58 52  1  0
 58 57  1  0
 59 52  2  0
 60 51  1  0
 61 60  1  0
 62 63  2  0
 63 82  1  0
 64 63  1  0
 64 67  1  0
 65 62  1  0
 65 66  1  0
 66 64  2  0
 67 68  1  0
 68 69  2  0
 70 73  1  0
 70 69  1  0
 71 70  2  0
 72 71  1  0
 72 67  2  0
 73 74  1  0
 74 75  1  0
 75 76  2  0
 77 76  1  0
 77 81  1  0
 78 77  2  0
 79 74  2  0
 79 78  1  0
 80 79  1  0
 82 83  1  0
 83 86  1  0
 83 85  1  0
 84 82  2  0
 87 88  1  0
 87 62  1  0
 89 87  1  0
 90 95  1  0
 90 93  1  0
 90  5  1  0
 93 91  1  0
 93 92  1  0
 94 95  1  0
M  ISO  4   9 101  10 101  52 100  60 100
M  END
>  <TORSDO>  (91) 
F 23

>  <SCORE>  (91) 
-13.909

>  <name>  (91) 
90

>  <ligand_id>  (91) 
90

>  <original_smiles>  (91) 
[H]c1nc(C([H])(C([H])([H])C([H])([H])[H])C([H])(C([H])([H])[H])C([H])([H])[H])c([H])c(C([H])([H])N([H])C(=O)N2C([H])([H])C([H])([H])C([H])([H])C([H])(n3nc(-c4c([H])c([H])c(Oc5c([H])c([H])c(F)c([H])c5F)c([H])c4[H])c(C(=O)N([H])[H])c3N([H])[H])C2([H])[H])c1C([H])([H])C([H])([H])C([H])([H])Oc1c([H])c([H])c2c(c1[H])C([H])([H])N(C(=O)C([H])(N([H])C(=O)C([H])(N([H])C([H])([H])[H])C([H])([H])[H])C(C([H])([H])[H])(C([H])([H])[H])C([H])([H])[H])C([H])(C(=O)N([H])C1([H])c3c([H])c([H])c([H])c([H])c3C([H])([H])C([H])([H])C1([H])[H])C2([H])[H]

>  <smiles>  (91) 
[H]c1nc(C([H])(C([H])([H])C([H])([H])[H])C([H])(C([H])([H])[H])C([H])([H])[H])c([H])c(C([H])([H])N([H])C(=O)N2C([H])([H])C([H])([H])C([H])([H])C([H])(n3nc(-c4c([H])c([H])c(Oc5c([H])c([H])c(F)c([H])c5F)c([H])c4[H])c(C(=O)N([H])[H])c3N([H])[H])C2([H])[H])c1C([H])([H])C([H])([H])C([H])([H])Oc1c([H])c([H])c2c(c1[H])C([H])([H])N(C(=O)C([H])(N([H])C(=O)C([H])(N([H])C([H])([H])[H])C([H])([H])[H])C(C([H])([H])[H])(C([H])([H])[H])C([H])([H])[H])C([H])(C(=O)N([H])C1([H])c3c([H])c([H])c([H])c([H])c3C([H])([H])C([H])([H])C1([H])[H])C2([H])[H]

$$$$
91:0:0
     RDKit          3D

 90 98  0  0  1  0  0  0  0  0999 V2000
  -28.5590  -21.1620   20.7300 C   0  0  0  0  0  3  0  0  0  0  0  0
  -29.3840  -20.0990   20.3490 C   0  0  0  0  0  0  0  0  0  0  0  0
  -30.5110  -20.7720   19.7650 C   0  0  0  0  0  0  0  0  0  0  0  0
  -30.3450  -22.1430   19.8720 C   0  0  0  0  0  0  0  0  0  0  0  0
  -31.7060  -20.0880   19.1470 C   0  0  0  0  0  1  0  0  0  0  0  0
  -31.2970  -23.2360   19.4880 C   0  0  0  0  0  1  0  0  0  0  0  0
  -29.1080  -22.4380   20.4430 N   0  0  0  0  0  0  0  0  0  0  0  0
  -29.1010  -18.5270   20.4940 C   0  0  0  0  0  3  0  0  0  0  0  0
  -30.2540  -17.3880   20.4470 C   0  0  0  0  0  3  0  0  0  0  0  0
  -30.6390  -14.7880   20.3360 C   0  0  0  0  0  0  0  0  0  0  0  0
  -30.4300  -12.5300   19.2930 C   0  0  0  0  0  2  0  0  0  0  0  0
  -29.4740  -12.6260   18.0830 C   0  0  0  0  0  2  0  0  0  0  0  0
  -28.0110  -12.4410   18.5310 C   0  0  0  0  0  2  0  0  0  0  0  0
  -27.6540  -13.3080   19.7690 C   0  0  0  0  0  3  0  0  0  0  0  0
  -28.7280  -13.2020   20.8740 C   0  0  0  0  0  2  0  0  0  0  0  0
  -30.0140  -13.5640   20.2680 N   0  0  0  0  0  0  0  0  0  0  0  0
  -31.8150  -14.9030   19.9790 O   0  0  0  0  0  0  0  0  0  0  0  0
  -29.8710  -15.9120   20.5940 N   0  0  0  0  0  0  0  0  0  0  0  0
  -28.9140  -15.7260   20.8510 H   0  0  0  0  0  0  0  0  0  0  0  0
  -25.2710  -13.8790   20.5300 C   0  0  0  0  0  0  0  0  0  0  0  0
  -24.2150  -13.0960   20.9070 C   0  0  0  0  0  0  0  0  0  0  0  0
  -24.6840  -11.7480   20.8580 C   0  0  0  0  0  0  0  0  0  0  0  0
  -26.3160  -13.0070   20.2730 N   0  0  0  0  0  0  0  0  0  0  0  0
  -25.9710  -11.7200   20.5340 N   0  0  0  0  0  0  0  0  0  0  0  0
  -23.9680  -10.4800   21.0450 C   0  0  0  0  0  0  0  0  0  0  0  0
  -24.4070   -9.5120   21.9740 C   0  0  0  0  0  3  0  0  0  0  0  0
  -23.6900   -8.3090   22.1500 C   0  0  0  0  0  3  0  0  0  0  0  0
  -22.5180   -8.0650   21.3940 C   0  0  0  0  0  0  0  0  0  0  0  0
  -22.0980   -9.0210   20.4530 C   0  0  0  0  0  3  0  0  0  0  0  0
  -22.8160  -10.2160   20.2760 C   0  0  0  0  0  3  0  0  0  0  0  0
  -21.7710   -6.9150   21.4790 O   0  0  0  0  0  0  0  0  0  0  0  0
  -21.7180   -6.1750   22.6330 C   0  0  0  0  0  0  0  0  0  0  0  0
  -21.2550   -6.7230   23.8490 C   0  0  0  0  0  3  0  0  0  0  0  0
  -21.1500   -5.9080   24.9940 C   0  0  0  0  0  3  0  0  0  0  0  0
  -21.4980   -4.5460   24.9230 C   0  0  0  0  0  0  0  0  0  0  0  0
  -21.9550   -3.9980   23.7120 C   0  0  0  0  0  3  0  0  0  0  0  0
  -22.0610   -4.8100   22.5700 C   0  0  0  0  0  0  0  0  0  0  0  0
  -22.4810   -4.2710   21.4000 F   0  0  0  0  0  0  0  0  0  0  0  0
  -21.3920   -3.7610   26.0210 F   0  0  0  0  0  0  0  0  0  0  0  0
  -22.8180  -13.5620   21.1990 C   0  0  0  0  0  0  0  0  0  0  0  0
  -22.1000  -12.8480   22.0580 N   0  0  0  0  0  0  0  0  0  0  0  0
  -22.3720  -14.5950   20.7010 O   0  0  0  0  0  0  0  0  0  0  0  0
  -22.4730  -12.0120   22.4840 H   0  0  0  0  0  0  0  0  0  0  0  0
  -21.1630  -13.1420   22.2970 H   0  0  0  0  0  0  0  0  0  0  0  0
  -25.4250  -15.2530   20.3610 N   0  0  0  0  0  0  0  0  0  0  0  0
  -24.6520  -15.8990   20.4800 H   0  0  0  0  0  0  0  0  0  0  0  0
  -26.2570  -15.6960   19.9920 H   0  0  0  0  0  0  0  0  0  0  0  0
  -28.5580  -23.8180   20.8490 C   0  0  0  0  0  2  0  0  0  0  0  0
  -28.4230  -25.0550   19.8140 C   0  0  0  0  0  2  0  0  0  0  0  0
  -28.3430  -26.4770   20.3060 O   0  0  0  0  0  0  0  0  0  0  0  0
  -24.5650  -31.9070   23.2490 C   0  0  0  0  0  0  0  0  0  0  0  0
  -27.2020  -27.3080   20.2270 C   0  0  0  0  0  0  0  0  0  0  0  0
  -23.3750  -30.4990   21.6070 C   0  0  0  0  0  3  0  0  0  0  0  0
  -24.8360  -28.9420   20.1950 C   0  0  0  0  0  0  0  0  0  0  0  0
  -25.9170  -30.8130   21.4400 C   0  0  0  0  0  2  0  0  0  0  0  0
  -26.0010  -29.4300   20.7980 C   0  0  0  0  0  0  0  0  0  0  0  0
  -27.1820  -28.6230   20.8020 C   0  0  0  0  0  3  0  0  0  0  0  0
  -26.0070  -26.8800   19.6040 C   0  0  0  0  0  3  0  0  0  0  0  0
  -24.8440  -27.6760   19.5900 C   0  0  0  0  0  3  0  0  0  0  0  0
  -23.5980  -29.8180   20.2310 C   0  0  0  0  0  2  0  0  0  0  0  0
  -24.6380  -31.0920   22.1550 N   0  0  0  0  0  0  0  0  0  0  0  0
  -23.4780  -32.1850   23.7750 O   0  0  0  0  0  0  0  0  0  0  0  0
  -22.7080  -29.4870   22.5690 C   0  0  0  0  0  0  0  0  0  0  0  0
  -21.3810  -29.3100   22.4370 N   0  0  0  0  0  0  0  0  0  0  0  0
  -23.3820  -28.8630   23.3920 O   0  0  0  0  0  0  0  0  0  0  0  0
  -20.8960  -29.8670   21.7470 H   0  0  0  0  0  0  0  0  0  0  0  0
  -17.9970  -28.1340   22.9470 C   0  0  0  0  0  0  0  0  0  0  0  0
  -20.5580  -28.3750   23.2070 C   0  0  0  0  0  3  0  0  0  0  0  0
  -20.6490  -26.9450   22.6250 C   0  0  0  0  0  2  0  0  0  0  0  0
  -19.5400  -26.6340   21.6130 C   0  0  0  0  0  2  0  0  0  0  0  0
  -18.1620  -26.7860   22.2630 C   0  0  0  0  0  2  0  0  0  0  0  0
  -19.1220  -28.8870   23.3750 C   0  0  0  0  0  0  0  0  0  0  0  0
  -18.9140  -30.1480   23.9740 C   0  0  0  0  0  3  0  0  0  0  0  0
  -17.6130  -30.6560   24.1480 C   0  0  0  0  0  3  0  0  0  0  0  0
  -16.5030  -29.9010   23.7340 C   0  0  0  0  0  3  0  0  0  0  0  0
  -16.6950  -28.6410   23.1390 C   0  0  0  0  0  3  0  0  0  0  0  0
  -25.8410  -32.5450   23.8780 C   0  0  0  0  0  3  0  0  0  0  0  0
  -26.3410  -31.7910   25.1710 C   0  0  1  0  0  0  0  0  0  0  0  0
  -25.2340  -31.5680   26.2280 C   0  0  0  0  0  1  0  0  0  0  0  0
  -26.9280  -30.4070   24.8060 C   0  0  0  0  0  1  0  0  0  0  0  0
  -27.4830  -32.5930   25.8380 C   0  0  0  0  0  1  0  0  0  0  0  0
  -25.5300  -33.9480   24.1880 N   0  0  0  0  0  0  0  0  0  0  0  0
  -25.8780  -34.9940   23.4250 C   0  0  0  0  0  0  0  0  0  0  0  0
  -26.5620  -34.8780   22.4050 O   0  0  0  0  0  0  0  0  0  0  0  0
  -24.9230  -34.1130   24.9790 H   0  0  0  0  0  0  0  0  0  0  0  0
  -24.1730  -36.7980   23.0150 C   0  0  0  0  0  1  0  0  0  0  0  0
  -25.3890  -36.3890   23.8620 C   0  0  0  0  0  3  0  0  0  0  0  0
  -27.5050  -37.2660   24.7490 C   0  0  0  0  0  1  0  0  0  0  0  0
  -26.4320  -37.4330   23.7710 N   0  0  0  0  0  0  0  0  0  0  0  0
  -26.0290  -38.3570   23.8970 H   0  0  0  0  0  0  0  0  0  0  0  0
  2  8  1  0
  2  1  2  0
  3  4  2  0
  3  2  1  0
  4  7  1  0
  5  3  1  0
  6  4  1  0
  7  1  1  0
  7 48  1  0
  9  8  2  0
  9 18  1  0
 10 18  1  0
 11 16  1  0
 12 13  1  0
 12 11  1  0
 14 13  1  0
 14 23  1  0
 14 15  1  0
 16 10  1  0
 16 15  1  0
 17 10  2  0
 18 19  1  0
 20 21  2  0
 21 40  1  0
 22 21  1  0
 22 25  1  0
 23 20  1  0
 23 24  1  0
 24 22  2  0
 25 26  1  0
 26 27  2  0
 28 31  1  0
 28 27  1  0
 29 28  2  0
 30 29  1  0
 30 25  2  0
 31 32  1  0
 32 33  1  0
 33 34  2  0
 35 34  1  0
 35 39  1  0
 36 35  2  0
 37 32  2  0
 37 36  1  0
 38 37  1  0
 40 41  1  0
 41 44  1  0
 41 43  1  0
 42 40  2  0
 45 46  1  0
 45 20  1  0
 47 45  1  0
 49 50  1  0
 49 48  1  0
 51 62  2  0
 52 50  1  0
 52 57  1  0
 53 61  1  0
 53 63  1  0
 54 60  1  0
 54 56  1  0
 55 61  1  0
 56 57  2  0
 56 55  1  0
 58 52  2  0
 59 58  1  0
 59 54  2  0
 60 53  1  0
 61 51  1  0
 63 65  2  0
 64 63  1  0
 66 64  1  0
 67 76  2  0
 67 72  1  0
 68 64  1  0
 68 72  1  0
 69 68  1  0
 70 71  1  0
 70 69  1  0
 71 67  1  0
 72 73  2  0
 73 74  1  0
 75 74  2  0
 76 75  1  0
 77 51  1  0
 77 82  1  0
 77 78  1  0
 78 81  1  1
 78 79  1  0
 80 78  1  0
 82 85  1  0
 83 87  1  0
 83 82  1  0
 84 83  2  0
 87 86  1  0
 89 87  1  0
 89 90  1  0
 89 88  1  0
M  ISO  4  10 100  18 100  49 101  50 101
M  END
>  <TORSDO>  (92) 
F 20

>  <SCORE>  (92) 
-13.894

>  <name>  (92) 
91

>  <ligand_id>  (92) 
91

>  <original_smiles>  (92) 
[H]c1c([H])c([H])c2c(c1[H])C([H])([H])C([H])([H])C([H])([H])C2([H])N([H])C(=O)C1([H])N(C(=O)C([H])(N([H])C(=O)C([H])(N([H])C([H])([H])[H])C([H])([H])[H])C(C([H])([H])[H])(C([H])([H])[H])C([H])([H])[H])C([H])([H])c2c([H])c(OC([H])([H])C([H])([H])n3c([H])c(C([H])([H])C([H])([H])N([H])C(=O)N4C([H])([H])C([H])([H])C([H])([H])C([H])(n5nc(-c6c([H])c([H])c(Oc7c([H])c([H])c(F)c([H])c7F)c([H])c6[H])c(C(=O)N([H])[H])c5N([H])[H])C4([H])[H])c(C([H])([H])[H])c3C([H])([H])[H])c([H])c([H])c2C1([H])[H]

>  <smiles>  (92) 
[H]c1c([H])c([H])c2c(c1[H])C([H])([H])C([H])([H])C([H])([H])C2([H])N([H])C(=O)C1([H])N(C(=O)C([H])(N([H])C(=O)C([H])(N([H])C([H])([H])[H])C([H])([H])[H])C(C([H])([H])[H])(C([H])([H])[H])C([H])([H])[H])C([H])([H])c2c([H])c(OC([H])([H])C([H])([H])n3c([H])c(C([H])([H])C([H])([H])N([H])C(=O)N4C([H])([H])C([H])([H])C([H])([H])C([H])(n5nc(-c6c([H])c([H])c(Oc7c([H])c([H])c(F)c([H])c7F)c([H])c6[H])c(C(=O)N([H])[H])c5N([H])[H])C4([H])[H])c(C([H])([H])[H])c3C([H])([H])[H])c([H])c([H])c2C1([H])[H]

$$$$
92:0:0
     RDKit          3D

 94102  0  0  1  0  0  0  0  0999 V2000
  -28.1070  -22.8910   18.9760 C   0  0  0  0  0  3  0  0  0  0  0  0
  -29.0560  -21.9600   20.9830 C   0  0  0  0  0  3  0  0  0  0  0  0
  -28.4710  -23.1750   20.3040 C   0  0  0  0  0  0  0  0  0  0  0  0
  -28.2710  -21.5960   18.4270 C   0  0  0  0  0  0  0  0  0  0  0  0
  -29.1950  -20.5930   20.3750 C   0  0  0  0  0  0  0  0  0  0  0  0
  -28.7560  -20.5190   19.0960 N   0  0  0  0  0  0  0  0  0  0  0  0
  -29.1660  -21.0690   16.1060 C   0  0  0  0  0  1  0  0  0  0  0  0
  -27.9220  -21.3300   16.9730 C   0  0  0  0  0  2  0  0  0  0  0  0
  -28.8340  -24.9360   22.2050 C   0  0  0  0  0  1  0  0  0  0  0  0
  -28.0510  -24.6870   20.9130 C   0  0  0  0  0  3  0  0  0  0  0  0
  -28.0750  -26.0950   20.1970 O   0  0  0  0  0  0  0  0  0  0  0  0
  -24.5780  -31.9690   23.2190 C   0  0  0  0  0  0  0  0  0  0  0  0
  -27.0240  -27.0980   20.2640 C   0  0  0  0  0  0  0  0  0  0  0  0
  -23.3290  -30.5580   21.6290 C   0  0  0  0  0  3  0  0  0  0  0  0
  -24.7250  -28.9100   20.2290 C   0  0  0  0  0  0  0  0  0  0  0  0
  -25.8890  -30.7590   21.4250 C   0  0  0  0  0  2  0  0  0  0  0  0
  -25.9270  -29.3450   20.8050 C   0  0  0  0  0  0  0  0  0  0  0  0
  -27.0770  -28.4590   20.7960 C   0  0  0  0  0  3  0  0  0  0  0  0
  -25.7920  -26.7720   19.6600 C   0  0  0  0  0  3  0  0  0  0  0  0
  -24.6730  -27.6360   19.6390 C   0  0  0  0  0  3  0  0  0  0  0  0
  -23.5180  -29.8370   20.2680 C   0  0  0  0  0  2  0  0  0  0  0  0
  -24.6200  -31.1200   22.1440 N   0  0  0  0  0  0  0  0  0  0  0  0
  -23.5050  -32.2850   23.7530 O   0  0  0  0  0  0  0  0  0  0  0  0
  -22.6400  -29.5900   22.6240 C   0  0  0  0  0  0  0  0  0  0  0  0
  -21.3110  -29.4270   22.5030 N   0  0  0  0  0  0  0  0  0  0  0  0
  -23.3060  -28.9890   23.4700 O   0  0  0  0  0  0  0  0  0  0  0  0
  -20.8310  -29.9650   21.7960 H   0  0  0  0  0  0  0  0  0  0  0  0
  -17.9240  -28.2520   23.0300 C   0  0  0  0  0  0  0  0  0  0  0  0
  -20.4830  -28.5170   23.3000 C   0  0  0  0  0  3  0  0  0  0  0  0
  -20.5820  -27.0660   22.7750 C   0  0  0  0  0  2  0  0  0  0  0  0
  -19.4840  -26.7120   21.7670 C   0  0  0  0  0  2  0  0  0  0  0  0
  -18.1000  -26.8810   22.4000 C   0  0  0  0  0  2  0  0  0  0  0  0
  -19.0420  -29.0270   23.4370 C   0  0  0  0  0  0  0  0  0  0  0  0
  -18.8200  -30.3100   23.9850 C   0  0  0  0  0  3  0  0  0  0  0  0
  -17.5140  -30.8130   24.1360 C   0  0  0  0  0  3  0  0  0  0  0  0
  -16.4110  -30.0340   23.7460 C   0  0  0  0  0  3  0  0  0  0  0  0
  -16.6160  -28.7560   23.1960 C   0  0  0  0  0  3  0  0  0  0  0  0
  -25.8750  -32.5930   23.8160 C   0  0  0  0  0  3  0  0  0  0  0  0
  -26.4030  -31.8270   25.0930 C   0  0  1  0  0  0  0  0  0  0  0  0
  -25.3260  -31.6160   26.1830 C   0  0  0  0  0  1  0  0  0  0  0  0
  -26.9630  -30.4360   24.7130 C   0  0  0  0  0  1  0  0  0  0  0  0
  -27.5760  -32.6120   25.7270 C   0  0  0  0  0  1  0  0  0  0  0  0
  -25.5870  -33.9980   24.1510 N   0  0  0  0  0  0  0  0  0  0  0  0
  -25.9480  -35.0510   23.4070 C   0  0  0  0  0  0  0  0  0  0  0  0
  -26.6240  -34.9430   22.3800 O   0  0  0  0  0  0  0  0  0  0  0  0
  -24.9980  -34.1610   24.9550 H   0  0  0  0  0  0  0  0  0  0  0  0
  -24.2700  -36.8930   23.0450 C   0  0  0  0  0  1  0  0  0  0  0  0
  -25.4860  -36.4460   23.8730 C   0  0  0  0  0  3  0  0  0  0  0  0
  -27.6230  -37.2710   24.7550 C   0  0  0  0  0  1  0  0  0  0  0  0
  -26.5430  -37.4770   23.7940 N   0  0  0  0  0  0  0  0  0  0  0  0
  -26.1550  -38.4030   23.9480 H   0  0  0  0  0  0  0  0  0  0  0  0
  -31.4590  -19.7340   21.3330 C   0  0  0  0  0  1  0  0  0  0  0  0
  -30.1280  -19.2270   20.7490 C   0  0  0  0  0  3  0  0  0  0  0  0
  -29.7730  -17.8440   21.4750 N   0  0  0  0  0  4  0  0  0  0  0  0
  -30.4590  -17.7600   22.2060 H   0  0  0  0  0  0  0  0  0  0  0  0
  -28.9150  -18.0440   21.9620 H   0  0  0  0  0  0  0  0  0  0  0  0
  -30.4420  -15.1360   21.1130 C   0  0  0  0  0  0  0  0  0  0  0  0
  -30.5080  -12.7570   20.1720 C   0  0  0  0  0  2  0  0  0  0  0  0
  -29.6860  -12.6460   18.8640 C   0  0  0  0  0  2  0  0  0  0  0  0
  -28.1890  -12.4220   19.1550 C   0  0  0  0  0  2  0  0  0  0  0  0
  -27.6550  -13.3510   20.2780 C   0  0  0  0  0  3  0  0  0  0  0  0
  -28.6060  -13.3870   21.4910 C   0  0  0  0  0  2  0  0  0  0  0  0
  -29.9100  -13.8470   20.9900 N   0  0  0  0  0  0  0  0  0  0  0  0
  -31.6710  -15.2410   21.1460 O   0  0  0  0  0  0  0  0  0  0  0  0
  -29.5850  -16.2440   20.8170 N   0  0  0  0  0  0  0  0  0  0  0  0
  -28.6320  -16.0360   20.5720 H   0  0  0  0  0  0  0  0  0  0  0  0
  -25.2190  -13.9260   20.8090 C   0  0  0  0  0  0  0  0  0  0  0  0
  -24.1250  -13.1510   21.0700 C   0  0  0  0  0  0  0  0  0  0  0  0
  -24.5890  -11.7990   21.0650 C   0  0  0  0  0  0  0  0  0  0  0  0
  -26.2790  -13.0480   20.6530 N   0  0  0  0  0  0  0  0  0  0  0  0
  -25.9030  -11.7630   20.8780 N   0  0  0  0  0  0  0  0  0  0  0  0
  -23.8450  -10.5380   21.1630 C   0  0  0  0  0  0  0  0  0  0  0  0
  -24.2000   -9.5420   22.1000 C   0  0  0  0  0  3  0  0  0  0  0  0
  -23.4600   -8.3450   22.1900 C   0  0  0  0  0  3  0  0  0  0  0  0
  -22.3470   -8.1330   21.3420 C   0  0  0  0  0  0  0  0  0  0  0  0
  -22.0100   -9.1160   20.3940 C   0  0  0  0  0  3  0  0  0  0  0  0
  -22.7530  -10.3050   20.3030 C   0  0  0  0  0  3  0  0  0  0  0  0
  -21.5820   -6.9920   21.3410 O   0  0  0  0  0  0  0  0  0  0  0  0
  -21.4550   -6.2110   22.4630 C   0  0  0  0  0  0  0  0  0  0  0  0
  -20.9350   -6.7230   23.6720 C   0  0  0  0  0  3  0  0  0  0  0  0
  -20.7560   -5.8670   24.7780 C   0  0  0  0  0  3  0  0  0  0  0  0
  -21.0880   -4.5020   24.6740 C   0  0  0  0  0  0  0  0  0  0  0  0
  -21.6000   -3.9910   23.4690 C   0  0  0  0  0  3  0  0  0  0  0  0
  -21.7800   -4.8430   22.3650 C   0  0  0  0  0  0  0  0  0  0  0  0
  -22.2520   -4.3400   21.1990 F   0  0  0  0  0  0  0  0  0  0  0  0
  -20.9070   -3.6810   25.7340 F   0  0  0  0  0  0  0  0  0  0  0  0
  -22.7070  -13.6280   21.2060 C   0  0  0  0  0  0  0  0  0  0  0  0
  -21.8970  -12.9300   21.9940 N   0  0  0  0  0  0  0  0  0  0  0  0
  -22.3250  -14.6530   20.6440 O   0  0  0  0  0  0  0  0  0  0  0  0
  -22.2170  -12.1030   22.4740 H   0  0  0  0  0  0  0  0  0  0  0  0
  -20.9390  -13.2270   22.1150 H   0  0  0  0  0  0  0  0  0  0  0  0
  -25.3910  -15.2980   20.6510 N   0  0  0  0  0  0  0  0  0  0  0  0
  -24.5830  -15.9130   20.6180 H   0  0  0  0  0  0  0  0  0  0  0  0
  -26.2120  -15.7120   20.2320 H   0  0  0  0  0  0  0  0  0  0  0  0
  1  3  1  0
  3 10  1  0
  3  2  2  0
  4  1  2  0
  4  6  1  0
  5 53  1  0
  5  2  1  0
  6  5  2  0
  7  8  1  0
  8  4  1  0
 10  9  1  0
 11 13  1  0
 11 10  1  0
 12 23  2  0
 13 18  1  0
 14 22  1  0
 14 24  1  0
 15 21  1  0
 15 17  1  0
 16 22  1  0
 17 16  1  0
 18 17  2  0
 19 13  2  0
 20 19  1  0
 20 15  2  0
 21 14  1  0
 22 12  1  0
 24 26  2  0
 25 24  1  0
 27 25  1  0
 28 37  2  0
 28 33  1  0
 29 25  1  0
 29 33  1  0
 30 29  1  0
 31 32  1  0
 31 30  1  0
 32 28  1  0
 33 34  2  0
 34 35  1  0
 36 35  2  0
 37 36  1  0
 38 12  1  0
 38 43  1  0
 38 39  1  0
 39 42  1  1
 39 40  1  0
 41 39  1  0
 43 46  1  0
 44 48  1  0
 44 43  1  0
 45 44  2  0
 48 47  1  0
 50 48  1  0
 50 51  1  0
 50 49  1  0
 53 52  1  0
 53 54  1  0
 54 56  1  0
 54 55  1  0
 57 64  2  0
 58 63  1  0
 59 60  1  0
 59 58  1  0
 61 60  1  0
 61 70  1  0
 61 62  1  0
 63 57  1  0
 63 62  1  0
 65 57  1  0
 65 54  1  0
 66 65  1  0
 67 68  2  0
 68 87  1  0
 69 68  1  0
 69 72  1  0
 70 67  1  0
 70 71  1  0
 71 69  2  0
 72 73  1  0
 73 74  2  0
 75 74  1  0
 76 75  2  0
 77 76  1  0
 77 72  2  0
 78 75  1  0
 78 79  1  0
 79 80  1  0
 80 81  2  0
 82 81  1  0
 82 86  1  0
 83 82  2  0
 84 79  2  0
 84 83  1  0
 85 84  1  0
 87 88  1  0
 88 91  1  0
 88 90  1  0
 89 87  2  0
 92 67  1  0
 93 92  1  0
 94 92  1  0
M  ISO  4  10 101  11 101  57 100  65 100
M  END
>  <TORSDO>  (93) 
F 20

>  <SCORE>  (93) 
-14.018

>  <name>  (93) 
92

>  <ligand_id>  (93) 
92

>  <original_smiles>  (93) 
[H]c1c([H])c([H])c2c(c1[H])C([H])([H])C([H])([H])C([H])([H])C2([H])N([H])C(=O)C1([H])N(C(=O)C([H])(N([H])C(=O)C([H])(N([H])C([H])([H])[H])C([H])([H])[H])C(C([H])([H])[H])(C([H])([H])[H])C([H])([H])[H])C([H])([H])c2c([H])c(OC([H])(c3c([H])c(C([H])([H])C([H])([H])[H])nc(C([H])(C([H])([H])[H])[N+]([H])([H])N([H])C(=O)N4C([H])([H])C([H])([H])C([H])([H])C([H])(n5nc(-c6c([H])c([H])c(Oc7c([H])c([H])c(F)c([H])c7F)c([H])c6[H])c(C(=O)N([H])[H])c5N([H])[H])C4([H])[H])c3[H])C([H])([H])[H])c([H])c([H])c2C1([H])[H]

>  <smiles>  (93) 
[H]c1c([H])c([H])c2c(c1[H])C([H])([H])C([H])([H])C([H])([H])C2([H])N([H])C(=O)C1([H])N(C(=O)C([H])(N([H])C(=O)C([H])(N([H])C([H])([H])[H])C([H])([H])[H])C(C([H])([H])[H])(C([H])([H])[H])C([H])([H])[H])C([H])([H])c2c([H])c(OC([H])(c3c([H])c(C([H])([H])C([H])([H])[H])nc(C([H])(C([H])([H])[H])[N+]([H])([H])N([H])C(=O)N4C([H])([H])C([H])([H])C([H])([H])C([H])(n5nc(-c6c([H])c([H])c(Oc7c([H])c([H])c(F)c([H])c7F)c([H])c6[H])c(C(=O)N([H])[H])c5N([H])[H])C4([H])[H])c3[H])C([H])([H])[H])c([H])c([H])c2C1([H])[H]

$$$$
93:0:0
     RDKit          3D

 96104  0  0  1  0  0  0  0  0999 V2000
  -32.6100  -21.2950   21.1170 C   0  0  0  0  0  2  0  0  0  0  0  0
  -31.6770  -22.2250   20.6270 C   0  0  0  0  0  2  0  0  0  0  0  0
  -32.2630  -20.0630   20.6570 C   0  0  0  0  0  3  0  0  0  0  0  0
  -30.7510  -21.5860   19.8490 C   0  0  0  0  0  3  0  0  0  0  0  0
  -30.9980  -20.1460   20.0280 N   0  0  0  0  0  0  0  0  0  0  0  0
  -33.4310  -18.4990   22.2630 C   0  0  0  0  0  1  0  0  0  0  0  0
  -34.4540  -19.0000   20.0290 C   0  0  0  0  0  1  0  0  0  0  0  0
  -33.1300  -18.8320   20.7890 C   0  0  0  0  0  3  0  0  0  0  0  0
  -30.2750  -18.8660   19.5920 C   0  0  0  0  0  3  0  0  0  0  0  0
  -30.2560  -17.5910   20.6190 C   0  0  0  0  0  3  0  0  0  0  0  0
  -30.6620  -15.0500   19.9460 C   0  0  0  0  0  0  0  0  0  0  0  0
  -30.4370  -12.7620   18.9460 C   0  0  0  0  0  2  0  0  0  0  0  0
  -29.4450  -12.8000   17.7630 C   0  0  0  0  0  2  0  0  0  0  0  0
  -27.9940  -12.6340   18.2570 C   0  0  0  0  0  2  0  0  0  0  0  0
  -27.6670  -13.5450   19.4690 C   0  0  0  0  0  3  0  0  0  0  0  0
  -28.7680  -13.4710   20.5470 C   0  0  0  0  0  2  0  0  0  0  0  0
  -30.0350  -13.8250   19.8950 N   0  0  0  0  0  0  0  0  0  0  0  0
  -31.8410  -15.1600   19.6020 O   0  0  0  0  0  0  0  0  0  0  0  0
  -29.8820  -16.1640   20.2150 N   0  0  0  0  0  0  0  0  0  0  0  0
  -28.9080  -15.9420   20.3560 H   0  0  0  0  0  0  0  0  0  0  0  0
  -25.3540  -14.1640   20.3910 C   0  0  0  0  0  0  0  0  0  0  0  0
  -24.2790  -13.4030   20.7610 C   0  0  0  0  0  0  0  0  0  0  0  0
  -24.6800  -12.0420   20.5890 C   0  0  0  0  0  0  0  0  0  0  0  0
  -26.3430  -13.2680   20.0170 N   0  0  0  0  0  0  0  0  0  0  0  0
  -25.9480  -11.9810   20.1960 N   0  0  0  0  0  0  0  0  0  0  0  0
  -23.9110  -10.7970   20.7150 C   0  0  0  0  0  0  0  0  0  0  0  0
  -24.3460   -9.7430   21.5490 C   0  0  0  0  0  3  0  0  0  0  0  0
  -23.5790   -8.5630   21.6690 C   0  0  0  0  0  3  0  0  0  0  0  0
  -22.3640   -8.4300   20.9550 C   0  0  0  0  0  0  0  0  0  0  0  0
  -21.9490   -9.4730   20.1090 C   0  0  0  0  0  3  0  0  0  0  0  0
  -22.7150  -10.6440   19.9880 C   0  0  0  0  0  3  0  0  0  0  0  0
  -21.5680   -7.3110   20.9910 O   0  0  0  0  0  0  0  0  0  0  0  0
  -21.5300   -6.4890   22.0890 C   0  0  0  0  0  0  0  0  0  0  0  0
  -21.1850   -6.9730   23.3700 C   0  0  0  0  0  3  0  0  0  0  0  0
  -21.0910   -6.0800   24.4570 C   0  0  0  0  0  3  0  0  0  0  0  0
  -21.3310   -4.7060   24.2640 C   0  0  0  0  0  0  0  0  0  0  0  0
  -21.6690   -4.2230   22.9880 C   0  0  0  0  0  3  0  0  0  0  0  0
  -21.7650   -5.1110   21.9030 C   0  0  0  0  0  0  0  0  0  0  0  0
  -22.0710   -4.6370   20.6710 F   0  0  0  0  0  0  0  0  0  0  0  0
  -21.2320   -3.8480   25.3070 F   0  0  0  0  0  0  0  0  0  0  0  0
  -22.9210  -13.9080   21.1550 C   0  0  0  0  0  0  0  0  0  0  0  0
  -22.2260  -13.1820   22.0220 N   0  0  0  0  0  0  0  0  0  0  0  0
  -22.4910  -14.9790   20.7300 O   0  0  0  0  0  0  0  0  0  0  0  0
  -22.5880  -12.3130   22.3840 H   0  0  0  0  0  0  0  0  0  0  0  0
  -21.3170  -13.4990   22.3270 H   0  0  0  0  0  0  0  0  0  0  0  0
  -25.5670  -15.5380   20.3190 N   0  0  0  0  0  0  0  0  0  0  0  0
  -24.8300  -16.2040   20.5210 H   0  0  0  0  0  0  0  0  0  0  0  0
  -26.3990  -15.9720   19.9410 H   0  0  0  0  0  0  0  0  0  0  0  0
  -29.7430  -22.4500   18.9930 C   0  0  0  0  0  3  0  0  0  0  0  0
  -29.8280  -24.0860   19.1980 C   0  0  0  0  0  3  0  0  0  0  0  0
  -28.7050  -25.1430   18.7050 C   0  0  0  0  0  3  0  0  0  0  0  0
  -28.7670  -26.5960   19.1030 O   0  0  0  0  0  0  0  0  0  0  0  0
  -24.5910  -31.2830   22.7810 C   0  0  0  0  0  0  0  0  0  0  0  0
  -27.5750  -27.3600   19.1680 C   0  0  0  0  0  0  0  0  0  0  0  0
  -23.4990  -29.9720   20.9980 C   0  0  0  0  0  3  0  0  0  0  0  0
  -25.0650  -28.7500   19.3800 C   0  0  0  0  0  0  0  0  0  0  0  0
  -25.9950  -30.5470   20.8350 C   0  0  0  0  0  2  0  0  0  0  0  0
  -26.1950  -29.2660   20.0250 C   0  0  0  0  0  0  0  0  0  0  0  0
  -27.4510  -28.5850   19.9110 C   0  0  0  0  0  3  0  0  0  0  0  0
  -26.4110  -26.9120   18.5050 C   0  0  0  0  0  3  0  0  0  0  0  0
  -25.1760  -27.5820   18.6100 C   0  0  0  0  0  3  0  0  0  0  0  0
  -23.7500  -29.4890   19.5450 C   0  0  0  0  0  2  0  0  0  0  0  0
  -24.7130  -30.6150   21.5960 N   0  0  0  0  0  0  0  0  0  0  0  0
  -23.4970  -31.3870   23.3520 O   0  0  0  0  0  0  0  0  0  0  0  0
  -22.9570  -28.7890   21.8360 C   0  0  0  0  0  0  0  0  0  0  0  0
  -21.6470  -28.5130   21.7170 N   0  0  0  0  0  0  0  0  0  0  0  0
  -23.7140  -28.1290   22.5530 O   0  0  0  0  0  0  0  0  0  0  0  0
  -21.0900  -29.1060   21.1160 H   0  0  0  0  0  0  0  0  0  0  0  0
  -18.4010  -26.9690   22.1460 C   0  0  0  0  0  0  0  0  0  0  0  0
  -20.9370  -27.4170   22.3780 C   0  0  0  0  0  3  0  0  0  0  0  0
  -21.1380  -26.0850   21.6170 C   0  0  0  0  0  2  0  0  0  0  0  0
  -20.0290  -25.7980   20.5990 C   0  0  0  0  0  2  0  0  0  0  0  0
  -18.6650  -25.7390   21.2930 C   0  0  0  0  0  2  0  0  0  0  0  0
  -19.4680  -27.7650   22.6420 C   0  0  0  0  0  0  0  0  0  0  0  0
  -19.1690  -28.9170   23.4020 C   0  0  0  0  0  3  0  0  0  0  0  0
  -17.8340  -29.2790   23.6650 C   0  0  0  0  0  3  0  0  0  0  0  0
  -16.7820  -28.4790   23.1860 C   0  0  0  0  0  3  0  0  0  0  0  0
  -17.0670  -27.3250   22.4340 C   0  0  0  0  0  3  0  0  0  0  0  0
  -25.8180  -31.9640   23.4620 C   0  0  0  0  0  3  0  0  0  0  0  0
  -25.3950  -33.3030   23.8990 N   0  0  0  0  0  0  0  0  0  0  0  0
  -25.6570  -34.4390   23.2380 C   0  0  0  0  0  0  0  0  0  0  0  0
  -26.3480  -34.4730   22.2160 O   0  0  0  0  0  0  0  0  0  0  0  0
  -24.7780  -33.3400   24.6960 H   0  0  0  0  0  0  0  0  0  0  0  0
  -23.8020  -36.1200   23.0050 C   0  0  0  0  0  1  0  0  0  0  0  0
  -25.0610  -35.7430   23.8010 C   0  0  0  0  0  3  0  0  0  0  0  0
  -27.1140  -36.7140   24.7360 C   0  0  0  0  0  1  0  0  0  0  0  0
  -26.0110  -36.8760   23.7920 N   0  0  0  0  0  0  0  0  0  0  0  0
  -25.5360  -37.7470   24.0090 H   0  0  0  0  0  0  0  0  0  0  0  0
  -26.3880  -31.1360   24.6810 C   0  0  1  0  0  0  0  0  0  0  0  0
  -25.3120  -30.7380   25.7180 C   0  0  0  0  0  1  0  0  0  0  0  0
  -27.0720  -29.8400   24.1920 C   0  0  0  0  0  1  0  0  0  0  0  0
  -27.4760  -31.9600   25.4090 C   0  0  0  0  0  1  0  0  0  0  0  0
  -28.2960  -21.9130   19.0630 C   0  0  0  0  0  2  0  0  0  0  0  0
  -27.5900  -22.9440   21.3240 C   0  0  0  0  0  1  0  0  0  0  0  0
  -26.3110  -21.0140   20.3340 C   0  0  0  0  0  1  0  0  0  0  0  0
  -27.6930  -21.6690   20.4690 C   0  0  0  0  0  3  0  0  0  0  0  0
  2  1  1  0
  3  8  1  0
  3  1  1  0
  4 49  1  0
  4  5  1  0
  4  2  1  0
  5  3  1  0
  7  8  1  0
  8  6  1  0
  9  5  1  0
  9 10  2  0
 11 19  1  0
 12 17  1  0
 13 14  1  0
 13 12  1  0
 15 14  1  0
 15 24  1  0
 15 16  1  0
 17 11  1  0
 17 16  1  0
 18 11  2  0
 19 20  1  0
 19 10  1  0
 21 22  2  0
 22 41  1  0
 23 26  1  0
 23 22  1  0
 24 25  1  0
 24 21  1  0
 25 23  2  0
 26 27  1  0
 27 28  2  0
 29 32  1  0
 29 28  1  0
 30 29  2  0
 31 30  1  0
 31 26  2  0
 32 33  1  0
 33 34  1  0
 34 35  2  0
 36 35  1  0
 36 40  1  0
 37 36  2  0
 38 33  2  0
 38 37  1  0
 39 38  1  0
 41 42  1  0
 42 45  1  0
 42 44  1  0
 43 41  2  0
 46 21  1  0
 46 47  1  0
 48 46  1  0
 49 93  1  0
 49 50  1  0
 51 52  1  0
 51 50  2  0
 52 54  1  0
 53 64  2  0
 54 59  1  0
 55 63  1  0
 55 65  1  0
 56 62  1  0
 56 58  1  0
 57 63  1  0
 58 57  1  0
 59 58  2  0
 60 61  1  0
 60 54  2  0
 61 56  2  0
 62 55  1  0
 63 53  1  0
 65 67  2  0
 66 65  1  0
 68 66  1  0
 69 78  2  0
 69 74  1  0
 70 66  1  0
 70 74  1  0
 71 70  1  0
 72 73  1  0
 72 71  1  0
 73 69  1  0
 74 75  2  0
 75 76  1  0
 77 76  2  0
 78 77  1  0
 79 53  1  0
 79 80  1  0
 79 89  1  0
 80 83  1  0
 81 85  1  0
 81 80  1  0
 82 81  2  0
 85 84  1  0
 87 85  1  0
 87 88  1  0
 87 86  1  0
 89 92  1  1
 89 90  1  0
 91 89  1  0
 93 96  1  0
 95 96  1  0
 96 94  1  0
M  ISO  4  11 100  19 100  51 101  52 101
M  END
>  <TORSDO>  (94) 
F 24

>  <SCORE>  (94) 
-7.650

>  <name>  (94) 
93

>  <ligand_id>  (94) 
93

>  <original_smiles>  (94) 
[H]c1c([H])c([H])c2c(c1[H])C([H])([H])C([H])([H])C([H])([H])C2([H])N([H])C(=O)C1([H])N(C(=O)C([H])(N([H])C(=O)C([H])(N([H])C([H])([H])[H])C([H])([H])[H])C(C([H])([H])[H])(C([H])([H])[H])C([H])([H])[H])C([H])([H])c2c([H])c(OC([H])([H])C([H])([H])C([H])(c3c([H])c([H])c(C([H])(C([H])([H])[H])C([H])([H])[H])n3C([H])([H])C([H])([H])N([H])C(=O)N3C([H])([H])C([H])([H])C([H])([H])C([H])(n4nc(-c5c([H])c([H])c(Oc6c([H])c([H])c(F)c([H])c6F)c([H])c5[H])c(C(=O)N([H])[H])c4N([H])[H])C3([H])[H])C([H])([H])C([H])(C([H])([H])[H])C([H])([H])[H])c([H])c([H])c2C1([H])[H]

>  <smiles>  (94) 
[H]c1c([H])c([H])c2c(c1[H])C([H])([H])C([H])([H])C([H])([H])C2([H])N([H])C(=O)C1([H])N(C(=O)C([H])(N([H])C(=O)C([H])(N([H])C([H])([H])[H])C([H])([H])[H])C(C([H])([H])[H])(C([H])([H])[H])C([H])([H])[H])C([H])([H])c2c([H])c(OC([H])([H])C([H])([H])C([H])(c3c([H])c([H])c(C([H])(C([H])([H])[H])C([H])([H])[H])n3C([H])([H])C([H])([H])N([H])C(=O)N3C([H])([H])C([H])([H])C([H])([H])C([H])(n4nc(-c5c([H])c([H])c(Oc6c([H])c([H])c(F)c([H])c6F)c([H])c5[H])c(C(=O)N([H])[H])c4N([H])[H])C3([H])[H])C([H])([H])C([H])(C([H])([H])[H])C([H])([H])[H])c([H])c([H])c2C1([H])[H]

$$$$
94:0:0
     RDKit          3D

 99107  0  0  1  0  0  0  0  0999 V2000
  -29.8210  -20.0680   18.4770 C   0  0  0  0  0  3  0  0  0  0  0  0
  -30.9640  -19.6250   17.7980 C   0  0  0  0  0  0  0  0  0  0  0  0
  -29.4830  -19.6070   19.7650 C   0  0  0  0  0  0  0  0  0  0  0  0
  -31.8160  -18.7490   18.4900 C   0  0  0  0  0  0  0  0  0  0  0  0
  -30.1500  -18.2050   20.0810 C   0  0  0  0  0  0  0  0  0  0  0  0
  -31.4240  -18.1330   19.6290 N   0  0  0  0  0  0  0  0  0  0  0  0
  -30.4020  -15.3380   20.2520 C   0  0  0  0  0  0  0  0  0  0  0  0
  -30.3280  -12.8940   19.3750 C   0  0  0  0  0  2  0  0  0  0  0  0
  -29.4040  -12.6720   18.1500 C   0  0  0  0  0  2  0  0  0  0  0  0
  -27.9610  -12.3930   18.6080 C   0  0  0  0  0  2  0  0  0  0  0  0
  -27.5200  -13.3630   19.7340 C   0  0  0  0  0  3  0  0  0  0  0  0
  -28.5780  -13.5280   20.8470 C   0  0  0  0  0  2  0  0  0  0  0  0
  -29.7960  -14.0440   20.1990 N   0  0  0  0  0  0  0  0  0  0  0  0
  -31.6220  -15.2580   20.0210 O   0  0  0  0  0  0  0  0  0  0  0  0
  -29.7130  -16.6720   20.3580 N   0  0  0  0  0  0  0  0  0  0  0  0
  -28.7250  -16.5750   20.5400 H   0  0  0  0  0  0  0  0  0  0  0  0
  -25.1550  -13.9060   20.4980 C   0  0  0  0  0  0  0  0  0  0  0  0
  -24.0970  -13.1290   20.8690 C   0  0  0  0  0  0  0  0  0  0  0  0
  -24.5670  -11.7800   20.8360 C   0  0  0  0  0  0  0  0  0  0  0  0
  -26.2000  -13.0370   20.2520 N   0  0  0  0  0  0  0  0  0  0  0  0
  -25.8600  -11.7500   20.5270 N   0  0  0  0  0  0  0  0  0  0  0  0
  -23.8440  -10.5160   21.0310 C   0  0  0  0  0  0  0  0  0  0  0  0
  -24.2780   -9.5480   21.9650 C   0  0  0  0  0  3  0  0  0  0  0  0
  -23.5500   -8.3500   22.1460 C   0  0  0  0  0  3  0  0  0  0  0  0
  -22.3730   -8.1150   21.3950 C   0  0  0  0  0  0  0  0  0  0  0  0
  -21.9610   -9.0710   20.4490 C   0  0  0  0  0  3  0  0  0  0  0  0
  -22.6890  -10.2570   20.2660 C   0  0  0  0  0  3  0  0  0  0  0  0
  -21.6160   -6.9730   21.4860 O   0  0  0  0  0  0  0  0  0  0  0  0
  -21.5720   -6.2290   22.6380 C   0  0  0  0  0  0  0  0  0  0  0  0
  -21.1440   -6.7820   23.8660 C   0  0  0  0  0  3  0  0  0  0  0  0
  -21.0480   -5.9640   25.0100 C   0  0  0  0  0  3  0  0  0  0  0  0
  -21.3690   -4.5960   24.9270 C   0  0  0  0  0  0  0  0  0  0  0  0
  -21.7900   -4.0440   23.7050 C   0  0  0  0  0  3  0  0  0  0  0  0
  -21.8880   -4.8580   22.5630 C   0  0  0  0  0  0  0  0  0  0  0  0
  -22.2730   -4.3180   21.3810 F   0  0  0  0  0  0  0  0  0  0  0  0
  -21.2710   -3.8070   26.0230 F   0  0  0  0  0  0  0  0  0  0  0  0
  -22.6990  -13.6020   21.1360 C   0  0  0  0  0  0  0  0  0  0  0  0
  -21.9730  -12.9070   22.0030 N   0  0  0  0  0  0  0  0  0  0  0  0
  -22.2600  -14.6260   20.6100 O   0  0  0  0  0  0  0  0  0  0  0  0
  -22.3410  -12.0780   22.4460 H   0  0  0  0  0  0  0  0  0  0  0  0
  -21.0350  -13.2060   22.2240 H   0  0  0  0  0  0  0  0  0  0  0  0
  -25.3120  -15.2770   20.3130 N   0  0  0  0  0  0  0  0  0  0  0  0
  -24.5440  -15.9280   20.4400 H   0  0  0  0  0  0  0  0  0  0  0  0
  -26.1380  -15.7090   19.9250 H   0  0  0  0  0  0  0  0  0  0  0  0
  -34.2730  -19.4300   18.4000 C   0  0  0  0  0  1  0  0  0  0  0  0
  -33.2220  -18.3780   17.9990 C   0  0  0  0  0  3  0  0  0  0  0  0
  -33.5530  -17.0590   18.5540 N   0  0  0  0  0  4  0  0  0  0  0  0
  -33.0370  -17.0400   19.4240 H   0  0  0  0  0  0  0  0  0  0  0  0
  -34.5350  -16.9200   18.7050 H   0  0  0  0  0  0  0  0  0  0  0  0
  -33.1690  -16.3300   17.9830 H   0  0  0  0  0  0  0  0  0  0  0  0
  -31.3080  -20.2670   16.4550 C   0  0  0  0  0  2  0  0  0  0  0  0
  -29.5390  -18.8180   15.2150 C   0  0  0  0  0  1  0  0  0  0  0  0
  -31.1330  -20.3030   13.9370 C   0  0  0  0  0  1  0  0  0  0  0  0
  -30.9530  -19.4380   15.1940 C   0  0  0  0  0  3  0  0  0  0  0  0
  -28.7040  -20.9800   20.5060 C   0  0  0  0  0  3  0  0  0  0  0  0
  -28.8930  -22.7550   20.1420 C   0  0  0  0  0  3  0  0  0  0  0  0
  -27.5060  -24.1830   21.9230 C   0  0  0  0  0  1  0  0  0  0  0  0
  -27.9260  -24.2510   20.4460 C   0  0  0  0  0  3  0  0  0  0  0  0
  -28.1830  -25.8730   20.2460 O   0  0  0  0  0  0  0  0  0  0  0  0
  -24.6110  -31.8550   23.1790 C   0  0  0  0  0  0  0  0  0  0  0  0
  -27.1690  -26.9670   20.2040 C   0  0  0  0  0  0  0  0  0  0  0  0
  -23.4230  -30.4530   21.5460 C   0  0  0  0  0  3  0  0  0  0  0  0
  -24.8690  -28.8470   20.1300 C   0  0  0  0  0  0  0  0  0  0  0  0
  -25.9890  -30.6650   21.3970 C   0  0  0  0  0  2  0  0  0  0  0  0
  -26.0560  -29.2540   20.7520 C   0  0  0  0  0  0  0  0  0  0  0  0
  -27.1970  -28.3370   20.7650 C   0  0  0  0  0  3  0  0  0  0  0  0
  -25.9590  -26.7150   19.5200 C   0  0  0  0  0  3  0  0  0  0  0  0
  -24.8460  -27.5950   19.4970 C   0  0  0  0  0  3  0  0  0  0  0  0
  -23.6500  -29.7680   20.1720 C   0  0  0  0  0  2  0  0  0  0  0  0
  -24.6970  -31.0200   22.0930 N   0  0  0  0  0  0  0  0  0  0  0  0
  -23.5180  -32.1490   23.6940 O   0  0  0  0  0  0  0  0  0  0  0  0
  -22.7280  -29.4580   22.5140 C   0  0  0  0  0  0  0  0  0  0  0  0
  -21.3950  -29.3040   22.3970 N   0  0  0  0  0  0  0  0  0  0  0  0
  -23.3930  -28.8280   23.3390 O   0  0  0  0  0  0  0  0  0  0  0  0
  -20.9090  -29.8650   21.7090 H   0  0  0  0  0  0  0  0  0  0  0  0
  -18.0040  -28.1410   22.9180 C   0  0  0  0  0  0  0  0  0  0  0  0
  -20.5680  -28.3730   23.1680 C   0  0  0  0  0  3  0  0  0  0  0  0
  -20.6500  -26.9430   22.5800 C   0  0  0  0  0  2  0  0  0  0  0  0
  -19.5360  -26.6410   21.5750 C   0  0  0  0  0  2  0  0  0  0  0  0
  -18.1610  -26.7970   22.2270 C   0  0  0  0  0  2  0  0  0  0  0  0
  -19.1340  -28.8890   23.3450 C   0  0  0  0  0  0  0  0  0  0  0  0
  -18.9270  -30.1500   23.9470 C   0  0  0  0  0  3  0  0  0  0  0  0
  -17.6280  -30.6560   24.1340 C   0  0  0  0  0  3  0  0  0  0  0  0
  -16.5130  -29.9000   23.7290 C   0  0  0  0  0  3  0  0  0  0  0  0
  -16.7030  -28.6460   23.1230 C   0  0  0  0  0  3  0  0  0  0  0  0
  -25.8790  -32.5000   23.8180 C   0  0  0  0  0  3  0  0  0  0  0  0
  -26.3770  -31.7390   25.1070 C   0  0  1  0  0  0  0  0  0  0  0  0
  -25.2760  -31.5080   26.1670 C   0  0  0  0  0  1  0  0  0  0  0  0
  -26.9620  -30.3600   24.7340 C   0  0  0  0  0  1  0  0  0  0  0  0
  -27.5270  -32.5360   25.7690 C   0  0  0  0  0  1  0  0  0  0  0  0
  -25.5630  -33.8990   24.1480 N   0  0  0  0  0  0  0  0  0  0  0  0
  -25.9020  -34.9620   23.4010 C   0  0  0  0  0  0  0  0  0  0  0  0
  -26.5810  -34.8630   22.3760 O   0  0  0  0  0  0  0  0  0  0  0  0
  -24.9650  -34.0550   24.9470 H   0  0  0  0  0  0  0  0  0  0  0  0
  -24.1840  -36.7700   23.0570 C   0  0  0  0  0  1  0  0  0  0  0  0
  -25.4170  -36.3480   23.8720 C   0  0  0  0  0  3  0  0  0  0  0  0
  -27.5450  -37.2250   24.7300 C   0  0  0  0  0  1  0  0  0  0  0  0
  -26.4530  -37.3990   23.7750 N   0  0  0  0  0  0  0  0  0  0  0  0
  -26.0430  -38.3170   23.9230 H   0  0  0  0  0  0  0  0  0  0  0  0
  1  3  1  0
  2  1  2  0
  2  4  1  0
  3  5  2  0
  3 55  1  0
  4  6  2  0
  5 15  1  0
  6  5  1  0
  7 15  1  0
  8 13  1  0
  9 10  1  0
  9  8  1  0
 11 10  1  0
 11 20  1  0
 11 12  1  0
 13  7  1  0
 13 12  1  0
 14  7  2  0
 15 16  1  0
 17 18  2  0
 18 37  1  0
 19 18  1  0
 19 22  1  0
 20 17  1  0
 20 21  1  0
 21 19  2  0
 22 23  1  0
 23 24  2  0
 25 28  1  0
 25 24  1  0
 26 25  2  0
 27 26  1  0
 27 22  2  0
 28 29  1  0
 29 30  1  0
 30 31  2  0
 32 31  1  0
 32 36  1  0
 33 32  2  0
 34 29  2  0
 34 33  1  0
 35 34  1  0
 37 38  1  0
 38 41  1  0
 38 40  1  0
 39 37  2  0
 42 43  1  0
 42 17  1  0
 44 42  1  0
 46 45  1  0
 46  4  1  0
 46 47  1  0
 47 49  1  0
 47 48  1  0
 50 47  1  0
 51  2  1  0
 53 54  1  0
 54 52  1  0
 54 51  1  0
 56 58  1  0
 56 55  2  0
 58 57  1  0
 59 58  1  0
 60 71  2  0
 61 59  1  0
 61 66  1  0
 62 70  1  0
 62 72  1  0
 63 69  1  0
 63 65  1  0
 64 70  1  0
 65 66  2  0
 65 64  1  0
 67 61  2  0
 68 67  1  0
 68 63  2  0
 69 62  1  0
 70 60  1  0
 72 74  2  0
 73 72  1  0
 75 73  1  0
 76 85  2  0
 76 81  1  0
 77 73  1  0
 77 81  1  0
 78 77  1  0
 79 80  1  0
 79 78  1  0
 80 76  1  0
 81 82  2  0
 82 83  1  0
 84 83  2  0
 85 84  1  0
 86 60  1  0
 86 91  1  0
 86 87  1  0
 87 90  1  1
 87 88  1  0
 89 87  1  0
 91 94  1  0
 92 96  1  0
 92 91  1  0
 93 92  2  0
 96 95  1  0
 98 96  1  0
 98 99  1  0
 98 97  1  0
M  ISO  4   7 100  15 100  58 101  59 101
M  END
>  <TORSDO>  (95) 
F 23

>  <SCORE>  (95) 
-14.820

>  <name>  (95) 
94

>  <ligand_id>  (95) 
94

>  <original_smiles>  (95) 
[H]c1c([H])c([H])c2c(c1[H])C([H])([H])C([H])([H])C([H])([H])C2([H])N([H])C(=O)C1([H])N(C(=O)C([H])(N([H])C(=O)C([H])(N([H])C([H])([H])[H])C([H])([H])[H])C(C([H])([H])[H])(C([H])([H])[H])C([H])([H])[H])C([H])([H])c2c([H])c(OC([H])(C([H])([H])[H])C([H])([H])C([H])([H])c3c(N([H])C(=O)N4C([H])([H])C([H])([H])C([H])([H])C([H])(n5nc(-c6c([H])c([H])c(Oc7c([H])c([H])c(F)c([H])c7F)c([H])c6[H])c(C(=O)N([H])[H])c5N([H])[H])C4([H])[H])nc(C([H])(C([H])([H])[H])[N+]([H])([H])[H])c(C([H])([H])C([H])(C([H])([H])[H])C([H])([H])[H])c3[H])c([H])c([H])c2C1([H])[H]

>  <smiles>  (95) 
[H]c1c([H])c([H])c2c(c1[H])C([H])([H])C([H])([H])C([H])([H])C2([H])N([H])C(=O)C1([H])N(C(=O)C([H])(N([H])C(=O)C([H])(N([H])C([H])([H])[H])C([H])([H])[H])C(C([H])([H])[H])(C([H])([H])[H])C([H])([H])[H])C([H])([H])c2c([H])c(OC([H])(C([H])([H])[H])C([H])([H])C([H])([H])c3c(N([H])C(=O)N4C([H])([H])C([H])([H])C([H])([H])C([H])(n5nc(-c6c([H])c([H])c(Oc7c([H])c([H])c(F)c([H])c7F)c([H])c6[H])c(C(=O)N([H])[H])c5N([H])[H])C4([H])[H])nc(C([H])(C([H])([H])[H])[N+]([H])([H])[H])c(C([H])([H])C([H])(C([H])([H])[H])C([H])([H])[H])c3[H])c([H])c([H])c2C1([H])[H]

$$$$
95:0:0
     RDKit          3D

 88 95  0  0  1  0  0  0  0  0999 V2000
  -28.4020  -20.7280   21.6530 C   0  0  0  0  0  1  0  0  0  0  0  0
  -28.9560  -20.8350   20.2150 C   0  0  2  0  0  0  0  0  0  0  0  0
  -31.2000  -19.4320   21.0160 C   0  0  0  0  0  1  0  0  0  0  0  0
  -30.0110  -19.2610   20.0590 C   0  0  0  0  0  3  0  0  0  0  0  0
  -28.9310  -17.2360   18.6670 C   0  0  0  0  0  1  0  0  0  0  0  0
  -29.7010  -17.3920   20.0010 C   0  0  0  0  0  3  0  0  0  0  0  0
  -30.6280  -15.8030   20.0890 C   0  0  0  0  0  0  0  0  0  0  0  0
  -30.7690  -13.2570   19.3740 C   0  0  0  0  0  2  0  0  0  0  0  0
  -29.8750  -12.9010   18.1500 C   0  0  0  0  0  2  0  0  0  0  0  0
  -28.4370  -12.5710   18.5870 C   0  0  0  0  0  2  0  0  0  0  0  0
  -27.9240  -13.5690   19.6500 C   0  0  0  0  0  3  0  0  0  0  0  0
  -28.9510  -13.8640   20.7660 C   0  0  0  0  0  2  0  0  0  0  0  0
  -30.1590  -14.4300   20.1300 N   0  0  0  0  0  0  0  0  0  0  0  0
  -31.8580  -15.7990   19.9200 O   0  0  0  0  0  0  0  0  0  0  0  0
  -25.5550  -14.0870   20.4240 C   0  0  0  0  0  0  0  0  0  0  0  0
  -24.5010  -13.2950   20.7780 C   0  0  0  0  0  0  0  0  0  0  0  0
  -24.9810  -11.9480   20.7310 C   0  0  0  0  0  0  0  0  0  0  0  0
  -26.6060  -13.2240   20.1670 N   0  0  0  0  0  0  0  0  0  0  0  0
  -26.2750  -11.9310   20.4210 N   0  0  0  0  0  0  0  0  0  0  0  0
  -24.2630  -10.6780   20.9100 C   0  0  0  0  0  0  0  0  0  0  0  0
  -24.6400   -9.7470   21.9040 C   0  0  0  0  0  3  0  0  0  0  0  0
  -23.9210   -8.5440   22.0710 C   0  0  0  0  0  3  0  0  0  0  0  0
  -22.8080   -8.2620   21.2440 C   0  0  0  0  0  0  0  0  0  0  0  0
  -22.4500   -9.1810   20.2430 C   0  0  0  0  0  3  0  0  0  0  0  0
  -23.1690  -10.3770   20.0730 C   0  0  0  0  0  3  0  0  0  0  0  0
  -22.0680   -7.1060   21.3130 O   0  0  0  0  0  0  0  0  0  0  0  0
  -21.8470   -6.4650   22.5060 C   0  0  0  0  0  0  0  0  0  0  0  0
  -21.1720   -7.0900   23.5770 C   0  0  0  0  0  3  0  0  0  0  0  0
  -20.9020   -6.3680   24.7560 C   0  0  0  0  0  3  0  0  0  0  0  0
  -21.3010   -5.0220   24.8670 C   0  0  0  0  0  0  0  0  0  0  0  0
  -21.9740   -4.3980   23.8020 C   0  0  0  0  0  3  0  0  0  0  0  0
  -22.2410   -5.1150   22.6220 C   0  0  0  0  0  0  0  0  0  0  0  0
  -22.8670   -4.5030   21.5900 F   0  0  0  0  0  0  0  0  0  0  0  0
  -21.0410   -4.3270   25.9980 F   0  0  0  0  0  0  0  0  0  0  0  0
  -23.0980  -13.7560   21.0500 C   0  0  0  0  0  0  0  0  0  0  0  0
  -22.3830  -13.0510   21.9190 N   0  0  0  0  0  0  0  0  0  0  0  0
  -22.6460  -14.7730   20.5270 O   0  0  0  0  0  0  0  0  0  0  0  0
  -22.7690  -12.2300   22.3580 H   0  0  0  0  0  0  0  0  0  0  0  0
  -21.4440  -13.3400   22.1520 H   0  0  0  0  0  0  0  0  0  0  0  0
  -25.7100  -15.4620   20.2690 N   0  0  0  0  0  0  0  0  0  0  0  0
  -24.9510  -16.1200   20.4060 H   0  0  0  0  0  0  0  0  0  0  0  0
  -26.5840  -15.9040   20.0190 H   0  0  0  0  0  0  0  0  0  0  0  0
  -29.2360  -22.6970   20.0810 C   0  0  0  0  0  3  0  0  0  0  0  0
  -28.2100  -24.2740   20.2080 C   0  0  0  0  0  3  0  0  0  0  0  0
  -28.3810  -25.9760   20.1370 O   0  0  0  0  0  0  0  0  0  0  0  0
  -24.7520  -31.9540   23.2820 C   0  0  0  0  0  0  0  0  0  0  0  0
  -27.3520  -27.1010   20.1400 C   0  0  0  0  0  0  0  0  0  0  0  0
  -23.5670  -30.5950   21.6060 C   0  0  0  0  0  3  0  0  0  0  0  0
  -25.0300  -29.0200   20.1450 C   0  0  0  0  0  0  0  0  0  0  0  0
  -26.1360  -30.8100   21.4660 C   0  0  0  0  0  2  0  0  0  0  0  0
  -26.2210  -29.4060   20.7740 C   0  0  0  0  0  0  0  0  0  0  0  0
  -27.3700  -28.4730   20.7410 C   0  0  0  0  0  3  0  0  0  0  0  0
  -26.1230  -26.8930   19.4690 C   0  0  0  0  0  3  0  0  0  0  0  0
  -25.0130  -27.7860   19.4720 C   0  0  0  0  0  3  0  0  0  0  0  0
  -23.8040  -29.9380   20.2160 C   0  0  0  0  0  2  0  0  0  0  0  0
  -24.8410  -31.1480   22.1720 N   0  0  0  0  0  0  0  0  0  0  0  0
  -23.6600  -32.2230   23.8110 O   0  0  0  0  0  0  0  0  0  0  0  0
  -22.8750  -29.5750   22.5500 C   0  0  0  0  0  0  0  0  0  0  0  0
  -21.5530  -29.3730   22.3910 N   0  0  0  0  0  0  0  0  0  0  0  0
  -23.5370  -28.9660   23.3920 O   0  0  0  0  0  0  0  0  0  0  0  0
  -21.0670  -29.9200   21.6940 H   0  0  0  0  0  0  0  0  0  0  0  0
  -18.1970  -28.0630   22.8380 C   0  0  0  0  0  0  0  0  0  0  0  0
  -20.7450  -28.3990   23.1330 C   0  0  0  0  0  3  0  0  0  0  0  0
  -20.8910  -26.9800   22.5340 C   0  0  0  0  0  2  0  0  0  0  0  0
  -19.8100  -26.6470   21.4990 C   0  0  0  0  0  2  0  0  0  0  0  0
  -18.4190  -26.7360   22.1300 C   0  0  0  0  0  2  0  0  0  0  0  0
  -19.2880  -28.8510   23.2940 C   0  0  0  0  0  0  0  0  0  0  0  0
  -19.0230  -30.0880   23.9180 C   0  0  0  0  0  3  0  0  0  0  0  0
  -17.7010  -30.5420   24.0870 C   0  0  0  0  0  3  0  0  0  0  0  0
  -16.6250  -29.7540   23.6430 C   0  0  0  0  0  3  0  0  0  0  0  0
  -16.8740  -28.5150   23.0260 C   0  0  0  0  0  3  0  0  0  0  0  0
  -26.0160  -32.5940   23.9350 C   0  0  0  0  0  3  0  0  0  0  0  0
  -26.4960  -31.8290   25.2300 C   0  0  1  0  0  0  0  0  0  0  0  0
  -25.3730  -31.5870   26.2660 C   0  0  0  0  0  1  0  0  0  0  0  0
  -27.1040  -30.4540   24.8710 C   0  0  0  0  0  1  0  0  0  0  0  0
  -27.6180  -32.6350   25.9290 C   0  0  0  0  0  1  0  0  0  0  0  0
  -25.6970  -33.9950   24.2670 N   0  0  0  0  0  0  0  0  0  0  0  0
  -25.9860  -35.0540   23.4970 C   0  0  0  0  0  0  0  0  0  0  0  0
  -26.6100  -34.9530   22.4380 O   0  0  0  0  0  0  0  0  0  0  0  0
  -25.1370  -34.1450   25.0930 H   0  0  0  0  0  0  0  0  0  0  0  0
  -24.2040  -36.8210   23.2690 C   0  0  0  0  0  1  0  0  0  0  0  0
  -25.5150  -36.4420   23.9780 C   0  0  0  0  0  3  0  0  0  0  0  0
  -27.6860  -37.3930   24.6300 C   0  0  0  0  0  1  0  0  0  0  0  0
  -26.5150  -37.5120   23.7640 N   0  0  0  0  0  0  0  0  0  0  0  0
  -26.1000  -38.4280   23.9140 H   0  0  0  0  0  0  0  0  0  0  0  0
  -27.8080  -20.5770   19.2170 C   0  0  0  0  0  2  0  0  0  0  0  0
  -26.7510  -21.5130   19.3550 O   0  0  0  0  0  0  0  0  0  0  0  0
  -26.4570  -21.4740   20.2580 H   0  0  0  0  0  0  0  0  0  0  0  0
  2  1  1  1
  4  2  1  0
  4  3  1  0
  6  5  1  0
  6  4  1  0
  6  7  1  0
  7 13  1  0
  8 13  1  0
  9 10  1  0
  9  8  1  0
 11 10  1  0
 11 18  1  0
 11 12  1  0
 13 12  1  0
 14  7  2  0
 15 16  2  0
 16 35  1  0
 17 16  1  0
 17 20  1  0
 18 19  1  0
 18 15  1  0
 19 17  2  0
 20 21  1  0
 21 22  2  0
 23 26  1  0
 23 22  1  0
 24 23  2  0
 25 24  1  0
 25 20  2  0
 26 27  1  0
 27 32  2  0
 27 28  1  0
 28 29  2  0
 29 30  1  0
 30 34  1  0
 31 30  2  0
 32 31  1  0
 33 32  1  0
 35 36  1  0
 36 39  1  0
 36 38  1  0
 37 35  2  0
 40 41  1  0
 40 15  1  0
 42 40  1  0
 43 44  2  0
 43  2  1  0
 45 47  1  0
 45 44  1  0
 46 57  2  0
 47 52  1  0
 48 56  1  0
 48 58  1  0
 49 55  1  0
 49 51  1  0
 50 56  1  0
 51 50  1  0
 52 51  2  0
 53 54  1  0
 53 47  2  0
 54 49  2  0
 55 48  1  0
 56 46  1  0
 58 60  2  0
 59 58  1  0
 61 59  1  0
 62 71  2  0
 62 67  1  0
 63 59  1  0
 63 67  1  0
 64 63  1  0
 65 66  1  0
 65 64  1  0
 66 62  1  0
 67 68  2  0
 68 69  1  0
 70 69  2  0
 71 70  1  0
 72 46  1  0
 72 77  1  0
 72 73  1  0
 73 76  1  1
 73 74  1  0
 75 73  1  0
 77 80  1  0
 78 82  1  0
 78 77  1  0
 79 78  2  0
 82 81  1  0
 84 85  1  0
 84 82  1  0
 84 83  1  0
 86 87  1  0
 86  2  1  0
 87 88  1  0
M  ISO  4   6 100   7 100  44 101  45 101
M  END
>  <TORSDO>  (96) 
F 22

>  <SCORE>  (96) 
-14.961

>  <name>  (96) 
95

>  <ligand_id>  (96) 
95

>  <original_smiles>  (96) 
[H]OC([H])([H])C(C([H])([H])[H])(C([H])([H])C([H])([H])Oc1c([H])c([H])c2c(c1[H])C([H])([H])N(C(=O)C([H])(N([H])C(=O)C([H])(N([H])C([H])([H])[H])C([H])([H])[H])C(C([H])([H])[H])(C([H])([H])[H])C([H])([H])[H])C([H])(C(=O)N([H])C1([H])c3c([H])c([H])c([H])c([H])c3C([H])([H])C([H])([H])C1([H])[H])C2([H])[H])C([H])(C([H])([H])[H])C([H])(C(=O)N1C([H])([H])C([H])([H])C([H])([H])C([H])(n2nc(-c3c([H])c([H])c(Oc4c([H])c([H])c(F)c([H])c4F)c([H])c3[H])c(C(=O)N([H])[H])c2N([H])[H])C1([H])[H])C([H])([H])[H]

>  <smiles>  (96) 
[H]OC([H])([H])C(C([H])([H])[H])(C([H])([H])C([H])([H])Oc1c([H])c([H])c2c(c1[H])C([H])([H])N(C(=O)C([H])(N([H])C(=O)C([H])(N([H])C([H])([H])[H])C([H])([H])[H])C(C([H])([H])[H])(C([H])([H])[H])C([H])([H])[H])C([H])(C(=O)N([H])C1([H])c3c([H])c([H])c([H])c([H])c3C([H])([H])C([H])([H])C1([H])[H])C2([H])[H])C([H])(C([H])([H])[H])C([H])(C(=O)N1C([H])([H])C([H])([H])C([H])([H])C([H])(n2nc(-c3c([H])c([H])c(Oc4c([H])c([H])c(F)c([H])c4F)c([H])c3[H])c(C(=O)N([H])[H])c2N([H])[H])C1([H])[H])C([H])([H])[H]

$$$$
96:0:0
     RDKit          3D

 97104  0  0  1  0  0  0  0  0999 V2000
  -27.1290  -21.2010   20.0360 C   0  0  0  0  0  1  0  0  0  0  0  0
  -28.4380  -22.0120   20.2020 C   0  0  1  0  0  0  0  0  0  0  0  0
  -29.6100  -21.0940   20.4680 N   0  0  0  0  0  4  0  0  0  0  0  0
  -30.4580  -21.6400   20.4640 H   0  0  0  0  0  0  0  0  0  0  0  0
  -29.5000  -20.7730   21.4170 H   0  0  0  0  0  0  0  0  0  0  0  0
  -29.8790  -19.8550   19.6610 C   0  0  0  0  0  2  0  0  0  0  0  0
  -30.5980  -18.6900   21.8470 C   0  0  0  0  0  1  0  0  0  0  0  0
  -28.4140  -18.0810   20.7660 C   0  0  0  0  0  1  0  0  0  0  0  0
  -29.8730  -18.5070   20.4960 C   0  0  1  0  0  0  0  0  0  0  0  0
  -30.6090  -17.3530   19.7170 C   0  0  0  0  0  2  0  0  0  0  0  0
  -31.1330  -14.8920   19.9350 C   0  0  0  0  0  0  0  0  0  0  0  0
  -30.8880  -12.5590   19.1620 C   0  0  0  0  0  2  0  0  0  0  0  0
  -29.9460  -12.5550   17.9390 C   0  0  0  0  0  2  0  0  0  0  0  0
  -28.4760  -12.4610   18.3910 C   0  0  0  0  0  2  0  0  0  0  0  0
  -28.1250  -13.4790   19.5080 C   0  0  0  0  0  3  0  0  0  0  0  0
  -29.1830  -13.4520   20.6370 C   0  0  0  0  0  2  0  0  0  0  0  0
  -30.4990  -13.6880   20.0240 N   0  0  0  0  0  0  0  0  0  0  0  0
  -32.2580  -15.0140   19.4470 O   0  0  0  0  0  0  0  0  0  0  0  0
  -30.3720  -15.9750   20.2160 N   0  0  0  0  0  0  0  0  0  0  0  0
  -29.4670  -15.7860   20.6180 H   0  0  0  0  0  0  0  0  0  0  0  0
  -25.7960  -14.1950   20.3280 C   0  0  0  0  0  0  0  0  0  0  0  0
  -24.6990  -13.4730   20.7110 C   0  0  0  0  0  0  0  0  0  0  0  0
  -25.0760  -12.0980   20.6100 C   0  0  0  0  0  0  0  0  0  0  0  0
  -26.7770  -13.2640   20.0240 N   0  0  0  0  0  0  0  0  0  0  0  0
  -26.3480  -11.9950   20.2510 N   0  0  0  0  0  0  0  0  0  0  0  0
  -24.2820  -10.8740   20.7790 C   0  0  0  0  0  0  0  0  0  0  0  0
  -24.6690   -9.8650   21.6860 C   0  0  0  0  0  3  0  0  0  0  0  0
  -23.8810   -8.7030   21.8430 C   0  0  0  0  0  3  0  0  0  0  0  0
  -22.6900   -8.5460   21.0940 C   0  0  0  0  0  0  0  0  0  0  0  0
  -22.3210   -9.5460   20.1770 C   0  0  0  0  0  3  0  0  0  0  0  0
  -23.1090  -10.6970   20.0180 C   0  0  0  0  0  3  0  0  0  0  0  0
  -21.8750   -7.4430   21.1650 O   0  0  0  0  0  0  0  0  0  0  0  0
  -21.7490   -6.7150   22.3210 C   0  0  0  0  0  0  0  0  0  0  0  0
  -21.3250   -7.3070   23.5310 C   0  0  0  0  0  3  0  0  0  0  0  0
  -21.1420   -6.5070   24.6780 C   0  0  0  0  0  3  0  0  0  0  0  0
  -21.3670   -5.1200   24.6130 C   0  0  0  0  0  0  0  0  0  0  0  0
  -21.7810   -4.5290   23.4060 C   0  0  0  0  0  3  0  0  0  0  0  0
  -21.9680   -5.3240   22.2630 C   0  0  0  0  0  0  0  0  0  0  0  0
  -22.3470   -4.7460   21.0970 F   0  0  0  0  0  0  0  0  0  0  0  0
  -21.1830   -4.3510   25.7120 F   0  0  0  0  0  0  0  0  0  0  0  0
  -23.3440  -14.0200   21.0580 C   0  0  0  0  0  0  0  0  0  0  0  0
  -22.6150  -13.3410   21.9370 N   0  0  0  0  0  0  0  0  0  0  0  0
  -22.9440  -15.0840   20.5860 O   0  0  0  0  0  0  0  0  0  0  0  0
  -22.9520  -12.4790   22.3380 H   0  0  0  0  0  0  0  0  0  0  0  0
  -21.7090  -13.6920   22.2130 H   0  0  0  0  0  0  0  0  0  0  0  0
  -26.0370  -15.5570   20.1910 N   0  0  0  0  0  0  0  0  0  0  0  0
  -25.3200  -16.2540   20.3550 H   0  0  0  0  0  0  0  0  0  0  0  0
  -26.8920  -15.9450   19.8130 H   0  0  0  0  0  0  0  0  0  0  0  0
  -28.6170  -22.9380   18.9280 C   0  0  0  0  0  3  0  0  0  0  0  0
  -27.7160  -24.2310   18.8600 C   0  0  0  0  0  3  0  0  0  0  0  0
  -28.0960  -25.3020   17.7940 C   0  0  0  0  0  2  0  0  0  0  0  0
  -28.0890  -26.6780   18.2420 O   0  0  0  0  0  0  0  0  0  0  0  0
  -24.7040  -31.1500   22.6310 C   0  0  0  0  0  0  0  0  0  0  0  0
  -26.9150  -27.3750   18.4740 C   0  0  0  0  0  0  0  0  0  0  0  0
  -23.3000  -30.0860   20.8950 C   0  0  0  0  0  3  0  0  0  0  0  0
  -24.5580  -28.8530   19.0470 C   0  0  0  0  0  0  0  0  0  0  0  0
  -25.7910  -30.4820   20.4870 C   0  0  0  0  0  2  0  0  0  0  0  0
  -25.7820  -29.2560   19.5930 C   0  0  0  0  0  0  0  0  0  0  0  0
  -26.9590  -28.5220   19.3070 C   0  0  0  0  0  3  0  0  0  0  0  0
  -25.6690  -26.9940   17.9280 C   0  0  0  0  0  3  0  0  0  0  0  0
  -24.4960  -27.7220   18.2150 C   0  0  0  0  0  3  0  0  0  0  0  0
  -23.3420  -29.6810   19.3970 C   0  0  0  0  0  2  0  0  0  0  0  0
  -24.6240  -30.5760   21.3970 N   0  0  0  0  0  0  0  0  0  0  0  0
  -23.6940  -31.3100   23.3300 O   0  0  0  0  0  0  0  0  0  0  0  0
  -22.7370  -28.9000   21.7100 C   0  0  0  0  0  0  0  0  0  0  0  0
  -21.4050  -28.7220   21.6710 N   0  0  0  0  0  0  0  0  0  0  0  0
  -23.4900  -28.1480   22.3340 O   0  0  0  0  0  0  0  0  0  0  0  0
  -20.8560  -29.3870   21.1460 H   0  0  0  0  0  0  0  0  0  0  0  0
  -18.1010  -27.3440   22.1650 C   0  0  0  0  0  0  0  0  0  0  0  0
  -20.6630  -27.6440   22.3260 C   0  0  0  0  0  3  0  0  0  0  0  0
  -20.7640  -26.3290   21.5200 C   0  0  0  0  0  2  0  0  0  0  0  0
  -19.6080  -26.1330   20.5360 C   0  0  0  0  0  2  0  0  0  0  0  0
  -18.2700  -26.1230   21.2810 C   0  0  0  0  0  2  0  0  0  0  0  0
  -19.2250  -28.0660   22.6480 C   0  0  0  0  0  0  0  0  0  0  0  0
  -19.0140  -29.2100   23.4460 C   0  0  0  0  0  3  0  0  0  0  0  0
  -17.7110  -29.6320   23.7660 C   0  0  0  0  0  3  0  0  0  0  0  0
  -16.6030  -28.9070   23.2980 C   0  0  0  0  0  3  0  0  0  0  0  0
  -16.7970  -27.7650   22.5030 C   0  0  0  0  0  3  0  0  0  0  0  0
  -26.0600  -31.6560   23.2140 C   0  0  0  0  0  3  0  0  0  0  0  0
  -26.7520  -30.6040   24.1690 C   0  0  1  0  0  0  0  0  0  0  0  0
  -25.8240  -30.0680   25.2820 C   0  0  0  0  0  1  0  0  0  0  0  0
  -27.2660  -29.3910   23.3580 C   0  0  0  0  0  1  0  0  0  0  0  0
  -27.9900  -31.2420   24.8410 C   0  0  0  0  0  1  0  0  0  0  0  0
  -25.7930  -32.9110   23.9280 N   0  0  0  0  0  0  0  0  0  0  0  0
  -26.0510  -34.1320   23.4400 C   0  0  0  0  0  0  0  0  0  0  0  0
  -26.6110  -34.3170   22.3550 O   0  0  0  0  0  0  0  0  0  0  0  0
  -25.2850  -32.8370   24.7970 H   0  0  0  0  0  0  0  0  0  0  0  0
  -24.3190  -35.9300   23.7310 C   0  0  0  0  0  1  0  0  0  0  0  0
  -25.6200  -35.3380   24.2920 C   0  0  0  0  0  3  0  0  0  0  0  0
  -27.8270  -36.0020   25.1370 C   0  0  0  0  0  1  0  0  0  0  0  0
  -26.6490  -36.3980   24.3720 N   0  0  0  0  0  0  0  0  0  0  0  0
  -26.2640  -37.2390   24.7940 H   0  0  0  0  0  0  0  0  0  0  0  0
  -28.2570  -22.8870   21.4810 C   0  0  0  0  0  2  0  0  0  0  0  0
  -29.1720  -24.1340   21.6090 C   0  0  0  0  0  2  0  0  0  0  0  0
  -28.5910  -25.3820   23.7510 C   0  0  0  0  0  1  0  0  0  0  0  0
  -28.9130  -26.6760   21.5940 C   0  0  0  0  0  1  0  0  0  0  0  0
  -28.4450  -25.3530   22.2230 C   0  0  0  0  0  3  0  0  0  0  0  0
  2  1  1  6
  2  3  1  0
  2 93  1  0
  3  5  1  0
  4  3  1  0
  6  3  1  0
  6  9  1  0
  9  8  1  1
  9  7  1  0
 10 19  1  0
 10  9  1  0
 11 17  1  0
 11 19  1  0
 12 17  1  0
 13 14  1  0
 13 12  1  0
 15 14  1  0
 15 24  1  0
 15 16  1  0
 17 16  1  0
 18 11  2  0
 19 20  1  0
 21 22  2  0
 22 41  1  0
 23 22  1  0
 23 26  1  0
 24 25  1  0
 24 21  1  0
 25 23  2  0
 26 27  1  0
 27 28  2  0
 29 32  1  0
 29 28  1  0
 30 29  2  0
 31 30  1  0
 31 26  2  0
 32 33  1  0
 33 34  1  0
 34 35  2  0
 36 35  1  0
 36 40  1  0
 37 36  2  0
 38 33  2  0
 38 37  1  0
 39 38  1  0
 41 42  1  0
 42 45  1  0
 42 44  1  0
 43 41  2  0
 46 21  1  0
 46 47  1  0
 48 46  1  0
 49  2  1  0
 50 49  2  0
 51 52  1  0
 51 50  1  0
 52 54  1  0
 53 64  2  0
 54 59  1  0
 55 63  1  0
 55 65  1  0
 56 62  1  0
 56 58  1  0
 57 63  1  0
 58 57  1  0
 59 58  2  0
 60 61  1  0
 60 54  2  0
 61 56  2  0
 62 55  1  0
 63 53  1  0
 65 67  2  0
 66 65  1  0
 68 66  1  0
 69 78  2  0
 69 74  1  0
 70 66  1  0
 70 74  1  0
 71 70  1  0
 72 73  1  0
 72 71  1  0
 73 69  1  0
 74 75  2  0
 75 76  1  0
 77 76  2  0
 78 77  1  0
 79 53  1  0
 79 84  1  0
 79 80  1  0
 80 83  1  1
 80 81  1  0
 82 80  1  0
 84 87  1  0
 85 84  1  0
 85 89  1  0
 86 85  2  0
 89 88  1  0
 89 91  1  0
 91 92  1  0
 91 90  1  0
 93 94  1  0
 94 97  1  0
 96 97  1  0
 97 95  1  0
M  ISO  4  11 100  19 100  51 101  52 101
M  END
>  <TORSDO>  (97) 
F 26

>  <SCORE>  (97) 
-9.223

>  <name>  (97) 
96

>  <ligand_id>  (97) 
96

>  <original_smiles>  (97) 
[H]c1c([H])c([H])c2c(c1[H])C([H])([H])C([H])([H])C([H])([H])C2([H])N([H])C(=O)C1([H])N(C(=O)C([H])(N([H])C(=O)C([H])(N([H])C([H])([H])[H])C([H])([H])[H])C(C([H])([H])[H])(C([H])([H])[H])C([H])([H])[H])C([H])([H])c2c([H])c(OC([H])([H])C([H])([H])C([H])([H])C(C([H])([H])[H])(C([H])([H])C([H])([H])C([H])(C([H])([H])[H])C([H])([H])[H])[N+]([H])([H])C([H])([H])C(C([H])([H])[H])(C([H])([H])[H])C([H])([H])N([H])C(=O)N3C([H])([H])C([H])([H])C([H])([H])C([H])(n4nc(-c5c([H])c([H])c(Oc6c([H])c([H])c(F)c([H])c6F)c([H])c5[H])c(C(=O)N([H])[H])c4N([H])[H])C3([H])[H])c([H])c([H])c2C1([H])[H]

>  <smiles>  (97) 
[H]c1c([H])c([H])c2c(c1[H])C([H])([H])C([H])([H])C([H])([H])C2([H])N([H])C(=O)C1([H])N(C(=O)C([H])(N([H])C(=O)C([H])(N([H])C([H])([H])[H])C([H])([H])[H])C(C([H])([H])[H])(C([H])([H])[H])C([H])([H])[H])C([H])([H])c2c([H])c(OC([H])([H])C([H])([H])C([H])([H])C(C([H])([H])[H])(C([H])([H])C([H])([H])C([H])(C([H])([H])[H])C([H])([H])[H])[N+]([H])([H])C([H])([H])C(C([H])([H])[H])(C([H])([H])[H])C([H])([H])N([H])C(=O)N3C([H])([H])C([H])([H])C([H])([H])C([H])(n4nc(-c5c([H])c([H])c(Oc6c([H])c([H])c(F)c([H])c6F)c([H])c5[H])c(C(=O)N([H])[H])c4N([H])[H])C3([H])[H])c([H])c([H])c2C1([H])[H]

$$$$
