0:0:0
     RDKit          3D

 97105  0  0  1  0  0  0  0  0999 V2000
  -30.4450  -20.3200   21.2410 C   0  0  0  0  0  2  0  0  0  0  0  0
  -29.6560  -20.9930   18.9280 C   0  0  0  0  0  2  0  0  0  0  0  0
  -29.5260  -21.3970   21.8730 C   0  0  0  0  0  2  0  0  0  0  0  0
  -29.6150  -22.3700   19.6270 C   0  0  0  0  0  2  0  0  0  0  0  0
  -30.0170  -19.8030   19.8520 C   0  0  0  0  0  3  0  0  0  0  0  0
  -28.8730  -22.3550   20.9190 N   0  0  2  0  0  4  0  0  0  0  0  0
  -28.0040  -21.8980   20.6850 H   0  0  0  0  0  0  0  0  0  0  0  0
  -28.9300  -18.7770   19.8470 N   0  0  0  0  0  4  0  0  0  0  0  0
  -28.7880  -18.5200   18.8810 H   0  0  0  0  0  0  0  0  0  0  0  0
  -28.0540  -19.1750   20.1480 H   0  0  0  0  0  0  0  0  0  0  0  0
  -29.0830  -17.4960   20.5850 C   0  0  0  0  0  2  0  0  0  0  0  0
  -30.4040  -16.7200   20.3640 C   0  0  0  0  0  2  0  0  0  0  0  0
  -30.8520  -14.3000   20.0830 C   0  0  0  0  0  0  0  0  0  0  0  0
  -30.4240  -12.1810   18.9080 C   0  0  0  0  0  2  0  0  0  0  0  0
  -29.4150  -12.4280   17.7660 C   0  0  0  0  0  2  0  0  0  0  0  0
  -27.9650  -12.3330   18.2780 C   0  0  0  0  0  2  0  0  0  0  0  0
  -27.7260  -13.1640   19.5660 C   0  0  0  0  0  3  0  0  0  0  0  0
  -28.8340  -12.8820   20.6110 C   0  0  0  0  0  2  0  0  0  0  0  0
  -30.1420  -13.1480   19.9830 N   0  0  0  0  0  0  0  0  0  0  0  0
  -31.9230  -14.4970   19.4990 O   0  0  0  0  0  0  0  0  0  0  0  0
  -30.2170  -15.3040   20.7000 N   0  0  0  0  0  0  0  0  0  0  0  0
  -29.3720  -15.0510   21.1900 H   0  0  0  0  0  0  0  0  0  0  0  0
  -25.3840  -13.8410   20.3960 C   0  0  0  0  0  0  0  0  0  0  0  0
  -24.3130  -13.1000   20.8230 C   0  0  0  0  0  0  0  0  0  0  0  0
  -24.7300  -11.7340   20.7590 C   0  0  0  0  0  0  0  0  0  0  0  0
  -26.3890  -12.9300   20.1100 N   0  0  0  0  0  0  0  0  0  0  0  0
  -26.0010  -11.6590   20.3850 N   0  0  0  0  0  0  0  0  0  0  0  0
  -23.9780  -10.4910   20.9780 C   0  0  0  0  0  0  0  0  0  0  0  0
  -24.4280   -9.5100   21.8860 C   0  0  0  0  0  3  0  0  0  0  0  0
  -23.6820   -8.3320   22.0950 C   0  0  0  0  0  3  0  0  0  0  0  0
  -22.4690   -8.1260   21.3960 C   0  0  0  0  0  0  0  0  0  0  0  0
  -22.0390   -9.0940   20.4740 C   0  0  0  0  0  3  0  0  0  0  0  0
  -22.7860  -10.2660   20.2630 C   0  0  0  0  0  3  0  0  0  0  0  0
  -21.6930   -6.9990   21.5140 O   0  0  0  0  0  0  0  0  0  0  0  0
  -21.6710   -6.2550   22.6660 C   0  0  0  0  0  0  0  0  0  0  0  0
  -21.2980   -6.8150   23.9080 C   0  0  0  0  0  3  0  0  0  0  0  0
  -21.2270   -5.9980   25.0540 C   0  0  0  0  0  3  0  0  0  0  0  0
  -21.5140   -4.6240   24.9600 C   0  0  0  0  0  0  0  0  0  0  0  0
  -21.8780   -4.0640   23.7230 C   0  0  0  0  0  3  0  0  0  0  0  0
  -21.9520   -4.8770   22.5780 C   0  0  0  0  0  0  0  0  0  0  0  0
  -22.2840   -4.3280   21.3840 F   0  0  0  0  0  0  0  0  0  0  0  0
  -21.4340   -3.8380   26.0590 F   0  0  0  0  0  0  0  0  0  0  0  0
  -22.9450  -13.6140   21.1670 C   0  0  0  0  0  0  0  0  0  0  0  0
  -22.2450  -12.9350   22.0680 N   0  0  0  0  0  0  0  0  0  0  0  0
  -22.5060  -14.6480   20.6680 O   0  0  0  0  0  0  0  0  0  0  0  0
  -22.6120  -12.0990   22.4960 H   0  0  0  0  0  0  0  0  0  0  0  0
  -21.3250  -13.2570   22.3360 H   0  0  0  0  0  0  0  0  0  0  0  0
  -25.5810  -15.2070   20.2060 N   0  0  0  0  0  0  0  0  0  0  0  0
  -24.8130  -15.8620   20.2880 H   0  0  0  0  0  0  0  0  0  0  0  0
  -26.3620  -15.5790   19.6830 H   0  0  0  0  0  0  0  0  0  0  0  0
  -28.3010  -24.8950   20.8850 C   0  0  0  0  0  3  0  0  0  0  0  0
  -28.4350  -23.7000   21.5160 C   0  0  0  0  0  0  0  0  0  0  0  0
  -28.0740  -23.6150   23.0030 C   0  0  0  0  0  2  0  0  0  0  0  0
  -29.8900  -23.4240   24.7650 C   0  0  0  0  0  2  0  0  0  0  0  0
  -29.2140  -24.1400   23.8530 C   0  0  0  0  0  3  0  0  0  0  0  0
  -28.5390  -25.3170   19.4490 C   0  0  0  0  0  2  0  0  0  0  0  0
  -28.4370  -26.7260   19.3250 O   0  0  0  0  0  0  0  0  0  0  0  0
  -24.6740  -31.5180   22.9330 C   0  0  0  0  0  0  0  0  0  0  0  0
  -27.2100  -27.3360   19.4540 C   0  0  0  0  0  0  0  0  0  0  0  0
  -23.4040  -30.2370   21.2390 C   0  0  0  0  0  3  0  0  0  0  0  0
  -24.7980  -28.7930   19.6720 C   0  0  0  0  0  0  0  0  0  0  0  0
  -25.9170  -30.6140   20.9710 C   0  0  0  0  0  2  0  0  0  0  0  0
  -25.9730  -29.2890   20.2460 C   0  0  0  0  0  0  0  0  0  0  0  0
  -27.1790  -28.5700   20.1340 C   0  0  0  0  0  3  0  0  0  0  0  0
  -26.0140  -26.8330   18.8880 C   0  0  0  0  0  3  0  0  0  0  0  0
  -24.8100  -27.5580   18.9970 C   0  0  0  0  0  3  0  0  0  0  0  0
  -23.5600  -29.6470   19.8110 C   0  0  0  0  0  2  0  0  0  0  0  0
  -24.6850  -30.8010   21.7740 N   0  0  0  0  0  0  0  0  0  0  0  0
  -23.6160  -31.7500   23.5320 O   0  0  0  0  0  0  0  0  0  0  0  0
  -22.7810  -29.1530   22.1490 C   0  0  0  0  0  0  0  0  0  0  0  0
  -21.4500  -28.9980   22.0730 N   0  0  0  0  0  0  0  0  0  0  0  0
  -23.4930  -28.4580   22.8790 O   0  0  0  0  0  0  0  0  0  0  0  0
  -20.9360  -29.6170   21.4620 H   0  0  0  0  0  0  0  0  0  0  0  0
  -18.0810  -27.8370   22.6590 C   0  0  0  0  0  0  0  0  0  0  0  0
  -20.6550  -28.0130   22.8040 C   0  0  0  0  0  3  0  0  0  0  0  0
  -20.6870  -26.6350   22.1030 C   0  0  0  0  0  2  0  0  0  0  0  0
  -19.5220  -26.4260   21.1310 C   0  0  0  0  0  2  0  0  0  0  0  0
  -18.1820  -26.5480   21.8620 C   0  0  0  0  0  2  0  0  0  0  0  0
  -19.2430  -28.5330   23.0880 C   0  0  0  0  0  0  0  0  0  0  0  0
  -19.0920  -29.7470   23.7930 C   0  0  0  0  0  3  0  0  0  0  0  0
  -17.8140  -30.2650   24.0730 C   0  0  0  0  0  3  0  0  0  0  0  0
  -16.6680  -29.5630   23.6610 C   0  0  0  0  0  3  0  0  0  0  0  0
  -16.8020  -28.3510   22.9600 C   0  0  0  0  0  3  0  0  0  0  0  0
  -25.9860  -32.1020   23.5470 C   0  0  0  0  0  3  0  0  0  0  0  0
  -25.6930  -33.4690   23.9980 N   0  0  0  0  0  0  0  0  0  0  0  0
  -26.0240  -34.5780   23.3230 C   0  0  0  0  0  0  0  0  0  0  0  0
  -26.6810  -34.5560   22.2780 O   0  0  0  0  0  0  0  0  0  0  0  0
  -25.1180  -33.5620   24.8220 H   0  0  0  0  0  0  0  0  0  0  0  0
  -24.3110  -36.4060   23.1370 C   0  0  0  0  0  1  0  0  0  0  0  0
  -25.5540  -35.9250   23.9000 C   0  0  0  0  0  3  0  0  0  0  0  0
  -27.7020  -36.7190   24.7860 C   0  0  0  0  0  1  0  0  0  0  0  0
  -26.5940  -36.9760   23.8690 N   0  0  0  0  0  0  0  0  0  0  0  0
  -26.1970  -37.8820   24.1010 H   0  0  0  0  0  0  0  0  0  0  0  0
  -26.5580  -31.2320   24.7320 C   0  0  1  0  0  0  0  0  0  0  0  0
  -25.5170  -30.9130   25.8320 C   0  0  0  0  0  1  0  0  0  0  0  0
  -27.1120  -29.8900   24.2010 C   0  0  0  0  0  1  0  0  0  0  0  0
  -27.7400  -31.9700   25.4040 C   0  0  0  0  0  1  0  0  0  0  0  0
  1  3  1  0
  2  4  1  0
  2  5  1  0
  4  6  1  0
  5  8  1  0
  5  1  1  0
  6 52  1  0
  6  3  1  0
  6  7  1  6
  8 10  1  0
  8 11  1  0
  9  8  1  0
 12 11  1  0
 12 21  1  0
 13 21  1  0
 14 19  1  0
 15 16  1  0
 15 14  1  0
 17 16  1  0
 17 26  1  0
 17 18  1  0
 19 13  1  0
 19 18  1  0
 20 13  2  0
 21 22  1  0
 23 24  2  0
 24 43  1  0
 25 24  1  0
 25 28  1  0
 26 27  1  0
 26 23  1  0
 27 25  2  0
 28 29  1  0
 29 30  2  0
 31 34  1  0
 31 30  1  0
 32 31  2  0
 33 32  1  0
 33 28  2  0
 34 35  1  0
 35 36  1  0
 36 37  2  0
 38 37  1  0
 38 42  1  0
 39 38  2  0
 40 35  2  0
 40 39  1  0
 41 40  1  0
 43 44  1  0
 44 47  1  0
 44 46  1  0
 45 43  2  0
 48 49  1  0
 48 23  1  0
 50 48  1  0
 51 52  2  0
 52 53  1  0
 53 55  1  0
 55 54  2  0
 56 51  1  0
 57 56  1  0
 57 59  1  0
 58 69  2  0
 59 64  1  0
 60 68  1  0
 60 70  1  0
 61 67  1  0
 61 63  1  0
 62 68  1  0
 63 62  1  0
 64 63  2  0
 65 66  1  0
 65 59  2  0
 66 61  2  0
 67 60  1  0
 68 58  1  0
 70 72  2  0
 71 70  1  0
 73 71  1  0
 74 83  2  0
 74 79  1  0
 75 71  1  0
 75 79  1  0
 76 75  1  0
 77 78  1  0
 77 76  1  0
 78 74  1  0
 79 80  2  0
 80 81  1  0
 82 81  2  0
 83 82  1  0
 84 58  1  0
 84 85  1  0
 84 94  1  0
 85 88  1  0
 86 90  1  0
 86 85  1  0
 87 86  2  0
 90 89  1  0
 92 90  1  0
 92 93  1  0
 92 91  1  0
 94 97  1  1
 94 95  1  0
 96 94  1  0
M  ISO  4  13 100  21 100  56 101  57 101
M  END
>  <TORSDO>  (1) 
F 23

>  <SCORE>  (1) 
-10.366

>  <name>  (1) 
0

>  <ligand_id>  (1) 
0

>  <original_smiles>  (1) 
[H]C([H])=C([H])C([H])([H])C(=C([H])C([H])([H])Oc1c([H])c([H])c2c(c1[H])C([H])([H])N(C(=O)C([H])(N([H])C(=O)C([H])(N([H])C([H])([H])[H])C([H])([H])[H])C(C([H])([H])[H])(C([H])([H])[H])C([H])([H])[H])C([H])(C(=O)N([H])C1([H])c3c([H])c([H])c([H])c([H])c3C([H])([H])C([H])([H])C1([H])[H])C2([H])[H])[N+]1([H])C([H])([H])C([H])([H])C([H])([N+]([H])([H])C([H])([H])C([H])([H])N([H])C(=O)N2C([H])([H])C([H])([H])C([H])([H])C([H])(n3nc(-c4c([H])c([H])c(Oc5c([H])c([H])c(F)c([H])c5F)c([H])c4[H])c(C(=O)N([H])[H])c3N([H])[H])C2([H])[H])C([H])([H])C1([H])[H]

>  <smiles>  (1) 
[H]C([H])=C([H])C([H])([H])C(=C([H])C([H])([H])Oc1c([H])c([H])c2c(c1[H])C([H])([H])N(C(=O)C([H])(N([H])C(=O)C([H])(N([H])C([H])([H])[H])C([H])([H])[H])C(C([H])([H])[H])(C([H])([H])[H])C([H])([H])[H])C([H])(C(=O)N([H])C1([H])c3c([H])c([H])c([H])c([H])c3C([H])([H])C([H])([H])C1([H])[H])C2([H])[H])[N+]1([H])C([H])([H])C([H])([H])C([H])([N+]([H])([H])C([H])([H])C([H])([H])N([H])C(=O)N2C([H])([H])C([H])([H])C([H])([H])C([H])(n3nc(-c4c([H])c([H])c(Oc5c([H])c([H])c(F)c([H])c5F)c([H])c4[H])c(C(=O)N([H])[H])c3N([H])[H])C2([H])[H])C([H])([H])C1([H])[H]

$$$$
1:0:0
     RDKit          3D

 96104  0  0  1  0  0  0  0  0999 V2000
  -29.1950  -20.3890   19.6320 C   0  0  0  0  0  3  0  0  0  0  0  0
  -29.7020  -19.2440   20.3640 C   0  0  0  0  0  0  0  0  0  0  0  0
  -30.5880  -19.9980   21.2180 C   0  0  0  0  0  0  0  0  0  0  0  0
  -30.5290  -21.3320   21.0750 N   0  0  0  0  0  0  0  0  0  0  0  0
  -29.6620  -21.7090   20.1040 N   0  0  0  0  0  0  0  0  0  0  0  0
  -30.9930  -19.9810   23.7060 C   0  0  0  0  0  1  0  0  0  0  0  0
  -32.9620  -19.8580   22.0920 C   0  0  0  0  0  1  0  0  0  0  0  0
  -31.4890  -19.4950   22.3350 C   0  0  0  0  0  3  0  0  0  0  0  0
  -29.7630  -23.2970   19.7500 C   0  0  0  0  0  2  0  0  0  0  0  0
  -28.6350  -24.4920   17.7940 C   0  0  0  0  0  1  0  0  0  0  0  0
  -28.6690  -24.5470   19.3350 C   0  0  0  0  0  3  0  0  0  0  0  0
  -28.8460  -26.0880   19.7190 O   0  0  0  0  0  0  0  0  0  0  0  0
  -25.2040  -31.4090   23.4320 C   0  0  0  0  0  0  0  0  0  0  0  0
  -27.7920  -27.0980   19.7940 C   0  0  0  0  0  0  0  0  0  0  0  0
  -24.0250  -30.2730   21.5950 C   0  0  0  0  0  3  0  0  0  0  0  0
  -25.4840  -28.9000   19.9830 C   0  0  0  0  0  0  0  0  0  0  0  0
  -26.5900  -30.5170   21.5110 C   0  0  0  0  0  2  0  0  0  0  0  0
  -26.6630  -29.2310   20.6610 C   0  0  0  0  0  0  0  0  0  0  0  0
  -27.8180  -28.3560   20.5400 C   0  0  0  0  0  3  0  0  0  0  0  0
  -26.5650  -26.8710   19.1310 C   0  0  0  0  0  3  0  0  0  0  0  0
  -25.4520  -27.7370   19.2020 C   0  0  0  0  0  3  0  0  0  0  0  0
  -24.2680  -29.8030   20.1380 C   0  0  0  0  0  2  0  0  0  0  0  0
  -25.2940  -30.7470   22.2370 N   0  0  0  0  0  0  0  0  0  0  0  0
  -24.1100  -31.6280   23.9730 O   0  0  0  0  0  0  0  0  0  0  0  0
  -23.3150  -29.1480   22.3910 C   0  0  0  0  0  0  0  0  0  0  0  0
  -21.9960  -28.9820   22.1860 N   0  0  0  0  0  0  0  0  0  0  0  0
  -23.9600  -28.4290   23.1600 O   0  0  0  0  0  0  0  0  0  0  0  0
  -21.5310  -29.6140   21.5480 H   0  0  0  0  0  0  0  0  0  0  0  0
  -18.6200  -27.6770   22.3680 C   0  0  0  0  0  0  0  0  0  0  0  0
  -21.1570  -27.9480   22.7990 C   0  0  0  0  0  3  0  0  0  0  0  0
  -21.3200  -26.5940   22.0690 C   0  0  0  0  0  2  0  0  0  0  0  0
  -20.2780  -26.3740   20.9680 C   0  0  0  0  0  2  0  0  0  0  0  0
  -18.8620  -26.4190   21.5480 C   0  0  0  0  0  2  0  0  0  0  0  0
  -19.6980  -28.4030   22.9410 C   0  0  0  0  0  0  0  0  0  0  0  0
  -19.4180  -29.5810   23.6670 C   0  0  0  0  0  3  0  0  0  0  0  0
  -18.0950  -30.0340   23.8230 C   0  0  0  0  0  3  0  0  0  0  0  0
  -17.0320  -29.3040   23.2650 C   0  0  0  0  0  3  0  0  0  0  0  0
  -17.2950  -28.1270   22.5420 C   0  0  0  0  0  3  0  0  0  0  0  0
  -26.4730  -31.9410   24.1660 C   0  0  0  0  0  3  0  0  0  0  0  0
  -26.1810  -33.3030   24.6370 N   0  0  0  0  0  0  0  0  0  0  0  0
  -26.5620  -34.4270   24.0150 C   0  0  0  0  0  0  0  0  0  0  0  0
  -27.2620  -34.4220   22.9990 O   0  0  0  0  0  0  0  0  0  0  0  0
  -25.5650  -33.3850   25.4340 H   0  0  0  0  0  0  0  0  0  0  0  0
  -24.8890  -36.2980   23.8230 C   0  0  0  0  0  1  0  0  0  0  0  0
  -26.0960  -35.7690   24.6150 C   0  0  0  0  0  3  0  0  0  0  0  0
  -28.2240  -36.5000   25.5970 C   0  0  0  0  0  1  0  0  0  0  0  0
  -27.1560  -36.8000   24.6490 N   0  0  0  0  0  0  0  0  0  0  0  0
  -26.7650  -37.7080   24.8880 H   0  0  0  0  0  0  0  0  0  0  0  0
  -26.9160  -31.0270   25.3750 C   0  0  1  0  0  0  0  0  0  0  0  0
  -25.7760  -30.7190   26.3740 C   0  0  0  0  0  1  0  0  0  0  0  0
  -27.4740  -29.6760   24.8720 C   0  0  0  0  0  1  0  0  0  0  0  0
  -28.0620  -31.7140   26.1540 C   0  0  0  0  0  1  0  0  0  0  0  0
  -29.4140  -17.5780   20.6460 C   0  0  0  0  0  3  0  0  0  0  0  0
  -30.8880  -15.1630   20.8430 C   0  0  0  0  0  0  0  0  0  0  0  0
  -31.1460  -12.6420   20.4820 C   0  0  0  0  0  2  0  0  0  0  0  0
  -30.4420  -12.1390   19.2000 C   0  0  0  0  0  2  0  0  0  0  0  0
  -28.9490  -11.8590   19.4630 C   0  0  0  0  0  2  0  0  0  0  0  0
  -28.2660  -12.9880   20.2770 C   0  0  0  0  0  3  0  0  0  0  0  0
  -29.1150  -13.4230   21.4850 C   0  0  0  0  0  2  0  0  0  0  0  0
  -30.4080  -13.8530   20.9390 N   0  0  0  0  0  0  0  0  0  0  0  0
  -32.1100  -15.3010   20.9460 O   0  0  0  0  0  0  0  0  0  0  0  0
  -30.1110  -16.2040   20.2170 N   0  0  0  0  0  0  0  0  0  0  0  0
  -29.5090  -15.7530   19.5440 H   0  0  0  0  0  0  0  0  0  0  0  0
  -25.8070  -13.5110   20.7340 C   0  0  0  0  0  0  0  0  0  0  0  0
  -24.7300  -12.7190   21.0150 C   0  0  0  0  0  0  0  0  0  0  0  0
  -25.2290  -11.3820   21.0710 C   0  0  0  0  0  0  0  0  0  0  0  0
  -26.8930  -12.6600   20.6400 N   0  0  0  0  0  0  0  0  0  0  0  0
  -26.5490  -11.3750   20.9100 N   0  0  0  0  0  0  0  0  0  0  0  0
  -24.5180  -10.1050   21.2020 C   0  0  0  0  0  0  0  0  0  0  0  0
  -24.8530   -9.1740   22.2090 C   0  0  0  0  0  3  0  0  0  0  0  0
  -24.1390   -7.9630   22.3300 C   0  0  0  0  0  3  0  0  0  0  0  0
  -23.0760   -7.6730   21.4430 C   0  0  0  0  0  0  0  0  0  0  0  0
  -22.7620   -8.5920   20.4260 C   0  0  0  0  0  3  0  0  0  0  0  0
  -23.4770   -9.7950   20.3020 C   0  0  0  0  0  3  0  0  0  0  0  0
  -22.3450   -6.5100   21.4680 O   0  0  0  0  0  0  0  0  0  0  0  0
  -22.0780   -5.8540   22.6440 C   0  0  0  0  0  0  0  0  0  0  0  0
  -21.4260   -6.4920   23.7220 C   0  0  0  0  0  3  0  0  0  0  0  0
  -21.1110   -5.7610   24.8850 C   0  0  0  0  0  3  0  0  0  0  0  0
  -21.4360   -4.3940   24.9690 C   0  0  0  0  0  0  0  0  0  0  0  0
  -22.0820   -3.7580   23.8940 C   0  0  0  0  0  3  0  0  0  0  0  0
  -22.3990   -4.4860   22.7350 C   0  0  0  0  0  0  0  0  0  0  0  0
  -23.0010   -3.8620   21.6940 F   0  0  0  0  0  0  0  0  0  0  0  0
  -21.1280   -3.6910   26.0830 F   0  0  0  0  0  0  0  0  0  0  0  0
  -23.3010  -13.1650   21.1030 C   0  0  0  0  0  0  0  0  0  0  0  0
  -22.4970  -12.4840   21.9130 N   0  0  0  0  0  0  0  0  0  0  0  0
  -22.9040  -14.1530   20.4870 O   0  0  0  0  0  0  0  0  0  0  0  0
  -22.8320  -11.6860   22.4310 H   0  0  0  0  0  0  0  0  0  0  0  0
  -21.5320  -12.7640   22.0160 H   0  0  0  0  0  0  0  0  0  0  0  0
  -25.9480  -14.8760   20.5030 N   0  0  0  0  0  0  0  0  0  0  0  0
  -25.0690  -15.3480   20.3210 H   0  0  0  0  0  0  0  0  0  0  0  0
  -26.6360  -15.1140   19.8020 H   0  0  0  0  0  0  0  0  0  0  0  0
  -27.9270  -17.3410   20.2850 C   0  0  0  0  0  2  0  0  0  0  0  0
  -25.7060  -18.3620   19.8920 C   0  0  0  0  0  1  0  0  0  0  0  0
  -27.0740  -18.5410   20.4160 N   0  0  0  0  0  4  0  0  0  0  0  0
  -27.0010  -18.7970   21.3880 H   0  0  0  0  0  0  0  0  0  0  0  0
  -27.5130  -19.3010   19.9220 H   0  0  0  0  0  0  0  0  0  0  0  0
  1  5  1  0
  1  2  2  0
  2 53  1  0
  2  3  1  0
  3  8  1  0
  4  3  2  0
  5  4  1  0
  7  8  1  0
  8  6  1  0
  9  5  1  0
 11 10  1  0
 11 12  1  0
 11  9  1  0
 12 14  1  0
 13 24  2  0
 14 19  1  0
 15 23  1  0
 15 25  1  0
 16 22  1  0
 16 18  1  0
 17 23  1  0
 18 17  1  0
 19 18  2  0
 20 21  1  0
 20 14  2  0
 21 16  2  0
 22 15  1  0
 23 13  1  0
 25 27  2  0
 26 25  1  0
 28 26  1  0
 29 38  2  0
 29 34  1  0
 30 26  1  0
 30 34  1  0
 31 30  1  0
 32 33  1  0
 32 31  1  0
 33 29  1  0
 34 35  2  0
 35 36  1  0
 37 36  2  0
 38 37  1  0
 39 13  1  0
 39 40  1  0
 39 49  1  0
 40 43  1  0
 41 45  1  0
 41 40  1  0
 42 41  2  0
 45 44  1  0
 45 47  1  0
 47 48  1  0
 47 46  1  0
 49 52  1  1
 49 50  1  0
 51 49  1  0
 53 92  1  0
 54 60  1  0
 54 61  2  0
 55 60  1  0
 56 57  1  0
 56 55  1  0
 58 57  1  0
 58 67  1  0
 58 59  1  0
 60 59  1  0
 62 53  1  0
 62 54  1  0
 63 62  1  0
 64 65  2  0
 65 66  1  0
 65 84  1  0
 66 69  1  0
 67 64  1  0
 67 68  1  0
 68 66  2  0
 69 70  1  0
 70 71  2  0
 72 75  1  0
 72 71  1  0
 73 72  2  0
 74 73  1  0
 74 69  2  0
 75 76  1  0
 76 81  2  0
 76 77  1  0
 77 78  2  0
 78 79  1  0
 79 83  1  0
 80 79  2  0
 81 80  1  0
 82 81  1  0
 84 85  1  0
 85 88  1  0
 85 87  1  0
 86 84  2  0
 89 64  1  0
 90 89  1  0
 91 89  1  0
 92 94  1  0
 93 94  1  0
 94 95  1  0
 96 94  1  0
M  ISO  4  11 101  12 101  54 100  62 100
M  END
>  <TORSDO>  (2) 
F 22

>  <SCORE>  (2) 
-11.214

>  <name>  (2) 
1

>  <ligand_id>  (2) 
1

>  <original_smiles>  (2) 
[H]c1c([H])c([H])c2c(c1[H])C([H])([H])C([H])([H])C([H])([H])C2([H])N([H])C(=O)C1([H])N(C(=O)C([H])(N([H])C(=O)C([H])(N([H])C([H])([H])[H])C([H])([H])[H])C(C([H])([H])[H])(C([H])([H])[H])C([H])([H])[H])C([H])([H])c2c([H])c(OC([H])(C([H])([H])[H])C([H])([H])n3nc(C([H])(C([H])([H])[H])C([H])([H])[H])c(C([H])(N([H])C(=O)N4C([H])([H])C([H])([H])C([H])([H])C([H])(n5nc(-c6c([H])c([H])c(Oc7c([H])c([H])c(F)c([H])c7F)c([H])c6[H])c(C(=O)N([H])[H])c5N([H])[H])C4([H])[H])C([H])([H])[N+]([H])([H])C([H])([H])[H])c3[H])c([H])c([H])c2C1([H])[H]

>  <smiles>  (2) 
[H]c1c([H])c([H])c2c(c1[H])C([H])([H])C([H])([H])C([H])([H])C2([H])N([H])C(=O)C1([H])N(C(=O)C([H])(N([H])C(=O)C([H])(N([H])C([H])([H])[H])C([H])([H])[H])C(C([H])([H])[H])(C([H])([H])[H])C([H])([H])[H])C([H])([H])c2c([H])c(OC([H])(C([H])([H])[H])C([H])([H])n3nc(C([H])(C([H])([H])[H])C([H])([H])[H])c(C([H])(N([H])C(=O)N4C([H])([H])C([H])([H])C([H])([H])C([H])(n5nc(-c6c([H])c([H])c(Oc7c([H])c([H])c(F)c([H])c7F)c([H])c6[H])c(C(=O)N([H])[H])c5N([H])[H])C4([H])[H])C([H])([H])[N+]([H])([H])C([H])([H])[H])c3[H])c([H])c([H])c2C1([H])[H]

$$$$
2:0:0
     RDKit          3D

 98106  0  0  1  0  0  0  0  0999 V2000
  -31.2760  -18.8260   20.6040 C   0  0  0  0  0  3  0  0  0  0  0  0
  -31.6680  -20.1740   20.7130 C   0  0  0  0  0  3  0  0  0  0  0  0
  -29.9440  -18.4890   20.2940 C   0  0  0  0  0  0  0  0  0  0  0  0
  -29.0620  -19.6350   20.0790 C   0  0  0  0  0  0  0  0  0  0  0  0
  -29.5390  -21.0040   20.2590 C   0  0  0  0  0  0  0  0  0  0  0  0
  -30.8350  -21.2280   20.5510 N   0  0  0  0  0  0  0  0  0  0  0  0
  -28.6200  -16.6880   21.5100 C   0  0  0  0  0  1  0  0  0  0  0  0
  -29.5350  -16.9400   20.2910 C   0  0  0  0  0  3  0  0  0  0  0  0
  -31.0380  -14.7620   19.8110 C   0  0  0  0  0  0  0  0  0  0  0  0
  -30.7100  -12.4400   18.9600 C   0  0  0  0  0  2  0  0  0  0  0  0
  -29.7290  -12.4220   17.7710 C   0  0  0  0  0  2  0  0  0  0  0  0
  -28.2830  -12.2820   18.2800 C   0  0  0  0  0  2  0  0  0  0  0  0
  -27.9620  -13.2670   19.4360 C   0  0  0  0  0  3  0  0  0  0  0  0
  -29.0700  -13.2770   20.5130 C   0  0  0  0  0  2  0  0  0  0  0  0
  -30.3410  -13.5730   19.8450 N   0  0  0  0  0  0  0  0  0  0  0  0
  -32.1480  -14.7920   19.2780 O   0  0  0  0  0  0  0  0  0  0  0  0
  -30.6320  -15.9090   20.4510 N   0  0  0  0  0  0  0  0  0  0  0  0
  -31.4720  -16.4160   20.6830 H   0  0  0  0  0  0  0  0  0  0  0  0
  -25.6490  -13.9160   20.3380 C   0  0  0  0  0  0  0  0  0  0  0  0
  -24.5870  -13.1680   20.7650 C   0  0  0  0  0  0  0  0  0  0  0  0
  -24.9980  -11.8040   20.6670 C   0  0  0  0  0  0  0  0  0  0  0  0
  -26.6460  -13.0090   20.0110 N   0  0  0  0  0  0  0  0  0  0  0  0
  -26.2640  -11.7320   20.2710 N   0  0  0  0  0  0  0  0  0  0  0  0
  -24.2410  -10.5610   20.8730 C   0  0  0  0  0  0  0  0  0  0  0  0
  -24.6530   -9.5930   21.8140 C   0  0  0  0  0  3  0  0  0  0  0  0
  -23.8950   -8.4190   22.0100 C   0  0  0  0  0  3  0  0  0  0  0  0
  -22.7130   -8.2030   21.2650 C   0  0  0  0  0  0  0  0  0  0  0  0
  -22.3190   -9.1600   20.3140 C   0  0  0  0  0  3  0  0  0  0  0  0
  -23.0760  -10.3260   20.1150 C   0  0  0  0  0  3  0  0  0  0  0  0
  -21.9290   -7.0770   21.3690 O   0  0  0  0  0  0  0  0  0  0  0  0
  -21.8000   -6.3960   22.5520 C   0  0  0  0  0  0  0  0  0  0  0  0
  -21.3180   -7.0200   23.7230 C   0  0  0  0  0  3  0  0  0  0  0  0
  -21.1360   -6.2670   24.9000 C   0  0  0  0  0  3  0  0  0  0  0  0
  -21.4250   -4.8890   24.9050 C   0  0  0  0  0  0  0  0  0  0  0  0
  -21.9020   -4.2640   23.7400 C   0  0  0  0  0  3  0  0  0  0  0  0
  -22.0860   -5.0160   22.5660 C   0  0  0  0  0  0  0  0  0  0  0  0
  -22.5220   -4.4040   21.4380 F   0  0  0  0  0  0  0  0  0  0  0  0
  -21.2440   -4.1620   26.0330 F   0  0  0  0  0  0  0  0  0  0  0  0
  -23.2280  -13.6840   21.1410 C   0  0  0  0  0  0  0  0  0  0  0  0
  -22.5400  -12.9990   22.0490 N   0  0  0  0  0  0  0  0  0  0  0  0
  -22.7880  -14.7300   20.6660 O   0  0  0  0  0  0  0  0  0  0  0  0
  -22.9090  -12.1520   22.4560 H   0  0  0  0  0  0  0  0  0  0  0  0
  -21.6300  -13.3250   22.3400 H   0  0  0  0  0  0  0  0  0  0  0  0
  -25.8490  -15.2830   20.1730 N   0  0  0  0  0  0  0  0  0  0  0  0
  -25.0880  -15.9400   20.3030 H   0  0  0  0  0  0  0  0  0  0  0  0
  -26.6480  -15.6700   19.6960 H   0  0  0  0  0  0  0  0  0  0  0  0
  -27.5950  -19.4240   19.6730 C   0  0  0  0  0  2  0  0  0  0  0  0
  -27.0930  -20.4320   18.7140 N   0  0  0  0  0  4  0  0  0  0  0  0
  -27.0250  -20.0060   17.8050 H   0  0  0  0  0  0  0  0  0  0  0  0
  -27.7390  -21.1990   18.6410 H   0  0  0  0  0  0  0  0  0  0  0  0
  -25.7680  -20.9710   19.0910 C   0  0  0  0  0  2  0  0  0  0  0  0
  -26.0810  -23.1780   17.8030 C   0  0  0  0  0  1  0  0  0  0  0  0
  -24.7900  -21.2540   16.7370 C   0  0  0  0  0  1  0  0  0  0  0  0
  -25.1870  -21.9520   18.0500 C   0  0  0  0  0  3  0  0  0  0  0  0
  -28.6750  -22.3280   20.0300 C   0  0  0  0  0  2  0  0  0  0  0  0
  -29.1960  -23.8190   20.3950 C   0  0  0  0  0  3  0  0  0  0  0  0
  -28.2380  -25.0540   19.9900 C   0  0  0  0  0  3  0  0  0  0  0  0
  -28.4890  -26.5020   20.3180 O   0  0  0  0  0  0  0  0  0  0  0  0
  -24.6980  -31.9020   23.3440 C   0  0  0  0  0  0  0  0  0  0  0  0
  -27.3900  -27.3950   20.2440 C   0  0  0  0  0  0  0  0  0  0  0  0
  -23.5320  -30.5190   21.6680 C   0  0  0  0  0  3  0  0  0  0  0  0
  -25.0170  -29.0170   20.2260 C   0  0  0  0  0  0  0  0  0  0  0  0
  -26.0740  -30.8600   21.5250 C   0  0  0  0  0  2  0  0  0  0  0  0
  -26.1760  -29.4940   20.8500 C   0  0  0  0  0  0  0  0  0  0  0  0
  -27.3660  -28.6970   20.8500 C   0  0  0  0  0  3  0  0  0  0  0  0
  -26.2070  -26.9930   19.5810 C   0  0  0  0  0  3  0  0  0  0  0  0
  -25.0370  -27.7740   19.5810 C   0  0  0  0  0  3  0  0  0  0  0  0
  -23.7710  -29.8770   20.2780 C   0  0  0  0  0  2  0  0  0  0  0  0
  -24.7860  -31.1120   22.2350 N   0  0  0  0  0  0  0  0  0  0  0  0
  -23.6040  -32.1570   23.8690 O   0  0  0  0  0  0  0  0  0  0  0  0
  -22.8710  -29.4760   22.6010 C   0  0  0  0  0  0  0  0  0  0  0  0
  -21.5640  -29.2300   22.4060 N   0  0  0  0  0  0  0  0  0  0  0  0
  -23.5350  -28.8910   23.4610 O   0  0  0  0  0  0  0  0  0  0  0  0
  -21.0830  -29.7590   21.6920 H   0  0  0  0  0  0  0  0  0  0  0  0
  -18.2330  -27.8530   22.7310 C   0  0  0  0  0  0  0  0  0  0  0  0
  -20.7550  -28.2580   23.1430 C   0  0  0  0  0  3  0  0  0  0  0  0
  -20.9690  -26.8260   22.5960 C   0  0  0  0  0  2  0  0  0  0  0  0
  -19.9460  -26.4280   21.5270 C   0  0  0  0  0  2  0  0  0  0  0  0
  -18.5230  -26.5060   22.0870 C   0  0  0  0  0  2  0  0  0  0  0  0
  -19.2820  -28.6810   23.2130 C   0  0  0  0  0  0  0  0  0  0  0  0
  -18.9600  -29.9360   23.7730 C   0  0  0  0  0  3  0  0  0  0  0  0
  -17.6220  -30.3650   23.8590 C   0  0  0  0  0  3  0  0  0  0  0  0
  -16.5870  -29.5360   23.3920 C   0  0  0  0  0  3  0  0  0  0  0  0
  -16.8940  -28.2820   22.8340 C   0  0  0  0  0  3  0  0  0  0  0  0
  -25.9630  -32.5430   23.9930 C   0  0  0  0  0  3  0  0  0  0  0  0
  -25.6450  -33.9450   24.2970 N   0  0  0  0  0  0  0  0  0  0  0  0
  -25.9500  -34.9850   23.5100 C   0  0  0  0  0  0  0  0  0  0  0  0
  -26.5980  -34.8650   22.4670 O   0  0  0  0  0  0  0  0  0  0  0  0
  -25.0660  -34.1110   25.1090 H   0  0  0  0  0  0  0  0  0  0  0  0
  -24.1810  -36.7440   23.1760 C   0  0  0  0  0  1  0  0  0  0  0  0
  -25.4590  -36.3780   23.9490 C   0  0  0  0  0  3  0  0  0  0  0  0
  -27.6060  -37.3200   24.6790 C   0  0  0  0  0  1  0  0  0  0  0  0
  -26.4700  -37.4430   23.7700 N   0  0  0  0  0  0  0  0  0  0  0  0
  -26.0540  -38.3620   23.9040 H   0  0  0  0  0  0  0  0  0  0  0  0
  -26.4440  -31.7870   25.2930 C   0  0  1  0  0  0  0  0  0  0  0  0
  -25.3100  -31.5260   26.3140 C   0  0  0  0  0  1  0  0  0  0  0  0
  -27.0770  -30.4230   24.9340 C   0  0  0  0  0  1  0  0  0  0  0  0
  -27.5430  -32.6130   26.0020 C   0  0  0  0  0  1  0  0  0  0  0  0
  1  2  1  0
  3  1  2  0
  4  5  2  0
  4  3  1  0
  5  6  1  0
  6  2  2  0
  8  3  1  0
  8 17  1  0
  8  7  1  0
  9 15  1  0
  9 17  1  0
 10 15  1  0
 11 12  1  0
 11 10  1  0
 13 12  1  0
 13 22  1  0
 13 14  1  0
 15 14  1  0
 16  9  2  0
 17 18  1  0
 19 20  2  0
 20 39  1  0
 21 20  1  0
 21 24  1  0
 22 23  1  0
 22 19  1  0
 23 21  2  0
 24 25  1  0
 25 26  2  0
 27 30  1  0
 27 26  1  0
 28 27  2  0
 29 28  1  0
 29 24  2  0
 30 31  1  0
 31 36  2  0
 31 32  1  0
 32 33  2  0
 33 34  1  0
 34 38  1  0
 35 34  2  0
 36 35  1  0
 37 36  1  0
 39 40  1  0
 40 43  1  0
 40 42  1  0
 41 39  2  0
 44 45  1  0
 44 19  1  0
 46 44  1  0
 47  4  1  0
 48 51  1  0
 48 47  1  0
 49 48  1  0
 50 48  1  0
 52 54  1  0
 53 54  1  0
 54 51  1  0
 55  5  1  0
 55 56  1  0
 57 58  1  0
 57 56  2  0
 59 70  2  0
 60 58  1  0
 60 65  1  0
 61 69  1  0
 61 71  1  0
 62 68  1  0
 62 64  1  0
 63 69  1  0
 64 63  1  0
 65 64  2  0
 66 67  1  0
 66 60  2  0
 67 62  2  0
 68 61  1  0
 69 59  1  0
 71 73  2  0
 72 71  1  0
 74 72  1  0
 75 84  2  0
 75 80  1  0
 76 72  1  0
 76 80  1  0
 77 76  1  0
 78 79  1  0
 78 77  1  0
 79 75  1  0
 80 81  2  0
 81 82  1  0
 83 82  2  0
 84 83  1  0
 85 59  1  0
 85 86  1  0
 85 95  1  0
 86 89  1  0
 87 91  1  0
 87 86  1  0
 88 87  2  0
 91 90  1  0
 93 94  1  0
 93 91  1  0
 93 92  1  0
 95 98  1  1
 95 96  1  0
 97 95  1  0
M  ISO  4   9 100  17 100  57 101  58 101
M  END
>  <TORSDO>  (3) 
F 24

>  <SCORE>  (3) 
-11.440

>  <name>  (3) 
2

>  <ligand_id>  (3) 
2

>  <original_smiles>  (3) 
[H]c1nc(C([H])([H])C([H])([H])C([H])([H])Oc2c([H])c([H])c3c(c2[H])C([H])([H])N(C(=O)C([H])(N([H])C(=O)C([H])(N([H])C([H])([H])[H])C([H])([H])[H])C(C([H])([H])[H])(C([H])([H])[H])C([H])([H])[H])C([H])(C(=O)N([H])C2([H])c4c([H])c([H])c([H])c([H])c4C([H])([H])C([H])([H])C2([H])[H])C3([H])[H])c(C([H])([H])[N+]([H])([H])C([H])([H])C([H])(C([H])([H])[H])C([H])([H])[H])c(C([H])(N([H])C(=O)N2C([H])([H])C([H])([H])C([H])([H])C([H])(n3nc(-c4c([H])c([H])c(Oc5c([H])c([H])c(F)c([H])c5F)c([H])c4[H])c(C(=O)N([H])[H])c3N([H])[H])C2([H])[H])C([H])([H])[H])c1[H]

>  <smiles>  (3) 
[H]c1nc(C([H])([H])C([H])([H])C([H])([H])Oc2c([H])c([H])c3c(c2[H])C([H])([H])N(C(=O)C([H])(N([H])C(=O)C([H])(N([H])C([H])([H])[H])C([H])([H])[H])C(C([H])([H])[H])(C([H])([H])[H])C([H])([H])[H])C([H])(C(=O)N([H])C2([H])c4c([H])c([H])c([H])c([H])c4C([H])([H])C([H])([H])C2([H])[H])C3([H])[H])c(C([H])([H])[N+]([H])([H])C([H])([H])C([H])(C([H])([H])[H])C([H])([H])[H])c(C([H])(N([H])C(=O)N2C([H])([H])C([H])([H])C([H])([H])C([H])(n3nc(-c4c([H])c([H])c(Oc5c([H])c([H])c(F)c([H])c5F)c([H])c4[H])c(C(=O)N([H])[H])c3N([H])[H])C2([H])[H])C([H])([H])[H])c1[H]

$$$$
3:0:0
     RDKit          3D

 98106  0  0  1  0  0  0  0  0999 V2000
  -31.1360  -15.0470   20.8530 C   0  0  0  0  0  0  0  0  0  0  0  0
  -30.9140  -12.7370   19.8340 C   0  0  0  0  0  2  0  0  0  0  0  0
  -30.1040  -12.6850   18.5250 C   0  0  0  0  0  2  0  0  0  0  0  0
  -28.6080  -12.5140   18.8350 C   0  0  0  0  0  2  0  0  0  0  0  0
  -28.1210  -13.4660   19.9590 C   0  0  0  0  0  3  0  0  0  0  0  0
  -29.0770  -13.5200   21.1680 C   0  0  0  0  0  2  0  0  0  0  0  0
  -30.3940  -13.8880   20.6370 N   0  0  0  0  0  0  0  0  0  0  0  0
  -32.3590  -14.8850   20.7950 O   0  0  0  0  0  0  0  0  0  0  0  0
  -29.7050  -17.4510   21.1660 C   0  0  0  0  0  2  0  0  0  0  0  0
  -31.6620  -17.3070   19.9610 C   0  0  0  0  0  2  0  0  0  0  0  0
  -30.1570  -19.0220   20.8390 C   0  0  0  0  0  3  0  0  0  0  0  0
  -31.0220  -18.6870   19.6110 C   0  0  0  0  0  3  0  0  0  0  0  0
  -30.6740  -16.3880   20.5810 N   0  0  0  0  0  0  0  0  0  0  0  0
  -25.6870  -14.0740   20.4280 C   0  0  0  0  0  0  0  0  0  0  0  0
  -24.5890  -13.3180   20.7270 C   0  0  0  0  0  0  0  0  0  0  0  0
  -25.0500  -11.9690   20.8250 C   0  0  0  0  0  0  0  0  0  0  0  0
  -26.7450  -13.1880   20.3470 N   0  0  0  0  0  0  0  0  0  0  0  0
  -26.3660  -11.9190   20.6570 N   0  0  0  0  0  0  0  0  0  0  0  0
  -24.3020  -10.7170   21.0090 C   0  0  0  0  0  0  0  0  0  0  0  0
  -24.6590   -9.7810   22.0050 C   0  0  0  0  0  3  0  0  0  0  0  0
  -23.9100   -8.5970   22.1770 C   0  0  0  0  0  3  0  0  0  0  0  0
  -22.7910   -8.3390   21.3490 C   0  0  0  0  0  0  0  0  0  0  0  0
  -22.4550   -9.2620   20.3440 C   0  0  0  0  0  3  0  0  0  0  0  0
  -23.2040  -10.4380   20.1710 C   0  0  0  0  0  3  0  0  0  0  0  0
  -22.0190   -7.2050   21.4260 O   0  0  0  0  0  0  0  0  0  0  0  0
  -21.8730   -6.5140   22.6020 C   0  0  0  0  0  0  0  0  0  0  0  0
  -21.4060   -7.1370   23.7800 C   0  0  0  0  0  3  0  0  0  0  0  0
  -21.2020   -6.3740   24.9480 C   0  0  0  0  0  3  0  0  0  0  0  0
  -21.4560   -4.9900   24.9380 C   0  0  0  0  0  0  0  0  0  0  0  0
  -21.9150   -4.3660   23.7640 C   0  0  0  0  0  3  0  0  0  0  0  0
  -22.1200   -5.1260   22.6000 C   0  0  0  0  0  0  0  0  0  0  0  0
  -22.5430   -4.5170   21.4660 F   0  0  0  0  0  0  0  0  0  0  0  0
  -21.2540   -4.2550   26.0560 F   0  0  0  0  0  0  0  0  0  0  0  0
  -23.1720  -13.8060   20.8170 C   0  0  0  0  0  0  0  0  0  0  0  0
  -22.3710  -13.2000   21.6860 N   0  0  0  0  0  0  0  0  0  0  0  0
  -22.7830  -14.7640   20.1510 O   0  0  0  0  0  0  0  0  0  0  0  0
  -22.6990  -12.4260   22.2460 H   0  0  0  0  0  0  0  0  0  0  0  0
  -21.4160  -13.5120   21.7930 H   0  0  0  0  0  0  0  0  0  0  0  0
  -25.8740  -15.4320   20.1870 N   0  0  0  0  0  0  0  0  0  0  0  0
  -25.1040  -16.0910   20.1760 H   0  0  0  0  0  0  0  0  0  0  0  0
  -26.7560  -15.8460   19.9180 H   0  0  0  0  0  0  0  0  0  0  0  0
  -30.1690  -18.5940   18.4100 N   0  0  0  0  0  4  0  0  0  0  0  0
  -29.6340  -19.4460   18.3350 H   0  0  0  0  0  0  0  0  0  0  0  0
  -29.4960  -17.8490   18.5110 H   0  0  0  0  0  0  0  0  0  0  0  0
  -30.8110  -18.3560   17.1070 C   0  0  0  0  0  2  0  0  0  0  0  0
  -29.9760  -19.0670   16.0500 C   0  0  0  0  0  0  0  0  0  0  0  0
  -30.5110  -19.2130   14.8330 N   0  0  0  0  0  0  0  0  0  0  0  0
  -28.8480  -19.4740   16.3450 O   0  0  0  0  0  0  0  0  0  0  0  0
  -31.4350  -18.8310   14.6780 H   0  0  0  0  0  0  0  0  0  0  0  0
  -30.0950  -19.0410   12.4310 C   0  0  0  0  0  1  0  0  0  0  0  0
  -30.3860  -21.3040   13.5460 C   0  0  0  0  0  1  0  0  0  0  0  0
  -29.8640  -19.8690   13.6990 C   0  0  0  0  0  3  0  0  0  0  0  0
  -27.9970  -20.2520   19.8390 C   0  0  0  0  0  1  0  0  0  0  0  0
  -29.1850  -20.4250   20.7990 C   0  0  0  0  0  3  0  0  0  0  0  0
  -29.7230  -22.0330   20.7640 C   0  0  0  0  0  2  0  0  0  0  0  0
  -28.8530  -23.4190   20.3170 C   0  0  0  0  0  2  0  0  0  0  0  0
  -28.8490  -24.9310   21.0650 C   0  0  0  0  0  2  0  0  0  0  0  0
  -28.9010  -26.3770   20.5030 O   0  0  0  0  0  0  0  0  0  0  0  0
  -24.8060  -31.8530   23.2700 C   0  0  0  0  0  0  0  0  0  0  0  0
  -27.7800  -27.2690   20.4540 C   0  0  0  0  0  0  0  0  0  0  0  0
  -23.7810  -30.4030   21.5580 C   0  0  0  0  0  3  0  0  0  0  0  0
  -25.3880  -28.8900   20.2440 C   0  0  0  0  0  0  0  0  0  0  0  0
  -26.3220  -30.7900   21.5570 C   0  0  0  0  0  2  0  0  0  0  0  0
  -26.5000  -29.4010   20.9250 C   0  0  0  0  0  0  0  0  0  0  0  0
  -27.7020  -28.6050   21.0110 C   0  0  0  0  0  3  0  0  0  0  0  0
  -26.6420  -26.8440   19.7430 C   0  0  0  0  0  3  0  0  0  0  0  0
  -25.4690  -27.6250   19.6390 C   0  0  0  0  0  3  0  0  0  0  0  0
  -24.1240  -29.7350   20.2000 C   0  0  0  0  0  2  0  0  0  0  0  0
  -24.9850  -31.0380   22.1840 N   0  0  0  0  0  0  0  0  0  0  0  0
  -23.6750  -32.0880   23.7240 O   0  0  0  0  0  0  0  0  0  0  0  0
  -23.0860  -29.3660   22.4760 C   0  0  0  0  0  0  0  0  0  0  0  0
  -21.7580  -29.2180   22.3350 N   0  0  0  0  0  0  0  0  0  0  0  0
  -23.7470  -28.6980   23.2760 O   0  0  0  0  0  0  0  0  0  0  0  0
  -21.2840  -29.8050   21.6630 H   0  0  0  0  0  0  0  0  0  0  0  0
  -18.3450  -28.1150   22.8460 C   0  0  0  0  0  0  0  0  0  0  0  0
  -20.9190  -28.2620   23.0640 C   0  0  0  0  0  3  0  0  0  0  0  0
  -20.9520  -26.8700   22.3910 C   0  0  0  0  0  2  0  0  0  0  0  0
  -19.8130  -26.6600   21.3880 C   0  0  0  0  0  2  0  0  0  0  0  0
  -18.4530  -26.8100   22.0760 C   0  0  0  0  0  2  0  0  0  0  0  0
  -19.5030  -28.8050   23.2960 C   0  0  0  0  0  0  0  0  0  0  0  0
  -19.3470  -30.0300   23.9800 C   0  0  0  0  0  3  0  0  0  0  0  0
  -18.0660  -30.5640   24.2180 C   0  0  0  0  0  3  0  0  0  0  0  0
  -16.9240  -29.8690   23.7840 C   0  0  0  0  0  3  0  0  0  0  0  0
  -17.0640  -28.6470   23.1030 C   0  0  0  0  0  3  0  0  0  0  0  0
  -26.0090  -32.5420   23.9800 C   0  0  0  0  0  3  0  0  0  0  0  0
  -25.6260  -33.9360   24.2540 N   0  0  0  0  0  0  0  0  0  0  0  0
  -25.9670  -34.9860   23.4940 C   0  0  0  0  0  0  0  0  0  0  0  0
  -26.7020  -34.8850   22.5090 O   0  0  0  0  0  0  0  0  0  0  0  0
  -24.9780  -34.0850   25.0140 H   0  0  0  0  0  0  0  0  0  0  0  0
  -24.1930  -36.7050   23.0100 C   0  0  0  0  0  1  0  0  0  0  0  0
  -25.4070  -36.3670   23.8910 C   0  0  0  0  0  3  0  0  0  0  0  0
  -27.4720  -37.3440   24.7890 C   0  0  0  0  0  1  0  0  0  0  0  0
  -26.4030  -37.4560   23.8010 N   0  0  0  0  0  0  0  0  0  0  0  0
  -25.9580  -38.3620   23.9180 H   0  0  0  0  0  0  0  0  0  0  0  0
  -26.4400  -31.8180   25.3140 C   0  0  1  0  0  0  0  0  0  0  0  0
  -25.2610  -31.5320   26.2750 C   0  0  0  0  0  1  0  0  0  0  0  0
  -27.1360  -30.4730   25.0060 C   0  0  0  0  0  1  0  0  0  0  0  0
  -27.4780  -32.6850   26.0680 C   0  0  0  0  0  1  0  0  0  0  0  0
  2  7  1  0
  3  4  1  0
  3  2  1  0
  5  4  1  0
  5 17  1  0
  5  6  1  0
  7  1  1  0
  7  6  1  0
  8  1  2  0
 10 13  1  0
 11 54  1  0
 11  9  1  0
 12 42  1  0
 12 10  1  0
 12 11  1  0
 13  1  1  0
 13  9  1  0
 14 15  2  0
 15 34  1  0
 15 16  1  0
 16 19  1  0
 17 14  1  0
 17 18  1  0
 18 16  2  0
 19 20  1  0
 20 21  2  0
 22 25  1  0
 22 21  1  0
 23 22  2  0
 24 23  1  0
 24 19  2  0
 25 26  1  0
 26 27  1  0
 27 28  2  0
 29 28  1  0
 29 33  1  0
 30 29  2  0
 31 26  2  0
 31 30  1  0
 32 31  1  0
 34 35  1  0
 35 38  1  0
 35 37  1  0
 36 34  2  0
 39 14  1  0
 40 39  1  0
 41 39  1  0
 42 44  1  0
 43 42  1  0
 45 42  1  0
 46 48  2  0
 46 45  1  0
 47 46  1  0
 49 47  1  0
 50 52  1  0
 51 52  1  0
 52 47  1  0
 54 53  1  0
 55 54  1  0
 56 55  1  0
 56 57  1  0
 58 57  1  0
 59 70  2  0
 60 58  1  0
 60 65  1  0
 61 69  1  0
 61 71  1  0
 62 64  1  0
 63 69  1  0
 64 65  2  0
 64 63  1  0
 66 60  2  0
 67 66  1  0
 67 62  2  0
 68 62  1  0
 68 61  1  0
 69 59  1  0
 71 73  2  0
 72 71  1  0
 74 72  1  0
 75 84  2  0
 75 80  1  0
 76 72  1  0
 76 80  1  0
 77 76  1  0
 78 79  1  0
 78 77  1  0
 79 75  1  0
 80 81  2  0
 81 82  1  0
 83 82  2  0
 84 83  1  0
 85 59  1  0
 85 86  1  0
 85 95  1  0
 86 89  1  0
 87 91  1  0
 87 86  1  0
 88 87  2  0
 91 90  1  0
 93 91  1  0
 93 94  1  0
 93 92  1  0
 95 98  1  1
 95 96  1  0
 97 95  1  0
M  ISO  4   1 100  13 100  57 101  58 101
M  END
>  <TORSDO>  (4) 
F 23

>  <SCORE>  (4) 
-13.893

>  <name>  (4) 
3

>  <ligand_id>  (4) 
3

>  <original_smiles>  (4) 
[H]c1c([H])c([H])c2c(c1[H])C([H])([H])C([H])([H])C([H])([H])C2([H])N([H])C(=O)C1([H])N(C(=O)C([H])(N([H])C(=O)C([H])(N([H])C([H])([H])[H])C([H])([H])[H])C(C([H])([H])[H])(C([H])([H])[H])C([H])([H])[H])C([H])([H])c2c([H])c(OC([H])([H])C([H])([H])C([H])([H])C([H])(C([H])([H])[H])C3([H])C([H])([H])N(C(=O)N4C([H])([H])C([H])([H])C([H])([H])C([H])(n5nc(-c6c([H])c([H])c(Oc7c([H])c([H])c(F)c([H])c7F)c([H])c6[H])c(C(=O)N([H])[H])c5N([H])[H])C4([H])[H])C([H])([H])C3([H])[N+]([H])([H])C([H])([H])C(=O)N([H])C([H])(C([H])([H])[H])C([H])([H])[H])c([H])c([H])c2C1([H])[H]

>  <smiles>  (4) 
[H]c1c([H])c([H])c2c(c1[H])C([H])([H])C([H])([H])C([H])([H])C2([H])N([H])C(=O)C1([H])N(C(=O)C([H])(N([H])C(=O)C([H])(N([H])C([H])([H])[H])C([H])([H])[H])C(C([H])([H])[H])(C([H])([H])[H])C([H])([H])[H])C([H])([H])c2c([H])c(OC([H])([H])C([H])([H])C([H])([H])C([H])(C([H])([H])[H])C3([H])C([H])([H])N(C(=O)N4C([H])([H])C([H])([H])C([H])([H])C([H])(n5nc(-c6c([H])c([H])c(Oc7c([H])c([H])c(F)c([H])c7F)c([H])c6[H])c(C(=O)N([H])[H])c5N([H])[H])C4([H])[H])C([H])([H])C3([H])[N+]([H])([H])C([H])([H])C(=O)N([H])C([H])(C([H])([H])[H])C([H])([H])[H])c([H])c([H])c2C1([H])[H]

$$$$
4:0:0
     RDKit          3D

 92100  0  0  1  0  0  0  0  0999 V2000
  -28.1140  -17.5230   19.5180 C   0  0  0  0  0  3  0  0  0  0  0  0
  -28.0810  -17.0200   18.1930 C   0  0  0  0  0  3  0  0  0  0  0  0
  -29.3810  -17.9160   20.0190 C   0  0  0  0  0  3  0  0  0  0  0  0
  -30.4420  -17.4040   19.2320 C   0  0  0  0  0  3  0  0  0  0  0  0
  -30.1520  -17.9520   17.8840 C   0  0  0  0  0  3  0  0  0  0  0  0
  -29.1530  -17.1880   17.3620 N   0  0  0  0  0  2  0  0  0  0  0  0
  -31.3620  -14.7080   19.2760 C   0  0  0  0  0  0  0  0  0  0  0  0
  -31.1280  -12.1740   18.9330 C   0  0  0  0  0  2  0  0  0  0  0  0
  -30.1490  -11.8300   17.7870 C   0  0  0  0  0  2  0  0  0  0  0  0
  -28.7060  -11.7740   18.3120 C   0  0  0  0  0  2  0  0  0  0  0  0
  -28.3700  -12.9700   19.2380 C   0  0  0  0  0  3  0  0  0  0  0  0
  -29.4690  -13.2550   20.2800 C   0  0  0  0  0  2  0  0  0  0  0  0
  -30.7290  -13.4780   19.5540 N   0  0  0  0  0  0  0  0  0  0  0  0
  -32.4540  -14.6280   18.7010 O   0  0  0  0  0  0  0  0  0  0  0  0
  -31.0180  -16.0100   21.2100 C   0  0  0  0  0  1  0  0  0  0  0  0
  -30.8570  -15.9720   19.7510 N   0  0  0  0  0  0  0  0  0  0  0  0
  -26.1950  -13.8360   20.2680 C   0  0  0  0  0  0  0  0  0  0  0  0
  -25.0680  -13.2150   20.7200 C   0  0  0  0  0  0  0  0  0  0  0  0
  -25.3090  -11.8150   20.5710 C   0  0  0  0  0  0  0  0  0  0  0  0
  -27.0590  -12.8340   19.8690 N   0  0  0  0  0  0  0  0  0  0  0  0
  -26.5390  -11.6030   20.1140 N   0  0  0  0  0  0  0  0  0  0  0  0
  -24.4130  -10.6780   20.7890 C   0  0  0  0  0  0  0  0  0  0  0  0
  -24.6120   -9.7740   21.8540 C   0  0  0  0  0  3  0  0  0  0  0  0
  -23.7230   -8.6950   22.0490 C   0  0  0  0  0  3  0  0  0  0  0  0
  -22.6190   -8.5160   21.1800 C   0  0  0  0  0  0  0  0  0  0  0  0
  -22.4410   -9.4080   20.1070 C   0  0  0  0  0  3  0  0  0  0  0  0
  -23.3290  -10.4790   19.9110 C   0  0  0  0  0  3  0  0  0  0  0  0
  -21.7200   -7.4810   21.2800 O   0  0  0  0  0  0  0  0  0  0  0  0
  -21.2580   -7.0440   22.4960 C   0  0  0  0  0  0  0  0  0  0  0  0
  -20.5310   -7.8880   23.3660 C   0  0  0  0  0  3  0  0  0  0  0  0
  -20.0110   -7.3750   24.5700 C   0  0  0  0  0  3  0  0  0  0  0  0
  -20.2120   -6.0220   24.9050 C   0  0  0  0  0  0  0  0  0  0  0  0
  -20.9290   -5.1800   24.0370 C   0  0  0  0  0  3  0  0  0  0  0  0
  -21.4490   -5.6890   22.8350 C   0  0  0  0  0  0  0  0  0  0  0  0
  -22.1200   -4.8670   21.9940 F   0  0  0  0  0  0  0  0  0  0  0  0
  -19.7080   -5.5300   26.0610 F   0  0  0  0  0  0  0  0  0  0  0  0
  -23.8060  -13.8880   21.1700 C   0  0  0  0  0  0  0  0  0  0  0  0
  -23.1110  -13.2940   22.1320 N   0  0  0  0  0  0  0  0  0  0  0  0
  -23.4600  -14.9750   20.7070 O   0  0  0  0  0  0  0  0  0  0  0  0
  -23.4120  -12.4090   22.5150 H   0  0  0  0  0  0  0  0  0  0  0  0
  -22.2690  -13.7240   22.4850 H   0  0  0  0  0  0  0  0  0  0  0  0
  -26.5400  -15.1700   20.1410 N   0  0  0  0  0  0  0  0  0  0  0  0
  -25.8810  -15.9140   20.3440 H   0  0  0  0  0  0  0  0  0  0  0  0
  -27.4460  -15.5070   19.8350 H   0  0  0  0  0  0  0  0  0  0  0  0
  -30.1140  -18.8720   22.3330 C   0  0  0  0  0  1  0  0  0  0  0  0
  -28.2670  -19.9980   21.0390 C   0  0  0  0  0  1  0  0  0  0  0  0
  -29.5410  -19.1450   20.9320 C   0  0  0  0  0  3  0  0  0  0  0  0
  -29.7750  -19.4990   17.2930 C   0  0  0  0  0  2  0  0  0  0  0  0
  -29.9750  -21.1330   17.7160 C   0  0  0  0  0  2  0  0  0  0  0  0
  -29.0020  -22.4060   17.0910 C   0  0  0  0  0  2  0  0  0  0  0  0
  -28.4640  -23.8390   17.8400 C   0  0  0  0  0  2  0  0  0  0  0  0
  -28.1260  -25.2430   17.2180 O   0  0  0  0  0  0  0  0  0  0  0  0
  -25.0400  -29.8750   22.1160 C   0  0  0  0  0  0  0  0  0  0  0  0
  -27.0560  -26.1160   17.6540 C   0  0  0  0  0  0  0  0  0  0  0  0
  -23.5650  -28.8670   20.4160 C   0  0  0  0  0  3  0  0  0  0  0  0
  -24.7410  -27.7180   18.4360 C   0  0  0  0  0  0  0  0  0  0  0  0
  -26.0490  -29.2740   19.8790 C   0  0  0  0  0  2  0  0  0  0  0  0
  -26.0110  -28.0720   18.9130 C   0  0  0  0  0  0  0  0  0  0  0  0
  -27.1630  -27.2980   18.4990 C   0  0  0  0  0  3  0  0  0  0  0  0
  -25.7490  -25.8570   17.1820 C   0  0  0  0  0  3  0  0  0  0  0  0
  -24.6200  -26.6240   17.5590 C   0  0  0  0  0  3  0  0  0  0  0  0
  -23.5420  -28.5280   18.9020 C   0  0  0  0  0  2  0  0  0  0  0  0
  -24.9160  -29.3480   20.8600 N   0  0  0  0  0  0  0  0  0  0  0  0
  -24.0680  -29.9760   22.8800 O   0  0  0  0  0  0  0  0  0  0  0  0
  -23.0580  -27.6410   21.2190 C   0  0  0  0  0  0  0  0  0  0  0  0
  -21.7290  -27.4190   21.2320 N   0  0  0  0  0  0  0  0  0  0  0  0
  -23.8600  -26.8930   21.7810 O   0  0  0  0  0  0  0  0  0  0  0  0
  -21.1280  -28.1030   20.7920 H   0  0  0  0  0  0  0  0  0  0  0  0
  -18.5140  -25.8290   21.7280 C   0  0  0  0  0  0  0  0  0  0  0  0
  -21.0600  -26.2710   21.8450 C   0  0  0  0  0  3  0  0  0  0  0  0
  -21.2300  -24.9930   20.9830 C   0  0  0  0  0  2  0  0  0  0  0  0
  -20.0530  -24.6950   20.0410 C   0  0  0  0  0  2  0  0  0  0  0  0
  -18.7180  -24.6460   20.7940 C   0  0  0  0  0  2  0  0  0  0  0  0
  -19.6080  -26.5880   22.2150 C   0  0  0  0  0  0  0  0  0  0  0  0
  -19.3530  -27.6870   23.0710 C   0  0  0  0  0  3  0  0  0  0  0  0
  -18.0400  -28.0240   23.4340 C   0  0  0  0  0  3  0  0  0  0  0  0
  -16.9660  -27.2650   22.9510 C   0  0  0  0  0  3  0  0  0  0  0  0
  -17.1980  -26.1700   22.1030 C   0  0  0  0  0  3  0  0  0  0  0  0
  -26.4110  -30.3900   22.6530 C   0  0  0  0  0  3  0  0  0  0  0  0
  -26.1440  -31.5330   23.5410 N   0  0  0  0  0  0  0  0  0  0  0  0
  -26.3660  -32.8140   23.2220 C   0  0  0  0  0  0  0  0  0  0  0  0
  -26.8880  -33.1600   22.1570 O   0  0  0  0  0  0  0  0  0  0  0  0
  -25.6680  -31.3280   24.4080 H   0  0  0  0  0  0  0  0  0  0  0  0
  -24.6220  -34.5270   23.8170 C   0  0  0  0  0  1  0  0  0  0  0  0
  -25.9520  -33.8890   24.2480 C   0  0  0  0  0  3  0  0  0  0  0  0
  -28.1750  -34.4720   25.1130 C   0  0  0  0  0  1  0  0  0  0  0  0
  -26.9690  -34.9460   24.4390 N   0  0  0  0  0  0  0  0  0  0  0  0
  -26.5900  -35.7180   24.9820 H   0  0  0  0  0  0  0  0  0  0  0  0
  -27.2400  -29.2820   23.4130 C   0  0  1  0  0  0  0  0  0  0  0  0
  -26.4450  -28.5670   24.5310 C   0  0  0  0  0  1  0  0  0  0  0  0
  -27.7430  -28.1990   22.4290 C   0  0  0  0  0  1  0  0  0  0  0  0
  -28.5020  -29.9130   24.0520 C   0  0  0  0  0  1  0  0  0  0  0  0
  1  3  1  0
  2  1  2  0
  3 47  1  0
  4 16  1  0
  4  3  1  0
  5 48  1  0
  5  4  1  0
  6  5  1  0
  6  2  1  0
  7 13  1  0
  7 16  1  0
  8 13  1  0
  9 10  1  0
  9  8  1  0
 11 10  1  0
 11 20  1  0
 11 12  1  0
 13 12  1  0
 14  7  2  0
 16 15  1  0
 17 18  2  0
 18 37  1  0
 19 18  1  0
 19 22  1  0
 20 21  1  0
 20 17  1  0
 21 19  2  0
 22 23  1  0
 23 24  2  0
 25 28  1  0
 25 24  1  0
 26 25  2  0
 27 26  1  0
 27 22  2  0
 28 29  1  0
 29 34  2  0
 29 30  1  0
 30 31  2  0
 31 32  1  0
 32 36  1  0
 33 32  2  0
 34 33  1  0
 35 34  1  0
 37 38  1  0
 38 41  1  0
 38 40  1  0
 39 37  2  0
 42 17  1  0
 42 43  1  0
 44 42  1  0
 47 46  1  0
 47 45  1  0
 48 49  1  0
 50 49  1  0
 50 51  1  0
 52 54  1  0
 52 51  1  0
 53 64  2  0
 54 59  1  0
 55 63  1  0
 55 65  1  0
 56 62  1  0
 56 58  1  0
 57 63  1  0
 58 57  1  0
 59 58  2  0
 60 61  1  0
 60 54  2  0
 61 56  2  0
 62 55  1  0
 63 53  1  0
 65 66  1  0
 65 67  2  0
 68 66  1  0
 69 78  2  0
 69 74  1  0
 70 66  1  0
 70 74  1  0
 71 70  1  0
 72 73  1  0
 72 71  1  0
 73 69  1  0
 74 75  2  0
 75 76  1  0
 77 76  2  0
 78 77  1  0
 79 53  1  0
 79 89  1  0
 79 80  1  0
 80 83  1  0
 81 80  1  0
 81 85  1  0
 82 81  2  0
 85 84  1  0
 85 87  1  0
 87 88  1  0
 87 86  1  0
 89 92  1  1
 89 90  1  0
 91 89  1  0
M  ISO  4   7 100  16 100  51 101  52 101
M  END
>  <TORSDO>  (5) 
F 21

>  <SCORE>  (5) 
-6.407

>  <name>  (5) 
4

>  <ligand_id>  (5) 
4

>  <original_smiles>  (5) 
[H]c1nc(C([H])([H])C([H])([H])C([H])([H])C([H])([H])Oc2c([H])c([H])c3c(c2[H])C([H])([H])N(C(=O)C([H])(N([H])C(=O)C([H])(N([H])C([H])([H])[H])C([H])([H])[H])C(C([H])([H])[H])(C([H])([H])[H])C([H])([H])[H])C([H])(C(=O)N([H])C2([H])c4c([H])c([H])c([H])c([H])c4C([H])([H])C([H])([H])C2([H])[H])C3([H])[H])c(N(C(=O)N2C([H])([H])C([H])([H])C([H])([H])C([H])(n3nc(-c4c([H])c([H])c(Oc5c([H])c([H])c(F)c([H])c5F)c([H])c4[H])c(C(=O)N([H])[H])c3N([H])[H])C2([H])[H])C([H])([H])[H])c(C([H])(C([H])([H])[H])C([H])([H])[H])c1[H]

>  <smiles>  (5) 
[H]c1nc(C([H])([H])C([H])([H])C([H])([H])C([H])([H])Oc2c([H])c([H])c3c(c2[H])C([H])([H])N(C(=O)C([H])(N([H])C(=O)C([H])(N([H])C([H])([H])[H])C([H])([H])[H])C(C([H])([H])[H])(C([H])([H])[H])C([H])([H])[H])C([H])(C(=O)N([H])C2([H])c4c([H])c([H])c([H])c([H])c4C([H])([H])C([H])([H])C2([H])[H])C3([H])[H])c(N(C(=O)N2C([H])([H])C([H])([H])C([H])([H])C([H])(n3nc(-c4c([H])c([H])c(Oc5c([H])c([H])c(F)c([H])c5F)c([H])c4[H])c(C(=O)N([H])[H])c3N([H])[H])C2([H])[H])C([H])([H])[H])c(C([H])(C([H])([H])[H])C([H])([H])[H])c1[H]

$$$$
5:0:0
     RDKit          3D

 89 97  0  0  1  0  0  0  0  0999 V2000
  -27.0590  -21.1390   19.1730 C   0  0  0  0  0  1  0  0  0  0  0  0
  -28.4760  -21.3940   19.5390 N   0  0  2  0  0  4  0  0  0  0  0  0
  -28.8690  -21.5210   18.6190 H   0  0  0  0  0  0  0  0  0  0  0  0
  -30.6050  -15.1880   19.8580 C   0  0  0  0  0  0  0  0  0  0  0  0
  -30.4070  -12.8080   18.9270 C   0  0  0  0  0  2  0  0  0  0  0  0
  -29.3880  -12.6380   17.7780 C   0  0  0  0  0  2  0  0  0  0  0  0
  -27.9870  -12.3610   18.3400 C   0  0  0  0  0  2  0  0  0  0  0  0
  -27.6290  -13.3270   19.4980 C   0  0  0  0  0  3  0  0  0  0  0  0
  -28.7630  -13.4670   20.5380 C   0  0  0  0  0  2  0  0  0  0  0  0
  -29.9440  -13.9410   19.8000 N   0  0  0  0  0  0  0  0  0  0  0  0
  -31.8040  -15.1110   19.5550 O   0  0  0  0  0  0  0  0  0  0  0  0
  -29.9470  -19.1170   18.8690 C   0  0  0  0  0  2  0  0  0  0  0  0
  -28.3950  -18.7220   20.5460 C   0  0  0  0  0  2  0  0  0  0  0  0
  -30.7390  -17.7660   19.3280 C   0  0  0  0  0  2  0  0  0  0  0  0
  -29.0570  -17.2270   20.8330 C   0  0  0  0  0  2  0  0  0  0  0  0
  -29.2250  -20.0040   19.9830 C   0  0  0  0  0  3  0  0  0  0  0  0
  -29.9930  -16.5290   19.8470 N   0  0  0  0  0  0  0  0  0  0  0  0
  -25.3290  -13.8810   20.4550 C   0  0  0  0  0  0  0  0  0  0  0  0
  -24.2900  -13.0950   20.8830 C   0  0  0  0  0  0  0  0  0  0  0  0
  -24.7400  -11.7460   20.7630 C   0  0  0  0  0  0  0  0  0  0  0  0
  -26.3430  -13.0050   20.1050 N   0  0  0  0  0  0  0  0  0  0  0  0
  -26.0060  -11.7130   20.3530 N   0  0  0  0  0  0  0  0  0  0  0  0
  -24.0170  -10.4800   20.9550 C   0  0  0  0  0  0  0  0  0  0  0  0
  -24.4710   -9.5020   21.8650 C   0  0  0  0  0  3  0  0  0  0  0  0
  -23.7480   -8.3030   22.0500 C   0  0  0  0  0  3  0  0  0  0  0  0
  -22.5560   -8.0740   21.3240 C   0  0  0  0  0  0  0  0  0  0  0  0
  -22.1190   -9.0400   20.4010 C   0  0  0  0  0  3  0  0  0  0  0  0
  -22.8420  -10.2300   20.2140 C   0  0  0  0  0  3  0  0  0  0  0  0
  -21.8010   -6.9300   21.4190 O   0  0  0  0  0  0  0  0  0  0  0  0
  -21.7220   -6.2150   22.5850 C   0  0  0  0  0  0  0  0  0  0  0  0
  -21.2510   -6.7950   23.7840 C   0  0  0  0  0  3  0  0  0  0  0  0
  -21.1230   -6.0060   24.9450 C   0  0  0  0  0  3  0  0  0  0  0  0
  -21.4560   -4.6380   24.9090 C   0  0  0  0  0  0  0  0  0  0  0  0
  -21.9200   -4.0580   23.7140 C   0  0  0  0  0  3  0  0  0  0  0  0
  -22.0510   -4.8450   22.5570 C   0  0  0  0  0  0  0  0  0  0  0  0
  -22.4800   -4.2770   21.4050 F   0  0  0  0  0  0  0  0  0  0  0  0
  -21.3250   -3.8770   26.0220 F   0  0  0  0  0  0  0  0  0  0  0  0
  -22.9250  -13.5690   21.2760 C   0  0  0  0  0  0  0  0  0  0  0  0
  -22.2670  -12.8510   22.1810 N   0  0  0  0  0  0  0  0  0  0  0  0
  -22.4540  -14.6100   20.8200 O   0  0  0  0  0  0  0  0  0  0  0  0
  -22.6620  -12.0100   22.5700 H   0  0  0  0  0  0  0  0  0  0  0  0
  -21.3490  -13.1460   22.4850 H   0  0  0  0  0  0  0  0  0  0  0  0
  -25.4980  -15.2540   20.3030 N   0  0  0  0  0  0  0  0  0  0  0  0
  -24.7350  -15.9140   20.4000 H   0  0  0  0  0  0  0  0  0  0  0  0
  -26.3160  -15.6530   19.8600 H   0  0  0  0  0  0  0  0  0  0  0  0
  -28.7660  -22.9070   20.0910 C   0  0  0  0  0  2  0  0  0  0  0  0
  -26.5870  -24.0270   21.0200 C   0  0  0  0  0  1  0  0  0  0  0  0
  -27.7310  -24.3260   20.0130 C   0  0  0  0  0  3  0  0  0  0  0  0
  -28.0980  -25.8990   20.1780 O   0  0  0  0  0  0  0  0  0  0  0  0
  -24.6290  -31.8020   23.1970 C   0  0  0  0  0  0  0  0  0  0  0  0
  -27.1440  -27.0120   20.0900 C   0  0  0  0  0  0  0  0  0  0  0  0
  -23.4490  -30.4540   21.5200 C   0  0  0  0  0  3  0  0  0  0  0  0
  -24.8950  -28.8980   20.0510 C   0  0  0  0  0  0  0  0  0  0  0  0
  -26.0080  -30.6480   21.4060 C   0  0  0  0  0  2  0  0  0  0  0  0
  -26.0700  -29.2600   20.7250 C   0  0  0  0  0  0  0  0  0  0  0  0
  -27.1920  -28.3330   20.7340 C   0  0  0  0  0  3  0  0  0  0  0  0
  -25.9720  -26.8150   19.3260 C   0  0  0  0  0  3  0  0  0  0  0  0
  -24.8760  -27.7040   19.3200 C   0  0  0  0  0  3  0  0  0  0  0  0
  -23.6880  -29.8300   20.1180 C   0  0  0  0  0  2  0  0  0  0  0  0
  -24.7180  -30.9940   22.0970 N   0  0  0  0  0  0  0  0  0  0  0  0
  -23.5380  -32.0880   23.7100 O   0  0  0  0  0  0  0  0  0  0  0  0
  -22.7510  -29.4220   22.4460 C   0  0  0  0  0  0  0  0  0  0  0  0
  -21.4250  -29.2520   22.2920 N   0  0  0  0  0  0  0  0  0  0  0  0
  -23.4060  -28.7850   23.2740 O   0  0  0  0  0  0  0  0  0  0  0  0
  -20.9410  -29.8340   21.6210 H   0  0  0  0  0  0  0  0  0  0  0  0
  -18.0480  -28.0090   22.7250 C   0  0  0  0  0  0  0  0  0  0  0  0
  -20.6010  -28.2950   23.0380 C   0  0  0  0  0  3  0  0  0  0  0  0
  -20.7250  -26.8700   22.4550 C   0  0  0  0  0  2  0  0  0  0  0  0
  -19.6490  -26.5460   21.4120 C   0  0  0  0  0  2  0  0  0  0  0  0
  -18.2530  -26.6710   22.0310 C   0  0  0  0  0  2  0  0  0  0  0  0
  -19.1520  -28.7780   23.1820 C   0  0  0  0  0  0  0  0  0  0  0  0
  -18.9080  -30.0270   23.7910 C   0  0  0  0  0  3  0  0  0  0  0  0
  -17.5970  -30.5150   23.9380 C   0  0  0  0  0  3  0  0  0  0  0  0
  -16.5060  -29.7460   23.4940 C   0  0  0  0  0  3  0  0  0  0  0  0
  -16.7330  -28.4930   22.8950 C   0  0  0  0  0  3  0  0  0  0  0  0
  -25.8970  -32.4340   23.8510 C   0  0  0  0  0  3  0  0  0  0  0  0
  -25.5870  -33.8360   24.1810 N   0  0  0  0  0  0  0  0  0  0  0  0
  -25.9130  -34.8930   23.4220 C   0  0  0  0  0  0  0  0  0  0  0  0
  -26.5740  -34.7870   22.3850 O   0  0  0  0  0  0  0  0  0  0  0  0
  -25.0090  -33.9890   24.9930 H   0  0  0  0  0  0  0  0  0  0  0  0
  -24.1800  -36.6930   23.0970 C   0  0  0  0  0  1  0  0  0  0  0  0
  -25.4380  -36.2870   23.8850 C   0  0  0  0  0  3  0  0  0  0  0  0
  -27.5870  -37.1870   24.6630 C   0  0  0  0  0  1  0  0  0  0  0  0
  -26.4660  -37.3400   23.7410 N   0  0  0  0  0  0  0  0  0  0  0  0
  -26.0600  -38.2610   23.8850 H   0  0  0  0  0  0  0  0  0  0  0  0
  -26.3730  -31.6650   25.1440 C   0  0  1  0  0  0  0  0  0  0  0  0
  -25.2530  -31.4290   26.1870 C   0  0  0  0  0  1  0  0  0  0  0  0
  -26.9580  -30.2850   24.7720 C   0  0  0  0  0  1  0  0  0  0  0  0
  -27.5240  -32.4480   25.8240 C   0  0  0  0  0  1  0  0  0  0  0  0
  1  2  1  0
  2 46  1  0
  2  3  1  6
  5 10  1  0
  6  7  1  0
  6  5  1  0
  8  7  1  0
  8 21  1  0
  8  9  1  0
 10  4  1  0
 10  9  1  0
 11  4  2  0
 12 14  1  0
 12 16  1  0
 13 15  1  0
 14 17  1  0
 16  2  1  0
 16 13  1  0
 17  4  1  0
 17 15  1  0
 18 19  2  0
 19 38  1  0
 20 19  1  0
 20 23  1  0
 21 22  1  0
 21 18  1  0
 22 20  2  0
 23 24  1  0
 24 25  2  0
 26 29  1  0
 26 25  1  0
 27 26  2  0
 28 27  1  0
 28 23  2  0
 29 30  1  0
 30 31  1  0
 31 32  2  0
 33 32  1  0
 33 37  1  0
 34 33  2  0
 35 30  2  0
 35 34  1  0
 36 35  1  0
 38 39  1  0
 39 42  1  0
 39 41  1  0
 40 38  2  0
 43 44  1  0
 43 18  1  0
 45 43  1  0
 48 46  1  0
 48 49  1  0
 48 47  1  0
 50 61  2  0
 51 49  1  0
 51 56  1  0
 52 60  1  0
 52 62  1  0
 53 59  1  0
 53 55  1  0
 54 60  1  0
 55 56  2  0
 55 54  1  0
 57 51  2  0
 58 57  1  0
 58 53  2  0
 59 52  1  0
 60 50  1  0
 62 64  2  0
 63 62  1  0
 65 63  1  0
 66 75  2  0
 66 71  1  0
 67 63  1  0
 67 71  1  0
 68 67  1  0
 69 70  1  0
 69 68  1  0
 70 66  1  0
 71 72  2  0
 72 73  1  0
 74 73  2  0
 75 74  1  0
 76 50  1  0
 76 77  1  0
 76 86  1  0
 77 80  1  0
 78 82  1  0
 78 77  1  0
 79 78  2  0
 82 81  1  0
 84 85  1  0
 84 82  1  0
 84 83  1  0
 86 89  1  1
 86 87  1  0
 88 86  1  0
M  ISO  4   4 100  17 100  48 101  49 101
M  END
>  <TORSDO>  (6) 
F 18

>  <SCORE>  (6) 
-14.965

>  <name>  (6) 
5

>  <ligand_id>  (6) 
5

>  <original_smiles>  (6) 
[H]c1c([H])c([H])c2c(c1[H])C([H])([H])C([H])([H])C([H])([H])C2([H])N([H])C(=O)C1([H])N(C(=O)C([H])(N([H])C(=O)C([H])(N([H])C([H])([H])[H])C([H])([H])[H])C(C([H])([H])[H])(C([H])([H])[H])C([H])([H])[H])C([H])([H])c2c([H])c(OC([H])(C([H])([H])[H])C([H])([H])[N+]([H])(C([H])([H])[H])C3([H])C([H])([H])C([H])([H])N(C(=O)N4C([H])([H])C([H])([H])C([H])([H])C([H])(n5nc(-c6c([H])c([H])c(Oc7c([H])c([H])c(F)c([H])c7F)c([H])c6[H])c(C(=O)N([H])[H])c5N([H])[H])C4([H])[H])C([H])([H])C3([H])[H])c([H])c([H])c2C1([H])[H]

>  <smiles>  (6) 
[H]c1c([H])c([H])c2c(c1[H])C([H])([H])C([H])([H])C([H])([H])C2([H])N([H])C(=O)C1([H])N(C(=O)C([H])(N([H])C(=O)C([H])(N([H])C([H])([H])[H])C([H])([H])[H])C(C([H])([H])[H])(C([H])([H])[H])C([H])([H])[H])C([H])([H])c2c([H])c(OC([H])(C([H])([H])[H])C([H])([H])[N+]([H])(C([H])([H])[H])C3([H])C([H])([H])C([H])([H])N(C(=O)N4C([H])([H])C([H])([H])C([H])([H])C([H])(n5nc(-c6c([H])c([H])c(Oc7c([H])c([H])c(F)c([H])c7F)c([H])c6[H])c(C(=O)N([H])[H])c5N([H])[H])C4([H])[H])C([H])([H])C3([H])[H])c([H])c([H])c2C1([H])[H]

$$$$
6:0:0
     RDKit          3D

 89 97  0  0  1  0  0  0  0  0999 V2000
  -26.8930  -20.9790   19.8480 C   0  0  0  0  0  3  0  0  0  0  0  0
  -27.3100  -22.3180   20.0530 C   0  0  0  0  0  3  0  0  0  0  0  0
  -27.7710  -19.8640   19.7260 C   0  0  0  0  0  0  0  0  0  0  0  0
  -28.6640  -22.6780   20.1130 C   0  0  0  0  0  0  0  0  0  0  0  0
  -29.1690  -20.0120   19.9290 C   0  0  0  0  0  0  0  0  0  0  0  0
  -27.1620  -18.5260   19.3280 C   0  0  0  0  0  1  0  0  0  0  0  0
  -29.5380  -21.4580   20.0670 N   0  0  0  0  0  0  0  0  0  0  0  0
  -29.6750  -24.6390   18.5750 C   0  0  0  0  0  1  0  0  0  0  0  0
  -29.0520  -24.4130   19.9460 C   0  0  0  0  0  3  0  0  0  0  0  0
  -28.5210  -25.9550   20.4180 O   0  0  0  0  0  0  0  0  0  0  0  0
  -24.6390  -31.8190   23.1290 C   0  0  0  0  0  0  0  0  0  0  0  0
  -27.4830  -27.0210   20.1590 C   0  0  0  0  0  0  0  0  0  0  0  0
  -23.5690  -30.4230   21.4120 C   0  0  0  0  0  3  0  0  0  0  0  0
  -25.1300  -28.8780   20.0160 C   0  0  0  0  0  0  0  0  0  0  0  0
  -26.1310  -30.6930   21.3980 C   0  0  0  0  0  2  0  0  0  0  0  0
  -26.2650  -29.2910   20.7160 C   0  0  0  0  0  0  0  0  0  0  0  0
  -27.4210  -28.3820   20.7620 C   0  0  0  0  0  3  0  0  0  0  0  0
  -26.3200  -26.7750   19.3890 C   0  0  0  0  0  3  0  0  0  0  0  0
  -25.1910  -27.6500   19.3290 C   0  0  0  0  0  3  0  0  0  0  0  0
  -23.8780  -29.7650   20.0330 C   0  0  0  0  0  2  0  0  0  0  0  0
  -24.7990  -31.0100   22.0330 N   0  0  0  0  0  0  0  0  0  0  0  0
  -23.5160  -32.0680   23.6050 O   0  0  0  0  0  0  0  0  0  0  0  0
  -22.8610  -29.3930   22.3330 C   0  0  0  0  0  0  0  0  0  0  0  0
  -21.5300  -29.2430   22.1920 N   0  0  0  0  0  0  0  0  0  0  0  0
  -23.5190  -28.7240   23.1360 O   0  0  0  0  0  0  0  0  0  0  0  0
  -21.0550  -29.8350   21.5240 H   0  0  0  0  0  0  0  0  0  0  0  0
  -18.1200  -28.1200   22.7290 C   0  0  0  0  0  0  0  0  0  0  0  0
  -20.6980  -28.2780   22.9190 C   0  0  0  0  0  3  0  0  0  0  0  0
  -20.7230  -26.8950   22.2250 C   0  0  0  0  0  2  0  0  0  0  0  0
  -19.5750  -26.6950   21.2290 C   0  0  0  0  0  2  0  0  0  0  0  0
  -18.2220  -26.8290   21.9310 C   0  0  0  0  0  2  0  0  0  0  0  0
  -19.2800  -28.8070   23.1780 C   0  0  0  0  0  0  0  0  0  0  0  0
  -19.1230  -30.0180   23.8900 C   0  0  0  0  0  3  0  0  0  0  0  0
  -17.8430  -30.5390   24.1530 C   0  0  0  0  0  3  0  0  0  0  0  0
  -16.6990  -29.8470   23.7170 C   0  0  0  0  0  3  0  0  0  0  0  0
  -16.8370  -28.6410   23.0080 C   0  0  0  0  0  3  0  0  0  0  0  0
  -25.8550  -32.4930   23.8360 C   0  0  0  0  0  3  0  0  0  0  0  0
  -25.4940  -33.8920   24.1310 N   0  0  0  0  0  0  0  0  0  0  0  0
  -25.8450  -34.9580   23.3940 C   0  0  0  0  0  0  0  0  0  0  0  0
  -26.5690  -34.8600   22.4010 O   0  0  0  0  0  0  0  0  0  0  0  0
  -24.8540  -34.0320   24.8980 H   0  0  0  0  0  0  0  0  0  0  0  0
  -24.1180  -36.7360   22.9420 C   0  0  0  0  0  1  0  0  0  0  0  0
  -25.3150  -36.3440   23.8230 C   0  0  0  0  0  3  0  0  0  0  0  0
  -27.3710  -37.2750   24.7970 C   0  0  0  0  0  1  0  0  0  0  0  0
  -26.3410  -37.4090   23.7690 N   0  0  0  0  0  0  0  0  0  0  0  0
  -25.9150  -38.3280   23.8660 H   0  0  0  0  0  0  0  0  0  0  0  0
  -26.2820  -31.7570   25.1640 C   0  0  1  0  0  0  0  0  0  0  0  0
  -25.1110  -31.5090   26.1450 C   0  0  0  0  0  1  0  0  0  0  0  0
  -26.9250  -30.3890   24.8540 C   0  0  0  0  0  1  0  0  0  0  0  0
  -27.3610  -32.5870   25.8980 C   0  0  0  0  0  1  0  0  0  0  0  0
  -30.1730  -18.5370   19.9390 C   0  0  0  0  0  2  0  0  0  0  0  0
  -30.6520  -15.5620   19.8550 C   0  0  0  0  0  0  0  0  0  0  0  0
  -30.5920  -13.1020   18.9700 C   0  0  0  0  0  2  0  0  0  0  0  0
  -29.6020  -12.8710   17.7960 C   0  0  0  0  0  2  0  0  0  0  0  0
  -28.1870  -12.5750   18.3250 C   0  0  0  0  0  2  0  0  0  0  0  0
  -27.7960  -13.5320   19.4770 C   0  0  0  0  0  3  0  0  0  0  0  0
  -28.9130  -13.7100   20.5290 C   0  0  0  0  0  2  0  0  0  0  0  0
  -30.0840  -14.2490   19.8190 N   0  0  0  0  0  0  0  0  0  0  0  0
  -31.8670  -15.5420   19.5960 O   0  0  0  0  0  0  0  0  0  0  0  0
  -29.9000  -16.8580   19.9730 N   0  0  0  0  0  0  0  0  0  0  0  0
  -28.9220  -16.6680   20.1190 H   0  0  0  0  0  0  0  0  0  0  0  0
  -25.4970  -14.0770   20.4160 C   0  0  0  0  0  0  0  0  0  0  0  0
  -24.4540  -13.3010   20.8290 C   0  0  0  0  0  0  0  0  0  0  0  0
  -24.9020  -11.9460   20.7180 C   0  0  0  0  0  0  0  0  0  0  0  0
  -26.5120  -13.2010   20.0740 N   0  0  0  0  0  0  0  0  0  0  0  0
  -26.1710  -11.9120   20.3200 N   0  0  0  0  0  0  0  0  0  0  0  0
  -24.1770  -10.6870   20.9060 C   0  0  0  0  0  0  0  0  0  0  0  0
  -24.5940   -9.7260   21.8520 C   0  0  0  0  0  3  0  0  0  0  0  0
  -23.8640   -8.5320   22.0300 C   0  0  0  0  0  3  0  0  0  0  0  0
  -22.7010   -8.2890   21.2630 C   0  0  0  0  0  0  0  0  0  0  0  0
  -22.3010   -9.2380   20.3070 C   0  0  0  0  0  3  0  0  0  0  0  0
  -23.0310  -10.4230   20.1270 C   0  0  0  0  0  3  0  0  0  0  0  0
  -21.9450   -7.1450   21.3500 O   0  0  0  0  0  0  0  0  0  0  0  0
  -21.7860   -6.4750   22.5340 C   0  0  0  0  0  0  0  0  0  0  0  0
  -21.1590   -7.0690   23.6520 C   0  0  0  0  0  3  0  0  0  0  0  0
  -20.9580   -6.3190   24.8280 C   0  0  0  0  0  3  0  0  0  0  0  0
  -21.3740   -4.9760   24.8860 C   0  0  0  0  0  0  0  0  0  0  0  0
  -21.9960   -4.3810   23.7750 C   0  0  0  0  0  3  0  0  0  0  0  0
  -22.1990   -5.1280   22.6010 C   0  0  0  0  0  0  0  0  0  0  0  0
  -22.7780   -4.5430   21.5260 F   0  0  0  0  0  0  0  0  0  0  0  0
  -21.1740   -4.2540   26.0130 F   0  0  0  0  0  0  0  0  0  0  0  0
  -23.0840  -13.7830   21.1980 C   0  0  0  0  0  0  0  0  0  0  0  0
  -22.4060  -13.0730   22.0920 N   0  0  0  0  0  0  0  0  0  0  0  0
  -22.6240  -14.8220   20.7260 O   0  0  0  0  0  0  0  0  0  0  0  0
  -22.7940  -12.2310   22.4930 H   0  0  0  0  0  0  0  0  0  0  0  0
  -21.4880  -13.3740   22.3860 H   0  0  0  0  0  0  0  0  0  0  0  0
  -25.6620  -15.4490   20.2720 N   0  0  0  0  0  0  0  0  0  0  0  0
  -24.8910  -16.0920   20.4220 H   0  0  0  0  0  0  0  0  0  0  0  0
  -26.4550  -15.8690   19.8090 H   0  0  0  0  0  0  0  0  0  0  0  0
  1  2  1  0
  2  4  2  0
  3  1  2  0
  3  5  1  0
  5 51  1  0
  5  7  2  0
  6  3  1  0
  7  4  1  0
  9  8  1  0
  9  4  1  0
  9 10  1  0
 11 22  2  0
 12 10  1  0
 12 17  1  0
 13 21  1  0
 13 23  1  0
 14 20  1  0
 14 16  1  0
 15 21  1  0
 16 17  2  0
 16 15  1  0
 18 12  2  0
 19 18  1  0
 19 14  2  0
 20 13  1  0
 21 11  1  0
 23 25  2  0
 24 23  1  0
 26 24  1  0
 27 36  2  0
 27 32  1  0
 28 24  1  0
 28 32  1  0
 29 28  1  0
 30 31  1  0
 30 29  1  0
 31 27  1  0
 32 33  2  0
 33 34  1  0
 35 34  2  0
 36 35  1  0
 37 11  1  0
 37 38  1  0
 37 47  1  0
 38 41  1  0
 39 43  1  0
 39 38  1  0
 40 39  2  0
 43 42  1  0
 45 43  1  0
 45 46  1  0
 45 44  1  0
 47 50  1  1
 47 48  1  0
 49 47  1  0
 51 60  1  0
 52 60  1  0
 53 58  1  0
 54 55  1  0
 54 53  1  0
 56 55  1  0
 56 65  1  0
 56 57  1  0
 58 52  1  0
 58 57  1  0
 59 52  2  0
 60 61  1  0
 62 63  2  0
 63 82  1  0
 64 63  1  0
 64 67  1  0
 65 66  1  0
 65 62  1  0
 66 64  2  0
 67 68  1  0
 68 69  2  0
 70 73  1  0
 70 69  1  0
 71 70  2  0
 72 71  1  0
 72 67  2  0
 73 74  1  0
 74 79  2  0
 74 75  1  0
 75 76  2  0
 76 77  1  0
 77 81  1  0
 78 77  2  0
 79 78  1  0
 80 79  1  0
 82 83  1  0
 83 86  1  0
 83 85  1  0
 84 82  2  0
 87 62  1  0
 87 88  1  0
 89 87  1  0
M  ISO  4   9 101  10 101  52 100  60 100
M  END
>  <TORSDO>  (7) 
F 18

>  <SCORE>  (7) 
-15.716

>  <name>  (7) 
6

>  <ligand_id>  (7) 
6

>  <original_smiles>  (7) 
[H]c1c(C([H])(Oc2c([H])c([H])c3c(c2[H])C([H])([H])N(C(=O)C([H])(N([H])C(=O)C([H])(N([H])C([H])([H])[H])C([H])([H])[H])C(C([H])([H])[H])(C([H])([H])[H])C([H])([H])[H])C([H])(C(=O)N([H])C2([H])c4c([H])c([H])c([H])c([H])c4C([H])([H])C([H])([H])C2([H])[H])C3([H])[H])C([H])([H])[H])nc(C([H])([H])N([H])C(=O)N2C([H])([H])C([H])([H])C([H])([H])C([H])(n3nc(-c4c([H])c([H])c(Oc5c([H])c([H])c(F)c([H])c5F)c([H])c4[H])c(C(=O)N([H])[H])c3N([H])[H])C2([H])[H])c(C([H])([H])[H])c1[H]

>  <smiles>  (7) 
[H]c1c(C([H])(Oc2c([H])c([H])c3c(c2[H])C([H])([H])N(C(=O)C([H])(N([H])C(=O)C([H])(N([H])C([H])([H])[H])C([H])([H])[H])C(C([H])([H])[H])(C([H])([H])[H])C([H])([H])[H])C([H])(C(=O)N([H])C2([H])c4c([H])c([H])c([H])c([H])c4C([H])([H])C([H])([H])C2([H])[H])C3([H])[H])C([H])([H])[H])nc(C([H])([H])N([H])C(=O)N2C([H])([H])C([H])([H])C([H])([H])C([H])(n3nc(-c4c([H])c([H])c(Oc5c([H])c([H])c(F)c([H])c5F)c([H])c4[H])c(C(=O)N([H])[H])c3N([H])[H])C2([H])[H])c(C([H])([H])[H])c1[H]

$$$$
7:0:0
     RDKit          3D

 90 97  0  0  1  0  0  0  0  0999 V2000
  -28.6330  -22.8230   19.7500 C   0  0  0  0  0  2  0  0  0  0  0  0
  -29.1700  -21.3550   20.3520 N   0  0  0  0  0  4  0  0  0  0  0  0
  -30.1620  -21.4880   20.4680 H   0  0  0  0  0  0  0  0  0  0  0  0
  -28.8030  -21.3020   21.2890 H   0  0  0  0  0  0  0  0  0  0  0  0
  -29.0220  -19.7940   19.7740 C   0  0  0  0  0  2  0  0  0  0  0  0
  -30.4220  -18.4700   21.6120 C   0  0  0  0  0  1  0  0  0  0  0  0
  -30.0210  -18.3340   20.1370 C   0  0  0  0  0  3  0  0  0  0  0  0
  -30.5380  -15.4220   19.8120 C   0  0  0  0  0  0  0  0  0  0  0  0
  -30.4710  -12.9730   18.9470 C   0  0  0  0  0  2  0  0  0  0  0  0
  -29.4720  -12.7260   17.7890 C   0  0  0  0  0  2  0  0  0  0  0  0
  -28.0580  -12.4540   18.3330 C   0  0  0  0  0  2  0  0  0  0  0  0
  -27.6740  -13.4380   19.4650 C   0  0  0  0  0  3  0  0  0  0  0  0
  -28.7920  -13.6120   20.5120 C   0  0  0  0  0  2  0  0  0  0  0  0
  -29.9670  -14.1210   19.7840 N   0  0  0  0  0  0  0  0  0  0  0  0
  -31.7550  -15.4180   19.5750 O   0  0  0  0  0  0  0  0  0  0  0  0
  -29.7690  -16.6910   19.9060 N   0  0  0  0  0  0  0  0  0  0  0  0
  -28.7810  -16.4780   19.9340 H   0  0  0  0  0  0  0  0  0  0  0  0
  -25.3760  -14.0050   20.4150 C   0  0  0  0  0  0  0  0  0  0  0  0
  -24.3330  -13.2300   20.8380 C   0  0  0  0  0  0  0  0  0  0  0  0
  -24.7780  -11.8770   20.7320 C   0  0  0  0  0  0  0  0  0  0  0  0
  -26.3850  -13.1250   20.0670 N   0  0  0  0  0  0  0  0  0  0  0  0
  -26.0430  -11.8370   20.3280 N   0  0  0  0  0  0  0  0  0  0  0  0
  -24.0470  -10.6190   20.9350 C   0  0  0  0  0  0  0  0  0  0  0  0
  -24.5030   -9.6380   21.8440 C   0  0  0  0  0  3  0  0  0  0  0  0
  -23.7720   -8.4460   22.0380 C   0  0  0  0  0  3  0  0  0  0  0  0
  -22.5680   -8.2280   21.3240 C   0  0  0  0  0  0  0  0  0  0  0  0
  -22.1310   -9.1970   20.4030 C   0  0  0  0  0  3  0  0  0  0  0  0
  -22.8640  -10.3800   20.2080 C   0  0  0  0  0  3  0  0  0  0  0  0
  -21.8050   -7.0910   21.4280 O   0  0  0  0  0  0  0  0  0  0  0  0
  -21.7610   -6.3580   22.5870 C   0  0  0  0  0  0  0  0  0  0  0  0
  -21.3070   -6.9130   23.8030 C   0  0  0  0  0  3  0  0  0  0  0  0
  -21.2130   -6.1040   24.9540 C   0  0  0  0  0  3  0  0  0  0  0  0
  -21.5640   -4.7420   24.8890 C   0  0  0  0  0  0  0  0  0  0  0  0
  -22.0100   -4.1870   23.6760 C   0  0  0  0  0  3  0  0  0  0  0  0
  -22.1060   -4.9930   22.5280 C   0  0  0  0  0  0  0  0  0  0  0  0
  -22.5170   -4.4470   21.3580 F   0  0  0  0  0  0  0  0  0  0  0  0
  -21.4660   -3.9620   25.9910 F   0  0  0  0  0  0  0  0  0  0  0  0
  -22.9660  -13.7170   21.2160 C   0  0  0  0  0  0  0  0  0  0  0  0
  -22.2910  -13.0100   22.1150 N   0  0  0  0  0  0  0  0  0  0  0  0
  -22.5070  -14.7600   20.7500 O   0  0  0  0  0  0  0  0  0  0  0  0
  -22.6780  -12.1660   22.5110 H   0  0  0  0  0  0  0  0  0  0  0  0
  -21.3750  -13.3170   22.4120 H   0  0  0  0  0  0  0  0  0  0  0  0
  -25.5420  -15.3790   20.2660 N   0  0  0  0  0  0  0  0  0  0  0  0
  -24.7840  -16.0290   20.4490 H   0  0  0  0  0  0  0  0  0  0  0  0
  -26.3520  -15.8240   19.8550 H   0  0  0  0  0  0  0  0  0  0  0  0
  -29.2930  -24.4460   21.7270 C   0  0  0  0  0  1  0  0  0  0  0  0
  -28.2560  -24.3740   20.5950 C   0  0  2  0  0  0  0  0  0  0  0  0
  -26.6210  -23.0390   22.1940 C   0  0  0  0  0  1  0  0  0  0  0  0
  -26.8330  -24.1990   21.2050 C   0  0  0  0  0  2  0  0  0  0  0  0
  -28.3140  -25.9750   20.1560 O   0  0  0  0  0  0  0  0  0  0  0  0
  -24.6470  -31.8770   23.1950 C   0  0  0  0  0  0  0  0  0  0  0  0
  -27.2790  -27.0540   20.1770 C   0  0  0  0  0  0  0  0  0  0  0  0
  -23.4890  -30.4930   21.5250 C   0  0  0  0  0  3  0  0  0  0  0  0
  -24.9700  -28.9160   20.1090 C   0  0  0  0  0  0  0  0  0  0  0  0
  -26.0560  -30.7240   21.4200 C   0  0  0  0  0  2  0  0  0  0  0  0
  -26.1440  -29.3220   20.7540 C   0  0  0  0  0  0  0  0  0  0  0  0
  -27.2960  -28.4140   20.7610 C   0  0  0  0  0  3  0  0  0  0  0  0
  -26.0800  -26.8070   19.4730 C   0  0  0  0  0  3  0  0  0  0  0  0
  -24.9610  -27.6780   19.4500 C   0  0  0  0  0  3  0  0  0  0  0  0
  -23.7440  -29.8270   20.1440 C   0  0  0  0  0  2  0  0  0  0  0  0
  -24.7510  -31.0570   22.1010 N   0  0  0  0  0  0  0  0  0  0  0  0
  -23.5480  -32.1490   23.7030 O   0  0  0  0  0  0  0  0  0  0  0  0
  -22.7930  -29.4770   22.4690 C   0  0  0  0  0  0  0  0  0  0  0  0
  -21.4650  -29.3140   22.3390 N   0  0  0  0  0  0  0  0  0  0  0  0
  -23.4580  -28.8380   23.2880 O   0  0  0  0  0  0  0  0  0  0  0  0
  -20.9780  -29.8800   21.6580 H   0  0  0  0  0  0  0  0  0  0  0  0
  -18.0740  -28.1300   22.8560 C   0  0  0  0  0  0  0  0  0  0  0  0
  -20.6410  -28.3590   23.0920 C   0  0  0  0  0  3  0  0  0  0  0  0
  -20.7190  -26.9450   22.4710 C   0  0  0  0  0  2  0  0  0  0  0  0
  -19.6000  -26.6660   21.4650 C   0  0  0  0  0  2  0  0  0  0  0  0
  -18.2280  -26.8050   22.1310 C   0  0  0  0  0  2  0  0  0  0  0  0
  -19.2080  -28.8670   23.2940 C   0  0  0  0  0  0  0  0  0  0  0  0
  -19.0070  -30.1090   23.9360 C   0  0  0  0  0  3  0  0  0  0  0  0
  -17.7100  -30.6140   24.1420 C   0  0  0  0  0  3  0  0  0  0  0  0
  -16.5920  -29.8720   23.7190 C   0  0  0  0  0  3  0  0  0  0  0  0
  -16.7750  -28.6330   23.0820 C   0  0  0  0  0  3  0  0  0  0  0  0
  -25.9040  -32.5240   23.8510 C   0  0  0  0  0  3  0  0  0  0  0  0
  -25.5780  -33.9240   24.1730 N   0  0  0  0  0  0  0  0  0  0  0  0
  -25.9060  -34.9820   23.4190 C   0  0  0  0  0  0  0  0  0  0  0  0
  -26.5790  -34.8840   22.3900 O   0  0  0  0  0  0  0  0  0  0  0  0
  -24.9810  -34.0740   24.9730 H   0  0  0  0  0  0  0  0  0  0  0  0
  -24.1670  -36.7710   23.0740 C   0  0  0  0  0  1  0  0  0  0  0  0
  -25.4130  -36.3700   23.8800 C   0  0  0  0  0  3  0  0  0  0  0  0
  -27.5370  -37.2810   24.7110 C   0  0  0  0  0  1  0  0  0  0  0  0
  -26.4360  -37.4310   23.7630 N   0  0  0  0  0  0  0  0  0  0  0  0
  -26.0190  -38.3480   23.9030 H   0  0  0  0  0  0  0  0  0  0  0  0
  -26.3810  -31.7680   25.1520 C   0  0  1  0  0  0  0  0  0  0  0  0
  -25.2530  -31.5390   26.1870 C   0  0  0  0  0  1  0  0  0  0  0  0
  -26.9810  -30.3890   24.8010 C   0  0  0  0  0  1  0  0  0  0  0  0
  -27.5100  -32.5730   25.8380 C   0  0  0  0  0  1  0  0  0  0  0  0
  1  2  1  0
  1 47  1  0
  2  3  1  0
  2  4  1  0
  5  7  1  0
  5  2  1  0
  7  6  1  0
  8 16  1  0
  9 14  1  0
 10 11  1  0
 10  9  1  0
 12 11  1  0
 12 21  1  0
 12 13  1  0
 14  8  1  0
 14 13  1  0
 15  8  2  0
 16 17  1  0
 16  7  1  0
 18 19  2  0
 19 38  1  0
 20 19  1  0
 20 23  1  0
 21 22  1  0
 21 18  1  0
 22 20  2  0
 23 24  1  0
 24 25  2  0
 26 29  1  0
 26 25  1  0
 27 26  2  0
 28 27  1  0
 28 23  2  0
 29 30  1  0
 30 31  1  0
 31 32  2  0
 33 32  1  0
 33 37  1  0
 34 33  2  0
 35 30  2  0
 35 34  1  0
 36 35  1  0
 38 39  1  0
 39 42  1  0
 39 41  1  0
 40 38  2  0
 43 18  1  0
 43 44  1  0
 45 43  1  0
 47 49  1  0
 47 46  1  1
 49 48  1  0
 50 52  1  0
 50 47  1  0
 51 62  2  0
 52 57  1  0
 53 61  1  0
 53 63  1  0
 54 60  1  0
 54 56  1  0
 55 61  1  0
 56 57  2  0
 56 55  1  0
 58 52  2  0
 59 58  1  0
 59 54  2  0
 60 53  1  0
 61 51  1  0
 63 65  2  0
 64 63  1  0
 66 64  1  0
 67 76  2  0
 67 72  1  0
 68 64  1  0
 68 72  1  0
 69 68  1  0
 70 71  1  0
 70 69  1  0
 71 67  1  0
 72 73  2  0
 73 74  1  0
 75 74  2  0
 76 75  1  0
 77 51  1  0
 77 78  1  0
 77 87  1  0
 78 81  1  0
 79 83  1  0
 79 78  1  0
 80 79  2  0
 83 82  1  0
 85 83  1  0
 85 86  1  0
 85 84  1  0
 87 90  1  1
 87 88  1  0
 89 87  1  0
M  ISO  4   8 100  16 100  47 101  50 101
M  END
>  <TORSDO>  (8) 
F 21

>  <SCORE>  (8) 
-15.369

>  <name>  (8) 
7

>  <ligand_id>  (8) 
7

>  <original_smiles>  (8) 
[H]c1c([H])c([H])c2c(c1[H])C([H])([H])C([H])([H])C([H])([H])C2([H])N([H])C(=O)C1([H])N(C(=O)C([H])(N([H])C(=O)C([H])(N([H])C([H])([H])[H])C([H])([H])[H])C(C([H])([H])[H])(C([H])([H])[H])C([H])([H])[H])C([H])([H])c2c([H])c(OC(C([H])([H])[H])(C([H])([H])C([H])([H])[H])C([H])([H])[N+]([H])([H])C([H])([H])C([H])(N([H])C(=O)N3C([H])([H])C([H])([H])C([H])([H])C([H])(n4nc(-c5c([H])c([H])c(Oc6c([H])c([H])c(F)c([H])c6F)c([H])c5[H])c(C(=O)N([H])[H])c4N([H])[H])C3([H])[H])C([H])([H])[H])c([H])c([H])c2C1([H])[H]

>  <smiles>  (8) 
[H]c1c([H])c([H])c2c(c1[H])C([H])([H])C([H])([H])C([H])([H])C2([H])N([H])C(=O)C1([H])N(C(=O)C([H])(N([H])C(=O)C([H])(N([H])C([H])([H])[H])C([H])([H])[H])C(C([H])([H])[H])(C([H])([H])[H])C([H])([H])[H])C([H])([H])c2c([H])c(OC(C([H])([H])[H])(C([H])([H])C([H])([H])[H])C([H])([H])[N+]([H])([H])C([H])([H])C([H])(N([H])C(=O)N3C([H])([H])C([H])([H])C([H])([H])C([H])(n4nc(-c5c([H])c([H])c(Oc6c([H])c([H])c(F)c([H])c6F)c([H])c5[H])c(C(=O)N([H])[H])c4N([H])[H])C3([H])[H])C([H])([H])[H])c([H])c([H])c2C1([H])[H]

$$$$
8:0:0
     RDKit          3D

 92 99  0  0  1  0  0  0  0  0999 V2000
  -28.9120  -21.6620   19.7070 N   0  0  1  0  0  4  0  0  0  0  0  0
  -29.4590  -21.7060   18.8570 H   0  0  0  0  0  0  0  0  0  0  0  0
  -29.7110  -20.4550   20.3620 C   0  0  0  0  0  3  0  0  0  0  0  0
  -29.5740  -18.8500   19.8290 C   0  0  0  0  0  3  0  0  0  0  0  0
  -30.5550  -17.5670   20.2870 C   0  0  0  0  0  2  0  0  0  0  0  0
  -30.8800  -14.8520   20.1450 C   0  0  0  0  0  0  0  0  0  0  0  0
  -30.7030  -12.5130   19.2080 C   0  0  0  0  0  2  0  0  0  0  0  0
  -29.7460  -12.4740   17.9940 C   0  0  0  0  0  2  0  0  0  0  0  0
  -28.2850  -12.3030   18.4480 C   0  0  0  0  0  2  0  0  0  0  0  0
  -27.9110  -13.2370   19.6290 C   0  0  0  0  0  3  0  0  0  0  0  0
  -28.9850  -13.2290   20.7370 C   0  0  0  0  0  2  0  0  0  0  0  0
  -30.2530  -13.6120   20.1030 N   0  0  0  0  0  0  0  0  0  0  0  0
  -32.0860  -14.8940   19.8810 O   0  0  0  0  0  0  0  0  0  0  0  0
  -30.1330  -16.0490   20.2650 N   0  0  0  0  0  0  0  0  0  0  0  0
  -29.1480  -15.8910   20.4130 H   0  0  0  0  0  0  0  0  0  0  0  0
  -25.5330  -13.8450   20.3610 C   0  0  0  0  0  0  0  0  0  0  0  0
  -24.4640  -13.0800   20.7480 C   0  0  0  0  0  0  0  0  0  0  0  0
  -24.9240  -11.7280   20.7470 C   0  0  0  0  0  0  0  0  0  0  0  0
  -26.5730  -12.9560   20.1420 N   0  0  0  0  0  0  0  0  0  0  0  0
  -26.2150  -11.6790   20.4400 N   0  0  0  0  0  0  0  0  0  0  0  0
  -24.1900  -10.4730   20.9630 C   0  0  0  0  0  0  0  0  0  0  0  0
  -24.6060   -9.5330   21.9330 C   0  0  0  0  0  3  0  0  0  0  0  0
  -23.8730   -8.3440   22.1380 C   0  0  0  0  0  3  0  0  0  0  0  0
  -22.7100   -8.0850   21.3730 C   0  0  0  0  0  0  0  0  0  0  0  0
  -22.3130   -9.0140   20.3940 C   0  0  0  0  0  3  0  0  0  0  0  0
  -23.0470  -10.1940   20.1870 C   0  0  0  0  0  3  0  0  0  0  0  0
  -21.9520   -6.9450   21.4840 O   0  0  0  0  0  0  0  0  0  0  0  0
  -21.8720   -6.2450   22.6620 C   0  0  0  0  0  0  0  0  0  0  0  0
  -21.4180   -6.8460   23.8560 C   0  0  0  0  0  3  0  0  0  0  0  0
  -21.2870   -6.0740   25.0270 C   0  0  0  0  0  3  0  0  0  0  0  0
  -21.5980   -4.7010   25.0060 C   0  0  0  0  0  0  0  0  0  0  0  0
  -22.0440   -4.1000   23.8160 C   0  0  0  0  0  3  0  0  0  0  0  0
  -22.1780   -4.8690   22.6470 C   0  0  0  0  0  0  0  0  0  0  0  0
  -22.5890   -4.2800   21.4980 F   0  0  0  0  0  0  0  0  0  0  0  0
  -21.4650   -3.9580   26.1280 F   0  0  0  0  0  0  0  0  0  0  0  0
  -23.0700  -13.5710   21.0050 C   0  0  0  0  0  0  0  0  0  0  0  0
  -22.3450  -12.9070   21.9000 N   0  0  0  0  0  0  0  0  0  0  0  0
  -22.6310  -14.5760   20.4480 O   0  0  0  0  0  0  0  0  0  0  0  0
  -22.7130  -12.0960   22.3710 H   0  0  0  0  0  0  0  0  0  0  0  0
  -21.4090  -13.2190   22.1170 H   0  0  0  0  0  0  0  0  0  0  0  0
  -25.7000  -15.2100   20.1490 N   0  0  0  0  0  0  0  0  0  0  0  0
  -24.9290  -15.8630   20.2310 H   0  0  0  0  0  0  0  0  0  0  0  0
  -26.5380  -15.6310   19.7710 H   0  0  0  0  0  0  0  0  0  0  0  0
  -27.6370  -21.2270   19.0660 C   0  0  0  0  0  2  0  0  0  0  0  0
  -27.0880  -19.8510   19.5390 C   0  0  0  0  0  2  0  0  0  0  0  0
  -25.9160  -17.6710   18.9960 C   0  0  0  0  0  1  0  0  0  0  0  0
  -27.3670  -18.7110   17.2450 C   0  0  0  0  0  1  0  0  0  0  0  0
  -26.4210  -19.0040   18.4260 C   0  0  0  0  0  3  0  0  0  0  0  0
  -29.1350  -23.2240   20.0470 C   0  0  0  0  0  2  0  0  0  0  0  0
  -26.5640  -24.1070   20.1780 C   0  0  0  0  0  1  0  0  0  0  0  0
  -28.0350  -24.4480   20.4840 C   0  0  0  0  0  3  0  0  0  0  0  0
  -28.2940  -26.0010   20.4200 O   0  0  0  0  0  0  0  0  0  0  0  0
  -24.6720  -31.7740   23.2570 C   0  0  0  0  0  0  0  0  0  0  0  0
  -27.2650  -27.0100   20.3400 C   0  0  0  0  0  0  0  0  0  0  0  0
  -23.5060  -30.3820   21.5930 C   0  0  0  0  0  3  0  0  0  0  0  0
  -24.9750  -28.7900   20.2150 C   0  0  0  0  0  0  0  0  0  0  0  0
  -26.0660  -30.6190   21.5040 C   0  0  0  0  0  2  0  0  0  0  0  0
  -26.1410  -29.2230   20.8600 C   0  0  0  0  0  0  0  0  0  0  0  0
  -27.2910  -28.3490   20.9030 C   0  0  0  0  0  3  0  0  0  0  0  0
  -26.0940  -26.6970   19.6190 C   0  0  0  0  0  3  0  0  0  0  0  0
  -24.9660  -27.5420   19.5750 C   0  0  0  0  0  3  0  0  0  0  0  0
  -23.7610  -29.7050   20.2220 C   0  0  0  0  0  2  0  0  0  0  0  0
  -24.7670  -30.9470   22.1740 N   0  0  0  0  0  0  0  0  0  0  0  0
  -23.5750  -32.0750   23.7520 O   0  0  0  0  0  0  0  0  0  0  0  0
  -22.7860  -29.3870   22.5370 C   0  0  0  0  0  0  0  0  0  0  0  0
  -21.4540  -29.2650   22.3990 N   0  0  0  0  0  0  0  0  0  0  0  0
  -23.4290  -28.7280   23.3590 O   0  0  0  0  0  0  0  0  0  0  0  0
  -20.9950  -29.8460   21.7120 H   0  0  0  0  0  0  0  0  0  0  0  0
  -18.0200  -28.2160   22.8970 C   0  0  0  0  0  0  0  0  0  0  0  0
  -20.5900  -28.3510   23.1550 C   0  0  0  0  0  3  0  0  0  0  0  0
  -20.6220  -26.9280   22.5520 C   0  0  0  0  0  2  0  0  0  0  0  0
  -19.5010  -26.6780   21.5380 C   0  0  0  0  0  2  0  0  0  0  0  0
  -18.1300  -26.8730   22.1930 C   0  0  0  0  0  2  0  0  0  0  0  0
  -19.1750  -28.9160   23.3340 C   0  0  0  0  0  0  0  0  0  0  0  0
  -19.0180  -30.1730   23.9570 C   0  0  0  0  0  3  0  0  0  0  0  0
  -17.7400  -30.7270   24.1500 C   0  0  0  0  0  3  0  0  0  0  0  0
  -16.5970  -30.0230   23.7310 C   0  0  0  0  0  3  0  0  0  0  0  0
  -16.7390  -28.7700   23.1070 C   0  0  0  0  0  3  0  0  0  0  0  0
  -25.9390  -32.3990   23.9170 C   0  0  0  0  0  3  0  0  0  0  0  0
  -25.6350  -33.8050   24.2230 N   0  0  0  0  0  0  0  0  0  0  0  0
  -26.0270  -34.8510   23.4830 C   0  0  0  0  0  0  0  0  0  0  0  0
  -26.7480  -34.7350   22.4900 O   0  0  0  0  0  0  0  0  0  0  0  0
  -24.9970  -33.9710   24.9880 H   0  0  0  0  0  0  0  0  0  0  0  0
  -24.3490  -36.6790   23.0510 C   0  0  0  0  0  1  0  0  0  0  0  0
  -25.5450  -36.2510   23.9170 C   0  0  0  0  0  3  0  0  0  0  0  0
  -27.6580  -37.0960   24.8350 C   0  0  0  0  0  1  0  0  0  0  0  0
  -26.6000  -37.2860   23.8490 N   0  0  0  0  0  0  0  0  0  0  0  0
  -26.2030  -38.2110   23.9900 H   0  0  0  0  0  0  0  0  0  0  0  0
  -26.3970  -31.6380   25.2220 C   0  0  1  0  0  0  0  0  0  0  0  0
  -25.2600  -31.4230   26.2490 C   0  0  0  0  0  1  0  0  0  0  0  0
  -26.9850  -30.2520   24.8720 C   0  0  0  0  0  1  0  0  0  0  0  0
  -27.5260  -32.4330   25.9200 C   0  0  0  0  0  1  0  0  0  0  0  0
  1 49  1  0
  1  3  1  0
  1  2  1  6
  4  5  1  0
  4  3  2  0
  6 14  1  0
  7 12  1  0
  8  9  1  0
  8  7  1  0
 10  9  1  0
 10 19  1  0
 10 11  1  0
 12  6  1  0
 12 11  1  0
 13  6  2  0
 14  5  1  0
 14 15  1  0
 16 17  2  0
 17 36  1  0
 18 17  1  0
 18 21  1  0
 19 16  1  0
 19 20  1  0
 20 18  2  0
 21 22  1  0
 22 23  2  0
 24 27  1  0
 24 23  1  0
 25 24  2  0
 26 25  1  0
 26 21  2  0
 27 28  1  0
 28 29  1  0
 29 30  2  0
 31 30  1  0
 31 35  1  0
 32 31  2  0
 33 28  2  0
 33 32  1  0
 34 33  1  0
 36 37  1  0
 37 40  1  0
 37 39  1  0
 38 36  2  0
 41 42  1  0
 41 16  1  0
 43 41  1  0
 44 45  1  0
 44  1  1  0
 47 48  1  0
 48 46  1  0
 48 45  1  0
 49 51  1  0
 51 50  1  0
 52 51  1  0
 53 64  2  0
 54 52  1  0
 54 59  1  0
 55 63  1  0
 55 65  1  0
 56 62  1  0
 56 58  1  0
 57 63  1  0
 58 59  2  0
 58 57  1  0
 60 54  2  0
 61 60  1  0
 61 56  2  0
 62 55  1  0
 63 53  1  0
 65 67  2  0
 66 65  1  0
 68 66  1  0
 69 78  2  0
 69 74  1  0
 70 66  1  0
 70 74  1  0
 71 70  1  0
 72 73  1  0
 72 71  1  0
 73 69  1  0
 74 75  2  0
 75 76  1  0
 77 76  2  0
 78 77  1  0
 79 53  1  0
 79 80  1  0
 79 89  1  0
 80 83  1  0
 81 85  1  0
 81 80  1  0
 82 81  2  0
 85 84  1  0
 87 85  1  0
 87 88  1  0
 87 86  1  0
 89 92  1  1
 89 90  1  0
 91 89  1  0
M  ISO  4   6 100  14 100  51 101  52 101
M  END
>  <TORSDO>  (9) 
F 24

>  <SCORE>  (9) 
-11.849

>  <name>  (9) 
8

>  <ligand_id>  (9) 
8

>  <original_smiles>  (9) 
[H]c1c([H])c([H])c2c(c1[H])C([H])([H])C([H])([H])C([H])([H])C2([H])N([H])C(=O)C1([H])N(C(=O)C([H])(N([H])C(=O)C([H])(N([H])C([H])([H])[H])C([H])([H])[H])C(C([H])([H])[H])(C([H])([H])[H])C([H])([H])[H])C([H])([H])c2c([H])c(OC([H])(C([H])([H])[H])C([H])([H])[N+]([H])(C([H])([H])C([H])([H])C([H])([H])N([H])C(=O)N3C([H])([H])C([H])([H])C([H])([H])C([H])(n4nc(-c5c([H])c([H])c(Oc6c([H])c([H])c(F)c([H])c6F)c([H])c5[H])c(C(=O)N([H])[H])c4N([H])[H])C3([H])[H])C([H])([H])C([H])([H])C([H])(C([H])([H])[H])C([H])([H])[H])c([H])c([H])c2C1([H])[H]

>  <smiles>  (9) 
[H]c1c([H])c([H])c2c(c1[H])C([H])([H])C([H])([H])C([H])([H])C2([H])N([H])C(=O)C1([H])N(C(=O)C([H])(N([H])C(=O)C([H])(N([H])C([H])([H])[H])C([H])([H])[H])C(C([H])([H])[H])(C([H])([H])[H])C([H])([H])[H])C([H])([H])c2c([H])c(OC([H])(C([H])([H])[H])C([H])([H])[N+]([H])(C([H])([H])C([H])([H])C([H])([H])N([H])C(=O)N3C([H])([H])C([H])([H])C([H])([H])C([H])(n4nc(-c5c([H])c([H])c(Oc6c([H])c([H])c(F)c([H])c6F)c([H])c5[H])c(C(=O)N([H])[H])c4N([H])[H])C3([H])[H])C([H])([H])C([H])([H])C([H])(C([H])([H])[H])C([H])([H])[H])c([H])c([H])c2C1([H])[H]

$$$$
9:0:0
     RDKit          3D

 99107  0  0  1  0  0  0  0  0999 V2000
  -26.5420  -24.0810   21.4910 N   0  0  0  0  0  4  0  0  0  0  0  0
  -27.0250  -24.7400   22.0900 H   0  0  0  0  0  0  0  0  0  0  0  0
  -25.5650  -24.1220   21.7250 H   0  0  0  0  0  0  0  0  0  0  0  0
  -26.9860  -22.7130   21.8730 C   0  0  0  0  0  2  0  0  0  0  0  0
  -27.0900  -21.6680   20.7450 C   0  0  0  0  0  2  0  0  0  0  0  0
  -28.2840  -20.8080   20.9760 C   0  0  0  0  0  2  0  0  0  0  0  0
  -28.1890  -19.7300   20.0910 O   0  0  0  0  0  0  0  0  0  0  0  0
  -31.1360  -17.5420   20.6250 C   0  0  0  0  0  3  0  0  0  0  0  0
  -29.6830  -16.8570   18.8290 C   0  0  0  0  0  3  0  0  0  0  0  0
  -30.3530  -18.6870   20.7920 C   0  0  0  0  0  0  0  0  0  0  0  0
  -30.7870  -16.6010   19.6490 C   0  0  0  0  0  0  0  0  0  0  0  0
  -29.1840  -18.7930   19.9800 C   0  0  0  0  0  0  0  0  0  0  0  0
  -30.8250  -19.7000   21.8480 C   0  0  0  0  0  1  0  0  0  0  0  0
  -28.8780  -17.9040   19.0030 N   0  0  0  0  0  0  0  0  0  0  0  0
  -32.0430  -14.6250   20.3680 C   0  0  0  0  0  0  0  0  0  0  0  0
  -31.7500  -12.2970   19.8240 C   0  0  0  0  0  2  0  0  0  0  0  0
  -30.9020  -12.3020   18.5300 C   0  0  0  0  0  2  0  0  0  0  0  0
  -29.3790  -12.3780   18.8210 C   0  0  0  0  0  2  0  0  0  0  0  0
  -29.0100  -13.4660   19.8720 C   0  0  0  0  0  3  0  0  0  0  0  0
  -29.9860  -13.4320   21.0820 C   0  0  0  0  0  2  0  0  0  0  0  0
  -31.3770  -13.4750   20.5990 N   0  0  0  0  0  0  0  0  0  0  0  0
  -33.2590  -14.7690   20.3880 O   0  0  0  0  0  0  0  0  0  0  0  0
  -31.3660  -15.3410   19.4850 N   0  0  0  0  0  0  0  0  0  0  0  0
  -30.7490  -14.7400   18.9530 H   0  0  0  0  0  0  0  0  0  0  0  0
  -26.6890  -14.3910   20.4800 C   0  0  0  0  0  0  0  0  0  0  0  0
  -25.5160  -13.7820   20.7750 C   0  0  0  0  0  0  0  0  0  0  0  0
  -25.7760  -12.3690   20.7470 C   0  0  0  0  0  0  0  0  0  0  0  0
  -27.6150  -13.3790   20.2780 N   0  0  0  0  0  0  0  0  0  0  0  0
  -27.0630  -12.1610   20.4950 N   0  0  0  0  0  0  0  0  0  0  0  0
  -24.8750  -11.2200   20.8750 C   0  0  0  0  0  0  0  0  0  0  0  0
  -25.1220  -10.1940   21.8050 C   0  0  0  0  0  3  0  0  0  0  0  0
  -24.2370   -9.1010   21.9190 C   0  0  0  0  0  3  0  0  0  0  0  0
  -23.0870   -9.0280   21.0980 C   0  0  0  0  0  0  0  0  0  0  0  0
  -22.8640  -10.0450   20.1480 C   0  0  0  0  0  3  0  0  0  0  0  0
  -23.7500  -11.1240   20.0310 C   0  0  0  0  0  3  0  0  0  0  0  0
  -22.1830   -7.9970   21.1230 O   0  0  0  0  0  0  0  0  0  0  0  0
  -21.9190   -7.3050   22.2850 C   0  0  0  0  0  0  0  0  0  0  0  0
  -21.4900   -7.9510   23.4630 C   0  0  0  0  0  3  0  0  0  0  0  0
  -21.1690   -7.1920   24.6070 C   0  0  0  0  0  3  0  0  0  0  0  0
  -21.2730   -5.7870   24.5730 C   0  0  0  0  0  0  0  0  0  0  0  0
  -21.6940   -5.1420   23.3940 C   0  0  0  0  0  3  0  0  0  0  0  0
  -22.0160   -5.9020   22.2560 C   0  0  0  0  0  0  0  0  0  0  0  0
  -22.4030   -5.2740   21.1200 F   0  0  0  0  0  0  0  0  0  0  0  0
  -20.9520   -5.0560   25.6620 F   0  0  0  0  0  0  0  0  0  0  0  0
  -24.1830  -14.4440   20.9800 C   0  0  0  0  0  0  0  0  0  0  0  0
  -23.3140  -13.8810   21.8000 N   0  0  0  0  0  0  0  0  0  0  0  0
  -23.9330  -15.5190   20.4190 O   0  0  0  0  0  0  0  0  0  0  0  0
  -23.5250  -13.0100   22.2670 H   0  0  0  0  0  0  0  0  0  0  0  0
  -22.4040  -14.2870   21.9780 H   0  0  0  0  0  0  0  0  0  0  0  0
  -27.0550  -15.7320   20.3040 N   0  0  0  0  0  0  0  0  0  0  0  0
  -26.3160  -16.4230   20.2450 H   0  0  0  0  0  0  0  0  0  0  0  0
  -27.9320  -16.0900   19.9570 H   0  0  0  0  0  0  0  0  0  0  0  0
  -26.6780  -24.3710   20.0450 C   0  0  0  0  0  2  0  0  0  0  0  0
  -26.2510  -25.7830   19.6750 C   0  0  0  0  0  3  0  0  0  0  0  0
  -27.5190  -26.6980   19.6920 O   0  0  0  0  0  0  0  0  0  0  0  0
  -24.8430  -32.0990   23.6070 C   0  0  0  0  0  0  0  0  0  0  0  0
  -27.0710  -27.9860   19.7720 C   0  0  0  0  0  0  0  0  0  0  0  0
  -23.5730  -30.9040   21.8860 C   0  0  0  0  0  3  0  0  0  0  0  0
  -24.9330  -29.6340   20.1760 C   0  0  0  0  0  0  0  0  0  0  0  0
  -26.1150  -31.1660   21.7050 C   0  0  0  0  0  2  0  0  0  0  0  0
  -26.1170  -29.9230   20.8510 C   0  0  0  0  0  0  0  0  0  0  0  0
  -27.1750  -28.9620   20.8040 C   0  0  0  0  0  3  0  0  0  0  0  0
  -26.1630  -28.2160   18.7730 C   0  0  0  0  0  3  0  0  0  0  0  0
  -24.9220  -28.6870   19.1690 C   0  0  0  0  0  3  0  0  0  0  0  0
  -23.7360  -30.5140   20.4020 C   0  0  0  0  0  2  0  0  0  0  0  0
  -24.8580  -31.3980   22.4500 N   0  0  0  0  0  0  0  0  0  0  0  0
  -23.7860  -32.3070   24.2120 O   0  0  0  0  0  0  0  0  0  0  0  0
  -22.9950  -29.7380   22.7020 C   0  0  0  0  0  0  0  0  0  0  0  0
  -21.6670  -29.5270   22.5790 N   0  0  0  0  0  0  0  0  0  0  0  0
  -23.7320  -29.0560   23.4280 O   0  0  0  0  0  0  0  0  0  0  0  0
  -21.1420  -30.1800   22.0080 H   0  0  0  0  0  0  0  0  0  0  0  0
  -18.3630  -28.0040   22.9590 C   0  0  0  0  0  0  0  0  0  0  0  0
  -20.8940  -28.4920   23.2760 C   0  0  0  0  0  3  0  0  0  0  0  0
  -21.1360  -27.1150   22.5940 C   0  0  0  0  0  2  0  0  0  0  0  0
  -20.0320  -26.7070   21.5940 C   0  0  0  0  0  2  0  0  0  0  0  0
  -18.6930  -26.6480   22.3620 C   0  0  0  0  0  2  0  0  0  0  0  0
  -19.4070  -28.8580   23.4260 C   0  0  0  0  0  0  0  0  0  0  0  0
  -19.0560  -30.1100   24.0060 C   0  0  0  0  0  3  0  0  0  0  0  0
  -17.7140  -30.4890   24.1440 C   0  0  0  0  0  3  0  0  0  0  0  0
  -16.6900  -29.6290   23.7120 C   0  0  0  0  0  3  0  0  0  0  0  0
  -17.0110  -28.4020   23.1230 C   0  0  0  0  0  3  0  0  0  0  0  0
  -26.1490  -32.6650   24.2320 C   0  0  0  0  0  3  0  0  0  0  0  0
  -26.6710  -31.8530   25.4780 C   0  0  1  0  0  0  0  0  0  0  0  0
  -25.5780  -31.5860   26.5310 C   0  0  0  0  0  1  0  0  0  0  0  0
  -27.2650  -30.4850   25.0670 C   0  0  0  0  0  1  0  0  0  0  0  0
  -27.8250  -32.6180   26.1560 C   0  0  0  0  0  1  0  0  0  0  0  0
  -25.8790  -34.0660   24.5880 N   0  0  0  0  0  0  0  0  0  0  0  0
  -26.2090  -35.1200   23.8390 C   0  0  0  0  0  0  0  0  0  0  0  0
  -26.8320  -35.0360   22.7750 O   0  0  0  0  0  0  0  0  0  0  0  0
  -25.3260  -34.2330   25.4200 H   0  0  0  0  0  0  0  0  0  0  0  0
  -24.4920  -36.9470   23.5560 C   0  0  0  0  0  1  0  0  0  0  0  0
  -25.7420  -36.5060   24.3370 C   0  0  0  0  0  3  0  0  0  0  0  0
  -27.9030  -37.3460   25.1440 C   0  0  0  0  0  1  0  0  0  0  0  0
  -26.7820  -37.5450   24.2260 N   0  0  0  0  0  0  0  0  0  0  0  0
  -26.3930  -38.4670   24.4060 H   0  0  0  0  0  0  0  0  0  0  0  0
  -24.9970  -25.6520   18.5690 C   0  0  0  0  0  2  0  0  0  0  0  0
  -22.4880  -25.2180   17.7770 C   0  0  0  0  0  1  0  0  0  0  0  0
  -22.6700  -26.3530   19.9340 C   0  0  0  0  0  1  0  0  0  0  0  0
  -23.4610  -25.3710   19.0070 C   0  0  0  0  0  3  0  0  0  0  0  0
  1  3  1  0
  1  4  1  0
  1  2  1  0
  5  6  1  0
  5  4  1  0
  7  6  1  0
  8 10  2  0
  9 14  1  0
  9 11  2  0
 10 13  1  0
 11  8  1  0
 12  7  1  0
 12 10  1  0
 14 12  2  0
 15 22  2  0
 15 21  1  0
 16 21  1  0
 17 18  1  0
 17 16  1  0
 19 18  1  0
 19 28  1  0
 19 20  1  0
 21 20  1  0
 23 11  1  0
 23 15  1  0
 24 23  1  0
 25 26  2  0
 26 45  1  0
 27 26  1  0
 27 30  1  0
 28 25  1  0
 28 29  1  0
 29 27  2  0
 30 31  1  0
 31 32  2  0
 33 36  1  0
 33 32  1  0
 34 33  2  0
 35 34  1  0
 35 30  2  0
 36 37  1  0
 37 38  1  0
 38 39  2  0
 40 39  1  0
 40 44  1  0
 41 40  2  0
 42 37  2  0
 42 41  1  0
 43 42  1  0
 45 46  1  0
 46 49  1  0
 46 48  1  0
 47 45  2  0
 50 25  1  0
 51 50  1  0
 52 50  1  0
 53  1  1  0
 54 96  1  0
 54 55  1  0
 54 53  1  0
 55 57  1  0
 56 67  2  0
 57 62  1  0
 58 66  1  0
 58 68  1  0
 59 65  1  0
 59 61  1  0
 60 66  1  0
 61 60  1  0
 62 61  2  0
 63 64  1  0
 63 57  2  0
 64 59  2  0
 65 58  1  0
 66 56  1  0
 68 70  2  0
 69 68  1  0
 71 69  1  0
 72 81  2  0
 72 77  1  0
 73 69  1  0
 73 77  1  0
 74 73  1  0
 75 76  1  0
 75 74  1  0
 76 72  1  0
 77 78  2  0
 78 79  1  0
 80 79  2  0
 81 80  1  0
 82 56  1  0
 82 87  1  0
 82 83  1  0
 83 86  1  1
 83 84  1  0
 85 83  1  0
 87 90  1  0
 88 92  1  0
 88 87  1  0
 89 88  2  0
 92 91  1  0
 94 92  1  0
 94 95  1  0
 94 93  1  0
 96 99  1  0
 97 99  1  0
 99 98  1  0
M  ISO  4  15 100  23 100  54 101  55 101
M  END
>  <TORSDO>  (10) 
F 25

>  <SCORE>  (10) 
-10.433

>  <name>  (10) 
9

>  <ligand_id>  (10) 
9

>  <original_smiles>  (10) 
[H]c1nc(OC([H])([H])C([H])([H])C([H])([H])[N+]([H])([H])C([H])([H])C([H])(Oc2c([H])c([H])c3c(c2[H])C([H])([H])N(C(=O)C([H])(N([H])C(=O)C([H])(N([H])C([H])([H])[H])C([H])([H])[H])C(C([H])([H])[H])(C([H])([H])[H])C([H])([H])[H])C([H])(C(=O)N([H])C2([H])c4c([H])c([H])c([H])c([H])c4C([H])([H])C([H])([H])C2([H])[H])C3([H])[H])C([H])([H])C([H])(C([H])([H])[H])C([H])([H])[H])c(C([H])([H])[H])c([H])c1N([H])C(=O)N1C([H])([H])C([H])([H])C([H])([H])C([H])(n2nc(-c3c([H])c([H])c(Oc4c([H])c([H])c(F)c([H])c4F)c([H])c3[H])c(C(=O)N([H])[H])c2N([H])[H])C1([H])[H]

>  <smiles>  (10) 
[H]c1nc(OC([H])([H])C([H])([H])C([H])([H])[N+]([H])([H])C([H])([H])C([H])(Oc2c([H])c([H])c3c(c2[H])C([H])([H])N(C(=O)C([H])(N([H])C(=O)C([H])(N([H])C([H])([H])[H])C([H])([H])[H])C(C([H])([H])[H])(C([H])([H])[H])C([H])([H])[H])C([H])(C(=O)N([H])C2([H])c4c([H])c([H])c([H])c([H])c4C([H])([H])C([H])([H])C2([H])[H])C3([H])[H])C([H])([H])C([H])(C([H])([H])[H])C([H])([H])[H])c(C([H])([H])[H])c([H])c1N([H])C(=O)N1C([H])([H])C([H])([H])C([H])([H])C([H])(n2nc(-c3c([H])c([H])c(Oc4c([H])c([H])c(F)c([H])c4F)c([H])c3[H])c(C(=O)N([H])[H])c2N([H])[H])C1([H])[H]

$$$$
10:0:0
     RDKit          3D

 96104  0  0  1  0  0  0  0  0999 V2000
  -29.1130  -21.6940   18.7200 C   0  0  0  0  0  3  0  0  0  0  0  0
  -28.7570  -20.9580   20.7600 C   0  0  0  0  0  3  0  0  0  0  0  0
  -28.8570  -22.1640   20.0470 C   0  0  0  0  0  0  0  0  0  0  0  0
  -29.1550  -20.3160   18.6740 C   0  0  0  0  0  0  0  0  0  0  0  0
  -28.9560  -19.7970   19.9560 N   0  0  0  0  0  0  0  0  0  0  0  0
  -29.3240  -19.4430   17.4910 C   0  0  0  0  0  0  0  0  0  0  0  0
  -30.3060  -19.7790   16.6680 N   0  0  0  0  0  0  0  0  0  0  0  0
  -28.6360  -18.4430   17.3010 O   0  0  0  0  0  0  0  0  0  0  0  0
  -30.8800  -20.5820   16.8790 H   0  0  0  0  0  0  0  0  0  0  0  0
  -30.5090  -19.2170   15.8550 H   0  0  0  0  0  0  0  0  0  0  0  0
  -28.8260  -18.3210   20.3720 C   0  0  0  0  0  3  0  0  0  0  0  0
  -29.9560  -17.2040   20.0460 C   0  0  0  0  0  3  0  0  0  0  0  0
  -30.4010  -14.6150   19.9790 C   0  0  0  0  0  0  0  0  0  0  0  0
  -30.1420  -12.3640   18.9290 C   0  0  0  0  0  2  0  0  0  0  0  0
  -29.1080  -12.4620   17.7850 C   0  0  0  0  0  2  0  0  0  0  0  0
  -27.6770  -12.2650   18.3230 C   0  0  0  0  0  2  0  0  0  0  0  0
  -27.3950  -13.1090   19.5950 C   0  0  0  0  0  3  0  0  0  0  0  0
  -28.5410  -13.0020   20.6260 C   0  0  0  0  0  2  0  0  0  0  0  0
  -29.7830  -13.3840   19.9420 N   0  0  0  0  0  0  0  0  0  0  0  0
  -31.5420  -14.7490   19.5320 O   0  0  0  0  0  0  0  0  0  0  0  0
  -29.6460  -15.7250   20.3100 N   0  0  0  0  0  0  0  0  0  0  0  0
  -28.7210  -15.5250   20.6620 H   0  0  0  0  0  0  0  0  0  0  0  0
  -25.0690  -13.6410   20.5350 C   0  0  0  0  0  0  0  0  0  0  0  0
  -24.0420  -12.8420   20.9590 C   0  0  0  0  0  0  0  0  0  0  0  0
  -24.5120  -11.4990   20.8360 C   0  0  0  0  0  0  0  0  0  0  0  0
  -26.0970  -12.7850   20.1810 N   0  0  0  0  0  0  0  0  0  0  0  0
  -25.7750  -11.4880   20.4240 N   0  0  0  0  0  0  0  0  0  0  0  0
  -23.8110  -10.2220   21.0340 C   0  0  0  0  0  0  0  0  0  0  0  0
  -24.3030   -9.2400   21.9210 C   0  0  0  0  0  3  0  0  0  0  0  0
  -23.6030   -8.0270   22.1090 C   0  0  0  0  0  3  0  0  0  0  0  0
  -22.3960   -7.7910   21.4100 C   0  0  0  0  0  0  0  0  0  0  0  0
  -21.9220   -8.7620   20.5090 C   0  0  0  0  0  3  0  0  0  0  0  0
  -22.6240   -9.9640   20.3200 C   0  0  0  0  0  3  0  0  0  0  0  0
  -21.6620   -6.6330   21.5080 O   0  0  0  0  0  0  0  0  0  0  0  0
  -21.6600   -5.8790   22.6540 C   0  0  0  0  0  0  0  0  0  0  0  0
  -21.2350   -6.4060   23.8940 C   0  0  0  0  0  3  0  0  0  0  0  0
  -21.1850   -5.5770   25.0310 C   0  0  0  0  0  3  0  0  0  0  0  0
  -21.5450   -4.2190   24.9310 C   0  0  0  0  0  0  0  0  0  0  0  0
  -21.9620   -3.6910   23.6960 C   0  0  0  0  0  3  0  0  0  0  0  0
  -22.0160   -4.5190   22.5610 C   0  0  0  0  0  0  0  0  0  0  0  0
  -22.3980   -4.0010   21.3700 F   0  0  0  0  0  0  0  0  0  0  0  0
  -21.4890   -3.4190   26.0200 F   0  0  0  0  0  0  0  0  0  0  0  0
  -22.6680  -13.2920   21.3610 C   0  0  0  0  0  0  0  0  0  0  0  0
  -22.0200  -12.5580   22.2570 N   0  0  0  0  0  0  0  0  0  0  0  0
  -22.1800  -14.3310   20.9140 O   0  0  0  0  0  0  0  0  0  0  0  0
  -22.4310  -11.7180   22.6370 H   0  0  0  0  0  0  0  0  0  0  0  0
  -21.1020  -12.8400   22.5690 H   0  0  0  0  0  0  0  0  0  0  0  0
  -25.2050  -15.0190   20.3950 N   0  0  0  0  0  0  0  0  0  0  0  0
  -24.4310  -15.6520   20.5690 H   0  0  0  0  0  0  0  0  0  0  0  0
  -25.9970  -15.4760   19.9580 H   0  0  0  0  0  0  0  0  0  0  0  0
  -28.8430  -23.7030   20.5180 C   0  0  0  0  0  3  0  0  0  0  0  0
  -28.8270  -23.8310   22.0610 C   0  0  0  0  0  2  0  0  0  0  0  0
  -30.6540  -22.1130   22.7260 C   0  0  0  0  0  1  0  0  0  0  0  0
  -30.1830  -23.5720   22.7540 C   0  0  0  0  0  2  0  0  0  0  0  0
  -27.8290  -24.7860   19.8700 C   0  0  0  0  0  2  0  0  0  0  0  0
  -28.0580  -26.2620   20.0860 O   0  0  0  0  0  0  0  0  0  0  0  0
  -24.5030  -31.8000   23.1550 C   0  0  0  0  0  0  0  0  0  0  0  0
  -26.9690  -27.1630   20.0440 C   0  0  0  0  0  0  0  0  0  0  0  0
  -23.2500  -30.4350   21.5260 C   0  0  0  0  0  3  0  0  0  0  0  0
  -24.6470  -28.8570   20.0700 C   0  0  0  0  0  0  0  0  0  0  0  0
  -25.7960  -30.6870   21.3150 C   0  0  0  0  0  2  0  0  0  0  0  0
  -25.8360  -29.3080   20.6560 C   0  0  0  0  0  0  0  0  0  0  0  0
  -27.0000  -28.4740   20.6290 C   0  0  0  0  0  3  0  0  0  0  0  0
  -25.7550  -26.7810   19.4290 C   0  0  0  0  0  3  0  0  0  0  0  0
  -24.6120  -27.6020   19.4450 C   0  0  0  0  0  3  0  0  0  0  0  0
  -23.4310  -29.7620   20.1400 C   0  0  0  0  0  2  0  0  0  0  0  0
  -24.5360  -30.9920   22.0540 N   0  0  0  0  0  0  0  0  0  0  0  0
  -23.4330  -32.1000   23.7040 O   0  0  0  0  0  0  0  0  0  0  0  0
  -22.5740  -29.4300   22.4910 C   0  0  0  0  0  0  0  0  0  0  0  0
  -21.2410  -29.2870   22.3840 N   0  0  0  0  0  0  0  0  0  0  0  0
  -23.2490  -28.7830   23.2970 O   0  0  0  0  0  0  0  0  0  0  0  0
  -20.7560  -29.8590   21.7070 H   0  0  0  0  0  0  0  0  0  0  0  0
  -17.8430  -28.1730   22.9330 C   0  0  0  0  0  0  0  0  0  0  0  0
  -20.4110  -28.3650   23.1630 C   0  0  0  0  0  3  0  0  0  0  0  0
  -20.4670  -26.9360   22.5760 C   0  0  0  0  0  2  0  0  0  0  0  0
  -19.3410  -26.6480   21.5780 C   0  0  0  0  0  2  0  0  0  0  0  0
  -17.9740  -26.8250   22.2460 C   0  0  0  0  0  2  0  0  0  0  0  0
  -18.9880  -28.9040   23.3500 C   0  0  0  0  0  0  0  0  0  0  0  0
  -18.8100  -30.1670   23.9540 C   0  0  0  0  0  3  0  0  0  0  0  0
  -17.5220  -30.7000   24.1460 C   0  0  0  0  0  3  0  0  0  0  0  0
  -16.3920  -29.9660   23.7460 C   0  0  0  0  0  3  0  0  0  0  0  0
  -16.5530  -28.7050   23.1450 C   0  0  0  0  0  3  0  0  0  0  0  0
  -25.8060  -32.4020   23.7640 C   0  0  0  0  0  3  0  0  0  0  0  0
  -25.5260  -33.8000   24.1240 N   0  0  0  0  0  0  0  0  0  0  0  0
  -25.8710  -34.8610   23.3830 C   0  0  0  0  0  0  0  0  0  0  0  0
  -26.5280  -34.7650   22.3420 O   0  0  0  0  0  0  0  0  0  0  0  0
  -24.9420  -33.9500   24.9330 H   0  0  0  0  0  0  0  0  0  0  0  0
  -24.1760  -36.6950   23.0830 C   0  0  0  0  0  1  0  0  0  0  0  0
  -25.4160  -36.2490   23.8730 C   0  0  0  0  0  3  0  0  0  0  0  0
  -27.5720  -37.0780   24.7060 C   0  0  0  0  0  1  0  0  0  0  0  0
  -26.4690  -37.2840   23.7720 N   0  0  0  0  0  0  0  0  0  0  0  0
  -26.0820  -38.2090   23.9370 H   0  0  0  0  0  0  0  0  0  0  0  0
  -26.3320  -31.6020   25.0200 C   0  0  1  0  0  0  0  0  0  0  0  0
  -25.2510  -31.3620   26.0990 C   0  0  0  0  0  1  0  0  0  0  0  0
  -26.8910  -30.2230   24.5990 C   0  0  0  0  0  1  0  0  0  0  0  0
  -27.5040  -32.3710   25.6760 C   0  0  0  0  0  1  0  0  0  0  0  0
  1  3  1  0
  3 51  1  0
  3  2  2  0
  4  1  2  0
  4  5  1  0
  5 11  1  0
  5  2  1  0
  6  4  1  0
  7  9  1  0
  7  6  1  0
  8  6  2  0
 10  7  1  0
 12 21  1  0
 12 11  2  0
 13 21  1  0
 14 19  1  0
 15 16  1  0
 15 14  1  0
 17 16  1  0
 17 26  1  0
 17 18  1  0
 19 13  1  0
 19 18  1  0
 20 13  2  0
 21 22  1  0
 23 24  2  0
 24 43  1  0
 25 24  1  0
 25 28  1  0
 26 27  1  0
 26 23  1  0
 27 25  2  0
 28 29  1  0
 29 30  2  0
 31 34  1  0
 31 30  1  0
 32 31  2  0
 33 32  1  0
 33 28  2  0
 34 35  1  0
 35 36  1  0
 36 37  2  0
 38 37  1  0
 38 42  1  0
 39 38  2  0
 40 35  2  0
 40 39  1  0
 41 40  1  0
 43 44  1  0
 44 47  1  0
 44 46  1  0
 45 43  2  0
 48 23  1  0
 48 49  1  0
 50 48  1  0
 51 55  1  0
 51 52  1  0
 52 54  1  0
 53 54  1  0
 55 56  1  0
 57 68  2  0
 58 56  1  0
 58 63  1  0
 59 67  1  0
 59 69  1  0
 60 66  1  0
 60 62  1  0
 61 67  1  0
 62 61  1  0
 63 62  2  0
 64 65  1  0
 64 58  2  0
 65 60  2  0
 66 59  1  0
 67 57  1  0
 69 71  2  0
 70 69  1  0
 72 70  1  0
 73 82  2  0
 73 78  1  0
 74 70  1  0
 74 78  1  0
 75 74  1  0
 76 77  1  0
 76 75  1  0
 77 73  1  0
 78 79  2  0
 79 80  1  0
 81 80  2  0
 82 81  1  0
 83 57  1  0
 83 84  1  0
 83 93  1  0
 84 87  1  0
 85 89  1  0
 85 84  1  0
 86 85  2  0
 89 88  1  0
 91 89  1  0
 91 92  1  0
 91 90  1  0
 93 96  1  1
 93 94  1  0
 95 93  1  0
M  ISO  4  13 100  21 100  55 101  56 101
M  END
>  <TORSDO>  (11) 
F 23

>  <SCORE>  (11) 
-12.626

>  <name>  (11) 
10

>  <ligand_id>  (11) 
10

>  <original_smiles>  (11) 
[H]c1c([H])c([H])c2c(c1[H])C([H])([H])C([H])([H])C([H])([H])C2([H])N([H])C(=O)C1([H])N(C(=O)C([H])(N([H])C(=O)C([H])(N([H])C([H])([H])[H])C([H])([H])[H])C(C([H])([H])[H])(C([H])([H])[H])C([H])([H])[H])C([H])([H])c2c([H])c(OC([H])([H])C([H])(c3c([H])c(C(=O)N([H])[H])n(C([H])([H])C([H])([H])N([H])C(=O)N4C([H])([H])C([H])([H])C([H])([H])C([H])(n5nc(-c6c([H])c([H])c(Oc7c([H])c([H])c(F)c([H])c7F)c([H])c6[H])c(C(=O)N([H])[H])c5N([H])[H])C4([H])[H])c3[H])C([H])([H])C([H])([H])C([H])([H])[H])c([H])c([H])c2C1([H])[H]

>  <smiles>  (11) 
[H]c1c([H])c([H])c2c(c1[H])C([H])([H])C([H])([H])C([H])([H])C2([H])N([H])C(=O)C1([H])N(C(=O)C([H])(N([H])C(=O)C([H])(N([H])C([H])([H])[H])C([H])([H])[H])C(C([H])([H])[H])(C([H])([H])[H])C([H])([H])[H])C([H])([H])c2c([H])c(OC([H])([H])C([H])(c3c([H])c(C(=O)N([H])[H])n(C([H])([H])C([H])([H])N([H])C(=O)N4C([H])([H])C([H])([H])C([H])([H])C([H])(n5nc(-c6c([H])c([H])c(Oc7c([H])c([H])c(F)c([H])c7F)c([H])c6[H])c(C(=O)N([H])[H])c5N([H])[H])C4([H])[H])c3[H])C([H])([H])C([H])([H])C([H])([H])[H])c([H])c([H])c2C1([H])[H]

$$$$
11:0:0
     RDKit          3D

 93101  0  0  1  0  0  0  0  0999 V2000
  -29.0330  -20.9540   19.3930 C   0  0  0  0  0  3  0  0  0  0  0  0
  -28.7090  -22.2740   19.7510 C   0  0  0  0  0  3  0  0  0  0  0  0
  -30.3160  -20.4090   19.6760 C   0  0  0  0  0  0  0  0  0  0  0  0
  -29.6690  -23.0590   20.4080 C   0  0  0  0  0  0  0  0  0  0  0  0
  -31.1720  -21.2530   20.4480 C   0  0  0  0  0  0  0  0  0  0  0  0
  -32.5330  -20.8340   20.9800 C   0  0  0  0  0  1  0  0  0  0  0  0
  -30.8540  -22.5290   20.7800 N   0  0  0  0  0  0  0  0  0  0  0  0
  -29.7990  -18.6300   17.9020 C   0  0  0  0  0  1  0  0  0  0  0  0
  -32.1160  -19.0930   18.4010 C   0  0  0  0  0  1  0  0  0  0  0  0
  -30.7290  -19.0140   19.0920 C   0  0  1  0  0  0  0  0  0  0  0  0
  -30.7810  -17.8730   20.1900 C   0  0  0  0  0  3  0  0  0  0  0  0
  -29.7380  -16.7210   20.0640 C   0  0  0  0  0  3  0  0  0  0  0  0
  -30.6760  -14.4720   20.4690 C   0  0  0  0  0  0  0  0  0  0  0  0
  -30.3550  -12.3120   19.3410 C   0  0  0  0  0  2  0  0  0  0  0  0
  -29.4190  -12.5600   18.1370 C   0  0  0  0  0  2  0  0  0  0  0  0
  -27.9420  -12.4420   18.5590 C   0  0  0  0  0  2  0  0  0  0  0  0
  -27.6170  -13.2570   19.8390 C   0  0  0  0  0  3  0  0  0  0  0  0
  -28.6720  -13.0110   20.9470 C   0  0  0  0  0  2  0  0  0  0  0  0
  -30.0070  -13.2880   20.3870 N   0  0  0  0  0  0  0  0  0  0  0  0
  -31.7910  -14.6540   19.9750 O   0  0  0  0  0  0  0  0  0  0  0  0
  -29.9350  -15.5120   20.8880 N   0  0  0  0  0  0  0  0  0  0  0  0
  -29.1270  -15.2440   21.4310 H   0  0  0  0  0  0  0  0  0  0  0  0
  -25.2160  -13.8790   20.5310 C   0  0  0  0  0  0  0  0  0  0  0  0
  -24.1410  -13.1140   20.8980 C   0  0  0  0  0  0  0  0  0  0  0  0
  -24.5950  -11.7590   20.8710 C   0  0  0  0  0  0  0  0  0  0  0  0
  -26.2590  -12.9920   20.3110 N   0  0  0  0  0  0  0  0  0  0  0  0
  -25.8870  -11.7120   20.5700 N   0  0  0  0  0  0  0  0  0  0  0  0
  -23.8600  -10.5010   21.0650 C   0  0  0  0  0  0  0  0  0  0  0  0
  -24.2980   -9.5250   21.9880 C   0  0  0  0  0  3  0  0  0  0  0  0
  -23.5660   -8.3330   22.1690 C   0  0  0  0  0  3  0  0  0  0  0  0
  -22.3830   -8.1050   21.4270 C   0  0  0  0  0  0  0  0  0  0  0  0
  -21.9650   -9.0680   20.4920 C   0  0  0  0  0  3  0  0  0  0  0  0
  -22.6970  -10.2540   20.3080 C   0  0  0  0  0  3  0  0  0  0  0  0
  -21.6220   -6.9650   21.5200 O   0  0  0  0  0  0  0  0  0  0  0  0
  -21.5930   -6.2080   22.6630 C   0  0  0  0  0  0  0  0  0  0  0  0
  -21.2120   -6.7520   23.9090 C   0  0  0  0  0  3  0  0  0  0  0  0
  -21.1290   -5.9220   25.0440 C   0  0  0  0  0  3  0  0  0  0  0  0
  -21.4180   -4.5470   24.9350 C   0  0  0  0  0  0  0  0  0  0  0  0
  -21.7910   -4.0030   23.6940 C   0  0  0  0  0  3  0  0  0  0  0  0
  -21.8750   -4.8310   22.5600 C   0  0  0  0  0  0  0  0  0  0  0  0
  -22.2150   -4.2960   21.3630 F   0  0  0  0  0  0  0  0  0  0  0  0
  -21.3310   -3.7480   26.0230 F   0  0  0  0  0  0  0  0  0  0  0  0
  -22.7440  -13.5970   21.1660 C   0  0  0  0  0  0  0  0  0  0  0  0
  -22.0140  -12.9070   22.0350 N   0  0  0  0  0  0  0  0  0  0  0  0
  -22.3100  -14.6220   20.6400 O   0  0  0  0  0  0  0  0  0  0  0  0
  -22.3800  -12.0810   22.4860 H   0  0  0  0  0  0  0  0  0  0  0  0
  -21.0740  -13.2060   22.2510 H   0  0  0  0  0  0  0  0  0  0  0  0
  -25.3910  -15.2470   20.3450 N   0  0  0  0  0  0  0  0  0  0  0  0
  -24.6320  -15.9110   20.4460 H   0  0  0  0  0  0  0  0  0  0  0  0
  -26.2480  -15.6710   20.0130 H   0  0  0  0  0  0  0  0  0  0  0  0
  -29.4600  -24.5450   20.7420 C   0  0  0  0  0  2  0  0  0  0  0  0
  -28.3220  -25.2730   19.9820 C   0  0  0  0  0  2  0  0  0  0  0  0
  -28.3730  -26.6960   20.2090 O   0  0  0  0  0  0  0  0  0  0  0  0
  -24.5770  -31.8890   23.2480 C   0  0  0  0  0  0  0  0  0  0  0  0
  -27.1940  -27.4220   20.1670 C   0  0  0  0  0  0  0  0  0  0  0  0
  -23.3610  -30.4900   21.6120 C   0  0  0  0  0  3  0  0  0  0  0  0
  -24.8040  -28.9470   20.1800 C   0  0  0  0  0  0  0  0  0  0  0  0
  -25.8890  -30.8370   21.4050 C   0  0  0  0  0  2  0  0  0  0  0  0
  -25.9660  -29.4650   20.7640 C   0  0  0  0  0  0  0  0  0  0  0  0
  -27.1620  -28.7110   20.7500 C   0  0  0  0  0  3  0  0  0  0  0  0
  -26.0130  -26.9280   19.5630 C   0  0  0  0  0  3  0  0  0  0  0  0
  -24.8230  -27.6800   19.5760 C   0  0  0  0  0  3  0  0  0  0  0  0
  -23.5630  -29.8090   20.2310 C   0  0  0  0  0  2  0  0  0  0  0  0
  -24.6270  -31.0870   22.1460 N   0  0  0  0  0  0  0  0  0  0  0  0
  -23.4970  -32.1670   23.7900 O   0  0  0  0  0  0  0  0  0  0  0  0
  -22.7070  -29.4720   22.5740 C   0  0  0  0  0  0  0  0  0  0  0  0
  -21.3810  -29.2940   22.4500 N   0  0  0  0  0  0  0  0  0  0  0  0
  -23.3900  -28.8440   23.3890 O   0  0  0  0  0  0  0  0  0  0  0  0
  -20.8910  -29.8570   21.7690 H   0  0  0  0  0  0  0  0  0  0  0  0
  -18.0050  -28.1060   22.9450 C   0  0  0  0  0  0  0  0  0  0  0  0
  -20.5630  -28.3610   23.2220 C   0  0  0  0  0  3  0  0  0  0  0  0
  -20.6630  -26.9260   22.6530 C   0  0  0  0  0  2  0  0  0  0  0  0
  -19.5630  -26.6000   21.6370 C   0  0  0  0  0  2  0  0  0  0  0  0
  -18.1800  -26.7520   22.2770 C   0  0  0  0  0  2  0  0  0  0  0  0
  -19.1230  -28.8670   23.3740 C   0  0  0  0  0  0  0  0  0  0  0  0
  -18.9050  -30.1350   23.9560 C   0  0  0  0  0  3  0  0  0  0  0  0
  -17.6010  -30.6400   24.1130 C   0  0  0  0  0  3  0  0  0  0  0  0
  -16.4960  -29.8740   23.7010 C   0  0  0  0  0  3  0  0  0  0  0  0
  -16.6990  -28.6090   23.1220 C   0  0  0  0  0  3  0  0  0  0  0  0
  -25.8670  -32.5160   23.8650 C   0  0  0  0  0  3  0  0  0  0  0  0
  -25.5650  -33.9140   24.1950 N   0  0  0  0  0  0  0  0  0  0  0  0
  -25.8970  -34.9640   23.4330 C   0  0  0  0  0  0  0  0  0  0  0  0
  -26.5610  -34.8570   22.3980 O   0  0  0  0  0  0  0  0  0  0  0  0
  -24.9750  -34.0720   25.0000 H   0  0  0  0  0  0  0  0  0  0  0  0
  -24.1710  -36.7610   23.0860 C   0  0  0  0  0  1  0  0  0  0  0  0
  -25.4160  -36.3550   23.8920 C   0  0  0  0  0  3  0  0  0  0  0  0
  -27.5590  -37.2330   24.7050 C   0  0  0  0  0  1  0  0  0  0  0  0
  -26.4500  -37.4040   23.7700 N   0  0  0  0  0  0  0  0  0  0  0  0
  -26.0480  -38.3250   23.9220 H   0  0  0  0  0  0  0  0  0  0  0  0
  -26.3890  -31.7400   25.1360 C   0  0  1  0  0  0  0  0  0  0  0  0
  -25.3040  -31.5030   26.2130 C   0  0  0  0  0  1  0  0  0  0  0  0
  -26.9640  -30.3610   24.7330 C   0  0  0  0  0  1  0  0  0  0  0  0
  -27.5470  -32.5290   25.7910 C   0  0  0  0  0  1  0  0  0  0  0  0
  1  3  2  0
  1  2  1  0
  2  4  2  0
  3  5  1  0
  4 51  1  0
  4  7  1  0
  5  7  2  0
  5  6  1  0
 10  8  1  6
  9 10  1  0
 10  3  1  0
 10 11  1  0
 12 11  2  0
 12 21  1  0
 13 21  1  0
 14 19  1  0
 15 16  1  0
 15 14  1  0
 17 16  1  0
 17 26  1  0
 17 18  1  0
 19 13  1  0
 19 18  1  0
 20 13  2  0
 21 22  1  0
 23 24  2  0
 24 43  1  0
 25 24  1  0
 25 28  1  0
 26 23  1  0
 26 27  1  0
 27 25  2  0
 28 29  1  0
 29 30  2  0
 31 34  1  0
 31 30  1  0
 32 31  2  0
 33 32  1  0
 33 28  2  0
 34 35  1  0
 35 36  1  0
 36 37  2  0
 38 37  1  0
 38 42  1  0
 39 38  2  0
 40 35  2  0
 40 39  1  0
 41 40  1  0
 43 44  1  0
 44 47  1  0
 44 46  1  0
 45 43  2  0
 48 49  1  0
 48 23  1  0
 50 48  1  0
 52 53  1  0
 52 51  1  0
 54 65  2  0
 55 53  1  0
 55 60  1  0
 56 64  1  0
 56 66  1  0
 57 63  1  0
 57 59  1  0
 58 64  1  0
 59 58  1  0
 60 59  2  0
 61 62  1  0
 61 55  2  0
 62 57  2  0
 63 56  1  0
 64 54  1  0
 66 68  2  0
 67 66  1  0
 69 67  1  0
 70 79  2  0
 70 75  1  0
 71 67  1  0
 71 75  1  0
 72 71  1  0
 73 74  1  0
 73 72  1  0
 74 70  1  0
 75 76  2  0
 76 77  1  0
 78 77  2  0
 79 78  1  0
 80 54  1  0
 80 81  1  0
 80 90  1  0
 81 84  1  0
 82 86  1  0
 82 81  1  0
 83 82  2  0
 86 85  1  0
 88 86  1  0
 88 89  1  0
 88 87  1  0
 90 93  1  1
 90 91  1  0
 92 90  1  0
M  ISO  4  13 100  21 100  52 101  53 101
M  END
>  <TORSDO>  (12) 
F 21

>  <SCORE>  (12) 
-13.624

>  <name>  (12) 
11

>  <ligand_id>  (12) 
11

>  <original_smiles>  (12) 
[H]c1c(C([H])([H])C([H])([H])Oc2c([H])c([H])c3c(c2[H])C([H])([H])N(C(=O)C([H])(N([H])C(=O)C([H])(N([H])C([H])([H])[H])C([H])([H])[H])C(C([H])([H])[H])(C([H])([H])[H])C([H])([H])[H])C([H])(C(=O)N([H])C2([H])c4c([H])c([H])c([H])c([H])c4C([H])([H])C([H])([H])C2([H])[H])C3([H])[H])nc(C([H])([H])[H])c(C(C([H])([H])[H])(C([H])([H])[H])C([H])([H])C([H])([H])N([H])C(=O)N2C([H])([H])C([H])([H])C([H])([H])C([H])(n3nc(-c4c([H])c([H])c(Oc5c([H])c([H])c(F)c([H])c5F)c([H])c4[H])c(C(=O)N([H])[H])c3N([H])[H])C2([H])[H])c1[H]

>  <smiles>  (12) 
[H]c1c(C([H])([H])C([H])([H])Oc2c([H])c([H])c3c(c2[H])C([H])([H])N(C(=O)C([H])(N([H])C(=O)C([H])(N([H])C([H])([H])[H])C([H])([H])[H])C(C([H])([H])[H])(C([H])([H])[H])C([H])([H])[H])C([H])(C(=O)N([H])C2([H])c4c([H])c([H])c([H])c([H])c4C([H])([H])C([H])([H])C2([H])[H])C3([H])[H])nc(C([H])([H])[H])c(C(C([H])([H])[H])(C([H])([H])[H])C([H])([H])C([H])([H])N([H])C(=O)N2C([H])([H])C([H])([H])C([H])([H])C([H])(n3nc(-c4c([H])c([H])c(Oc5c([H])c([H])c(F)c([H])c5F)c([H])c4[H])c(C(=O)N([H])[H])c3N([H])[H])C2([H])[H])c1[H]

$$$$
12:0:0
     RDKit          3D

 90 97  0  0  1  0  0  0  0  0999 V2000
  -29.1950  -21.0450   20.0920 C   0  0  0  0  0  2  0  0  0  0  0  0
  -29.7890  -19.8700   20.8980 N   0  0  2  0  0  4  0  0  0  0  0  0
  -29.3340  -19.9230   21.7980 H   0  0  0  0  0  0  0  0  0  0  0  0
  -31.6350  -21.2940   21.9620 C   0  0  0  0  0  1  0  0  0  0  0  0
  -32.1440  -19.8900   19.9250 C   0  0  0  0  0  1  0  0  0  0  0  0
  -31.2590  -20.0210   21.1830 C   0  0  0  0  0  3  0  0  0  0  0  0
  -29.4400  -18.4450   20.4110 C   0  0  0  0  0  3  0  0  0  0  0  0
  -30.1900  -17.1810   21.0880 C   0  0  0  0  0  3  0  0  0  0  0  0
  -30.5560  -14.6670   20.4460 C   0  0  0  0  0  0  0  0  0  0  0  0
  -30.3510  -12.4290   19.3690 C   0  0  0  0  0  2  0  0  0  0  0  0
  -29.4070  -12.5350   18.1510 C   0  0  0  0  0  2  0  0  0  0  0  0
  -27.9340  -12.3730   18.5820 C   0  0  0  0  0  2  0  0  0  0  0  0
  -27.5700  -13.2420   19.8150 C   0  0  0  0  0  3  0  0  0  0  0  0
  -28.6280  -13.1030   20.9310 C   0  0  0  0  0  2  0  0  0  0  0  0
  -29.9270  -13.4540   20.3450 N   0  0  0  0  0  0  0  0  0  0  0  0
  -31.7340  -14.8020   20.1050 O   0  0  0  0  0  0  0  0  0  0  0  0
  -29.7770  -15.7570   20.7670 N   0  0  0  0  0  0  0  0  0  0  0  0
  -28.8080  -15.5380   20.9400 H   0  0  0  0  0  0  0  0  0  0  0  0
  -25.1800  -13.8410   20.5350 C   0  0  0  0  0  0  0  0  0  0  0  0
  -24.1140  -13.0690   20.9080 C   0  0  0  0  0  0  0  0  0  0  0  0
  -24.5760  -11.7170   20.8820 C   0  0  0  0  0  0  0  0  0  0  0  0
  -26.2230  -12.9600   20.3020 N   0  0  0  0  0  0  0  0  0  0  0  0
  -25.8670  -11.6780   20.5740 N   0  0  0  0  0  0  0  0  0  0  0  0
  -23.8490  -10.4560   21.0730 C   0  0  0  0  0  0  0  0  0  0  0  0
  -24.2920   -9.4820   21.9950 C   0  0  0  0  0  3  0  0  0  0  0  0
  -23.5670   -8.2860   22.1760 C   0  0  0  0  0  3  0  0  0  0  0  0
  -22.3830   -8.0530   21.4340 C   0  0  0  0  0  0  0  0  0  0  0  0
  -21.9590   -9.0160   20.5020 C   0  0  0  0  0  3  0  0  0  0  0  0
  -22.6870  -10.2040   20.3190 C   0  0  0  0  0  3  0  0  0  0  0  0
  -21.6280   -6.9090   21.5250 O   0  0  0  0  0  0  0  0  0  0  0  0
  -21.6070   -6.1500   22.6670 C   0  0  0  0  0  0  0  0  0  0  0  0
  -21.2300   -6.6930   23.9150 C   0  0  0  0  0  3  0  0  0  0  0  0
  -21.1530   -5.8600   25.0500 C   0  0  0  0  0  3  0  0  0  0  0  0
  -21.4440   -4.4870   24.9380 C   0  0  0  0  0  0  0  0  0  0  0  0
  -21.8150   -3.9450   23.6960 C   0  0  0  0  0  3  0  0  0  0  0  0
  -21.8940   -4.7740   22.5620 C   0  0  0  0  0  0  0  0  0  0  0  0
  -22.2300   -4.2430   21.3630 F   0  0  0  0  0  0  0  0  0  0  0  0
  -21.3630   -3.6850   26.0260 F   0  0  0  0  0  0  0  0  0  0  0  0
  -22.7160  -13.5470   21.1740 C   0  0  0  0  0  0  0  0  0  0  0  0
  -21.9860  -12.8540   22.0420 N   0  0  0  0  0  0  0  0  0  0  0  0
  -22.2790  -14.5700   20.6480 O   0  0  0  0  0  0  0  0  0  0  0  0
  -22.3540  -12.0280   22.4900 H   0  0  0  0  0  0  0  0  0  0  0  0
  -21.0470  -13.1560   22.2630 H   0  0  0  0  0  0  0  0  0  0  0  0
  -25.3450  -15.2110   20.3520 N   0  0  0  0  0  0  0  0  0  0  0  0
  -24.5710  -15.8590   20.4450 H   0  0  0  0  0  0  0  0  0  0  0  0
  -26.1760  -15.6410   19.9670 H   0  0  0  0  0  0  0  0  0  0  0  0
  -28.7540  -22.4040   20.8440 C   0  0  0  0  0  2  0  0  0  0  0  0
  -28.7010  -23.7960   20.0380 C   0  0  0  0  0  3  0  0  0  0  0  0
  -28.1840  -25.1060   20.8010 C   0  0  0  0  0  3  0  0  0  0  0  0
  -28.3430  -26.4600   20.2080 O   0  0  0  0  0  0  0  0  0  0  0  0
  -24.6200  -31.8770   23.2250 C   0  0  0  0  0  0  0  0  0  0  0  0
  -27.2290  -27.3080   20.1960 C   0  0  0  0  0  0  0  0  0  0  0  0
  -23.4140  -30.4720   21.5900 C   0  0  0  0  0  3  0  0  0  0  0  0
  -24.8650  -28.9120   20.1710 C   0  0  0  0  0  0  0  0  0  0  0  0
  -25.9510  -30.7940   21.3990 C   0  0  0  0  0  2  0  0  0  0  0  0
  -26.0330  -29.4100   20.7630 C   0  0  0  0  0  0  0  0  0  0  0  0
  -27.2220  -28.6200   20.7630 C   0  0  0  0  0  3  0  0  0  0  0  0
  -26.0430  -26.8590   19.5800 C   0  0  0  0  0  3  0  0  0  0  0  0
  -24.8710  -27.6430   19.5680 C   0  0  0  0  0  3  0  0  0  0  0  0
  -23.6270  -29.7860   20.2140 C   0  0  0  0  0  2  0  0  0  0  0  0
  -24.6810  -31.0650   22.1290 N   0  0  0  0  0  0  0  0  0  0  0  0
  -23.5380  -32.1550   23.7620 O   0  0  0  0  0  0  0  0  0  0  0  0
  -22.7530  -29.4600   22.5560 C   0  0  0  0  0  0  0  0  0  0  0  0
  -21.4260  -29.2880   22.4380 N   0  0  0  0  0  0  0  0  0  0  0  0
  -23.4340  -28.8310   23.3720 O   0  0  0  0  0  0  0  0  0  0  0  0
  -20.9350  -29.8470   21.7540 H   0  0  0  0  0  0  0  0  0  0  0  0
  -18.0500  -28.0970   22.9470 C   0  0  0  0  0  0  0  0  0  0  0  0
  -20.6070  -28.3540   23.2150 C   0  0  0  0  0  3  0  0  0  0  0  0
  -20.7080  -26.9210   22.6460 C   0  0  0  0  0  2  0  0  0  0  0  0
  -19.6060  -26.5940   21.6350 C   0  0  0  0  0  2  0  0  0  0  0  0
  -18.2240  -26.7440   22.2790 C   0  0  0  0  0  2  0  0  0  0  0  0
  -19.1690  -28.8600   23.3720 C   0  0  0  0  0  0  0  0  0  0  0  0
  -18.9510  -30.1260   23.9580 C   0  0  0  0  0  3  0  0  0  0  0  0
  -17.6470  -30.6290   24.1240 C   0  0  0  0  0  3  0  0  0  0  0  0
  -16.5420  -29.8630   23.7140 C   0  0  0  0  0  3  0  0  0  0  0  0
  -16.7430  -28.6000   23.1320 C   0  0  0  0  0  3  0  0  0  0  0  0
  -25.9040  -32.5120   23.8430 C   0  0  0  0  0  3  0  0  0  0  0  0
  -25.5920  -33.9070   24.1790 N   0  0  0  0  0  0  0  0  0  0  0  0
  -25.9170  -34.9650   23.4220 C   0  0  0  0  0  0  0  0  0  0  0  0
  -26.5810  -34.8670   22.3870 O   0  0  0  0  0  0  0  0  0  0  0  0
  -25.0000  -34.0580   24.9830 H   0  0  0  0  0  0  0  0  0  0  0  0
  -24.1810  -36.7560   23.0870 C   0  0  0  0  0  1  0  0  0  0  0  0
  -25.4290  -36.3500   23.8870 C   0  0  0  0  0  3  0  0  0  0  0  0
  -27.5690  -37.2390   24.7020 C   0  0  0  0  0  1  0  0  0  0  0  0
  -26.4570  -37.4070   23.7700 N   0  0  0  0  0  0  0  0  0  0  0  0
  -26.0490  -38.3250   23.9260 H   0  0  0  0  0  0  0  0  0  0  0  0
  -26.4300  -31.7390   25.1150 C   0  0  1  0  0  0  0  0  0  0  0  0
  -25.3430  -31.4990   26.1900 C   0  0  0  0  0  1  0  0  0  0  0  0
  -27.0110  -30.3620   24.7180 C   0  0  0  0  0  1  0  0  0  0  0  0
  -27.5820  -32.5320   25.7730 C   0  0  0  0  0  1  0  0  0  0  0  0
  1 47  1  0
  1  2  1  0
  2  6  1  0
  2  3  1  1
  5  6  1  0
  6  4  1  0
  7  2  1  0
  7  8  2  0
  9 17  1  0
 10 15  1  0
 11 12  1  0
 11 10  1  0
 13 12  1  0
 13 22  1  0
 13 14  1  0
 15  9  1  0
 15 14  1  0
 16  9  2  0
 17 18  1  0
 17  8  1  0
 19 20  2  0
 20 39  1  0
 21 20  1  0
 21 24  1  0
 22 19  1  0
 22 23  1  0
 23 21  2  0
 24 25  1  0
 25 26  2  0
 27 30  1  0
 27 26  1  0
 28 27  2  0
 29 28  1  0
 29 24  2  0
 30 31  1  0
 31 32  1  0
 32 33  2  0
 34 33  1  0
 34 38  1  0
 35 34  2  0
 36 31  2  0
 36 35  1  0
 37 36  1  0
 39 40  1  0
 40 43  1  0
 40 42  1  0
 41 39  2  0
 44 45  1  0
 44 19  1  0
 46 44  1  0
 48 49  2  0
 48 47  1  0
 50 49  1  0
 51 62  2  0
 52 50  1  0
 52 57  1  0
 53 61  1  0
 53 63  1  0
 54 60  1  0
 54 56  1  0
 55 61  1  0
 56 57  2  0
 56 55  1  0
 58 52  2  0
 59 58  1  0
 59 54  2  0
 60 53  1  0
 61 51  1  0
 63 65  2  0
 64 63  1  0
 66 64  1  0
 67 76  2  0
 67 72  1  0
 68 64  1  0
 68 72  1  0
 69 68  1  0
 70 71  1  0
 70 69  1  0
 71 67  1  0
 72 73  2  0
 73 74  1  0
 75 74  2  0
 76 75  1  0
 77 51  1  0
 77 78  1  0
 77 87  1  0
 78 81  1  0
 79 83  1  0
 79 78  1  0
 80 79  2  0
 83 82  1  0
 85 83  1  0
 85 86  1  0
 85 84  1  0
 87 90  1  1
 87 88  1  0
 89 87  1  0
M  ISO  4   9 100  17 100  49 101  50 101
M  END
>  <TORSDO>  (13) 
F 23

>  <SCORE>  (13) 
-12.899

>  <name>  (13) 
12

>  <ligand_id>  (13) 
12

>  <original_smiles>  (13) 
[H]c1c([H])c([H])c2c(c1[H])C([H])([H])C([H])([H])C([H])([H])C2([H])N([H])C(=O)C1([H])N(C(=O)C([H])(N([H])C(=O)C([H])(N([H])C([H])([H])[H])C([H])([H])[H])C(C([H])([H])[H])(C([H])([H])[H])C([H])([H])[H])C([H])([H])c2c([H])c(OC([H])([H])C([H])([H])C([H])([H])C([H])([H])[N+]([H])(C([H])([H])C([H])([H])N([H])C(=O)N3C([H])([H])C([H])([H])C([H])([H])C([H])(n4nc(-c5c([H])c([H])c(Oc6c([H])c([H])c(F)c([H])c6F)c([H])c5[H])c(C(=O)N([H])[H])c4N([H])[H])C3([H])[H])C([H])(C([H])([H])[H])C([H])([H])[H])c([H])c([H])c2C1([H])[H]

>  <smiles>  (13) 
[H]c1c([H])c([H])c2c(c1[H])C([H])([H])C([H])([H])C([H])([H])C2([H])N([H])C(=O)C1([H])N(C(=O)C([H])(N([H])C(=O)C([H])(N([H])C([H])([H])[H])C([H])([H])[H])C(C([H])([H])[H])(C([H])([H])[H])C([H])([H])[H])C([H])([H])c2c([H])c(OC([H])([H])C([H])([H])C([H])([H])C([H])([H])[N+]([H])(C([H])([H])C([H])([H])N([H])C(=O)N3C([H])([H])C([H])([H])C([H])([H])C([H])(n4nc(-c5c([H])c([H])c(Oc6c([H])c([H])c(F)c([H])c6F)c([H])c5[H])c(C(=O)N([H])[H])c4N([H])[H])C3([H])[H])C([H])(C([H])([H])[H])C([H])([H])[H])c([H])c([H])c2C1([H])[H]

$$$$
13:0:0
     RDKit          3D

 94102  0  0  1  0  0  0  0  0999 V2000
  -29.3390  -18.9700   20.5290 C   0  0  0  0  0  3  0  0  0  0  0  0
  -31.5070  -19.4970   21.3770 C   0  0  0  0  0  3  0  0  0  0  0  0
  -30.4730  -18.5360   21.2520 C   0  0  0  0  0  0  0  0  0  0  0  0
  -29.3000  -20.2710   19.9380 C   0  0  0  0  0  0  0  0  0  0  0  0
  -30.4310  -21.1350   20.0720 C   0  0  0  0  0  0  0  0  0  0  0  0
  -31.4950  -20.7310   20.8080 N   0  0  0  0  0  0  0  0  0  0  0  0
  -26.8160  -20.8320   20.0790 C   0  0  0  0  0  1  0  0  0  0  0  0
  -28.0410  -20.6720   19.1540 C   0  0  0  0  0  3  0  0  0  0  0  0
  -28.9520  -19.4550   17.0370 C   0  0  0  0  0  1  0  0  0  0  0  0
  -27.7440  -19.7420   17.9450 C   0  0  0  0  0  3  0  0  0  0  0  0
  -27.2830  -18.5610   18.3660 F   0  0  0  0  0  0  0  0  0  0  0  0
  -30.5490  -17.1910   22.0580 C   0  0  0  0  0  2  0  0  0  0  0  0
  -30.6940  -14.8270   21.1240 C   0  0  0  0  0  0  0  0  0  0  0  0
  -30.5230  -12.6760   19.8910 C   0  0  0  0  0  2  0  0  0  0  0  0
  -29.6660  -12.8540   18.6200 C   0  0  0  0  0  2  0  0  0  0  0  0
  -28.1700  -12.6660   18.9430 C   0  0  0  0  0  2  0  0  0  0  0  0
  -27.7210  -13.4690   20.1940 C   0  0  0  0  0  3  0  0  0  0  0  0
  -28.7030  -13.2790   21.3700 C   0  0  0  0  0  2  0  0  0  0  0  0
  -30.0410  -13.6460   20.8940 N   0  0  0  0  0  0  0  0  0  0  0  0
  -31.8800  -14.9640   20.8140 O   0  0  0  0  0  0  0  0  0  0  0  0
  -29.9670  -15.8950   21.5740 N   0  0  0  0  0  0  0  0  0  0  0  0
  -28.9860  -15.7320   21.7460 H   0  0  0  0  0  0  0  0  0  0  0  0
  -25.2910  -14.0050   20.8240 C   0  0  0  0  0  0  0  0  0  0  0  0
  -24.2070  -13.2030   21.0600 C   0  0  0  0  0  0  0  0  0  0  0  0
  -24.6750  -11.8600   20.9420 C   0  0  0  0  0  0  0  0  0  0  0  0
  -26.3500  -13.1470   20.5750 N   0  0  0  0  0  0  0  0  0  0  0  0
  -25.9820  -11.8470   20.7100 N   0  0  0  0  0  0  0  0  0  0  0  0
  -23.9430  -10.5860   20.9800 C   0  0  0  0  0  0  0  0  0  0  0  0
  -24.3600   -9.5190   21.8040 C   0  0  0  0  0  3  0  0  0  0  0  0
  -23.6300   -8.3110   21.8370 C   0  0  0  0  0  3  0  0  0  0  0  0
  -22.4680   -8.1620   21.0450 C   0  0  0  0  0  0  0  0  0  0  0  0
  -22.0690   -9.2190   20.2070 C   0  0  0  0  0  3  0  0  0  0  0  0
  -22.7990  -10.4190   20.1720 C   0  0  0  0  0  3  0  0  0  0  0  0
  -21.7110   -7.0170   20.9910 O   0  0  0  0  0  0  0  0  0  0  0  0
  -21.6990   -6.1150   22.0230 C   0  0  0  0  0  0  0  0  0  0  0  0
  -21.3510   -6.4920   23.3380 C   0  0  0  0  0  3  0  0  0  0  0  0
  -21.2830   -5.5200   24.3560 C   0  0  0  0  0  3  0  0  0  0  0  0
  -21.5530   -4.1700   24.0600 C   0  0  0  0  0  0  0  0  0  0  0  0
  -21.8960   -3.7910   22.7500 C   0  0  0  0  0  3  0  0  0  0  0  0
  -21.9650   -4.7610   21.7350 C   0  0  0  0  0  0  0  0  0  0  0  0
  -22.2740   -4.3880   20.4690 F   0  0  0  0  0  0  0  0  0  0  0  0
  -21.4810   -3.2340   25.0350 F   0  0  0  0  0  0  0  0  0  0  0  0
  -22.7940  -13.6580   21.2870 C   0  0  0  0  0  0  0  0  0  0  0  0
  -22.0270  -12.9050   22.0670 N   0  0  0  0  0  0  0  0  0  0  0  0
  -22.3750  -14.7110   20.8080 O   0  0  0  0  0  0  0  0  0  0  0  0
  -22.3780  -12.0490   22.4740 H   0  0  0  0  0  0  0  0  0  0  0  0
  -21.0760  -13.1850   22.2590 H   0  0  0  0  0  0  0  0  0  0  0  0
  -25.4670  -15.3830   20.7780 N   0  0  0  0  0  0  0  0  0  0  0  0
  -24.7130  -16.0420   20.9410 H   0  0  0  0  0  0  0  0  0  0  0  0
  -26.3400  -15.8430   20.5590 H   0  0  0  0  0  0  0  0  0  0  0  0
  -30.6540  -22.4540   19.2540 C   0  0  0  0  0  2  0  0  0  0  0  0
  -30.6390  -23.8930   19.9200 C   0  0  0  0  0  2  0  0  0  0  0  0
  -29.8580  -24.9560   19.0390 C   0  0  0  0  0  2  0  0  0  0  0  0
  -29.8630  -26.4090   19.3060 O   0  0  0  0  0  0  0  0  0  0  0  0
  -25.2610  -30.6590   22.8380 C   0  0  0  0  0  0  0  0  0  0  0  0
  -28.6260  -27.0740   19.2860 C   0  0  0  0  0  0  0  0  0  0  0  0
  -24.3240  -29.3090   20.9950 C   0  0  0  0  0  3  0  0  0  0  0  0
  -26.0220  -28.2510   19.4070 C   0  0  0  0  0  0  0  0  0  0  0  0
  -26.7670  -30.0850   20.9230 C   0  0  0  0  0  2  0  0  0  0  0  0
  -27.0860  -28.8430   20.1000 C   0  0  0  0  0  0  0  0  0  0  0  0
  -28.3860  -28.2670   20.0350 C   0  0  0  0  0  3  0  0  0  0  0  0
  -27.5300  -26.5520   18.5530 C   0  0  0  0  0  3  0  0  0  0  0  0
  -26.2460  -27.1130   18.6230 C   0  0  0  0  0  3  0  0  0  0  0  0
  -24.6530  -28.8820   19.5410 C   0  0  0  0  0  2  0  0  0  0  0  0
  -25.4660  -30.0280   21.6450 N   0  0  0  0  0  0  0  0  0  0  0  0
  -24.1440  -30.6700   23.3770 O   0  0  0  0  0  0  0  0  0  0  0  0
  -23.8490  -28.0690   21.7920 C   0  0  0  0  0  0  0  0  0  0  0  0
  -22.5720  -27.6900   21.6140 N   0  0  0  0  0  0  0  0  0  0  0  0
  -24.6270  -27.4610   22.5300 O   0  0  0  0  0  0  0  0  0  0  0  0
  -21.9910  -28.2500   21.0050 H   0  0  0  0  0  0  0  0  0  0  0  0
  -19.4490  -25.8840   21.8670 C   0  0  0  0  0  0  0  0  0  0  0  0
  -21.9240  -26.5300   22.2310 C   0  0  0  0  0  3  0  0  0  0  0  0
  -22.2680  -25.2260   21.4750 C   0  0  0  0  0  2  0  0  0  0  0  0
  -21.2390  -24.8610   20.4010 C   0  0  0  0  0  2  0  0  0  0  0  0
  -19.8520  -24.6860   21.0250 C   0  0  0  0  0  2  0  0  0  0  0  0
  -20.4210  -26.7590   22.4200 C   0  0  0  0  0  0  0  0  0  0  0  0
  -19.9900  -27.8790   23.1660 C   0  0  0  0  0  3  0  0  0  0  0  0
  -18.6190  -28.1230   23.3680 C   0  0  0  0  0  3  0  0  0  0  0  0
  -17.6610  -27.2470   22.8290 C   0  0  0  0  0  3  0  0  0  0  0  0
  -18.0770  -26.1290   22.0830 C   0  0  0  0  0  3  0  0  0  0  0  0
  -26.4140  -31.4120   23.5700 C   0  0  0  0  0  3  0  0  0  0  0  0
  -25.8580  -32.6560   24.1150 N   0  0  0  0  0  0  0  0  0  0  0  0
  -26.0400  -33.8710   23.5820 C   0  0  0  0  0  0  0  0  0  0  0  0
  -26.7650  -34.0710   22.6040 O   0  0  0  0  0  0  0  0  0  0  0  0
  -25.2200  -32.5630   24.8910 H   0  0  0  0  0  0  0  0  0  0  0  0
  -24.0560  -35.4060   23.4080 C   0  0  0  0  0  1  0  0  0  0  0  0
  -25.3000  -35.0520   24.2390 C   0  0  0  0  0  3  0  0  0  0  0  0
  -27.2050  -36.0810   25.3960 C   0  0  0  0  0  1  0  0  0  0  0  0
  -26.1430  -36.2550   24.4090 N   0  0  0  0  0  0  0  0  0  0  0  0
  -25.5770  -37.0520   24.6870 H   0  0  0  0  0  0  0  0  0  0  0  0
  -27.0870  -30.5550   24.7120 C   0  0  1  0  0  0  0  0  0  0  0  0
  -26.0780  -29.9590   25.7220 C   0  0  0  0  0  1  0  0  0  0  0  0
  -27.9000  -29.3840   24.1100 C   0  0  0  0  0  1  0  0  0  0  0  0
  -28.0870  -31.4310   25.5020 C   0  0  0  0  0  1  0  0  0  0  0  0
  1  3  1  0
  3  2  2  0
  3 12  1  0
  4  5  1  0
  4  1  2  0
  5  6  2  0
  6  2  1  0
  8  4  1  0
  8  7  1  0
 10  9  1  0
 10 11  1  0
 10  8  1  0
 13 21  1  0
 14 19  1  0
 15 16  1  0
 15 14  1  0
 17 16  1  0
 17 26  1  0
 17 18  1  0
 19 13  1  0
 19 18  1  0
 20 13  2  0
 21 22  1  0
 21 12  1  0
 23 24  2  0
 24 43  1  0
 25 28  1  0
 25 24  1  0
 26 27  1  0
 26 23  1  0
 27 25  2  0
 28 29  1  0
 29 30  2  0
 31 30  1  0
 32 31  2  0
 33 32  1  0
 33 28  2  0
 34 31  1  0
 34 35  1  0
 35 36  1  0
 36 37  2  0
 38 37  1  0
 38 42  1  0
 39 38  2  0
 40 35  2  0
 40 39  1  0
 41 40  1  0
 43 44  1  0
 44 47  1  0
 44 46  1  0
 45 43  2  0
 48 23  1  0
 48 49  1  0
 50 48  1  0
 51 52  1  0
 51  5  1  0
 53 54  1  0
 53 52  1  0
 55 66  2  0
 56 54  1  0
 56 61  1  0
 57 65  1  0
 57 67  1  0
 58 64  1  0
 58 60  1  0
 59 65  1  0
 60 59  1  0
 61 60  2  0
 62 63  1  0
 62 56  2  0
 63 58  2  0
 64 57  1  0
 65 55  1  0
 67 69  2  0
 68 67  1  0
 70 68  1  0
 71 80  2  0
 71 76  1  0
 72 68  1  0
 72 76  1  0
 73 72  1  0
 74 75  1  0
 74 73  1  0
 75 71  1  0
 76 77  2  0
 77 78  1  0
 79 78  2  0
 80 79  1  0
 81 55  1  0
 81 82  1  0
 81 91  1  0
 82 85  1  0
 83 82  1  0
 83 87  1  0
 84 83  2  0
 87 86  1  0
 87 89  1  0
 89 90  1  0
 89 88  1  0
 91 94  1  1
 91 92  1  0
 93 91  1  0
M  ISO  4  13 100  21 100  53 101  54 101
M  END
>  <TORSDO>  (14) 
F 22

>  <SCORE>  (14) 
-8.957

>  <name>  (14) 
13

>  <ligand_id>  (14) 
13

>  <original_smiles>  (14) 
[H]c1nc(C([H])([H])C([H])([H])C([H])([H])Oc2c([H])c([H])c3c(c2[H])C([H])([H])N(C(=O)C([H])(N([H])C(=O)C([H])(N([H])C([H])([H])[H])C([H])([H])[H])C(C([H])([H])[H])(C([H])([H])[H])C([H])([H])[H])C([H])(C(=O)N([H])C2([H])c4c([H])c([H])c([H])c([H])c4C([H])([H])C([H])([H])C2([H])[H])C3([H])[H])c(C([H])(C([H])([H])[H])C([H])(F)C([H])([H])[H])c([H])c1C([H])([H])N([H])C(=O)N1C([H])([H])C([H])([H])C([H])([H])C([H])(n2nc(-c3c([H])c([H])c(Oc4c([H])c([H])c(F)c([H])c4F)c([H])c3[H])c(C(=O)N([H])[H])c2N([H])[H])C1([H])[H]

>  <smiles>  (14) 
[H]c1nc(C([H])([H])C([H])([H])C([H])([H])Oc2c([H])c([H])c3c(c2[H])C([H])([H])N(C(=O)C([H])(N([H])C(=O)C([H])(N([H])C([H])([H])[H])C([H])([H])[H])C(C([H])([H])[H])(C([H])([H])[H])C([H])([H])[H])C([H])(C(=O)N([H])C2([H])c4c([H])c([H])c([H])c([H])c4C([H])([H])C([H])([H])C2([H])[H])C3([H])[H])c(C([H])(C([H])([H])[H])C([H])(F)C([H])([H])[H])c([H])c1C([H])([H])N([H])C(=O)N1C([H])([H])C([H])([H])C([H])([H])C([H])(n2nc(-c3c([H])c([H])c(Oc4c([H])c([H])c(F)c([H])c4F)c([H])c3[H])c(C(=O)N([H])[H])c2N([H])[H])C1([H])[H]

$$$$
14:0:0
     RDKit          3D

 94102  0  0  1  0  0  0  0  0999 V2000
  -28.9670  -22.5380   20.7150 N   0  0  0  0  0  4  0  0  0  0  0  0
  -29.4990  -22.2670   21.5250 H   0  0  0  0  0  0  0  0  0  0  0  0
  -28.0140  -22.3370   20.9710 H   0  0  0  0  0  0  0  0  0  0  0  0
  -30.6250  -24.5420   20.3200 C   0  0  0  0  0  1  0  0  0  0  0  0
  -29.1840  -24.0820   20.6330 C   0  0  0  0  0  3  0  0  0  0  0  0
  -28.2840  -24.8550   18.3820 C   0  0  0  0  0  1  0  0  0  0  0  0
  -28.1230  -25.0290   19.8960 C   0  0  0  0  0  3  0  0  0  0  0  0
  -28.2500  -26.5000   20.1850 O   0  0  0  0  0  0  0  0  0  0  0  0
  -24.5960  -31.9560   23.2300 C   0  0  0  0  0  0  0  0  0  0  0  0
  -27.1400  -27.3650   20.1380 C   0  0  0  0  0  0  0  0  0  0  0  0
  -23.3690  -30.5610   21.6060 C   0  0  0  0  0  3  0  0  0  0  0  0
  -24.7860  -28.9960   20.1740 C   0  0  0  0  0  0  0  0  0  0  0  0
  -25.9050  -30.8700   21.3810 C   0  0  0  0  0  2  0  0  0  0  0  0
  -25.9740  -29.4900   20.7300 C   0  0  0  0  0  0  0  0  0  0  0  0
  -27.1590  -28.6910   20.6840 C   0  0  0  0  0  3  0  0  0  0  0  0
  -25.9160  -26.9330   19.5740 C   0  0  0  0  0  3  0  0  0  0  0  0
  -24.7580  -27.7210   19.5960 C   0  0  0  0  0  3  0  0  0  0  0  0
  -23.5630  -29.8740   20.2300 C   0  0  0  0  0  2  0  0  0  0  0  0
  -24.6450  -31.1470   22.1310 N   0  0  0  0  0  0  0  0  0  0  0  0
  -23.5190  -32.2370   23.7760 O   0  0  0  0  0  0  0  0  0  0  0  0
  -22.7080  -29.5530   22.5770 C   0  0  0  0  0  0  0  0  0  0  0  0
  -21.3800  -29.3770   22.4510 N   0  0  0  0  0  0  0  0  0  0  0  0
  -23.3870  -28.9300   23.3960 O   0  0  0  0  0  0  0  0  0  0  0  0
  -20.8930  -29.9320   21.7620 H   0  0  0  0  0  0  0  0  0  0  0  0
  -18.0020  -28.1700   22.9330 C   0  0  0  0  0  0  0  0  0  0  0  0
  -20.5570  -28.4380   23.2150 C   0  0  0  0  0  3  0  0  0  0  0  0
  -20.6710  -27.0070   22.6430 C   0  0  0  0  0  2  0  0  0  0  0  0
  -19.5740  -26.6760   21.6260 C   0  0  0  0  0  2  0  0  0  0  0  0
  -18.1890  -26.8190   22.2640 C   0  0  0  0  0  2  0  0  0  0  0  0
  -19.1160  -28.9400   23.3620 C   0  0  0  0  0  0  0  0  0  0  0  0
  -18.8890  -30.2100   23.9380 C   0  0  0  0  0  3  0  0  0  0  0  0
  -17.5810  -30.7030   24.1000 C   0  0  0  0  0  3  0  0  0  0  0  0
  -16.4820  -29.9270   23.6910 C   0  0  0  0  0  3  0  0  0  0  0  0
  -16.6940  -28.6630   23.1110 C   0  0  0  0  0  3  0  0  0  0  0  0
  -25.8870  -32.5850   23.8430 C   0  0  0  0  0  3  0  0  0  0  0  0
  -26.4080  -31.8190   25.1210 C   0  0  1  0  0  0  0  0  0  0  0  0
  -25.3230  -31.5970   26.2000 C   0  0  0  0  0  1  0  0  0  0  0  0
  -26.9870  -30.4390   24.7310 C   0  0  0  0  0  1  0  0  0  0  0  0
  -27.5580  -32.6180   25.7770 C   0  0  0  0  0  1  0  0  0  0  0  0
  -25.5920  -33.9870   24.1760 N   0  0  0  0  0  0  0  0  0  0  0  0
  -25.9120  -35.0390   23.4110 C   0  0  0  0  0  0  0  0  0  0  0  0
  -26.5620  -34.9340   22.3680 O   0  0  0  0  0  0  0  0  0  0  0  0
  -25.0330  -34.1490   25.0010 H   0  0  0  0  0  0  0  0  0  0  0  0
  -24.1890  -36.8400   23.0880 C   0  0  0  0  0  1  0  0  0  0  0  0
  -25.4380  -36.4280   23.8810 C   0  0  0  0  0  3  0  0  0  0  0  0
  -27.5850  -37.2960   24.6900 C   0  0  0  0  0  1  0  0  0  0  0  0
  -26.4740  -37.4750   23.7600 N   0  0  0  0  0  0  0  0  0  0  0  0
  -26.0730  -38.3950   23.9240 H   0  0  0  0  0  0  0  0  0  0  0  0
  -29.4190  -21.4840   19.6910 C   0  0  0  0  0  2  0  0  0  0  0  0
  -30.8330  -20.1180   21.2870 C   0  0  0  0  0  3  0  0  0  0  0  0
  -29.5360  -18.6920   19.8500 C   0  0  0  0  0  3  0  0  0  0  0  0
  -29.8750  -20.0560   20.2650 C   0  0  0  0  0  0  0  0  0  0  0  0
  -31.3380  -18.9510   21.8720 C   0  0  0  0  0  0  0  0  0  0  0  0
  -30.1200  -17.4980   20.4690 C   0  0  0  0  0  0  0  0  0  0  0  0
  -32.3240  -19.0950   23.0150 C   0  0  0  0  0  1  0  0  0  0  0  0
  -30.9910  -17.7000   21.4900 N   0  0  0  0  0  0  0  0  0  0  0  0
  -30.5370  -14.9220   20.1290 C   0  0  0  0  0  0  0  0  0  0  0  0
  -30.3280  -12.6320   19.1400 C   0  0  0  0  0  2  0  0  0  0  0  0
  -29.3520  -12.6560   17.9470 C   0  0  0  0  0  2  0  0  0  0  0  0
  -27.9040  -12.4320   18.4240 C   0  0  0  0  0  2  0  0  0  0  0  0
  -27.5340  -13.3390   19.6310 C   0  0  0  0  0  3  0  0  0  0  0  0
  -28.6310  -13.3410   20.7150 C   0  0  0  0  0  2  0  0  0  0  0  0
  -29.8960  -13.7000   20.0640 N   0  0  0  0  0  0  0  0  0  0  0  0
  -31.7490  -14.9660   19.8800 O   0  0  0  0  0  0  0  0  0  0  0  0
  -29.7720  -16.0900   20.1160 N   0  0  0  0  0  0  0  0  0  0  0  0
  -28.8010  -15.9420   19.9080 H   0  0  0  0  0  0  0  0  0  0  0  0
  -25.1740  -13.8970   20.4510 C   0  0  0  0  0  0  0  0  0  0  0  0
  -24.1250  -13.1100   20.8510 C   0  0  0  0  0  0  0  0  0  0  0  0
  -24.5980  -11.7640   20.7970 C   0  0  0  0  0  0  0  0  0  0  0  0
  -26.2140  -13.0260   20.1730 N   0  0  0  0  0  0  0  0  0  0  0  0
  -25.8810  -11.7400   20.4530 N   0  0  0  0  0  0  0  0  0  0  0  0
  -23.8910  -10.4940   20.9980 C   0  0  0  0  0  0  0  0  0  0  0  0
  -24.3520   -9.5310   21.9220 C   0  0  0  0  0  3  0  0  0  0  0  0
  -23.6430   -8.3250   22.1130 C   0  0  0  0  0  3  0  0  0  0  0  0
  -22.4590   -8.0710   21.3800 C   0  0  0  0  0  0  0  0  0  0  0  0
  -22.0170   -9.0240   20.4460 C   0  0  0  0  0  3  0  0  0  0  0  0
  -22.7250  -10.2220   20.2520 C   0  0  0  0  0  3  0  0  0  0  0  0
  -21.7230   -6.9140   21.4760 O   0  0  0  0  0  0  0  0  0  0  0  0
  -21.7000   -6.1740   22.6300 C   0  0  0  0  0  0  0  0  0  0  0  0
  -21.2880   -6.7220   23.8630 C   0  0  0  0  0  3  0  0  0  0  0  0
  -21.2130   -5.9040   25.0080 C   0  0  0  0  0  3  0  0  0  0  0  0
  -21.5470   -4.5380   24.9230 C   0  0  0  0  0  0  0  0  0  0  0  0
  -21.9550   -3.9890   23.6940 C   0  0  0  0  0  3  0  0  0  0  0  0
  -22.0290   -4.8050   22.5510 C   0  0  0  0  0  0  0  0  0  0  0  0
  -22.4030   -4.2670   21.3660 F   0  0  0  0  0  0  0  0  0  0  0  0
  -21.4660   -3.7490   26.0210 F   0  0  0  0  0  0  0  0  0  0  0  0
  -22.7310  -13.5760   21.1570 C   0  0  0  0  0  0  0  0  0  0  0  0
  -22.0280  -12.8670   22.0330 N   0  0  0  0  0  0  0  0  0  0  0  0
  -22.2730  -14.5980   20.6490 O   0  0  0  0  0  0  0  0  0  0  0  0
  -22.4100  -12.0380   22.4630 H   0  0  0  0  0  0  0  0  0  0  0  0
  -21.0930  -13.1600   22.2760 H   0  0  0  0  0  0  0  0  0  0  0  0
  -25.3270  -15.2680   20.2730 N   0  0  0  0  0  0  0  0  0  0  0  0
  -24.5640  -15.9300   20.3840 H   0  0  0  0  0  0  0  0  0  0  0  0
  -26.1600  -15.6940   19.8850 H   0  0  0  0  0  0  0  0  0  0  0  0
  1  3  1  0
  1  2  1  0
  5  4  1  0
  5  1  1  0
  7  6  1  0
  7  8  1  0
  7  5  1  0
  9 20  2  0
 10  8  1  0
 10 15  1  0
 11 19  1  0
 11 21  1  0
 12 18  1  0
 12 14  1  0
 13 19  1  0
 14 13  1  0
 15 14  2  0
 16 17  1  0
 16 10  2  0
 17 12  2  0
 18 11  1  0
 19  9  1  0
 21 23  2  0
 22 21  1  0
 24 22  1  0
 25 34  2  0
 25 30  1  0
 26 22  1  0
 26 30  1  0
 27 26  1  0
 28 29  1  0
 28 27  1  0
 29 25  1  0
 30 31  2  0
 31 32  1  0
 33 32  2  0
 34 33  1  0
 35  9  1  0
 35 40  1  0
 35 36  1  0
 36 39  1  1
 36 37  1  0
 38 36  1  0
 40 43  1  0
 41 45  1  0
 41 40  1  0
 42 41  2  0
 45 44  1  0
 47 45  1  0
 47 48  1  0
 47 46  1  0
 49 52  1  0
 49  1  1  0
 50 53  1  0
 51 52  1  0
 51 54  2  0
 52 50  2  0
 53 55  1  0
 54 56  1  0
 56 53  2  0
 58 63  1  0
 59 60  1  0
 59 58  1  0
 61 60  1  0
 61 70  1  0
 61 62  1  0
 63 57  1  0
 63 62  1  0
 64 57  2  0
 65 57  1  0
 65 54  1  0
 66 65  1  0
 67 68  2  0
 68 87  1  0
 69 68  1  0
 69 72  1  0
 70 67  1  0
 70 71  1  0
 71 69  2  0
 72 73  1  0
 73 74  2  0
 75 78  1  0
 75 74  1  0
 76 75  2  0
 77 76  1  0
 77 72  2  0
 78 79  1  0
 79 80  1  0
 80 81  2  0
 82 81  1  0
 82 86  1  0
 83 82  2  0
 84 79  2  0
 84 83  1  0
 85 84  1  0
 87 88  1  0
 88 91  1  0
 88 90  1  0
 89 87  2  0
 92 93  1  0
 92 67  1  0
 94 92  1  0
M  ISO  4   7 101   8 101  57 100  65 100
M  END
>  <TORSDO>  (15) 
F 20

>  <SCORE>  (15) 
-13.514

>  <name>  (15) 
14

>  <ligand_id>  (15) 
14

>  <original_smiles>  (15) 
[H]c1c([H])c([H])c2c(c1[H])C([H])([H])C([H])([H])C([H])([H])C2([H])N([H])C(=O)C1([H])N(C(=O)C([H])(N([H])C(=O)C([H])(N([H])C([H])([H])[H])C([H])([H])[H])C(C([H])([H])[H])(C([H])([H])[H])C([H])([H])[H])C([H])([H])c2c([H])c(OC([H])(C([H])([H])[H])C([H])(C([H])([H])[H])[N+]([H])([H])C([H])([H])c3c([H])c(N([H])C(=O)N4C([H])([H])C([H])([H])C([H])([H])C([H])(n5nc(-c6c([H])c([H])c(Oc7c([H])c([H])c(F)c([H])c7F)c([H])c6[H])c(C(=O)N([H])[H])c5N([H])[H])C4([H])[H])nc(C([H])([H])[H])c3[H])c([H])c([H])c2C1([H])[H]

>  <smiles>  (15) 
[H]c1c([H])c([H])c2c(c1[H])C([H])([H])C([H])([H])C([H])([H])C2([H])N([H])C(=O)C1([H])N(C(=O)C([H])(N([H])C(=O)C([H])(N([H])C([H])([H])[H])C([H])([H])[H])C(C([H])([H])[H])(C([H])([H])[H])C([H])([H])[H])C([H])([H])c2c([H])c(OC([H])(C([H])([H])[H])C([H])(C([H])([H])[H])[N+]([H])([H])C([H])([H])c3c([H])c(N([H])C(=O)N4C([H])([H])C([H])([H])C([H])([H])C([H])(n5nc(-c6c([H])c([H])c(Oc7c([H])c([H])c(F)c([H])c7F)c([H])c6[H])c(C(=O)N([H])[H])c5N([H])[H])C4([H])[H])nc(C([H])([H])[H])c3[H])c([H])c([H])c2C1([H])[H]

$$$$
15:0:0
     RDKit          3D

105114  0  0  1  0  0  0  0  0999 V2000
  -30.4760  -23.6830   21.0630 C   0  0  0  0  0  3  0  0  0  0  0  0
  -28.3090  -24.7550   24.1920 C   0  0  0  0  0  2  0  0  0  0  0  0
  -29.1500  -24.9070   22.9160 C   0  0  0  0  0  2  0  0  0  0  0  0
  -29.0720  -23.9650   25.2660 C   0  0  0  0  0  2  0  0  0  0  0  0
  -30.3200  -22.7630   23.5110 C   0  0  0  0  0  2  0  0  0  0  0  0
  -29.6010  -23.5300   22.3600 C   0  0  0  0  0  3  0  0  0  0  0  0
  -30.1710  -21.8230   25.7790 C   0  0  0  0  0  1  0  0  0  0  0  0
  -29.4980  -22.6430   24.7440 N   0  0  1  0  0  4  0  0  0  0  0  0
  -28.6550  -22.1430   24.5010 H   0  0  0  0  0  0  0  0  0  0  0  0
  -30.6430  -22.4030   20.2950 N   0  0  0  0  0  4  0  0  0  0  0  0
  -29.8130  -21.8370   20.3690 H   0  0  0  0  0  0  0  0  0  0  0  0
  -30.7300  -22.6550   19.3220 H   0  0  0  0  0  0  0  0  0  0  0  0
  -31.8710  -21.6090   20.6400 C   0  0  0  0  0  2  0  0  0  0  0  0
  -32.1230  -20.3140   19.8110 C   0  0  0  0  0  2  0  0  0  0  0  0
  -29.8740  -19.1960   19.8070 C   0  0  0  0  0  3  0  0  0  0  0  0
  -31.5400  -17.9600   20.6720 C   0  0  0  0  0  3  0  0  0  0  0  0
  -29.3160  -18.0130   20.2000 C   0  0  0  0  0  0  0  0  0  0  0  0
  -30.3840  -17.2160   20.7220 C   0  0  0  0  0  0  0  0  0  0  0  0
  -31.2190  -19.2000   20.1110 N   0  0  0  0  0  0  0  0  0  0  0  0
  -31.0210  -14.8140   21.0530 C   0  0  0  0  0  0  0  0  0  0  0  0
  -30.9000  -12.5190   20.1570 C   0  0  0  0  0  2  0  0  0  0  0  0
  -30.0810  -12.5490   18.8500 C   0  0  0  0  0  2  0  0  0  0  0  0
  -28.5720  -12.4120   19.1400 C   0  0  0  0  0  2  0  0  0  0  0  0
  -28.0790  -13.3520   20.2700 C   0  0  0  0  0  3  0  0  0  0  0  0
  -29.0290  -13.3100   21.4920 C   0  0  0  0  0  2  0  0  0  0  0  0
  -30.3960  -13.6010   21.0190 N   0  0  0  0  0  0  0  0  0  0  0  0
  -32.2140  -14.9520   20.7720 O   0  0  0  0  0  0  0  0  0  0  0  0
  -30.2060  -15.8800   21.2300 N   0  0  0  0  0  0  0  0  0  0  0  0
  -29.2550  -15.6150   21.4280 H   0  0  0  0  0  0  0  0  0  0  0  0
  -25.6170  -13.9480   20.7580 C   0  0  0  0  0  0  0  0  0  0  0  0
  -24.5290  -13.1770   21.0470 C   0  0  0  0  0  0  0  0  0  0  0  0
  -25.0000  -11.8310   21.0700 C   0  0  0  0  0  0  0  0  0  0  0  0
  -26.6910  -13.0770   20.6340 N   0  0  0  0  0  0  0  0  0  0  0  0
  -26.3130  -11.7970   20.8800 N   0  0  0  0  0  0  0  0  0  0  0  0
  -24.2640  -10.5710   21.2030 C   0  0  0  0  0  0  0  0  0  0  0  0
  -24.6310   -9.6000   22.1590 C   0  0  0  0  0  3  0  0  0  0  0  0
  -23.8950   -8.4020   22.2810 C   0  0  0  0  0  3  0  0  0  0  0  0
  -22.7760   -8.1700   21.4460 C   0  0  0  0  0  0  0  0  0  0  0  0
  -22.4280   -9.1300   20.4790 C   0  0  0  0  0  3  0  0  0  0  0  0
  -23.1670  -10.3180   20.3550 C   0  0  0  0  0  3  0  0  0  0  0  0
  -22.0150   -7.0280   21.4790 O   0  0  0  0  0  0  0  0  0  0  0  0
  -21.9050   -6.2710   22.6180 C   0  0  0  0  0  0  0  0  0  0  0  0
  -21.4330   -6.8160   23.8330 C   0  0  0  0  0  3  0  0  0  0  0  0
  -21.2680   -5.9860   24.9580 C   0  0  0  0  0  3  0  0  0  0  0  0
  -21.5660   -4.6120   24.8720 C   0  0  0  0  0  0  0  0  0  0  0  0
  -22.0300   -4.0670   23.6620 C   0  0  0  0  0  3  0  0  0  0  0  0
  -22.1970   -4.8940   22.5370 C   0  0  0  0  0  0  0  0  0  0  0  0
  -22.6260   -4.3600   21.3680 F   0  0  0  0  0  0  0  0  0  0  0  0
  -21.3990   -3.8120   25.9510 F   0  0  0  0  0  0  0  0  0  0  0  0
  -23.1120  -13.6550   21.1880 C   0  0  0  0  0  0  0  0  0  0  0  0
  -22.3180  -12.9770   22.0070 N   0  0  0  0  0  0  0  0  0  0  0  0
  -22.7180  -14.6690   20.6120 O   0  0  0  0  0  0  0  0  0  0  0  0
  -22.6500  -12.1610   22.4980 H   0  0  0  0  0  0  0  0  0  0  0  0
  -21.3640  -13.2800   22.1460 H   0  0  0  0  0  0  0  0  0  0  0  0
  -25.7570  -15.3120   20.5630 N   0  0  0  0  0  0  0  0  0  0  0  0
  -24.9400  -15.9120   20.5440 H   0  0  0  0  0  0  0  0  0  0  0  0
  -26.5670  -15.7330   20.1310 H   0  0  0  0  0  0  0  0  0  0  0  0
  -26.9610  -18.7260   20.6940 C   0  0  0  0  0  1  0  0  0  0  0  0
  -27.8630  -17.6630   20.0440 C   0  0  0  0  0  3  0  0  0  0  0  0
  -28.3810  -16.4590   17.8120 C   0  0  0  0  0  1  0  0  0  0  0  0
  -27.4680  -17.4330   18.5710 C   0  0  0  0  0  2  0  0  0  0  0  0
  -30.8560  -24.9140   18.8110 C   0  0  0  0  0  1  0  0  0  0  0  0
  -30.0990  -24.9230   20.1540 C   0  0  0  0  0  3  0  0  0  0  0  0
  -28.5960  -25.3050   19.9450 C   0  0  0  0  0  2  0  0  0  0  0  0
  -28.5210  -26.7160   19.6600 O   0  0  0  0  0  0  0  0  0  0  0  0
  -24.6980  -31.7210   22.9880 C   0  0  0  0  0  0  0  0  0  0  0  0
  -27.3040  -27.3750   19.7260 C   0  0  0  0  0  0  0  0  0  0  0  0
  -23.4450  -30.3070   21.3900 C   0  0  0  0  0  3  0  0  0  0  0  0
  -24.8640  -28.8150   19.8790 C   0  0  0  0  0  0  0  0  0  0  0  0
  -25.9470  -30.7310   21.0690 C   0  0  0  0  0  2  0  0  0  0  0  0
  -26.0350  -29.3670   20.4100 C   0  0  0  0  0  0  0  0  0  0  0  0
  -27.2550  -28.6560   20.3230 C   0  0  0  0  0  3  0  0  0  0  0  0
  -26.1110  -26.8320   19.1970 C   0  0  0  0  0  3  0  0  0  0  0  0
  -24.8970  -27.5470   19.2700 C   0  0  0  0  0  3  0  0  0  0  0  0
  -23.6010  -29.6410   19.9970 C   0  0  0  0  0  2  0  0  0  0  0  0
  -24.7180  -30.9350   21.8740 N   0  0  0  0  0  0  0  0  0  0  0  0
  -23.6400  -31.9610   23.5850 O   0  0  0  0  0  0  0  0  0  0  0  0
  -22.8640  -29.2640   22.3720 C   0  0  0  0  0  0  0  0  0  0  0  0
  -21.5490  -29.0150   22.2700 N   0  0  0  0  0  0  0  0  0  0  0  0
  -23.5940  -28.6810   23.1780 O   0  0  0  0  0  0  0  0  0  0  0  0
  -21.0180  -29.5410   21.5900 H   0  0  0  0  0  0  0  0  0  0  0  0
  -18.2640  -27.5970   22.7810 C   0  0  0  0  0  0  0  0  0  0  0  0
  -20.7960  -28.0410   23.0600 C   0  0  0  0  0  3  0  0  0  0  0  0
  -21.0020  -26.6070   22.5180 C   0  0  0  0  0  2  0  0  0  0  0  0
  -19.9330  -26.1830   21.5060 C   0  0  0  0  0  2  0  0  0  0  0  0
  -18.5390  -26.2470   22.1390 C   0  0  0  0  0  2  0  0  0  0  0  0
  -19.3240  -28.4470   23.1970 C   0  0  0  0  0  0  0  0  0  0  0  0
  -19.0140  -29.7070   23.7520 C   0  0  0  0  0  3  0  0  0  0  0  0
  -17.6760  -30.1190   23.8990 C   0  0  0  0  0  3  0  0  0  0  0  0
  -16.6310  -29.2680   23.5000 C   0  0  0  0  0  3  0  0  0  0  0  0
  -16.9260  -28.0100   22.9460 C   0  0  0  0  0  3  0  0  0  0  0  0
  -25.9990  -32.3740   23.5540 C   0  0  0  0  0  3  0  0  0  0  0  0
  -26.6480  -31.5490   24.7320 C   0  0  1  0  0  0  0  0  0  0  0  0
  -25.6540  -31.1940   25.8640 C   0  0  0  0  0  1  0  0  0  0  0  0
  -27.2530  -30.2280   24.2040 C   0  0  0  0  0  1  0  0  0  0  0  0
  -27.8150  -32.3510   25.3550 C   0  0  0  0  0  1  0  0  0  0  0  0
  -25.6570  -33.7320   23.9980 N   0  0  0  0  0  0  0  0  0  0  0  0
  -25.9400  -34.8490   23.3140 C   0  0  0  0  0  0  0  0  0  0  0  0
  -26.5890  -34.8460   22.2650 O   0  0  0  0  0  0  0  0  0  0  0  0
  -25.0770  -33.8060   24.8200 H   0  0  0  0  0  0  0  0  0  0  0  0
  -24.1520  -36.6080   23.1310 C   0  0  0  0  0  1  0  0  0  0  0  0
  -25.4210  -36.1820   23.8870 C   0  0  0  0  0  3  0  0  0  0  0  0
  -27.5460  -37.0640   24.7420 C   0  0  0  0  0  1  0  0  0  0  0  0
  -26.4190  -37.2720   23.8370 N   0  0  0  0  0  0  0  0  0  0  0  0
  -25.9900  -38.1660   24.0660 H   0  0  0  0  0  0  0  0  0  0  0  0
  1 10  1  0
  2  4  1  0
  3  2  1  0
  5  8  1  0
  6  1  1  0
  6  3  1  0
  6  5  1  0
  8  4  1  0
  8  7  1  0
  8  9  1  6
 10 11  1  0
 10 13  1  0
 12 10  1  0
 14 19  1  0
 14 13  1  0
 15 19  1  0
 15 17  2  0
 16 18  2  0
 17 18  1  0
 18 28  1  0
 19 16  1  0
 20 28  1  0
 21 26  1  0
 22 23  1  0
 22 21  1  0
 24 23  1  0
 24 33  1  0
 24 25  1  0
 26 20  1  0
 26 25  1  0
 27 20  2  0
 28 29  1  0
 30 31  2  0
 31 32  1  0
 31 50  1  0
 32 35  1  0
 33 30  1  0
 33 34  1  0
 34 32  2  0
 35 36  1  0
 36 37  2  0
 38 41  1  0
 38 37  1  0
 39 38  2  0
 40 39  1  0
 40 35  2  0
 41 42  1  0
 42 43  1  0
 43 44  2  0
 45 44  1  0
 45 49  1  0
 46 45  2  0
 47 42  2  0
 47 46  1  0
 48 47  1  0
 50 51  1  0
 51 54  1  0
 51 53  1  0
 52 50  2  0
 55 30  1  0
 56 55  1  0
 57 55  1  0
 59 17  1  0
 59 58  1  0
 60 61  1  0
 61 59  1  0
 63 62  1  0
 63  1  1  0
 64 63  1  0
 65 67  1  0
 65 64  1  0
 66 77  2  0
 67 72  1  0
 68 76  1  0
 68 78  1  0
 69 75  1  0
 69 71  1  0
 70 76  1  0
 71 70  1  0
 72 71  2  0
 73 74  1  0
 73 67  2  0
 74 69  2  0
 75 68  1  0
 76 66  1  0
 78 80  2  0
 79 78  1  0
 81 79  1  0
 82 91  2  0
 82 87  1  0
 83 79  1  0
 83 87  1  0
 84 83  1  0
 85 86  1  0
 85 84  1  0
 86 82  1  0
 87 88  2  0
 88 89  1  0
 90 89  2  0
 91 90  1  0
 92 66  1  0
 92 97  1  0
 92 93  1  0
 93 96  1  1
 93 94  1  0
 95 93  1  0
 97100  1  0
 98102  1  0
 98 97  1  0
 99 98  2  0
102101  1  0
104102  1  0
104105  1  0
104103  1  0
M  ISO  4  20 100  28 100  64 101  65 101
M  END
>  <TORSDO>  (16) 
F 25

>  <SCORE>  (16) 
-6.459

>  <name>  (16) 
15

>  <ligand_id>  (16) 
15

>  <original_smiles>  (16) 
[H]c1c([H])c([H])c2c(c1[H])C([H])([H])C([H])([H])C([H])([H])C2([H])N([H])C(=O)C1([H])N(C(=O)C([H])(N([H])C(=O)C([H])(N([H])C([H])([H])[H])C([H])([H])[H])C(C([H])([H])[H])(C([H])([H])[H])C([H])([H])[H])C([H])([H])c2c([H])c(OC([H])([H])C([H])(C([H])([H])[H])C([H])(C3([H])C([H])([H])C([H])([H])C([H])([H])[N+]([H])(C([H])([H])[H])C3([H])[H])[N+]([H])([H])C([H])([H])C([H])([H])n3c([H])c(N([H])C(=O)N4C([H])([H])C([H])([H])C([H])([H])C([H])(n5nc(-c6c([H])c([H])c(Oc7c([H])c([H])c(F)c([H])c7F)c([H])c6[H])c(C(=O)N([H])[H])c5N([H])[H])C4([H])[H])c(C([H])(C([H])([H])[H])C([H])([H])C([H])([H])[H])c3[H])c([H])c([H])c2C1([H])[H]

>  <smiles>  (16) 
[H]c1c([H])c([H])c2c(c1[H])C([H])([H])C([H])([H])C([H])([H])C2([H])N([H])C(=O)C1([H])N(C(=O)C([H])(N([H])C(=O)C([H])(N([H])C([H])([H])[H])C([H])([H])[H])C(C([H])([H])[H])(C([H])([H])[H])C([H])([H])[H])C([H])([H])c2c([H])c(OC([H])([H])C([H])(C([H])([H])[H])C([H])(C3([H])C([H])([H])C([H])([H])C([H])([H])[N+]([H])(C([H])([H])[H])C3([H])[H])[N+]([H])([H])C([H])([H])C([H])([H])n3c([H])c(N([H])C(=O)N4C([H])([H])C([H])([H])C([H])([H])C([H])(n5nc(-c6c([H])c([H])c(Oc7c([H])c([H])c(F)c([H])c7F)c([H])c6[H])c(C(=O)N([H])[H])c5N([H])[H])C4([H])[H])c(C([H])(C([H])([H])[H])C([H])([H])C([H])([H])[H])c3[H])c([H])c([H])c2C1([H])[H]

$$$$
16:0:0
     RDKit          3D

 94102  0  0  1  0  0  0  0  0999 V2000
  -30.7460  -20.1190   21.2280 C   0  0  0  0  0  3  0  0  0  0  0  0
  -30.5720  -21.4770   21.1680 C   0  0  0  0  0  3  0  0  0  0  0  0
  -29.0200  -20.5200   19.8860 C   0  0  0  0  0  3  0  0  0  0  0  0
  -29.7630  -19.4820   20.4110 C   0  0  0  0  0  0  0  0  0  0  0  0
  -29.5000  -21.7510   20.3330 N   0  0  0  0  0  0  0  0  0  0  0  0
  -28.9550  -23.0710   19.9340 C   0  0  0  0  0  2  0  0  0  0  0  0
  -30.6980  -24.9160   20.4690 C   0  0  0  0  0  1  0  0  0  0  0  0
  -29.3320  -24.3030   20.8300 C   0  0  0  0  0  3  0  0  0  0  0  0
  -28.2200  -25.4010   20.9610 C   0  0  0  0  0  2  0  0  0  0  0  0
  -28.4020  -26.6450   20.2410 O   0  0  0  0  0  0  0  0  0  0  0  0
  -24.6040  -31.9140   23.2470 C   0  0  0  0  0  0  0  0  0  0  0  0
  -27.2660  -27.4350   20.2120 C   0  0  0  0  0  0  0  0  0  0  0  0
  -23.4120  -30.5000   21.6080 C   0  0  0  0  0  3  0  0  0  0  0  0
  -24.8750  -28.9570   20.1960 C   0  0  0  0  0  0  0  0  0  0  0  0
  -25.9420  -30.8560   21.4240 C   0  0  0  0  0  2  0  0  0  0  0  0
  -26.0340  -29.4810   20.7880 C   0  0  0  0  0  0  0  0  0  0  0  0
  -27.2340  -28.7290   20.7890 C   0  0  0  0  0  3  0  0  0  0  0  0
  -26.0940  -26.9410   19.6010 C   0  0  0  0  0  3  0  0  0  0  0  0
  -24.9030  -27.6880   19.5970 C   0  0  0  0  0  3  0  0  0  0  0  0
  -23.6300  -29.8130   20.2340 C   0  0  0  0  0  2  0  0  0  0  0  0
  -24.6710  -31.1060   22.1500 N   0  0  0  0  0  0  0  0  0  0  0  0
  -23.5180  -32.1860   23.7780 O   0  0  0  0  0  0  0  0  0  0  0  0
  -22.7570  -29.4830   22.5710 C   0  0  0  0  0  0  0  0  0  0  0  0
  -21.4330  -29.3000   22.4410 N   0  0  0  0  0  0  0  0  0  0  0  0
  -23.4370  -28.8610   23.3930 O   0  0  0  0  0  0  0  0  0  0  0  0
  -20.9440  -29.8520   21.7490 H   0  0  0  0  0  0  0  0  0  0  0  0
  -18.0550  -28.1170   22.9450 C   0  0  0  0  0  0  0  0  0  0  0  0
  -20.6130  -28.3670   23.2160 C   0  0  0  0  0  3  0  0  0  0  0  0
  -20.7100  -26.9350   22.6400 C   0  0  0  0  0  2  0  0  0  0  0  0
  -19.6050  -26.6140   21.6290 C   0  0  0  0  0  2  0  0  0  0  0  0
  -18.2250  -26.7650   22.2740 C   0  0  0  0  0  2  0  0  0  0  0  0
  -19.1760  -28.8760   23.3740 C   0  0  0  0  0  0  0  0  0  0  0  0
  -18.9610  -30.1410   23.9630 C   0  0  0  0  0  3  0  0  0  0  0  0
  -17.6580  -30.6470   24.1280 C   0  0  0  0  0  3  0  0  0  0  0  0
  -16.5510  -29.8840   23.7160 C   0  0  0  0  0  3  0  0  0  0  0  0
  -16.7510  -28.6220   23.1300 C   0  0  0  0  0  3  0  0  0  0  0  0
  -25.8830  -32.5520   23.8690 C   0  0  0  0  0  3  0  0  0  0  0  0
  -25.5690  -33.9520   24.1870 N   0  0  0  0  0  0  0  0  0  0  0  0
  -25.9100  -34.9990   23.4240 C   0  0  0  0  0  0  0  0  0  0  0  0
  -26.5920  -34.8900   22.4020 O   0  0  0  0  0  0  0  0  0  0  0  0
  -24.9620  -34.1100   24.9780 H   0  0  0  0  0  0  0  0  0  0  0  0
  -24.1880  -36.7920   23.0320 C   0  0  0  0  0  1  0  0  0  0  0  0
  -25.4150  -36.3900   23.8660 C   0  0  0  0  0  3  0  0  0  0  0  0
  -27.5370  -37.2770   24.7270 C   0  0  0  0  0  1  0  0  0  0  0  0
  -26.4510  -37.4420   23.7650 N   0  0  0  0  0  0  0  0  0  0  0  0
  -26.0430  -38.3630   23.9010 H   0  0  0  0  0  0  0  0  0  0  0  0
  -26.3970  -31.7910   25.1540 C   0  0  1  0  0  0  0  0  0  0  0  0
  -25.3000  -31.5580   26.2190 C   0  0  0  0  0  1  0  0  0  0  0  0
  -26.9860  -30.4130   24.7730 C   0  0  0  0  0  1  0  0  0  0  0  0
  -27.5430  -32.5940   25.8130 C   0  0  0  0  0  1  0  0  0  0  0  0
  -29.5630  -17.9780   20.1400 C   0  0  0  0  0  3  0  0  0  0  0  0
  -29.9540  -17.6910   18.7550 N   0  0  0  0  0  4  0  0  0  0  0  0
  -30.9400  -17.8360   18.6380 H   0  0  0  0  0  0  0  0  0  0  0  0
  -29.4680  -18.3120   18.1340 H   0  0  0  0  0  0  0  0  0  0  0  0
  -29.7300  -16.7470   18.5090 H   0  0  0  0  0  0  0  0  0  0  0  0
  -30.2740  -16.9910   21.1240 C   0  0  0  0  0  2  0  0  0  0  0  0
  -30.6230  -14.5410   20.4770 C   0  0  0  0  0  0  0  0  0  0  0  0
  -30.3460  -12.3740   19.3220 C   0  0  0  0  0  2  0  0  0  0  0  0
  -29.4040  -12.5770   18.1150 C   0  0  0  0  0  2  0  0  0  0  0  0
  -27.9290  -12.4290   18.5410 C   0  0  0  0  0  2  0  0  0  0  0  0
  -27.5860  -13.2610   19.8060 C   0  0  0  0  0  3  0  0  0  0  0  0
  -28.6400  -13.0440   20.9150 C   0  0  0  0  0  2  0  0  0  0  0  0
  -29.9640  -13.3560   20.3500 N   0  0  0  0  0  0  0  0  0  0  0  0
  -31.7570  -14.7330   20.0320 O   0  0  0  0  0  0  0  0  0  0  0  0
  -29.8850  -15.5670   20.9520 N   0  0  0  0  0  0  0  0  0  0  0  0
  -28.9590  -15.3150   21.2680 H   0  0  0  0  0  0  0  0  0  0  0  0
  -25.1850  -13.8700   20.5110 C   0  0  0  0  0  0  0  0  0  0  0  0
  -24.1170  -13.0980   20.8790 C   0  0  0  0  0  0  0  0  0  0  0  0
  -24.5780  -11.7470   20.8520 C   0  0  0  0  0  0  0  0  0  0  0  0
  -26.2320  -12.9880   20.2830 N   0  0  0  0  0  0  0  0  0  0  0  0
  -25.8690  -11.7070   20.5460 N   0  0  0  0  0  0  0  0  0  0  0  0
  -23.8530  -10.4850   21.0450 C   0  0  0  0  0  0  0  0  0  0  0  0
  -24.2860   -9.5190   21.9790 C   0  0  0  0  0  3  0  0  0  0  0  0
  -23.5620   -8.3200   22.1580 C   0  0  0  0  0  3  0  0  0  0  0  0
  -22.3890   -8.0810   21.4030 C   0  0  0  0  0  0  0  0  0  0  0  0
  -21.9760   -9.0350   20.4560 C   0  0  0  0  0  3  0  0  0  0  0  0
  -22.7010  -10.2250   20.2750 C   0  0  0  0  0  3  0  0  0  0  0  0
  -21.6370   -6.9350   21.4900 O   0  0  0  0  0  0  0  0  0  0  0  0
  -21.5910   -6.1900   22.6410 C   0  0  0  0  0  0  0  0  0  0  0  0
  -21.1650   -6.7420   23.8680 C   0  0  0  0  0  3  0  0  0  0  0  0
  -21.0640   -5.9230   25.0110 C   0  0  0  0  0  3  0  0  0  0  0  0
  -21.3810   -4.5550   24.9270 C   0  0  0  0  0  0  0  0  0  0  0  0
  -21.8000   -4.0030   23.7030 C   0  0  0  0  0  3  0  0  0  0  0  0
  -21.9010   -4.8180   22.5630 C   0  0  0  0  0  0  0  0  0  0  0  0
  -22.2860   -4.2760   21.3820 F   0  0  0  0  0  0  0  0  0  0  0  0
  -21.2780   -3.7660   26.0230 F   0  0  0  0  0  0  0  0  0  0  0  0
  -22.7180  -13.5760   21.1480 C   0  0  0  0  0  0  0  0  0  0  0  0
  -21.9850  -12.8800   22.0100 N   0  0  0  0  0  0  0  0  0  0  0  0
  -22.2820  -14.6030   20.6270 O   0  0  0  0  0  0  0  0  0  0  0  0
  -22.3510  -12.0520   22.4580 H   0  0  0  0  0  0  0  0  0  0  0  0
  -21.0470  -13.1830   22.2290 H   0  0  0  0  0  0  0  0  0  0  0  0
  -25.3480  -15.2390   20.3290 N   0  0  0  0  0  0  0  0  0  0  0  0
  -24.5740  -15.8880   20.4250 H   0  0  0  0  0  0  0  0  0  0  0  0
  -26.1890  -15.6780   19.9790 H   0  0  0  0  0  0  0  0  0  0  0  0
  2  1  2  0
  3  5  1  0
  3  4  2  0
  4  1  1  0
  5  2  1  0
  6  5  1  0
  6  8  1  0
  8  7  1  0
  8  9  1  0
 10  9  1  0
 11 22  2  0
 12 10  1  0
 12 17  1  0
 13 21  1  0
 13 23  1  0
 14 20  1  0
 14 16  1  0
 15 21  1  0
 16 17  2  0
 16 15  1  0
 18 12  2  0
 19 18  1  0
 19 14  2  0
 20 13  1  0
 21 11  1  0
 23 25  2  0
 24 23  1  0
 26 24  1  0
 27 36  2  0
 27 32  1  0
 28 24  1  0
 28 32  1  0
 29 28  1  0
 30 31  1  0
 30 29  1  0
 31 27  1  0
 32 33  2  0
 33 34  1  0
 35 34  2  0
 36 35  1  0
 37 11  1  0
 37 38  1  0
 37 47  1  0
 38 41  1  0
 39 43  1  0
 39 38  1  0
 40 39  2  0
 43 42  1  0
 45 43  1  0
 45 46  1  0
 45 44  1  0
 47 50  1  1
 47 48  1  0
 49 47  1  0
 51  4  1  0
 51 56  1  0
 52 51  1  0
 53 52  1  0
 54 52  1  0
 55 52  1  0
 57 65  1  0
 58 63  1  0
 59 60  1  0
 59 58  1  0
 61 60  1  0
 61 70  1  0
 61 62  1  0
 63 57  1  0
 63 62  1  0
 64 57  2  0
 65 56  1  0
 65 66  1  0
 67 68  2  0
 68 87  1  0
 69 68  1  0
 69 72  1  0
 70 67  1  0
 70 71  1  0
 71 69  2  0
 72 73  1  0
 73 74  2  0
 75 78  1  0
 75 74  1  0
 76 75  2  0
 77 76  1  0
 77 72  2  0
 78 79  1  0
 79 80  1  0
 80 81  2  0
 82 81  1  0
 82 86  1  0
 83 82  2  0
 84 79  2  0
 84 83  1  0
 85 84  1  0
 87 88  1  0
 88 91  1  0
 88 90  1  0
 89 87  2  0
 92 93  1  0
 92 67  1  0
 94 92  1  0
M  ISO  4   9 101  10 101  57 100  65 100
M  END
>  <TORSDO>  (17) 
F 22

>  <SCORE>  (17) 
-13.507

>  <name>  (17) 
16

>  <ligand_id>  (17) 
16

>  <original_smiles>  (17) 
[H]c1c([H])c([H])c2c(c1[H])C([H])([H])C([H])([H])C([H])([H])C2([H])N([H])C(=O)C1([H])N(C(=O)C([H])(N([H])C(=O)C([H])(N([H])C([H])([H])[H])C([H])([H])[H])C(C([H])([H])[H])(C([H])([H])[H])C([H])([H])[H])C([H])([H])c2c([H])c(OC([H])([H])C([H])(C([H])([H])[H])C([H])([H])n3c([H])c([H])c(C([H])(C([H])([H])N([H])C(=O)N4C([H])([H])C([H])([H])C([H])([H])C([H])(n5nc(-c6c([H])c([H])c(Oc7c([H])c([H])c(F)c([H])c7F)c([H])c6[H])c(C(=O)N([H])[H])c5N([H])[H])C4([H])[H])[N+]([H])([H])[H])c3[H])c([H])c([H])c2C1([H])[H]

>  <smiles>  (17) 
[H]c1c([H])c([H])c2c(c1[H])C([H])([H])C([H])([H])C([H])([H])C2([H])N([H])C(=O)C1([H])N(C(=O)C([H])(N([H])C(=O)C([H])(N([H])C([H])([H])[H])C([H])([H])[H])C(C([H])([H])[H])(C([H])([H])[H])C([H])([H])[H])C([H])([H])c2c([H])c(OC([H])([H])C([H])(C([H])([H])[H])C([H])([H])n3c([H])c([H])c(C([H])(C([H])([H])N([H])C(=O)N4C([H])([H])C([H])([H])C([H])([H])C([H])(n5nc(-c6c([H])c([H])c(Oc7c([H])c([H])c(F)c([H])c7F)c([H])c6[H])c(C(=O)N([H])[H])c5N([H])[H])C4([H])[H])[N+]([H])([H])[H])c3[H])c([H])c([H])c2C1([H])[H]

$$$$
17:0:0
     RDKit          3D

 90 98  0  0  1  0  0  0  0  0999 V2000
  -29.0860  -20.8760   20.3840 C   0  0  0  0  0  3  0  0  0  0  0  0
  -28.9380  -19.7610   18.0670 C   0  0  0  0  0  3  0  0  0  0  0  0
  -29.4870  -17.7210   18.3480 C   0  0  0  0  0  3  0  0  0  0  0  0
  -29.2070  -19.6400   19.4170 C   0  0  0  0  0  0  0  0  0  0  0  0
  -29.1150  -18.5610   17.3960 N   0  0  0  0  0  0  0  0  0  0  0  0
  -29.5660  -18.2300   19.5890 N   0  0  0  0  0  0  0  0  0  0  0  0
  -30.0480  -17.3510   20.7230 C   0  0  0  0  0  2  0  0  0  0  0  0
  -30.5690  -14.7530   20.4090 C   0  0  0  0  0  0  0  0  0  0  0  0
  -30.3830  -12.4860   19.3760 C   0  0  0  0  0  2  0  0  0  0  0  0
  -29.4440  -12.5800   18.1530 C   0  0  0  0  0  2  0  0  0  0  0  0
  -27.9720  -12.4080   18.5800 C   0  0  0  0  0  2  0  0  0  0  0  0
  -27.6000  -13.2880   19.8020 C   0  0  0  0  0  3  0  0  0  0  0  0
  -28.6550  -13.1760   20.9250 C   0  0  0  0  0  2  0  0  0  0  0  0
  -29.9550  -13.5260   20.3370 N   0  0  0  0  0  0  0  0  0  0  0  0
  -31.7570  -14.8820   20.1010 O   0  0  0  0  0  0  0  0  0  0  0  0
  -29.7570  -15.8510   20.6220 N   0  0  0  0  0  0  0  0  0  0  0  0
  -28.7920  -15.6080   20.7860 H   0  0  0  0  0  0  0  0  0  0  0  0
  -25.2090  -13.8880   20.5100 C   0  0  0  0  0  0  0  0  0  0  0  0
  -24.1420  -13.1160   20.8840 C   0  0  0  0  0  0  0  0  0  0  0  0
  -24.6060  -11.7650   20.8620 C   0  0  0  0  0  0  0  0  0  0  0  0
  -26.2540  -13.0050   20.2850 N   0  0  0  0  0  0  0  0  0  0  0  0
  -25.8970  -11.7250   20.5590 N   0  0  0  0  0  0  0  0  0  0  0  0
  -23.8790  -10.5030   21.0510 C   0  0  0  0  0  0  0  0  0  0  0  0
  -24.3140   -9.5360   21.9820 C   0  0  0  0  0  3  0  0  0  0  0  0
  -23.5880   -8.3390   22.1620 C   0  0  0  0  0  3  0  0  0  0  0  0
  -22.4130   -8.1010   21.4090 C   0  0  0  0  0  0  0  0  0  0  0  0
  -21.9970   -9.0580   20.4670 C   0  0  0  0  0  3  0  0  0  0  0  0
  -22.7230  -10.2470   20.2860 C   0  0  0  0  0  3  0  0  0  0  0  0
  -21.6570   -6.9570   21.4980 O   0  0  0  0  0  0  0  0  0  0  0  0
  -21.6190   -6.2090   22.6460 C   0  0  0  0  0  0  0  0  0  0  0  0
  -21.2070   -6.7590   23.8800 C   0  0  0  0  0  3  0  0  0  0  0  0
  -21.1160   -5.9360   25.0210 C   0  0  0  0  0  3  0  0  0  0  0  0
  -21.4230   -4.5650   24.9270 C   0  0  0  0  0  0  0  0  0  0  0  0
  -21.8260   -4.0150   23.6980 C   0  0  0  0  0  3  0  0  0  0  0  0
  -21.9210   -4.8350   22.5610 C   0  0  0  0  0  0  0  0  0  0  0  0
  -22.2890   -4.2970   21.3730 F   0  0  0  0  0  0  0  0  0  0  0  0
  -21.3270   -3.7740   26.0200 F   0  0  0  0  0  0  0  0  0  0  0  0
  -22.7440  -13.5950   21.1430 C   0  0  0  0  0  0  0  0  0  0  0  0
  -22.0100  -12.9030   22.0080 N   0  0  0  0  0  0  0  0  0  0  0  0
  -22.3090  -14.6170   20.6140 O   0  0  0  0  0  0  0  0  0  0  0  0
  -22.3770  -12.0770   22.4570 H   0  0  0  0  0  0  0  0  0  0  0  0
  -21.0710  -13.2040   22.2250 H   0  0  0  0  0  0  0  0  0  0  0  0
  -25.3710  -15.2560   20.3170 N   0  0  0  0  0  0  0  0  0  0  0  0
  -26.1970  -15.6850   19.9230 H   0  0  0  0  0  0  0  0  0  0  0  0
  -24.5920  -15.9000   20.3950 H   0  0  0  0  0  0  0  0  0  0  0  0
  -28.7750  -22.3330   19.7090 C   0  0  0  0  0  3  0  0  0  0  0  0
  -27.2450  -23.5730   21.3870 C   0  0  0  0  0  1  0  0  0  0  0  0
  -28.5130  -23.7100   20.5300 C   0  0  0  0  0  3  0  0  0  0  0  0
  -28.4220  -25.0850   19.6700 C   0  0  0  0  0  2  0  0  0  0  0  0
  -28.3360  -26.4540   20.2840 O   0  0  0  0  0  0  0  0  0  0  0  0
  -24.6040  -31.8990   23.2730 C   0  0  0  0  0  0  0  0  0  0  0  0
  -27.2050  -27.2990   20.2120 C   0  0  0  0  0  0  0  0  0  0  0  0
  -23.3990  -30.4960   21.6400 C   0  0  0  0  0  3  0  0  0  0  0  0
  -24.8430  -28.9410   20.2100 C   0  0  0  0  0  0  0  0  0  0  0  0
  -25.9390  -30.8070   21.4490 C   0  0  0  0  0  2  0  0  0  0  0  0
  -26.0150  -29.4230   20.8040 C   0  0  0  0  0  0  0  0  0  0  0  0
  -27.1950  -28.6130   20.7940 C   0  0  0  0  0  3  0  0  0  0  0  0
  -26.0010  -26.8770   19.6030 C   0  0  0  0  0  3  0  0  0  0  0  0
  -24.8410  -27.6780   19.5990 C   0  0  0  0  0  3  0  0  0  0  0  0
  -23.6060  -29.8150   20.2620 C   0  0  0  0  0  2  0  0  0  0  0  0
  -24.6680  -31.0860   22.1770 N   0  0  0  0  0  0  0  0  0  0  0  0
  -23.5200  -32.1780   23.8080 O   0  0  0  0  0  0  0  0  0  0  0  0
  -22.7350  -29.4850   22.6070 C   0  0  0  0  0  0  0  0  0  0  0  0
  -21.4100  -29.3010   22.4760 N   0  0  0  0  0  0  0  0  0  0  0  0
  -23.4140  -28.8660   23.4310 O   0  0  0  0  0  0  0  0  0  0  0  0
  -20.9240  -29.8520   21.7820 H   0  0  0  0  0  0  0  0  0  0  0  0
  -18.0380  -28.0790   22.9610 C   0  0  0  0  0  0  0  0  0  0  0  0
  -20.5920  -28.3640   23.2490 C   0  0  0  0  0  3  0  0  0  0  0  0
  -20.7120  -26.9290   22.6870 C   0  0  0  0  0  2  0  0  0  0  0  0
  -19.6210  -26.5870   21.6670 C   0  0  0  0  0  2  0  0  0  0  0  0
  -18.2330  -26.7250   22.2990 C   0  0  0  0  0  2  0  0  0  0  0  0
  -19.1470  -28.8550   23.3930 C   0  0  0  0  0  0  0  0  0  0  0  0
  -18.9120  -30.1200   23.9740 C   0  0  0  0  0  3  0  0  0  0  0  0
  -17.6020  -30.6100   24.1260 C   0  0  0  0  0  3  0  0  0  0  0  0
  -16.5070  -29.8330   23.7090 C   0  0  0  0  0  3  0  0  0  0  0  0
  -16.7260  -28.5690   23.1340 C   0  0  0  0  0  3  0  0  0  0  0  0
  -25.8860  -32.5330   23.8940 C   0  0  0  0  0  3  0  0  0  0  0  0
  -25.5780  -33.9350   24.2150 N   0  0  0  0  0  0  0  0  0  0  0  0
  -25.9120  -34.9820   23.4510 C   0  0  0  0  0  0  0  0  0  0  0  0
  -26.5800  -34.8690   22.4200 O   0  0  0  0  0  0  0  0  0  0  0  0
  -24.9780  -34.0950   25.0120 H   0  0  0  0  0  0  0  0  0  0  0  0
  -24.1860  -36.7780   23.0920 C   0  0  0  0  0  1  0  0  0  0  0  0
  -25.4310  -36.3760   23.8990 C   0  0  0  0  0  3  0  0  0  0  0  0
  -27.5730  -37.2630   24.7100 C   0  0  0  0  0  1  0  0  0  0  0  0
  -26.4660  -37.4260   23.7710 N   0  0  0  0  0  0  0  0  0  0  0  0
  -26.0650  -38.3490   23.9090 H   0  0  0  0  0  0  0  0  0  0  0  0
  -26.3960  -31.7710   25.1800 C   0  0  1  0  0  0  0  0  0  0  0  0
  -25.2960  -31.5510   26.2460 C   0  0  0  0  0  1  0  0  0  0  0  0
  -26.9710  -30.3870   24.8040 C   0  0  0  0  0  1  0  0  0  0  0  0
  -27.5520  -32.5640   25.8330 C   0  0  0  0  0  1  0  0  0  0  0  0
  2  4  2  0
  3  6  1  0
  4  6  1  0
  4  1  1  0
  5  2  1  0
  5  3  2  0
  6  7  1  0
  8 16  1  0
  9 14  1  0
 10 11  1  0
 10  9  1  0
 12 11  1  0
 12 21  1  0
 12 13  1  0
 14  8  1  0
 14 13  1  0
 15  8  2  0
 16  7  1  0
 16 17  1  0
 18 19  2  0
 19 38  1  0
 20 19  1  0
 20 23  1  0
 21 18  1  0
 21 22  1  0
 22 20  2  0
 23 24  1  0
 24 25  2  0
 26 29  1  0
 26 25  1  0
 27 26  2  0
 28 27  1  0
 28 23  2  0
 29 30  1  0
 30 31  1  0
 31 32  2  0
 33 32  1  0
 33 37  1  0
 34 33  2  0
 35 30  2  0
 35 34  1  0
 36 35  1  0
 38 39  1  0
 39 42  1  0
 39 41  1  0
 40 38  2  0
 43 45  1  0
 43 18  1  0
 44 43  1  0
 46  1  2  0
 46 48  1  0
 48 47  1  0
 49 50  1  0
 49 48  1  0
 51 62  2  0
 52 50  1  0
 52 57  1  0
 53 61  1  0
 53 63  1  0
 54 60  1  0
 54 56  1  0
 55 61  1  0
 56 55  1  0
 57 56  2  0
 58 52  2  0
 59 58  1  0
 59 54  2  0
 60 53  1  0
 61 51  1  0
 63 65  2  0
 64 63  1  0
 66 64  1  0
 67 76  2  0
 67 72  1  0
 68 64  1  0
 68 72  1  0
 69 68  1  0
 70 71  1  0
 70 69  1  0
 71 67  1  0
 72 73  2  0
 73 74  1  0
 75 74  2  0
 76 75  1  0
 77 51  1  0
 77 78  1  0
 77 87  1  0
 78 81  1  0
 79 83  1  0
 79 78  1  0
 80 79  2  0
 83 82  1  0
 85 83  1  0
 85 86  1  0
 85 84  1  0
 87 90  1  1
 87 88  1  0
 89 87  1  0
M  ISO  4   8 100  16 100  49 101  50 101
M  END
>  <TORSDO>  (18) 
F 21

>  <SCORE>  (18) 
-13.443

>  <name>  (18) 
17

>  <ligand_id>  (18) 
17

>  <original_smiles>  (18) 
[H]c1nc([H])n(C([H])([H])N([H])C(=O)N2C([H])([H])C([H])([H])C([H])([H])C([H])(n3nc(-c4c([H])c([H])c(Oc5c([H])c([H])c(F)c([H])c5F)c([H])c4[H])c(C(=O)N([H])[H])c3N([H])[H])C2([H])[H])c1C([H])([H])C([H])([H])C([H])(C([H])([H])[H])C([H])([H])Oc1c([H])c([H])c2c(c1[H])C([H])([H])N(C(=O)C([H])(N([H])C(=O)C([H])(N([H])C([H])([H])[H])C([H])([H])[H])C(C([H])([H])[H])(C([H])([H])[H])C([H])([H])[H])C([H])(C(=O)N([H])C1([H])c3c([H])c([H])c([H])c([H])c3C([H])([H])C([H])([H])C1([H])[H])C2([H])[H]

>  <smiles>  (18) 
[H]c1nc([H])n(C([H])([H])N([H])C(=O)N2C([H])([H])C([H])([H])C([H])([H])C([H])(n3nc(-c4c([H])c([H])c(Oc5c([H])c([H])c(F)c([H])c5F)c([H])c4[H])c(C(=O)N([H])[H])c3N([H])[H])C2([H])[H])c1C([H])([H])C([H])([H])C([H])(C([H])([H])[H])C([H])([H])Oc1c([H])c([H])c2c(c1[H])C([H])([H])N(C(=O)C([H])(N([H])C(=O)C([H])(N([H])C([H])([H])[H])C([H])([H])[H])C(C([H])([H])[H])(C([H])([H])[H])C([H])([H])[H])C([H])(C(=O)N([H])C1([H])c3c([H])c([H])c([H])c([H])c3C([H])([H])C([H])([H])C1([H])[H])C2([H])[H]

$$$$
18:0:0
     RDKit          3D

 87 94  0  0  1  0  0  0  0  0999 V2000
  -28.9520  -23.3280   20.0010 C   0  0  0  0  0  2  0  0  0  0  0  0
  -29.0440  -21.7650   20.6540 C   0  0  0  0  0  0  0  0  0  0  0  0
  -28.7820  -21.7510   22.1500 C   0  0  0  0  0  1  0  0  0  0  0  0
  -29.3520  -20.5810   20.0550 N   0  0  0  0  0  0  0  0  0  0  0  0
  -29.3250  -19.1220   20.6950 C   0  0  0  0  0  3  0  0  0  0  0  0
  -30.1390  -17.7850   20.0420 C   0  0  0  0  0  3  0  0  0  0  0  0
  -30.6110  -15.0620   20.1700 C   0  0  0  0  0  0  0  0  0  0  0  0
  -30.4730  -12.7140   19.2170 C   0  0  0  0  0  2  0  0  0  0  0  0
  -29.5300  -12.6820   17.9910 C   0  0  0  0  0  2  0  0  0  0  0  0
  -28.0750  -12.4580   18.4390 C   0  0  0  0  0  2  0  0  0  0  0  0
  -27.6780  -13.3740   19.6260 C   0  0  0  0  0  3  0  0  0  0  0  0
  -28.7440  -13.3860   20.7450 C   0  0  0  0  0  2  0  0  0  0  0  0
  -30.0090  -13.8030   20.1280 N   0  0  0  0  0  0  0  0  0  0  0  0
  -31.7980  -15.1250   19.8320 O   0  0  0  0  0  0  0  0  0  0  0  0
  -29.8570  -16.2550   20.3770 N   0  0  0  0  0  0  0  0  0  0  0  0
  -28.9070  -16.0730   20.6670 H   0  0  0  0  0  0  0  0  0  0  0  0
  -25.2970  -13.9340   20.3730 C   0  0  0  0  0  0  0  0  0  0  0  0
  -24.2430  -13.1520   20.7560 C   0  0  0  0  0  0  0  0  0  0  0  0
  -24.7210  -11.8050   20.7360 C   0  0  0  0  0  0  0  0  0  0  0  0
  -26.3470  -13.0640   20.1350 N   0  0  0  0  0  0  0  0  0  0  0  0
  -26.0110  -11.7790   20.4190 N   0  0  0  0  0  0  0  0  0  0  0  0
  -24.0070  -10.5380   20.9400 C   0  0  0  0  0  0  0  0  0  0  0  0
  -24.4400   -9.5920   21.8960 C   0  0  0  0  0  3  0  0  0  0  0  0
  -23.7240   -8.3910   22.0880 C   0  0  0  0  0  3  0  0  0  0  0  0
  -22.5610   -8.1270   21.3250 C   0  0  0  0  0  0  0  0  0  0  0  0
  -22.1490   -9.0620   20.3590 C   0  0  0  0  0  3  0  0  0  0  0  0
  -22.8660  -10.2540   20.1650 C   0  0  0  0  0  3  0  0  0  0  0  0
  -21.8170   -6.9760   21.4250 O   0  0  0  0  0  0  0  0  0  0  0  0
  -21.7520   -6.2610   22.5940 C   0  0  0  0  0  0  0  0  0  0  0  0
  -21.2740   -6.8350   23.7930 C   0  0  0  0  0  3  0  0  0  0  0  0
  -21.1580   -6.0450   24.9540 C   0  0  0  0  0  3  0  0  0  0  0  0
  -21.5080   -4.6820   24.9170 C   0  0  0  0  0  0  0  0  0  0  0  0
  -21.9790   -4.1080   23.7230 C   0  0  0  0  0  3  0  0  0  0  0  0
  -22.0970   -4.8950   22.5640 C   0  0  0  0  0  0  0  0  0  0  0  0
  -22.5310   -4.3310   21.4110 F   0  0  0  0  0  0  0  0  0  0  0  0
  -21.3890   -3.9210   26.0300 F   0  0  0  0  0  0  0  0  0  0  0  0
  -22.8430  -13.6180   21.0300 C   0  0  0  0  0  0  0  0  0  0  0  0
  -22.1250  -12.9220   21.9030 N   0  0  0  0  0  0  0  0  0  0  0  0
  -22.3950  -14.6360   20.5040 O   0  0  0  0  0  0  0  0  0  0  0  0
  -22.5010  -12.0980   22.3480 H   0  0  0  0  0  0  0  0  0  0  0  0
  -21.1860  -13.2180   22.1310 H   0  0  0  0  0  0  0  0  0  0  0  0
  -25.4450  -15.3050   20.1790 N   0  0  0  0  0  0  0  0  0  0  0  0
  -24.6650  -15.9470   20.2750 H   0  0  0  0  0  0  0  0  0  0  0  0
  -26.2760  -15.7440   19.8060 H   0  0  0  0  0  0  0  0  0  0  0  0
  -26.7020  -24.3160   20.9440 C   0  0  0  0  0  1  0  0  0  0  0  0
  -28.1690  -24.6960   20.6580 C   0  0  0  0  0  3  0  0  0  0  0  0
  -28.3090  -26.2050   20.2030 O   0  0  0  0  0  0  0  0  0  0  0  0
  -24.6370  -31.8890   23.2280 C   0  0  0  0  0  0  0  0  0  0  0  0
  -27.2460  -27.1920   20.1890 C   0  0  0  0  0  0  0  0  0  0  0  0
  -23.4480  -30.4890   21.5830 C   0  0  0  0  0  3  0  0  0  0  0  0
  -24.9100  -28.9340   20.1490 C   0  0  0  0  0  0  0  0  0  0  0  0
  -25.9990  -30.7710   21.4230 C   0  0  0  0  0  2  0  0  0  0  0  0
  -26.0830  -29.3780   20.7720 C   0  0  0  0  0  0  0  0  0  0  0  0
  -27.2510  -28.5230   20.7810 C   0  0  0  0  0  3  0  0  0  0  0  0
  -26.0640  -26.8810   19.4820 C   0  0  0  0  0  3  0  0  0  0  0  0
  -24.9150  -27.6990   19.4860 C   0  0  0  0  0  3  0  0  0  0  0  0
  -23.6740  -29.8200   20.2000 C   0  0  0  0  0  2  0  0  0  0  0  0
  -24.7150  -31.0720   22.1330 N   0  0  0  0  0  0  0  0  0  0  0  0
  -23.5490  -32.1630   23.7570 O   0  0  0  0  0  0  0  0  0  0  0  0
  -22.7790  -29.4730   22.5420 C   0  0  0  0  0  0  0  0  0  0  0  0
  -21.4510  -29.2970   22.4230 N   0  0  0  0  0  0  0  0  0  0  0  0
  -23.4570  -28.8440   23.3590 O   0  0  0  0  0  0  0  0  0  0  0  0
  -20.9580  -29.8590   21.7420 H   0  0  0  0  0  0  0  0  0  0  0  0
  -18.0790  -28.0730   22.9300 C   0  0  0  0  0  0  0  0  0  0  0  0
  -20.6370  -28.3510   23.1910 C   0  0  0  0  0  3  0  0  0  0  0  0
  -20.7460  -26.9230   22.6110 C   0  0  0  0  0  2  0  0  0  0  0  0
  -19.6440  -26.5950   21.5990 C   0  0  0  0  0  2  0  0  0  0  0  0
  -18.2630  -26.7270   22.2470 C   0  0  0  0  0  2  0  0  0  0  0  0
  -19.1930  -28.8410   23.3590 C   0  0  0  0  0  0  0  0  0  0  0  0
  -18.9670  -30.0980   23.9600 C   0  0  0  0  0  3  0  0  0  0  0  0
  -17.6590  -30.5870   24.1370 C   0  0  0  0  0  3  0  0  0  0  0  0
  -16.5590  -29.8160   23.7210 C   0  0  0  0  0  3  0  0  0  0  0  0
  -16.7700  -28.5610   23.1250 C   0  0  0  0  0  3  0  0  0  0  0  0
  -25.9110  -32.5330   23.8550 C   0  0  0  0  0  3  0  0  0  0  0  0
  -26.4170  -31.7760   25.1450 C   0  0  1  0  0  0  0  0  0  0  0  0
  -25.3150  -31.5480   26.2050 C   0  0  0  0  0  1  0  0  0  0  0  0
  -27.0070  -30.3940   24.7770 C   0  0  0  0  0  1  0  0  0  0  0  0
  -27.5600  -32.5790   25.8070 C   0  0  0  0  0  1  0  0  0  0  0  0
  -25.5920  -33.9330   24.1760 N   0  0  0  0  0  0  0  0  0  0  0  0
  -25.9200  -34.9860   23.4150 C   0  0  0  0  0  0  0  0  0  0  0  0
  -26.5900  -34.8810   22.3830 O   0  0  0  0  0  0  0  0  0  0  0  0
  -24.9960  -34.0870   24.9760 H   0  0  0  0  0  0  0  0  0  0  0  0
  -24.1870  -36.7770   23.0610 C   0  0  0  0  0  1  0  0  0  0  0  0
  -25.4310  -36.3750   23.8690 C   0  0  0  0  0  3  0  0  0  0  0  0
  -27.5630  -37.2750   24.6930 C   0  0  0  0  0  1  0  0  0  0  0  0
  -26.4600  -37.4310   23.7500 N   0  0  0  0  0  0  0  0  0  0  0  0
  -26.0500  -38.3510   23.8910 H   0  0  0  0  0  0  0  0  0  0  0  0
  1  2  1  0
  1 46  1  0
  2  3  1  0
  4  2  2  0
  4  5  1  0
  6 15  1  0
  6  5  2  0
  7 15  1  0
  8 13  1  0
  9 10  1  0
  9  8  1  0
 11 10  1  0
 11 20  1  0
 11 12  1  0
 13  7  1  0
 13 12  1  0
 14  7  2  0
 15 16  1  0
 17 18  2  0
 18 37  1  0
 19 18  1  0
 19 22  1  0
 20 17  1  0
 20 21  1  0
 21 19  2  0
 22 23  1  0
 23 24  2  0
 25 28  1  0
 25 24  1  0
 26 25  2  0
 27 26  1  0
 27 22  2  0
 28 29  1  0
 29 30  1  0
 30 31  2  0
 32 31  1  0
 32 36  1  0
 33 32  2  0
 34 29  2  0
 34 33  1  0
 35 34  1  0
 37 38  1  0
 38 41  1  0
 38 40  1  0
 39 37  2  0
 42 43  1  0
 42 17  1  0
 44 42  1  0
 46 45  1  0
 47 46  1  0
 48 59  2  0
 49 47  1  0
 49 54  1  0
 50 58  1  0
 50 60  1  0
 51 57  1  0
 51 53  1  0
 52 58  1  0
 53 54  2  0
 53 52  1  0
 55 56  1  0
 55 49  2  0
 56 51  2  0
 57 50  1  0
 58 48  1  0
 60 62  2  0
 61 60  1  0
 63 61  1  0
 64 73  2  0
 64 69  1  0
 65 61  1  0
 65 69  1  0
 66 65  1  0
 67 68  1  0
 67 66  1  0
 68 64  1  0
 69 70  2  0
 70 71  1  0
 72 71  2  0
 73 72  1  0
 74 48  1  0
 74 79  1  0
 74 75  1  0
 75 78  1  1
 75 76  1  0
 77 75  1  0
 79 82  1  0
 80 84  1  0
 80 79  1  0
 81 80  2  0
 84 83  1  0
 86 84  1  0
 86 87  1  0
 86 85  1  0
M  ISO  4   7 100  15 100  46 101  47 101
M  END
>  <TORSDO>  (19) 
F 20

>  <SCORE>  (19) 
-15.235

>  <name>  (19) 
18

>  <ligand_id>  (19) 
18

>  <original_smiles>  (19) 
[H]c1c([H])c([H])c2c(c1[H])C([H])([H])C([H])([H])C([H])([H])C2([H])N([H])C(=O)C1([H])N(C(=O)C([H])(N([H])C(=O)C([H])(N([H])C([H])([H])[H])C([H])([H])[H])C(C([H])([H])[H])(C([H])([H])[H])C([H])([H])[H])C([H])([H])c2c([H])c(OC([H])(C([H])([H])[H])C([H])([H])C(=NC([H])([H])C([H])([H])N([H])C(=O)N3C([H])([H])C([H])([H])C([H])([H])C([H])(n4nc(-c5c([H])c([H])c(Oc6c([H])c([H])c(F)c([H])c6F)c([H])c5[H])c(C(=O)N([H])[H])c4N([H])[H])C3([H])[H])C([H])([H])[H])c([H])c([H])c2C1([H])[H]

>  <smiles>  (19) 
[H]c1c([H])c([H])c2c(c1[H])C([H])([H])C([H])([H])C([H])([H])C2([H])N([H])C(=O)C1([H])N(C(=O)C([H])(N([H])C(=O)C([H])(N([H])C([H])([H])[H])C([H])([H])[H])C(C([H])([H])[H])(C([H])([H])[H])C([H])([H])[H])C([H])([H])c2c([H])c(OC([H])(C([H])([H])[H])C([H])([H])C(=NC([H])([H])C([H])([H])N([H])C(=O)N3C([H])([H])C([H])([H])C([H])([H])C([H])(n4nc(-c5c([H])c([H])c(Oc6c([H])c([H])c(F)c([H])c6F)c([H])c5[H])c(C(=O)N([H])[H])c4N([H])[H])C3([H])[H])C([H])([H])[H])c([H])c([H])c2C1([H])[H]

$$$$
19:0:0
     RDKit          3D

 96104  0  0  1  0  0  0  0  0999 V2000
  -28.4220  -20.9620   20.4470 C   0  0  0  0  0  3  0  0  0  0  0  0
  -30.1960  -22.1570   20.9310 C   0  0  0  0  0  3  0  0  0  0  0  0
  -28.8770  -22.3350   20.6350 C   0  0  0  0  0  0  0  0  0  0  0  0
  -29.3950  -20.0020   20.7520 C   0  0  0  0  0  0  0  0  0  0  0  0
  -30.4840  -20.8030   21.1480 N   0  0  0  0  0  0  0  0  0  0  0  0
  -32.7410  -21.4640   22.0910 C   0  0  0  0  0  1  0  0  0  0  0  0
  -31.7180  -20.3580   21.7850 C   0  0  0  0  0  2  0  0  0  0  0  0
  -29.2600  -18.4020   20.8870 C   0  0  0  0  0  2  0  0  0  0  0  0
  -31.4280  -17.1770   21.6320 C   0  0  0  0  0  1  0  0  0  0  0  0
  -31.0110  -17.7090   19.1660 C   0  0  0  0  0  1  0  0  0  0  0  0
  -30.3700  -17.2550   20.4970 C   0  0  2  0  0  0  0  0  0  0  0  0
  -30.5650  -14.6350   20.0040 C   0  0  0  0  0  0  0  0  0  0  0  0
  -30.2660  -12.3850   18.9490 C   0  0  0  0  0  2  0  0  0  0  0  0
  -29.2520  -12.4520   17.7850 C   0  0  0  0  0  2  0  0  0  0  0  0
  -27.8170  -12.2620   18.3130 C   0  0  0  0  0  2  0  0  0  0  0  0
  -27.5170  -13.1480   19.5520 C   0  0  0  0  0  3  0  0  0  0  0  0
  -28.6440  -13.0700   20.6040 C   0  0  0  0  0  2  0  0  0  0  0  0
  -29.8950  -13.4340   19.9280 N   0  0  0  0  0  0  0  0  0  0  0  0
  -31.7310  -14.6900   19.6070 O   0  0  0  0  0  0  0  0  0  0  0  0
  -29.8760  -15.7960   20.3570 N   0  0  0  0  0  0  0  0  0  0  0  0
  -28.9040  -15.6430   20.5860 H   0  0  0  0  0  0  0  0  0  0  0  0
  -25.1890  -13.7180   20.4620 C   0  0  0  0  0  0  0  0  0  0  0  0
  -24.1500  -12.9360   20.8820 C   0  0  0  0  0  0  0  0  0  0  0  0
  -24.6050  -11.5850   20.7800 C   0  0  0  0  0  0  0  0  0  0  0  0
  -26.2100  -12.8460   20.1270 N   0  0  0  0  0  0  0  0  0  0  0  0
  -25.8710  -11.5550   20.3820 N   0  0  0  0  0  0  0  0  0  0  0  0
  -23.8890  -10.3190   20.9830 C   0  0  0  0  0  0  0  0  0  0  0  0
  -24.3420   -9.3540   21.9100 C   0  0  0  0  0  3  0  0  0  0  0  0
  -23.6240   -8.1530   22.0990 C   0  0  0  0  0  3  0  0  0  0  0  0
  -22.4410   -7.9090   21.3620 C   0  0  0  0  0  0  0  0  0  0  0  0
  -22.0070   -8.8630   20.4250 C   0  0  0  0  0  3  0  0  0  0  0  0
  -22.7240  -10.0550   20.2340 C   0  0  0  0  0  3  0  0  0  0  0  0
  -21.6940   -6.7600   21.4630 O   0  0  0  0  0  0  0  0  0  0  0  0
  -21.6480   -6.0310   22.6250 C   0  0  0  0  0  0  0  0  0  0  0  0
  -21.1640   -6.5830   23.8310 C   0  0  0  0  0  3  0  0  0  0  0  0
  -21.0680   -5.7790   24.9840 C   0  0  0  0  0  3  0  0  0  0  0  0
  -21.4440   -4.4230   24.9310 C   0  0  0  0  0  0  0  0  0  0  0  0
  -21.9200   -3.8710   23.7300 C   0  0  0  0  0  3  0  0  0  0  0  0
  -22.0180   -4.6720   22.5790 C   0  0  0  0  0  0  0  0  0  0  0  0
  -22.4570   -4.1300   21.4180 F   0  0  0  0  0  0  0  0  0  0  0  0
  -21.3450   -3.6480   26.0370 F   0  0  0  0  0  0  0  0  0  0  0  0
  -22.7760  -13.4090   21.2610 C   0  0  0  0  0  0  0  0  0  0  0  0
  -22.1030  -12.6850   22.1490 N   0  0  0  0  0  0  0  0  0  0  0  0
  -22.3090  -14.4510   20.8040 O   0  0  0  0  0  0  0  0  0  0  0  0
  -22.4950  -11.8420   22.5420 H   0  0  0  0  0  0  0  0  0  0  0  0
  -21.1820  -12.9810   22.4430 H   0  0  0  0  0  0  0  0  0  0  0  0
  -25.3440  -15.0930   20.3090 N   0  0  0  0  0  0  0  0  0  0  0  0
  -24.5810  -15.7400   20.4780 H   0  0  0  0  0  0  0  0  0  0  0  0
  -26.1520  -15.5350   19.8900 H   0  0  0  0  0  0  0  0  0  0  0  0
  -28.0840  -23.7180   20.7130 C   0  0  0  0  0  3  0  0  0  0  0  0
  -28.0280  -24.0790   22.1370 N   0  0  0  0  0  4  0  0  0  0  0  0
  -28.8740  -24.5470   22.4110 H   0  0  0  0  0  0  0  0  0  0  0  0
  -27.9330  -23.2440   22.6870 H   0  0  0  0  0  0  0  0  0  0  0  0
  -27.2510  -24.6890   22.3240 H   0  0  0  0  0  0  0  0  0  0  0  0
  -28.5120  -25.0240   19.8610 C   0  0  0  0  0  2  0  0  0  0  0  0
  -28.3550  -26.4190   20.3880 O   0  0  0  0  0  0  0  0  0  0  0  0
  -24.5420  -31.8480   23.2240 C   0  0  0  0  0  0  0  0  0  0  0  0
  -27.2110  -27.2300   20.2690 C   0  0  0  0  0  0  0  0  0  0  0  0
  -23.3690  -30.4190   21.5890 C   0  0  0  0  0  3  0  0  0  0  0  0
  -24.8420  -28.8430   20.2050 C   0  0  0  0  0  0  0  0  0  0  0  0
  -25.9080  -30.7430   21.4310 C   0  0  0  0  0  2  0  0  0  0  0  0
  -25.9990  -29.3480   20.8100 C   0  0  0  0  0  0  0  0  0  0  0  0
  -27.1810  -28.5520   20.8260 C   0  0  0  0  0  3  0  0  0  0  0  0
  -26.0290  -26.7750   19.6450 C   0  0  0  0  0  3  0  0  0  0  0  0
  -24.8600  -27.5670   19.6180 C   0  0  0  0  0  3  0  0  0  0  0  0
  -23.6010  -29.7140   20.2260 C   0  0  0  0  0  2  0  0  0  0  0  0
  -24.6250  -31.0210   22.1390 N   0  0  0  0  0  0  0  0  0  0  0  0
  -23.4490  -32.1290   23.7370 O   0  0  0  0  0  0  0  0  0  0  0  0
  -22.6950  -29.4200   22.5550 C   0  0  0  0  0  0  0  0  0  0  0  0
  -21.3740  -29.2330   22.4100 N   0  0  0  0  0  0  0  0  0  0  0  0
  -23.3610  -28.8130   23.3960 O   0  0  0  0  0  0  0  0  0  0  0  0
  -20.8950  -29.7650   21.6990 H   0  0  0  0  0  0  0  0  0  0  0  0
  -17.9950  -28.0430   22.8990 C   0  0  0  0  0  0  0  0  0  0  0  0
  -20.5510  -28.3010   23.1810 C   0  0  0  0  0  3  0  0  0  0  0  0
  -20.6550  -26.8660   22.6140 C   0  0  0  0  0  2  0  0  0  0  0  0
  -19.5580  -26.5370   21.5960 C   0  0  0  0  0  2  0  0  0  0  0  0
  -18.1740  -26.6890   22.2320 C   0  0  0  0  0  2  0  0  0  0  0  0
  -19.1110  -28.8070   23.3300 C   0  0  0  0  0  0  0  0  0  0  0  0
  -18.8900  -30.0740   23.9120 C   0  0  0  0  0  3  0  0  0  0  0  0
  -17.5850  -30.5760   24.0690 C   0  0  0  0  0  3  0  0  0  0  0  0
  -16.4830  -29.8090   23.6540 C   0  0  0  0  0  3  0  0  0  0  0  0
  -16.6880  -28.5440   23.0750 C   0  0  0  0  0  3  0  0  0  0  0  0
  -25.8110  -32.5000   23.8550 C   0  0  0  0  0  3  0  0  0  0  0  0
  -25.4860  -33.9000   24.1630 N   0  0  0  0  0  0  0  0  0  0  0  0
  -25.8270  -34.9480   23.4010 C   0  0  0  0  0  0  0  0  0  0  0  0
  -26.5170  -34.8380   22.3840 O   0  0  0  0  0  0  0  0  0  0  0  0
  -24.8750  -34.0620   24.9510 H   0  0  0  0  0  0  0  0  0  0  0  0
  -24.1080  -36.7390   22.9860 C   0  0  0  0  0  1  0  0  0  0  0  0
  -25.3260  -36.3380   23.8360 C   0  0  0  0  0  3  0  0  0  0  0  0
  -27.4280  -37.2400   24.7290 C   0  0  0  0  0  1  0  0  0  0  0  0
  -26.3580  -37.3930   23.7460 N   0  0  0  0  0  0  0  0  0  0  0  0
  -25.9440  -38.3130   23.8710 H   0  0  0  0  0  0  0  0  0  0  0  0
  -26.3150  -31.7530   25.1520 C   0  0  1  0  0  0  0  0  0  0  0  0
  -25.2090  -31.5190   26.2070 C   0  0  0  0  0  1  0  0  0  0  0  0
  -26.9200  -30.3770   24.7890 C   0  0  0  0  0  1  0  0  0  0  0  0
  -27.4460  -32.5710   25.8230 C   0  0  0  0  0  1  0  0  0  0  0  0
  1  3  1  0
  1  4  2  0
  2  5  1  0
  3 50  1  0
  3  2  2  0
  4  8  1  0
  4  5  1  0
  5  7  1  0
  7  6  1  0
 11 10  1  6
 11  8  1  0
 11  9  1  0
 12 20  1  0
 13 18  1  0
 14 15  1  0
 14 13  1  0
 16 15  1  0
 16 25  1  0
 16 17  1  0
 18 12  1  0
 18 17  1  0
 19 12  2  0
 20 11  1  0
 20 21  1  0
 22 23  2  0
 23 42  1  0
 24 23  1  0
 24 27  1  0
 25 26  1  0
 25 22  1  0
 26 24  2  0
 27 28  1  0
 28 29  2  0
 30 33  1  0
 30 29  1  0
 31 30  2  0
 32 31  1  0
 32 27  2  0
 33 34  1  0
 34 35  1  0
 35 36  2  0
 37 36  1  0
 37 41  1  0
 38 37  2  0
 39 34  2  0
 39 38  1  0
 40 39  1  0
 42 43  1  0
 43 46  1  0
 43 45  1  0
 44 42  2  0
 47 22  1  0
 47 48  1  0
 49 47  1  0
 50 55  1  0
 50 51  1  0
 51 54  1  0
 51 52  1  0
 51 53  1  0
 55 56  1  0
 57 68  2  0
 58 56  1  0
 58 63  1  0
 59 67  1  0
 59 69  1  0
 60 66  1  0
 60 62  1  0
 61 67  1  0
 62 63  2  0
 62 61  1  0
 64 58  2  0
 65 64  1  0
 65 60  2  0
 66 59  1  0
 67 57  1  0
 69 71  2  0
 70 69  1  0
 72 70  1  0
 73 82  2  0
 73 78  1  0
 74 70  1  0
 74 78  1  0
 75 74  1  0
 76 77  1  0
 76 75  1  0
 77 73  1  0
 78 79  2  0
 79 80  1  0
 81 80  2  0
 82 81  1  0
 83 57  1  0
 83 84  1  0
 83 93  1  0
 84 87  1  0
 85 89  1  0
 85 84  1  0
 86 85  2  0
 89 88  1  0
 91 89  1  0
 91 92  1  0
 91 90  1  0
 93 96  1  1
 93 94  1  0
 95 93  1  0
M  ISO  4  12 100  20 100  55 101  56 101
M  END
>  <TORSDO>  (20) 
F 22

>  <SCORE>  (20) 
-13.094

>  <name>  (20) 
19

>  <ligand_id>  (20) 
19

>  <original_smiles>  (20) 
[H]c1c([H])c([H])c2c(c1[H])C([H])([H])C([H])([H])C([H])([H])C2([H])N([H])C(=O)C1([H])N(C(=O)C([H])(N([H])C(=O)C([H])(N([H])C([H])([H])[H])C([H])([H])[H])C(C([H])([H])[H])(C([H])([H])[H])C([H])([H])[H])C([H])([H])c2c([H])c(OC([H])([H])C([H])(c3c([H])c(C([H])([H])C(N([H])C(=O)N4C([H])([H])C([H])([H])C([H])([H])C([H])(n5nc(-c6c([H])c([H])c(Oc7c([H])c([H])c(F)c([H])c7F)c([H])c6[H])c(C(=O)N([H])[H])c5N([H])[H])C4([H])[H])(C([H])([H])[H])C([H])([H])[H])n(C([H])([H])C([H])([H])[H])c3[H])[N+]([H])([H])[H])c([H])c([H])c2C1([H])[H]

>  <smiles>  (20) 
[H]c1c([H])c([H])c2c(c1[H])C([H])([H])C([H])([H])C([H])([H])C2([H])N([H])C(=O)C1([H])N(C(=O)C([H])(N([H])C(=O)C([H])(N([H])C([H])([H])[H])C([H])([H])[H])C(C([H])([H])[H])(C([H])([H])[H])C([H])([H])[H])C([H])([H])c2c([H])c(OC([H])([H])C([H])(c3c([H])c(C([H])([H])C(N([H])C(=O)N4C([H])([H])C([H])([H])C([H])([H])C([H])(n5nc(-c6c([H])c([H])c(Oc7c([H])c([H])c(F)c([H])c7F)c([H])c6[H])c(C(=O)N([H])[H])c5N([H])[H])C4([H])[H])(C([H])([H])[H])C([H])([H])[H])n(C([H])([H])C([H])([H])[H])c3[H])[N+]([H])([H])[H])c([H])c([H])c2C1([H])[H]

$$$$
20:0:0
     RDKit          3D

 89 96  0  0  1  0  0  0  0  0999 V2000
  -28.6440  -22.3660   20.4700 C   0  0  0  0  0  2  0  0  0  0  0  0
  -29.4380  -19.9350   20.1470 C   0  0  0  0  0  0  0  0  0  0  0  0
  -30.1720  -21.2700   22.1160 C   0  0  0  0  0  1  0  0  0  0  0  0
  -29.5250  -21.1660   20.7970 N   0  0  0  0  0  0  0  0  0  0  0  0
  -28.9880  -19.8680   18.9990 O   0  0  0  0  0  0  0  0  0  0  0  0
  -29.7780  -18.5490   20.8730 C   0  0  0  0  0  2  0  0  0  0  0  0
  -30.1950  -17.2520   20.0150 C   0  0  0  0  0  2  0  0  0  0  0  0
  -30.6310  -14.7010   20.3050 C   0  0  0  0  0  0  0  0  0  0  0  0
  -30.3660  -12.4430   19.3010 C   0  0  0  0  0  2  0  0  0  0  0  0
  -29.4290  -12.5650   18.0770 C   0  0  0  0  0  2  0  0  0  0  0  0
  -27.9600  -12.4090   18.5140 C   0  0  0  0  0  2  0  0  0  0  0  0
  -27.6020  -13.2870   19.7470 C   0  0  0  0  0  3  0  0  0  0  0  0
  -28.6720  -13.1730   20.8600 C   0  0  0  0  0  2  0  0  0  0  0  0
  -29.9730  -13.4950   20.2640 N   0  0  0  0  0  0  0  0  0  0  0  0
  -31.7970  -14.7910   19.9210 O   0  0  0  0  0  0  0  0  0  0  0  0
  -29.8930  -15.8440   20.5280 N   0  0  0  0  0  0  0  0  0  0  0  0
  -28.9470  -15.6750   20.8320 H   0  0  0  0  0  0  0  0  0  0  0  0
  -25.2100  -13.8810   20.4820 C   0  0  0  0  0  0  0  0  0  0  0  0
  -24.1440  -13.1120   20.8600 C   0  0  0  0  0  0  0  0  0  0  0  0
  -24.6060  -11.7610   20.8380 C   0  0  0  0  0  0  0  0  0  0  0  0
  -26.2560  -13.0030   20.2460 N   0  0  0  0  0  0  0  0  0  0  0  0
  -25.8980  -11.7220   20.5250 N   0  0  0  0  0  0  0  0  0  0  0  0
  -23.8750  -10.5030   21.0350 C   0  0  0  0  0  0  0  0  0  0  0  0
  -24.3190   -9.5280   21.9560 C   0  0  0  0  0  3  0  0  0  0  0  0
  -23.5890   -8.3360   22.1430 C   0  0  0  0  0  3  0  0  0  0  0  0
  -22.4000   -8.1070   21.4100 C   0  0  0  0  0  0  0  0  0  0  0  0
  -21.9760   -9.0670   20.4740 C   0  0  0  0  0  3  0  0  0  0  0  0
  -22.7060  -10.2530   20.2860 C   0  0  0  0  0  3  0  0  0  0  0  0
  -21.6380   -6.9690   21.5120 O   0  0  0  0  0  0  0  0  0  0  0  0
  -21.6190   -6.2110   22.6550 C   0  0  0  0  0  0  0  0  0  0  0  0
  -21.2440   -6.7550   23.9020 C   0  0  0  0  0  3  0  0  0  0  0  0
  -21.1740   -5.9260   25.0400 C   0  0  0  0  0  3  0  0  0  0  0  0
  -21.4650   -4.5530   24.9320 C   0  0  0  0  0  0  0  0  0  0  0  0
  -21.8320   -4.0080   23.6890 C   0  0  0  0  0  3  0  0  0  0  0  0
  -21.9040   -4.8330   22.5530 C   0  0  0  0  0  0  0  0  0  0  0  0
  -22.2420   -4.2980   21.3560 F   0  0  0  0  0  0  0  0  0  0  0  0
  -21.3890   -3.7540   26.0230 F   0  0  0  0  0  0  0  0  0  0  0  0
  -22.7470  -13.5960   21.1320 C   0  0  0  0  0  0  0  0  0  0  0  0
  -22.0140  -12.9150   22.0030 N   0  0  0  0  0  0  0  0  0  0  0  0
  -22.3140  -14.6190   20.6000 O   0  0  0  0  0  0  0  0  0  0  0  0
  -22.3790  -12.0950   22.4620 H   0  0  0  0  0  0  0  0  0  0  0  0
  -21.0750  -13.2250   22.2170 H   0  0  0  0  0  0  0  0  0  0  0  0
  -25.3640  -15.2510   20.2970 N   0  0  0  0  0  0  0  0  0  0  0  0
  -24.5740  -15.8810   20.3950 H   0  0  0  0  0  0  0  0  0  0  0  0
  -26.1860  -15.7020   19.9190 H   0  0  0  0  0  0  0  0  0  0  0  0
  -30.0110  -23.9440   18.9450 C   0  0  0  0  0  1  0  0  0  0  0  0
  -29.2230  -23.8580   20.2730 C   0  0  0  0  0  3  0  0  0  0  0  0
  -28.0610  -24.9730   20.3120 C   0  0  0  0  0  2  0  0  0  0  0  0
  -28.3140  -26.4410   20.1880 O   0  0  0  0  0  0  0  0  0  0  0  0
  -24.5950  -31.8800   23.2270 C   0  0  0  0  0  0  0  0  0  0  0  0
  -27.1950  -27.3030   20.1560 C   0  0  0  0  0  0  0  0  0  0  0  0
  -23.3860  -30.4830   21.5890 C   0  0  0  0  0  3  0  0  0  0  0  0
  -24.8360  -28.9350   20.1540 C   0  0  0  0  0  0  0  0  0  0  0  0
  -25.9310  -30.7910   21.4070 C   0  0  0  0  0  2  0  0  0  0  0  0
  -26.0070  -29.4140   20.7540 C   0  0  0  0  0  0  0  0  0  0  0  0
  -27.1900  -28.6090   20.7450 C   0  0  0  0  0  3  0  0  0  0  0  0
  -26.0010  -26.8970   19.5180 C   0  0  0  0  0  3  0  0  0  0  0  0
  -24.8340  -27.6890   19.5190 C   0  0  0  0  0  3  0  0  0  0  0  0
  -23.5990  -29.8100   20.2060 C   0  0  0  0  0  2  0  0  0  0  0  0
  -24.6550  -31.0680   22.1300 N   0  0  0  0  0  0  0  0  0  0  0  0
  -23.5090  -32.1620   23.7590 O   0  0  0  0  0  0  0  0  0  0  0  0
  -22.7280  -29.4650   22.5500 C   0  0  0  0  0  0  0  0  0  0  0  0
  -21.4000  -29.2880   22.4360 N   0  0  0  0  0  0  0  0  0  0  0  0
  -23.4110  -28.8330   23.3590 O   0  0  0  0  0  0  0  0  0  0  0  0
  -20.9080  -29.8480   21.7510 H   0  0  0  0  0  0  0  0  0  0  0  0
  -18.0210  -28.0900   22.9440 C   0  0  0  0  0  0  0  0  0  0  0  0
  -20.5820  -28.3500   23.2080 C   0  0  0  0  0  3  0  0  0  0  0  0
  -20.6810  -26.9160   22.6360 C   0  0  0  0  0  2  0  0  0  0  0  0
  -19.5770  -26.5910   21.6270 C   0  0  0  0  0  2  0  0  0  0  0  0
  -18.1960  -26.7400   22.2700 C   0  0  0  0  0  2  0  0  0  0  0  0
  -19.1420  -28.8530   23.3710 C   0  0  0  0  0  0  0  0  0  0  0  0
  -18.9270  -30.1180   23.9590 C   0  0  0  0  0  3  0  0  0  0  0  0
  -17.6210  -30.6190   24.1240 C   0  0  0  0  0  3  0  0  0  0  0  0
  -16.5150  -29.8540   23.7140 C   0  0  0  0  0  3  0  0  0  0  0  0
  -16.7160  -28.5900   23.1290 C   0  0  0  0  0  3  0  0  0  0  0  0
  -25.8780  -32.5110   23.8460 C   0  0  0  0  0  3  0  0  0  0  0  0
  -25.5720  -33.9080   24.1840 N   0  0  0  0  0  0  0  0  0  0  0  0
  -25.8930  -34.9660   23.4280 C   0  0  0  0  0  0  0  0  0  0  0  0
  -26.5500  -34.8690   22.3890 O   0  0  0  0  0  0  0  0  0  0  0  0
  -24.9930  -34.0580   24.9980 H   0  0  0  0  0  0  0  0  0  0  0  0
  -24.1560  -36.7500   23.0930 C   0  0  0  0  0  1  0  0  0  0  0  0
  -25.4060  -36.3500   23.8950 C   0  0  0  0  0  3  0  0  0  0  0  0
  -27.5460  -37.2310   24.7070 C   0  0  0  0  0  1  0  0  0  0  0  0
  -26.4350  -37.4070   23.7760 N   0  0  0  0  0  0  0  0  0  0  0  0
  -26.0300  -38.3270   23.9330 H   0  0  0  0  0  0  0  0  0  0  0  0
  -26.4020  -31.7400   25.1190 C   0  0  1  0  0  0  0  0  0  0  0  0
  -25.3110  -31.5010   26.1870 C   0  0  0  0  0  1  0  0  0  0  0  0
  -26.9850  -30.3630   24.7230 C   0  0  0  0  0  1  0  0  0  0  0  0
  -27.5610  -32.5280   25.7740 C   0  0  0  0  0  1  0  0  0  0  0  0
  1  4  1  0
  2  4  1  0
  2  6  1  0
  4  3  1  0
  5  2  2  0
  7 16  1  0
  7  6  1  0
  8 16  1  0
  9 14  1  0
 10 11  1  0
 10  9  1  0
 12 11  1  0
 12 21  1  0
 12 13  1  0
 14  8  1  0
 14 13  1  0
 15  8  2  0
 16 17  1  0
 18 19  2  0
 19 38  1  0
 20 19  1  0
 20 23  1  0
 21 18  1  0
 21 22  1  0
 22 20  2  0
 23 24  1  0
 24 25  2  0
 26 29  1  0
 26 25  1  0
 27 26  2  0
 28 27  1  0
 28 23  2  0
 29 30  1  0
 30 31  1  0
 31 32  2  0
 33 32  1  0
 33 37  1  0
 34 33  2  0
 35 30  2  0
 35 34  1  0
 36 35  1  0
 38 39  1  0
 39 42  1  0
 39 41  1  0
 40 38  2  0
 43 44  1  0
 43 18  1  0
 45 43  1  0
 47 46  1  0
 47 48  1  0
 47  1  1  0
 49 48  1  0
 50 61  2  0
 51 49  1  0
 51 56  1  0
 52 60  1  0
 52 62  1  0
 53 59  1  0
 53 55  1  0
 54 60  1  0
 55 54  1  0
 56 55  2  0
 57 58  1  0
 57 51  2  0
 58 53  2  0
 59 52  1  0
 60 50  1  0
 62 64  2  0
 63 62  1  0
 65 63  1  0
 66 75  2  0
 66 71  1  0
 67 63  1  0
 67 71  1  0
 68 67  1  0
 69 70  1  0
 69 68  1  0
 70 66  1  0
 71 72  2  0
 72 73  1  0
 74 73  2  0
 75 74  1  0
 76 50  1  0
 76 77  1  0
 76 86  1  0
 77 80  1  0
 78 82  1  0
 78 77  1  0
 79 78  2  0
 82 81  1  0
 84 82  1  0
 84 85  1  0
 84 83  1  0
 86 89  1  1
 86 87  1  0
 88 86  1  0
M  ISO  4   8 100  16 100  48 101  49 101
M  END
>  <TORSDO>  (21) 
F 21

>  <SCORE>  (21) 
-13.402

>  <name>  (21) 
20

>  <ligand_id>  (21) 
20

>  <original_smiles>  (21) 
[H]c1c([H])c([H])c2c(c1[H])C([H])([H])C([H])([H])C([H])([H])C2([H])N([H])C(=O)C1([H])N(C(=O)C([H])(N([H])C(=O)C([H])(N([H])C([H])([H])[H])C([H])([H])[H])C(C([H])([H])[H])(C([H])([H])[H])C([H])([H])[H])C([H])([H])c2c([H])c(OC([H])([H])C([H])(C([H])([H])[H])C([H])([H])N(C(=O)C([H])([H])C([H])([H])N([H])C(=O)N3C([H])([H])C([H])([H])C([H])([H])C([H])(n4nc(-c5c([H])c([H])c(Oc6c([H])c([H])c(F)c([H])c6F)c([H])c5[H])c(C(=O)N([H])[H])c4N([H])[H])C3([H])[H])C([H])([H])[H])c([H])c([H])c2C1([H])[H]

>  <smiles>  (21) 
[H]c1c([H])c([H])c2c(c1[H])C([H])([H])C([H])([H])C([H])([H])C2([H])N([H])C(=O)C1([H])N(C(=O)C([H])(N([H])C(=O)C([H])(N([H])C([H])([H])[H])C([H])([H])[H])C(C([H])([H])[H])(C([H])([H])[H])C([H])([H])[H])C([H])([H])c2c([H])c(OC([H])([H])C([H])(C([H])([H])[H])C([H])([H])N(C(=O)C([H])([H])C([H])([H])N([H])C(=O)N3C([H])([H])C([H])([H])C([H])([H])C([H])(n4nc(-c5c([H])c([H])c(Oc6c([H])c([H])c(F)c([H])c6F)c([H])c5[H])c(C(=O)N([H])[H])c4N([H])[H])C3([H])[H])C([H])([H])[H])c([H])c([H])c2C1([H])[H]

$$$$
21:0:0
     RDKit          3D

 92100  0  0  1  0  0  0  0  0999 V2000
  -30.3220  -20.9670   19.9100 C   0  0  0  0  0  2  0  0  0  0  0  0
  -30.5000  -19.4010   21.9360 C   0  0  0  0  0  3  0  0  0  0  0  0
  -30.9570  -17.0290   21.7300 C   0  0  0  0  0  3  0  0  0  0  0  0
  -30.7030  -18.1520   22.5410 C   0  0  0  0  0  0  0  0  0  0  0  0
  -30.4640  -19.5130   20.5350 C   0  0  0  0  0  0  0  0  0  0  0  0
  -30.9650  -17.1310   20.3240 C   0  0  0  0  0  0  0  0  0  0  0  0
  -30.5880  -18.0090   24.0470 C   0  0  0  0  0  1  0  0  0  0  0  0
  -30.6890  -18.3770   19.7530 N   0  0  0  0  0  0  0  0  0  0  0  0
  -31.7360  -14.6860   19.6660 C   0  0  0  0  0  0  0  0  0  0  0  0
  -31.3000  -12.4470   18.6220 C   0  0  0  0  0  2  0  0  0  0  0  0
  -30.2980  -12.6390   17.4590 C   0  0  0  0  0  2  0  0  0  0  0  0
  -28.8390  -12.6470   17.9640 C   0  0  0  0  0  2  0  0  0  0  0  0
  -28.6370  -13.5190   19.2330 C   0  0  0  0  0  3  0  0  0  0  0  0
  -29.7440  -13.2680   20.2790 C   0  0  0  0  0  2  0  0  0  0  0  0
  -31.0300  -13.5070   19.6110 N   0  0  0  0  0  0  0  0  0  0  0  0
  -32.9340  -14.7150   19.3630 O   0  0  0  0  0  0  0  0  0  0  0  0
  -30.9400  -15.8220   19.6550 N   0  0  0  0  0  0  0  0  0  0  0  0
  -29.9880  -15.5220   19.5310 H   0  0  0  0  0  0  0  0  0  0  0  0
  -26.3750  -14.3570   20.1060 C   0  0  0  0  0  0  0  0  0  0  0  0
  -25.2590  -13.6980   20.5420 C   0  0  0  0  0  0  0  0  0  0  0  0
  -25.5740  -12.3060   20.4840 C   0  0  0  0  0  0  0  0  0  0  0  0
  -27.3030  -13.3740   19.8040 N   0  0  0  0  0  0  0  0  0  0  0  0
  -26.8320  -12.1330   20.0940 N   0  0  0  0  0  0  0  0  0  0  0  0
  -24.7340  -11.1270   20.7160 C   0  0  0  0  0  0  0  0  0  0  0  0
  -25.0650  -10.1670   21.6970 C   0  0  0  0  0  3  0  0  0  0  0  0
  -24.2280   -9.0510   21.9180 C   0  0  0  0  0  3  0  0  0  0  0  0
  -23.0480   -8.8890   21.1550 C   0  0  0  0  0  0  0  0  0  0  0  0
  -22.7340   -9.8350   20.1660 C   0  0  0  0  0  3  0  0  0  0  0  0
  -23.5720  -10.9410   19.9420 C   0  0  0  0  0  3  0  0  0  0  0  0
  -22.1940   -7.8190   21.2800 O   0  0  0  0  0  0  0  0  0  0  0  0
  -21.9980   -7.1870   22.4830 C   0  0  0  0  0  0  0  0  0  0  0  0
  -21.5470   -7.8860   23.6210 C   0  0  0  0  0  3  0  0  0  0  0  0
  -21.2860   -7.1920   24.8200 C   0  0  0  0  0  3  0  0  0  0  0  0
  -21.4710   -5.7980   24.8780 C   0  0  0  0  0  0  0  0  0  0  0  0
  -21.9180   -5.0980   23.7450 C   0  0  0  0  0  3  0  0  0  0  0  0
  -22.1780   -5.7920   22.5480 C   0  0  0  0  0  0  0  0  0  0  0  0
  -22.5860   -5.1090   21.4510 F   0  0  0  0  0  0  0  0  0  0  0  0
  -21.2140   -5.1270   26.0270 F   0  0  0  0  0  0  0  0  0  0  0  0
  -23.9430  -14.3190   20.9010 C   0  0  0  0  0  0  0  0  0  0  0  0
  -23.2230  -13.7290   21.8510 N   0  0  0  0  0  0  0  0  0  0  0  0
  -23.5660  -15.3670   20.3750 O   0  0  0  0  0  0  0  0  0  0  0  0
  -23.5430  -12.8860   22.3030 H   0  0  0  0  0  0  0  0  0  0  0  0
  -22.3400  -14.1290   22.1310 H   0  0  0  0  0  0  0  0  0  0  0  0
  -26.6580  -15.7060   19.9120 N   0  0  0  0  0  0  0  0  0  0  0  0
  -25.9290  -16.4030   20.0090 H   0  0  0  0  0  0  0  0  0  0  0  0
  -27.4610  -16.0600   19.4120 H   0  0  0  0  0  0  0  0  0  0  0  0
  -29.0110  -21.9330   20.0020 C   0  0  0  0  0  3  0  0  0  0  0  0
  -27.0050  -20.3100   19.7360 C   0  0  0  0  0  1  0  0  0  0  0  0
  -27.7570  -21.2880   20.6510 C   0  0  0  0  0  2  0  0  0  0  0  0
  -29.2580  -23.4480   20.5410 C   0  0  0  0  0  3  0  0  0  0  0  0
  -28.2410  -24.6290   20.1490 C   0  0  0  0  0  3  0  0  0  0  0  0
  -28.5660  -26.0920   20.2240 O   0  0  0  0  0  0  0  0  0  0  0  0
  -24.6910  -31.5400   23.0050 C   0  0  0  0  0  0  0  0  0  0  0  0
  -27.4770  -26.9790   20.0950 C   0  0  0  0  0  0  0  0  0  0  0  0
  -23.5620  -30.0640   21.3790 C   0  0  0  0  0  3  0  0  0  0  0  0
  -25.0880  -28.5540   19.9990 C   0  0  0  0  0  0  0  0  0  0  0  0
  -26.0940  -30.4650   21.2280 C   0  0  0  0  0  2  0  0  0  0  0  0
  -26.2330  -29.0730   20.6180 C   0  0  0  0  0  0  0  0  0  0  0  0
  -27.4320  -28.2950   20.6630 C   0  0  0  0  0  3  0  0  0  0  0  0
  -26.3180  -26.5490   19.4080 C   0  0  0  0  0  3  0  0  0  0  0  0
  -25.1390  -27.3040   19.3740 C   0  0  0  0  0  3  0  0  0  0  0  0
  -23.8210  -29.3800   20.0130 C   0  0  0  0  0  2  0  0  0  0  0  0
  -24.8000  -30.7080   21.9270 N   0  0  0  0  0  0  0  0  0  0  0  0
  -23.5880  -31.7910   23.5150 O   0  0  0  0  0  0  0  0  0  0  0  0
  -22.9230  -29.0410   22.3510 C   0  0  0  0  0  0  0  0  0  0  0  0
  -21.6080  -28.8060   22.2040 N   0  0  0  0  0  0  0  0  0  0  0  0
  -23.6090  -28.4650   23.1990 O   0  0  0  0  0  0  0  0  0  0  0  0
  -21.1110  -29.3220   21.4910 H   0  0  0  0  0  0  0  0  0  0  0  0
  -18.2770  -27.4680   22.6430 C   0  0  0  0  0  0  0  0  0  0  0  0
  -20.8110  -27.8560   22.9820 C   0  0  0  0  0  3  0  0  0  0  0  0
  -20.9990  -26.4140   22.4560 C   0  0  0  0  0  2  0  0  0  0  0  0
  -19.9440  -26.0080   21.4220 C   0  0  0  0  0  2  0  0  0  0  0  0
  -18.5390  -26.1070   22.0200 C   0  0  0  0  0  2  0  0  0  0  0  0
  -19.3460  -28.2960   23.0810 C   0  0  0  0  0  0  0  0  0  0  0  0
  -19.0480  -29.5650   23.6220 C   0  0  0  0  0  3  0  0  0  0  0  0
  -17.7160  -30.0080   23.7330 C   0  0  0  0  0  3  0  0  0  0  0  0
  -16.6630  -29.1760   23.3120 C   0  0  0  0  0  3  0  0  0  0  0  0
  -16.9450  -27.9090   22.7720 C   0  0  0  0  0  3  0  0  0  0  0  0
  -25.9400  -32.2340   23.6290 C   0  0  0  0  0  3  0  0  0  0  0  0
  -25.5440  -33.5930   24.0260 N   0  0  0  0  0  0  0  0  0  0  0  0
  -25.8570  -34.7050   23.3480 C   0  0  0  0  0  0  0  0  0  0  0  0
  -26.5780  -34.6960   22.3480 O   0  0  0  0  0  0  0  0  0  0  0  0
  -24.9080  -33.6690   24.8060 H   0  0  0  0  0  0  0  0  0  0  0  0
  -24.0740  -36.4440   22.9950 C   0  0  0  0  0  1  0  0  0  0  0  0
  -25.2770  -36.0380   23.8600 C   0  0  0  0  0  3  0  0  0  0  0  0
  -27.3170  -36.9530   24.8770 C   0  0  0  0  0  1  0  0  0  0  0  0
  -26.2640  -37.1400   23.8840 N   0  0  0  0  0  0  0  0  0  0  0  0
  -25.8050  -38.0270   24.0730 H   0  0  0  0  0  0  0  0  0  0  0  0
  -26.5320  -31.4450   24.8600 C   0  0  1  0  0  0  0  0  0  0  0  0
  -25.4760  -31.0790   25.9290 C   0  0  0  0  0  1  0  0  0  0  0  0
  -27.2050  -30.1320   24.3960 C   0  0  0  0  0  1  0  0  0  0  0  0
  -27.6330  -32.2870   25.5450 C   0  0  0  0  0  1  0  0  0  0  0  0
  1  5  1  0
  2  4  1  0
  3  4  2  0
  4  7  1  0
  5  2  2  0
  6  3  1  0
  8  6  2  0
  8  5  1  0
 10 15  1  0
 11 12  1  0
 11 10  1  0
 13 12  1  0
 13 22  1  0
 13 14  1  0
 15  9  1  0
 15 14  1  0
 16  9  2  0
 17  9  1  0
 17  6  1  0
 18 17  1  0
 19 20  2  0
 20 39  1  0
 21 20  1  0
 21 24  1  0
 22 23  1  0
 22 19  1  0
 23 21  2  0
 24 25  1  0
 25 26  2  0
 27 30  1  0
 27 26  1  0
 28 27  2  0
 29 28  1  0
 29 24  2  0
 30 31  1  0
 31 36  2  0
 31 32  1  0
 32 33  2  0
 33 34  1  0
 34 38  1  0
 35 34  2  0
 36 35  1  0
 37 36  1  0
 39 40  1  0
 40 43  1  0
 40 42  1  0
 41 39  2  0
 44 45  1  0
 44 19  1  0
 46 44  1  0
 47  1  1  0
 47 50  1  0
 47 49  1  0
 48 49  1  0
 51 52  1  0
 51 50  2  0
 53 64  2  0
 54 52  1  0
 54 59  1  0
 55 63  1  0
 55 65  1  0
 56 62  1  0
 56 58  1  0
 57 63  1  0
 58 59  2  0
 58 57  1  0
 60 54  2  0
 61 60  1  0
 61 56  2  0
 62 55  1  0
 63 53  1  0
 65 67  2  0
 66 65  1  0
 68 66  1  0
 69 78  2  0
 69 74  1  0
 70 66  1  0
 70 74  1  0
 71 70  1  0
 72 73  1  0
 72 71  1  0
 73 69  1  0
 74 75  2  0
 75 76  1  0
 77 76  2  0
 78 77  1  0
 79 53  1  0
 79 80  1  0
 79 89  1  0
 80 83  1  0
 81 85  1  0
 81 80  1  0
 82 81  2  0
 85 84  1  0
 85 87  1  0
 87 88  1  0
 87 86  1  0
 89 92  1  1
 89 90  1  0
 91 89  1  0
M  ISO  4   9 100  17 100  51 101  52 101
M  END
>  <TORSDO>  (22) 
F 21

>  <SCORE>  (22) 
-9.897

>  <name>  (22) 
21

>  <ligand_id>  (22) 
21

>  <original_smiles>  (22) 
[H]c1c([H])c([H])c2c(c1[H])C([H])([H])C([H])([H])C([H])([H])C2([H])N([H])C(=O)C1([H])N(C(=O)C([H])(N([H])C(=O)C([H])(N([H])C([H])([H])[H])C([H])([H])[H])C(C([H])([H])[H])(C([H])([H])[H])C([H])([H])[H])C([H])([H])c2c([H])c(OC([H])([H])C([H])([H])C([H])(C([H])([H])c3nc(N([H])C(=O)N4C([H])([H])C([H])([H])C([H])([H])C([H])(n5nc(-c6c([H])c([H])c(Oc7c([H])c([H])c(F)c([H])c7F)c([H])c6[H])c(C(=O)N([H])[H])c5N([H])[H])C4([H])[H])c([H])c(C([H])([H])[H])c3[H])C([H])([H])C([H])([H])[H])c([H])c([H])c2C1([H])[H]

>  <smiles>  (22) 
[H]c1c([H])c([H])c2c(c1[H])C([H])([H])C([H])([H])C([H])([H])C2([H])N([H])C(=O)C1([H])N(C(=O)C([H])(N([H])C(=O)C([H])(N([H])C([H])([H])[H])C([H])([H])[H])C(C([H])([H])[H])(C([H])([H])[H])C([H])([H])[H])C([H])([H])c2c([H])c(OC([H])([H])C([H])([H])C([H])(C([H])([H])c3nc(N([H])C(=O)N4C([H])([H])C([H])([H])C([H])([H])C([H])(n5nc(-c6c([H])c([H])c(Oc7c([H])c([H])c(F)c([H])c7F)c([H])c6[H])c(C(=O)N([H])[H])c5N([H])[H])C4([H])[H])c([H])c(C([H])([H])[H])c3[H])C([H])([H])C([H])([H])[H])c([H])c([H])c2C1([H])[H]

$$$$
22:0:0
     RDKit          3D

 98106  0  0  1  0  0  0  0  0999 V2000
  -29.0310  -21.0450   20.5070 C   0  0  0  0  0  2  0  0  0  0  0  0
  -30.4570  -23.0350   17.5110 C   0  0  0  0  0  3  0  0  0  0  0  0
  -30.1280  -21.9920   18.3890 C   0  0  0  0  0  3  0  0  0  0  0  0
  -30.0740  -24.3520   17.8010 C   0  0  0  0  0  3  0  0  0  0  0  0
  -29.0000  -23.6000   19.8530 C   0  0  0  0  0  3  0  0  0  0  0  0
  -29.4060  -22.2440   19.5810 C   0  0  0  0  0  0  0  0  0  0  0  0
  -29.3390  -24.6700   18.9610 C   0  0  0  0  0  0  0  0  0  0  0  0
  -28.9000  -26.1600   19.0370 C   0  0  0  0  0  2  0  0  0  0  0  0
  -28.5230  -26.7790   20.2880 O   0  0  0  0  0  0  0  0  0  0  0  0
  -24.5580  -31.9950   23.2510 C   0  0  0  0  0  0  0  0  0  0  0  0
  -27.3650  -27.5490   20.2580 C   0  0  0  0  0  0  0  0  0  0  0  0
  -23.4230  -30.5460   21.6050 C   0  0  0  0  0  3  0  0  0  0  0  0
  -24.9410  -29.0330   20.2200 C   0  0  0  0  0  0  0  0  0  0  0  0
  -25.9510  -30.9510   21.4620 C   0  0  0  0  0  2  0  0  0  0  0  0
  -26.0800  -29.5750   20.8300 C   0  0  0  0  0  0  0  0  0  0  0  0
  -27.2940  -28.8360   20.8550 C   0  0  0  0  0  3  0  0  0  0  0  0
  -26.1920  -27.0230   19.6730 C   0  0  0  0  0  3  0  0  0  0  0  0
  -24.9940  -27.7560   19.6400 C   0  0  0  0  0  3  0  0  0  0  0  0
  -23.6770  -29.8650   20.2350 C   0  0  0  0  0  2  0  0  0  0  0  0
  -24.6610  -31.1830   22.1620 N   0  0  0  0  0  0  0  0  0  0  0  0
  -23.4590  -32.2460   23.7660 O   0  0  0  0  0  0  0  0  0  0  0  0
  -22.7800  -29.5150   22.5620 C   0  0  0  0  0  0  0  0  0  0  0  0
  -21.4620  -29.2990   22.4170 N   0  0  0  0  0  0  0  0  0  0  0  0
  -23.4650  -28.9110   23.3920 O   0  0  0  0  0  0  0  0  0  0  0  0
  -20.9670  -29.8410   21.7230 H   0  0  0  0  0  0  0  0  0  0  0  0
  -18.0970  -28.0810   22.9310 C   0  0  0  0  0  0  0  0  0  0  0  0
  -20.6560  -28.3480   23.1820 C   0  0  0  0  0  3  0  0  0  0  0  0
  -20.7590  -26.9230   22.5890 C   0  0  0  0  0  2  0  0  0  0  0  0
  -19.6490  -26.6080   21.5800 C   0  0  0  0  0  2  0  0  0  0  0  0
  -18.2720  -26.7400   22.2370 C   0  0  0  0  0  2  0  0  0  0  0  0
  -19.2150  -28.8420   23.3600 C   0  0  0  0  0  0  0  0  0  0  0  0
  -18.9960  -30.0990   23.9660 C   0  0  0  0  0  3  0  0  0  0  0  0
  -17.6900  -30.5920   24.1470 C   0  0  0  0  0  3  0  0  0  0  0  0
  -16.5860  -29.8260   23.7350 C   0  0  0  0  0  3  0  0  0  0  0  0
  -16.7900  -28.5720   23.1330 C   0  0  0  0  0  3  0  0  0  0  0  0
  -25.8140  -32.6700   23.8880 C   0  0  0  0  0  3  0  0  0  0  0  0
  -25.4550  -34.0570   24.2090 N   0  0  0  0  0  0  0  0  0  0  0  0
  -25.7560  -35.1160   23.4470 C   0  0  0  0  0  0  0  0  0  0  0  0
  -26.4350  -35.0310   22.4200 O   0  0  0  0  0  0  0  0  0  0  0  0
  -24.8520  -34.1940   25.0060 H   0  0  0  0  0  0  0  0  0  0  0  0
  -23.9810  -36.8540   23.0570 C   0  0  0  0  0  1  0  0  0  0  0  0
  -25.2170  -36.4880   23.8940 C   0  0  0  0  0  3  0  0  0  0  0  0
  -27.2940  -37.4440   24.7830 C   0  0  0  0  0  1  0  0  0  0  0  0
  -26.2180  -37.5720   23.8040 N   0  0  0  0  0  0  0  0  0  0  0  0
  -25.7790  -38.4800   23.9310 H   0  0  0  0  0  0  0  0  0  0  0  0
  -26.3380  -31.9210   25.1750 C   0  0  1  0  0  0  0  0  0  0  0  0
  -25.2330  -31.6220   26.2150 C   0  0  0  0  0  1  0  0  0  0  0  0
  -27.0070  -30.5780   24.7970 C   0  0  0  0  0  1  0  0  0  0  0  0
  -27.4250  -32.7750   25.8710 C   0  0  0  0  0  1  0  0  0  0  0  0
  -29.8930  -19.8140   20.3490 N   0  0  0  0  0  4  0  0  0  0  0  0
  -30.5600  -19.8430   21.1000 H   0  0  0  0  0  0  0  0  0  0  0  0
  -30.4120  -19.9170   19.4950 H   0  0  0  0  0  0  0  0  0  0  0  0
  -29.2810  -18.4350   20.3440 C   0  0  0  0  0  3  0  0  0  0  0  0
  -27.5810  -19.0560   18.4070 C   0  0  0  0  0  1  0  0  0  0  0  0
  -29.7360  -17.9110   17.8340 C   0  0  0  0  0  1  0  0  0  0  0  0
  -28.6730  -18.1020   18.9260 C   0  0  1  0  0  0  0  0  0  0  0  0
  -27.9360  -16.8700   19.0380 N   0  0  0  0  0  0  0  0  0  0  0  0
  -27.5800  -16.6710   18.1100 H   0  0  0  0  0  0  0  0  0  0  0  0
  -27.1060  -17.1120   19.5690 H   0  0  0  0  0  0  0  0  0  0  0  0
  -30.3170  -17.3330   20.8750 C   0  0  0  0  0  2  0  0  0  0  0  0
  -30.7120  -14.8120   20.6310 C   0  0  0  0  0  0  0  0  0  0  0  0
  -30.5110  -12.6570   19.4350 C   0  0  0  0  0  2  0  0  0  0  0  0
  -29.5800  -12.8760   18.2240 C   0  0  0  0  0  2  0  0  0  0  0  0
  -28.0990  -12.6900   18.6250 C   0  0  0  0  0  2  0  0  0  0  0  0
  -27.7280  -13.4600   19.9220 C   0  0  0  0  0  3  0  0  0  0  0  0
  -28.7790  -13.2380   21.0300 C   0  0  0  0  0  2  0  0  0  0  0  0
  -30.0880  -13.6090   20.4760 N   0  0  0  0  0  0  0  0  0  0  0  0
  -31.8980  -14.9710   20.3290 O   0  0  0  0  0  0  0  0  0  0  0  0
  -29.9170  -15.8860   20.9010 N   0  0  0  0  0  0  0  0  0  0  0  0
  -28.9230  -15.7090   20.9670 H   0  0  0  0  0  0  0  0  0  0  0  0
  -25.3110  -13.9910   20.6260 C   0  0  0  0  0  0  0  0  0  0  0  0
  -24.2540  -13.1930   20.9550 C   0  0  0  0  0  0  0  0  0  0  0  0
  -24.7430  -11.8550   20.9000 C   0  0  0  0  0  0  0  0  0  0  0  0
  -26.3780  -13.1400   20.3820 N   0  0  0  0  0  0  0  0  0  0  0  0
  -26.0400  -11.8460   20.6090 N   0  0  0  0  0  0  0  0  0  0  0  0
  -24.0410  -10.5770   21.0510 C   0  0  0  0  0  0  0  0  0  0  0  0
  -24.4370   -9.6270   22.0170 C   0  0  0  0  0  3  0  0  0  0  0  0
  -23.7310   -8.4120   22.1550 C   0  0  0  0  0  3  0  0  0  0  0  0
  -22.6160   -8.1430   21.3280 C   0  0  0  0  0  0  0  0  0  0  0  0
  -22.2400   -9.0830   20.3530 C   0  0  0  0  0  3  0  0  0  0  0  0
  -22.9470  -10.2870   20.2120 C   0  0  0  0  0  3  0  0  0  0  0  0
  -21.8860   -6.9800   21.3720 O   0  0  0  0  0  0  0  0  0  0  0  0
  -21.7370   -6.2690   22.5350 C   0  0  0  0  0  0  0  0  0  0  0  0
  -21.0830   -6.8120   23.6630 C   0  0  0  0  0  3  0  0  0  0  0  0
  -20.8940   -6.0230   24.8150 C   0  0  0  0  0  3  0  0  0  0  0  0
  -21.3450   -4.6900   24.8380 C   0  0  0  0  0  0  0  0  0  0  0  0
  -21.9900   -4.1450   23.7140 C   0  0  0  0  0  3  0  0  0  0  0  0
  -22.1830   -4.9320   22.5660 C   0  0  0  0  0  0  0  0  0  0  0  0
  -22.7880   -4.3980   21.4770 F   0  0  0  0  0  0  0  0  0  0  0  0
  -21.1560   -3.9280   25.9400 F   0  0  0  0  0  0  0  0  0  0  0  0
  -22.8440  -13.6440   21.2100 C   0  0  0  0  0  0  0  0  0  0  0  0
  -22.1040  -12.9110   22.0350 N   0  0  0  0  0  0  0  0  0  0  0  0
  -22.4050  -14.6800   20.7130 O   0  0  0  0  0  0  0  0  0  0  0  0
  -22.4670  -12.0750   22.4660 H   0  0  0  0  0  0  0  0  0  0  0  0
  -21.1570  -13.1980   22.2420 H   0  0  0  0  0  0  0  0  0  0  0  0
  -25.4410  -15.3640   20.4980 N   0  0  0  0  0  0  0  0  0  0  0  0
  -24.6480  -15.9880   20.5770 H   0  0  0  0  0  0  0  0  0  0  0  0
  -26.2800  -15.8110   20.1210 H   0  0  0  0  0  0  0  0  0  0  0  0
  2  4  2  0
  2  3  1  0
  3  6  2  0
  4  7  1  0
  6  5  1  0
  6  1  1  0
  7  8  1  0
  7  5  2  0
  8  9  1  0
 10 21  2  0
 11  9  1  0
 11 16  1  0
 12 20  1  0
 12 22  1  0
 13 19  1  0
 13 15  1  0
 14 20  1  0
 15 16  2  0
 15 14  1  0
 17 11  2  0
 18 17  1  0
 18 13  2  0
 19 12  1  0
 20 10  1  0
 22 24  2  0
 23 22  1  0
 25 23  1  0
 26 35  2  0
 26 31  1  0
 27 23  1  0
 27 31  1  0
 28 27  1  0
 29 30  1  0
 29 28  1  0
 30 26  1  0
 31 32  2  0
 32 33  1  0
 34 33  2  0
 35 34  1  0
 36 10  1  0
 36 37  1  0
 36 46  1  0
 37 40  1  0
 38 42  1  0
 38 37  1  0
 39 38  2  0
 42 41  1  0
 44 42  1  0
 44 45  1  0
 44 43  1  0
 46 49  1  1
 46 47  1  0
 48 46  1  0
 50  1  1  0
 50 51  1  0
 52 50  1  0
 53 50  1  0
 53 60  1  0
 56 54  1  6
 55 56  1  0
 56 57  1  0
 56 53  1  0
 57 59  1  0
 58 57  1  0
 60 69  1  0
 61 69  1  0
 62 67  1  0
 63 64  1  0
 63 62  1  0
 65 64  1  0
 65 74  1  0
 65 66  1  0
 67 61  1  0
 67 66  1  0
 68 61  2  0
 69 70  1  0
 71 72  2  0
 72 91  1  0
 73 72  1  0
 73 76  1  0
 74 75  1  0
 74 71  1  0
 75 73  2  0
 76 77  1  0
 77 78  2  0
 79 82  1  0
 79 78  1  0
 80 79  2  0
 81 80  1  0
 81 76  2  0
 82 83  1  0
 83 88  2  0
 83 84  1  0
 84 85  2  0
 85 86  1  0
 86 90  1  0
 87 86  2  0
 88 87  1  0
 89 88  1  0
 91 92  1  0
 92 95  1  0
 92 94  1  0
 93 91  2  0
 96 97  1  0
 96 71  1  0
 98 96  1  0
M  ISO  4   8 101   9 101  61 100  69 100
M  END
>  <TORSDO>  (23) 
F 23

>  <SCORE>  (23) 
-13.138

>  <name>  (23) 
22

>  <ligand_id>  (23) 
22

>  <original_smiles>  (23) 
[H]c1c([H])c([H])c2c(c1[H])C([H])([H])C([H])([H])C([H])([H])C2([H])N([H])C(=O)C1([H])N(C(=O)C([H])(N([H])C(=O)C([H])(N([H])C([H])([H])[H])C([H])([H])[H])C(C([H])([H])[H])(C([H])([H])[H])C([H])([H])[H])C([H])([H])c2c([H])c(OC([H])([H])c3c([H])c([H])c([H])c(C([H])([H])[N+]([H])([H])C([H])(C([H])([H])N([H])C(=O)N4C([H])([H])C([H])([H])C([H])([H])C([H])(n5nc(-c6c([H])c([H])c(Oc7c([H])c([H])c(F)c([H])c7F)c([H])c6[H])c(C(=O)N([H])[H])c5N([H])[H])C4([H])[H])C(N([H])[H])(C([H])([H])[H])C([H])([H])[H])c3[H])c([H])c([H])c2C1([H])[H]

>  <smiles>  (23) 
[H]c1c([H])c([H])c2c(c1[H])C([H])([H])C([H])([H])C([H])([H])C2([H])N([H])C(=O)C1([H])N(C(=O)C([H])(N([H])C(=O)C([H])(N([H])C([H])([H])[H])C([H])([H])[H])C(C([H])([H])[H])(C([H])([H])[H])C([H])([H])[H])C([H])([H])c2c([H])c(OC([H])([H])c3c([H])c([H])c([H])c(C([H])([H])[N+]([H])([H])C([H])(C([H])([H])N([H])C(=O)N4C([H])([H])C([H])([H])C([H])([H])C([H])(n5nc(-c6c([H])c([H])c(Oc7c([H])c([H])c(F)c([H])c7F)c([H])c6[H])c(C(=O)N([H])[H])c5N([H])[H])C4([H])[H])C(N([H])[H])(C([H])([H])[H])C([H])([H])[H])c3[H])c([H])c([H])c2C1([H])[H]

$$$$
23:0:0
     RDKit          3D

 95103  0  0  1  0  0  0  0  0999 V2000
  -28.4980  -22.1410   21.0200 N   0  0  0  0  0  4  0  0  0  0  0  0
  -29.4760  -22.2340   20.8020 H   0  0  0  0  0  0  0  0  0  0  0  0
  -28.4090  -22.2160   22.0200 H   0  0  0  0  0  0  0  0  0  0  0  0
  -26.2800  -23.2810   20.7710 C   0  0  0  0  0  1  0  0  0  0  0  0
  -27.7700  -23.2520   20.3560 C   0  0  0  0  0  3  0  0  0  0  0  0
  -28.4520  -24.6100   20.6740 C   0  0  0  0  0  2  0  0  0  0  0  0
  -28.5870  -25.5660   19.4730 C   0  0  0  0  0  2  0  0  0  0  0  0
  -28.5190  -26.9160   19.9280 O   0  0  0  0  0  0  0  0  0  0  0  0
  -24.7280  -31.8940   23.2930 C   0  0  0  0  0  0  0  0  0  0  0  0
  -27.3010  -27.5600   20.0070 C   0  0  0  0  0  0  0  0  0  0  0  0
  -23.4780  -30.5390   21.6460 C   0  0  0  0  0  3  0  0  0  0  0  0
  -24.8900  -29.0380   20.1470 C   0  0  0  0  0  0  0  0  0  0  0  0
  -25.9980  -30.9000   21.3980 C   0  0  0  0  0  2  0  0  0  0  0  0
  -26.0630  -29.5510   20.7160 C   0  0  0  0  0  0  0  0  0  0  0  0
  -27.2650  -28.8170   20.6480 C   0  0  0  0  0  3  0  0  0  0  0  0
  -26.1000  -27.0460   19.4600 C   0  0  0  0  0  3  0  0  0  0  0  0
  -24.9010  -27.7780   19.5290 C   0  0  0  0  0  3  0  0  0  0  0  0
  -23.6500  -29.8990   20.2430 C   0  0  0  0  0  2  0  0  0  0  0  0
  -24.7540  -31.1250   22.1690 N   0  0  0  0  0  0  0  0  0  0  0  0
  -23.6610  -32.1540   23.8690 O   0  0  0  0  0  0  0  0  0  0  0  0
  -22.8480  -29.4900   22.5890 C   0  0  0  0  0  0  0  0  0  0  0  0
  -21.5280  -29.2840   22.4560 N   0  0  0  0  0  0  0  0  0  0  0  0
  -23.5430  -28.8620   23.3920 O   0  0  0  0  0  0  0  0  0  0  0  0
  -21.0270  -29.8440   21.7800 H   0  0  0  0  0  0  0  0  0  0  0  0
  -18.1790  -28.0020   22.8990 C   0  0  0  0  0  0  0  0  0  0  0  0
  -20.7280  -28.3200   23.2090 C   0  0  0  0  0  3  0  0  0  0  0  0
  -20.8750  -26.8980   22.6240 C   0  0  0  0  0  2  0  0  0  0  0  0
  -19.7960  -26.5550   21.5920 C   0  0  0  0  0  2  0  0  0  0  0  0
  -18.4000  -26.6620   22.2200 C   0  0  0  0  0  2  0  0  0  0  0  0
  -19.2740  -28.7890   23.3480 C   0  0  0  0  0  0  0  0  0  0  0  0
  -19.0170  -30.0460   23.9380 C   0  0  0  0  0  3  0  0  0  0  0  0
  -17.7000  -30.5160   24.0890 C   0  0  0  0  0  3  0  0  0  0  0  0
  -16.6190  -29.7240   23.6650 C   0  0  0  0  0  3  0  0  0  0  0  0
  -16.8590  -28.4700   23.0730 C   0  0  0  0  0  3  0  0  0  0  0  0
  -26.0310  -32.5030   23.8990 C   0  0  0  0  0  3  0  0  0  0  0  0
  -25.7420  -33.8960   24.2640 N   0  0  0  0  0  0  0  0  0  0  0  0
  -26.0760  -34.9620   23.5270 C   0  0  0  0  0  0  0  0  0  0  0  0
  -26.7350  -34.8770   22.4850 O   0  0  0  0  0  0  0  0  0  0  0  0
  -25.1590  -34.0360   25.0750 H   0  0  0  0  0  0  0  0  0  0  0  0
  -24.3590  -36.7730   23.2230 C   0  0  0  0  0  1  0  0  0  0  0  0
  -25.6040  -36.3440   24.0160 C   0  0  0  0  0  3  0  0  0  0  0  0
  -27.7500  -37.1890   24.8520 C   0  0  0  0  0  1  0  0  0  0  0  0
  -26.6440  -37.3900   23.9200 N   0  0  0  0  0  0  0  0  0  0  0  0
  -26.2480  -38.3090   24.0970 H   0  0  0  0  0  0  0  0  0  0  0  0
  -26.5700  -31.7020   25.1470 C   0  0  1  0  0  0  0  0  0  0  0  0
  -25.4980  -31.4390   26.2290 C   0  0  0  0  0  1  0  0  0  0  0  0
  -27.1430  -30.3350   24.7090 C   0  0  0  0  0  1  0  0  0  0  0  0
  -27.7340  -32.4790   25.8060 C   0  0  0  0  0  1  0  0  0  0  0  0
  -28.1190  -20.7710   20.6170 C   0  0  0  0  0  2  0  0  0  0  0  0
  -30.1340  -19.7570   21.9520 C   0  0  0  0  0  3  0  0  0  0  0  0
  -29.8050  -18.9540   19.8940 C   0  0  0  0  0  3  0  0  0  0  0  0
  -29.2990  -19.8430   20.8030 C   0  0  0  0  0  0  0  0  0  0  0  0
  -31.1600  -18.8960   21.6850 C   0  0  0  0  0  0  0  0  0  0  0  0
  -32.3500  -18.5720   22.5300 C   0  0  0  0  0  1  0  0  0  0  0  0
  -30.9460  -18.3620   20.4160 N   0  0  0  0  0  0  0  0  0  0  0  0
  -31.8060  -17.4460   19.6660 C   0  0  0  0  0  2  0  0  0  0  0  0
  -32.0850  -16.0820   20.3350 C   0  0  0  0  0  2  0  0  0  0  0  0
  -31.3990  -14.0410   19.1070 C   0  0  0  0  0  0  0  0  0  0  0  0
  -30.9200  -11.6980   18.4990 C   0  0  0  0  0  2  0  0  0  0  0  0
  -29.8640  -11.5720   17.3870 C   0  0  0  0  0  2  0  0  0  0  0  0
  -28.4440  -11.5890   17.9830 C   0  0  0  0  0  2  0  0  0  0  0  0
  -28.2220  -12.7590   18.9760 C   0  0  0  0  0  3  0  0  0  0  0  0
  -29.3730  -12.8280   20.0020 C   0  0  0  0  0  2  0  0  0  0  0  0
  -30.6480  -12.9210   19.2670 N   0  0  0  0  0  0  0  0  0  0  0  0
  -32.3290  -14.1300   18.3040 O   0  0  0  0  0  0  0  0  0  0  0  0
  -31.1460  -15.0170   19.9850 N   0  0  0  0  0  0  0  0  0  0  0  0
  -30.3540  -14.8810   20.5950 H   0  0  0  0  0  0  0  0  0  0  0  0
  -26.0370  -13.6640   19.9970 C   0  0  0  0  0  0  0  0  0  0  0  0
  -24.9380  -13.0310   20.5130 C   0  0  0  0  0  0  0  0  0  0  0  0
  -25.2140  -11.6320   20.4300 C   0  0  0  0  0  0  0  0  0  0  0  0
  -26.9210  -12.6580   19.6350 N   0  0  0  0  0  0  0  0  0  0  0  0
  -26.4340  -11.4300   19.9510 N   0  0  0  0  0  0  0  0  0  0  0  0
  -24.3640  -10.4700   20.7270 C   0  0  0  0  0  0  0  0  0  0  0  0
  -24.7440   -9.5010   21.6810 C   0  0  0  0  0  3  0  0  0  0  0  0
  -23.9020   -8.4030   21.9610 C   0  0  0  0  0  3  0  0  0  0  0  0
  -22.6640   -8.2680   21.2880 C   0  0  0  0  0  0  0  0  0  0  0  0
  -22.3020   -9.2240   20.3220 C   0  0  0  0  0  3  0  0  0  0  0  0
  -23.1440  -10.3120   20.0410 C   0  0  0  0  0  3  0  0  0  0  0  0
  -21.7950   -7.2220   21.4780 O   0  0  0  0  0  0  0  0  0  0  0  0
  -21.6830   -6.5900   22.6900 C   0  0  0  0  0  0  0  0  0  0  0  0
  -21.3330   -7.2870   23.8650 C   0  0  0  0  0  3  0  0  0  0  0  0
  -21.1610   -6.5860   25.0760 C   0  0  0  0  0  3  0  0  0  0  0  0
  -21.3280   -5.1910   25.1120 C   0  0  0  0  0  0  0  0  0  0  0  0
  -21.6710   -4.4910   23.9410 C   0  0  0  0  0  3  0  0  0  0  0  0
  -21.8450   -5.1890   22.7320 C   0  0  0  0  0  0  0  0  0  0  0  0
  -22.1540   -4.5100   21.6030 F   0  0  0  0  0  0  0  0  0  0  0  0
  -21.1530   -4.5150   26.2720 F   0  0  0  0  0  0  0  0  0  0  0  0
  -23.6630  -13.6790   20.9680 C   0  0  0  0  0  0  0  0  0  0  0  0
  -22.9930  -13.0950   21.9560 N   0  0  0  0  0  0  0  0  0  0  0  0
  -23.2750  -14.7390   20.4780 O   0  0  0  0  0  0  0  0  0  0  0  0
  -23.3190  -12.2370   22.3740 H   0  0  0  0  0  0  0  0  0  0  0  0
  -22.1410  -13.5140   22.3010 H   0  0  0  0  0  0  0  0  0  0  0  0
  -26.3530  -15.0040   19.7880 N   0  0  0  0  0  0  0  0  0  0  0  0
  -25.7080  -15.7560   20.0050 H   0  0  0  0  0  0  0  0  0  0  0  0
  -27.2100  -15.3260   19.3540 H   0  0  0  0  0  0  0  0  0  0  0  0
  1  3  1  0
  2  1  1  0
  5  6  1  0
  5  4  1  0
  5  1  1  0
  7  8  1  0
  7  6  1  0
  8 10  1  0
  9 20  2  0
 10 15  1  0
 11 19  1  0
 11 21  1  0
 12 18  1  0
 12 14  1  0
 13 19  1  0
 14 13  1  0
 15 14  2  0
 16 17  1  0
 16 10  2  0
 17 12  2  0
 18 11  1  0
 19  9  1  0
 21 23  2  0
 22 21  1  0
 24 22  1  0
 25 34  2  0
 25 30  1  0
 26 22  1  0
 26 30  1  0
 27 26  1  0
 28 29  1  0
 28 27  1  0
 29 25  1  0
 30 31  2  0
 31 32  1  0
 33 32  2  0
 34 33  1  0
 35  9  1  0
 35 36  1  0
 35 45  1  0
 36 39  1  0
 37 41  1  0
 37 36  1  0
 38 37  2  0
 41 40  1  0
 43 41  1  0
 43 44  1  0
 43 42  1  0
 45 48  1  1
 45 46  1  0
 47 45  1  0
 49 52  1  0
 49  1  1  0
 51 55  1  0
 51 52  2  0
 52 50  1  0
 53 50  2  0
 53 54  1  0
 55 53  1  0
 56 57  1  0
 56 55  1  0
 58 64  1  0
 58 66  1  0
 59 64  1  0
 60 61  1  0
 60 59  1  0
 62 61  1  0
 62 71  1  0
 62 63  1  0
 64 63  1  0
 65 58  2  0
 66 57  1  0
 66 67  1  0
 68 69  2  0
 69 88  1  0
 70 69  1  0
 70 73  1  0
 71 72  1  0
 71 68  1  0
 72 70  2  0
 73 74  1  0
 74 75  2  0
 76 79  1  0
 76 75  1  0
 77 76  2  0
 78 77  1  0
 78 73  2  0
 79 80  1  0
 80 85  2  0
 80 81  1  0
 81 82  2  0
 82 83  1  0
 83 87  1  0
 84 83  2  0
 85 84  1  0
 86 85  1  0
 88 89  1  0
 89 92  1  0
 89 91  1  0
 90 88  2  0
 93 68  1  0
 93 94  1  0
 95 93  1  0
M  ISO  4   7 101   8 101  58 100  66 100
M  END
>  <TORSDO>  (24) 
F 23

>  <SCORE>  (24) 
-10.549

>  <name>  (24) 
23

>  <ligand_id>  (24) 
23

>  <original_smiles>  (24) 
[H]c1c([H])c([H])c2c(c1[H])C([H])([H])C([H])([H])C([H])([H])C2([H])N([H])C(=O)C1([H])N(C(=O)C([H])(N([H])C(=O)C([H])(N([H])C([H])([H])[H])C([H])([H])[H])C(C([H])([H])[H])(C([H])([H])[H])C([H])([H])[H])C([H])([H])c2c([H])c(OC([H])([H])C([H])([H])C([H])(C([H])([H])[H])[N+]([H])([H])C([H])([H])c3c([H])c(C([H])([H])[H])n(C([H])([H])C([H])([H])N([H])C(=O)N4C([H])([H])C([H])([H])C([H])([H])C([H])(n5nc(-c6c([H])c([H])c(Oc7c([H])c([H])c(F)c([H])c7F)c([H])c6[H])c(C(=O)N([H])[H])c5N([H])[H])C4([H])[H])c3[H])c([H])c([H])c2C1([H])[H]

>  <smiles>  (24) 
[H]c1c([H])c([H])c2c(c1[H])C([H])([H])C([H])([H])C([H])([H])C2([H])N([H])C(=O)C1([H])N(C(=O)C([H])(N([H])C(=O)C([H])(N([H])C([H])([H])[H])C([H])([H])[H])C(C([H])([H])[H])(C([H])([H])[H])C([H])([H])[H])C([H])([H])c2c([H])c(OC([H])([H])C([H])([H])C([H])(C([H])([H])[H])[N+]([H])([H])C([H])([H])c3c([H])c(C([H])([H])[H])n(C([H])([H])C([H])([H])N([H])C(=O)N4C([H])([H])C([H])([H])C([H])([H])C([H])(n5nc(-c6c([H])c([H])c(Oc7c([H])c([H])c(F)c([H])c7F)c([H])c6[H])c(C(=O)N([H])[H])c5N([H])[H])C4([H])[H])c3[H])c([H])c([H])c2C1([H])[H]

$$$$
24:0:0
     RDKit          3D

 93101  0  0  1  0  0  0  0  0999 V2000
  -28.4800  -22.4730   19.2890 C   0  0  0  0  0  3  0  0  0  0  0  0
  -29.3880  -21.3400   21.5650 C   0  0  0  0  0  3  0  0  0  0  0  0
  -28.7560  -21.0510   19.3120 C   0  0  0  0  0  0  0  0  0  0  0  0
  -29.1940  -20.3880   20.5070 C   0  0  0  0  0  0  0  0  0  0  0  0
  -28.6200  -23.3330   20.4200 C   0  0  0  0  0  0  0  0  0  0  0  0
  -29.1090  -22.7020   21.5360 N   0  0  0  0  0  0  0  0  0  0  0  0
  -28.4900  -20.2670   18.0350 C   0  0  0  0  0  2  0  0  0  0  0  0
  -29.5990  -20.4560   16.9830 C   0  0  0  0  0  3  0  0  0  0  0  0
  -29.6710  -21.7420   16.6330 F   0  0  0  0  0  0  0  0  0  0  0  0
  -30.4740  -19.8050   14.6630 C   0  0  0  0  0  1  0  0  0  0  0  0
  -29.3560  -19.6380   15.7030 C   0  0  0  0  0  2  0  0  0  0  0  0
  -29.1910  -18.7670   20.7890 C   0  0  0  0  0  3  0  0  0  0  0  0
  -30.1300  -17.5630   20.1440 C   0  0  0  0  0  3  0  0  0  0  0  0
  -30.5710  -14.8840   20.1710 C   0  0  0  0  0  0  0  0  0  0  0  0
  -30.3660  -12.5850   19.1540 C   0  0  0  0  0  2  0  0  0  0  0  0
  -29.4030  -12.6310   17.9460 C   0  0  0  0  0  2  0  0  0  0  0  0
  -27.9440  -12.4500   18.4050 C   0  0  0  0  0  2  0  0  0  0  0  0
  -27.5930  -13.3230   19.6390 C   0  0  0  0  0  3  0  0  0  0  0  0
  -28.6780  -13.2500   20.7370 C   0  0  0  0  0  2  0  0  0  0  0  0
  -29.9480  -13.6440   20.1130 N   0  0  0  0  0  0  0  0  0  0  0  0
  -31.7480  -14.9640   19.8120 O   0  0  0  0  0  0  0  0  0  0  0  0
  -29.8200  -16.0500   20.4130 N   0  0  0  0  0  0  0  0  0  0  0  0
  -28.8670  -15.8620   20.6940 H   0  0  0  0  0  0  0  0  0  0  0  0
  -25.2190  -13.9000   20.4080 C   0  0  0  0  0  0  0  0  0  0  0  0
  -24.1620  -13.1230   20.7970 C   0  0  0  0  0  0  0  0  0  0  0  0
  -24.6300  -11.7750   20.7600 C   0  0  0  0  0  0  0  0  0  0  0  0
  -26.2610  -13.0250   20.1550 N   0  0  0  0  0  0  0  0  0  0  0  0
  -25.9160  -11.7400   20.4310 N   0  0  0  0  0  0  0  0  0  0  0  0
  -23.9100  -10.5110   20.9640 C   0  0  0  0  0  0  0  0  0  0  0  0
  -24.3500   -9.5510   21.9020 C   0  0  0  0  0  3  0  0  0  0  0  0
  -23.6280   -8.3530   22.0940 C   0  0  0  0  0  3  0  0  0  0  0  0
  -22.4520   -8.1060   21.3470 C   0  0  0  0  0  0  0  0  0  0  0  0
  -22.0310   -9.0540   20.3960 C   0  0  0  0  0  3  0  0  0  0  0  0
  -22.7530  -10.2430   20.2030 C   0  0  0  0  0  3  0  0  0  0  0  0
  -21.7010   -6.9600   21.4480 O   0  0  0  0  0  0  0  0  0  0  0  0
  -21.6530   -6.2300   22.6080 C   0  0  0  0  0  0  0  0  0  0  0  0
  -21.2150   -6.7950   23.8250 C   0  0  0  0  0  3  0  0  0  0  0  0
  -21.1140   -5.9930   24.9780 C   0  0  0  0  0  3  0  0  0  0  0  0
  -21.4410   -4.6250   24.9160 C   0  0  0  0  0  0  0  0  0  0  0  0
  -21.8710   -4.0590   23.7030 C   0  0  0  0  0  3  0  0  0  0  0  0
  -21.9740   -4.8590   22.5520 C   0  0  0  0  0  0  0  0  0  0  0  0
  -22.3690   -4.3030   21.3810 F   0  0  0  0  0  0  0  0  0  0  0  0
  -21.3370   -3.8510   26.0220 F   0  0  0  0  0  0  0  0  0  0  0  0
  -22.7690  -13.5990   21.0890 C   0  0  0  0  0  0  0  0  0  0  0  0
  -22.0580  -12.9020   21.9680 N   0  0  0  0  0  0  0  0  0  0  0  0
  -22.3210  -14.6210   20.5730 O   0  0  0  0  0  0  0  0  0  0  0  0
  -22.4360  -12.0740   22.4050 H   0  0  0  0  0  0  0  0  0  0  0  0
  -21.1220  -13.2000   22.2070 H   0  0  0  0  0  0  0  0  0  0  0  0
  -25.3740  -15.2700   20.2230 N   0  0  0  0  0  0  0  0  0  0  0  0
  -24.6000  -15.9170   20.3340 H   0  0  0  0  0  0  0  0  0  0  0  0
  -26.2020  -15.7100   19.8420 H   0  0  0  0  0  0  0  0  0  0  0  0
  -27.8130  -24.7520   20.5570 C   0  0  0  0  0  2  0  0  0  0  0  0
  -28.2550  -26.2030   20.2550 O   0  0  0  0  0  0  0  0  0  0  0  0
  -24.6390  -31.8650   23.2370 C   0  0  0  0  0  0  0  0  0  0  0  0
  -27.2190  -27.1970   20.1910 C   0  0  0  0  0  0  0  0  0  0  0  0
  -23.4360  -30.4730   21.5960 C   0  0  0  0  0  3  0  0  0  0  0  0
  -24.8850  -28.9190   20.1620 C   0  0  0  0  0  0  0  0  0  0  0  0
  -25.9880  -30.7520   21.4290 C   0  0  0  0  0  2  0  0  0  0  0  0
  -26.0630  -29.3660   20.7760 C   0  0  0  0  0  0  0  0  0  0  0  0
  -27.2310  -28.5180   20.7830 C   0  0  0  0  0  3  0  0  0  0  0  0
  -26.0280  -26.8670   19.5040 C   0  0  0  0  0  3  0  0  0  0  0  0
  -24.8790  -27.6800   19.5090 C   0  0  0  0  0  3  0  0  0  0  0  0
  -23.6550  -29.8060   20.2140 C   0  0  0  0  0  2  0  0  0  0  0  0
  -24.7060  -31.0500   22.1430 N   0  0  0  0  0  0  0  0  0  0  0  0
  -23.5540  -32.1450   23.7700 O   0  0  0  0  0  0  0  0  0  0  0  0
  -22.7660  -29.4570   22.5570 C   0  0  0  0  0  0  0  0  0  0  0  0
  -21.4380  -29.2820   22.4340 N   0  0  0  0  0  0  0  0  0  0  0  0
  -23.4430  -28.8280   23.3750 O   0  0  0  0  0  0  0  0  0  0  0  0
  -20.9500  -29.8410   21.7480 H   0  0  0  0  0  0  0  0  0  0  0  0
  -18.0590  -28.0790   22.9470 C   0  0  0  0  0  0  0  0  0  0  0  0
  -20.6200  -28.3430   23.2050 C   0  0  0  0  0  3  0  0  0  0  0  0
  -20.7210  -26.9120   22.6310 C   0  0  0  0  0  2  0  0  0  0  0  0
  -19.6150  -26.5910   21.6190 C   0  0  0  0  0  2  0  0  0  0  0  0
  -18.2340  -26.7320   22.2670 C   0  0  0  0  0  2  0  0  0  0  0  0
  -19.1800  -28.8420   23.3740 C   0  0  0  0  0  0  0  0  0  0  0  0
  -18.9610  -30.1030   23.9720 C   0  0  0  0  0  3  0  0  0  0  0  0
  -17.6560  -30.6000   24.1460 C   0  0  0  0  0  3  0  0  0  0  0  0
  -16.5510  -29.8350   23.7350 C   0  0  0  0  0  3  0  0  0  0  0  0
  -16.7530  -28.5760   23.1420 C   0  0  0  0  0  3  0  0  0  0  0  0
  -25.9190  -32.5000   23.8600 C   0  0  0  0  0  3  0  0  0  0  0  0
  -25.6050  -33.8990   24.1920 N   0  0  0  0  0  0  0  0  0  0  0  0
  -25.9220  -34.9550   23.4320 C   0  0  0  0  0  0  0  0  0  0  0  0
  -26.5780  -34.8560   22.3910 O   0  0  0  0  0  0  0  0  0  0  0  0
  -25.0280  -34.0480   25.0060 H   0  0  0  0  0  0  0  0  0  0  0  0
  -24.1770  -36.7420   23.1120 C   0  0  0  0  0  1  0  0  0  0  0  0
  -25.4360  -36.3420   23.8990 C   0  0  0  0  0  3  0  0  0  0  0  0
  -27.5810  -37.2380   24.6900 C   0  0  0  0  0  1  0  0  0  0  0  0
  -26.4600  -37.4010   23.7680 N   0  0  0  0  0  0  0  0  0  0  0  0
  -26.0520  -38.3180   23.9230 H   0  0  0  0  0  0  0  0  0  0  0  0
  -26.4330  -31.7310   25.1380 C   0  0  1  0  0  0  0  0  0  0  0  0
  -25.3380  -31.4960   26.2060 C   0  0  0  0  0  1  0  0  0  0  0  0
  -27.0150  -30.3500   24.7540 C   0  0  0  0  0  1  0  0  0  0  0  0
  -27.5840  -32.5250   25.7980 C   0  0  0  0  0  1  0  0  0  0  0  0
  1  3  2  0
  1  5  1  0
  3  4  1  0
  4 12  1  0
  4  2  2  0
  5 52  1  0
  5  6  2  0
  6  2  1  0
  7  3  1  0
  8  9  1  0
  8  7  1  0
 10 11  1  0
 11  8  1  0
 13 22  1  0
 13 12  2  0
 14 22  1  0
 15 20  1  0
 16 17  1  0
 16 15  1  0
 18 17  1  0
 18 27  1  0
 18 19  1  0
 20 14  1  0
 20 19  1  0
 21 14  2  0
 22 23  1  0
 24 25  2  0
 25 44  1  0
 26 25  1  0
 26 29  1  0
 27 24  1  0
 27 28  1  0
 28 26  2  0
 29 30  1  0
 30 31  2  0
 32 35  1  0
 32 31  1  0
 33 32  2  0
 34 33  1  0
 34 29  2  0
 35 36  1  0
 36 37  1  0
 37 38  2  0
 39 38  1  0
 39 43  1  0
 40 39  2  0
 41 36  2  0
 41 40  1  0
 42 41  1  0
 44 45  1  0
 45 48  1  0
 45 47  1  0
 46 44  2  0
 49 50  1  0
 49 24  1  0
 51 49  1  0
 53 52  1  0
 54 65  2  0
 55 53  1  0
 55 60  1  0
 56 64  1  0
 56 66  1  0
 57 63  1  0
 57 59  1  0
 58 64  1  0
 59 60  2  0
 59 58  1  0
 61 62  1  0
 61 55  2  0
 62 57  2  0
 63 56  1  0
 64 54  1  0
 66 68  2  0
 67 66  1  0
 69 67  1  0
 70 79  2  0
 70 75  1  0
 71 67  1  0
 71 75  1  0
 72 71  1  0
 73 74  1  0
 73 72  1  0
 74 70  1  0
 75 76  2  0
 76 77  1  0
 78 77  2  0
 79 78  1  0
 80 54  1  0
 80 81  1  0
 80 90  1  0
 81 84  1  0
 82 86  1  0
 82 81  1  0
 83 82  2  0
 86 85  1  0
 88 86  1  0
 88 89  1  0
 88 87  1  0
 90 93  1  1
 90 91  1  0
 92 90  1  0
M  ISO  4  14 100  22 100  52 101  53 101
M  END
>  <TORSDO>  (25) 
F 22

>  <SCORE>  (25) 
-13.279

>  <name>  (25) 
24

>  <ligand_id>  (25) 
24

>  <original_smiles>  (25) 
[H]c1nc(C([H])([H])Oc2c([H])c([H])c3c(c2[H])C([H])([H])N(C(=O)C([H])(N([H])C(=O)C([H])(N([H])C([H])([H])[H])C([H])([H])[H])C(C([H])([H])[H])(C([H])([H])[H])C([H])([H])[H])C([H])(C(=O)N([H])C2([H])c4c([H])c([H])c([H])c([H])c4C([H])([H])C([H])([H])C2([H])[H])C3([H])[H])c([H])c(C([H])([H])C([H])(F)C([H])([H])C([H])([H])[H])c1C([H])([H])C([H])([H])N([H])C(=O)N1C([H])([H])C([H])([H])C([H])([H])C([H])(n2nc(-c3c([H])c([H])c(Oc4c([H])c([H])c(F)c([H])c4F)c([H])c3[H])c(C(=O)N([H])[H])c2N([H])[H])C1([H])[H]

>  <smiles>  (25) 
[H]c1nc(C([H])([H])Oc2c([H])c([H])c3c(c2[H])C([H])([H])N(C(=O)C([H])(N([H])C(=O)C([H])(N([H])C([H])([H])[H])C([H])([H])[H])C(C([H])([H])[H])(C([H])([H])[H])C([H])([H])[H])C([H])(C(=O)N([H])C2([H])c4c([H])c([H])c([H])c([H])c4C([H])([H])C([H])([H])C2([H])[H])C3([H])[H])c([H])c(C([H])([H])C([H])(F)C([H])([H])C([H])([H])[H])c1C([H])([H])C([H])([H])N([H])C(=O)N1C([H])([H])C([H])([H])C([H])([H])C([H])(n2nc(-c3c([H])c([H])c(Oc4c([H])c([H])c(F)c([H])c4F)c([H])c3[H])c(C(=O)N([H])[H])c2N([H])[H])C1([H])[H]

$$$$
25:0:0
     RDKit          3D

 98106  0  0  1  0  0  0  0  0999 V2000
  -29.0470  -19.9390   20.3520 C   0  0  0  0  0  3  0  0  0  0  0  0
  -31.0650  -21.6790   19.8320 C   0  0  0  0  0  3  0  0  0  0  0  0
  -28.7520  -21.3580   20.1350 C   0  0  0  0  0  0  0  0  0  0  0  0
  -29.7970  -22.3370   19.9000 C   0  0  0  0  0  0  0  0  0  0  0  0
  -30.3770  -19.4160   20.3370 C   0  0  0  0  0  0  0  0  0  0  0  0
  -31.3340  -20.3440   20.0430 N   0  0  0  0  0  0  0  0  0  0  0  0
  -26.5030  -21.2180   18.9920 C   0  0  0  0  0  1  0  0  0  0  0  0
  -27.2880  -21.7810   20.1890 C   0  0  0  0  0  3  0  0  0  0  0  0
  -26.6870  -21.4000   21.4770 N   0  0  0  0  0  4  0  0  0  0  0  0
  -26.6800  -20.4020   21.5760 H   0  0  0  0  0  0  0  0  0  0  0  0
  -25.7460  -21.7400   21.5460 H   0  0  0  0  0  0  0  0  0  0  0  0
  -27.2230  -21.7830   22.2340 H   0  0  0  0  0  0  0  0  0  0  0  0
  -30.9570  -17.9450   20.7690 C   0  0  0  0  0  2  0  0  0  0  0  0
  -31.0480  -15.3110   20.6960 C   0  0  0  0  0  0  0  0  0  0  0  0
  -30.9170  -12.9880   19.7350 C   0  0  0  0  0  2  0  0  0  0  0  0
  -30.0720  -12.9860   18.4410 C   0  0  0  0  0  2  0  0  0  0  0  0
  -28.5800  -12.8010   18.7750 C   0  0  0  0  0  2  0  0  0  0  0  0
  -28.1110  -13.7270   19.9290 C   0  0  0  0  0  3  0  0  0  0  0  0
  -29.0870  -13.7180   21.1230 C   0  0  0  0  0  2  0  0  0  0  0  0
  -30.4070  -14.0870   20.5990 N   0  0  0  0  0  0  0  0  0  0  0  0
  -32.2670  -15.3380   20.5030 O   0  0  0  0  0  0  0  0  0  0  0  0
  -30.3350  -16.5220   20.7930 N   0  0  0  0  0  0  0  0  0  0  0  0
  -29.3320  -16.4690   20.8800 H   0  0  0  0  0  0  0  0  0  0  0  0
  -25.7100  -14.3310   20.5820 C   0  0  0  0  0  0  0  0  0  0  0  0
  -24.6080  -13.5650   20.8410 C   0  0  0  0  0  0  0  0  0  0  0  0
  -25.0360  -12.2070   20.7420 C   0  0  0  0  0  0  0  0  0  0  0  0
  -26.7400  -13.4390   20.3360 N   0  0  0  0  0  0  0  0  0  0  0  0
  -26.3410  -12.1510   20.4990 N   0  0  0  0  0  0  0  0  0  0  0  0
  -24.2650  -10.9570   20.8030 C   0  0  0  0  0  0  0  0  0  0  0  0
  -24.6560   -9.8880   21.6390 C   0  0  0  0  0  3  0  0  0  0  0  0
  -23.8880   -8.7050   21.6970 C   0  0  0  0  0  3  0  0  0  0  0  0
  -22.7130   -8.5840   20.9170 C   0  0  0  0  0  0  0  0  0  0  0  0
  -22.3410   -9.6430   20.0690 C   0  0  0  0  0  3  0  0  0  0  0  0
  -23.1110  -10.8170   20.0090 C   0  0  0  0  0  3  0  0  0  0  0  0
  -21.9180   -7.4640   20.8890 O   0  0  0  0  0  0  0  0  0  0  0  0
  -21.8960   -6.5710   21.9300 C   0  0  0  0  0  0  0  0  0  0  0  0
  -21.5670   -6.9670   23.2450 C   0  0  0  0  0  3  0  0  0  0  0  0
  -21.4890   -6.0040   24.2720 C   0  0  0  0  0  3  0  0  0  0  0  0
  -21.7290   -4.6480   23.9850 C   0  0  0  0  0  0  0  0  0  0  0  0
  -22.0510   -4.2500   22.6750 C   0  0  0  0  0  3  0  0  0  0  0  0
  -22.1310   -5.2100   21.6500 C   0  0  0  0  0  0  0  0  0  0  0  0
  -22.4210   -4.8200   20.3850 F   0  0  0  0  0  0  0  0  0  0  0  0
  -21.6460   -3.7210   24.9680 F   0  0  0  0  0  0  0  0  0  0  0  0
  -23.2110  -14.0660   21.0680 C   0  0  0  0  0  0  0  0  0  0  0  0
  -22.4190  -13.3430   21.8530 N   0  0  0  0  0  0  0  0  0  0  0  0
  -22.8300  -15.1330   20.5880 O   0  0  0  0  0  0  0  0  0  0  0  0
  -22.7410  -12.4790   22.2630 H   0  0  0  0  0  0  0  0  0  0  0  0
  -21.4800  -13.6580   22.0450 H   0  0  0  0  0  0  0  0  0  0  0  0
  -25.9190  -15.7050   20.5060 N   0  0  0  0  0  0  0  0  0  0  0  0
  -25.1560  -16.3670   20.6020 H   0  0  0  0  0  0  0  0  0  0  0  0
  -26.7820  -16.1360   20.2010 H   0  0  0  0  0  0  0  0  0  0  0  0
  -29.7570  -23.9990   19.8880 C   0  0  0  0  0  3  0  0  0  0  0  0
  -30.1190  -24.5110   21.2280 N   0  0  0  0  0  4  0  0  0  0  0  0
  -30.9350  -24.0550   21.5940 H   0  0  0  0  0  0  0  0  0  0  0  0
  -29.3730  -24.4260   21.8950 H   0  0  0  0  0  0  0  0  0  0  0  0
  -30.3350  -25.4930   21.1590 H   0  0  0  0  0  0  0  0  0  0  0  0
  -28.6480  -25.0510   19.2390 C   0  0  0  0  0  2  0  0  0  0  0  0
  -28.7500  -26.5760   19.4540 O   0  0  0  0  0  0  0  0  0  0  0  0
  -24.6340  -31.5510   22.9180 C   0  0  0  0  0  0  0  0  0  0  0  0
  -27.5930  -27.4200   19.4680 C   0  0  0  0  0  0  0  0  0  0  0  0
  -23.5410  -30.1930   21.1740 C   0  0  0  0  0  3  0  0  0  0  0  0
  -25.1050  -28.8960   19.6060 C   0  0  0  0  0  0  0  0  0  0  0  0
  -26.0500  -30.7260   21.0070 C   0  0  0  0  0  2  0  0  0  0  0  0
  -26.2440  -29.4120   20.2390 C   0  0  0  0  0  0  0  0  0  0  0  0
  -27.4880  -28.6890   20.1540 C   0  0  0  0  0  3  0  0  0  0  0  0
  -26.4210  -26.9960   18.8030 C   0  0  0  0  0  3  0  0  0  0  0  0
  -25.2020  -27.7040   18.8750 C   0  0  0  0  0  3  0  0  0  0  0  0
  -23.7980  -29.6600   19.7400 C   0  0  0  0  0  2  0  0  0  0  0  0
  -24.7610  -30.8410   21.7570 N   0  0  0  0  0  0  0  0  0  0  0  0
  -23.5350  -31.6840   23.4790 O   0  0  0  0  0  0  0  0  0  0  0  0
  -22.9820  -29.0440   22.0520 C   0  0  0  0  0  0  0  0  0  0  0  0
  -21.6680  -28.7780   21.9430 N   0  0  0  0  0  0  0  0  0  0  0  0
  -23.7290  -28.4010   22.7930 O   0  0  0  0  0  0  0  0  0  0  0  0
  -21.1180  -29.3560   21.3240 H   0  0  0  0  0  0  0  0  0  0  0  0
  -18.4060  -27.2830   22.4330 C   0  0  0  0  0  0  0  0  0  0  0  0
  -20.9490  -27.7090   22.6410 C   0  0  0  0  0  3  0  0  0  0  0  0
  -21.1290  -26.3530   21.9200 C   0  0  0  0  0  2  0  0  0  0  0  0
  -20.0130  -26.0490   20.9160 C   0  0  0  0  0  2  0  0  0  0  0  0
  -18.6510  -26.0250   21.6160 C   0  0  0  0  0  2  0  0  0  0  0  0
  -19.4830  -28.0820   22.9000 C   0  0  0  0  0  0  0  0  0  0  0  0
  -19.1970  -29.2590   23.6260 C   0  0  0  0  0  3  0  0  0  0  0  0
  -17.8680  -29.6380   23.8880 C   0  0  0  0  0  3  0  0  0  0  0  0
  -16.8060  -28.8370   23.4340 C   0  0  0  0  0  3  0  0  0  0  0  0
  -17.0760  -27.6600   22.7130 C   0  0  0  0  0  3  0  0  0  0  0  0
  -25.8590  -32.2500   23.5850 C   0  0  0  0  0  3  0  0  0  0  0  0
  -25.4350  -33.5970   23.9950 N   0  0  0  0  0  0  0  0  0  0  0  0
  -25.6910  -34.7200   23.3100 C   0  0  0  0  0  0  0  0  0  0  0  0
  -26.3760  -34.7340   22.2840 O   0  0  0  0  0  0  0  0  0  0  0  0
  -24.8220  -33.6550   24.7940 H   0  0  0  0  0  0  0  0  0  0  0  0
  -23.8230  -36.3890   23.0610 C   0  0  0  0  0  1  0  0  0  0  0  0
  -25.0950  -36.0360   23.8480 C   0  0  0  0  0  3  0  0  0  0  0  0
  -27.1510  -37.0440   24.7370 C   0  0  0  0  0  1  0  0  0  0  0  0
  -26.0400  -37.1740   23.7980 N   0  0  0  0  0  0  0  0  0  0  0  0
  -25.5610  -38.0490   23.9940 H   0  0  0  0  0  0  0  0  0  0  0  0
  -26.4290  -31.4520   24.8220 C   0  0  1  0  0  0  0  0  0  0  0  0
  -25.3560  -31.0810   25.8730 C   0  0  0  0  0  1  0  0  0  0  0  0
  -27.1090  -30.1410   24.3630 C   0  0  0  0  0  1  0  0  0  0  0  0
  -27.5210  -32.2910   25.5270 C   0  0  0  0  0  1  0  0  0  0  0  0
  2  4  2  0
  2  6  1  0
  3  8  1  0
  3  1  2  0
  4  3  1  0
  5  1  1  0
  5 13  1  0
  6  5  2  0
  8  7  1  0
  8  9  1  0
  9 11  1  0
  9 10  1  0
  9 12  1  0
 13 22  1  0
 14 22  1  0
 15 20  1  0
 16 17  1  0
 16 15  1  0
 18 17  1  0
 18 27  1  0
 18 19  1  0
 20 14  1  0
 20 19  1  0
 21 14  2  0
 22 23  1  0
 24 25  2  0
 25 44  1  0
 26 29  1  0
 26 25  1  0
 27 28  1  0
 27 24  1  0
 28 26  2  0
 29 30  1  0
 30 31  2  0
 32 31  1  0
 33 32  2  0
 34 33  1  0
 34 29  2  0
 35 32  1  0
 35 36  1  0
 36 37  1  0
 37 38  2  0
 39 38  1  0
 39 43  1  0
 40 39  2  0
 41 36  2  0
 41 40  1  0
 42 41  1  0
 44 45  1  0
 45 48  1  0
 45 47  1  0
 46 44  2  0
 49 24  1  0
 49 50  1  0
 51 49  1  0
 52 57  1  0
 52  4  1  0
 52 53  1  0
 53 54  1  0
 53 55  1  0
 56 53  1  0
 57 58  1  0
 58 60  1  0
 59 70  2  0
 60 65  1  0
 61 69  1  0
 61 71  1  0
 62 68  1  0
 62 64  1  0
 63 69  1  0
 64 63  1  0
 65 64  2  0
 66 67  1  0
 66 60  2  0
 67 62  2  0
 68 61  1  0
 69 59  1  0
 71 73  2  0
 72 71  1  0
 74 72  1  0
 75 84  2  0
 75 80  1  0
 76 72  1  0
 76 80  1  0
 77 76  1  0
 78 79  1  0
 78 77  1  0
 79 75  1  0
 80 81  2  0
 81 82  1  0
 83 82  2  0
 84 83  1  0
 85 59  1  0
 85 86  1  0
 85 95  1  0
 86 89  1  0
 87 91  1  0
 87 86  1  0
 88 87  2  0
 91 90  1  0
 93 91  1  0
 93 94  1  0
 93 92  1  0
 95 98  1  1
 95 96  1  0
 97 95  1  0
M  ISO  4  14 100  22 100  57 101  58 101
M  END
>  <TORSDO>  (26) 
F 22

>  <SCORE>  (26) 
-9.895

>  <name>  (26) 
25

>  <ligand_id>  (26) 
25

>  <original_smiles>  (26) 
[H]c1nc(C([H])([H])N([H])C(=O)N2C([H])([H])C([H])([H])C([H])([H])C([H])(n3nc(-c4c([H])c([H])c(Oc5c([H])c([H])c(F)c([H])c5F)c([H])c4[H])c(C(=O)N([H])[H])c3N([H])[H])C2([H])[H])c([H])c(C([H])(C([H])([H])[H])[N+]([H])([H])[H])c1C([H])(C([H])([H])Oc1c([H])c([H])c2c(c1[H])C([H])([H])N(C(=O)C([H])(N([H])C(=O)C([H])(N([H])C([H])([H])[H])C([H])([H])[H])C(C([H])([H])[H])(C([H])([H])[H])C([H])([H])[H])C([H])(C(=O)N([H])C1([H])c3c([H])c([H])c([H])c([H])c3C([H])([H])C([H])([H])C1([H])[H])C2([H])[H])[N+]([H])([H])[H]

>  <smiles>  (26) 
[H]c1nc(C([H])([H])N([H])C(=O)N2C([H])([H])C([H])([H])C([H])([H])C([H])(n3nc(-c4c([H])c([H])c(Oc5c([H])c([H])c(F)c([H])c5F)c([H])c4[H])c(C(=O)N([H])[H])c3N([H])[H])C2([H])[H])c([H])c(C([H])(C([H])([H])[H])[N+]([H])([H])[H])c1C([H])(C([H])([H])Oc1c([H])c([H])c2c(c1[H])C([H])([H])N(C(=O)C([H])(N([H])C(=O)C([H])(N([H])C([H])([H])[H])C([H])([H])[H])C(C([H])([H])[H])(C([H])([H])[H])C([H])([H])[H])C([H])(C(=O)N([H])C1([H])c3c([H])c([H])c([H])c([H])c3C([H])([H])C([H])([H])C1([H])[H])C2([H])[H])[N+]([H])([H])[H]

$$$$
26:0:0
     RDKit          3D

 92 99  0  0  1  0  0  0  0  0999 V2000
  -29.4200  -21.8870   18.4350 C   0  0  0  0  0  1  0  0  0  0  0  0
  -30.5280  -22.0010   20.6540 C   0  0  0  0  0  1  0  0  0  0  0  0
  -29.1640  -21.8440   19.9550 C   0  0  2  0  0  0  0  0  0  0  0  0
  -28.5950  -20.3780   20.2370 N   0  0  0  0  0  4  0  0  0  0  0  0
  -27.9590  -20.5390   21.0020 H   0  0  0  0  0  0  0  0  0  0  0  0
  -27.9900  -20.1250   19.4720 H   0  0  0  0  0  0  0  0  0  0  0  0
  -29.3170  -19.0360   20.7320 C   0  0  0  0  0  2  0  0  0  0  0  0
  -28.4540  -17.5600   18.7710 C   0  0  0  0  0  1  0  0  0  0  0  0
  -30.8920  -17.9270   19.0240 C   0  0  0  0  0  1  0  0  0  0  0  0
  -29.5950  -17.6410   19.8060 C   0  0  1  0  0  0  0  0  0  0  0  0
  -30.4900  -14.9900   20.2460 C   0  0  0  0  0  0  0  0  0  0  0  0
  -30.3770  -12.6210   19.3530 C   0  0  0  0  0  2  0  0  0  0  0  0
  -29.4380  -12.6020   18.1240 C   0  0  0  0  0  2  0  0  0  0  0  0
  -27.9830  -12.3670   18.5720 C   0  0  0  0  0  2  0  0  0  0  0  0
  -27.5870  -13.2860   19.7620 C   0  0  0  0  0  3  0  0  0  0  0  0
  -28.6530  -13.3020   20.8790 C   0  0  0  0  0  2  0  0  0  0  0  0
  -29.9190  -13.7160   20.2600 N   0  0  0  0  0  0  0  0  0  0  0  0
  -31.6710  -15.0590   19.8880 O   0  0  0  0  0  0  0  0  0  0  0  0
  -29.6840  -16.1610   20.4260 N   0  0  0  0  0  0  0  0  0  0  0  0
  -28.8190  -15.9020   20.8790 H   0  0  0  0  0  0  0  0  0  0  0  0
  -25.2160  -13.8500   20.5360 C   0  0  0  0  0  0  0  0  0  0  0  0
  -24.1630  -13.0680   20.9210 C   0  0  0  0  0  0  0  0  0  0  0  0
  -24.6340  -11.7210   20.8770 C   0  0  0  0  0  0  0  0  0  0  0  0
  -26.2590  -12.9780   20.2760 N   0  0  0  0  0  0  0  0  0  0  0  0
  -25.9200  -11.6910   20.5470 N   0  0  0  0  0  0  0  0  0  0  0  0
  -23.9150  -10.4540   21.0690 C   0  0  0  0  0  0  0  0  0  0  0  0
  -24.3710   -9.4760   21.9800 C   0  0  0  0  0  3  0  0  0  0  0  0
  -23.6510   -8.2760   22.1640 C   0  0  0  0  0  3  0  0  0  0  0  0
  -22.4570   -8.0460   21.4370 C   0  0  0  0  0  0  0  0  0  0  0  0
  -22.0200   -9.0120   20.5130 C   0  0  0  0  0  3  0  0  0  0  0  0
  -22.7440  -10.2030   20.3270 C   0  0  0  0  0  3  0  0  0  0  0  0
  -21.7060   -6.9000   21.5330 O   0  0  0  0  0  0  0  0  0  0  0  0
  -21.6970   -6.1370   22.6730 C   0  0  0  0  0  0  0  0  0  0  0  0
  -21.3250   -6.6690   23.9250 C   0  0  0  0  0  3  0  0  0  0  0  0
  -21.2610   -5.8320   25.0570 C   0  0  0  0  0  3  0  0  0  0  0  0
  -21.5610   -4.4620   24.9370 C   0  0  0  0  0  0  0  0  0  0  0  0
  -21.9280   -3.9280   23.6890 C   0  0  0  0  0  3  0  0  0  0  0  0
  -21.9910   -4.7620   22.5600 C   0  0  0  0  0  0  0  0  0  0  0  0
  -22.3240   -4.2370   21.3570 F   0  0  0  0  0  0  0  0  0  0  0  0
  -21.4940   -3.6560   26.0220 F   0  0  0  0  0  0  0  0  0  0  0  0
  -22.7670  -13.5380   21.2120 C   0  0  0  0  0  0  0  0  0  0  0  0
  -22.0560  -12.8370   22.0870 N   0  0  0  0  0  0  0  0  0  0  0  0
  -22.3190  -14.5630   20.6980 O   0  0  0  0  0  0  0  0  0  0  0  0
  -22.4360  -12.0110   22.5230 H   0  0  0  0  0  0  0  0  0  0  0  0
  -21.1160  -13.1270   22.3190 H   0  0  0  0  0  0  0  0  0  0  0  0
  -25.3670  -15.2220   20.3590 N   0  0  0  0  0  0  0  0  0  0  0  0
  -24.5840  -15.8590   20.4580 H   0  0  0  0  0  0  0  0  0  0  0  0
  -26.1850  -15.6610   19.9580 H   0  0  0  0  0  0  0  0  0  0  0  0
  -28.1270  -23.4440   21.8330 C   0  0  0  0  0  1  0  0  0  0  0  0
  -28.2300  -23.2370   20.3170 C   0  0  0  0  0  3  0  0  0  0  0  0
  -28.4160  -24.7740   19.6230 C   0  0  0  0  0  2  0  0  0  0  0  0
  -28.2960  -26.2070   20.2320 O   0  0  0  0  0  0  0  0  0  0  0  0
  -24.6310  -31.8590   23.1950 C   0  0  0  0  0  0  0  0  0  0  0  0
  -27.2110  -27.1510   20.1380 C   0  0  0  0  0  0  0  0  0  0  0  0
  -23.4260  -30.4570   21.5620 C   0  0  0  0  0  3  0  0  0  0  0  0
  -24.8710  -28.8780   20.1290 C   0  0  0  0  0  0  0  0  0  0  0  0
  -25.9780  -30.7250   21.3870 C   0  0  0  0  0  2  0  0  0  0  0  0
  -26.0490  -29.3320   20.7330 C   0  0  0  0  0  0  0  0  0  0  0  0
  -27.2150  -28.4800   20.7260 C   0  0  0  0  0  3  0  0  0  0  0  0
  -26.0060  -26.7890   19.5030 C   0  0  0  0  0  3  0  0  0  0  0  0
  -24.8600  -27.6200   19.5030 C   0  0  0  0  0  3  0  0  0  0  0  0
  -23.6430  -29.7760   20.1830 C   0  0  0  0  0  2  0  0  0  0  0  0
  -24.6990  -31.0360   22.1030 N   0  0  0  0  0  0  0  0  0  0  0  0
  -23.5480  -32.1420   23.7270 O   0  0  0  0  0  0  0  0  0  0  0  0
  -22.7550  -29.4520   22.5310 C   0  0  0  0  0  0  0  0  0  0  0  0
  -21.4260  -29.2800   22.4140 N   0  0  0  0  0  0  0  0  0  0  0  0
  -23.4330  -28.8270   23.3500 O   0  0  0  0  0  0  0  0  0  0  0  0
  -20.9330  -29.8370   21.7300 H   0  0  0  0  0  0  0  0  0  0  0  0
  -18.0540  -28.0690   22.9370 C   0  0  0  0  0  0  0  0  0  0  0  0
  -20.6120  -28.3440   23.1930 C   0  0  0  0  0  3  0  0  0  0  0  0
  -20.7180  -26.9100   22.6270 C   0  0  0  0  0  2  0  0  0  0  0  0
  -19.6150  -26.5760   21.6180 C   0  0  0  0  0  2  0  0  0  0  0  0
  -18.2340  -26.7180   22.2640 C   0  0  0  0  0  2  0  0  0  0  0  0
  -19.1710  -28.8380   23.3600 C   0  0  0  0  0  0  0  0  0  0  0  0
  -18.9470  -30.1000   23.9500 C   0  0  0  0  0  3  0  0  0  0  0  0
  -17.6400  -30.5950   24.1200 C   0  0  0  0  0  3  0  0  0  0  0  0
  -16.5390  -29.8240   23.7130 C   0  0  0  0  0  3  0  0  0  0  0  0
  -16.7450  -28.5620   23.1260 C   0  0  0  0  0  3  0  0  0  0  0  0
  -25.9120  -32.5020   23.8140 C   0  0  0  0  0  3  0  0  0  0  0  0
  -25.5900  -33.8970   24.1570 N   0  0  0  0  0  0  0  0  0  0  0  0
  -25.9080  -34.9620   23.4080 C   0  0  0  0  0  0  0  0  0  0  0  0
  -26.5680  -34.8740   22.3690 O   0  0  0  0  0  0  0  0  0  0  0  0
  -25.0040  -34.0380   24.9650 H   0  0  0  0  0  0  0  0  0  0  0  0
  -24.1650  -36.7530   23.0960 C   0  0  0  0  0  1  0  0  0  0  0  0
  -25.4180  -36.3430   23.8870 C   0  0  0  0  0  3  0  0  0  0  0  0
  -27.5580  -37.2360   24.6990 C   0  0  0  0  0  1  0  0  0  0  0  0
  -26.4420  -37.4050   23.7730 N   0  0  0  0  0  0  0  0  0  0  0  0
  -26.0290  -38.3200   23.9350 H   0  0  0  0  0  0  0  0  0  0  0  0
  -26.4350  -31.7310   25.0890 C   0  0  1  0  0  0  0  0  0  0  0  0
  -25.3490  -31.4920   26.1640 C   0  0  0  0  0  1  0  0  0  0  0  0
  -27.0200  -30.3540   24.7000 C   0  0  0  0  0  1  0  0  0  0  0  0
  -27.5840  -32.5290   25.7490 C   0  0  0  0  0  1  0  0  0  0  0  0
  3  1  1  6
  3  4  1  0
  3 50  1  0
  3  2  1  0
  4  7  1  0
  4  5  1  0
  6  4  1  0
 10  8  1  6
  9 10  1  0
 10 19  1  0
 10  7  1  0
 11 17  1  0
 11 19  1  0
 12 17  1  0
 13 14  1  0
 13 12  1  0
 15 14  1  0
 15 24  1  0
 15 16  1  0
 17 16  1  0
 18 11  2  0
 19 20  1  0
 21 22  2  0
 22 41  1  0
 23 22  1  0
 23 26  1  0
 24 21  1  0
 24 25  1  0
 25 23  2  0
 26 27  1  0
 27 28  2  0
 29 32  1  0
 29 28  1  0
 30 29  2  0
 31 30  1  0
 31 26  2  0
 32 33  1  0
 33 34  1  0
 34 35  2  0
 36 35  1  0
 36 40  1  0
 37 36  2  0
 38 33  2  0
 38 37  1  0
 39 38  1  0
 41 42  1  0
 42 45  1  0
 42 44  1  0
 43 41  2  0
 46 47  1  0
 46 21  1  0
 48 46  1  0
 50 49  1  0
 51 52  1  0
 51 50  1  0
 53 64  2  0
 54 52  1  0
 54 59  1  0
 55 63  1  0
 55 65  1  0
 56 62  1  0
 56 58  1  0
 57 63  1  0
 58 57  1  0
 59 58  2  0
 60 54  2  0
 61 60  1  0
 61 56  2  0
 62 55  1  0
 63 53  1  0
 65 67  2  0
 66 65  1  0
 68 66  1  0
 69 78  2  0
 69 74  1  0
 70 66  1  0
 70 74  1  0
 71 70  1  0
 72 73  1  0
 72 71  1  0
 73 69  1  0
 74 75  2  0
 75 76  1  0
 77 76  2  0
 78 77  1  0
 79 53  1  0
 79 80  1  0
 79 89  1  0
 80 83  1  0
 81 85  1  0
 81 80  1  0
 82 81  2  0
 85 84  1  0
 87 85  1  0
 87 88  1  0
 87 86  1  0
 89 92  1  1
 89 90  1  0
 91 89  1  0
M  ISO  4  11 100  19 100  51 101  52 101
M  END
>  <TORSDO>  (27) 
F 21

>  <SCORE>  (27) 
-15.053

>  <name>  (27) 
26

>  <ligand_id>  (27) 
26

>  <original_smiles>  (27) 
[H]c1c([H])c([H])c2c(c1[H])C([H])([H])C([H])([H])C([H])([H])C2([H])N([H])C(=O)C1([H])N(C(=O)C([H])(N([H])C(=O)C([H])(N([H])C([H])([H])[H])C([H])([H])[H])C(C([H])([H])[H])(C([H])([H])[H])C([H])([H])[H])C([H])([H])c2c([H])c(OC([H])([H])C([H])(C([H])([H])[H])C(C([H])([H])[H])(C([H])([H])[H])[N+]([H])([H])C([H])([H])C(N([H])C(=O)N3C([H])([H])C([H])([H])C([H])([H])C([H])(n4nc(-c5c([H])c([H])c(Oc6c([H])c([H])c(F)c([H])c6F)c([H])c5[H])c(C(=O)N([H])[H])c4N([H])[H])C3([H])[H])(C([H])([H])[H])C([H])([H])[H])c([H])c([H])c2C1([H])[H]

>  <smiles>  (27) 
[H]c1c([H])c([H])c2c(c1[H])C([H])([H])C([H])([H])C([H])([H])C2([H])N([H])C(=O)C1([H])N(C(=O)C([H])(N([H])C(=O)C([H])(N([H])C([H])([H])[H])C([H])([H])[H])C(C([H])([H])[H])(C([H])([H])[H])C([H])([H])[H])C([H])([H])c2c([H])c(OC([H])([H])C([H])(C([H])([H])[H])C(C([H])([H])[H])(C([H])([H])[H])[N+]([H])([H])C([H])([H])C(N([H])C(=O)N3C([H])([H])C([H])([H])C([H])([H])C([H])(n4nc(-c5c([H])c([H])c(Oc6c([H])c([H])c(F)c([H])c6F)c([H])c5[H])c(C(=O)N([H])[H])c4N([H])[H])C3([H])[H])(C([H])([H])[H])C([H])([H])[H])c([H])c([H])c2C1([H])[H]

$$$$
27:0:0
     RDKit          3D

 89 96  0  0  1  0  0  0  0  0999 V2000
  -28.9440  -21.1570   20.0250 N   0  0  1  0  0  4  0  0  0  0  0  0
  -28.6860  -20.9520   20.9790 H   0  0  0  0  0  0  0  0  0  0  0  0
  -27.0150  -19.6470   19.3620 C   0  0  0  0  0  1  0  0  0  0  0  0
  -27.7160  -21.5660   17.8500 C   0  0  0  0  0  1  0  0  0  0  0  0
  -27.6360  -21.0540   19.3040 C   0  0  0  0  0  3  0  0  0  0  0  0
  -29.9090  -19.8260   19.6660 C   0  0  0  0  0  2  0  0  0  0  0  0
  -30.0750  -18.2240   20.4830 C   0  0  0  0  0  2  0  0  0  0  0  0
  -30.7640  -15.3520   19.9720 C   0  0  0  0  0  0  0  0  0  0  0  0
  -30.6480  -12.9350   19.0230 C   0  0  0  0  0  2  0  0  0  0  0  0
  -29.6570  -12.7650   17.8450 C   0  0  0  0  0  2  0  0  0  0  0  0
  -28.2240  -12.5320   18.3550 C   0  0  0  0  0  2  0  0  0  0  0  0
  -27.8580  -13.4830   19.5210 C   0  0  0  0  0  3  0  0  0  0  0  0
  -28.9680  -13.5780   20.5860 C   0  0  0  0  0  2  0  0  0  0  0  0
  -30.1660  -14.0690   19.8870 N   0  0  0  0  0  0  0  0  0  0  0  0
  -31.9920  -15.3330   19.8180 O   0  0  0  0  0  0  0  0  0  0  0  0
  -29.9930  -16.6180   20.0120 N   0  0  0  0  0  0  0  0  0  0  0  0
  -29.0230  -16.3690   19.8740 H   0  0  0  0  0  0  0  0  0  0  0  0
  -25.5430  -14.0930   20.4030 C   0  0  0  0  0  0  0  0  0  0  0  0
  -24.4810  -13.3370   20.8060 C   0  0  0  0  0  0  0  0  0  0  0  0
  -24.9130  -11.9750   20.7310 C   0  0  0  0  0  0  0  0  0  0  0  0
  -26.5530  -13.1940   20.0960 N   0  0  0  0  0  0  0  0  0  0  0  0
  -26.1870  -11.9150   20.3620 N   0  0  0  0  0  0  0  0  0  0  0  0
  -24.1650  -10.7300   20.9310 C   0  0  0  0  0  0  0  0  0  0  0  0
  -24.5790   -9.7620   21.8720 C   0  0  0  0  0  3  0  0  0  0  0  0
  -23.8290   -8.5810   22.0590 C   0  0  0  0  0  3  0  0  0  0  0  0
  -22.6510   -8.3580   21.3080 C   0  0  0  0  0  0  0  0  0  0  0  0
  -22.2570   -9.3140   20.3560 C   0  0  0  0  0  3  0  0  0  0  0  0
  -23.0060  -10.4880   20.1670 C   0  0  0  0  0  3  0  0  0  0  0  0
  -21.8750   -7.2300   21.4060 O   0  0  0  0  0  0  0  0  0  0  0  0
  -21.7730   -6.5260   22.5790 C   0  0  0  0  0  0  0  0  0  0  0  0
  -21.2830   -7.1200   23.7630 C   0  0  0  0  0  3  0  0  0  0  0  0
  -21.1290   -6.3430   24.9270 C   0  0  0  0  0  3  0  0  0  0  0  0
  -21.4500   -4.9730   24.9080 C   0  0  0  0  0  0  0  0  0  0  0  0
  -21.9310   -4.3790   23.7270 C   0  0  0  0  0  3  0  0  0  0  0  0
  -22.0890   -5.1530   22.5650 C   0  0  0  0  0  0  0  0  0  0  0  0
  -22.5310   -4.5710   21.4240 F   0  0  0  0  0  0  0  0  0  0  0  0
  -21.2940   -4.2240   26.0240 F   0  0  0  0  0  0  0  0  0  0  0  0
  -23.1090  -13.8390   21.1400 C   0  0  0  0  0  0  0  0  0  0  0  0
  -22.4100  -13.1570   22.0400 N   0  0  0  0  0  0  0  0  0  0  0  0
  -22.6700  -14.8740   20.6400 O   0  0  0  0  0  0  0  0  0  0  0  0
  -22.7790  -12.3160   22.4600 H   0  0  0  0  0  0  0  0  0  0  0  0
  -21.4890  -13.4750   22.3050 H   0  0  0  0  0  0  0  0  0  0  0  0
  -25.7290  -15.4630   20.2350 N   0  0  0  0  0  0  0  0  0  0  0  0
  -24.9770  -16.1280   20.3810 H   0  0  0  0  0  0  0  0  0  0  0  0
  -26.5560  -15.8870   19.8430 H   0  0  0  0  0  0  0  0  0  0  0  0
  -29.3380  -22.7840   20.1950 C   0  0  0  0  0  2  0  0  0  0  0  0
  -28.4420  -24.4150   18.3170 C   0  0  0  0  0  1  0  0  0  0  0  0
  -28.4080  -24.3100   19.8590 C   0  0  0  0  0  3  0  0  0  0  0  0
  -28.5230  -25.9010   20.3270 O   0  0  0  0  0  0  0  0  0  0  0  0
  -24.6550  -31.7450   23.2370 C   0  0  0  0  0  0  0  0  0  0  0  0
  -27.4790  -26.9740   20.2630 C   0  0  0  0  0  0  0  0  0  0  0  0
  -23.5790  -30.3400   21.5330 C   0  0  0  0  0  3  0  0  0  0  0  0
  -25.1320  -28.8030   20.1630 C   0  0  0  0  0  0  0  0  0  0  0  0
  -26.1480  -30.6190   21.5100 C   0  0  0  0  0  2  0  0  0  0  0  0
  -26.2860  -29.2240   20.8340 C   0  0  0  0  0  0  0  0  0  0  0  0
  -27.4570  -28.3360   20.8540 C   0  0  0  0  0  3  0  0  0  0  0  0
  -26.2710  -26.7020   19.5800 C   0  0  0  0  0  3  0  0  0  0  0  0
  -25.1480  -27.5600   19.5200 C   0  0  0  0  0  3  0  0  0  0  0  0
  -23.8900  -29.6900   20.1620 C   0  0  0  0  0  2  0  0  0  0  0  0
  -24.8130  -30.9280   22.1460 N   0  0  0  0  0  0  0  0  0  0  0  0
  -23.5360  -31.9960   23.7140 O   0  0  0  0  0  0  0  0  0  0  0  0
  -22.8680  -29.3090   22.4510 C   0  0  0  0  0  0  0  0  0  0  0  0
  -21.5470  -29.1210   22.2710 N   0  0  0  0  0  0  0  0  0  0  0  0
  -23.5150  -28.6770   23.2900 O   0  0  0  0  0  0  0  0  0  0  0  0
  -21.0790  -29.6790   21.5710 H   0  0  0  0  0  0  0  0  0  0  0  0
  -18.1600  -27.8760   22.6650 C   0  0  0  0  0  0  0  0  0  0  0  0
  -20.7120  -28.1560   22.9960 C   0  0  0  0  0  3  0  0  0  0  0  0
  -20.8390  -26.7430   22.3830 C   0  0  0  0  0  2  0  0  0  0  0  0
  -19.7630  -26.4410   21.3340 C   0  0  0  0  0  2  0  0  0  0  0  0
  -18.3650  -26.5520   21.9490 C   0  0  0  0  0  2  0  0  0  0  0  0
  -19.2610  -28.6370   23.1420 C   0  0  0  0  0  0  0  0  0  0  0  0
  -19.0120  -29.8760   23.7730 C   0  0  0  0  0  3  0  0  0  0  0  0
  -17.6960  -30.3560   23.9220 C   0  0  0  0  0  3  0  0  0  0  0  0
  -16.6110  -29.5920   23.4600 C   0  0  0  0  0  3  0  0  0  0  0  0
  -16.8440  -28.3530   22.8370 C   0  0  0  0  0  3  0  0  0  0  0  0
  -25.8780  -32.4110   23.9370 C   0  0  0  0  0  3  0  0  0  0  0  0
  -25.5280  -33.8170   24.2160 N   0  0  0  0  0  0  0  0  0  0  0  0
  -25.9020  -34.8610   23.4650 C   0  0  0  0  0  0  0  0  0  0  0  0
  -26.6370  -34.7450   22.4820 O   0  0  0  0  0  0  0  0  0  0  0  0
  -24.8740  -33.9790   24.9670 H   0  0  0  0  0  0  0  0  0  0  0  0
  -24.1780  -36.6320   22.9890 C   0  0  0  0  0  1  0  0  0  0  0  0
  -25.3790  -36.2550   23.8700 C   0  0  0  0  0  3  0  0  0  0  0  0
  -27.4500  -37.1870   24.8000 C   0  0  0  0  0  1  0  0  0  0  0  0
  -26.4040  -37.3170   23.7880 N   0  0  0  0  0  0  0  0  0  0  0  0
  -25.9800  -38.2350   23.8860 H   0  0  0  0  0  0  0  0  0  0  0  0
  -26.3020  -31.6810   25.2730 C   0  0  1  0  0  0  0  0  0  0  0  0
  -25.1290  -31.4540   26.2560 C   0  0  0  0  0  1  0  0  0  0  0  0
  -26.9270  -30.3010   24.9740 C   0  0  0  0  0  1  0  0  0  0  0  0
  -27.3890  -32.5080   25.9960 C   0  0  0  0  0  1  0  0  0  0  0  0
  1 46  1  0
  1  2  1  1
  4  5  1  0
  5  3  1  0
  5  1  1  0
  6  1  1  0
  6  7  1  0
  8 16  1  0
  9 14  1  0
 10 11  1  0
 10  9  1  0
 12 11  1  0
 12 21  1  0
 12 13  1  0
 14  8  1  0
 14 13  1  0
 15  8  2  0
 16  7  1  0
 17 16  1  0
 18 19  2  0
 19 38  1  0
 20 19  1  0
 20 23  1  0
 21 22  1  0
 21 18  1  0
 22 20  2  0
 23 24  1  0
 24 25  2  0
 26 29  1  0
 26 25  1  0
 27 26  2  0
 28 27  1  0
 28 23  2  0
 29 30  1  0
 30 31  1  0
 31 32  2  0
 33 32  1  0
 33 37  1  0
 34 33  2  0
 35 30  2  0
 35 34  1  0
 36 35  1  0
 38 39  1  0
 39 42  1  0
 39 41  1  0
 40 38  2  0
 43 44  1  0
 43 18  1  0
 45 43  1  0
 48 47  1  0
 48 46  1  0
 48 49  1  0
 50 61  2  0
 51 49  1  0
 51 56  1  0
 52 60  1  0
 52 62  1  0
 53 55  1  0
 54 60  1  0
 55 56  2  0
 55 54  1  0
 57 51  2  0
 58 57  1  0
 58 53  2  0
 59 53  1  0
 59 52  1  0
 60 50  1  0
 62 64  2  0
 63 62  1  0
 65 63  1  0
 66 75  2  0
 66 71  1  0
 67 63  1  0
 67 71  1  0
 68 67  1  0
 69 70  1  0
 69 68  1  0
 70 66  1  0
 71 72  2  0
 72 73  1  0
 74 73  2  0
 75 74  1  0
 76 50  1  0
 76 77  1  0
 76 86  1  0
 77 80  1  0
 78 82  1  0
 78 77  1  0
 79 78  2  0
 82 81  1  0
 84 82  1  0
 84 85  1  0
 84 83  1  0
 86 89  1  1
 86 87  1  0
 88 86  1  0
M  ISO  4   8 100  16 100  48 101  49 101
M  END
>  <TORSDO>  (28) 
F 21

>  <SCORE>  (28) 
-15.730

>  <name>  (28) 
27

>  <ligand_id>  (28) 
27

>  <original_smiles>  (28) 
[H]c1c([H])c([H])c2c(c1[H])C([H])([H])C([H])([H])C([H])([H])C2([H])N([H])C(=O)C1([H])N(C(=O)C([H])(N([H])C(=O)C([H])(N([H])C([H])([H])[H])C([H])([H])[H])C(C([H])([H])[H])(C([H])([H])[H])C([H])([H])[H])C([H])([H])c2c([H])c(OC([H])(C([H])([H])[H])C([H])([H])[N+]([H])(C([H])([H])C([H])([H])N([H])C(=O)N3C([H])([H])C([H])([H])C([H])([H])C([H])(n4nc(-c5c([H])c([H])c(Oc6c([H])c([H])c(F)c([H])c6F)c([H])c5[H])c(C(=O)N([H])[H])c4N([H])[H])C3([H])[H])C([H])(C([H])([H])[H])C([H])([H])[H])c([H])c([H])c2C1([H])[H]

>  <smiles>  (28) 
[H]c1c([H])c([H])c2c(c1[H])C([H])([H])C([H])([H])C([H])([H])C2([H])N([H])C(=O)C1([H])N(C(=O)C([H])(N([H])C(=O)C([H])(N([H])C([H])([H])[H])C([H])([H])[H])C(C([H])([H])[H])(C([H])([H])[H])C([H])([H])[H])C([H])([H])c2c([H])c(OC([H])(C([H])([H])[H])C([H])([H])[N+]([H])(C([H])([H])C([H])([H])N([H])C(=O)N3C([H])([H])C([H])([H])C([H])([H])C([H])(n4nc(-c5c([H])c([H])c(Oc6c([H])c([H])c(F)c([H])c6F)c([H])c5[H])c(C(=O)N([H])[H])c4N([H])[H])C3([H])[H])C([H])(C([H])([H])[H])C([H])([H])[H])c([H])c([H])c2C1([H])[H]

$$$$
28:0:0
     RDKit          3D

 87 94  0  0  1  0  0  0  0  0999 V2000
  -28.9400  -22.7370   20.5520 C   0  0  0  0  0  2  0  0  0  0  0  0
  -28.8690  -21.1670   19.9750 N   0  0  0  0  0  4  0  0  0  0  0  0
  -27.9160  -21.0380   19.6750 H   0  0  0  0  0  0  0  0  0  0  0  0
  -29.4000  -21.1980   19.1190 H   0  0  0  0  0  0  0  0  0  0  0  0
  -29.2660  -19.7010   20.6720 C   0  0  0  0  0  2  0  0  0  0  0  0
  -29.6800  -18.1220   19.9050 C   0  0  0  0  0  2  0  0  0  0  0  0
  -30.4230  -15.2650   20.2040 C   0  0  0  0  0  0  0  0  0  0  0  0
  -30.3740  -12.8200   19.3400 C   0  0  0  0  0  2  0  0  0  0  0  0
  -29.4420  -12.6530   18.1130 C   0  0  0  0  0  2  0  0  0  0  0  0
  -27.9940  -12.3910   18.5630 C   0  0  0  0  0  2  0  0  0  0  0  0
  -27.5660  -13.3450   19.7070 C   0  0  0  0  0  3  0  0  0  0  0  0
  -28.6270  -13.4600   20.8260 C   0  0  0  0  0  2  0  0  0  0  0  0
  -29.8620  -13.9550   20.1980 N   0  0  0  0  0  0  0  0  0  0  0  0
  -31.6110  -15.2810   19.8560 O   0  0  0  0  0  0  0  0  0  0  0  0
  -29.6670  -16.5230   20.4120 N   0  0  0  0  0  0  0  0  0  0  0  0
  -28.7690  -16.2980   20.8190 H   0  0  0  0  0  0  0  0  0  0  0  0
  -25.2000  -13.9100   20.4730 C   0  0  0  0  0  0  0  0  0  0  0  0
  -24.1400  -13.1350   20.8530 C   0  0  0  0  0  0  0  0  0  0  0  0
  -24.6050  -11.7840   20.8220 C   0  0  0  0  0  0  0  0  0  0  0  0
  -26.2400  -13.0330   20.2230 N   0  0  0  0  0  0  0  0  0  0  0  0
  -25.8950  -11.7480   20.5010 N   0  0  0  0  0  0  0  0  0  0  0  0
  -23.8770  -10.5230   21.0210 C   0  0  0  0  0  0  0  0  0  0  0  0
  -24.3230   -9.5490   21.9430 C   0  0  0  0  0  3  0  0  0  0  0  0
  -23.5920   -8.3560   22.1340 C   0  0  0  0  0  3  0  0  0  0  0  0
  -22.4030   -8.1270   21.4020 C   0  0  0  0  0  0  0  0  0  0  0  0
  -21.9760   -9.0880   20.4680 C   0  0  0  0  0  3  0  0  0  0  0  0
  -22.7070  -10.2730   20.2770 C   0  0  0  0  0  3  0  0  0  0  0  0
  -21.6430   -6.9860   21.5020 O   0  0  0  0  0  0  0  0  0  0  0  0
  -21.6250   -6.2320   22.6470 C   0  0  0  0  0  0  0  0  0  0  0  0
  -21.2520   -6.7790   23.8930 C   0  0  0  0  0  3  0  0  0  0  0  0
  -21.1780   -5.9520   25.0320 C   0  0  0  0  0  3  0  0  0  0  0  0
  -21.4690   -4.5800   24.9260 C   0  0  0  0  0  0  0  0  0  0  0  0
  -21.8350   -4.0310   23.6840 C   0  0  0  0  0  3  0  0  0  0  0  0
  -21.9090   -4.8550   22.5480 C   0  0  0  0  0  0  0  0  0  0  0  0
  -22.2430   -4.3180   21.3500 F   0  0  0  0  0  0  0  0  0  0  0  0
  -21.3910   -3.7830   26.0180 F   0  0  0  0  0  0  0  0  0  0  0  0
  -22.7450  -13.6150   21.1290 C   0  0  0  0  0  0  0  0  0  0  0  0
  -22.0230  -12.9270   22.0060 N   0  0  0  0  0  0  0  0  0  0  0  0
  -22.3060  -14.6360   20.6020 O   0  0  0  0  0  0  0  0  0  0  0  0
  -22.3930  -12.1020   22.4530 H   0  0  0  0  0  0  0  0  0  0  0  0
  -21.0860  -13.2310   22.2330 H   0  0  0  0  0  0  0  0  0  0  0  0
  -25.3610  -15.2800   20.2890 N   0  0  0  0  0  0  0  0  0  0  0  0
  -24.5900  -15.9310   20.4040 H   0  0  0  0  0  0  0  0  0  0  0  0
  -26.1920  -15.7140   19.9100 H   0  0  0  0  0  0  0  0  0  0  0  0
  -26.6510  -23.8740   20.9700 C   0  0  0  0  0  1  0  0  0  0  0  0
  -27.9340  -24.1880   20.1750 C   0  0  0  0  0  3  0  0  0  0  0  0
  -28.1610  -25.8290   20.3420 O   0  0  0  0  0  0  0  0  0  0  0  0
  -24.6540  -31.8640   23.2000 C   0  0  0  0  0  0  0  0  0  0  0  0
  -27.1740  -26.9490   20.2200 C   0  0  0  0  0  0  0  0  0  0  0  0
  -23.4490  -30.4610   21.5740 C   0  0  0  0  0  3  0  0  0  0  0  0
  -24.8890  -28.8470   20.1540 C   0  0  0  0  0  0  0  0  0  0  0  0
  -26.0160  -30.6560   21.4260 C   0  0  0  0  0  2  0  0  0  0  0  0
  -26.0760  -29.2420   20.7820 C   0  0  0  0  0  0  0  0  0  0  0  0
  -27.2090  -28.3120   20.7990 C   0  0  0  0  0  3  0  0  0  0  0  0
  -25.9780  -26.7320   19.4960 C   0  0  0  0  0  3  0  0  0  0  0  0
  -24.8650  -27.6110   19.4890 C   0  0  0  0  0  3  0  0  0  0  0  0
  -23.6730  -29.7710   20.2010 C   0  0  0  0  0  2  0  0  0  0  0  0
  -24.7280  -31.0220   22.1190 N   0  0  0  0  0  0  0  0  0  0  0  0
  -23.5680  -32.1620   23.7210 O   0  0  0  0  0  0  0  0  0  0  0  0
  -22.7550  -29.4750   22.5480 C   0  0  0  0  0  0  0  0  0  0  0  0
  -21.4240  -29.3180   22.4310 N   0  0  0  0  0  0  0  0  0  0  0  0
  -23.4220  -28.8490   23.3780 O   0  0  0  0  0  0  0  0  0  0  0  0
  -20.9390  -29.8710   21.7380 H   0  0  0  0  0  0  0  0  0  0  0  0
  -18.0370  -28.1310   22.9630 C   0  0  0  0  0  0  0  0  0  0  0  0
  -20.6000  -28.3900   23.2140 C   0  0  0  0  0  3  0  0  0  0  0  0
  -20.6940  -26.9530   22.6520 C   0  0  0  0  0  2  0  0  0  0  0  0
  -19.5880  -26.6240   21.6450 C   0  0  0  0  0  2  0  0  0  0  0  0
  -18.2100  -26.7770   22.2920 C   0  0  0  0  0  2  0  0  0  0  0  0
  -19.1600  -28.8950   23.3810 C   0  0  0  0  0  0  0  0  0  0  0  0
  -18.9440  -30.1590   23.9710 C   0  0  0  0  0  3  0  0  0  0  0  0
  -17.6400  -30.6590   24.1460 C   0  0  0  0  0  3  0  0  0  0  0  0
  -16.5330  -29.8930   23.7410 C   0  0  0  0  0  3  0  0  0  0  0  0
  -16.7330  -28.6300   23.1560 C   0  0  0  0  0  3  0  0  0  0  0  0
  -25.9300  -32.5060   23.8230 C   0  0  0  0  0  3  0  0  0  0  0  0
  -26.4470  -31.7390   25.1030 C   0  0  1  0  0  0  0  0  0  0  0  0
  -25.3540  -31.5080   26.1740 C   0  0  0  0  0  1  0  0  0  0  0  0
  -27.0270  -30.3570   24.7260 C   0  0  0  0  0  1  0  0  0  0  0  0
  -27.6020  -32.5330   25.7590 C   0  0  0  0  0  1  0  0  0  0  0  0
  -25.6120  -33.9040   24.1660 N   0  0  0  0  0  0  0  0  0  0  0  0
  -25.9310  -34.9690   23.4190 C   0  0  0  0  0  0  0  0  0  0  0  0
  -26.5860  -34.8790   22.3780 O   0  0  0  0  0  0  0  0  0  0  0  0
  -25.0260  -34.0460   24.9750 H   0  0  0  0  0  0  0  0  0  0  0  0
  -24.1880  -36.7640   23.1240 C   0  0  0  0  0  1  0  0  0  0  0  0
  -25.4500  -36.3550   23.9010 C   0  0  0  0  0  3  0  0  0  0  0  0
  -27.6000  -37.2430   24.6890 C   0  0  0  0  0  1  0  0  0  0  0  0
  -26.4760  -37.4130   23.7720 N   0  0  0  0  0  0  0  0  0  0  0  0
  -26.0710  -38.3310   23.9340 H   0  0  0  0  0  0  0  0  0  0  0  0
  2  1  1  0
  2  5  1  0
  3  2  1  0
  4  2  1  0
  6 15  1  0
  6  5  1  0
  7 15  1  0
  8 13  1  0
  9 10  1  0
  9  8  1  0
 11 10  1  0
 11 20  1  0
 11 12  1  0
 13  7  1  0
 13 12  1  0
 14  7  2  0
 15 16  1  0
 17 18  2  0
 18 37  1  0
 19 18  1  0
 19 22  1  0
 20 17  1  0
 20 21  1  0
 21 19  2  0
 22 23  1  0
 23 24  2  0
 25 28  1  0
 25 24  1  0
 26 25  2  0
 27 26  1  0
 27 22  2  0
 28 29  1  0
 29 30  1  0
 30 31  2  0
 32 31  1  0
 32 36  1  0
 33 32  2  0
 34 29  2  0
 34 33  1  0
 35 34  1  0
 37 38  1  0
 38 41  1  0
 38 40  1  0
 39 37  2  0
 42 43  1  0
 42 17  1  0
 44 42  1  0
 46 47  1  0
 46  1  1  0
 46 45  1  0
 48 59  2  0
 49 47  1  0
 49 54  1  0
 50 58  1  0
 50 60  1  0
 51 57  1  0
 51 53  1  0
 52 58  1  0
 53 54  2  0
 53 52  1  0
 55 49  2  0
 56 55  1  0
 56 51  2  0
 57 50  1  0
 58 48  1  0
 60 62  2  0
 61 60  1  0
 63 61  1  0
 64 73  2  0
 64 69  1  0
 65 61  1  0
 65 69  1  0
 66 65  1  0
 67 68  1  0
 67 66  1  0
 68 64  1  0
 69 70  2  0
 70 71  1  0
 72 71  2  0
 73 72  1  0
 74 48  1  0
 74 79  1  0
 74 75  1  0
 75 78  1  1
 75 76  1  0
 77 75  1  0
 79 82  1  0
 80 84  1  0
 80 79  1  0
 81 80  2  0
 84 83  1  0
 86 84  1  0
 86 87  1  0
 86 85  1  0
M  ISO  4   7 100  15 100  46 101  47 101
M  END
>  <TORSDO>  (29) 
F 20

>  <SCORE>  (29) 
-16.389

>  <name>  (29) 
28

>  <ligand_id>  (29) 
28

>  <original_smiles>  (29) 
[H]c1c([H])c([H])c2c(c1[H])C([H])([H])C([H])([H])C([H])([H])C2([H])N([H])C(=O)C1([H])N(C(=O)C([H])(N([H])C(=O)C([H])(N([H])C([H])([H])[H])C([H])([H])[H])C(C([H])([H])[H])(C([H])([H])[H])C([H])([H])[H])C([H])([H])c2c([H])c(OC([H])(C([H])([H])[H])C([H])([H])[N+]([H])([H])C([H])([H])C([H])([H])N([H])C(=O)N3C([H])([H])C([H])([H])C([H])([H])C([H])(n4nc(-c5c([H])c([H])c(Oc6c([H])c([H])c(F)c([H])c6F)c([H])c5[H])c(C(=O)N([H])[H])c4N([H])[H])C3([H])[H])c([H])c([H])c2C1([H])[H]

>  <smiles>  (29) 
[H]c1c([H])c([H])c2c(c1[H])C([H])([H])C([H])([H])C([H])([H])C2([H])N([H])C(=O)C1([H])N(C(=O)C([H])(N([H])C(=O)C([H])(N([H])C([H])([H])[H])C([H])([H])[H])C(C([H])([H])[H])(C([H])([H])[H])C([H])([H])[H])C([H])([H])c2c([H])c(OC([H])(C([H])([H])[H])C([H])([H])[N+]([H])([H])C([H])([H])C([H])([H])N([H])C(=O)N3C([H])([H])C([H])([H])C([H])([H])C([H])(n4nc(-c5c([H])c([H])c(Oc6c([H])c([H])c(F)c([H])c6F)c([H])c5[H])c(C(=O)N([H])[H])c4N([H])[H])C3([H])[H])c([H])c([H])c2C1([H])[H]

$$$$
29:0:0
     RDKit          3D

 90 98  0  0  1  0  0  0  0  0999 V2000
  -27.6410  -20.2340   20.0240 C   0  0  0  0  0  3  0  0  0  0  0  0
  -27.9180  -18.0390   19.7820 C   0  0  0  0  0  3  0  0  0  0  0  0
  -26.9630  -19.0130   19.8230 C   0  0  0  0  0  0  0  0  0  0  0  0
  -28.9950  -20.0520   20.1100 C   0  0  0  0  0  0  0  0  0  0  0  0
  -25.4700  -18.8680   19.6650 C   0  0  0  0  0  1  0  0  0  0  0  0
  -29.2110  -18.5610   19.9140 N   0  0  0  0  0  0  0  0  0  0  0  0
  -29.8410  -21.4380   20.2810 C   0  0  0  0  0  2  0  0  0  0  0  0
  -29.2140  -22.9140   20.8960 C   0  0  0  0  0  2  0  0  0  0  0  0
  -30.2640  -24.7100   19.2720 C   0  0  0  0  0  1  0  0  0  0  0  0
  -29.0370  -24.4260   20.1430 C   0  0  0  0  0  3  0  0  0  0  0  0
  -28.8300  -25.8170   20.8410 O   0  0  0  0  0  0  0  0  0  0  0  0
  -24.6730  -31.3610   23.3660 C   0  0  0  0  0  0  0  0  0  0  0  0
  -27.7520  -26.7590   20.6110 C   0  0  0  0  0  0  0  0  0  0  0  0
  -23.7190  -29.9330   21.6000 C   0  0  0  0  0  3  0  0  0  0  0  0
  -25.3750  -28.4260   20.3350 C   0  0  0  0  0  0  0  0  0  0  0  0
  -26.2630  -30.2920   21.7250 C   0  0  0  0  0  2  0  0  0  0  0  0
  -26.4600  -28.9070   21.0780 C   0  0  0  0  0  0  0  0  0  0  0  0
  -27.6430  -28.0850   21.2050 C   0  0  0  0  0  3  0  0  0  0  0  0
  -26.6420  -26.3940   19.8140 C   0  0  0  0  0  3  0  0  0  0  0  0
  -25.4820  -27.1860   19.6930 C   0  0  0  0  0  3  0  0  0  0  0  0
  -24.1160  -29.2720   20.2530 C   0  0  0  0  0  2  0  0  0  0  0  0
  -24.8990  -30.5500   22.2860 N   0  0  0  0  0  0  0  0  0  0  0  0
  -23.5250  -31.5980   23.7710 O   0  0  0  0  0  0  0  0  0  0  0  0
  -22.9760  -28.8920   22.4770 C   0  0  0  0  0  0  0  0  0  0  0  0
  -21.6800  -28.6670   22.1970 N   0  0  0  0  0  0  0  0  0  0  0  0
  -23.5720  -28.2910   23.3730 O   0  0  0  0  0  0  0  0  0  0  0  0
  -21.2520  -29.2020   21.4550 H   0  0  0  0  0  0  0  0  0  0  0  0
  -18.3020  -27.3620   22.3500 C   0  0  0  0  0  0  0  0  0  0  0  0
  -20.8160  -27.6930   22.8700 C   0  0  0  0  0  3  0  0  0  0  0  0
  -21.0150  -26.2740   22.2850 C   0  0  0  0  0  2  0  0  0  0  0  0
  -20.0260  -25.9390   21.1630 C   0  0  0  0  0  2  0  0  0  0  0  0
  -18.5850  -26.0300   21.6730 C   0  0  0  0  0  2  0  0  0  0  0  0
  -19.3520  -28.1490   22.8980 C   0  0  0  0  0  0  0  0  0  0  0  0
  -19.0350  -29.3930   23.4860 C   0  0  0  0  0  3  0  0  0  0  0  0
  -17.7060  -29.8530   23.5330 C   0  0  0  0  0  3  0  0  0  0  0  0
  -16.6710  -29.0630   23.0020 C   0  0  0  0  0  3  0  0  0  0  0  0
  -16.9710  -27.8190   22.4160 C   0  0  0  0  0  3  0  0  0  0  0  0
  -25.8470  -32.0440   24.1300 C   0  0  0  0  0  3  0  0  0  0  0  0
  -26.1670  -31.3550   25.5140 C   0  0  1  0  0  0  0  0  0  0  0  0
  -24.9250  -31.1630   26.4180 C   0  0  0  0  0  1  0  0  0  0  0  0
  -26.8100  -29.9660   25.3010 C   0  0  0  0  0  1  0  0  0  0  0  0
  -27.2030  -32.1990   26.2940 C   0  0  0  0  0  1  0  0  0  0  0  0
  -25.4900  -33.4560   24.3330 N   0  0  0  0  0  0  0  0  0  0  0  0
  -25.9170  -34.4710   23.5700 C   0  0  0  0  0  0  0  0  0  0  0  0
  -26.7160  -34.3190   22.6430 O   0  0  0  0  0  0  0  0  0  0  0  0
  -24.7980  -33.6470   25.0430 H   0  0  0  0  0  0  0  0  0  0  0  0
  -24.2370  -36.2250   22.9100 C   0  0  0  0  0  1  0  0  0  0  0  0
  -25.3730  -35.8800   23.8850 C   0  0  0  0  0  3  0  0  0  0  0  0
  -27.3820  -36.8450   24.9150 C   0  0  0  0  0  1  0  0  0  0  0  0
  -26.4070  -36.9370   23.8330 N   0  0  0  0  0  0  0  0  0  0  0  0
  -25.9830  -37.8600   23.8680 H   0  0  0  0  0  0  0  0  0  0  0  0
  -30.3880  -17.4890   19.8260 C   0  0  0  0  0  2  0  0  0  0  0  0
  -30.9370  -14.7420   19.8660 C   0  0  0  0  0  0  0  0  0  0  0  0
  -30.7640  -12.3750   18.9570 C   0  0  0  0  0  2  0  0  0  0  0  0
  -29.7550  -12.3200   17.7860 C   0  0  0  0  0  2  0  0  0  0  0  0
  -28.3200  -12.1290   18.3160 C   0  0  0  0  0  2  0  0  0  0  0  0
  -28.0050  -13.0820   19.4950 C   0  0  0  0  0  3  0  0  0  0  0  0
  -29.1200  -13.0790   20.5550 C   0  0  0  0  0  2  0  0  0  0  0  0
  -30.3490  -13.4790   19.8680 N   0  0  0  0  0  0  0  0  0  0  0  0
  -32.1280  -14.7910   19.5250 O   0  0  0  0  0  0  0  0  0  0  0  0
  -30.1450  -15.9210   20.0410 N   0  0  0  0  0  0  0  0  0  0  0  0
  -29.1830  -15.7000   20.2530 H   0  0  0  0  0  0  0  0  0  0  0  0
  -25.7300  -13.7540   20.4450 C   0  0  0  0  0  0  0  0  0  0  0  0
  -24.6580  -13.0220   20.8750 C   0  0  0  0  0  0  0  0  0  0  0  0
  -25.0420  -11.6510   20.7570 C   0  0  0  0  0  0  0  0  0  0  0  0
  -26.6990  -12.8320   20.0880 N   0  0  0  0  0  0  0  0  0  0  0  0
  -26.3020  -11.5580   20.3410 N   0  0  0  0  0  0  0  0  0  0  0  0
  -24.2630  -10.4220   20.9540 C   0  0  0  0  0  0  0  0  0  0  0  0
  -24.6360   -9.4630   21.9190 C   0  0  0  0  0  3  0  0  0  0  0  0
  -23.8650   -8.2930   22.1000 C   0  0  0  0  0  3  0  0  0  0  0  0
  -22.7080   -8.0790   21.3130 C   0  0  0  0  0  0  0  0  0  0  0  0
  -22.3570   -9.0270   20.3360 C   0  0  0  0  0  3  0  0  0  0  0  0
  -23.1280  -10.1870   20.1550 C   0  0  0  0  0  3  0  0  0  0  0  0
  -21.9070   -6.9660   21.4040 O   0  0  0  0  0  0  0  0  0  0  0  0
  -21.6690   -6.3470   22.6060 C   0  0  0  0  0  0  0  0  0  0  0  0
  -21.0680   -7.0270   23.6880 C   0  0  0  0  0  3  0  0  0  0  0  0
  -20.7770   -6.3320   24.8790 C   0  0  0  0  0  3  0  0  0  0  0  0
  -21.0730   -4.9610   24.9870 C   0  0  0  0  0  0  0  0  0  0  0  0
  -21.6640   -4.2820   23.9060 C   0  0  0  0  0  3  0  0  0  0  0  0
  -21.9590   -4.9720   22.7180 C   0  0  0  0  0  0  0  0  0  0  0  0
  -22.5080   -4.3100   21.6730 F   0  0  0  0  0  0  0  0  0  0  0  0
  -20.7850   -4.2920   26.1260 F   0  0  0  0  0  0  0  0  0  0  0  0
  -23.3120  -13.5630   21.2680 C   0  0  0  0  0  0  0  0  0  0  0  0
  -22.6240  -12.8890   22.1810 N   0  0  0  0  0  0  0  0  0  0  0  0
  -22.8850  -14.6160   20.7970 O   0  0  0  0  0  0  0  0  0  0  0  0
  -22.9850  -12.0410   22.5890 H   0  0  0  0  0  0  0  0  0  0  0  0
  -21.7230  -13.2310   22.4830 H   0  0  0  0  0  0  0  0  0  0  0  0
  -25.9480  -15.1180   20.2840 N   0  0  0  0  0  0  0  0  0  0  0  0
  -25.1510  -15.7440   20.3530 H   0  0  0  0  0  0  0  0  0  0  0  0
  -26.6520  -15.4580   19.6420 H   0  0  0  0  0  0  0  0  0  0  0  0
  1  4  2  0
  2  3  2  0
  2  6  1  0
  3  1  1  0
  4  7  1  0
  5  3  1  0
  6  4  1  0
  7  8  1  0
 10  9  1  0
 10 11  1  0
 10  8  1  0
 12 23  2  0
 13 11  1  0
 13 18  1  0
 14 22  1  0
 14 24  1  0
 15 17  1  0
 16 22  1  0
 17 18  2  0
 17 16  1  0
 19 13  2  0
 20 19  1  0
 20 15  2  0
 21 15  1  0
 21 14  1  0
 22 12  1  0
 24 26  2  0
 25 24  1  0
 27 25  1  0
 28 37  2  0
 28 33  1  0
 29 25  1  0
 29 33  1  0
 30 29  1  0
 31 32  1  0
 31 30  1  0
 32 28  1  0
 33 34  2  0
 34 35  1  0
 36 35  2  0
 37 36  1  0
 38 12  1  0
 38 43  1  0
 38 39  1  0
 39 42  1  1
 39 40  1  0
 41 39  1  0
 43 46  1  0
 44 48  1  0
 44 43  1  0
 45 44  2  0
 48 47  1  0
 50 51  1  0
 50 48  1  0
 50 49  1  0
 52  6  1  0
 52 61  1  0
 53 59  1  0
 53 61  1  0
 54 59  1  0
 55 56  1  0
 55 54  1  0
 57 56  1  0
 57 66  1  0
 57 58  1  0
 59 58  1  0
 60 53  2  0
 61 62  1  0
 63 64  2  0
 64 83  1  0
 65 64  1  0
 65 68  1  0
 66 67  1  0
 66 63  1  0
 67 65  2  0
 68 69  1  0
 69 70  2  0
 71 74  1  0
 71 70  1  0
 72 71  2  0
 73 72  1  0
 73 68  2  0
 74 75  1  0
 75 80  2  0
 75 76  1  0
 76 77  2  0
 77 78  1  0
 78 82  1  0
 79 78  2  0
 80 79  1  0
 81 80  1  0
 83 84  1  0
 84 87  1  0
 84 86  1  0
 85 83  2  0
 88 89  1  0
 88 63  1  0
 90 88  1  0
M  ISO  4  10 101  11 101  53 100  61 100
M  END
>  <TORSDO>  (30) 
F 20

>  <SCORE>  (30) 
-11.608

>  <name>  (30) 
29

>  <ligand_id>  (30) 
29

>  <original_smiles>  (30) 
[H]c1c([H])c([H])c2c(c1[H])C([H])([H])C([H])([H])C([H])([H])C2([H])N([H])C(=O)C1([H])N(C(=O)C([H])(N([H])C(=O)C([H])(N([H])C([H])([H])[H])C([H])([H])[H])C(C([H])([H])[H])(C([H])([H])[H])C([H])([H])[H])C([H])([H])c2c([H])c(OC([H])(C([H])([H])[H])C([H])([H])C([H])([H])c3c([H])c(C([H])([H])[H])c([H])n3C([H])([H])N([H])C(=O)N3C([H])([H])C([H])([H])C([H])([H])C([H])(n4nc(-c5c([H])c([H])c(Oc6c([H])c([H])c(F)c([H])c6F)c([H])c5[H])c(C(=O)N([H])[H])c4N([H])[H])C3([H])[H])c([H])c([H])c2C1([H])[H]

>  <smiles>  (30) 
[H]c1c([H])c([H])c2c(c1[H])C([H])([H])C([H])([H])C([H])([H])C2([H])N([H])C(=O)C1([H])N(C(=O)C([H])(N([H])C(=O)C([H])(N([H])C([H])([H])[H])C([H])([H])[H])C(C([H])([H])[H])(C([H])([H])[H])C([H])([H])[H])C([H])([H])c2c([H])c(OC([H])(C([H])([H])[H])C([H])([H])C([H])([H])c3c([H])c(C([H])([H])[H])c([H])n3C([H])([H])N([H])C(=O)N3C([H])([H])C([H])([H])C([H])([H])C([H])(n4nc(-c5c([H])c([H])c(Oc6c([H])c([H])c(F)c([H])c6F)c([H])c5[H])c(C(=O)N([H])[H])c4N([H])[H])C3([H])[H])c([H])c([H])c2C1([H])[H]

$$$$
30:0:0
     RDKit          3D

 98100  0  0  1  0  0  0  0  0999 V2000
  -24.9160  -28.6430   21.6990 C   0  0  0  0  0  2  0  0  0  0  0  0
  -25.2410  -29.2220   19.5790 C   0  0  0  0  0  1  0  0  0  0  0  0
  -26.0710  -26.5470   21.7500 C   0  0  0  0  0  3  0  0  0  0  0  0
  -25.4560  -27.5380   22.5470 C   0  0  0  0  0  3  0  0  0  0  0  0
  -26.1670  -27.9960   18.5350 C   0  0  0  0  0  3  0  0  0  0  0  0
  -26.7110  -26.4550   19.3150 C   0  0  0  0  0  1  0  0  0  0  0  0
  -28.0550  -28.5140   16.9740 C   0  0  0  0  0  1  0  0  0  0  0  0
  -25.7200  -29.3650   16.4510 C   0  0  0  0  0  1  0  0  0  0  0  0
  -26.5470  -28.2480   17.0950 C   0  0  0  0  0  3  0  0  0  0  0  0
  -24.5440  -26.0260   24.3670 C   0  0  0  0  0  1  0  0  0  0  0  0
  -25.4690  -27.2150   24.0620 C   0  0  0  0  0  3  0  0  0  0  0  0
  -26.9240  -26.9090   24.7150 C   0  0  0  0  0  2  0  0  0  0  0  0
  -28.3070  -26.8100   23.9270 C   0  0  0  0  0  2  0  0  0  0  0  0
  -28.8350  -25.4630   23.2340 C   0  0  0  0  0  2  0  0  0  0  0  0
  -29.0920  -25.4150   21.7860 O   0  0  0  0  0  0  0  0  0  0  0  0
  -24.7980  -31.8650   23.1260 C   0  0  0  0  0  0  0  0  0  0  0  0
  -28.0160  -25.7810   21.1970 C   0  0  0  0  0  3  0  0  0  0  0  0
  -23.2810  -30.3070   21.4850 C   0  0  0  0  0  2  0  0  0  0  0  0
  -24.6660  -27.2870   20.5350 C   0  0  0  0  0  3  0  0  0  0  0  0
  -26.6260  -30.4630   21.4740 C   0  0  0  0  0  1  0  0  0  0  0  0
  -26.9230  -28.5100   20.9260 C   0  0  0  0  0  1  0  0  0  0  0  0
  -28.2080  -27.5220   21.1070 C   0  0  0  0  0  2  0  0  0  0  0  0
  -26.3600  -24.7980   21.0220 C   0  0  0  0  0  3  0  0  0  0  0  0
  -24.7820  -25.5920   20.6180 C   0  0  0  0  0  3  0  0  0  0  0  0
  -23.1270  -28.4980   20.6120 C   0  0  0  0  0  1  0  0  0  0  0  0
  -24.9080  -31.1610   21.8920 N   0  0  0  0  0  0  0  0  0  0  0  0
  -23.7050  -32.1530   23.6500 O   0  0  0  0  0  0  0  0  0  0  0  0
  -22.4610  -29.7900   22.7780 C   0  0  0  0  0  0  0  0  0  0  0  0
  -21.2230  -29.3460   22.5720 N   0  0  0  0  0  0  0  0  0  0  0  0
  -23.0170  -29.4530   23.8410 O   0  0  0  0  0  0  0  0  0  0  0  0
  -20.8090  -29.5320   21.6690 H   0  0  0  0  0  0  0  0  0  0  0  0
  -18.0450  -27.8630   22.9370 C   0  0  0  0  0  0  0  0  0  0  0  0
  -20.5030  -28.4080   23.4470 C   0  0  0  0  0  3  0  0  0  0  0  0
  -20.7860  -26.9210   23.1060 C   0  0  0  0  0  2  0  0  0  0  0  0
  -19.8730  -26.3990   21.9870 C   0  0  0  0  0  2  0  0  0  0  0  0
  -18.4190  -26.4650   22.4680 C   0  0  0  0  0  2  0  0  0  0  0  0
  -19.0300  -28.7640   23.4110 C   0  0  0  0  0  0  0  0  0  0  0  0
  -18.6540  -30.0610   23.8180 C   0  0  0  0  0  3  0  0  0  0  0  0
  -17.3120  -30.4650   23.7740 C   0  0  0  0  0  3  0  0  0  0  0  0
  -16.3330  -29.5690   23.3180 C   0  0  0  0  0  3  0  0  0  0  0  0
  -16.6970  -28.2750   22.9010 C   0  0  0  0  0  3  0  0  0  0  0  0
  -26.0270  -32.4430   23.9420 C   0  0  0  0  0  3  0  0  0  0  0  0
  -25.6880  -33.8210   24.3080 N   0  0  0  0  0  0  0  0  0  0  0  0
  -26.0650  -34.8870   23.6050 C   0  0  0  0  0  0  0  0  0  0  0  0
  -26.7710  -34.7920   22.5990 O   0  0  0  0  0  0  0  0  0  0  0  0
  -25.0690  -33.9430   25.0950 H   0  0  0  0  0  0  0  0  0  0  0  0
  -24.3830  -36.7100   23.2350 C   0  0  0  0  0  1  0  0  0  0  0  0
  -25.5790  -36.2640   24.0910 C   0  0  0  0  0  3  0  0  0  0  0  0
  -27.6870  -37.0760   25.0530 C   0  0  0  0  0  1  0  0  0  0  0  0
  -26.6340  -37.2980   24.0660 N   0  0  0  0  0  0  0  0  0  0  0  0
  -26.2370  -38.2180   24.2220 H   0  0  0  0  0  0  0  0  0  0  0  0
  -26.4540  -31.7390   25.3010 C   0  0  1  0  0  0  0  0  0  0  0  0
  -25.2840  -31.3570   26.2480 C   0  0  0  0  0  1  0  0  0  0  0  0
  -27.2590  -30.5030   24.9650 C   0  0  0  0  0  1  0  0  0  0  0  0
  -27.4420  -32.6330   26.1140 C   0  0  0  0  0  1  0  0  0  0  0  0
  -27.6610  -24.4010   18.6830 C   0  0  0  0  0 15  0  0  0  0  0  0
  -27.9280  -22.0740   19.2440 C   0  0  0  0  0 15  0  0  0  0  0  0
  -29.9030  -20.0450   18.3190 C   0  0  0  0  0  1  0  0  0  0  0  0
  -29.8520  -20.3640   20.8030 C   0  0  0  0  0  1  0  0  0  0  0  0
  -29.0220  -19.9750   19.5630 C   0  0  0  0  0  2  0  0  0  0  0  0
  -29.7980  -16.1920   20.0170 C   0  0  0  0  0  0  0  0  0  0  0  0
  -30.1790  -13.4090   19.4020 C   0  0  0  0  0  2  0  0  0  0  0  0
  -29.3960  -12.5240   18.3640 C   0  0  0  0  0  2  0  0  0  0  0  0
  -28.0840  -11.9740   18.9170 C   0  0  0  0  0  2  0  0  0  0  0  0
  -27.4380  -13.0410   19.8130 C   0  0  0  0  0  3  0  0  0  0  0  0
  -28.4240  -13.7710   20.7880 C   0  0  0  0  0  2  0  0  0  0  0  0
  -29.3750  -14.6640   19.9790 N   0  0  0  0  0  0  0  0  0  0  0  0
  -31.0440  -15.9300   20.1060 O   0  0  0  0  0  0  0  0  0  0  0  0
  -29.1410  -17.8650   19.8270 N   0  0  0  0  0  2  0  0  0  0  0  0
  -30.0850  -18.0650   20.1330 H   0  0  0  0  0  0  0  0  0  0  0  0
  -25.1040  -13.4910   20.6560 C   0  0  0  0  0  0  0  0  0  0  0  0
  -24.0530  -12.7010   21.0170 C   0  0  0  0  0  0  0  0  0  0  0  0
  -24.5380  -11.3560   20.9860 C   0  0  0  0  0  0  0  0  0  0  0  0
  -26.1620  -12.6410   20.4090 N   0  0  0  0  0  0  0  0  0  0  0  0
  -25.8370  -11.3430   20.6660 N   0  0  0  0  0  0  0  0  0  0  0  0
  -23.8120  -10.0870   21.1730 C   0  0  0  0  0  0  0  0  0  0  0  0
  -24.2690   -9.0900   22.0650 C   0  0  0  0  0  3  0  0  0  0  0  0
  -23.5320   -7.8980   22.2490 C   0  0  0  0  0  3  0  0  0  0  0  0
  -22.3220   -7.6940   21.5430 C   0  0  0  0  0  0  0  0  0  0  0  0
  -21.8830   -8.6760   20.6380 C   0  0  0  0  0  3  0  0  0  0  0  0
  -22.6190   -9.8600   20.4520 C   0  0  0  0  0  3  0  0  0  0  0  0
  -21.5520   -6.5600   21.6440 O   0  0  0  0  0  0  0  0  0  0  0  0
  -21.5920   -5.7540   22.7550 C   0  0  0  0  0  0  0  0  0  0  0  0
  -21.1920   -6.2190   24.0270 C   0  0  0  0  0  3  0  0  0  0  0  0
  -21.1900   -5.3400   25.1270 C   0  0  0  0  0  3  0  0  0  0  0  0
  -21.5670   -3.9950   24.9590 C   0  0  0  0  0  0  0  0  0  0  0  0
  -21.9530   -3.5280   23.6910 C   0  0  0  0  0  3  0  0  0  0  0  0
  -21.9670   -4.4040   22.5920 C   0  0  0  0  0  0  0  0  0  0  0  0
  -22.3230   -3.9390   21.3720 F   0  0  0  0  0  0  0  0  0  0  0  0
  -21.5560   -3.1520   26.0180 F   0  0  0  0  0  0  0  0  0  0  0  0
  -22.6500  -13.1680   21.2580 C   0  0  0  0  0  0  0  0  0  0  0  0
  -21.9080  -12.4860   22.1210 N   0  0  0  0  0  0  0  0  0  0  0  0
  -22.2170  -14.1820   20.7150 O   0  0  0  0  0  0  0  0  0  0  0  0
  -22.2670  -11.6660   22.5850 H   0  0  0  0  0  0  0  0  0  0  0  0
  -20.9580  -12.7770   22.3090 H   0  0  0  0  0  0  0  0  0  0  0  0
  -25.2380  -14.8630   20.4660 N   0  0  0  0  0  0  0  0  0  0  0  0
  -24.4530  -15.4980   20.5700 H   0  0  0  0  0  0  0  0  0  0  0  0
  -26.0810  -15.3210   20.1420 H   0  0  0  0  0  0  0  0  0  0  0  0
  1  4  1  0
  3  4  1  0
  4 11  1  0
  5  6  1  0
  5  2  1  0
  7  9  1  0
  8  9  1  0
  9  5  1  0
 11 10  1  0
 11 12  1  0
 13 12  1  0
 14 13  1  0
 15 14  1  0
 16 27  2  0
 16 42  1  0
 17 15  1  0
 18 26  1  0
 18 28  1  0
 19 25  1  0
 19 24  1  0
 19  1  1  0
 20 26  1  0
 21 22  1  0
 22 17  1  0
 23 17  1  0
 23  3  1  0
 24 23  1  0
 24  3  1  0
 26 16  1  0
 28 30  2  0
 29 28  1  0
 29 33  1  0
 31 29  1  0
 32 37  1  0
 34 33  1  0
 35 36  1  0
 35 34  1  0
 36 32  1  0
 37 33  1  0
 37 38  2  0
 39 38  1  0
 40 39  2  0
 41 32  2  0
 41 40  1  0
 42 43  1  0
 42 52  1  0
 43 46  1  0
 44 48  1  0
 44 43  1  0
 45 44  2  0
 47 48  1  0
 50 48  1  0
 50 51  1  0
 50 49  1  0
 52 55  1  1
 52 53  1  0
 54 52  1  0
 58 60  1  0
 60 59  1  0
 61 68  2  0
 62 67  1  0
 63 64  1  0
 63 62  1  0
 64 65  1  0
 65 74  1  0
 65 66  1  0
 67 61  1  0
 67 66  1  0
 69 61  1  0
 69 70  1  0
 71 72  2  0
 72 91  1  0
 73 72  1  0
 73 76  1  0
 74 71  1  0
 74 75  1  0
 75 73  2  0
 76 77  1  0
 77 78  2  0
 79 82  1  0
 79 78  1  0
 80 79  2  0
 81 80  1  0
 81 76  2  0
 82 83  1  0
 83 84  1  0
 84 85  2  0
 86 85  1  0
 86 90  1  0
 87 86  2  0
 88 83  2  0
 88 87  1  0
 89 88  1  0
 91 92  1  0
 92 95  1  0
 92 94  1  0
 93 91  2  0
 96 97  1  0
 96 71  1  0
 98 96  1  0
M  ISO  4  14 101  15 101  61 100  69 100
M  END
>  <TORSDO>  (31) 
F 24

>  <SCORE>  (31) 
-13.718

>  <name>  (31) 
30

>  <ligand_id>  (31) 
30

>  <original_smiles>  (31) 
[H]c1c([H])c([H])c2c(c1[H])C([H])([H])C([H])([H])C([H])([H])C2([H])N([H])C(=O)C1([H])N(C(=O)C([H])(N([H])C(=O)C([H])(N([H])C([H])([H])[H])C([H])([H])[H])C(C([H])([H])[H])(C([H])([H])[H])C([H])([H])[H])C([H])([H])c2c([H])c(OC([H])([H])C([H])([H])C([H])([H])C([H])(c3c([H])c([H])c(C([H])(C([H])([H])[H])C([H])([H])[H])c(C([H])([H])C([H])([H])C(N([H])C(=O)N4C([H])([H])C([H])([H])C([H])([H])C([H])(n5nc(-c6c([H])c([H])c(Oc7c([H])c([H])c(F)c([H])c7F)c([H])c6[H])c(C(=O)N([H])[H])c5N([H])[H])C4([H])[H])(C([H])([H])[H])C([H])([H])[H])c3[H])C([H])([H])[H])c([H])c([H])c2C1([H])[H]

>  <smiles>  (31) 
[H]c1c([H])c([H])c2c(c1[H])C([H])([H])C([H])([H])C([H])([H])C2([H])N([H])C(=O)C1([H])N(C(=O)C([H])(N([H])C(=O)C([H])(N([H])C([H])([H])[H])C([H])([H])[H])C(C([H])([H])[H])(C([H])([H])[H])C([H])([H])[H])C([H])([H])c2c([H])c(OC([H])([H])C([H])([H])C([H])([H])C([H])(c3c([H])c([H])c(C([H])(C([H])([H])[H])C([H])([H])[H])c(C([H])([H])C([H])([H])C(N([H])C(=O)N4C([H])([H])C([H])([H])C([H])([H])C([H])(n5nc(-c6c([H])c([H])c(Oc7c([H])c([H])c(F)c([H])c7F)c([H])c6[H])c(C(=O)N([H])[H])c5N([H])[H])C4([H])[H])(C([H])([H])[H])C([H])([H])[H])c3[H])C([H])([H])[H])c([H])c([H])c2C1([H])[H]

$$$$
31:0:0
     RDKit          3D

 96104  0  0  1  0  0  0  0  0999 V2000
  -29.5980  -19.3240   19.9110 C   0  0  0  0  0  3  0  0  0  0  0  0
  -29.5420  -17.9120   19.8160 C   0  0  0  0  0  0  0  0  0  0  0  0
  -30.0770  -17.1320   20.8800 C   0  0  0  0  0  0  0  0  0  0  0  0
  -30.1610  -19.9330   21.0540 C   0  0  0  0  0  0  0  0  0  0  0  0
  -30.6670  -17.8290   21.9610 C   0  0  0  0  0  0  0  0  0  0  0  0
  -31.2700  -17.0920   23.1410 C   0  0  0  0  0  1  0  0  0  0  0  0
  -30.7050  -19.1810   22.0410 N   0  0  0  0  0  0  0  0  0  0  0  0
  -30.6910  -14.7350   20.4610 C   0  0  0  0  0  0  0  0  0  0  0  0
  -30.4390  -12.6120   19.2280 C   0  0  0  0  0  2  0  0  0  0  0  0
  -29.4630  -12.8570   18.0570 C   0  0  0  0  0  2  0  0  0  0  0  0
  -27.9990  -12.6780   18.5070 C   0  0  0  0  0  2  0  0  0  0  0  0
  -27.6770  -13.4360   19.8220 C   0  0  0  0  0  3  0  0  0  0  0  0
  -28.7600  -13.1680   20.8900 C   0  0  0  0  0  2  0  0  0  0  0  0
  -30.0660  -13.5330   20.3110 N   0  0  0  0  0  0  0  0  0  0  0  0
  -31.8240  -14.9680   20.0330 O   0  0  0  0  0  0  0  0  0  0  0  0
  -29.8970  -15.7090   20.9540 N   0  0  0  0  0  0  0  0  0  0  0  0
  -28.9880  -15.3940   21.2590 H   0  0  0  0  0  0  0  0  0  0  0  0
  -25.2790  -14.0000   20.5610 C   0  0  0  0  0  0  0  0  0  0  0  0
  -24.2250  -13.2040   20.9250 C   0  0  0  0  0  0  0  0  0  0  0  0
  -24.7080  -11.8620   20.8640 C   0  0  0  0  0  0  0  0  0  0  0  0
  -26.3350  -13.1380   20.3070 N   0  0  0  0  0  0  0  0  0  0  0  0
  -25.9950  -11.8480   20.5470 N   0  0  0  0  0  0  0  0  0  0  0  0
  -24.0060  -10.5850   21.0350 C   0  0  0  0  0  0  0  0  0  0  0  0
  -24.4340   -9.6280   21.9830 C   0  0  0  0  0  3  0  0  0  0  0  0
  -23.7300   -8.4150   22.1420 C   0  0  0  0  0  3  0  0  0  0  0  0
  -22.5840   -8.1510   21.3550 C   0  0  0  0  0  0  0  0  0  0  0  0
  -22.1770   -9.0960   20.3960 C   0  0  0  0  0  3  0  0  0  0  0  0
  -22.8810  -10.3020   20.2360 C   0  0  0  0  0  3  0  0  0  0  0  0
  -21.8530   -6.9910   21.4230 O   0  0  0  0  0  0  0  0  0  0  0  0
  -21.7670   -6.2620   22.5830 C   0  0  0  0  0  0  0  0  0  0  0  0
  -21.2310   -6.8120   23.7680 C   0  0  0  0  0  3  0  0  0  0  0  0
  -21.1000   -6.0100   24.9190 C   0  0  0  0  0  3  0  0  0  0  0  0
  -21.4920   -4.6580   24.8840 C   0  0  0  0  0  0  0  0  0  0  0  0
  -22.0190   -4.1080   23.7030 C   0  0  0  0  0  3  0  0  0  0  0  0
  -22.1550   -4.9080   22.5550 C   0  0  0  0  0  0  0  0  0  0  0  0
  -22.6490   -4.3710   21.4130 F   0  0  0  0  0  0  0  0  0  0  0  0
  -21.3550   -3.8830   25.9850 F   0  0  0  0  0  0  0  0  0  0  0  0
  -22.8240  -13.6550   21.2170 C   0  0  0  0  0  0  0  0  0  0  0  0
  -22.1080  -12.9190   22.0620 N   0  0  0  0  0  0  0  0  0  0  0  0
  -22.3720  -14.6940   20.7370 O   0  0  0  0  0  0  0  0  0  0  0  0
  -22.4840  -12.0780   22.4730 H   0  0  0  0  0  0  0  0  0  0  0  0
  -21.1690  -13.2030   22.3040 H   0  0  0  0  0  0  0  0  0  0  0  0
  -25.4170  -15.3740   20.4070 N   0  0  0  0  0  0  0  0  0  0  0  0
  -24.6400  -16.0100   20.5490 H   0  0  0  0  0  0  0  0  0  0  0  0
  -26.2510  -15.8340   20.0700 H   0  0  0  0  0  0  0  0  0  0  0  0
  -29.6790  -17.6310   17.3030 C   0  0  0  0  0  1  0  0  0  0  0  0
  -27.4140  -17.6790   18.4450 C   0  0  0  0  0  1  0  0  0  0  0  0
  -28.8960  -17.2890   18.5770 C   0  0  0  0  0  3  0  0  0  0  0  0
  -30.1940  -21.4610   21.2820 C   0  0  0  0  0  2  0  0  0  0  0  0
  -29.5140  -22.2930   20.2520 N   0  0  0  0  0  4  0  0  0  0  0  0
  -28.5400  -22.0430   20.2140 H   0  0  0  0  0  0  0  0  0  0  0  0
  -29.9290  -22.0330   19.3720 H   0  0  0  0  0  0  0  0  0  0  0  0
  -29.6720  -23.7730   20.3940 C   0  0  0  0  0  2  0  0  0  0  0  0
  -28.4860  -24.4830   21.1060 C   0  0  0  0  0  2  0  0  0  0  0  0
  -28.7070  -25.9840   21.4530 C   0  0  0  0  0  2  0  0  0  0  0  0
  -28.5480  -26.9040   20.3610 O   0  0  0  0  0  0  0  0  0  0  0  0
  -24.5760  -32.0310   23.3760 C   0  0  0  0  0  0  0  0  0  0  0  0
  -27.3750  -27.6270   20.3730 C   0  0  0  0  0  0  0  0  0  0  0  0
  -23.4330  -30.6000   21.7130 C   0  0  0  0  0  3  0  0  0  0  0  0
  -24.9490  -29.0810   20.3290 C   0  0  0  0  0  0  0  0  0  0  0  0
  -25.9540  -31.0060   21.5700 C   0  0  0  0  0  2  0  0  0  0  0  0
  -26.0840  -29.6340   20.9380 C   0  0  0  0  0  0  0  0  0  0  0  0
  -27.3000  -28.9140   20.9570 C   0  0  0  0  0  3  0  0  0  0  0  0
  -26.2290  -27.0860   19.7570 C   0  0  0  0  0  3  0  0  0  0  0  0
  -25.0190  -27.8070   19.7350 C   0  0  0  0  0  3  0  0  0  0  0  0
  -23.6860  -29.9160   20.3420 C   0  0  0  0  0  2  0  0  0  0  0  0
  -24.6710  -31.2280   22.2780 N   0  0  0  0  0  0  0  0  0  0  0  0
  -23.4790  -32.2850   23.8920 O   0  0  0  0  0  0  0  0  0  0  0  0
  -22.7800  -29.5720   22.6650 C   0  0  0  0  0  0  0  0  0  0  0  0
  -21.4660  -29.3510   22.4970 N   0  0  0  0  0  0  0  0  0  0  0  0
  -23.4540  -28.9760   23.5090 O   0  0  0  0  0  0  0  0  0  0  0  0
  -20.9820  -29.8910   21.7930 H   0  0  0  0  0  0  0  0  0  0  0  0
  -18.1070  -28.0900   22.9250 C   0  0  0  0  0  0  0  0  0  0  0  0
  -20.6520  -28.3940   23.2480 C   0  0  0  0  0  3  0  0  0  0  0  0
  -20.7930  -26.9670   22.6710 C   0  0  0  0  0  2  0  0  0  0  0  0
  -19.7200  -26.6260   21.6340 C   0  0  0  0  0  2  0  0  0  0  0  0
  -18.3210  -26.7470   22.2480 C   0  0  0  0  0  2  0  0  0  0  0  0
  -19.2010  -28.8700   23.3790 C   0  0  0  0  0  0  0  0  0  0  0  0
  -18.9490  -30.1290   23.9680 C   0  0  0  0  0  3  0  0  0  0  0  0
  -17.6320  -30.6060   24.1080 C   0  0  0  0  0  3  0  0  0  0  0  0
  -16.5510  -29.8210   23.6710 C   0  0  0  0  0  3  0  0  0  0  0  0
  -16.7880  -28.5650   23.0850 C   0  0  0  0  0  3  0  0  0  0  0  0
  -25.8370  -32.6870   24.0240 C   0  0  0  0  0  3  0  0  0  0  0  0
  -25.5090  -34.0910   24.3070 N   0  0  0  0  0  0  0  0  0  0  0  0
  -25.8650  -35.1250   23.5330 C   0  0  0  0  0  0  0  0  0  0  0  0
  -26.5750  -34.9990   22.5320 O   0  0  0  0  0  0  0  0  0  0  0  0
  -24.8840  -34.2600   25.0800 H   0  0  0  0  0  0  0  0  0  0  0  0
  -24.1500  -36.9000   23.0540 C   0  0  0  0  0  1  0  0  0  0  0  0
  -25.3530  -36.5220   23.9320 C   0  0  0  0  0  3  0  0  0  0  0  0
  -27.4400  -37.4390   24.8460 C   0  0  0  0  0  1  0  0  0  0  0  0
  -26.3870  -37.5770   23.8420 N   0  0  0  0  0  0  0  0  0  0  0  0
  -25.9720  -38.4980   23.9400 H   0  0  0  0  0  0  0  0  0  0  0  0
  -26.3180  -31.9530   25.3350 C   0  0  1  0  0  0  0  0  0  0  0  0
  -25.1830  -31.6930   26.3530 C   0  0  0  0  0  1  0  0  0  0  0  0
  -26.9660  -30.5920   24.9900 C   0  0  0  0  0  1  0  0  0  0  0  0
  -27.4100  -32.7950   26.0360 C   0  0  0  0  0  1  0  0  0  0  0  0
  1  4  1  0
  2  1  2  0
  2  3  1  0
  3 16  1  0
  3  5  2  0
  4 49  1  0
  4  7  2  0
  5  7  1  0
  5  6  1  0
  8 16  1  0
  9 14  1  0
 10 11  1  0
 10  9  1  0
 12 11  1  0
 12 21  1  0
 12 13  1  0
 14  8  1  0
 14 13  1  0
 15  8  2  0
 16 17  1  0
 18 19  2  0
 19 38  1  0
 20 19  1  0
 20 23  1  0
 21 22  1  0
 21 18  1  0
 22 20  2  0
 23 24  1  0
 24 25  2  0
 26 29  1  0
 26 25  1  0
 27 26  2  0
 28 27  1  0
 28 23  2  0
 29 30  1  0
 30 31  1  0
 31 32  2  0
 33 32  1  0
 33 37  1  0
 34 33  2  0
 35 30  2  0
 35 34  1  0
 36 35  1  0
 38 39  1  0
 39 42  1  0
 39 41  1  0
 40 38  2  0
 43 44  1  0
 43 18  1  0
 45 43  1  0
 46 48  1  0
 47 48  1  0
 48  2  1  0
 50 53  1  0
 50 49  1  0
 51 50  1  0
 52 50  1  0
 53 54  1  0
 54 55  1  0
 56 58  1  0
 56 55  1  0
 57 68  2  0
 58 63  1  0
 59 67  1  0
 59 69  1  0
 60 66  1  0
 60 62  1  0
 61 67  1  0
 62 63  2  0
 62 61  1  0
 64 58  2  0
 65 64  1  0
 65 60  2  0
 66 59  1  0
 67 57  1  0
 69 71  2  0
 70 69  1  0
 72 70  1  0
 73 82  2  0
 73 78  1  0
 74 70  1  0
 74 78  1  0
 75 74  1  0
 76 77  1  0
 76 75  1  0
 77 73  1  0
 78 79  2  0
 79 80  1  0
 81 80  2  0
 82 81  1  0
 83 57  1  0
 83 84  1  0
 83 93  1  0
 84 87  1  0
 85 89  1  0
 85 84  1  0
 86 85  2  0
 89 88  1  0
 91 89  1  0
 91 92  1  0
 91 90  1  0
 93 96  1  1
 93 94  1  0
 95 93  1  0
M  ISO  4   8 100  16 100  55 101  56 101
M  END
>  <TORSDO>  (32) 
F 22

>  <SCORE>  (32) 
-12.077

>  <name>  (32) 
31

>  <ligand_id>  (32) 
31

>  <original_smiles>  (32) 
[H]c1c([H])c([H])c2c(c1[H])C([H])([H])C([H])([H])C([H])([H])C2([H])N([H])C(=O)C1([H])N(C(=O)C([H])(N([H])C(=O)C([H])(N([H])C([H])([H])[H])C([H])([H])[H])C(C([H])([H])[H])(C([H])([H])[H])C([H])([H])[H])C([H])([H])c2c([H])c(OC([H])([H])C([H])([H])C([H])([H])[N+]([H])([H])C([H])([H])c3nc(C([H])([H])[H])c(N([H])C(=O)N4C([H])([H])C([H])([H])C([H])([H])C([H])(n5nc(-c6c([H])c([H])c(Oc7c([H])c([H])c(F)c([H])c7F)c([H])c6[H])c(C(=O)N([H])[H])c5N([H])[H])C4([H])[H])c(C([H])(C([H])([H])[H])C([H])([H])[H])c3[H])c([H])c([H])c2C1([H])[H]

>  <smiles>  (32) 
[H]c1c([H])c([H])c2c(c1[H])C([H])([H])C([H])([H])C([H])([H])C2([H])N([H])C(=O)C1([H])N(C(=O)C([H])(N([H])C(=O)C([H])(N([H])C([H])([H])[H])C([H])([H])[H])C(C([H])([H])[H])(C([H])([H])[H])C([H])([H])[H])C([H])([H])c2c([H])c(OC([H])([H])C([H])([H])C([H])([H])[N+]([H])([H])C([H])([H])c3nc(C([H])([H])[H])c(N([H])C(=O)N4C([H])([H])C([H])([H])C([H])([H])C([H])(n5nc(-c6c([H])c([H])c(Oc7c([H])c([H])c(F)c([H])c7F)c([H])c6[H])c(C(=O)N([H])[H])c5N([H])[H])C4([H])[H])c(C([H])(C([H])([H])[H])C([H])([H])[H])c3[H])c([H])c([H])c2C1([H])[H]

$$$$
32:0:0
     RDKit          3D

 96104  0  0  1  0  0  0  0  0999 V2000
  -29.0530  -21.9350   19.7360 C   0  0  0  0  0  3  0  0  0  0  0  0
  -30.3810  -20.4990   18.3030 C   0  0  0  0  0  3  0  0  0  0  0  0
  -30.0950  -22.7160   17.7110 C   0  0  0  0  0  3  0  0  0  0  0  0
  -29.6310  -20.6460   19.4830 C   0  0  0  0  0  0  0  0  0  0  0  0
  -29.2710  -23.0030   18.8180 C   0  0  0  0  0  0  0  0  0  0  0  0
  -30.6340  -21.5080   17.4540 N   0  0  0  0  0  0  0  0  0  0  0  0
  -27.5740  -24.5650   17.7640 C   0  0  0  0  0  1  0  0  0  0  0  0
  -28.6480  -24.4350   18.8610 C   0  0  0  0  0  3  0  0  0  0  0  0
  -28.1500  -25.0460   20.2140 C   0  0  0  0  0  2  0  0  0  0  0  0
  -28.2410  -26.5060   20.2480 O   0  0  0  0  0  0  0  0  0  0  0  0
  -24.6380  -31.8840   23.3310 C   0  0  0  0  0  0  0  0  0  0  0  0
  -27.0920  -27.2890   20.2590 C   0  0  0  0  0  0  0  0  0  0  0  0
  -23.3720  -30.5100   21.7130 C   0  0  0  0  0  3  0  0  0  0  0  0
  -24.7580  -28.9140   20.2830 C   0  0  0  0  0  0  0  0  0  0  0  0
  -25.9110  -30.7750   21.4870 C   0  0  0  0  0  2  0  0  0  0  0  0
  -25.9450  -29.3990   20.8420 C   0  0  0  0  0  0  0  0  0  0  0  0
  -27.1190  -28.6000   20.8060 C   0  0  0  0  0  3  0  0  0  0  0  0
  -25.8730  -26.8270   19.7110 C   0  0  0  0  0  3  0  0  0  0  0  0
  -24.7200  -27.6350   19.7100 C   0  0  0  0  0  3  0  0  0  0  0  0
  -23.5430  -29.8140   20.3360 C   0  0  0  0  0  2  0  0  0  0  0  0
  -24.6600  -31.0710   22.2340 N   0  0  0  0  0  0  0  0  0  0  0  0
  -23.5680  -32.1920   23.8770 O   0  0  0  0  0  0  0  0  0  0  0  0
  -22.6960  -29.5180   22.6890 C   0  0  0  0  0  0  0  0  0  0  0  0
  -21.3670  -29.3520   22.5560 N   0  0  0  0  0  0  0  0  0  0  0  0
  -23.3630  -28.9000   23.5210 O   0  0  0  0  0  0  0  0  0  0  0  0
  -20.8870  -29.9040   21.8590 H   0  0  0  0  0  0  0  0  0  0  0  0
  -17.9860  -28.1600   23.0200 C   0  0  0  0  0  0  0  0  0  0  0  0
  -20.5370  -28.4370   23.3410 C   0  0  0  0  0  3  0  0  0  0  0  0
  -20.6550  -26.9850   22.8170 C   0  0  0  0  0  2  0  0  0  0  0  0
  -19.5810  -26.6240   21.7870 C   0  0  0  0  0  2  0  0  0  0  0  0
  -18.1830  -26.7880   22.3930 C   0  0  0  0  0  2  0  0  0  0  0  0
  -19.0920  -28.9390   23.4510 C   0  0  0  0  0  0  0  0  0  0  0  0
  -18.8560  -30.2210   23.9940 C   0  0  0  0  0  3  0  0  0  0  0  0
  -17.5480  -30.7280   24.1030 C   0  0  0  0  0  3  0  0  0  0  0  0
  -16.4560  -29.9450   23.6910 C   0  0  0  0  0  3  0  0  0  0  0  0
  -16.6750  -28.6600   23.1610 C   0  0  0  0  0  3  0  0  0  0  0  0
  -25.9480  -32.4830   23.9300 C   0  0  0  0  0  3  0  0  0  0  0  0
  -25.6820  -33.8910   24.2580 N   0  0  0  0  0  0  0  0  0  0  0  0
  -26.0320  -34.9300   23.4860 C   0  0  0  0  0  0  0  0  0  0  0  0
  -26.6800  -34.8000   22.4450 O   0  0  0  0  0  0  0  0  0  0  0  0
  -25.1050  -34.0700   25.0660 H   0  0  0  0  0  0  0  0  0  0  0  0
  -24.3520  -36.7710   23.1520 C   0  0  0  0  0  1  0  0  0  0  0  0
  -25.5950  -36.3350   23.9440 C   0  0  0  0  0  3  0  0  0  0  0  0
  -27.7700  -37.1660   24.7260 C   0  0  0  0  0  1  0  0  0  0  0  0
  -26.6570  -37.3560   23.8010 N   0  0  0  0  0  0  0  0  0  0  0  0
  -26.2810  -38.2900   23.9430 H   0  0  0  0  0  0  0  0  0  0  0  0
  -26.4660  -31.7030   25.2010 C   0  0  1  0  0  0  0  0  0  0  0  0
  -25.3800  -31.4830   26.2790 C   0  0  0  0  0  1  0  0  0  0  0  0
  -27.0180  -30.3140   24.8060 C   0  0  0  0  0  1  0  0  0  0  0  0
  -27.6420  -32.4730   25.8460 C   0  0  0  0  0  1  0  0  0  0  0  0
  -29.3180  -19.4200   20.3740 C   0  0  0  0  0  2  0  0  0  0  0  0
  -29.8660  -17.6880   22.0400 C   0  0  0  0  0  1  0  0  0  0  0  0
  -30.3640  -18.2480   20.6720 C   0  0  2  0  0  0  0  0  0  0  0  0
  -32.2880  -19.0910   22.1310 C   0  0  0  0  0  1  0  0  0  0  0  0
  -32.8090  -18.2850   19.8990 C   0  0  0  0  0  1  0  0  0  0  0  0
  -31.7470  -18.8630   20.7670 N   0  0  1  0  0  4  0  0  0  0  0  0
  -31.6090  -19.7980   20.4060 H   0  0  0  0  0  0  0  0  0  0  0  0
  -30.2870  -17.0040   19.6680 C   0  0  0  0  0  2  0  0  0  0  0  0
  -31.1830  -14.5890   19.9440 C   0  0  0  0  0  0  0  0  0  0  0  0
  -30.8950  -12.3570   18.9490 C   0  0  0  0  0  2  0  0  0  0  0  0
  -29.9180  -12.5260   17.7620 C   0  0  0  0  0  2  0  0  0  0  0  0
  -28.4520  -12.4370   18.2280 C   0  0  0  0  0  2  0  0  0  0  0  0
  -28.1660  -13.3200   19.4700 C   0  0  0  0  0  3  0  0  0  0  0  0
  -29.2430  -13.1070   20.5570 C   0  0  0  0  0  2  0  0  0  0  0  0
  -30.5570  -13.3790   19.9520 N   0  0  0  0  0  0  0  0  0  0  0  0
  -32.3070  -14.7530   19.4660 O   0  0  0  0  0  0  0  0  0  0  0  0
  -30.3740  -15.6320   20.2680 N   0  0  0  0  0  0  0  0  0  0  0  0
  -29.5280  -15.3390   20.7330 H   0  0  0  0  0  0  0  0  0  0  0  0
  -25.8350  -14.0410   20.2750 C   0  0  0  0  0  0  0  0  0  0  0  0
  -24.7460  -13.3210   20.6820 C   0  0  0  0  0  0  0  0  0  0  0  0
  -25.1380  -11.9470   20.6240 C   0  0  0  0  0  0  0  0  0  0  0  0
  -26.8220  -13.1090   19.9960 N   0  0  0  0  0  0  0  0  0  0  0  0
  -26.4100  -11.8450   20.2640 N   0  0  0  0  0  0  0  0  0  0  0  0
  -24.3600  -10.7210   20.8370 C   0  0  0  0  0  0  0  0  0  0  0  0
  -24.7340   -9.7710   21.8120 C   0  0  0  0  0  3  0  0  0  0  0  0
  -23.9600   -8.6080   22.0130 C   0  0  0  0  0  3  0  0  0  0  0  0
  -22.7990   -8.3870   21.2360 C   0  0  0  0  0  0  0  0  0  0  0  0
  -22.4450   -9.3240   20.2470 C   0  0  0  0  0  3  0  0  0  0  0  0
  -23.2180  -10.4790   20.0470 C   0  0  0  0  0  3  0  0  0  0  0  0
  -22.0060   -7.2700   21.3370 O   0  0  0  0  0  0  0  0  0  0  0  0
  -21.8340   -6.6160   22.5290 C   0  0  0  0  0  0  0  0  0  0  0  0
  -21.3130   -7.2670   23.6680 C   0  0  0  0  0  3  0  0  0  0  0  0
  -21.0910   -6.5400   24.8560 C   0  0  0  0  0  3  0  0  0  0  0  0
  -21.3720   -5.1630   24.9010 C   0  0  0  0  0  0  0  0  0  0  0  0
  -21.8800   -4.5090   23.7630 C   0  0  0  0  0  3  0  0  0  0  0  0
  -22.1080   -5.2330   22.5820 C   0  0  0  0  0  0  0  0  0  0  0  0
  -22.5800   -4.5960   21.4820 F   0  0  0  0  0  0  0  0  0  0  0  0
  -21.1470   -4.4620   26.0370 F   0  0  0  0  0  0  0  0  0  0  0  0
  -23.3840  -13.8640   21.0100 C   0  0  0  0  0  0  0  0  0  0  0  0
  -22.6640  -13.2030   21.9110 N   0  0  0  0  0  0  0  0  0  0  0  0
  -22.9670  -14.9010   20.5000 O   0  0  0  0  0  0  0  0  0  0  0  0
  -23.0180  -12.3630   22.3430 H   0  0  0  0  0  0  0  0  0  0  0  0
  -21.7460  -13.5390   22.1660 H   0  0  0  0  0  0  0  0  0  0  0  0
  -26.0580  -15.4040   20.0950 N   0  0  0  0  0  0  0  0  0  0  0  0
  -25.3140  -16.0840   20.2140 H   0  0  0  0  0  0  0  0  0  0  0  0
  -26.8950  -15.8000   19.6880 H   0  0  0  0  0  0  0  0  0  0  0  0
  2  4  2  0
  3  5  1  0
  4  1  1  0
  4 51  1  0
  5  8  1  0
  5  1  2  0
  6  3  2  0
  6  2  1  0
  8  7  1  0
  8  9  1  0
  9 10  1  0
 10 12  1  0
 11 22  2  0
 12 17  1  0
 13 21  1  0
 13 23  1  0
 14 20  1  0
 14 16  1  0
 15 21  1  0
 16 15  1  0
 17 16  2  0
 18 12  2  0
 19 18  1  0
 19 14  2  0
 20 13  1  0
 21 11  1  0
 23 25  2  0
 24 23  1  0
 26 24  1  0
 27 36  2  0
 27 32  1  0
 28 24  1  0
 28 32  1  0
 29 28  1  0
 30 31  1  0
 30 29  1  0
 31 27  1  0
 32 33  2  0
 33 34  1  0
 35 34  2  0
 36 35  1  0
 37 11  1  0
 37 38  1  0
 37 47  1  0
 38 41  1  0
 39 43  1  0
 39 38  1  0
 40 39  2  0
 43 42  1  0
 45 46  1  0
 45 43  1  0
 45 44  1  0
 47 50  1  1
 47 48  1  0
 49 47  1  0
 51 53  1  0
 53 56  1  0
 53 52  1  1
 55 56  1  0
 56 54  1  0
 56 57  1  6
 58 67  1  0
 58 53  1  0
 59 65  1  0
 59 67  1  0
 60 65  1  0
 61 62  1  0
 61 60  1  0
 63 62  1  0
 63 72  1  0
 63 64  1  0
 65 64  1  0
 66 59  2  0
 67 68  1  0
 69 70  2  0
 70 89  1  0
 71 70  1  0
 71 74  1  0
 72 73  1  0
 72 69  1  0
 73 71  2  0
 74 75  1  0
 75 76  2  0
 77 80  1  0
 77 76  1  0
 78 77  2  0
 79 78  1  0
 79 74  2  0
 80 81  1  0
 81 86  2  0
 81 82  1  0
 82 83  2  0
 83 84  1  0
 84 88  1  0
 85 84  2  0
 86 85  1  0
 87 86  1  0
 89 90  1  0
 90 93  1  0
 90 92  1  0
 91 89  2  0
 94 95  1  0
 94 69  1  0
 96 94  1  0
M  ISO  4   9 101  10 101  59 100  67 100
M  END
>  <TORSDO>  (33) 
F 22

>  <SCORE>  (33) 
-12.356

>  <name>  (33) 
32

>  <ligand_id>  (33) 
32

>  <original_smiles>  (33) 
[H]c1nc([H])c(C([H])(C([H])([H])[H])C([H])([H])Oc2c([H])c([H])c3c(c2[H])C([H])([H])N(C(=O)C([H])(N([H])C(=O)C([H])(N([H])C([H])([H])[H])C([H])([H])[H])C(C([H])([H])[H])(C([H])([H])[H])C([H])([H])[H])C([H])(C(=O)N([H])C2([H])c4c([H])c([H])c([H])c([H])c4C([H])([H])C([H])([H])C2([H])[H])C3([H])[H])c([H])c1C([H])([H])C(C([H])([H])[H])(C([H])([H])N([H])C(=O)N1C([H])([H])C([H])([H])C([H])([H])C([H])(n2nc(-c3c([H])c([H])c(Oc4c([H])c([H])c(F)c([H])c4F)c([H])c3[H])c(C(=O)N([H])[H])c2N([H])[H])C1([H])[H])[N+]([H])(C([H])([H])[H])C([H])([H])[H]

>  <smiles>  (33) 
[H]c1nc([H])c(C([H])(C([H])([H])[H])C([H])([H])Oc2c([H])c([H])c3c(c2[H])C([H])([H])N(C(=O)C([H])(N([H])C(=O)C([H])(N([H])C([H])([H])[H])C([H])([H])[H])C(C([H])([H])[H])(C([H])([H])[H])C([H])([H])[H])C([H])(C(=O)N([H])C2([H])c4c([H])c([H])c([H])c([H])c4C([H])([H])C([H])([H])C2([H])[H])C3([H])[H])c([H])c1C([H])([H])C(C([H])([H])[H])(C([H])([H])N([H])C(=O)N1C([H])([H])C([H])([H])C([H])([H])C([H])(n2nc(-c3c([H])c([H])c(Oc4c([H])c([H])c(F)c([H])c4F)c([H])c3[H])c(C(=O)N([H])[H])c2N([H])[H])C1([H])[H])[N+]([H])(C([H])([H])[H])C([H])([H])[H]

$$$$
33:0:0
     RDKit          3D

 95103  0  0  1  0  0  0  0  0999 V2000
  -30.8040  -22.8820   20.9010 C   0  0  0  0  0  3  0  0  0  0  0  0
  -28.9610  -22.4880   22.4280 C   0  0  0  0  0  3  0  0  0  0  0  0
  -30.3640  -24.2170   20.7140 C   0  0  0  0  0  3  0  0  0  0  0  0
  -28.5240  -23.8200   22.2410 C   0  0  0  0  0  3  0  0  0  0  0  0
  -30.1240  -22.0060   21.7830 C   0  0  0  0  0  0  0  0  0  0  0  0
  -29.2330  -24.7110   21.4040 C   0  0  0  0  0  0  0  0  0  0  0  0
  -30.6810  -20.6070   22.1170 C   0  0  0  0  0  2  0  0  0  0  0  0
  -30.2430  -19.5380   21.1880 N   0  0  0  0  0  4  0  0  0  0  0  0
  -30.6630  -19.7190   20.2910 H   0  0  0  0  0  0  0  0  0  0  0  0
  -29.2460  -19.6240   21.0780 H   0  0  0  0  0  0  0  0  0  0  0  0
  -30.5400  -18.1260   21.5910 C   0  0  0  0  0  2  0  0  0  0  0  0
  -28.5670  -17.3510   20.2310 C   0  0  0  0  0  1  0  0  0  0  0  0
  -30.0650  -17.0860   20.5160 C   0  0  2  0  0  0  0  0  0  0  0  0
  -30.9570  -14.6350   20.7910 C   0  0  0  0  0  0  0  0  0  0  0  0
  -30.7860  -12.3830   19.7840 C   0  0  0  0  0  2  0  0  0  0  0  0
  -29.9190  -12.4700   18.5070 C   0  0  0  0  0  2  0  0  0  0  0  0
  -28.4140  -12.3900   18.8370 C   0  0  0  0  0  2  0  0  0  0  0  0
  -27.9930  -13.2930   20.0270 C   0  0  0  0  0  3  0  0  0  0  0  0
  -28.9750  -13.1340   21.2130 C   0  0  0  0  0  2  0  0  0  0  0  0
  -30.3320  -13.4250   20.7210 N   0  0  0  0  0  0  0  0  0  0  0  0
  -32.1320  -14.7970   20.4570 O   0  0  0  0  0  0  0  0  0  0  0  0
  -30.1090  -15.6740   21.0060 N   0  0  0  0  0  0  0  0  0  0  0  0
  -29.2240  -15.3510   21.3640 H   0  0  0  0  0  0  0  0  0  0  0  0
  -25.5610  -13.9410   20.5760 C   0  0  0  0  0  0  0  0  0  0  0  0
  -24.4630  -13.1870   20.8930 C   0  0  0  0  0  0  0  0  0  0  0  0
  -24.9110  -11.8310   20.9210 C   0  0  0  0  0  0  0  0  0  0  0  0
  -26.6090  -13.0460   20.4280 N   0  0  0  0  0  0  0  0  0  0  0  0
  -26.2180  -11.7740   20.6960 N   0  0  0  0  0  0  0  0  0  0  0  0
  -24.1630  -10.5810   21.0890 C   0  0  0  0  0  0  0  0  0  0  0  0
  -24.5350   -9.6230   22.0570 C   0  0  0  0  0  3  0  0  0  0  0  0
  -23.7880   -8.4350   22.2130 C   0  0  0  0  0  3  0  0  0  0  0  0
  -22.6540   -8.1980   21.4000 C   0  0  0  0  0  0  0  0  0  0  0  0
  -22.3020   -9.1460   20.4220 C   0  0  0  0  0  3  0  0  0  0  0  0
  -23.0500  -10.3250   20.2650 C   0  0  0  0  0  3  0  0  0  0  0  0
  -21.8840   -7.0620   21.4630 O   0  0  0  0  0  0  0  0  0  0  0  0
  -21.7700   -6.3340   22.6200 C   0  0  0  0  0  0  0  0  0  0  0  0
  -21.2830   -6.9060   23.8150 C   0  0  0  0  0  3  0  0  0  0  0  0
  -21.1160   -6.1050   24.9620 C   0  0  0  0  0  3  0  0  0  0  0  0
  -21.4240   -4.7320   24.9140 C   0  0  0  0  0  0  0  0  0  0  0  0
  -21.9040   -4.1600   23.7230 C   0  0  0  0  0  3  0  0  0  0  0  0
  -22.0730   -4.9580   22.5780 C   0  0  0  0  0  0  0  0  0  0  0  0
  -22.5160   -4.3980   21.4270 F   0  0  0  0  0  0  0  0  0  0  0  0
  -21.2560   -3.9610   26.0130 F   0  0  0  0  0  0  0  0  0  0  0  0
  -23.0570  -13.6840   21.0660 C   0  0  0  0  0  0  0  0  0  0  0  0
  -22.2690  -13.0150   21.9020 N   0  0  0  0  0  0  0  0  0  0  0  0
  -22.6630  -14.7010   20.4970 O   0  0  0  0  0  0  0  0  0  0  0  0
  -22.5980  -12.1930   22.3860 H   0  0  0  0  0  0  0  0  0  0  0  0
  -21.3230  -13.3320   22.0600 H   0  0  0  0  0  0  0  0  0  0  0  0
  -25.7440  -15.3060   20.3800 N   0  0  0  0  0  0  0  0  0  0  0  0
  -24.9700  -15.9600   20.4210 H   0  0  0  0  0  0  0  0  0  0  0  0
  -26.6060  -15.7310   20.0690 H   0  0  0  0  0  0  0  0  0  0  0  0
  -30.3740  -16.5420   17.9670 C   0  0  0  0  0  1  0  0  0  0  0  0
  -30.8840  -17.2970   19.2040 C   0  0  0  0  0  2  0  0  0  0  0  0
  -28.8420  -26.2000   21.3470 C   0  0  0  0  0  2  0  0  0  0  0  0
  -28.3770  -26.6560   20.0690 O   0  0  0  0  0  0  0  0  0  0  0  0
  -24.6580  -31.8990   23.2300 C   0  0  0  0  0  0  0  0  0  0  0  0
  -27.2520  -27.4540   20.1070 C   0  0  0  0  0  0  0  0  0  0  0  0
  -23.4310  -30.5160   21.5860 C   0  0  0  0  0  3  0  0  0  0  0  0
  -24.8680  -28.9780   20.1400 C   0  0  0  0  0  0  0  0  0  0  0  0
  -25.9570  -30.8580   21.3750 C   0  0  0  0  0  2  0  0  0  0  0  0
  -26.0320  -29.4880   20.7320 C   0  0  0  0  0  0  0  0  0  0  0  0
  -27.2280  -28.7290   20.7230 C   0  0  0  0  0  3  0  0  0  0  0  0
  -26.0790  -26.9660   19.5010 C   0  0  0  0  0  3  0  0  0  0  0  0
  -24.8860  -27.7150   19.5230 C   0  0  0  0  0  3  0  0  0  0  0  0
  -23.6280  -29.8430   20.2000 C   0  0  0  0  0  2  0  0  0  0  0  0
  -24.7010  -31.1060   22.1220 N   0  0  0  0  0  0  0  0  0  0  0  0
  -23.5830  -32.1750   23.7800 O   0  0  0  0  0  0  0  0  0  0  0  0
  -22.7780  -29.4940   22.5440 C   0  0  0  0  0  0  0  0  0  0  0  0
  -21.4510  -29.3250   22.4280 N   0  0  0  0  0  0  0  0  0  0  0  0
  -23.4630  -28.8560   23.3480 O   0  0  0  0  0  0  0  0  0  0  0  0
  -20.9600  -29.8930   21.7500 H   0  0  0  0  0  0  0  0  0  0  0  0
  -18.0710  -28.1580   22.9460 C   0  0  0  0  0  0  0  0  0  0  0  0
  -20.6330  -28.3890   23.1970 C   0  0  0  0  0  3  0  0  0  0  0  0
  -20.7170  -26.9620   22.6080 C   0  0  0  0  0  2  0  0  0  0  0  0
  -19.6020  -26.6600   21.6000 C   0  0  0  0  0  2  0  0  0  0  0  0
  -18.2280  -26.8130   22.2580 C   0  0  0  0  0  2  0  0  0  0  0  0
  -19.2000  -28.9050   23.3730 C   0  0  0  0  0  0  0  0  0  0  0  0
  -18.9990  -30.1670   23.9760 C   0  0  0  0  0  3  0  0  0  0  0  0
  -17.7000  -30.6800   24.1570 C   0  0  0  0  0  3  0  0  0  0  0  0
  -16.5860  -29.9290   23.7460 C   0  0  0  0  0  3  0  0  0  0  0  0
  -16.7710  -28.6700   23.1470 C   0  0  0  0  0  3  0  0  0  0  0  0
  -25.9540  -32.5160   23.8440 C   0  0  0  0  0  3  0  0  0  0  0  0
  -25.6520  -33.9070   24.2060 N   0  0  0  0  0  0  0  0  0  0  0  0
  -25.9960  -34.9740   23.4730 C   0  0  0  0  0  0  0  0  0  0  0  0
  -26.6710  -34.8900   22.4430 O   0  0  0  0  0  0  0  0  0  0  0  0
  -25.0550  -34.0470   25.0080 H   0  0  0  0  0  0  0  0  0  0  0  0
  -24.2980  -36.7980   23.1320 C   0  0  0  0  0  1  0  0  0  0  0  0
  -25.5140  -36.3550   23.9590 C   0  0  0  0  0  3  0  0  0  0  0  0
  -27.6380  -37.1890   24.8650 C   0  0  0  0  0  1  0  0  0  0  0  0
  -26.5610  -37.3970   23.9010 N   0  0  0  0  0  0  0  0  0  0  0  0
  -26.1630  -38.3190   24.0640 H   0  0  0  0  0  0  0  0  0  0  0  0
  -26.4910  -31.7170   25.0950 C   0  0  1  0  0  0  0  0  0  0  0  0
  -25.4150  -31.4560   26.1750 C   0  0  0  0  0  1  0  0  0  0  0  0
  -27.0660  -30.3480   24.6610 C   0  0  0  0  0  1  0  0  0  0  0  0
  -27.6530  -32.4950   25.7540 C   0  0  0  0  0  1  0  0  0  0  0  0
  1  5  1  0
  3  1  2  0
  3  6  1  0
  4  2  1  0
  5  7  1  0
  5  2  2  0
  6  4  2  0
  8 11  1  0
  8  7  1  0
  9  8  1  0
 10  8  1  0
 13 12  1  6
 13 22  1  0
 13 11  1  0
 14 22  1  0
 15 20  1  0
 16 17  1  0
 16 15  1  0
 18 17  1  0
 18 27  1  0
 18 19  1  0
 20 14  1  0
 20 19  1  0
 21 14  2  0
 22 23  1  0
 24 25  2  0
 25 26  1  0
 25 44  1  0
 26 29  1  0
 27 24  1  0
 27 28  1  0
 28 26  2  0
 29 30  1  0
 30 31  2  0
 32 35  1  0
 32 31  1  0
 33 32  2  0
 34 33  1  0
 34 29  2  0
 35 36  1  0
 36 37  1  0
 37 38  2  0
 39 38  1  0
 39 43  1  0
 40 39  2  0
 41 36  2  0
 41 40  1  0
 42 41  1  0
 44 45  1  0
 45 48  1  0
 45 47  1  0
 46 44  2  0
 49 50  1  0
 49 24  1  0
 51 49  1  0
 52 53  1  0
 53 13  1  0
 54  6  1  0
 55 57  1  0
 55 54  1  0
 56 67  2  0
 57 62  1  0
 58 66  1  0
 58 68  1  0
 59 65  1  0
 59 61  1  0
 60 66  1  0
 61 60  1  0
 62 61  2  0
 63 64  1  0
 63 57  2  0
 64 59  2  0
 65 58  1  0
 66 56  1  0
 68 70  2  0
 69 68  1  0
 71 69  1  0
 72 81  2  0
 72 77  1  0
 73 69  1  0
 73 77  1  0
 74 73  1  0
 75 76  1  0
 75 74  1  0
 76 72  1  0
 77 78  2  0
 78 79  1  0
 80 79  2  0
 81 80  1  0
 82 56  1  0
 82 83  1  0
 82 92  1  0
 83 86  1  0
 84 88  1  0
 84 83  1  0
 85 84  2  0
 88 87  1  0
 90 88  1  0
 90 91  1  0
 90 89  1  0
 92 95  1  1
 92 93  1  0
 94 92  1  0
M  ISO  4  14 100  22 100  54 101  55 101
M  END
>  <TORSDO>  (34) 
F 22

>  <SCORE>  (34) 
-12.706

>  <name>  (34) 
33

>  <ligand_id>  (34) 
33

>  <original_smiles>  (34) 
[H]c1c([H])c([H])c2c(c1[H])C([H])([H])C([H])([H])C([H])([H])C2([H])N([H])C(=O)C1([H])N(C(=O)C([H])(N([H])C(=O)C([H])(N([H])C([H])([H])[H])C([H])([H])[H])C(C([H])([H])[H])(C([H])([H])[H])C([H])([H])[H])C([H])([H])c2c([H])c(OC([H])([H])c3c([H])c([H])c(C([H])([H])[N+]([H])([H])C([H])([H])C(N([H])C(=O)N4C([H])([H])C([H])([H])C([H])([H])C([H])(n5nc(-c6c([H])c([H])c(Oc7c([H])c([H])c(F)c([H])c7F)c([H])c6[H])c(C(=O)N([H])[H])c5N([H])[H])C4([H])[H])(C([H])([H])[H])C([H])([H])C([H])([H])[H])c([H])c3[H])c([H])c([H])c2C1([H])[H]

>  <smiles>  (34) 
[H]c1c([H])c([H])c2c(c1[H])C([H])([H])C([H])([H])C([H])([H])C2([H])N([H])C(=O)C1([H])N(C(=O)C([H])(N([H])C(=O)C([H])(N([H])C([H])([H])[H])C([H])([H])[H])C(C([H])([H])[H])(C([H])([H])[H])C([H])([H])[H])C([H])([H])c2c([H])c(OC([H])([H])c3c([H])c([H])c(C([H])([H])[N+]([H])([H])C([H])([H])C(N([H])C(=O)N4C([H])([H])C([H])([H])C([H])([H])C([H])(n5nc(-c6c([H])c([H])c(Oc7c([H])c([H])c(F)c([H])c7F)c([H])c6[H])c(C(=O)N([H])[H])c5N([H])[H])C4([H])[H])(C([H])([H])[H])C([H])([H])C([H])([H])[H])c([H])c3[H])c([H])c([H])c2C1([H])[H]

$$$$
34:0:0
     RDKit          3D

 93101  0  0  1  0  0  0  0  0999 V2000
  -30.5040  -15.0250   20.3950 C   0  0  0  0  0  0  0  0  0  0  0  0
  -30.3880  -12.6600   19.4760 C   0  0  0  0  0  2  0  0  0  0  0  0
  -29.4690  -12.6270   18.2340 C   0  0  0  0  0  2  0  0  0  0  0  0
  -28.0010  -12.4220   18.6590 C   0  0  0  0  0  2  0  0  0  0  0  0
  -27.5870  -13.3420   19.8410 C   0  0  0  0  0  3  0  0  0  0  0  0
  -28.6370  -13.3530   20.9710 C   0  0  0  0  0  2  0  0  0  0  0  0
  -29.9050  -13.7630   20.3600 N   0  0  0  0  0  0  0  0  0  0  0  0
  -31.7160  -15.0400   20.1450 O   0  0  0  0  0  0  0  0  0  0  0  0
  -29.2110  -18.9250   20.4150 C   0  0  0  0  0  3  0  0  0  0  0  0
  -29.6110  -20.3290   20.0750 C   0  0  0  0  0  0  0  0  0  0  0  0
  -30.9510  -20.3940   19.5660 C   0  0  0  0  0  0  0  0  0  0  0  0
  -31.7570  -19.2130   19.5800 C   0  0  0  0  0  0  0  0  0  0  0  0
  -30.0720  -17.7120   20.2920 C   0  0  0  0  0  0  0  0  0  0  0  0
  -31.3220  -17.9830   19.9130 N   0  0  0  0  0  0  0  0  0  0  0  0
  -29.7340  -16.2290   20.5220 N   0  0  0  0  0  0  0  0  0  0  0  0
  -28.7670  -16.0540   20.7390 H   0  0  0  0  0  0  0  0  0  0  0  0
  -25.1980  -13.9060   20.5660 C   0  0  0  0  0  0  0  0  0  0  0  0
  -24.1370  -13.1290   20.9290 C   0  0  0  0  0  0  0  0  0  0  0  0
  -24.6030  -11.7780   20.8910 C   0  0  0  0  0  0  0  0  0  0  0  0
  -26.2480  -13.0340   20.3300 N   0  0  0  0  0  0  0  0  0  0  0  0
  -25.8970  -11.7470   20.5880 N   0  0  0  0  0  0  0  0  0  0  0  0
  -23.8760  -10.5140   21.0700 C   0  0  0  0  0  0  0  0  0  0  0  0
  -24.2950   -9.5450   22.0090 C   0  0  0  0  0  3  0  0  0  0  0  0
  -23.5690   -8.3470   22.1780 C   0  0  0  0  0  3  0  0  0  0  0  0
  -22.4080   -8.1060   21.4040 C   0  0  0  0  0  0  0  0  0  0  0  0
  -22.0050   -9.0630   20.4560 C   0  0  0  0  0  3  0  0  0  0  0  0
  -22.7320  -10.2540   20.2860 C   0  0  0  0  0  3  0  0  0  0  0  0
  -21.6560   -6.9580   21.4790 O   0  0  0  0  0  0  0  0  0  0  0  0
  -21.5800   -6.2220   22.6350 C   0  0  0  0  0  0  0  0  0  0  0  0
  -21.0700   -6.7660   23.8330 C   0  0  0  0  0  3  0  0  0  0  0  0
  -20.9430   -5.9550   24.9780 C   0  0  0  0  0  3  0  0  0  0  0  0
  -21.3170   -4.5990   24.9250 C   0  0  0  0  0  0  0  0  0  0  0  0
  -21.8240   -4.0550   23.7310 C   0  0  0  0  0  3  0  0  0  0  0  0
  -21.9500   -4.8630   22.5890 C   0  0  0  0  0  0  0  0  0  0  0  0
  -22.4170   -4.3280   21.4350 F   0  0  0  0  0  0  0  0  0  0  0  0
  -21.1900   -3.8170   26.0230 F   0  0  0  0  0  0  0  0  0  0  0  0
  -22.7360  -13.6010   21.1930 C   0  0  0  0  0  0  0  0  0  0  0  0
  -22.0030  -12.9060   22.0530 N   0  0  0  0  0  0  0  0  0  0  0  0
  -22.2990  -14.6240   20.6650 O   0  0  0  0  0  0  0  0  0  0  0  0
  -22.3660  -12.0800   22.5040 H   0  0  0  0  0  0  0  0  0  0  0  0
  -21.0630  -13.2080   22.2650 H   0  0  0  0  0  0  0  0  0  0  0  0
  -25.3560  -15.2780   20.3920 N   0  0  0  0  0  0  0  0  0  0  0  0
  -24.5610  -15.9070   20.4640 H   0  0  0  0  0  0  0  0  0  0  0  0
  -26.1670  -15.7130   19.9740 H   0  0  0  0  0  0  0  0  0  0  0  0
  -30.8080  -22.1270   17.6800 C   0  0  0  0  0  1  0  0  0  0  0  0
  -31.5370  -21.6800   18.9630 C   0  0  0  0  0  3  0  0  0  0  0  0
  -31.6650  -22.6250   19.8930 F   0  0  0  0  0  0  0  0  0  0  0  0
  -34.0110  -19.4250   20.6830 C   0  0  0  0  0  1  0  0  0  0  0  0
  -33.2670  -19.1710   19.3620 C   0  0  0  0  0  2  0  0  0  0  0  0
  -28.6050  -21.6680   20.1220 C   0  0  0  0  0  2  0  0  0  0  0  0
  -28.9370  -23.3290   20.3820 C   0  0  0  0  0  3  0  0  0  0  0  0
  -27.8900  -24.6530   20.1910 C   0  0  0  0  0  3  0  0  0  0  0  0
  -28.1940  -26.1890   20.3360 O   0  0  0  0  0  0  0  0  0  0  0  0
  -24.6290  -31.9800   23.2620 C   0  0  0  0  0  0  0  0  0  0  0  0
  -27.1570  -27.1990   20.2670 C   0  0  0  0  0  0  0  0  0  0  0  0
  -23.4220  -30.5910   21.6260 C   0  0  0  0  0  3  0  0  0  0  0  0
  -24.8590  -28.9930   20.2140 C   0  0  0  0  0  0  0  0  0  0  0  0
  -25.9830  -30.8160   21.4750 C   0  0  0  0  0  2  0  0  0  0  0  0
  -26.0440  -29.4210   20.8280 C   0  0  0  0  0  0  0  0  0  0  0  0
  -27.1960  -28.5420   20.8300 C   0  0  0  0  0  3  0  0  0  0  0  0
  -25.9440  -26.8780   19.6200 C   0  0  0  0  0  3  0  0  0  0  0  0
  -24.8280  -27.7390   19.5890 C   0  0  0  0  0  3  0  0  0  0  0  0
  -23.6370  -29.9000   20.2550 C   0  0  0  0  0  2  0  0  0  0  0  0
  -24.6990  -31.1520   22.1740 N   0  0  0  0  0  0  0  0  0  0  0  0
  -23.5410  -32.2810   23.7800 O   0  0  0  0  0  0  0  0  0  0  0  0
  -22.7260  -29.5950   22.5880 C   0  0  0  0  0  0  0  0  0  0  0  0
  -21.4000  -29.4260   22.4390 N   0  0  0  0  0  0  0  0  0  0  0  0
  -23.3820  -28.9760   23.4290 O   0  0  0  0  0  0  0  0  0  0  0  0
  -20.9300  -29.9660   21.7270 H   0  0  0  0  0  0  0  0  0  0  0  0
  -18.0060  -28.2650   22.9400 C   0  0  0  0  0  0  0  0  0  0  0  0
  -20.5670  -28.5030   23.2130 C   0  0  0  0  0  3  0  0  0  0  0  0
  -20.6560  -27.0690   22.6430 C   0  0  0  0  0  2  0  0  0  0  0  0
  -19.5550  -26.7530   21.6250 C   0  0  0  0  0  2  0  0  0  0  0  0
  -18.1730  -26.9140   22.2640 C   0  0  0  0  0  2  0  0  0  0  0  0
  -19.1310  -29.0180   23.3720 C   0  0  0  0  0  0  0  0  0  0  0  0
  -18.9230  -30.2810   23.9670 C   0  0  0  0  0  3  0  0  0  0  0  0
  -17.6230  -30.7960   24.1260 C   0  0  0  0  0  3  0  0  0  0  0  0
  -16.5120  -30.0420   23.7090 C   0  0  0  0  0  3  0  0  0  0  0  0
  -16.7050  -28.7770   23.1260 C   0  0  0  0  0  3  0  0  0  0  0  0
  -25.9080  -32.6040   23.8970 C   0  0  0  0  0  3  0  0  0  0  0  0
  -26.4040  -31.8350   25.1830 C   0  0  1  0  0  0  0  0  0  0  0  0
  -25.2940  -31.6060   26.2340 C   0  0  0  0  0  1  0  0  0  0  0  0
  -26.9840  -30.4550   24.8020 C   0  0  0  0  0  1  0  0  0  0  0  0
  -27.5550  -32.6230   25.8540 C   0  0  0  0  0  1  0  0  0  0  0  0
  -25.6090  -34.0070   24.2270 N   0  0  0  0  0  0  0  0  0  0  0  0
  -25.9230  -35.0570   23.4580 C   0  0  0  0  0  0  0  0  0  0  0  0
  -26.5660  -34.9470   22.4110 O   0  0  0  0  0  0  0  0  0  0  0  0
  -25.0410  -34.1690   25.0470 H   0  0  0  0  0  0  0  0  0  0  0  0
  -24.1820  -36.8460   23.1520 C   0  0  0  0  0  1  0  0  0  0  0  0
  -25.4500  -36.4480   23.9250 C   0  0  0  0  0  3  0  0  0  0  0  0
  -27.6030  -37.3430   24.6910 C   0  0  0  0  0  1  0  0  0  0  0  0
  -26.4790  -37.5010   23.7740 N   0  0  0  0  0  0  0  0  0  0  0  0
  -26.0760  -38.4230   23.9220 H   0  0  0  0  0  0  0  0  0  0  0  0
  1 15  1  0
  2  7  1  0
  3  4  1  0
  3  2  1  0
  5  4  1  0
  5 20  1  0
  5  6  1  0
  7  1  1  0
  7  6  1  0
  8  1  2  0
 10 50  1  0
 10  9  2  0
 11 12  2  0
 11 10  1  0
 12 14  1  0
 13  9  1  0
 13 15  1  0
 14 13  2  0
 15 16  1  0
 17 18  2  0
 18 37  1  0
 19 18  1  0
 19 22  1  0
 20 17  1  0
 20 21  1  0
 21 19  2  0
 22 23  1  0
 23 24  2  0
 25 28  1  0
 25 24  1  0
 26 25  2  0
 27 26  1  0
 27 22  2  0
 28 29  1  0
 29 30  1  0
 30 31  2  0
 32 31  1  0
 32 36  1  0
 33 32  2  0
 34 29  2  0
 34 33  1  0
 35 34  1  0
 37 38  1  0
 38 41  1  0
 38 40  1  0
 39 37  2  0
 42 43  1  0
 42 17  1  0
 44 42  1  0
 46 45  1  0
 46 11  1  0
 46 47  1  0
 49 12  1  0
 49 48  1  0
 50 51  1  0
 52 53  1  0
 52 51  2  0
 54 65  2  0
 55 53  1  0
 55 60  1  0
 56 64  1  0
 56 66  1  0
 57 63  1  0
 57 59  1  0
 58 64  1  0
 59 60  2  0
 59 58  1  0
 61 55  2  0
 62 61  1  0
 62 57  2  0
 63 56  1  0
 64 54  1  0
 66 68  2  0
 67 66  1  0
 69 67  1  0
 70 79  2  0
 70 75  1  0
 71 67  1  0
 71 75  1  0
 72 71  1  0
 73 74  1  0
 73 72  1  0
 74 70  1  0
 75 76  2  0
 76 77  1  0
 78 77  2  0
 79 78  1  0
 80 54  1  0
 80 85  1  0
 80 81  1  0
 81 84  1  1
 81 82  1  0
 83 81  1  0
 85 88  1  0
 86 90  1  0
 86 85  1  0
 87 86  2  0
 90 89  1  0
 92 93  1  0
 92 90  1  0
 92 91  1  0
M  ISO  4   1 100  15 100  52 101  53 101
M  END
>  <TORSDO>  (35) 
F 20

>  <SCORE>  (35) 
-15.158

>  <name>  (35) 
34

>  <ligand_id>  (35) 
34

>  <original_smiles>  (35) 
[H]c1c([H])c([H])c2c(c1[H])C([H])([H])C([H])([H])C([H])([H])C2([H])N([H])C(=O)C1([H])N(C(=O)C([H])(N([H])C(=O)C([H])(N([H])C([H])([H])[H])C([H])([H])[H])C(C([H])([H])[H])(C([H])([H])[H])C([H])([H])[H])C([H])([H])c2c([H])c(OC([H])([H])C([H])([H])C([H])([H])c3c([H])c(N([H])C(=O)N4C([H])([H])C([H])([H])C([H])([H])C([H])(n5nc(-c6c([H])c([H])c(Oc7c([H])c([H])c(F)c([H])c7F)c([H])c6[H])c(C(=O)N([H])[H])c5N([H])[H])C4([H])[H])nc(C([H])([H])C([H])([H])[H])c3C([H])(F)C([H])([H])[H])c([H])c([H])c2C1([H])[H]

>  <smiles>  (35) 
[H]c1c([H])c([H])c2c(c1[H])C([H])([H])C([H])([H])C([H])([H])C2([H])N([H])C(=O)C1([H])N(C(=O)C([H])(N([H])C(=O)C([H])(N([H])C([H])([H])[H])C([H])([H])[H])C(C([H])([H])[H])(C([H])([H])[H])C([H])([H])[H])C([H])([H])c2c([H])c(OC([H])([H])C([H])([H])C([H])([H])c3c([H])c(N([H])C(=O)N4C([H])([H])C([H])([H])C([H])([H])C([H])(n5nc(-c6c([H])c([H])c(Oc7c([H])c([H])c(F)c([H])c7F)c([H])c6[H])c(C(=O)N([H])[H])c5N([H])[H])C4([H])[H])nc(C([H])([H])C([H])([H])[H])c3C([H])(F)C([H])([H])[H])c([H])c([H])c2C1([H])[H]

$$$$
35:0:0
     RDKit          3D

 97105  0  0  1  0  0  0  0  0999 V2000
  -30.0730  -22.5250   20.6320 C   0  0  0  0  0  2  0  0  0  0  0  0
  -30.0890  -20.1820   19.1670 C   0  0  0  0  0  3  0  0  0  0  0  0
  -30.1850  -18.7330   19.1020 C   0  0  0  0  0  3  0  0  0  0  0  0
  -30.3790  -20.0670   21.5120 C   0  0  0  0  0  3  0  0  0  0  0  0
  -30.1190  -20.9150   20.3950 C   0  0  0  0  0  0  0  0  0  0  0  0
  -30.2750  -17.8780   20.2540 C   0  0  0  0  0  0  0  0  0  0  0  0
  -30.4520  -18.6220   21.4730 C   0  0  0  0  0  0  0  0  0  0  0  0
  -30.6910  -18.5550   23.8820 C   0  0  0  0  0  1  0  0  0  0  0  0
  -30.5940  -17.8810   22.6300 O   0  0  0  0  0  0  0  0  0  0  0  0
  -29.6750  -16.3500   20.3380 C   0  0  0  0  0  3  0  0  0  0  0  0
  -30.3250  -14.9420   19.6950 C   0  0  0  0  0  0  0  0  0  0  0  0
  -30.2200  -12.5680   18.7480 C   0  0  0  0  0  2  0  0  0  0  0  0
  -29.1610  -12.4690   17.6220 C   0  0  0  0  0  2  0  0  0  0  0  0
  -27.7540  -12.2020   18.1960 C   0  0  0  0  0  2  0  0  0  0  0  0
  -27.4380  -13.1010   19.4210 C   0  0  0  0  0  3  0  0  0  0  0  0
  -28.6270  -13.1080   20.4170 C   0  0  0  0  0  2  0  0  0  0  0  0
  -29.7960  -13.6390   19.7020 N   0  0  0  0  0  0  0  0  0  0  0  0
  -31.4240  -15.0490   19.1360 O   0  0  0  0  0  0  0  0  0  0  0  0
  -25.0690  -13.5980   20.3130 C   0  0  0  0  0  0  0  0  0  0  0  0
  -24.0860  -12.7990   20.8120 C   0  0  0  0  0  0  0  0  0  0  0  0
  -24.6010  -11.4730   20.7470 C   0  0  0  0  0  0  0  0  0  0  0  0
  -26.1480  -12.7700   20.0290 N   0  0  0  0  0  0  0  0  0  0  0  0
  -25.8660  -11.4790   20.3350 N   0  0  0  0  0  0  0  0  0  0  0  0
  -23.9350  -10.1940   20.9980 C   0  0  0  0  0  0  0  0  0  0  0  0
  -24.4230   -9.2840   21.9600 C   0  0  0  0  0  3  0  0  0  0  0  0
  -23.7490   -8.0680   22.1960 C   0  0  0  0  0  3  0  0  0  0  0  0
  -22.5750   -7.7560   21.4720 C   0  0  0  0  0  0  0  0  0  0  0  0
  -22.1060   -8.6550   20.5000 C   0  0  0  0  0  3  0  0  0  0  0  0
  -22.7820   -9.8620   20.2600 C   0  0  0  0  0  3  0  0  0  0  0  0
  -21.8680   -6.5890   21.6200 O   0  0  0  0  0  0  0  0  0  0  0  0
  -21.7840   -5.9510   22.8310 C   0  0  0  0  0  0  0  0  0  0  0  0
  -21.2560   -6.5890   23.9750 C   0  0  0  0  0  3  0  0  0  0  0  0
  -21.1270   -5.8740   25.1820 C   0  0  0  0  0  3  0  0  0  0  0  0
  -21.5130   -4.5210   25.2440 C   0  0  0  0  0  0  0  0  0  0  0  0
  -22.0340   -3.8840   24.1040 C   0  0  0  0  0  3  0  0  0  0  0  0
  -22.1660   -4.5960   22.9010 C   0  0  0  0  0  0  0  0  0  0  0  0
  -22.6530   -3.9730   21.8000 F   0  0  0  0  0  0  0  0  0  0  0  0
  -21.3780   -3.8310   26.4000 F   0  0  0  0  0  0  0  0  0  0  0  0
  -22.7090  -13.2420   21.2170 C   0  0  0  0  0  0  0  0  0  0  0  0
  -22.0990  -12.5420   22.1660 N   0  0  0  0  0  0  0  0  0  0  0  0
  -22.1910  -14.2490   20.7380 O   0  0  0  0  0  0  0  0  0  0  0  0
  -22.5360  -11.7300   22.5800 H   0  0  0  0  0  0  0  0  0  0  0  0
  -21.1830  -12.8230   22.4900 H   0  0  0  0  0  0  0  0  0  0  0  0
  -25.0860  -14.9530   20.0570 N   0  0  0  0  0  0  0  0  0  0  0  0
  -24.2700  -15.5350   20.2060 H   0  0  0  0  0  0  0  0  0  0  0  0
  -25.8950  -15.4680   19.7280 H   0  0  0  0  0  0  0  0  0  0  0  0
  -27.1590  -15.8840   21.1900 C   0  0  0  0  0  1  0  0  0  0  0  0
  -27.5650  -17.3310   19.0040 C   0  0  0  0  0  1  0  0  0  0  0  0
  -28.1290  -16.6830   20.2960 C   0  0  0  0  0  3  0  0  0  0  0  0
  -29.1170  -23.6870   19.9640 C   0  0  0  0  0  2  0  0  0  0  0  0
  -28.7920  -25.0720   20.8150 C   0  0  0  0  0  3  0  0  0  0  0  0
  -28.6450  -26.4910   20.2460 O   0  0  0  0  0  0  0  0  0  0  0  0
  -24.5280  -31.7810   23.2250 C   0  0  0  0  0  0  0  0  0  0  0  0
  -27.4650  -27.2970   20.2610 C   0  0  0  0  0  0  0  0  0  0  0  0
  -23.4460  -30.3420   21.5350 C   0  0  0  0  0  3  0  0  0  0  0  0
  -25.0200  -28.8400   20.1720 C   0  0  0  0  0  0  0  0  0  0  0  0
  -25.9790  -30.7570   21.4440 C   0  0  0  0  0  2  0  0  0  0  0  0
  -26.1490  -29.3750   20.8060 C   0  0  0  0  0  0  0  0  0  0  0  0
  -27.3720  -28.6190   20.8320 C   0  0  0  0  0  3  0  0  0  0  0  0
  -26.3040  -26.8280   19.6090 C   0  0  0  0  0  3  0  0  0  0  0  0
  -25.1020  -27.5730   19.5690 C   0  0  0  0  0  3  0  0  0  0  0  0
  -23.7480  -29.6710   20.1670 C   0  0  0  0  0  2  0  0  0  0  0  0
  -24.6670  -30.9800   22.1270 N   0  0  0  0  0  0  0  0  0  0  0  0
  -23.4140  -32.0090   23.7230 O   0  0  0  0  0  0  0  0  0  0  0  0
  -22.7850  -29.3010   22.4690 C   0  0  0  0  0  0  0  0  0  0  0  0
  -21.4700  -29.0730   22.2960 N   0  0  0  0  0  0  0  0  0  0  0  0
  -23.4580  -28.6960   23.3070 O   0  0  0  0  0  0  0  0  0  0  0  0
  -20.9830  -29.6190   21.5990 H   0  0  0  0  0  0  0  0  0  0  0  0
  -18.1290  -27.7310   22.6680 C   0  0  0  0  0  0  0  0  0  0  0  0
  -20.6650  -28.0950   23.0290 C   0  0  0  0  0  3  0  0  0  0  0  0
  -20.8440  -26.6730   22.4470 C   0  0  0  0  0  2  0  0  0  0  0  0
  -19.7930  -26.3150   21.3920 C   0  0  0  0  0  2  0  0  0  0  0  0
  -18.3850  -26.3960   21.9890 C   0  0  0  0  0  2  0  0  0  0  0  0
  -19.2000  -28.5350   23.1420 C   0  0  0  0  0  0  0  0  0  0  0  0
  -18.9070  -29.7820   23.7370 C   0  0  0  0  0  3  0  0  0  0  0  0
  -17.5780  -30.2260   23.8630 C   0  0  0  0  0  3  0  0  0  0  0  0
  -16.5220  -29.4190   23.4040 C   0  0  0  0  0  3  0  0  0  0  0  0
  -16.7980  -28.1740   22.8120 C   0  0  0  0  0  3  0  0  0  0  0  0
  -25.7570  -32.4660   23.9000 C   0  0  0  0  0  3  0  0  0  0  0  0
  -26.2340  -31.7330   25.2150 C   0  0  1  0  0  0  0  0  0  0  0  0
  -25.0980  -31.4770   26.2330 C   0  0  0  0  0  1  0  0  0  0  0  0
  -26.8820  -30.3700   24.8780 C   0  0  0  0  0  1  0  0  0  0  0  0
  -27.3240  -32.5760   25.9170 C   0  0  0  0  0  1  0  0  0  0  0  0
  -25.3860  -33.8590   24.1920 N   0  0  0  0  0  0  0  0  0  0  0  0
  -25.7150  -34.9110   23.4310 C   0  0  0  0  0  0  0  0  0  0  0  0
  -26.4270  -34.8130   22.4270 O   0  0  0  0  0  0  0  0  0  0  0  0
  -24.7490  -34.0040   24.9610 H   0  0  0  0  0  0  0  0  0  0  0  0
  -23.9450  -36.6450   22.9910 C   0  0  0  0  0  1  0  0  0  0  0  0
  -25.1710  -36.2920   23.8470 C   0  0  0  0  0  3  0  0  0  0  0  0
  -27.2470  -37.2620   24.7320 C   0  0  0  0  0  1  0  0  0  0  0  0
  -26.1720  -37.3760   23.7480 N   0  0  0  0  0  0  0  0  0  0  0  0
  -25.7340  -38.2850   23.8610 H   0  0  0  0  0  0  0  0  0  0  0  0
  -27.6970  -24.7680   21.8640 C   0  0  0  0  0  2  0  0  0  0  0  0
  -27.7700  -25.6610   23.0380 N   0  0  0  0  0  4  0  0  0  0  0  0
  -28.6400  -25.5460   23.5310 H   0  0  0  0  0  0  0  0  0  0  0  0
  -27.0180  -25.4620   23.6750 H   0  0  0  0  0  0  0  0  0  0  0  0
  -27.6920  -26.6200   22.7410 H   0  0  0  0  0  0  0  0  0  0  0  0
  2  5  1  0
  3  2  2  0
  3  6  1  0
  5  1  1  0
  5  4  2  0
  6 10  1  0
  6  7  2  0
  7  4  1  0
  7  9  1  0
  9  8  1  0
 10 11  1  0
 11 17  1  0
 12 17  1  0
 13 14  1  0
 13 12  1  0
 15 14  1  0
 15 22  1  0
 15 16  1  0
 17 16  1  0
 18 11  2  0
 19 20  2  0
 20 39  1  0
 21 20  1  0
 21 24  1  0
 22 19  1  0
 22 23  1  0
 23 21  2  0
 24 25  1  0
 25 26  2  0
 27 30  1  0
 27 26  1  0
 28 27  2  0
 29 28  1  0
 29 24  2  0
 30 31  1  0
 31 36  2  0
 31 32  1  0
 32 33  2  0
 33 34  1  0
 34 38  1  0
 35 34  2  0
 36 35  1  0
 37 36  1  0
 39 40  1  0
 40 43  1  0
 40 42  1  0
 41 39  2  0
 44 45  1  0
 44 19  1  0
 46 44  1  0
 48 49  1  0
 49 10  1  0
 49 47  1  0
 50  1  1  0
 51 50  1  0
 51 93  1  0
 52 54  1  0
 52 51  1  0
 53 64  2  0
 54 59  1  0
 55 63  1  0
 55 65  1  0
 56 58  1  0
 57 63  1  0
 58 59  2  0
 58 57  1  0
 60 54  2  0
 61 60  1  0
 61 56  2  0
 62 56  1  0
 62 55  1  0
 63 53  1  0
 65 67  2  0
 66 65  1  0
 68 66  1  0
 69 78  2  0
 69 74  1  0
 70 66  1  0
 70 74  1  0
 71 70  1  0
 72 73  1  0
 72 71  1  0
 73 69  1  0
 74 75  2  0
 75 76  1  0
 77 76  2  0
 78 77  1  0
 79 53  1  0
 79 84  1  0
 79 80  1  0
 80 83  1  1
 80 81  1  0
 82 80  1  0
 84 87  1  0
 85 89  1  0
 85 84  1  0
 86 85  2  0
 89 88  1  0
 91 89  1  0
 91 92  1  0
 91 90  1  0
 93 94  1  0
 94 95  1  0
 94 96  1  0
 97 94  1  0
M  ISO  4  10 100  11 100  51 101  52 101
M  END
>  <TORSDO>  (36) 
F 24

>  <SCORE>  (36) 
-10.804

>  <name>  (36) 
35

>  <ligand_id>  (36) 
35

>  <original_smiles>  (36) 
[H]c1c([H])c([H])c2c(c1[H])C([H])([H])C([H])([H])C([H])([H])C2([H])N([H])C(=O)C1([H])N(C(=O)C([H])(N([H])C(=O)C([H])(N([H])C([H])([H])[H])C([H])([H])[H])C(C([H])([H])[H])(C([H])([H])[H])C([H])([H])[H])C([H])([H])c2c([H])c(OC([H])(C([H])([H])C([H])([H])c3c([H])c([H])c(C([H])(C(=O)N4C([H])([H])C([H])([H])C([H])([H])C([H])(n5nc(-c6c([H])c([H])c(Oc7c([H])c([H])c(F)c([H])c7F)c([H])c6[H])c(C(=O)N([H])[H])c5N([H])[H])C4([H])[H])C([H])(C([H])([H])[H])C([H])([H])[H])c(OC([H])([H])[H])c3[H])C([H])([H])[N+]([H])([H])[H])c([H])c([H])c2C1([H])[H]

>  <smiles>  (36) 
[H]c1c([H])c([H])c2c(c1[H])C([H])([H])C([H])([H])C([H])([H])C2([H])N([H])C(=O)C1([H])N(C(=O)C([H])(N([H])C(=O)C([H])(N([H])C([H])([H])[H])C([H])([H])[H])C(C([H])([H])[H])(C([H])([H])[H])C([H])([H])[H])C([H])([H])c2c([H])c(OC([H])(C([H])([H])C([H])([H])c3c([H])c([H])c(C([H])(C(=O)N4C([H])([H])C([H])([H])C([H])([H])C([H])(n5nc(-c6c([H])c([H])c(Oc7c([H])c([H])c(F)c([H])c7F)c([H])c6[H])c(C(=O)N([H])[H])c5N([H])[H])C4([H])[H])C([H])(C([H])([H])[H])C([H])([H])[H])c(OC([H])([H])[H])c3[H])C([H])([H])[N+]([H])([H])[H])c([H])c([H])c2C1([H])[H]

$$$$
36:0:0
     RDKit          3D

 94102  0  0  1  0  0  0  0  0999 V2000
  -30.7220  -21.3790   21.0240 C   0  0  0  0  0  2  0  0  0  0  0  0
  -28.5360  -22.3430   20.3020 C   0  0  0  0  0  2  0  0  0  0  0  0
  -31.3250  -22.7940   20.8380 C   0  0  0  0  0  2  0  0  0  0  0  0
  -29.5840  -21.1600   20.0150 C   0  0  0  0  0  3  0  0  0  0  0  0
  -29.0980  -23.8620   20.3180 C   0  0  0  0  0  3  0  0  0  0  0  0
  -30.3580  -23.8870   21.1080 N   0  0  0  0  0  4  0  0  0  0  0  0
  -30.8200  -24.7670   20.9260 H   0  0  0  0  0  0  0  0  0  0  0  0
  -30.1390  -23.8830   22.0930 H   0  0  0  0  0  0  0  0  0  0  0  0
  -28.3940  -19.4900   18.6120 C   0  0  0  0  0  1  0  0  0  0  0  0
  -29.0160  -19.7220   19.9450 N   0  0  1  0  0  4  0  0  0  0  0  0
  -28.2350  -19.7330   20.5830 H   0  0  0  0  0  0  0  0  0  0  0  0
  -29.8380  -18.5030   20.4280 C   0  0  0  0  0  2  0  0  0  0  0  0
  -29.4060  -17.0350   19.9080 C   0  0  0  0  0  2  0  0  0  0  0  0
  -30.5250  -14.7040   20.3630 C   0  0  0  0  0  0  0  0  0  0  0  0
  -30.3490  -12.4480   19.3390 C   0  0  0  0  0  2  0  0  0  0  0  0
  -29.4050  -12.5720   18.1200 C   0  0  0  0  0  2  0  0  0  0  0  0
  -27.9350  -12.4000   18.5470 C   0  0  0  0  0  2  0  0  0  0  0  0
  -27.5680  -13.2630   19.7840 C   0  0  0  0  0  3  0  0  0  0  0  0
  -28.6280  -13.1120   20.9020 C   0  0  0  0  0  2  0  0  0  0  0  0
  -29.9380  -13.4640   20.3320 N   0  0  0  0  0  0  0  0  0  0  0  0
  -31.6640  -14.8880   19.9300 O   0  0  0  0  0  0  0  0  0  0  0  0
  -29.7010  -15.7560   20.6740 N   0  0  0  0  0  0  0  0  0  0  0  0
  -28.8970  -15.4310   21.1910 H   0  0  0  0  0  0  0  0  0  0  0  0
  -25.1690  -13.8500   20.4990 C   0  0  0  0  0  0  0  0  0  0  0  0
  -24.1070  -13.0700   20.8680 C   0  0  0  0  0  0  0  0  0  0  0  0
  -24.5800  -11.7230   20.8420 C   0  0  0  0  0  0  0  0  0  0  0  0
  -26.2200  -12.9760   20.2660 N   0  0  0  0  0  0  0  0  0  0  0  0
  -25.8710  -11.6920   20.5370 N   0  0  0  0  0  0  0  0  0  0  0  0
  -23.8650  -10.4540   21.0340 C   0  0  0  0  0  0  0  0  0  0  0  0
  -24.3010   -9.4940   21.9730 C   0  0  0  0  0  3  0  0  0  0  0  0
  -23.5840   -8.2920   22.1540 C   0  0  0  0  0  3  0  0  0  0  0  0
  -22.4170   -8.0400   21.3940 C   0  0  0  0  0  0  0  0  0  0  0  0
  -21.9980   -8.9900   20.4460 C   0  0  0  0  0  3  0  0  0  0  0  0
  -22.7170  -10.1840   20.2640 C   0  0  0  0  0  3  0  0  0  0  0  0
  -21.6720   -6.8890   21.4820 O   0  0  0  0  0  0  0  0  0  0  0  0
  -21.6220   -6.1510   22.6360 C   0  0  0  0  0  0  0  0  0  0  0  0
  -21.1770   -6.7040   23.8570 C   0  0  0  0  0  3  0  0  0  0  0  0
  -21.0780   -5.8920   25.0030 C   0  0  0  0  0  3  0  0  0  0  0  0
  -21.4120   -4.5260   24.9300 C   0  0  0  0  0  0  0  0  0  0  0  0
  -21.8480   -3.9720   23.7140 C   0  0  0  0  0  3  0  0  0  0  0  0
  -21.9500   -4.7810   22.5700 C   0  0  0  0  0  0  0  0  0  0  0  0
  -22.3510   -4.2380   21.3950 F   0  0  0  0  0  0  0  0  0  0  0  0
  -21.3080   -3.7420   26.0280 F   0  0  0  0  0  0  0  0  0  0  0  0
  -22.7050  -13.5360   21.1350 C   0  0  0  0  0  0  0  0  0  0  0  0
  -21.9810  -12.8360   21.9990 N   0  0  0  0  0  0  0  0  0  0  0  0
  -22.2620  -14.5580   20.6120 O   0  0  0  0  0  0  0  0  0  0  0  0
  -22.3510  -12.0080   22.4430 H   0  0  0  0  0  0  0  0  0  0  0  0
  -21.0410  -13.1330   22.2220 H   0  0  0  0  0  0  0  0  0  0  0  0
  -25.3230  -15.2220   20.3190 N   0  0  0  0  0  0  0  0  0  0  0  0
  -24.5510  -15.8670   20.4420 H   0  0  0  0  0  0  0  0  0  0  0  0
  -26.1620  -15.6650   19.9680 H   0  0  0  0  0  0  0  0  0  0  0  0
  -26.7260  -24.5830   21.1220 C   0  0  0  0  0  1  0  0  0  0  0  0
  -28.1610  -25.0790   20.8490 C   0  0  0  0  0  3  0  0  0  0  0  0
  -28.3050  -26.4390   20.2160 O   0  0  0  0  0  0  0  0  0  0  0  0
  -24.6140  -31.9040   23.2520 C   0  0  0  0  0  0  0  0  0  0  0  0
  -27.2200  -27.3370   20.1910 C   0  0  0  0  0  0  0  0  0  0  0  0
  -23.4130  -30.5040   21.6120 C   0  0  0  0  0  3  0  0  0  0  0  0
  -24.8660  -28.9650   20.1770 C   0  0  0  0  0  0  0  0  0  0  0  0
  -25.9530  -30.8200   21.4350 C   0  0  0  0  0  2  0  0  0  0  0  0
  -26.0330  -29.4420   20.7890 C   0  0  0  0  0  0  0  0  0  0  0  0
  -27.2140  -28.6350   20.7990 C   0  0  0  0  0  3  0  0  0  0  0  0
  -26.0540  -26.9580   19.4950 C   0  0  0  0  0  3  0  0  0  0  0  0
  -24.8790  -27.7270   19.5210 C   0  0  0  0  0  3  0  0  0  0  0  0
  -23.6270  -29.8390   20.2280 C   0  0  0  0  0  2  0  0  0  0  0  0
  -24.6780  -31.0930   22.1550 N   0  0  0  0  0  0  0  0  0  0  0  0
  -23.5290  -32.1780   23.7870 O   0  0  0  0  0  0  0  0  0  0  0  0
  -22.7550  -29.4810   22.5700 C   0  0  0  0  0  0  0  0  0  0  0  0
  -21.4290  -29.2990   22.4440 N   0  0  0  0  0  0  0  0  0  0  0  0
  -23.4350  -28.8560   23.3870 O   0  0  0  0  0  0  0  0  0  0  0  0
  -20.9390  -29.8560   21.7590 H   0  0  0  0  0  0  0  0  0  0  0  0
  -18.0530  -28.1030   22.9490 C   0  0  0  0  0  0  0  0  0  0  0  0
  -20.6120  -28.3610   23.2160 C   0  0  0  0  0  3  0  0  0  0  0  0
  -20.7130  -26.9300   22.6420 C   0  0  0  0  0  2  0  0  0  0  0  0
  -19.6120  -26.6060   21.6280 C   0  0  0  0  0  2  0  0  0  0  0  0
  -18.2290  -26.7540   22.2700 C   0  0  0  0  0  2  0  0  0  0  0  0
  -19.1730  -28.8640   23.3780 C   0  0  0  0  0  0  0  0  0  0  0  0
  -18.9550  -30.1250   23.9720 C   0  0  0  0  0  3  0  0  0  0  0  0
  -17.6500  -30.6260   24.1420 C   0  0  0  0  0  3  0  0  0  0  0  0
  -16.5450  -29.8630   23.7290 C   0  0  0  0  0  3  0  0  0  0  0  0
  -16.7480  -28.6020   23.1390 C   0  0  0  0  0  3  0  0  0  0  0  0
  -25.8960  -32.5390   23.8720 C   0  0  0  0  0  3  0  0  0  0  0  0
  -26.4030  -31.7840   25.1600 C   0  0  1  0  0  0  0  0  0  0  0  0
  -25.3040  -31.5680   26.2270 C   0  0  0  0  0  1  0  0  0  0  0  0
  -26.9810  -30.3980   24.7920 C   0  0  0  0  0  1  0  0  0  0  0  0
  -27.5550  -32.5810   25.8160 C   0  0  0  0  0  1  0  0  0  0  0  0
  -25.5880  -33.9420   24.1850 N   0  0  0  0  0  0  0  0  0  0  0  0
  -25.9270  -34.9860   23.4160 C   0  0  0  0  0  0  0  0  0  0  0  0
  -26.6010  -34.8710   22.3890 O   0  0  0  0  0  0  0  0  0  0  0  0
  -24.9980  -34.1090   24.9870 H   0  0  0  0  0  0  0  0  0  0  0  0
  -24.2080  -36.7800   23.0300 C   0  0  0  0  0  1  0  0  0  0  0  0
  -25.4400  -36.3800   23.8570 C   0  0  0  0  0  3  0  0  0  0  0  0
  -27.5710  -37.2610   24.7010 C   0  0  0  0  0  1  0  0  0  0  0  0
  -26.4770  -37.4290   23.7470 N   0  0  0  0  0  0  0  0  0  0  0  0
  -26.0730  -38.3510   23.8870 H   0  0  0  0  0  0  0  0  0  0  0  0
  2  5  1  0
  3  1  1  0
  3  6  1  0
  4 10  1  0
  4  2  1  0
  4  1  1  0
  5 53  1  0
  5  6  1  0
  6  8  1  0
  7  6  1  0
  9 10  1  0
 10 12  1  0
 10 11  1  1
 13 12  1  0
 13 22  1  0
 14 22  1  0
 15 20  1  0
 16 17  1  0
 16 15  1  0
 18 17  1  0
 18 27  1  0
 18 19  1  0
 20 14  1  0
 20 19  1  0
 21 14  2  0
 22 23  1  0
 24 25  2  0
 25 44  1  0
 26 25  1  0
 26 29  1  0
 27 24  1  0
 27 28  1  0
 28 26  2  0
 29 30  1  0
 30 31  2  0
 32 35  1  0
 32 31  1  0
 33 32  2  0
 34 33  1  0
 34 29  2  0
 35 36  1  0
 36 37  1  0
 37 38  2  0
 39 38  1  0
 39 43  1  0
 40 39  2  0
 41 36  2  0
 41 40  1  0
 42 41  1  0
 44 45  1  0
 45 48  1  0
 45 47  1  0
 46 44  2  0
 49 50  1  0
 49 24  1  0
 51 49  1  0
 53 52  1  0
 54 53  1  0
 55 66  2  0
 56 54  1  0
 56 61  1  0
 57 65  1  0
 57 67  1  0
 58 64  1  0
 58 60  1  0
 59 65  1  0
 60 61  2  0
 60 59  1  0
 62 63  1  0
 62 56  2  0
 63 58  2  0
 64 57  1  0
 65 55  1  0
 67 69  2  0
 68 67  1  0
 70 68  1  0
 71 80  2  0
 71 76  1  0
 72 68  1  0
 72 76  1  0
 73 72  1  0
 74 75  1  0
 74 73  1  0
 75 71  1  0
 76 77  2  0
 77 78  1  0
 79 78  2  0
 80 79  1  0
 81 55  1  0
 81 86  1  0
 81 82  1  0
 82 85  1  1
 82 83  1  0
 84 82  1  0
 86 89  1  0
 87 91  1  0
 87 86  1  0
 88 87  2  0
 91 90  1  0
 93 91  1  0
 93 94  1  0
 93 92  1  0
M  ISO  4  14 100  22 100  53 101  54 101
M  END
>  <TORSDO>  (37) 
F 20

>  <SCORE>  (37) 
-13.945

>  <name>  (37) 
36

>  <ligand_id>  (37) 
36

>  <original_smiles>  (37) 
[H]c1c([H])c([H])c2c(c1[H])C([H])([H])C([H])([H])C([H])([H])C2([H])N([H])C(=O)C1([H])N(C(=O)C([H])(N([H])C(=O)C([H])(N([H])C([H])([H])[H])C([H])([H])[H])C(C([H])([H])[H])(C([H])([H])[H])C([H])([H])[H])C([H])([H])c2c([H])c(OC([H])(C([H])([H])[H])C3([H])C([H])([H])C([H])([N+]([H])(C([H])([H])[H])C([H])([H])C([H])([H])N([H])C(=O)N4C([H])([H])C([H])([H])C([H])([H])C([H])(n5nc(-c6c([H])c([H])c(Oc7c([H])c([H])c(F)c([H])c7F)c([H])c6[H])c(C(=O)N([H])[H])c5N([H])[H])C4([H])[H])C([H])([H])C([H])([H])[N+]3([H])[H])c([H])c([H])c2C1([H])[H]

>  <smiles>  (37) 
[H]c1c([H])c([H])c2c(c1[H])C([H])([H])C([H])([H])C([H])([H])C2([H])N([H])C(=O)C1([H])N(C(=O)C([H])(N([H])C(=O)C([H])(N([H])C([H])([H])[H])C([H])([H])[H])C(C([H])([H])[H])(C([H])([H])[H])C([H])([H])[H])C([H])([H])c2c([H])c(OC([H])(C([H])([H])[H])C3([H])C([H])([H])C([H])([N+]([H])(C([H])([H])[H])C([H])([H])C([H])([H])N([H])C(=O)N4C([H])([H])C([H])([H])C([H])([H])C([H])(n5nc(-c6c([H])c([H])c(Oc7c([H])c([H])c(F)c([H])c7F)c([H])c6[H])c(C(=O)N([H])[H])c5N([H])[H])C4([H])[H])C([H])([H])C([H])([H])[N+]3([H])[H])c([H])c([H])c2C1([H])[H]

$$$$
37:0:0
     RDKit          3D

 88 96  0  0  1  0  0  0  0  0999 V2000
  -28.7080  -21.3370   19.0900 C   0  0  0  0  0  2  0  0  0  0  0  0
  -28.6680  -21.3400   21.4330 C   0  0  0  0  0  2  0  0  0  0  0  0
  -28.7190  -23.0550   19.0970 C   0  0  0  0  0  2  0  0  0  0  0  0
  -28.6660  -23.0590   21.4070 C   0  0  0  0  0  2  0  0  0  0  0  0
  -29.3350  -20.3660   20.2760 C   0  0  0  0  0  3  0  0  0  0  0  0
  -28.0640  -24.0830   20.2340 C   0  0  0  0  0  3  0  0  0  0  0  0
  -31.0290  -18.6940   21.4760 C   0  0  0  0  0  1  0  0  0  0  0  0
  -30.9080  -18.6640   18.9770 C   0  0  0  0  0  1  0  0  0  0  0  0
  -30.0690  -18.6000   20.2690 C   0  0  2  0  0  0  0  0  0  0  0  0
  -30.3930  -15.5720   20.2360 C   0  0  0  0  0  0  0  0  0  0  0  0
  -30.4200  -13.0860   19.3690 C   0  0  0  0  0  2  0  0  0  0  0  0
  -29.5040  -12.7800   18.1540 C   0  0  0  0  0  2  0  0  0  0  0  0
  -28.0760  -12.4510   18.6180 C   0  0  0  0  0  2  0  0  0  0  0  0
  -27.5990  -13.4220   19.7260 C   0  0  0  0  0  3  0  0  0  0  0  0
  -28.6500  -13.6650   20.8310 C   0  0  0  0  0  2  0  0  0  0  0  0
  -29.8350  -14.2430   20.1670 N   0  0  0  0  0  0  0  0  0  0  0  0
  -31.6190  -15.5120   20.0420 O   0  0  0  0  0  0  0  0  0  0  0  0
  -29.6700  -16.9200   20.3220 N   0  0  0  0  0  0  0  0  0  0  0  0
  -28.6750  -16.7770   20.4260 H   0  0  0  0  0  0  0  0  0  0  0  0
  -25.2420  -13.9290   20.5340 C   0  0  0  0  0  0  0  0  0  0  0  0
  -24.1950  -13.1340   20.9020 C   0  0  0  0  0  0  0  0  0  0  0  0
  -24.6760  -11.7890   20.8360 C   0  0  0  0  0  0  0  0  0  0  0  0
  -26.2890  -13.0710   20.2560 N   0  0  0  0  0  0  0  0  0  0  0  0
  -25.9640  -11.7760   20.5060 N   0  0  0  0  0  0  0  0  0  0  0  0
  -23.9620  -10.5160   21.0070 C   0  0  0  0  0  0  0  0  0  0  0  0
  -24.3880   -9.5500   21.9440 C   0  0  0  0  0  3  0  0  0  0  0  0
  -23.6700   -8.3440   22.1060 C   0  0  0  0  0  3  0  0  0  0  0  0
  -22.5110   -8.0980   21.3320 C   0  0  0  0  0  0  0  0  0  0  0  0
  -22.1040   -9.0550   20.3850 C   0  0  0  0  0  3  0  0  0  0  0  0
  -22.8230  -10.2500   20.2200 C   0  0  0  0  0  3  0  0  0  0  0  0
  -21.7660   -6.9460   21.4040 O   0  0  0  0  0  0  0  0  0  0  0  0
  -21.6680   -6.2230   22.5650 C   0  0  0  0  0  0  0  0  0  0  0  0
  -21.1360   -6.7800   23.7480 C   0  0  0  0  0  3  0  0  0  0  0  0
  -20.9900   -5.9810   24.8990 C   0  0  0  0  0  3  0  0  0  0  0  0
  -21.3650   -4.6250   24.8690 C   0  0  0  0  0  0  0  0  0  0  0  0
  -21.8910   -4.0670   23.6900 C   0  0  0  0  0  3  0  0  0  0  0  0
  -22.0380   -4.8620   22.5410 C   0  0  0  0  0  0  0  0  0  0  0  0
  -22.5240   -4.3140   21.4010 F   0  0  0  0  0  0  0  0  0  0  0  0
  -21.2190   -3.8550   25.9720 F   0  0  0  0  0  0  0  0  0  0  0  0
  -22.7970  -13.5920   21.1940 C   0  0  0  0  0  0  0  0  0  0  0  0
  -22.0870  -12.8790   22.0600 N   0  0  0  0  0  0  0  0  0  0  0  0
  -22.3450  -14.6190   20.6900 O   0  0  0  0  0  0  0  0  0  0  0  0
  -22.4680  -12.0490   22.4880 H   0  0  0  0  0  0  0  0  0  0  0  0
  -21.1490  -13.1680   22.2990 H   0  0  0  0  0  0  0  0  0  0  0  0
  -25.3870  -15.3060   20.3810 N   0  0  0  0  0  0  0  0  0  0  0  0
  -24.6110  -15.9450   20.5130 H   0  0  0  0  0  0  0  0  0  0  0  0
  -26.2160  -15.7580   20.0210 H   0  0  0  0  0  0  0  0  0  0  0  0
  -28.1830  -25.7910   20.2620 O   0  0  0  0  0  0  0  0  0  0  0  0
  -24.6530  -31.8990   23.2470 C   0  0  0  0  0  0  0  0  0  0  0  0
  -27.1710  -26.9270   20.2240 C   0  0  0  0  0  0  0  0  0  0  0  0
  -23.4500  -30.5050   21.6160 C   0  0  0  0  0  3  0  0  0  0  0  0
  -24.8860  -28.8800   20.1870 C   0  0  0  0  0  0  0  0  0  0  0  0
  -26.0220  -30.6840   21.4630 C   0  0  0  0  0  2  0  0  0  0  0  0
  -26.0830  -29.2630   20.8050 C   0  0  0  0  0  0  0  0  0  0  0  0
  -27.2150  -28.3120   20.7900 C   0  0  0  0  0  3  0  0  0  0  0  0
  -25.9410  -26.7200   19.5570 C   0  0  0  0  0  3  0  0  0  0  0  0
  -24.8460  -27.6310   19.5410 C   0  0  0  0  0  3  0  0  0  0  0  0
  -23.6740  -29.8160   20.2410 C   0  0  0  0  0  2  0  0  0  0  0  0
  -24.7310  -31.0600   22.1610 N   0  0  0  0  0  0  0  0  0  0  0  0
  -23.5660  -32.1940   23.7720 O   0  0  0  0  0  0  0  0  0  0  0  0
  -22.7510  -29.5190   22.5880 C   0  0  0  0  0  0  0  0  0  0  0  0
  -21.4220  -29.3450   22.4600 N   0  0  0  0  0  0  0  0  0  0  0  0
  -23.4150  -28.9060   23.4290 O   0  0  0  0  0  0  0  0  0  0  0  0
  -20.9370  -29.8910   21.7610 H   0  0  0  0  0  0  0  0  0  0  0  0
  -18.0490  -28.0970   22.9580 C   0  0  0  0  0  0  0  0  0  0  0  0
  -20.6030  -28.4060   23.2350 C   0  0  0  0  0  3  0  0  0  0  0  0
  -20.7290  -26.9690   22.6760 C   0  0  0  0  0  2  0  0  0  0  0  0
  -19.6400  -26.6200   21.6570 C   0  0  0  0  0  2  0  0  0  0  0  0
  -18.2510  -26.7460   22.2910 C   0  0  0  0  0  2  0  0  0  0  0  0
  -19.1520  -28.8820   23.3870 C   0  0  0  0  0  0  0  0  0  0  0  0
  -18.9070  -30.1420   23.9740 C   0  0  0  0  0  3  0  0  0  0  0  0
  -17.5910  -30.6190   24.1340 C   0  0  0  0  0  3  0  0  0  0  0  0
  -16.5030  -29.8310   23.7200 C   0  0  0  0  0  3  0  0  0  0  0  0
  -16.7330  -28.5730   23.1370 C   0  0  0  0  0  3  0  0  0  0  0  0
  -25.9250  -32.5440   23.8770 C   0  0  0  0  0  3  0  0  0  0  0  0
  -25.6130  -33.9480   24.2040 N   0  0  0  0  0  0  0  0  0  0  0  0
  -25.9260  -35.0050   23.4430 C   0  0  0  0  0  0  0  0  0  0  0  0
  -26.5700  -34.9010   22.3960 O   0  0  0  0  0  0  0  0  0  0  0  0
  -25.0350  -34.1010   25.0180 H   0  0  0  0  0  0  0  0  0  0  0  0
  -24.1840  -36.8030   23.1500 C   0  0  0  0  0  1  0  0  0  0  0  0
  -25.4560  -36.3980   23.9140 C   0  0  0  0  0  3  0  0  0  0  0  0
  -27.6130  -37.3000   24.6690 C   0  0  0  0  0  1  0  0  0  0  0  0
  -26.4820  -37.4530   23.7580 N   0  0  0  0  0  0  0  0  0  0  0  0
  -26.0770  -38.3730   23.9060 H   0  0  0  0  0  0  0  0  0  0  0  0
  -26.4250  -31.7890   25.1720 C   0  0  1  0  0  0  0  0  0  0  0  0
  -25.3220  -31.5750   26.2350 C   0  0  0  0  0  1  0  0  0  0  0  0
  -27.0030  -30.4020   24.8160 C   0  0  0  0  0  1  0  0  0  0  0  0
  -27.5740  -32.5870   25.8320 C   0  0  0  0  0  1  0  0  0  0  0  0
  1  3  1  0
  1  5  1  0
  3  6  1  0
  4  2  1  0
  5  9  1  0
  5  2  1  0
  6 48  1  0
  6  4  1  0
  9  8  1  6
  9 18  1  0
  9  7  1  0
 10 18  1  0
 11 16  1  0
 12 13  1  0
 12 11  1  0
 14 13  1  0
 14 23  1  0
 14 15  1  0
 16 10  1  0
 16 15  1  0
 17 10  2  0
 18 19  1  0
 20 21  2  0
 21 40  1  0
 22 21  1  0
 22 25  1  0
 23 24  1  0
 23 20  1  0
 24 22  2  0
 25 26  1  0
 26 27  2  0
 28 31  1  0
 28 27  1  0
 29 28  2  0
 30 29  1  0
 30 25  2  0
 31 32  1  0
 32 33  1  0
 33 34  2  0
 35 34  1  0
 35 39  1  0
 36 35  2  0
 37 32  2  0
 37 36  1  0
 38 37  1  0
 40 41  1  0
 41 44  1  0
 41 43  1  0
 42 40  2  0
 45 46  1  0
 45 20  1  0
 47 45  1  0
 49 60  2  0
 50 48  1  0
 50 55  1  0
 51 59  1  0
 51 61  1  0
 52 58  1  0
 52 54  1  0
 53 59  1  0
 54 53  1  0
 55 54  2  0
 56 50  2  0
 57 56  1  0
 57 52  2  0
 58 51  1  0
 59 49  1  0
 61 63  2  0
 62 61  1  0
 64 62  1  0
 65 74  2  0
 65 70  1  0
 66 62  1  0
 66 70  1  0
 67 66  1  0
 68 69  1  0
 68 67  1  0
 69 65  1  0
 70 71  2  0
 71 72  1  0
 73 72  2  0
 74 73  1  0
 75 49  1  0
 75 76  1  0
 75 85  1  0
 76 79  1  0
 77 81  1  0
 77 76  1  0
 78 77  2  0
 81 80  1  0
 83 84  1  0
 83 81  1  0
 83 82  1  0
 85 88  1  1
 85 86  1  0
 87 85  1  0
M  ISO  4   6 101  10 100  18 100  48 101
M  END
>  <TORSDO>  (38) 
F 17

>  <SCORE>  (38) 
-16.804

>  <name>  (38) 
37

>  <ligand_id>  (38) 
37

>  <original_smiles>  (38) 
[H]c1c([H])c([H])c2c(c1[H])C([H])([H])C([H])([H])C([H])([H])C2([H])N([H])C(=O)C1([H])N(C(=O)C([H])(N([H])C(=O)C([H])(N([H])C([H])([H])[H])C([H])([H])[H])C(C([H])([H])[H])(C([H])([H])[H])C([H])([H])[H])C([H])([H])c2c([H])c(OC3([H])C([H])([H])C([H])([H])C([H])(C(N([H])C(=O)N4C([H])([H])C([H])([H])C([H])([H])C([H])(n5nc(-c6c([H])c([H])c(Oc7c([H])c([H])c(F)c([H])c7F)c([H])c6[H])c(C(=O)N([H])[H])c5N([H])[H])C4([H])[H])(C([H])([H])[H])C([H])([H])[H])C([H])([H])C3([H])[H])c([H])c([H])c2C1([H])[H]

>  <smiles>  (38) 
[H]c1c([H])c([H])c2c(c1[H])C([H])([H])C([H])([H])C([H])([H])C2([H])N([H])C(=O)C1([H])N(C(=O)C([H])(N([H])C(=O)C([H])(N([H])C([H])([H])[H])C([H])([H])[H])C(C([H])([H])[H])(C([H])([H])[H])C([H])([H])[H])C([H])([H])c2c([H])c(OC3([H])C([H])([H])C([H])([H])C([H])(C(N([H])C(=O)N4C([H])([H])C([H])([H])C([H])([H])C([H])(n5nc(-c6c([H])c([H])c(Oc7c([H])c([H])c(F)c([H])c7F)c([H])c6[H])c(C(=O)N([H])[H])c5N([H])[H])C4([H])[H])(C([H])([H])[H])C([H])([H])[H])C([H])([H])C3([H])[H])c([H])c([H])c2C1([H])[H]

$$$$
38:0:0
     RDKit          3D

 93101  0  0  1  0  0  0  0  0999 V2000
  -29.4920  -21.5990   19.2230 C   0  0  0  0  0  2  0  0  0  0  0  0
  -27.5080  -21.6480   21.4010 C   0  0  0  0  0  2  0  0  0  0  0  0
  -27.6870  -23.2100   21.3340 C   0  0  0  0  0  3  0  0  0  0  0  0
  -28.4240  -23.8630   20.1020 C   0  0  0  0  0  3  0  0  0  0  0  0
  -29.1040  -20.2950   20.0780 C   0  0  0  0  0  3  0  0  0  0  0  0
  -26.2770  -23.8270   21.4840 C   0  0  0  0  0  1  0  0  0  0  0  0
  -29.6150  -22.9700   19.8690 N   0  0  0  0  0  0  0  0  0  0  0  0
  -28.7500  -20.8120   21.4180 N   0  0  0  0  0  4  0  0  0  0  0  0
  -30.2470  -23.5050   19.2770 H   0  0  0  0  0  0  0  0  0  0  0  0
  -28.6110  -20.0470   22.0570 H   0  0  0  0  0  0  0  0  0  0  0  0
  -29.5140  -21.3850   21.7400 H   0  0  0  0  0  0  0  0  0  0  0  0
  -28.7700  -25.4440   20.4470 C   0  0  0  0  0  2  0  0  0  0  0  0
  -28.5220  -26.6860   19.6410 O   0  0  0  0  0  0  0  0  0  0  0  0
  -24.6570  -31.8700   23.0640 C   0  0  0  0  0  0  0  0  0  0  0  0
  -27.3690  -27.4880   19.7940 C   0  0  0  0  0  0  0  0  0  0  0  0
  -23.4740  -30.4950   21.3900 C   0  0  0  0  0  3  0  0  0  0  0  0
  -24.9520  -29.0400   19.8860 C   0  0  0  0  0  0  0  0  0  0  0  0
  -25.9990  -30.9010   21.1750 C   0  0  0  0  0  2  0  0  0  0  0  0
  -26.1170  -29.5440   20.4790 C   0  0  0  0  0  0  0  0  0  0  0  0
  -27.3310  -28.7840   20.4150 C   0  0  0  0  0  3  0  0  0  0  0  0
  -26.1780  -27.0390   19.1920 C   0  0  0  0  0  3  0  0  0  0  0  0
  -24.9860  -27.7960   19.2340 C   0  0  0  0  0  3  0  0  0  0  0  0
  -23.6890  -29.8760   19.9830 C   0  0  0  0  0  2  0  0  0  0  0  0
  -24.7300  -31.1070   21.9330 N   0  0  0  0  0  0  0  0  0  0  0  0
  -23.5740  -32.0860   23.6290 O   0  0  0  0  0  0  0  0  0  0  0  0
  -22.8630  -29.4210   22.3220 C   0  0  0  0  0  0  0  0  0  0  0  0
  -21.5430  -29.1940   22.2060 N   0  0  0  0  0  0  0  0  0  0  0  0
  -23.5770  -28.7950   23.1100 O   0  0  0  0  0  0  0  0  0  0  0  0
  -21.0240  -29.7550   21.5450 H   0  0  0  0  0  0  0  0  0  0  0  0
  -18.2260  -27.8330   22.6970 C   0  0  0  0  0  0  0  0  0  0  0  0
  -20.7750  -28.1950   22.9500 C   0  0  0  0  0  3  0  0  0  0  0  0
  -20.9320  -26.7900   22.3220 C   0  0  0  0  0  2  0  0  0  0  0  0
  -19.8330  -26.4570   21.3070 C   0  0  0  0  0  2  0  0  0  0  0  0
  -18.4540  -26.5180   21.9700 C   0  0  0  0  0  2  0  0  0  0  0  0
  -19.3150  -28.6280   23.1430 C   0  0  0  0  0  0  0  0  0  0  0  0
  -19.0490  -29.8570   23.7840 C   0  0  0  0  0  3  0  0  0  0  0  0
  -17.7250  -30.2930   23.9820 C   0  0  0  0  0  3  0  0  0  0  0  0
  -16.6510  -29.4950   23.5520 C   0  0  0  0  0  3  0  0  0  0  0  0
  -16.9020  -28.2670   22.9150 C   0  0  0  0  0  3  0  0  0  0  0  0
  -25.9260  -32.5250   23.6910 C   0  0  0  0  0  3  0  0  0  0  0  0
  -26.4810  -31.7340   24.9400 C   0  0  1  0  0  0  0  0  0  0  0  0
  -25.4090  -31.4350   26.0130 C   0  0  0  0  0  1  0  0  0  0  0  0
  -27.0990  -30.3860   24.5030 C   0  0  0  0  0  1  0  0  0  0  0  0
  -27.6160  -32.5440   25.6100 C   0  0  0  0  0  1  0  0  0  0  0  0
  -25.5780  -33.9030   24.0680 N   0  0  0  0  0  0  0  0  0  0  0  0
  -25.8690  -34.9900   23.3400 C   0  0  0  0  0  0  0  0  0  0  0  0
  -26.5280  -34.9400   22.2980 O   0  0  0  0  0  0  0  0  0  0  0  0
  -24.9900  -34.0140   24.8810 H   0  0  0  0  0  0  0  0  0  0  0  0
  -24.0920  -36.7490   23.0580 C   0  0  0  0  0  1  0  0  0  0  0  0
  -25.3470  -36.3480   23.8490 C   0  0  0  0  0  3  0  0  0  0  0  0
  -27.4580  -37.2650   24.7070 C   0  0  0  0  0  1  0  0  0  0  0  0
  -26.3510  -37.4320   23.7690 N   0  0  0  0  0  0  0  0  0  0  0  0
  -25.9190  -38.3360   23.9430 H   0  0  0  0  0  0  0  0  0  0  0  0
  -30.0250  -18.9270   19.9680 C   0  0  0  0  0  2  0  0  0  0  0  0
  -29.9370  -17.6100   20.9370 C   0  0  0  0  0  2  0  0  0  0  0  0
  -30.6670  -15.0630   20.3280 C   0  0  0  0  0  0  0  0  0  0  0  0
  -30.5770  -12.7560   19.3350 C   0  0  0  0  0  2  0  0  0  0  0  0
  -29.6430  -12.7590   18.1040 C   0  0  0  0  0  2  0  0  0  0  0  0
  -28.1720  -12.5550   18.5240 C   0  0  0  0  0  2  0  0  0  0  0  0
  -27.7610  -13.4620   19.7140 C   0  0  0  0  0  3  0  0  0  0  0  0
  -28.8100  -13.4170   20.8450 C   0  0  0  0  0  2  0  0  0  0  0  0
  -30.0940  -13.8110   20.2520 N   0  0  0  0  0  0  0  0  0  0  0  0
  -31.8700  -15.2070   20.0970 O   0  0  0  0  0  0  0  0  0  0  0  0
  -29.8040  -16.1480   20.4640 N   0  0  0  0  0  0  0  0  0  0  0  0
  -28.8440  -15.8370   20.4610 H   0  0  0  0  0  0  0  0  0  0  0  0
  -25.3570  -14.0250   20.4090 C   0  0  0  0  0  0  0  0  0  0  0  0
  -24.3000  -13.2400   20.7790 C   0  0  0  0  0  0  0  0  0  0  0  0
  -24.7870  -11.8960   20.7730 C   0  0  0  0  0  0  0  0  0  0  0  0
  -26.4170  -13.1590   20.1970 N   0  0  0  0  0  0  0  0  0  0  0  0
  -26.0810  -11.8760   20.4810 N   0  0  0  0  0  0  0  0  0  0  0  0
  -24.0790  -10.6250   20.9720 C   0  0  0  0  0  0  0  0  0  0  0  0
  -24.5050   -9.6850   21.9360 C   0  0  0  0  0  3  0  0  0  0  0  0
  -23.7960   -8.4790   22.1220 C   0  0  0  0  0  3  0  0  0  0  0  0
  -22.6470   -8.2030   21.3420 C   0  0  0  0  0  0  0  0  0  0  0  0
  -22.2420   -9.1320   20.3670 C   0  0  0  0  0  3  0  0  0  0  0  0
  -22.9510  -10.3300   20.1800 C   0  0  0  0  0  3  0  0  0  0  0  0
  -21.9120   -7.0470   21.4340 O   0  0  0  0  0  0  0  0  0  0  0  0
  -21.8410   -6.3300   22.6020 C   0  0  0  0  0  0  0  0  0  0  0  0
  -21.3400   -6.8960   23.7940 C   0  0  0  0  0  3  0  0  0  0  0  0
  -21.2200   -6.1040   24.9540 C   0  0  0  0  0  3  0  0  0  0  0  0
  -21.5910   -4.7460   24.9210 C   0  0  0  0  0  0  0  0  0  0  0  0
  -22.0860   -4.1800   23.7330 C   0  0  0  0  0  3  0  0  0  0  0  0
  -22.2070   -4.9690   22.5760 C   0  0  0  0  0  0  0  0  0  0  0  0
  -22.6640   -4.4130   21.4280 F   0  0  0  0  0  0  0  0  0  0  0  0
  -21.4690   -3.9830   26.0320 F   0  0  0  0  0  0  0  0  0  0  0  0
  -22.8920  -13.6970   21.0240 C   0  0  0  0  0  0  0  0  0  0  0  0
  -22.1660  -13.0070   21.8950 N   0  0  0  0  0  0  0  0  0  0  0  0
  -22.4430  -14.7040   20.4750 O   0  0  0  0  0  0  0  0  0  0  0  0
  -22.5410  -12.1940   22.3590 H   0  0  0  0  0  0  0  0  0  0  0  0
  -21.2190  -13.2960   22.1010 H   0  0  0  0  0  0  0  0  0  0  0  0
  -25.4970  -15.3960   20.2100 N   0  0  0  0  0  0  0  0  0  0  0  0
  -24.7080  -16.0280   20.2890 H   0  0  0  0  0  0  0  0  0  0  0  0
  -26.3200  -15.8420   19.8270 H   0  0  0  0  0  0  0  0  0  0  0  0
  1  7  1  0
  1  5  1  0
  2  8  1  0
  3  2  1  0
  3  6  1  0
  4 12  1  0
  4  3  1  0
  5 54  1  0
  5  8  1  0
  7  4  1  0
  8 11  1  0
  8 10  1  0
  9  7  1  0
 13 15  1  0
 13 12  1  0
 14 25  2  0
 15 20  1  0
 16 24  1  0
 16 26  1  0
 17 23  1  0
 17 19  1  0
 18 24  1  0
 19 18  1  0
 20 19  2  0
 21 22  1  0
 21 15  2  0
 22 17  2  0
 23 16  1  0
 24 14  1  0
 26 28  2  0
 27 26  1  0
 29 27  1  0
 30 39  2  0
 30 35  1  0
 31 27  1  0
 31 35  1  0
 32 31  1  0
 33 34  1  0
 33 32  1  0
 34 30  1  0
 35 36  2  0
 36 37  1  0
 38 37  2  0
 39 38  1  0
 40 14  1  0
 40 45  1  0
 40 41  1  0
 41 44  1  1
 41 42  1  0
 43 41  1  0
 45 48  1  0
 46 50  1  0
 46 45  1  0
 47 46  2  0
 50 49  1  0
 52 50  1  0
 52 53  1  0
 52 51  1  0
 54 55  1  0
 56 64  1  0
 57 62  1  0
 58 59  1  0
 58 57  1  0
 60 59  1  0
 60 69  1  0
 60 61  1  0
 62 56  1  0
 62 61  1  0
 63 56  2  0
 64 55  1  0
 65 64  1  0
 66 67  2  0
 67 86  1  0
 68 67  1  0
 68 71  1  0
 69 66  1  0
 69 70  1  0
 70 68  2  0
 71 72  1  0
 72 73  2  0
 74 77  1  0
 74 73  1  0
 75 74  2  0
 76 75  1  0
 76 71  2  0
 77 78  1  0
 78 79  1  0
 79 80  2  0
 81 80  1  0
 81 85  1  0
 82 81  2  0
 83 78  2  0
 83 82  1  0
 84 83  1  0
 86 87  1  0
 87 90  1  0
 87 89  1  0
 88 86  2  0
 91 92  1  0
 91 66  1  0
 93 91  1  0
M  ISO  4  12 101  13 101  56 100  64 100
M  END
>  <TORSDO>  (39) 
F 19

>  <SCORE>  (39) 
-13.703

>  <name>  (39) 
38

>  <ligand_id>  (39) 
38

>  <original_smiles>  (39) 
[H]c1c([H])c([H])c2c(c1[H])C([H])([H])C([H])([H])C([H])([H])C2([H])N([H])C(=O)C1([H])N(C(=O)C([H])(N([H])C(=O)C([H])(N([H])C([H])([H])[H])C([H])([H])[H])C(C([H])([H])[H])(C([H])([H])[H])C([H])([H])[H])C([H])([H])c2c([H])c(OC([H])([H])C3([H])N([H])C([H])([H])C([H])(C([H])([H])C([H])([H])N([H])C(=O)N4C([H])([H])C([H])([H])C([H])([H])C([H])(n5nc(-c6c([H])c([H])c(Oc7c([H])c([H])c(F)c([H])c7F)c([H])c6[H])c(C(=O)N([H])[H])c5N([H])[H])C4([H])[H])[N+]([H])([H])C([H])([H])C3([H])C([H])([H])[H])c([H])c([H])c2C1([H])[H]

>  <smiles>  (39) 
[H]c1c([H])c([H])c2c(c1[H])C([H])([H])C([H])([H])C([H])([H])C2([H])N([H])C(=O)C1([H])N(C(=O)C([H])(N([H])C(=O)C([H])(N([H])C([H])([H])[H])C([H])([H])[H])C(C([H])([H])[H])(C([H])([H])[H])C([H])([H])[H])C([H])([H])c2c([H])c(OC([H])([H])C3([H])N([H])C([H])([H])C([H])(C([H])([H])C([H])([H])N([H])C(=O)N4C([H])([H])C([H])([H])C([H])([H])C([H])(n5nc(-c6c([H])c([H])c(Oc7c([H])c([H])c(F)c([H])c7F)c([H])c6[H])c(C(=O)N([H])[H])c5N([H])[H])C4([H])[H])[N+]([H])([H])C([H])([H])C3([H])C([H])([H])[H])c([H])c([H])c2C1([H])[H]

$$$$
39:0:0
     RDKit          3D

 91 99  0  0  1  0  0  0  0  0999 V2000
  -30.1810  -21.3200   21.1400 C   0  0  0  0  0  2  0  0  0  0  0  0
  -28.6950  -21.2460   19.1650 C   0  0  0  0  0  2  0  0  0  0  0  0
  -29.9470  -19.7620   21.3980 C   0  0  0  0  0  2  0  0  0  0  0  0
  -29.4290  -19.8290   18.9860 C   0  0  0  0  0  2  0  0  0  0  0  0
  -29.0480  -22.1390   20.4170 C   0  0  0  0  0  3  0  0  0  0  0  0
  -29.4950  -18.8160   20.2040 C   0  0  2  0  0  0  0  0  0  0  0  0
  -28.0770  -18.2870   20.4940 C   0  0  0  0  0  1  0  0  0  0  0  0
  -30.4660  -17.5020   19.9460 C   0  0  0  0  0  2  0  0  0  0  0  0
  -30.8000  -14.8820   19.9870 C   0  0  0  0  0  0  0  0  0  0  0  0
  -30.5540  -12.5960   18.9910 C   0  0  0  0  0  2  0  0  0  0  0  0
  -29.5530  -12.6490   17.8160 C   0  0  0  0  0  2  0  0  0  0  0  0
  -28.1110  -12.4580   18.3250 C   0  0  0  0  0  2  0  0  0  0  0  0
  -27.7930  -13.3440   19.5590 C   0  0  0  0  0  3  0  0  0  0  0  0
  -28.9110  -13.2840   20.6210 C   0  0  0  0  0  2  0  0  0  0  0  0
  -30.1670  -13.6550   19.9570 N   0  0  0  0  0  0  0  0  0  0  0  0
  -31.9620  -14.9680   19.5850 O   0  0  0  0  0  0  0  0  0  0  0  0
  -30.0660  -16.0410   20.2470 N   0  0  0  0  0  0  0  0  0  0  0  0
  -29.1150  -15.8980   20.5520 H   0  0  0  0  0  0  0  0  0  0  0  0
  -25.4590  -13.9100   20.4560 C   0  0  0  0  0  0  0  0  0  0  0  0
  -24.4140  -13.1250   20.8620 C   0  0  0  0  0  0  0  0  0  0  0  0
  -24.8680  -11.7750   20.7520 C   0  0  0  0  0  0  0  0  0  0  0  0
  -26.4820  -13.0380   20.1230 N   0  0  0  0  0  0  0  0  0  0  0  0
  -26.1380  -11.7450   20.3640 N   0  0  0  0  0  0  0  0  0  0  0  0
  -24.1480  -10.5080   20.9380 C   0  0  0  0  0  0  0  0  0  0  0  0
  -24.5710   -9.5480   21.8830 C   0  0  0  0  0  3  0  0  0  0  0  0
  -23.8490   -8.3470   22.0580 C   0  0  0  0  0  3  0  0  0  0  0  0
  -22.6890   -8.0970   21.2860 C   0  0  0  0  0  0  0  0  0  0  0  0
  -22.2860   -9.0450   20.3300 C   0  0  0  0  0  3  0  0  0  0  0  0
  -23.0080  -10.2370   20.1530 C   0  0  0  0  0  3  0  0  0  0  0  0
  -21.9400   -6.9490   21.3680 O   0  0  0  0  0  0  0  0  0  0  0  0
  -21.7940   -6.2690   22.5510 C   0  0  0  0  0  0  0  0  0  0  0  0
  -21.2280   -6.8740   23.6930 C   0  0  0  0  0  3  0  0  0  0  0  0
  -21.0320   -6.1170   24.8660 C   0  0  0  0  0  3  0  0  0  0  0  0
  -21.3920   -4.7580   24.8970 C   0  0  0  0  0  0  0  0  0  0  0  0
  -21.9520   -4.1520   23.7580 C   0  0  0  0  0  3  0  0  0  0  0  0
  -22.1490   -4.9050   22.5870 C   0  0  0  0  0  0  0  0  0  0  0  0
  -22.6690   -4.3110   21.4860 F   0  0  0  0  0  0  0  0  0  0  0  0
  -21.1980   -4.0290   26.0210 F   0  0  0  0  0  0  0  0  0  0  0  0
  -23.0370  -13.5960   21.2330 C   0  0  0  0  0  0  0  0  0  0  0  0
  -22.3640  -12.8760   22.1220 N   0  0  0  0  0  0  0  0  0  0  0  0
  -22.5710  -14.6360   20.7700 O   0  0  0  0  0  0  0  0  0  0  0  0
  -22.7540  -12.0330   22.5180 H   0  0  0  0  0  0  0  0  0  0  0  0
  -21.4430  -13.1710   22.4140 H   0  0  0  0  0  0  0  0  0  0  0  0
  -25.6150  -15.2850   20.3170 N   0  0  0  0  0  0  0  0  0  0  0  0
  -24.8560  -15.9330   20.4970 H   0  0  0  0  0  0  0  0  0  0  0  0
  -26.4310  -15.7330   19.9210 H   0  0  0  0  0  0  0  0  0  0  0  0
  -29.3470  -23.7570   20.2430 C   0  0  0  0  0  3  0  0  0  0  0  0
  -31.3330  -24.8430   19.4840 C   0  0  0  0  0  1  0  0  0  0  0  0
  -30.3590  -23.8380   19.2430 O   0  0  0  0  0  0  0  0  0  0  0  0
  -28.2150  -24.8990   19.9140 C   0  0  0  0  0  2  0  0  0  0  0  0
  -28.4510  -26.3950   20.0900 O   0  0  0  0  0  0  0  0  0  0  0  0
  -24.7120  -31.8110   23.2130 C   0  0  0  0  0  0  0  0  0  0  0  0
  -27.3610  -27.3080   20.0380 C   0  0  0  0  0  0  0  0  0  0  0  0
  -23.5400  -30.4800   21.4990 C   0  0  0  0  0  3  0  0  0  0  0  0
  -25.0140  -28.9830   20.0340 C   0  0  0  0  0  0  0  0  0  0  0  0
  -26.0860  -30.7870   21.3760 C   0  0  0  0  0  2  0  0  0  0  0  0
  -26.1770  -29.4310   20.6710 C   0  0  0  0  0  0  0  0  0  0  0  0
  -27.3550  -28.6100   20.6560 C   0  0  0  0  0  3  0  0  0  0  0  0
  -26.1730  -26.9400   19.3690 C   0  0  0  0  0  3  0  0  0  0  0  0
  -25.0190  -27.7490   19.3690 C   0  0  0  0  0  3  0  0  0  0  0  0
  -23.7790  -29.8620   20.0970 C   0  0  0  0  0  2  0  0  0  0  0  0
  -24.7970  -31.0440   22.0860 N   0  0  0  0  0  0  0  0  0  0  0  0
  -23.6180  -32.0650   23.7400 O   0  0  0  0  0  0  0  0  0  0  0  0
  -22.8590  -29.4280   22.4080 C   0  0  0  0  0  0  0  0  0  0  0  0
  -21.5330  -29.2610   22.2610 N   0  0  0  0  0  0  0  0  0  0  0  0
  -23.5260  -28.7670   23.2090 O   0  0  0  0  0  0  0  0  0  0  0  0
  -21.0560  -29.8480   21.5900 H   0  0  0  0  0  0  0  0  0  0  0  0
  -18.1370  -28.0990   22.7310 C   0  0  0  0  0  0  0  0  0  0  0  0
  -20.7040  -28.2950   22.9830 C   0  0  0  0  0  3  0  0  0  0  0  0
  -20.7700  -26.8990   22.3220 C   0  0  0  0  0  2  0  0  0  0  0  0
  -19.6500  -26.6600   21.3020 C   0  0  0  0  0  2  0  0  0  0  0  0
  -18.2790  -26.7910   21.9720 C   0  0  0  0  0  2  0  0  0  0  0  0
  -19.2750  -28.8130   23.1930 C   0  0  0  0  0  0  0  0  0  0  0  0
  -19.0870  -30.0390   23.8670 C   0  0  0  0  0  3  0  0  0  0  0  0
  -17.7940  -30.5530   24.0820 C   0  0  0  0  0  3  0  0  0  0  0  0
  -16.6710  -29.8350   23.6350 C   0  0  0  0  0  3  0  0  0  0  0  0
  -16.8430  -28.6100   22.9660 C   0  0  0  0  0  3  0  0  0  0  0  0
  -25.9810  -32.4230   23.8830 C   0  0  0  0  0  3  0  0  0  0  0  0
  -26.4400  -31.6390   25.1750 C   0  0  1  0  0  0  0  0  0  0  0  0
  -25.3070  -31.4060   26.2010 C   0  0  0  0  0  1  0  0  0  0  0  0
  -27.0220  -30.2580   24.7980 C   0  0  0  0  0  1  0  0  0  0  0  0
  -27.5760  -32.4180   25.8830 C   0  0  0  0  0  1  0  0  0  0  0  0
  -25.6800  -33.8230   24.2110 N   0  0  0  0  0  0  0  0  0  0  0  0
  -26.0100  -34.8740   23.4480 C   0  0  0  0  0  0  0  0  0  0  0  0
  -26.6690  -34.7650   22.4100 O   0  0  0  0  0  0  0  0  0  0  0  0
  -25.0950  -33.9820   25.0180 H   0  0  0  0  0  0  0  0  0  0  0  0
  -24.2660  -36.6610   23.1370 C   0  0  0  0  0  1  0  0  0  0  0  0
  -25.5360  -36.2670   23.9090 C   0  0  0  0  0  3  0  0  0  0  0  0
  -27.6890  -37.1730   24.6650 C   0  0  0  0  0  1  0  0  0  0  0  0
  -26.5620  -37.3220   23.7470 N   0  0  0  0  0  0  0  0  0  0  0  0
  -26.1580  -38.2430   23.8900 H   0  0  0  0  0  0  0  0  0  0  0  0
  1  3  1  0
  2  5  1  0
  4  2  1  0
  4  6  1  0
  5 47  1  0
  5  1  1  0
  6  7  1  1
  6  3  1  0
  8  6  1  0
  8 17  1  0
  9 17  1  0
 10 15  1  0
 11 12  1  0
 11 10  1  0
 13 12  1  0
 13 22  1  0
 13 14  1  0
 15  9  1  0
 15 14  1  0
 16  9  2  0
 17 18  1  0
 19 20  2  0
 20 39  1  0
 21 20  1  0
 21 24  1  0
 22 23  1  0
 22 19  1  0
 23 21  2  0
 24 25  1  0
 25 26  2  0
 27 30  1  0
 27 26  1  0
 28 27  2  0
 29 28  1  0
 29 24  2  0
 30 31  1  0
 31 36  2  0
 31 32  1  0
 32 33  2  0
 33 34  1  0
 34 38  1  0
 35 34  2  0
 36 35  1  0
 37 36  1  0
 39 40  1  0
 40 43  1  0
 40 42  1  0
 41 39  2  0
 44 19  1  0
 44 45  1  0
 46 44  1  0
 47 50  1  0
 49 48  1  0
 49 47  1  0
 50 51  1  0
 52 63  2  0
 53 51  1  0
 53 58  1  0
 54 62  1  0
 54 64  1  0
 55 61  1  0
 55 57  1  0
 56 62  1  0
 57 56  1  0
 58 57  2  0
 59 53  2  0
 60 59  1  0
 60 55  2  0
 61 54  1  0
 62 52  1  0
 64 66  2  0
 65 64  1  0
 67 65  1  0
 68 77  2  0
 68 73  1  0
 69 65  1  0
 69 73  1  0
 70 69  1  0
 71 72  1  0
 71 70  1  0
 72 68  1  0
 73 74  2  0
 74 75  1  0
 76 75  2  0
 77 76  1  0
 78 52  1  0
 78 83  1  0
 78 79  1  0
 79 82  1  1
 79 80  1  0
 81 79  1  0
 83 86  1  0
 84 88  1  0
 84 83  1  0
 85 84  2  0
 88 87  1  0
 90 91  1  0
 90 88  1  0
 90 89  1  0
M  ISO  4   9 100  17 100  50 101  51 101
M  END
>  <TORSDO>  (40) 
F 20

>  <SCORE>  (40) 
-13.432

>  <name>  (40) 
39

>  <ligand_id>  (40) 
39

>  <original_smiles>  (40) 
[H]c1c([H])c([H])c2c(c1[H])C([H])([H])C([H])([H])C([H])([H])C2([H])N([H])C(=O)C1([H])N(C(=O)C([H])(N([H])C(=O)C([H])(N([H])C([H])([H])[H])C([H])([H])[H])C(C([H])([H])[H])(C([H])([H])[H])C([H])([H])[H])C([H])([H])c2c([H])c(OC([H])([H])C([H])(OC([H])([H])[H])C3([H])C([H])([H])C([H])([H])C(C([H])([H])[H])(C([H])([H])N([H])C(=O)N4C([H])([H])C([H])([H])C([H])([H])C([H])(n5nc(-c6c([H])c([H])c(Oc7c([H])c([H])c(F)c([H])c7F)c([H])c6[H])c(C(=O)N([H])[H])c5N([H])[H])C4([H])[H])C([H])([H])C3([H])[H])c([H])c([H])c2C1([H])[H]

>  <smiles>  (40) 
[H]c1c([H])c([H])c2c(c1[H])C([H])([H])C([H])([H])C([H])([H])C2([H])N([H])C(=O)C1([H])N(C(=O)C([H])(N([H])C(=O)C([H])(N([H])C([H])([H])[H])C([H])([H])[H])C(C([H])([H])[H])(C([H])([H])[H])C([H])([H])[H])C([H])([H])c2c([H])c(OC([H])([H])C([H])(OC([H])([H])[H])C3([H])C([H])([H])C([H])([H])C(C([H])([H])[H])(C([H])([H])N([H])C(=O)N4C([H])([H])C([H])([H])C([H])([H])C([H])(n5nc(-c6c([H])c([H])c(Oc7c([H])c([H])c(F)c([H])c7F)c([H])c6[H])c(C(=O)N([H])[H])c5N([H])[H])C4([H])[H])C([H])([H])C3([H])[H])c([H])c([H])c2C1([H])[H]

$$$$
40:0:0
     RDKit          3D

 95103  0  0  1  0  0  0  0  0999 V2000
  -27.2470  -20.8350   20.4180 C   0  0  0  0  0  1  0  0  0  0  0  0
  -28.7250  -21.1340   20.1120 C   0  0  0  0  0  3  0  0  0  0  0  0
  -31.5160  -17.8700   21.0260 C   0  0  0  0  0  3  0  0  0  0  0  0
  -29.2940  -18.4810   20.3750 C   0  0  0  0  0  3  0  0  0  0  0  0
  -30.2380  -17.4110   20.6390 C   0  0  0  0  0  0  0  0  0  0  0  0
  -31.8000  -19.2520   21.1140 C   0  0  0  0  0  0  0  0  0  0  0  0
  -29.6500  -19.8870   20.4770 C   0  0  0  0  0  0  0  0  0  0  0  0
  -30.8980  -20.2290   20.8530 N   0  0  0  0  0  0  0  0  0  0  0  0
  -30.6910  -14.8340   20.2720 C   0  0  0  0  0  0  0  0  0  0  0  0
  -30.4240  -12.6180   19.1390 C   0  0  0  0  0  2  0  0  0  0  0  0
  -29.4400  -12.7690   17.9590 C   0  0  0  0  0  2  0  0  0  0  0  0
  -27.9850  -12.5900   18.4370 C   0  0  0  0  0  2  0  0  0  0  0  0
  -27.6710  -13.4140   19.7140 C   0  0  0  0  0  3  0  0  0  0  0  0
  -28.7700  -13.2510   20.7860 C   0  0  0  0  0  2  0  0  0  0  0  0
  -30.0460  -13.6200   20.1610 N   0  0  0  0  0  0  0  0  0  0  0  0
  -31.8710  -14.9180   19.9130 O   0  0  0  0  0  0  0  0  0  0  0  0
  -29.9200  -15.9560   20.5590 N   0  0  0  0  0  0  0  0  0  0  0  0
  -28.9480  -15.7350   20.6940 H   0  0  0  0  0  0  0  0  0  0  0  0
  -25.3090  -13.9920   20.5330 C   0  0  0  0  0  0  0  0  0  0  0  0
  -24.2550  -13.2110   20.9180 C   0  0  0  0  0  0  0  0  0  0  0  0
  -24.7130  -11.8600   20.8380 C   0  0  0  0  0  0  0  0  0  0  0  0
  -26.3430  -13.1160   20.2410 N   0  0  0  0  0  0  0  0  0  0  0  0
  -25.9930  -11.8280   20.4860 N   0  0  0  0  0  0  0  0  0  0  0  0
  -23.9890  -10.5950   21.0170 C   0  0  0  0  0  0  0  0  0  0  0  0
  -24.4100   -9.6280   21.9560 C   0  0  0  0  0  3  0  0  0  0  0  0
  -23.6850   -8.4280   22.1220 C   0  0  0  0  0  3  0  0  0  0  0  0
  -22.5250   -8.1870   21.3480 C   0  0  0  0  0  0  0  0  0  0  0  0
  -22.1240   -9.1420   20.3970 C   0  0  0  0  0  3  0  0  0  0  0  0
  -22.8500  -10.3330   20.2300 C   0  0  0  0  0  3  0  0  0  0  0  0
  -21.7730   -7.0390   21.4240 O   0  0  0  0  0  0  0  0  0  0  0  0
  -21.6710   -6.3210   22.5880 C   0  0  0  0  0  0  0  0  0  0  0  0
  -21.1000   -6.8720   23.7560 C   0  0  0  0  0  3  0  0  0  0  0  0
  -20.9510   -6.0760   24.9090 C   0  0  0  0  0  3  0  0  0  0  0  0
  -21.3640   -4.7300   24.8960 C   0  0  0  0  0  0  0  0  0  0  0  0
  -21.9290   -4.1790   23.7310 C   0  0  0  0  0  3  0  0  0  0  0  0
  -22.0780   -4.9720   22.5800 C   0  0  0  0  0  0  0  0  0  0  0  0
  -22.6030   -4.4290   21.4550 F   0  0  0  0  0  0  0  0  0  0  0  0
  -21.2150   -3.9630   26.0000 F   0  0  0  0  0  0  0  0  0  0  0  0
  -22.8680  -13.6830   21.2430 C   0  0  0  0  0  0  0  0  0  0  0  0
  -22.1590  -12.9610   22.1030 N   0  0  0  0  0  0  0  0  0  0  0  0
  -22.4220  -14.7290   20.7720 O   0  0  0  0  0  0  0  0  0  0  0  0
  -22.5320  -12.1130   22.5040 H   0  0  0  0  0  0  0  0  0  0  0  0
  -21.2300  -13.2590   22.3630 H   0  0  0  0  0  0  0  0  0  0  0  0
  -25.4700  -15.3670   20.3830 N   0  0  0  0  0  0  0  0  0  0  0  0
  -24.6990  -16.0100   20.5230 H   0  0  0  0  0  0  0  0  0  0  0  0
  -26.2880  -15.8120   19.9870 H   0  0  0  0  0  0  0  0  0  0  0  0
  -33.2030  -20.5330   22.7920 C   0  0  0  0  0  1  0  0  0  0  0  0
  -33.8470  -20.5050   20.3240 C   0  0  0  0  0  1  0  0  0  0  0  0
  -33.1990  -19.7290   21.4820 C   0  0  0  0  0  3  0  0  0  0  0  0
  -29.1130  -22.4890   20.7150 N   0  0  0  0  0  4  0  0  0  0  0  0
  -28.8110  -22.4640   21.6750 H   0  0  0  0  0  0  0  0  0  0  0  0
  -30.1230  -22.4510   20.7440 H   0  0  0  0  0  0  0  0  0  0  0  0
  -28.6740  -23.8180   20.0500 C   0  0  0  0  0  2  0  0  0  0  0  0
  -28.5110  -25.1410   20.9710 C   0  0  0  0  0  2  0  0  0  0  0  0
  -28.5940  -26.5430   20.4400 O   0  0  0  0  0  0  0  0  0  0  0  0
  -24.6050  -31.9190   23.2680 C   0  0  0  0  0  0  0  0  0  0  0  0
  -27.4540  -27.3670   20.4020 C   0  0  0  0  0  0  0  0  0  0  0  0
  -23.5140  -30.4810   21.5840 C   0  0  0  0  0  3  0  0  0  0  0  0
  -25.0630  -28.9400   20.2510 C   0  0  0  0  0  0  0  0  0  0  0  0
  -26.0520  -30.8500   21.5190 C   0  0  0  0  0  2  0  0  0  0  0  0
  -26.1930  -29.4620   20.8960 C   0  0  0  0  0  0  0  0  0  0  0  0
  -27.3950  -28.6890   20.9530 C   0  0  0  0  0  3  0  0  0  0  0  0
  -26.3020  -26.8970   19.7390 C   0  0  0  0  0  3  0  0  0  0  0  0
  -25.1220  -27.6660   19.6620 C   0  0  0  0  0  3  0  0  0  0  0  0
  -23.8090  -29.7930   20.2240 C   0  0  0  0  0  2  0  0  0  0  0  0
  -24.7400  -31.1030   22.1810 N   0  0  0  0  0  0  0  0  0  0  0  0
  -23.4910  -32.1760   23.7470 O   0  0  0  0  0  0  0  0  0  0  0  0
  -22.8250  -29.4620   22.5230 C   0  0  0  0  0  0  0  0  0  0  0  0
  -21.5030  -29.2890   22.3640 N   0  0  0  0  0  0  0  0  0  0  0  0
  -23.4840  -28.8270   23.3520 O   0  0  0  0  0  0  0  0  0  0  0  0
  -21.0320  -29.8500   21.6680 H   0  0  0  0  0  0  0  0  0  0  0  0
  -18.0970  -28.1700   22.8500 C   0  0  0  0  0  0  0  0  0  0  0  0
  -20.6630  -28.3480   23.1080 C   0  0  0  0  0  3  0  0  0  0  0  0
  -20.7200  -26.9360   22.4810 C   0  0  0  0  0  2  0  0  0  0  0  0
  -19.6030  -26.6810   21.4650 C   0  0  0  0  0  2  0  0  0  0  0  0
  -18.2310  -26.8410   22.1240 C   0  0  0  0  0  2  0  0  0  0  0  0
  -19.2390  -28.8840   23.2980 C   0  0  0  0  0  0  0  0  0  0  0  0
  -19.0590  -30.1310   23.9360 C   0  0  0  0  0  3  0  0  0  0  0  0
  -17.7690  -30.6600   24.1330 C   0  0  0  0  0  3  0  0  0  0  0  0
  -16.6420  -29.9410   23.7000 C   0  0  0  0  0  3  0  0  0  0  0  0
  -16.8060  -28.6980   23.0640 C   0  0  0  0  0  3  0  0  0  0  0  0
  -25.8410  -32.5860   23.9470 C   0  0  0  0  0  3  0  0  0  0  0  0
  -25.4870  -33.9830   24.2410 N   0  0  0  0  0  0  0  0  0  0  0  0
  -25.8340  -35.0320   23.4840 C   0  0  0  0  0  0  0  0  0  0  0  0
  -26.5500  -34.9280   22.4850 O   0  0  0  0  0  0  0  0  0  0  0  0
  -24.8540  -34.1360   25.0120 H   0  0  0  0  0  0  0  0  0  0  0  0
  -24.1010  -36.7950   23.0130 C   0  0  0  0  0  1  0  0  0  0  0  0
  -25.3000  -36.4170   23.8990 C   0  0  0  0  0  3  0  0  0  0  0  0
  -27.3570  -37.3540   24.8560 C   0  0  0  0  0  1  0  0  0  0  0  0
  -26.3210  -37.4850   23.8360 N   0  0  0  0  0  0  0  0  0  0  0  0
  -25.8910  -38.4000   23.9340 H   0  0  0  0  0  0  0  0  0  0  0  0
  -26.3020  -31.8430   25.2610 C   0  0  1  0  0  0  0  0  0  0  0  0
  -25.1560  -31.5900   26.2680 C   0  0  0  0  0  1  0  0  0  0  0  0
  -26.9400  -30.4770   24.9210 C   0  0  0  0  0  1  0  0  0  0  0  0
  -27.3960  -32.6730   25.9760 C   0  0  0  0  0  1  0  0  0  0  0  0
  2  1  1  0
  2  7  1  0
  2 50  1  0
  3  6  1  0
  4  7  2  0
  4  5  1  0
  5  3  2  0
  6 49  1  0
  7  8  1  0
  8  6  2  0
  9 17  1  0
 10 15  1  0
 11 12  1  0
 11 10  1  0
 13 12  1  0
 13 22  1  0
 13 14  1  0
 15  9  1  0
 15 14  1  0
 16  9  2  0
 17  5  1  0
 17 18  1  0
 19 20  2  0
 20 39  1  0
 21 20  1  0
 21 24  1  0
 22 23  1  0
 22 19  1  0
 23 21  2  0
 24 25  1  0
 25 26  2  0
 27 30  1  0
 27 26  1  0
 28 27  2  0
 29 28  1  0
 29 24  2  0
 30 31  1  0
 31 32  1  0
 32 33  2  0
 34 33  1  0
 34 38  1  0
 35 34  2  0
 36 31  2  0
 36 35  1  0
 37 36  1  0
 39 40  1  0
 40 43  1  0
 40 42  1  0
 41 39  2  0
 44 45  1  0
 44 19  1  0
 46 44  1  0
 48 49  1  0
 49 47  1  0
 50 52  1  0
 50 51  1  0
 53 50  1  0
 53 54  1  0
 55 54  1  0
 56 67  2  0
 57 55  1  0
 57 62  1  0
 58 66  1  0
 58 68  1  0
 59 61  1  0
 60 66  1  0
 61 62  2  0
 61 60  1  0
 63 57  2  0
 64 63  1  0
 64 59  2  0
 65 59  1  0
 65 58  1  0
 66 56  1  0
 68 70  2  0
 69 68  1  0
 71 69  1  0
 72 81  2  0
 72 77  1  0
 73 69  1  0
 73 77  1  0
 74 73  1  0
 75 76  1  0
 75 74  1  0
 76 72  1  0
 77 78  2  0
 78 79  1  0
 80 79  2  0
 81 80  1  0
 82 56  1  0
 82 83  1  0
 82 92  1  0
 83 86  1  0
 84 88  1  0
 84 83  1  0
 85 84  2  0
 88 87  1  0
 90 88  1  0
 90 91  1  0
 90 89  1  0
 92 95  1  1
 92 93  1  0
 94 92  1  0
M  ISO  4   9 100  17 100  54 101  55 101
M  END
>  <TORSDO>  (41) 
F 21

>  <SCORE>  (41) 
-13.483

>  <name>  (41) 
40

>  <ligand_id>  (41) 
40

>  <original_smiles>  (41) 
[H]c1c([H])c([H])c2c(c1[H])C([H])([H])C([H])([H])C([H])([H])C2([H])N([H])C(=O)C1([H])N(C(=O)C([H])(N([H])C(=O)C([H])(N([H])C([H])([H])[H])C([H])([H])[H])C(C([H])([H])[H])(C([H])([H])[H])C([H])([H])[H])C([H])([H])c2c([H])c(OC([H])([H])C([H])([H])[N+]([H])([H])C([H])(c3nc(C([H])(C([H])([H])[H])C([H])([H])[H])c([H])c(N([H])C(=O)N4C([H])([H])C([H])([H])C([H])([H])C([H])(n5nc(-c6c([H])c([H])c(Oc7c([H])c([H])c(F)c([H])c7F)c([H])c6[H])c(C(=O)N([H])[H])c5N([H])[H])C4([H])[H])c3[H])C([H])([H])[H])c([H])c([H])c2C1([H])[H]

>  <smiles>  (41) 
[H]c1c([H])c([H])c2c(c1[H])C([H])([H])C([H])([H])C([H])([H])C2([H])N([H])C(=O)C1([H])N(C(=O)C([H])(N([H])C(=O)C([H])(N([H])C([H])([H])[H])C([H])([H])[H])C(C([H])([H])[H])(C([H])([H])[H])C([H])([H])[H])C([H])([H])c2c([H])c(OC([H])([H])C([H])([H])[N+]([H])([H])C([H])(c3nc(C([H])(C([H])([H])[H])C([H])([H])[H])c([H])c(N([H])C(=O)N4C([H])([H])C([H])([H])C([H])([H])C([H])(n5nc(-c6c([H])c([H])c(Oc7c([H])c([H])c(F)c([H])c7F)c([H])c6[H])c(C(=O)N([H])[H])c5N([H])[H])C4([H])[H])c3[H])C([H])([H])[H])c([H])c([H])c2C1([H])[H]

$$$$
41:0:0
     RDKit          3D

 94102  0  0  1  0  0  0  0  0999 V2000
  -28.1910  -20.5310   19.0970 C   0  0  0  0  0  3  0  0  0  0  0  0
  -27.5600  -19.2810   18.9850 C   0  0  0  0  0  0  0  0  0  0  0  0
  -28.3200  -18.0730   19.0760 C   0  0  0  0  0  0  0  0  0  0  0  0
  -29.7440  -18.1670   18.8940 C   0  0  0  0  0  0  0  0  0  0  0  0
  -29.5690  -20.5980   19.2780 C   0  0  0  0  0  0  0  0  0  0  0  0
  -26.0410  -19.2880   18.8720 C   0  0  0  0  0  1  0  0  0  0  0  0
  -30.3180  -19.4370   19.0800 N   0  0  0  0  0  0  0  0  0  0  0  0
  -30.1470  -21.8490   19.7270 N   0  0  0  0  0  0  0  0  0  0  0  0
  -31.1450  -21.8070   19.9140 H   0  0  0  0  0  0  0  0  0  0  0  0
  -28.0970  -16.5430   21.0680 C   0  0  0  0  0  1  0  0  0  0  0  0
  -27.3940  -15.5710   18.8930 C   0  0  0  0  0  1  0  0  0  0  0  0
  -27.5380  -16.8690   19.6700 C   0  0  0  0  0  3  0  0  0  0  0  0
  -30.7400  -16.9180   18.6000 C   0  0  0  0  0  2  0  0  0  0  0  0
  -31.3620  -14.3700   19.1480 C   0  0  0  0  0  0  0  0  0  0  0  0
  -31.3670  -11.8570   19.0650 C   0  0  0  0  0  2  0  0  0  0  0  0
  -30.3770  -11.3790   17.9800 C   0  0  0  0  0  2  0  0  0  0  0  0
  -28.9440  -11.2830   18.5430 C   0  0  0  0  0  2  0  0  0  0  0  0
  -28.5380  -12.5370   19.3660 C   0  0  0  0  0  3  0  0  0  0  0  0
  -29.6480  -12.9230   20.3660 C   0  0  0  0  0  2  0  0  0  0  0  0
  -30.8650  -13.1550   19.5810 N   0  0  0  0  0  0  0  0  0  0  0  0
  -32.5270  -14.4300   18.7420 O   0  0  0  0  0  0  0  0  0  0  0  0
  -30.4930  -15.4490   19.0010 N   0  0  0  0  0  0  0  0  0  0  0  0
  -29.5430  -15.2710   19.2850 H   0  0  0  0  0  0  0  0  0  0  0  0
  -26.3540  -13.3440   20.4410 C   0  0  0  0  0  0  0  0  0  0  0  0
  -25.2560  -12.6750   20.9060 C   0  0  0  0  0  0  0  0  0  0  0  0
  -25.5310  -11.2860   20.7150 C   0  0  0  0  0  0  0  0  0  0  0  0
  -27.2400  -12.3700   20.0100 N   0  0  0  0  0  0  0  0  0  0  0  0
  -26.7570  -11.1200   20.2320 N   0  0  0  0  0  0  0  0  0  0  0  0
  -24.6710  -10.1100   20.9090 C   0  0  0  0  0  0  0  0  0  0  0  0
  -25.0230   -9.0800   21.8070 C   0  0  0  0  0  3  0  0  0  0  0  0
  -24.1720   -7.9690   21.9900 C   0  0  0  0  0  3  0  0  0  0  0  0
  -22.9530   -7.8830   21.2760 C   0  0  0  0  0  0  0  0  0  0  0  0
  -22.6180   -8.9020   20.3660 C   0  0  0  0  0  3  0  0  0  0  0  0
  -23.4690  -10.0040   20.1810 C   0  0  0  0  0  3  0  0  0  0  0  0
  -22.0760   -6.8300   21.3730 O   0  0  0  0  0  0  0  0  0  0  0  0
  -21.8810   -6.1610   22.5540 C   0  0  0  0  0  0  0  0  0  0  0  0
  -21.4520   -6.8250   23.7250 C   0  0  0  0  0  3  0  0  0  0  0  0
  -21.1980   -6.0880   24.8990 C   0  0  0  0  0  3  0  0  0  0  0  0
  -21.3620   -4.6890   24.9030 C   0  0  0  0  0  0  0  0  0  0  0  0
  -21.7850   -4.0270   23.7380 C   0  0  0  0  0  3  0  0  0  0  0  0
  -22.0410   -4.7600   22.5670 C   0  0  0  0  0  0  0  0  0  0  0  0
  -22.4260   -4.1140   21.4400 F   0  0  0  0  0  0  0  0  0  0  0  0
  -21.1110   -3.9810   26.0280 F   0  0  0  0  0  0  0  0  0  0  0  0
  -23.9810  -13.2930   21.4010 C   0  0  0  0  0  0  0  0  0  0  0  0
  -23.3010  -12.6340   22.3310 N   0  0  0  0  0  0  0  0  0  0  0  0
  -23.6060  -14.3940   20.9970 O   0  0  0  0  0  0  0  0  0  0  0  0
  -23.6190  -11.7430   22.6780 H   0  0  0  0  0  0  0  0  0  0  0  0
  -22.4470  -13.0290   22.7000 H   0  0  0  0  0  0  0  0  0  0  0  0
  -26.6520  -14.6970   20.3210 N   0  0  0  0  0  0  0  0  0  0  0  0
  -25.9700  -15.4050   20.5650 H   0  0  0  0  0  0  0  0  0  0  0  0
  -27.4650  -15.0750   19.8550 H   0  0  0  0  0  0  0  0  0  0  0  0
  -29.6100  -23.2760   19.5670 C   0  0  0  0  0  2  0  0  0  0  0  0
  -29.4790  -24.3050   20.8310 C   0  0  0  0  0  2  0  0  0  0  0  0
  -29.4970  -25.8140   20.7160 O   0  0  0  0  0  0  0  0  0  0  0  0
  -25.0650  -30.9410   23.4250 C   0  0  0  0  0  0  0  0  0  0  0  0
  -28.3100  -26.5820   20.6380 C   0  0  0  0  0  0  0  0  0  0  0  0
  -24.1380  -29.4660   21.6780 C   0  0  0  0  0  3  0  0  0  0  0  0
  -25.8370  -28.0330   20.4000 C   0  0  0  0  0  0  0  0  0  0  0  0
  -26.6530  -29.9750   21.7370 C   0  0  0  0  0  2  0  0  0  0  0  0
  -26.9050  -28.6050   21.1030 C   0  0  0  0  0  0  0  0  0  0  0  0
  -28.1460  -27.8960   21.2010 C   0  0  0  0  0  3  0  0  0  0  0  0
  -27.2150  -26.0670   19.9170 C   0  0  0  0  0  3  0  0  0  0  0  0
  -25.9980  -26.7730   19.7960 C   0  0  0  0  0  3  0  0  0  0  0  0
  -24.5380  -28.8150   20.3260 C   0  0  0  0  0  2  0  0  0  0  0  0
  -25.2980  -30.1480   22.3390 N   0  0  0  0  0  0  0  0  0  0  0  0
  -23.9160  -31.1280   23.8550 O   0  0  0  0  0  0  0  0  0  0  0  0
  -23.4650  -28.3970   22.5720 C   0  0  0  0  0  0  0  0  0  0  0  0
  -22.2250  -28.0100   22.2290 N   0  0  0  0  0  0  0  0  0  0  0  0
  -24.0680  -27.9160   23.5360 O   0  0  0  0  0  0  0  0  0  0  0  0
  -21.7930  -28.4570   21.4320 H   0  0  0  0  0  0  0  0  0  0  0  0
  -19.0470  -26.2790   22.1830 C   0  0  0  0  0  0  0  0  0  0  0  0
  -21.4290  -26.9810   22.9020 C   0  0  0  0  0  3  0  0  0  0  0  0
  -21.8660  -25.5640   22.4650 C   0  0  0  0  0  2  0  0  0  0  0  0
  -21.0500  -25.0150   21.2920 C   0  0  0  0  0  2  0  0  0  0  0  0
  -19.5630  -24.9510   21.6550 C   0  0  0  0  0  2  0  0  0  0  0  0
  -19.9250  -27.2380   22.7550 C   0  0  0  0  0  0  0  0  0  0  0  0
  -19.3960  -28.4700   23.1980 C   0  0  0  0  0  3  0  0  0  0  0  0
  -18.0210  -28.7470   23.0820 C   0  0  0  0  0  3  0  0  0  0  0  0
  -17.1540  -27.7880   22.5280 C   0  0  0  0  0  3  0  0  0  0  0  0
  -17.6670  -26.5560   22.0850 C   0  0  0  0  0  3  0  0  0  0  0  0
  -26.2260  -31.6700   24.1700 C   0  0  0  0  0  3  0  0  0  0  0  0
  -26.5220  -31.0670   25.5980 C   0  0  1  0  0  0  0  0  0  0  0  0
  -25.2620  -30.9090   26.4810 C   0  0  0  0  0  1  0  0  0  0  0  0
  -27.1890  -29.6760   25.4780 C   0  0  0  0  0  1  0  0  0  0  0  0
  -27.5240  -31.9720   26.3510 C   0  0  0  0  0  1  0  0  0  0  0  0
  -25.8660  -33.0920   24.2760 N   0  0  0  0  0  0  0  0  0  0  0  0
  -26.3420  -34.0600   23.4820 C   0  0  0  0  0  0  0  0  0  0  0  0
  -27.1940  -33.8540   22.6130 O   0  0  0  0  0  0  0  0  0  0  0  0
  -25.1310  -33.3240   24.9280 H   0  0  0  0  0  0  0  0  0  0  0  0
  -24.7540  -35.7950   22.5880 C   0  0  0  0  0  1  0  0  0  0  0  0
  -25.7870  -35.4850   23.6830 C   0  0  0  0  0  3  0  0  0  0  0  0
  -27.7010  -36.4720   24.8630 C   0  0  0  0  0  1  0  0  0  0  0  0
  -26.8330  -36.5300   23.6900 N   0  0  0  0  0  0  0  0  0  0  0  0
  -26.4170  -37.4560   23.6480 H   0  0  0  0  0  0  0  0  0  0  0  0
  1  5  1  0
  2  3  1  0
  2  1  2  0
  3 12  1  0
  4  3  2  0
  4  7  1  0
  5  8  1  0
  6  2  1  0
  7  5  2  0
  8  9  1  0
 11 12  1  0
 12 10  1  0
 13  4  1  0
 13 22  1  0
 14 20  1  0
 15 20  1  0
 16 17  1  0
 16 15  1  0
 18 17  1  0
 18 27  1  0
 18 19  1  0
 20 19  1  0
 21 14  2  0
 22 14  1  0
 22 23  1  0
 24 25  2  0
 25 44  1  0
 26 25  1  0
 26 29  1  0
 27 28  1  0
 27 24  1  0
 28 26  2  0
 29 30  1  0
 30 31  2  0
 32 35  1  0
 32 31  1  0
 33 32  2  0
 34 33  1  0
 34 29  2  0
 35 36  1  0
 36 41  2  0
 36 37  1  0
 37 38  2  0
 38 39  1  0
 39 43  1  0
 40 39  2  0
 41 40  1  0
 42 41  1  0
 44 45  1  0
 45 47  1  0
 45 48  1  0
 46 44  2  0
 49 24  1  0
 49 50  1  0
 51 49  1  0
 52  8  1  0
 52 53  1  0
 54 53  1  0
 55 66  2  0
 56 54  1  0
 56 61  1  0
 57 65  1  0
 57 67  1  0
 58 60  1  0
 59 65  1  0
 60 61  2  0
 60 59  1  0
 62 56  2  0
 63 62  1  0
 63 58  2  0
 64 58  1  0
 64 57  1  0
 65 55  1  0
 67 69  2  0
 68 67  1  0
 70 68  1  0
 71 76  1  0
 72 68  1  0
 73 72  1  0
 74 75  1  0
 74 73  1  0
 75 71  1  0
 76 72  1  0
 76 77  2  0
 78 77  1  0
 79 78  2  0
 80 71  2  0
 80 79  1  0
 81 55  1  0
 81 86  1  0
 81 82  1  0
 82 85  1  1
 82 83  1  0
 84 82  1  0
 86 89  1  0
 87 91  1  0
 87 86  1  0
 88 87  2  0
 91 90  1  0
 91 93  1  0
 93 92  1  0
 94 93  1  0
M  ISO  4  14 100  22 100  53 101  54 101
M  END
>  <TORSDO>  (42) 
F 20

>  <SCORE>  (42) 
-9.636

>  <name>  (42) 
41

>  <ligand_id>  (42) 
41

>  <original_smiles>  (42) 
[H]c1c([H])c([H])c2c(c1[H])C([H])([H])C([H])([H])C([H])([H])C2([H])N([H])C(=O)C1([H])N(C(=O)C([H])(N([H])C(=O)C([H])(N([H])C([H])([H])[H])C([H])([H])[H])C(C([H])([H])[H])(C([H])([H])[H])C([H])([H])[H])C([H])([H])c2c([H])c(OC([H])([H])C([H])([H])N([H])c3nc(C([H])([H])N([H])C(=O)N4C([H])([H])C([H])([H])C([H])([H])C([H])(n5nc(-c6c([H])c([H])c(Oc7c([H])c([H])c(F)c([H])c7F)c([H])c6[H])c(C(=O)N([H])[H])c5N([H])[H])C4([H])[H])c(C([H])(C([H])([H])[H])C([H])([H])[H])c(C([H])([H])[H])c3[H])c([H])c([H])c2C1([H])[H]

>  <smiles>  (42) 
[H]c1c([H])c([H])c2c(c1[H])C([H])([H])C([H])([H])C([H])([H])C2([H])N([H])C(=O)C1([H])N(C(=O)C([H])(N([H])C(=O)C([H])(N([H])C([H])([H])[H])C([H])([H])[H])C(C([H])([H])[H])(C([H])([H])[H])C([H])([H])[H])C([H])([H])c2c([H])c(OC([H])([H])C([H])([H])N([H])c3nc(C([H])([H])N([H])C(=O)N4C([H])([H])C([H])([H])C([H])([H])C([H])(n5nc(-c6c([H])c([H])c(Oc7c([H])c([H])c(F)c([H])c7F)c([H])c6[H])c(C(=O)N([H])[H])c5N([H])[H])C4([H])[H])c(C([H])(C([H])([H])[H])C([H])([H])[H])c(C([H])([H])[H])c3[H])c([H])c([H])c2C1([H])[H]

$$$$
42:0:0
     RDKit          3D

 87 95  0  0  1  0  0  0  0  0999 V2000
  -30.4030  -15.5630   20.3430 C   0  0  0  0  0  0  0  0  0  0  0  0
  -30.4210  -13.0380   19.5300 C   0  0  0  0  0  2  0  0  0  0  0  0
  -29.5540  -12.6500   18.3030 C   0  0  0  0  0  2  0  0  0  0  0  0
  -28.1180  -12.3210   18.7340 C   0  0  0  0  0  2  0  0  0  0  0  0
  -27.6010  -13.3230   19.7950 C   0  0  0  0  0  3  0  0  0  0  0  0
  -28.6190  -13.6450   20.9160 C   0  0  0  0  0  2  0  0  0  0  0  0
  -29.8000  -14.2400   20.2540 N   0  0  0  0  0  0  0  0  0  0  0  0
  -31.6320  -15.4150   20.1990 O   0  0  0  0  0  0  0  0  0  0  0  0
  -29.0020  -22.3910   20.3940 C   0  0  0  0  0  0  0  0  0  0  0  0
  -28.1810  -19.5320   20.0800 C   0  0  0  0  0  3  0  0  0  0  0  0
  -30.2890  -19.9180   20.6890 C   0  0  0  0  0  3  0  0  0  0  0  0
  -28.5200  -17.8600   20.5490 C   0  0  0  0  0  3  0  0  0  0  0  0
  -30.6460  -18.3450   20.0910 C   0  0  0  0  0  3  0  0  0  0  0  0
  -29.0540  -20.8270   20.3450 N   0  0  0  0  0  0  0  0  0  0  0  0
  -29.8420  -17.0200   20.3320 N   0  0  0  0  0  0  0  0  0  0  0  0
  -30.1090  -22.8520   20.6850 O   0  0  0  0  0  0  0  0  0  0  0  0
  -25.2230  -13.8350   20.5290 C   0  0  0  0  0  0  0  0  0  0  0  0
  -24.1660  -13.0450   20.8860 C   0  0  0  0  0  0  0  0  0  0  0  0
  -24.6530  -11.7010   20.8720 C   0  0  0  0  0  0  0  0  0  0  0  0
  -26.2810  -12.9750   20.3050 N   0  0  0  0  0  0  0  0  0  0  0  0
  -25.9520  -11.6830   20.5800 N   0  0  0  0  0  0  0  0  0  0  0  0
  -23.9350  -10.4310   21.0590 C   0  0  0  0  0  0  0  0  0  0  0  0
  -24.3750   -9.4640   21.9880 C   0  0  0  0  0  3  0  0  0  0  0  0
  -23.6540   -8.2630   22.1690 C   0  0  0  0  0  3  0  0  0  0  0  0
  -22.4800   -8.0200   21.4180 C   0  0  0  0  0  0  0  0  0  0  0  0
  -22.0580   -8.9750   20.4780 C   0  0  0  0  0  3  0  0  0  0  0  0
  -22.7800  -10.1670   20.2950 C   0  0  0  0  0  3  0  0  0  0  0  0
  -21.7280   -6.8740   21.5090 O   0  0  0  0  0  0  0  0  0  0  0  0
  -21.7030   -6.1160   22.6530 C   0  0  0  0  0  0  0  0  0  0  0  0
  -21.3160   -6.6610   23.8970 C   0  0  0  0  0  3  0  0  0  0  0  0
  -21.2350   -5.8330   25.0360 C   0  0  0  0  0  3  0  0  0  0  0  0
  -21.5310   -4.4610   24.9310 C   0  0  0  0  0  0  0  0  0  0  0  0
  -21.9120   -3.9160   23.6920 C   0  0  0  0  0  3  0  0  0  0  0  0
  -21.9940   -4.7410   22.5560 C   0  0  0  0  0  0  0  0  0  0  0  0
  -22.3400   -4.2060   21.3600 F   0  0  0  0  0  0  0  0  0  0  0  0
  -21.4470   -3.6620   26.0200 F   0  0  0  0  0  0  0  0  0  0  0  0
  -22.7590  -13.5090   21.1190 C   0  0  0  0  0  0  0  0  0  0  0  0
  -22.0220  -12.8230   21.9840 N   0  0  0  0  0  0  0  0  0  0  0  0
  -22.3200  -14.5150   20.5650 O   0  0  0  0  0  0  0  0  0  0  0  0
  -22.3900  -12.0150   22.4630 H   0  0  0  0  0  0  0  0  0  0  0  0
  -21.0720  -13.1140   22.1720 H   0  0  0  0  0  0  0  0  0  0  0  0
  -25.3700  -15.2060   20.3420 N   0  0  0  0  0  0  0  0  0  0  0  0
  -24.5880  -15.8460   20.4330 H   0  0  0  0  0  0  0  0  0  0  0  0
  -26.2150  -15.6490   20.0050 H   0  0  0  0  0  0  0  0  0  0  0  0
  -26.6800  -23.5770   21.1410 C   0  0  0  0  0  1  0  0  0  0  0  0
  -27.8590  -23.8190   20.1810 C   0  0  0  0  0  3  0  0  0  0  0  0
  -28.1170  -25.5430   20.2640 O   0  0  0  0  0  0  0  0  0  0  0  0
  -24.6370  -31.8090   23.1310 C   0  0  0  0  0  0  0  0  0  0  0  0
  -27.1560  -26.7470   20.1800 C   0  0  0  0  0  0  0  0  0  0  0  0
  -23.4470  -30.4070   21.5000 C   0  0  0  0  0  3  0  0  0  0  0  0
  -24.8940  -28.7610   20.0950 C   0  0  0  0  0  0  0  0  0  0  0  0
  -26.0260  -30.5560   21.3800 C   0  0  0  0  0  2  0  0  0  0  0  0
  -26.0870  -29.1260   20.7310 C   0  0  0  0  0  0  0  0  0  0  0  0
  -27.2050  -28.1450   20.7440 C   0  0  0  0  0  3  0  0  0  0  0  0
  -25.9370  -26.5870   19.4770 C   0  0  0  0  0  3  0  0  0  0  0  0
  -24.8560  -27.5180   19.4410 C   0  0  0  0  0  3  0  0  0  0  0  0
  -23.6860  -29.7060   20.1320 C   0  0  0  0  0  2  0  0  0  0  0  0
  -24.7260  -30.9580   22.0550 N   0  0  0  0  0  0  0  0  0  0  0  0
  -23.5450  -32.1110   23.6420 O   0  0  0  0  0  0  0  0  0  0  0  0
  -22.7350  -29.4280   22.4730 C   0  0  0  0  0  0  0  0  0  0  0  0
  -21.3990  -29.2900   22.3630 N   0  0  0  0  0  0  0  0  0  0  0  0
  -23.3940  -28.7950   23.3000 O   0  0  0  0  0  0  0  0  0  0  0  0
  -20.9180  -29.8510   21.6750 H   0  0  0  0  0  0  0  0  0  0  0  0
  -18.0030  -28.1280   22.9180 C   0  0  0  0  0  0  0  0  0  0  0  0
  -20.5700  -28.3620   23.1430 C   0  0  0  0  0  3  0  0  0  0  0  0
  -20.6440  -26.9290   22.5630 C   0  0  0  0  0  2  0  0  0  0  0  0
  -19.5230  -26.6290   21.5630 C   0  0  0  0  0  2  0  0  0  0  0  0
  -18.1530  -26.7840   22.2270 C   0  0  0  0  0  2  0  0  0  0  0  0
  -19.1370  -28.8770   23.3340 C   0  0  0  0  0  0  0  0  0  0  0  0
  -18.9370  -30.1340   23.9450 C   0  0  0  0  0  3  0  0  0  0  0  0
  -17.6390  -30.6430   24.1420 C   0  0  0  0  0  3  0  0  0  0  0  0
  -16.5210  -29.8910   23.7400 C   0  0  0  0  0  3  0  0  0  0  0  0
  -16.7040  -28.6360   23.1330 C   0  0  0  0  0  3  0  0  0  0  0  0
  -25.9010  -32.4610   23.7680 C   0  0  0  0  0  3  0  0  0  0  0  0
  -25.5680  -33.8540   24.1280 N   0  0  0  0  0  0  0  0  0  0  0  0
  -25.8820  -34.9350   23.4020 C   0  0  0  0  0  0  0  0  0  0  0  0
  -26.5380  -34.8650   22.3590 O   0  0  0  0  0  0  0  0  0  0  0  0
  -24.9810  -33.9790   24.9410 H   0  0  0  0  0  0  0  0  0  0  0  0
  -24.1250  -36.7230   23.1420 C   0  0  0  0  0  1  0  0  0  0  0  0
  -25.3940  -36.3100   23.9060 C   0  0  0  0  0  3  0  0  0  0  0  0
  -27.5410  -37.2060   24.6940 C   0  0  0  0  0  1  0  0  0  0  0  0
  -26.4110  -37.3790   23.7860 N   0  0  0  0  0  0  0  0  0  0  0  0
  -25.9980  -38.2910   23.9600 H   0  0  0  0  0  0  0  0  0  0  0  0
  -26.4200  -31.6870   25.0440 C   0  0  1  0  0  0  0  0  0  0  0  0
  -25.3260  -31.4420   26.1110 C   0  0  0  0  0  1  0  0  0  0  0  0
  -27.0100  -30.3110   24.6600 C   0  0  0  0  0  1  0  0  0  0  0  0
  -27.5690  -32.4830   25.7070 C   0  0  0  0  0  1  0  0  0  0  0  0
  2  7  1  0
  3  4  1  0
  3  2  1  0
  5  4  1  0
  5 20  1  0
  5  6  1  0
  7  1  1  0
  7  6  1  0
  8  1  2  0
  9 16  2  0
 10 14  1  0
 10 12  2  0
 13 15  1  0
 13 11  2  0
 14  9  1  0
 14 11  1  0
 15  1  1  0
 15 12  1  0
 17 18  2  0
 18 37  1  0
 19 18  1  0
 19 22  1  0
 20 17  1  0
 20 21  1  0
 21 19  2  0
 22 23  1  0
 23 24  2  0
 25 28  1  0
 25 24  1  0
 26 25  2  0
 27 26  1  0
 27 22  2  0
 28 29  1  0
 29 30  1  0
 30 31  2  0
 32 31  1  0
 32 36  1  0
 33 32  2  0
 34 29  2  0
 34 33  1  0
 35 34  1  0
 37 38  1  0
 38 41  1  0
 38 40  1  0
 39 37  2  0
 42 43  1  0
 42 17  1  0
 44 42  1  0
 46 47  1  0
 46  9  1  0
 46 45  1  0
 48 59  2  0
 49 47  1  0
 49 54  1  0
 50 58  1  0
 50 60  1  0
 51 57  1  0
 51 53  1  0
 52 58  1  0
 53 54  2  0
 53 52  1  0
 55 49  2  0
 56 55  1  0
 56 51  2  0
 57 50  1  0
 58 48  1  0
 60 62  2  0
 61 60  1  0
 63 61  1  0
 64 73  2  0
 64 69  1  0
 65 61  1  0
 65 69  1  0
 66 65  1  0
 67 68  1  0
 67 66  1  0
 68 64  1  0
 69 70  2  0
 70 71  1  0
 72 71  2  0
 73 72  1  0
 74 48  1  0
 74 75  1  0
 74 84  1  0
 75 78  1  0
 76 80  1  0
 76 75  1  0
 77 76  2  0
 80 79  1  0
 82 80  1  0
 82 83  1  0
 82 81  1  0
 84 87  1  1
 84 85  1  0
 86 84  1  0
M  ISO  4   1 100  15 100  46 101  47 101
M  END
>  <TORSDO>  (43) 
F 16

>  <SCORE>  (43) 
-16.711

>  <name>  (43) 
42

>  <ligand_id>  (43) 
42

>  <original_smiles>  (43) 
[H]c1c([H])c([H])c2c(c1[H])C([H])([H])C([H])([H])C([H])([H])C2([H])N([H])C(=O)C1([H])N(C(=O)C([H])(N([H])C(=O)C([H])(N([H])C([H])([H])[H])C([H])([H])[H])C(C([H])([H])[H])(C([H])([H])[H])C([H])([H])[H])C([H])([H])c2c([H])c(OC([H])(C(=O)N3C([H])([H])C([H])([H])N(C(=O)N4C([H])([H])C([H])([H])C([H])([H])C([H])(n5nc(-c6c([H])c([H])c(Oc7c([H])c([H])c(F)c([H])c7F)c([H])c6[H])c(C(=O)N([H])[H])c5N([H])[H])C4([H])[H])C([H])([H])C3([H])[H])C([H])([H])[H])c([H])c([H])c2C1([H])[H]

>  <smiles>  (43) 
[H]c1c([H])c([H])c2c(c1[H])C([H])([H])C([H])([H])C([H])([H])C2([H])N([H])C(=O)C1([H])N(C(=O)C([H])(N([H])C(=O)C([H])(N([H])C([H])([H])[H])C([H])([H])[H])C(C([H])([H])[H])(C([H])([H])[H])C([H])([H])[H])C([H])([H])c2c([H])c(OC([H])(C(=O)N3C([H])([H])C([H])([H])N(C(=O)N4C([H])([H])C([H])([H])C([H])([H])C([H])(n5nc(-c6c([H])c([H])c(Oc7c([H])c([H])c(F)c([H])c7F)c([H])c6[H])c(C(=O)N([H])[H])c5N([H])[H])C4([H])[H])C([H])([H])C3([H])[H])C([H])([H])[H])c([H])c([H])c2C1([H])[H]

$$$$
43:0:0
     RDKit          3D

 96104  0  0  1  0  0  0  0  0999 V2000
  -30.5070  -19.9660   22.9510 C   0  0  0  0  0  3  0  0  0  0  0  0
  -30.5160  -20.7230   21.7760 C   0  0  0  0  0  3  0  0  0  0  0  0
  -30.2780  -18.5790   22.8860 C   0  0  0  0  0  0  0  0  0  0  0  0
  -30.2890  -20.0870   20.5510 C   0  0  0  0  0  0  0  0  0  0  0  0
  -30.1150  -17.9840   21.6030 C   0  0  0  0  0  0  0  0  0  0  0  0
  -30.1050  -18.7360   20.4610 N   0  0  0  0  0  0  0  0  0  0  0  0
  -29.7360  -18.6130   25.3850 C   0  0  0  0  0  1  0  0  0  0  0  0
  -31.6710  -17.2340   24.4830 C   0  0  0  0  0  1  0  0  0  0  0  0
  -30.2680  -17.7890   24.1990 C   0  0  0  0  0  3  0  0  0  0  0  0
  -29.9240  -16.4590   21.4440 C   0  0  0  0  0  2  0  0  0  0  0  0
  -31.4410  -14.6550   20.5580 C   0  0  0  0  0  0  0  0  0  0  0  0
  -31.0490  -12.5160   19.4110 C   0  0  0  0  0  2  0  0  0  0  0  0
  -30.1900  -12.7790   18.1560 C   0  0  0  0  0  2  0  0  0  0  0  0
  -28.6870  -12.7240   18.5050 C   0  0  0  0  0  2  0  0  0  0  0  0
  -28.3300  -13.5670   19.7590 C   0  0  0  0  0  3  0  0  0  0  0  0
  -29.3150  -13.2940   20.9140 C   0  0  0  0  0  2  0  0  0  0  0  0
  -30.6730  -13.5370   20.4030 N   0  0  0  0  0  0  0  0  0  0  0  0
  -32.6430  -14.6640   20.3010 O   0  0  0  0  0  0  0  0  0  0  0  0
  -30.8170  -15.8460   20.4700 N   0  0  0  0  0  0  0  0  0  0  0  0
  -31.4270  -16.5620   20.1010 H   0  0  0  0  0  0  0  0  0  0  0  0
  -25.9190  -14.2930   20.2890 C   0  0  0  0  0  0  0  0  0  0  0  0
  -24.7990  -13.5800   20.6190 C   0  0  0  0  0  0  0  0  0  0  0  0
  -25.2060  -12.2120   20.6770 C   0  0  0  0  0  0  0  0  0  0  0  0
  -26.9410  -13.3630   20.1670 N   0  0  0  0  0  0  0  0  0  0  0  0
  -26.5110  -12.1090   20.4610 N   0  0  0  0  0  0  0  0  0  0  0  0
  -24.4180  -10.9890   20.8700 C   0  0  0  0  0  0  0  0  0  0  0  0
  -24.7430  -10.0510   21.8750 C   0  0  0  0  0  3  0  0  0  0  0  0
  -23.9580   -8.8900   22.0520 C   0  0  0  0  0  3  0  0  0  0  0  0
  -22.8340   -8.6620   21.2240 C   0  0  0  0  0  0  0  0  0  0  0  0
  -22.5290   -9.5850   20.2100 C   0  0  0  0  0  3  0  0  0  0  0  0
  -23.3130  -10.7370   20.0310 C   0  0  0  0  0  3  0  0  0  0  0  0
  -22.0300   -7.5500   21.3060 O   0  0  0  0  0  0  0  0  0  0  0  0
  -21.8310   -6.8920   22.4940 C   0  0  0  0  0  0  0  0  0  0  0  0
  -21.3060   -7.5470   23.6290 C   0  0  0  0  0  3  0  0  0  0  0  0
  -21.0510   -6.8180   24.8080 C   0  0  0  0  0  3  0  0  0  0  0  0
  -21.3110   -5.4350   24.8510 C   0  0  0  0  0  0  0  0  0  0  0  0
  -21.8290   -4.7800   23.7200 C   0  0  0  0  0  3  0  0  0  0  0  0
  -22.0860   -5.5070   22.5450 C   0  0  0  0  0  0  0  0  0  0  0  0
  -22.5640   -4.8660   21.4500 F   0  0  0  0  0  0  0  0  0  0  0  0
  -21.0610   -4.7320   25.9810 F   0  0  0  0  0  0  0  0  0  0  0  0
  -23.4070  -14.1230   20.7730 C   0  0  0  0  0  0  0  0  0  0  0  0
  -22.6010  -13.5070   21.6300 N   0  0  0  0  0  0  0  0  0  0  0  0
  -23.0430  -15.1280   20.1660 O   0  0  0  0  0  0  0  0  0  0  0  0
  -22.9070  -12.6950   22.1450 H   0  0  0  0  0  0  0  0  0  0  0  0
  -21.6640  -13.8540   21.7750 H   0  0  0  0  0  0  0  0  0  0  0  0
  -26.1460  -15.6460   20.0590 N   0  0  0  0  0  0  0  0  0  0  0  0
  -25.3910  -16.3220   20.0610 H   0  0  0  0  0  0  0  0  0  0  0  0
  -27.0100  -16.0230   19.6910 H   0  0  0  0  0  0  0  0  0  0  0  0
  -30.3320  -20.9450   19.2760 C   0  0  0  0  0  2  0  0  0  0  0  0
  -28.9490  -21.9940   17.5090 C   0  0  0  0  0  1  0  0  0  0  0  0
  -29.0550  -21.6460   18.9460 N   0  0  2  0  0  4  0  0  0  0  0  0
  -28.3840  -20.9030   19.0760 H   0  0  0  0  0  0  0  0  0  0  0  0
  -28.5860  -22.7350   19.8710 C   0  0  0  0  0  2  0  0  0  0  0  0
  -29.1530  -24.1970   19.6930 C   0  0  0  0  0  2  0  0  0  0  0  0
  -28.0070  -25.2430   19.5820 C   0  0  0  0  0  2  0  0  0  0  0  0
  -28.2940  -26.6540   19.7840 O   0  0  0  0  0  0  0  0  0  0  0  0
  -24.8660  -31.9000   23.3060 C   0  0  0  0  0  0  0  0  0  0  0  0
  -27.1770  -27.4910   19.8640 C   0  0  0  0  0  0  0  0  0  0  0  0
  -23.5370  -30.6300   21.6610 C   0  0  0  0  0  3  0  0  0  0  0  0
  -24.8600  -29.1280   20.0850 C   0  0  0  0  0  0  0  0  0  0  0  0
  -26.0710  -30.8890   21.3640 C   0  0  0  0  0  2  0  0  0  0  0  0
  -26.0720  -29.5520   20.6460 C   0  0  0  0  0  0  0  0  0  0  0  0
  -27.2340  -28.7410   20.5350 C   0  0  0  0  0  3  0  0  0  0  0  0
  -25.9370  -27.1040   19.2990 C   0  0  0  0  0  3  0  0  0  0  0  0
  -24.7900  -27.9000   19.4130 C   0  0  0  0  0  3  0  0  0  0  0  0
  -23.6580  -30.0340   20.2350 C   0  0  0  0  0  2  0  0  0  0  0  0
  -24.8480  -31.1490   22.1680 N   0  0  0  0  0  0  0  0  0  0  0  0
  -23.8210  -32.1860   23.9070 O   0  0  0  0  0  0  0  0  0  0  0  0
  -22.8930  -29.5770   22.5950 C   0  0  0  0  0  0  0  0  0  0  0  0
  -21.5730  -29.3680   22.4520 N   0  0  0  0  0  0  0  0  0  0  0  0
  -23.5810  -28.9530   23.4080 O   0  0  0  0  0  0  0  0  0  0  0  0
  -21.0750  -29.9290   21.7750 H   0  0  0  0  0  0  0  0  0  0  0  0
  -18.2400  -28.0220   22.8290 C   0  0  0  0  0  0  0  0  0  0  0  0
  -20.7690  -28.4010   23.2020 C   0  0  0  0  0  3  0  0  0  0  0  0
  -20.9620  -26.9700   22.6520 C   0  0  0  0  0  2  0  0  0  0  0  0
  -19.9190  -26.5840   21.5980 C   0  0  0  0  0  2  0  0  0  0  0  0
  -18.5060  -26.6740   22.1820 C   0  0  0  0  0  2  0  0  0  0  0  0
  -19.3030  -28.8400   23.2940 C   0  0  0  0  0  0  0  0  0  0  0  0
  -19.0020  -30.1000   23.8570 C   0  0  0  0  0  3  0  0  0  0  0  0
  -17.6700  -30.5420   23.9580 C   0  0  0  0  0  3  0  0  0  0  0  0
  -16.6210  -29.7220   23.5080 C   0  0  0  0  0  3  0  0  0  0  0  0
  -16.9060  -28.4630   22.9510 C   0  0  0  0  0  3  0  0  0  0  0  0
  -26.2020  -32.4580   23.8870 C   0  0  0  0  0  3  0  0  0  0  0  0
  -25.9530  -33.8380   24.3250 N   0  0  0  0  0  0  0  0  0  0  0  0
  -26.2650  -34.9290   23.6150 C   0  0  0  0  0  0  0  0  0  0  0  0
  -26.8670  -34.8770   22.5390 O   0  0  0  0  0  0  0  0  0  0  0  0
  -25.4110  -33.9550   25.1700 H   0  0  0  0  0  0  0  0  0  0  0  0
  -24.5570  -36.7700   23.4890 C   0  0  0  0  0  1  0  0  0  0  0  0
  -25.8410  -36.2950   24.1860 C   0  0  0  0  0  3  0  0  0  0  0  0
  -28.0450  -37.0910   24.9180 C   0  0  0  0  0  1  0  0  0  0  0  0
  -26.8870  -37.3330   24.0640 N   0  0  0  0  0  0  0  0  0  0  0  0
  -26.5110  -38.2520   24.2880 H   0  0  0  0  0  0  0  0  0  0  0  0
  -26.7680  -31.5910   25.0780 C   0  0  1  0  0  0  0  0  0  0  0  0
  -25.7270  -31.3030   26.1850 C   0  0  0  0  0  1  0  0  0  0  0  0
  -27.2990  -30.2320   24.5660 C   0  0  0  0  0  1  0  0  0  0  0  0
  -27.9700  -32.3150   25.7290 C   0  0  0  0  0  1  0  0  0  0  0  0
  2  1  2  0
  3  1  1  0
  3  9  1  0
  4  2  1  0
  5  3  2  0
  6  4  2  0
  6  5  1  0
  9  8  1  0
  9  7  1  0
 10  5  1  0
 12 17  1  0
 13 14  1  0
 13 12  1  0
 15 14  1  0
 15 24  1  0
 15 16  1  0
 17 11  1  0
 17 16  1  0
 18 11  2  0
 19 11  1  0
 19 10  1  0
 20 19  1  0
 21 22  2  0
 22 23  1  0
 22 41  1  0
 23 26  1  0
 24 21  1  0
 24 25  1  0
 25 23  2  0
 26 27  1  0
 27 28  2  0
 29 32  1  0
 29 28  1  0
 30 29  2  0
 31 30  1  0
 31 26  2  0
 32 33  1  0
 33 38  2  0
 33 34  1  0
 34 35  2  0
 35 36  1  0
 36 40  1  0
 37 36  2  0
 38 37  1  0
 39 38  1  0
 41 42  1  0
 42 45  1  0
 42 44  1  0
 43 41  2  0
 46 47  1  0
 46 21  1  0
 48 46  1  0
 49  4  1  0
 50 51  1  0
 51 52  1  6
 51 49  1  0
 51 53  1  0
 54 53  1  0
 55 54  1  0
 55 56  1  0
 56 58  1  0
 57 68  2  0
 58 63  1  0
 59 67  1  0
 59 69  1  0
 60 66  1  0
 60 62  1  0
 61 67  1  0
 62 61  1  0
 63 62  2  0
 64 65  1  0
 64 58  2  0
 65 60  2  0
 66 59  1  0
 67 57  1  0
 69 71  2  0
 70 69  1  0
 72 70  1  0
 73 82  2  0
 73 78  1  0
 74 70  1  0
 74 78  1  0
 75 74  1  0
 76 77  1  0
 76 75  1  0
 77 73  1  0
 78 79  2  0
 79 80  1  0
 81 80  2  0
 82 81  1  0
 83 57  1  0
 83 84  1  0
 83 93  1  0
 84 87  1  0
 85 89  1  0
 85 84  1  0
 86 85  2  0
 89 88  1  0
 91 89  1  0
 91 92  1  0
 91 90  1  0
 93 96  1  1
 93 94  1  0
 95 93  1  0
M  ISO  4  11 100  19 100  55 101  56 101
M  END
>  <TORSDO>  (44) 
F 23

>  <SCORE>  (44) 
-5.297

>  <name>  (44) 
43

>  <ligand_id>  (44) 
43

>  <original_smiles>  (44) 
[H]c1c(C([H])([H])[N+]([H])(C([H])([H])[H])C([H])([H])C([H])([H])C([H])([H])Oc2c([H])c([H])c3c(c2[H])C([H])([H])N(C(=O)C([H])(N([H])C(=O)C([H])(N([H])C([H])([H])[H])C([H])([H])[H])C(C([H])([H])[H])(C([H])([H])[H])C([H])([H])[H])C([H])(C(=O)N([H])C2([H])c4c([H])c([H])c([H])c([H])c4C([H])([H])C([H])([H])C2([H])[H])C3([H])[H])nc(C([H])([H])N([H])C(=O)N2C([H])([H])C([H])([H])C([H])([H])C([H])(n3nc(-c4c([H])c([H])c(Oc5c([H])c([H])c(F)c([H])c5F)c([H])c4[H])c(C(=O)N([H])[H])c3N([H])[H])C2([H])[H])c(C([H])(C([H])([H])[H])C([H])([H])[H])c1[H]

>  <smiles>  (44) 
[H]c1c(C([H])([H])[N+]([H])(C([H])([H])[H])C([H])([H])C([H])([H])C([H])([H])Oc2c([H])c([H])c3c(c2[H])C([H])([H])N(C(=O)C([H])(N([H])C(=O)C([H])(N([H])C([H])([H])[H])C([H])([H])[H])C(C([H])([H])[H])(C([H])([H])[H])C([H])([H])[H])C([H])(C(=O)N([H])C2([H])c4c([H])c([H])c([H])c([H])c4C([H])([H])C([H])([H])C2([H])[H])C3([H])[H])nc(C([H])([H])N([H])C(=O)N2C([H])([H])C([H])([H])C([H])([H])C([H])(n3nc(-c4c([H])c([H])c(Oc5c([H])c([H])c(F)c([H])c5F)c([H])c4[H])c(C(=O)N([H])[H])c3N([H])[H])C2([H])[H])c(C([H])(C([H])([H])[H])C([H])([H])[H])c1[H]

$$$$
44:0:0
     RDKit          3D

 98106  0  0  1  0  0  0  0  0999 V2000
  -27.5650  -22.0600   18.2250 C   0  0  0  0  0  2  0  0  0  0  0  0
  -26.2690  -23.2600   16.8270 C   0  0  0  0  0  2  0  0  0  0  0  0
  -27.5190  -23.2240   17.3800 C   0  0  0  0  0  3  0  0  0  0  0  0
  -26.3570  -21.3690   18.1130 C   0  0  0  0  0  3  0  0  0  0  0  0
  -25.4820  -22.3660   17.5400 N   0  0  0  0  0  0  0  0  0  0  0  0
  -22.8960  -21.9580   17.0570 C   0  0  0  0  0  1  0  0  0  0  0  0
  -23.7580  -24.2220   17.4160 C   0  0  0  0  0  1  0  0  0  0  0  0
  -23.8890  -22.6140   19.2960 C   0  0  0  0  0  1  0  0  0  0  0  0
  -24.0430  -22.7340   17.7890 C   0  0  2  0  0  0  0  0  0  0  0  0
  -26.0660  -19.9520   18.6890 C   0  0  0  0  0  2  0  0  0  0  0  0
  -27.3700  -19.1540   18.7830 N   0  0  0  0  0  4  0  0  0  0  0  0
  -28.0440  -19.8090   19.1240 H   0  0  0  0  0  0  0  0  0  0  0  0
  -27.5920  -18.9430   17.8250 H   0  0  0  0  0  0  0  0  0  0  0  0
  -27.5320  -17.8590   19.5570 C   0  0  0  0  0  3  0  0  0  0  0  0
  -29.0430  -17.2410   19.6900 C   0  0  0  0  0  3  0  0  0  0  0  0
  -30.3410  -14.9140   20.2630 C   0  0  0  0  0  0  0  0  0  0  0  0
  -30.3850  -12.5750   19.3760 C   0  0  0  0  0  2  0  0  0  0  0  0
  -29.4610  -12.5970   18.1310 C   0  0  0  0  0  2  0  0  0  0  0  0
  -27.9840  -12.4310   18.5290 C   0  0  0  0  0  2  0  0  0  0  0  0
  -27.5990  -13.3300   19.7260 C   0  0  0  0  0  3  0  0  0  0  0  0
  -28.6180  -13.1990   20.8740 C   0  0  0  0  0  2  0  0  0  0  0  0
  -29.9040  -13.6110   20.3200 N   0  0  0  0  0  0  0  0  0  0  0  0
  -31.5300  -15.1510   20.0110 O   0  0  0  0  0  0  0  0  0  0  0  0
  -29.2850  -15.8330   20.2400 N   0  0  0  0  0  0  0  0  0  0  0  0
  -28.4380  -15.3710   20.5160 H   0  0  0  0  0  0  0  0  0  0  0  0
  -25.2320  -13.9810   20.4530 C   0  0  0  0  0  0  0  0  0  0  0  0
  -24.1510  -13.2180   20.8270 C   0  0  0  0  0  0  0  0  0  0  0  0
  -24.6050  -11.8730   20.8020 C   0  0  0  0  0  0  0  0  0  0  0  0
  -26.2550  -13.0770   20.2160 N   0  0  0  0  0  0  0  0  0  0  0  0
  -25.8940  -11.8100   20.4960 N   0  0  0  0  0  0  0  0  0  0  0  0
  -23.8770  -10.6160   20.9880 C   0  0  0  0  0  0  0  0  0  0  0  0
  -24.3030   -9.6500   21.9200 C   0  0  0  0  0  3  0  0  0  0  0  0
  -23.5650   -8.4580   22.0900 C   0  0  0  0  0  3  0  0  0  0  0  0
  -22.4030   -8.2280   21.3170 C   0  0  0  0  0  0  0  0  0  0  0  0
  -22.0110   -9.1810   20.3590 C   0  0  0  0  0  3  0  0  0  0  0  0
  -22.7510  -10.3630   20.1870 C   0  0  0  0  0  3  0  0  0  0  0  0
  -21.6430   -7.0910   21.3930 O   0  0  0  0  0  0  0  0  0  0  0  0
  -21.5780   -6.3520   22.5460 C   0  0  0  0  0  0  0  0  0  0  0  0
  -21.1280   -6.9070   23.7640 C   0  0  0  0  0  3  0  0  0  0  0  0
  -21.0030   -6.0920   24.9030 C   0  0  0  0  0  3  0  0  0  0  0  0
  -21.3280   -4.7240   24.8320 C   0  0  0  0  0  0  0  0  0  0  0  0
  -21.7760   -4.1700   23.6190 C   0  0  0  0  0  3  0  0  0  0  0  0
  -21.8990   -4.9820   22.4800 C   0  0  0  0  0  0  0  0  0  0  0  0
  -22.3100   -4.4410   21.3080 F   0  0  0  0  0  0  0  0  0  0  0  0
  -21.2050   -3.9350   25.9260 F   0  0  0  0  0  0  0  0  0  0  0  0
  -22.7600  -13.7140   21.0660 C   0  0  0  0  0  0  0  0  0  0  0  0
  -22.0280  -13.0290   21.9420 N   0  0  0  0  0  0  0  0  0  0  0  0
  -22.3460  -14.7370   20.5360 O   0  0  0  0  0  0  0  0  0  0  0  0
  -22.4030  -12.2020   22.3800 H   0  0  0  0  0  0  0  0  0  0  0  0
  -21.0920  -13.3340   22.1630 H   0  0  0  0  0  0  0  0  0  0  0  0
  -25.4160  -15.3340   20.2620 N   0  0  0  0  0  0  0  0  0  0  0  0
  -24.5350  -15.8310   20.2670 H   0  0  0  0  0  0  0  0  0  0  0  0
  -25.9120  -15.5010   19.3950 H   0  0  0  0  0  0  0  0  0  0  0  0
  -28.4710  -24.1790   17.0530 O   0  0  0  0  0  0  0  0  0  0  0  0
  -29.6040  -24.4370   17.8970 C   0  0  0  0  0  2  0  0  0  0  0  0
  -29.5750  -25.8050   18.6240 C   0  0  0  0  0  2  0  0  0  0  0  0
  -28.8630  -25.6500   19.9650 C   0  0  0  0  0  2  0  0  0  0  0  0
  -28.6140  -26.8950   20.6350 O   0  0  0  0  0  0  0  0  0  0  0  0
  -24.6310  -32.0660   23.4640 C   0  0  0  0  0  0  0  0  0  0  0  0
  -27.4050  -27.5710   20.5740 C   0  0  0  0  0  0  0  0  0  0  0  0
  -23.4930  -30.6320   21.8170 C   0  0  0  0  0  3  0  0  0  0  0  0
  -24.9860  -29.0490   20.4890 C   0  0  0  0  0  0  0  0  0  0  0  0
  -26.0280  -30.9990   21.6800 C   0  0  0  0  0  2  0  0  0  0  0  0
  -26.1350  -29.5950   21.1020 C   0  0  0  0  0  0  0  0  0  0  0  0
  -27.3440  -28.8540   21.1660 C   0  0  0  0  0  3  0  0  0  0  0  0
  -26.2330  -27.0390   19.9630 C   0  0  0  0  0  3  0  0  0  0  0  0
  -25.0130  -27.7350   19.9900 C   0  0  0  0  0  3  0  0  0  0  0  0
  -23.7690  -29.9610   20.4460 C   0  0  0  0  0  2  0  0  0  0  0  0
  -24.7290  -31.2570   22.3840 N   0  0  0  0  0  0  0  0  0  0  0  0
  -23.5180  -32.3500   23.9570 O   0  0  0  0  0  0  0  0  0  0  0  0
  -22.7910  -29.6300   22.7430 C   0  0  0  0  0  0  0  0  0  0  0  0
  -21.4680  -29.4570   22.5950 N   0  0  0  0  0  0  0  0  0  0  0  0
  -23.4430  -29.0480   23.6050 O   0  0  0  0  0  0  0  0  0  0  0  0
  -20.9480  -30.0100   21.9420 H   0  0  0  0  0  0  0  0  0  0  0  0
  -18.1020  -28.2330   22.9780 C   0  0  0  0  0  0  0  0  0  0  0  0
  -20.6390  -28.5450   23.4050 C   0  0  0  0  0  3  0  0  0  0  0  0
  -20.7350  -27.0810   22.9000 C   0  0  0  0  0  2  0  0  0  0  0  0
  -19.7630  -26.8040   21.7250 C   0  0  0  0  0  2  0  0  0  0  0  0
  -18.3260  -26.8800   22.2870 C   0  0  0  0  0  2  0  0  0  0  0  0
  -19.1960  -29.0310   23.4470 C   0  0  0  0  0  0  0  0  0  0  0  0
  -18.9130  -30.2810   24.0440 C   0  0  0  0  0  3  0  0  0  0  0  0
  -17.5940  -30.7480   24.1240 C   0  0  0  0  0  3  0  0  0  0  0  0
  -16.5200  -29.9470   23.6980 C   0  0  0  0  0  3  0  0  0  0  0  0
  -16.7800  -28.7100   23.1000 C   0  0  0  0  0  3  0  0  0  0  0  0
  -25.8740  -32.7300   24.1040 C   0  0  0  0  0  3  0  0  0  0  0  0
  -26.3420  -32.0150   25.4370 C   0  0  1  0  0  0  0  0  0  0  0  0
  -25.1780  -31.8000   26.4400 C   0  0  0  0  0  1  0  0  0  0  0  0
  -26.9330  -30.6160   25.1350 C   0  0  0  0  0  1  0  0  0  0  0  0
  -27.4800  -32.8190   26.1240 C   0  0  0  0  0  1  0  0  0  0  0  0
  -25.5400  -34.1440   24.3440 N   0  0  0  0  0  0  0  0  0  0  0  0
  -25.9540  -35.1580   23.5660 C   0  0  0  0  0  0  0  0  0  0  0  0
  -26.6610  -35.0040   22.5710 O   0  0  0  0  0  0  0  0  0  0  0  0
  -24.8490  -34.3320   25.0610 H   0  0  0  0  0  0  0  0  0  0  0  0
  -24.2180  -36.9350   23.0540 C   0  0  0  0  0  1  0  0  0  0  0  0
  -25.4440  -36.5800   23.9240 C   0  0  0  0  0  3  0  0  0  0  0  0
  -27.5550  -37.4890   24.7590 C   0  0  0  0  0  1  0  0  0  0  0  0
  -26.4840  -37.6150   23.7820 N   0  0  0  0  0  0  0  0  0  0  0  0
  -26.0940  -38.5480   23.8610 H   0  0  0  0  0  0  0  0  0  0  0  0
  2  3  1  0
  2  5  1  0
  3 54  1  0
  3  1  1  0
  4  1  1  0
  4 10  1  0
  5  9  1  0
  5  4  1  0
  9  6  1  6
  7  9  1  0
  9  8  1  0
 10 11  1  0
 11 12  1  0
 11 14  1  0
 13 11  1  0
 14 15  2  0
 15 24  1  0
 16 22  1  0
 17 22  1  0
 18 19  1  0
 18 17  1  0
 20 19  1  0
 20 29  1  0
 20 21  1  0
 22 21  1  0
 23 16  2  0
 24 16  1  0
 24 25  1  0
 26 27  2  0
 27 46  1  0
 28 27  1  0
 28 31  1  0
 29 26  1  0
 29 30  1  0
 30 28  2  0
 31 32  1  0
 32 33  2  0
 34 37  1  0
 34 33  1  0
 35 34  2  0
 36 35  1  0
 36 31  2  0
 37 38  1  0
 38 39  1  0
 39 40  2  0
 41 40  1  0
 41 45  1  0
 42 41  2  0
 43 38  2  0
 43 42  1  0
 44 43  1  0
 46 47  1  0
 47 50  1  0
 47 49  1  0
 48 46  2  0
 51 52  1  0
 51 26  1  0
 53 51  1  0
 54 55  1  0
 55 56  1  0
 56 57  1  0
 57 58  1  0
 59 70  2  0
 60 58  1  0
 60 65  1  0
 61 69  1  0
 61 71  1  0
 62 64  1  0
 63 69  1  0
 64 65  2  0
 64 63  1  0
 66 67  1  0
 66 60  2  0
 67 62  2  0
 68 62  1  0
 68 61  1  0
 69 59  1  0
 71 73  2  0
 72 71  1  0
 74 72  1  0
 75 84  2  0
 75 80  1  0
 76 72  1  0
 76 80  1  0
 77 76  1  0
 78 79  1  0
 78 77  1  0
 79 75  1  0
 80 81  2  0
 81 82  1  0
 83 82  2  0
 84 83  1  0
 85 59  1  0
 85 90  1  0
 85 86  1  0
 86 89  1  1
 86 87  1  0
 88 86  1  0
 90 93  1  0
 91 95  1  0
 91 90  1  0
 92 91  2  0
 95 94  1  0
 97 98  1  0
 97 95  1  0
 97 96  1  0
M  ISO  4  16 100  24 100  57 101  58 101
M  END
>  <TORSDO>  (45) 
F 25

>  <SCORE>  (45) 
-10.722

>  <name>  (45) 
44

>  <ligand_id>  (45) 
44

>  <original_smiles>  (45) 
[H]c1c([H])c([H])c2c(c1[H])C([H])([H])C([H])([H])C([H])([H])C2([H])N([H])C(=O)C1([H])N(C(=O)C([H])(N([H])C(=O)C([H])(N([H])C([H])([H])[H])C([H])([H])[H])C(C([H])([H])[H])(C([H])([H])[H])C([H])([H])[H])C([H])([H])c2c([H])c(OC([H])([H])C([H])([H])C([H])([H])Oc3c([H])c(C([H])([H])[N+]([H])([H])C([H])([H])C([H])([H])N([H])C(=O)N4C([H])([H])C([H])([H])C([H])([H])C([H])(n5nc(-c6c([H])c([H])c(Oc7c([H])c([H])c(F)c([H])c7F)c([H])c6[H])c(C(=O)N([H])[H])c5N([H])[H])C4([H])[H])n(C(C([H])([H])[H])(C([H])([H])[H])C([H])([H])[H])c3[H])c([H])c([H])c2C1([H])[H]

>  <smiles>  (45) 
[H]c1c([H])c([H])c2c(c1[H])C([H])([H])C([H])([H])C([H])([H])C2([H])N([H])C(=O)C1([H])N(C(=O)C([H])(N([H])C(=O)C([H])(N([H])C([H])([H])[H])C([H])([H])[H])C(C([H])([H])[H])(C([H])([H])[H])C([H])([H])[H])C([H])([H])c2c([H])c(OC([H])([H])C([H])([H])C([H])([H])Oc3c([H])c(C([H])([H])[N+]([H])([H])C([H])([H])C([H])([H])N([H])C(=O)N4C([H])([H])C([H])([H])C([H])([H])C([H])(n5nc(-c6c([H])c([H])c(Oc7c([H])c([H])c(F)c([H])c7F)c([H])c6[H])c(C(=O)N([H])[H])c5N([H])[H])C4([H])[H])n(C(C([H])([H])[H])(C([H])([H])[H])C([H])([H])[H])c3[H])c([H])c([H])c2C1([H])[H]

$$$$
45:0:0
     RDKit          3D

 94102  0  0  1  0  0  0  0  0999 V2000
  -28.9820  -23.1940   20.0390 C   0  0  0  0  0  3  0  0  0  0  0  0
  -28.6270  -21.5770   20.5280 C   0  0  0  0  0  2  0  0  0  0  0  0
  -31.0550  -18.5220   20.1790 C   0  0  0  0  0  3  0  0  0  0  0  0
  -29.8470  -17.7620   20.2450 C   0  0  0  0  0  0  0  0  0  0  0  0
  -30.7900  -19.8890   20.2900 C   0  0  0  0  0  0  0  0  0  0  0  0
  -28.8680  -18.7950   20.3280 C   0  0  0  0  0  0  0  0  0  0  0  0
  -31.8050  -20.9720   20.4410 C   0  0  0  0  0  1  0  0  0  0  0  0
  -27.3950  -18.6150   20.4680 C   0  0  0  0  0  1  0  0  0  0  0  0
  -29.4050  -20.1640   20.3210 N   0  0  0  0  0  0  0  0  0  0  0  0
  -30.5060  -15.0600   20.0040 C   0  0  0  0  0  0  0  0  0  0  0  0
  -30.3770  -12.7270   18.9760 C   0  0  0  0  0  2  0  0  0  0  0  0
  -29.3830  -12.7190   17.7920 C   0  0  0  0  0  2  0  0  0  0  0  0
  -27.9470  -12.4590   18.2910 C   0  0  0  0  0  2  0  0  0  0  0  0
  -27.5900  -13.3340   19.5200 C   0  0  0  0  0  3  0  0  0  0  0  0
  -28.7030  -13.3180   20.5880 C   0  0  0  0  0  2  0  0  0  0  0  0
  -29.9350  -13.7830   19.9340 N   0  0  0  0  0  0  0  0  0  0  0  0
  -31.6930  -15.1480   19.6600 O   0  0  0  0  0  0  0  0  0  0  0  0
  -29.6970  -16.2140   20.2650 N   0  0  0  0  0  0  0  0  0  0  0  0
  -28.7600  -15.9160   20.4900 H   0  0  0  0  0  0  0  0  0  0  0  0
  -25.2440  -13.8670   20.3890 C   0  0  0  0  0  0  0  0  0  0  0  0
  -24.2080  -13.0740   20.7990 C   0  0  0  0  0  0  0  0  0  0  0  0
  -24.6870  -11.7290   20.7190 C   0  0  0  0  0  0  0  0  0  0  0  0
  -26.2830  -13.0080   20.0770 N   0  0  0  0  0  0  0  0  0  0  0  0
  -25.9590  -11.7150   20.3380 N   0  0  0  0  0  0  0  0  0  0  0  0
  -23.9850  -10.4550   20.9170 C   0  0  0  0  0  0  0  0  0  0  0  0
  -24.4370   -9.4970   21.8520 C   0  0  0  0  0  3  0  0  0  0  0  0
  -23.7280   -8.2890   22.0380 C   0  0  0  0  0  3  0  0  0  0  0  0
  -22.5560   -8.0320   21.2850 C   0  0  0  0  0  0  0  0  0  0  0  0
  -22.1260   -8.9790   20.3370 C   0  0  0  0  0  3  0  0  0  0  0  0
  -22.8360  -10.1780   20.1500 C   0  0  0  0  0  3  0  0  0  0  0  0
  -21.8200   -6.8740   21.3820 O   0  0  0  0  0  0  0  0  0  0  0  0
  -21.7480   -6.1640   22.5550 C   0  0  0  0  0  0  0  0  0  0  0  0
  -21.2610   -6.7420   23.7480 C   0  0  0  0  0  3  0  0  0  0  0  0
  -21.1380   -5.9560   24.9110 C   0  0  0  0  0  3  0  0  0  0  0  0
  -21.4890   -4.5930   24.8820 C   0  0  0  0  0  0  0  0  0  0  0  0
  -21.9710   -4.0150   23.6940 C   0  0  0  0  0  3  0  0  0  0  0  0
  -22.0990   -4.7980   22.5340 C   0  0  0  0  0  0  0  0  0  0  0  0
  -22.5450   -4.2310   21.3860 F   0  0  0  0  0  0  0  0  0  0  0  0
  -21.3640   -3.8380   25.9970 F   0  0  0  0  0  0  0  0  0  0  0  0
  -22.8200  -13.5340   21.1430 C   0  0  0  0  0  0  0  0  0  0  0  0
  -22.1360  -12.8210   22.0280 N   0  0  0  0  0  0  0  0  0  0  0  0
  -22.3540  -14.5660   20.6630 O   0  0  0  0  0  0  0  0  0  0  0  0
  -22.5300  -11.9930   22.4510 H   0  0  0  0  0  0  0  0  0  0  0  0
  -21.2040  -13.1130   22.2910 H   0  0  0  0  0  0  0  0  0  0  0  0
  -25.3780  -15.2430   20.2250 N   0  0  0  0  0  0  0  0  0  0  0  0
  -24.5760  -15.8550   20.3240 H   0  0  0  0  0  0  0  0  0  0  0  0
  -26.1530  -15.6800   19.7460 H   0  0  0  0  0  0  0  0  0  0  0  0
  -29.3870  -23.2530   18.5490 C   0  0  0  0  0  2  0  0  0  0  0  0
  -28.4450  -22.5650   17.6430 N   0  0  0  0  0  4  0  0  0  0  0  0
  -28.3720  -21.5890   17.8680 H   0  0  0  0  0  0  0  0  0  0  0  0
  -28.7780  -22.6300   16.6960 H   0  0  0  0  0  0  0  0  0  0  0  0
  -27.5310  -22.9810   17.6700 H   0  0  0  0  0  0  0  0  0  0  0  0
  -27.9680  -24.5590   20.3130 C   0  0  0  0  0  2  0  0  0  0  0  0
  -28.2560  -26.1140   20.1960 O   0  0  0  0  0  0  0  0  0  0  0  0
  -24.6210  -31.8600   23.1890 C   0  0  0  0  0  0  0  0  0  0  0  0
  -27.2070  -27.1230   20.1580 C   0  0  0  0  0  0  0  0  0  0  0  0
  -23.4310  -30.4680   21.5410 C   0  0  0  0  0  3  0  0  0  0  0  0
  -24.8880  -28.9000   20.1140 C   0  0  0  0  0  0  0  0  0  0  0  0
  -25.9890  -30.7290   21.3920 C   0  0  0  0  0  2  0  0  0  0  0  0
  -26.0660  -29.3350   20.7340 C   0  0  0  0  0  0  0  0  0  0  0  0
  -27.2260  -28.4640   20.7360 C   0  0  0  0  0  3  0  0  0  0  0  0
  -26.0040  -26.8110   19.4840 C   0  0  0  0  0  3  0  0  0  0  0  0
  -24.8760  -27.6560   19.4690 C   0  0  0  0  0  3  0  0  0  0  0  0
  -23.6600  -29.7990   20.1600 C   0  0  0  0  0  2  0  0  0  0  0  0
  -24.7000  -31.0410   22.0960 N   0  0  0  0  0  0  0  0  0  0  0  0
  -23.5320  -32.1430   23.7140 O   0  0  0  0  0  0  0  0  0  0  0  0
  -22.7480  -29.4560   22.4970 C   0  0  0  0  0  0  0  0  0  0  0  0
  -21.4180  -29.2890   22.3720 N   0  0  0  0  0  0  0  0  0  0  0  0
  -23.4180  -28.8260   23.3180 O   0  0  0  0  0  0  0  0  0  0  0  0
  -20.9310  -29.8540   21.6900 H   0  0  0  0  0  0  0  0  0  0  0  0
  -18.0360  -28.0890   22.8750 C   0  0  0  0  0  0  0  0  0  0  0  0
  -20.5970  -28.3460   23.1390 C   0  0  0  0  0  3  0  0  0  0  0  0
  -20.6930  -26.9160   22.5570 C   0  0  0  0  0  2  0  0  0  0  0  0
  -19.5900  -26.6030   21.5400 C   0  0  0  0  0  2  0  0  0  0  0  0
  -18.2100  -26.7440   22.1890 C   0  0  0  0  0  2  0  0  0  0  0  0
  -19.1560  -28.8480   23.3080 C   0  0  0  0  0  0  0  0  0  0  0  0
  -18.9400  -30.1050   23.9120 C   0  0  0  0  0  3  0  0  0  0  0  0
  -17.6360  -30.6060   24.0850 C   0  0  0  0  0  3  0  0  0  0  0  0
  -16.5300  -29.8450   23.6670 C   0  0  0  0  0  3  0  0  0  0  0  0
  -16.7310  -28.5880   23.0690 C   0  0  0  0  0  3  0  0  0  0  0  0
  -25.8960  -32.4960   23.8210 C   0  0  0  0  0  3  0  0  0  0  0  0
  -25.5790  -33.8930   24.1610 N   0  0  0  0  0  0  0  0  0  0  0  0
  -25.9010  -34.9550   23.4090 C   0  0  0  0  0  0  0  0  0  0  0  0
  -26.5610  -34.8590   22.3720 O   0  0  0  0  0  0  0  0  0  0  0  0
  -24.9880  -34.0370   24.9660 H   0  0  0  0  0  0  0  0  0  0  0  0
  -24.1630  -36.7460   23.0840 C   0  0  0  0  0  1  0  0  0  0  0  0
  -25.4140  -36.3400   23.8790 C   0  0  0  0  0  3  0  0  0  0  0  0
  -27.5520  -37.2320   24.6930 C   0  0  0  0  0  1  0  0  0  0  0  0
  -26.4430  -37.3960   23.7590 N   0  0  0  0  0  0  0  0  0  0  0  0
  -26.0350  -38.3150   23.9080 H   0  0  0  0  0  0  0  0  0  0  0  0
  -26.4020  -31.7220   25.1010 C   0  0  1  0  0  0  0  0  0  0  0  0
  -25.3010  -31.4850   26.1610 C   0  0  0  0  0  1  0  0  0  0  0  0
  -26.9910  -30.3430   24.7230 C   0  0  0  0  0  1  0  0  0  0  0  0
  -27.5490  -32.5140   25.7720 C   0  0  0  0  0  1  0  0  0  0  0  0
  1 48  1  0
  1 53  1  0
  1  2  1  0
  3  4  1  0
  3  5  2  0
  4 18  1  0
  4  6  2  0
  5  9  1  0
  5  7  1  0
  6  8  1  0
  9  6  1  0
  9  2  1  0
 10 18  1  0
 11 16  1  0
 12 13  1  0
 12 11  1  0
 14 13  1  0
 14 23  1  0
 14 15  1  0
 16 10  1  0
 16 15  1  0
 17 10  2  0
 18 19  1  0
 20 21  2  0
 21 40  1  0
 22 21  1  0
 22 25  1  0
 23 24  1  0
 23 20  1  0
 24 22  2  0
 25 26  1  0
 26 27  2  0
 28 31  1  0
 28 27  1  0
 29 28  2  0
 30 29  1  0
 30 25  2  0
 31 32  1  0
 32 33  1  0
 33 34  2  0
 35 34  1  0
 35 39  1  0
 36 35  2  0
 37 32  2  0
 37 36  1  0
 38 37  1  0
 40 41  1  0
 41 44  1  0
 41 43  1  0
 42 40  2  0
 45 46  1  0
 45 20  1  0
 47 45  1  0
 49 52  1  0
 49 50  1  0
 49 48  1  0
 51 49  1  0
 54 53  1  0
 55 66  2  0
 56 54  1  0
 56 61  1  0
 57 65  1  0
 57 67  1  0
 58 64  1  0
 58 60  1  0
 59 65  1  0
 60 61  2  0
 60 59  1  0
 62 56  2  0
 63 62  1  0
 63 58  2  0
 64 57  1  0
 65 55  1  0
 67 69  2  0
 68 67  1  0
 70 68  1  0
 71 80  2  0
 71 76  1  0
 72 68  1  0
 72 76  1  0
 73 72  1  0
 74 75  1  0
 74 73  1  0
 75 71  1  0
 76 77  2  0
 77 78  1  0
 79 78  2  0
 80 79  1  0
 81 55  1  0
 81 82  1  0
 81 91  1  0
 82 85  1  0
 83 87  1  0
 83 82  1  0
 84 83  2  0
 87 86  1  0
 89 87  1  0
 89 90  1  0
 89 88  1  0
 91 94  1  1
 91 92  1  0
 93 91  1  0
M  ISO  4  10 100  18 100  53 101  54 101
M  END
>  <TORSDO>  (46) 
F 21

>  <SCORE>  (46) 
-14.873

>  <name>  (46) 
45

>  <ligand_id>  (46) 
45

>  <original_smiles>  (46) 
[H]c1c([H])c([H])c2c(c1[H])C([H])([H])C([H])([H])C([H])([H])C2([H])N([H])C(=O)C1([H])N(C(=O)C([H])(N([H])C(=O)C([H])(N([H])C([H])([H])[H])C([H])([H])[H])C(C([H])([H])[H])(C([H])([H])[H])C([H])([H])[H])C([H])([H])c2c([H])c(OC([H])([H])C([H])(C([H])([H])n3c(C([H])([H])[H])c([H])c(N([H])C(=O)N4C([H])([H])C([H])([H])C([H])([H])C([H])(n5nc(-c6c([H])c([H])c(Oc7c([H])c([H])c(F)c([H])c7F)c([H])c6[H])c(C(=O)N([H])[H])c5N([H])[H])C4([H])[H])c3C([H])([H])[H])C([H])([H])[N+]([H])([H])[H])c([H])c([H])c2C1([H])[H]

>  <smiles>  (46) 
[H]c1c([H])c([H])c2c(c1[H])C([H])([H])C([H])([H])C([H])([H])C2([H])N([H])C(=O)C1([H])N(C(=O)C([H])(N([H])C(=O)C([H])(N([H])C([H])([H])[H])C([H])([H])[H])C(C([H])([H])[H])(C([H])([H])[H])C([H])([H])[H])C([H])([H])c2c([H])c(OC([H])([H])C([H])(C([H])([H])n3c(C([H])([H])[H])c([H])c(N([H])C(=O)N4C([H])([H])C([H])([H])C([H])([H])C([H])(n5nc(-c6c([H])c([H])c(Oc7c([H])c([H])c(F)c([H])c7F)c([H])c6[H])c(C(=O)N([H])[H])c5N([H])[H])C4([H])[H])c3C([H])([H])[H])C([H])([H])[N+]([H])([H])[H])c([H])c([H])c2C1([H])[H]

$$$$
46:0:0
     RDKit          3D

 91 99  0  0  1  0  0  0  0  0999 V2000
  -28.6860  -19.1300   19.7950 C   0  0  0  0  0  2  0  0  0  0  0  0
  -30.3110  -19.2470   21.4430 C   0  0  0  0  0  2  0  0  0  0  0  0
  -28.7420  -20.7480   19.5020 C   0  0  0  0  0  2  0  0  0  0  0  0
  -30.3200  -20.9090   21.2560 C   0  0  0  0  0  2  0  0  0  0  0  0
  -30.0360  -18.3110   20.1680 C   0  0  0  0  0  3  0  0  0  0  0  0
  -29.1300  -21.6910   20.6390 N   0  0  1  0  0  4  0  0  0  0  0  0
  -28.3890  -21.6290   21.3250 H   0  0  0  0  0  0  0  0  0  0  0  0
  -30.7470  -15.4630   20.6380 C   0  0  0  0  0  0  0  0  0  0  0  0
  -30.7740  -13.0140   19.8480 C   0  0  0  0  0  2  0  0  0  0  0  0
  -29.9380  -12.7460   18.5720 C   0  0  0  0  0  2  0  0  0  0  0  0
  -28.4480  -12.5460   18.9090 C   0  0  0  0  0  2  0  0  0  0  0  0
  -27.9280  -13.5290   19.9900 C   0  0  0  0  0  3  0  0  0  0  0  0
  -28.9030  -13.7050   21.1660 C   0  0  0  0  0  2  0  0  0  0  0  0
  -30.1650  -14.1750   20.5710 N   0  0  0  0  0  0  0  0  0  0  0  0
  -31.9790  -15.4470   20.7720 O   0  0  0  0  0  0  0  0  0  0  0  0
  -30.1090  -16.6450   20.0190 N   0  0  0  0  0  0  0  0  0  0  0  0
  -25.5070  -14.1030   20.5540 C   0  0  0  0  0  0  0  0  0  0  0  0
  -24.4190  -13.3260   20.8400 C   0  0  0  0  0  0  0  0  0  0  0  0
  -24.8890  -11.9770   20.8610 C   0  0  0  0  0  0  0  0  0  0  0  0
  -26.5670  -13.2260   20.4060 N   0  0  0  0  0  0  0  0  0  0  0  0
  -26.2010  -11.9440   20.6600 N   0  0  0  0  0  0  0  0  0  0  0  0
  -24.1550  -10.7140   21.0010 C   0  0  0  0  0  0  0  0  0  0  0  0
  -24.5560   -9.7270   21.9290 C   0  0  0  0  0  3  0  0  0  0  0  0
  -23.8210   -8.5290   22.0600 C   0  0  0  0  0  3  0  0  0  0  0  0
  -22.6720   -8.3090   21.2640 C   0  0  0  0  0  0  0  0  0  0  0  0
  -22.2910   -9.2840   20.3260 C   0  0  0  0  0  3  0  0  0  0  0  0
  -23.0260  -10.4740   20.1920 C   0  0  0  0  0  3  0  0  0  0  0  0
  -21.9120   -7.1660   21.3080 O   0  0  0  0  0  0  0  0  0  0  0  0
  -21.8490   -6.3840   22.4330 C   0  0  0  0  0  0  0  0  0  0  0  0
  -21.4090   -6.8970   23.6730 C   0  0  0  0  0  3  0  0  0  0  0  0
  -21.2970   -6.0420   24.7880 C   0  0  0  0  0  3  0  0  0  0  0  0
  -21.6130   -4.6750   24.6630 C   0  0  0  0  0  0  0  0  0  0  0  0
  -22.0480   -4.1630   23.4280 C   0  0  0  0  0  3  0  0  0  0  0  0
  -22.1620   -5.0160   22.3150 C   0  0  0  0  0  0  0  0  0  0  0  0
  -22.5620   -4.5120   21.1220 F   0  0  0  0  0  0  0  0  0  0  0  0
  -21.4960   -3.8520   25.7300 F   0  0  0  0  0  0  0  0  0  0  0  0
  -23.0020  -13.7990   20.9850 C   0  0  0  0  0  0  0  0  0  0  0  0
  -22.2160  -13.1250   21.8160 N   0  0  0  0  0  0  0  0  0  0  0  0
  -22.6020  -14.8030   20.3970 O   0  0  0  0  0  0  0  0  0  0  0  0
  -22.5540  -12.3150   22.3150 H   0  0  0  0  0  0  0  0  0  0  0  0
  -21.2610  -13.4230   21.9550 H   0  0  0  0  0  0  0  0  0  0  0  0
  -25.6830  -15.4720   20.3810 N   0  0  0  0  0  0  0  0  0  0  0  0
  -24.9140  -16.1320   20.4320 H   0  0  0  0  0  0  0  0  0  0  0  0
  -26.5660  -15.9050   20.1460 H   0  0  0  0  0  0  0  0  0  0  0  0
  -30.5380  -16.4980   18.5750 C   0  0  0  0  0  2  0  0  0  0  0  0
  -29.9810  -17.4520   17.4940 C   0  0  0  0  0  2  0  0  0  0  0  0
  -28.0670  -18.9040   16.6280 C   0  0  0  0  0  1  0  0  0  0  0  0
  -28.4940  -17.8060   17.6070 C   0  0  0  0  0  2  0  0  0  0  0  0
  -29.3300  -23.3030   20.3530 C   0  0  0  0  0  3  0  0  0  0  0  0
  -28.1930  -24.6340   20.3720 C   0  0  0  0  0  3  0  0  0  0  0  0
  -28.4190  -26.2330   20.2720 O   0  0  0  0  0  0  0  0  0  0  0  0
  -24.6770  -31.9720   23.2920 C   0  0  0  0  0  0  0  0  0  0  0  0
  -27.3640  -27.2580   20.2280 C   0  0  0  0  0  0  0  0  0  0  0  0
  -23.5280  -30.5880   21.6090 C   0  0  0  0  0  3  0  0  0  0  0  0
  -25.0240  -29.0440   20.1830 C   0  0  0  0  0  0  0  0  0  0  0  0
  -26.0880  -30.8650   21.5000 C   0  0  0  0  0  2  0  0  0  0  0  0
  -26.1920  -29.4750   20.8230 C   0  0  0  0  0  0  0  0  0  0  0  0
  -27.3610  -28.6030   20.8210 C   0  0  0  0  0  3  0  0  0  0  0  0
  -26.1640  -26.9590   19.5460 C   0  0  0  0  0  3  0  0  0  0  0  0
  -25.0310  -27.8050   19.5270 C   0  0  0  0  0  3  0  0  0  0  0  0
  -23.7850  -29.9340   20.2260 C   0  0  0  0  0  2  0  0  0  0  0  0
  -24.7840  -31.1660   22.1880 N   0  0  0  0  0  0  0  0  0  0  0  0
  -23.5760  -32.2350   23.8030 O   0  0  0  0  0  0  0  0  0  0  0  0
  -22.8420  -29.5610   22.5450 C   0  0  0  0  0  0  0  0  0  0  0  0
  -21.5300  -29.3320   22.3560 N   0  0  0  0  0  0  0  0  0  0  0  0
  -23.4970  -28.9700   23.4070 O   0  0  0  0  0  0  0  0  0  0  0  0
  -21.0540  -29.8620   21.6390 H   0  0  0  0  0  0  0  0  0  0  0  0
  -18.1920  -27.9570   22.6860 C   0  0  0  0  0  0  0  0  0  0  0  0
  -20.7130  -28.3610   23.0930 C   0  0  0  0  0  3  0  0  0  0  0  0
  -20.9240  -26.9300   22.5430 C   0  0  0  0  0  2  0  0  0  0  0  0
  -19.9000  -26.5380   21.4740 C   0  0  0  0  0  2  0  0  0  0  0  0
  -18.4780  -26.6140   22.0370 C   0  0  0  0  0  2  0  0  0  0  0  0
  -19.2410  -28.7840   23.1670 C   0  0  0  0  0  0  0  0  0  0  0  0
  -18.9200  -30.0360   23.7330 C   0  0  0  0  0  3  0  0  0  0  0  0
  -17.5810  -30.4640   23.8220 C   0  0  0  0  0  3  0  0  0  0  0  0
  -16.5450  -29.6340   23.3570 C   0  0  0  0  0  3  0  0  0  0  0  0
  -16.8510  -28.3830   22.7950 C   0  0  0  0  0  3  0  0  0  0  0  0
  -25.9310  -32.6200   23.9540 C   0  0  0  0  0  3  0  0  0  0  0  0
  -25.6010  -34.0200   24.2730 N   0  0  0  0  0  0  0  0  0  0  0  0
  -25.9390  -35.0780   23.5240 C   0  0  0  0  0  0  0  0  0  0  0  0
  -26.6260  -34.9790   22.5040 O   0  0  0  0  0  0  0  0  0  0  0  0
  -24.9900  -34.1700   25.0620 H   0  0  0  0  0  0  0  0  0  0  0  0
  -24.1920  -36.8550   23.1650 C   0  0  0  0  0  1  0  0  0  0  0  0
  -25.4380  -36.4640   23.9760 C   0  0  0  0  0  3  0  0  0  0  0  0
  -27.5600  -37.3820   24.8060 C   0  0  0  0  0  1  0  0  0  0  0  0
  -26.4580  -37.5280   23.8580 N   0  0  0  0  0  0  0  0  0  0  0  0
  -26.0410  -38.4450   23.9950 H   0  0  0  0  0  0  0  0  0  0  0  0
  -26.4060  -31.8620   25.2550 C   0  0  1  0  0  0  0  0  0  0  0  0
  -25.2680  -31.5840   26.2650 C   0  0  0  0  0  1  0  0  0  0  0  0
  -27.0540  -30.5040   24.8980 C   0  0  0  0  0  1  0  0  0  0  0  0
  -27.4920  -32.6920   25.9770 C   0  0  0  0  0  1  0  0  0  0  0  0
  1  5  1  0
  3  1  1  0
  3  6  1  0
  4  2  1  0
  5 16  1  0
  5  2  1  0
  6  4  1  0
  6  7  1  1
  8 15  2  0
  9 14  1  0
 10 11  1  0
 10  9  1  0
 12 11  1  0
 12 20  1  0
 12 13  1  0
 14  8  1  0
 14 13  1  0
 16  8  1  0
 17 18  2  0
 18 19  1  0
 18 37  1  0
 19 22  1  0
 20 17  1  0
 20 21  1  0
 21 19  2  0
 22 23  1  0
 23 24  2  0
 25 28  1  0
 25 24  1  0
 26 25  2  0
 27 26  1  0
 27 22  2  0
 28 29  1  0
 29 30  1  0
 30 31  2  0
 32 31  1  0
 32 36  1  0
 33 32  2  0
 34 29  2  0
 34 33  1  0
 35 34  1  0
 37 38  1  0
 38 41  1  0
 38 40  1  0
 39 37  2  0
 42 43  1  0
 42 17  1  0
 44 42  1  0
 45 16  1  0
 46 48  1  0
 46 45  1  0
 47 48  1  0
 49 50  2  0
 49  6  1  0
 51 50  1  0
 52 63  2  0
 53 51  1  0
 53 58  1  0
 54 62  1  0
 54 64  1  0
 55 61  1  0
 55 57  1  0
 56 62  1  0
 57 56  1  0
 58 57  2  0
 59 53  2  0
 60 59  1  0
 60 55  2  0
 61 54  1  0
 62 52  1  0
 64 66  2  0
 65 64  1  0
 67 65  1  0
 68 77  2  0
 68 73  1  0
 69 65  1  0
 69 73  1  0
 70 69  1  0
 71 72  1  0
 71 70  1  0
 72 68  1  0
 73 74  2  0
 74 75  1  0
 76 75  2  0
 77 76  1  0
 78 52  1  0
 78 79  1  0
 78 88  1  0
 79 82  1  0
 80 84  1  0
 80 79  1  0
 81 80  2  0
 84 83  1  0
 86 84  1  0
 86 87  1  0
 86 85  1  0
 88 91  1  1
 88 89  1  0
 90 88  1  0
M  ISO  4   8 100  16 100  50 101  51 101
M  END
>  <TORSDO>  (47) 
F 21

>  <SCORE>  (47) 
-13.711

>  <name>  (47) 
46

>  <ligand_id>  (47) 
46

>  <original_smiles>  (47) 
[H]c1c([H])c([H])c2c(c1[H])C([H])([H])C([H])([H])C([H])([H])C2([H])N([H])C(=O)C1([H])N(C(=O)C([H])(N([H])C(=O)C([H])(N([H])C([H])([H])[H])C([H])([H])[H])C(C([H])([H])[H])(C([H])([H])[H])C([H])([H])[H])C([H])([H])c2c([H])c(OC([H])([H])C([H])([H])[N+]3([H])C([H])([H])C([H])([H])C([H])(N(C(=O)N4C([H])([H])C([H])([H])C([H])([H])C([H])(n5nc(-c6c([H])c([H])c(Oc7c([H])c([H])c(F)c([H])c7F)c([H])c6[H])c(C(=O)N([H])[H])c5N([H])[H])C4([H])[H])C([H])([H])C([H])([H])C([H])([H])C([H])([H])[H])C([H])([H])C3([H])[H])c([H])c([H])c2C1([H])[H]

>  <smiles>  (47) 
[H]c1c([H])c([H])c2c(c1[H])C([H])([H])C([H])([H])C([H])([H])C2([H])N([H])C(=O)C1([H])N(C(=O)C([H])(N([H])C(=O)C([H])(N([H])C([H])([H])[H])C([H])([H])[H])C(C([H])([H])[H])(C([H])([H])[H])C([H])([H])[H])C([H])([H])c2c([H])c(OC([H])([H])C([H])([H])[N+]3([H])C([H])([H])C([H])([H])C([H])(N(C(=O)N4C([H])([H])C([H])([H])C([H])([H])C([H])(n5nc(-c6c([H])c([H])c(Oc7c([H])c([H])c(F)c([H])c7F)c([H])c6[H])c(C(=O)N([H])[H])c5N([H])[H])C4([H])[H])C([H])([H])C([H])([H])C([H])([H])C([H])([H])[H])C([H])([H])C3([H])[H])c([H])c([H])c2C1([H])[H]

$$$$
47:0:0
     RDKit          3D

 92 99  0  0  1  0  0  0  0  0999 V2000
  -28.8550  -21.5380   20.3620 C   0  0  0  0  0  2  0  0  0  0  0  0
  -27.6350  -22.5370   18.3120 C   0  0  0  0  0  1  0  0  0  0  0  0
  -27.8000  -22.6020   19.8420 C   0  0  0  0  0  3  0  0  0  0  0  0
  -28.4150  -24.2010   21.8190 C   0  0  0  0  0  1  0  0  0  0  0  0
  -27.8470  -24.0960   20.3930 C   0  0  0  0  0  3  0  0  0  0  0  0
  -28.4590  -25.2180   19.4760 C   0  0  0  0  0  2  0  0  0  0  0  0
  -28.4380  -26.5690   20.0210 O   0  0  0  0  0  0  0  0  0  0  0  0
  -24.6850  -31.7030   23.2830 C   0  0  0  0  0  0  0  0  0  0  0  0
  -27.2780  -27.3330   20.0070 C   0  0  0  0  0  0  0  0  0  0  0  0
  -23.4750  -30.4050   21.5620 C   0  0  0  0  0  3  0  0  0  0  0  0
  -24.9160  -28.9140   20.0720 C   0  0  0  0  0  0  0  0  0  0  0  0
  -26.0120  -30.7180   21.4100 C   0  0  0  0  0  2  0  0  0  0  0  0
  -26.0790  -29.3760   20.6990 C   0  0  0  0  0  0  0  0  0  0  0  0
  -27.2600  -28.5930   20.6650 C   0  0  0  0  0  3  0  0  0  0  0  0
  -26.0930  -26.9030   19.3680 C   0  0  0  0  0  3  0  0  0  0  0  0
  -24.9210  -27.6800   19.4030 C   0  0  0  0  0  3  0  0  0  0  0  0
  -23.6870  -29.7920   20.1520 C   0  0  0  0  0  2  0  0  0  0  0  0
  -24.7420  -30.9540   22.1440 N   0  0  0  0  0  0  0  0  0  0  0  0
  -23.6010  -31.9660   23.8240 O   0  0  0  0  0  0  0  0  0  0  0  0
  -22.7970  -29.3470   22.4640 C   0  0  0  0  0  0  0  0  0  0  0  0
  -21.4720  -29.1870   22.3060 N   0  0  0  0  0  0  0  0  0  0  0  0
  -23.4590  -28.6780   23.2620 O   0  0  0  0  0  0  0  0  0  0  0  0
  -21.0000  -29.7770   21.6350 H   0  0  0  0  0  0  0  0  0  0  0  0
  -18.0830  -28.0000   22.6870 C   0  0  0  0  0  0  0  0  0  0  0  0
  -20.6360  -28.2220   23.0200 C   0  0  0  0  0  3  0  0  0  0  0  0
  -20.7400  -26.8170   22.3810 C   0  0  0  0  0  2  0  0  0  0  0  0
  -19.6560  -26.5490   21.3330 C   0  0  0  0  0  2  0  0  0  0  0  0
  -18.2610  -26.6820   21.9530 C   0  0  0  0  0  2  0  0  0  0  0  0
  -19.1990  -28.7320   23.1730 C   0  0  0  0  0  0  0  0  0  0  0  0
  -18.9790  -29.9700   23.8150 C   0  0  0  0  0  3  0  0  0  0  0  0
  -17.6760  -30.4760   23.9780 C   0  0  0  0  0  3  0  0  0  0  0  0
  -16.5740  -29.7390   23.5110 C   0  0  0  0  0  3  0  0  0  0  0  0
  -16.7790  -28.5040   22.8710 C   0  0  0  0  0  3  0  0  0  0  0  0
  -25.9730  -32.2820   23.9460 C   0  0  0  0  0  3  0  0  0  0  0  0
  -25.6880  -33.6710   24.3280 N   0  0  0  0  0  0  0  0  0  0  0  0
  -26.0660  -34.7470   23.6240 C   0  0  0  0  0  0  0  0  0  0  0  0
  -26.7630  -34.6710   22.6080 O   0  0  0  0  0  0  0  0  0  0  0  0
  -25.0770  -33.8060   25.1200 H   0  0  0  0  0  0  0  0  0  0  0  0
  -24.3990  -36.6000   23.2890 C   0  0  0  0  0  1  0  0  0  0  0  0
  -25.5970  -36.1250   24.1270 C   0  0  0  0  0  3  0  0  0  0  0  0
  -27.7170  -36.9160   25.0810 C   0  0  0  0  0  1  0  0  0  0  0  0
  -26.6600  -37.1540   24.1020 N   0  0  0  0  0  0  0  0  0  0  0  0
  -26.2720  -38.0790   24.2700 H   0  0  0  0  0  0  0  0  0  0  0  0
  -26.4560  -31.4500   25.1970 C   0  0  1  0  0  0  0  0  0  0  0  0
  -25.3450  -31.1870   26.2390 C   0  0  0  0  0  1  0  0  0  0  0  0
  -27.0220  -30.0820   24.7560 C   0  0  0  0  0  1  0  0  0  0  0  0
  -27.6100  -32.1950   25.9090 C   0  0  0  0  0  1  0  0  0  0  0  0
  -28.6290  -20.0310   19.9310 C   0  0  0  0  0  3  0  0  0  0  0  0
  -27.3250  -19.6600   20.3450 O   0  0  0  0  0  0  0  0  0  0  0  0
  -27.1670  -18.7700   20.0480 H   0  0  0  0  0  0  0  0  0  0  0  0
  -30.3730  -19.4090   21.7310 C   0  0  0  0  0  1  0  0  0  0  0  0
  -29.5800  -18.9050   20.5100 C   0  0  0  0  0  3  0  0  0  0  0  0
  -30.4710  -18.1810   19.4510 C   0  0  0  0  0  2  0  0  0  0  0  0
  -31.3950  -16.9990   19.9190 C   0  0  0  0  0  2  0  0  0  0  0  0
  -31.4560  -14.4830   19.6830 C   0  0  0  0  0  0  0  0  0  0  0  0
  -31.0650  -12.1600   18.9390 C   0  0  0  0  0  2  0  0  0  0  0  0
  -30.0820  -12.1760   17.7510 C   0  0  0  0  0  2  0  0  0  0  0  0
  -28.6250  -12.1440   18.2550 C   0  0  0  0  0  2  0  0  0  0  0  0
  -28.3530  -13.1910   19.3700 C   0  0  0  0  0  3  0  0  0  0  0  0
  -29.4510  -13.1540   20.4560 C   0  0  0  0  0  2  0  0  0  0  0  0
  -30.7480  -13.3230   19.7860 N   0  0  0  0  0  0  0  0  0  0  0  0
  -32.5910  -14.5110   19.2010 O   0  0  0  0  0  0  0  0  0  0  0  0
  -30.8050  -15.6350   19.9830 N   0  0  0  0  0  0  0  0  0  0  0  0
  -29.8640  -15.5450   20.3390 H   0  0  0  0  0  0  0  0  0  0  0  0
  -26.0860  -13.9970   20.2720 C   0  0  0  0  0  0  0  0  0  0  0  0
  -24.9760  -13.3190   20.6980 C   0  0  0  0  0  0  0  0  0  0  0  0
  -25.2990  -11.9310   20.5970 C   0  0  0  0  0  0  0  0  0  0  0  0
  -27.0200  -13.0280   19.9420 N   0  0  0  0  0  0  0  0  0  0  0  0
  -26.5540  -11.7770   20.1960 N   0  0  0  0  0  0  0  0  0  0  0  0
  -24.4660  -10.7390   20.8050 C   0  0  0  0  0  0  0  0  0  0  0  0
  -24.7970   -9.7670   21.7760 C   0  0  0  0  0  3  0  0  0  0  0  0
  -23.9700   -8.6400   21.9690 C   0  0  0  0  0  3  0  0  0  0  0  0
  -22.7980   -8.4770   21.1930 C   0  0  0  0  0  0  0  0  0  0  0  0
  -22.4860   -9.4360   20.2130 C   0  0  0  0  0  3  0  0  0  0  0  0
  -23.3120  -10.5550   20.0180 C   0  0  0  0  0  3  0  0  0  0  0  0
  -21.9500   -7.4010   21.2940 O   0  0  0  0  0  0  0  0  0  0  0  0
  -21.7200   -6.7750   22.4930 C   0  0  0  0  0  0  0  0  0  0  0  0
  -21.1920   -7.4670   23.6040 C   0  0  0  0  0  3  0  0  0  0  0  0
  -20.9060   -6.7700   24.7950 C   0  0  0  0  0  3  0  0  0  0  0  0
  -21.1370   -5.3850   24.8740 C   0  0  0  0  0  0  0  0  0  0  0  0
  -21.6580   -4.6930   23.7670 C   0  0  0  0  0  3  0  0  0  0  0  0
  -21.9450   -5.3870   22.5780 C   0  0  0  0  0  0  0  0  0  0  0  0
  -22.4270   -4.7110   21.5060 F   0  0  0  0  0  0  0  0  0  0  0  0
  -20.8560   -4.7130   26.0160 F   0  0  0  0  0  0  0  0  0  0  0  0
  -23.6550  -13.9200   21.0820 C   0  0  0  0  0  0  0  0  0  0  0  0
  -22.9360  -13.2810   21.9970 N   0  0  0  0  0  0  0  0  0  0  0  0
  -23.2760  -14.9890   20.6040 O   0  0  0  0  0  0  0  0  0  0  0  0
  -23.2560  -12.4150   22.4040 H   0  0  0  0  0  0  0  0  0  0  0  0
  -22.0520  -13.6670   22.3000 H   0  0  0  0  0  0  0  0  0  0  0  0
  -26.3730  -15.3500   20.1170 N   0  0  0  0  0  0  0  0  0  0  0  0
  -25.6760  -16.0680   20.2850 H   0  0  0  0  0  0  0  0  0  0  0  0
  -27.2240  -15.7110   19.7080 H   0  0  0  0  0  0  0  0  0  0  0  0
  3  2  1  0
  3  1  1  0
  3  5  1  0
  5  4  1  0
  6  7  1  0
  6  5  1  0
  8 19  2  0
  9  7  1  0
  9 14  1  0
 10 18  1  0
 10 20  1  0
 11 17  1  0
 11 13  1  0
 12 18  1  0
 13 12  1  0
 14 13  2  0
 15 16  1  0
 15  9  2  0
 16 11  2  0
 17 10  1  0
 18  8  1  0
 20 22  2  0
 21 20  1  0
 23 21  1  0
 24 33  2  0
 24 29  1  0
 25 21  1  0
 25 29  1  0
 26 25  1  0
 27 28  1  0
 27 26  1  0
 28 24  1  0
 29 30  2  0
 30 31  1  0
 32 31  2  0
 33 32  1  0
 34  8  1  0
 34 35  1  0
 34 44  1  0
 35 38  1  0
 36 40  1  0
 36 35  1  0
 37 36  2  0
 40 39  1  0
 42 40  1  0
 42 43  1  0
 42 41  1  0
 44 47  1  1
 44 45  1  0
 46 44  1  0
 48 49  1  0
 48  1  1  0
 48 52  1  0
 50 49  1  0
 52 51  1  0
 53 54  1  0
 53 52  1  0
 54 63  1  0
 55 61  1  0
 55 63  1  0
 56 61  1  0
 57 58  1  0
 57 56  1  0
 59 58  1  0
 59 68  1  0
 59 60  1  0
 61 60  1  0
 62 55  2  0
 63 64  1  0
 65 66  2  0
 66 85  1  0
 67 66  1  0
 67 70  1  0
 68 69  1  0
 68 65  1  0
 69 67  2  0
 70 71  1  0
 71 72  2  0
 73 76  1  0
 73 72  1  0
 74 73  2  0
 75 74  1  0
 75 70  2  0
 76 77  1  0
 77 82  2  0
 77 78  1  0
 78 79  2  0
 79 80  1  0
 80 84  1  0
 81 80  2  0
 82 81  1  0
 83 82  1  0
 85 86  1  0
 86 89  1  0
 86 88  1  0
 87 85  2  0
 90 65  1  0
 90 91  1  0
 92 90  1  0
M  ISO  4   6 101   7 101  55 100  63 100
M  END
>  <TORSDO>  (48) 
F 24

>  <SCORE>  (48) 
-11.613

>  <name>  (48) 
47

>  <ligand_id>  (48) 
47

>  <original_smiles>  (48) 
[H]OC([H])(C([H])([H])C([H])(C([H])([H])[H])C([H])(C([H])([H])[H])C([H])([H])Oc1c([H])c([H])c2c(c1[H])C([H])([H])N(C(=O)C([H])(N([H])C(=O)C([H])(N([H])C([H])([H])[H])C([H])([H])[H])C(C([H])([H])[H])(C([H])([H])[H])C([H])([H])[H])C([H])(C(=O)N([H])C1([H])c3c([H])c([H])c([H])c([H])c3C([H])([H])C([H])([H])C1([H])[H])C2([H])[H])C([H])(C([H])([H])[H])C([H])([H])C([H])([H])N([H])C(=O)N1C([H])([H])C([H])([H])C([H])([H])C([H])(n2nc(-c3c([H])c([H])c(Oc4c([H])c([H])c(F)c([H])c4F)c([H])c3[H])c(C(=O)N([H])[H])c2N([H])[H])C1([H])[H]

>  <smiles>  (48) 
[H]OC([H])(C([H])([H])C([H])(C([H])([H])[H])C([H])(C([H])([H])[H])C([H])([H])Oc1c([H])c([H])c2c(c1[H])C([H])([H])N(C(=O)C([H])(N([H])C(=O)C([H])(N([H])C([H])([H])[H])C([H])([H])[H])C(C([H])([H])[H])(C([H])([H])[H])C([H])([H])[H])C([H])(C(=O)N([H])C1([H])c3c([H])c([H])c([H])c([H])c3C([H])([H])C([H])([H])C1([H])[H])C2([H])[H])C([H])(C([H])([H])[H])C([H])([H])C([H])([H])N([H])C(=O)N1C([H])([H])C([H])([H])C([H])([H])C([H])(n2nc(-c3c([H])c([H])c(Oc4c([H])c([H])c(F)c([H])c4F)c([H])c3[H])c(C(=O)N([H])[H])c2N([H])[H])C1([H])[H]

$$$$
48:0:0
     RDKit          3D

 95102  0  0  1  0  0  0  0  0999 V2000
  -28.4950  -21.0250   20.3880 C   0  0  0  0  0  2  0  0  0  0  0  0
  -27.6160  -21.8840   19.5510 N   0  0  0  0  0  4  0  0  0  0  0  0
  -27.9600  -21.9460   18.6050 H   0  0  0  0  0  0  0  0  0  0  0  0
  -26.7210  -21.4180   19.5160 H   0  0  0  0  0  0  0  0  0  0  0  0
  -27.3790  -23.2490   20.0730 C   0  0  0  0  0  2  0  0  0  0  0  0
  -28.5500  -24.2190   19.8050 C   0  0  0  0  0  2  0  0  0  0  0  0
  -28.4540  -25.5330   20.6120 C   0  0  0  0  0  2  0  0  0  0  0  0
  -28.3660  -26.6860   19.7750 O   0  0  0  0  0  0  0  0  0  0  0  0
  -24.5480  -31.6910   23.1060 C   0  0  0  0  0  0  0  0  0  0  0  0
  -27.1840  -27.3800   19.8610 C   0  0  0  0  0  0  0  0  0  0  0  0
  -23.3300  -30.3360   21.4320 C   0  0  0  0  0  3  0  0  0  0  0  0
  -24.7740  -28.8430   19.9530 C   0  0  0  0  0  0  0  0  0  0  0  0
  -25.8500  -30.7140   21.2200 C   0  0  0  0  0  2  0  0  0  0  0  0
  -25.9320  -29.3630   20.5440 C   0  0  0  0  0  0  0  0  0  0  0  0
  -27.1410  -28.6380   20.4950 C   0  0  0  0  0  3  0  0  0  0  0  0
  -26.0140  -26.8620   19.2710 C   0  0  0  0  0  3  0  0  0  0  0  0
  -24.8090  -27.5910   19.3130 C   0  0  0  0  0  3  0  0  0  0  0  0
  -23.5250  -29.6910   20.0330 C   0  0  0  0  0  2  0  0  0  0  0  0
  -24.5950  -30.9280   21.9780 N   0  0  0  0  0  0  0  0  0  0  0  0
  -23.4720  -31.9450   23.6640 O   0  0  0  0  0  0  0  0  0  0  0  0
  -22.6920  -29.2880   22.3710 C   0  0  0  0  0  0  0  0  0  0  0  0
  -21.3680  -29.1030   22.2500 N   0  0  0  0  0  0  0  0  0  0  0  0
  -23.3850  -28.6390   23.1610 O   0  0  0  0  0  0  0  0  0  0  0  0
  -20.8690  -29.6770   21.5830 H   0  0  0  0  0  0  0  0  0  0  0  0
  -18.0050  -27.8930   22.7470 C   0  0  0  0  0  0  0  0  0  0  0  0
  -20.5650  -28.1380   22.9970 C   0  0  0  0  0  3  0  0  0  0  0  0
  -20.6610  -26.7320   22.3630 C   0  0  0  0  0  2  0  0  0  0  0  0
  -19.5460  -26.4540   21.3500 C   0  0  0  0  0  2  0  0  0  0  0  0
  -18.1740  -26.5680   22.0210 C   0  0  0  0  0  2  0  0  0  0  0  0
  -19.1290  -28.6380   23.1910 C   0  0  0  0  0  0  0  0  0  0  0  0
  -18.9220  -29.8810   23.8270 C   0  0  0  0  0  3  0  0  0  0  0  0
  -17.6210  -30.3810   24.0230 C   0  0  0  0  0  3  0  0  0  0  0  0
  -16.5100  -29.6340   23.5980 C   0  0  0  0  0  3  0  0  0  0  0  0
  -16.7010  -28.3890   22.9670 C   0  0  0  0  0  3  0  0  0  0  0  0
  -25.8380  -32.3040   23.7350 C   0  0  0  0  0  3  0  0  0  0  0  0
  -25.5350  -33.6930   24.1020 N   0  0  0  0  0  0  0  0  0  0  0  0
  -25.8850  -34.7650   23.3770 C   0  0  0  0  0  0  0  0  0  0  0  0
  -26.5710  -34.6850   22.3530 O   0  0  0  0  0  0  0  0  0  0  0  0
  -24.9250  -33.8320   24.8960 H   0  0  0  0  0  0  0  0  0  0  0  0
  -24.1770  -36.5770   23.0400 C   0  0  0  0  0  1  0  0  0  0  0  0
  -25.3990  -36.1430   23.8630 C   0  0  0  0  0  3  0  0  0  0  0  0
  -27.5230  -36.9870   24.7570 C   0  0  0  0  0  1  0  0  0  0  0  0
  -26.4430  -37.1890   23.7960 N   0  0  0  0  0  0  0  0  0  0  0  0
  -26.0410  -38.1090   23.9550 H   0  0  0  0  0  0  0  0  0  0  0  0
  -26.3660  -31.4970   24.9850 C   0  0  1  0  0  0  0  0  0  0  0  0
  -25.2810  -31.2150   26.0490 C   0  0  0  0  0  1  0  0  0  0  0  0
  -26.9590  -30.1360   24.5450 C   0  0  0  0  0  1  0  0  0  0  0  0
  -27.5190  -32.2760   25.6610 C   0  0  0  0  0  1  0  0  0  0  0  0
  -29.3990  -19.8480   18.3650 C   0  0  0  0  0  1  0  0  0  0  0  0
  -27.4350  -18.8660   19.5960 C   0  0  0  0  0  1  0  0  0  0  0  0
  -28.7850  -19.6190   19.7640 C   0  0  2  0  0  0  0  0  0  0  0  0
  -29.5890  -19.0170   22.1880 C   0  0  0  0  0  1  0  0  0  0  0  0
  -29.8250  -18.8300   20.6690 C   0  0  0  0  0  3  0  0  0  0  0  0
  -29.9460  -17.3010   20.4240 C   0  0  0  0  0  0  0  0  0  0  0  0
  -31.1300  -16.6930   20.6230 N   0  0  0  0  0  0  0  0  0  0  0  0
  -28.9470  -16.6420   20.1370 O   0  0  0  0  0  0  0  0  0  0  0  0
  -31.9880  -17.1460   20.9130 H   0  0  0  0  0  0  0  0  0  0  0  0
  -31.6400  -14.4040   20.0340 C   0  0  0  0  0  0  0  0  0  0  0  0
  -31.2610  -12.2050   18.9620 C   0  0  0  0  0  2  0  0  0  0  0  0
  -30.2990  -12.3500   17.7660 C   0  0  0  0  0  2  0  0  0  0  0  0
  -28.8300  -12.2730   18.2330 C   0  0  0  0  0  2  0  0  0  0  0  0
  -28.5410  -13.2160   19.4290 C   0  0  0  0  0  3  0  0  0  0  0  0
  -29.5990  -13.0170   20.5370 C   0  0  0  0  0  2  0  0  0  0  0  0
  -30.9370  -13.2420   19.9530 N   0  0  0  0  0  0  0  0  0  0  0  0
  -32.6600  -14.6380   19.3790 O   0  0  0  0  0  0  0  0  0  0  0  0
  -31.1190  -15.2950   20.8880 N   0  0  0  0  0  0  0  0  0  0  0  0
  -30.2760  -15.0520   21.3880 H   0  0  0  0  0  0  0  0  0  0  0  0
  -26.1920  -13.9830   20.1670 C   0  0  0  0  0  0  0  0  0  0  0  0
  -25.0920  -13.2820   20.5810 C   0  0  0  0  0  0  0  0  0  0  0  0
  -25.4790  -11.9080   20.5850 C   0  0  0  0  0  0  0  0  0  0  0  0
  -27.1830  -13.0390   19.9410 N   0  0  0  0  0  0  0  0  0  0  0  0
  -26.7560  -11.7870   20.2470 N   0  0  0  0  0  0  0  0  0  0  0  0
  -24.6930  -10.6930   20.8320 C   0  0  0  0  0  0  0  0  0  0  0  0
  -25.0240   -9.7930   21.8700 C   0  0  0  0  0  3  0  0  0  0  0  0
  -24.2400   -8.6400   22.0950 C   0  0  0  0  0  3  0  0  0  0  0  0
  -23.1110   -8.3800   21.2840 C   0  0  0  0  0  0  0  0  0  0  0  0
  -22.7970   -9.2660   20.2400 C   0  0  0  0  0  3  0  0  0  0  0  0
  -23.5810  -10.4100   20.0120 C   0  0  0  0  0  3  0  0  0  0  0  0
  -22.3080   -7.2710   21.4110 O   0  0  0  0  0  0  0  0  0  0  0  0
  -22.0670   -6.6990   22.6330 C   0  0  0  0  0  0  0  0  0  0  0  0
  -21.4900   -7.4250   23.6990 C   0  0  0  0  0  3  0  0  0  0  0  0
  -21.1980   -6.7790   24.9150 C   0  0  0  0  0  3  0  0  0  0  0  0
  -21.4700   -5.4060   25.0680 C   0  0  0  0  0  0  0  0  0  0  0  0
  -22.0400   -4.6800   24.0080 C   0  0  0  0  0  3  0  0  0  0  0  0
  -22.3350   -5.3240   22.7940 C   0  0  0  0  0  0  0  0  0  0  0  0
  -22.8670   -4.6140   21.7690 F   0  0  0  0  0  0  0  0  0  0  0  0
  -21.1790   -4.7820   26.2330 F   0  0  0  0  0  0  0  0  0  0  0  0
  -23.7300  -13.8440   20.8800 C   0  0  0  0  0  0  0  0  0  0  0  0
  -23.0000  -13.2330   21.8070 N   0  0  0  0  0  0  0  0  0  0  0  0
  -23.3260  -14.8660   20.3260 O   0  0  0  0  0  0  0  0  0  0  0  0
  -23.3360  -12.4030   22.2770 H   0  0  0  0  0  0  0  0  0  0  0  0
  -22.0910  -13.5970   22.0550 H   0  0  0  0  0  0  0  0  0  0  0  0
  -26.4320  -15.3360   19.9550 N   0  0  0  0  0  0  0  0  0  0  0  0
  -25.7360  -16.0480   20.1340 H   0  0  0  0  0  0  0  0  0  0  0  0
  -27.3690  -15.7200   19.8210 H   0  0  0  0  0  0  0  0  0  0  0  0
  2  5  1  0
  2  1  1  0
  3  2  1  0
  4  2  1  0
  6  5  1  0
  6  7  1  0
  8 10  1  0
  8  7  1  0
  9 20  2  0
 10 15  1  0
 11 19  1  0
 11 21  1  0
 12 18  1  0
 12 14  1  0
 13 19  1  0
 14 13  1  0
 15 14  2  0
 16 17  1  0
 16 10  2  0
 17 12  2  0
 18 11  1  0
 19  9  1  0
 21 23  2  0
 22 21  1  0
 24 22  1  0
 25 34  2  0
 25 30  1  0
 26 22  1  0
 26 30  1  0
 27 26  1  0
 28 29  1  0
 28 27  1  0
 29 25  1  0
 30 31  2  0
 31 32  1  0
 33 32  2  0
 34 33  1  0
 35  9  1  0
 35 36  1  0
 35 45  1  0
 36 39  1  0
 37 41  1  0
 37 36  1  0
 38 37  2  0
 41 40  1  0
 43 41  1  0
 43 44  1  0
 43 42  1  0
 45 48  1  1
 45 46  1  0
 47 45  1  0
 51 49  1  6
 50 51  1  0
 51  1  1  0
 51 53  1  0
 53 52  1  0
 54 55  1  0
 54 53  1  0
 55 66  1  0
 55 57  1  0
 56 54  2  0
 58 66  1  0
 59 64  1  0
 60 61  1  0
 60 59  1  0
 62 61  1  0
 62 71  1  0
 62 63  1  0
 64 58  1  0
 64 63  1  0
 65 58  2  0
 66 67  1  0
 68 69  2  0
 69 70  1  0
 69 88  1  0
 70 73  1  0
 71 68  1  0
 71 72  1  0
 72 70  2  0
 73 74  1  0
 74 75  2  0
 76 79  1  0
 76 75  1  0
 77 76  2  0
 78 77  1  0
 78 73  2  0
 79 80  1  0
 80 85  2  0
 80 81  1  0
 81 82  2  0
 82 83  1  0
 83 87  1  0
 84 83  2  0
 85 84  1  0
 86 85  1  0
 88 89  1  0
 89 92  1  0
 89 91  1  0
 90 88  2  0
 93 94  1  0
 93 68  1  0
 95 93  1  0
M  ISO  4   7 101   8 101  58 100  66 100
M  END
>  <TORSDO>  (49) 
F 23

>  <SCORE>  (49) 
-10.784

>  <name>  (49) 
48

>  <ligand_id>  (49) 
48

>  <original_smiles>  (49) 
[H]c1c([H])c([H])c2c(c1[H])C([H])([H])C([H])([H])C([H])([H])C2([H])N([H])C(=O)C1([H])N(C(=O)C([H])(N([H])C(=O)C([H])(N([H])C([H])([H])[H])C([H])([H])[H])C(C([H])([H])[H])(C([H])([H])[H])C([H])([H])[H])C([H])([H])c2c([H])c(OC([H])([H])C([H])([H])C([H])([H])[N+]([H])([H])C([H])([H])C(C([H])([H])[H])(C([H])([H])[H])C([H])(C(=O)N([H])N([H])C(=O)N3C([H])([H])C([H])([H])C([H])([H])C([H])(n4nc(-c5c([H])c([H])c(Oc6c([H])c([H])c(F)c([H])c6F)c([H])c5[H])c(C(=O)N([H])[H])c4N([H])[H])C3([H])[H])C([H])([H])[H])c([H])c([H])c2C1([H])[H]

>  <smiles>  (49) 
[H]c1c([H])c([H])c2c(c1[H])C([H])([H])C([H])([H])C([H])([H])C2([H])N([H])C(=O)C1([H])N(C(=O)C([H])(N([H])C(=O)C([H])(N([H])C([H])([H])[H])C([H])([H])[H])C(C([H])([H])[H])(C([H])([H])[H])C([H])([H])[H])C([H])([H])c2c([H])c(OC([H])([H])C([H])([H])C([H])([H])[N+]([H])([H])C([H])([H])C(C([H])([H])[H])(C([H])([H])[H])C([H])(C(=O)N([H])N([H])C(=O)N3C([H])([H])C([H])([H])C([H])([H])C([H])(n4nc(-c5c([H])c([H])c(Oc6c([H])c([H])c(F)c([H])c6F)c([H])c5[H])c(C(=O)N([H])[H])c4N([H])[H])C3([H])[H])C([H])([H])[H])c([H])c([H])c2C1([H])[H]

$$$$
49:0:0
     RDKit          3D

 99107  0  0  1  0  0  0  0  0999 V2000
  -28.4250  -20.5380   20.3200 C   0  0  0  0  0  0  0  0  0  0  0  0
  -26.9670  -22.3240   21.1670 C   0  0  0  0  0  1  0  0  0  0  0  0
  -28.2580  -21.8760   20.5950 N   0  0  0  0  0  0  0  0  0  0  0  0
  -27.5380  -19.7380   20.6330 O   0  0  0  0  0  0  0  0  0  0  0  0
  -29.0640  -17.3550   19.4000 C   0  0  0  0  0  2  0  0  0  0  0  0
  -30.4650  -18.1040   21.3190 C   0  0  0  0  0  2  0  0  0  0  0  0
  -29.2670  -18.7020   18.6820 C   0  0  0  0  0  2  0  0  0  0  0  0
  -30.7530  -19.4610   20.6290 C   0  0  0  0  0  2  0  0  0  0  0  0
  -30.2920  -17.0170   20.2500 C   0  0  0  0  0  3  0  0  0  0  0  0
  -29.6760  -19.9180   19.5870 C   0  0  2  0  0  0  0  0  0  0  0  0
  -30.9010  -14.6220   20.3130 C   0  0  0  0  0  0  0  0  0  0  0  0
  -30.5790  -12.4650   19.1870 C   0  0  0  0  0  2  0  0  0  0  0  0
  -29.6400  -12.6950   17.9840 C   0  0  0  0  0  2  0  0  0  0  0  0
  -28.1630  -12.5820   18.4130 C   0  0  0  0  0  2  0  0  0  0  0  0
  -27.8390  -13.4110   19.6860 C   0  0  0  0  0  3  0  0  0  0  0  0
  -28.8950  -13.1720   20.7910 C   0  0  0  0  0  2  0  0  0  0  0  0
  -30.2260  -13.4470   20.2220 N   0  0  0  0  0  0  0  0  0  0  0  0
  -32.0160  -14.8010   19.8130 O   0  0  0  0  0  0  0  0  0  0  0  0
  -30.1730  -15.6540   20.7730 N   0  0  0  0  0  0  0  0  0  0  0  0
  -29.2940  -15.4100   21.2070 H   0  0  0  0  0  0  0  0  0  0  0  0
  -25.4470  -14.0390   20.4050 C   0  0  0  0  0  0  0  0  0  0  0  0
  -24.3760  -13.2770   20.7850 C   0  0  0  0  0  0  0  0  0  0  0  0
  -24.8270  -11.9210   20.7520 C   0  0  0  0  0  0  0  0  0  0  0  0
  -26.4850  -13.1500   20.1690 N   0  0  0  0  0  0  0  0  0  0  0  0
  -26.1130  -11.8700   20.4320 N   0  0  0  0  0  0  0  0  0  0  0  0
  -24.0930  -10.6650   20.9540 C   0  0  0  0  0  0  0  0  0  0  0  0
  -24.5150   -9.7070   21.9030 C   0  0  0  0  0  3  0  0  0  0  0  0
  -23.7820   -8.5150   22.0920 C   0  0  0  0  0  3  0  0  0  0  0  0
  -22.6160   -8.2710   21.3290 C   0  0  0  0  0  0  0  0  0  0  0  0
  -22.2120   -9.2170   20.3710 C   0  0  0  0  0  3  0  0  0  0  0  0
  -22.9440  -10.4010   20.1810 C   0  0  0  0  0  3  0  0  0  0  0  0
  -21.8600   -7.1280   21.4220 O   0  0  0  0  0  0  0  0  0  0  0  0
  -21.7850   -6.4080   22.5870 C   0  0  0  0  0  0  0  0  0  0  0  0
  -21.2940   -6.9740   23.7840 C   0  0  0  0  0  3  0  0  0  0  0  0
  -21.1680   -6.1790   24.9400 C   0  0  0  0  0  3  0  0  0  0  0  0
  -21.5250   -4.8180   24.9010 C   0  0  0  0  0  0  0  0  0  0  0  0
  -22.0100   -4.2510   23.7100 C   0  0  0  0  0  3  0  0  0  0  0  0
  -22.1370   -5.0440   22.5560 C   0  0  0  0  0  0  0  0  0  0  0  0
  -22.5840   -4.4860   21.4050 F   0  0  0  0  0  0  0  0  0  0  0  0
  -21.3980   -4.0520   26.0100 F   0  0  0  0  0  0  0  0  0  0  0  0
  -22.9850  -13.7670   21.0690 C   0  0  0  0  0  0  0  0  0  0  0  0
  -22.2590  -13.0810   21.9450 N   0  0  0  0  0  0  0  0  0  0  0  0
  -22.5480  -14.7910   20.5470 O   0  0  0  0  0  0  0  0  0  0  0  0
  -22.6240  -12.2530   22.3920 H   0  0  0  0  0  0  0  0  0  0  0  0
  -21.3270  -13.3920   22.1740 H   0  0  0  0  0  0  0  0  0  0  0  0
  -25.6210  -15.4080   20.2230 N   0  0  0  0  0  0  0  0  0  0  0  0
  -24.8570  -16.0640   20.3360 H   0  0  0  0  0  0  0  0  0  0  0  0
  -26.4660  -15.8390   19.8720 H   0  0  0  0  0  0  0  0  0  0  0  0
  -30.2570  -20.8960   18.6500 N   0  0  0  0  0  4  0  0  0  0  0  0
  -29.5630  -21.1830   17.9800 H   0  0  0  0  0  0  0  0  0  0  0  0
  -31.0340  -20.5020   18.1490 H   0  0  0  0  0  0  0  0  0  0  0  0
  -30.5750  -21.7100   19.1430 H   0  0  0  0  0  0  0  0  0  0  0  0
  -29.2850  -22.9550   20.4770 C   0  0  0  0  0  3  0  0  0  0  0  0
  -28.7780  -24.4150   20.6630 C   0  0  0  0  0  3  0  0  0  0  0  0
  -30.4650  -25.4570   19.0080 C   0  0  0  0  0  1  0  0  0  0  0  0
  -30.8810  -25.5730   21.4740 C   0  0  0  0  0  1  0  0  0  0  0  0
  -29.7870  -25.5710   20.3910 C   0  0  2  0  0  0  0  0  0  0  0  0
  -29.0190  -26.9190   20.4490 C   0  0  0  0  0  2  0  0  0  0  0  0
  -28.0670  -26.9430   19.3870 O   0  0  0  0  0  0  0  0  0  0  0  0
  -24.4890  -31.8570   23.1340 C   0  0  0  0  0  0  0  0  0  0  0  0
  -26.9330  -27.6910   19.5790 C   0  0  0  0  0  0  0  0  0  0  0  0
  -23.1800  -30.5940   21.4570 C   0  0  0  0  0  3  0  0  0  0  0  0
  -24.5430  -29.1650   19.8430 C   0  0  0  0  0  0  0  0  0  0  0  0
  -25.6890  -30.9630   21.1470 C   0  0  0  0  0  2  0  0  0  0  0  0
  -25.7300  -29.6450   20.4120 C   0  0  0  0  0  0  0  0  0  0  0  0
  -26.9280  -28.9100   20.2920 C   0  0  0  0  0  3  0  0  0  0  0  0
  -25.7360  -27.2230   19.0020 C   0  0  0  0  0  3  0  0  0  0  0  0
  -24.5380  -27.9480   19.1390 C   0  0  0  0  0  3  0  0  0  0  0  0
  -23.3070  -30.0180   20.0200 C   0  0  0  0  0  2  0  0  0  0  0  0
  -24.4740  -31.1480   21.9720 N   0  0  0  0  0  0  0  0  0  0  0  0
  -23.4420  -32.0930   23.7530 O   0  0  0  0  0  0  0  0  0  0  0  0
  -22.5740  -29.5050   22.3700 C   0  0  0  0  0  0  0  0  0  0  0  0
  -21.2470  -29.3260   22.2850 N   0  0  0  0  0  0  0  0  0  0  0  0
  -23.2930  -28.8250   23.1080 O   0  0  0  0  0  0  0  0  0  0  0  0
  -20.7280  -29.9270   21.6590 H   0  0  0  0  0  0  0  0  0  0  0  0
  -17.9040  -28.0610   22.8000 C   0  0  0  0  0  0  0  0  0  0  0  0
  -20.4650  -28.3350   23.0220 C   0  0  0  0  0  3  0  0  0  0  0  0
  -20.5680  -26.9420   22.3590 C   0  0  0  0  0  2  0  0  0  0  0  0
  -19.4430  -26.6660   21.3570 C   0  0  0  0  0  2  0  0  0  0  0  0
  -18.0780  -26.7550   22.0440 C   0  0  0  0  0  2  0  0  0  0  0  0
  -19.0250  -28.8100   23.2450 C   0  0  0  0  0  0  0  0  0  0  0  0
  -18.8070  -30.0350   23.9130 C   0  0  0  0  0  3  0  0  0  0  0  0
  -17.5020  -30.5090   24.1420 C   0  0  0  0  0  3  0  0  0  0  0  0
  -16.3970  -29.7550   23.7140 C   0  0  0  0  0  3  0  0  0  0  0  0
  -16.5980  -28.5330   23.0480 C   0  0  0  0  0  3  0  0  0  0  0  0
  -25.8160  -32.4260   23.7280 C   0  0  0  0  0  3  0  0  0  0  0  0
  -25.5490  -33.8010   24.1660 N   0  0  0  0  0  0  0  0  0  0  0  0
  -25.8970  -34.8980   23.4790 C   0  0  0  0  0  0  0  0  0  0  0  0
  -26.5500  -34.8550   22.4310 O   0  0  0  0  0  0  0  0  0  0  0  0
  -24.9630  -33.9110   24.9800 H   0  0  0  0  0  0  0  0  0  0  0  0
  -24.2290  -36.7670   23.2630 C   0  0  0  0  0  1  0  0  0  0  0  0
  -25.4500  -36.2590   24.0440 C   0  0  0  0  0  3  0  0  0  0  0  0
  -27.6010  -37.0090   24.9610 C   0  0  0  0  0  1  0  0  0  0  0  0
  -26.5160  -37.2840   24.0230 N   0  0  0  0  0  0  0  0  0  0  0  0
  -26.1350  -38.2020   24.2390 H   0  0  0  0  0  0  0  0  0  0  0  0
  -26.3880  -31.5610   24.9180 C   0  0  1  0  0  0  0  0  0  0  0  0
  -25.3510  -31.2690   26.0260 C   0  0  0  0  0  1  0  0  0  0  0  0
  -26.9240  -30.2050   24.4010 C   0  0  0  0  0  1  0  0  0  0  0  0
  -27.5890  -32.2920   25.5670 C   0  0  0  0  0  1  0  0  0  0  0  0
  1  3  1  0
  1  4  2  0
  3  2  1  0
  5  9  1  0
  7  5  1  0
  7 10  1  0
  8  6  1  0
  9 19  1  0
  9  6  1  0
 10  1  1  0
 10  8  1  0
 11 19  1  0
 12 17  1  0
 13 14  1  0
 13 12  1  0
 15 14  1  0
 15 24  1  0
 15 16  1  0
 17 11  1  0
 17 16  1  0
 18 11  2  0
 19 20  1  0
 21 22  2  0
 22 41  1  0
 23 22  1  0
 23 26  1  0
 24 21  1  0
 24 25  1  0
 25 23  2  0
 26 27  1  0
 27 28  2  0
 29 32  1  0
 29 28  1  0
 30 29  2  0
 31 30  1  0
 31 26  2  0
 32 33  1  0
 33 34  1  0
 34 35  2  0
 36 35  1  0
 36 40  1  0
 37 36  2  0
 38 33  2  0
 38 37  1  0
 39 38  1  0
 41 42  1  0
 42 45  1  0
 42 44  1  0
 43 41  2  0
 46 47  1  0
 46 21  1  0
 48 46  1  0
 49 52  1  0
 10 49  1  6
 50 49  1  0
 51 49  1  0
 53  3  1  0
 53 54  2  0
 57 55  1  6
 57 58  1  0
 57 54  1  0
 57 56  1  0
 59 61  1  0
 59 58  1  0
 60 71  2  0
 61 66  1  0
 62 70  1  0
 62 72  1  0
 63 69  1  0
 63 65  1  0
 64 70  1  0
 65 64  1  0
 66 65  2  0
 67 68  1  0
 67 61  2  0
 68 63  2  0
 69 62  1  0
 70 60  1  0
 72 74  2  0
 73 72  1  0
 75 73  1  0
 76 85  2  0
 76 81  1  0
 77 73  1  0
 77 81  1  0
 78 77  1  0
 79 80  1  0
 79 78  1  0
 80 76  1  0
 81 82  2  0
 82 83  1  0
 84 83  2  0
 85 84  1  0
 86 60  1  0
 86 87  1  0
 86 96  1  0
 87 90  1  0
 88 92  1  0
 88 87  1  0
 89 88  2  0
 92 91  1  0
 94 92  1  0
 94 95  1  0
 94 93  1  0
 96 99  1  1
 96 97  1  0
 98 96  1  0
M  ISO  4  11 100  19 100  58 101  59 101
M  END
>  <TORSDO>  (50) 
F 22

>  <SCORE>  (50) 
-12.850

>  <name>  (50) 
49

>  <ligand_id>  (50) 
49

>  <original_smiles>  (50) 
[H]c1c([H])c([H])c2c(c1[H])C([H])([H])C([H])([H])C([H])([H])C2([H])N([H])C(=O)C1([H])N(C(=O)C([H])(N([H])C(=O)C([H])(N([H])C([H])([H])[H])C([H])([H])[H])C(C([H])([H])[H])(C([H])([H])[H])C([H])([H])[H])C([H])([H])c2c([H])c(OC([H])([H])C(C([H])([H])[H])(C([H])([H])[H])C([H])([H])C([H])([H])N(C(=O)C3([N+]([H])([H])[H])C([H])([H])C([H])([H])C([H])(N([H])C(=O)N4C([H])([H])C([H])([H])C([H])([H])C([H])(n5nc(-c6c([H])c([H])c(Oc7c([H])c([H])c(F)c([H])c7F)c([H])c6[H])c(C(=O)N([H])[H])c5N([H])[H])C4([H])[H])C([H])([H])C3([H])[H])C([H])([H])[H])c([H])c([H])c2C1([H])[H]

>  <smiles>  (50) 
[H]c1c([H])c([H])c2c(c1[H])C([H])([H])C([H])([H])C([H])([H])C2([H])N([H])C(=O)C1([H])N(C(=O)C([H])(N([H])C(=O)C([H])(N([H])C([H])([H])[H])C([H])([H])[H])C(C([H])([H])[H])(C([H])([H])[H])C([H])([H])[H])C([H])([H])c2c([H])c(OC([H])([H])C(C([H])([H])[H])(C([H])([H])[H])C([H])([H])C([H])([H])N(C(=O)C3([N+]([H])([H])[H])C([H])([H])C([H])([H])C([H])(N([H])C(=O)N4C([H])([H])C([H])([H])C([H])([H])C([H])(n5nc(-c6c([H])c([H])c(Oc7c([H])c([H])c(F)c([H])c7F)c([H])c6[H])c(C(=O)N([H])[H])c5N([H])[H])C4([H])[H])C([H])([H])C3([H])[H])C([H])([H])[H])c([H])c([H])c2C1([H])[H]

$$$$
50:0:0
     RDKit          3D

 82 86  0  0  1  0  0  0  0  0999 V2000
  -28.1370  -24.6640   20.2800 O   0  0  0  0  0  1  0  0  0  0  0  0
  -24.7340  -31.8030   23.1520 C   0  0  0  0  0  0  0  0  0  0  0  0
  -27.2260  -26.1590   20.2530 C   0  0  0  0  0  0  0  0  0  0  0  0
  -23.5690  -30.3790   21.5310 C   0  0  0  0  0  3  0  0  0  0  0  0
  -25.0170  -28.5910   20.1720 C   0  0  0  0  0  0  0  0  0  0  0  0
  -26.1690  -30.3340   21.4840 C   0  0  0  0  0  2  0  0  0  0  0  0
  -26.2240  -28.8290   20.8370 C   0  0  0  0  0  0  0  0  0  0  0  0
  -27.2770  -27.6660   20.8260 C   0  0  0  0  0  3  0  0  0  0  0  0
  -25.9790  -26.2970   19.5260 C   0  0  0  0  0  3  0  0  0  0  0  0
  -24.9720  -27.3550   19.4890 C   0  0  0  0  0  3  0  0  0  0  0  0
  -23.8390  -29.6200   20.1890 C   0  0  0  0  0  2  0  0  0  0  0  0
  -24.8570  -30.8880   22.1070 N   0  0  0  0  0  0  0  0  0  0  0  0
  -23.6280  -32.1340   23.6250 O   0  0  0  0  0  0  0  0  0  0  0  0
  -22.7900  -29.4690   22.5260 C   0  0  0  0  0  0  0  0  0  0  0  0
  -21.4500  -29.3540   22.4040 N   0  0  0  0  0  0  0  0  0  0  0  0
  -23.4170  -28.8550   23.3910 O   0  0  0  0  0  0  0  0  0  0  0  0
  -20.9850  -29.8980   21.6910 H   0  0  0  0  0  0  0  0  0  0  0  0
  -18.0430  -28.1630   22.9450 C   0  0  0  0  0  0  0  0  0  0  0  0
  -20.6080  -28.4320   23.1860 C   0  0  0  0  0  3  0  0  0  0  0  0
  -20.6980  -26.9930   22.6240 C   0  0  0  0  0  2  0  0  0  0  0  0
  -19.5930  -26.6710   21.6130 C   0  0  0  0  0  2  0  0  0  0  0  0
  -18.2140  -26.8160   22.2620 C   0  0  0  0  0  2  0  0  0  0  0  0
  -19.1660  -28.9300   23.3620 C   0  0  0  0  0  0  0  0  0  0  0  0
  -18.9450  -30.1830   23.9710 C   0  0  0  0  0  3  0  0  0  0  0  0
  -17.6390  -30.6750   24.1590 C   0  0  0  0  0  3  0  0  0  0  0  0
  -16.5340  -29.9080   23.7510 C   0  0  0  0  0  3  0  0  0  0  0  0
  -16.7360  -28.6540   23.1500 C   0  0  0  0  0  3  0  0  0  0  0  0
  -25.9690  -32.4900   23.8170 C   0  0  0  0  0  3  0  0  0  0  0  0
  -25.6220  -33.8950   24.1490 N   0  0  0  0  0  0  0  0  0  0  0  0
  -25.9300  -34.9760   23.4180 C   0  0  0  0  0  0  0  0  0  0  0  0
  -26.5750  -34.8970   22.3700 O   0  0  0  0  0  0  0  0  0  0  0  0
  -25.0380  -34.0270   24.9630 H   0  0  0  0  0  0  0  0  0  0  0  0
  -24.1650  -36.7690   23.1870 C   0  0  0  0  0  1  0  0  0  0  0  0
  -25.4550  -36.3610   23.9170 C   0  0  0  0  0  3  0  0  0  0  0  0
  -27.6170  -37.2890   24.6380 C   0  0  0  0  0  1  0  0  0  0  0  0
  -26.4650  -37.4330   23.7520 N   0  0  0  0  0  0  0  0  0  0  0  0
  -26.0520  -38.3460   23.9150 H   0  0  0  0  0  0  0  0  0  0  0  0
  -26.4440  -31.7560   25.1340 C   0  0  1  0  0  0  0  0  0  0  0  0
  -25.3190  -31.5450   26.1760 C   0  0  0  0  0  1  0  0  0  0  0  0
  -27.0410  -30.3700   24.8160 C   0  0  0  0  0  1  0  0  0  0  0  0
  -27.5740  -32.5690   25.8090 C   0  0  0  0  0  1  0  0  0  0  0  0
  -28.1770  -22.5590   20.1660 C   0  0  0  0  0 15  0  0  0  0  0  0
  -30.1260  -20.6340   21.3760 C   0  0  0  0  0  1  0  0  0  0  0  0
  -29.1990  -20.4320   20.1740 C   0  0  0  0  0  1  0  0  0  0  0  0
  -29.9420  -16.6970   20.0440 C   0  0  0  0  0  0  0  0  0  0  0  0
  -30.3010  -13.9350   19.2580 C   0  0  0  0  0  2  0  0  0  0  0  0
  -29.5130  -13.0880   18.1740 C   0  0  0  0  0  2  0  0  0  0  0  0
  -28.2060  -12.5100   18.7180 C   0  0  0  0  0  2  0  0  0  0  0  0
  -27.5770  -13.5390   19.6670 C   0  0  0  0  0  3  0  0  0  0  0  0
  -28.5580  -14.2410   20.6770 C   0  0  0  0  0  2  0  0  0  0  0  0
  -29.5240  -15.1680   19.9320 N   0  0  0  0  0  0  0  0  0  0  0  0
  -31.1900  -16.4790   19.9460 O   0  0  0  0  0  0  0  0  0  0  0  0
  -29.2060  -18.3230   20.0940 N   0  0  0  0  0  2  0  0  0  0  0  0
  -28.2220  -18.0840   20.0790 H   0  0  0  0  0  0  0  0  0  0  0  0
  -25.2470  -13.9380   20.5380 C   0  0  0  0  0  0  0  0  0  0  0  0
  -24.2200  -13.1270   20.9200 C   0  0  0  0  0  0  0  0  0  0  0  0
  -24.7160  -11.7890   20.8410 C   0  0  0  0  0  0  0  0  0  0  0  0
  -26.3080  -13.1070   20.2470 N   0  0  0  0  0  0  0  0  0  0  0  0
  -26.0040  -11.7970   20.4800 N   0  0  0  0  0  0  0  0  0  0  0  0
  -24.0070  -10.5110   21.0280 C   0  0  0  0  0  0  0  0  0  0  0  0
  -24.4480   -9.5440   21.9600 C   0  0  0  0  0  3  0  0  0  0  0  0
  -23.7280   -8.3430   22.1460 C   0  0  0  0  0  3  0  0  0  0  0  0
  -22.5510   -8.0970   21.4000 C   0  0  0  0  0  0  0  0  0  0  0  0
  -22.1250   -9.0510   20.4590 C   0  0  0  0  0  3  0  0  0  0  0  0
  -22.8460  -10.2440   20.2730 C   0  0  0  0  0  3  0  0  0  0  0  0
  -21.8040   -6.9470   21.4930 O   0  0  0  0  0  0  0  0  0  0  0  0
  -21.7380   -6.2200   22.6560 C   0  0  0  0  0  0  0  0  0  0  0  0
  -21.2500   -6.7810   23.8570 C   0  0  0  0  0  3  0  0  0  0  0  0
  -21.1340   -5.9820   25.0120 C   0  0  0  0  0  3  0  0  0  0  0  0
  -21.4950   -4.6220   24.9670 C   0  0  0  0  0  0  0  0  0  0  0  0
  -21.9760   -4.0600   23.7710 C   0  0  0  0  0  3  0  0  0  0  0  0
  -22.0930   -4.8570   22.6180 C   0  0  0  0  0  0  0  0  0  0  0  0
  -22.5350   -4.3050   21.4630 F   0  0  0  0  0  0  0  0  0  0  0  0
  -21.3780   -3.8520   26.0750 F   0  0  0  0  0  0  0  0  0  0  0  0
  -22.8250  -13.5770   21.2360 C   0  0  0  0  0  0  0  0  0  0  0  0
  -22.1350  -12.8630   22.1170 N   0  0  0  0  0  0  0  0  0  0  0  0
  -22.3590  -14.6020   20.7400 O   0  0  0  0  0  0  0  0  0  0  0  0
  -22.5290  -12.0350   22.5410 H   0  0  0  0  0  0  0  0  0  0  0  0
  -21.2000  -13.1480   22.3730 H   0  0  0  0  0  0  0  0  0  0  0  0
  -25.3640  -15.3150   20.3750 N   0  0  0  0  0  0  0  0  0  0  0  0
  -24.5810  -15.9440   20.5150 H   0  0  0  0  0  0  0  0  0  0  0  0
  -26.1870  -15.7810   20.0160 H   0  0  0  0  0  0  0  0  0  0  0  0
  2 13  2  0
  3  1  1  0
  3  8  1  0
  4 12  1  0
  4 14  1  0
  5 11  1  0
  5  7  1  0
  6 12  1  0
  7  6  1  0
  8  7  2  0
  9  3  2  0
 10  9  1  0
 10  5  2  0
 11  4  1  0
 12  2  1  0
 14 16  2  0
 15 14  1  0
 17 15  1  0
 18 27  2  0
 18 23  1  0
 19 15  1  0
 19 23  1  0
 20 19  1  0
 21 22  1  0
 21 20  1  0
 22 18  1  0
 23 24  2  0
 24 25  1  0
 26 25  2  0
 27 26  1  0
 28  2  1  0
 28 29  1  0
 28 38  1  0
 29 32  1  0
 30 34  1  0
 30 29  1  0
 31 30  2  0
 34 33  1  0
 36 37  1  0
 36 34  1  0
 36 35  1  0
 38 41  1  1
 38 39  1  0
 40 38  1  0
 44 43  1  0
 45 53  1  0
 46 51  1  0
 47 48  1  0
 47 46  1  0
 49 48  1  0
 49 58  1  0
 49 50  1  0
 51 45  1  0
 51 50  1  0
 52 45  2  0
 54 53  1  0
 55 56  2  0
 56 75  1  0
 57 56  1  0
 57 60  1  0
 58 59  1  0
 58 55  1  0
 59 57  2  0
 60 61  1  0
 61 62  2  0
 63 66  1  0
 63 62  1  0
 64 63  2  0
 65 64  1  0
 65 60  2  0
 66 67  1  0
 67 68  1  0
 68 69  2  0
 70 69  1  0
 70 74  1  0
 71 70  2  0
 72 67  2  0
 72 71  1  0
 73 72  1  0
 75 76  1  0
 76 79  1  0
 76 78  1  0
 77 75  2  0
 80 81  1  0
 80 55  1  0
 82 80  1  0
M  ISO  4   1 101  42 101  45 100  53 100
M  END
>  <TORSDO>  (51) 
F 17

>  <SCORE>  (51) 
-16.272

>  <name>  (51) 
50

>  <ligand_id>  (51) 
50

>  <original_smiles>  (51) 
[H]c1c([H])c([H])c2c(c1[H])C([H])([H])C([H])([H])C([H])([H])C2([H])N([H])C(=O)C1([H])N(C(=O)C([H])(N([H])C(=O)C([H])(N([H])C([H])([H])[H])C([H])([H])[H])C(C([H])([H])[H])(C([H])([H])[H])C([H])([H])[H])C([H])([H])c2c([H])c(OC([H])([H])C([H])(N([H])C(=O)N3C([H])([H])C([H])([H])C([H])([H])C([H])(n4nc(-c5c([H])c([H])c(Oc6c([H])c([H])c(F)c([H])c6F)c([H])c5[H])c(C(=O)N([H])[H])c4N([H])[H])C3([H])[H])C([H])([H])[H])c([H])c([H])c2C1([H])[H]

>  <smiles>  (51) 
[H]c1c([H])c([H])c2c(c1[H])C([H])([H])C([H])([H])C([H])([H])C2([H])N([H])C(=O)C1([H])N(C(=O)C([H])(N([H])C(=O)C([H])(N([H])C([H])([H])[H])C([H])([H])[H])C(C([H])([H])[H])(C([H])([H])[H])C([H])([H])[H])C([H])([H])c2c([H])c(OC([H])([H])C([H])(N([H])C(=O)N3C([H])([H])C([H])([H])C([H])([H])C([H])(n4nc(-c5c([H])c([H])c(Oc6c([H])c([H])c(F)c([H])c6F)c([H])c5[H])c(C(=O)N([H])[H])c4N([H])[H])C3([H])[H])C([H])([H])[H])c([H])c([H])c2C1([H])[H]

$$$$
51:0:0
     RDKit          3D

 93101  0  0  1  0  0  0  0  0999 V2000
  -28.0860  -23.1870   21.1670 C   0  0  0  0  0  2  0  0  0  0  0  0
  -29.1940  -22.5360   20.5450 C   0  0  0  0  0  0  0  0  0  0  0  0
  -29.8920  -23.4140   19.6720 C   0  0  0  0  0  0  0  0  0  0  0  0
  -28.5100  -25.2340   20.1600 C   0  0  0  0  0  0  0  0  0  0  0  0
  -31.1330  -22.9890   18.9080 C   0  0  0  0  0  1  0  0  0  0  0  0
  -27.7570  -24.5040   20.9850 N   0  0  0  0  0  0  0  0  0  0  0  0
  -29.5500  -24.7190   19.5010 N   0  0  0  0  0  0  0  0  0  0  0  0
  -29.8290  -20.9700   22.4910 C   0  0  0  0  0  1  0  0  0  0  0  0
  -29.7410  -21.0840   20.9580 C   0  0  0  0  0  3  0  0  0  0  0  0
  -28.2970  -20.0220   19.2070 C   0  0  0  0  0  1  0  0  0  0  0  0
  -29.1380  -19.7850   20.4030 N   0  0  1  0  0  4  0  0  0  0  0  0
  -28.4820  -19.4870   21.1080 H   0  0  0  0  0  0  0  0  0  0  0  0
  -30.0610  -18.5630   20.2080 C   0  0  0  0  0  2  0  0  0  0  0  0
  -29.7540  -17.2480   21.0970 C   0  0  0  0  0  2  0  0  0  0  0  0
  -30.5890  -14.7120   20.4650 C   0  0  0  0  0  0  0  0  0  0  0  0
  -30.4360  -12.4710   19.3750 C   0  0  0  0  0  2  0  0  0  0  0  0
  -29.5060  -12.5890   18.1470 C   0  0  0  0  0  2  0  0  0  0  0  0
  -28.0270  -12.4160   18.5540 C   0  0  0  0  0  2  0  0  0  0  0  0
  -27.6500  -13.2750   19.7900 C   0  0  0  0  0  3  0  0  0  0  0  0
  -28.6900  -13.1070   20.9200 C   0  0  0  0  0  2  0  0  0  0  0  0
  -29.9990  -13.4780   20.3610 N   0  0  0  0  0  0  0  0  0  0  0  0
  -31.7540  -14.8990   20.1030 O   0  0  0  0  0  0  0  0  0  0  0  0
  -29.7400  -15.7380   20.8280 N   0  0  0  0  0  0  0  0  0  0  0  0
  -28.8330  -15.3480   21.0420 H   0  0  0  0  0  0  0  0  0  0  0  0
  -25.2400  -13.8870   20.4400 C   0  0  0  0  0  0  0  0  0  0  0  0
  -24.1670  -13.1190   20.8000 C   0  0  0  0  0  0  0  0  0  0  0  0
  -24.6300  -11.7690   20.8040 C   0  0  0  0  0  0  0  0  0  0  0  0
  -26.2910  -13.0040   20.2500 N   0  0  0  0  0  0  0  0  0  0  0  0
  -25.9290  -11.7250   20.5290 N   0  0  0  0  0  0  0  0  0  0  0  0
  -23.9010  -10.5090   21.0010 C   0  0  0  0  0  0  0  0  0  0  0  0
  -24.3210   -9.5550   21.9550 C   0  0  0  0  0  3  0  0  0  0  0  0
  -23.5950   -8.3600   22.1400 C   0  0  0  0  0  3  0  0  0  0  0  0
  -22.4350   -8.1070   21.3690 C   0  0  0  0  0  0  0  0  0  0  0  0
  -22.0320   -9.0500   20.4050 C   0  0  0  0  0  3  0  0  0  0  0  0
  -22.7600  -10.2370   20.2210 C   0  0  0  0  0  3  0  0  0  0  0  0
  -21.6830   -6.9610   21.4600 O   0  0  0  0  0  0  0  0  0  0  0  0
  -21.6230   -6.2300   22.6180 C   0  0  0  0  0  0  0  0  0  0  0  0
  -21.1840   -6.7950   23.8330 C   0  0  0  0  0  3  0  0  0  0  0  0
  -21.0710   -5.9900   24.9850 C   0  0  0  0  0  3  0  0  0  0  0  0
  -21.3870   -4.6210   24.9210 C   0  0  0  0  0  0  0  0  0  0  0  0
  -21.8220   -4.0540   23.7100 C   0  0  0  0  0  3  0  0  0  0  0  0
  -21.9360   -4.8560   22.5610 C   0  0  0  0  0  0  0  0  0  0  0  0
  -22.3330   -4.3000   21.3900 F   0  0  0  0  0  0  0  0  0  0  0  0
  -21.2730   -3.8460   26.0250 F   0  0  0  0  0  0  0  0  0  0  0  0
  -22.7640  -13.6000   21.0310 C   0  0  0  0  0  0  0  0  0  0  0  0
  -22.0190  -12.9170   21.8940 N   0  0  0  0  0  0  0  0  0  0  0  0
  -22.3350  -14.6140   20.4840 O   0  0  0  0  0  0  0  0  0  0  0  0
  -22.3780  -12.0950   22.3540 H   0  0  0  0  0  0  0  0  0  0  0  0
  -21.0760  -13.2220   22.0940 H   0  0  0  0  0  0  0  0  0  0  0  0
  -25.4120  -15.2530   20.2360 N   0  0  0  0  0  0  0  0  0  0  0  0
  -24.6410  -15.9120   20.2800 H   0  0  0  0  0  0  0  0  0  0  0  0
  -26.2630  -15.6630   19.8740 H   0  0  0  0  0  0  0  0  0  0  0  0
  -28.4080  -26.6170   20.0870 O   0  0  0  0  0  0  0  0  0  0  0  0
  -24.5940  -31.8950   23.2120 C   0  0  0  0  0  0  0  0  0  0  0  0
  -27.2160  -27.3520   20.1530 C   0  0  0  0  0  0  0  0  0  0  0  0
  -23.3840  -30.4920   21.5750 C   0  0  0  0  0  3  0  0  0  0  0  0
  -24.8330  -28.9340   20.1510 C   0  0  0  0  0  0  0  0  0  0  0  0
  -25.9170  -30.8210   21.3780 C   0  0  0  0  0  2  0  0  0  0  0  0
  -25.9970  -29.4370   20.7420 C   0  0  0  0  0  0  0  0  0  0  0  0
  -27.1860  -28.6570   20.7350 C   0  0  0  0  0  3  0  0  0  0  0  0
  -26.0280  -26.8890   19.5430 C   0  0  0  0  0  3  0  0  0  0  0  0
  -24.8460  -27.6630   19.5500 C   0  0  0  0  0  3  0  0  0  0  0  0
  -23.5980  -29.8160   20.1930 C   0  0  0  0  0  2  0  0  0  0  0  0
  -24.6500  -31.0880   22.1120 N   0  0  0  0  0  0  0  0  0  0  0  0
  -23.5130  -32.1660   23.7540 O   0  0  0  0  0  0  0  0  0  0  0  0
  -22.7320  -29.4730   22.5390 C   0  0  0  0  0  0  0  0  0  0  0  0
  -21.4060  -29.2910   22.4200 N   0  0  0  0  0  0  0  0  0  0  0  0
  -23.4170  -28.8490   23.3530 O   0  0  0  0  0  0  0  0  0  0  0  0
  -20.9100  -29.8530   21.7430 H   0  0  0  0  0  0  0  0  0  0  0  0
  -18.0400  -28.0640   22.9230 C   0  0  0  0  0  0  0  0  0  0  0  0
  -20.5950  -28.3500   23.1950 C   0  0  0  0  0  3  0  0  0  0  0  0
  -20.7120  -26.9150   22.6280 C   0  0  0  0  0  2  0  0  0  0  0  0
  -19.6150  -26.5740   21.6160 C   0  0  0  0  0  2  0  0  0  0  0  0
  -18.2300  -26.7120   22.2560 C   0  0  0  0  0  2  0  0  0  0  0  0
  -19.1510  -28.8390   23.3500 C   0  0  0  0  0  0  0  0  0  0  0  0
  -18.9210  -30.1020   23.9360 C   0  0  0  0  0  3  0  0  0  0  0  0
  -17.6110  -30.5920   24.0980 C   0  0  0  0  0  3  0  0  0  0  0  0
  -16.5140  -29.8170   23.6840 C   0  0  0  0  0  3  0  0  0  0  0  0
  -16.7290  -28.5540   23.1040 C   0  0  0  0  0  3  0  0  0  0  0  0
  -25.8770  -32.5310   23.8270 C   0  0  0  0  0  3  0  0  0  0  0  0
  -26.4020  -31.7640   25.1030 C   0  0  1  0  0  0  0  0  0  0  0  0
  -25.3150  -31.5270   26.1780 C   0  0  0  0  0  1  0  0  0  0  0  0
  -26.9870  -30.3880   24.7100 C   0  0  0  0  0  1  0  0  0  0  0  0
  -27.5550  -32.5630   25.7560 C   0  0  0  0  0  1  0  0  0  0  0  0
  -25.5670  -33.9290   24.1570 N   0  0  0  0  0  0  0  0  0  0  0  0
  -25.9040  -34.9830   23.3990 C   0  0  0  0  0  0  0  0  0  0  0  0
  -26.5780  -34.8790   22.3700 O   0  0  0  0  0  0  0  0  0  0  0  0
  -24.9750  -34.0830   24.9580 H   0  0  0  0  0  0  0  0  0  0  0  0
  -24.1890  -36.7850   23.0340 C   0  0  0  0  0  1  0  0  0  0  0  0
  -25.4180  -36.3720   23.8570 C   0  0  0  0  0  3  0  0  0  0  0  0
  -27.5450  -37.2470   24.7160 C   0  0  0  0  0  1  0  0  0  0  0  0
  -26.4560  -37.4210   23.7610 N   0  0  0  0  0  0  0  0  0  0  0  0
  -26.0520  -38.3440   23.9060 H   0  0  0  0  0  0  0  0  0  0  0  0
  2  9  1  0
  2  1  1  0
  3  2  2  0
  4  6  2  0
  5  3  1  0
  6  1  1  0
  7  3  1  0
  7  4  2  0
  9  8  1  0
 10 11  1  0
 11  9  1  0
 11 12  1  1
 13 11  1  0
 13 14  1  0
 15 23  1  0
 16 21  1  0
 17 18  1  0
 17 16  1  0
 19 18  1  0
 19 28  1  0
 19 20  1  0
 21 15  1  0
 21 20  1  0
 22 15  2  0
 23 24  1  0
 23 14  1  0
 25 26  2  0
 26 27  1  0
 26 45  1  0
 27 30  1  0
 28 25  1  0
 28 29  1  0
 29 27  2  0
 30 31  1  0
 31 32  2  0
 33 36  1  0
 33 32  1  0
 34 33  2  0
 35 34  1  0
 35 30  2  0
 36 37  1  0
 37 38  1  0
 38 39  2  0
 40 39  1  0
 40 44  1  0
 41 40  2  0
 42 37  2  0
 42 41  1  0
 43 42  1  0
 45 46  1  0
 46 49  1  0
 46 48  1  0
 47 45  2  0
 50 51  1  0
 50 25  1  0
 52 50  1  0
 53 55  1  0
 53  4  1  0
 54 65  2  0
 55 60  1  0
 56 64  1  0
 56 66  1  0
 57 63  1  0
 57 59  1  0
 58 64  1  0
 59 58  1  0
 60 59  2  0
 61 62  1  0
 61 55  2  0
 62 57  2  0
 63 56  1  0
 64 54  1  0
 66 68  2  0
 67 66  1  0
 69 67  1  0
 70 79  2  0
 70 75  1  0
 71 67  1  0
 71 75  1  0
 72 71  1  0
 73 74  1  0
 73 72  1  0
 74 70  1  0
 75 76  2  0
 76 77  1  0
 78 77  2  0
 79 78  1  0
 80 54  1  0
 80 85  1  0
 80 81  1  0
 81 84  1  1
 81 82  1  0
 83 81  1  0
 85 88  1  0
 86 90  1  0
 86 85  1  0
 87 86  2  0
 90 89  1  0
 92 90  1  0
 92 93  1  0
 92 91  1  0
M  ISO  4   4 101  15 100  23 100  53 101
M  END
>  <TORSDO>  (52) 
F 20

>  <SCORE>  (52) 
-13.842

>  <name>  (52) 
51

>  <ligand_id>  (52) 
51

>  <original_smiles>  (52) 
[H]c1nc(Oc2c([H])c([H])c3c(c2[H])C([H])([H])N(C(=O)C([H])(N([H])C(=O)C([H])(N([H])C([H])([H])[H])C([H])([H])[H])C(C([H])([H])[H])(C([H])([H])[H])C([H])([H])[H])C([H])(C(=O)N([H])C2([H])c4c([H])c([H])c([H])c([H])c4C([H])([H])C([H])([H])C2([H])[H])C3([H])[H])nc(C([H])([H])[H])c1C([H])(C([H])([H])[H])[N+]([H])(C([H])([H])[H])C([H])([H])C([H])([H])N([H])C(=O)N1C([H])([H])C([H])([H])C([H])([H])C([H])(n2nc(-c3c([H])c([H])c(Oc4c([H])c([H])c(F)c([H])c4F)c([H])c3[H])c(C(=O)N([H])[H])c2N([H])[H])C1([H])[H]

>  <smiles>  (52) 
[H]c1nc(Oc2c([H])c([H])c3c(c2[H])C([H])([H])N(C(=O)C([H])(N([H])C(=O)C([H])(N([H])C([H])([H])[H])C([H])([H])[H])C(C([H])([H])[H])(C([H])([H])[H])C([H])([H])[H])C([H])(C(=O)N([H])C2([H])c4c([H])c([H])c([H])c([H])c4C([H])([H])C([H])([H])C2([H])[H])C3([H])[H])nc(C([H])([H])[H])c1C([H])(C([H])([H])[H])[N+]([H])(C([H])([H])[H])C([H])([H])C([H])([H])N([H])C(=O)N1C([H])([H])C([H])([H])C([H])([H])C([H])(n2nc(-c3c([H])c([H])c(Oc4c([H])c([H])c(F)c([H])c4F)c([H])c3[H])c(C(=O)N([H])[H])c2N([H])[H])C1([H])[H]

$$$$
52:0:0
     RDKit          3D

 87 94  0  0  1  0  0  0  0  0999 V2000
  -30.4690  -23.1850   19.9860 C   0  0  0  0  0  1  0  0  0  0  0  0
  -28.9870  -22.8190   19.8670 C   0  0  0  0  0  3  0  0  0  0  0  0
  -27.5540  -21.1000   21.1200 C   0  0  0  0  0  1  0  0  0  0  0  0
  -28.8620  -21.2530   20.4510 N   0  0  1  0  0  4  0  0  0  0  0  0
  -29.5100  -21.2690   21.2270 H   0  0  0  0  0  0  0  0  0  0  0  0
  -29.2470  -19.7960   19.7140 C   0  0  0  0  0  2  0  0  0  0  0  0
  -29.8160  -18.2400   20.4310 C   0  0  0  0  0  2  0  0  0  0  0  0
  -30.4950  -15.3690   19.9090 C   0  0  0  0  0  0  0  0  0  0  0  0
  -30.4470  -12.9440   18.9620 C   0  0  0  0  0  2  0  0  0  0  0  0
  -29.4520  -12.7270   17.7930 C   0  0  0  0  0  2  0  0  0  0  0  0
  -28.0300  -12.4620   18.3190 C   0  0  0  0  0  2  0  0  0  0  0  0
  -27.6470  -13.4150   19.4810 C   0  0  0  0  0  3  0  0  0  0  0  0
  -28.7600  -13.5320   20.5390 C   0  0  0  0  0  2  0  0  0  0  0  0
  -29.9370  -14.0640   19.8330 N   0  0  0  0  0  0  0  0  0  0  0  0
  -31.7160  -15.3860   19.7030 O   0  0  0  0  0  0  0  0  0  0  0  0
  -29.6970  -16.6200   20.0050 N   0  0  0  0  0  0  0  0  0  0  0  0
  -28.7200  -16.3750   19.9500 H   0  0  0  0  0  0  0  0  0  0  0  0
  -25.3250  -13.9660   20.3760 C   0  0  0  0  0  0  0  0  0  0  0  0
  -24.2850  -13.1860   20.7890 C   0  0  0  0  0  0  0  0  0  0  0  0
  -24.7440  -11.8360   20.7080 C   0  0  0  0  0  0  0  0  0  0  0  0
  -26.3520  -13.0950   20.0610 N   0  0  0  0  0  0  0  0  0  0  0  0
  -26.0170  -11.8050   20.3270 N   0  0  0  0  0  0  0  0  0  0  0  0
  -24.0250  -10.5730   20.9120 C   0  0  0  0  0  0  0  0  0  0  0  0
  -24.4780   -9.6030   21.8340 C   0  0  0  0  0  3  0  0  0  0  0  0
  -23.7550   -8.4060   22.0280 C   0  0  0  0  0  3  0  0  0  0  0  0
  -22.5630   -8.1690   21.3020 C   0  0  0  0  0  0  0  0  0  0  0  0
  -22.1290   -9.1270   20.3710 C   0  0  0  0  0  3  0  0  0  0  0  0
  -22.8520  -10.3160   20.1740 C   0  0  0  0  0  3  0  0  0  0  0  0
  -21.8100   -7.0270   21.4090 O   0  0  0  0  0  0  0  0  0  0  0  0
  -21.7720   -6.2930   22.5670 C   0  0  0  0  0  0  0  0  0  0  0  0
  -21.3350   -6.8520   23.7870 C   0  0  0  0  0  3  0  0  0  0  0  0
  -21.2450   -6.0460   24.9400 C   0  0  0  0  0  3  0  0  0  0  0  0
  -21.5840   -4.6810   24.8730 C   0  0  0  0  0  0  0  0  0  0  0  0
  -22.0170   -4.1220   23.6580 C   0  0  0  0  0  3  0  0  0  0  0  0
  -22.1070   -4.9260   22.5080 C   0  0  0  0  0  0  0  0  0  0  0  0
  -22.5030   -4.3770   21.3340 F   0  0  0  0  0  0  0  0  0  0  0  0
  -21.4890   -3.9040   25.9770 F   0  0  0  0  0  0  0  0  0  0  0  0
  -22.9040  -13.6590   21.1370 C   0  0  0  0  0  0  0  0  0  0  0  0
  -22.2180  -12.9480   22.0230 N   0  0  0  0  0  0  0  0  0  0  0  0
  -22.4480  -14.6960   20.6550 O   0  0  0  0  0  0  0  0  0  0  0  0
  -22.5990  -12.1060   22.4280 H   0  0  0  0  0  0  0  0  0  0  0  0
  -21.2970  -13.2560   22.3050 H   0  0  0  0  0  0  0  0  0  0  0  0
  -25.4770  -15.3410   20.2110 N   0  0  0  0  0  0  0  0  0  0  0  0
  -24.7120  -15.9880   20.3720 H   0  0  0  0  0  0  0  0  0  0  0  0
  -26.2870  -15.7820   19.7990 H   0  0  0  0  0  0  0  0  0  0  0  0
  -28.0910  -24.3200   20.3380 C   0  0  0  0  0  2  0  0  0  0  0  0
  -28.3040  -25.9450   20.1070 O   0  0  0  0  0  0  0  0  0  0  0  0
  -24.6570  -31.8450   23.1260 C   0  0  0  0  0  0  0  0  0  0  0  0
  -27.2760  -27.0230   20.0990 C   0  0  0  0  0  0  0  0  0  0  0  0
  -23.4930  -30.4650   21.4530 C   0  0  0  0  0  3  0  0  0  0  0  0
  -24.9670  -28.8820   20.0390 C   0  0  0  0  0  0  0  0  0  0  0  0
  -26.0580  -30.6950   21.3410 C   0  0  0  0  0  2  0  0  0  0  0  0
  -26.1430  -29.2890   20.6790 C   0  0  0  0  0  0  0  0  0  0  0  0
  -27.2940  -28.3840   20.6830 C   0  0  0  0  0  3  0  0  0  0  0  0
  -26.0720  -26.7690   19.4040 C   0  0  0  0  0  3  0  0  0  0  0  0
  -24.9520  -27.6420   19.3820 C   0  0  0  0  0  3  0  0  0  0  0  0
  -23.7480  -29.8020   20.0710 C   0  0  0  0  0  2  0  0  0  0  0  0
  -24.7570  -31.0290   22.0270 N   0  0  0  0  0  0  0  0  0  0  0  0
  -23.5600  -32.1190   23.6380 O   0  0  0  0  0  0  0  0  0  0  0  0
  -22.7960  -29.4470   22.3940 C   0  0  0  0  0  0  0  0  0  0  0  0
  -21.4670  -29.2790   22.2540 N   0  0  0  0  0  0  0  0  0  0  0  0
  -23.4560  -28.8110   23.2200 O   0  0  0  0  0  0  0  0  0  0  0  0
  -20.9860  -29.8390   21.5650 H   0  0  0  0  0  0  0  0  0  0  0  0
  -18.0850  -28.0510   22.7250 C   0  0  0  0  0  0  0  0  0  0  0  0
  -20.6410  -28.3260   23.0060 C   0  0  0  0  0  3  0  0  0  0  0  0
  -20.7510  -26.9020   22.4120 C   0  0  0  0  0  2  0  0  0  0  0  0
  -19.6570  -26.5910   21.3850 C   0  0  0  0  0  2  0  0  0  0  0  0
  -18.2720  -26.7170   22.0240 C   0  0  0  0  0  2  0  0  0  0  0  0
  -19.1960  -28.8130   23.1710 C   0  0  0  0  0  0  0  0  0  0  0  0
  -18.9640  -30.0610   23.7900 C   0  0  0  0  0  3  0  0  0  0  0  0
  -17.6540  -30.5470   23.9630 C   0  0  0  0  0  3  0  0  0  0  0  0
  -16.5580  -29.7830   23.5280 C   0  0  0  0  0  3  0  0  0  0  0  0
  -16.7740  -28.5360   22.9150 C   0  0  0  0  0  3  0  0  0  0  0  0
  -25.9160  -32.4900   23.7810 C   0  0  0  0  0  3  0  0  0  0  0  0
  -26.4030  -31.7180   25.0700 C   0  0  1  0  0  0  0  0  0  0  0  0
  -25.2850  -31.4730   26.1100 C   0  0  0  0  0  1  0  0  0  0  0  0
  -27.0020  -30.3430   24.6990 C   0  0  0  0  0  1  0  0  0  0  0  0
  -27.5380  -32.5110   25.7600 C   0  0  0  0  0  1  0  0  0  0  0  0
  -25.5870  -33.8850   24.1250 N   0  0  0  0  0  0  0  0  0  0  0  0
  -25.9240  -34.9570   23.3940 C   0  0  0  0  0  0  0  0  0  0  0  0
  -26.6110  -34.8730   22.3730 O   0  0  0  0  0  0  0  0  0  0  0  0
  -24.9920  -34.0210   24.9300 H   0  0  0  0  0  0  0  0  0  0  0  0
  -24.2010  -36.7530   23.0290 C   0  0  0  0  0  1  0  0  0  0  0  0
  -25.4200  -36.3370   23.8660 C   0  0  0  0  0  3  0  0  0  0  0  0
  -27.5270  -37.2130   24.7740 C   0  0  0  0  0  1  0  0  0  0  0  0
  -26.4530  -37.3940   23.8010 N   0  0  0  0  0  0  0  0  0  0  0  0
  -26.0430  -38.3120   23.9500 H   0  0  0  0  0  0  0  0  0  0  0  0
  2  1  1  0
  2 46  1  0
  2  4  1  0
  4  3  1  0
  4  5  1  1
  6  7  1  0
  6  4  1  0
  8 16  1  0
  9 14  1  0
 10 11  1  0
 10  9  1  0
 12 11  1  0
 12 21  1  0
 12 13  1  0
 14  8  1  0
 14 13  1  0
 15  8  2  0
 16  7  1  0
 17 16  1  0
 18 19  2  0
 19 38  1  0
 20 19  1  0
 20 23  1  0
 21 22  1  0
 21 18  1  0
 22 20  2  0
 23 24  1  0
 24 25  2  0
 26 29  1  0
 26 25  1  0
 27 26  2  0
 28 27  1  0
 28 23  2  0
 29 30  1  0
 30 31  1  0
 31 32  2  0
 33 32  1  0
 33 37  1  0
 34 33  2  0
 35 30  2  0
 35 34  1  0
 36 35  1  0
 38 39  1  0
 39 42  1  0
 39 41  1  0
 40 38  2  0
 43 44  1  0
 43 18  1  0
 45 43  1  0
 47 46  1  0
 48 59  2  0
 49 47  1  0
 49 54  1  0
 50 58  1  0
 50 60  1  0
 51 57  1  0
 51 53  1  0
 52 58  1  0
 53 54  2  0
 53 52  1  0
 55 49  2  0
 56 55  1  0
 56 51  2  0
 57 50  1  0
 58 48  1  0
 60 62  2  0
 61 60  1  0
 63 61  1  0
 64 73  2  0
 64 69  1  0
 65 61  1  0
 65 69  1  0
 66 65  1  0
 67 68  1  0
 67 66  1  0
 68 64  1  0
 69 70  2  0
 70 71  1  0
 72 71  2  0
 73 72  1  0
 74 48  1  0
 74 79  1  0
 74 75  1  0
 75 78  1  1
 75 76  1  0
 77 75  1  0
 79 82  1  0
 80 84  1  0
 80 79  1  0
 81 80  2  0
 84 83  1  0
 86 84  1  0
 86 87  1  0
 86 85  1  0
M  ISO  4   8 100  16 100  46 101  47 101
M  END
>  <TORSDO>  (53) 
F 20

>  <SCORE>  (53) 
-15.671

>  <name>  (53) 
52

>  <ligand_id>  (53) 
52

>  <original_smiles>  (53) 
[H]c1c([H])c([H])c2c(c1[H])C([H])([H])C([H])([H])C([H])([H])C2([H])N([H])C(=O)C1([H])N(C(=O)C([H])(N([H])C(=O)C([H])(N([H])C([H])([H])[H])C([H])([H])[H])C(C([H])([H])[H])(C([H])([H])[H])C([H])([H])[H])C([H])([H])c2c([H])c(OC([H])([H])C([H])(C([H])([H])[H])[N+]([H])(C([H])([H])[H])C([H])([H])C([H])([H])N([H])C(=O)N3C([H])([H])C([H])([H])C([H])([H])C([H])(n4nc(-c5c([H])c([H])c(Oc6c([H])c([H])c(F)c([H])c6F)c([H])c5[H])c(C(=O)N([H])[H])c4N([H])[H])C3([H])[H])c([H])c([H])c2C1([H])[H]

>  <smiles>  (53) 
[H]c1c([H])c([H])c2c(c1[H])C([H])([H])C([H])([H])C([H])([H])C2([H])N([H])C(=O)C1([H])N(C(=O)C([H])(N([H])C(=O)C([H])(N([H])C([H])([H])[H])C([H])([H])[H])C(C([H])([H])[H])(C([H])([H])[H])C([H])([H])[H])C([H])([H])c2c([H])c(OC([H])([H])C([H])(C([H])([H])[H])[N+]([H])(C([H])([H])[H])C([H])([H])C([H])([H])N([H])C(=O)N3C([H])([H])C([H])([H])C([H])([H])C([H])(n4nc(-c5c([H])c([H])c(Oc6c([H])c([H])c(F)c([H])c6F)c([H])c5[H])c(C(=O)N([H])[H])c4N([H])[H])C3([H])[H])c([H])c([H])c2C1([H])[H]

$$$$
53:0:0
     RDKit          3D

 89 97  0  0  1  0  0  0  0  0999 V2000
  -29.1790  -21.9480   21.8940 C   0  0  0  0  0  3  0  0  0  0  0  0
  -29.2470  -20.5720   21.9540 C   0  0  0  0  0  3  0  0  0  0  0  0
  -29.2750  -21.1860   19.8300 C   0  0  0  0  0  3  0  0  0  0  0  0
  -29.1930  -22.3990   20.5360 C   0  0  0  0  0  0  0  0  0  0  0  0
  -29.2930  -20.0400   20.6740 N   0  0  0  0  0  0  0  0  0  0  0  0
  -29.2310  -23.9620   18.4920 C   0  0  0  0  0  1  0  0  0  0  0  0
  -29.2320  -23.9250   20.0260 C   0  0  0  0  0  3  0  0  0  0  0  0
  -28.2200  -25.0600   20.5990 C   0  0  0  0  0  2  0  0  0  0  0  0
  -28.3890  -26.5190   20.2430 O   0  0  0  0  0  0  0  0  0  0  0  0
  -24.5960  -31.9450   23.2460 C   0  0  0  0  0  0  0  0  0  0  0  0
  -27.2640  -27.3790   20.2170 C   0  0  0  0  0  0  0  0  0  0  0  0
  -23.4120  -30.5320   21.6030 C   0  0  0  0  0  3  0  0  0  0  0  0
  -24.8850  -28.9910   20.1860 C   0  0  0  0  0  0  0  0  0  0  0  0
  -25.9520  -30.8720   21.4260 C   0  0  0  0  0  2  0  0  0  0  0  0
  -26.0500  -29.4900   20.7830 C   0  0  0  0  0  0  0  0  0  0  0  0
  -27.2440  -28.7000   20.7790 C   0  0  0  0  0  3  0  0  0  0  0  0
  -26.0790  -26.9450   19.5870 C   0  0  0  0  0  3  0  0  0  0  0  0
  -24.9040  -27.7270   19.5740 C   0  0  0  0  0  3  0  0  0  0  0  0
  -23.6400  -29.8560   20.2250 C   0  0  0  0  0  2  0  0  0  0  0  0
  -24.6720  -31.1360   22.1480 N   0  0  0  0  0  0  0  0  0  0  0  0
  -23.5080  -32.2100   23.7790 O   0  0  0  0  0  0  0  0  0  0  0  0
  -22.7540  -29.5120   22.5640 C   0  0  0  0  0  0  0  0  0  0  0  0
  -21.4270  -29.3280   22.4370 N   0  0  0  0  0  0  0  0  0  0  0  0
  -23.4350  -28.8910   23.3830 O   0  0  0  0  0  0  0  0  0  0  0  0
  -20.9360  -29.8760   21.7450 H   0  0  0  0  0  0  0  0  0  0  0  0
  -18.0570  -28.1070   22.9360 C   0  0  0  0  0  0  0  0  0  0  0  0
  -20.6150  -28.3830   23.2060 C   0  0  0  0  0  3  0  0  0  0  0  0
  -20.7270  -26.9540   22.6260 C   0  0  0  0  0  2  0  0  0  0  0  0
  -19.6270  -26.6260   21.6120 C   0  0  0  0  0  2  0  0  0  0  0  0
  -18.2440  -26.7610   22.2560 C   0  0  0  0  0  2  0  0  0  0  0  0
  -19.1710  -28.8750   23.3680 C   0  0  0  0  0  0  0  0  0  0  0  0
  -18.9440  -30.1350   23.9640 C   0  0  0  0  0  3  0  0  0  0  0  0
  -17.6360  -30.6250   24.1350 C   0  0  0  0  0  3  0  0  0  0  0  0
  -16.5360  -29.8540   23.7210 C   0  0  0  0  0  3  0  0  0  0  0  0
  -16.7480  -28.5970   23.1260 C   0  0  0  0  0  3  0  0  0  0  0  0
  -25.8710  -32.5890   23.8750 C   0  0  0  0  0  3  0  0  0  0  0  0
  -26.3810  -31.8330   25.1620 C   0  0  1  0  0  0  0  0  0  0  0  0
  -25.2780  -31.6010   26.2210 C   0  0  0  0  0  1  0  0  0  0  0  0
  -26.9730  -30.4530   24.7890 C   0  0  0  0  0  1  0  0  0  0  0  0
  -27.5210  -32.6390   25.8260 C   0  0  0  0  0  1  0  0  0  0  0  0
  -25.5520  -33.9910   24.1900 N   0  0  0  0  0  0  0  0  0  0  0  0
  -25.8910  -35.0390   23.4280 C   0  0  0  0  0  0  0  0  0  0  0  0
  -26.5720  -34.9290   22.4040 O   0  0  0  0  0  0  0  0  0  0  0  0
  -24.9510  -34.1520   24.9850 H   0  0  0  0  0  0  0  0  0  0  0  0
  -24.1680  -36.8290   23.0370 C   0  0  0  0  0  1  0  0  0  0  0  0
  -25.3960  -36.4290   23.8710 C   0  0  0  0  0  3  0  0  0  0  0  0
  -27.5140  -37.3180   24.7360 C   0  0  0  0  0  1  0  0  0  0  0  0
  -26.4300  -37.4820   23.7730 N   0  0  0  0  0  0  0  0  0  0  0  0
  -26.0210  -38.4020   23.9100 H   0  0  0  0  0  0  0  0  0  0  0  0
  -29.1820  -18.5520   20.3180 C   0  0  0  0  0  3  0  0  0  0  0  0
  -30.3310  -17.4580   20.6410 C   0  0  0  0  0  3  0  0  0  0  0  0
  -30.7320  -14.8570   20.2770 C   0  0  0  0  0  0  0  0  0  0  0  0
  -30.5400  -12.5950   19.2310 C   0  0  0  0  0  2  0  0  0  0  0  0
  -29.5840  -12.6530   18.0190 C   0  0  0  0  0  2  0  0  0  0  0  0
  -28.1200  -12.4730   18.4660 C   0  0  0  0  0  2  0  0  0  0  0  0
  -27.7510  -13.3640   19.6810 C   0  0  0  0  0  3  0  0  0  0  0  0
  -28.8200  -13.2680   20.7930 C   0  0  0  0  0  2  0  0  0  0  0  0
  -30.1100  -13.6340   20.1940 N   0  0  0  0  0  0  0  0  0  0  0  0
  -31.9040  -14.9810   19.9110 O   0  0  0  0  0  0  0  0  0  0  0  0
  -29.9630  -15.9670   20.5880 N   0  0  0  0  0  0  0  0  0  0  0  0
  -29.0130  -15.7440   20.8400 H   0  0  0  0  0  0  0  0  0  0  0  0
  -25.3640  -13.9560   20.4180 C   0  0  0  0  0  0  0  0  0  0  0  0
  -24.3040  -13.1820   20.8000 C   0  0  0  0  0  0  0  0  0  0  0  0
  -24.7690  -11.8300   20.7710 C   0  0  0  0  0  0  0  0  0  0  0  0
  -26.4100  -13.0770   20.1800 N   0  0  0  0  0  0  0  0  0  0  0  0
  -26.0570  -11.7950   20.4500 N   0  0  0  0  0  0  0  0  0  0  0  0
  -24.0460  -10.5690   20.9690 C   0  0  0  0  0  0  0  0  0  0  0  0
  -24.4790   -9.6110   21.9130 C   0  0  0  0  0  3  0  0  0  0  0  0
  -23.7570   -8.4120   22.1000 C   0  0  0  0  0  3  0  0  0  0  0  0
  -22.5870   -8.1620   21.3420 C   0  0  0  0  0  0  0  0  0  0  0  0
  -22.1730   -9.1090   20.3880 C   0  0  0  0  0  3  0  0  0  0  0  0
  -22.8950  -10.3000   20.2010 C   0  0  0  0  0  3  0  0  0  0  0  0
  -21.8350   -7.0160   21.4370 O   0  0  0  0  0  0  0  0  0  0  0  0
  -21.7740   -6.2890   22.5980 C   0  0  0  0  0  0  0  0  0  0  0  0
  -21.3140   -6.8550   23.8080 C   0  0  0  0  0  3  0  0  0  0  0  0
  -21.2050   -6.0560   24.9630 C   0  0  0  0  0  3  0  0  0  0  0  0
  -21.5430   -4.6910   24.9090 C   0  0  0  0  0  0  0  0  0  0  0  0
  -21.9910   -4.1220   23.7040 C   0  0  0  0  0  3  0  0  0  0  0  0
  -22.1070   -4.9200   22.5520 C   0  0  0  0  0  0  0  0  0  0  0  0
  -22.5210   -4.3650   21.3880 F   0  0  0  0  0  0  0  0  0  0  0  0
  -21.4300   -3.9190   26.0150 F   0  0  0  0  0  0  0  0  0  0  0  0
  -22.9080  -13.6550   21.0800 C   0  0  0  0  0  0  0  0  0  0  0  0
  -22.1830  -12.9590   21.9480 N   0  0  0  0  0  0  0  0  0  0  0  0
  -22.4680  -14.6820   20.5660 O   0  0  0  0  0  0  0  0  0  0  0  0
  -22.5470  -12.1290   22.3900 H   0  0  0  0  0  0  0  0  0  0  0  0
  -21.2470  -13.2630   22.1740 H   0  0  0  0  0  0  0  0  0  0  0  0
  -25.5260  -15.3260   20.2260 N   0  0  0  0  0  0  0  0  0  0  0  0
  -24.7600  -15.9820   20.3380 H   0  0  0  0  0  0  0  0  0  0  0  0
  -26.3630  -15.7540   19.8510 H   0  0  0  0  0  0  0  0  0  0  0  0
  1  2  2  0
  3  4  2  0
  3  5  1  0
  4  1  1  0
  5  2  1  0
  7  6  1  0
  7  4  1  0
  7  8  1  0
  9  8  1  0
 10 21  2  0
 11  9  1  0
 11 16  1  0
 12 20  1  0
 12 22  1  0
 13 19  1  0
 13 15  1  0
 14 20  1  0
 15 14  1  0
 16 15  2  0
 17 11  2  0
 18 17  1  0
 18 13  2  0
 19 12  1  0
 20 10  1  0
 22 24  2  0
 23 22  1  0
 25 23  1  0
 26 35  2  0
 26 31  1  0
 27 23  1  0
 27 31  1  0
 28 27  1  0
 29 30  1  0
 29 28  1  0
 30 26  1  0
 31 32  2  0
 32 33  1  0
 34 33  2  0
 35 34  1  0
 36 10  1  0
 36 41  1  0
 36 37  1  0
 37 40  1  1
 37 38  1  0
 39 37  1  0
 41 44  1  0
 42 46  1  0
 42 41  1  0
 43 42  2  0
 46 45  1  0
 48 46  1  0
 48 49  1  0
 48 47  1  0
 50 51  2  0
 50  5  1  0
 52 60  1  0
 53 58  1  0
 54 55  1  0
 54 53  1  0
 56 55  1  0
 56 65  1  0
 56 57  1  0
 58 52  1  0
 58 57  1  0
 59 52  2  0
 60 51  1  0
 60 61  1  0
 62 63  2  0
 63 82  1  0
 64 63  1  0
 64 67  1  0
 65 62  1  0
 65 66  1  0
 66 64  2  0
 67 68  1  0
 68 69  2  0
 70 73  1  0
 70 69  1  0
 71 70  2  0
 72 71  1  0
 72 67  2  0
 73 74  1  0
 74 75  1  0
 75 76  2  0
 77 76  1  0
 77 81  1  0
 78 77  2  0
 79 74  2  0
 79 78  1  0
 80 79  1  0
 82 83  1  0
 83 86  1  0
 83 85  1  0
 84 82  2  0
 87 88  1  0
 87 62  1  0
 89 87  1  0
M  ISO  4   8 101   9 101  52 100  60 100
M  END
>  <TORSDO>  (54) 
F 20

>  <SCORE>  (54) 
-13.417

>  <name>  (54) 
53

>  <ligand_id>  (54) 
53

>  <original_smiles>  (54) 
[H]c1c([H])c([H])c2c(c1[H])C([H])([H])C([H])([H])C([H])([H])C2([H])N([H])C(=O)C1([H])N(C(=O)C([H])(N([H])C(=O)C([H])(N([H])C([H])([H])[H])C([H])([H])[H])C(C([H])([H])[H])(C([H])([H])[H])C([H])([H])[H])C([H])([H])c2c([H])c(OC([H])([H])C([H])(c3c([H])c([H])n(C([H])([H])C([H])([H])N([H])C(=O)N4C([H])([H])C([H])([H])C([H])([H])C([H])(n5nc(-c6c([H])c([H])c(Oc7c([H])c([H])c(F)c([H])c7F)c([H])c6[H])c(C(=O)N([H])[H])c5N([H])[H])C4([H])[H])c3[H])C([H])([H])[H])c([H])c([H])c2C1([H])[H]

>  <smiles>  (54) 
[H]c1c([H])c([H])c2c(c1[H])C([H])([H])C([H])([H])C([H])([H])C2([H])N([H])C(=O)C1([H])N(C(=O)C([H])(N([H])C(=O)C([H])(N([H])C([H])([H])[H])C([H])([H])[H])C(C([H])([H])[H])(C([H])([H])[H])C([H])([H])[H])C([H])([H])c2c([H])c(OC([H])([H])C([H])(c3c([H])c([H])n(C([H])([H])C([H])([H])N([H])C(=O)N4C([H])([H])C([H])([H])C([H])([H])C([H])(n5nc(-c6c([H])c([H])c(Oc7c([H])c([H])c(F)c([H])c7F)c([H])c6[H])c(C(=O)N([H])[H])c5N([H])[H])C4([H])[H])c3[H])C([H])([H])[H])c([H])c([H])c2C1([H])[H]

$$$$
54:0:0
     RDKit          3D

 98106  0  0  1  0  0  0  0  0999 V2000
  -29.3410  -17.9380   20.0870 C   0  0  0  0  0  3  0  0  0  0  0  0
  -31.3960  -18.5990   20.5240 C   0  0  0  0  0  3  0  0  0  0  0  0
  -30.6050  -17.3990   20.4400 C   0  0  0  0  0  0  0  0  0  0  0  0
  -29.3520  -19.3130   20.0260 C   0  0  0  0  0  0  0  0  0  0  0  0
  -30.6180  -19.8490   20.2960 N   0  0  0  0  0  0  0  0  0  0  0  0
  -31.4170  -14.6750   20.8020 C   0  0  0  0  0  0  0  0  0  0  0  0
  -31.1700  -12.2240   20.1460 C   0  0  0  0  0  2  0  0  0  0  0  0
  -30.3200  -12.0940   18.8570 C   0  0  0  0  0  2  0  0  0  0  0  0
  -28.8100  -12.0650   19.1820 C   0  0  0  0  0  2  0  0  0  0  0  0
  -28.3980  -13.1730   20.1880 C   0  0  0  0  0  3  0  0  0  0  0  0
  -29.3740  -13.2400   21.3900 C   0  0  0  0  0  2  0  0  0  0  0  0
  -30.7300  -13.4600   20.8440 N   0  0  0  0  0  0  0  0  0  0  0  0
  -32.6540  -14.6320   20.7270 O   0  0  0  0  0  0  0  0  0  0  0  0
  -30.6400  -15.8430   20.5300 N   0  0  0  0  0  0  0  0  0  0  0  0
  -29.7050  -15.5000   20.3910 H   0  0  0  0  0  0  0  0  0  0  0  0
  -26.0890  -14.0810   20.8580 C   0  0  0  0  0  0  0  0  0  0  0  0
  -24.8940  -13.4670   21.1070 C   0  0  0  0  0  0  0  0  0  0  0  0
  -25.1430  -12.0640   20.9960 C   0  0  0  0  0  0  0  0  0  0  0  0
  -26.9990  -13.0640   20.5950 N   0  0  0  0  0  0  0  0  0  0  0  0
  -26.4300  -11.8410   20.7570 N   0  0  0  0  0  0  0  0  0  0  0  0
  -24.2140  -10.9270   21.0480 C   0  0  0  0  0  0  0  0  0  0  0  0
  -24.4690   -9.7980   21.8550 C   0  0  0  0  0  3  0  0  0  0  0  0
  -23.5500   -8.7270   21.8970 C   0  0  0  0  0  3  0  0  0  0  0  0
  -22.3580   -8.7820   21.1350 C   0  0  0  0  0  0  0  0  0  0  0  0
  -22.1180   -9.9000   20.3150 C   0  0  0  0  0  3  0  0  0  0  0  0
  -23.0380  -10.9650   20.2670 C   0  0  0  0  0  3  0  0  0  0  0  0
  -21.4160   -7.7840   21.1090 O   0  0  0  0  0  0  0  0  0  0  0  0
  -21.2820   -6.8910   22.1460 C   0  0  0  0  0  0  0  0  0  0  0  0
  -21.0080   -7.3140   23.4630 C   0  0  0  0  0  3  0  0  0  0  0  0
  -20.8050   -6.3610   24.4820 C   0  0  0  0  0  3  0  0  0  0  0  0
  -20.8620   -4.9860   24.1830 C   0  0  0  0  0  0  0  0  0  0  0  0
  -21.1240   -4.5640   22.8670 C   0  0  0  0  0  3  0  0  0  0  0  0
  -21.3300   -5.5130   21.8520 C   0  0  0  0  0  0  0  0  0  0  0  0
  -21.5630   -5.0980   20.5850 F   0  0  0  0  0  0  0  0  0  0  0  0
  -20.6540   -4.0710   25.1580 F   0  0  0  0  0  0  0  0  0  0  0  0
  -23.5690  -14.1430   21.3190 C   0  0  0  0  0  0  0  0  0  0  0  0
  -22.6880  -13.5560   22.1270 N   0  0  0  0  0  0  0  0  0  0  0  0
  -23.3230  -15.2330   20.8060 O   0  0  0  0  0  0  0  0  0  0  0  0
  -22.8850  -12.6720   22.5770 H   0  0  0  0  0  0  0  0  0  0  0  0
  -21.7960  -13.9970   22.2990 H   0  0  0  0  0  0  0  0  0  0  0  0
  -26.4870  -15.4140   20.8070 N   0  0  0  0  0  0  0  0  0  0  0  0
  -25.8800  -16.1750   21.0820 H   0  0  0  0  0  0  0  0  0  0  0  0
  -27.4480  -15.6920   20.6720 H   0  0  0  0  0  0  0  0  0  0  0  0
  -28.1590  -20.1080   19.7520 C   0  0  0  0  0  0  0  0  0  0  0  0
  -27.3030  -19.4670   18.9560 N   0  0  0  0  0  0  0  0  0  0  0  0
  -27.9720  -21.2270   20.2380 O   0  0  0  0  0  0  0  0  0  0  0  0
  -27.6300  -18.5660   18.6360 H   0  0  0  0  0  0  0  0  0  0  0  0
  -26.0430  -20.6720   17.3010 C   0  0  0  0  0  1  0  0  0  0  0  0
  -25.9410  -19.8390   18.5940 C   0  0  0  0  0  3  0  0  0  0  0  0
  -25.1250  -18.5250   18.4180 C   0  0  0  0  0  2  0  0  0  0  0  0
  -23.3070  -19.0510   20.0590 C   0  0  0  0  0  1  0  0  0  0  0  0
  -23.7750  -16.7380   19.4260 C   0  0  0  0  0  1  0  0  0  0  0  0
  -24.3440  -18.0930   19.6120 N   0  0  1  0  0  4  0  0  0  0  0  0
  -25.0000  -18.0010   20.3740 H   0  0  0  0  0  0  0  0  0  0  0  0
  -30.9600  -21.4250   20.4850 C   0  0  0  0  0  2  0  0  0  0  0  0
  -30.1700  -22.8390   19.8990 C   0  0  0  0  0  2  0  0  0  0  0  0
  -29.9940  -24.3590   20.6920 C   0  0  0  0  0  2  0  0  0  0  0  0
  -30.0190  -25.8730   20.2390 O   0  0  0  0  0  0  0  0  0  0  0  0
  -26.4390  -31.0160   24.2850 C   0  0  0  0  0  0  0  0  0  0  0  0
  -28.9970  -26.8870   20.4340 C   0  0  0  0  0  0  0  0  0  0  0  0
  -25.3400  -30.1730   22.2440 C   0  0  0  0  0  3  0  0  0  0  0  0
  -26.8220  -28.8240   20.6230 C   0  0  0  0  0  0  0  0  0  0  0  0
  -27.9100  -30.2060   22.3930 C   0  0  0  0  0  2  0  0  0  0  0  0
  -27.9550  -28.9940   21.4330 C   0  0  0  0  0  0  0  0  0  0  0  0
  -29.0420  -28.0470   21.3210 C   0  0  0  0  0  3  0  0  0  0  0  0
  -27.8530  -26.8260   19.6220 C   0  0  0  0  0  3  0  0  0  0  0  0
  -26.7860  -27.7550   19.7140 C   0  0  0  0  0  3  0  0  0  0  0  0
  -25.6770  -29.8160   20.7680 C   0  0  0  0  0  2  0  0  0  0  0  0
  -26.5800  -30.4760   23.0340 N   0  0  0  0  0  0  0  0  0  0  0  0
  -25.3200  -31.2700   24.7610 O   0  0  0  0  0  0  0  0  0  0  0  0
  -24.4820  -29.0410   22.8610 C   0  0  0  0  0  0  0  0  0  0  0  0
  -23.1660  -29.0440   22.5770 N   0  0  0  0  0  0  0  0  0  0  0  0
  -25.0040  -28.1730   23.5640 O   0  0  0  0  0  0  0  0  0  0  0  0
  -22.8070  -29.7960   22.0050 H   0  0  0  0  0  0  0  0  0  0  0  0
  -19.6770  -28.0980   22.4140 C   0  0  0  0  0  0  0  0  0  0  0  0
  -22.1950  -28.0320   23.0020 C   0  0  0  0  0  3  0  0  0  0  0  0
  -22.2680  -26.7760   22.0980 C   0  0  0  0  0  2  0  0  0  0  0  0
  -21.2770  -26.8170   20.9310 C   0  0  0  0  0  2  0  0  0  0  0  0
  -19.8400  -26.9350   21.4490 C   0  0  0  0  0  2  0  0  0  0  0  0
  -20.7830  -28.6190   23.1310 C   0  0  0  0  0  0  0  0  0  0  0  0
  -20.5760  -29.7260   23.9900 C   0  0  0  0  0  3  0  0  0  0  0  0
  -19.2950  -30.2830   24.1460 C   0  0  0  0  0  3  0  0  0  0  0  0
  -18.1980  -29.7500   23.4480 C   0  0  0  0  0  3  0  0  0  0  0  0
  -18.3920  -28.6570   22.5820 C   0  0  0  0  0  3  0  0  0  0  0  0
  -27.6740  -31.3560   25.1700 C   0  0  0  0  0  3  0  0  0  0  0  0
  -27.3970  -32.6200   25.8680 N   0  0  0  0  0  0  0  0  0  0  0  0
  -27.9240  -33.8080   25.5400 C   0  0  0  0  0  0  0  0  0  0  0  0
  -28.7600  -33.9350   24.6390 O   0  0  0  0  0  0  0  0  0  0  0  0
  -26.6830  -32.5950   26.5810 H   0  0  0  0  0  0  0  0  0  0  0  0
  -26.4310  -35.8320   25.5000 C   0  0  0  0  0  1  0  0  0  0  0  0
  -27.4540  -35.0440   26.3330 C   0  0  0  0  0  3  0  0  0  0  0  0
  -29.4430  -35.3580   27.7420 C   0  0  0  0  0  1  0  0  0  0  0  0
  -28.5610  -35.9410   26.7350 N   0  0  0  0  0  0  0  0  0  0  0  0
  -28.2010  -36.8210   27.0980 H   0  0  0  0  0  0  0  0  0  0  0  0
  -28.0140  -30.2220   26.2150 C   0  0  1  0  0  0  0  0  0  0  0  0
  -26.8100  -29.7860   27.0830 C   0  0  0  0  0  1  0  0  0  0  0  0
  -28.5550  -28.9640   25.5030 C   0  0  0  0  0  1  0  0  0  0  0  0
  -29.1380  -30.7010   27.1680 C   0  0  0  0  0  1  0  0  0  0  0  0
  1  3  1  0
  3  2  2  0
  3 14  1  0
  4  1  2  0
  4  5  1  0
  5 55  1  0
  5  2  1  0
  6 12  1  0
  7 12  1  0
  8  9  1  0
  8  7  1  0
 10  9  1  0
 10 19  1  0
 10 11  1  0
 12 11  1  0
 13  6  2  0
 14  6  1  0
 15 14  1  0
 16 17  2  0
 17 36  1  0
 18 21  1  0
 18 17  1  0
 19 20  1  0
 19 16  1  0
 20 18  2  0
 21 22  1  0
 22 23  2  0
 24 23  1  0
 25 24  2  0
 26 25  1  0
 26 21  2  0
 27 24  1  0
 27 28  1  0
 28 29  1  0
 29 30  2  0
 31 30  1  0
 31 35  1  0
 32 31  2  0
 33 28  2  0
 33 32  1  0
 34 33  1  0
 36 37  1  0
 37 40  1  0
 37 39  1  0
 38 36  2  0
 41 16  1  0
 41 42  1  0
 43 41  1  0
 44  4  1  0
 44 46  2  0
 45 44  1  0
 47 45  1  0
 49 48  1  0
 49 45  1  0
 50 49  1  0
 50 53  1  0
 52 53  1  0
 53 51  1  0
 53 54  1  1
 56 55  1  0
 56 57  1  0
 58 60  1  0
 58 57  1  0
 59 70  2  0
 60 65  1  0
 61 71  1  0
 61 69  1  0
 62 68  1  0
 62 64  1  0
 63 69  1  0
 64 63  1  0
 65 64  2  0
 66 67  1  0
 66 60  2  0
 67 62  2  0
 68 61  1  0
 69 59  1  0
 71 73  2  0
 72 71  1  0
 74 72  1  0
 75 84  2  0
 75 80  1  0
 76 72  1  0
 76 80  1  0
 77 76  1  0
 78 79  1  0
 78 77  1  0
 79 75  1  0
 80 81  2  0
 81 82  1  0
 83 82  2  0
 84 83  1  0
 85 59  1  0
 85 86  1  0
 85 95  1  0
 86 89  1  0
 87 86  1  0
 87 91  1  0
 88 87  2  0
 91 90  1  0
 91 93  1  0
 93 94  1  0
 93 92  1  0
 95 96  1  1
 95 98  1  0
 97 95  1  0
M  ISO  4   6 100  14 100  57 101  58 101
M  END
>  <TORSDO>  (55) 
F 23

>  <SCORE>  (55) 
-2.723

>  <name>  (55) 
54

>  <ligand_id>  (55) 
54

>  <original_smiles>  (55) 
[H]c1c([H])c([H])c2c(c1[H])C([H])([H])C([H])([H])C([H])([H])C2([H])N([H])C(=O)C1([H])N(C(=O)C([H])(N([H])C(=O)C([H])(N([H])C([H])([H])[H])C([H])([H])[H])C(C([H])([H])[H])(C([H])([H])[H])C([H])([H])[H])C([H])([H])c2c([H])c(OC([H])([H])C([H])([H])C([H])([H])n3c([H])c(N([H])C(=O)N4C([H])([H])C([H])([H])C([H])([H])C([H])(n5nc(-c6c([H])c([H])c(Oc7c([H])c([H])c(F)c([H])c7F)c([H])c6[H])c(C(=O)N([H])[H])c5N([H])[H])C4([H])[H])c([H])c3C(=O)N([H])C([H])(C([H])([H])[H])C([H])([H])[N+]([H])(C([H])([H])[H])C([H])([H])[H])c([H])c([H])c2C1([H])[H]

>  <smiles>  (55) 
[H]c1c([H])c([H])c2c(c1[H])C([H])([H])C([H])([H])C([H])([H])C2([H])N([H])C(=O)C1([H])N(C(=O)C([H])(N([H])C(=O)C([H])(N([H])C([H])([H])[H])C([H])([H])[H])C(C([H])([H])[H])(C([H])([H])[H])C([H])([H])[H])C([H])([H])c2c([H])c(OC([H])([H])C([H])([H])C([H])([H])n3c([H])c(N([H])C(=O)N4C([H])([H])C([H])([H])C([H])([H])C([H])(n5nc(-c6c([H])c([H])c(Oc7c([H])c([H])c(F)c([H])c7F)c([H])c6[H])c(C(=O)N([H])[H])c5N([H])[H])C4([H])[H])c([H])c3C(=O)N([H])C([H])(C([H])([H])[H])C([H])([H])[N+]([H])(C([H])([H])[H])C([H])([H])[H])c([H])c([H])c2C1([H])[H]

$$$$
55:0:0
     RDKit          3D

 88 96  0  0  1  0  0  0  0  0999 V2000
  -29.0560  -20.5750   21.2920 C   0  0  0  0  0  3  0  0  0  0  0  0
  -28.6360  -21.9960   21.2980 C   0  0  0  0  0  3  0  0  0  0  0  0
  -29.5240  -19.8230   20.1390 C   0  0  0  0  0  0  0  0  0  0  0  0
  -28.6500  -22.9010   20.1630 C   0  0  0  0  0  0  0  0  0  0  0  0
  -29.4800  -20.7920   19.0440 C   0  0  0  0  0  0  0  0  0  0  0  0
  -29.9230  -20.3200   17.6730 C   0  0  0  0  0  1  0  0  0  0  0  0
  -29.0750  -22.1570   19.0590 N   0  0  0  0  0  0  0  0  0  0  0  0
  -30.2700  -18.2420   20.0830 C   0  0  0  0  0  2  0  0  0  0  0  0
  -30.5090  -15.3670   20.1060 C   0  0  0  0  0  0  0  0  0  0  0  0
  -30.4100  -12.9680   19.1260 C   0  0  0  0  0  2  0  0  0  0  0  0
  -29.4180  -12.7890   17.9470 C   0  0  0  0  0  2  0  0  0  0  0  0
  -27.9980  -12.4910   18.4560 C   0  0  0  0  0  2  0  0  0  0  0  0
  -27.6040  -13.4190   19.6290 C   0  0  0  0  0  3  0  0  0  0  0  0
  -28.7190  -13.5080   20.7000 C   0  0  0  0  0  2  0  0  0  0  0  0
  -29.9090  -14.0720   20.0250 N   0  0  0  0  0  0  0  0  0  0  0  0
  -31.7050  -15.3490   19.7740 O   0  0  0  0  0  0  0  0  0  0  0  0
  -28.5420  -16.6980   21.0090 C   0  0  0  0  0  1  0  0  0  0  0  0
  -29.8140  -16.6740   20.3060 N   0  0  0  0  0  0  0  0  0  0  0  0
  -25.2560  -13.9480   20.4980 C   0  0  0  0  0  0  0  0  0  0  0  0
  -24.2210  -13.1550   20.9030 C   0  0  0  0  0  0  0  0  0  0  0  0
  -24.6960  -11.8120   20.8120 C   0  0  0  0  0  0  0  0  0  0  0  0
  -26.2990  -13.0900   20.1910 N   0  0  0  0  0  0  0  0  0  0  0  0
  -25.9730  -11.7950   20.4450 N   0  0  0  0  0  0  0  0  0  0  0  0
  -23.9840  -10.5420   20.9950 C   0  0  0  0  0  0  0  0  0  0  0  0
  -24.4320   -9.5720   21.9190 C   0  0  0  0  0  3  0  0  0  0  0  0
  -23.7180   -8.3660   22.0930 C   0  0  0  0  0  3  0  0  0  0  0  0
  -22.5440   -8.1230   21.3420 C   0  0  0  0  0  0  0  0  0  0  0  0
  -22.1160   -9.0810   20.4060 C   0  0  0  0  0  3  0  0  0  0  0  0
  -22.8300  -10.2780   20.2300 C   0  0  0  0  0  3  0  0  0  0  0  0
  -21.8000   -6.9710   21.4270 O   0  0  0  0  0  0  0  0  0  0  0  0
  -21.7160   -6.2540   22.5940 C   0  0  0  0  0  0  0  0  0  0  0  0
  -21.2040   -6.8220   23.7810 C   0  0  0  0  0  3  0  0  0  0  0  0
  -21.0690   -6.0300   24.9390 C   0  0  0  0  0  3  0  0  0  0  0  0
  -21.4360   -4.6710   24.9090 C   0  0  0  0  0  0  0  0  0  0  0  0
  -21.9420   -4.1030   23.7260 C   0  0  0  0  0  3  0  0  0  0  0  0
  -22.0770   -4.8920   22.5710 C   0  0  0  0  0  0  0  0  0  0  0  0
  -22.5430   -4.3340   21.4280 F   0  0  0  0  0  0  0  0  0  0  0  0
  -21.3010   -3.9070   26.0190 F   0  0  0  0  0  0  0  0  0  0  0  0
  -22.8350  -13.6160   21.2480 C   0  0  0  0  0  0  0  0  0  0  0  0
  -22.1510  -12.8970   22.1320 N   0  0  0  0  0  0  0  0  0  0  0  0
  -22.3680  -14.6510   20.7720 O   0  0  0  0  0  0  0  0  0  0  0  0
  -22.5440  -12.0630   22.5440 H   0  0  0  0  0  0  0  0  0  0  0  0
  -21.2220  -13.1860   22.4020 H   0  0  0  0  0  0  0  0  0  0  0  0
  -25.3760  -15.3230   20.3330 N   0  0  0  0  0  0  0  0  0  0  0  0
  -24.5910  -15.9470   20.4810 H   0  0  0  0  0  0  0  0  0  0  0  0
  -26.1730  -15.7820   19.9120 H   0  0  0  0  0  0  0  0  0  0  0  0
  -27.8390  -24.4320   20.0110 C   0  0  0  0  0  2  0  0  0  0  0  0
  -28.1900  -25.9980   20.2780 O   0  0  0  0  0  0  0  0  0  0  0  0
  -24.6520  -31.9380   23.2450 C   0  0  0  0  0  0  0  0  0  0  0  0
  -27.1850  -27.0900   20.2100 C   0  0  0  0  0  0  0  0  0  0  0  0
  -23.4440  -30.5480   21.6120 C   0  0  0  0  0  3  0  0  0  0  0  0
  -24.8810  -28.9470   20.1820 C   0  0  0  0  0  0  0  0  0  0  0  0
  -26.0100  -30.7600   21.4520 C   0  0  0  0  0  2  0  0  0  0  0  0
  -26.0730  -29.3560   20.7950 C   0  0  0  0  0  0  0  0  0  0  0  0
  -27.2180  -28.4460   20.7880 C   0  0  0  0  0  3  0  0  0  0  0  0
  -25.9620  -26.8250   19.5500 C   0  0  0  0  0  3  0  0  0  0  0  0
  -24.8470  -27.7000   19.5420 C   0  0  0  0  0  3  0  0  0  0  0  0
  -23.6630  -29.8670   20.2340 C   0  0  0  0  0  2  0  0  0  0  0  0
  -24.7230  -31.1090   22.1560 N   0  0  0  0  0  0  0  0  0  0  0  0
  -23.5660  -32.2300   23.7720 O   0  0  0  0  0  0  0  0  0  0  0  0
  -22.7550  -29.5510   22.5800 C   0  0  0  0  0  0  0  0  0  0  0  0
  -21.4250  -29.3800   22.4540 N   0  0  0  0  0  0  0  0  0  0  0  0
  -23.4230  -28.9320   23.4130 O   0  0  0  0  0  0  0  0  0  0  0  0
  -20.9400  -29.9300   21.7590 H   0  0  0  0  0  0  0  0  0  0  0  0
  -18.0470  -28.1630   22.9620 C   0  0  0  0  0  0  0  0  0  0  0  0
  -20.6050  -28.4420   23.2290 C   0  0  0  0  0  3  0  0  0  0  0  0
  -20.7140  -27.0070   22.6610 C   0  0  0  0  0  2  0  0  0  0  0  0
  -19.6150  -26.6740   21.6470 C   0  0  0  0  0  2  0  0  0  0  0  0
  -18.2310  -26.8140   22.2880 C   0  0  0  0  0  2  0  0  0  0  0  0
  -19.1620  -28.9350   23.3890 C   0  0  0  0  0  0  0  0  0  0  0  0
  -18.9330  -30.1960   23.9790 C   0  0  0  0  0  3  0  0  0  0  0  0
  -17.6250  -30.6870   24.1480 C   0  0  0  0  0  3  0  0  0  0  0  0
  -16.5260  -29.9130   23.7360 C   0  0  0  0  0  3  0  0  0  0  0  0
  -16.7370  -28.6540   23.1490 C   0  0  0  0  0  3  0  0  0  0  0  0
  -25.9300  -32.5750   23.8710 C   0  0  0  0  0  3  0  0  0  0  0  0
  -25.6180  -33.9770   24.2010 N   0  0  0  0  0  0  0  0  0  0  0  0
  -25.9260  -35.0340   23.4390 C   0  0  0  0  0  0  0  0  0  0  0  0
  -26.5660  -34.9340   22.3900 O   0  0  0  0  0  0  0  0  0  0  0  0
  -25.0480  -34.1260   25.0210 H   0  0  0  0  0  0  0  0  0  0  0  0
  -24.1760  -36.8260   23.1570 C   0  0  0  0  0  1  0  0  0  0  0  0
  -25.4500  -36.4230   23.9160 C   0  0  0  0  0  3  0  0  0  0  0  0
  -27.6070  -37.3310   24.6630 C   0  0  0  0  0  1  0  0  0  0  0  0
  -26.4710  -37.4820   23.7590 N   0  0  0  0  0  0  0  0  0  0  0  0
  -26.0630  -38.3990   23.9130 H   0  0  0  0  0  0  0  0  0  0  0  0
  -26.4350  -31.8130   25.1580 C   0  0  1  0  0  0  0  0  0  0  0  0
  -25.3360  -31.5910   26.2240 C   0  0  0  0  0  1  0  0  0  0  0  0
  -27.0200  -30.4300   24.7910 C   0  0  0  0  0  1  0  0  0  0  0  0
  -27.5800  -32.6140   25.8220 C   0  0  0  0  0  1  0  0  0  0  0  0
  1  2  1  0
  3  1  2  0
  4  2  2  0
  5  7  2  0
  5  3  1  0
  6  5  1  0
  7  4  1  0
  8  3  1  0
  8 18  1  0
  9 18  1  0
 10 15  1  0
 11 12  1  0
 11 10  1  0
 13 12  1  0
 13 22  1  0
 13 14  1  0
 15  9  1  0
 15 14  1  0
 16  9  2  0
 18 17  1  0
 19 20  2  0
 20 39  1  0
 21 20  1  0
 21 24  1  0
 22 23  1  0
 22 19  1  0
 23 21  2  0
 24 25  1  0
 25 26  2  0
 27 30  1  0
 27 26  1  0
 28 27  2  0
 29 28  1  0
 29 24  2  0
 30 31  1  0
 31 32  1  0
 32 33  2  0
 34 33  1  0
 34 38  1  0
 35 34  2  0
 36 31  2  0
 36 35  1  0
 37 36  1  0
 39 40  1  0
 40 43  1  0
 40 42  1  0
 41 39  2  0
 44 45  1  0
 44 19  1  0
 46 44  1  0
 47  4  1  0
 47 48  1  0
 49 60  2  0
 50 48  1  0
 50 55  1  0
 51 59  1  0
 51 61  1  0
 52 58  1  0
 52 54  1  0
 53 59  1  0
 54 53  1  0
 55 54  2  0
 56 50  2  0
 57 56  1  0
 57 52  2  0
 58 51  1  0
 59 49  1  0
 61 63  2  0
 62 61  1  0
 64 62  1  0
 65 74  2  0
 65 70  1  0
 66 62  1  0
 66 70  1  0
 67 66  1  0
 68 69  1  0
 68 67  1  0
 69 65  1  0
 70 71  2  0
 71 72  1  0
 73 72  2  0
 74 73  1  0
 75 49  1  0
 75 76  1  0
 75 85  1  0
 76 79  1  0
 77 81  1  0
 77 76  1  0
 78 77  2  0
 81 80  1  0
 83 84  1  0
 83 81  1  0
 83 82  1  0
 85 88  1  1
 85 86  1  0
 87 85  1  0
M  ISO  4   9 100  18 100  47 101  48 101
M  END
>  <TORSDO>  (56) 
F 18

>  <SCORE>  (56) 
-15.748

>  <name>  (56) 
55

>  <ligand_id>  (56) 
55

>  <original_smiles>  (56) 
[H]c1c(C([H])([H])Oc2c([H])c([H])c3c(c2[H])C([H])([H])N(C(=O)C([H])(N([H])C(=O)C([H])(N([H])C([H])([H])[H])C([H])([H])[H])C(C([H])([H])[H])(C([H])([H])[H])C([H])([H])[H])C([H])(C(=O)N([H])C2([H])c4c([H])c([H])c([H])c([H])c4C([H])([H])C([H])([H])C2([H])[H])C3([H])[H])nc(C([H])([H])[H])c(C([H])([H])N(C(=O)N2C([H])([H])C([H])([H])C([H])([H])C([H])(n3nc(-c4c([H])c([H])c(Oc5c([H])c([H])c(F)c([H])c5F)c([H])c4[H])c(C(=O)N([H])[H])c3N([H])[H])C2([H])[H])C([H])([H])[H])c1[H]

>  <smiles>  (56) 
[H]c1c(C([H])([H])Oc2c([H])c([H])c3c(c2[H])C([H])([H])N(C(=O)C([H])(N([H])C(=O)C([H])(N([H])C([H])([H])[H])C([H])([H])[H])C(C([H])([H])[H])(C([H])([H])[H])C([H])([H])[H])C([H])(C(=O)N([H])C2([H])c4c([H])c([H])c([H])c([H])c4C([H])([H])C([H])([H])C2([H])[H])C3([H])[H])nc(C([H])([H])[H])c(C([H])([H])N(C(=O)N2C([H])([H])C([H])([H])C([H])([H])C([H])(n3nc(-c4c([H])c([H])c(Oc5c([H])c([H])c(F)c([H])c5F)c([H])c4[H])c(C(=O)N([H])[H])c3N([H])[H])C2([H])[H])C([H])([H])[H])c1[H]

$$$$
56:0:0
     RDKit          3D

 88 96  0  0  1  0  0  0  0  0999 V2000
  -29.7020  -19.6880   18.0020 C   0  0  0  0  0  3  0  0  0  0  0  0
  -29.3240  -20.8930   18.6330 C   0  0  0  0  0  3  0  0  0  0  0  0
  -29.8220  -18.4330   18.6620 C   0  0  0  0  0  0  0  0  0  0  0  0
  -29.0380  -20.9510   20.0020 C   0  0  0  0  0  0  0  0  0  0  0  0
  -29.5680  -18.2760   20.0550 C   0  0  0  0  0  0  0  0  0  0  0  0
  -30.1890  -17.2500   17.7770 C   0  0  0  0  0  1  0  0  0  0  0  0
  -29.1710  -19.6020   20.6480 N   0  0  0  0  0  0  0  0  0  0  0  0
  -30.3620  -15.4250   20.4300 C   0  0  0  0  0  0  0  0  0  0  0  0
  -30.4030  -12.9280   19.6580 C   0  0  0  0  0  2  0  0  0  0  0  0
  -29.5390  -12.6630   18.3970 C   0  0  0  0  0  2  0  0  0  0  0  0
  -28.0800  -12.3750   18.7910 C   0  0  0  0  0  2  0  0  0  0  0  0
  -27.5750  -13.3640   19.8690 C   0  0  0  0  0  3  0  0  0  0  0  0
  -28.5760  -13.5770   21.0280 C   0  0  0  0  0  2  0  0  0  0  0  0
  -29.8200  -14.0960   20.4330 N   0  0  0  0  0  0  0  0  0  0  0  0
  -31.5800  -15.3990   20.1880 O   0  0  0  0  0  0  0  0  0  0  0  0
  -29.6020  -16.7170   20.5920 N   0  0  0  0  0  0  0  0  0  0  0  0
  -28.7510  -16.5150   21.0920 H   0  0  0  0  0  0  0  0  0  0  0  0
  -25.1840  -13.9180   20.5430 C   0  0  0  0  0  0  0  0  0  0  0  0
  -24.1130  -13.1430   20.8890 C   0  0  0  0  0  0  0  0  0  0  0  0
  -24.5840  -11.7930   20.8870 C   0  0  0  0  0  0  0  0  0  0  0  0
  -26.2350  -13.0430   20.3390 N   0  0  0  0  0  0  0  0  0  0  0  0
  -25.8850  -11.7590   20.6150 N   0  0  0  0  0  0  0  0  0  0  0  0
  -23.8520  -10.5320   21.0670 C   0  0  0  0  0  0  0  0  0  0  0  0
  -24.2620   -9.5680   22.0150 C   0  0  0  0  0  3  0  0  0  0  0  0
  -23.5280   -8.3740   22.1850 C   0  0  0  0  0  3  0  0  0  0  0  0
  -22.3700   -8.1350   21.4060 C   0  0  0  0  0  0  0  0  0  0  0  0
  -21.9800   -9.0880   20.4490 C   0  0  0  0  0  3  0  0  0  0  0  0
  -22.7150  -10.2730   20.2770 C   0  0  0  0  0  3  0  0  0  0  0  0
  -21.6100   -6.9930   21.4840 O   0  0  0  0  0  0  0  0  0  0  0  0
  -21.5400   -6.2510   22.6360 C   0  0  0  0  0  0  0  0  0  0  0  0
  -21.1040   -6.8100   23.8570 C   0  0  0  0  0  3  0  0  0  0  0  0
  -20.9830   -5.9960   25.0010 C   0  0  0  0  0  3  0  0  0  0  0  0
  -21.2850   -4.6240   24.9230 C   0  0  0  0  0  0  0  0  0  0  0  0
  -21.7130   -4.0630   23.7080 C   0  0  0  0  0  3  0  0  0  0  0  0
  -21.8370   -4.8740   22.5660 C   0  0  0  0  0  0  0  0  0  0  0  0
  -22.2300   -4.3260   21.3910 F   0  0  0  0  0  0  0  0  0  0  0  0
  -21.1610   -3.8390   26.0200 F   0  0  0  0  0  0  0  0  0  0  0  0
  -22.7080  -13.6210   21.1050 C   0  0  0  0  0  0  0  0  0  0  0  0
  -21.9510  -12.9350   21.9550 N   0  0  0  0  0  0  0  0  0  0  0  0
  -22.2880  -14.6390   20.5560 O   0  0  0  0  0  0  0  0  0  0  0  0
  -22.3030  -12.1130   22.4210 H   0  0  0  0  0  0  0  0  0  0  0  0
  -21.0060  -13.2390   22.1420 H   0  0  0  0  0  0  0  0  0  0  0  0
  -25.3470  -15.2880   20.3530 N   0  0  0  0  0  0  0  0  0  0  0  0
  -24.5690  -15.9350   20.4180 H   0  0  0  0  0  0  0  0  0  0  0  0
  -26.1890  -15.7180   19.9910 H   0  0  0  0  0  0  0  0  0  0  0  0
  -28.7360  -22.5900   20.6220 C   0  0  0  0  0  2  0  0  0  0  0  0
  -28.1240  -24.1790   19.9150 C   0  0  0  0  0  2  0  0  0  0  0  0
  -28.1920  -25.8230   20.2780 O   0  0  0  0  0  0  0  0  0  0  0  0
  -24.6150  -31.8610   23.1590 C   0  0  0  0  0  0  0  0  0  0  0  0
  -27.1830  -26.9380   20.1620 C   0  0  0  0  0  0  0  0  0  0  0  0
  -23.4240  -30.4480   21.5330 C   0  0  0  0  0  3  0  0  0  0  0  0
  -24.8780  -28.8380   20.1080 C   0  0  0  0  0  0  0  0  0  0  0  0
  -25.9900  -30.6590   21.3800 C   0  0  0  0  0  2  0  0  0  0  0  0
  -26.0640  -29.2420   20.7300 C   0  0  0  0  0  0  0  0  0  0  0  0
  -27.2060  -28.3130   20.7340 C   0  0  0  0  0  3  0  0  0  0  0  0
  -25.9690  -26.7020   19.4790 C   0  0  0  0  0  3  0  0  0  0  0  0
  -24.8570  -27.5900   19.4610 C   0  0  0  0  0  3  0  0  0  0  0  0
  -23.6530  -29.7550   20.1590 C   0  0  0  0  0  2  0  0  0  0  0  0
  -24.6990  -31.0200   22.0760 N   0  0  0  0  0  0  0  0  0  0  0  0
  -23.5250  -32.1480   23.6830 O   0  0  0  0  0  0  0  0  0  0  0  0
  -22.7370  -29.4570   22.5080 C   0  0  0  0  0  0  0  0  0  0  0  0
  -21.4040  -29.2930   22.3980 N   0  0  0  0  0  0  0  0  0  0  0  0
  -23.4090  -28.8360   23.3350 O   0  0  0  0  0  0  0  0  0  0  0  0
  -20.9140  -29.8440   21.7070 H   0  0  0  0  0  0  0  0  0  0  0  0
  -18.0280  -28.0760   22.9420 C   0  0  0  0  0  0  0  0  0  0  0  0
  -20.5900  -28.3570   23.1800 C   0  0  0  0  0  3  0  0  0  0  0  0
  -20.6920  -26.9220   22.6100 C   0  0  0  0  0  2  0  0  0  0  0  0
  -19.5830  -26.5920   21.6070 C   0  0  0  0  0  2  0  0  0  0  0  0
  -18.2070  -26.7280   22.2630 C   0  0  0  0  0  2  0  0  0  0  0  0
  -19.1480  -28.8470   23.3590 C   0  0  0  0  0  0  0  0  0  0  0  0
  -18.9250  -30.1050   23.9580 C   0  0  0  0  0  3  0  0  0  0  0  0
  -17.6170  -30.5950   24.1420 C   0  0  0  0  0  3  0  0  0  0  0  0
  -16.5140  -29.8220   23.7400 C   0  0  0  0  0  3  0  0  0  0  0  0
  -16.7200  -28.5640   23.1470 C   0  0  0  0  0  3  0  0  0  0  0  0
  -25.8820  -32.5180   23.7850 C   0  0  0  0  0  3  0  0  0  0  0  0
  -25.5480  -33.9090   24.1370 N   0  0  0  0  0  0  0  0  0  0  0  0
  -25.8650  -34.9860   23.4050 C   0  0  0  0  0  0  0  0  0  0  0  0
  -26.5310  -34.9130   22.3700 O   0  0  0  0  0  0  0  0  0  0  0  0
  -24.9540  -34.0380   24.9430 H   0  0  0  0  0  0  0  0  0  0  0  0
  -24.1190  -36.7760   23.1050 C   0  0  0  0  0  1  0  0  0  0  0  0
  -25.3680  -36.3620   23.8980 C   0  0  0  0  0  3  0  0  0  0  0  0
  -27.5000  -37.2520   24.7350 C   0  0  0  0  0  1  0  0  0  0  0  0
  -26.3910  -37.4280   23.8010 N   0  0  0  0  0  0  0  0  0  0  0  0
  -25.9760  -38.3410   23.9700 H   0  0  0  0  0  0  0  0  0  0  0  0
  -26.4120  -31.7490   25.0600 C   0  0  1  0  0  0  0  0  0  0  0  0
  -25.3260  -31.5010   26.1340 C   0  0  0  0  0  1  0  0  0  0  0  0
  -27.0050  -30.3760   24.6730 C   0  0  0  0  0  1  0  0  0  0  0  0
  -27.5580  -32.5530   25.7160 C   0  0  0  0  0  1  0  0  0  0  0  0
  1  2  2  0
  1  3  1  0
  2  4  1  0
  3  5  2  0
  4 46  1  0
  4  7  2  0
  5 16  1  0
  5  7  1  0
  6  3  1  0
  8 14  1  0
  8 16  1  0
  9 14  1  0
 10 11  1  0
 10  9  1  0
 12 11  1  0
 12 21  1  0
 12 13  1  0
 14 13  1  0
 15  8  2  0
 16 17  1  0
 18 19  2  0
 19 38  1  0
 20 19  1  0
 20 23  1  0
 21 18  1  0
 21 22  1  0
 22 20  2  0
 23 24  1  0
 24 25  2  0
 26 29  1  0
 26 25  1  0
 27 26  2  0
 28 27  1  0
 28 23  2  0
 29 30  1  0
 30 31  1  0
 31 32  2  0
 33 32  1  0
 33 37  1  0
 34 33  2  0
 35 30  2  0
 35 34  1  0
 36 35  1  0
 38 39  1  0
 39 42  1  0
 39 41  1  0
 40 38  2  0
 43 44  1  0
 43 18  1  0
 45 43  1  0
 47 48  1  0
 47 46  1  0
 49 60  2  0
 50 48  1  0
 50 55  1  0
 51 59  1  0
 51 61  1  0
 52 58  1  0
 52 54  1  0
 53 59  1  0
 54 55  2  0
 54 53  1  0
 56 50  2  0
 57 56  1  0
 57 52  2  0
 58 51  1  0
 59 49  1  0
 61 63  2  0
 62 61  1  0
 64 62  1  0
 65 74  2  0
 65 70  1  0
 66 62  1  0
 66 70  1  0
 67 66  1  0
 68 69  1  0
 68 67  1  0
 69 65  1  0
 70 71  2  0
 71 72  1  0
 73 72  2  0
 74 73  1  0
 75 49  1  0
 75 76  1  0
 75 85  1  0
 76 79  1  0
 77 81  1  0
 77 76  1  0
 78 77  2  0
 81 80  1  0
 83 81  1  0
 83 84  1  0
 83 82  1  0
 85 88  1  1
 85 86  1  0
 87 85  1  0
M  ISO  4   8 100  16 100  47 101  48 101
M  END
>  <TORSDO>  (57) 
F 18

>  <SCORE>  (57) 
-15.609

>  <name>  (57) 
56

>  <ligand_id>  (57) 
56

>  <original_smiles>  (57) 
[H]c1c(C([H])([H])C([H])([H])Oc2c([H])c([H])c3c(c2[H])C([H])([H])N(C(=O)C([H])(N([H])C(=O)C([H])(N([H])C([H])([H])[H])C([H])([H])[H])C(C([H])([H])[H])(C([H])([H])[H])C([H])([H])[H])C([H])(C(=O)N([H])C2([H])c4c([H])c([H])c([H])c([H])c4C([H])([H])C([H])([H])C2([H])[H])C3([H])[H])nc(N([H])C(=O)N2C([H])([H])C([H])([H])C([H])([H])C([H])(n3nc(-c4c([H])c([H])c(Oc5c([H])c([H])c(F)c([H])c5F)c([H])c4[H])c(C(=O)N([H])[H])c3N([H])[H])C2([H])[H])c(C([H])([H])[H])c1[H]

>  <smiles>  (57) 
[H]c1c(C([H])([H])C([H])([H])Oc2c([H])c([H])c3c(c2[H])C([H])([H])N(C(=O)C([H])(N([H])C(=O)C([H])(N([H])C([H])([H])[H])C([H])([H])[H])C(C([H])([H])[H])(C([H])([H])[H])C([H])([H])[H])C([H])(C(=O)N([H])C2([H])c4c([H])c([H])c([H])c([H])c4C([H])([H])C([H])([H])C2([H])[H])C3([H])[H])nc(N([H])C(=O)N2C([H])([H])C([H])([H])C([H])([H])C([H])(n3nc(-c4c([H])c([H])c(Oc5c([H])c([H])c(F)c([H])c5F)c([H])c4[H])c(C(=O)N([H])[H])c3N([H])[H])C2([H])[H])c(C([H])([H])[H])c1[H]

$$$$
57:0:0
     RDKit          3D

 93101  0  0  1  0  0  0  0  0999 V2000
  -29.1170  -21.9300   20.9830 N   0  0  0  0  0  4  0  0  0  0  0  0
  -29.5170  -22.2030   21.8670 H   0  0  0  0  0  0  0  0  0  0  0  0
  -28.1180  -21.9140   21.1140 H   0  0  0  0  0  0  0  0  0  0  0  0
  -31.2800  -18.8400   19.7180 C   0  0  0  0  0  2  0  0  0  0  0  0
  -29.5540  -17.9840   21.4470 C   0  0  0  0  0  2  0  0  0  0  0  0
  -31.0050  -20.2890   20.2380 C   0  0  0  0  0  2  0  0  0  0  0  0
  -29.3330  -19.4930   21.8250 C   0  0  0  0  0  2  0  0  0  0  0  0
  -30.8410  -17.6210   20.6220 C   0  0  0  0  0  3  0  0  0  0  0  0
  -29.5290  -20.4990   20.6540 C   0  0  0  0  0  3  0  0  0  0  0  0
  -31.4490  -15.1260   20.3360 C   0  0  0  0  0  0  0  0  0  0  0  0
  -31.2670  -12.7470   19.6260 C   0  0  0  0  0  2  0  0  0  0  0  0
  -30.4200  -12.6480   18.3390 C   0  0  0  0  0  2  0  0  0  0  0  0
  -28.9060  -12.6260   18.6650 C   0  0  0  0  0  2  0  0  0  0  0  0
  -28.4670  -13.6180   19.7830 C   0  0  0  0  0  3  0  0  0  0  0  0
  -29.4650  -13.6670   20.9540 C   0  0  0  0  0  2  0  0  0  0  0  0
  -30.7900  -13.9220   20.3780 N   0  0  0  0  0  0  0  0  0  0  0  0
  -32.6820  -15.1520   20.3190 O   0  0  0  0  0  0  0  0  0  0  0  0
  -30.7400  -16.2590   19.9230 N   0  0  0  0  0  0  0  0  0  0  0  0
  -26.0810  -14.2840   20.4390 C   0  0  0  0  0  0  0  0  0  0  0  0
  -24.9790  -13.5420   20.7610 C   0  0  0  0  0  0  0  0  0  0  0  0
  -25.4030  -12.1770   20.7470 C   0  0  0  0  0  0  0  0  0  0  0  0
  -27.1030  -13.3710   20.2360 N   0  0  0  0  0  0  0  0  0  0  0  0
  -26.7020  -12.1000   20.4890 N   0  0  0  0  0  0  0  0  0  0  0  0
  -24.6340  -10.9380   20.9060 C   0  0  0  0  0  0  0  0  0  0  0  0
  -24.9680   -9.9810   21.8920 C   0  0  0  0  0  3  0  0  0  0  0  0
  -24.2000   -8.8060   22.0380 C   0  0  0  0  0  3  0  0  0  0  0  0
  -23.0840   -8.5780   21.1960 C   0  0  0  0  0  0  0  0  0  0  0  0
  -22.7720   -9.5220   20.2010 C   0  0  0  0  0  3  0  0  0  0  0  0
  -23.5410  -10.6880   20.0530 C   0  0  0  0  0  3  0  0  0  0  0  0
  -22.2990   -7.4510   21.2480 O   0  0  0  0  0  0  0  0  0  0  0  0
  -22.0560   -6.7970   22.4300 C   0  0  0  0  0  0  0  0  0  0  0  0
  -21.4190   -7.4360   23.5170 C   0  0  0  0  0  3  0  0  0  0  0  0
  -21.1230   -6.7070   24.6860 C   0  0  0  0  0  3  0  0  0  0  0  0
  -21.4570   -5.3430   24.7680 C   0  0  0  0  0  0  0  0  0  0  0  0
  -22.0890   -4.7030   23.6870 C   0  0  0  0  0  3  0  0  0  0  0  0
  -22.3840   -5.4300   22.5190 C   0  0  0  0  0  0  0  0  0  0  0  0
  -22.9730   -4.8050   21.4700 F   0  0  0  0  0  0  0  0  0  0  0  0
  -21.1670   -4.6400   25.8890 F   0  0  0  0  0  0  0  0  0  0  0  0
  -23.5870  -14.0570   20.9770 C   0  0  0  0  0  0  0  0  0  0  0  0
  -22.8180  -13.4010   21.8370 N   0  0  0  0  0  0  0  0  0  0  0  0
  -23.1900  -15.0770   20.4120 O   0  0  0  0  0  0  0  0  0  0  0  0
  -23.1530  -12.5740   22.3100 H   0  0  0  0  0  0  0  0  0  0  0  0
  -21.8810  -13.7280   22.0250 H   0  0  0  0  0  0  0  0  0  0  0  0
  -26.3010  -15.6500   20.2810 N   0  0  0  0  0  0  0  0  0  0  0  0
  -25.5730  -16.3450   20.4000 H   0  0  0  0  0  0  0  0  0  0  0  0
  -27.1970  -16.0520   20.0470 H   0  0  0  0  0  0  0  0  0  0  0  0
  -29.2790  -17.2360   17.9870 C   0  0  0  0  0  1  0  0  0  0  0  0
  -31.6950  -16.4050   17.5290 C   0  0  0  0  0  1  0  0  0  0  0  0
  -30.4450  -16.3180   18.4450 C   0  0  0  0  0  3  0  0  0  0  0  0
  -29.4090  -23.0090   19.9650 C   0  0  0  0  0  2  0  0  0  0  0  0
  -28.4300  -24.2630   19.8300 C   0  0  0  0  0  2  0  0  0  0  0  0
  -28.5820  -25.5400   20.7450 C   0  0  0  0  0  2  0  0  0  0  0  0
  -28.5220  -26.8550   20.1020 O   0  0  0  0  0  0  0  0  0  0  0  0
  -24.6880  -31.9510   23.4110 C   0  0  0  0  0  0  0  0  0  0  0  0
  -27.3500  -27.5990   20.1700 C   0  0  0  0  0  0  0  0  0  0  0  0
  -23.4850  -30.6010   21.7220 C   0  0  0  0  0  3  0  0  0  0  0  0
  -24.9470  -29.1220   20.2330 C   0  0  0  0  0  0  0  0  0  0  0  0
  -26.0090  -30.9820   21.5210 C   0  0  0  0  0  2  0  0  0  0  0  0
  -26.1070  -29.6290   20.8320 C   0  0  0  0  0  0  0  0  0  0  0  0
  -27.3130  -28.8800   20.7850 C   0  0  0  0  0  3  0  0  0  0  0  0
  -26.1720  -27.1200   19.5590 C   0  0  0  0  0  3  0  0  0  0  0  0
  -24.9780  -27.8700   19.5890 C   0  0  0  0  0  3  0  0  0  0  0  0
  -23.6950  -29.9720   20.3180 C   0  0  0  0  0  2  0  0  0  0  0  0
  -24.7460  -31.1910   22.2770 N   0  0  0  0  0  0  0  0  0  0  0  0
  -23.6080  -32.1930   23.9670 O   0  0  0  0  0  0  0  0  0  0  0  0
  -22.8440  -29.5440   22.6490 C   0  0  0  0  0  0  0  0  0  0  0  0
  -21.5250  -29.3300   22.4960 N   0  0  0  0  0  0  0  0  0  0  0  0
  -23.5270  -28.9190   23.4640 O   0  0  0  0  0  0  0  0  0  0  0  0
  -21.0330  -29.8850   21.8120 H   0  0  0  0  0  0  0  0  0  0  0  0
  -18.1850  -28.0010   22.8780 C   0  0  0  0  0  0  0  0  0  0  0  0
  -20.7220  -28.3500   23.2280 C   0  0  0  0  0  3  0  0  0  0  0  0
  -20.8970  -26.9340   22.6310 C   0  0  0  0  0  2  0  0  0  0  0  0
  -19.8370  -26.5890   21.5810 C   0  0  0  0  0  2  0  0  0  0  0  0
  -18.4310  -26.6700   22.1860 C   0  0  0  0  0  2  0  0  0  0  0  0
  -19.2610  -28.7960   23.3520 C   0  0  0  0  0  0  0  0  0  0  0  0
  -18.9780  -30.0400   23.9570 C   0  0  0  0  0  3  0  0  0  0  0  0
  -17.6510  -30.4900   24.0920 C   0  0  0  0  0  3  0  0  0  0  0  0
  -16.5880  -29.6900   23.6360 C   0  0  0  0  0  3  0  0  0  0  0  0
  -16.8560  -28.4480   23.0330 C   0  0  0  0  0  3  0  0  0  0  0  0
  -25.9720  -32.5670   24.0500 C   0  0  0  0  0  3  0  0  0  0  0  0
  -25.6800  -33.9700   24.3740 N   0  0  0  0  0  0  0  0  0  0  0  0
  -26.0540  -35.0160   23.6260 C   0  0  0  0  0  0  0  0  0  0  0  0
  -26.7510  -34.9000   22.6150 O   0  0  0  0  0  0  0  0  0  0  0  0
  -25.0620  -34.1350   25.1550 H   0  0  0  0  0  0  0  0  0  0  0  0
  -24.3830  -36.8490   23.2070 C   0  0  0  0  0  1  0  0  0  0  0  0
  -25.5790  -36.4130   24.0680 C   0  0  0  0  0  3  0  0  0  0  0  0
  -27.6880  -37.2540   25.0020 C   0  0  0  0  0  1  0  0  0  0  0  0
  -26.6380  -37.4440   24.0050 N   0  0  0  0  0  0  0  0  0  0  0  0
  -26.2450  -38.3730   24.1300 H   0  0  0  0  0  0  0  0  0  0  0  0
  -26.4630  -31.7900   25.3330 C   0  0  1  0  0  0  0  0  0  0  0  0
  -25.3520  -31.5630   26.3850 C   0  0  0  0  0  1  0  0  0  0  0  0
  -27.0370  -30.4070   24.9450 C   0  0  0  0  0  1  0  0  0  0  0  0
  -27.6130  -32.5710   26.0120 C   0  0  0  0  0  1  0  0  0  0  0  0
  1  3  1  0
  1  2  1  0
  4  6  1  0
  4  8  1  0
  5  7  1  0
  6  9  1  0
  8 18  1  0
  8  5  1  0
  9  1  1  0
  9  7  1  0
 10 16  1  0
 11 16  1  0
 12 13  1  0
 12 11  1  0
 14 13  1  0
 14 22  1  0
 14 15  1  0
 16 15  1  0
 17 10  2  0
 18 10  1  0
 19 20  2  0
 20 39  1  0
 21 20  1  0
 21 24  1  0
 22 19  1  0
 22 23  1  0
 23 21  2  0
 24 25  1  0
 25 26  2  0
 27 30  1  0
 27 26  1  0
 28 27  2  0
 29 28  1  0
 29 24  2  0
 30 31  1  0
 31 36  2  0
 31 32  1  0
 32 33  2  0
 33 34  1  0
 34 38  1  0
 35 34  2  0
 36 35  1  0
 37 36  1  0
 39 40  1  0
 40 43  1  0
 40 42  1  0
 41 39  2  0
 44 45  1  0
 44 19  1  0
 46 44  1  0
 47 49  1  0
 48 49  1  0
 49 18  1  0
 50  1  1  0
 51 50  1  0
 51 52  1  0
 53 55  1  0
 53 52  1  0
 54 65  2  0
 55 60  1  0
 56 64  1  0
 56 66  1  0
 57 63  1  0
 57 59  1  0
 58 64  1  0
 59 58  1  0
 60 59  2  0
 61 62  1  0
 61 55  2  0
 62 57  2  0
 63 56  1  0
 64 54  1  0
 66 68  2  0
 67 66  1  0
 69 67  1  0
 70 79  2  0
 70 75  1  0
 71 67  1  0
 71 75  1  0
 72 71  1  0
 73 74  1  0
 73 72  1  0
 74 70  1  0
 75 76  2  0
 76 77  1  0
 78 77  2  0
 79 78  1  0
 80 54  1  0
 80 81  1  0
 80 90  1  0
 81 84  1  0
 82 86  1  0
 82 81  1  0
 83 82  2  0
 86 85  1  0
 88 86  1  0
 88 89  1  0
 88 87  1  0
 90 93  1  1
 90 91  1  0
 92 90  1  0
M  ISO  4  10 100  18 100  52 101  53 101
M  END
>  <TORSDO>  (58) 
F 21

>  <SCORE>  (58) 
-10.799

>  <name>  (58) 
57

>  <ligand_id>  (58) 
57

>  <original_smiles>  (58) 
[H]c1c([H])c([H])c2c(c1[H])C([H])([H])C([H])([H])C([H])([H])C2([H])N([H])C(=O)C1([H])N(C(=O)C([H])(N([H])C(=O)C([H])(N([H])C([H])([H])[H])C([H])([H])[H])C(C([H])([H])[H])(C([H])([H])[H])C([H])([H])[H])C([H])([H])c2c([H])c(OC([H])([H])C([H])([H])C([H])([H])[N+]([H])([H])C3([H])C([H])([H])C([H])([H])C([H])(N(C(=O)N4C([H])([H])C([H])([H])C([H])([H])C([H])(n5nc(-c6c([H])c([H])c(Oc7c([H])c([H])c(F)c([H])c7F)c([H])c6[H])c(C(=O)N([H])[H])c5N([H])[H])C4([H])[H])C([H])(C([H])([H])[H])C([H])([H])[H])C([H])([H])C3([H])[H])c([H])c([H])c2C1([H])[H]

>  <smiles>  (58) 
[H]c1c([H])c([H])c2c(c1[H])C([H])([H])C([H])([H])C([H])([H])C2([H])N([H])C(=O)C1([H])N(C(=O)C([H])(N([H])C(=O)C([H])(N([H])C([H])([H])[H])C([H])([H])[H])C(C([H])([H])[H])(C([H])([H])[H])C([H])([H])[H])C([H])([H])c2c([H])c(OC([H])([H])C([H])([H])C([H])([H])[N+]([H])([H])C3([H])C([H])([H])C([H])([H])C([H])(N(C(=O)N4C([H])([H])C([H])([H])C([H])([H])C([H])(n5nc(-c6c([H])c([H])c(Oc7c([H])c([H])c(F)c([H])c7F)c([H])c6[H])c(C(=O)N([H])[H])c5N([H])[H])C4([H])[H])C([H])(C([H])([H])[H])C([H])([H])[H])C([H])([H])C3([H])[H])c([H])c([H])c2C1([H])[H]

$$$$
58:0:0
     RDKit          3D

 95103  0  0  1  0  0  0  0  0999 V2000
  -29.2840  -20.7930   19.5820 C   0  0  0  0  0  2  0  0  0  0  0  0
  -29.7970  -23.1840   20.7540 C   0  0  0  0  0  2  0  0  0  0  0  0
  -27.9740  -22.9260   19.0170 C   0  0  0  0  0  2  0  0  0  0  0  0
  -29.2410  -24.6110   21.1170 C   0  0  0  0  0  2  0  0  0  0  0  0
  -28.2720  -24.4430   18.8250 C   0  0  0  0  0  2  0  0  0  0  0  0
  -28.7640  -22.1840   20.1520 C   0  0  0  0  0  3  0  0  0  0  0  0
  -28.1710  -25.2100   20.1580 C   0  0  0  0  0  3  0  0  0  0  0  0
  -28.2880  -26.6670   20.0440 O   0  0  0  0  0  0  0  0  0  0  0  0
  -24.5440  -31.9120   23.2090 C   0  0  0  0  0  0  0  0  0  0  0  0
  -27.1300  -27.4430   20.0510 C   0  0  0  0  0  0  0  0  0  0  0  0
  -23.3160  -30.5270   21.5750 C   0  0  0  0  0  3  0  0  0  0  0  0
  -24.7440  -29.0040   20.1100 C   0  0  0  0  0  0  0  0  0  0  0  0
  -25.8450  -30.8760   21.3420 C   0  0  0  0  0  2  0  0  0  0  0  0
  -25.9200  -29.5080   20.6800 C   0  0  0  0  0  0  0  0  0  0  0  0
  -27.1170  -28.7420   20.6350 C   0  0  0  0  0  3  0  0  0  0  0  0
  -25.9240  -26.9720   19.4830 C   0  0  0  0  0  3  0  0  0  0  0  0
  -24.7460  -27.7380   19.5060 C   0  0  0  0  0  3  0  0  0  0  0  0
  -23.5040  -29.8660   20.1850 C   0  0  0  0  0  2  0  0  0  0  0  0
  -24.5880  -31.1200   22.0990 N   0  0  0  0  0  0  0  0  0  0  0  0
  -23.4700  -32.1790   23.7660 O   0  0  0  0  0  0  0  0  0  0  0  0
  -22.6780  -29.4950   22.5350 C   0  0  0  0  0  0  0  0  0  0  0  0
  -21.3540  -29.3060   22.4220 N   0  0  0  0  0  0  0  0  0  0  0  0
  -23.3740  -28.8670   23.3390 O   0  0  0  0  0  0  0  0  0  0  0  0
  -20.8520  -29.8620   21.7440 H   0  0  0  0  0  0  0  0  0  0  0  0
  -17.9930  -28.0780   22.9500 C   0  0  0  0  0  0  0  0  0  0  0  0
  -20.5520  -28.3570   23.1960 C   0  0  0  0  0  3  0  0  0  0  0  0
  -20.6610  -26.9300   22.6120 C   0  0  0  0  0  2  0  0  0  0  0  0
  -19.5520  -26.6030   21.6070 C   0  0  0  0  0  2  0  0  0  0  0  0
  -18.1750  -26.7340   22.2650 C   0  0  0  0  0  2  0  0  0  0  0  0
  -19.1100  -28.8470   23.3720 C   0  0  0  0  0  0  0  0  0  0  0  0
  -18.8870  -30.1050   23.9720 C   0  0  0  0  0  3  0  0  0  0  0  0
  -17.5800  -30.5960   24.1530 C   0  0  0  0  0  3  0  0  0  0  0  0
  -16.4780  -29.8240   23.7450 C   0  0  0  0  0  3  0  0  0  0  0  0
  -16.6860  -28.5670   23.1490 C   0  0  0  0  0  3  0  0  0  0  0  0
  -25.8360  -32.5420   23.8130 C   0  0  0  0  0  3  0  0  0  0  0  0
  -25.5340  -33.9400   24.1450 N   0  0  0  0  0  0  0  0  0  0  0  0
  -25.8840  -34.9940   23.3950 C   0  0  0  0  0  0  0  0  0  0  0  0
  -26.5680  -34.8900   22.3730 O   0  0  0  0  0  0  0  0  0  0  0  0
  -24.9290  -34.0960   24.9380 H   0  0  0  0  0  0  0  0  0  0  0  0
  -24.1980  -36.8190   23.0000 C   0  0  0  0  0  1  0  0  0  0  0  0
  -25.4020  -36.3850   23.8510 C   0  0  0  0  0  3  0  0  0  0  0  0
  -27.5150  -37.2280   24.7740 C   0  0  0  0  0  1  0  0  0  0  0  0
  -26.4550  -37.4230   23.7900 N   0  0  0  0  0  0  0  0  0  0  0  0
  -26.0570  -38.3470   23.9300 H   0  0  0  0  0  0  0  0  0  0  0  0
  -26.3670  -31.7700   25.0840 C   0  0  1  0  0  0  0  0  0  0  0  0
  -25.2840  -31.5350   26.1640 C   0  0  0  0  0  1  0  0  0  0  0  0
  -26.9440  -30.3920   24.6840 C   0  0  0  0  0  1  0  0  0  0  0  0
  -27.5260  -32.5650   25.7310 C   0  0  0  0  0  1  0  0  0  0  0  0
  -31.4050  -20.1620   20.7050 C   0  0  0  0  0  1  0  0  0  0  0  0
  -29.9910  -19.7730   20.4580 N   0  0  2  0  0  4  0  0  0  0  0  0
  -29.5250  -19.8360   21.3510 H   0  0  0  0  0  0  0  0  0  0  0  0
  -29.8410  -18.2970   20.0510 C   0  0  0  0  0  3  0  0  0  0  0  0
  -30.4110  -16.5250   18.1710 C   0  0  0  0  0  1  0  0  0  0  0  0
  -30.4780  -17.9890   18.6360 C   0  0  0  0  0  3  0  0  0  0  0  0
  -29.8130  -18.6640   17.5790 O   0  0  0  0  0  0  0  0  0  0  0  0
  -30.2940  -18.5000   16.7730 H   0  0  0  0  0  0  0  0  0  0  0  0
  -30.3610  -17.2950   21.1870 C   0  0  0  0  0  2  0  0  0  0  0  0
  -30.7890  -14.7640   21.0040 C   0  0  0  0  0  0  0  0  0  0  0  0
  -30.6750  -12.5100   19.9930 C   0  0  0  0  0  2  0  0  0  0  0  0
  -29.8430  -12.5890   18.6950 C   0  0  0  0  0  2  0  0  0  0  0  0
  -28.3420  -12.4250   18.9970 C   0  0  0  0  0  2  0  0  0  0  0  0
  -27.8610  -13.3270   20.1660 C   0  0  0  0  0  3  0  0  0  0  0  0
  -28.8160  -13.2360   21.3770 C   0  0  0  0  0  2  0  0  0  0  0  0
  -30.1700  -13.5540   20.9010 N   0  0  0  0  0  0  0  0  0  0  0  0
  -31.9890  -14.9090   20.7620 O   0  0  0  0  0  0  0  0  0  0  0  0
  -29.9760  -15.8460   21.1430 N   0  0  0  0  0  0  0  0  0  0  0  0
  -28.9980  -15.6360   21.2810 H   0  0  0  0  0  0  0  0  0  0  0  0
  -25.4060  -13.9020   20.6550 C   0  0  0  0  0  0  0  0  0  0  0  0
  -24.3220  -13.1190   20.9500 C   0  0  0  0  0  0  0  0  0  0  0  0
  -24.8060  -11.7760   20.9950 C   0  0  0  0  0  0  0  0  0  0  0  0
  -26.4790  -13.0340   20.5380 N   0  0  0  0  0  0  0  0  0  0  0  0
  -26.1190  -11.7530   20.8040 N   0  0  0  0  0  0  0  0  0  0  0  0
  -24.0860  -10.5060   21.1500 C   0  0  0  0  0  0  0  0  0  0  0  0
  -24.4480   -9.5690   22.1440 C   0  0  0  0  0  3  0  0  0  0  0  0
  -23.7300   -8.3620   22.2860 C   0  0  0  0  0  3  0  0  0  0  0  0
  -22.6350   -8.0840   21.4330 C   0  0  0  0  0  0  0  0  0  0  0  0
  -22.2940   -9.0090   20.4310 C   0  0  0  0  0  3  0  0  0  0  0  0
  -23.0130  -10.2060   20.2880 C   0  0  0  0  0  3  0  0  0  0  0  0
  -21.8950   -6.9260   21.4820 O   0  0  0  0  0  0  0  0  0  0  0  0
  -21.7430   -6.2170   22.6470 C   0  0  0  0  0  0  0  0  0  0  0  0
  -21.1680   -6.7930   23.8000 C   0  0  0  0  0  3  0  0  0  0  0  0
  -20.9660   -6.0080   24.9520 C   0  0  0  0  0  3  0  0  0  0  0  0
  -21.3320   -4.6490   24.9520 C   0  0  0  0  0  0  0  0  0  0  0  0
  -21.9010   -4.0730   23.8020 C   0  0  0  0  0  3  0  0  0  0  0  0
  -22.1040   -4.8550   22.6530 C   0  0  0  0  0  0  0  0  0  0  0  0
  -22.6320   -4.2900   21.5410 F   0  0  0  0  0  0  0  0  0  0  0  0
  -21.1310   -3.8930   26.0570 F   0  0  0  0  0  0  0  0  0  0  0  0
  -22.8990  -13.5770   21.0830 C   0  0  0  0  0  0  0  0  0  0  0  0
  -22.1070  -12.8870   21.8970 N   0  0  0  0  0  0  0  0  0  0  0  0
  -22.4930  -14.5820   20.5010 O   0  0  0  0  0  0  0  0  0  0  0  0
  -22.4470  -12.0750   22.3930 H   0  0  0  0  0  0  0  0  0  0  0  0
  -21.1480  -13.1750   22.0300 H   0  0  0  0  0  0  0  0  0  0  0  0
  -25.5640  -15.2710   20.4550 N   0  0  0  0  0  0  0  0  0  0  0  0
  -24.7740  -15.9070   20.4640 H   0  0  0  0  0  0  0  0  0  0  0  0
  -26.4190  -15.7080   20.1410 H   0  0  0  0  0  0  0  0  0  0  0  0
  1 50  1  0
  2  4  1  0
  3  6  1  0
  5  3  1  0
  5  7  1  0
  6  1  1  0
  6  2  1  0
  7  8  1  0
  7  4  1  0
  8 10  1  0
  9 20  2  0
 10 15  1  0
 11 19  1  0
 11 21  1  0
 12 18  1  0
 12 14  1  0
 13 19  1  0
 14 13  1  0
 15 14  2  0
 16 17  1  0
 16 10  2  0
 17 12  2  0
 18 11  1  0
 19  9  1  0
 21 23  2  0
 22 21  1  0
 24 22  1  0
 25 34  2  0
 25 30  1  0
 26 22  1  0
 26 30  1  0
 27 26  1  0
 28 29  1  0
 28 27  1  0
 29 25  1  0
 30 31  2  0
 31 32  1  0
 33 32  2  0
 34 33  1  0
 35  9  1  0
 35 36  1  0
 35 45  1  0
 36 39  1  0
 37 41  1  0
 37 36  1  0
 38 37  2  0
 41 40  1  0
 43 41  1  0
 43 44  1  0
 43 42  1  0
 45 48  1  1
 45 46  1  0
 47 45  1  0
 50 49  1  0
 50 51  1  1
 52 50  1  0
 52 57  1  0
 54 53  1  0
 54 52  1  0
 55 54  1  0
 56 55  1  0
 58 66  1  0
 59 64  1  0
 60 61  1  0
 60 59  1  0
 62 61  1  0
 62 71  1  0
 62 63  1  0
 64 58  1  0
 64 63  1  0
 65 58  2  0
 66 57  1  0
 66 67  1  0
 68 69  2  0
 69 70  1  0
 69 88  1  0
 70 73  1  0
 71 68  1  0
 71 72  1  0
 72 70  2  0
 73 74  1  0
 74 75  2  0
 76 79  1  0
 76 75  1  0
 77 76  2  0
 78 77  1  0
 78 73  2  0
 79 80  1  0
 80 85  2  0
 80 81  1  0
 81 82  2  0
 83 82  1  0
 83 87  1  0
 84 83  2  0
 85 84  1  0
 86 85  1  0
 88 89  1  0
 89 92  1  0
 89 91  1  0
 90 88  2  0
 93 94  1  0
 93 68  1  0
 95 93  1  0
M  ISO  4   7 101   8 101  58 100  66 100
M  END
>  <TORSDO>  (59) 
F 22

>  <SCORE>  (59) 
-12.927

>  <name>  (59) 
58

>  <ligand_id>  (59) 
58

>  <original_smiles>  (59) 
[H]OC([H])(C([H])([H])[H])C([H])(C([H])([H])N([H])C(=O)N1C([H])([H])C([H])([H])C([H])([H])C([H])(n2nc(-c3c([H])c([H])c(Oc4c([H])c([H])c(F)c([H])c4F)c([H])c3[H])c(C(=O)N([H])[H])c2N([H])[H])C1([H])[H])[N+]([H])(C([H])([H])[H])C([H])([H])C1([H])C([H])([H])C([H])([H])C([H])(Oc2c([H])c([H])c3c(c2[H])C([H])([H])N(C(=O)C([H])(N([H])C(=O)C([H])(N([H])C([H])([H])[H])C([H])([H])[H])C(C([H])([H])[H])(C([H])([H])[H])C([H])([H])[H])C([H])(C(=O)N([H])C2([H])c4c([H])c([H])c([H])c([H])c4C([H])([H])C([H])([H])C2([H])[H])C3([H])[H])C([H])([H])C1([H])[H]

>  <smiles>  (59) 
[H]OC([H])(C([H])([H])[H])C([H])(C([H])([H])N([H])C(=O)N1C([H])([H])C([H])([H])C([H])([H])C([H])(n2nc(-c3c([H])c([H])c(Oc4c([H])c([H])c(F)c([H])c4F)c([H])c3[H])c(C(=O)N([H])[H])c2N([H])[H])C1([H])[H])[N+]([H])(C([H])([H])[H])C([H])([H])C1([H])C([H])([H])C([H])([H])C([H])(Oc2c([H])c([H])c3c(c2[H])C([H])([H])N(C(=O)C([H])(N([H])C(=O)C([H])(N([H])C([H])([H])[H])C([H])([H])[H])C(C([H])([H])[H])(C([H])([H])[H])C([H])([H])[H])C([H])(C(=O)N([H])C2([H])c4c([H])c([H])c([H])c([H])c4C([H])([H])C([H])([H])C2([H])[H])C3([H])[H])C([H])([H])C1([H])[H]

$$$$
59:0:0
     RDKit          3D

 96104  0  0  1  0  0  0  0  0999 V2000
  -30.1570  -21.5870   20.3570 C   0  0  0  0  0  3  0  0  0  0  0  0
  -28.1200  -19.7820   20.0850 C   0  0  0  0  0  3  0  0  0  0  0  0
  -30.3750  -20.2650   20.8130 C   0  0  0  0  0  0  0  0  0  0  0  0
  -29.3210  -19.3250   20.6720 C   0  0  0  0  0  0  0  0  0  0  0  0
  -28.9100  -21.9430   19.8070 C   0  0  0  0  0  0  0  0  0  0  0  0
  -27.9190  -21.0450   19.6560 N   0  0  0  0  0  0  0  0  0  0  0  0
  -31.7300  -19.8840   21.4090 C   0  0  0  0  0  2  0  0  0  0  0  0
  -31.3870  -20.9050   23.7410 C   0  0  0  0  0  1  0  0  0  0  0  0
  -33.7140  -20.4260   22.8660 C   0  0  0  0  0  1  0  0  0  0  0  0
  -32.2820  -20.8390   22.4910 C   0  0  0  0  0  3  0  0  0  0  0  0
  -29.3970  -17.8670   21.1580 C   0  0  0  0  0  2  0  0  0  0  0  0
  -30.2400  -16.9140   20.2730 C   0  0  0  0  0  2  0  0  0  0  0  0
  -30.7230  -14.4740   20.0910 C   0  0  0  0  0  0  0  0  0  0  0  0
  -30.3750  -12.3340   18.9230 C   0  0  0  0  0  2  0  0  0  0  0  0
  -29.3700  -12.5730   17.7740 C   0  0  0  0  0  2  0  0  0  0  0  0
  -27.9200  -12.4350   18.2810 C   0  0  0  0  0  2  0  0  0  0  0  0
  -27.6580  -13.2380   19.5820 C   0  0  0  0  0  3  0  0  0  0  0  0
  -28.7690  -12.9770   20.6270 C   0  0  0  0  0  2  0  0  0  0  0  0
  -30.0620  -13.2890   19.9980 N   0  0  0  0  0  0  0  0  0  0  0  0
  -31.8320  -14.6700   19.5890 O   0  0  0  0  0  0  0  0  0  0  0  0
  -29.9870  -15.4950   20.5650 N   0  0  0  0  0  0  0  0  0  0  0  0
  -29.0820  -15.2540   20.9420 H   0  0  0  0  0  0  0  0  0  0  0  0
  -25.3000  -13.8410   20.4140 C   0  0  0  0  0  0  0  0  0  0  0  0
  -24.2480  -13.0640   20.8210 C   0  0  0  0  0  0  0  0  0  0  0  0
  -24.7040  -11.7120   20.7490 C   0  0  0  0  0  0  0  0  0  0  0  0
  -26.3300  -12.9590   20.1220 N   0  0  0  0  0  0  0  0  0  0  0  0
  -25.9770  -11.6740   20.3780 N   0  0  0  0  0  0  0  0  0  0  0  0
  -23.9860  -10.4490   20.9570 C   0  0  0  0  0  0  0  0  0  0  0  0
  -24.4330   -9.4920   21.8930 C   0  0  0  0  0  3  0  0  0  0  0  0
  -23.7190   -8.2900   22.0850 C   0  0  0  0  0  3  0  0  0  0  0  0
  -22.5420   -8.0400   21.3410 C   0  0  0  0  0  0  0  0  0  0  0  0
  -22.1150   -8.9840   20.3910 C   0  0  0  0  0  3  0  0  0  0  0  0
  -22.8300  -10.1780   20.1980 C   0  0  0  0  0  3  0  0  0  0  0  0
  -21.7950   -6.8920   21.4450 O   0  0  0  0  0  0  0  0  0  0  0  0
  -21.7250   -6.1800   22.6150 C   0  0  0  0  0  0  0  0  0  0  0  0
  -21.2460   -6.7600   23.8100 C   0  0  0  0  0  3  0  0  0  0  0  0
  -21.1270   -5.9750   24.9740 C   0  0  0  0  0  3  0  0  0  0  0  0
  -21.4740   -4.6110   24.9440 C   0  0  0  0  0  0  0  0  0  0  0  0
  -21.9390   -4.0280   23.7510 C   0  0  0  0  0  3  0  0  0  0  0  0
  -22.0610   -4.8120   22.5900 C   0  0  0  0  0  0  0  0  0  0  0  0
  -22.4940   -4.2420   21.4400 F   0  0  0  0  0  0  0  0  0  0  0  0
  -21.3490   -3.8530   26.0590 F   0  0  0  0  0  0  0  0  0  0  0  0
  -22.8670  -13.5360   21.1730 C   0  0  0  0  0  0  0  0  0  0  0  0
  -22.1860  -12.8220   22.0630 N   0  0  0  0  0  0  0  0  0  0  0  0
  -22.4050  -14.5710   20.6960 O   0  0  0  0  0  0  0  0  0  0  0  0
  -22.5780  -11.9840   22.4690 H   0  0  0  0  0  0  0  0  0  0  0  0
  -21.2590  -13.1140   22.3390 H   0  0  0  0  0  0  0  0  0  0  0  0
  -25.4640  -15.2130   20.2460 N   0  0  0  0  0  0  0  0  0  0  0  0
  -24.7140  -15.8750   20.4120 H   0  0  0  0  0  0  0  0  0  0  0  0
  -26.2910  -15.6440   19.8520 H   0  0  0  0  0  0  0  0  0  0  0  0
  -28.6130  -23.1930   19.3070 O   0  0  0  0  0  0  0  0  0  0  0  0
  -28.8440  -24.3200   20.1600 C   0  0  0  0  0  2  0  0  0  0  0  0
  -28.7850  -25.6470   19.3520 C   0  0  0  0  0  3  0  0  0  0  0  0
  -30.5420  -25.1340   17.5230 C   0  0  0  0  0  1  0  0  0  0  0  0
  -30.1350  -26.0200   18.7070 C   0  0  0  0  0  2  0  0  0  0  0  0
  -28.4830  -26.7550   20.2170 O   0  0  0  0  0  0  0  0  0  0  0  0
  -24.6140  -31.8780   23.2310 C   0  0  0  0  0  0  0  0  0  0  0  0
  -27.2740  -27.4270   20.1700 C   0  0  0  0  0  0  0  0  0  0  0  0
  -23.4040  -30.4660   21.5990 C   0  0  0  0  0  3  0  0  0  0  0  0
  -24.8600  -28.9210   20.1800 C   0  0  0  0  0  0  0  0  0  0  0  0
  -25.9260  -30.8310   21.3910 C   0  0  0  0  0  2  0  0  0  0  0  0
  -26.0140  -29.4550   20.7620 C   0  0  0  0  0  0  0  0  0  0  0  0
  -27.2170  -28.7130   20.7580 C   0  0  0  0  0  3  0  0  0  0  0  0
  -26.0900  -26.8970   19.6020 C   0  0  0  0  0  3  0  0  0  0  0  0
  -24.8910  -27.6390   19.6020 C   0  0  0  0  0  3  0  0  0  0  0  0
  -23.6150  -29.7770   20.2220 C   0  0  0  0  0  2  0  0  0  0  0  0
  -24.6660  -31.0730   22.1330 N   0  0  0  0  0  0  0  0  0  0  0  0
  -23.5350  -32.1530   23.7730 O   0  0  0  0  0  0  0  0  0  0  0  0
  -22.7570  -29.4490   22.5650 C   0  0  0  0  0  0  0  0  0  0  0  0
  -21.4330  -29.2610   22.4390 N   0  0  0  0  0  0  0  0  0  0  0  0
  -23.4440  -28.8340   23.3860 O   0  0  0  0  0  0  0  0  0  0  0  0
  -20.9400  -29.8120   21.7510 H   0  0  0  0  0  0  0  0  0  0  0  0
  -18.0630  -28.0690   22.9470 C   0  0  0  0  0  0  0  0  0  0  0  0
  -20.6210  -28.3260   23.2150 C   0  0  0  0  0  3  0  0  0  0  0  0
  -20.7240  -26.8940   22.6420 C   0  0  0  0  0  2  0  0  0  0  0  0
  -19.6210  -26.5680   21.6290 C   0  0  0  0  0  2  0  0  0  0  0  0
  -18.2390  -26.7160   22.2760 C   0  0  0  0  0  2  0  0  0  0  0  0
  -19.1830  -28.8310   23.3730 C   0  0  0  0  0  0  0  0  0  0  0  0
  -18.9670  -30.0970   23.9570 C   0  0  0  0  0  3  0  0  0  0  0  0
  -17.6640  -30.6030   24.1220 C   0  0  0  0  0  3  0  0  0  0  0  0
  -16.5590  -29.8350   23.7160 C   0  0  0  0  0  3  0  0  0  0  0  0
  -16.7590  -28.5710   23.1320 C   0  0  0  0  0  3  0  0  0  0  0  0
  -25.9030  -32.5130   23.8430 C   0  0  0  0  0  3  0  0  0  0  0  0
  -25.5940  -33.9110   24.1730 N   0  0  0  0  0  0  0  0  0  0  0  0
  -25.9300  -34.9630   23.4150 C   0  0  0  0  0  0  0  0  0  0  0  0
  -26.6050  -34.8620   22.3860 O   0  0  0  0  0  0  0  0  0  0  0  0
  -25.0050  -34.0670   24.9760 H   0  0  0  0  0  0  0  0  0  0  0  0
  -24.2120  -36.7580   23.0380 C   0  0  0  0  0  1  0  0  0  0  0  0
  -25.4390  -36.3510   23.8680 C   0  0  0  0  0  3  0  0  0  0  0  0
  -27.5590  -37.2290   24.7400 C   0  0  0  0  0  1  0  0  0  0  0  0
  -26.4750  -37.4020   23.7760 N   0  0  0  0  0  0  0  0  0  0  0  0
  -26.0660  -38.3220   23.9230 H   0  0  0  0  0  0  0  0  0  0  0  0
  -26.4350  -31.7440   25.1140 C   0  0  1  0  0  0  0  0  0  0  0  0
  -25.3500  -31.4940   26.1870 C   0  0  0  0  0  1  0  0  0  0  0  0
  -27.0260  -30.3730   24.7120 C   0  0  0  0  0  1  0  0  0  0  0  0
  -27.5810  -32.5460   25.7740 C   0  0  0  0  0  1  0  0  0  0  0  0
  1  3  2  0
  2  4  2  0
  3  7  1  0
  4  3  1  0
  4 11  1  0
  5  1  1  0
  6  5  2  0
  6  2  1  0
  7 10  1  0
 10  9  1  0
 10  8  1  0
 12 21  1  0
 12 11  1  0
 13 21  1  0
 14 19  1  0
 15 16  1  0
 15 14  1  0
 17 16  1  0
 17 26  1  0
 17 18  1  0
 19 13  1  0
 19 18  1  0
 20 13  2  0
 21 22  1  0
 23 24  2  0
 24 43  1  0
 25 24  1  0
 25 28  1  0
 26 27  1  0
 26 23  1  0
 27 25  2  0
 28 29  1  0
 29 30  2  0
 31 34  1  0
 31 30  1  0
 32 31  2  0
 33 32  1  0
 33 28  2  0
 34 35  1  0
 35 36  1  0
 36 37  2  0
 38 37  1  0
 38 42  1  0
 39 38  2  0
 40 35  2  0
 40 39  1  0
 41 40  1  0
 43 44  1  0
 44 47  1  0
 44 46  1  0
 45 43  2  0
 48 49  1  0
 48 23  1  0
 50 48  1  0
 51  5  1  0
 51 52  1  0
 53 55  1  0
 53 52  1  0
 53 56  1  0
 54 55  1  0
 57 68  2  0
 58 56  1  0
 58 63  1  0
 59 67  1  0
 59 69  1  0
 60 66  1  0
 60 62  1  0
 61 67  1  0
 62 61  1  0
 63 62  2  0
 64 58  2  0
 65 64  1  0
 65 60  2  0
 66 59  1  0
 67 57  1  0
 69 71  2  0
 70 69  1  0
 72 70  1  0
 73 82  2  0
 73 78  1  0
 74 70  1  0
 74 78  1  0
 75 74  1  0
 76 77  1  0
 76 75  1  0
 77 73  1  0
 78 79  2  0
 79 80  1  0
 81 80  2  0
 82 81  1  0
 83 57  1  0
 83 84  1  0
 83 93  1  0
 84 87  1  0
 85 89  1  0
 85 84  1  0
 86 85  2  0
 89 88  1  0
 91 89  1  0
 91 92  1  0
 91 90  1  0
 93 96  1  1
 93 94  1  0
 95 93  1  0
M  ISO  4  13 100  21 100  53 101  56 101
M  END
>  <TORSDO>  (60) 
F 24

>  <SCORE>  (60) 
-12.884

>  <name>  (60) 
59

>  <ligand_id>  (60) 
59

>  <original_smiles>  (60) 
[H]c1nc(OC([H])([H])C([H])(Oc2c([H])c([H])c3c(c2[H])C([H])([H])N(C(=O)C([H])(N([H])C(=O)C([H])(N([H])C([H])([H])[H])C([H])([H])[H])C(C([H])([H])[H])(C([H])([H])[H])C([H])([H])[H])C([H])(C(=O)N([H])C2([H])c4c([H])c([H])c([H])c([H])c4C([H])([H])C([H])([H])C2([H])[H])C3([H])[H])C([H])([H])C([H])([H])[H])c([H])c(C([H])([H])C([H])(C([H])([H])[H])C([H])([H])[H])c1C([H])([H])C([H])([H])N([H])C(=O)N1C([H])([H])C([H])([H])C([H])([H])C([H])(n2nc(-c3c([H])c([H])c(Oc4c([H])c([H])c(F)c([H])c4F)c([H])c3[H])c(C(=O)N([H])[H])c2N([H])[H])C1([H])[H]

>  <smiles>  (60) 
[H]c1nc(OC([H])([H])C([H])(Oc2c([H])c([H])c3c(c2[H])C([H])([H])N(C(=O)C([H])(N([H])C(=O)C([H])(N([H])C([H])([H])[H])C([H])([H])[H])C(C([H])([H])[H])(C([H])([H])[H])C([H])([H])[H])C([H])(C(=O)N([H])C2([H])c4c([H])c([H])c([H])c([H])c4C([H])([H])C([H])([H])C2([H])[H])C3([H])[H])C([H])([H])C([H])([H])[H])c([H])c(C([H])([H])C([H])(C([H])([H])[H])C([H])([H])[H])c1C([H])([H])C([H])([H])N([H])C(=O)N1C([H])([H])C([H])([H])C([H])([H])C([H])(n2nc(-c3c([H])c([H])c(Oc4c([H])c([H])c(F)c([H])c4F)c([H])c3[H])c(C(=O)N([H])[H])c2N([H])[H])C1([H])[H]

$$$$
60:0:0
     RDKit          3D

 90 98  0  0  1  0  0  0  0  0999 V2000
  -30.5630  -19.3430   21.2280 C   0  0  0  0  0  3  0  0  0  0  0  0
  -29.7540  -19.8720   19.2960 C   0  0  0  0  0  3  0  0  0  0  0  0
  -30.2760  -18.6780   19.9860 C   0  0  0  0  0  0  0  0  0  0  0  0
  -30.2590  -20.7260   21.2300 C   0  0  0  0  0  0  0  0  0  0  0  0
  -29.7150  -21.2170   20.0020 N   0  0  0  0  0  0  0  0  0  0  0  0
  -31.0430  -15.7670   20.0680 C   0  0  0  0  0  0  0  0  0  0  0  0
  -30.9970  -13.2340   19.3840 C   0  0  0  0  0  2  0  0  0  0  0  0
  -30.1090  -12.8700   18.1670 C   0  0  0  0  0  2  0  0  0  0  0  0
  -28.6450  -12.6680   18.5890 C   0  0  0  0  0  2  0  0  0  0  0  0
  -28.1750  -13.7450   19.5980 C   0  0  0  0  0  3  0  0  0  0  0  0
  -29.1970  -14.0110   20.7230 C   0  0  0  0  0  2  0  0  0  0  0  0
  -30.4330  -14.4670   20.0580 N   0  0  0  0  0  0  0  0  0  0  0  0
  -32.2830  -15.6650   20.0350 O   0  0  0  0  0  0  0  0  0  0  0  0
  -30.0490  -16.8940   18.2100 C   0  0  0  0  0  1  0  0  0  0  0  0
  -30.3760  -17.0630   19.6300 N   0  0  0  0  0  0  0  0  0  0  0  0
  -25.8460  -14.4480   20.3330 C   0  0  0  0  0  0  0  0  0  0  0  0
  -24.7290  -13.7420   20.6770 C   0  0  0  0  0  0  0  0  0  0  0  0
  -25.1080  -12.3640   20.6460 C   0  0  0  0  0  0  0  0  0  0  0  0
  -26.8310  -13.5070   20.0980 N   0  0  0  0  0  0  0  0  0  0  0  0
  -26.3990  -12.2450   20.3540 N   0  0  0  0  0  0  0  0  0  0  0  0
  -24.2950  -11.1530   20.8160 C   0  0  0  0  0  0  0  0  0  0  0  0
  -24.6450  -10.1530   21.7500 C   0  0  0  0  0  3  0  0  0  0  0  0
  -23.8370   -9.0070   21.9080 C   0  0  0  0  0  3  0  0  0  0  0  0
  -22.6610   -8.8560   21.1330 C   0  0  0  0  0  0  0  0  0  0  0  0
  -22.3310   -9.8420   20.1870 C   0  0  0  0  0  3  0  0  0  0  0  0
  -23.1400  -10.9790   20.0280 C   0  0  0  0  0  3  0  0  0  0  0  0
  -21.8260   -7.7670   21.2040 O   0  0  0  0  0  0  0  0  0  0  0  0
  -21.7470   -6.9920   22.3350 C   0  0  0  0  0  0  0  0  0  0  0  0
  -21.3440   -7.5270   23.5770 C   0  0  0  0  0  3  0  0  0  0  0  0
  -21.2100   -6.6820   24.6970 C   0  0  0  0  0  3  0  0  0  0  0  0
  -21.4680   -5.3030   24.5720 C   0  0  0  0  0  0  0  0  0  0  0  0
  -21.8620   -4.7680   23.3350 C   0  0  0  0  0  3  0  0  0  0  0  0
  -21.9990   -5.6120   22.2180 C   0  0  0  0  0  0  0  0  0  0  0  0
  -22.3610   -5.0880   21.0210 F   0  0  0  0  0  0  0  0  0  0  0  0
  -21.3310   -4.4890   25.6450 F   0  0  0  0  0  0  0  0  0  0  0  0
  -23.3640  -14.3110   20.9220 C   0  0  0  0  0  0  0  0  0  0  0  0
  -22.5780  -13.6670   21.7790 N   0  0  0  0  0  0  0  0  0  0  0  0
  -23.0040  -15.3620   20.3920 O   0  0  0  0  0  0  0  0  0  0  0  0
  -22.8820  -12.8170   22.2310 H   0  0  0  0  0  0  0  0  0  0  0  0
  -21.6580  -14.0280   21.9830 H   0  0  0  0  0  0  0  0  0  0  0  0
  -26.1050  -15.8070   20.1720 N   0  0  0  0  0  0  0  0  0  0  0  0
  -25.3960  -16.5180   20.3150 H   0  0  0  0  0  0  0  0  0  0  0  0
  -27.0040  -16.1910   19.9030 H   0  0  0  0  0  0  0  0  0  0  0  0
  -31.9040  -21.5420   22.9810 C   0  0  0  0  0  1  0  0  0  0  0  0
  -29.4560  -21.3680   23.5100 C   0  0  0  0  0  1  0  0  0  0  0  0
  -30.4800  -21.6450   22.4020 C   0  0  0  0  0  3  0  0  0  0  0  0
  -29.4520  -22.8610   19.5050 C   0  0  0  0  0  2  0  0  0  0  0  0
  -27.6260  -24.0670   21.1710 C   0  0  0  0  0  1  0  0  0  0  0  0
  -28.3160  -24.2930   19.8190 C   0  0  0  0  0  3  0  0  0  0  0  0
  -28.4290  -25.9820   19.6790 O   0  0  0  0  0  0  0  0  0  0  0  0
  -24.5880  -31.6410   23.0300 C   0  0  0  0  0  0  0  0  0  0  0  0
  -27.3610  -27.0570   19.6950 C   0  0  0  0  0  0  0  0  0  0  0  0
  -23.4480  -30.2740   21.3300 C   0  0  0  0  0  3  0  0  0  0  0  0
  -24.9620  -28.8440   19.7820 C   0  0  0  0  0  0  0  0  0  0  0  0
  -25.9960  -30.6380   21.1520 C   0  0  0  0  0  2  0  0  0  0  0  0
  -26.1390  -29.2710   20.4100 C   0  0  0  0  0  0  0  0  0  0  0  0
  -27.3280  -28.4030   20.3380 C   0  0  0  0  0  3  0  0  0  0  0  0
  -26.1460  -26.8050   19.0180 C   0  0  0  0  0  3  0  0  0  0  0  0
  -24.9940  -27.6390   19.0610 C   0  0  0  0  0  3  0  0  0  0  0  0
  -23.6920  -29.6900   19.9090 C   0  0  0  0  0  2  0  0  0  0  0  0
  -24.6980  -30.8800   21.8910 N   0  0  0  0  0  0  0  0  0  0  0  0
  -23.4930  -31.8300   23.5870 O   0  0  0  0  0  0  0  0  0  0  0  0
  -22.8360  -29.1810   22.2470 C   0  0  0  0  0  0  0  0  0  0  0  0
  -21.5270  -28.9000   22.1000 N   0  0  0  0  0  0  0  0  0  0  0  0
  -23.5470  -28.5880   23.0600 O   0  0  0  0  0  0  0  0  0  0  0  0
  -20.9990  -29.4370   21.4240 H   0  0  0  0  0  0  0  0  0  0  0  0
  -18.2800  -27.3190   22.4770 C   0  0  0  0  0  0  0  0  0  0  0  0
  -20.7880  -27.8560   22.8200 C   0  0  0  0  0  3  0  0  0  0  0  0
  -21.0620  -26.4610   22.2130 C   0  0  0  0  0  2  0  0  0  0  0  0
  -20.0290  -26.0510   21.1580 C   0  0  0  0  0  2  0  0  0  0  0  0
  -18.6250  -26.0200   21.7660 C   0  0  0  0  0  2  0  0  0  0  0  0
  -19.2960  -28.1890   22.9570 C   0  0  0  0  0  0  0  0  0  0  0  0
  -18.9210  -29.3950   23.5850 C   0  0  0  0  0  3  0  0  0  0  0  0
  -17.5630  -29.7400   23.7330 C   0  0  0  0  0  3  0  0  0  0  0  0
  -16.5630  -28.8700   23.2660 C   0  0  0  0  0  3  0  0  0  0  0  0
  -16.9230  -27.6600   22.6450 C   0  0  0  0  0  3  0  0  0  0  0  0
  -25.8290  -32.3260   23.6790 C   0  0  0  0  0  3  0  0  0  0  0  0
  -26.3690  -31.5500   24.9450 C   0  0  1  0  0  0  0  0  0  0  0  0
  -25.2810  -31.2490   26.0030 C   0  0  0  0  0  1  0  0  0  0  0  0
  -27.0090  -30.2040   24.5380 C   0  0  0  0  0  1  0  0  0  0  0  0
  -27.4850  -32.3760   25.6260 C   0  0  0  0  0  1  0  0  0  0  0  0
  -25.4470  -33.7000   24.0540 N   0  0  0  0  0  0  0  0  0  0  0  0
  -25.7310  -34.7980   23.3410 C   0  0  0  0  0  0  0  0  0  0  0  0
  -26.4040  -34.7630   22.3070 O   0  0  0  0  0  0  0  0  0  0  0  0
  -24.8470  -33.7960   24.8590 H   0  0  0  0  0  0  0  0  0  0  0  0
  -23.9130  -36.5200   23.0800 C   0  0  0  0  0  1  0  0  0  0  0  0
  -25.1900  -36.1490   23.8530 C   0  0  0  0  0  3  0  0  0  0  0  0
  -27.2890  -37.1250   24.6750 C   0  0  0  0  0  1  0  0  0  0  0  0
  -26.1660  -37.2550   23.7490 N   0  0  0  0  0  0  0  0  0  0  0  0
  -25.7180  -38.1520   23.9190 H   0  0  0  0  0  0  0  0  0  0  0  0
  1  4  2  0
  2  3  2  0
  2  5  1  0
  3  1  1  0
  4 46  1  0
  5  4  1  0
  7 12  1  0
  8  9  1  0
  8  7  1  0
 10  9  1  0
 10 19  1  0
 10 11  1  0
 12  6  1  0
 12 11  1  0
 13  6  2  0
 14 15  1  0
 15  3  1  0
 15  6  1  0
 16 17  2  0
 17 36  1  0
 18 17  1  0
 18 21  1  0
 19 16  1  0
 19 20  1  0
 20 18  2  0
 21 22  1  0
 22 23  2  0
 24 27  1  0
 24 23  1  0
 25 24  2  0
 26 25  1  0
 26 21  2  0
 27 28  1  0
 28 29  1  0
 29 30  2  0
 31 30  1  0
 31 35  1  0
 32 31  2  0
 33 28  2  0
 33 32  1  0
 34 33  1  0
 36 37  1  0
 37 40  1  0
 37 39  1  0
 38 36  2  0
 41 42  1  0
 41 16  1  0
 43 41  1  0
 46 44  1  0
 46 45  1  0
 47 49  1  0
 47  5  1  0
 49 48  1  0
 50 52  1  0
 50 49  1  0
 51 62  2  0
 52 57  1  0
 53 61  1  0
 53 63  1  0
 54 60  1  0
 54 56  1  0
 55 61  1  0
 56 55  1  0
 57 56  2  0
 58 59  1  0
 58 52  2  0
 59 54  2  0
 60 53  1  0
 61 51  1  0
 63 65  2  0
 64 63  1  0
 66 64  1  0
 67 76  2  0
 67 72  1  0
 68 64  1  0
 68 72  1  0
 69 68  1  0
 70 71  1  0
 70 69  1  0
 71 67  1  0
 72 73  2  0
 73 74  1  0
 75 74  2  0
 76 75  1  0
 77 51  1  0
 77 82  1  0
 77 78  1  0
 78 81  1  1
 78 79  1  0
 80 78  1  0
 82 85  1  0
 83 87  1  0
 83 82  1  0
 84 83  2  0
 87 86  1  0
 89 87  1  0
 89 90  1  0
 89 88  1  0
M  ISO  4   6 100  15 100  49 101  50 101
M  END
>  <TORSDO>  (61) 
F 19

>  <SCORE>  (61) 
-13.433

>  <name>  (61) 
60

>  <ligand_id>  (61) 
60

>  <original_smiles>  (61) 
[H]c1c([H])c([H])c2c(c1[H])C([H])([H])C([H])([H])C([H])([H])C2([H])N([H])C(=O)C1([H])N(C(=O)C([H])(N([H])C(=O)C([H])(N([H])C([H])([H])[H])C([H])([H])[H])C(C([H])([H])[H])(C([H])([H])[H])C([H])([H])[H])C([H])([H])c2c([H])c(OC([H])(C([H])([H])[H])C([H])([H])n3c([H])c(N(C(=O)N4C([H])([H])C([H])([H])C([H])([H])C([H])(n5nc(-c6c([H])c([H])c(Oc7c([H])c([H])c(F)c([H])c7F)c([H])c6[H])c(C(=O)N([H])[H])c5N([H])[H])C4([H])[H])C([H])([H])[H])c([H])c3C([H])(C([H])([H])[H])C([H])([H])[H])c([H])c([H])c2C1([H])[H]

>  <smiles>  (61) 
[H]c1c([H])c([H])c2c(c1[H])C([H])([H])C([H])([H])C([H])([H])C2([H])N([H])C(=O)C1([H])N(C(=O)C([H])(N([H])C(=O)C([H])(N([H])C([H])([H])[H])C([H])([H])[H])C(C([H])([H])[H])(C([H])([H])[H])C([H])([H])[H])C([H])([H])c2c([H])c(OC([H])(C([H])([H])[H])C([H])([H])n3c([H])c(N(C(=O)N4C([H])([H])C([H])([H])C([H])([H])C([H])(n5nc(-c6c([H])c([H])c(Oc7c([H])c([H])c(F)c([H])c7F)c([H])c6[H])c(C(=O)N([H])[H])c5N([H])[H])C4([H])[H])C([H])([H])[H])c([H])c3C([H])(C([H])([H])[H])C([H])([H])[H])c([H])c([H])c2C1([H])[H]

$$$$
61:0:0
     RDKit          3D

 89 96  0  0  1  0  0  0  0  0999 V2000
  -28.9980  -22.2640   20.3630 C   0  0  0  0  0  3  0  0  0  0  0  0
  -29.7980  -22.5040   21.5830 N   0  0  0  0  0  4  0  0  0  0  0  0
  -29.2340  -22.3960   22.4090 H   0  0  0  0  0  0  0  0  0  0  0  0
  -30.1570  -23.4430   21.5800 H   0  0  0  0  0  0  0  0  0  0  0  0
  -30.5800  -21.8780   21.6410 H   0  0  0  0  0  0  0  0  0  0  0  0
  -28.7640  -20.3450   20.3050 C   0  0  0  0  0  2  0  0  0  0  0  0
  -30.6370  -18.9450   18.9680 C   0  0  0  0  0  1  0  0  0  0  0  0
  -30.7920  -18.9490   21.4460 C   0  0  0  0  0  1  0  0  0  0  0  0
  -29.8340  -18.7440   20.2620 C   0  0  1  0  0  0  0  0  0  0  0  0
  -30.3190  -15.6330   20.2000 C   0  0  0  0  0  0  0  0  0  0  0  0
  -30.3850  -13.1140   19.3530 C   0  0  0  0  0  2  0  0  0  0  0  0
  -29.4770  -12.7470   18.1470 C   0  0  0  0  0  2  0  0  0  0  0  0
  -28.0570  -12.3950   18.6160 C   0  0  0  0  0  2  0  0  0  0  0  0
  -27.5630  -13.3800   19.7010 C   0  0  0  0  0  3  0  0  0  0  0  0
  -28.6090  -13.6720   20.8030 C   0  0  0  0  0  2  0  0  0  0  0  0
  -29.7780  -14.2820   20.1320 N   0  0  0  0  0  0  0  0  0  0  0  0
  -31.5470  -15.5710   20.0100 O   0  0  0  0  0  0  0  0  0  0  0  0
  -29.5770  -16.9950   20.2880 N   0  0  0  0  0  0  0  0  0  0  0  0
  -28.5910  -16.8010   20.3880 H   0  0  0  0  0  0  0  0  0  0  0  0
  -25.2030  -13.8830   20.4990 C   0  0  0  0  0  0  0  0  0  0  0  0
  -24.1590  -13.0890   20.8780 C   0  0  0  0  0  0  0  0  0  0  0  0
  -24.6460  -11.7460   20.8350 C   0  0  0  0  0  0  0  0  0  0  0  0
  -26.2560  -13.0260   20.2360 N   0  0  0  0  0  0  0  0  0  0  0  0
  -25.9350  -11.7330   20.5070 N   0  0  0  0  0  0  0  0  0  0  0  0
  -23.9360  -10.4730   21.0260 C   0  0  0  0  0  0  0  0  0  0  0  0
  -24.3810   -9.5110   21.9570 C   0  0  0  0  0  3  0  0  0  0  0  0
  -23.6670   -8.3050   22.1400 C   0  0  0  0  0  3  0  0  0  0  0  0
  -22.4940   -8.0550   21.3890 C   0  0  0  0  0  0  0  0  0  0  0  0
  -22.0670   -9.0070   20.4460 C   0  0  0  0  0  3  0  0  0  0  0  0
  -22.7820  -10.2020   20.2630 C   0  0  0  0  0  3  0  0  0  0  0  0
  -21.7500   -6.9030   21.4810 O   0  0  0  0  0  0  0  0  0  0  0  0
  -21.7030   -6.1660   22.6370 C   0  0  0  0  0  0  0  0  0  0  0  0
  -21.2540   -6.7180   23.8560 C   0  0  0  0  0  3  0  0  0  0  0  0
  -21.1580   -5.9060   25.0030 C   0  0  0  0  0  3  0  0  0  0  0  0
  -21.4990   -4.5420   24.9330 C   0  0  0  0  0  0  0  0  0  0  0  0
  -21.9410   -3.9880   23.7180 C   0  0  0  0  0  3  0  0  0  0  0  0
  -22.0390   -4.7980   22.5730 C   0  0  0  0  0  0  0  0  0  0  0  0
  -22.4460   -4.2550   21.3990 F   0  0  0  0  0  0  0  0  0  0  0  0
  -21.3990   -3.7590   26.0330 F   0  0  0  0  0  0  0  0  0  0  0  0
  -22.7580  -13.5470   21.1580 C   0  0  0  0  0  0  0  0  0  0  0  0
  -22.0490  -12.8480   22.0360 N   0  0  0  0  0  0  0  0  0  0  0  0
  -22.3030  -14.5630   20.6330 O   0  0  0  0  0  0  0  0  0  0  0  0
  -22.4310  -12.0280   22.4830 H   0  0  0  0  0  0  0  0  0  0  0  0
  -21.1070  -13.1370   22.2650 H   0  0  0  0  0  0  0  0  0  0  0  0
  -25.3420  -15.2560   20.3230 N   0  0  0  0  0  0  0  0  0  0  0  0
  -24.5610  -15.8940   20.4340 H   0  0  0  0  0  0  0  0  0  0  0  0
  -26.1670  -15.7050   19.9450 H   0  0  0  0  0  0  0  0  0  0  0  0
  -27.9740  -23.8850   20.2190 C   0  0  0  0  0  2  0  0  0  0  0  0
  -28.1660  -25.6180   20.3130 O   0  0  0  0  0  0  0  0  0  0  0  0
  -24.6810  -31.8860   23.2040 C   0  0  0  0  0  0  0  0  0  0  0  0
  -27.1850  -26.8090   20.2500 C   0  0  0  0  0  0  0  0  0  0  0  0
  -23.4820  -30.4810   21.5810 C   0  0  0  0  0  3  0  0  0  0  0  0
  -24.9180  -28.8230   20.1790 C   0  0  0  0  0  0  0  0  0  0  0  0
  -26.0600  -30.6240   21.4490 C   0  0  0  0  0  2  0  0  0  0  0  0
  -26.1170  -29.1900   20.8050 C   0  0  0  0  0  0  0  0  0  0  0  0
  -27.2360  -28.2110   20.8060 C   0  0  0  0  0  3  0  0  0  0  0  0
  -25.9540  -26.6410   19.5700 C   0  0  0  0  0  3  0  0  0  0  0  0
  -24.8740  -27.5730   19.5370 C   0  0  0  0  0  3  0  0  0  0  0  0
  -23.7140  -29.7740   20.2150 C   0  0  0  0  0  2  0  0  0  0  0  0
  -24.7650  -31.0300   22.1300 N   0  0  0  0  0  0  0  0  0  0  0  0
  -23.5900  -32.1930   23.7160 O   0  0  0  0  0  0  0  0  0  0  0  0
  -22.7660  -29.5130   22.5610 C   0  0  0  0  0  0  0  0  0  0  0  0
  -21.4330  -29.3640   22.4400 N   0  0  0  0  0  0  0  0  0  0  0  0
  -23.4230  -28.8910   23.4000 O   0  0  0  0  0  0  0  0  0  0  0  0
  -20.9550  -29.9150   21.7400 H   0  0  0  0  0  0  0  0  0  0  0  0
  -18.0400  -28.1730   22.9640 C   0  0  0  0  0  0  0  0  0  0  0  0
  -20.6020  -28.4390   23.2210 C   0  0  0  0  0  3  0  0  0  0  0  0
  -20.6990  -27.0000   22.6630 C   0  0  0  0  0  2  0  0  0  0  0  0
  -19.5960  -26.6690   21.6530 C   0  0  0  0  0  2  0  0  0  0  0  0
  -18.2150  -26.8200   22.2950 C   0  0  0  0  0  2  0  0  0  0  0  0
  -19.1610  -28.9400   23.3830 C   0  0  0  0  0  0  0  0  0  0  0  0
  -18.9400  -30.2040   23.9730 C   0  0  0  0  0  3  0  0  0  0  0  0
  -17.6340  -30.7010   24.1440 C   0  0  0  0  0  3  0  0  0  0  0  0
  -16.5290  -29.9340   23.7370 C   0  0  0  0  0  3  0  0  0  0  0  0
  -16.7330  -28.6710   23.1530 C   0  0  0  0  0  3  0  0  0  0  0  0
  -25.9490  -32.5340   23.8380 C   0  0  0  0  0  3  0  0  0  0  0  0
  -26.4560  -31.7710   25.1260 C   0  0  1  0  0  0  0  0  0  0  0  0
  -25.3570  -31.5490   26.1930 C   0  0  0  0  0  1  0  0  0  0  0  0
  -27.0310  -30.3850   24.7590 C   0  0  0  0  0  1  0  0  0  0  0  0
  -27.6080  -32.5640   25.7840 C   0  0  0  0  0  1  0  0  0  0  0  0
  -25.6280  -33.9330   24.1800 N   0  0  0  0  0  0  0  0  0  0  0  0
  -25.9320  -35.0010   23.4290 C   0  0  0  0  0  0  0  0  0  0  0  0
  -26.5690  -34.9110   22.3770 O   0  0  0  0  0  0  0  0  0  0  0  0
  -25.0570  -34.0740   25.0000 H   0  0  0  0  0  0  0  0  0  0  0  0
  -24.1710  -36.7870   23.1790 C   0  0  0  0  0  1  0  0  0  0  0  0
  -25.4580  -36.3860   23.9190 C   0  0  0  0  0  3  0  0  0  0  0  0
  -27.6220  -37.2980   24.6410 C   0  0  0  0  0  1  0  0  0  0  0  0
  -26.4730  -37.4500   23.7530 N   0  0  0  0  0  0  0  0  0  0  0  0
  -26.0640  -38.3670   23.9160 H   0  0  0  0  0  0  0  0  0  0  0  0
  1 48  1  0
  1  2  1  0
  2  5  1  0
  2  3  1  0
  4  2  1  0
  6  1  1  0
  9  7  1  6
  9 18  1  0
  9  6  1  0
  9  8  1  0
 10 18  1  0
 11 16  1  0
 12 13  1  0
 12 11  1  0
 14 13  1  0
 14 23  1  0
 14 15  1  0
 16 10  1  0
 16 15  1  0
 17 10  2  0
 18 19  1  0
 20 21  2  0
 21 40  1  0
 22 21  1  0
 22 25  1  0
 23 20  1  0
 23 24  1  0
 24 22  2  0
 25 26  1  0
 26 27  2  0
 28 31  1  0
 28 27  1  0
 29 28  2  0
 30 29  1  0
 30 25  2  0
 31 32  1  0
 32 33  1  0
 33 34  2  0
 35 34  1  0
 35 39  1  0
 36 35  2  0
 37 32  2  0
 37 36  1  0
 38 37  1  0
 40 41  1  0
 41 44  1  0
 41 43  1  0
 42 40  2  0
 45 46  1  0
 45 20  1  0
 47 45  1  0
 48 49  1  0
 50 61  2  0
 51 49  1  0
 51 56  1  0
 52 60  1  0
 52 62  1  0
 53 59  1  0
 53 55  1  0
 54 60  1  0
 55 56  2  0
 55 54  1  0
 57 51  2  0
 58 57  1  0
 58 53  2  0
 59 52  1  0
 60 50  1  0
 62 64  2  0
 63 62  1  0
 65 63  1  0
 66 75  2  0
 66 71  1  0
 67 63  1  0
 67 71  1  0
 68 67  1  0
 69 70  1  0
 69 68  1  0
 70 66  1  0
 71 72  2  0
 72 73  1  0
 74 73  2  0
 75 74  1  0
 76 50  1  0
 76 81  1  0
 76 77  1  0
 77 80  1  1
 77 78  1  0
 79 77  1  0
 81 84  1  0
 82 86  1  0
 82 81  1  0
 83 82  2  0
 86 85  1  0
 88 89  1  0
 88 86  1  0
 88 87  1  0
M  ISO  4  10 100  18 100  48 101  49 101
M  END
>  <TORSDO>  (62) 
F 20

>  <SCORE>  (62) 
-16.593

>  <name>  (62) 
61

>  <ligand_id>  (62) 
61

>  <original_smiles>  (62) 
[H]c1c([H])c([H])c2c(c1[H])C([H])([H])C([H])([H])C([H])([H])C2([H])N([H])C(=O)C1([H])N(C(=O)C([H])(N([H])C(=O)C([H])(N([H])C([H])([H])[H])C([H])([H])[H])C(C([H])([H])[H])(C([H])([H])[H])C([H])([H])[H])C([H])([H])c2c([H])c(OC([H])([H])C([H])(C([H])([H])C(N([H])C(=O)N3C([H])([H])C([H])([H])C([H])([H])C([H])(n4nc(-c5c([H])c([H])c(Oc6c([H])c([H])c(F)c([H])c6F)c([H])c5[H])c(C(=O)N([H])[H])c4N([H])[H])C3([H])[H])(C([H])([H])[H])C([H])([H])[H])[N+]([H])([H])[H])c([H])c([H])c2C1([H])[H]

>  <smiles>  (62) 
[H]c1c([H])c([H])c2c(c1[H])C([H])([H])C([H])([H])C([H])([H])C2([H])N([H])C(=O)C1([H])N(C(=O)C([H])(N([H])C(=O)C([H])(N([H])C([H])([H])[H])C([H])([H])[H])C(C([H])([H])[H])(C([H])([H])[H])C([H])([H])[H])C([H])([H])c2c([H])c(OC([H])([H])C([H])(C([H])([H])C(N([H])C(=O)N3C([H])([H])C([H])([H])C([H])([H])C([H])(n4nc(-c5c([H])c([H])c(Oc6c([H])c([H])c(F)c([H])c6F)c([H])c5[H])c(C(=O)N([H])[H])c4N([H])[H])C3([H])[H])(C([H])([H])[H])C([H])([H])[H])[N+]([H])([H])[H])c([H])c([H])c2C1([H])[H]

$$$$
62:0:0
     RDKit          3D

 89 97  0  0  1  0  0  0  0  0999 V2000
  -28.1770  -23.8280   19.2740 C   0  0  0  0  0  2  0  0  0  0  0  0
  -29.3650  -24.2920   21.3140 C   0  0  0  0  0  2  0  0  0  0  0  0
  -28.1440  -22.2580   19.6450 C   0  0  0  0  0  2  0  0  0  0  0  0
  -29.3170  -22.7430   21.6820 C   0  0  0  0  0  2  0  0  0  0  0  0
  -28.1800  -24.8630   20.4670 C   0  0  0  0  0  3  0  0  0  0  0  0
  -29.2520  -21.7520   20.5410 N   0  0  1  0  0  4  0  0  0  0  0  0
  -30.1160  -21.8560   20.0270 H   0  0  0  0  0  0  0  0  0  0  0  0
  -28.3150  -26.3610   20.2030 O   0  0  0  0  0  0  0  0  0  0  0  0
  -24.6150  -31.8790   23.2170 C   0  0  0  0  0  0  0  0  0  0  0  0
  -27.1990  -27.2420   20.1800 C   0  0  0  0  0  0  0  0  0  0  0  0
  -23.4000  -30.4700   21.5960 C   0  0  0  0  0  3  0  0  0  0  0  0
  -24.8400  -28.9010   20.1660 C   0  0  0  0  0  0  0  0  0  0  0  0
  -25.9420  -30.7760   21.3890 C   0  0  0  0  0  2  0  0  0  0  0  0
  -26.0190  -29.3860   20.7480 C   0  0  0  0  0  0  0  0  0  0  0  0
  -27.2010  -28.5730   20.7330 C   0  0  0  0  0  3  0  0  0  0  0  0
  -25.9960  -26.8240   19.5760 C   0  0  0  0  0  3  0  0  0  0  0  0
  -24.8360  -27.6310   19.5650 C   0  0  0  0  0  3  0  0  0  0  0  0
  -23.6060  -29.7830   20.2190 C   0  0  0  0  0  2  0  0  0  0  0  0
  -24.6720  -31.0620   22.1220 N   0  0  0  0  0  0  0  0  0  0  0  0
  -23.5350  -32.1580   23.7590 O   0  0  0  0  0  0  0  0  0  0  0  0
  -22.7420  -29.4630   22.5700 C   0  0  0  0  0  0  0  0  0  0  0  0
  -21.4150  -29.2830   22.4550 N   0  0  0  0  0  0  0  0  0  0  0  0
  -23.4270  -28.8450   23.3880 O   0  0  0  0  0  0  0  0  0  0  0  0
  -20.9210  -29.8330   21.7670 H   0  0  0  0  0  0  0  0  0  0  0  0
  -18.0460  -28.0640   22.9790 C   0  0  0  0  0  0  0  0  0  0  0  0
  -20.6040  -28.3480   23.2380 C   0  0  0  0  0  3  0  0  0  0  0  0
  -20.7170  -26.9110   22.6770 C   0  0  0  0  0  2  0  0  0  0  0  0
  -19.6140  -26.5700   21.6690 C   0  0  0  0  0  2  0  0  0  0  0  0
  -18.2330  -26.7110   22.3150 C   0  0  0  0  0  2  0  0  0  0  0  0
  -19.1610  -28.8400   23.3980 C   0  0  0  0  0  0  0  0  0  0  0  0
  -18.9330  -30.1060   23.9790 C   0  0  0  0  0  3  0  0  0  0  0  0
  -17.6240  -30.5970   24.1460 C   0  0  0  0  0  3  0  0  0  0  0  0
  -16.5250  -29.8190   23.7430 C   0  0  0  0  0  3  0  0  0  0  0  0
  -16.7370  -28.5550   23.1650 C   0  0  0  0  0  3  0  0  0  0  0  0
  -25.8990  -32.5190   23.8270 C   0  0  0  0  0  3  0  0  0  0  0  0
  -26.4290  -31.7520   25.1010 C   0  0  1  0  0  0  0  0  0  0  0  0
  -25.3490  -31.5190   26.1820 C   0  0  0  0  0  1  0  0  0  0  0  0
  -27.0100  -30.3750   24.7100 C   0  0  0  0  0  1  0  0  0  0  0  0
  -27.5860  -32.5510   25.7480 C   0  0  0  0  0  1  0  0  0  0  0  0
  -25.5870  -33.9170   24.1610 N   0  0  0  0  0  0  0  0  0  0  0  0
  -25.9090  -34.9730   23.4030 C   0  0  0  0  0  0  0  0  0  0  0  0
  -26.5690  -34.8740   22.3640 O   0  0  0  0  0  0  0  0  0  0  0  0
  -25.0000  -34.0680   24.9680 H   0  0  0  0  0  0  0  0  0  0  0  0
  -24.1720  -36.7630   23.0740 C   0  0  0  0  0  1  0  0  0  0  0  0
  -25.4240  -36.3600   23.8690 C   0  0  0  0  0  3  0  0  0  0  0  0
  -27.5690  -37.2470   24.6720 C   0  0  0  0  0  1  0  0  0  0  0  0
  -26.4510  -37.4180   23.7480 N   0  0  0  0  0  0  0  0  0  0  0  0
  -26.0440  -38.3340   23.9090 H   0  0  0  0  0  0  0  0  0  0  0  0
  -29.2340  -20.2650   21.0480 C   0  0  0  0  0  3  0  0  0  0  0  0
  -29.5560  -18.9280   20.1460 C   0  0  0  0  0  3  0  0  0  0  0  0
  -29.9360  -17.4670   20.8550 C   0  0  0  0  0  2  0  0  0  0  0  0
  -30.5420  -14.8910   20.2930 C   0  0  0  0  0  0  0  0  0  0  0  0
  -30.3810  -12.5530   19.3740 C   0  0  0  0  0  2  0  0  0  0  0  0
  -29.4480  -12.5030   18.1430 C   0  0  0  0  0  2  0  0  0  0  0  0
  -27.9710  -12.3610   18.5680 C   0  0  0  0  0  2  0  0  0  0  0  0
  -27.5740  -13.2840   19.7520 C   0  0  0  0  0  3  0  0  0  0  0  0
  -28.6360  -13.2910   20.8700 C   0  0  0  0  0  2  0  0  0  0  0  0
  -29.9130  -13.6550   20.2450 N   0  0  0  0  0  0  0  0  0  0  0  0
  -31.7710  -14.9290   20.1840 O   0  0  0  0  0  0  0  0  0  0  0  0
  -29.0820  -16.2670   18.8890 C   0  0  0  0  0  1  0  0  0  0  0  0
  -29.7760  -16.0780   20.1660 N   0  0  0  0  0  0  0  0  0  0  0  0
  -25.1980  -13.9030   20.4680 C   0  0  0  0  0  0  0  0  0  0  0  0
  -24.1240  -13.1400   20.8340 C   0  0  0  0  0  0  0  0  0  0  0  0
  -24.5820  -11.7870   20.8290 C   0  0  0  0  0  0  0  0  0  0  0  0
  -26.2360  -13.0110   20.2520 N   0  0  0  0  0  0  0  0  0  0  0  0
  -25.8750  -11.7360   20.5360 N   0  0  0  0  0  0  0  0  0  0  0  0
  -23.8500  -10.5310   21.0280 C   0  0  0  0  0  0  0  0  0  0  0  0
  -24.2820   -9.5660   21.9640 C   0  0  0  0  0  3  0  0  0  0  0  0
  -23.5510   -8.3740   22.1500 C   0  0  0  0  0  3  0  0  0  0  0  0
  -22.3740   -8.1390   21.3990 C   0  0  0  0  0  0  0  0  0  0  0  0
  -21.9620   -9.0930   20.4520 C   0  0  0  0  0  3  0  0  0  0  0  0
  -22.6940  -10.2770   20.2640 C   0  0  0  0  0  3  0  0  0  0  0  0
  -21.6130   -7.0000   21.4970 O   0  0  0  0  0  0  0  0  0  0  0  0
  -21.5770   -6.2550   22.6490 C   0  0  0  0  0  0  0  0  0  0  0  0
  -21.1860   -6.8150   23.8860 C   0  0  0  0  0  3  0  0  0  0  0  0
  -21.0950   -5.9980   25.0300 C   0  0  0  0  0  3  0  0  0  0  0  0
  -21.3840   -4.6240   24.9390 C   0  0  0  0  0  0  0  0  0  0  0  0
  -21.7670   -4.0640   23.7080 C   0  0  0  0  0  3  0  0  0  0  0  0
  -21.8600   -4.8770   22.5660 C   0  0  0  0  0  0  0  0  0  0  0  0
  -22.2090   -4.3300   21.3760 F   0  0  0  0  0  0  0  0  0  0  0  0
  -21.2900   -3.8370   26.0360 F   0  0  0  0  0  0  0  0  0  0  0  0
  -22.7260  -13.6280   21.0810 C   0  0  0  0  0  0  0  0  0  0  0  0
  -21.9860  -12.9490   21.9490 N   0  0  0  0  0  0  0  0  0  0  0  0
  -22.2990  -14.6470   20.5380 O   0  0  0  0  0  0  0  0  0  0  0  0
  -22.3460  -12.1250   22.4080 H   0  0  0  0  0  0  0  0  0  0  0  0
  -21.0480  -13.2580   22.1610 H   0  0  0  0  0  0  0  0  0  0  0  0
  -25.3760  -15.2700   20.2740 N   0  0  0  0  0  0  0  0  0  0  0  0
  -24.6220  -15.9400   20.3790 H   0  0  0  0  0  0  0  0  0  0  0  0
  -26.2490  -15.6940   19.9890 H   0  0  0  0  0  0  0  0  0  0  0  0
  1  3  1  0
  1  5  1  0
  2  4  1  0
  3  6  1  0
  5  8  1  0
  5  2  1  0
  6 49  1  0
  6  4  1  0
  6  7  1  6
  9 20  2  0
 10  8  1  0
 10 15  1  0
 11 19  1  0
 11 21  1  0
 12 18  1  0
 12 14  1  0
 13 19  1  0
 14 13  1  0
 15 14  2  0
 16 10  2  0
 17 16  1  0
 17 12  2  0
 18 11  1  0
 19  9  1  0
 21 23  2  0
 22 21  1  0
 24 22  1  0
 25 34  2  0
 25 30  1  0
 26 22  1  0
 26 30  1  0
 27 26  1  0
 28 29  1  0
 28 27  1  0
 29 25  1  0
 30 31  2  0
 31 32  1  0
 33 32  2  0
 34 33  1  0
 35  9  1  0
 35 40  1  0
 35 36  1  0
 36 39  1  1
 36 37  1  0
 38 36  1  0
 40 43  1  0
 41 45  1  0
 41 40  1  0
 42 41  2  0
 45 44  1  0
 47 45  1  0
 47 48  1  0
 47 46  1  0
 50 51  1  0
 50 49  2  0
 53 58  1  0
 54 55  1  0
 54 53  1  0
 56 55  1  0
 56 65  1  0
 56 57  1  0
 58 52  1  0
 58 57  1  0
 59 52  2  0
 60 61  1  0
 61 52  1  0
 61 51  1  0
 62 63  2  0
 63 82  1  0
 64 63  1  0
 64 67  1  0
 65 62  1  0
 65 66  1  0
 66 64  2  0
 67 68  1  0
 68 69  2  0
 70 73  1  0
 70 69  1  0
 71 70  2  0
 72 71  1  0
 72 67  2  0
 73 74  1  0
 74 75  1  0
 75 76  2  0
 77 76  1  0
 77 81  1  0
 78 77  2  0
 79 74  2  0
 79 78  1  0
 80 79  1  0
 82 83  1  0
 83 86  1  0
 83 85  1  0
 84 82  2  0
 87 88  1  0
 87 62  1  0
 89 87  1  0
M  ISO  4   5 101   8 101  52 100  61 100
M  END
>  <TORSDO>  (63) 
F 19

>  <SCORE>  (63) 
-13.912

>  <name>  (63) 
62

>  <ligand_id>  (63) 
62

>  <original_smiles>  (63) 
[H]c1c([H])c([H])c2c(c1[H])C([H])([H])C([H])([H])C([H])([H])C2([H])N([H])C(=O)C1([H])N(C(=O)C([H])(N([H])C(=O)C([H])(N([H])C([H])([H])[H])C([H])([H])[H])C(C([H])([H])[H])(C([H])([H])[H])C([H])([H])[H])C([H])([H])c2c([H])c(OC3([H])C([H])([H])C([H])([H])[N+]([H])(C([H])([H])C([H])([H])C([H])([H])N(C(=O)N4C([H])([H])C([H])([H])C([H])([H])C([H])(n5nc(-c6c([H])c([H])c(Oc7c([H])c([H])c(F)c([H])c7F)c([H])c6[H])c(C(=O)N([H])[H])c5N([H])[H])C4([H])[H])C([H])([H])[H])C([H])([H])C3([H])[H])c([H])c([H])c2C1([H])[H]

>  <smiles>  (63) 
[H]c1c([H])c([H])c2c(c1[H])C([H])([H])C([H])([H])C([H])([H])C2([H])N([H])C(=O)C1([H])N(C(=O)C([H])(N([H])C(=O)C([H])(N([H])C([H])([H])[H])C([H])([H])[H])C(C([H])([H])[H])(C([H])([H])[H])C([H])([H])[H])C([H])([H])c2c([H])c(OC3([H])C([H])([H])C([H])([H])[N+]([H])(C([H])([H])C([H])([H])C([H])([H])N(C(=O)N4C([H])([H])C([H])([H])C([H])([H])C([H])(n5nc(-c6c([H])c([H])c(Oc7c([H])c([H])c(F)c([H])c7F)c([H])c6[H])c(C(=O)N([H])[H])c5N([H])[H])C4([H])[H])C([H])([H])[H])C([H])([H])C3([H])[H])c([H])c([H])c2C1([H])[H]

$$$$
63:0:0
     RDKit          3D

 91 99  0  0  1  0  0  0  0  0999 V2000
  -28.3240  -22.4330   21.2770 C   0  0  0  0  0  2  0  0  0  0  0  0
  -29.6750  -22.6970   19.2160 C   0  0  0  0  0  2  0  0  0  0  0  0
  -27.6130  -23.8610   21.0050 C   0  0  0  0  0  2  0  0  0  0  0  0
  -29.6270  -24.2410   19.6400 C   0  0  0  0  0  2  0  0  0  0  0  0
  -28.8740  -21.6060   20.0470 C   0  0  0  0  0  3  0  0  0  0  0  0
  -28.2330  -24.8790   19.9570 C   0  0  0  0  0  3  0  0  0  0  0  0
  -29.6850  -20.2810   20.3130 N   0  0  0  0  0  4  0  0  0  0  0  0
  -30.2560  -20.4360   21.1290 H   0  0  0  0  0  0  0  0  0  0  0  0
  -30.3350  -20.2340   19.5440 H   0  0  0  0  0  0  0  0  0  0  0  0
  -28.0930  -18.5430   19.2980 C   0  0  0  0  0  1  0  0  0  0  0  0
  -29.1190  -18.8210   20.4110 C   0  0  0  0  0  3  0  0  0  0  0  0
  -30.1980  -17.5590   20.4710 C   0  0  0  0  0  2  0  0  0  0  0  0
  -30.5410  -14.8990   20.3520 C   0  0  0  0  0  0  0  0  0  0  0  0
  -30.3600  -12.5930   19.3710 C   0  0  0  0  0  2  0  0  0  0  0  0
  -29.4140  -12.6220   18.1510 C   0  0  0  0  0  2  0  0  0  0  0  0
  -27.9530  -12.4260   18.5950 C   0  0  0  0  0  2  0  0  0  0  0  0
  -27.5730  -13.3280   19.7980 C   0  0  0  0  0  3  0  0  0  0  0  0
  -28.6390  -13.2890   20.9130 C   0  0  0  0  0  2  0  0  0  0  0  0
  -29.9200  -13.6640   20.3020 N   0  0  0  0  0  0  0  0  0  0  0  0
  -31.7300  -14.9790   20.0330 O   0  0  0  0  0  0  0  0  0  0  0  0
  -29.7820  -16.0610   20.5530 N   0  0  0  0  0  0  0  0  0  0  0  0
  -28.8120  -15.8940   20.7730 H   0  0  0  0  0  0  0  0  0  0  0  0
  -25.1960  -13.9050   20.5640 C   0  0  0  0  0  0  0  0  0  0  0  0
  -24.1370  -13.1270   20.9380 C   0  0  0  0  0  0  0  0  0  0  0  0
  -24.5990  -11.7760   20.8870 C   0  0  0  0  0  0  0  0  0  0  0  0
  -26.2370  -13.0300   20.3030 N   0  0  0  0  0  0  0  0  0  0  0  0
  -25.8870  -11.7440   20.5620 N   0  0  0  0  0  0  0  0  0  0  0  0
  -23.8740  -10.5130   21.0680 C   0  0  0  0  0  0  0  0  0  0  0  0
  -24.3030   -9.5400   21.9980 C   0  0  0  0  0  3  0  0  0  0  0  0
  -23.5760   -8.3420   22.1680 C   0  0  0  0  0  3  0  0  0  0  0  0
  -22.4050   -8.1070   21.4080 C   0  0  0  0  0  0  0  0  0  0  0  0
  -21.9970   -9.0690   20.4660 C   0  0  0  0  0  3  0  0  0  0  0  0
  -22.7240  -10.2580   20.2940 C   0  0  0  0  0  3  0  0  0  0  0  0
  -21.6500   -6.9620   21.4870 O   0  0  0  0  0  0  0  0  0  0  0  0
  -21.5820   -6.2240   22.6410 C   0  0  0  0  0  0  0  0  0  0  0  0
  -21.1050   -6.7750   23.8500 C   0  0  0  0  0  3  0  0  0  0  0  0
  -20.9840   -5.9610   24.9950 C   0  0  0  0  0  3  0  0  0  0  0  0
  -21.3330   -4.5990   24.9320 C   0  0  0  0  0  0  0  0  0  0  0  0
  -21.8040   -4.0480   23.7270 C   0  0  0  0  0  3  0  0  0  0  0  0
  -21.9250   -4.8580   22.5840 C   0  0  0  0  0  0  0  0  0  0  0  0
  -22.3590   -4.3170   21.4210 F   0  0  0  0  0  0  0  0  0  0  0  0
  -21.2110   -3.8150   26.0290 F   0  0  0  0  0  0  0  0  0  0  0  0
  -22.7430  -13.6020   21.2290 C   0  0  0  0  0  0  0  0  0  0  0  0
  -22.0240  -12.8940   22.0930 N   0  0  0  0  0  0  0  0  0  0  0  0
  -22.3000  -14.6340   20.7260 O   0  0  0  0  0  0  0  0  0  0  0  0
  -22.3970  -12.0590   22.5200 H   0  0  0  0  0  0  0  0  0  0  0  0
  -21.0890  -13.1940   22.3350 H   0  0  0  0  0  0  0  0  0  0  0  0
  -25.3580  -15.2780   20.4010 N   0  0  0  0  0  0  0  0  0  0  0  0
  -24.5880  -15.9280   20.5190 H   0  0  0  0  0  0  0  0  0  0  0  0
  -26.1880  -15.7150   20.0270 H   0  0  0  0  0  0  0  0  0  0  0  0
  -28.2820  -26.3750   20.2810 O   0  0  0  0  0  0  0  0  0  0  0  0
  -24.6090  -31.9280   23.2790 C   0  0  0  0  0  0  0  0  0  0  0  0
  -27.1740  -27.2690   20.2230 C   0  0  0  0  0  0  0  0  0  0  0  0
  -23.3970  -30.5380   21.6400 C   0  0  0  0  0  3  0  0  0  0  0  0
  -24.8330  -28.9660   20.2100 C   0  0  0  0  0  0  0  0  0  0  0  0
  -25.9450  -30.8150   21.4600 C   0  0  0  0  0  2  0  0  0  0  0  0
  -26.0110  -29.4290   20.8070 C   0  0  0  0  0  0  0  0  0  0  0  0
  -27.1810  -28.5940   20.7970 C   0  0  0  0  0  3  0  0  0  0  0  0
  -25.9650  -26.8810   19.6040 C   0  0  0  0  0  3  0  0  0  0  0  0
  -24.8180  -27.7030   19.5980 C   0  0  0  0  0  3  0  0  0  0  0  0
  -23.6070  -29.8600   20.2610 C   0  0  0  0  0  2  0  0  0  0  0  0
  -24.6700  -31.1150   22.1820 N   0  0  0  0  0  0  0  0  0  0  0  0
  -23.5270  -32.2130   23.8140 O   0  0  0  0  0  0  0  0  0  0  0  0
  -22.7230  -29.5300   22.6030 C   0  0  0  0  0  0  0  0  0  0  0  0
  -21.3970  -29.3540   22.4720 N   0  0  0  0  0  0  0  0  0  0  0  0
  -23.3950  -28.9090   23.4300 O   0  0  0  0  0  0  0  0  0  0  0  0
  -20.9120  -29.9050   21.7780 H   0  0  0  0  0  0  0  0  0  0  0  0
  -18.0180  -28.1530   22.9660 C   0  0  0  0  0  0  0  0  0  0  0  0
  -20.5750  -28.4180   23.2430 C   0  0  0  0  0  3  0  0  0  0  0  0
  -20.6810  -26.9830   22.6720 C   0  0  0  0  0  2  0  0  0  0  0  0
  -19.5840  -26.6560   21.6560 C   0  0  0  0  0  2  0  0  0  0  0  0
  -18.1990  -26.8030   22.2930 C   0  0  0  0  0  2  0  0  0  0  0  0
  -19.1340  -28.9180   23.3970 C   0  0  0  0  0  0  0  0  0  0  0  0
  -18.9110  -30.1810   23.9860 C   0  0  0  0  0  3  0  0  0  0  0  0
  -17.6040  -30.6810   24.1470 C   0  0  0  0  0  3  0  0  0  0  0  0
  -16.5020  -29.9130   23.7320 C   0  0  0  0  0  3  0  0  0  0  0  0
  -16.7100  -28.6510   23.1470 C   0  0  0  0  0  3  0  0  0  0  0  0
  -25.8930  -32.5570   23.9010 C   0  0  0  0  0  3  0  0  0  0  0  0
  -26.4030  -31.7860   25.1810 C   0  0  1  0  0  0  0  0  0  0  0  0
  -25.3080  -31.5560   26.2480 C   0  0  0  0  0  1  0  0  0  0  0  0
  -26.9810  -30.4050   24.7970 C   0  0  0  0  0  1  0  0  0  0  0  0
  -27.5570  -32.5770   25.8430 C   0  0  0  0  0  1  0  0  0  0  0  0
  -25.5890  -33.9570   24.2320 N   0  0  0  0  0  0  0  0  0  0  0  0
  -25.8960  -35.0090   23.4610 C   0  0  0  0  0  0  0  0  0  0  0  0
  -26.5320  -34.9010   22.4090 O   0  0  0  0  0  0  0  0  0  0  0  0
  -25.0190  -34.1130   25.0510 H   0  0  0  0  0  0  0  0  0  0  0  0
  -24.1430  -36.7910   23.1740 C   0  0  0  0  0  1  0  0  0  0  0  0
  -25.4240  -36.3990   23.9290 C   0  0  0  0  0  3  0  0  0  0  0  0
  -27.5870  -37.3070   24.6540 C   0  0  0  0  0  1  0  0  0  0  0  0
  -26.4440  -37.4570   23.7580 N   0  0  0  0  0  0  0  0  0  0  0  0
  -26.0400  -38.3760   23.9100 H   0  0  0  0  0  0  0  0  0  0  0  0
  2  4  1  0
  2  5  1  0
  3  1  1  0
  4  6  1  0
  5  7  1  0
  5  1  1  0
  6 51  1  0
  6  3  1  0
  7 11  1  0
  7  8  1  0
  9  7  1  0
 11 10  1  0
 11 12  1  0
 12 21  1  0
 13 21  1  0
 14 19  1  0
 15 16  1  0
 15 14  1  0
 17 16  1  0
 17 26  1  0
 17 18  1  0
 19 13  1  0
 19 18  1  0
 20 13  2  0
 21 22  1  0
 23 24  2  0
 24 43  1  0
 25 24  1  0
 25 28  1  0
 26 27  1  0
 26 23  1  0
 27 25  2  0
 28 29  1  0
 29 30  2  0
 31 34  1  0
 31 30  1  0
 32 31  2  0
 33 32  1  0
 33 28  2  0
 34 35  1  0
 35 36  1  0
 36 37  2  0
 38 37  1  0
 38 42  1  0
 39 38  2  0
 40 35  2  0
 40 39  1  0
 41 40  1  0
 43 44  1  0
 44 47  1  0
 44 46  1  0
 45 43  2  0
 48 49  1  0
 48 23  1  0
 50 48  1  0
 52 63  2  0
 53 51  1  0
 53 58  1  0
 54 62  1  0
 54 64  1  0
 55 61  1  0
 55 57  1  0
 56 62  1  0
 57 56  1  0
 58 57  2  0
 59 53  2  0
 60 59  1  0
 60 55  2  0
 61 54  1  0
 62 52  1  0
 64 66  2  0
 65 64  1  0
 67 65  1  0
 68 77  2  0
 68 73  1  0
 69 65  1  0
 69 73  1  0
 70 69  1  0
 71 72  1  0
 71 70  1  0
 72 68  1  0
 73 74  2  0
 74 75  1  0
 76 75  2  0
 77 76  1  0
 78 52  1  0
 78 83  1  0
 78 79  1  0
 79 82  1  1
 79 80  1  0
 81 79  1  0
 83 86  1  0
 84 88  1  0
 84 83  1  0
 85 84  2  0
 88 87  1  0
 90 91  1  0
 90 88  1  0
 90 89  1  0
M  ISO  4   6 101  13 100  21 100  51 101
M  END
>  <TORSDO>  (64) 
F 19

>  <SCORE>  (64) 
-14.241

>  <name>  (64) 
63

>  <ligand_id>  (64) 
63

>  <original_smiles>  (64) 
[H]c1c([H])c([H])c2c(c1[H])C([H])([H])C([H])([H])C([H])([H])C2([H])N([H])C(=O)C1([H])N(C(=O)C([H])(N([H])C(=O)C([H])(N([H])C([H])([H])[H])C([H])([H])[H])C(C([H])([H])[H])(C([H])([H])[H])C([H])([H])[H])C([H])([H])c2c([H])c(OC3([H])C([H])([H])C([H])([H])C([H])([N+]([H])([H])C([H])(C([H])([H])[H])C([H])([H])N([H])C(=O)N4C([H])([H])C([H])([H])C([H])([H])C([H])(n5nc(-c6c([H])c([H])c(Oc7c([H])c([H])c(F)c([H])c7F)c([H])c6[H])c(C(=O)N([H])[H])c5N([H])[H])C4([H])[H])C([H])([H])C3([H])[H])c([H])c([H])c2C1([H])[H]

>  <smiles>  (64) 
[H]c1c([H])c([H])c2c(c1[H])C([H])([H])C([H])([H])C([H])([H])C2([H])N([H])C(=O)C1([H])N(C(=O)C([H])(N([H])C(=O)C([H])(N([H])C([H])([H])[H])C([H])([H])[H])C(C([H])([H])[H])(C([H])([H])[H])C([H])([H])[H])C([H])([H])c2c([H])c(OC3([H])C([H])([H])C([H])([H])C([H])([N+]([H])([H])C([H])(C([H])([H])[H])C([H])([H])N([H])C(=O)N4C([H])([H])C([H])([H])C([H])([H])C([H])(n5nc(-c6c([H])c([H])c(Oc7c([H])c([H])c(F)c([H])c7F)c([H])c6[H])c(C(=O)N([H])[H])c5N([H])[H])C4([H])[H])C([H])([H])C3([H])[H])c([H])c([H])c2C1([H])[H]

$$$$
64:0:0
     RDKit          3D

 93101  0  0  1  0  0  0  0  0999 V2000
  -29.9340  -22.5850   21.7140 C   0  0  0  0  0  2  0  0  0  0  0  0
  -30.9500  -21.4360   21.5880 C   0  0  0  0  0  2  0  0  0  0  0  0
  -29.5700  -21.4650   19.6630 C   0  0  0  0  0  2  0  0  0  0  0  0
  -29.5720  -22.9110   20.2640 C   0  0  0  0  0  3  0  0  0  0  0  0
  -30.5050  -20.5930   20.4500 N   0  0  2  0  0  4  0  0  0  0  0  0
  -31.3080  -20.4120   19.8640 H   0  0  0  0  0  0  0  0  0  0  0  0
  -27.8080  -23.7400   18.5850 C   0  0  0  0  0  1  0  0  0  0  0  0
  -28.2520  -23.7570   20.0650 C   0  0  0  0  0  3  0  0  0  0  0  0
  -28.2170  -25.1910   20.7570 C   0  0  0  0  0  2  0  0  0  0  0  0
  -28.2630  -26.4270   19.9870 O   0  0  0  0  0  0  0  0  0  0  0  0
  -24.5780  -31.6950   23.2030 C   0  0  0  0  0  0  0  0  0  0  0  0
  -27.1380  -27.2390   20.0360 C   0  0  0  0  0  0  0  0  0  0  0  0
  -23.3570  -30.3510   21.5280 C   0  0  0  0  0  3  0  0  0  0  0  0
  -24.7880  -28.8310   20.0660 C   0  0  0  0  0  0  0  0  0  0  0  0
  -25.8940  -30.6630   21.3500 C   0  0  0  0  0  2  0  0  0  0  0  0
  -25.9580  -29.3050   20.6760 C   0  0  0  0  0  0  0  0  0  0  0  0
  -27.1390  -28.5150   20.6590 C   0  0  0  0  0  3  0  0  0  0  0  0
  -25.9540  -26.8080   19.4090 C   0  0  0  0  0  3  0  0  0  0  0  0
  -24.7860  -27.5840   19.4290 C   0  0  0  0  0  3  0  0  0  0  0  0
  -23.5630  -29.7130   20.1290 C   0  0  0  0  0  2  0  0  0  0  0  0
  -24.6290  -30.9150   22.0860 N   0  0  0  0  0  0  0  0  0  0  0  0
  -23.4990  -31.9730   23.7450 O   0  0  0  0  0  0  0  0  0  0  0  0
  -22.6910  -29.3100   22.4580 C   0  0  0  0  0  0  0  0  0  0  0  0
  -21.3640  -29.1400   22.3170 N   0  0  0  0  0  0  0  0  0  0  0  0
  -23.3630  -28.6600   23.2620 O   0  0  0  0  0  0  0  0  0  0  0  0
  -20.8800  -29.7150   21.6410 H   0  0  0  0  0  0  0  0  0  0  0  0
  -17.9870  -27.9340   22.7350 C   0  0  0  0  0  0  0  0  0  0  0  0
  -20.5380  -28.1930   23.0640 C   0  0  0  0  0  3  0  0  0  0  0  0
  -20.6550  -26.7660   22.4780 C   0  0  0  0  0  2  0  0  0  0  0  0
  -19.5750  -26.4520   21.4400 C   0  0  0  0  0  2  0  0  0  0  0  0
  -18.1780  -26.5890   22.0550 C   0  0  0  0  0  2  0  0  0  0  0  0
  -19.0950  -28.6920   23.1970 C   0  0  0  0  0  0  0  0  0  0  0  0
  -18.8620  -29.9490   23.7950 C   0  0  0  0  0  3  0  0  0  0  0  0
  -17.5520  -30.4460   23.9370 C   0  0  0  0  0  3  0  0  0  0  0  0
  -16.4580  -29.6820   23.4980 C   0  0  0  0  0  3  0  0  0  0  0  0
  -16.6750  -28.4280   22.8970 C   0  0  0  0  0  3  0  0  0  0  0  0
  -25.8720  -32.2960   23.8350 C   0  0  0  0  0  3  0  0  0  0  0  0
  -25.5810  -33.6880   24.2030 N   0  0  0  0  0  0  0  0  0  0  0  0
  -25.9460  -34.7570   23.4830 C   0  0  0  0  0  0  0  0  0  0  0  0
  -26.6340  -34.6720   22.4630 O   0  0  0  0  0  0  0  0  0  0  0  0
  -24.9770  -33.8300   24.9990 H   0  0  0  0  0  0  0  0  0  0  0  0
  -24.2650  -36.5920   23.1350 C   0  0  0  0  0  1  0  0  0  0  0  0
  -25.4710  -36.1360   23.9730 C   0  0  0  0  0  3  0  0  0  0  0  0
  -27.5930  -36.9480   24.8990 C   0  0  0  0  0  1  0  0  0  0  0  0
  -26.5260  -37.1720   23.9270 N   0  0  0  0  0  0  0  0  0  0  0  0
  -26.1360  -38.0950   24.0940 H   0  0  0  0  0  0  0  0  0  0  0  0
  -26.3820  -31.4840   25.0880 C   0  0  1  0  0  0  0  0  0  0  0  0
  -25.2840  -31.2300   26.1480 C   0  0  0  0  0  1  0  0  0  0  0  0
  -26.9530  -30.1120   24.6580 C   0  0  0  0  0  1  0  0  0  0  0  0
  -27.5360  -32.2510   25.7730 C   0  0  0  0  0  1  0  0  0  0  0  0
  -29.9240  -19.2600   20.8380 C   0  0  0  0  0  2  0  0  0  0  0  0
  -32.2630  -18.4730   21.6600 C   0  0  0  0  0  1  0  0  0  0  0  0
  -30.2000  -17.2810   22.3320 C   0  0  0  0  0  1  0  0  0  0  0  0
  -30.8780  -18.0260   21.1540 C   0  0  1  0  0  0  0  0  0  0  0  0
  -31.0720  -17.0190   19.9550 C   0  0  0  0  0  2  0  0  0  0  0  0
  -31.6400  -14.5120   19.8750 C   0  0  0  0  0  0  0  0  0  0  0  0
  -31.2380  -12.2880   18.8670 C   0  0  0  0  0  2  0  0  0  0  0  0
  -30.2560  -12.4590   17.6880 C   0  0  0  0  0  2  0  0  0  0  0  0
  -28.7920  -12.4210   18.1740 C   0  0  0  0  0  2  0  0  0  0  0  0
  -28.5440  -13.3440   19.3960 C   0  0  0  0  0  3  0  0  0  0  0  0
  -29.6240  -13.1230   20.4800 C   0  0  0  0  0  2  0  0  0  0  0  0
  -30.9440  -13.3400   19.8570 N   0  0  0  0  0  0  0  0  0  0  0  0
  -32.7600  -14.6310   19.3700 O   0  0  0  0  0  0  0  0  0  0  0  0
  -30.9230  -15.5800   20.2950 N   0  0  0  0  0  0  0  0  0  0  0  0
  -30.0340  -15.3330   20.7030 H   0  0  0  0  0  0  0  0  0  0  0  0
  -26.2400  -14.1440   20.2180 C   0  0  0  0  0  0  0  0  0  0  0  0
  -25.1290  -13.4590   20.6330 C   0  0  0  0  0  0  0  0  0  0  0  0
  -25.4750  -12.0740   20.5740 C   0  0  0  0  0  0  0  0  0  0  0  0
  -27.1960  -13.1800   19.9330 N   0  0  0  0  0  0  0  0  0  0  0  0
  -26.7410  -11.9300   20.2050 N   0  0  0  0  0  0  0  0  0  0  0  0
  -24.6560  -10.8740   20.7890 C   0  0  0  0  0  0  0  0  0  0  0  0
  -24.9980   -9.9140   21.7680 C   0  0  0  0  0  3  0  0  0  0  0  0
  -24.1860   -8.7780   21.9710 C   0  0  0  0  0  3  0  0  0  0  0  0
  -23.0180   -8.5920   21.1930 C   0  0  0  0  0  0  0  0  0  0  0  0
  -22.6940   -9.5400   20.2070 C   0  0  0  0  0  3  0  0  0  0  0  0
  -23.5050  -10.6680   20.0020 C   0  0  0  0  0  3  0  0  0  0  0  0
  -22.1850   -7.5060   21.3010 O   0  0  0  0  0  0  0  0  0  0  0  0
  -21.9820   -6.8680   22.4980 C   0  0  0  0  0  0  0  0  0  0  0  0
  -21.4960   -7.5530   23.6340 C   0  0  0  0  0  3  0  0  0  0  0  0
  -21.2370   -6.8450   24.8250 C   0  0  0  0  0  3  0  0  0  0  0  0
  -21.4550   -5.4560   24.8810 C   0  0  0  0  0  0  0  0  0  0  0  0
  -21.9360   -4.7730   23.7510 C   0  0  0  0  0  3  0  0  0  0  0  0
  -22.1960   -5.4760   22.5620 C   0  0  0  0  0  0  0  0  0  0  0  0
  -22.6380   -4.8100   21.4700 F   0  0  0  0  0  0  0  0  0  0  0  0
  -21.1990   -4.7750   26.0230 F   0  0  0  0  0  0  0  0  0  0  0  0
  -23.7900  -14.0460   20.9720 C   0  0  0  0  0  0  0  0  0  0  0  0
  -23.0640  -13.4260   21.8940 N   0  0  0  0  0  0  0  0  0  0  0  0
  -23.3990  -15.0920   20.4520 O   0  0  0  0  0  0  0  0  0  0  0  0
  -23.3920  -12.5800   22.3360 H   0  0  0  0  0  0  0  0  0  0  0  0
  -22.1640  -13.8010   22.1610 H   0  0  0  0  0  0  0  0  0  0  0  0
  -26.5130  -15.4980   20.0420 N   0  0  0  0  0  0  0  0  0  0  0  0
  -25.8060  -16.2110   20.1810 H   0  0  0  0  0  0  0  0  0  0  0  0
  -27.3710  -15.8610   19.6470 H   0  0  0  0  0  0  0  0  0  0  0  0
  2  1  1  0
  3  4  1  0
  3  5  1  0
  4  8  1  0
  4  1  1  0
  5 51  1  0
  5  2  1  0
  5  6  1  6
  8  7  1  0
  8  9  1  0
 10 12  1  0
 10  9  1  0
 11 22  2  0
 12 17  1  0
 13 21  1  0
 13 23  1  0
 14 20  1  0
 14 16  1  0
 15 21  1  0
 16 15  1  0
 17 16  2  0
 18 19  1  0
 18 12  2  0
 19 14  2  0
 20 13  1  0
 21 11  1  0
 23 25  2  0
 24 23  1  0
 26 24  1  0
 27 36  2  0
 27 32  1  0
 28 24  1  0
 28 32  1  0
 29 28  1  0
 30 31  1  0
 30 29  1  0
 31 27  1  0
 32 33  2  0
 33 34  1  0
 35 34  2  0
 36 35  1  0
 37 11  1  0
 37 38  1  0
 37 47  1  0
 38 41  1  0
 39 43  1  0
 39 38  1  0
 40 39  2  0
 43 42  1  0
 45 43  1  0
 45 46  1  0
 45 44  1  0
 47 50  1  1
 47 48  1  0
 49 47  1  0
 51 54  1  0
 54 52  1  1
 54 53  1  0
 55 64  1  0
 55 54  1  0
 56 64  1  0
 57 62  1  0
 58 59  1  0
 58 57  1  0
 60 59  1  0
 60 69  1  0
 60 61  1  0
 62 56  1  0
 62 61  1  0
 63 56  2  0
 64 65  1  0
 66 67  2  0
 67 86  1  0
 68 67  1  0
 68 71  1  0
 69 70  1  0
 69 66  1  0
 70 68  2  0
 71 72  1  0
 72 73  2  0
 74 77  1  0
 74 73  1  0
 75 74  2  0
 76 75  1  0
 76 71  2  0
 77 78  1  0
 78 83  2  0
 78 79  1  0
 79 80  2  0
 80 81  1  0
 81 85  1  0
 82 81  2  0
 83 82  1  0
 84 83  1  0
 86 87  1  0
 87 90  1  0
 87 89  1  0
 88 86  2  0
 91 92  1  0
 91 66  1  0
 93 91  1  0
M  ISO  4   9 101  10 101  56 100  64 100
M  END
>  <TORSDO>  (65) 
F 21

>  <SCORE>  (65) 
-12.190

>  <name>  (65) 
64

>  <ligand_id>  (65) 
64

>  <original_smiles>  (65) 
[H]c1c([H])c([H])c2c(c1[H])C([H])([H])C([H])([H])C([H])([H])C2([H])N([H])C(=O)C1([H])N(C(=O)C([H])(N([H])C(=O)C([H])(N([H])C([H])([H])[H])C([H])([H])[H])C(C([H])([H])[H])(C([H])([H])[H])C([H])([H])[H])C([H])([H])c2c([H])c(OC([H])([H])C([H])(C([H])([H])[H])C3([H])C([H])([H])C([H])([H])[N+]([H])(C([H])([H])C(C([H])([H])[H])(C([H])([H])[H])C([H])([H])N([H])C(=O)N4C([H])([H])C([H])([H])C([H])([H])C([H])(n5nc(-c6c([H])c([H])c(Oc7c([H])c([H])c(F)c([H])c7F)c([H])c6[H])c(C(=O)N([H])[H])c5N([H])[H])C4([H])[H])C3([H])[H])c([H])c([H])c2C1([H])[H]

>  <smiles>  (65) 
[H]c1c([H])c([H])c2c(c1[H])C([H])([H])C([H])([H])C([H])([H])C2([H])N([H])C(=O)C1([H])N(C(=O)C([H])(N([H])C(=O)C([H])(N([H])C([H])([H])[H])C([H])([H])[H])C(C([H])([H])[H])(C([H])([H])[H])C([H])([H])[H])C([H])([H])c2c([H])c(OC([H])([H])C([H])(C([H])([H])[H])C3([H])C([H])([H])C([H])([H])[N+]([H])(C([H])([H])C(C([H])([H])[H])(C([H])([H])[H])C([H])([H])N([H])C(=O)N4C([H])([H])C([H])([H])C([H])([H])C([H])(n5nc(-c6c([H])c([H])c(Oc7c([H])c([H])c(F)c([H])c7F)c([H])c6[H])c(C(=O)N([H])[H])c5N([H])[H])C4([H])[H])C3([H])[H])c([H])c([H])c2C1([H])[H]

$$$$
65:0:0
     RDKit          3D

 95103  0  0  1  0  0  0  0  0999 V2000
  -30.8990  -20.7620   19.6370 C   0  0  0  0  0  3  0  0  0  0  0  0
  -31.0330  -19.2890   19.7570 C   0  0  0  0  0  3  0  0  0  0  0  0
  -29.6850  -21.5700   19.6270 C   0  0  0  0  0  0  0  0  0  0  0  0
  -28.5990  -20.6280   19.8210 C   0  0  0  0  0  0  0  0  0  0  0  0
  -28.7100  -19.1300   19.8210 C   0  0  0  0  0  0  0  0  0  0  0  0
  -29.9520  -18.3250   19.8210 C   0  0  0  0  0  0  0  0  0  0  0  0
  -27.2760  -21.3210   20.1340 C   0  0  0  0  0  1  0  0  0  0  0  0
  -30.8480  -15.5340   19.6230 C   0  0  0  0  0  0  0  0  0  0  0  0
  -30.7970  -13.0780   18.8000 C   0  0  0  0  0  2  0  0  0  0  0  0
  -29.7930  -12.8780   17.6390 C   0  0  0  0  0  2  0  0  0  0  0  0
  -28.3720  -12.6220   18.1810 C   0  0  0  0  0  2  0  0  0  0  0  0
  -28.0070  -13.5950   19.3290 C   0  0  0  0  0  3  0  0  0  0  0  0
  -29.1280  -13.7470   20.3750 C   0  0  0  0  0  2  0  0  0  0  0  0
  -30.3210  -14.2220   19.6540 N   0  0  0  0  0  0  0  0  0  0  0  0
  -32.0340  -15.6010   19.2630 O   0  0  0  0  0  0  0  0  0  0  0  0
  -29.9990  -16.7140   19.8230 N   0  0  0  0  0  0  0  0  0  0  0  0
  -29.0930  -16.3290   20.0380 H   0  0  0  0  0  0  0  0  0  0  0  0
  -25.7360  -14.1630   20.3220 C   0  0  0  0  0  0  0  0  0  0  0  0
  -24.6990  -13.4200   20.7980 C   0  0  0  0  0  0  0  0  0  0  0  0
  -25.1130  -12.0620   20.6530 C   0  0  0  0  0  0  0  0  0  0  0  0
  -26.7230  -13.2810   19.9470 N   0  0  0  0  0  0  0  0  0  0  0  0
  -26.3650  -12.0010   20.2060 N   0  0  0  0  0  0  0  0  0  0  0  0
  -24.3610  -10.8190   20.8420 C   0  0  0  0  0  0  0  0  0  0  0  0
  -24.7650   -9.8530   21.7900 C   0  0  0  0  0  3  0  0  0  0  0  0
  -24.0140   -8.6720   21.9690 C   0  0  0  0  0  3  0  0  0  0  0  0
  -22.8490   -8.4480   21.1980 C   0  0  0  0  0  0  0  0  0  0  0  0
  -22.4650   -9.4030   20.2420 C   0  0  0  0  0  3  0  0  0  0  0  0
  -23.2130  -10.5770   20.0600 C   0  0  0  0  0  3  0  0  0  0  0  0
  -22.0720   -7.3200   21.2880 O   0  0  0  0  0  0  0  0  0  0  0  0
  -21.8810   -6.6740   22.4840 C   0  0  0  0  0  0  0  0  0  0  0  0
  -21.2600   -7.3080   23.5830 C   0  0  0  0  0  3  0  0  0  0  0  0
  -21.0250   -6.5890   24.7700 C   0  0  0  0  0  3  0  0  0  0  0  0
  -21.3930   -5.2330   24.8560 C   0  0  0  0  0  0  0  0  0  0  0  0
  -22.0020   -4.5960   23.7600 C   0  0  0  0  0  3  0  0  0  0  0  0
  -22.2430   -5.3160   22.5760 C   0  0  0  0  0  0  0  0  0  0  0  0
  -22.8150   -4.6950   21.5190 F   0  0  0  0  0  0  0  0  0  0  0  0
  -21.1560   -4.5370   25.9930 F   0  0  0  0  0  0  0  0  0  0  0  0
  -23.3550  -13.9380   21.2230 C   0  0  0  0  0  0  0  0  0  0  0  0
  -22.6740  -13.2280   22.1160 N   0  0  0  0  0  0  0  0  0  0  0  0
  -22.9300  -15.0120   20.8000 O   0  0  0  0  0  0  0  0  0  0  0  0
  -23.0340  -12.3560   22.4760 H   0  0  0  0  0  0  0  0  0  0  0  0
  -21.7790  -13.5630   22.4410 H   0  0  0  0  0  0  0  0  0  0  0  0
  -25.9010  -15.5110   20.0850 N   0  0  0  0  0  0  0  0  0  0  0  0
  -24.9490  -15.8600   20.1780 H   0  0  0  0  0  0  0  0  0  0  0  0
  -26.1550  -15.5290   19.1050 H   0  0  0  0  0  0  0  0  0  0  0  0
  -29.6770  -23.3130   19.6640 C   0  0  0  0  0  3  0  0  0  0  0  0
  -28.5560  -24.6470   19.3200 C   0  0  0  0  0  3  0  0  0  0  0  0
  -28.6810  -26.2600   19.5660 O   0  0  0  0  0  0  0  0  0  0  0  0
  -24.7330  -31.5780   23.0720 C   0  0  0  0  0  0  0  0  0  0  0  0
  -27.5930  -27.2680   19.5840 C   0  0  0  0  0  0  0  0  0  0  0  0
  -23.6440  -30.3470   21.2370 C   0  0  0  0  0  3  0  0  0  0  0  0
  -25.1980  -29.0030   19.6680 C   0  0  0  0  0  0  0  0  0  0  0  0
  -26.1920  -30.7090   21.1800 C   0  0  0  0  0  2  0  0  0  0  0  0
  -26.3470  -29.3980   20.3640 C   0  0  0  0  0  0  0  0  0  0  0  0
  -27.5430  -28.5590   20.2900 C   0  0  0  0  0  3  0  0  0  0  0  0
  -26.4080  -27.0060   18.8580 C   0  0  0  0  0  3  0  0  0  0  0  0
  -25.2520  -27.8320   18.8930 C   0  0  0  0  0  3  0  0  0  0  0  0
  -23.9290  -29.8480   19.7930 C   0  0  0  0  0  2  0  0  0  0  0  0
  -24.8770  -30.8970   21.8890 N   0  0  0  0  0  0  0  0  0  0  0  0
  -23.6210  -31.7480   23.5980 O   0  0  0  0  0  0  0  0  0  0  0  0
  -22.9770  -29.2070   22.0500 C   0  0  0  0  0  0  0  0  0  0  0  0
  -21.6450  -29.0570   21.9220 N   0  0  0  0  0  0  0  0  0  0  0  0
  -23.6580  -28.4650   22.7600 O   0  0  0  0  0  0  0  0  0  0  0  0
  -21.1510  -29.7030   21.3250 H   0  0  0  0  0  0  0  0  0  0  0  0
  -18.2640  -27.8370   22.4070 C   0  0  0  0  0  0  0  0  0  0  0  0
  -20.8410  -28.0050   22.5520 C   0  0  0  0  0  3  0  0  0  0  0  0
  -20.8660  -26.7090   21.7070 C   0  0  0  0  0  2  0  0  0  0  0  0
  -19.6990  -26.6100   20.7210 C   0  0  0  0  0  2  0  0  0  0  0  0
  -18.3650  -26.6450   21.4710 C   0  0  0  0  0  2  0  0  0  0  0  0
  -19.4280  -28.4860   22.9010 C   0  0  0  0  0  0  0  0  0  0  0  0
  -19.2840  -29.6080   23.7450 C   0  0  0  0  0  3  0  0  0  0  0  0
  -18.0090  -30.0870   24.0950 C   0  0  0  0  0  3  0  0  0  0  0  0
  -16.8580  -29.4350   23.6160 C   0  0  0  0  0  3  0  0  0  0  0  0
  -16.9870  -28.3080   22.7830 C   0  0  0  0  0  3  0  0  0  0  0  0
  -25.9590  -32.1880   23.8190 C   0  0  0  0  0  3  0  0  0  0  0  0
  -25.6270  -33.5730   24.1830 N   0  0  0  0  0  0  0  0  0  0  0  0
  -26.0210  -34.6620   23.5080 C   0  0  0  0  0  0  0  0  0  0  0  0
  -26.7670  -34.6010   22.5270 O   0  0  0  0  0  0  0  0  0  0  0  0
  -24.9720  -33.6980   24.9420 H   0  0  0  0  0  0  0  0  0  0  0  0
  -24.3450  -36.4990   23.0960 C   0  0  0  0  0  1  0  0  0  0  0  0
  -25.5070  -36.0350   23.9910 C   0  0  0  0  0  3  0  0  0  0  0  0
  -27.5550  -36.8610   25.0670 C   0  0  0  0  0  1  0  0  0  0  0  0
  -26.5560  -37.0790   24.0260 N   0  0  0  0  0  0  0  0  0  0  0  0
  -26.1460  -37.9990   24.1680 H   0  0  0  0  0  0  0  0  0  0  0  0
  -26.3690  -31.3710   25.1090 C   0  0  1  0  0  0  0  0  0  0  0  0
  -25.1980  -31.1340   26.0920 C   0  0  0  0  0  1  0  0  0  0  0  0
  -26.9440  -29.9880   24.7260 C   0  0  0  0  0  1  0  0  0  0  0  0
  -27.4860  -32.1210   25.8710 C   0  0  0  0  0  1  0  0  0  0  0  0
  -27.3980  -18.3470   19.7180 C   0  0  0  0  0  2  0  0  0  0  0  0
  -26.8330  -18.5960   18.3760 N   0  0  0  0  0  4  0  0  0  0  0  0
  -26.6940  -17.6720   17.9900 H   0  0  0  0  0  0  0  0  0  0  0  0
  -27.5150  -19.0720   17.8040 H   0  0  0  0  0  0  0  0  0  0  0  0
  -25.0110  -19.1610   16.8040 C   0  0  0  0  0  1  0  0  0  0  0  0
  -25.4600  -20.7050   18.7520 C   0  0  0  0  0  1  0  0  0  0  0  0
  -25.5030  -19.2500   18.2660 C   0  0  0  0  0  3  0  0  0  0  0  0
  1  2  1  0
  2  6  2  0
  3  1  2  0
  3 46  1  0
  3  4  1  0
  4  5  2  0
  4  7  1  0
  5  6  1  0
  6 16  1  0
  8 14  1  0
  8 16  1  0
  9 14  1  0
 10 11  1  0
 10  9  1  0
 12 11  1  0
 12 21  1  0
 12 13  1  0
 14 13  1  0
 15  8  2  0
 16 17  1  0
 18 19  2  0
 19 38  1  0
 20 19  1  0
 20 23  1  0
 21 22  1  0
 21 18  1  0
 22 20  2  0
 23 24  1  0
 24 25  2  0
 26 29  1  0
 26 25  1  0
 27 26  2  0
 28 27  1  0
 28 23  2  0
 29 30  1  0
 30 35  2  0
 30 31  1  0
 31 32  2  0
 32 33  1  0
 33 37  1  0
 34 33  2  0
 35 34  1  0
 36 35  1  0
 38 39  1  0
 39 42  1  0
 39 41  1  0
 40 38  2  0
 43 44  1  0
 43 18  1  0
 45 43  1  0
 47 48  1  0
 47 46  2  0
 48 50  1  0
 49 60  2  0
 50 55  1  0
 51 59  1  0
 51 61  1  0
 52 58  1  0
 52 54  1  0
 53 59  1  0
 54 53  1  0
 55 54  2  0
 56 57  1  0
 56 50  2  0
 57 52  2  0
 58 51  1  0
 59 49  1  0
 61 63  2  0
 62 61  1  0
 64 62  1  0
 65 74  2  0
 65 70  1  0
 66 62  1  0
 66 70  1  0
 67 66  1  0
 68 69  1  0
 68 67  1  0
 69 65  1  0
 70 71  2  0
 71 72  1  0
 73 72  2  0
 74 73  1  0
 75 49  1  0
 75 76  1  0
 75 85  1  0
 76 79  1  0
 77 81  1  0
 77 76  1  0
 78 77  2  0
 81 80  1  0
 81 83  1  0
 83 84  1  0
 83 82  1  0
 85 88  1  1
 85 86  1  0
 87 85  1  0
 89  5  1  0
 90 89  1  0
 91 90  1  0
 92 90  1  0
 93 95  1  0
 95 90  1  0
 95 94  1  0
M  ISO  4   8 100  16 100  47 101  48 101
M  END
>  <TORSDO>  (66) 
F 21

>  <SCORE>  (66) 
-9.913

>  <name>  (66) 
65

>  <ligand_id>  (66) 
65

>  <original_smiles>  (66) 
[H]c1c([H])c([H])c2c(c1[H])C([H])([H])C([H])([H])C([H])([H])C2([H])N([H])C(=O)C1([H])N(C(=O)C([H])(N([H])C(=O)C([H])(N([H])C([H])([H])[H])C([H])([H])[H])C(C([H])([H])[H])(C([H])([H])[H])C([H])([H])[H])C([H])([H])c2c([H])c(OC([H])([H])C([H])([H])c3c([H])c([H])c(N([H])C(=O)N4C([H])([H])C([H])([H])C([H])([H])C([H])(n5nc(-c6c([H])c([H])c(Oc7c([H])c([H])c(F)c([H])c7F)c([H])c6[H])c(C(=O)N([H])[H])c5N([H])[H])C4([H])[H])c(C([H])([H])[N+]([H])([H])C([H])(C([H])([H])[H])C([H])([H])[H])c3C([H])([H])[H])c([H])c([H])c2C1([H])[H]

>  <smiles>  (66) 
[H]c1c([H])c([H])c2c(c1[H])C([H])([H])C([H])([H])C([H])([H])C2([H])N([H])C(=O)C1([H])N(C(=O)C([H])(N([H])C(=O)C([H])(N([H])C([H])([H])[H])C([H])([H])[H])C(C([H])([H])[H])(C([H])([H])[H])C([H])([H])[H])C([H])([H])c2c([H])c(OC([H])([H])C([H])([H])c3c([H])c([H])c(N([H])C(=O)N4C([H])([H])C([H])([H])C([H])([H])C([H])(n5nc(-c6c([H])c([H])c(Oc7c([H])c([H])c(F)c([H])c7F)c([H])c6[H])c(C(=O)N([H])[H])c5N([H])[H])C4([H])[H])c(C([H])([H])[N+]([H])([H])C([H])(C([H])([H])[H])C([H])([H])[H])c3C([H])([H])[H])c([H])c([H])c2C1([H])[H]

$$$$
66:0:0
     RDKit          3D

 89 96  0  0  1  0  0  0  0  0999 V2000
  -28.6300  -21.0950   19.8020 N   0  0  1  0  0  4  0  0  0  0  0  0
  -29.0250  -21.1480   18.8730 H   0  0  0  0  0  0  0  0  0  0  0  0
  -26.6040  -19.9860   18.5560 C   0  0  0  0  0  1  0  0  0  0  0  0
  -27.1390  -20.9640   19.6360 C   0  0  0  0  0  2  0  0  0  0  0  0
  -28.8380  -22.6380   20.4330 C   0  0  0  0  0  3  0  0  0  0  0  0
  -28.0820  -24.2300   19.9740 C   0  0  0  0  0  3  0  0  0  0  0  0
  -28.2930  -25.8320   20.3700 O   0  0  0  0  0  0  0  0  0  0  0  0
  -24.7260  -31.8680   23.2290 C   0  0  0  0  0  0  0  0  0  0  0  0
  -27.3090  -26.9530   20.2750 C   0  0  0  0  0  0  0  0  0  0  0  0
  -23.5640  -30.4590   21.5850 C   0  0  0  0  0  3  0  0  0  0  0  0
  -25.0300  -28.8570   20.1740 C   0  0  0  0  0  0  0  0  0  0  0  0
  -26.1310  -30.6730   21.4710 C   0  0  0  0  0  2  0  0  0  0  0  0
  -26.2080  -29.2570   20.8140 C   0  0  0  0  0  0  0  0  0  0  0  0
  -27.3460  -28.3290   20.8370 C   0  0  0  0  0  3  0  0  0  0  0  0
  -26.1010  -26.7090   19.5940 C   0  0  0  0  0  3  0  0  0  0  0  0
  -25.0020  -27.6040   19.5380 C   0  0  0  0  0  3  0  0  0  0  0  0
  -23.8180  -29.7820   20.2110 C   0  0  0  0  0  2  0  0  0  0  0  0
  -24.8270  -31.0310   22.1460 N   0  0  0  0  0  0  0  0  0  0  0  0
  -23.6300  -32.1630   23.7380 O   0  0  0  0  0  0  0  0  0  0  0  0
  -22.8580  -29.4660   22.5450 C   0  0  0  0  0  0  0  0  0  0  0  0
  -21.5290  -29.3070   22.4070 N   0  0  0  0  0  0  0  0  0  0  0  0
  -23.5090  -28.8380   23.3840 O   0  0  0  0  0  0  0  0  0  0  0  0
  -21.0590  -29.8660   21.7100 H   0  0  0  0  0  0  0  0  0  0  0  0
  -18.1310  -28.1260   22.9120 C   0  0  0  0  0  0  0  0  0  0  0  0
  -20.6970  -28.3710   23.1710 C   0  0  0  0  0  3  0  0  0  0  0  0
  -20.7830  -26.9440   22.5830 C   0  0  0  0  0  2  0  0  0  0  0  0
  -19.6720  -26.6400   21.5710 C   0  0  0  0  0  2  0  0  0  0  0  0
  -18.2940  -26.7850   22.2230 C   0  0  0  0  0  2  0  0  0  0  0  0
  -19.2570  -28.8770   23.3430 C   0  0  0  0  0  0  0  0  0  0  0  0
  -19.0480  -30.1310   23.9570 C   0  0  0  0  0  3  0  0  0  0  0  0
  -17.7450  -30.6310   24.1450 C   0  0  0  0  0  3  0  0  0  0  0  0
  -16.6340  -29.8810   23.7210 C   0  0  0  0  0  3  0  0  0  0  0  0
  -16.8280  -28.6320   23.1070 C   0  0  0  0  0  3  0  0  0  0  0  0
  -25.9840  -32.5150   23.8810 C   0  0  0  0  0  3  0  0  0  0  0  0
  -25.6740  -33.9290   24.1560 N   0  0  0  0  0  0  0  0  0  0  0  0
  -26.0540  -34.9580   23.3890 C   0  0  0  0  0  0  0  0  0  0  0  0
  -26.7610  -34.8150   22.3870 O   0  0  0  0  0  0  0  0  0  0  0  0
  -25.0390  -34.1120   24.9190 H   0  0  0  0  0  0  0  0  0  0  0  0
  -24.3710  -36.7770   22.9330 C   0  0  0  0  0  1  0  0  0  0  0  0
  -25.5740  -36.3660   23.7980 C   0  0  0  0  0  3  0  0  0  0  0  0
  -27.6860  -37.2570   24.6820 C   0  0  0  0  0  1  0  0  0  0  0  0
  -26.6250  -37.3990   23.6900 N   0  0  0  0  0  0  0  0  0  0  0  0
  -26.2280  -38.3290   23.7830 H   0  0  0  0  0  0  0  0  0  0  0  0
  -26.4300  -31.7920   25.2120 C   0  0  1  0  0  0  0  0  0  0  0  0
  -25.2840  -31.6090   26.2390 C   0  0  0  0  0  1  0  0  0  0  0  0
  -27.0120  -30.3900   24.9140 C   0  0  0  0  0  1  0  0  0  0  0  0
  -27.5600  -32.6080   25.8830 C   0  0  0  0  0  1  0  0  0  0  0  0
  -29.2000  -19.6310   20.3980 C   0  0  0  0  0  2  0  0  0  0  0  0
  -29.1580  -18.0960   18.2070 C   0  0  0  0  0  1  0  0  0  0  0  0
  -31.3420  -18.5610   19.2380 C   0  0  0  0  0  1  0  0  0  0  0  0
  -29.8830  -18.1770   19.5710 C   0  0  1  0  0  0  0  0  0  0  0  0
  -30.7170  -15.3240   19.8670 C   0  0  0  0  0  0  0  0  0  0  0  0
  -30.6240  -12.9110   18.9520 C   0  0  0  0  0  2  0  0  0  0  0  0
  -29.6240  -12.7660   17.7770 C   0  0  0  0  0  2  0  0  0  0  0  0
  -28.1940  -12.5310   18.2920 C   0  0  0  0  0  2  0  0  0  0  0  0
  -27.8390  -13.4550   19.4800 C   0  0  0  0  0  3  0  0  0  0  0  0
  -28.9510  -13.5190   20.5480 C   0  0  0  0  0  2  0  0  0  0  0  0
  -30.1580  -14.0190   19.8670 N   0  0  0  0  0  0  0  0  0  0  0  0
  -31.9040  -15.3310   19.5020 O   0  0  0  0  0  0  0  0  0  0  0  0
  -29.9500  -16.5770   20.0800 N   0  0  0  0  0  0  0  0  0  0  0  0
  -29.0830  -16.3360   20.5370 H   0  0  0  0  0  0  0  0  0  0  0  0
  -25.5160  -14.0400   20.3550 C   0  0  0  0  0  0  0  0  0  0  0  0
  -24.4660  -13.2670   20.7720 C   0  0  0  0  0  0  0  0  0  0  0  0
  -24.9090  -11.9130   20.6940 C   0  0  0  0  0  0  0  0  0  0  0  0
  -26.5310  -13.1510   20.0460 N   0  0  0  0  0  0  0  0  0  0  0  0
  -26.1840  -11.8660   20.3180 N   0  0  0  0  0  0  0  0  0  0  0  0
  -24.1760  -10.6560   20.8940 C   0  0  0  0  0  0  0  0  0  0  0  0
  -24.5960   -9.6990   21.8420 C   0  0  0  0  0  3  0  0  0  0  0  0
  -23.8600   -8.5100   22.0330 C   0  0  0  0  0  3  0  0  0  0  0  0
  -22.6900   -8.2710   21.2750 C   0  0  0  0  0  0  0  0  0  0  0  0
  -22.2850   -9.2200   20.3190 C   0  0  0  0  0  3  0  0  0  0  0  0
  -23.0240  -10.3990   20.1280 C   0  0  0  0  0  3  0  0  0  0  0  0
  -21.9210   -7.1350   21.3780 O   0  0  0  0  0  0  0  0  0  0  0  0
  -21.8130   -6.4430   22.5580 C   0  0  0  0  0  0  0  0  0  0  0  0
  -21.2810   -7.0310   23.7240 C   0  0  0  0  0  3  0  0  0  0  0  0
  -21.1250   -6.2610   24.8950 C   0  0  0  0  0  3  0  0  0  0  0  0
  -21.4950   -4.9030   24.8990 C   0  0  0  0  0  0  0  0  0  0  0  0
  -22.0260   -4.3140   23.7390 C   0  0  0  0  0  3  0  0  0  0  0  0
  -22.1820   -5.0800   22.5690 C   0  0  0  0  0  0  0  0  0  0  0  0
  -22.6710   -4.5000   21.4480 F   0  0  0  0  0  0  0  0  0  0  0  0
  -21.3380   -4.1630   26.0220 F   0  0  0  0  0  0  0  0  0  0  0  0
  -23.0900  -13.7610   21.1090 C   0  0  0  0  0  0  0  0  0  0  0  0
  -22.3980  -13.0680   22.0060 N   0  0  0  0  0  0  0  0  0  0  0  0
  -22.6410  -14.7940   20.6190 O   0  0  0  0  0  0  0  0  0  0  0  0
  -22.7710  -12.2290   22.4250 H   0  0  0  0  0  0  0  0  0  0  0  0
  -21.4760  -13.3810   22.2740 H   0  0  0  0  0  0  0  0  0  0  0  0
  -25.6860  -15.4100   20.1730 N   0  0  0  0  0  0  0  0  0  0  0  0
  -24.9070  -16.0570   20.2620 H   0  0  0  0  0  0  0  0  0  0  0  0
  -26.4560  -15.7940   19.6360 H   0  0  0  0  0  0  0  0  0  0  0  0
  1 48  1  0
  1  5  1  0
  1  2  1  6
  3  4  1  0
  4  1  1  0
  6  7  1  0
  6  5  2  0
  8 19  2  0
  9  7  1  0
  9 14  1  0
 10 18  1  0
 10 20  1  0
 11 17  1  0
 11 13  1  0
 12 18  1  0
 13 14  2  0
 13 12  1  0
 15  9  2  0
 16 15  1  0
 16 11  2  0
 17 10  1  0
 18  8  1  0
 20 22  2  0
 21 20  1  0
 23 21  1  0
 24 33  2  0
 24 29  1  0
 25 21  1  0
 25 29  1  0
 26 25  1  0
 27 28  1  0
 27 26  1  0
 28 24  1  0
 29 30  2  0
 30 31  1  0
 32 31  2  0
 33 32  1  0
 34  8  1  0
 34 35  1  0
 34 44  1  0
 35 38  1  0
 36 40  1  0
 36 35  1  0
 37 36  2  0
 40 39  1  0
 42 43  1  0
 42 40  1  0
 42 41  1  0
 44 47  1  1
 44 45  1  0
 46 44  1  0
 51 49  1  6
 50 51  1  0
 51 60  1  0
 51 48  1  0
 52 58  1  0
 52 60  1  0
 53 58  1  0
 54 55  1  0
 54 53  1  0
 56 55  1  0
 56 65  1  0
 56 57  1  0
 58 57  1  0
 59 52  2  0
 60 61  1  0
 62 63  2  0
 63 82  1  0
 64 63  1  0
 64 67  1  0
 65 66  1  0
 65 62  1  0
 66 64  2  0
 67 68  1  0
 68 69  2  0
 70 73  1  0
 70 69  1  0
 71 70  2  0
 72 71  1  0
 72 67  2  0
 73 74  1  0
 74 79  2  0
 74 75  1  0
 75 76  2  0
 76 77  1  0
 77 81  1  0
 78 77  2  0
 79 78  1  0
 80 79  1  0
 82 83  1  0
 83 86  1  0
 83 85  1  0
 84 82  2  0
 87 88  1  0
 87 62  1  0
 89 87  1  0
M  ISO  4   6 101   7 101  52 100  60 100
M  END
>  <TORSDO>  (67) 
F 21

>  <SCORE>  (67) 
-15.715

>  <name>  (67) 
66

>  <ligand_id>  (67) 
66

>  <original_smiles>  (67) 
[H]c1c([H])c([H])c2c(c1[H])C([H])([H])C([H])([H])C([H])([H])C2([H])N([H])C(=O)C1([H])N(C(=O)C([H])(N([H])C(=O)C([H])(N([H])C([H])([H])[H])C([H])([H])[H])C(C([H])([H])[H])(C([H])([H])[H])C([H])([H])[H])C([H])([H])c2c([H])c(OC([H])([H])C([H])([H])[N+]([H])(C([H])([H])C([H])([H])[H])C([H])([H])C(N([H])C(=O)N3C([H])([H])C([H])([H])C([H])([H])C([H])(n4nc(-c5c([H])c([H])c(Oc6c([H])c([H])c(F)c([H])c6F)c([H])c5[H])c(C(=O)N([H])[H])c4N([H])[H])C3([H])[H])(C([H])([H])[H])C([H])([H])[H])c([H])c([H])c2C1([H])[H]

>  <smiles>  (67) 
[H]c1c([H])c([H])c2c(c1[H])C([H])([H])C([H])([H])C([H])([H])C2([H])N([H])C(=O)C1([H])N(C(=O)C([H])(N([H])C(=O)C([H])(N([H])C([H])([H])[H])C([H])([H])[H])C(C([H])([H])[H])(C([H])([H])[H])C([H])([H])[H])C([H])([H])c2c([H])c(OC([H])([H])C([H])([H])[N+]([H])(C([H])([H])C([H])([H])[H])C([H])([H])C(N([H])C(=O)N3C([H])([H])C([H])([H])C([H])([H])C([H])(n4nc(-c5c([H])c([H])c(Oc6c([H])c([H])c(F)c([H])c6F)c([H])c5[H])c(C(=O)N([H])[H])c4N([H])[H])C3([H])[H])(C([H])([H])[H])C([H])([H])[H])c([H])c([H])c2C1([H])[H]

$$$$
67:0:0
     RDKit          3D

 93101  0  0  1  0  0  0  0  0999 V2000
  -30.5830  -20.4190   19.4390 C   0  0  0  0  0  3  0  0  0  0  0  0
  -29.1550  -18.8600   20.5780 C   0  0  0  0  0  3  0  0  0  0  0  0
  -29.4180  -20.2830   20.2120 C   0  0  0  0  0  0  0  0  0  0  0  0
  -31.3710  -19.2920   19.0980 C   0  0  0  0  0  0  0  0  0  0  0  0
  -30.0030  -17.6910   20.2030 C   0  0  0  0  0  0  0  0  0  0  0  0
  -31.0880  -18.0160   19.4650 N   0  0  0  0  0  0  0  0  0  0  0  0
  -30.5020  -15.0010   20.3010 C   0  0  0  0  0  0  0  0  0  0  0  0
  -30.3620  -12.6450   19.3680 C   0  0  0  0  0  2  0  0  0  0  0  0
  -29.4340  -12.6140   18.1310 C   0  0  0  0  0  2  0  0  0  0  0  0
  -27.9690  -12.4030   18.5590 C   0  0  0  0  0  2  0  0  0  0  0  0
  -27.5640  -13.3200   19.7440 C   0  0  0  0  0  3  0  0  0  0  0  0
  -28.6200  -13.3300   20.8710 C   0  0  0  0  0  2  0  0  0  0  0  0
  -29.8930  -13.7430   20.2650 N   0  0  0  0  0  0  0  0  0  0  0  0
  -31.7040  -15.0210   20.0090 O   0  0  0  0  0  0  0  0  0  0  0  0
  -29.7490  -16.2030   20.5080 N   0  0  0  0  0  0  0  0  0  0  0  0
  -28.8190  -16.0200   20.8470 H   0  0  0  0  0  0  0  0  0  0  0  0
  -25.1820  -13.8880   20.4810 C   0  0  0  0  0  0  0  0  0  0  0  0
  -24.1200  -13.1090   20.8520 C   0  0  0  0  0  0  0  0  0  0  0  0
  -24.5900  -11.7600   20.8240 C   0  0  0  0  0  0  0  0  0  0  0  0
  -26.2280  -13.0130   20.2420 N   0  0  0  0  0  0  0  0  0  0  0  0
  -25.8820  -11.7290   20.5150 N   0  0  0  0  0  0  0  0  0  0  0  0
  -23.8670  -10.4950   21.0150 C   0  0  0  0  0  0  0  0  0  0  0  0
  -24.2900   -9.5370   21.9640 C   0  0  0  0  0  3  0  0  0  0  0  0
  -23.5650   -8.3390   22.1420 C   0  0  0  0  0  3  0  0  0  0  0  0
  -22.4050   -8.0900   21.3720 C   0  0  0  0  0  0  0  0  0  0  0  0
  -22.0010   -9.0350   20.4130 C   0  0  0  0  0  3  0  0  0  0  0  0
  -22.7260  -10.2250   20.2330 C   0  0  0  0  0  3  0  0  0  0  0  0
  -21.6540   -6.9420   21.4590 O   0  0  0  0  0  0  0  0  0  0  0  0
  -21.5770   -6.2170   22.6210 C   0  0  0  0  0  0  0  0  0  0  0  0
  -21.0970   -6.7840   23.8220 C   0  0  0  0  0  3  0  0  0  0  0  0
  -20.9700   -5.9850   24.9760 C   0  0  0  0  0  3  0  0  0  0  0  0
  -21.3140   -4.6200   24.9300 C   0  0  0  0  0  0  0  0  0  0  0  0
  -21.7870   -4.0530   23.7330 C   0  0  0  0  0  3  0  0  0  0  0  0
  -21.9160   -4.8490   22.5820 C   0  0  0  0  0  0  0  0  0  0  0  0
  -22.3520   -4.2920   21.4260 F   0  0  0  0  0  0  0  0  0  0  0  0
  -21.1850   -3.8510   26.0360 F   0  0  0  0  0  0  0  0  0  0  0  0
  -22.7210  -13.5810   21.1180 C   0  0  0  0  0  0  0  0  0  0  0  0
  -21.9900  -12.8840   21.9810 N   0  0  0  0  0  0  0  0  0  0  0  0
  -22.2840  -14.6080   20.5970 O   0  0  0  0  0  0  0  0  0  0  0  0
  -22.3570  -12.0580   22.4290 H   0  0  0  0  0  0  0  0  0  0  0  0
  -21.0510  -13.1850   22.2000 H   0  0  0  0  0  0  0  0  0  0  0  0
  -25.3400  -15.2590   20.2990 N   0  0  0  0  0  0  0  0  0  0  0  0
  -24.5660  -15.9070   20.3960 H   0  0  0  0  0  0  0  0  0  0  0  0
  -26.1670  -15.6910   19.9070 H   0  0  0  0  0  0  0  0  0  0  0  0
  -32.1550  -19.4960   16.7140 C   0  0  0  0  0  1  0  0  0  0  0  0
  -32.5900  -19.4370   18.1880 C   0  0  0  0  0  3  0  0  0  0  0  0
  -34.1430  -20.4980   19.9580 C   0  0  0  0  0  1  0  0  0  0  0  0
  -33.5250  -20.6110   18.5570 C   0  0  0  0  0  2  0  0  0  0  0  0
  -28.5290  -21.6460   20.5350 C   0  0  0  0  0  3  0  0  0  0  0  0
  -28.9400  -23.2720   20.2300 C   0  0  0  0  0  3  0  0  0  0  0  0
  -27.3930  -24.5570   21.8960 C   0  0  0  0  0  1  0  0  0  0  0  0
  -27.9210  -24.6170   20.4540 C   0  0  0  0  0  3  0  0  0  0  0  0
  -28.2220  -26.1460   20.2280 O   0  0  0  0  0  0  0  0  0  0  0  0
  -24.6150  -31.8750   23.2200 C   0  0  0  0  0  0  0  0  0  0  0  0
  -27.1750  -27.1480   20.1770 C   0  0  0  0  0  0  0  0  0  0  0  0
  -23.4080  -30.4810   21.5850 C   0  0  0  0  0  3  0  0  0  0  0  0
  -24.8510  -28.9070   20.1540 C   0  0  0  0  0  0  0  0  0  0  0  0
  -25.9620  -30.7430   21.4090 C   0  0  0  0  0  2  0  0  0  0  0  0
  -26.0340  -29.3500   20.7580 C   0  0  0  0  0  0  0  0  0  0  0  0
  -27.1980  -28.4870   20.7510 C   0  0  0  0  0  3  0  0  0  0  0  0
  -25.9660  -26.8190   19.5260 C   0  0  0  0  0  3  0  0  0  0  0  0
  -24.8300  -27.6570   19.5220 C   0  0  0  0  0  3  0  0  0  0  0  0
  -23.6250  -29.8060   20.2070 C   0  0  0  0  0  2  0  0  0  0  0  0
  -24.6820  -31.0550   22.1260 N   0  0  0  0  0  0  0  0  0  0  0  0
  -23.5300  -32.1600   23.7520 O   0  0  0  0  0  0  0  0  0  0  0  0
  -22.7320  -29.4730   22.5500 C   0  0  0  0  0  0  0  0  0  0  0  0
  -21.4040  -29.3010   22.4260 N   0  0  0  0  0  0  0  0  0  0  0  0
  -23.4070  -28.8480   23.3720 O   0  0  0  0  0  0  0  0  0  0  0  0
  -20.9160  -29.8580   21.7390 H   0  0  0  0  0  0  0  0  0  0  0  0
  -18.0250  -28.1000   22.9450 C   0  0  0  0  0  0  0  0  0  0  0  0
  -20.5860  -28.3630   23.2010 C   0  0  0  0  0  3  0  0  0  0  0  0
  -20.6840  -26.9320   22.6250 C   0  0  0  0  0  2  0  0  0  0  0  0
  -19.5770  -26.6090   21.6160 C   0  0  0  0  0  2  0  0  0  0  0  0
  -18.1990  -26.7520   22.2650 C   0  0  0  0  0  2  0  0  0  0  0  0
  -19.1450  -28.8630   23.3690 C   0  0  0  0  0  0  0  0  0  0  0  0
  -18.9270  -30.1240   23.9660 C   0  0  0  0  0  3  0  0  0  0  0  0
  -17.6230  -30.6230   24.1410 C   0  0  0  0  0  3  0  0  0  0  0  0
  -16.5180  -29.8570   23.7320 C   0  0  0  0  0  3  0  0  0  0  0  0
  -16.7190  -28.5980   23.1390 C   0  0  0  0  0  3  0  0  0  0  0  0
  -25.8940  -32.5110   23.8420 C   0  0  0  0  0  3  0  0  0  0  0  0
  -25.5840  -33.9110   24.1720 N   0  0  0  0  0  0  0  0  0  0  0  0
  -25.9070  -34.9660   23.4120 C   0  0  0  0  0  0  0  0  0  0  0  0
  -26.5640  -34.8630   22.3720 O   0  0  0  0  0  0  0  0  0  0  0  0
  -24.9990  -34.0640   24.9800 H   0  0  0  0  0  0  0  0  0  0  0  0
  -24.1750  -36.7630   23.0820 C   0  0  0  0  0  1  0  0  0  0  0  0
  -25.4260  -36.3550   23.8750 C   0  0  0  0  0  3  0  0  0  0  0  0
  -27.5700  -37.2440   24.6800 C   0  0  0  0  0  1  0  0  0  0  0  0
  -26.4580  -37.4090   23.7490 N   0  0  0  0  0  0  0  0  0  0  0  0
  -26.0530  -38.3290   23.8980 H   0  0  0  0  0  0  0  0  0  0  0  0
  -26.4060  -31.7450   25.1250 C   0  0  1  0  0  0  0  0  0  0  0  0
  -25.3100  -31.5190   26.1920 C   0  0  0  0  0  1  0  0  0  0  0  0
  -26.9850  -30.3620   24.7460 C   0  0  0  0  0  1  0  0  0  0  0  0
  -27.5570  -32.5400   25.7840 C   0  0  0  0  0  1  0  0  0  0  0  0
  1  3  1  0
  3 49  1  0
  3  2  2  0
  4  1  2  0
  4  6  1  0
  5 15  1  0
  5  2  1  0
  6  5  2  0
  7 15  1  0
  8 13  1  0
  9 10  1  0
  9  8  1  0
 11 10  1  0
 11 20  1  0
 11 12  1  0
 13  7  1  0
 13 12  1  0
 14  7  2  0
 15 16  1  0
 17 18  2  0
 18 37  1  0
 19 18  1  0
 19 22  1  0
 20 17  1  0
 20 21  1  0
 21 19  2  0
 22 23  1  0
 23 24  2  0
 25 28  1  0
 25 24  1  0
 26 25  2  0
 27 26  1  0
 27 22  2  0
 28 29  1  0
 29 30  1  0
 30 31  2  0
 32 31  1  0
 32 36  1  0
 33 32  2  0
 34 29  2  0
 34 33  1  0
 35 34  1  0
 37 38  1  0
 38 41  1  0
 38 40  1  0
 39 37  2  0
 42 43  1  0
 42 17  1  0
 44 42  1  0
 46 45  1  0
 46 48  1  0
 46  4  1  0
 48 47  1  0
 50 52  1  0
 50 49  2  0
 52 51  1  0
 53 52  1  0
 54 65  2  0
 55 53  1  0
 55 60  1  0
 56 64  1  0
 56 66  1  0
 57 63  1  0
 57 59  1  0
 58 64  1  0
 59 58  1  0
 60 59  2  0
 61 55  2  0
 62 61  1  0
 62 57  2  0
 63 56  1  0
 64 54  1  0
 66 68  2  0
 67 66  1  0
 69 67  1  0
 70 79  2  0
 70 75  1  0
 71 67  1  0
 71 75  1  0
 72 71  1  0
 73 74  1  0
 73 72  1  0
 74 70  1  0
 75 76  2  0
 76 77  1  0
 78 77  2  0
 79 78  1  0
 80 54  1  0
 80 81  1  0
 80 90  1  0
 81 84  1  0
 82 86  1  0
 82 81  1  0
 83 82  2  0
 86 85  1  0
 88 86  1  0
 88 89  1  0
 88 87  1  0
 90 93  1  1
 90 91  1  0
 92 90  1  0
M  ISO  4   7 100  15 100  52 101  53 101
M  END
>  <TORSDO>  (68) 
F 21

>  <SCORE>  (68) 
-14.464

>  <name>  (68) 
67

>  <ligand_id>  (68) 
67

>  <original_smiles>  (68) 
[H]c1c([H])c([H])c2c(c1[H])C([H])([H])C([H])([H])C([H])([H])C2([H])N([H])C(=O)C1([H])N(C(=O)C([H])(N([H])C(=O)C([H])(N([H])C([H])([H])[H])C([H])([H])[H])C(C([H])([H])[H])(C([H])([H])[H])C([H])([H])[H])C([H])([H])c2c([H])c(OC([H])(C([H])([H])[H])C([H])([H])C([H])([H])c3c([H])c(N([H])C(=O)N4C([H])([H])C([H])([H])C([H])([H])C([H])(n5nc(-c6c([H])c([H])c(Oc7c([H])c([H])c(F)c([H])c7F)c([H])c6[H])c(C(=O)N([H])[H])c5N([H])[H])C4([H])[H])nc(C([H])(C([H])([H])[H])C([H])([H])C([H])([H])[H])c3[H])c([H])c([H])c2C1([H])[H]

>  <smiles>  (68) 
[H]c1c([H])c([H])c2c(c1[H])C([H])([H])C([H])([H])C([H])([H])C2([H])N([H])C(=O)C1([H])N(C(=O)C([H])(N([H])C(=O)C([H])(N([H])C([H])([H])[H])C([H])([H])[H])C(C([H])([H])[H])(C([H])([H])[H])C([H])([H])[H])C([H])([H])c2c([H])c(OC([H])(C([H])([H])[H])C([H])([H])C([H])([H])c3c([H])c(N([H])C(=O)N4C([H])([H])C([H])([H])C([H])([H])C([H])(n5nc(-c6c([H])c([H])c(Oc7c([H])c([H])c(F)c([H])c7F)c([H])c6[H])c(C(=O)N([H])[H])c5N([H])[H])C4([H])[H])nc(C([H])(C([H])([H])[H])C([H])([H])C([H])([H])[H])c3[H])c([H])c([H])c2C1([H])[H]

$$$$
68:0:0
     RDKit          3D

 97105  0  0  1  0  0  0  0  0999 V2000
  -28.1500  -20.9110   20.5090 C   0  0  0  0  0  3  0  0  0  0  0  0
  -30.0400  -22.0530   20.1980 C   0  0  0  0  0  3  0  0  0  0  0  0
  -29.5560  -20.8180   20.5460 C   0  0  0  0  0  0  0  0  0  0  0  0
  -27.8060  -22.2290   20.3320 C   0  0  0  0  0  0  0  0  0  0  0  0
  -28.9750  -22.9640   20.0200 N   0  0  0  0  0  0  0  0  0  0  0  0
  -26.3010  -23.2620   22.0470 C   0  0  0  0  0  1  0  0  0  0  0  0
  -25.2900  -21.7740   20.3500 C   0  0  0  0  0  1  0  0  0  0  0  0
  -26.4220  -22.7760   20.5950 C   0  0  0  0  0  3  0  0  0  0  0  0
  -29.1890  -24.4460   19.7510 C   0  0  0  0  0  2  0  0  0  0  0  0
  -27.8010  -24.5320   17.5480 C   0  0  0  0  0  1  0  0  0  0  0  0
  -28.1350  -25.2530   18.8690 C   0  0  0  0  0  3  0  0  0  0  0  0
  -28.2890  -26.7190   18.5980 O   0  0  0  0  0  0  0  0  0  0  0  0
  -24.7910  -31.2650   22.9460 C   0  0  0  0  0  0  0  0  0  0  0  0
  -27.1600  -27.5440   18.7720 C   0  0  0  0  0  0  0  0  0  0  0  0
  -23.4510  -30.1020   21.2330 C   0  0  0  0  0  3  0  0  0  0  0  0
  -24.7530  -28.9840   19.3570 C   0  0  0  0  0  0  0  0  0  0  0  0
  -25.9280  -30.6380   20.8010 C   0  0  0  0  0  2  0  0  0  0  0  0
  -25.9710  -29.4280   19.8850 C   0  0  0  0  0  0  0  0  0  0  0  0
  -27.1790  -28.7250   19.5770 C   0  0  0  0  0  3  0  0  0  0  0  0
  -25.9210  -27.1820   18.2030 C   0  0  0  0  0  3  0  0  0  0  0  0
  -24.7250  -27.8520   18.5220 C   0  0  0  0  0  3  0  0  0  0  0  0
  -23.4990  -29.7380   19.7370 C   0  0  0  0  0  2  0  0  0  0  0  0
  -24.7510  -30.6810   21.7150 N   0  0  0  0  0  0  0  0  0  0  0  0
  -23.7780  -31.3560   23.6500 O   0  0  0  0  0  0  0  0  0  0  0  0
  -22.9900  -28.8640   22.0430 C   0  0  0  0  0  0  0  0  0  0  0  0
  -21.6940  -28.5120   21.9170 N   0  0  0  0  0  0  0  0  0  0  0  0
  -23.7780  -28.2270   22.7410 O   0  0  0  0  0  0  0  0  0  0  0  0
  -21.0990  -29.0890   21.3420 H   0  0  0  0  0  0  0  0  0  0  0  0
  -18.5770  -26.6920   22.1690 C   0  0  0  0  0  0  0  0  0  0  0  0
  -21.0430  -27.3730   22.5680 C   0  0  0  0  0  3  0  0  0  0  0  0
  -21.4000  -26.0360   21.8700 C   0  0  0  0  0  2  0  0  0  0  0  0
  -20.4190  -25.6310   20.7750 C   0  0  0  0  0  2  0  0  0  0  0  0
  -19.0070  -25.4810   21.3530 C   0  0  0  0  0  2  0  0  0  0  0  0
  -19.5290  -27.5970   22.7080 C   0  0  0  0  0  0  0  0  0  0  0  0
  -19.0680  -28.7460   23.3820 C   0  0  0  0  0  3  0  0  0  0  0  0
  -17.6930  -28.9910   23.5480 C   0  0  0  0  0  3  0  0  0  0  0  0
  -16.7590  -28.0700   23.0570 C   0  0  0  0  0  3  0  0  0  0  0  0
  -17.2040  -26.9220   22.3720 C   0  0  0  0  0  3  0  0  0  0  0  0
  -26.1080  -31.8610   23.5170 C   0  0  0  0  0  3  0  0  0  0  0  0
  -25.7670  -33.1230   24.1840 N   0  0  0  0  0  0  0  0  0  0  0  0
  -26.0400  -34.3430   23.7030 C   0  0  0  0  0  0  0  0  0  0  0  0
  -26.6850  -34.5230   22.6680 O   0  0  0  0  0  0  0  0  0  0  0  0
  -25.1940  -33.0440   25.0130 H   0  0  0  0  0  0  0  0  0  0  0  0
  -24.2780  -36.1370   23.8100 C   0  0  0  0  0  1  0  0  0  0  0  0
  -25.5200  -35.5560   24.5020 C   0  0  0  0  0  3  0  0  0  0  0  0
  -27.6340  -36.2330   25.5560 C   0  0  0  0  0  1  0  0  0  0  0  0
  -26.5340  -36.6190   24.6800 N   0  0  0  0  0  0  0  0  0  0  0  0
  -26.1080  -37.4660   25.0540 H   0  0  0  0  0  0  0  0  0  0  0  0
  -26.8460  -30.8870   24.5160 C   0  0  1  0  0  0  0  0  0  0  0  0
  -25.9400  -30.3380   25.6450 C   0  0  0  0  0  1  0  0  0  0  0  0
  -27.4540  -29.6790   23.7640 C   0  0  0  0  0  1  0  0  0  0  0  0
  -28.0340  -31.6320   25.1730 C   0  0  0  0  0  1  0  0  0  0  0  0
  -30.2680  -19.6640   20.9700 N   0  0  0  0  0  0  0  0  0  0  0  0
  -29.7400  -18.3660   20.5070 C   0  0  0  0  0  2  0  0  0  0  0  0
  -30.7990  -17.4320   19.8240 C   0  0  0  0  0  2  0  0  0  0  0  0
  -31.3710  -14.9400   19.7160 C   0  0  0  0  0  0  0  0  0  0  0  0
  -31.1720  -12.5790   19.0090 C   0  0  0  0  0  2  0  0  0  0  0  0
  -30.1830  -12.4720   17.8270 C   0  0  0  0  0  2  0  0  0  0  0  0
  -28.7210  -12.4190   18.3060 C   0  0  0  0  0  2  0  0  0  0  0  0
  -28.3980  -13.5120   19.3550 C   0  0  0  0  0  3  0  0  0  0  0  0
  -29.4600  -13.4920   20.4710 C   0  0  0  0  0  2  0  0  0  0  0  0
  -30.7680  -13.7260   19.8370 N   0  0  0  0  0  0  0  0  0  0  0  0
  -32.5010  -15.0830   19.2260 O   0  0  0  0  0  0  0  0  0  0  0  0
  -30.5600  -15.9840   20.0180 N   0  0  0  0  0  0  0  0  0  0  0  0
  -29.6560  -15.7370   20.4000 H   0  0  0  0  0  0  0  0  0  0  0  0
  -26.1190  -14.3300   20.2260 C   0  0  0  0  0  0  0  0  0  0  0  0
  -24.9990  -13.6520   20.6290 C   0  0  0  0  0  0  0  0  0  0  0  0
  -25.3140  -12.2660   20.5100 C   0  0  0  0  0  0  0  0  0  0  0  0
  -27.0530  -13.3570   19.8970 N   0  0  0  0  0  0  0  0  0  0  0  0
  -26.5740  -12.1100   20.1220 N   0  0  0  0  0  0  0  0  0  0  0  0
  -24.4770  -11.0740   20.6780 C   0  0  0  0  0  0  0  0  0  0  0  0
  -24.8320  -10.0430   21.5720 C   0  0  0  0  0  3  0  0  0  0  0  0
  -24.0010   -8.9130   21.7320 C   0  0  0  0  0  3  0  0  0  0  0  0
  -22.7980   -8.8090   20.9910 C   0  0  0  0  0  0  0  0  0  0  0  0
  -22.4650   -9.8250   20.0770 C   0  0  0  0  0  3  0  0  0  0  0  0
  -23.2980  -10.9450   19.9190 C   0  0  0  0  0  3  0  0  0  0  0  0
  -21.9400   -7.7380   21.0630 O   0  0  0  0  0  0  0  0  0  0  0  0
  -21.8010   -7.0040   22.2110 C   0  0  0  0  0  0  0  0  0  0  0  0
  -21.3710   -7.5860   23.4250 C   0  0  0  0  0  3  0  0  0  0  0  0
  -21.1770   -6.7790   24.5650 C   0  0  0  0  0  3  0  0  0  0  0  0
  -21.3990   -5.3900   24.4900 C   0  0  0  0  0  0  0  0  0  0  0  0
  -21.8250   -4.8070   23.2810 C   0  0  0  0  0  3  0  0  0  0  0  0
  -22.0200   -5.6130   22.1450 C   0  0  0  0  0  0  0  0  0  0  0  0
  -22.4090   -5.0420   20.9800 F   0  0  0  0  0  0  0  0  0  0  0  0
  -21.2060   -4.6140   25.5820 F   0  0  0  0  0  0  0  0  0  0  0  0
  -23.6760  -14.2500   21.0070 C   0  0  0  0  0  0  0  0  0  0  0  0
  -22.9440  -13.5990   21.9070 N   0  0  0  0  0  0  0  0  0  0  0  0
  -23.3080  -15.3290   20.5410 O   0  0  0  0  0  0  0  0  0  0  0  0
  -23.2540  -12.7230   22.3000 H   0  0  0  0  0  0  0  0  0  0  0  0
  -22.0560  -13.9840   22.2030 H   0  0  0  0  0  0  0  0  0  0  0  0
  -26.4190  -15.6850   20.0880 N   0  0  0  0  0  0  0  0  0  0  0  0
  -25.7200  -16.4110   20.2130 H   0  0  0  0  0  0  0  0  0  0  0  0
  -27.2400  -16.0150   19.5990 H   0  0  0  0  0  0  0  0  0  0  0  0
  -30.8990  -19.6670   22.3280 C   0  0  0  0  0  2  0  0  0  0  0  0
  -31.2980  -21.0140   24.5300 C   0  0  0  0  0  1  0  0  0  0  0  0
  -32.5620  -21.6370   22.4680 C   0  0  0  0  0  1  0  0  0  0  0  0
  -31.2280  -21.0530   22.9820 C   0  0  0  0  0  3  0  0  0  0  0  0
  1  3  1  0
  2  3  2  0
  3 53  1  0
  4  1  2  0
  4  8  1  0
  5  2  1  0
  5  4  1  0
  7  8  1  0
  8  6  1  0
  9  5  1  0
 11 10  1  0
 11  9  1  0
 12 14  1  0
 12 11  1  0
 13 24  2  0
 14 19  1  0
 15 23  1  0
 15 25  1  0
 16 22  1  0
 16 18  1  0
 17 23  1  0
 18 17  1  0
 19 18  2  0
 20 21  1  0
 20 14  2  0
 21 16  2  0
 22 15  1  0
 23 13  1  0
 25 27  2  0
 26 25  1  0
 28 26  1  0
 29 38  2  0
 29 34  1  0
 30 26  1  0
 30 34  1  0
 31 30  1  0
 32 33  1  0
 32 31  1  0
 33 29  1  0
 34 35  2  0
 35 36  1  0
 37 36  2  0
 38 37  1  0
 39 13  1  0
 39 40  1  0
 39 49  1  0
 40 43  1  0
 41 40  1  0
 41 45  1  0
 42 41  2  0
 45 44  1  0
 45 47  1  0
 47 48  1  0
 47 46  1  0
 49 52  1  1
 49 50  1  0
 51 49  1  0
 53 94  1  0
 54 53  1  0
 55 64  1  0
 55 54  1  0
 56 62  1  0
 56 64  1  0
 57 62  1  0
 58 59  1  0
 58 57  1  0
 60 59  1  0
 60 69  1  0
 60 61  1  0
 62 61  1  0
 63 56  2  0
 64 65  1  0
 66 67  2  0
 67 86  1  0
 68 67  1  0
 68 71  1  0
 69 70  1  0
 69 66  1  0
 70 68  2  0
 71 72  1  0
 72 73  2  0
 74 77  1  0
 74 73  1  0
 75 74  2  0
 76 75  1  0
 76 71  2  0
 77 78  1  0
 78 79  1  0
 79 80  2  0
 81 80  1  0
 81 85  1  0
 82 81  2  0
 83 78  2  0
 83 82  1  0
 84 83  1  0
 86 87  1  0
 87 90  1  0
 87 89  1  0
 88 86  2  0
 91 92  1  0
 91 66  1  0
 93 91  1  0
 94 97  1  0
 96 97  1  0
 97 95  1  0
M  ISO  4  11 101  12 101  56 100  64 100
M  END
>  <TORSDO>  (69) 
F 24

>  <SCORE>  (69) 
-7.919

>  <name>  (69) 
68

>  <ligand_id>  (69) 
68

>  <original_smiles>  (69) 
[H]c1c([H])c([H])c2c(c1[H])C([H])([H])C([H])([H])C([H])([H])C2([H])N([H])C(=O)C1([H])N(C(=O)C([H])(N([H])C(=O)C([H])(N([H])C([H])([H])[H])C([H])([H])[H])C(C([H])([H])[H])(C([H])([H])[H])C([H])([H])[H])C([H])([H])c2c([H])c(OC([H])(C([H])([H])[H])C([H])([H])n3c([H])c(N(C([H])([H])C([H])([H])N([H])C(=O)N4C([H])([H])C([H])([H])C([H])([H])C([H])(n5nc(-c6c([H])c([H])c(Oc7c([H])c([H])c(F)c([H])c7F)c([H])c6[H])c(C(=O)N([H])[H])c5N([H])[H])C4([H])[H])C([H])([H])C([H])(C([H])([H])[H])C([H])([H])[H])c([H])c3C([H])(C([H])([H])[H])C([H])([H])[H])c([H])c([H])c2C1([H])[H]

>  <smiles>  (69) 
[H]c1c([H])c([H])c2c(c1[H])C([H])([H])C([H])([H])C([H])([H])C2([H])N([H])C(=O)C1([H])N(C(=O)C([H])(N([H])C(=O)C([H])(N([H])C([H])([H])[H])C([H])([H])[H])C(C([H])([H])[H])(C([H])([H])[H])C([H])([H])[H])C([H])([H])c2c([H])c(OC([H])(C([H])([H])[H])C([H])([H])n3c([H])c(N(C([H])([H])C([H])([H])N([H])C(=O)N4C([H])([H])C([H])([H])C([H])([H])C([H])(n5nc(-c6c([H])c([H])c(Oc7c([H])c([H])c(F)c([H])c7F)c([H])c6[H])c(C(=O)N([H])[H])c5N([H])[H])C4([H])[H])C([H])([H])C([H])(C([H])([H])[H])C([H])([H])[H])c([H])c3C([H])(C([H])([H])[H])C([H])([H])[H])c([H])c([H])c2C1([H])[H]

$$$$
69:0:0
     RDKit          3D

 85 93  0  0  1  0  0  0  0  0999 V2000
  -29.9580  -22.5220   21.4890 C   0  0  0  0  0  1  0  0  0  0  0  0
  -29.0720  -22.3030   20.2590 C   0  0  0  0  0  3  0  0  0  0  0  0
  -29.0230  -19.4840   21.2800 C   0  0  0  0  0  2  0  0  0  0  0  0
  -28.8550  -20.4180   20.1010 C   0  0  0  0  0  3  0  0  0  0  0  0
  -29.7740  -18.7400   20.1760 C   0  0  0  0  0  3  0  0  0  0  0  0
  -30.3450  -15.6760   20.0200 C   0  0  0  0  0  0  0  0  0  0  0  0
  -30.4130  -13.1670   19.1350 C   0  0  0  0  0  2  0  0  0  0  0  0
  -29.4680  -12.8110   17.9520 C   0  0  0  0  0  2  0  0  0  0  0  0
  -28.0580  -12.4600   18.4520 C   0  0  0  0  0  2  0  0  0  0  0  0
  -27.5990  -13.4200   19.5730 C   0  0  0  0  0  3  0  0  0  0  0  0
  -28.6800  -13.6870   20.6460 C   0  0  0  0  0  2  0  0  0  0  0  0
  -29.8250  -14.3160   19.9520 N   0  0  0  0  0  0  0  0  0  0  0  0
  -31.5680  -15.6430   19.7870 O   0  0  0  0  0  0  0  0  0  0  0  0
  -29.5680  -17.0070   20.1680 N   0  0  0  0  0  0  0  0  0  0  0  0
  -28.5940  -16.7780   20.3040 H   0  0  0  0  0  0  0  0  0  0  0  0
  -25.2640  -13.9060   20.4480 C   0  0  0  0  0  0  0  0  0  0  0  0
  -24.2310  -13.1030   20.8440 C   0  0  0  0  0  0  0  0  0  0  0  0
  -24.7200  -11.7620   20.7650 C   0  0  0  0  0  0  0  0  0  0  0  0
  -26.3090  -13.0550   20.1410 N   0  0  0  0  0  0  0  0  0  0  0  0
  -25.9980  -11.7570   20.3990 N   0  0  0  0  0  0  0  0  0  0  0  0
  -24.0180  -10.4850   20.9570 C   0  0  0  0  0  0  0  0  0  0  0  0
  -24.4670   -9.5270   21.8930 C   0  0  0  0  0  3  0  0  0  0  0  0
  -23.7600   -8.3180   22.0750 C   0  0  0  0  0  3  0  0  0  0  0  0
  -22.5890   -8.0590   21.3240 C   0  0  0  0  0  0  0  0  0  0  0  0
  -22.1590   -9.0060   20.3770 C   0  0  0  0  0  3  0  0  0  0  0  0
  -22.8670  -10.2060   20.1930 C   0  0  0  0  0  3  0  0  0  0  0  0
  -21.8520   -6.9030   21.4170 O   0  0  0  0  0  0  0  0  0  0  0  0
  -21.7800   -6.1870   22.5850 C   0  0  0  0  0  0  0  0  0  0  0  0
  -21.2940   -6.7590   23.7810 C   0  0  0  0  0  3  0  0  0  0  0  0
  -21.1710   -5.9690   24.9410 C   0  0  0  0  0  3  0  0  0  0  0  0
  -21.5240   -4.6060   24.9060 C   0  0  0  0  0  0  0  0  0  0  0  0
  -22.0020   -4.0320   23.7150 C   0  0  0  0  0  3  0  0  0  0  0  0
  -22.1270   -4.8210   22.5570 C   0  0  0  0  0  0  0  0  0  0  0  0
  -22.5680   -4.2580   21.4060 F   0  0  0  0  0  0  0  0  0  0  0  0
  -21.3980   -3.8440   26.0180 F   0  0  0  0  0  0  0  0  0  0  0  0
  -22.8390  -13.5540   21.1730 C   0  0  0  0  0  0  0  0  0  0  0  0
  -22.1550  -12.8330   22.0530 N   0  0  0  0  0  0  0  0  0  0  0  0
  -22.3690  -14.5800   20.6840 O   0  0  0  0  0  0  0  0  0  0  0  0
  -22.5510  -12.0050   22.4720 H   0  0  0  0  0  0  0  0  0  0  0  0
  -21.2200  -13.1170   22.3150 H   0  0  0  0  0  0  0  0  0  0  0  0
  -25.3960  -15.2830   20.2890 N   0  0  0  0  0  0  0  0  0  0  0  0
  -24.6220  -15.9210   20.4390 H   0  0  0  0  0  0  0  0  0  0  0  0
  -26.2100  -15.7350   19.8940 H   0  0  0  0  0  0  0  0  0  0  0  0
  -28.0180  -23.9130   20.1800 C   0  0  0  0  0  2  0  0  0  0  0  0
  -28.2020  -25.6480   20.2840 O   0  0  0  0  0  0  0  0  0  0  0  0
  -24.7210  -31.8880   23.2560 C   0  0  0  0  0  0  0  0  0  0  0  0
  -27.2190  -26.8380   20.2430 C   0  0  0  0  0  0  0  0  0  0  0  0
  -23.5180  -30.4990   21.6220 C   0  0  0  0  0  3  0  0  0  0  0  0
  -24.9510  -28.8520   20.2000 C   0  0  0  0  0  0  0  0  0  0  0  0
  -26.0940  -30.6430   21.4830 C   0  0  0  0  0  2  0  0  0  0  0  0
  -26.1510  -29.2150   20.8240 C   0  0  0  0  0  0  0  0  0  0  0  0
  -27.2700  -28.2350   20.8120 C   0  0  0  0  0  3  0  0  0  0  0  0
  -25.9850  -26.6760   19.5670 C   0  0  0  0  0  3  0  0  0  0  0  0
  -24.9040  -27.6080   19.5480 C   0  0  0  0  0  3  0  0  0  0  0  0
  -23.7470  -29.8040   20.2490 C   0  0  0  0  0  2  0  0  0  0  0  0
  -24.8020  -31.0420   22.1730 N   0  0  0  0  0  0  0  0  0  0  0  0
  -23.6320  -32.1900   23.7730 O   0  0  0  0  0  0  0  0  0  0  0  0
  -22.8050  -29.5210   22.5950 C   0  0  0  0  0  0  0  0  0  0  0  0
  -21.4730  -29.3640   22.4670 N   0  0  0  0  0  0  0  0  0  0  0  0
  -23.4600  -28.9020   23.4350 O   0  0  0  0  0  0  0  0  0  0  0  0
  -20.9950  -29.9140   21.7670 H   0  0  0  0  0  0  0  0  0  0  0  0
  -18.0890  -28.1390   22.9630 C   0  0  0  0  0  0  0  0  0  0  0  0
  -20.6460  -28.4310   23.2410 C   0  0  0  0  0  3  0  0  0  0  0  0
  -20.7610  -26.9930   22.6810 C   0  0  0  0  0  2  0  0  0  0  0  0
  -19.6680  -26.6530   21.6610 C   0  0  0  0  0  2  0  0  0  0  0  0
  -18.2820  -26.7890   22.2940 C   0  0  0  0  0  2  0  0  0  0  0  0
  -19.1980  -28.9170   23.3930 C   0  0  0  0  0  0  0  0  0  0  0  0
  -18.9590  -30.1770   23.9840 C   0  0  0  0  0  3  0  0  0  0  0  0
  -17.6470  -30.6600   24.1470 C   0  0  0  0  0  3  0  0  0  0  0  0
  -16.5540  -29.8810   23.7290 C   0  0  0  0  0  3  0  0  0  0  0  0
  -16.7760  -28.6220   23.1430 C   0  0  0  0  0  3  0  0  0  0  0  0
  -25.9910  -32.5290   23.8930 C   0  0  0  0  0  3  0  0  0  0  0  0
  -25.6800  -33.9330   24.2250 N   0  0  0  0  0  0  0  0  0  0  0  0
  -25.9950  -34.9940   23.4670 C   0  0  0  0  0  0  0  0  0  0  0  0
  -26.6380  -34.8920   22.4200 O   0  0  0  0  0  0  0  0  0  0  0  0
  -25.1030  -34.0840   25.0390 H   0  0  0  0  0  0  0  0  0  0  0  0
  -24.2480  -36.7900   23.2000 C   0  0  0  0  0  1  0  0  0  0  0  0
  -25.5300  -36.3860   23.9460 C   0  0  0  0  0  3  0  0  0  0  0  0
  -27.6990  -37.2910   24.6650 C   0  0  0  0  0  1  0  0  0  0  0  0
  -26.5520  -37.4430   23.7730 N   0  0  0  0  0  0  0  0  0  0  0  0
  -26.1490  -38.3630   23.9290 H   0  0  0  0  0  0  0  0  0  0  0  0
  -26.4820  -31.7700   25.1890 C   0  0  1  0  0  0  0  0  0  0  0  0
  -25.3750  -31.5580   26.2490 C   0  0  0  0  0  1  0  0  0  0  0  0
  -27.0550  -30.3800   24.8330 C   0  0  0  0  0  1  0  0  0  0  0  0
  -27.6340  -32.5610   25.8520 C   0  0  0  0  0  1  0  0  0  0  0  0
  2  1  1  0
  4  5  1  0
  4  2  1  0
  4  3  1  0
  5 14  1  0
  5  3  1  0
  6 14  1  0
  7 12  1  0
  8  9  1  0
  8  7  1  0
 10  9  1  0
 10 19  1  0
 10 11  1  0
 12  6  1  0
 12 11  1  0
 13  6  2  0
 14 15  1  0
 16 17  2  0
 17 36  1  0
 18 17  1  0
 18 21  1  0
 19 20  1  0
 19 16  1  0
 20 18  2  0
 21 22  1  0
 22 23  2  0
 24 27  1  0
 24 23  1  0
 25 24  2  0
 26 25  1  0
 26 21  2  0
 27 28  1  0
 28 29  1  0
 29 30  2  0
 31 30  1  0
 31 35  1  0
 32 31  2  0
 33 28  2  0
 33 32  1  0
 34 33  1  0
 36 37  1  0
 37 40  1  0
 37 39  1  0
 38 36  2  0
 41 42  1  0
 41 16  1  0
 43 41  1  0
 44  2  1  0
 44 45  1  0
 46 57  2  0
 47 45  1  0
 47 52  1  0
 48 56  1  0
 48 58  1  0
 49 55  1  0
 49 51  1  0
 50 56  1  0
 51 50  1  0
 52 51  2  0
 53 47  2  0
 54 53  1  0
 54 49  2  0
 55 48  1  0
 56 46  1  0
 58 60  2  0
 59 58  1  0
 61 59  1  0
 62 71  2  0
 62 67  1  0
 63 59  1  0
 63 67  1  0
 64 63  1  0
 65 66  1  0
 65 64  1  0
 66 62  1  0
 67 68  2  0
 68 69  1  0
 70 69  2  0
 71 70  1  0
 72 46  1  0
 72 73  1  0
 72 82  1  0
 73 76  1  0
 74 78  1  0
 74 73  1  0
 75 74  2  0
 78 77  1  0
 80 81  1  0
 80 78  1  0
 80 79  1  0
 82 85  1  1
 82 83  1  0
 84 82  1  0
M  ISO  4   6 100  14 100  44 101  45 101
M  END
>  <TORSDO>  (70) 
F 18

>  <SCORE>  (70) 
-15.858

>  <name>  (70) 
69

>  <ligand_id>  (70) 
69

>  <original_smiles>  (70) 
[H]c1c([H])c([H])c2c(c1[H])C([H])([H])C([H])([H])C([H])([H])C2([H])N([H])C(=O)C1([H])N(C(=O)C([H])(N([H])C(=O)C([H])(N([H])C([H])([H])[H])C([H])([H])[H])C(C([H])([H])[H])(C([H])([H])[H])C([H])([H])[H])C([H])([H])c2c([H])c(OC([H])([H])C([H])(C([H])([H])[H])C3([H])C([H])([H])C3([H])N([H])C(=O)N3C([H])([H])C([H])([H])C([H])([H])C([H])(n4nc(-c5c([H])c([H])c(Oc6c([H])c([H])c(F)c([H])c6F)c([H])c5[H])c(C(=O)N([H])[H])c4N([H])[H])C3([H])[H])c([H])c([H])c2C1([H])[H]

>  <smiles>  (70) 
[H]c1c([H])c([H])c2c(c1[H])C([H])([H])C([H])([H])C([H])([H])C2([H])N([H])C(=O)C1([H])N(C(=O)C([H])(N([H])C(=O)C([H])(N([H])C([H])([H])[H])C([H])([H])[H])C(C([H])([H])[H])(C([H])([H])[H])C([H])([H])[H])C([H])([H])c2c([H])c(OC([H])([H])C([H])(C([H])([H])[H])C3([H])C([H])([H])C3([H])N([H])C(=O)N3C([H])([H])C([H])([H])C([H])([H])C([H])(n4nc(-c5c([H])c([H])c(Oc6c([H])c([H])c(F)c([H])c6F)c([H])c5[H])c(C(=O)N([H])[H])c4N([H])[H])C3([H])[H])c([H])c([H])c2C1([H])[H]

$$$$
70:0:0
     RDKit          3D

 93 95  0  0  1  0  0  0  0  0999 V2000
  -28.8210  -12.8730   19.1920 C   0  0  0  0  0 15  0  0  0  0  0  0
  -28.7760  -15.9090   19.7710 C   0  0  0  0  0  1  0  0  0  0  0  0
  -28.5090  -16.3650   21.2510 N   0  0  0  0  0  4  0  0  0  0  0  0
  -28.2660  -15.5070   21.7260 H   0  0  0  0  0  0  0  0  0  0  0  0
  -27.6370  -16.8680   21.1740 H   0  0  0  0  0  0  0  0  0  0  0  0
  -29.4920  -16.3530   23.5850 C   0  0  0  0  0  1  0  0  0  0  0  0
  -28.2510  -18.2620   22.7880 C   0  0  0  0  0  1  0  0  0  0  0  0
  -29.2540  -17.1920   22.2970 C   0  0  2  0  0  0  0  0  0  0  0  0
  -30.6060  -17.8710   21.8890 C   0  0  0  0  0  2  0  0  0  0  0  0
  -31.8230  -16.9240   21.8910 C   0  0  0  0  0  2  0  0  0  0  0  0
  -31.4410  -14.5450   21.0470 C   0  0  0  0  0  3  0  0  0  0  0  0
  -30.6050  -14.2740   18.8410 C   0  0  0  0  0  2  0  0  0  0  0  0
  -29.1330  -14.5960   17.7120 C   0  0  0  0  0  3  0  0  0  0  0  0
  -27.3590  -14.4380   18.4500 C   0  0  0  0  0  3  0  0  0  0  0  0
  -27.2500  -14.0610   20.3440 C   0  0  0  0  0  0  0  0  0  0  0  0
  -28.8240  -13.7820   21.3340 C   0  0  0  0  0  3  0  0  0  0  0  0
  -30.3270  -14.1000   20.5250 N   0  0  0  0  0  0  0  0  0  0  0  0
  -32.5050  -14.2040   20.5770 O   0  0  0  0  0  1  0  0  0  0  0  0
  -31.3840  -15.8640   21.0350 N   0  0  0  0  0  0  0  0  0  0  0  0
  -30.7650  -16.1900   20.3160 H   0  0  0  0  0  0  0  0  0  0  0  0
  -24.9280  -13.9160   20.5710 C   0  0  0  0  0  0  0  0  0  0  0  0
  -24.0040  -13.0260   20.9350 C   0  0  0  0  0  0  0  0  0  0  0  0
  -24.6210  -11.7360   20.9000 C   0  0  0  0  0  0  0  0  0  0  0  0
  -26.0950  -13.2360   20.5510 N   0  0  0  0  0  0  0  0  0  0  0  0
  -25.9470  -11.8730   20.6880 N   0  0  0  0  0  0  0  0  0  0  0  0
  -23.9470  -10.4300   21.0340 C   0  0  0  0  0  0  0  0  0  0  0  0
  -24.3930   -9.4240   21.9190 C   0  0  0  0  0  3  0  0  0  0  0  0
  -23.6520   -8.2290   22.0780 C   0  0  0  0  0  3  0  0  0  0  0  0
  -22.4490   -8.0330   21.3560 C   0  0  0  0  0  0  0  0  0  0  0  0
  -22.0210   -9.0270   20.4600 C   0  0  0  0  0  3  0  0  0  0  0  0
  -22.7640  -10.2080   20.2970 C   0  0  0  0  0  3  0  0  0  0  0  0
  -21.6770   -6.8970   21.4270 O   0  0  0  0  0  0  0  0  0  0  0  0
  -21.6920   -6.0810   22.5300 C   0  0  0  0  0  0  0  0  0  0  0  0
  -21.4050   -6.5690   23.8240 C   0  0  0  0  0  3  0  0  0  0  0  0
  -21.3670   -5.6820   24.9180 C   0  0  0  0  0  3  0  0  0  0  0  0
  -21.6040   -4.3080   24.7210 C   0  0  0  0  0  0  0  0  0  0  0  0
  -21.8810   -3.8190   23.4330 C   0  0  0  0  0  3  0  0  0  0  0  0
  -21.9220   -4.7030   22.3400 C   0  0  0  0  0  0  0  0  0  0  0  0
  -22.1680   -4.2210   21.0980 F   0  0  0  0  0  0  0  0  0  0  0  0
  -21.5620   -3.4550   25.7720 F   0  0  0  0  0  0  0  0  0  0  0  0
  -22.6010  -13.4340   21.1970 C   0  0  0  0  0  0  0  0  0  0  0  0
  -21.9220  -12.7300   22.0850 N   0  0  0  0  0  0  0  0  0  0  0  0
  -22.1450  -14.4580   20.6860 O   0  0  0  0  0  0  0  0  0  0  0  0
  -22.3240  -11.9180   22.5290 H   0  0  0  0  0  0  0  0  0  0  0  0
  -20.9800  -13.0040   22.3280 H   0  0  0  0  0  0  0  0  0  0  0  0
  -24.8570  -15.2880   20.3040 N   0  0  0  0  0  0  0  0  0  0  0  0
  -23.8940  -15.6070   20.2330 H   0  0  0  0  0  0  0  0  0  0  0  0
  -25.4160  -15.6500   19.5440 H   0  0  0  0  0  0  0  0  0  0  0  0
  -26.7900  -18.0210   18.8510 C   0  0  0  0  0  1  0  0  0  0  0  0
  -28.2330  -18.1150   19.3550 C   0  0  0  0  0  1  0  0  0  0  0  0
  -28.2360  -20.3510   19.9430 C   0  0  0  0  0 15  0  0  0  0  0  0
  -27.7470  -22.5800   19.6820 C   0  0  0  0  0 15  0  0  0  0  0  0
  -27.8590  -24.5810   20.1320 O   0  0  0  0  0  1  0  0  0  0  0  0
  -24.7400  -31.7290   23.1040 C   0  0  0  0  0  0  0  0  0  0  0  0
  -27.0840  -26.1070   20.1210 C   0  0  0  0  0  0  0  0  0  0  0  0
  -23.5750  -30.3240   21.4790 C   0  0  0  0  0  3  0  0  0  0  0  0
  -24.9880  -28.5550   20.0930 C   0  0  0  0  0  0  0  0  0  0  0  0
  -26.1710  -30.2480   21.4470 C   0  0  0  0  0  2  0  0  0  0  0  0
  -26.1920  -28.7600   20.7730 C   0  0  0  0  0  0  0  0  0  0  0  0
  -27.2060  -27.5780   20.7480 C   0  0  0  0  0  3  0  0  0  0  0  0
  -25.8690  -26.2710   19.3860 C   0  0  0  0  0  3  0  0  0  0  0  0
  -24.9020  -27.3470   19.3770 C   0  0  0  0  0  3  0  0  0  0  0  0
  -23.8340  -29.5960   20.1230 C   0  0  0  0  0  2  0  0  0  0  0  0
  -24.8640  -30.8160   22.0590 N   0  0  0  0  0  0  0  0  0  0  0  0
  -23.6320  -32.0670   23.5670 O   0  0  0  0  0  0  0  0  0  0  0  0
  -22.7950  -29.3990   22.4560 C   0  0  0  0  0  0  0  0  0  0  0  0
  -21.4550  -29.2970   22.3320 N   0  0  0  0  0  0  0  0  0  0  0  0
  -23.4170  -28.7660   23.3120 O   0  0  0  0  0  0  0  0  0  0  0  0
  -20.9970  -29.8560   21.6250 H   0  0  0  0  0  0  0  0  0  0  0  0
  -18.0370  -28.1440   22.8430 C   0  0  0  0  0  0  0  0  0  0  0  0
  -20.6020  -28.3820   23.1060 C   0  0  0  0  0  3  0  0  0  0  0  0
  -20.6800  -26.9440   22.5420 C   0  0  0  0  0  2  0  0  0  0  0  0
  -19.5790  -26.6340   21.5220 C   0  0  0  0  0  2  0  0  0  0  0  0
  -18.1980  -26.7960   22.1600 C   0  0  0  0  0  2  0  0  0  0  0  0
  -19.1640  -28.8970   23.2710 C   0  0  0  0  0  0  0  0  0  0  0  0
  -18.9540  -30.1540   23.8780 C   0  0  0  0  0  3  0  0  0  0  0  0
  -17.6530  -30.6620   24.0540 C   0  0  0  0  0  3  0  0  0  0  0  0
  -16.5410  -29.9090   23.6360 C   0  0  0  0  0  3  0  0  0  0  0  0
  -16.7340  -28.6510   23.0370 C   0  0  0  0  0  3  0  0  0  0  0  0
  -25.9710  -32.4100   23.7790 C   0  0  0  0  0  3  0  0  0  0  0  0
  -25.6050  -33.7970   24.1610 N   0  0  0  0  0  0  0  0  0  0  0  0
  -25.9200  -34.9090   23.4800 C   0  0  0  0  0  0  0  0  0  0  0  0
  -26.5920  -34.8800   22.4480 O   0  0  0  0  0  0  0  0  0  0  0  0
  -25.0000  -33.8890   24.9620 H   0  0  0  0  0  0  0  0  0  0  0  0
  -24.1510  -36.7010   23.2670 C   0  0  0  0  0  1  0  0  0  0  0  0
  -25.4180  -36.2690   24.0240 C   0  0  0  0  0  3  0  0  0  0  0  0
  -27.5550  -37.1650   24.8460 C   0  0  0  0  0  1  0  0  0  0  0  0
  -26.4250  -37.3520   23.9400 N   0  0  0  0  0  0  0  0  0  0  0  0
  -26.0020  -38.2530   24.1430 H   0  0  0  0  0  0  0  0  0  0  0  0
  -26.4680  -31.6400   25.0660 C   0  0  1  0  0  0  0  0  0  0  0  0
  -25.3610  -31.3900   26.1190 C   0  0  0  0  0  1  0  0  0  0  0  0
  -27.0690  -30.2690   24.6980 C   0  0  0  0  0  1  0  0  0  0  0  0
  -27.6020  -32.4420   25.7500 C   0  0  0  0  0  1  0  0  0  0  0  0
  2  3  1  0
  3  4  1  0
  3  8  1  0
  5  3  1  0
  8  7  1  1
  8  6  1  0
  9 10  1  0
  9  8  1  0
 11 18  1  0
 12 17  1  0
 13 14  2  0
 13 12  1  0
 14 15  1  0
 15 24  1  0
 15 16  2  0
 17 11  1  0
 17 16  1  0
 19 11  1  0
 19 10  1  0
 20 19  1  0
 21 22  2  0
 22 41  1  0
 23 22  1  0
 23 26  1  0
 24 21  1  0
 24 25  1  0
 25 23  2  0
 26 27  1  0
 27 28  2  0
 29 32  1  0
 29 28  1  0
 30 29  2  0
 31 30  1  0
 31 26  2  0
 32 33  1  0
 33 34  1  0
 34 35  2  0
 36 35  1  0
 36 40  1  0
 37 36  2  0
 38 33  2  0
 38 37  1  0
 39 38  1  0
 41 42  1  0
 42 45  1  0
 42 44  1  0
 43 41  2  0
 46 21  1  0
 47 46  1  0
 48 46  1  0
 49 50  1  0
 54 65  2  0
 55 53  1  0
 55 60  1  0
 56 64  1  0
 56 66  1  0
 57 63  1  0
 57 59  1  0
 58 64  1  0
 59 58  1  0
 60 59  2  0
 61 55  2  0
 62 61  1  0
 62 57  2  0
 63 56  1  0
 64 54  1  0
 66 68  2  0
 67 66  1  0
 69 67  1  0
 70 79  2  0
 70 75  1  0
 71 67  1  0
 71 75  1  0
 72 71  1  0
 73 74  1  0
 73 72  1  0
 74 70  1  0
 75 76  2  0
 76 77  1  0
 78 77  2  0
 79 78  1  0
 80 54  1  0
 80 81  1  0
 80 90  1  0
 81 84  1  0
 82 86  1  0
 82 81  1  0
 83 82  2  0
 86 85  1  0
 88 86  1  0
 88 89  1  0
 88 87  1  0
 90 93  1  1
 90 91  1  0
 92 90  1  0
M  ISO  4  11 100  19 100  52 101  53 101
M  END
>  <TORSDO>  (71) 
F 23

>  <SCORE>  (71) 
2.515

>  <name>  (71) 
70

>  <ligand_id>  (71) 
70

>  <original_smiles>  (71) 
[H]c1c([H])c([H])c2c(c1[H])C([H])([H])C([H])([H])C([H])([H])C2([H])N([H])C(=O)C1([H])N(C(=O)C([H])(N([H])C(=O)C([H])(N([H])C([H])([H])[H])C([H])([H])[H])C(C([H])([H])[H])(C([H])([H])[H])C([H])([H])[H])C([H])([H])c2c([H])c(OC([H])([H])C([H])([H])C([H])(C([H])([H])[H])C([H])(C([H])([H])[H])[N+]([H])([H])C(C([H])([H])[H])(C([H])([H])[H])C([H])([H])C([H])([H])N([H])C(=O)N3C([H])([H])C([H])([H])C([H])([H])C([H])(n4nc(-c5c([H])c([H])c(Oc6c([H])c([H])c(F)c([H])c6F)c([H])c5[H])c(C(=O)N([H])[H])c4N([H])[H])C3([H])[H])c([H])c([H])c2C1([H])[H]

>  <smiles>  (71) 
[H]c1c([H])c([H])c2c(c1[H])C([H])([H])C([H])([H])C([H])([H])C2([H])N([H])C(=O)C1([H])N(C(=O)C([H])(N([H])C(=O)C([H])(N([H])C([H])([H])[H])C([H])([H])[H])C(C([H])([H])[H])(C([H])([H])[H])C([H])([H])[H])C([H])([H])c2c([H])c(OC([H])([H])C([H])([H])C([H])(C([H])([H])[H])C([H])(C([H])([H])[H])[N+]([H])([H])C(C([H])([H])[H])(C([H])([H])[H])C([H])([H])C([H])([H])N([H])C(=O)N3C([H])([H])C([H])([H])C([H])([H])C([H])(n4nc(-c5c([H])c([H])c(Oc6c([H])c([H])c(F)c([H])c6F)c([H])c5[H])c(C(=O)N([H])[H])c4N([H])[H])C3([H])[H])c([H])c([H])c2C1([H])[H]

$$$$
71:0:0
     RDKit          3D

 92 99  0  0  1  0  0  0  0  0999 V2000
  -29.3190  -22.4890   20.6510 C   0  0  0  0  0  0  0  0  0  0  0  0
  -29.0280  -21.3030   19.9850 N   0  0  0  0  0  0  0  0  0  0  0  0
  -29.9190  -22.4240   21.7270 O   0  0  0  0  0  0  0  0  0  0  0  0
  -28.2770  -21.5280   17.5720 C   0  0  0  0  0  1  0  0  0  0  0  0
  -26.6030  -21.8240   19.4920 C   0  0  0  0  0  1  0  0  0  0  0  0
  -27.9110  -21.1530   19.0220 C   0  0  0  0  0  3  0  0  0  0  0  0
  -29.1230  -23.9560   20.0340 C   0  0  0  0  0  2  0  0  0  0  0  0
  -28.3020  -25.1640   22.2150 C   0  0  0  0  0  1  0  0  0  0  0  0
  -28.1860  -25.0890   20.6860 C   0  0  0  0  0  3  0  0  0  0  0  0
  -28.3720  -26.4970   20.2150 O   0  0  0  0  0  0  0  0  0  0  0  0
  -24.6220  -31.9000   23.2410 C   0  0  0  0  0  0  0  0  0  0  0  0
  -27.2560  -27.3510   20.1930 C   0  0  0  0  0  0  0  0  0  0  0  0
  -23.4290  -30.4990   21.5970 C   0  0  0  0  0  3  0  0  0  0  0  0
  -24.8890  -28.9580   20.1720 C   0  0  0  0  0  0  0  0  0  0  0  0
  -25.9680  -30.8300   21.4210 C   0  0  0  0  0  2  0  0  0  0  0  0
  -26.0560  -29.4530   20.7690 C   0  0  0  0  0  0  0  0  0  0  0  0
  -27.2470  -28.6620   20.7630 C   0  0  0  0  0  3  0  0  0  0  0  0
  -26.0700  -26.9120   19.5670 C   0  0  0  0  0  3  0  0  0  0  0  0
  -24.8990  -27.6940   19.5600 C   0  0  0  0  0  3  0  0  0  0  0  0
  -23.6470  -29.8250   20.2180 C   0  0  0  0  0  2  0  0  0  0  0  0
  -24.6910  -31.0940   22.1420 N   0  0  0  0  0  0  0  0  0  0  0  0
  -23.5350  -32.1710   23.7730 O   0  0  0  0  0  0  0  0  0  0  0  0
  -22.7680  -29.4770   22.5520 C   0  0  0  0  0  0  0  0  0  0  0  0
  -21.4400  -29.3050   22.4280 N   0  0  0  0  0  0  0  0  0  0  0  0
  -23.4480  -28.8440   23.3660 O   0  0  0  0  0  0  0  0  0  0  0  0
  -20.9530  -29.8690   21.7450 H   0  0  0  0  0  0  0  0  0  0  0  0
  -18.0580  -28.1260   22.9360 C   0  0  0  0  0  0  0  0  0  0  0  0
  -20.6200  -28.3650   23.1940 C   0  0  0  0  0  3  0  0  0  0  0  0
  -20.7090  -26.9380   22.6010 C   0  0  0  0  0  2  0  0  0  0  0  0
  -19.5960  -26.6320   21.5930 C   0  0  0  0  0  2  0  0  0  0  0  0
  -18.2190  -26.7830   22.2460 C   0  0  0  0  0  2  0  0  0  0  0  0
  -19.1850  -28.8740   23.3670 C   0  0  0  0  0  0  0  0  0  0  0  0
  -18.9800  -30.1320   23.9730 C   0  0  0  0  0  3  0  0  0  0  0  0
  -17.6800  -30.6430   24.1540 C   0  0  0  0  0  3  0  0  0  0  0  0
  -16.5670  -29.8890   23.7410 C   0  0  0  0  0  3  0  0  0  0  0  0
  -16.7570  -28.6330   23.1380 C   0  0  0  0  0  3  0  0  0  0  0  0
  -25.8990  -32.5390   23.8700 C   0  0  0  0  0  3  0  0  0  0  0  0
  -25.5860  -33.9380   24.1960 N   0  0  0  0  0  0  0  0  0  0  0  0
  -25.9180  -34.9890   23.4360 C   0  0  0  0  0  0  0  0  0  0  0  0
  -26.5940  -34.8840   22.4090 O   0  0  0  0  0  0  0  0  0  0  0  0
  -24.9970  -34.0910   25.0010 H   0  0  0  0  0  0  0  0  0  0  0  0
  -24.1950  -36.7800   23.0590 C   0  0  0  0  0  1  0  0  0  0  0  0
  -25.4260  -36.3780   23.8870 C   0  0  0  0  0  3  0  0  0  0  0  0
  -27.5490  -37.2630   24.7460 C   0  0  0  0  0  1  0  0  0  0  0  0
  -26.4620  -37.4290   23.7840 N   0  0  0  0  0  0  0  0  0  0  0  0
  -26.0550  -38.3510   23.9270 H   0  0  0  0  0  0  0  0  0  0  0  0
  -26.4060  -31.7720   25.1530 C   0  0  1  0  0  0  0  0  0  0  0  0
  -25.3050  -31.5370   26.2120 C   0  0  0  0  0  1  0  0  0  0  0  0
  -26.9990  -30.3950   24.7710 C   0  0  0  0  0  1  0  0  0  0  0  0
  -27.5530  -32.5710   25.8180 C   0  0  0  0  0  1  0  0  0  0  0  0
  -29.9330  -20.0640   20.0120 C   0  0  0  0  0  3  0  0  0  0  0  0
  -29.4460  -18.6480   20.6170 C   0  0  0  0  0  3  0  0  0  0  0  0
  -30.3080  -17.4180   20.3000 N   0  0  0  0  0  4  0  0  0  0  0  0
  -30.3840  -17.3490   19.2990 H   0  0  0  0  0  0  0  0  0  0  0  0
  -31.2410  -17.5710   20.6440 H   0  0  0  0  0  0  0  0  0  0  0  0
  -29.8610  -16.0410   20.7920 C   0  0  0  0  0  2  0  0  0  0  0  0
  -30.6510  -14.7580   20.2720 C   0  0  0  0  0  0  0  0  0  0  0  0
  -30.4680  -12.5050   19.2020 C   0  0  0  0  0  2  0  0  0  0  0  0
  -29.5130  -12.6160   17.9900 C   0  0  0  0  0  2  0  0  0  0  0  0
  -28.0420  -12.4460   18.4240 C   0  0  0  0  0  2  0  0  0  0  0  0
  -27.6810  -13.3140   19.6570 C   0  0  0  0  0  3  0  0  0  0  0  0
  -28.7470  -13.1740   20.7660 C   0  0  0  0  0  2  0  0  0  0  0  0
  -30.0510  -13.5220   20.1920 N   0  0  0  0  0  0  0  0  0  0  0  0
  -31.8000  -14.9130   19.8480 O   0  0  0  0  0  0  0  0  0  0  0  0
  -25.2890  -13.9080   20.3870 C   0  0  0  0  0  0  0  0  0  0  0  0
  -24.2280  -13.1310   20.7700 C   0  0  0  0  0  0  0  0  0  0  0  0
  -24.7000  -11.7840   20.7520 C   0  0  0  0  0  0  0  0  0  0  0  0
  -26.3370  -13.0300   20.1550 N   0  0  0  0  0  0  0  0  0  0  0  0
  -25.9900  -11.7490   20.4380 N   0  0  0  0  0  0  0  0  0  0  0  0
  -23.9820  -10.5180   20.9600 C   0  0  0  0  0  0  0  0  0  0  0  0
  -24.4190   -9.5650   21.9060 C   0  0  0  0  0  3  0  0  0  0  0  0
  -23.7000   -8.3660   22.0980 C   0  0  0  0  0  3  0  0  0  0  0  0
  -22.5310   -8.1110   21.3420 C   0  0  0  0  0  0  0  0  0  0  0  0
  -22.1130   -9.0520   20.3840 C   0  0  0  0  0  3  0  0  0  0  0  0
  -22.8320  -10.2430   20.1910 C   0  0  0  0  0  3  0  0  0  0  0  0
  -21.7830   -6.9620   21.4460 O   0  0  0  0  0  0  0  0  0  0  0  0
  -21.7370   -6.2340   22.6080 C   0  0  0  0  0  0  0  0  0  0  0  0
  -21.2970   -6.8010   23.8240 C   0  0  0  0  0  3  0  0  0  0  0  0
  -21.1980   -6.0000   24.9790 C   0  0  0  0  0  3  0  0  0  0  0  0
  -21.5300   -4.6330   24.9180 C   0  0  0  0  0  0  0  0  0  0  0  0
  -21.9620   -4.0650   23.7070 C   0  0  0  0  0  3  0  0  0  0  0  0
  -22.0630   -4.8640   22.5540 C   0  0  0  0  0  0  0  0  0  0  0  0
  -22.4600   -4.3070   21.3840 F   0  0  0  0  0  0  0  0  0  0  0  0
  -21.4250   -3.8600   26.0240 F   0  0  0  0  0  0  0  0  0  0  0  0
  -22.8280  -13.6030   21.0410 C   0  0  0  0  0  0  0  0  0  0  0  0
  -22.1060  -12.9090   21.9150 N   0  0  0  0  0  0  0  0  0  0  0  0
  -22.3830  -14.6220   20.5130 O   0  0  0  0  0  0  0  0  0  0  0  0
  -22.4770  -12.0870   22.3650 H   0  0  0  0  0  0  0  0  0  0  0  0
  -21.1670  -13.2080   22.1360 H   0  0  0  0  0  0  0  0  0  0  0  0
  -25.4410  -15.2770   20.1920 N   0  0  0  0  0  0  0  0  0  0  0  0
  -24.6670  -15.9230   20.2920 H   0  0  0  0  0  0  0  0  0  0  0  0
  -26.2740  -15.7150   19.8200 H   0  0  0  0  0  0  0  0  0  0  0  0
  1  3  2  0
  2 51  1  0
  2  1  1  0
  4  6  1  0
  6  5  1  0
  6  2  1  0
  7  1  1  0
  7  9  1  0
  9  8  1  0
 10  9  1  0
 11 22  2  0
 12 10  1  0
 12 17  1  0
 13 21  1  0
 13 23  1  0
 14 20  1  0
 14 16  1  0
 15 21  1  0
 16 15  1  0
 17 16  2  0
 18 12  2  0
 19 18  1  0
 19 14  2  0
 20 13  1  0
 21 11  1  0
 23 25  2  0
 24 23  1  0
 26 24  1  0
 27 36  2  0
 27 32  1  0
 28 24  1  0
 28 32  1  0
 29 28  1  0
 30 31  1  0
 30 29  1  0
 31 27  1  0
 32 33  2  0
 33 34  1  0
 35 34  2  0
 36 35  1  0
 37 11  1  0
 37 38  1  0
 37 47  1  0
 38 41  1  0
 39 43  1  0
 39 38  1  0
 40 39  2  0
 43 42  1  0
 45 43  1  0
 45 46  1  0
 45 44  1  0
 47 50  1  1
 47 48  1  0
 49 47  1  0
 51 52  2  0
 53 52  1  0
 53 55  1  0
 53 56  1  0
 54 53  1  0
 57 56  1  0
 58 63  1  0
 59 60  1  0
 59 58  1  0
 61 60  1  0
 61 68  1  0
 61 62  1  0
 63 57  1  0
 63 62  1  0
 64 57  2  0
 65 66  2  0
 66 85  1  0
 67 66  1  0
 67 70  1  0
 68 65  1  0
 68 69  1  0
 69 67  2  0
 70 71  1  0
 71 72  2  0
 73 76  1  0
 73 72  1  0
 74 73  2  0
 75 74  1  0
 75 70  2  0
 76 77  1  0
 77 78  1  0
 78 79  2  0
 80 79  1  0
 80 84  1  0
 81 80  2  0
 82 77  2  0
 82 81  1  0
 83 82  1  0
 85 86  1  0
 86 89  1  0
 86 88  1  0
 87 85  2  0
 90 91  1  0
 90 65  1  0
 92 90  1  0
M  ISO  4   9 101  10 101  56 100  57 100
M  END
>  <TORSDO>  (72) 
F 23

>  <SCORE>  (72) 
-12.625

>  <name>  (72) 
71

>  <ligand_id>  (72) 
71

>  <original_smiles>  (72) 
[H]c1c([H])c([H])c2c(c1[H])C([H])([H])C([H])([H])C([H])([H])C2([H])N([H])C(=O)C1([H])N(C(=O)C([H])(N([H])C(=O)C([H])(N([H])C([H])([H])[H])C([H])([H])[H])C(C([H])([H])[H])(C([H])([H])[H])C([H])([H])[H])C([H])([H])c2c([H])c(OC([H])(C([H])([H])[H])C([H])([H])C(=O)N(C([H])([H])C([H])([H])[N+]([H])([H])C([H])([H])C(=O)N3C([H])([H])C([H])([H])C([H])([H])C([H])(n4nc(-c5c([H])c([H])c(Oc6c([H])c([H])c(F)c([H])c6F)c([H])c5[H])c(C(=O)N([H])[H])c4N([H])[H])C3([H])[H])C([H])(C([H])([H])[H])C([H])([H])[H])c([H])c([H])c2C1([H])[H]

>  <smiles>  (72) 
[H]c1c([H])c([H])c2c(c1[H])C([H])([H])C([H])([H])C([H])([H])C2([H])N([H])C(=O)C1([H])N(C(=O)C([H])(N([H])C(=O)C([H])(N([H])C([H])([H])[H])C([H])([H])[H])C(C([H])([H])[H])(C([H])([H])[H])C([H])([H])[H])C([H])([H])c2c([H])c(OC([H])(C([H])([H])[H])C([H])([H])C(=O)N(C([H])([H])C([H])([H])[N+]([H])([H])C([H])([H])C(=O)N3C([H])([H])C([H])([H])C([H])([H])C([H])(n4nc(-c5c([H])c([H])c(Oc6c([H])c([H])c(F)c([H])c6F)c([H])c5[H])c(C(=O)N([H])[H])c4N([H])[H])C3([H])[H])C([H])(C([H])([H])[H])C([H])([H])[H])c([H])c([H])c2C1([H])[H]

$$$$
72:0:0
     RDKit          3D

 96104  0  0  1  0  0  0  0  0999 V2000
  -28.5000  -22.4140   21.1480 C   0  0  0  0  0  3  0  0  0  0  0  0
  -28.6570  -22.0660   18.7620 C   0  0  0  0  0  3  0  0  0  0  0  0
  -28.6880  -23.8070   20.9620 C   0  0  0  0  0  3  0  0  0  0  0  0
  -28.8480  -23.4580   18.5780 C   0  0  0  0  0  3  0  0  0  0  0  0
  -28.4770  -21.5140   20.0520 C   0  0  0  0  0  0  0  0  0  0  0  0
  -28.8580  -24.3590   19.6730 C   0  0  0  0  0  0  0  0  0  0  0  0
  -27.1050  -19.4780   19.2060 C   0  0  0  0  0  1  0  0  0  0  0  0
  -28.0820  -20.0260   20.2660 C   0  0  0  0  0  3  0  0  0  0  0  0
  -29.0970  -19.0590   20.8240 N   0  0  0  0  0  4  0  0  0  0  0  0
  -28.5580  -18.4390   21.4030 H   0  0  0  0  0  0  0  0  0  0  0  0
  -29.6640  -19.5950   21.4620 H   0  0  0  0  0  0  0  0  0  0  0  0
  -30.0360  -18.1670   20.0460 C   0  0  0  0  0  3  0  0  0  0  0  0
  -29.7480  -18.2060   17.4640 C   0  0  0  0  0  1  0  0  0  0  0  0
  -29.4720  -17.4590   18.7790 C   0  0  0  0  0  2  0  0  0  0  0  0
  -30.7870  -17.1800   21.0330 C   0  0  0  0  0  2  0  0  0  0  0  0
  -31.1320  -14.6830   20.6390 C   0  0  0  0  0  0  0  0  0  0  0  0
  -30.8700  -12.4690   19.5760 C   0  0  0  0  0  2  0  0  0  0  0  0
  -29.9830  -12.6320   18.3240 C   0  0  0  0  0  2  0  0  0  0  0  0
  -28.4890  -12.5310   18.6930 C   0  0  0  0  0  2  0  0  0  0  0  0
  -28.1110  -13.4180   19.9090 C   0  0  0  0  0  3  0  0  0  0  0  0
  -29.1150  -13.2310   21.0690 C   0  0  0  0  0  2  0  0  0  0  0  0
  -30.4630  -13.5010   20.5430 N   0  0  0  0  0  0  0  0  0  0  0  0
  -32.2930  -14.8220   20.2460 O   0  0  0  0  0  0  0  0  0  0  0  0
  -30.3900  -15.7460   21.0270 N   0  0  0  0  0  0  0  0  0  0  0  0
  -29.4480  -15.5330   21.3200 H   0  0  0  0  0  0  0  0  0  0  0  0
  -25.7060  -14.0950   20.5180 C   0  0  0  0  0  0  0  0  0  0  0  0
  -24.6040  -13.3560   20.8570 C   0  0  0  0  0  0  0  0  0  0  0  0
  -25.0300  -11.9920   20.8560 C   0  0  0  0  0  0  0  0  0  0  0  0
  -26.7340  -13.1830   20.3380 N   0  0  0  0  0  0  0  0  0  0  0  0
  -26.3300  -11.9150   20.5970 N   0  0  0  0  0  0  0  0  0  0  0  0
  -24.2630  -10.7510   21.0280 C   0  0  0  0  0  0  0  0  0  0  0  0
  -24.6220   -9.7900   21.9990 C   0  0  0  0  0  3  0  0  0  0  0  0
  -23.8580   -8.6150   22.1590 C   0  0  0  0  0  3  0  0  0  0  0  0
  -22.7220   -8.3910   21.3460 C   0  0  0  0  0  0  0  0  0  0  0  0
  -22.3830   -9.3390   20.3640 C   0  0  0  0  0  3  0  0  0  0  0  0
  -23.1470  -10.5080   20.2040 C   0  0  0  0  0  3  0  0  0  0  0  0
  -21.9350   -7.2670   21.4130 O   0  0  0  0  0  0  0  0  0  0  0  0
  -21.7860   -6.5620   22.5800 C   0  0  0  0  0  0  0  0  0  0  0  0
  -21.2780   -7.1620   23.7540 C   0  0  0  0  0  3  0  0  0  0  0  0
  -21.0750   -6.3830   24.9110 C   0  0  0  0  0  3  0  0  0  0  0  0
  -21.3710   -5.0060   24.8940 C   0  0  0  0  0  0  0  0  0  0  0  0
  -21.8720   -4.4060   23.7250 C   0  0  0  0  0  3  0  0  0  0  0  0
  -22.0760   -5.1820   22.5710 C   0  0  0  0  0  0  0  0  0  0  0  0
  -22.5390   -4.5960   21.4410 F   0  0  0  0  0  0  0  0  0  0  0  0
  -21.1690   -4.2560   26.0030 F   0  0  0  0  0  0  0  0  0  0  0  0
  -23.2110  -13.8740   21.0690 C   0  0  0  0  0  0  0  0  0  0  0  0
  -22.4360  -13.2170   21.9260 N   0  0  0  0  0  0  0  0  0  0  0  0
  -22.8170  -14.8960   20.5100 O   0  0  0  0  0  0  0  0  0  0  0  0
  -22.7670  -12.3890   22.4000 H   0  0  0  0  0  0  0  0  0  0  0  0
  -21.5000  -13.5450   22.1100 H   0  0  0  0  0  0  0  0  0  0  0  0
  -25.9130  -15.4570   20.3290 N   0  0  0  0  0  0  0  0  0  0  0  0
  -25.1420  -16.1150   20.3560 H   0  0  0  0  0  0  0  0  0  0  0  0
  -26.7550  -15.8450   19.9270 H   0  0  0  0  0  0  0  0  0  0  0  0
  -29.1410  -26.4210   18.0610 C   0  0  0  0  0  1  0  0  0  0  0  0
  -29.2140  -25.8580   19.4960 C   0  0  0  0  0  3  0  0  0  0  0  0
  -28.7450  -26.7900   20.5000 O   0  0  0  0  0  0  0  0  0  0  0  0
  -24.6940  -31.9380   23.3210 C   0  0  0  0  0  0  0  0  0  0  0  0
  -27.5330  -27.4590   20.4270 C   0  0  0  0  0  0  0  0  0  0  0  0
  -23.5730  -30.4750   21.6700 C   0  0  0  0  0  3  0  0  0  0  0  0
  -25.1030  -28.9270   20.3330 C   0  0  0  0  0  0  0  0  0  0  0  0
  -26.0980  -30.8740   21.5510 C   0  0  0  0  0  2  0  0  0  0  0  0
  -26.2300  -29.4860   20.9480 C   0  0  0  0  0  0  0  0  0  0  0  0
  -27.4410  -28.7550   20.9950 C   0  0  0  0  0  3  0  0  0  0  0  0
  -26.3770  -26.9070   19.8330 C   0  0  0  0  0  3  0  0  0  0  0  0
  -25.1720  -27.6380   19.7770 C   0  0  0  0  0  3  0  0  0  0  0  0
  -23.8430  -29.7660   20.3160 C   0  0  0  0  0  2  0  0  0  0  0  0
  -24.8050  -31.1130   22.2390 N   0  0  0  0  0  0  0  0  0  0  0  0
  -23.5900  -32.2000   23.8170 O   0  0  0  0  0  0  0  0  0  0  0  0
  -22.9070  -29.4650   22.6320 C   0  0  0  0  0  0  0  0  0  0  0  0
  -21.5880  -29.2720   22.4780 N   0  0  0  0  0  0  0  0  0  0  0  0
  -23.5760  -28.8570   23.4710 O   0  0  0  0  0  0  0  0  0  0  0  0
  -21.1090  -29.8140   21.7730 H   0  0  0  0  0  0  0  0  0  0  0  0
  -18.2050  -28.0880   22.9440 C   0  0  0  0  0  0  0  0  0  0  0  0
  -20.7610  -28.3380   23.2430 C   0  0  0  0  0  3  0  0  0  0  0  0
  -20.8660  -26.9060   22.6700 C   0  0  0  0  0  2  0  0  0  0  0  0
  -19.7730  -26.5840   21.6450 C   0  0  0  0  0  2  0  0  0  0  0  0
  -18.3850  -26.7360   22.2740 C   0  0  0  0  0  2  0  0  0  0  0  0
  -19.3220  -28.8470   23.3850 C   0  0  0  0  0  0  0  0  0  0  0  0
  -19.1020  -30.1130   23.9700 C   0  0  0  0  0  3  0  0  0  0  0  0
  -17.7970  -30.6190   24.1190 C   0  0  0  0  0  3  0  0  0  0  0  0
  -16.6940  -29.8580   23.6970 C   0  0  0  0  0  3  0  0  0  0  0  0
  -16.8990  -28.5940   23.1140 C   0  0  0  0  0  3  0  0  0  0  0  0
  -25.9450  -32.6080   23.9710 C   0  0  0  0  0  3  0  0  0  0  0  0
  -25.5990  -34.0070   24.2580 N   0  0  0  0  0  0  0  0  0  0  0  0
  -25.9390  -35.0470   23.4860 C   0  0  0  0  0  0  0  0  0  0  0  0
  -26.6480  -34.9330   22.4810 O   0  0  0  0  0  0  0  0  0  0  0  0
  -24.9740  -34.1680   25.0340 H   0  0  0  0  0  0  0  0  0  0  0  0
  -24.1880  -36.7950   23.0310 C   0  0  0  0  0  1  0  0  0  0  0  0
  -25.4090  -36.4360   23.8920 C   0  0  0  0  0  3  0  0  0  0  0  0
  -27.4970  -37.3860   24.7690 C   0  0  0  0  0  1  0  0  0  0  0  0
  -26.4230  -37.5080   23.7860 N   0  0  0  0  0  0  0  0  0  0  0  0
  -25.9950  -38.4230   23.8950 H   0  0  0  0  0  0  0  0  0  0  0  0
  -26.4320  -31.8750   25.2810 C   0  0  1  0  0  0  0  0  0  0  0  0
  -25.3040  -31.6120   26.3040 C   0  0  0  0  0  1  0  0  0  0  0  0
  -27.0810  -30.5150   24.9340 C   0  0  0  0  0  1  0  0  0  0  0  0
  -27.5240  -32.7200   25.9790 C   0  0  0  0  0  1  0  0  0  0  0  0
  2  5  1  0
  3  1  1  0
  4  2  2  0
  4  6  1  0
  5  8  1  0
  5  1  2  0
  6  3  2  0
  8  7  1  0
  8  9  1  0
  9 10  1  0
  9 11  1  0
 12 14  1  0
 12  9  1  0
 12 15  1  0
 13 14  1  0
 16 24  1  0
 17 22  1  0
 18 19  1  0
 18 17  1  0
 20 19  1  0
 20 29  1  0
 20 21  1  0
 22 16  1  0
 22 21  1  0
 23 16  2  0
 24 15  1  0
 24 25  1  0
 26 27  2  0
 27 46  1  0
 28 27  1  0
 28 31  1  0
 29 26  1  0
 29 30  1  0
 30 28  2  0
 31 32  1  0
 32 33  2  0
 34 37  1  0
 34 33  1  0
 35 34  2  0
 36 35  1  0
 36 31  2  0
 37 38  1  0
 38 39  1  0
 39 40  2  0
 41 40  1  0
 41 45  1  0
 42 41  2  0
 43 38  2  0
 43 42  1  0
 44 43  1  0
 46 47  1  0
 47 50  1  0
 47 49  1  0
 48 46  2  0
 51 52  1  0
 51 26  1  0
 53 51  1  0
 55 54  1  0
 55  6  1  0
 55 56  1  0
 57 68  2  0
 58 56  1  0
 58 63  1  0
 59 67  1  0
 59 69  1  0
 60 62  1  0
 61 67  1  0
 62 63  2  0
 62 61  1  0
 64 58  2  0
 65 64  1  0
 65 60  2  0
 66 60  1  0
 66 59  1  0
 67 57  1  0
 69 71  2  0
 70 69  1  0
 72 70  1  0
 73 82  2  0
 73 78  1  0
 74 70  1  0
 74 78  1  0
 75 74  1  0
 76 77  1  0
 76 75  1  0
 77 73  1  0
 78 79  2  0
 79 80  1  0
 81 80  2  0
 82 81  1  0
 83 57  1  0
 83 84  1  0
 83 93  1  0
 84 87  1  0
 85 89  1  0
 85 84  1  0
 86 85  2  0
 89 88  1  0
 91 89  1  0
 91 92  1  0
 91 90  1  0
 93 96  1  1
 93 94  1  0
 95 93  1  0
M  ISO  4  16 100  24 100  55 101  56 101
M  END
>  <TORSDO>  (73) 
F 22

>  <SCORE>  (73) 
-13.023

>  <name>  (73) 
72

>  <ligand_id>  (73) 
72

>  <original_smiles>  (73) 
[H]c1c([H])c([H])c2c(c1[H])C([H])([H])C([H])([H])C([H])([H])C2([H])N([H])C(=O)C1([H])N(C(=O)C([H])(N([H])C(=O)C([H])(N([H])C([H])([H])[H])C([H])([H])[H])C(C([H])([H])[H])(C([H])([H])[H])C([H])([H])[H])C([H])([H])c2c([H])c(OC([H])(c3c([H])c([H])c(C([H])(C([H])([H])[H])[N+]([H])([H])C([H])(C([H])([H])N([H])C(=O)N4C([H])([H])C([H])([H])C([H])([H])C([H])(n5nc(-c6c([H])c([H])c(Oc7c([H])c([H])c(F)c([H])c7F)c([H])c6[H])c(C(=O)N([H])[H])c5N([H])[H])C4([H])[H])C([H])([H])C([H])([H])[H])c([H])c3[H])C([H])([H])[H])c([H])c([H])c2C1([H])[H]

>  <smiles>  (73) 
[H]c1c([H])c([H])c2c(c1[H])C([H])([H])C([H])([H])C([H])([H])C2([H])N([H])C(=O)C1([H])N(C(=O)C([H])(N([H])C(=O)C([H])(N([H])C([H])([H])[H])C([H])([H])[H])C(C([H])([H])[H])(C([H])([H])[H])C([H])([H])[H])C([H])([H])c2c([H])c(OC([H])(c3c([H])c([H])c(C([H])(C([H])([H])[H])[N+]([H])([H])C([H])(C([H])([H])N([H])C(=O)N4C([H])([H])C([H])([H])C([H])([H])C([H])(n5nc(-c6c([H])c([H])c(Oc7c([H])c([H])c(F)c([H])c7F)c([H])c6[H])c(C(=O)N([H])[H])c5N([H])[H])C4([H])[H])C([H])([H])C([H])([H])[H])c([H])c3[H])C([H])([H])[H])c([H])c([H])c2C1([H])[H]

$$$$
73:0:0
     RDKit          3D

 94102  0  0  1  0  0  0  0  0999 V2000
  -30.7550  -15.0010   20.2410 C   0  0  0  0  0  0  0  0  0  0  0  0
  -30.6670  -12.5800   19.5170 C   0  0  0  0  0  2  0  0  0  0  0  0
  -29.7720  -12.4600   18.2610 C   0  0  0  0  0  2  0  0  0  0  0  0
  -28.2880  -12.3120   18.6540 C   0  0  0  0  0  2  0  0  0  0  0  0
  -27.8590  -13.3340   19.7400 C   0  0  0  0  0  3  0  0  0  0  0  0
  -28.8760  -13.4000   20.9000 C   0  0  0  0  0  2  0  0  0  0  0  0
  -30.1820  -13.7370   20.3160 N   0  0  0  0  0  0  0  0  0  0  0  0
  -31.9510  -15.0750   19.9280 O   0  0  0  0  0  0  0  0  0  0  0  0
  -28.8210  -18.3980   20.6060 C   0  0  0  0  0  3  0  0  0  0  0  0
  -28.6860  -19.8300   20.4440 C   0  0  0  0  0  0  0  0  0  0  0  0
  -29.6540  -20.6300   19.7470 C   0  0  0  0  0  0  0  0  0  0  0  0
  -29.9190  -17.6220   20.1230 C   0  0  0  0  0  0  0  0  0  0  0  0
  -30.7090  -19.7690   19.2460 C   0  0  0  0  0  0  0  0  0  0  0  0
  -27.4690  -20.4840   21.0700 C   0  0  0  0  0  1  0  0  0  0  0  0
  -30.8230  -18.3860   19.4320 N   0  0  0  0  0  0  0  0  0  0  0  0
  -29.9130  -16.1230   20.3840 N   0  0  0  0  0  0  0  0  0  0  0  0
  -29.0180  -15.8150   20.7250 H   0  0  0  0  0  0  0  0  0  0  0  0
  -25.5100  -14.0240   20.4970 C   0  0  0  0  0  0  0  0  0  0  0  0
  -24.3970  -13.2980   20.8200 C   0  0  0  0  0  0  0  0  0  0  0  0
  -24.7760  -11.9240   20.7110 C   0  0  0  0  0  0  0  0  0  0  0  0
  -26.4990  -13.0960   20.2110 N   0  0  0  0  0  0  0  0  0  0  0  0
  -26.0630  -11.8240   20.4020 N   0  0  0  0  0  0  0  0  0  0  0  0
  -23.9700  -10.7020   20.8240 C   0  0  0  0  0  0  0  0  0  0  0  0
  -24.3840   -9.6140   21.6250 C   0  0  0  0  0  3  0  0  0  0  0  0
  -23.5820   -8.4580   21.7330 C   0  0  0  0  0  3  0  0  0  0  0  0
  -22.3510   -8.3820   21.0410 C   0  0  0  0  0  0  0  0  0  0  0  0
  -21.9520   -9.4580   20.2280 C   0  0  0  0  0  3  0  0  0  0  0  0
  -22.7550  -10.6050   20.1170 C   0  0  0  0  0  3  0  0  0  0  0  0
  -21.5180   -7.2890   21.0670 O   0  0  0  0  0  0  0  0  0  0  0  0
  -21.5680   -6.3700   22.0840 C   0  0  0  0  0  0  0  0  0  0  0  0
  -21.3770   -6.7410   23.4330 C   0  0  0  0  0  3  0  0  0  0  0  0
  -21.3660   -5.7550   24.4400 C   0  0  0  0  0  3  0  0  0  0  0  0
  -21.5360   -4.3990   24.1010 C   0  0  0  0  0  0  0  0  0  0  0  0
  -21.7210   -4.0260   22.7580 C   0  0  0  0  0  3  0  0  0  0  0  0
  -21.7340   -5.0090   21.7520 C   0  0  0  0  0  0  0  0  0  0  0  0
  -21.8910   -4.6430   20.4570 F   0  0  0  0  0  0  0  0  0  0  0  0
  -21.5180   -3.4510   25.0660 F   0  0  0  0  0  0  0  0  0  0  0  0
  -23.0300  -13.8460   21.1110 C   0  0  0  0  0  0  0  0  0  0  0  0
  -22.2610  -13.1610   21.9500 N   0  0  0  0  0  0  0  0  0  0  0  0
  -22.6570  -14.9150   20.6340 O   0  0  0  0  0  0  0  0  0  0  0  0
  -22.5770  -12.2940   22.3580 H   0  0  0  0  0  0  0  0  0  0  0  0
  -21.3440  -13.5100   22.1880 H   0  0  0  0  0  0  0  0  0  0  0  0
  -25.7610  -15.3900   20.3970 N   0  0  0  0  0  0  0  0  0  0  0  0
  -25.0260  -16.0770   20.5360 H   0  0  0  0  0  0  0  0  0  0  0  0
  -26.6080  -15.7930   20.0210 H   0  0  0  0  0  0  0  0  0  0  0  0
  -31.0200  -22.8840   19.3160 C   0  0  0  0  0  1  0  0  0  0  0  0
  -29.6660  -22.3030   19.7520 C   0  0  0  0  0  3  0  0  0  0  0  0
  -28.4740  -23.3290   19.1820 C   0  0  0  0  0  3  0  0  0  0  0  0
  -27.2870  -23.1850   19.9350 O   0  0  0  0  0  0  0  0  0  0  0  0
  -27.3810  -23.7200   20.7170 H   0  0  0  0  0  0  0  0  0  0  0  0
  -28.5580  -24.9550   18.7400 C   0  0  0  0  0  2  0  0  0  0  0  0
  -28.4280  -26.2830   19.5100 O   0  0  0  0  0  0  0  0  0  0  0  0
  -24.5580  -31.5090   22.8760 C   0  0  0  0  0  0  0  0  0  0  0  0
  -27.3080  -27.1820   19.4730 C   0  0  0  0  0  0  0  0  0  0  0  0
  -23.4030  -30.2040   21.1320 C   0  0  0  0  0  3  0  0  0  0  0  0
  -24.9030  -28.8060   19.5830 C   0  0  0  0  0  0  0  0  0  0  0  0
  -25.9400  -30.5860   20.9850 C   0  0  0  0  0  2  0  0  0  0  0  0
  -26.0630  -29.2570   20.2230 C   0  0  0  0  0  0  0  0  0  0  0  0
  -27.2610  -28.4580   20.1590 C   0  0  0  0  0  3  0  0  0  0  0  0
  -26.1150  -26.8190   18.8090 C   0  0  0  0  0  3  0  0  0  0  0  0
  -24.9400  -27.6000   18.8630 C   0  0  0  0  0  3  0  0  0  0  0  0
  -23.6410  -29.6450   19.7030 C   0  0  0  0  0  2  0  0  0  0  0  0
  -24.6520  -30.7840   21.7210 N   0  0  0  0  0  0  0  0  0  0  0  0
  -23.4630  -31.7110   23.4260 O   0  0  0  0  0  0  0  0  0  0  0  0
  -22.7680  -29.0990   22.0110 C   0  0  0  0  0  0  0  0  0  0  0  0
  -21.4310  -28.9590   21.9480 N   0  0  0  0  0  0  0  0  0  0  0  0
  -23.4760  -28.3740   22.7150 O   0  0  0  0  0  0  0  0  0  0  0  0
  -20.9160  -29.5970   21.3570 H   0  0  0  0  0  0  0  0  0  0  0  0
  -18.0590  -27.7980   22.5730 C   0  0  0  0  0  0  0  0  0  0  0  0
  -20.6380  -27.9510   22.6560 C   0  0  0  0  0  3  0  0  0  0  0  0
  -20.6390  -26.6060   21.8930 C   0  0  0  0  0  2  0  0  0  0  0  0
  -19.4490  -26.4530   20.9410 C   0  0  0  0  0  2  0  0  0  0  0  0
  -18.1290  -26.5480   21.7120 C   0  0  0  0  0  2  0  0  0  0  0  0
  -19.2360  -28.4660   23.0030 C   0  0  0  0  0  0  0  0  0  0  0  0
  -19.1130  -29.6420   23.7750 C   0  0  0  0  0  3  0  0  0  0  0  0
  -17.8450  -30.1490   24.1160 C   0  0  0  0  0  3  0  0  0  0  0  0
  -16.6830  -29.4760   23.7000 C   0  0  0  0  0  3  0  0  0  0  0  0
  -16.7910  -28.3020   22.9340 C   0  0  0  0  0  3  0  0  0  0  0  0
  -25.8140  -32.1400   23.5500 C   0  0  0  0  0  3  0  0  0  0  0  0
  -26.3450  -31.3010   24.7770 C   0  0  1  0  0  0  0  0  0  0  0  0
  -25.2570  -30.9760   25.8290 C   0  0  0  0  0  1  0  0  0  0  0  0
  -26.9550  -29.9610   24.3060 C   0  0  0  0  0  1  0  0  0  0  0  0
  -27.4810  -32.0750   25.4890 C   0  0  0  0  0  1  0  0  0  0  0  0
  -25.4580  -33.5020   23.9750 N   0  0  0  0  0  0  0  0  0  0  0  0
  -25.7640  -34.6180   23.2990 C   0  0  0  0  0  0  0  0  0  0  0  0
  -26.4420  -34.6090   22.2690 O   0  0  0  0  0  0  0  0  0  0  0  0
  -24.8530  -33.5790   24.7800 H   0  0  0  0  0  0  0  0  0  0  0  0
  -23.9730  -36.3730   23.0840 C   0  0  0  0  0  1  0  0  0  0  0  0
  -25.2350  -35.9550   23.8560 C   0  0  0  0  0  3  0  0  0  0  0  0
  -27.3450  -36.8580   24.7290 C   0  0  0  0  0  1  0  0  0  0  0  0
  -26.2300  -37.0490   23.8060 N   0  0  0  0  0  0  0  0  0  0  0  0
  -25.7940  -37.9430   24.0150 H   0  0  0  0  0  0  0  0  0  0  0  0
  -32.8290  -19.5500   18.0960 C   0  0  0  0  0  1  0  0  0  0  0  0
  -31.7280  -20.3520   18.5190 O   0  0  0  0  0  0  0  0  0  0  0  0
  1  7  1  0
  1 16  1  0
  2  7  1  0
  3  4  1  0
  3  2  1  0
  5  4  1  0
  5 21  1  0
  5  6  1  0
  7  6  1  0
  8  1  2  0
 10  9  1  0
 10 14  1  0
 11 47  1  0
 11 10  2  0
 12 16  1  0
 12  9  2  0
 13 15  2  0
 13 11  1  0
 15 12  1  0
 16 17  1  0
 18 19  2  0
 19 38  1  0
 20 19  1  0
 20 23  1  0
 21 22  1  0
 21 18  1  0
 22 20  2  0
 23 24  1  0
 24 25  2  0
 26 29  1  0
 26 25  1  0
 27 26  2  0
 28 27  1  0
 28 23  2  0
 29 30  1  0
 30 31  1  0
 31 32  2  0
 33 32  1  0
 33 37  1  0
 34 33  2  0
 35 30  2  0
 35 34  1  0
 36 35  1  0
 38 39  1  0
 39 42  1  0
 39 41  1  0
 40 38  2  0
 43 18  1  0
 43 44  1  0
 45 43  1  0
 47 46  1  0
 48 51  1  0
 48 47  1  0
 48 49  1  0
 49 50  1  0
 51 52  1  0
 53 64  2  0
 54 52  1  0
 54 59  1  0
 55 63  1  0
 55 65  1  0
 56 62  1  0
 56 58  1  0
 57 63  1  0
 58 57  1  0
 59 58  2  0
 60 61  1  0
 60 54  2  0
 61 56  2  0
 62 55  1  0
 63 53  1  0
 65 67  2  0
 66 65  1  0
 68 66  1  0
 69 78  2  0
 69 74  1  0
 70 66  1  0
 70 74  1  0
 71 70  1  0
 72 73  1  0
 72 71  1  0
 73 69  1  0
 74 75  2  0
 75 76  1  0
 77 76  2  0
 78 77  1  0
 79 53  1  0
 79 84  1  0
 79 80  1  0
 80 83  1  1
 80 81  1  0
 82 80  1  0
 84 87  1  0
 85 89  1  0
 85 84  1  0
 86 85  2  0
 89 88  1  0
 91 89  1  0
 91 92  1  0
 91 90  1  0
 93 94  1  0
 94 13  1  0
M  ISO  4   1 100  16 100  51 101  52 101
M  END
>  <TORSDO>  (74) 
F 20

>  <SCORE>  (74) 
-11.868

>  <name>  (74) 
73

>  <ligand_id>  (74) 
73

>  <original_smiles>  (74) 
[H]OC([H])(C([H])([H])Oc1c([H])c([H])c2c(c1[H])C([H])([H])N(C(=O)C([H])(N([H])C(=O)C([H])(N([H])C([H])([H])[H])C([H])([H])[H])C(C([H])([H])[H])(C([H])([H])[H])C([H])([H])[H])C([H])(C(=O)N([H])C1([H])c3c([H])c([H])c([H])c([H])c3C([H])([H])C([H])([H])C1([H])[H])C2([H])[H])C([H])(c1c(OC([H])([H])[H])nc(N([H])C(=O)N2C([H])([H])C([H])([H])C([H])([H])C([H])(n3nc(-c4c([H])c([H])c(Oc5c([H])c([H])c(F)c([H])c5F)c([H])c4[H])c(C(=O)N([H])[H])c3N([H])[H])C2([H])[H])c([H])c1C([H])([H])[H])C([H])([H])[H]

>  <smiles>  (74) 
[H]OC([H])(C([H])([H])Oc1c([H])c([H])c2c(c1[H])C([H])([H])N(C(=O)C([H])(N([H])C(=O)C([H])(N([H])C([H])([H])[H])C([H])([H])[H])C(C([H])([H])[H])(C([H])([H])[H])C([H])([H])[H])C([H])(C(=O)N([H])C1([H])c3c([H])c([H])c([H])c([H])c3C([H])([H])C([H])([H])C1([H])[H])C2([H])[H])C([H])(c1c(OC([H])([H])[H])nc(N([H])C(=O)N2C([H])([H])C([H])([H])C([H])([H])C([H])(n3nc(-c4c([H])c([H])c(Oc5c([H])c([H])c(F)c([H])c5F)c([H])c4[H])c(C(=O)N([H])[H])c3N([H])[H])C2([H])[H])c([H])c1C([H])([H])[H])C([H])([H])[H]

$$$$
74:0:0
     RDKit          3D

 93101  0  0  1  0  0  0  0  0999 V2000
  -29.3840  -20.4680   20.8250 C   0  0  0  0  0  3  0  0  0  0  0  0
  -29.7770  -19.1750   20.1990 C   0  0  0  0  0  0  0  0  0  0  0  0
  -29.9680  -19.3220   18.7990 C   0  0  0  0  0  0  0  0  0  0  0  0
  -29.1550  -21.7560   20.1170 C   0  0  0  0  0  0  0  0  0  0  0  0
  -29.6750  -20.5600   18.1580 C   0  0  0  0  0  0  0  0  0  0  0  0
  -30.6100  -18.1890   17.9970 C   0  0  0  0  0  1  0  0  0  0  0  0
  -29.3020  -21.7130   18.7740 N   0  0  0  0  0  0  0  0  0  0  0  0
  -30.2400  -23.6760   21.4380 C   0  0  0  0  0  1  0  0  0  0  0  0
  -27.8340  -23.1110   21.9010 C   0  0  0  0  0  1  0  0  0  0  0  0
  -28.8990  -23.2760   20.7820 C   0  0  2  0  0  0  0  0  0  0  0  0
  -28.4070  -24.6480   19.8860 C   0  0  0  0  0  2  0  0  0  0  0  0
  -28.4330  -26.1670   20.3140 O   0  0  0  0  0  0  0  0  0  0  0  0
  -24.6250  -31.8060   23.1910 C   0  0  0  0  0  0  0  0  0  0  0  0
  -27.3620  -27.1420   20.1810 C   0  0  0  0  0  0  0  0  0  0  0  0
  -23.5030  -30.4150   21.4990 C   0  0  0  0  0  3  0  0  0  0  0  0
  -25.0140  -28.8750   20.0940 C   0  0  0  0  0  0  0  0  0  0  0  0
  -26.0530  -30.7170   21.4060 C   0  0  0  0  0  2  0  0  0  0  0  0
  -26.1670  -29.3270   20.7490 C   0  0  0  0  0  0  0  0  0  0  0  0
  -27.3350  -28.4700   20.7820 C   0  0  0  0  0  3  0  0  0  0  0  0
  -26.1880  -26.8120   19.4640 C   0  0  0  0  0  3  0  0  0  0  0  0
  -25.0400  -27.6340   19.4370 C   0  0  0  0  0  3  0  0  0  0  0  0
  -23.7720  -29.7540   20.1240 C   0  0  0  0  0  2  0  0  0  0  0  0
  -24.7500  -30.9980   22.0940 N   0  0  0  0  0  0  0  0  0  0  0  0
  -23.5180  -32.0770   23.6800 O   0  0  0  0  0  0  0  0  0  0  0  0
  -22.7970  -29.3950   22.4270 C   0  0  0  0  0  0  0  0  0  0  0  0
  -21.4680  -29.2530   22.2840 N   0  0  0  0  0  0  0  0  0  0  0  0
  -23.4470  -28.7270   23.2350 O   0  0  0  0  0  0  0  0  0  0  0  0
  -20.9940  -29.8290   21.6010 H   0  0  0  0  0  0  0  0  0  0  0  0
  -18.0540  -28.1720   22.8030 C   0  0  0  0  0  0  0  0  0  0  0  0
  -20.6270  -28.3060   23.0210 C   0  0  0  0  0  3  0  0  0  0  0  0
  -20.6540  -26.9130   22.3510 C   0  0  0  0  0  2  0  0  0  0  0  0
  -19.5160  -26.7030   21.3500 C   0  0  0  0  0  2  0  0  0  0  0  0
  -18.1570  -26.8630   22.0390 C   0  0  0  0  0  2  0  0  0  0  0  0
  -19.2150  -28.8560   23.2530 C   0  0  0  0  0  0  0  0  0  0  0  0
  -19.0630  -30.0840   23.9340 C   0  0  0  0  0  3  0  0  0  0  0  0
  -17.7830  -30.6250   24.1660 C   0  0  0  0  0  3  0  0  0  0  0  0
  -16.6400  -29.9350   23.7300 C   0  0  0  0  0  3  0  0  0  0  0  0
  -16.7750  -28.7090   23.0560 C   0  0  0  0  0  3  0  0  0  0  0  0
  -25.8710  -32.4450   23.8720 C   0  0  0  0  0  3  0  0  0  0  0  0
  -26.3230  -31.6760   25.1720 C   0  0  1  0  0  0  0  0  0  0  0  0
  -25.1790  -31.4380   26.1820 C   0  0  0  0  0  1  0  0  0  0  0  0
  -26.9140  -30.2950   24.8030 C   0  0  0  0  0  1  0  0  0  0  0  0
  -27.4410  -32.4650   25.8910 C   0  0  0  0  0  1  0  0  0  0  0  0
  -25.5470  -33.8470   24.1820 N   0  0  0  0  0  0  0  0  0  0  0  0
  -25.9500  -34.9010   23.4610 C   0  0  0  0  0  0  0  0  0  0  0  0
  -26.6990  -34.7970   22.4870 O   0  0  0  0  0  0  0  0  0  0  0  0
  -24.8780  -34.0060   24.9210 H   0  0  0  0  0  0  0  0  0  0  0  0
  -24.3070  -36.7400   22.9570 C   0  0  0  0  0  1  0  0  0  0  0  0
  -25.4430  -36.2900   23.8910 C   0  0  0  0  0  3  0  0  0  0  0  0
  -27.4710  -37.1380   24.9870 C   0  0  0  0  0  1  0  0  0  0  0  0
  -26.5010  -37.3230   23.9120 N   0  0  0  0  0  0  0  0  0  0  0  0
  -26.0970  -38.2490   24.0070 H   0  0  0  0  0  0  0  0  0  0  0  0
  -28.8270  -20.1300   16.0070 C   0  0  0  0  0  1  0  0  0  0  0  0
  -29.8630  -20.6930   16.8050 O   0  0  0  0  0  0  0  0  0  0  0  0
  -30.2300  -17.7650   20.9610 C   0  0  0  0  0  2  0  0  0  0  0  0
  -30.6560  -15.0530   20.6070 C   0  0  0  0  0  0  0  0  0  0  0  0
  -30.5930  -12.6990   19.6450 C   0  0  0  0  0  2  0  0  0  0  0  0
  -29.6940  -12.6640   18.3890 C   0  0  0  0  0  2  0  0  0  0  0  0
  -28.2220  -12.4260   18.7810 C   0  0  0  0  0  2  0  0  0  0  0  0
  -27.7680  -13.3290   19.9580 C   0  0  0  0  0  3  0  0  0  0  0  0
  -28.7970  -13.3510   21.1080 C   0  0  0  0  0  2  0  0  0  0  0  0
  -30.0680  -13.7910   20.5180 N   0  0  0  0  0  0  0  0  0  0  0  0
  -31.8840  -15.1050   20.4730 O   0  0  0  0  0  0  0  0  0  0  0  0
  -29.8780  -16.2510   20.6410 N   0  0  0  0  0  0  0  0  0  0  0  0
  -28.8860  -16.0920   20.5560 H   0  0  0  0  0  0  0  0  0  0  0  0
  -25.3640  -13.8740   20.6460 C   0  0  0  0  0  0  0  0  0  0  0  0
  -24.2990  -13.0850   20.9720 C   0  0  0  0  0  0  0  0  0  0  0  0
  -24.7730  -11.7380   20.9390 C   0  0  0  0  0  0  0  0  0  0  0  0
  -26.4220  -13.0070   20.4210 N   0  0  0  0  0  0  0  0  0  0  0  0
  -26.0740  -11.7180   20.6640 N   0  0  0  0  0  0  0  0  0  0  0  0
  -24.0530  -10.4680   21.0980 C   0  0  0  0  0  0  0  0  0  0  0  0
  -24.4350   -9.5190   22.0710 C   0  0  0  0  0  3  0  0  0  0  0  0
  -23.7150   -8.3160   22.2190 C   0  0  0  0  0  3  0  0  0  0  0  0
  -22.5940   -8.0560   21.3950 C   0  0  0  0  0  0  0  0  0  0  0  0
  -22.2330   -8.9890   20.4110 C   0  0  0  0  0  3  0  0  0  0  0  0
  -22.9540  -10.1840   20.2600 C   0  0  0  0  0  3  0  0  0  0  0  0
  -21.8490   -6.9010   21.4510 O   0  0  0  0  0  0  0  0  0  0  0  0
  -21.6940   -6.1970   22.6150 C   0  0  0  0  0  0  0  0  0  0  0  0
  -21.0710   -6.7620   23.7510 C   0  0  0  0  0  3  0  0  0  0  0  0
  -20.8720   -5.9830   24.9060 C   0  0  0  0  0  3  0  0  0  0  0  0
  -21.2770   -4.6340   24.9270 C   0  0  0  0  0  0  0  0  0  0  0  0
  -21.8870   -4.0660   23.7940 C   0  0  0  0  0  3  0  0  0  0  0  0
  -22.0930   -4.8430   22.6400 C   0  0  0  0  0  0  0  0  0  0  0  0
  -22.6610   -4.2850   21.5460 F   0  0  0  0  0  0  0  0  0  0  0  0
  -21.0740   -3.8820   26.0300 F   0  0  0  0  0  0  0  0  0  0  0  0
  -22.8900  -13.5490   21.1960 C   0  0  0  0  0  0  0  0  0  0  0  0
  -22.1330  -12.8460   22.0310 N   0  0  0  0  0  0  0  0  0  0  0  0
  -22.4630  -14.5720   20.6640 O   0  0  0  0  0  0  0  0  0  0  0  0
  -22.4810  -12.0120   22.4750 H   0  0  0  0  0  0  0  0  0  0  0  0
  -21.1870  -13.1490   22.2180 H   0  0  0  0  0  0  0  0  0  0  0  0
  -25.5120  -15.2520   20.4910 N   0  0  0  0  0  0  0  0  0  0  0  0
  -24.7390  -15.8890   20.6540 H   0  0  0  0  0  0  0  0  0  0  0  0
  -26.3290  -15.7130   20.1150 H   0  0  0  0  0  0  0  0  0  0  0  0
  2  1  1  0
  2 55  1  0
  3  2  2  0
  4 10  1  0
  4  1  2  0
  5  7  2  0
  5  3  1  0
  6  3  1  0
  7  4  1  0
 10  8  1  1
 10  9  1  0
 11 12  1  0
 11 10  1  0
 13 24  2  0
 14 12  1  0
 14 19  1  0
 15 23  1  0
 15 25  1  0
 16 22  1  0
 16 18  1  0
 17 23  1  0
 18 19  2  0
 18 17  1  0
 20 14  2  0
 21 20  1  0
 21 16  2  0
 22 15  1  0
 23 13  1  0
 25 27  2  0
 26 25  1  0
 28 26  1  0
 29 38  2  0
 29 34  1  0
 30 26  1  0
 30 34  1  0
 31 30  1  0
 32 33  1  0
 32 31  1  0
 33 29  1  0
 34 35  2  0
 35 36  1  0
 37 36  2  0
 38 37  1  0
 39 13  1  0
 39 44  1  0
 39 40  1  0
 40 43  1  1
 40 41  1  0
 42 40  1  0
 44 47  1  0
 45 49  1  0
 45 44  1  0
 46 45  2  0
 49 48  1  0
 49 51  1  0
 51 52  1  0
 51 50  1  0
 53 54  1  0
 54  5  1  0
 56 64  1  0
 57 62  1  0
 58 59  1  0
 58 57  1  0
 60 59  1  0
 60 69  1  0
 60 61  1  0
 62 56  1  0
 62 61  1  0
 63 56  2  0
 64 55  1  0
 65 64  1  0
 66 67  2  0
 67 86  1  0
 68 67  1  0
 68 71  1  0
 69 66  1  0
 69 70  1  0
 70 68  2  0
 71 72  1  0
 72 73  2  0
 74 77  1  0
 74 73  1  0
 75 74  2  0
 76 75  1  0
 76 71  2  0
 77 78  1  0
 78 83  2  0
 78 79  1  0
 79 80  2  0
 80 81  1  0
 81 85  1  0
 82 81  2  0
 83 82  1  0
 84 83  1  0
 86 87  1  0
 87 90  1  0
 87 89  1  0
 88 86  2  0
 91 66  1  0
 91 92  1  0
 93 91  1  0
M  ISO  4  11 101  12 101  56 100  64 100
M  END
>  <TORSDO>  (75) 
F 20

>  <SCORE>  (75) 
-14.268

>  <name>  (75) 
74

>  <ligand_id>  (75) 
74

>  <original_smiles>  (75) 
[H]c1c([H])c([H])c2c(c1[H])C([H])([H])C([H])([H])C([H])([H])C2([H])N([H])C(=O)C1([H])N(C(=O)C([H])(N([H])C(=O)C([H])(N([H])C([H])([H])[H])C([H])([H])[H])C(C([H])([H])[H])(C([H])([H])[H])C([H])([H])[H])C([H])([H])c2c([H])c(OC([H])([H])C(c3nc(OC([H])([H])[H])c(C([H])([H])[H])c(C([H])([H])N([H])C(=O)N4C([H])([H])C([H])([H])C([H])([H])C([H])(n5nc(-c6c([H])c([H])c(Oc7c([H])c([H])c(F)c([H])c7F)c([H])c6[H])c(C(=O)N([H])[H])c5N([H])[H])C4([H])[H])c3[H])(C([H])([H])[H])C([H])([H])[H])c([H])c([H])c2C1([H])[H]

>  <smiles>  (75) 
[H]c1c([H])c([H])c2c(c1[H])C([H])([H])C([H])([H])C([H])([H])C2([H])N([H])C(=O)C1([H])N(C(=O)C([H])(N([H])C(=O)C([H])(N([H])C([H])([H])[H])C([H])([H])[H])C(C([H])([H])[H])(C([H])([H])[H])C([H])([H])[H])C([H])([H])c2c([H])c(OC([H])([H])C(c3nc(OC([H])([H])[H])c(C([H])([H])[H])c(C([H])([H])N([H])C(=O)N4C([H])([H])C([H])([H])C([H])([H])C([H])(n5nc(-c6c([H])c([H])c(Oc7c([H])c([H])c(F)c([H])c7F)c([H])c6[H])c(C(=O)N([H])[H])c5N([H])[H])C4([H])[H])c3[H])(C([H])([H])[H])C([H])([H])[H])c([H])c([H])c2C1([H])[H]

$$$$
75:0:0
     RDKit          3D

 97105  0  0  1  0  0  0  0  0999 V2000
  -26.4670  -22.0410   21.3230 N   0  0  0  0  0  4  0  0  0  0  0  0
  -26.9200  -21.5120   22.0490 H   0  0  0  0  0  0  0  0  0  0  0  0
  -25.4770  -21.9260   21.4680 H   0  0  0  0  0  0  0  0  0  0  0  0
  -26.7500  -21.4600   19.9900 C   0  0  0  0  0  2  0  0  0  0  0  0
  -29.8920  -19.2110   20.7080 C   0  0  0  0  0  2  0  0  0  0  0  0
  -29.9390  -20.0010   18.2890 C   0  0  0  0  0  2  0  0  0  0  0  0
  -28.4370  -19.6980   20.8220 C   0  0  0  0  0  2  0  0  0  0  0  0
  -28.4780  -20.4490   18.4260 C   0  0  0  0  0  2  0  0  0  0  0  0
  -30.2890  -18.8570   19.2580 C   0  0  0  0  0  3  0  0  0  0  0  0
  -28.1780  -20.8840   19.8700 C   0  0  0  0  0  3  0  0  0  0  0  0
  -31.7910  -18.5250   19.1440 C   0  0  0  0  0  2  0  0  0  0  0  0
  -32.3310  -17.5690   20.2260 C   0  0  0  0  0  2  0  0  0  0  0  0
  -32.1140  -15.2000   19.4710 C   0  0  0  0  0  0  0  0  0  0  0  0
  -31.8590  -12.7740   19.1280 C   0  0  0  0  0  2  0  0  0  0  0  0
  -30.9450  -12.4310   17.9380 C   0  0  0  0  0  2  0  0  0  0  0  0
  -29.4690  -12.4040   18.3720 C   0  0  0  0  0  2  0  0  0  0  0  0
  -29.0610  -13.6710   19.1660 C   0  0  0  0  0  3  0  0  0  0  0  0
  -30.0760  -13.9640   20.2910 C   0  0  0  0  0  2  0  0  0  0  0  0
  -31.4240  -14.0550   19.6980 N   0  0  0  0  0  0  0  0  0  0  0  0
  -33.1100  -15.2620   18.7420 O   0  0  0  0  0  0  0  0  0  0  0  0
  -31.6950  -16.2540   20.1790 N   0  0  0  0  0  0  0  0  0  0  0  0
  -30.8890  -16.1090   20.7700 H   0  0  0  0  0  0  0  0  0  0  0  0
  -26.7540  -14.5410   19.9160 C   0  0  0  0  0  0  0  0  0  0  0  0
  -25.6260  -13.8920   20.3400 C   0  0  0  0  0  0  0  0  0  0  0  0
  -25.9480  -12.5000   20.3410 C   0  0  0  0  0  0  0  0  0  0  0  0
  -27.7000  -13.5530   19.6880 N   0  0  0  0  0  0  0  0  0  0  0  0
  -27.2180  -12.3220   19.9980 N   0  0  0  0  0  0  0  0  0  0  0  0
  -25.1070  -11.3240   20.5940 C   0  0  0  0  0  0  0  0  0  0  0  0
  -25.3750  -10.4390   21.6620 C   0  0  0  0  0  3  0  0  0  0  0  0
  -24.5420   -9.3240   21.8960 C   0  0  0  0  0  3  0  0  0  0  0  0
  -23.4240   -9.0870   21.0600 C   0  0  0  0  0  0  0  0  0  0  0  0
  -23.1750   -9.9580   19.9850 C   0  0  0  0  0  3  0  0  0  0  0  0
  -24.0090  -11.0640   19.7510 C   0  0  0  0  0  3  0  0  0  0  0  0
  -22.5740   -8.0150   21.1950 O   0  0  0  0  0  0  0  0  0  0  0  0
  -22.2410   -7.5120   22.4270 C   0  0  0  0  0  0  0  0  0  0  0  0
  -21.6300   -8.3100   23.4180 C   0  0  0  0  0  3  0  0  0  0  0  0
  -21.2410   -7.7340   24.6440 C   0  0  0  0  0  3  0  0  0  0  0  0
  -21.4530   -6.3630   24.8790 C   0  0  0  0  0  0  0  0  0  0  0  0
  -22.0570   -5.5650   23.8910 C   0  0  0  0  0  3  0  0  0  0  0  0
  -22.4470   -6.1380   22.6670 C   0  0  0  0  0  0  0  0  0  0  0  0
  -23.0090   -5.3600   21.7110 F   0  0  0  0  0  0  0  0  0  0  0  0
  -21.0740   -5.8080   26.0530 F   0  0  0  0  0  0  0  0  0  0  0  0
  -24.2920  -14.5140   20.6370 C   0  0  0  0  0  0  0  0  0  0  0  0
  -23.5380  -13.9350   21.5640 N   0  0  0  0  0  0  0  0  0  0  0  0
  -23.9310  -15.5500   20.0780 O   0  0  0  0  0  0  0  0  0  0  0  0
  -23.8420  -13.0970   22.0350 H   0  0  0  0  0  0  0  0  0  0  0  0
  -22.6430  -14.3360   21.8060 H   0  0  0  0  0  0  0  0  0  0  0  0
  -27.0510  -15.8820   19.6890 N   0  0  0  0  0  0  0  0  0  0  0  0
  -26.3640  -16.6180   19.8090 H   0  0  0  0  0  0  0  0  0  0  0  0
  -27.9370  -16.2200   19.3360 H   0  0  0  0  0  0  0  0  0  0  0  0
  -26.7340  -23.4910   21.4820 C   0  0  0  0  0  2  0  0  0  0  0  0
  -28.2310  -23.8420   21.7090 C   0  0  0  0  0  2  0  0  0  0  0  0
  -29.9740  -25.5490   22.3360 C   0  0  0  0  0  1  0  0  0  0  0  0
  -27.5670  -26.1400   22.5500 C   0  0  0  0  0  1  0  0  0  0  0  0
  -28.5880  -25.3550   21.6910 C   0  0  2  0  0  0  0  0  0  0  0  0
  -28.6820  -25.8300   20.2070 C   0  0  0  0  0  2  0  0  0  0  0  0
  -28.7460  -27.2490   20.0350 O   0  0  0  0  0  0  0  0  0  0  0  0
  -24.7260  -31.9710   23.4340 C   0  0  0  0  0  0  0  0  0  0  0  0
  -27.5470  -27.9240   20.0210 C   0  0  0  0  0  0  0  0  0  0  0  0
  -23.5790  -30.6650   21.6760 C   0  0  0  0  0  3  0  0  0  0  0  0
  -25.0930  -29.3100   20.1420 C   0  0  0  0  0  0  0  0  0  0  0  0
  -26.0860  -31.1480   21.5150 C   0  0  0  0  0  2  0  0  0  0  0  0
  -26.2280  -29.8400   20.7660 C   0  0  0  0  0  0  0  0  0  0  0  0
  -27.4600  -29.1570   20.6970 C   0  0  0  0  0  3  0  0  0  0  0  0
  -26.3960  -27.4090   19.3790 C   0  0  0  0  0  3  0  0  0  0  0  0
  -25.1700  -28.0940   19.4440 C   0  0  0  0  0  3  0  0  0  0  0  0
  -23.8160  -30.1070   20.2490 C   0  0  0  0  0  2  0  0  0  0  0  0
  -24.8160  -31.2670   22.2710 N   0  0  0  0  0  0  0  0  0  0  0  0
  -23.6330  -32.1590   23.9860 O   0  0  0  0  0  0  0  0  0  0  0  0
  -22.9640  -29.5430   22.5420 C   0  0  0  0  0  0  0  0  0  0  0  0
  -21.6620  -29.2860   22.3450 N   0  0  0  0  0  0  0  0  0  0  0  0
  -23.6560  -28.9090   23.3430 O   0  0  0  0  0  0  0  0  0  0  0  0
  -21.1650  -29.8530   21.6740 H   0  0  0  0  0  0  0  0  0  0  0  0
  -18.3680  -27.8240   22.5650 C   0  0  0  0  0  0  0  0  0  0  0  0
  -20.8750  -28.2540   23.0180 C   0  0  0  0  0  3  0  0  0  0  0  0
  -21.1220  -26.8640   22.3890 C   0  0  0  0  0  2  0  0  0  0  0  0
  -20.1160  -26.5080   21.2910 C   0  0  0  0  0  2  0  0  0  0  0  0
  -18.6880  -26.5250   21.8460 C   0  0  0  0  0  2  0  0  0  0  0  0
  -19.3950  -28.6450   23.1010 C   0  0  0  0  0  0  0  0  0  0  0  0
  -19.0430  -29.8600   23.7260 C   0  0  0  0  0  3  0  0  0  0  0  0
  -17.6950  -30.2540   23.8270 C   0  0  0  0  0  3  0  0  0  0  0  0
  -16.6810  -29.4260   23.3130 C   0  0  0  0  0  3  0  0  0  0  0  0
  -17.0180  -28.2150   22.6850 C   0  0  0  0  0  3  0  0  0  0  0  0
  -25.9860  -32.5930   24.1140 C   0  0  0  0  0  3  0  0  0  0  0  0
  -25.6560  -33.9780   24.4770 N   0  0  0  0  0  0  0  0  0  0  0  0
  -26.0070  -35.0540   23.7600 C   0  0  0  0  0  0  0  0  0  0  0  0
  -26.7150  -34.9850   22.7510 O   0  0  0  0  0  0  0  0  0  0  0  0
  -25.0400  -34.1060   25.2670 H   0  0  0  0  0  0  0  0  0  0  0  0
  -24.2730  -36.8370   23.3950 C   0  0  0  0  0  1  0  0  0  0  0  0
  -25.4900  -36.4240   24.2380 C   0  0  0  0  0  3  0  0  0  0  0  0
  -27.5870  -37.3030   25.1630 C   0  0  0  0  0  1  0  0  0  0  0  0
  -26.5150  -37.4890   24.1890 N   0  0  0  0  0  0  0  0  0  0  0  0
  -26.0960  -38.4010   24.3530 H   0  0  0  0  0  0  0  0  0  0  0  0
  -26.4760  -31.7850   25.3770 C   0  0  1  0  0  0  0  0  0  0  0  0
  -25.3570  -31.4890   26.4020 C   0  0  0  0  0  1  0  0  0  0  0  0
  -27.0930  -30.4340   24.9480 C   0  0  0  0  0  1  0  0  0  0  0  0
  -27.5940  -32.5710   26.1030 C   0  0  0  0  0  1  0  0  0  0  0  0
  1  3  1  0
  1 51  1  0
  1  2  1  0
  4  1  1  0
  5  7  1  0
  6  8  1  0
  6  9  1  0
  8 10  1  0
  9 11  1  0
  9  5  1  0
 10  4  1  0
 10  7  1  0
 11 12  1  0
 13 19  1  0
 13 21  1  0
 14 19  1  0
 15 16  1  0
 15 14  1  0
 17 16  1  0
 17 26  1  0
 17 18  1  0
 19 18  1  0
 20 13  2  0
 21 12  1  0
 21 22  1  0
 23 24  2  0
 24 25  1  0
 24 43  1  0
 25 28  1  0
 26 23  1  0
 26 27  1  0
 27 25  2  0
 28 29  1  0
 29 30  2  0
 31 34  1  0
 31 30  1  0
 32 31  2  0
 33 32  1  0
 33 28  2  0
 34 35  1  0
 35 40  2  0
 35 36  1  0
 36 37  2  0
 37 38  1  0
 38 42  1  0
 39 38  2  0
 40 39  1  0
 41 40  1  0
 43 44  1  0
 44 47  1  0
 44 46  1  0
 45 43  2  0
 48 49  1  0
 48 23  1  0
 50 48  1  0
 51 52  1  0
 55 52  1  0
 55 53  1  1
 55 54  1  0
 56 55  1  0
 57 56  1  0
 58 69  2  0
 59 57  1  0
 59 64  1  0
 60 68  1  0
 60 70  1  0
 61 67  1  0
 61 63  1  0
 62 68  1  0
 63 62  1  0
 64 63  2  0
 65 66  1  0
 65 59  2  0
 66 61  2  0
 67 60  1  0
 68 58  1  0
 70 72  2  0
 71 70  1  0
 73 71  1  0
 74 83  2  0
 74 79  1  0
 75 71  1  0
 75 79  1  0
 76 75  1  0
 77 78  1  0
 77 76  1  0
 78 74  1  0
 79 80  2  0
 80 81  1  0
 82 81  2  0
 83 82  1  0
 84 58  1  0
 84 85  1  0
 84 94  1  0
 85 88  1  0
 86 90  1  0
 86 85  1  0
 87 86  2  0
 90 89  1  0
 92 90  1  0
 92 93  1  0
 92 91  1  0
 94 97  1  1
 94 95  1  0
 96 94  1  0
M  ISO  4  13 100  21 100  56 101  57 101
M  END
>  <TORSDO>  (76) 
F 24

>  <SCORE>  (76) 
-8.907

>  <name>  (76) 
75

>  <ligand_id>  (76) 
75

>  <original_smiles>  (76) 
[H]c1c([H])c([H])c2c(c1[H])C([H])([H])C([H])([H])C([H])([H])C2([H])N([H])C(=O)C1([H])N(C(=O)C([H])(N([H])C(=O)C([H])(N([H])C([H])([H])[H])C([H])([H])[H])C(C([H])([H])[H])(C([H])([H])[H])C([H])([H])[H])C([H])([H])c2c([H])c(OC([H])([H])C(C([H])([H])[H])(C([H])([H])[H])C([H])([H])C([H])([H])[N+]([H])([H])C([H])([H])C3([H])C([H])([H])C([H])([H])C([H])(C([H])([H])C([H])([H])N([H])C(=O)N4C([H])([H])C([H])([H])C([H])([H])C([H])(n5nc(-c6c([H])c([H])c(Oc7c([H])c([H])c(F)c([H])c7F)c([H])c6[H])c(C(=O)N([H])[H])c5N([H])[H])C4([H])[H])C([H])([H])C3([H])[H])c([H])c([H])c2C1([H])[H]

>  <smiles>  (76) 
[H]c1c([H])c([H])c2c(c1[H])C([H])([H])C([H])([H])C([H])([H])C2([H])N([H])C(=O)C1([H])N(C(=O)C([H])(N([H])C(=O)C([H])(N([H])C([H])([H])[H])C([H])([H])[H])C(C([H])([H])[H])(C([H])([H])[H])C([H])([H])[H])C([H])([H])c2c([H])c(OC([H])([H])C(C([H])([H])[H])(C([H])([H])[H])C([H])([H])C([H])([H])[N+]([H])([H])C([H])([H])C3([H])C([H])([H])C([H])([H])C([H])(C([H])([H])C([H])([H])N([H])C(=O)N4C([H])([H])C([H])([H])C([H])([H])C([H])(n5nc(-c6c([H])c([H])c(Oc7c([H])c([H])c(F)c([H])c7F)c([H])c6[H])c(C(=O)N([H])[H])c5N([H])[H])C4([H])[H])C([H])([H])C3([H])[H])c([H])c([H])c2C1([H])[H]

$$$$
76:0:0
     RDKit          3D

 96104  0  0  1  0  0  0  0  0999 V2000
  -29.4990  -20.0170   19.3840 C   0  0  0  0  0  2  0  0  0  0  0  0
  -30.0340  -18.7550   18.6630 C   0  0  0  0  0  2  0  0  0  0  0  0
  -33.3600  -17.1490   19.8480 C   0  0  0  0  0  3  0  0  0  0  0  0
  -32.4660  -19.3810   18.5480 C   0  0  0  0  0  3  0  0  0  0  0  0
  -31.9680  -17.2570   19.6260 C   0  0  0  0  0  0  0  0  0  0  0  0
  -31.5020  -18.4390   18.9690 C   0  0  0  0  0  0  0  0  0  0  0  0
  -34.2280  -18.1440   19.3770 C   0  0  0  0  0  0  0  0  0  0  0  0
  -35.7250  -18.0180   19.5780 C   0  0  0  0  0  1  0  0  0  0  0  0
  -33.7920  -19.2430   18.7370 N   0  0  0  0  0  0  0  0  0  0  0  0
  -31.0670  -16.1220   20.1670 C   0  0  0  0  0  3  0  0  0  0  0  0
  -31.6810  -14.7100   19.8180 C   0  0  0  0  0  0  0  0  0  0  0  0
  -31.3110  -12.4200   18.9670 C   0  0  0  0  0  2  0  0  0  0  0  0
  -30.3400  -12.5010   17.7690 C   0  0  0  0  0  2  0  0  0  0  0  0
  -28.8700  -12.4870   18.2360 C   0  0  0  0  0  2  0  0  0  0  0  0
  -28.6010  -13.4690   19.4060 C   0  0  0  0  0  3  0  0  0  0  0  0
  -29.6750  -13.2790   20.4960 C   0  0  0  0  0  2  0  0  0  0  0  0
  -30.9830  -13.5340   19.8790 N   0  0  0  0  0  0  0  0  0  0  0  0
  -32.7970  -14.7170   19.2850 O   0  0  0  0  0  0  0  0  0  0  0  0
  -26.3020  -14.2870   20.2210 C   0  0  0  0  0  0  0  0  0  0  0  0
  -25.1840  -13.6090   20.6310 C   0  0  0  0  0  0  0  0  0  0  0  0
  -25.5150  -12.2220   20.5580 C   0  0  0  0  0  0  0  0  0  0  0  0
  -27.2490  -13.3150   19.9370 N   0  0  0  0  0  0  0  0  0  0  0  0
  -26.7790  -12.0680   20.1890 N   0  0  0  0  0  0  0  0  0  0  0  0
  -24.6830  -11.0300   20.7620 C   0  0  0  0  0  0  0  0  0  0  0  0
  -25.0340  -10.0400   21.7050 C   0  0  0  0  0  3  0  0  0  0  0  0
  -24.2100   -8.9100   21.8990 C   0  0  0  0  0  3  0  0  0  0  0  0
  -23.0190   -8.7650   21.1480 C   0  0  0  0  0  0  0  0  0  0  0  0
  -22.6880   -9.7410   20.1930 C   0  0  0  0  0  3  0  0  0  0  0  0
  -23.5120  -10.8610   19.9980 C   0  0  0  0  0  3  0  0  0  0  0  0
  -22.1700   -7.6880   21.2500 O   0  0  0  0  0  0  0  0  0  0  0  0
  -21.9890   -7.0250   22.4370 C   0  0  0  0  0  0  0  0  0  0  0  0
  -21.5460   -7.6870   23.6010 C   0  0  0  0  0  3  0  0  0  0  0  0
  -21.3030   -6.9540   24.7800 C   0  0  0  0  0  3  0  0  0  0  0  0
  -21.5000   -5.5600   24.7960 C   0  0  0  0  0  0  0  0  0  0  0  0
  -21.9380   -4.8990   23.6360 C   0  0  0  0  0  3  0  0  0  0  0  0
  -22.1790   -5.6280   22.4590 C   0  0  0  0  0  0  0  0  0  0  0  0
  -22.5810   -4.9830   21.3380 F   0  0  0  0  0  0  0  0  0  0  0  0
  -21.2610   -4.8540   25.9260 F   0  0  0  0  0  0  0  0  0  0  0  0
  -23.8540  -14.2100   20.9830 C   0  0  0  0  0  0  0  0  0  0  0  0
  -23.1180  -13.5750   21.8900 N   0  0  0  0  0  0  0  0  0  0  0  0
  -23.4800  -15.2720   20.4900 O   0  0  0  0  0  0  0  0  0  0  0  0
  -23.4360  -12.7180   22.3160 H   0  0  0  0  0  0  0  0  0  0  0  0
  -22.2250  -13.9570   22.1680 H   0  0  0  0  0  0  0  0  0  0  0  0
  -26.5850  -15.6400   20.0560 N   0  0  0  0  0  0  0  0  0  0  0  0
  -25.8830  -16.3600   20.1930 H   0  0  0  0  0  0  0  0  0  0  0  0
  -27.4670  -16.0100   19.7310 H   0  0  0  0  0  0  0  0  0  0  0  0
  -30.4260  -17.9280   21.9670 C   0  0  0  0  0  1  0  0  0  0  0  0
  -30.6580  -16.4390   21.6340 C   0  0  0  0  0  2  0  0  0  0  0  0
  -29.7210  -21.3250   18.5910 C   0  0  0  0  0  2  0  0  0  0  0  0
  -28.9990  -22.4910   19.1560 N   0  0  0  0  0  4  0  0  0  0  0  0
  -29.2990  -22.6300   20.1080 H   0  0  0  0  0  0  0  0  0  0  0  0
  -28.0140  -22.2840   19.1670 H   0  0  0  0  0  0  0  0  0  0  0  0
  -29.2280  -23.7340   18.3770 C   0  0  0  0  0  2  0  0  0  0  0  0
  -28.2080  -24.8660   18.6350 C   0  0  0  0  0  2  0  0  0  0  0  0
  -28.2770  -25.4890   20.0410 C   0  0  0  0  0  2  0  0  0  0  0  0
  -28.2470  -26.9120   19.9800 O   0  0  0  0  0  0  0  0  0  0  0  0
  -24.5970  -31.9950   23.3000 C   0  0  0  0  0  0  0  0  0  0  0  0
  -27.0430  -27.5770   20.0480 C   0  0  0  0  0  0  0  0  0  0  0  0
  -23.2920  -30.6300   21.6990 C   0  0  0  0  0  3  0  0  0  0  0  0
  -24.6560  -29.0850   20.1940 C   0  0  0  0  0  0  0  0  0  0  0  0
  -25.8040  -30.9690   21.3760 C   0  0  0  0  0  2  0  0  0  0  0  0
  -25.8430  -29.6030   20.7230 C   0  0  0  0  0  0  0  0  0  0  0  0
  -27.0360  -28.8580   20.6420 C   0  0  0  0  0  3  0  0  0  0  0  0
  -25.8370  -27.0590   19.5270 C   0  0  0  0  0  3  0  0  0  0  0  0
  -24.6460  -27.8120   19.5940 C   0  0  0  0  0  3  0  0  0  0  0  0
  -23.4250  -29.9570   20.3050 C   0  0  0  0  0  2  0  0  0  0  0  0
  -24.5860  -31.2120   22.1850 N   0  0  0  0  0  0  0  0  0  0  0  0
  -23.5470  -32.2740   23.8970 O   0  0  0  0  0  0  0  0  0  0  0  0
  -22.6710  -29.6090   22.6780 C   0  0  0  0  0  0  0  0  0  0  0  0
  -21.3660  -29.3440   22.5150 N   0  0  0  0  0  0  0  0  0  0  0  0
  -23.3640  -29.0550   23.5350 O   0  0  0  0  0  0  0  0  0  0  0  0
  -20.8660  -29.8470   21.7960 H   0  0  0  0  0  0  0  0  0  0  0  0
  -18.0880  -27.8620   22.8460 C   0  0  0  0  0  0  0  0  0  0  0  0
  -20.5810  -28.3870   23.2930 C   0  0  0  0  0  3  0  0  0  0  0  0
  -20.8620  -26.9360   22.8380 C   0  0  0  0  0  2  0  0  0  0  0  0
  -19.8820  -26.4370   21.7710 C   0  0  0  0  0  2  0  0  0  0  0  0
  -18.4440  -26.4910   22.2940 C   0  0  0  0  0  2  0  0  0  0  0  0
  -19.0930  -28.7580   23.3010 C   0  0  0  0  0  0  0  0  0  0  0  0
  -18.7110  -30.0330   23.7710 C   0  0  0  0  0  3  0  0  0  0  0  0
  -17.3560  -30.4160   23.7940 C   0  0  0  0  0  3  0  0  0  0  0  0
  -16.3660  -29.5190   23.3590 C   0  0  0  0  0  3  0  0  0  0  0  0
  -16.7320  -28.2450   22.8910 C   0  0  0  0  0  3  0  0  0  0  0  0
  -25.9210  -32.5960   23.8680 C   0  0  0  0  0  3  0  0  0  0  0  0
  -26.4880  -31.7990   25.1070 C   0  0  1  0  0  0  0  0  0  0  0  0
  -25.4400  -31.5430   26.2140 C   0  0  0  0  0  1  0  0  0  0  0  0
  -27.0470  -30.4280   24.6590 C   0  0  0  0  0  1  0  0  0  0  0  0
  -27.6680  -32.5750   25.7360 C   0  0  0  0  0  1  0  0  0  0  0  0
  -25.6540  -33.9950   24.2270 N   0  0  0  0  0  0  0  0  0  0  0  0
  -25.9650  -35.0490   23.4600 C   0  0  0  0  0  0  0  0  0  0  0  0
  -26.5790  -34.9440   22.3940 O   0  0  0  0  0  0  0  0  0  0  0  0
  -25.1040  -34.1510   25.0590 H   0  0  0  0  0  0  0  0  0  0  0  0
  -24.2400  -36.8630   23.2210 C   0  0  0  0  0  1  0  0  0  0  0  0
  -25.5240  -36.4390   23.9530 C   0  0  0  0  0  3  0  0  0  0  0  0
  -27.7180  -37.2920   24.6530 C   0  0  0  0  0  1  0  0  0  0  0  0
  -26.5600  -37.4810   23.7810 N   0  0  0  0  0  0  0  0  0  0  0  0
  -26.1760  -38.4040   23.9610 H   0  0  0  0  0  0  0  0  0  0  0  0
  2  6  1  0
  2  1  1  0
  4  9  2  0
  4  6  1  0
  5  3  1  0
  5 10  1  0
  6  5  2  0
  7  8  1  0
  7  3  2  0
  9  7  1  0
 10 48  1  0
 11 17  1  0
 11 10  1  0
 12 17  1  0
 13 14  1  0
 13 12  1  0
 15 14  1  0
 15 22  1  0
 15 16  1  0
 17 16  1  0
 18 11  2  0
 19 20  2  0
 20 39  1  0
 21 20  1  0
 21 24  1  0
 22 23  1  0
 22 19  1  0
 23 21  2  0
 24 25  1  0
 25 26  2  0
 27 30  1  0
 27 26  1  0
 28 27  2  0
 29 28  1  0
 29 24  2  0
 30 31  1  0
 31 36  2  0
 31 32  1  0
 32 33  2  0
 33 34  1  0
 34 38  1  0
 35 34  2  0
 36 35  1  0
 37 36  1  0
 39 40  1  0
 40 43  1  0
 40 42  1  0
 41 39  2  0
 44 45  1  0
 44 19  1  0
 46 44  1  0
 48 47  1  0
 49 50  1  0
 49  1  1  0
 50 52  1  0
 50 51  1  0
 53 54  1  0
 53 50  1  0
 54 55  1  0
 56 55  1  0
 56 58  1  0
 57 68  2  0
 58 63  1  0
 59 67  1  0
 59 69  1  0
 60 66  1  0
 60 62  1  0
 61 67  1  0
 62 61  1  0
 63 62  2  0
 64 65  1  0
 64 58  2  0
 65 60  2  0
 66 59  1  0
 67 57  1  0
 69 71  2  0
 70 69  1  0
 72 70  1  0
 73 82  2  0
 73 78  1  0
 74 70  1  0
 74 78  1  0
 75 74  1  0
 76 77  1  0
 76 75  1  0
 77 73  1  0
 78 79  2  0
 79 80  1  0
 81 80  2  0
 82 81  1  0
 83 57  1  0
 83 88  1  0
 83 84  1  0
 84 87  1  1
 84 85  1  0
 86 84  1  0
 88 91  1  0
 89 93  1  0
 89 88  1  0
 90 89  2  0
 93 92  1  0
 95 93  1  0
 95 96  1  0
 95 94  1  0
M  ISO  4  10 100  11 100  55 101  56 101
M  END
>  <TORSDO>  (77) 
F 25

>  <SCORE>  (77) 
-10.986

>  <name>  (77) 
76

>  <ligand_id>  (77) 
76

>  <original_smiles>  (77) 
[H]c1nc(C([H])([H])[H])c([H])c(C([H])(C(=O)N2C([H])([H])C([H])([H])C([H])([H])C([H])(n3nc(-c4c([H])c([H])c(Oc5c([H])c([H])c(F)c([H])c5F)c([H])c4[H])c(C(=O)N([H])[H])c3N([H])[H])C2([H])[H])C([H])([H])C([H])([H])[H])c1C([H])([H])C([H])([H])C([H])([H])[N+]([H])([H])C([H])([H])C([H])([H])C([H])([H])Oc1c([H])c([H])c2c(c1[H])C([H])([H])N(C(=O)C([H])(N([H])C(=O)C([H])(N([H])C([H])([H])[H])C([H])([H])[H])C(C([H])([H])[H])(C([H])([H])[H])C([H])([H])[H])C([H])(C(=O)N([H])C1([H])c3c([H])c([H])c([H])c([H])c3C([H])([H])C([H])([H])C1([H])[H])C2([H])[H]

>  <smiles>  (77) 
[H]c1nc(C([H])([H])[H])c([H])c(C([H])(C(=O)N2C([H])([H])C([H])([H])C([H])([H])C([H])(n3nc(-c4c([H])c([H])c(Oc5c([H])c([H])c(F)c([H])c5F)c([H])c4[H])c(C(=O)N([H])[H])c3N([H])[H])C2([H])[H])C([H])([H])C([H])([H])[H])c1C([H])([H])C([H])([H])C([H])([H])[N+]([H])([H])C([H])([H])C([H])([H])C([H])([H])Oc1c([H])c([H])c2c(c1[H])C([H])([H])N(C(=O)C([H])(N([H])C(=O)C([H])(N([H])C([H])([H])[H])C([H])([H])[H])C(C([H])([H])[H])(C([H])([H])[H])C([H])([H])[H])C([H])(C(=O)N([H])C1([H])c3c([H])c([H])c([H])c([H])c3C([H])([H])C([H])([H])C1([H])[H])C2([H])[H]

$$$$
77:0:0
     RDKit          3D

 98106  0  0  1  0  0  0  0  0999 V2000
  -30.6160  -19.6750   17.9300 C   0  0  0  0  0  1  0  0  0  0  0  0
  -29.1690  -19.4800   18.4160 C   0  0  0  0  0  3  0  0  0  0  0  0
  -28.3590  -20.8660   18.4560 N   0  0  0  0  0  4  0  0  0  0  0  0
  -27.9120  -20.8970   17.5540 H   0  0  0  0  0  0  0  0  0  0  0  0
  -27.6010  -20.7250   19.1030 H   0  0  0  0  0  0  0  0  0  0  0  0
  -28.8470  -22.3670   18.6860 C   0  0  0  0  0  2  0  0  0  0  0  0
  -26.4960  -23.3330   18.0590 C   0  0  0  0  0  1  0  0  0  0  0  0
  -28.5160  -24.2380   16.9140 C   0  0  0  0  0  1  0  0  0  0  0  0
  -27.9570  -23.7720   18.2700 C   0  0  2  0  0  0  0  0  0  0  0  0
  -27.8860  -25.1870   19.2150 C   0  0  0  0  0  2  0  0  0  0  0  0
  -27.7850  -26.7010   18.8390 O   0  0  0  0  0  0  0  0  0  0  0  0
  -24.6920  -31.6720   23.3780 C   0  0  0  0  0  0  0  0  0  0  0  0
  -26.7410  -27.6210   19.2030 C   0  0  0  0  0  0  0  0  0  0  0  0
  -23.2720  -30.6810   21.6220 C   0  0  0  0  0  3  0  0  0  0  0  0
  -24.4980  -29.3860   19.7690 C   0  0  0  0  0  0  0  0  0  0  0  0
  -25.8070  -30.9070   21.2460 C   0  0  0  0  0  2  0  0  0  0  0  0
  -25.7520  -29.6750   20.3260 C   0  0  0  0  0  0  0  0  0  0  0  0
  -26.8740  -28.8160   20.0220 C   0  0  0  0  0  3  0  0  0  0  0  0
  -25.4620  -27.4260   18.6470 C   0  0  0  0  0  3  0  0  0  0  0  0
  -24.3650  -28.2760   18.9180 C   0  0  0  0  0  3  0  0  0  0  0  0
  -23.3260  -30.2920   20.1200 C   0  0  0  0  0  2  0  0  0  0  0  0
  -24.6160  -31.0970   22.1380 N   0  0  0  0  0  0  0  0  0  0  0  0
  -23.6770  -31.8680   24.0640 O   0  0  0  0  0  0  0  0  0  0  0  0
  -22.6430  -29.5150   22.4260 C   0  0  0  0  0  0  0  0  0  0  0  0
  -21.3180  -29.3240   22.2940 N   0  0  0  0  0  0  0  0  0  0  0  0
  -23.3490  -28.7890   23.1300 O   0  0  0  0  0  0  0  0  0  0  0  0
  -20.8030  -29.9680   21.7090 H   0  0  0  0  0  0  0  0  0  0  0  0
  -18.0200  -27.8420   22.5040 C   0  0  0  0  0  0  0  0  0  0  0  0
  -20.5390  -28.2520   22.9190 C   0  0  0  0  0  3  0  0  0  0  0  0
  -20.7710  -26.9030   22.1990 C   0  0  0  0  0  2  0  0  0  0  0  0
  -19.7360  -26.6180   21.1050 C   0  0  0  0  0  2  0  0  0  0  0  0
  -18.3230  -26.5930   21.6940 C   0  0  0  0  0  2  0  0  0  0  0  0
  -19.0590  -28.6290   23.0660 C   0  0  0  0  0  0  0  0  0  0  0  0
  -18.7220  -29.7970   23.7830 C   0  0  0  0  0  3  0  0  0  0  0  0
  -17.3780  -30.1810   23.9440 C   0  0  0  0  0  3  0  0  0  0  0  0
  -16.3520  -29.3920   23.3980 C   0  0  0  0  0  3  0  0  0  0  0  0
  -16.6730  -28.2230   22.6840 C   0  0  0  0  0  3  0  0  0  0  0  0
  -26.0530  -32.1270   23.9860 C   0  0  0  0  0  3  0  0  0  0  0  0
  -25.8690  -33.4780   24.5380 N   0  0  0  0  0  0  0  0  0  0  0  0
  -26.2560  -34.6100   23.9360 C   0  0  0  0  0  0  0  0  0  0  0  0
  -26.8740  -34.6200   22.8690 O   0  0  0  0  0  0  0  0  0  0  0  0
  -25.3220  -33.5490   25.3850 H   0  0  0  0  0  0  0  0  0  0  0  0
  -24.6740  -36.5680   23.9540 C   0  0  0  0  0  1  0  0  0  0  0  0
  -25.9050  -35.9430   24.6290 C   0  0  0  0  0  3  0  0  0  0  0  0
  -28.1290  -36.5290   25.4920 C   0  0  0  0  0  1  0  0  0  0  0  0
  -27.0180  -36.9180   24.6280 N   0  0  0  0  0  0  0  0  0  0  0  0
  -26.6910  -37.8340   24.9260 H   0  0  0  0  0  0  0  0  0  0  0  0
  -26.5930  -31.1480   25.1010 C   0  0  1  0  0  0  0  0  0  0  0  0
  -25.5620  -30.8380   26.2120 C   0  0  0  0  0  1  0  0  0  0  0  0
  -27.0360  -29.8030   24.4810 C   0  0  0  0  0  1  0  0  0  0  0  0
  -27.8460  -31.7600   25.7710 C   0  0  0  0  0  1  0  0  0  0  0  0
  -27.6050  -18.4320   20.1280 C   0  0  0  0  0  1  0  0  0  0  0  0
  -29.0720  -18.3120   19.6550 C   0  0  1  0  0  0  0  0  0  0  0  0
  -30.2090  -15.6870   19.4860 C   0  0  0  0  0  0  0  0  0  0  0  0
  -30.3840  -13.2020   18.9720 C   0  0  0  0  0  2  0  0  0  0  0  0
  -29.4320  -12.8070   17.8190 C   0  0  0  0  0  2  0  0  0  0  0  0
  -28.0160  -12.5110   18.3510 C   0  0  0  0  0  2  0  0  0  0  0  0
  -27.5220  -13.5900   19.3500 C   0  0  0  0  0  3  0  0  0  0  0  0
  -28.5930  -13.9300   20.4040 C   0  0  0  0  0  2  0  0  0  0  0  0
  -29.7830  -14.3730   19.6670 N   0  0  0  0  0  0  0  0  0  0  0  0
  -31.4010  -15.8630   19.2140 O   0  0  0  0  0  0  0  0  0  0  0  0
  -29.2410  -16.7360   19.4290 N   0  0  0  0  0  0  0  0  0  0  0  0
  -28.3300  -16.3070   19.4310 H   0  0  0  0  0  0  0  0  0  0  0  0
  -25.2020  -14.0850   20.3110 C   0  0  0  0  0  0  0  0  0  0  0  0
  -24.1910  -13.2710   20.7410 C   0  0  0  0  0  0  0  0  0  0  0  0
  -24.6810  -11.9340   20.6200 C   0  0  0  0  0  0  0  0  0  0  0  0
  -26.2390  -13.2410   19.9500 N   0  0  0  0  0  0  0  0  0  0  0  0
  -25.9420  -11.9410   20.2020 N   0  0  0  0  0  0  0  0  0  0  0  0
  -23.9990  -10.6480   20.8200 C   0  0  0  0  0  0  0  0  0  0  0  0
  -24.3240   -9.8010   21.9010 C   0  0  0  0  0  3  0  0  0  0  0  0
  -23.6410   -8.5790   22.0830 C   0  0  0  0  0  3  0  0  0  0  0  0
  -22.6190   -8.1960   21.1830 C   0  0  0  0  0  0  0  0  0  0  0  0
  -22.3160   -9.0330   20.0940 C   0  0  0  0  0  3  0  0  0  0  0  0
  -22.9990  -10.2460   19.9120 C   0  0  0  0  0  3  0  0  0  0  0  0
  -21.9190   -7.0170   21.2670 O   0  0  0  0  0  0  0  0  0  0  0  0
  -21.4870   -6.5210   22.4710 C   0  0  0  0  0  0  0  0  0  0  0  0
  -20.5970   -7.2400   23.2990 C   0  0  0  0  0  3  0  0  0  0  0  0
  -20.1250   -6.6630   24.4940 C   0  0  0  0  0  3  0  0  0  0  0  0
  -20.5320   -5.3650   24.8600 C   0  0  0  0  0  0  0  0  0  0  0  0
  -21.4150   -4.6460   24.0330 C   0  0  0  0  0  3  0  0  0  0  0  0
  -21.8870   -5.2210   22.8410 C   0  0  0  0  0  0  0  0  0  0  0  0
  -22.7200   -4.5140   22.0390 F   0  0  0  0  0  0  0  0  0  0  0  0
  -20.0730   -4.8080   26.0040 F   0  0  0  0  0  0  0  0  0  0  0  0
  -22.8100  -13.7040   21.1400 C   0  0  0  0  0  0  0  0  0  0  0  0
  -22.1890  -12.9860   22.0690 N   0  0  0  0  0  0  0  0  0  0  0  0
  -22.2950  -14.7130   20.6630 O   0  0  0  0  0  0  0  0  0  0  0  0
  -22.6210  -12.1700   22.4760 H   0  0  0  0  0  0  0  0  0  0  0  0
  -21.2660  -13.2570   22.3800 H   0  0  0  0  0  0  0  0  0  0  0  0
  -25.3180  -15.4650   20.1700 N   0  0  0  0  0  0  0  0  0  0  0  0
  -24.5360  -16.0820   20.3550 H   0  0  0  0  0  0  0  0  0  0  0  0
  -26.0920  -15.9340   19.7210 H   0  0  0  0  0  0  0  0  0  0  0  0
  -30.0420  -18.7740   20.7930 C   0  0  0  0  0  2  0  0  0  0  0  0
  -31.5400  -17.2060   24.6760 C   0  0  0  0  0  2  0  0  0  0  0  0
  -31.6740  -16.3020   23.4440 C   0  0  0  0  0  2  0  0  0  0  0  0
  -30.2260  -17.9950   24.6300 C   0  0  0  0  0  2  0  0  0  0  0  0
  -31.5550  -17.1110   22.1420 C   0  0  0  0  0  2  0  0  0  0  0  0
  -30.1060  -18.7990   23.3260 C   0  0  0  0  0  2  0  0  0  0  0  0
  -30.2310  -17.9060   22.0720 C   0  0  0  0  0  3  0  0  0  0  0  0
  2  1  1  0
  2  3  1  0
  2 53  1  0
  3  6  1  0
  3  5  1  0
  4  3  1  0
  9  7  1  6
  8  9  1  0
  9  6  1  0
  9 10  1  0
 11 13  1  0
 11 10  1  0
 12 23  2  0
 13 18  1  0
 14 22  1  0
 14 24  1  0
 15 21  1  0
 15 17  1  0
 16 22  1  0
 17 16  1  0
 18 17  2  0
 19 20  1  0
 19 13  2  0
 20 15  2  0
 21 14  1  0
 22 12  1  0
 24 26  2  0
 25 24  1  0
 27 25  1  0
 28 37  2  0
 28 33  1  0
 29 25  1  0
 29 33  1  0
 30 29  1  0
 31 32  1  0
 31 30  1  0
 32 28  1  0
 33 34  2  0
 34 35  1  0
 36 35  2  0
 37 36  1  0
 38 12  1  0
 38 39  1  0
 38 48  1  0
 39 42  1  0
 40 39  1  0
 40 44  1  0
 41 40  2  0
 44 43  1  0
 46 44  1  0
 46 47  1  0
 46 45  1  0
 48 51  1  1
 48 49  1  0
 50 48  1  0
 53 52  1  1
 53 92  1  0
 54 60  1  0
 55 60  1  0
 56 57  1  0
 56 55  1  0
 58 57  1  0
 58 67  1  0
 58 59  1  0
 60 59  1  0
 61 54  2  0
 62 63  1  0
 62 54  1  0
 62 53  1  0
 64 65  2  0
 65 84  1  0
 66 65  1  0
 66 69  1  0
 67 68  1  0
 67 64  1  0
 68 66  2  0
 69 70  1  0
 70 71  2  0
 72 75  1  0
 72 71  1  0
 73 72  2  0
 74 73  1  0
 74 69  2  0
 75 76  1  0
 76 81  2  0
 76 77  1  0
 77 78  2  0
 78 79  1  0
 79 83  1  0
 80 79  2  0
 81 80  1  0
 82 81  1  0
 84 85  1  0
 85 88  1  0
 85 87  1  0
 86 84  2  0
 89 64  1  0
 89 90  1  0
 91 89  1  0
 92 98  1  0
 94 93  1  0
 95 93  1  0
 96 94  1  0
 97 95  1  0
 98 96  1  0
 98 97  1  0
M  ISO  4  10 101  11 101  54 100  62 100
M  END
>  <TORSDO>  (78) 
F 23

>  <SCORE>  (78) 
-3.329

>  <name>  (78) 
77

>  <ligand_id>  (78) 
77

>  <original_smiles>  (78) 
[H]c1c([H])c([H])c2c(c1[H])C([H])([H])C([H])([H])C([H])([H])C2([H])N([H])C(=O)C1([H])N(C(=O)C([H])(N([H])C(=O)C([H])(N([H])C([H])([H])[H])C([H])([H])[H])C(C([H])([H])[H])(C([H])([H])[H])C([H])([H])[H])C([H])([H])c2c([H])c(OC([H])([H])C(C([H])([H])[H])(C([H])([H])[H])C([H])([H])[N+]([H])([H])C([H])(C([H])([H])[H])C(N([H])C(=O)N3C([H])([H])C([H])([H])C([H])([H])C([H])(n4nc(-c5c([H])c([H])c(Oc6c([H])c([H])c(F)c([H])c6F)c([H])c5[H])c(C(=O)N([H])[H])c4N([H])[H])C3([H])[H])(C([H])([H])[H])C([H])([H])C3([H])C([H])([H])C([H])([H])C([H])([H])C([H])([H])C3([H])[H])c([H])c([H])c2C1([H])[H]

>  <smiles>  (78) 
[H]c1c([H])c([H])c2c(c1[H])C([H])([H])C([H])([H])C([H])([H])C2([H])N([H])C(=O)C1([H])N(C(=O)C([H])(N([H])C(=O)C([H])(N([H])C([H])([H])[H])C([H])([H])[H])C(C([H])([H])[H])(C([H])([H])[H])C([H])([H])[H])C([H])([H])c2c([H])c(OC([H])([H])C(C([H])([H])[H])(C([H])([H])[H])C([H])([H])[N+]([H])([H])C([H])(C([H])([H])[H])C(N([H])C(=O)N3C([H])([H])C([H])([H])C([H])([H])C([H])(n4nc(-c5c([H])c([H])c(Oc6c([H])c([H])c(F)c([H])c6F)c([H])c5[H])c(C(=O)N([H])[H])c4N([H])[H])C3([H])[H])(C([H])([H])[H])C([H])([H])C3([H])C([H])([H])C([H])([H])C([H])([H])C([H])([H])C3([H])[H])c([H])c([H])c2C1([H])[H]

$$$$
78:0:0
     RDKit          3D

 98106  0  0  1  0  0  0  0  0999 V2000
  -29.4400  -18.5660   18.7330 C   0  0  0  0  0  2  0  0  0  0  0  0
  -29.8870  -19.8870   18.3750 C   0  0  0  0  0  3  0  0  0  0  0  0
  -30.2230  -18.0830   19.7620 C   0  0  0  0  0  3  0  0  0  0  0  0
  -30.6430  -20.2950   19.4660 C   0  0  0  0  0  3  0  0  0  0  0  0
  -31.1910  -19.0850   19.9980 N   0  0  0  0  0  0  0  0  0  0  0  0
  -28.4430  -21.6600   17.2190 C   0  0  0  0  0  1  0  0  0  0  0  0
  -29.2990  -19.5720   15.9740 C   0  0  0  0  0  1  0  0  0  0  0  0
  -30.9080  -21.3460   16.5900 C   0  0  0  0  0  1  0  0  0  0  0  0
  -29.6100  -20.6390   17.0650 C   0  0  2  0  0  0  0  0  0  0  0  0
  -30.0630  -16.9130   20.7560 C   0  0  0  0  0  2  0  0  0  0  0  0
  -30.6570  -14.4960   20.3360 C   0  0  0  0  0  0  0  0  0  0  0  0
  -30.3730  -12.3070   19.2330 C   0  0  0  0  0  2  0  0  0  0  0  0
  -29.4020  -12.5570   18.0560 C   0  0  0  0  0  2  0  0  0  0  0  0
  -27.9430  -12.4010   18.5120 C   0  0  0  0  0  2  0  0  0  0  0  0
  -27.6290  -13.2190   19.7920 C   0  0  0  0  0  3  0  0  0  0  0  0
  -28.7200  -12.9970   20.8770 C   0  0  0  0  0  2  0  0  0  0  0  0
  -30.0180  -13.3040   20.2550 N   0  0  0  0  0  0  0  0  0  0  0  0
  -31.8640  -14.6470   20.1180 O   0  0  0  0  0  0  0  0  0  0  0  0
  -29.7990  -15.5400   20.3420 N   0  0  0  0  0  0  0  0  0  0  0  0
  -28.8250  -15.2750   20.3620 H   0  0  0  0  0  0  0  0  0  0  0  0
  -25.2380  -13.8170   20.5430 C   0  0  0  0  0  0  0  0  0  0  0  0
  -24.1770  -13.0290   20.9110 C   0  0  0  0  0  0  0  0  0  0  0  0
  -24.6510  -11.6830   20.8770 C   0  0  0  0  0  0  0  0  0  0  0  0
  -26.2810  -12.9350   20.2960 N   0  0  0  0  0  0  0  0  0  0  0  0
  -25.9410  -11.6550   20.5610 N   0  0  0  0  0  0  0  0  0  0  0  0
  -23.9270  -10.4120   21.0490 C   0  0  0  0  0  0  0  0  0  0  0  0
  -24.3410   -9.4600   22.0020 C   0  0  0  0  0  3  0  0  0  0  0  0
  -23.6210   -8.2580   22.1730 C   0  0  0  0  0  3  0  0  0  0  0  0
  -22.4740   -8.0010   21.3800 C   0  0  0  0  0  0  0  0  0  0  0  0
  -22.0750   -8.9460   20.4180 C   0  0  0  0  0  3  0  0  0  0  0  0
  -22.7980  -10.1400   20.2500 C   0  0  0  0  0  3  0  0  0  0  0  0
  -21.7340   -6.8470   21.4500 O   0  0  0  0  0  0  0  0  0  0  0  0
  -21.6380   -6.1220   22.6100 C   0  0  0  0  0  0  0  0  0  0  0  0
  -21.0810   -6.6750   23.7840 C   0  0  0  0  0  3  0  0  0  0  0  0
  -20.9370   -5.8780   24.9380 C   0  0  0  0  0  3  0  0  0  0  0  0
  -21.3420   -4.5280   24.9160 C   0  0  0  0  0  0  0  0  0  0  0  0
  -21.8820   -3.9760   23.7430 C   0  0  0  0  0  3  0  0  0  0  0  0
  -22.0240   -4.7670   22.5940 C   0  0  0  0  0  0  0  0  0  0  0  0
  -22.5330   -4.2300   21.4620 F   0  0  0  0  0  0  0  0  0  0  0  0
  -21.1910   -3.7570   26.0190 F   0  0  0  0  0  0  0  0  0  0  0  0
  -22.7750  -13.5070   21.1870 C   0  0  0  0  0  0  0  0  0  0  0  0
  -22.0470  -12.7910   22.0370 N   0  0  0  0  0  0  0  0  0  0  0  0
  -22.3290  -14.5310   20.6830 O   0  0  0  0  0  0  0  0  0  0  0  0
  -22.4270  -11.9550   22.4510 H   0  0  0  0  0  0  0  0  0  0  0  0
  -21.1180  -13.0880   22.2850 H   0  0  0  0  0  0  0  0  0  0  0  0
  -25.3900  -15.1920   20.3880 N   0  0  0  0  0  0  0  0  0  0  0  0
  -24.5860  -15.8110   20.4880 H   0  0  0  0  0  0  0  0  0  0  0  0
  -26.2360  -15.6620   20.1090 H   0  0  0  0  0  0  0  0  0  0  0  0
  -32.4080  -18.9900   20.8720 C   0  0  0  0  0  2  0  0  0  0  0  0
  -33.7620  -19.3610   20.2180 C   0  0  0  0  0  2  0  0  0  0  0  0
  -36.0140  -18.5340   19.3440 C   0  0  0  0  0  1  0  0  0  0  0  0
  -33.9970  -18.6040   17.7720 C   0  0  0  0  0  1  0  0  0  0  0  0
  -34.4630  -18.3890   19.2300 C   0  0  0  0  0  3  0  0  0  0  0  0
  -30.3130  -21.3230   20.3460 O   0  0  0  0  0  0  0  0  0  0  0  0
  -30.6520  -22.7690   20.2090 C   0  0  0  0  0  2  0  0  0  0  0  0
  -29.6190  -23.9840   19.7790 C   0  0  0  0  0  2  0  0  0  0  0  0
  -28.5050  -25.0020   20.4410 C   0  0  0  0  0  2  0  0  0  0  0  0
  -28.5570  -26.5000   20.3820 O   0  0  0  0  0  0  0  0  0  0  0  0
  -24.6660  -31.9430   23.3110 C   0  0  0  0  0  0  0  0  0  0  0  0
  -27.3750  -27.3000   20.3950 C   0  0  0  0  0  0  0  0  0  0  0  0
  -23.4880  -30.4970   21.7010 C   0  0  0  0  0  3  0  0  0  0  0  0
  -24.9840  -28.8970   20.3460 C   0  0  0  0  0  0  0  0  0  0  0  0
  -26.0400  -30.8030   21.5490 C   0  0  0  0  0  2  0  0  0  0  0  0
  -26.1480  -29.4050   20.9400 C   0  0  0  0  0  0  0  0  0  0  0  0
  -27.3350  -28.6180   20.9580 C   0  0  0  0  0  3  0  0  0  0  0  0
  -26.1680  -26.8370   19.8270 C   0  0  0  0  0  3  0  0  0  0  0  0
  -24.9860  -27.6050   19.8150 C   0  0  0  0  0  3  0  0  0  0  0  0
  -23.7330  -29.7530   20.3580 C   0  0  0  0  0  2  0  0  0  0  0  0
  -24.7570  -31.1030   22.2480 N   0  0  0  0  0  0  0  0  0  0  0  0
  -23.5810  -32.2430   23.8210 O   0  0  0  0  0  0  0  0  0  0  0  0
  -22.8120  -29.5090   22.6780 C   0  0  0  0  0  0  0  0  0  0  0  0
  -21.4960  -29.3100   22.5120 N   0  0  0  0  0  0  0  0  0  0  0  0
  -23.4770  -28.9200   23.5350 O   0  0  0  0  0  0  0  0  0  0  0  0
  -21.0210  -29.8240   21.7790 H   0  0  0  0  0  0  0  0  0  0  0  0
  -18.1260  -28.1020   22.9730 C   0  0  0  0  0  0  0  0  0  0  0  0
  -20.6690  -28.3880   23.2900 C   0  0  0  0  0  3  0  0  0  0  0  0
  -20.7950  -26.9440   22.7590 C   0  0  0  0  0  2  0  0  0  0  0  0
  -19.7240  -26.5860   21.7240 C   0  0  0  0  0  2  0  0  0  0  0  0
  -18.3270  -26.7350   22.3340 C   0  0  0  0  0  2  0  0  0  0  0  0
  -19.2300  -28.8830   23.4050 C   0  0  0  0  0  0  0  0  0  0  0  0
  -18.9960  -30.1580   23.9590 C   0  0  0  0  0  3  0  0  0  0  0  0
  -17.6850  -30.6590   24.0830 C   0  0  0  0  0  3  0  0  0  0  0  0
  -16.5920  -29.8790   23.6700 C   0  0  0  0  0  3  0  0  0  0  0  0
  -16.8130  -28.6020   23.1230 C   0  0  0  0  0  3  0  0  0  0  0  0
  -25.9500  -32.5920   23.9440 C   0  0  0  0  0  3  0  0  0  0  0  0
  -26.4620  -31.8330   25.2300 C   0  0  1  0  0  0  0  0  0  0  0  0
  -25.3530  -31.5900   26.2800 C   0  0  0  0  0  1  0  0  0  0  0  0
  -27.0680  -30.4550   24.8620 C   0  0  0  0  0  1  0  0  0  0  0  0
  -27.5940  -32.6450   25.9040 C   0  0  0  0  0  1  0  0  0  0  0  0
  -25.6280  -33.9900   24.2480 N   0  0  0  0  0  0  0  0  0  0  0  0
  -25.9540  -35.0370   23.4790 C   0  0  0  0  0  0  0  0  0  0  0  0
  -26.6330  -34.9280   22.4510 O   0  0  0  0  0  0  0  0  0  0  0  0
  -25.0260  -34.1500   25.0440 H   0  0  0  0  0  0  0  0  0  0  0  0
  -24.2310  -36.8230   23.0850 C   0  0  0  0  0  1  0  0  0  0  0  0
  -25.4550  -36.4240   23.9200 C   0  0  0  0  0  3  0  0  0  0  0  0
  -27.5540  -37.3370   24.8070 C   0  0  0  0  0  1  0  0  0  0  0  0
  -26.4850  -37.4800   23.8230 N   0  0  0  0  0  0  0  0  0  0  0  0
  -26.0700  -38.3980   23.9500 H   0  0  0  0  0  0  0  0  0  0  0  0
  1  3  1  0
  2  9  1  0
  2  1  1  0
  2  4  1  0
  3  5  1  0
  3 10  1  0
  4  5  1  0
  4 54  1  0
  5 49  1  0
  9  7  1  6
  8  9  1  0
  9  6  1  0
 11 19  1  0
 12 17  1  0
 13 14  1  0
 13 12  1  0
 15 14  1  0
 15 24  1  0
 15 16  1  0
 17 11  1  0
 17 16  1  0
 18 11  2  0
 19 20  1  0
 19 10  1  0
 21 22  2  0
 22 41  1  0
 23 22  1  0
 23 26  1  0
 24 21  1  0
 24 25  1  0
 25 23  2  0
 26 27  1  0
 27 28  2  0
 29 32  1  0
 29 28  1  0
 30 29  2  0
 31 30  1  0
 31 26  2  0
 32 33  1  0
 33 34  1  0
 34 35  2  0
 36 35  1  0
 36 40  1  0
 37 36  2  0
 38 33  2  0
 38 37  1  0
 39 38  1  0
 41 42  1  0
 42 45  1  0
 42 44  1  0
 43 41  2  0
 46 47  1  0
 46 21  1  0
 48 46  1  0
 50 49  1  0
 52 53  1  0
 53 51  1  0
 53 50  1  0
 55 54  1  0
 56 55  1  0
 56 57  1  0
 58 60  1  0
 58 57  1  0
 59 70  2  0
 60 65  1  0
 61 69  1  0
 61 71  1  0
 62 68  1  0
 62 64  1  0
 63 69  1  0
 64 65  2  0
 64 63  1  0
 66 60  2  0
 67 66  1  0
 67 62  2  0
 68 61  1  0
 69 59  1  0
 71 73  2  0
 72 71  1  0
 74 72  1  0
 75 84  2  0
 75 80  1  0
 76 72  1  0
 76 80  1  0
 77 76  1  0
 78 79  1  0
 78 77  1  0
 79 75  1  0
 80 81  2  0
 81 82  1  0
 83 82  2  0
 84 83  1  0
 85 59  1  0
 85 90  1  0
 85 86  1  0
 86 89  1  1
 86 87  1  0
 88 86  1  0
 90 93  1  0
 91 95  1  0
 91 90  1  0
 92 91  2  0
 95 94  1  0
 97 95  1  0
 97 98  1  0
 97 96  1  0
M  ISO  4  11 100  19 100  57 101  58 101
M  END
>  <TORSDO>  (79) 
F 25

>  <SCORE>  (79) 
-12.380

>  <name>  (79) 
78

>  <ligand_id>  (79) 
78

>  <original_smiles>  (79) 
[H]c1c([H])c([H])c2c(c1[H])C([H])([H])C([H])([H])C([H])([H])C2([H])N([H])C(=O)C1([H])N(C(=O)C([H])(N([H])C(=O)C([H])(N([H])C([H])([H])[H])C([H])([H])[H])C(C([H])([H])[H])(C([H])([H])[H])C([H])([H])[H])C([H])([H])c2c([H])c(OC([H])([H])C([H])([H])C([H])([H])Oc3c(C(C([H])([H])[H])(C([H])([H])[H])C([H])([H])[H])c([H])c(C([H])([H])N([H])C(=O)N4C([H])([H])C([H])([H])C([H])([H])C([H])(n5nc(-c6c([H])c([H])c(Oc7c([H])c([H])c(F)c([H])c7F)c([H])c6[H])c(C(=O)N([H])[H])c5N([H])[H])C4([H])[H])n3C([H])([H])C([H])([H])C([H])(C([H])([H])[H])C([H])([H])[H])c([H])c([H])c2C1([H])[H]

>  <smiles>  (79) 
[H]c1c([H])c([H])c2c(c1[H])C([H])([H])C([H])([H])C([H])([H])C2([H])N([H])C(=O)C1([H])N(C(=O)C([H])(N([H])C(=O)C([H])(N([H])C([H])([H])[H])C([H])([H])[H])C(C([H])([H])[H])(C([H])([H])[H])C([H])([H])[H])C([H])([H])c2c([H])c(OC([H])([H])C([H])([H])C([H])([H])Oc3c(C(C([H])([H])[H])(C([H])([H])[H])C([H])([H])[H])c([H])c(C([H])([H])N([H])C(=O)N4C([H])([H])C([H])([H])C([H])([H])C([H])(n5nc(-c6c([H])c([H])c(Oc7c([H])c([H])c(F)c([H])c7F)c([H])c6[H])c(C(=O)N([H])[H])c5N([H])[H])C4([H])[H])n3C([H])([H])C([H])([H])C([H])(C([H])([H])[H])C([H])([H])[H])c([H])c([H])c2C1([H])[H]

$$$$
79:0:0
     RDKit          3D

 96104  0  0  1  0  0  0  0  0999 V2000
  -29.1520  -18.6510   20.9850 C   0  0  0  0  0  3  0  0  0  0  0  0
  -29.8050  -19.6960   20.3170 C   0  0  0  0  0  3  0  0  0  0  0  0
  -29.4050  -17.3140   20.6340 C   0  0  0  0  0  0  0  0  0  0  0  0
  -30.6910  -19.4050   19.2760 C   0  0  0  0  0  0  0  0  0  0  0  0
  -30.3280  -17.0420   19.5810 C   0  0  0  0  0  0  0  0  0  0  0  0
  -30.9410  -18.0920   18.9150 N   0  0  0  0  0  0  0  0  0  0  0  0
  -31.4020  -20.5330   18.7510 N   0  0  0  0  0  0  0  0  0  0  0  0
  -31.5350  -21.2360   19.4680 H   0  0  0  0  0  0  0  0  0  0  0  0
  -30.7780  -20.2360   16.3320 C   0  0  0  0  0  1  0  0  0  0  0  0
  -31.2240  -21.2230   17.4360 C   0  0  0  0  0  3  0  0  0  0  0  0
  -30.3340  -22.5740   17.3690 C   0  0  0  0  0  2  0  0  0  0  0  0
  -30.6280  -23.9310   18.1650 C   0  0  0  0  0  2  0  0  0  0  0  0
  -30.2330  -25.2800   17.6760 O   0  0  0  0  0  0  0  0  0  0  0  0
  -25.4760  -28.6700   21.9630 C   0  0  0  0  0  0  0  0  0  0  0  0
  -28.9580  -25.8130   17.8910 C   0  0  0  0  0  0  0  0  0  0  0  0
  -24.5930  -27.6700   19.8870 C   0  0  0  0  0  3  0  0  0  0  0  0
  -26.3350  -26.9190   18.1750 C   0  0  0  0  0  0  0  0  0  0  0  0
  -27.0280  -28.4690   20.0030 C   0  0  0  0  0  2  0  0  0  0  0  0
  -27.3810  -27.3910   18.9830 C   0  0  0  0  0  0  0  0  0  0  0  0
  -28.6980  -26.8630   18.8260 C   0  0  0  0  0  3  0  0  0  0  0  0
  -27.8850  -25.3790   17.0880 C   0  0  0  0  0  3  0  0  0  0  0  0
  -26.5930  -25.9200   17.2200 C   0  0  0  0  0  3  0  0  0  0  0  0
  -24.9590  -27.5150   18.3880 C   0  0  0  0  0  2  0  0  0  0  0  0
  -25.7150  -28.2690   20.6820 N   0  0  0  0  0  0  0  0  0  0  0  0
  -24.3450  -28.5770   22.4680 O   0  0  0  0  0  0  0  0  0  0  0  0
  -24.1170  -26.3060   20.4330 C   0  0  0  0  0  0  0  0  0  0  0  0
  -22.8250  -25.9920   20.2230 N   0  0  0  0  0  0  0  0  0  0  0  0
  -24.9000  -25.5440   21.0030 O   0  0  0  0  0  0  0  0  0  0  0  0
  -22.2430  -26.6670   19.7490 H   0  0  0  0  0  0  0  0  0  0  0  0
  -19.6370  -24.2870   20.3770 C   0  0  0  0  0  0  0  0  0  0  0  0
  -22.1720  -24.7390   20.6140 C   0  0  0  0  0  3  0  0  0  0  0  0
  -22.3640  -23.6510   19.5310 C   0  0  0  0  0  2  0  0  0  0  0  0
  -21.2170  -23.5960   18.5200 C   0  0  0  0  0  2  0  0  0  0  0  0
  -19.8890  -23.3180   19.2320 C   0  0  0  0  0  2  0  0  0  0  0  0
  -20.7110  -24.9630   21.0160 C   0  0  0  0  0  0  0  0  0  0  0  0
  -20.4220  -25.8710   22.0540 C   0  0  0  0  0  3  0  0  0  0  0  0
  -19.0930  -26.1160   22.4520 C   0  0  0  0  0  3  0  0  0  0  0  0
  -18.0380  -25.4280   21.8290 C   0  0  0  0  0  3  0  0  0  0  0  0
  -18.3100  -24.5120   20.7990 C   0  0  0  0  0  3  0  0  0  0  0  0
  -26.6030  -29.2820   22.8470 C   0  0  0  0  0  3  0  0  0  0  0  0
  -26.0140  -30.3840   23.6220 N   0  0  0  0  0  0  0  0  0  0  0  0
  -26.1550  -31.6810   23.3270 C   0  0  0  0  0  0  0  0  0  0  0  0
  -26.8700  -32.0820   22.4040 O   0  0  0  0  0  0  0  0  0  0  0  0
  -25.3780  -30.1310   24.3660 H   0  0  0  0  0  0  0  0  0  0  0  0
  -24.1570  -33.1950   23.4280 C   0  0  0  0  0  1  0  0  0  0  0  0
  -25.3880  -32.6960   24.1950 C   0  0  0  0  0  3  0  0  0  0  0  0
  -27.2700  -33.4820   25.5660 C   0  0  0  0  0  1  0  0  0  0  0  0
  -26.2120  -33.8480   24.6250 N   0  0  0  0  0  0  0  0  0  0  0  0
  -25.6330  -34.5570   25.0630 H   0  0  0  0  0  0  0  0  0  0  0  0
  -27.2850  -28.2310   23.8070 C   0  0  1  0  0  0  0  0  0  0  0  0
  -26.2760  -27.3370   24.5680 C   0  0  0  0  0  1  0  0  0  0  0  0
  -28.2310  -27.3020   23.0090 C   0  0  0  0  0  1  0  0  0  0  0  0
  -28.1630  -28.9610   24.8530 C   0  0  0  0  0  1  0  0  0  0  0  0
  -30.5910  -15.6920   19.1720 N   0  0  0  0  0  0  0  0  0  0  0  0
  -30.0410  -15.3460   18.3740 H   0  0  0  0  0  0  0  0  0  0  0  0
  -31.7170  -13.5110   19.7080 C   0  0  0  0  0  0  0  0  0  0  0  0
  -31.3410  -11.1450   19.0510 C   0  0  0  0  0  2  0  0  0  0  0  0
  -30.5090  -11.0790   17.7540 C   0  0  0  0  0  2  0  0  0  0  0  0
  -29.0060  -11.0770   18.0830 C   0  0  0  0  0  2  0  0  0  0  0  0
  -28.6140  -12.1930   19.0880 C   0  0  0  0  0  3  0  0  0  0  0  0
  -29.5820  -12.2460   20.2870 C   0  0  0  0  0  2  0  0  0  0  0  0
  -30.9440  -12.3780   19.7630 N   0  0  0  0  0  0  0  0  0  0  0  0
  -32.8760  -13.4760   19.3050 O   0  0  0  0  0  0  0  0  0  0  0  0
  -31.1970  -14.7110   20.0780 N   0  0  0  0  0  0  0  0  0  0  0  0
  -31.8730  -15.1940   20.6650 H   0  0  0  0  0  0  0  0  0  0  0  0
  -26.1850  -12.9710   19.3440 C   0  0  0  0  0  0  0  0  0  0  0  0
  -25.0700  -12.3480   19.8350 C   0  0  0  0  0  0  0  0  0  0  0  0
  -25.4900  -11.0500   20.2530 C   0  0  0  0  0  0  0  0  0  0  0  0
  -27.2220  -12.0680   19.5070 N   0  0  0  0  0  0  0  0  0  0  0  0
  -26.8050  -10.9230   20.1040 N   0  0  0  0  0  0  0  0  0  0  0  0
  -24.7080   -9.9030   20.7250 C   0  0  0  0  0  0  0  0  0  0  0  0
  -24.9010   -9.3490   22.0100 C   0  0  0  0  0  3  0  0  0  0  0  0
  -24.1140   -8.2630   22.4490 C   0  0  0  0  0  3  0  0  0  0  0  0
  -23.1260   -7.7120   21.6000 C   0  0  0  0  0  0  0  0  0  0  0  0
  -22.9560   -8.2500   20.3100 C   0  0  0  0  0  3  0  0  0  0  0  0
  -23.7400   -9.3330   19.8750 C   0  0  0  0  0  3  0  0  0  0  0  0
  -22.3390   -6.6370   21.9330 O   0  0  0  0  0  0  0  0  0  0  0  0
  -21.7110   -6.5500   23.1510 C   0  0  0  0  0  0  0  0  0  0  0  0
  -20.8000   -7.5360   23.5860 C   0  0  0  0  0  3  0  0  0  0  0  0
  -20.1260   -7.3780   24.8120 C   0  0  0  0  0  3  0  0  0  0  0  0
  -20.3510   -6.2360   25.6010 C   0  0  0  0  0  0  0  0  0  0  0  0
  -21.2590   -5.2520   25.1670 C   0  0  0  0  0  3  0  0  0  0  0  0
  -21.9360   -5.4050   23.9450 C   0  0  0  0  0  0  0  0  0  0  0  0
  -22.7880   -4.4460   23.5190 F   0  0  0  0  0  0  0  0  0  0  0  0
  -19.6940   -6.0750   26.7720 F   0  0  0  0  0  0  0  0  0  0  0  0
  -23.6680  -12.8830   19.8150 C   0  0  0  0  0  0  0  0  0  0  0  0
  -22.8560  -12.5210   20.7960 N   0  0  0  0  0  0  0  0  0  0  0  0
  -23.3010  -13.6710   18.9420 O   0  0  0  0  0  0  0  0  0  0  0  0
  -23.1590  -11.9020   21.5330 H   0  0  0  0  0  0  0  0  0  0  0  0
  -21.9030  -12.8670   20.8070 H   0  0  0  0  0  0  0  0  0  0  0  0
  -26.3910  -14.2060   18.7420 N   0  0  0  0  0  0  0  0  0  0  0  0
  -25.6030  -14.7850   18.4830 H   0  0  0  0  0  0  0  0  0  0  0  0
  -27.2420  -14.4580   18.2580 H   0  0  0  0  0  0  0  0  0  0  0  0
  -28.6090  -16.2690   21.4230 C   0  0  0  0  0  2  0  0  0  0  0  0
  -26.1050  -16.0010   21.0210 C   0  0  0  0  0  1  0  0  0  0  0  0
  -27.5150  -15.5790   20.5950 C   0  0  0  0  0  2  0  0  0  0  0  0
  2  1  2  0
  3  1  1  0
  3 94  1  0
  4  2  1  0
  5  3  2  0
  6  4  2  0
  6  5  1  0
  7  4  1  0
  7  8  1  0
 10  9  1  0
 10  7  1  0
 11 10  1  0
 11 12  1  0
 13 15  1  0
 13 12  1  0
 14 25  2  0
 15 20  1  0
 16 26  1  0
 16 24  1  0
 17 23  1  0
 17 19  1  0
 18 24  1  0
 19 18  1  0
 20 19  2  0
 21 22  1  0
 21 15  2  0
 22 17  2  0
 23 16  1  0
 24 14  1  0
 26 28  2  0
 27 26  1  0
 29 27  1  0
 30 39  2  0
 30 35  1  0
 31 27  1  0
 31 35  1  0
 32 31  1  0
 33 34  1  0
 33 32  1  0
 34 30  1  0
 35 36  2  0
 36 37  1  0
 38 37  2  0
 39 38  1  0
 40 14  1  0
 40 41  1  0
 40 50  1  0
 41 44  1  0
 42 41  1  0
 42 46  1  0
 43 42  2  0
 46 45  1  0
 46 48  1  0
 48 49  1  0
 48 47  1  0
 50 51  1  1
 50 53  1  0
 52 50  1  0
 54  5  1  0
 54 64  1  0
 55 54  1  0
 56 62  1  0
 56 64  1  0
 57 62  1  0
 58 59  1  0
 58 57  1  0
 60 59  1  0
 60 69  1  0
 60 61  1  0
 62 61  1  0
 63 56  2  0
 64 65  1  0
 66 69  1  0
 66 67  2  0
 67 68  1  0
 68 71  1  0
 69 70  1  0
 70 68  2  0
 71 72  1  0
 72 73  2  0
 74 77  1  0
 74 73  1  0
 75 74  2  0
 76 75  1  0
 76 71  2  0
 77 78  1  0
 78 79  2  0
 78 83  1  0
 79 80  1  0
 80 81  2  0
 81 85  1  0
 82 81  1  0
 83 82  2  0
 84 83  1  0
 86 67  1  0
 86 87  1  0
 87 90  1  0
 87 89  1  0
 88 86  2  0
 91 66  1  0
 92 91  1  0
 93 91  1  0
 96 95  1  0
 96 94  1  0
M  ISO  4  12 101  13 101  56 100  64 100
M  END
>  <TORSDO>  (80) 
F 22

>  <SCORE>  (80) 
-2.406

>  <name>  (80) 
79

>  <ligand_id>  (80) 
79

>  <original_smiles>  (80) 
[H]c1c(N([H])C([H])(C([H])([H])[H])C([H])([H])C([H])([H])Oc2c([H])c([H])c3c(c2[H])C([H])([H])N(C(=O)C([H])(N([H])C(=O)C([H])(N([H])C([H])([H])[H])C([H])([H])[H])C(C([H])([H])[H])(C([H])([H])[H])C([H])([H])[H])C([H])(C(=O)N([H])C2([H])c4c([H])c([H])c([H])c([H])c4C([H])([H])C([H])([H])C2([H])[H])C3([H])[H])nc(N([H])N([H])C(=O)N2C([H])([H])C([H])([H])C([H])([H])C([H])(n3nc(-c4c([H])c([H])c(Oc5c([H])c([H])c(F)c([H])c5F)c([H])c4[H])c(C(=O)N([H])[H])c3N([H])[H])C2([H])[H])c(C([H])([H])C([H])([H])C([H])([H])[H])c1[H]

>  <smiles>  (80) 
[H]c1c(N([H])C([H])(C([H])([H])[H])C([H])([H])C([H])([H])Oc2c([H])c([H])c3c(c2[H])C([H])([H])N(C(=O)C([H])(N([H])C(=O)C([H])(N([H])C([H])([H])[H])C([H])([H])[H])C(C([H])([H])[H])(C([H])([H])[H])C([H])([H])[H])C([H])(C(=O)N([H])C2([H])c4c([H])c([H])c([H])c([H])c4C([H])([H])C([H])([H])C2([H])[H])C3([H])[H])nc(N([H])N([H])C(=O)N2C([H])([H])C([H])([H])C([H])([H])C([H])(n3nc(-c4c([H])c([H])c(Oc5c([H])c([H])c(F)c([H])c5F)c([H])c4[H])c(C(=O)N([H])[H])c3N([H])[H])C2([H])[H])c(C([H])([H])C([H])([H])C([H])([H])[H])c1[H]

$$$$
80:0:0
     RDKit          3D

 92 93  0  0  1  0  0  0  0  0999 V2000
  -25.8490  -13.9630   18.7620 C   0  0  0  0  0 15  0  0  0  0  0  0
  -24.0490  -16.5610   20.6660 C   0  0  0  0  0 15  0  0  0  0  0  0
  -27.1300  -15.4830   19.3590 C   0  0  0  0  0  2  0  0  0  0  0  0
  -25.9970  -17.1460   20.4010 C   0  0  0  0  0  2  0  0  0  0  0  0
  -23.6700  -14.4910   19.5440 N   0  0  0  0  0  1  0  0  0  0  0  0
  -30.2930  -14.9020   18.9150 C   0  0  0  0  0  0  0  0  0  0  0  0
  -31.2650  -12.6840   18.0390 C   0  0  0  0  0  2  0  0  0  0  0  0
  -30.1040  -12.1840   17.1450 C   0  0  0  0  0  2  0  0  0  0  0  0
  -28.9170  -11.6640   18.0080 C   0  0  0  0  0  2  0  0  0  0  0  0
  -28.7280  -12.5730   19.2340 C   0  0  0  0  0  3  0  0  0  0  0  0
  -30.0080  -12.7660   20.0140 C   0  0  0  0  0  2  0  0  0  0  0  0
  -30.6350  -13.5680   19.0640 N   0  0  0  0  0  0  0  0  0  0  0  0
  -31.3730  -15.4360   18.5040 O   0  0  0  0  0  0  0  0  0  0  0  0
  -28.8630  -15.5580   19.0850 N   0  0  0  0  0  0  0  0  0  0  0  0
  -29.0770  -16.5390   18.9910 H   0  0  0  0  0  0  0  0  0  0  0  0
  -27.5120  -13.1280   21.3070 C   0  0  0  0  0  3  0  0  0  0  0  0
  -26.2320  -13.2190   21.4930 C   0  0  0  0  0  3  0  0  0  0  0  0
  -25.7990  -11.9590   20.7560 C   0  0  0  0  0  3  0  0  0  0  0  0
  -27.7090  -12.4080   20.1640 N   0  0  0  0  0  0  0  0  0  0  0  0
  -26.7480  -11.5670   19.9300 N   0  0  0  0  0  2  0  0  0  0  0  0
  -24.9880  -10.6840   20.9830 C   0  0  0  0  0  0  0  0  0  0  0  0
  -25.4600   -9.5450   21.7260 C   0  0  0  0  0  3  0  0  0  0  0  0
  -24.7250   -8.3250   21.8110 C   0  0  0  0  0  3  0  0  0  0  0  0
  -23.4810   -8.2020   21.1480 C   0  0  0  0  0  0  0  0  0  0  0  0
  -23.0580   -9.2750   20.3450 C   0  0  0  0  0  3  0  0  0  0  0  0
  -23.8030  -10.4750   20.2530 C   0  0  0  0  0  3  0  0  0  0  0  0
  -22.6810   -7.0760   21.1500 O   0  0  0  0  0  0  0  0  0  0  0  0
  -22.5560   -6.2380   22.2380 C   0  0  0  0  0  0  0  0  0  0  0  0
  -22.2080   -6.7100   23.5230 C   0  0  0  0  0  3  0  0  0  0  0  0
  -22.0330   -5.8010   24.5850 C   0  0  0  0  0  3  0  0  0  0  0  0
  -22.1860   -4.4180   24.3670 C   0  0  0  0  0  0  0  0  0  0  0  0
  -22.5020   -3.9420   23.0830 C   0  0  0  0  0  3  0  0  0  0  0  0
  -22.6840   -4.8480   22.0230 C   0  0  0  0  0  0  0  0  0  0  0  0
  -22.9690   -4.3720   20.7870 F   0  0  0  0  0  0  0  0  0  0  0  0
  -22.0160   -3.5460   25.3890 F   0  0  0  0  0  0  0  0  0  0  0  0
  -26.0060  -14.8380   21.5810 C   0  0  0  0  0  2  0  0  0  0  0  0
  -25.0780  -14.3870   22.5610 N   0  0  0  0  0  0  0  0  0  0  0  0
  -25.9450  -16.4880   20.0830 O   0  0  0  0  0  0  0  0  0  0  0  0
  -25.1890  -13.4790   22.9820 H   0  0  0  0  0  0  0  0  0  0  0  0
  -24.3620  -15.0140   22.8880 H   0  0  0  0  0  0  0  0  0  0  0  0
  -28.4300  -13.9240   21.9420 N   0  0  0  0  0  0  0  0  0  0  0  0
  -28.2570  -14.3910   22.8230 H   0  0  0  0  0  0  0  0  0  0  0  0
  -29.4110  -13.9080   21.7050 H   0  0  0  0  0  0  0  0  0  0  0  0
  -22.4460  -13.6970   19.4920 C   0  0  0  0  0  2  0  0  0  0  0  0
  -22.2740  -12.9740   20.8390 C   0  0  0  0  0  2  0  0  0  0  0  0
  -19.8810  -12.1850   20.6610 C   0  0  0  0  0  1  0  0  0  0  0  0
  -21.4640  -11.1470   22.3530 C   0  0  0  0  0  1  0  0  0  0  0  0
  -21.3310  -11.7720   20.9470 C   0  0  0  0  0  3  0  0  0  0  0  0
  -26.3520  -18.8480   20.4810 O   0  0  0  0  0  1  0  0  0  0  0  0
  -26.7580  -20.5550   19.6570 C   0  0  0  0  0 15  0  0  0  0  0  0
  -26.7230  -22.7180   19.7220 C   0  0  0  0  0 15  0  0  0  0  0  0
  -27.3280  -24.5020   19.2100 O   0  0  0  0  0  1  0  0  0  0  0  0
  -24.6180  -31.2650   22.3580 C   0  0  0  0  0  0  0  0  0  0  0  0
  -26.7370  -26.0100   19.1770 C   0  0  0  0  0  0  0  0  0  0  0  0
  -23.3870  -29.8570   20.7920 C   0  0  0  0  0  3  0  0  0  0  0  0
  -24.7430  -28.3260   19.1750 C   0  0  0  0  0  0  0  0  0  0  0  0
  -25.9520  -30.0080   20.5090 C   0  0  0  0  0  2  0  0  0  0  0  0
  -25.9580  -28.5690   19.8080 C   0  0  0  0  0  0  0  0  0  0  0  0
  -26.9670  -27.4320   19.7700 C   0  0  0  0  0  3  0  0  0  0  0  0
  -25.6010  -26.1310   18.3660 C   0  0  0  0  0  3  0  0  0  0  0  0
  -24.6370  -27.1710   18.3910 C   0  0  0  0  0  3  0  0  0  0  0  0
  -23.5410  -29.2730   19.3580 C   0  0  0  0  0  2  0  0  0  0  0  0
  -24.6870  -30.4280   21.2640 N   0  0  0  0  0  0  0  0  0  0  0  0
  -23.5490  -31.4780   22.9620 O   0  0  0  0  0  0  0  0  0  0  0  0
  -22.8390  -28.7790   21.7650 C   0  0  0  0  0  0  0  0  0  0  0  0
  -21.5150  -28.5370   21.7710 N   0  0  0  0  0  0  0  0  0  0  0  0
  -23.6150  -28.1700   22.5080 O   0  0  0  0  0  0  0  0  0  0  0  0
  -20.9270  -29.0830   21.1550 H   0  0  0  0  0  0  0  0  0  0  0  0
  -18.2930  -27.0760   22.5840 C   0  0  0  0  0  0  0  0  0  0  0  0
  -20.8410  -27.5130   22.5830 C   0  0  0  0  0  3  0  0  0  0  0  0
  -20.9730  -26.1130   21.9410 C   0  0  0  0  0  2  0  0  0  0  0  0
  -19.7930  -25.7540   21.0330 C   0  0  0  0  0  2  0  0  0  0  0  0
  -18.4830  -25.7720   21.8240 C   0  0  0  0  0  2  0  0  0  0  0  0
  -19.3970  -27.9020   22.9260 C   0  0  0  0  0  0  0  0  0  0  0  0
  -19.1600  -29.1150   23.6080 C   0  0  0  0  0  3  0  0  0  0  0  0
  -17.8520  -29.5090   23.9420 C   0  0  0  0  0  3  0  0  0  0  0  0
  -16.7630  -28.6840   23.6090 C   0  0  0  0  0  3  0  0  0  0  0  0
  -16.9860  -27.4670   22.9390 C   0  0  0  0  0  3  0  0  0  0  0  0
  -25.8680  -32.0100   22.9090 C   0  0  0  0  0  3  0  0  0  0  0  0
  -25.4340  -33.3200   23.4360 N   0  0  0  0  0  0  0  0  0  0  0  0
  -25.5630  -34.5000   22.8090 C   0  0  0  0  0  0  0  0  0  0  0  0
  -26.1220  -34.6060   21.7150 O   0  0  0  0  0  0  0  0  0  0  0  0
  -24.9190  -33.3010   24.3050 H   0  0  0  0  0  0  0  0  0  0  0  0
  -23.6180  -36.1050   22.8910 C   0  0  0  0  0  1  0  0  0  0  0  0
  -24.9860  -35.7580   23.4980 C   0  0  0  0  0  3  0  0  0  0  0  0
  -27.0960  -36.8010   24.2030 C   0  0  0  0  0  1  0  0  0  0  0  0
  -25.8740  -36.9390   23.4170 N   0  0  0  0  0  0  0  0  0  0  0  0
  -25.3880  -37.7730   23.7350 H   0  0  0  0  0  0  0  0  0  0  0  0
  -26.6050  -31.2130   24.0570 C   0  0  1  0  0  0  0  0  0  0  0  0
  -25.6760  -30.7730   25.2150 C   0  0  0  0  0  1  0  0  0  0  0  0
  -27.2940  -29.9480   23.5050 C   0  0  0  0  0  1  0  0  0  0  0  0
  -27.7260  -32.0890   24.6700 C   0  0  0  0  0  1  0  0  0  0  0  0
  3 38  1  0
  4 49  1  0
  6 12  1  0
  6 14  1  0
  7 12  1  0
  8  9  1  0
  8  7  1  0
 10  9  1  0
 10 11  1  0
 10 19  1  0
 12 11  1  0
 13  6  2  0
 14  3  1  0
 15 14  1  0
 16 17  1  0
 16 41  1  0
 17 36  1  0
 18 21  1  0
 18 17  1  0
 19 20  1  0
 19 16  1  0
 20 18  1  0
 21 22  1  0
 22 23  2  0
 24 27  1  0
 24 23  1  0
 25 24  2  0
 26 25  1  0
 26 21  2  0
 27 28  1  0
 28 29  1  0
 29 30  2  0
 31 30  1  0
 31 35  1  0
 32 31  2  0
 33 28  2  0
 33 32  1  0
 34 33  1  0
 36 37  1  0
 37 40  1  0
 37 39  1  0
 38  4  1  0
 41 42  1  0
 43 41  1  0
 44  5  1  0
 44 45  1  0
 45 48  1  0
 46 48  1  0
 48 47  1  0
 53 64  2  0
 54 52  1  0
 54 59  1  0
 55 63  1  0
 55 65  1  0
 56 62  1  0
 56 58  1  0
 57 63  1  0
 58 57  1  0
 59 58  2  0
 60 61  1  0
 60 54  2  0
 61 56  2  0
 62 55  1  0
 63 53  1  0
 65 66  1  0
 65 67  2  0
 68 66  1  0
 69 74  2  0
 69 78  1  0
 70 66  1  0
 70 74  1  0
 71 70  1  0
 72 73  1  0
 72 71  1  0
 73 69  1  0
 74 75  1  0
 75 76  2  0
 77 76  1  0
 78 77  2  0
 79 53  1  0
 79 80  1  0
 79 89  1  0
 80 83  1  0
 81 80  1  0
 81 85  1  0
 82 81  2  0
 85 84  1  0
 87 85  1  0
 87 88  1  0
 87 86  1  0
 89 92  1  1
 89 90  1  0
 91 89  1  0
M  ISO  4   6 100  14 100  51 101  52 101
M  END
>  <TORSDO>  (81) 
F 22

>  <SCORE>  (81) 
0.470

>  <name>  (81) 
80

>  <ligand_id>  (81) 
80

>  <original_smiles>  (81) 
[H]c1c([H])c([H])c2c(c1[H])C([H])([H])C([H])([H])C([H])([H])C2([H])N([H])C(=O)C1([H])N(C(=O)C([H])(N([H])C(=O)C([H])(N([H])C([H])([H])[H])C([H])([H])[H])C(C([H])([H])[H])(C([H])([H])[H])C([H])([H])[H])C([H])([H])c2c([H])c(OC([H])([H])C([H])([H])Oc3c(N([H])C(=O)N4C([H])([H])C([H])([H])C([H])([H])C([H])(n5nc(-c6c([H])c([H])c(Oc7c([H])c([H])c(F)c([H])c7F)c([H])c6[H])c(C(=O)N([H])[H])c5N([H])[H])C4([H])[H])c([H])n(C([H])([H])C([H])([H])C([H])(C([H])([H])[H])C([H])([H])[H])c3[H])c([H])c([H])c2C1([H])[H]

>  <smiles>  (81) 
[H]c1c([H])c([H])c2c(c1[H])C([H])([H])C([H])([H])C([H])([H])C2([H])N([H])C(=O)C1([H])N(C(=O)C([H])(N([H])C(=O)C([H])(N([H])C([H])([H])[H])C([H])([H])[H])C(C([H])([H])[H])(C([H])([H])[H])C([H])([H])[H])C([H])([H])c2c([H])c(OC([H])([H])C([H])([H])Oc3c(N([H])C(=O)N4C([H])([H])C([H])([H])C([H])([H])C([H])(n5nc(-c6c([H])c([H])c(Oc7c([H])c([H])c(F)c([H])c7F)c([H])c6[H])c(C(=O)N([H])[H])c5N([H])[H])C4([H])[H])c([H])n(C([H])([H])C([H])([H])C([H])(C([H])([H])[H])C([H])([H])[H])c3[H])c([H])c([H])c2C1([H])[H]

$$$$
81:0:0
     RDKit          3D

 94 97  0  0  1  0  0  0  0  0999 V2000
  -24.8930  -14.3600   21.5580 N   0  0  0  0  0  0  0  0  0  0  0  0
  -24.0440  -14.6320   21.0660 H   0  0  0  0  0  0  0  0  0  0  0  0
  -25.9770  -12.1370   22.8160 C   0  0  0  0  0  2  0  0  0  0  0  0
  -26.0790   -9.2760   21.5860 C   0  0  0  0  0  2  0  0  0  0  0  0
  -26.8330  -10.6720   22.5790 C   0  0  0  0  0  3  0  0  0  0  0  0
  -24.5520  -12.6550   22.0450 C   0  0  0  0  0  2  0  0  0  0  0  0
  -23.5870  -11.1400   21.0390 C   0  0  0  0  0  2  0  0  0  0  0  0
  -22.1140  -10.9650   20.4950 C   0  0  0  0  0  1  0  0  0  0  0  0
  -24.4680   -9.5290   20.7680 N   0  0  0  0  0  0  0  0  0  0  0  0
  -28.4500  -11.0460   23.0630 C   0  0  0  0  0  2  0  0  0  0  0  0
  -30.7360  -11.8690   21.4370 C   0  0  0  0  0  0  0  0  0  0  0  0
  -31.3840  -10.0140   19.8480 C   0  0  0  0  0  2  0  0  0  0  0  0
  -30.6370   -9.9440   18.4480 C   0  0  0  0  0  2  0  0  0  0  0  0
  -29.0940  -10.2650   18.3800 C   0  0  0  0  0  2  0  0  0  0  0  0
  -28.7580  -11.2580   19.4800 C   0  0  0  0  0  3  0  0  0  0  0  0
  -29.2430  -10.3530   20.5950 C   0  0  0  0  0  2  0  0  0  0  0  0
  -30.5860  -10.6970   20.8550 N   0  0  0  0  0  0  0  0  0  0  0  0
  -31.7250  -12.5660   21.0360 O   0  0  0  0  0  0  0  0  0  0  0  0
  -29.6280  -12.0240   22.3940 N   0  0  0  0  0  0  0  0  0  0  0  0
  -29.6720  -12.9230   22.8520 H   0  0  0  0  0  0  0  0  0  0  0  0
  -26.5960  -12.7400   19.5590 C   0  0  0  0  0  3  0  0  0  0  0  0
  -25.3290  -12.3300   19.5850 C   0  0  0  0  0  3  0  0  0  0  0  0
  -25.7280  -11.1140   20.3510 C   0  0  0  0  0  2  0  0  0  0  0  0
  -27.4010  -11.6240   19.6240 N   0  0  0  0  0  0  0  0  0  0  0  0
  -26.6390  -10.6630   19.5050 N   0  0  0  0  0  2  0  0  0  0  0  0
  -24.2040   -9.6250   22.2850 C   0  0  0  0  0  3  0  0  0  0  0  0
  -24.5470   -8.3450   22.9910 C   0  0  0  0  0  2  0  0  0  0  0  0
  -24.1200   -6.9760   22.6900 C   0  0  0  0  0  3  0  0  0  0  0  0
  -23.0740   -6.6870   21.7710 C   0  0  0  0  0  0  0  0  0  0  0  0
  -22.4940   -7.7970   21.2350 C   0  0  0  0  0  2  0  0  0  0  0  0
  -22.8300   -8.9880   21.9790 C   0  0  0  0  0  2  0  0  0  0  0  0
  -22.3950   -5.4930   21.6490 O   0  0  0  0  0  0  0  0  0  0  0  0
  -21.8080   -4.9880   22.7870 C   0  0  0  0  0  0  0  0  0  0  0  0
  -20.9430   -5.7550   23.6060 C   0  0  0  0  0  3  0  0  0  0  0  0
  -20.4630   -5.2230   24.8200 C   0  0  0  0  0  3  0  0  0  0  0  0
  -20.8340   -3.9240   25.2140 C   0  0  0  0  0  0  0  0  0  0  0  0
  -21.6560   -3.1450   24.3800 C   0  0  0  0  0  3  0  0  0  0  0  0
  -22.1300   -3.6740   23.1670 C   0  0  0  0  0  0  0  0  0  0  0  0
  -22.9200   -2.9210   22.3640 F   0  0  0  0  0  0  0  0  0  0  0  0
  -20.4050   -3.4190   26.3950 F   0  0  0  0  0  0  0  0  0  0  0  0
  -23.9580  -13.2000   19.4060 C   0  0  0  0  0  0  0  0  0  0  0  0
  -23.0350  -13.6170   20.3490 N   0  0  0  0  0  0  0  0  0  0  0  0
  -23.5660  -13.5120   18.3410 O   0  0  0  0  0  0  0  0  0  0  0  0
  -23.2730  -13.5140   21.3310 H   0  0  0  0  0  0  0  0  0  0  0  0
  -22.2260  -14.1530   20.0630 H   0  0  0  0  0  0  0  0  0  0  0  0
  -27.1050  -13.9730   19.4140 N   0  0  0  0  0  0  0  0  0  0  0  0
  -26.5310  -14.8060   19.4580 H   0  0  0  0  0  0  0  0  0  0  0  0
  -28.0980  -14.1690   19.4130 H   0  0  0  0  0  0  0  0  0  0  0  0
  -25.6210  -16.8880   22.1460 C   0  0  0  0  0  1  0  0  0  0  0  0
  -25.9870  -15.8530   21.0730 C   0  0  0  0  0  2  0  0  0  0  0  0
  -26.6020  -17.2250   19.4800 C   0  0  0  0  0 15  0  0  0  0  0  0
  -27.5620  -19.0900   18.8390 C   0  0  0  0  0 15  0  0  0  0  0  0
  -27.5290  -21.0320   17.8180 C   0  0  0  0  0 15  0  0  0  0  0  0
  -28.2410  -22.8340   17.4620 O   0  0  0  0  0  1  0  0  0  0  0  0
  -25.8850  -28.7990   21.8450 C   0  0  0  0  0  0  0  0  0  0  0  0
  -27.7980  -24.3960   17.5990 C   0  0  0  0  0  0  0  0  0  0  0  0
  -24.6430  -27.9440   19.9140 C   0  0  0  0  0  3  0  0  0  0  0  0
  -25.9910  -26.8120   17.9930 C   0  0  0  0  0  0  0  0  0  0  0  0
  -27.2110  -28.0210   19.7640 C   0  0  0  0  0  2  0  0  0  0  0  0
  -27.1710  -26.8020   18.7350 C   0  0  0  0  0  0  0  0  0  0  0  0
  -28.0870  -25.6210   18.5100 C   0  0  0  0  0  3  0  0  0  0  0  0
  -26.7900  -24.8270   16.7160 C   0  0  0  0  0  3  0  0  0  0  0  0
  -25.8870  -25.9030   16.9330 C   0  0  0  0  0  3  0  0  0  0  0  0
  -24.8370  -27.7470   18.3790 C   0  0  0  0  0  2  0  0  0  0  0  0
  -25.9430  -28.2910   20.5650 N   0  0  0  0  0  0  0  0  0  0  0  0
  -24.8080  -28.9120   22.4600 O   0  0  0  0  0  0  0  0  0  0  0  0
  -23.9960  -26.6830   20.5540 C   0  0  0  0  0  0  0  0  0  0  0  0
  -22.6590  -26.5380   20.4640 N   0  0  0  0  0  0  0  0  0  0  0  0
  -24.7060  -25.8480   21.1200 O   0  0  0  0  0  0  0  0  0  0  0  0
  -22.1300  -27.2680   20.0080 H   0  0  0  0  0  0  0  0  0  0  0  0
  -19.3250  -25.1370   20.7860 C   0  0  0  0  0  0  0  0  0  0  0  0
  -21.8960  -25.3840   20.9540 C   0  0  0  0  0  3  0  0  0  0  0  0
  -21.9660  -24.2080   19.9510 C   0  0  0  0  0  2  0  0  0  0  0  0
  -20.8000  -24.1950   18.9580 C   0  0  0  0  0  2  0  0  0  0  0  0
  -19.4650  -24.0850   19.7000 C   0  0  0  0  0  2  0  0  0  0  0  0
  -20.4650  -25.7580   21.3650 C   0  0  0  0  0  0  0  0  0  0  0  0
  -20.2760  -26.7500   22.3510 C   0  0  0  0  0  3  0  0  0  0  0  0
  -18.9810  -27.1250   22.7560 C   0  0  0  0  0  3  0  0  0  0  0  0
  -17.8570  -26.5000   22.1880 C   0  0  0  0  0  3  0  0  0  0  0  0
  -18.0320  -25.5040   21.2100 C   0  0  0  0  0  3  0  0  0  0  0  0
  -27.1580  -29.2770   22.6060 C   0  0  0  0  0  3  0  0  0  0  0  0
  -26.7290  -30.1520   23.7200 N   0  0  0  0  0  0  0  0  0  0  0  0
  -26.8340  -31.4870   23.7490 C   0  0  0  0  0  0  0  0  0  0  0  0
  -27.3550  -32.1290   22.8340 O   0  0  0  0  0  0  0  0  0  0  0  0
  -26.2380  -29.6980   24.4770 H   0  0  0  0  0  0  0  0  0  0  0  0
  -24.8890  -32.8140   24.6600 C   0  0  0  0  0  1  0  0  0  0  0  0
  -26.2750  -32.2310   24.9830 C   0  0  0  0  0  3  0  0  0  0  0  0
  -28.3890  -32.8270   26.0860 C   0  0  0  0  0  1  0  0  0  0  0  0
  -27.1560  -33.3130   25.4740 N   0  0  0  0  0  0  0  0  0  0  0  0
  -26.6720  -33.8920   26.1550 H   0  0  0  0  0  0  0  0  0  0  0  0
  -28.0200  -28.0830   23.1780 C   0  0  1  0  0  0  0  0  0  0  0  0
  -27.2090  -27.0780   24.0310 C   0  0  0  0  0  1  0  0  0  0  0  0
  -28.6940  -27.2770   22.0460 C   0  0  0  0  0  1  0  0  0  0  0  0
  -29.1680  -28.6400   24.0520 C   0  0  0  0  0  1  0  0  0  0  0  0
  1  6  1  0
  2  1  1  0
  5  4  1  0
  5  3  1  0
  5 10  1  0
  6  3  1  0
  8  7  1  0
  9  7  1  0
  9  4  1  0
 11 19  1  0
 12 17  1  0
 13 12  1  0
 14 13  1  0
 15 14  1  0
 15 24  1  0
 15 16  1  0
 16 17  1  0
 17 11  1  0
 18 11  2  0
 19 20  1  0
 19 10  1  0
 21 46  1  0
 21 22  1  0
 21 24  1  0
 22 41  1  0
 22 23  1  0
 24 25  1  0
 25 23  1  0
 26  9  1  0
 26 27  1  0
 28 27  1  0
 29 28  2  0
 30 29  1  0
 30 31  1  0
 31 26  1  0
 32 29  1  0
 32 33  1  0
 33 38  2  0
 33 34  1  0
 34 35  2  0
 35 36  1  0
 36 40  1  0
 37 36  2  0
 38 37  1  0
 39 38  1  0
 41 42  1  0
 42 44  1  0
 43 41  2  0
 45 42  1  0
 46 47  1  0
 48 46  1  0
 50  1  1  0
 50 49  1  0
 54 56  1  0
 55 66  2  0
 56 61  1  0
 57 67  1  0
 57 65  1  0
 58 64  1  0
 58 60  1  0
 59 65  1  0
 60 59  1  0
 61 60  2  0
 62 63  1  0
 62 56  2  0
 63 58  2  0
 64 57  1  0
 65 55  1  0
 67 69  2  0
 68 67  1  0
 70 68  1  0
 71 80  2  0
 71 76  1  0
 72 68  1  0
 72 76  1  0
 73 72  1  0
 74 75  1  0
 74 73  1  0
 75 71  1  0
 76 77  2  0
 77 78  1  0
 79 78  2  0
 80 79  1  0
 81 55  1  0
 81 91  1  0
 81 82  1  0
 82 83  1  0
 82 85  1  0
 83 87  1  0
 84 83  2  0
 87 86  1  0
 87 89  1  0
 89 88  1  0
 89 90  1  0
 91 92  1  1
 91 94  1  0
 93 91  1  0
M  ISO  4  11 100  19 100  53 101  54 101
M  END
>  <TORSDO>  (82) 
F 22

>  <SCORE>  (82) 
8.267

>  <name>  (82) 
81

>  <ligand_id>  (82) 
81

>  <original_smiles>  (82) 
[H]c1nc(C([H])([H])[H])c(N([H])C([H])(C([H])([H])[H])C([H])([H])C([H])([H])C([H])([H])Oc2c([H])c([H])c3c(c2[H])C([H])([H])N(C(=O)C([H])(N([H])C(=O)C([H])(N([H])C([H])([H])[H])C([H])([H])[H])C(C([H])([H])[H])(C([H])([H])[H])C([H])([H])[H])C([H])(C(=O)N([H])C2([H])c4c([H])c([H])c([H])c([H])c4C([H])([H])C([H])([H])C2([H])[H])C3([H])[H])c([H])c1C([H])([H])N([H])C(=O)N1C([H])([H])C([H])([H])C([H])([H])C([H])(n2nc(-c3c([H])c([H])c(Oc4c([H])c([H])c(F)c([H])c4F)c([H])c3[H])c(C(=O)N([H])[H])c2N([H])[H])C1([H])[H]

>  <smiles>  (82) 
[H]c1nc(C([H])([H])[H])c(N([H])C([H])(C([H])([H])[H])C([H])([H])C([H])([H])C([H])([H])Oc2c([H])c([H])c3c(c2[H])C([H])([H])N(C(=O)C([H])(N([H])C(=O)C([H])(N([H])C([H])([H])[H])C([H])([H])[H])C(C([H])([H])[H])(C([H])([H])[H])C([H])([H])[H])C([H])(C(=O)N([H])C2([H])c4c([H])c([H])c([H])c([H])c4C([H])([H])C([H])([H])C2([H])[H])C3([H])[H])c([H])c1C([H])([H])N([H])C(=O)N1C([H])([H])C([H])([H])C([H])([H])C([H])(n2nc(-c3c([H])c([H])c(Oc4c([H])c([H])c(F)c([H])c4F)c([H])c3[H])c(C(=O)N([H])[H])c2N([H])[H])C1([H])[H]

$$$$
82:0:0
     RDKit          3D

 95103  0  0  1  0  0  0  0  0999 V2000
  -27.5600  -19.0560   17.7560 C   0  0  0  0  0  2  0  0  0  0  0  0
  -28.7360  -19.3290   16.8290 C   0  0  0  0  0  2  0  0  0  0  0  0
  -27.8090  -19.9870   18.9450 C   0  0  0  0  0  2  0  0  0  0  0  0
  -29.9190  -19.6000   17.7600 C   0  0  0  0  0  2  0  0  0  0  0  0
  -29.3500  -20.1600   19.1070 C   0  0  2  0  0  0  0  0  0  0  0  0
  -29.8910  -19.3340   20.2500 N   0  0  0  0  0  4  0  0  0  0  0  0
  -29.6640  -19.7840   21.1230 H   0  0  0  0  0  0  0  0  0  0  0  0
  -30.8950  -19.3430   20.1670 H   0  0  0  0  0  0  0  0  0  0  0  0
  -29.4610  -17.8950   20.3470 C   0  0  0  0  0  2  0  0  0  0  0  0
  -30.6250  -17.3930   22.5860 C   0  0  0  0  0  1  0  0  0  0  0  0
  -30.4410  -16.9520   21.1220 C   0  0  0  0  0  3  0  0  0  0  0  0
  -30.6510  -14.4930   20.4940 C   0  0  0  0  0  0  0  0  0  0  0  0
  -30.3230  -12.3320   19.3340 C   0  0  0  0  0  2  0  0  0  0  0  0
  -29.3820  -12.5340   18.1290 C   0  0  0  0  0  2  0  0  0  0  0  0
  -27.9110  -12.3910   18.5630 C   0  0  0  0  0  2  0  0  0  0  0  0
  -27.5770  -13.2250   19.8290 C   0  0  0  0  0  3  0  0  0  0  0  0
  -28.6370  -13.0240   20.9370 C   0  0  0  0  0  2  0  0  0  0  0  0
  -29.9580  -13.3240   20.3620 N   0  0  0  0  0  0  0  0  0  0  0  0
  -31.7650  -14.6520   19.9940 O   0  0  0  0  0  0  0  0  0  0  0  0
  -29.9980  -15.5290   21.0720 N   0  0  0  0  0  0  0  0  0  0  0  0
  -29.0880  -15.3130   21.4520 H   0  0  0  0  0  0  0  0  0  0  0  0
  -25.1840  -13.8350   20.5440 C   0  0  0  0  0  0  0  0  0  0  0  0
  -24.1140  -13.0640   20.9130 C   0  0  0  0  0  0  0  0  0  0  0  0
  -24.5710  -11.7120   20.8800 C   0  0  0  0  0  0  0  0  0  0  0  0
  -26.2250  -12.9510   20.3100 N   0  0  0  0  0  0  0  0  0  0  0  0
  -25.8610  -11.6690   20.5690 N   0  0  0  0  0  0  0  0  0  0  0  0
  -23.8390  -10.4520   21.0700 C   0  0  0  0  0  0  0  0  0  0  0  0
  -24.2770   -9.4770   21.9930 C   0  0  0  0  0  3  0  0  0  0  0  0
  -23.5470   -8.2820   22.1730 C   0  0  0  0  0  3  0  0  0  0  0  0
  -22.3650   -8.0540   21.4290 C   0  0  0  0  0  0  0  0  0  0  0  0
  -21.9450   -9.0200   20.4960 C   0  0  0  0  0  3  0  0  0  0  0  0
  -22.6760  -10.2050   20.3150 C   0  0  0  0  0  3  0  0  0  0  0  0
  -21.6050   -6.9120   21.5180 O   0  0  0  0  0  0  0  0  0  0  0  0
  -21.5780   -6.1550   22.6610 C   0  0  0  0  0  0  0  0  0  0  0  0
  -21.1890   -6.6960   23.9050 C   0  0  0  0  0  3  0  0  0  0  0  0
  -21.1060   -5.8650   25.0410 C   0  0  0  0  0  3  0  0  0  0  0  0
  -21.4020   -4.4930   24.9320 C   0  0  0  0  0  0  0  0  0  0  0  0
  -21.7840   -3.9510   23.6920 C   0  0  0  0  0  3  0  0  0  0  0  0
  -21.8690   -4.7780   22.5600 C   0  0  0  0  0  0  0  0  0  0  0  0
  -22.2170   -4.2470   21.3640 F   0  0  0  0  0  0  0  0  0  0  0  0
  -21.3160   -3.6930   26.0210 F   0  0  0  0  0  0  0  0  0  0  0  0
  -22.7200  -13.5480   21.1890 C   0  0  0  0  0  0  0  0  0  0  0  0
  -21.9920  -12.8520   22.0560 N   0  0  0  0  0  0  0  0  0  0  0  0
  -22.2850  -14.5750   20.6720 O   0  0  0  0  0  0  0  0  0  0  0  0
  -22.3580  -12.0190   22.4920 H   0  0  0  0  0  0  0  0  0  0  0  0
  -21.0560  -13.1570   22.2850 H   0  0  0  0  0  0  0  0  0  0  0  0
  -25.3520  -15.2040   20.3680 N   0  0  0  0  0  0  0  0  0  0  0  0
  -24.5820  -15.8570   20.4640 H   0  0  0  0  0  0  0  0  0  0  0  0
  -26.1980  -15.6380   20.0230 H   0  0  0  0  0  0  0  0  0  0  0  0
  -31.2640  -21.9000   19.4500 C   0  0  0  0  0  1  0  0  0  0  0  0
  -29.7490  -21.7050   19.1980 C   0  0  0  0  0  3  0  0  0  0  0  0
  -28.9200  -22.6970   20.1000 C   0  0  0  0  0  2  0  0  0  0  0  0
  -28.9400  -24.1980   19.6260 C   0  0  0  0  0  2  0  0  0  0  0  0
  -28.3100  -25.2310   20.6110 C   0  0  0  0  0  2  0  0  0  0  0  0
  -28.4080  -26.6170   20.1850 O   0  0  0  0  0  0  0  0  0  0  0  0
  -24.6030  -31.8690   23.2420 C   0  0  0  0  0  0  0  0  0  0  0  0
  -27.2450  -27.3740   20.1940 C   0  0  0  0  0  0  0  0  0  0  0  0
  -23.4010  -30.4600   21.6030 C   0  0  0  0  0  3  0  0  0  0  0  0
  -24.8560  -28.9070   20.1920 C   0  0  0  0  0  0  0  0  0  0  0  0
  -25.9310  -30.8040   21.4140 C   0  0  0  0  0  2  0  0  0  0  0  0
  -26.0170  -29.4280   20.7790 C   0  0  0  0  0  0  0  0  0  0  0  0
  -27.2180  -28.6700   20.7700 C   0  0  0  0  0  3  0  0  0  0  0  0
  -26.0640  -26.8770   19.6000 C   0  0  0  0  0  3  0  0  0  0  0  0
  -24.8750  -27.6320   19.6000 C   0  0  0  0  0  3  0  0  0  0  0  0
  -23.6150  -29.7730   20.2290 C   0  0  0  0  0  2  0  0  0  0  0  0
  -24.6630  -31.0590   22.1450 N   0  0  0  0  0  0  0  0  0  0  0  0
  -23.5190  -32.1470   23.7750 O   0  0  0  0  0  0  0  0  0  0  0  0
  -22.7400  -29.4480   22.5680 C   0  0  0  0  0  0  0  0  0  0  0  0
  -21.4160  -29.2760   22.4400 N   0  0  0  0  0  0  0  0  0  0  0  0
  -23.4190  -28.8170   23.3820 O   0  0  0  0  0  0  0  0  0  0  0  0
  -20.9300  -29.8350   21.7540 H   0  0  0  0  0  0  0  0  0  0  0  0
  -18.0300  -28.1140   22.9460 C   0  0  0  0  0  0  0  0  0  0  0  0
  -20.5910  -28.3450   23.2110 C   0  0  0  0  0  3  0  0  0  0  0  0
  -20.6760  -26.9140   22.6330 C   0  0  0  0  0  2  0  0  0  0  0  0
  -19.5690  -26.6050   21.6200 C   0  0  0  0  0  2  0  0  0  0  0  0
  -18.1900  -26.7640   22.2670 C   0  0  0  0  0  2  0  0  0  0  0  0
  -19.1580  -28.8630   23.3740 C   0  0  0  0  0  0  0  0  0  0  0  0
  -18.9540  -30.1290   23.9670 C   0  0  0  0  0  3  0  0  0  0  0  0
  -17.6560  -30.6450   24.1360 C   0  0  0  0  0  3  0  0  0  0  0  0
  -16.5410  -29.8900   23.7270 C   0  0  0  0  0  3  0  0  0  0  0  0
  -16.7300  -28.6270   23.1380 C   0  0  0  0  0  3  0  0  0  0  0  0
  -25.8860  -32.5000   23.8630 C   0  0  0  0  0  3  0  0  0  0  0  0
  -25.5780  -33.8990   24.1930 N   0  0  0  0  0  0  0  0  0  0  0  0
  -25.9130  -34.9500   23.4320 C   0  0  0  0  0  0  0  0  0  0  0  0
  -26.5850  -34.8460   22.4020 O   0  0  0  0  0  0  0  0  0  0  0  0
  -24.9810  -34.0540   24.9910 H   0  0  0  0  0  0  0  0  0  0  0  0
  -24.1840  -36.7410   23.0750 C   0  0  0  0  0  1  0  0  0  0  0  0
  -25.4260  -36.3380   23.8870 C   0  0  0  0  0  3  0  0  0  0  0  0
  -27.5600  -37.2230   24.7180 C   0  0  0  0  0  1  0  0  0  0  0  0
  -26.4590  -37.3910   23.7730 N   0  0  0  0  0  0  0  0  0  0  0  0
  -26.0550  -38.3120   23.9200 H   0  0  0  0  0  0  0  0  0  0  0  0
  -26.4040  -31.7290   25.1390 C   0  0  1  0  0  0  0  0  0  0  0  0
  -25.3120  -31.4920   26.2090 C   0  0  0  0  0  1  0  0  0  0  0  0
  -26.9860  -30.3520   24.7440 C   0  0  0  0  0  1  0  0  0  0  0  0
  -27.5580  -32.5220   25.7980 C   0  0  0  0  0  1  0  0  0  0  0  0
  1  3  1  0
  2  1  1  0
  2  4  1  0
  3  5  1  0
  4  5  1  0
  5 51  1  1
  5  6  1  0
  6  9  1  0
  6  7  1  0
  8  6  1  0
  9 11  1  0
 11 10  1  0
 12 20  1  0
 13 18  1  0
 14 15  1  0
 14 13  1  0
 16 15  1  0
 16 25  1  0
 16 17  1  0
 18 12  1  0
 18 17  1  0
 19 12  2  0
 20 11  1  0
 20 21  1  0
 22 23  2  0
 23 42  1  0
 24 23  1  0
 24 27  1  0
 25 22  1  0
 25 26  1  0
 26 24  2  0
 27 28  1  0
 28 29  2  0
 30 33  1  0
 30 29  1  0
 31 30  2  0
 32 31  1  0
 32 27  2  0
 33 34  1  0
 34 35  1  0
 35 36  2  0
 37 36  1  0
 37 41  1  0
 38 37  2  0
 39 34  2  0
 39 38  1  0
 40 39  1  0
 42 43  1  0
 43 46  1  0
 43 45  1  0
 44 42  2  0
 47 48  1  0
 47 22  1  0
 49 47  1  0
 51 50  1  0
 51 52  1  0
 53 52  1  0
 53 54  1  0
 55 57  1  0
 55 54  1  0
 56 67  2  0
 57 62  1  0
 58 66  1  0
 58 68  1  0
 59 65  1  0
 59 61  1  0
 60 66  1  0
 61 60  1  0
 62 61  2  0
 63 64  1  0
 63 57  2  0
 64 59  2  0
 65 58  1  0
 66 56  1  0
 68 70  2  0
 69 68  1  0
 71 69  1  0
 72 81  2  0
 72 77  1  0
 73 69  1  0
 73 77  1  0
 74 73  1  0
 75 76  1  0
 75 74  1  0
 76 72  1  0
 77 78  2  0
 78 79  1  0
 80 79  2  0
 81 80  1  0
 82 56  1  0
 82 83  1  0
 82 92  1  0
 83 86  1  0
 84 88  1  0
 84 83  1  0
 85 84  2  0
 88 87  1  0
 90 88  1  0
 90 91  1  0
 90 89  1  0
 92 95  1  1
 92 93  1  0
 94 92  1  0
M  ISO  4  12 100  20 100  54 101  55 101
M  END
>  <TORSDO>  (83) 
F 23

>  <SCORE>  (83) 
-12.942

>  <name>  (83) 
82

>  <ligand_id>  (83) 
82

>  <original_smiles>  (83) 
[H]c1c([H])c([H])c2c(c1[H])C([H])([H])C([H])([H])C([H])([H])C2([H])N([H])C(=O)C1([H])N(C(=O)C([H])(N([H])C(=O)C([H])(N([H])C([H])([H])[H])C([H])([H])[H])C(C([H])([H])[H])(C([H])([H])[H])C([H])([H])[H])C([H])([H])c2c([H])c(OC([H])([H])C([H])([H])C([H])([H])C([H])(C([H])([H])[H])C3([N+]([H])([H])C([H])([H])C([H])(N([H])C(=O)N4C([H])([H])C([H])([H])C([H])([H])C([H])(n5nc(-c6c([H])c([H])c(Oc7c([H])c([H])c(F)c([H])c7F)c([H])c6[H])c(C(=O)N([H])[H])c5N([H])[H])C4([H])[H])C([H])([H])[H])C([H])([H])C([H])([H])C([H])([H])C3([H])[H])c([H])c([H])c2C1([H])[H]

>  <smiles>  (83) 
[H]c1c([H])c([H])c2c(c1[H])C([H])([H])C([H])([H])C([H])([H])C2([H])N([H])C(=O)C1([H])N(C(=O)C([H])(N([H])C(=O)C([H])(N([H])C([H])([H])[H])C([H])([H])[H])C(C([H])([H])[H])(C([H])([H])[H])C([H])([H])[H])C([H])([H])c2c([H])c(OC([H])([H])C([H])([H])C([H])([H])C([H])(C([H])([H])[H])C3([N+]([H])([H])C([H])([H])C([H])(N([H])C(=O)N4C([H])([H])C([H])([H])C([H])([H])C([H])(n5nc(-c6c([H])c([H])c(Oc7c([H])c([H])c(F)c([H])c7F)c([H])c6[H])c(C(=O)N([H])[H])c5N([H])[H])C4([H])[H])C([H])([H])[H])C([H])([H])C([H])([H])C([H])([H])C3([H])[H])c([H])c([H])c2C1([H])[H]

$$$$
83:0:0
     RDKit          3D

 95103  0  0  1  0  0  0  0  0999 V2000
  -30.4700  -20.1530   19.2990 C   0  0  0  0  0  3  0  0  0  0  0  0
  -28.8400  -20.3640   20.7040 C   0  0  0  0  0  3  0  0  0  0  0  0
  -29.7510  -19.3490   20.2430 C   0  0  0  0  0  0  0  0  0  0  0  0
  -30.0600  -21.4820   19.2490 C   0  0  0  0  0  0  0  0  0  0  0  0
  -28.9970  -21.7150   20.1270 N   0  0  0  0  0  0  0  0  0  0  0  0
  -29.9690  -22.4510   16.9420 C   0  0  0  0  0  1  0  0  0  0  0  0
  -32.1130  -22.5780   18.2700 C   0  0  0  0  0  1  0  0  0  0  0  0
  -30.5800  -22.5660   18.3450 C   0  0  0  0  0  3  0  0  0  0  0  0
  -28.1290  -23.0900   20.1860 C   0  0  0  0  0  2  0  0  0  0  0  0
  -28.5030  -24.6440   20.8150 C   0  0  0  0  0  2  0  0  0  0  0  0
  -28.3820  -26.1440   20.3040 O   0  0  0  0  0  0  0  0  0  0  0  0
  -24.5920  -31.8820   23.1840 C   0  0  0  0  0  0  0  0  0  0  0  0
  -27.2720  -27.0790   20.3410 C   0  0  0  0  0  0  0  0  0  0  0  0
  -23.4430  -30.4450   21.5410 C   0  0  0  0  0  3  0  0  0  0  0  0
  -24.9360  -28.8320   20.2010 C   0  0  0  0  0  0  0  0  0  0  0  0
  -26.0010  -30.7120   21.4390 C   0  0  0  0  0  2  0  0  0  0  0  0
  -26.0990  -29.2980   20.8270 C   0  0  0  0  0  0  0  0  0  0  0  0
  -27.2690  -28.4420   20.8640 C   0  0  0  0  0  3  0  0  0  0  0  0
  -26.0770  -26.7130   19.6880 C   0  0  0  0  0  3  0  0  0  0  0  0
  -24.9410  -27.5540   19.6130 C   0  0  0  0  0  3  0  0  0  0  0  0
  -23.7060  -29.7330   20.1870 C   0  0  0  0  0  2  0  0  0  0  0  0
  -24.6980  -31.0390   22.1100 N   0  0  0  0  0  0  0  0  0  0  0  0
  -23.4910  -32.1710   23.6770 O   0  0  0  0  0  0  0  0  0  0  0  0
  -22.7420  -29.4590   22.5090 C   0  0  0  0  0  0  0  0  0  0  0  0
  -21.4130  -29.3010   22.3710 N   0  0  0  0  0  0  0  0  0  0  0  0
  -23.3970  -28.8350   23.3490 O   0  0  0  0  0  0  0  0  0  0  0  0
  -20.9410  -29.8530   21.6690 H   0  0  0  0  0  0  0  0  0  0  0  0
  -18.0050  -28.1890   22.9030 C   0  0  0  0  0  0  0  0  0  0  0  0
  -20.5730  -28.3780   23.1410 C   0  0  0  0  0  3  0  0  0  0  0  0
  -20.6280  -26.9510   22.5490 C   0  0  0  0  0  2  0  0  0  0  0  0
  -19.5050  -26.6710   21.5450 C   0  0  0  0  0  2  0  0  0  0  0  0
  -18.1360  -26.8450   22.2080 C   0  0  0  0  0  2  0  0  0  0  0  0
  -19.1490  -28.9170   23.3270 C   0  0  0  0  0  0  0  0  0  0  0  0
  -18.9700  -30.1750   23.9400 C   0  0  0  0  0  3  0  0  0  0  0  0
  -17.6820  -30.7080   24.1310 C   0  0  0  0  0  3  0  0  0  0  0  0
  -16.5520  -29.9770   23.7230 C   0  0  0  0  0  3  0  0  0  0  0  0
  -16.7140  -28.7200   23.1150 C   0  0  0  0  0  3  0  0  0  0  0  0
  -25.8480  -32.5390   23.8320 C   0  0  0  0  0  3  0  0  0  0  0  0
  -25.5110  -33.9360   24.1500 N   0  0  0  0  0  0  0  0  0  0  0  0
  -25.8420  -34.9940   23.3960 C   0  0  0  0  0  0  0  0  0  0  0  0
  -26.5260  -34.8970   22.3750 O   0  0  0  0  0  0  0  0  0  0  0  0
  -24.9040  -34.0830   24.9410 H   0  0  0  0  0  0  0  0  0  0  0  0
  -24.1070  -36.7770   23.0130 C   0  0  0  0  0  1  0  0  0  0  0  0
  -25.3340  -36.3780   23.8470 C   0  0  0  0  0  3  0  0  0  0  0  0
  -27.4360  -37.2930   24.7320 C   0  0  0  0  0  1  0  0  0  0  0  0
  -26.3590  -37.4420   23.7560 N   0  0  0  0  0  0  0  0  0  0  0  0
  -25.9400  -38.3590   23.8830 H   0  0  0  0  0  0  0  0  0  0  0  0
  -26.3430  -31.7850   25.1280 C   0  0  1  0  0  0  0  0  0  0  0  0
  -25.2250  -31.5380   26.1690 C   0  0  0  0  0  1  0  0  0  0  0  0
  -26.9590  -30.4140   24.7670 C   0  0  0  0  0  1  0  0  0  0  0  0
  -27.4620  -32.6040   25.8150 C   0  0  0  0  0  1  0  0  0  0  0  0
  -30.2590  -17.7800   20.6930 C   0  0  0  0  0  0  0  0  0  0  0  0
  -30.5340  -15.0640   20.1200 C   0  0  0  0  0  0  0  0  0  0  0  0
  -30.3800  -12.7140   19.1310 C   0  0  0  0  0  2  0  0  0  0  0  0
  -29.4000  -12.6360   17.9380 C   0  0  0  0  0  2  0  0  0  0  0  0
  -27.9590  -12.4030   18.4320 C   0  0  0  0  0  2  0  0  0  0  0  0
  -27.5880  -13.3250   19.6210 C   0  0  0  0  0  3  0  0  0  0  0  0
  -28.6870  -13.3610   20.7020 C   0  0  0  0  0  2  0  0  0  0  0  0
  -29.9160  -13.8110   20.0340 N   0  0  0  0  0  0  0  0  0  0  0  0
  -31.7460  -15.0820   19.8770 O   0  0  0  0  0  0  0  0  0  0  0  0
  -29.8020  -16.2980   20.2900 N   0  0  0  0  0  4  0  0  0  0  0  0
  -28.8020  -16.1640   20.3300 H   0  0  0  0  0  0  0  0  0  0  0  0
  -25.2470  -13.8880   20.4760 C   0  0  0  0  0  0  0  0  0  0  0  0
  -24.1970  -13.1090   20.8730 C   0  0  0  0  0  0  0  0  0  0  0  0
  -24.6590  -11.7570   20.8010 C   0  0  0  0  0  0  0  0  0  0  0  0
  -26.2770  -13.0140   20.1750 N   0  0  0  0  0  0  0  0  0  0  0  0
  -25.9370  -11.7260   20.4410 N   0  0  0  0  0  0  0  0  0  0  0  0
  -23.9360  -10.4930   20.9970 C   0  0  0  0  0  0  0  0  0  0  0  0
  -24.3790   -9.5240   21.9250 C   0  0  0  0  0  3  0  0  0  0  0  0
  -23.6550   -8.3270   22.1090 C   0  0  0  0  0  3  0  0  0  0  0  0
  -22.4750   -8.0900   21.3650 C   0  0  0  0  0  0  0  0  0  0  0  0
  -22.0500   -9.0460   20.4270 C   0  0  0  0  0  3  0  0  0  0  0  0
  -22.7750  -10.2360   20.2400 C   0  0  0  0  0  3  0  0  0  0  0  0
  -21.7200   -6.9450   21.4600 O   0  0  0  0  0  0  0  0  0  0  0  0
  -21.6630   -6.2140   22.6190 C   0  0  0  0  0  0  0  0  0  0  0  0
  -21.1710   -6.7630   23.8230 C   0  0  0  0  0  3  0  0  0  0  0  0
  -21.0660   -5.9560   24.9740 C   0  0  0  0  0  3  0  0  0  0  0  0
  -21.4420   -4.6000   24.9220 C   0  0  0  0  0  0  0  0  0  0  0  0
  -21.9270   -4.0510   23.7210 C   0  0  0  0  0  3  0  0  0  0  0  0
  -22.0350   -4.8550   22.5730 C   0  0  0  0  0  0  0  0  0  0  0  0
  -22.4830   -4.3140   21.4150 F   0  0  0  0  0  0  0  0  0  0  0  0
  -21.3320   -3.8230   26.0240 F   0  0  0  0  0  0  0  0  0  0  0  0
  -22.8120  -13.5830   21.2000 C   0  0  0  0  0  0  0  0  0  0  0  0
  -22.1100  -12.8730   22.0770 N   0  0  0  0  0  0  0  0  0  0  0  0
  -22.3620  -14.6200   20.7150 O   0  0  0  0  0  0  0  0  0  0  0  0
  -22.4880  -12.0350   22.4930 H   0  0  0  0  0  0  0  0  0  0  0  0
  -21.1820  -13.1730   22.3370 H   0  0  0  0  0  0  0  0  0  0  0  0
  -25.4040  -15.2620   20.3140 N   0  0  0  0  0  0  0  0  0  0  0  0
  -24.6350  -15.9070   20.4590 H   0  0  0  0  0  0  0  0  0  0  0  0
  -26.2220  -15.7050   19.9160 H   0  0  0  0  0  0  0  0  0  0  0  0
  -30.4670  -17.7730   22.2250 C   0  0  0  0  0  2  0  0  0  0  0  0
  -31.2860  -18.9120   22.6780 N   0  0  0  0  0  4  0  0  0  0  0  0
  -31.3380  -18.9300   23.6810 H   0  0  0  0  0  0  0  0  0  0  0  0
  -30.8770  -19.7710   22.3500 H   0  0  0  0  0  0  0  0  0  0  0  0
  -32.2190  -18.8430   22.3140 H   0  0  0  0  0  0  0  0  0  0  0  0
  1  3  1  0
  3 52  1  0
  3  2  2  0
  4  1  2  0
  4  5  1  0
  5  9  1  0
  5  2  1  0
  6  8  1  0
  7  8  1  0
  8  4  1  0
  9 10  1  0
 11 13  1  0
 11 10  1  0
 12 23  2  0
 13 18  1  0
 14 22  1  0
 14 24  1  0
 15 17  1  0
 16 22  1  0
 17 18  2  0
 17 16  1  0
 19 13  2  0
 20 19  1  0
 20 15  2  0
 21 15  1  0
 21 14  1  0
 22 12  1  0
 24 26  2  0
 25 24  1  0
 27 25  1  0
 28 37  2  0
 28 33  1  0
 29 25  1  0
 29 33  1  0
 30 29  1  0
 31 32  1  0
 31 30  1  0
 32 28  1  0
 33 34  2  0
 34 35  1  0
 36 35  2  0
 37 36  1  0
 38 12  1  0
 38 39  1  0
 38 48  1  0
 39 42  1  0
 40 44  1  0
 40 39  1  0
 41 40  2  0
 44 43  1  0
 46 44  1  0
 46 47  1  0
 46 45  1  0
 48 51  1  1
 48 49  1  0
 50 48  1  0
 52 91  1  0
 53 61  1  0
 54 59  1  0
 55 56  1  0
 55 54  1  0
 57 56  1  0
 57 66  1  0
 57 58  1  0
 59 53  1  0
 59 58  1  0
 60 53  2  0
 61 62  1  0
 61 52  2  3
 63 64  2  0
 64 83  1  0
 65 64  1  0
 65 68  1  0
 66 67  1  0
 66 63  1  0
 67 65  2  0
 68 69  1  0
 69 70  2  0
 71 74  1  0
 71 70  1  0
 72 71  2  0
 73 72  1  0
 73 68  2  0
 74 75  1  0
 75 76  1  0
 76 77  2  0
 78 77  1  0
 78 82  1  0
 79 78  2  0
 80 75  2  0
 80 79  1  0
 81 80  1  0
 83 84  1  0
 84 87  1  0
 84 86  1  0
 85 83  2  0
 88 89  1  0
 88 63  1  0
 90 88  1  0
 91 92  1  0
 92 93  1  0
 94 92  1  0
 95 92  1  0
M  ISO  4  10 101  11 101  53 100  61 100
M  END
>  <TORSDO>  (84) 
F 22

>  <SCORE>  (84) 
-14.534

>  <name>  (84) 
83

>  <ligand_id>  (84) 
83

>  <original_smiles>  (84) 
[H]c1c([H])c([H])c2c(c1[H])C([H])([H])C([H])([H])C([H])([H])C2([H])N([H])C(=O)C1([H])N(C(=O)C([H])(N([H])C(=O)C([H])(N([H])C([H])([H])[H])C([H])([H])[H])C(C([H])([H])[H])(C([H])([H])[H])C([H])([H])[H])C([H])([H])c2c([H])c(OC([H])([H])C([H])([H])n3c([H])c(C([H])(N([H])C(=O)N4C([H])([H])C([H])([H])C([H])([H])C([H])(n5nc(-c6c([H])c([H])c(Oc7c([H])c([H])c(F)c([H])c7F)c([H])c6[H])c(C(=O)N([H])[H])c5N([H])[H])C4([H])[H])C([H])([H])[N+]([H])([H])[H])c([H])c3C([H])(C([H])([H])[H])C([H])([H])[H])c([H])c([H])c2C1([H])[H]

>  <smiles>  (84) 
[H]c1c([H])c([H])c2c(c1[H])C([H])([H])C([H])([H])C([H])([H])C2([H])N([H])C(=O)C1([H])N(C(=O)C([H])(N([H])C(=O)C([H])(N([H])C([H])([H])[H])C([H])([H])[H])C(C([H])([H])[H])(C([H])([H])[H])C([H])([H])[H])C([H])([H])c2c([H])c(OC([H])([H])C([H])([H])n3c([H])c(C([H])(N([H])C(=O)N4C([H])([H])C([H])([H])C([H])([H])C([H])(n5nc(-c6c([H])c([H])c(Oc7c([H])c([H])c(F)c([H])c7F)c([H])c6[H])c(C(=O)N([H])[H])c5N([H])[H])C4([H])[H])C([H])([H])[N+]([H])([H])[H])c([H])c3C([H])(C([H])([H])[H])C([H])([H])[H])c([H])c([H])c2C1([H])[H]

$$$$
84:0:0
     RDKit          3D

 97106  0  0  1  0  0  0  0  0999 V2000
  -28.1810  -20.8850   19.5450 C   0  0  0  0  0  3  0  0  0  0  0  0
  -29.3830  -20.6670   21.3860 C   0  0  0  0  0  3  0  0  0  0  0  0
  -28.6920  -21.6120   20.6470 C   0  0  0  0  0  0  0  0  0  0  0  0
  -28.5320  -19.5720   19.6180 C   0  0  0  0  0  0  0  0  0  0  0  0
  -29.2820  -19.3960   20.7800 N   0  0  0  0  0  0  0  0  0  0  0  0
  -27.7580  -23.6150   19.4720 C   0  0  0  0  0  1  0  0  0  0  0  0
  -28.3620  -23.1170   20.8040 C   0  0  0  0  0  3  0  0  0  0  0  0
  -29.4520  -24.1020   21.3500 C   0  0  0  0  0  2  0  0  0  0  0  0
  -28.9430  -25.5120   21.8440 C   0  0  0  0  0  2  0  0  0  0  0  0
  -29.0240  -26.6490   20.9380 O   0  0  0  0  0  0  0  0  0  0  0  0
  -25.0070  -31.9660   23.5890 C   0  0  0  0  0  0  0  0  0  0  0  0
  -27.8740  -27.4160   20.8580 C   0  0  0  0  0  0  0  0  0  0  0  0
  -23.8980  -30.4420   21.9850 C   0  0  0  0  0  3  0  0  0  0  0  0
  -25.4440  -28.8720   20.6960 C   0  0  0  0  0  0  0  0  0  0  0  0
  -26.4230  -30.8620   21.8500 C   0  0  0  0  0  2  0  0  0  0  0  0
  -26.5730  -29.4620   21.2800 C   0  0  0  0  0  0  0  0  0  0  0  0
  -27.8000  -28.7530   21.3380 C   0  0  0  0  0  3  0  0  0  0  0  0
  -26.7230  -26.8430   20.2850 C   0  0  0  0  0  3  0  0  0  0  0  0
  -25.5150  -27.5600   20.1940 C   0  0  0  0  0  3  0  0  0  0  0  0
  -24.1770  -29.6980   20.6520 C   0  0  0  0  0  2  0  0  0  0  0  0
  -25.1250  -31.1110   22.5320 N   0  0  0  0  0  0  0  0  0  0  0  0
  -23.8990  -32.2290   24.0820 O   0  0  0  0  0  0  0  0  0  0  0  0
  -23.2480  -29.4560   22.9840 C   0  0  0  0  0  0  0  0  0  0  0  0
  -22.0300  -28.9880   22.6630 N   0  0  0  0  0  0  0  0  0  0  0  0
  -23.8450  -29.1120   24.0090 O   0  0  0  0  0  0  0  0  0  0  0  0
  -21.6030  -29.3280   21.8130 H   0  0  0  0  0  0  0  0  0  0  0  0
  -18.9120  -27.1610   22.7370 C   0  0  0  0  0  0  0  0  0  0  0  0
  -21.2480  -28.0210   23.4330 C   0  0  0  0  0  3  0  0  0  0  0  0
  -21.7450  -26.5800   23.1750 C   0  0  0  0  0  2  0  0  0  0  0  0
  -20.9790  -25.8700   22.0540 C   0  0  0  0  0  2  0  0  0  0  0  0
  -19.4850  -25.8000   22.3830 C   0  0  0  0  0  2  0  0  0  0  0  0
  -19.7420  -28.2090   23.2130 C   0  0  0  0  0  0  0  0  0  0  0  0
  -19.1640  -29.4660   23.4950 C   0  0  0  0  0  3  0  0  0  0  0  0
  -17.7860  -29.6820   23.3150 C   0  0  0  0  0  3  0  0  0  0  0  0
  -16.9660  -28.6360   22.8540 C   0  0  0  0  0  3  0  0  0  0  0  0
  -17.5280  -27.3800   22.5710 C   0  0  0  0  0  3  0  0  0  0  0  0
  -26.2510  -32.6750   24.2130 C   0  0  0  0  0  3  0  0  0  0  0  0
  -25.8430  -34.0330   24.5980 N   0  0  0  0  0  0  0  0  0  0  0  0
  -26.0540  -35.1310   23.8600 C   0  0  0  0  0  0  0  0  0  0  0  0
  -26.6860  -35.1140   22.8000 O   0  0  0  0  0  0  0  0  0  0  0  0
  -25.2830  -34.1140   25.4330 H   0  0  0  0  0  0  0  0  0  0  0  0
  -24.1660  -36.7800   23.6380 C   0  0  0  0  0  1  0  0  0  0  0  0
  -25.4720  -36.4600   24.3820 C   0  0  0  0  0  3  0  0  0  0  0  0
  -27.5710  -37.4960   25.1270 C   0  0  0  0  0  1  0  0  0  0  0  0
  -26.4040  -37.6020   24.2570 N   0  0  0  0  0  0  0  0  0  0  0  0
  -25.9300  -38.4770   24.4680 H   0  0  0  0  0  0  0  0  0  0  0  0
  -26.8520  -31.9060   25.4540 C   0  0  1  0  0  0  0  0  0  0  0  0
  -25.7850  -31.4020   26.4520 C   0  0  0  0  0  1  0  0  0  0  0  0
  -27.6790  -30.6830   24.9910 C   0  0  0  0  0  1  0  0  0  0  0  0
  -27.8200  -32.8320   26.2290 C   0  0  0  0  0  1  0  0  0  0  0  0
  -26.4500  -18.5780   18.8340 C   0  0  0  0  0  1  0  0  0  0  0  0
  -27.9880  -18.4770   18.7430 C   0  0  0  0  0  3  0  0  0  0  0  0
  -28.9340  -19.4760   15.0860 C   0  0  0  0  0  2  0  0  0  0  0  0
  -30.2020  -18.7350   15.5350 C   0  0  0  0  0  2  0  0  0  0  0  0
  -28.0110  -19.5390   16.3090 C   0  0  0  0  0  2  0  0  0  0  0  0
  -29.9880  -18.3500   17.0080 C   0  0  0  0  0  2  0  0  0  0  0  0
  -28.4710  -18.4170   17.2500 C   0  0  0  0  0  3  0  0  0  0  0  0
  -29.7300  -18.0970   21.3720 C   0  0  0  0  0  2  0  0  0  0  0  0
  -30.4400  -17.0430   20.4410 C   0  0  0  0  0  2  0  0  0  0  0  0
  -30.8950  -14.5420   20.2440 C   0  0  0  0  0  0  0  0  0  0  0  0
  -30.5640  -12.4090   19.0370 C   0  0  0  0  0  2  0  0  0  0  0  0
  -29.5670  -12.6790   17.8900 C   0  0  0  0  0  2  0  0  0  0  0  0
  -28.1140  -12.5130   18.3820 C   0  0  0  0  0  2  0  0  0  0  0  0
  -27.8420  -13.2620   19.7150 C   0  0  0  0  0  3  0  0  0  0  0  0
  -28.9590  -13.0070   20.7530 C   0  0  0  0  0  2  0  0  0  0  0  0
  -30.2400  -13.3480   20.1250 N   0  0  0  0  0  0  0  0  0  0  0  0
  -32.0230  -14.7110   19.7790 O   0  0  0  0  0  0  0  0  0  0  0  0
  -30.1500  -15.5950   20.6890 N   0  0  0  0  0  0  0  0  0  0  0  0
  -29.2270  -15.3690   21.0230 H   0  0  0  0  0  0  0  0  0  0  0  0
  -25.5000  -13.8200   20.6130 C   0  0  0  0  0  0  0  0  0  0  0  0
  -24.4400  -13.0490   20.9830 C   0  0  0  0  0  0  0  0  0  0  0  0
  -24.8880  -11.6980   20.8490 C   0  0  0  0  0  0  0  0  0  0  0  0
  -26.5190  -12.9570   20.2550 N   0  0  0  0  0  0  0  0  0  0  0  0
  -26.1580  -11.6670   20.4590 N   0  0  0  0  0  0  0  0  0  0  0  0
  -24.1600  -10.4390   21.0130 C   0  0  0  0  0  0  0  0  0  0  0  0
  -24.5920   -9.4530   21.9260 C   0  0  0  0  0  3  0  0  0  0  0  0
  -23.8650   -8.2550   22.0810 C   0  0  0  0  0  3  0  0  0  0  0  0
  -22.6920   -8.0350   21.3210 C   0  0  0  0  0  0  0  0  0  0  0  0
  -22.2760   -9.0110   20.4000 C   0  0  0  0  0  3  0  0  0  0  0  0
  -23.0050  -10.2020   20.2430 C   0  0  0  0  0  3  0  0  0  0  0  0
  -21.9350   -6.8920   21.3880 O   0  0  0  0  0  0  0  0  0  0  0  0
  -21.8270   -6.1690   22.5480 C   0  0  0  0  0  0  0  0  0  0  0  0
  -21.3030   -6.7320   23.7310 C   0  0  0  0  0  3  0  0  0  0  0  0
  -21.1450   -5.9340   24.8820 C   0  0  0  0  0  3  0  0  0  0  0  0
  -21.5000   -4.5720   24.8470 C   0  0  0  0  0  0  0  0  0  0  0  0
  -22.0180   -4.0070   23.6690 C   0  0  0  0  0  3  0  0  0  0  0  0
  -22.1760   -4.8040   22.5200 C   0  0  0  0  0  0  0  0  0  0  0  0
  -22.6580   -4.2510   21.3820 F   0  0  0  0  0  0  0  0  0  0  0  0
  -21.3400   -3.8020   25.9500 F   0  0  0  0  0  0  0  0  0  0  0  0
  -23.0660  -13.5240   21.3530 C   0  0  0  0  0  0  0  0  0  0  0  0
  -22.3790  -12.7960   22.2270 N   0  0  0  0  0  0  0  0  0  0  0  0
  -22.6090  -14.5770   20.9030 O   0  0  0  0  0  0  0  0  0  0  0  0
  -22.7560  -11.9390   22.6040 H   0  0  0  0  0  0  0  0  0  0  0  0
  -21.4610  -13.0950   22.5230 H   0  0  0  0  0  0  0  0  0  0  0  0
  -25.6780  -15.1820   20.5300 N   0  0  0  0  0  0  0  0  0  0  0  0
  -24.8940  -15.8140   20.6500 H   0  0  0  0  0  0  0  0  0  0  0  0
  -26.4740  -15.6210   20.0960 H   0  0  0  0  0  0  0  0  0  0  0  0
  1  4  2  0
  1  3  1  0
  3  7  1  0
  3  2  2  0
  4  5  1  0
  5 58  1  0
  5  2  1  0
  7  6  1  0
  7  8  1  0
  8  9  1  0
 10  9  1  0
 11 22  2  0
 12 10  1  0
 12 17  1  0
 13 21  1  0
 13 23  1  0
 14 16  1  0
 15 21  1  0
 16 17  2  0
 16 15  1  0
 18 12  2  0
 19 18  1  0
 19 14  2  0
 20 14  1  0
 20 13  1  0
 21 11  1  0
 23 25  2  0
 24 23  1  0
 26 24  1  0
 27 32  1  0
 28 24  1  0
 29 28  1  0
 30 31  1  0
 30 29  1  0
 31 27  1  0
 32 28  1  0
 32 33  2  0
 34 33  1  0
 35 34  2  0
 36 27  2  0
 36 35  1  0
 37 11  1  0
 37 38  1  0
 37 47  1  0
 38 41  1  0
 39 43  1  0
 39 38  1  0
 40 39  2  0
 43 42  1  0
 45 43  1  0
 45 46  1  0
 45 44  1  0
 47 50  1  1
 47 48  1  0
 49 47  1  0
 52 51  1  0
 52  4  1  0
 53 54  1  0
 53 55  1  0
 54 56  1  0
 55 57  1  0
 56 57  1  0
 57 52  1  0
 59 68  1  0
 59 58  1  0
 60 68  1  0
 61 66  1  0
 62 63  1  0
 62 61  1  0
 64 63  1  0
 64 73  1  0
 64 65  1  0
 66 60  1  0
 66 65  1  0
 67 60  2  0
 68 69  1  0
 70 71  2  0
 71 90  1  0
 72 71  1  0
 72 75  1  0
 73 74  1  0
 73 70  1  0
 74 72  2  0
 75 76  1  0
 76 77  2  0
 78 81  1  0
 78 77  1  0
 79 78  2  0
 80 79  1  0
 80 75  2  0
 81 82  1  0
 82 83  1  0
 83 84  2  0
 85 84  1  0
 85 89  1  0
 86 85  2  0
 87 82  2  0
 87 86  1  0
 88 87  1  0
 90 91  1  0
 91 94  1  0
 91 93  1  0
 92 90  2  0
 95 70  1  0
 95 96  1  0
 97 95  1  0
M  ISO  4   9 101  10 101  60 100  68 100
M  END
>  <TORSDO>  (85) 
F 23

>  <SCORE>  (85) 
-11.345

>  <name>  (85) 
84

>  <ligand_id>  (85) 
84

>  <original_smiles>  (85) 
[H]c1c([H])c([H])c2c(c1[H])C([H])([H])C([H])([H])C([H])([H])C2([H])N([H])C(=O)C1([H])N(C(=O)C([H])(N([H])C(=O)C([H])(N([H])C([H])([H])[H])C([H])([H])[H])C(C([H])([H])[H])(C([H])([H])[H])C([H])([H])[H])C([H])([H])c2c([H])c(OC([H])([H])C([H])([H])C([H])(c3c([H])c(C([H])(C([H])([H])[H])C4([H])C([H])([H])C([H])([H])C([H])([H])C4([H])[H])n(C([H])([H])C([H])([H])N([H])C(=O)N4C([H])([H])C([H])([H])C([H])([H])C([H])(n5nc(-c6c([H])c([H])c(Oc7c([H])c([H])c(F)c([H])c7F)c([H])c6[H])c(C(=O)N([H])[H])c5N([H])[H])C4([H])[H])c3[H])C([H])([H])[H])c([H])c([H])c2C1([H])[H]

>  <smiles>  (85) 
[H]c1c([H])c([H])c2c(c1[H])C([H])([H])C([H])([H])C([H])([H])C2([H])N([H])C(=O)C1([H])N(C(=O)C([H])(N([H])C(=O)C([H])(N([H])C([H])([H])[H])C([H])([H])[H])C(C([H])([H])[H])(C([H])([H])[H])C([H])([H])[H])C([H])([H])c2c([H])c(OC([H])([H])C([H])([H])C([H])(c3c([H])c(C([H])(C([H])([H])[H])C4([H])C([H])([H])C([H])([H])C([H])([H])C4([H])[H])n(C([H])([H])C([H])([H])N([H])C(=O)N4C([H])([H])C([H])([H])C([H])([H])C([H])(n5nc(-c6c([H])c([H])c(Oc7c([H])c([H])c(F)c([H])c7F)c([H])c6[H])c(C(=O)N([H])[H])c5N([H])[H])C4([H])[H])c3[H])C([H])([H])[H])c([H])c([H])c2C1([H])[H]

$$$$
85:0:0
     RDKit          3D

 89 97  0  0  1  0  0  0  0  0999 V2000
  -28.0460  -21.8160   22.1410 C   0  0  0  0  0  2  0  0  0  0  0  0
  -27.9270  -23.2490   21.5510 C   0  0  0  0  0  2  0  0  0  0  0  0
  -29.3510  -21.0580   21.7580 C   0  0  0  0  0  2  0  0  0  0  0  0
  -28.8150  -21.9880   19.5200 C   0  0  0  0  0  2  0  0  0  0  0  0
  -28.7370  -23.4990   20.2510 C   0  0  0  0  0  3  0  0  0  0  0  0
  -29.4380  -20.7570   20.2980 N   0  0  2  0  0  4  0  0  0  0  0  0
  -30.4210  -20.8220   20.0800 H   0  0  0  0  0  0  0  0  0  0  0  0
  -28.1620  -24.9070   19.5160 C   0  0  0  0  0  2  0  0  0  0  0  0
  -28.2910  -26.4000   19.9670 O   0  0  0  0  0  0  0  0  0  0  0  0
  -24.6490  -31.9650   23.1200 C   0  0  0  0  0  0  0  0  0  0  0  0
  -27.2290  -27.3760   19.9030 C   0  0  0  0  0  0  0  0  0  0  0  0
  -23.4410  -30.5970   21.4640 C   0  0  0  0  0  3  0  0  0  0  0  0
  -24.8850  -29.0990   19.9620 C   0  0  0  0  0  0  0  0  0  0  0  0
  -25.9860  -30.9100   21.2590 C   0  0  0  0  0  2  0  0  0  0  0  0
  -26.0680  -29.5380   20.5660 C   0  0  0  0  0  0  0  0  0  0  0  0
  -27.2400  -28.6940   20.5240 C   0  0  0  0  0  3  0  0  0  0  0  0
  -26.0250  -27.0580   19.2390 C   0  0  0  0  0  3  0  0  0  0  0  0
  -24.8780  -27.8760   19.2840 C   0  0  0  0  0  3  0  0  0  0  0  0
  -23.6480  -29.9800   20.0580 C   0  0  0  0  0  2  0  0  0  0  0  0
  -24.7140  -31.1800   22.0030 N   0  0  0  0  0  0  0  0  0  0  0  0
  -23.5690  -32.2120   23.6780 O   0  0  0  0  0  0  0  0  0  0  0  0
  -22.8000  -29.5440   22.4050 C   0  0  0  0  0  0  0  0  0  0  0  0
  -21.4760  -29.3400   22.2860 N   0  0  0  0  0  0  0  0  0  0  0  0
  -23.4960  -28.9210   23.2120 O   0  0  0  0  0  0  0  0  0  0  0  0
  -20.9690  -29.8990   21.6140 H   0  0  0  0  0  0  0  0  0  0  0  0
  -18.1450  -28.0070   22.7620 C   0  0  0  0  0  0  0  0  0  0  0  0
  -20.6900  -28.3610   23.0420 C   0  0  0  0  0  3  0  0  0  0  0  0
  -20.8480  -26.9390   22.4520 C   0  0  0  0  0  2  0  0  0  0  0  0
  -19.7630  -26.5900   21.4290 C   0  0  0  0  0  2  0  0  0  0  0  0
  -18.3750  -26.6750   22.0670 C   0  0  0  0  0  2  0  0  0  0  0  0
  -19.2320  -28.8050   23.2060 C   0  0  0  0  0  0  0  0  0  0  0  0
  -18.9640  -30.0470   23.8180 C   0  0  0  0  0  3  0  0  0  0  0  0
  -17.6390  -30.4960   23.9880 C   0  0  0  0  0  3  0  0  0  0  0  0
  -16.5670  -29.6990   23.5540 C   0  0  0  0  0  3  0  0  0  0  0  0
  -16.8220  -28.4550   22.9490 C   0  0  0  0  0  3  0  0  0  0  0  0
  -25.9290  -32.6060   23.7400 C   0  0  0  0  0  3  0  0  0  0  0  0
  -26.4530  -31.8320   25.0120 C   0  0  1  0  0  0  0  0  0  0  0  0
  -25.3620  -31.5710   26.0760 C   0  0  0  0  0  1  0  0  0  0  0  0
  -27.0650  -30.4690   24.6140 C   0  0  0  0  0  1  0  0  0  0  0  0
  -27.5850  -32.6440   25.6860 C   0  0  0  0  0  1  0  0  0  0  0  0
  -25.6050  -33.9990   24.0870 N   0  0  0  0  0  0  0  0  0  0  0  0
  -25.9010  -35.0640   23.3300 C   0  0  0  0  0  0  0  0  0  0  0  0
  -26.5430  -34.9790   22.2800 O   0  0  0  0  0  0  0  0  0  0  0  0
  -25.0380  -34.1350   24.9110 H   0  0  0  0  0  0  0  0  0  0  0  0
  -24.1380  -36.8400   23.0400 C   0  0  0  0  0  1  0  0  0  0  0  0
  -25.4070  -36.4420   23.8130 C   0  0  0  0  0  3  0  0  0  0  0  0
  -27.5470  -37.3570   24.6000 C   0  0  0  0  0  1  0  0  0  0  0  0
  -26.4230  -37.5100   23.6790 N   0  0  0  0  0  0  0  0  0  0  0  0
  -26.0040  -38.4230   23.8380 H   0  0  0  0  0  0  0  0  0  0  0  0
  -29.1050  -19.2320   19.9600 C   0  0  0  0  0  3  0  0  0  0  0  0
  -30.1990  -17.9540   20.1690 C   0  0  0  0  0  3  0  0  0  0  0  0
  -30.6670  -15.2330   19.9340 C   0  0  0  0  0  0  0  0  0  0  0  0
  -30.5340  -12.8770   19.0080 C   0  0  0  0  0  2  0  0  0  0  0  0
  -29.5410  -12.8170   17.8230 C   0  0  0  0  0  2  0  0  0  0  0  0
  -28.1060  -12.5790   18.3310 C   0  0  0  0  0  2  0  0  0  0  0  0
  -27.7430  -13.5230   19.5080 C   0  0  0  0  0  3  0  0  0  0  0  0
  -28.8450  -13.5570   20.5850 C   0  0  0  0  0  2  0  0  0  0  0  0
  -30.0830  -13.9690   19.9130 N   0  0  0  0  0  0  0  0  0  0  0  0
  -31.8620  -15.3140   19.6260 O   0  0  0  0  0  0  0  0  0  0  0  0
  -29.8690  -16.4020   20.1000 N   0  0  0  0  0  0  0  0  0  0  0  0
  -28.8900  -16.1900   20.2200 H   0  0  0  0  0  0  0  0  0  0  0  0
  -25.4260  -14.1030   20.4220 C   0  0  0  0  0  0  0  0  0  0  0  0
  -24.3770  -13.3270   20.8320 C   0  0  0  0  0  0  0  0  0  0  0  0
  -24.8210  -11.9730   20.7190 C   0  0  0  0  0  0  0  0  0  0  0  0
  -26.4370  -13.2210   20.0770 N   0  0  0  0  0  0  0  0  0  0  0  0
  -26.0880  -11.9330   20.3250 N   0  0  0  0  0  0  0  0  0  0  0  0
  -24.0900  -10.7150   20.9030 C   0  0  0  0  0  0  0  0  0  0  0  0
  -24.5300   -9.7290   21.8160 C   0  0  0  0  0  3  0  0  0  0  0  0
  -23.7990   -8.5330   21.9880 C   0  0  0  0  0  3  0  0  0  0  0  0
  -22.6160   -8.3130   21.2440 C   0  0  0  0  0  0  0  0  0  0  0  0
  -22.1960   -9.2860   20.3220 C   0  0  0  0  0  3  0  0  0  0  0  0
  -22.9270  -10.4730   20.1470 C   0  0  0  0  0  3  0  0  0  0  0  0
  -21.8550   -7.1720   21.3290 O   0  0  0  0  0  0  0  0  0  0  0  0
  -21.7850   -6.4360   22.4850 C   0  0  0  0  0  0  0  0  0  0  0  0
  -21.2950   -6.9880   23.6900 C   0  0  0  0  0  3  0  0  0  0  0  0
  -21.1730   -6.1770   24.8360 C   0  0  0  0  0  3  0  0  0  0  0  0
  -21.5280   -4.8170   24.7790 C   0  0  0  0  0  0  0  0  0  0  0  0
  -22.0110   -4.2660   23.5800 C   0  0  0  0  0  3  0  0  0  0  0  0
  -22.1330   -5.0720   22.4340 C   0  0  0  0  0  0  0  0  0  0  0  0
  -22.5800   -4.5300   21.2760 F   0  0  0  0  0  0  0  0  0  0  0  0
  -21.4010   -4.0370   25.8780 F   0  0  0  0  0  0  0  0  0  0  0  0
  -23.0040  -13.8110   21.2000 C   0  0  0  0  0  0  0  0  0  0  0  0
  -22.3220  -13.0980   22.0910 N   0  0  0  0  0  0  0  0  0  0  0  0
  -22.5490  -14.8540   20.7370 O   0  0  0  0  0  0  0  0  0  0  0  0
  -22.7020  -12.2540   22.4930 H   0  0  0  0  0  0  0  0  0  0  0  0
  -21.4050  -13.4070   22.3820 H   0  0  0  0  0  0  0  0  0  0  0  0
  -25.5980  -15.4790   20.2870 N   0  0  0  0  0  0  0  0  0  0  0  0
  -24.8360  -16.1310   20.4440 H   0  0  0  0  0  0  0  0  0  0  0  0
  -26.4050  -15.9180   19.8650 H   0  0  0  0  0  0  0  0  0  0  0  0
  2  1  1  0
  3  1  1  0
  4  5  1  0
  4  6  1  0
  5  8  1  0
  5  2  1  0
  6  3  1  0
  6  7  1  6
  8  9  1  0
 10 21  2  0
 11  9  1  0
 11 16  1  0
 12 20  1  0
 12 22  1  0
 13 19  1  0
 13 15  1  0
 14 20  1  0
 15 14  1  0
 16 15  2  0
 17 18  1  0
 17 11  2  0
 18 13  2  0
 19 12  1  0
 20 10  1  0
 22 24  2  0
 23 22  1  0
 25 23  1  0
 26 35  2  0
 26 31  1  0
 27 23  1  0
 27 31  1  0
 28 27  1  0
 29 30  1  0
 29 28  1  0
 30 26  1  0
 31 32  2  0
 32 33  1  0
 34 33  2  0
 35 34  1  0
 36 10  1  0
 36 41  1  0
 36 37  1  0
 37 40  1  1
 37 38  1  0
 39 37  1  0
 41 44  1  0
 42 46  1  0
 42 41  1  0
 43 42  2  0
 46 45  1  0
 48 46  1  0
 48 49  1  0
 48 47  1  0
 50 51  2  0
 50  6  1  0
 52 60  1  0
 53 58  1  0
 54 55  1  0
 54 53  1  0
 56 55  1  0
 56 65  1  0
 56 57  1  0
 58 52  1  0
 58 57  1  0
 59 52  2  0
 60 51  1  0
 60 61  1  0
 62 63  2  0
 63 82  1  0
 64 63  1  0
 64 67  1  0
 65 66  1  0
 65 62  1  0
 66 64  2  0
 67 68  1  0
 68 69  2  0
 70 73  1  0
 70 69  1  0
 71 70  2  0
 72 71  1  0
 72 67  2  0
 73 74  1  0
 74 75  1  0
 75 76  2  0
 77 76  1  0
 77 81  1  0
 78 77  2  0
 79 74  2  0
 79 78  1  0
 80 79  1  0
 82 83  1  0
 83 86  1  0
 83 85  1  0
 84 82  2  0
 87 62  1  0
 87 88  1  0
 89 87  1  0
M  ISO  4   8 101   9 101  52 100  60 100
M  END
>  <TORSDO>  (86) 
F 19

>  <SCORE>  (86) 
-14.208

>  <name>  (86) 
85

>  <ligand_id>  (86) 
85

>  <original_smiles>  (86) 
[H]c1c([H])c([H])c2c(c1[H])C([H])([H])C([H])([H])C([H])([H])C2([H])N([H])C(=O)C1([H])N(C(=O)C([H])(N([H])C(=O)C([H])(N([H])C([H])([H])[H])C([H])([H])[H])C(C([H])([H])[H])(C([H])([H])[H])C([H])([H])[H])C([H])([H])c2c([H])c(OC([H])([H])C3([H])C([H])([H])C([H])([H])C([H])([H])[N+]([H])(C([H])([H])C([H])([H])N([H])C(=O)N4C([H])([H])C([H])([H])C([H])([H])C([H])(n5nc(-c6c([H])c([H])c(Oc7c([H])c([H])c(F)c([H])c7F)c([H])c6[H])c(C(=O)N([H])[H])c5N([H])[H])C4([H])[H])C3([H])[H])c([H])c([H])c2C1([H])[H]

>  <smiles>  (86) 
[H]c1c([H])c([H])c2c(c1[H])C([H])([H])C([H])([H])C([H])([H])C2([H])N([H])C(=O)C1([H])N(C(=O)C([H])(N([H])C(=O)C([H])(N([H])C([H])([H])[H])C([H])([H])[H])C(C([H])([H])[H])(C([H])([H])[H])C([H])([H])[H])C([H])([H])c2c([H])c(OC([H])([H])C3([H])C([H])([H])C([H])([H])C([H])([H])[N+]([H])(C([H])([H])C([H])([H])N([H])C(=O)N4C([H])([H])C([H])([H])C([H])([H])C([H])(n5nc(-c6c([H])c([H])c(Oc7c([H])c([H])c(F)c([H])c7F)c([H])c6[H])c(C(=O)N([H])[H])c5N([H])[H])C4([H])[H])C3([H])[H])c([H])c([H])c2C1([H])[H]

$$$$
86:0:0
     RDKit          3D

 89 97  0  0  1  0  0  0  0  0999 V2000
  -28.0120  -21.2120   21.2290 C   0  0  0  0  0  2  0  0  0  0  0  0
  -27.8620  -20.2500   20.2750 C   0  0  0  0  0  2  0  0  0  0  0  0
  -28.8750  -22.2610   20.7670 C   0  0  0  0  0  3  0  0  0  0  0  0
  -28.8110  -22.1840   19.3930 C   0  0  0  0  0  3  0  0  0  0  0  0
  -28.8310  -20.5100   19.3410 N   0  0  0  0  0  0  0  0  0  0  0  0
  -28.5810  -24.5640   21.9280 C   0  0  0  0  0  1  0  0  0  0  0  0
  -29.9290  -22.7540   23.0270 C   0  0  0  0  0  1  0  0  0  0  0  0
  -29.4730  -23.3360   21.6780 C   0  0  0  0  0  3  0  0  0  0  0  0
  -27.9250  -23.7260   18.7350 C   0  0  0  0  0  2  0  0  0  0  0  0
  -28.0580  -25.4980   18.9070 O   0  0  0  0  0  0  0  0  0  0  0  0
  -24.7370  -31.5000   22.6330 C   0  0  0  0  0  0  0  0  0  0  0  0
  -27.0730  -26.7140   19.0010 C   0  0  0  0  0  0  0  0  0  0  0  0
  -23.4270  -30.1900   21.0200 C   0  0  0  0  0  3  0  0  0  0  0  0
  -24.7640  -28.6960   19.3400 C   0  0  0  0  0  0  0  0  0  0  0  0
  -25.9780  -30.4130   20.6570 C   0  0  0  0  0  2  0  0  0  0  0  0
  -26.0090  -29.0330   19.8830 C   0  0  0  0  0  0  0  0  0  0  0  0
  -27.1410  -28.0700   19.6880 C   0  0  0  0  0  3  0  0  0  0  0  0
  -25.7820  -26.6080   18.4170 C   0  0  0  0  0  3  0  0  0  0  0  0
  -24.6890  -27.5140   18.5830 C   0  0  0  0  0  3  0  0  0  0  0  0
  -23.5440  -29.6030   19.5830 C   0  0  0  0  0  2  0  0  0  0  0  0
  -24.7440  -30.7320   21.4890 N   0  0  0  0  0  0  0  0  0  0  0  0
  -23.6930  -31.7270   23.2690 O   0  0  0  0  0  0  0  0  0  0  0  0
  -22.8360  -29.1230   21.9800 C   0  0  0  0  0  0  0  0  0  0  0  0
  -21.5060  -28.9090   21.9520 N   0  0  0  0  0  0  0  0  0  0  0  0
  -23.5860  -28.4850   22.7230 O   0  0  0  0  0  0  0  0  0  0  0  0
  -20.9460  -29.4790   21.3330 H   0  0  0  0  0  0  0  0  0  0  0  0
  -18.2450  -27.4340   22.5820 C   0  0  0  0  0  0  0  0  0  0  0  0
  -20.7890  -27.8860   22.7250 C   0  0  0  0  0  3  0  0  0  0  0  0
  -20.9630  -26.4860   22.0900 C   0  0  0  0  0  2  0  0  0  0  0  0
  -19.8360  -26.1200   21.1190 C   0  0  0  0  0  2  0  0  0  0  0  0
  -18.4840  -26.1320   21.8370 C   0  0  0  0  0  2  0  0  0  0  0  0
  -19.3240  -28.2660   22.9850 C   0  0  0  0  0  0  0  0  0  0  0  0
  -19.0420  -29.4780   23.6490 C   0  0  0  0  0  3  0  0  0  0  0  0
  -17.7130  -29.8630   23.9100 C   0  0  0  0  0  3  0  0  0  0  0  0
  -16.6500  -29.0310   23.5180 C   0  0  0  0  0  3  0  0  0  0  0  0
  -16.9170  -27.8170   22.8610 C   0  0  0  0  0  3  0  0  0  0  0  0
  -26.0380  -32.1470   23.1950 C   0  0  0  0  0  3  0  0  0  0  0  0
  -26.7600  -31.2450   24.2730 C   0  0  1  0  0  0  0  0  0  0  0  0
  -25.8350  -30.7860   25.4260 C   0  0  0  0  0  1  0  0  0  0  0  0
  -27.3560  -29.9740   23.6270 C   0  0  0  0  0  1  0  0  0  0  0  0
  -27.9470  -32.0190   24.8950 C   0  0  0  0  0  1  0  0  0  0  0  0
  -25.6870  -33.4500   23.7930 N   0  0  0  0  0  0  0  0  0  0  0  0
  -25.9270  -34.6460   23.2380 C   0  0  0  0  0  0  0  0  0  0  0  0
  -26.5250  -34.7730   22.1670 O   0  0  0  0  0  0  0  0  0  0  0  0
  -25.1410  -33.4190   24.6430 H   0  0  0  0  0  0  0  0  0  0  0  0
  -24.1210  -36.4020   23.3570 C   0  0  0  0  0  1  0  0  0  0  0  0
  -25.4300  -35.9030   23.9890 C   0  0  0  0  0  3  0  0  0  0  0  0
  -27.5820  -36.7250   24.8420 C   0  0  0  0  0  1  0  0  0  0  0  0
  -26.4150  -37.0070   24.0120 N   0  0  0  0  0  0  0  0  0  0  0  0
  -25.9850  -37.8630   24.3500 H   0  0  0  0  0  0  0  0  0  0  0  0
  -29.8190  -19.0170   19.0560 C   0  0  0  0  0  2  0  0  0  0  0  0
  -30.4680  -15.8780   19.3800 C   0  0  0  0  0  0  0  0  0  0  0  0
  -30.6490  -13.2400   18.8870 C   0  0  0  0  0  2  0  0  0  0  0  0
  -29.7210  -12.6140   17.8050 C   0  0  0  0  0  2  0  0  0  0  0  0
  -28.3480  -12.2600   18.3880 C   0  0  0  0  0  2  0  0  0  0  0  0
  -27.8420  -13.3740   19.3300 C   0  0  0  0  0  3  0  0  0  0  0  0
  -28.9060  -13.9020   20.3210 C   0  0  0  0  0  2  0  0  0  0  0  0
  -30.0000  -14.4890   19.5100 N   0  0  0  0  0  0  0  0  0  0  0  0
  -31.6980  -15.8190   19.1710 O   0  0  0  0  0  0  0  0  0  0  0  0
  -29.6700  -17.2360   19.3030 N   0  0  0  0  0  0  0  0  0  0  0  0
  -28.6930  -17.0240   19.4460 H   0  0  0  0  0  0  0  0  0  0  0  0
  -25.5910  -13.9480   20.3410 C   0  0  0  0  0  0  0  0  0  0  0  0
  -24.5470  -13.1890   20.7800 C   0  0  0  0  0  0  0  0  0  0  0  0
  -24.9670  -11.8270   20.6560 C   0  0  0  0  0  0  0  0  0  0  0  0
  -26.5760  -13.0560   19.9680 N   0  0  0  0  0  0  0  0  0  0  0  0
  -26.2230  -11.7690   20.2210 N   0  0  0  0  0  0  0  0  0  0  0  0
  -24.2190  -10.5830   20.8710 C   0  0  0  0  0  0  0  0  0  0  0  0
  -24.6470   -9.6140   21.8050 C   0  0  0  0  0  3  0  0  0  0  0  0
  -23.8940   -8.4380   22.0140 C   0  0  0  0  0  3  0  0  0  0  0  0
  -22.6990   -8.2200   21.2870 C   0  0  0  0  0  0  0  0  0  0  0  0
  -22.2870   -9.1780   20.3420 C   0  0  0  0  0  3  0  0  0  0  0  0
  -23.0420  -10.3460   20.1330 C   0  0  0  0  0  3  0  0  0  0  0  0
  -21.9160   -7.0970   21.4080 O   0  0  0  0  0  0  0  0  0  0  0  0
  -21.8440   -6.3880   22.5800 C   0  0  0  0  0  0  0  0  0  0  0  0
  -21.3700   -6.9720   23.7750 C   0  0  0  0  0  3  0  0  0  0  0  0
  -21.2430   -6.1880   24.9400 C   0  0  0  0  0  3  0  0  0  0  0  0
  -21.5790   -4.8210   24.9080 C   0  0  0  0  0  0  0  0  0  0  0  0
  -22.0450   -4.2360   23.7190 C   0  0  0  0  0  3  0  0  0  0  0  0
  -22.1730   -5.0170   22.5570 C   0  0  0  0  0  0  0  0  0  0  0  0
  -22.6010   -4.4420   21.4070 F   0  0  0  0  0  0  0  0  0  0  0  0
  -21.4510   -4.0670   26.0260 F   0  0  0  0  0  0  0  0  0  0  0  0
  -23.1960  -13.6980   21.1920 C   0  0  0  0  0  0  0  0  0  0  0  0
  -22.5340  -13.0040   22.1070 N   0  0  0  0  0  0  0  0  0  0  0  0
  -22.7460  -14.7490   20.7350 O   0  0  0  0  0  0  0  0  0  0  0  0
  -22.9240  -12.1590   22.4980 H   0  0  0  0  0  0  0  0  0  0  0  0
  -21.6270  -13.3170   22.4210 H   0  0  0  0  0  0  0  0  0  0  0  0
  -25.7820  -15.3190   20.1940 N   0  0  0  0  0  0  0  0  0  0  0  0
  -25.0480  -15.9880   20.4010 H   0  0  0  0  0  0  0  0  0  0  0  0
  -26.6010  -15.7460   19.7850 H   0  0  0  0  0  0  0  0  0  0  0  0
  2  1  1  0
  3  1  1  0
  3  8  1  0
  4  9  1  0
  4  3  1  0
  5  4  1  0
  5  2  1  0
  8  6  1  0
  8  7  1  0
  9 10  1  0
 10 12  1  0
 11 22  2  0
 12 17  1  0
 13 21  1  0
 13 23  1  0
 14 20  1  0
 14 16  1  0
 15 21  1  0
 16 15  1  0
 17 16  2  0
 18 19  1  0
 18 12  2  0
 19 14  2  0
 20 13  1  0
 21 11  1  0
 23 25  2  0
 24 23  1  0
 26 24  1  0
 27 36  2  0
 27 32  1  0
 28 24  1  0
 28 32  1  0
 29 28  1  0
 30 31  1  0
 30 29  1  0
 31 27  1  0
 32 33  2  0
 33 34  1  0
 35 34  2  0
 36 35  1  0
 37 11  1  0
 37 42  1  0
 37 38  1  0
 38 41  1  1
 38 39  1  0
 40 38  1  0
 42 45  1  0
 43 42  1  0
 43 47  1  0
 44 43  2  0
 47 46  1  0
 47 49  1  0
 49 50  1  0
 49 48  1  0
 51 60  1  0
 51  5  1  0
 52 58  1  0
 53 58  1  0
 54 55  1  0
 54 53  1  0
 56 55  1  0
 56 65  1  0
 56 57  1  0
 58 57  1  0
 59 52  2  0
 60 52  1  0
 60 61  1  0
 62 63  2  0
 63 82  1  0
 64 63  1  0
 64 67  1  0
 65 66  1  0
 65 62  1  0
 66 64  2  0
 67 68  1  0
 68 69  2  0
 70 73  1  0
 70 69  1  0
 71 70  2  0
 72 71  1  0
 72 67  2  0
 73 74  1  0
 74 75  1  0
 75 76  2  0
 77 76  1  0
 77 81  1  0
 78 77  2  0
 79 74  2  0
 79 78  1  0
 80 79  1  0
 82 83  1  0
 83 86  1  0
 83 85  1  0
 84 82  2  0
 87 62  1  0
 87 88  1  0
 89 87  1  0
M  ISO  4   9 101  10 101  52 100  60 100
M  END
>  <TORSDO>  (87) 
F 19

>  <SCORE>  (87) 
-14.262

>  <name>  (87) 
86

>  <ligand_id>  (87) 
86

>  <original_smiles>  (87) 
[H]c1c([H])c([H])c2c(c1[H])C([H])([H])C([H])([H])C([H])([H])C2([H])N([H])C(=O)C1([H])N(C(=O)C([H])(N([H])C(=O)C([H])(N([H])C([H])([H])[H])C([H])([H])[H])C(C([H])([H])[H])(C([H])([H])[H])C([H])([H])[H])C([H])([H])c2c([H])c(OC([H])([H])c3c(C([H])(C([H])([H])[H])C([H])([H])[H])c([H])c([H])n3C([H])([H])N([H])C(=O)N3C([H])([H])C([H])([H])C([H])([H])C([H])(n4nc(-c5c([H])c([H])c(Oc6c([H])c([H])c(F)c([H])c6F)c([H])c5[H])c(C(=O)N([H])[H])c4N([H])[H])C3([H])[H])c([H])c([H])c2C1([H])[H]

>  <smiles>  (87) 
[H]c1c([H])c([H])c2c(c1[H])C([H])([H])C([H])([H])C([H])([H])C2([H])N([H])C(=O)C1([H])N(C(=O)C([H])(N([H])C(=O)C([H])(N([H])C([H])([H])[H])C([H])([H])[H])C(C([H])([H])[H])(C([H])([H])[H])C([H])([H])[H])C([H])([H])c2c([H])c(OC([H])([H])c3c(C([H])(C([H])([H])[H])C([H])([H])[H])c([H])c([H])n3C([H])([H])N([H])C(=O)N3C([H])([H])C([H])([H])C([H])([H])C([H])(n4nc(-c5c([H])c([H])c(Oc6c([H])c([H])c(F)c([H])c6F)c([H])c5[H])c(C(=O)N([H])[H])c4N([H])[H])C3([H])[H])c([H])c([H])c2C1([H])[H]

$$$$
87:0:0
     RDKit          3D

 90 97  0  0  1  0  0  0  0  0999 V2000
  -29.1630  -21.8790   19.9330 C   0  0  0  0  0  2  0  0  0  0  0  0
  -29.7140  -20.7390   22.1460 C   0  0  0  0  0  1  0  0  0  0  0  0
  -29.3300  -20.5080   20.7370 N   0  0  2  0  0  4  0  0  0  0  0  0
  -28.3680  -20.2090   20.8080 H   0  0  0  0  0  0  0  0  0  0  0  0
  -30.0510  -19.1800   20.2040 C   0  0  0  0  0  2  0  0  0  0  0  0
  -29.3130  -17.6730   20.3830 C   0  0  0  0  0  0  0  0  0  0  0  0
  -30.6660  -15.1180   20.0860 C   0  0  0  0  0  0  0  0  0  0  0  0
  -30.5640  -12.7870   19.0770 C   0  0  0  0  0  2  0  0  0  0  0  0
  -29.5790  -12.8120   17.8810 C   0  0  0  0  0  2  0  0  0  0  0  0
  -28.1300  -12.5810   18.3510 C   0  0  0  0  0  2  0  0  0  0  0  0
  -27.7780  -13.4370   19.5930 C   0  0  0  0  0  3  0  0  0  0  0  0
  -28.8790  -13.3780   20.6780 C   0  0  0  0  0  2  0  0  0  0  0  0
  -30.1360  -13.8250   20.0570 N   0  0  0  0  0  0  0  0  0  0  0  0
  -31.7850  -15.2910   19.5910 O   0  0  0  0  0  0  0  0  0  0  0  0
  -29.8460  -16.1720   20.5640 N   0  0  0  0  0  4  0  0  0  0  0  0
  -29.1440  -15.6970   21.1150 H   0  0  0  0  0  0  0  0  0  0  0  0
  -25.4150  -14.0040   20.4060 C   0  0  0  0  0  0  0  0  0  0  0  0
  -24.3670  -13.2210   20.8060 C   0  0  0  0  0  0  0  0  0  0  0  0
  -24.8370  -11.8730   20.7460 C   0  0  0  0  0  0  0  0  0  0  0  0
  -26.4540  -13.1320   20.1240 N   0  0  0  0  0  0  0  0  0  0  0  0
  -26.1170  -11.8450   20.3910 N   0  0  0  0  0  0  0  0  0  0  0  0
  -24.1250  -10.6060   20.9520 C   0  0  0  0  0  0  0  0  0  0  0  0
  -24.5680   -9.6570   21.9000 C   0  0  0  0  0  3  0  0  0  0  0  0
  -23.8550   -8.4540   22.0920 C   0  0  0  0  0  3  0  0  0  0  0  0
  -22.6860   -8.1930   21.3390 C   0  0  0  0  0  0  0  0  0  0  0  0
  -22.2610   -9.1310   20.3810 C   0  0  0  0  0  3  0  0  0  0  0  0
  -22.9750  -10.3250   20.1860 C   0  0  0  0  0  3  0  0  0  0  0  0
  -21.9470   -7.0380   21.4380 O   0  0  0  0  0  0  0  0  0  0  0  0
  -21.8750   -6.3280   22.6100 C   0  0  0  0  0  0  0  0  0  0  0  0
  -21.3640   -6.8970   23.7970 C   0  0  0  0  0  3  0  0  0  0  0  0
  -21.2460   -6.1110   24.9600 C   0  0  0  0  0  3  0  0  0  0  0  0
  -21.6280   -4.7570   24.9350 C   0  0  0  0  0  0  0  0  0  0  0  0
  -22.1300   -4.1850   23.7520 C   0  0  0  0  0  3  0  0  0  0  0  0
  -22.2510   -4.9690   22.5920 C   0  0  0  0  0  0  0  0  0  0  0  0
  -22.7160   -4.4090   21.4480 F   0  0  0  0  0  0  0  0  0  0  0  0
  -21.5080   -3.9980   26.0510 F   0  0  0  0  0  0  0  0  0  0  0  0
  -22.9790  -13.6880   21.1300 C   0  0  0  0  0  0  0  0  0  0  0  0
  -22.2840  -12.9790   22.0120 N   0  0  0  0  0  0  0  0  0  0  0  0
  -22.5190  -14.7180   20.6360 O   0  0  0  0  0  0  0  0  0  0  0  0
  -22.6680  -12.1450   22.4330 H   0  0  0  0  0  0  0  0  0  0  0  0
  -21.3520  -13.2750   22.2690 H   0  0  0  0  0  0  0  0  0  0  0  0
  -25.5620  -15.3750   20.2340 N   0  0  0  0  0  0  0  0  0  0  0  0
  -24.7860  -16.0160   20.3570 H   0  0  0  0  0  0  0  0  0  0  0  0
  -26.3860  -15.8210   19.8570 H   0  0  0  0  0  0  0  0  0  0  0  0
  -26.9340  -18.4620   19.6490 C   0  0  0  0  0  1  0  0  0  0  0  0
  -28.1590  -17.5800   19.3540 C   0  0  0  0  0  2  0  0  0  0  0  0
  -30.4270  -23.9710   20.9150 C   0  0  0  0  0  1  0  0  0  0  0  0
  -29.0140  -23.4440   20.6090 C   0  0  0  0  0  3  0  0  0  0  0  0
  -28.1550  -24.7450   19.9410 C   0  0  0  0  0  2  0  0  0  0  0  0
  -28.2940  -26.2700   20.2650 O   0  0  0  0  0  0  0  0  0  0  0  0
  -24.6040  -31.9270   23.1980 C   0  0  0  0  0  0  0  0  0  0  0  0
  -27.2230  -27.2360   20.1620 C   0  0  0  0  0  0  0  0  0  0  0  0
  -23.4120  -30.5170   21.5610 C   0  0  0  0  0  3  0  0  0  0  0  0
  -24.8750  -28.9560   20.1320 C   0  0  0  0  0  0  0  0  0  0  0  0
  -25.9630  -30.8070   21.3940 C   0  0  0  0  0  2  0  0  0  0  0  0
  -26.0480  -29.4160   20.7410 C   0  0  0  0  0  0  0  0  0  0  0  0
  -27.2200  -28.5680   20.7440 C   0  0  0  0  0  3  0  0  0  0  0  0
  -26.0270  -26.8870   19.4960 C   0  0  0  0  0  3  0  0  0  0  0  0
  -24.8750  -27.7050   19.4960 C   0  0  0  0  0  3  0  0  0  0  0  0
  -23.6380  -29.8390   20.1840 C   0  0  0  0  0  2  0  0  0  0  0  0
  -24.6790  -31.1070   22.1060 N   0  0  0  0  0  0  0  0  0  0  0  0
  -23.5170  -32.2030   23.7290 O   0  0  0  0  0  0  0  0  0  0  0  0
  -22.7490  -29.5050   22.5270 C   0  0  0  0  0  0  0  0  0  0  0  0
  -21.4250  -29.3060   22.3930 N   0  0  0  0  0  0  0  0  0  0  0  0
  -23.4260  -28.9010   23.3630 O   0  0  0  0  0  0  0  0  0  0  0  0
  -20.9320  -29.8470   21.6960 H   0  0  0  0  0  0  0  0  0  0  0  0
  -18.0730  -28.0160   22.8620 C   0  0  0  0  0  0  0  0  0  0  0  0
  -20.6170  -28.3570   23.1660 C   0  0  0  0  0  3  0  0  0  0  0  0
  -20.7700  -26.9180   22.6170 C   0  0  0  0  0  2  0  0  0  0  0  0
  -19.6950  -26.5470   21.5910 C   0  0  0  0  0  2  0  0  0  0  0  0
  -18.3000  -26.6620   22.2100 C   0  0  0  0  0  2  0  0  0  0  0  0
  -19.1610  -28.8190   23.2960 C   0  0  0  0  0  0  0  0  0  0  0  0
  -18.8940  -30.0820   23.8660 C   0  0  0  0  0  3  0  0  0  0  0  0
  -17.5730  -30.5450   24.0060 C   0  0  0  0  0  3  0  0  0  0  0  0
  -16.4990  -29.7410   23.5870 C   0  0  0  0  0  3  0  0  0  0  0  0
  -16.7500  -28.4770   23.0210 C   0  0  0  0  0  3  0  0  0  0  0  0
  -25.8780  -32.5770   23.8190 C   0  0  0  0  0  3  0  0  0  0  0  0
  -25.5570  -33.9770   24.1440 N   0  0  0  0  0  0  0  0  0  0  0  0
  -25.8940  -35.0340   23.3920 C   0  0  0  0  0  0  0  0  0  0  0  0
  -26.5710  -34.9330   22.3670 O   0  0  0  0  0  0  0  0  0  0  0  0
  -24.9600  -34.1290   24.9430 H   0  0  0  0  0  0  0  0  0  0  0  0
  -24.1780  -36.8340   23.0130 C   0  0  0  0  0  1  0  0  0  0  0  0
  -25.4000  -36.4200   23.8500 C   0  0  0  0  0  3  0  0  0  0  0  0
  -27.5090  -37.3020   24.7440 C   0  0  0  0  0  1  0  0  0  0  0  0
  -26.4350  -37.4720   23.7680 N   0  0  0  0  0  0  0  0  0  0  0  0
  -26.0250  -38.3920   23.9080 H   0  0  0  0  0  0  0  0  0  0  0  0
  -26.3970  -31.8220   25.1040 C   0  0  1  0  0  0  0  0  0  0  0  0
  -25.3030  -31.5840   26.1710 C   0  0  0  0  0  1  0  0  0  0  0  0
  -26.9930  -30.4450   24.7320 C   0  0  0  0  0  1  0  0  0  0  0  0
  -27.5390  -32.6320   25.7640 C   0  0  0  0  0  1  0  0  0  0  0  0
  1 48  1  0
  1  3  1  0
  3  4  1  1
  3  2  1  0
  5  6  1  0
  5  3  1  0
  6 15  2  3
  7 15  1  0
  8 13  1  0
  9 10  1  0
  9  8  1  0
 11 10  1  0
 11 20  1  0
 11 12  1  0
 13  7  1  0
 13 12  1  0
 14  7  2  0
 15 16  1  0
 17 18  2  0
 18 37  1  0
 19 18  1  0
 19 22  1  0
 20 21  1  0
 20 17  1  0
 21 19  2  0
 22 23  1  0
 23 24  2  0
 25 28  1  0
 25 24  1  0
 26 25  2  0
 27 26  1  0
 27 22  2  0
 28 29  1  0
 29 30  1  0
 30 31  2  0
 32 31  1  0
 32 36  1  0
 33 32  2  0
 34 29  2  0
 34 33  1  0
 35 34  1  0
 37 38  1  0
 38 41  1  0
 38 40  1  0
 39 37  2  0
 42 43  1  0
 42 17  1  0
 44 42  1  0
 46 45  1  0
 46  6  1  0
 48 47  1  0
 49 50  1  0
 49 48  1  0
 51 62  2  0
 52 50  1  0
 52 57  1  0
 53 61  1  0
 53 63  1  0
 54 60  1  0
 54 56  1  0
 55 61  1  0
 56 57  2  0
 56 55  1  0
 58 52  2  0
 59 58  1  0
 59 54  2  0
 60 53  1  0
 61 51  1  0
 63 65  2  0
 64 63  1  0
 66 64  1  0
 67 76  2  0
 67 72  1  0
 68 64  1  0
 68 72  1  0
 69 68  1  0
 70 71  1  0
 70 69  1  0
 71 67  1  0
 72 73  2  0
 73 74  1  0
 75 74  2  0
 76 75  1  0
 77 51  1  0
 77 78  1  0
 77 87  1  0
 78 81  1  0
 79 83  1  0
 79 78  1  0
 80 79  2  0
 83 82  1  0
 85 83  1  0
 85 86  1  0
 85 84  1  0
 87 90  1  1
 87 88  1  0
 89 87  1  0
M  ISO  4   7 100  15 100  49 101  50 101
M  END
>  <TORSDO>  (88) 
F 22

>  <SCORE>  (88) 
-14.015

>  <name>  (88) 
87

>  <ligand_id>  (88) 
87

>  <original_smiles>  (88) 
[H]c1c([H])c([H])c2c(c1[H])C([H])([H])C([H])([H])C([H])([H])C2([H])N([H])C(=O)C1([H])N(C(=O)C([H])(N([H])C(=O)C([H])(N([H])C([H])([H])[H])C([H])([H])[H])C(C([H])([H])[H])(C([H])([H])[H])C([H])([H])[H])C([H])([H])c2c([H])c(OC([H])([H])C([H])(C([H])([H])[H])C([H])([H])[N+]([H])(C([H])([H])[H])C([H])([H])C([H])(N([H])C(=O)N3C([H])([H])C([H])([H])C([H])([H])C([H])(n4nc(-c5c([H])c([H])c(Oc6c([H])c([H])c(F)c([H])c6F)c([H])c5[H])c(C(=O)N([H])[H])c4N([H])[H])C3([H])[H])C([H])([H])C([H])([H])[H])c([H])c([H])c2C1([H])[H]

>  <smiles>  (88) 
[H]c1c([H])c([H])c2c(c1[H])C([H])([H])C([H])([H])C([H])([H])C2([H])N([H])C(=O)C1([H])N(C(=O)C([H])(N([H])C(=O)C([H])(N([H])C([H])([H])[H])C([H])([H])[H])C(C([H])([H])[H])(C([H])([H])[H])C([H])([H])[H])C([H])([H])c2c([H])c(OC([H])([H])C([H])(C([H])([H])[H])C([H])([H])[N+]([H])(C([H])([H])[H])C([H])([H])C([H])(N([H])C(=O)N3C([H])([H])C([H])([H])C([H])([H])C([H])(n4nc(-c5c([H])c([H])c(Oc6c([H])c([H])c(F)c([H])c6F)c([H])c5[H])c(C(=O)N([H])[H])c4N([H])[H])C3([H])[H])C([H])([H])C([H])([H])[H])c([H])c([H])c2C1([H])[H]

$$$$
88:0:0
     RDKit          3D

 96104  0  0  1  0  0  0  0  0999 V2000
  -30.0840  -22.2600   20.0040 N   0  0  1  0  0  4  0  0  0  0  0  0
  -29.2990  -21.8780   19.5010 H   0  0  0  0  0  0  0  0  0  0  0  0
  -32.4930  -22.9560   19.4550 C   0  0  0  0  0  1  0  0  0  0  0  0
  -30.7830  -22.7360   17.5950 C   0  0  0  0  0  1  0  0  0  0  0  0
  -31.1970  -22.2470   18.9940 C   0  0  0  0  0  3  0  0  0  0  0  0
  -30.7640  -21.7540   22.3300 C   0  0  0  0  0  2  0  0  0  0  0  0
  -30.3460  -21.2700   21.1410 C   0  0  0  0  0  0  0  0  0  0  0  0
  -30.6450  -14.5280   20.3540 C   0  0  0  0  0  0  0  0  0  0  0  0
  -30.3660  -12.3680   19.1780 C   0  0  0  0  0  2  0  0  0  0  0  0
  -29.4050  -12.5830   17.9890 C   0  0  0  0  0  2  0  0  0  0  0  0
  -27.9370  -12.4330   18.4330 C   0  0  0  0  0  2  0  0  0  0  0  0
  -27.6140  -13.2470   19.7140 C   0  0  0  0  0  3  0  0  0  0  0  0
  -28.6830  -13.0000   20.8030 C   0  0  0  0  0  2  0  0  0  0  0  0
  -29.9970  -13.3320   20.2270 N   0  0  0  0  0  0  0  0  0  0  0  0
  -31.7760  -14.7100   19.8880 O   0  0  0  0  0  0  0  0  0  0  0  0
  -28.9830  -19.1440   20.7570 C   0  0  0  0  0  3  0  0  0  0  0  0
  -28.9030  -17.7320   20.7170 C   0  0  0  0  0  3  0  0  0  0  0  0
  -30.2310  -19.7780   20.9600 C   0  0  0  0  0  0  0  0  0  0  0  0
  -31.3500  -18.9060   21.0540 C   0  0  0  0  0  0  0  0  0  0  0  0
  -30.0670  -16.9410   20.8500 C   0  0  0  0  0  0  0  0  0  0  0  0
  -32.7620  -19.4370   21.2140 C   0  0  0  0  0  1  0  0  0  0  0  0
  -31.2650  -17.5520   21.0020 N   0  0  0  0  0  0  0  0  0  0  0  0
  -29.8840  -15.5220   20.8730 N   0  0  0  0  0  0  0  0  0  0  0  0
  -28.9720  -15.2140   21.1680 H   0  0  0  0  0  0  0  0  0  0  0  0
  -25.2170  -13.8500   20.4330 C   0  0  0  0  0  0  0  0  0  0  0  0
  -24.1570  -13.0750   20.8190 C   0  0  0  0  0  0  0  0  0  0  0  0
  -24.6240  -11.7250   20.7920 C   0  0  0  0  0  0  0  0  0  0  0  0
  -26.2650  -12.9700   20.2020 N   0  0  0  0  0  0  0  0  0  0  0  0
  -25.9120  -11.6890   20.4730 N   0  0  0  0  0  0  0  0  0  0  0  0
  -23.9070  -10.4620   20.9970 C   0  0  0  0  0  0  0  0  0  0  0  0
  -24.3540   -9.4990   21.9280 C   0  0  0  0  0  3  0  0  0  0  0  0
  -23.6350   -8.2990   22.1190 C   0  0  0  0  0  3  0  0  0  0  0  0
  -22.4550   -8.0530   21.3760 C   0  0  0  0  0  0  0  0  0  0  0  0
  -22.0290   -9.0030   20.4330 C   0  0  0  0  0  3  0  0  0  0  0  0
  -22.7480  -10.1950   20.2400 C   0  0  0  0  0  3  0  0  0  0  0  0
  -21.7070   -6.9040   21.4770 O   0  0  0  0  0  0  0  0  0  0  0  0
  -21.6760   -6.1630   22.6310 C   0  0  0  0  0  0  0  0  0  0  0  0
  -21.2630   -6.7180   23.8620 C   0  0  0  0  0  3  0  0  0  0  0  0
  -21.1800   -5.9030   25.0080 C   0  0  0  0  0  3  0  0  0  0  0  0
  -21.5020   -4.5360   24.9260 C   0  0  0  0  0  0  0  0  0  0  0  0
  -21.9090   -3.9800   23.7000 C   0  0  0  0  0  3  0  0  0  0  0  0
  -21.9930   -4.7920   22.5550 C   0  0  0  0  0  0  0  0  0  0  0  0
  -22.3660   -4.2480   21.3720 F   0  0  0  0  0  0  0  0  0  0  0  0
  -21.4150   -3.7510   26.0260 F   0  0  0  0  0  0  0  0  0  0  0  0
  -22.7600  -13.5470   21.0990 C   0  0  0  0  0  0  0  0  0  0  0  0
  -22.0410  -12.8510   21.9730 N   0  0  0  0  0  0  0  0  0  0  0  0
  -22.3130  -14.5680   20.5790 O   0  0  0  0  0  0  0  0  0  0  0  0
  -22.4130  -12.0220   22.4140 H   0  0  0  0  0  0  0  0  0  0  0  0
  -21.1030  -13.1510   22.2050 H   0  0  0  0  0  0  0  0  0  0  0  0
  -25.3750  -15.2180   20.2390 N   0  0  0  0  0  0  0  0  0  0  0  0
  -24.5970  -15.8630   20.3250 H   0  0  0  0  0  0  0  0  0  0  0  0
  -26.1930  -15.6420   19.8220 H   0  0  0  0  0  0  0  0  0  0  0  0
  -29.6070  -23.6430   20.3930 C   0  0  0  0  0  2  0  0  0  0  0  0
  -28.5100  -24.2740   19.4800 C   0  0  0  0  0  2  0  0  0  0  0  0
  -28.6930  -25.7750   19.1030 C   0  0  0  0  0  2  0  0  0  0  0  0
  -28.4250  -26.7370   20.1420 O   0  0  0  0  0  0  0  0  0  0  0  0
  -24.5760  -31.8850   23.2410 C   0  0  0  0  0  0  0  0  0  0  0  0
  -27.2340  -27.4460   20.1370 C   0  0  0  0  0  0  0  0  0  0  0  0
  -23.3680  -30.4850   21.6000 C   0  0  0  0  0  3  0  0  0  0  0  0
  -24.8250  -28.9550   20.1650 C   0  0  0  0  0  0  0  0  0  0  0  0
  -25.8910  -30.8480   21.3970 C   0  0  0  0  0  2  0  0  0  0  0  0
  -25.9820  -29.4730   20.7600 C   0  0  0  0  0  0  0  0  0  0  0  0
  -27.1790  -28.7190   20.7600 C   0  0  0  0  0  3  0  0  0  0  0  0
  -26.0490  -26.9420   19.5480 C   0  0  0  0  0  3  0  0  0  0  0  0
  -24.8530  -27.6850   19.5650 C   0  0  0  0  0  3  0  0  0  0  0  0
  -23.5770  -29.8100   20.2170 C   0  0  0  0  0  2  0  0  0  0  0  0
  -24.6300  -31.0870   22.1380 N   0  0  0  0  0  0  0  0  0  0  0  0
  -23.4980  -32.1550   23.7870 O   0  0  0  0  0  0  0  0  0  0  0  0
  -22.7210  -29.4590   22.5580 C   0  0  0  0  0  0  0  0  0  0  0  0
  -21.3980  -29.2720   22.4300 N   0  0  0  0  0  0  0  0  0  0  0  0
  -23.4060  -28.8300   23.3690 O   0  0  0  0  0  0  0  0  0  0  0  0
  -20.9050  -29.8300   21.7500 H   0  0  0  0  0  0  0  0  0  0  0  0
  -18.0260  -28.0800   22.9240 C   0  0  0  0  0  0  0  0  0  0  0  0
  -20.5830  -28.3300   23.1960 C   0  0  0  0  0  3  0  0  0  0  0  0
  -20.6850  -26.9020   22.6100 C   0  0  0  0  0  2  0  0  0  0  0  0
  -19.5810  -26.5930   21.5940 C   0  0  0  0  0  2  0  0  0  0  0  0
  -18.2000  -26.7350   22.2410 C   0  0  0  0  0  2  0  0  0  0  0  0
  -19.1470  -28.8380   23.3560 C   0  0  0  0  0  0  0  0  0  0  0  0
  -18.9330  -30.1010   23.9480 C   0  0  0  0  0  3  0  0  0  0  0  0
  -17.6310  -30.6070   24.1150 C   0  0  0  0  0  3  0  0  0  0  0  0
  -16.5230  -29.8450   23.7010 C   0  0  0  0  0  3  0  0  0  0  0  0
  -16.7220  -28.5850   23.1090 C   0  0  0  0  0  3  0  0  0  0  0  0
  -25.8660  -32.5130   23.8550 C   0  0  0  0  0  3  0  0  0  0  0  0
  -25.5630  -33.9130   24.1800 N   0  0  0  0  0  0  0  0  0  0  0  0
  -25.9050  -34.9610   23.4200 C   0  0  0  0  0  0  0  0  0  0  0  0
  -26.5810  -34.8540   22.3930 O   0  0  0  0  0  0  0  0  0  0  0  0
  -24.9510  -34.0690   24.9670 H   0  0  0  0  0  0  0  0  0  0  0  0
  -24.1850  -36.7610   23.0500 C   0  0  0  0  0  1  0  0  0  0  0  0
  -25.4180  -36.3520   23.8710 C   0  0  0  0  0  3  0  0  0  0  0  0
  -27.5480  -37.2310   24.7180 C   0  0  0  0  0  1  0  0  0  0  0  0
  -26.4530  -37.4030   23.7670 N   0  0  0  0  0  0  0  0  0  0  0  0
  -26.0480  -38.3220   23.9180 H   0  0  0  0  0  0  0  0  0  0  0  0
  -26.3840  -31.7420   25.1300 C   0  0  1  0  0  0  0  0  0  0  0  0
  -25.2920  -31.5110   26.1980 C   0  0  0  0  0  1  0  0  0  0  0  0
  -26.9620  -30.3630   24.7330 C   0  0  0  0  0  1  0  0  0  0  0  0
  -27.5310  -32.5360   25.7940 C   0  0  0  0  0  1  0  0  0  0  0  0
  1 53  1  0
  1  7  1  0
  1  2  1  6
  4  5  1  0
  5  3  1  0
  5  1  1  0
  7  6  2  0
  8 23  1  0
  9 14  1  0
 10 11  1  0
 10  9  1  0
 12 11  1  0
 12 28  1  0
 12 13  1  0
 14  8  1  0
 14 13  1  0
 15  8  2  0
 16 18  1  0
 17 16  2  0
 17 20  1  0
 18 19  2  0
 18  7  1  0
 19 21  1  0
 20 23  1  0
 20 22  2  0
 22 19  1  0
 23 24  1  0
 25 26  2  0
 26 45  1  0
 27 26  1  0
 27 30  1  0
 28 25  1  0
 28 29  1  0
 29 27  2  0
 30 31  1  0
 31 32  2  0
 33 36  1  0
 33 32  1  0
 34 33  2  0
 35 34  1  0
 35 30  2  0
 36 37  1  0
 37 38  1  0
 38 39  2  0
 40 39  1  0
 40 44  1  0
 41 40  2  0
 42 37  2  0
 42 41  1  0
 43 42  1  0
 45 46  1  0
 46 49  1  0
 46 48  1  0
 47 45  2  0
 50 51  1  0
 50 25  1  0
 52 50  1  0
 54 53  1  0
 55 54  1  0
 55 56  1  0
 57 68  2  0
 58 56  1  0
 58 63  1  0
 59 67  1  0
 59 69  1  0
 60 66  1  0
 60 62  1  0
 61 67  1  0
 62 63  2  0
 62 61  1  0
 64 65  1  0
 64 58  2  0
 65 60  2  0
 66 59  1  0
 67 57  1  0
 69 71  2  0
 70 69  1  0
 72 70  1  0
 73 82  2  0
 73 78  1  0
 74 70  1  0
 74 78  1  0
 75 74  1  0
 76 77  1  0
 76 75  1  0
 77 73  1  0
 78 79  2  0
 79 80  1  0
 81 80  2  0
 82 81  1  0
 83 57  1  0
 83 84  1  0
 83 93  1  0
 84 87  1  0
 85 89  1  0
 85 84  1  0
 86 85  2  0
 89 88  1  0
 91 89  1  0
 91 92  1  0
 91 90  1  0
 93 96  1  1
 93 94  1  0
 95 93  1  0
M  ISO  4   8 100  23 100  55 101  56 101
M  END
>  <TORSDO>  (89) 
F 21

>  <SCORE>  (89) 
-13.796

>  <name>  (89) 
88

>  <ligand_id>  (89) 
88

>  <original_smiles>  (89) 
[H]C([H])=C(c1c(C([H])([H])[H])nc(N([H])C(=O)N2C([H])([H])C([H])([H])C([H])([H])C([H])(n3nc(-c4c([H])c([H])c(Oc5c([H])c([H])c(F)c([H])c5F)c([H])c4[H])c(C(=O)N([H])[H])c3N([H])[H])C2([H])[H])c([H])c1[H])[N+]([H])(C([H])([H])C([H])([H])C([H])([H])Oc1c([H])c([H])c2c(c1[H])C([H])([H])N(C(=O)C([H])(N([H])C(=O)C([H])(N([H])C([H])([H])[H])C([H])([H])[H])C(C([H])([H])[H])(C([H])([H])[H])C([H])([H])[H])C([H])(C(=O)N([H])C1([H])c3c([H])c([H])c([H])c([H])c3C([H])([H])C([H])([H])C1([H])[H])C2([H])[H])C([H])(C([H])([H])[H])C([H])([H])[H]

>  <smiles>  (89) 
[H]C([H])=C(c1c(C([H])([H])[H])nc(N([H])C(=O)N2C([H])([H])C([H])([H])C([H])([H])C([H])(n3nc(-c4c([H])c([H])c(Oc5c([H])c([H])c(F)c([H])c5F)c([H])c4[H])c(C(=O)N([H])[H])c3N([H])[H])C2([H])[H])c([H])c1[H])[N+]([H])(C([H])([H])C([H])([H])C([H])([H])Oc1c([H])c([H])c2c(c1[H])C([H])([H])N(C(=O)C([H])(N([H])C(=O)C([H])(N([H])C([H])([H])[H])C([H])([H])[H])C(C([H])([H])[H])(C([H])([H])[H])C([H])([H])[H])C([H])(C(=O)N([H])C1([H])c3c([H])c([H])c([H])c([H])c3C([H])([H])C([H])([H])C1([H])[H])C2([H])[H])C([H])(C([H])([H])[H])C([H])([H])[H]

$$$$
89:0:0
     RDKit          3D

 96104  0  0  1  0  0  0  0  0999 V2000
  -29.2060  -22.0420   21.4480 C   0  0  0  0  0  3  0  0  0  0  0  0
  -28.5680  -20.5310   19.3310 C   0  0  0  0  0  3  0  0  0  0  0  0
  -29.6090  -20.6110   21.3760 C   0  0  0  0  0  0  0  0  0  0  0  0
  -29.2850  -19.6930   20.2860 C   0  0  0  0  0  0  0  0  0  0  0  0
  -28.4910  -22.7960   20.4320 C   0  0  0  0  0  0  0  0  0  0  0  0
  -28.1980  -21.9040   19.4020 N   0  0  0  0  0  0  0  0  0  0  0  0
  -29.9050  -18.0950   19.9400 C   0  0  0  0  0  2  0  0  0  0  0  0
  -30.2390  -15.2370   20.0720 C   0  0  0  0  0  0  0  0  0  0  0  0
  -30.1560  -12.8040   19.2090 C   0  0  0  0  0  2  0  0  0  0  0  0
  -29.1980  -12.6190   18.0060 C   0  0  0  0  0  2  0  0  0  0  0  0
  -27.7600  -12.3630   18.4910 C   0  0  0  0  0  2  0  0  0  0  0  0
  -27.3510  -13.3260   19.6340 C   0  0  0  0  0  3  0  0  0  0  0  0
  -28.4360  -13.4650   20.7240 C   0  0  0  0  0  2  0  0  0  0  0  0
  -29.6530  -13.9470   20.0520 N   0  0  0  0  0  0  0  0  0  0  0  0
  -31.4450  -15.2320   19.7920 O   0  0  0  0  0  0  0  0  0  0  0  0
  -29.5060  -16.5120   20.1910 N   0  0  0  0  0  0  0  0  0  0  0  0
  -28.5230  -16.3630   20.3610 H   0  0  0  0  0  0  0  0  0  0  0  0
  -24.9900  -13.8760   20.4230 C   0  0  0  0  0  0  0  0  0  0  0  0
  -23.9500  -13.0980   20.8490 C   0  0  0  0  0  0  0  0  0  0  0  0
  -24.4380  -11.7540   20.8520 C   0  0  0  0  0  0  0  0  0  0  0  0
  -26.0410  -13.0090   20.1860 N   0  0  0  0  0  0  0  0  0  0  0  0
  -25.7230  -11.7280   20.5110 N   0  0  0  0  0  0  0  0  0  0  0  0
  -23.7340  -10.4880   21.0980 C   0  0  0  0  0  0  0  0  0  0  0  0
  -24.2220   -9.5380   22.0230 C   0  0  0  0  0  3  0  0  0  0  0  0
  -23.5150   -8.3390   22.2580 C   0  0  0  0  0  3  0  0  0  0  0  0
  -22.3060   -8.0810   21.5700 C   0  0  0  0  0  0  0  0  0  0  0  0
  -21.8350   -9.0190   20.6340 C   0  0  0  0  0  3  0  0  0  0  0  0
  -22.5440  -10.2100   20.3970 C   0  0  0  0  0  3  0  0  0  0  0  0
  -21.5650   -6.9330   21.7160 O   0  0  0  0  0  0  0  0  0  0  0  0
  -21.6210   -6.1820   22.8620 C   0  0  0  0  0  0  0  0  0  0  0  0
  -21.2960   -6.7230   24.1250 C   0  0  0  0  0  3  0  0  0  0  0  0
  -21.3010   -5.8970   25.2670 C   0  0  0  0  0  3  0  0  0  0  0  0
  -21.6180   -4.5310   25.1480 C   0  0  0  0  0  0  0  0  0  0  0  0
  -21.9370   -3.9890   23.8900 C   0  0  0  0  0  3  0  0  0  0  0  0
  -21.9340   -4.8110   22.7510 C   0  0  0  0  0  0  0  0  0  0  0  0
  -22.2210   -4.2800   21.5380 F   0  0  0  0  0  0  0  0  0  0  0  0
  -21.6140   -3.7360   26.2430 F   0  0  0  0  0  0  0  0  0  0  0  0
  -22.5530  -13.5640   21.1330 C   0  0  0  0  0  0  0  0  0  0  0  0
  -21.8640  -12.9050   22.0580 N   0  0  0  0  0  0  0  0  0  0  0  0
  -22.0830  -14.5500   20.5670 O   0  0  0  0  0  0  0  0  0  0  0  0
  -22.2590  -12.1080   22.5340 H   0  0  0  0  0  0  0  0  0  0  0  0
  -20.9290  -13.2020   22.2930 H   0  0  0  0  0  0  0  0  0  0  0  0
  -25.1210  -15.2410   20.1820 N   0  0  0  0  0  0  0  0  0  0  0  0
  -24.3290  -15.8680   20.2630 H   0  0  0  0  0  0  0  0  0  0  0  0
  -25.9190  -15.6650   19.7320 H   0  0  0  0  0  0  0  0  0  0  0  0
  -30.4330  -20.0580   22.5270 C   0  0  0  0  0  2  0  0  0  0  0  0
  -29.5620  -19.7890   23.6800 N   0  0  0  0  0  4  0  0  0  0  0  0
  -28.7400  -19.3290   23.3270 H   0  0  0  0  0  0  0  0  0  0  0  0
  -29.2760  -20.6740   24.0660 H   0  0  0  0  0  0  0  0  0  0  0  0
  -30.1800  -18.9490   24.7280 C   0  0  0  0  0  2  0  0  0  0  0  0
  -30.0490  -17.9450   27.0270 C   0  0  0  0  0  1  0  0  0  0  0  0
  -29.2770  -20.2990   26.6890 C   0  0  0  0  0  1  0  0  0  0  0  0
  -27.9280  -18.3690   25.7820 C   0  0  0  0  0  1  0  0  0  0  0  0
  -29.3510  -18.9030   26.0400 C   0  0  1  0  0  0  0  0  0  0  0  0
  -27.6880  -24.3370   20.5790 C   0  0  0  0  0  2  0  0  0  0  0  0
  -28.1030  -25.9140   20.5620 O   0  0  0  0  0  0  0  0  0  0  0  0
  -24.6420  -31.9800   23.3700 C   0  0  0  0  0  0  0  0  0  0  0  0
  -27.1150  -27.0210   20.4660 C   0  0  0  0  0  0  0  0  0  0  0  0
  -23.4160  -30.5530   21.7830 C   0  0  0  0  0  3  0  0  0  0  0  0
  -24.8320  -28.9040   20.3900 C   0  0  0  0  0  0  0  0  0  0  0  0
  -25.9810  -30.7420   21.6030 C   0  0  0  0  0  2  0  0  0  0  0  0
  -26.0310  -29.3170   20.9860 C   0  0  0  0  0  0  0  0  0  0  0  0
  -27.1680  -28.3960   21.0020 C   0  0  0  0  0  3  0  0  0  0  0  0
  -25.8880  -26.7550   19.8140 C   0  0  0  0  0  3  0  0  0  0  0  0
  -24.7850  -27.6420   19.7820 C   0  0  0  0  0  3  0  0  0  0  0  0
  -23.6220  -29.8340   20.4230 C   0  0  0  0  0  2  0  0  0  0  0  0
  -24.7020  -31.1190   22.3040 N   0  0  0  0  0  0  0  0  0  0  0  0
  -23.5620  -32.2940   23.8960 O   0  0  0  0  0  0  0  0  0  0  0  0
  -22.7240  -29.5890   22.7820 C   0  0  0  0  0  0  0  0  0  0  0  0
  -21.4060  -29.3670   22.6200 N   0  0  0  0  0  0  0  0  0  0  0  0
  -23.3800  -29.0400   23.6710 O   0  0  0  0  0  0  0  0  0  0  0  0
  -20.9280  -29.8590   21.8790 H   0  0  0  0  0  0  0  0  0  0  0  0
  -18.0860  -27.9510   22.9850 C   0  0  0  0  0  0  0  0  0  0  0  0
  -20.5880  -28.4480   23.4200 C   0  0  0  0  0  3  0  0  0  0  0  0
  -20.8410  -26.9780   23.0110 C   0  0  0  0  0  2  0  0  0  0  0  0
  -19.8580  -26.4690   21.9530 C   0  0  0  0  0  2  0  0  0  0  0  0
  -18.4190  -26.5620   22.4670 C   0  0  0  0  0  2  0  0  0  0  0  0
  -19.1060  -28.8420   23.4170 C   0  0  0  0  0  0  0  0  0  0  0  0
  -18.7420  -30.1320   23.8610 C   0  0  0  0  0  3  0  0  0  0  0  0
  -17.3930  -30.5360   23.8760 C   0  0  0  0  0  3  0  0  0  0  0  0
  -16.3880  -29.6460   23.4590 C   0  0  0  0  0  3  0  0  0  0  0  0
  -16.7340  -28.3560   23.0190 C   0  0  0  0  0  3  0  0  0  0  0  0
  -25.9280  -32.6250   23.9700 C   0  0  0  0  0  3  0  0  0  0  0  0
  -25.6250  -34.0320   24.2820 N   0  0  0  0  0  0  0  0  0  0  0  0
  -26.0270  -35.0830   23.5560 C   0  0  0  0  0  0  0  0  0  0  0  0
  -26.7560  -34.9690   22.5670 O   0  0  0  0  0  0  0  0  0  0  0  0
  -24.9860  -34.1960   25.0470 H   0  0  0  0  0  0  0  0  0  0  0  0
  -24.3840  -36.9370   23.1000 C   0  0  0  0  0  1  0  0  0  0  0  0
  -25.5490  -36.4820   23.9960 C   0  0  0  0  0  3  0  0  0  0  0  0
  -27.6470  -37.2900   24.9850 C   0  0  0  0  0  1  0  0  0  0  0  0
  -26.6170  -37.5070   23.9730 N   0  0  0  0  0  0  0  0  0  0  0  0
  -26.2280  -38.4360   24.1100 H   0  0  0  0  0  0  0  0  0  0  0  0
  -26.4480  -31.8810   25.2620 C   0  0  1  0  0  0  0  0  0  0  0  0
  -25.3600  -31.6720   26.3420 C   0  0  0  0  0  1  0  0  0  0  0  0
  -27.0250  -30.4920   24.9070 C   0  0  0  0  0  1  0  0  0  0  0  0
  -27.6040  -32.6870   25.9000 C   0  0  0  0  0  1  0  0  0  0  0  0
  2  6  2  0
  2  4  1  0
  3  1  1  0
  3 46  1  0
  4  3  2  0
  5 55  1  0
  5  1  2  0
  6  5  1  0
  7 16  1  0
  7  4  1  0
  8 16  1  0
  9 14  1  0
 10 11  1  0
 10  9  1  0
 12 11  1  0
 12 21  1  0
 12 13  1  0
 14  8  1  0
 14 13  1  0
 15  8  2  0
 16 17  1  0
 18 19  2  0
 19 20  1  0
 19 38  1  0
 20 23  1  0
 21 18  1  0
 21 22  1  0
 22 20  2  0
 23 24  1  0
 24 25  2  0
 26 29  1  0
 26 25  1  0
 27 26  2  0
 28 27  1  0
 28 23  2  0
 29 30  1  0
 30 31  1  0
 31 32  2  0
 33 32  1  0
 33 37  1  0
 34 33  2  0
 35 30  2  0
 35 34  1  0
 36 35  1  0
 38 39  1  0
 39 42  1  0
 39 41  1  0
 40 38  2  0
 43 44  1  0
 43 18  1  0
 45 43  1  0
 46 47  1  0
 47 49  1  0
 47 50  1  0
 48 47  1  0
 50 54  1  0
 54 53  1  6
 54 52  1  0
 54 51  1  0
 56 55  1  0
 57 68  2  0
 58 56  1  0
 58 63  1  0
 59 67  1  0
 59 69  1  0
 60 66  1  0
 60 62  1  0
 61 67  1  0
 62 63  2  0
 62 61  1  0
 64 58  2  0
 65 64  1  0
 65 60  2  0
 66 59  1  0
 67 57  1  0
 69 71  2  0
 70 69  1  0
 72 70  1  0
 73 82  2  0
 73 78  1  0
 74 70  1  0
 75 74  1  0
 76 77  1  0
 76 75  1  0
 77 73  1  0
 78 74  1  0
 78 79  2  0
 79 80  1  0
 81 80  2  0
 82 81  1  0
 83 57  1  0
 83 84  1  0
 83 93  1  0
 84 87  1  0
 85 89  1  0
 85 84  1  0
 86 85  2  0
 89 88  1  0
 91 89  1  0
 91 92  1  0
 91 90  1  0
 93 96  1  1
 93 94  1  0
 95 93  1  0
M  ISO  4   8 100  16 100  55 101  56 101
M  END
>  <TORSDO>  (90) 
F 22

>  <SCORE>  (90) 
3.698

>  <name>  (90) 
89

>  <ligand_id>  (90) 
89

>  <original_smiles>  (90) 
[H]c1nc(C([H])([H])Oc2c([H])c([H])c3c(c2[H])C([H])([H])N(C(=O)C([H])(N([H])C(=O)C([H])(N([H])C([H])([H])[H])C([H])([H])[H])C(C([H])([H])[H])(C([H])([H])[H])C([H])([H])[H])C([H])(C(=O)N([H])C2([H])c4c([H])c([H])c([H])c([H])c4C([H])([H])C([H])([H])C2([H])[H])C3([H])[H])c([H])c(C([H])([H])[N+]([H])([H])C([H])([H])C(C([H])([H])[H])(C([H])([H])[H])C([H])([H])[H])c1C([H])([H])N([H])C(=O)N1C([H])([H])C([H])([H])C([H])([H])C([H])(n2nc(-c3c([H])c([H])c(Oc4c([H])c([H])c(F)c([H])c4F)c([H])c3[H])c(C(=O)N([H])[H])c2N([H])[H])C1([H])[H]

>  <smiles>  (90) 
[H]c1nc(C([H])([H])Oc2c([H])c([H])c3c(c2[H])C([H])([H])N(C(=O)C([H])(N([H])C(=O)C([H])(N([H])C([H])([H])[H])C([H])([H])[H])C(C([H])([H])[H])(C([H])([H])[H])C([H])([H])[H])C([H])(C(=O)N([H])C2([H])c4c([H])c([H])c([H])c([H])c4C([H])([H])C([H])([H])C2([H])[H])C3([H])[H])c([H])c(C([H])([H])[N+]([H])([H])C([H])([H])C(C([H])([H])[H])(C([H])([H])[H])C([H])([H])[H])c1C([H])([H])N([H])C(=O)N1C([H])([H])C([H])([H])C([H])([H])C([H])(n2nc(-c3c([H])c([H])c(Oc4c([H])c([H])c(F)c([H])c4F)c([H])c3[H])c(C(=O)N([H])[H])c2N([H])[H])C1([H])[H]

$$$$
90:0:0
     RDKit          3D

 93101  0  0  1  0  0  0  0  0999 V2000
  -29.5810  -20.1780   21.5430 C   0  0  0  0  0  3  0  0  0  0  0  0
  -31.6870  -20.0800   19.8030 C   0  0  0  0  0  3  0  0  0  0  0  0
  -31.3880  -18.9060   20.5260 C   0  0  0  0  0  0  0  0  0  0  0  0
  -30.3120  -18.9720   21.4570 C   0  0  0  0  0  0  0  0  0  0  0  0
  -29.9540  -21.2850   20.7610 C   0  0  0  0  0  0  0  0  0  0  0  0
  -29.9330  -17.8490   22.4130 C   0  0  0  0  0  1  0  0  0  0  0  0
  -30.9980  -21.2400   19.9100 N   0  0  0  0  0  0  0  0  0  0  0  0
  -32.2860  -17.7330   20.3060 C   0  0  0  0  0  0  0  0  0  0  0  0
  -33.4490  -17.8520   19.9160 O   0  0  0  0  0  0  0  0  0  0  0  0
  -31.7060  -16.3190   20.4080 C   0  0  0  0  0  2  0  0  0  0  0  0
  -32.5930  -14.4470   19.0490 C   0  0  0  0  0  0  0  0  0  0  0  0
  -32.1070  -12.0600   18.6810 C   0  0  0  0  0  2  0  0  0  0  0  0
  -31.0440  -11.9180   17.5730 C   0  0  0  0  0  2  0  0  0  0  0  0
  -29.6190  -12.0260   18.1540 C   0  0  0  0  0  2  0  0  0  0  0  0
  -29.4460  -13.2320   19.1150 C   0  0  0  0  0  3  0  0  0  0  0  0
  -30.6090  -13.2930   20.1300 C   0  0  0  0  0  2  0  0  0  0  0  0
  -31.8690  -13.3380   19.3690 N   0  0  0  0  0  0  0  0  0  0  0  0
  -33.6340  -14.4090   18.3960 O   0  0  0  0  0  0  0  0  0  0  0  0
  -31.9650  -15.6210   19.1550 N   0  0  0  0  0  0  0  0  0  0  0  0
  -32.3250  -16.2700   18.4700 H   0  0  0  0  0  0  0  0  0  0  0  0
  -27.3690  -14.2510   20.2480 C   0  0  0  0  0  0  0  0  0  0  0  0
  -26.2180  -13.6830   20.7240 C   0  0  0  0  0  0  0  0  0  0  0  0
  -26.3560  -12.2750   20.5180 C   0  0  0  0  0  0  0  0  0  0  0  0
  -28.1460  -13.2010   19.7830 N   0  0  0  0  0  0  0  0  0  0  0  0
  -27.5450  -12.0020   20.0000 N   0  0  0  0  0  0  0  0  0  0  0  0
  -25.4000  -11.1790   20.7310 C   0  0  0  0  0  0  0  0  0  0  0  0
  -25.6660  -10.1410   21.6500 C   0  0  0  0  0  3  0  0  0  0  0  0
  -24.7300   -9.1040   21.8490 C   0  0  0  0  0  3  0  0  0  0  0  0
  -23.5110   -9.1010   21.1300 C   0  0  0  0  0  0  0  0  0  0  0  0
  -23.2600  -10.1260   20.2010 C   0  0  0  0  0  3  0  0  0  0  0  0
  -24.1960  -11.1540   19.9990 C   0  0  0  0  0  3  0  0  0  0  0  0
  -22.5530   -8.1200   21.2400 O   0  0  0  0  0  0  0  0  0  0  0  0
  -22.2490   -7.5420   22.4470 C   0  0  0  0  0  0  0  0  0  0  0  0
  -21.7830   -8.3030   23.5410 C   0  0  0  0  0  3  0  0  0  0  0  0
  -21.4150   -7.6600   24.7390 C   0  0  0  0  0  3  0  0  0  0  0  0
  -21.5040   -6.2590   24.8450 C   0  0  0  0  0  0  0  0  0  0  0  0
  -21.9640   -5.4980   23.7550 C   0  0  0  0  0  3  0  0  0  0  0  0
  -22.3330   -6.1390   22.5590 C   0  0  0  0  0  0  0  0  0  0  0  0
  -22.7530   -5.3990   21.5050 F   0  0  0  0  0  0  0  0  0  0  0  0
  -21.1430   -5.6430   25.9950 F   0  0  0  0  0  0  0  0  0  0  0  0
  -25.0140  -14.4050   21.2580 C   0  0  0  0  0  0  0  0  0  0  0  0
  -24.3090  -13.8010   22.2080 N   0  0  0  0  0  0  0  0  0  0  0  0
  -24.7210  -15.5350   20.8660 O   0  0  0  0  0  0  0  0  0  0  0  0
  -24.5610  -12.8830   22.5420 H   0  0  0  0  0  0  0  0  0  0  0  0
  -23.5040  -14.2640   22.6040 H   0  0  0  0  0  0  0  0  0  0  0  0
  -27.8140  -15.5660   20.1500 N   0  0  0  0  0  0  0  0  0  0  0  0
  -27.2550  -16.3570   20.4530 H   0  0  0  0  0  0  0  0  0  0  0  0
  -28.6890  -15.8410   19.7240 H   0  0  0  0  0  0  0  0  0  0  0  0
  -29.2780  -22.6400   20.9390 C   0  0  0  0  0  2  0  0  0  0  0  0
  -28.8330  -23.3380   19.6340 C   0  0  0  0  0  2  0  0  0  0  0  0
  -28.4080  -24.8040   19.8810 C   0  0  0  0  0  2  0  0  0  0  0  0
  -28.2830  -25.6530   18.6040 C   0  0  0  0  0  2  0  0  0  0  0  0
  -28.1760  -27.0400   18.9450 O   0  0  0  0  0  0  0  0  0  0  0  0
  -24.5200  -31.4930   23.1110 C   0  0  0  0  0  0  0  0  0  0  0  0
  -26.9480  -27.6200   19.1910 C   0  0  0  0  0  0  0  0  0  0  0  0
  -23.1790  -30.2360   21.4550 C   0  0  0  0  0  3  0  0  0  0  0  0
  -24.5060  -28.9690   19.6870 C   0  0  0  0  0  0  0  0  0  0  0  0
  -25.6480  -30.7520   21.0160 C   0  0  0  0  0  2  0  0  0  0  0  0
  -25.7040  -29.4830   20.1940 C   0  0  0  0  0  0  0  0  0  0  0  0
  -26.9230  -28.8190   19.9390 C   0  0  0  0  0  3  0  0  0  0  0  0
  -25.7230  -27.1060   18.7010 C   0  0  0  0  0  3  0  0  0  0  0  0
  -24.5100  -27.7780   18.9430 C   0  0  0  0  0  3  0  0  0  0  0  0
  -23.2430  -29.7450   19.9830 C   0  0  0  0  0  2  0  0  0  0  0  0
  -24.4720  -30.8380   21.9160 N   0  0  0  0  0  0  0  0  0  0  0  0
  -23.5040  -31.6350   23.8040 O   0  0  0  0  0  0  0  0  0  0  0  0
  -22.6990  -29.0680   22.3450 C   0  0  0  0  0  0  0  0  0  0  0  0
  -21.4280  -28.6670   22.1700 N   0  0  0  0  0  0  0  0  0  0  0  0
  -23.4640  -28.5270   23.1470 O   0  0  0  0  0  0  0  0  0  0  0  0
  -20.8650  -29.1680   21.4960 H   0  0  0  0  0  0  0  0  0  0  0  0
  -18.3860  -26.7270   22.3290 C   0  0  0  0  0  0  0  0  0  0  0  0
  -20.7690  -27.5670   22.8720 C   0  0  0  0  0  3  0  0  0  0  0  0
  -21.2610  -26.1980   22.3440 C   0  0  0  0  0  2  0  0  0  0  0  0
  -20.3820  -25.6330   21.2230 C   0  0  0  0  0  2  0  0  0  0  0  0
  -18.9410  -25.4550   21.7080 C   0  0  0  0  0  2  0  0  0  0  0  0
  -19.2450  -27.7240   22.8600 C   0  0  0  0  0  0  0  0  0  0  0  0
  -18.6790  -28.9030   23.3920 C   0  0  0  0  0  3  0  0  0  0  0  0
  -17.2850  -29.0920   23.4030 C   0  0  0  0  0  3  0  0  0  0  0  0
  -16.4370  -28.0930   22.8910 C   0  0  0  0  0  3  0  0  0  0  0  0
  -16.9880  -26.9130   22.3610 C   0  0  0  0  0  3  0  0  0  0  0  0
  -25.8470  -32.1150   23.6490 C   0  0  0  0  0  3  0  0  0  0  0  0
  -25.5470  -33.4850   24.0850 N   0  0  0  0  0  0  0  0  0  0  0  0
  -25.8200  -34.5870   23.3740 C   0  0  0  0  0  0  0  0  0  0  0  0
  -26.4280  -34.5570   22.3000 O   0  0  0  0  0  0  0  0  0  0  0  0
  -25.0060  -33.5820   24.9320 H   0  0  0  0  0  0  0  0  0  0  0  0
  -24.0710  -36.3840   23.2110 C   0  0  0  0  0  1  0  0  0  0  0  0
  -25.3450  -35.9370   23.9450 C   0  0  0  0  0  3  0  0  0  0  0  0
  -27.5060  -36.7780   24.7520 C   0  0  0  0  0  1  0  0  0  0  0  0
  -26.3680  -37.0020   23.8640 N   0  0  0  0  0  0  0  0  0  0  0  0
  -25.9650  -37.9090   24.0900 H   0  0  0  0  0  0  0  0  0  0  0  0
  -26.4920  -31.2850   24.8270 C   0  0  1  0  0  0  0  0  0  0  0  0
  -25.4930  -30.9240   25.9510 C   0  0  0  0  0  1  0  0  0  0  0  0
  -27.1020  -29.9670   24.2970 C   0  0  0  0  0  1  0  0  0  0  0  0
  -27.6540  -32.0880   25.4580 C   0  0  0  0  0  1  0  0  0  0  0  0
  2  7  2  0
  2  3  1  0
  3  4  2  0
  4  1  1  0
  4  6  1  0
  5 49  1  0
  5  1  2  0
  7  5  1  0
  8 10  1  0
  8  3  1  0
  9  8  2  0
 11 19  1  0
 11 17  1  0
 12 17  1  0
 13 14  1  0
 13 12  1  0
 15 14  1  0
 15 24  1  0
 15 16  1  0
 17 16  1  0
 18 11  2  0
 19 10  1  0
 20 19  1  0
 21 22  2  0
 22 41  1  0
 23 22  1  0
 23 26  1  0
 24 25  1  0
 24 21  1  0
 25 23  2  0
 26 27  1  0
 27 28  2  0
 29 32  1  0
 29 28  1  0
 30 29  2  0
 31 30  1  0
 31 26  2  0
 32 33  1  0
 33 38  2  0
 33 34  1  0
 34 35  2  0
 35 36  1  0
 36 40  1  0
 37 36  2  0
 38 37  1  0
 39 38  1  0
 41 42  1  0
 42 44  1  0
 42 45  1  0
 43 41  2  0
 46 21  1  0
 46 47  1  0
 48 46  1  0
 50 51  1  0
 50 49  1  0
 52 53  1  0
 52 51  1  0
 53 55  1  0
 54 65  2  0
 55 60  1  0
 56 64  1  0
 56 66  1  0
 57 63  1  0
 57 59  1  0
 58 64  1  0
 59 58  1  0
 60 59  2  0
 61 62  1  0
 61 55  2  0
 62 57  2  0
 63 56  1  0
 64 54  1  0
 66 68  2  0
 67 66  1  0
 69 67  1  0
 70 79  2  0
 70 75  1  0
 71 67  1  0
 72 71  1  0
 73 74  1  0
 73 72  1  0
 74 70  1  0
 75 71  1  0
 75 76  2  0
 76 77  1  0
 78 77  2  0
 79 78  1  0
 80 54  1  0
 80 81  1  0
 80 90  1  0
 81 84  1  0
 82 86  1  0
 82 81  1  0
 83 82  2  0
 86 85  1  0
 88 86  1  0
 88 89  1  0
 88 87  1  0
 90 93  1  1
 90 91  1  0
 92 90  1  0
M  ISO  4  11 100  19 100  52 101  53 101
M  END
>  <TORSDO>  (91) 
F 22

>  <SCORE>  (91) 
-9.010

>  <name>  (91) 
90

>  <ligand_id>  (91) 
90

>  <original_smiles>  (91) 
[H]c1nc(C([H])([H])C([H])([H])C([H])([H])C([H])([H])Oc2c([H])c([H])c3c(c2[H])C([H])([H])N(C(=O)C([H])(N([H])C(=O)C([H])(N([H])C([H])([H])[H])C([H])([H])[H])C(C([H])([H])[H])(C([H])([H])[H])C([H])([H])[H])C([H])(C(=O)N([H])C2([H])c4c([H])c([H])c([H])c([H])c4C([H])([H])C([H])([H])C2([H])[H])C3([H])[H])c([H])c(C([H])([H])[H])c1C(=O)C([H])([H])N([H])C(=O)N1C([H])([H])C([H])([H])C([H])([H])C([H])(n2nc(-c3c([H])c([H])c(Oc4c([H])c([H])c(F)c([H])c4F)c([H])c3[H])c(C(=O)N([H])[H])c2N([H])[H])C1([H])[H]

>  <smiles>  (91) 
[H]c1nc(C([H])([H])C([H])([H])C([H])([H])C([H])([H])Oc2c([H])c([H])c3c(c2[H])C([H])([H])N(C(=O)C([H])(N([H])C(=O)C([H])(N([H])C([H])([H])[H])C([H])([H])[H])C(C([H])([H])[H])(C([H])([H])[H])C([H])([H])[H])C([H])(C(=O)N([H])C2([H])c4c([H])c([H])c([H])c([H])c4C([H])([H])C([H])([H])C2([H])[H])C3([H])[H])c([H])c(C([H])([H])[H])c1C(=O)C([H])([H])N([H])C(=O)N1C([H])([H])C([H])([H])C([H])([H])C([H])(n2nc(-c3c([H])c([H])c(Oc4c([H])c([H])c(F)c([H])c4F)c([H])c3[H])c(C(=O)N([H])[H])c2N([H])[H])C1([H])[H]

$$$$
91:0:0
     RDKit          3D

 94102  0  0  1  0  0  0  0  0999 V2000
  -28.8180  -23.5980   20.6600 C   0  0  0  0  0  3  0  0  0  0  0  0
  -29.7400  -24.1050   22.9470 C   0  0  0  0  0  1  0  0  0  0  0  0
  -28.5790  -23.7190   22.1220 N   0  0  0  0  0  4  0  0  0  0  0  0
  -27.8790  -24.4330   22.2520 H   0  0  0  0  0  0  0  0  0  0  0  0
  -28.1760  -22.8710   22.4850 H   0  0  0  0  0  0  0  0  0  0  0  0
  -27.9990  -24.8510   19.9790 C   0  0  0  0  0  2  0  0  0  0  0  0
  -28.2450  -26.3280   20.3010 O   0  0  0  0  0  0  0  0  0  0  0  0
  -24.6080  -31.9210   23.2330 C   0  0  0  0  0  0  0  0  0  0  0  0
  -27.1890  -27.2790   20.1900 C   0  0  0  0  0  0  0  0  0  0  0  0
  -23.4080  -30.5250   21.5940 C   0  0  0  0  0  3  0  0  0  0  0  0
  -24.8570  -28.9790   20.1510 C   0  0  0  0  0  0  0  0  0  0  0  0
  -25.9560  -30.8110   21.4300 C   0  0  0  0  0  2  0  0  0  0  0  0
  -26.0290  -29.4330   20.7690 C   0  0  0  0  0  0  0  0  0  0  0  0
  -27.1970  -28.5960   20.7790 C   0  0  0  0  0  3  0  0  0  0  0  0
  -26.0040  -26.9240   19.5040 C   0  0  0  0  0  3  0  0  0  0  0  0
  -24.8540  -27.7370   19.5030 C   0  0  0  0  0  3  0  0  0  0  0  0
  -23.6250  -29.8650   20.2070 C   0  0  0  0  0  2  0  0  0  0  0  0
  -24.6750  -31.1080   22.1380 N   0  0  0  0  0  0  0  0  0  0  0  0
  -23.5220  -32.1980   23.7660 O   0  0  0  0  0  0  0  0  0  0  0  0
  -22.7460  -29.5010   22.5510 C   0  0  0  0  0  0  0  0  0  0  0  0
  -21.4200  -29.3140   22.4230 N   0  0  0  0  0  0  0  0  0  0  0  0
  -23.4260  -28.8810   23.3720 O   0  0  0  0  0  0  0  0  0  0  0  0
  -20.9290  -29.8660   21.7350 H   0  0  0  0  0  0  0  0  0  0  0  0
  -18.0500  -28.0950   22.9280 C   0  0  0  0  0  0  0  0  0  0  0  0
  -20.6060  -28.3740   23.1960 C   0  0  0  0  0  3  0  0  0  0  0  0
  -20.7180  -26.9410   22.6270 C   0  0  0  0  0  2  0  0  0  0  0  0
  -19.6200  -26.6080   21.6130 C   0  0  0  0  0  2  0  0  0  0  0  0
  -18.2360  -26.7460   22.2540 C   0  0  0  0  0  2  0  0  0  0  0  0
  -19.1630  -28.8670   23.3550 C   0  0  0  0  0  0  0  0  0  0  0  0
  -18.9340  -30.1270   23.9480 C   0  0  0  0  0  3  0  0  0  0  0  0
  -17.6250  -30.6180   24.1120 C   0  0  0  0  0  3  0  0  0  0  0  0
  -16.5270  -29.8450   23.6990 C   0  0  0  0  0  3  0  0  0  0  0  0
  -16.7400  -28.5850   23.1130 C   0  0  0  0  0  3  0  0  0  0  0  0
  -25.8870  -32.5600   23.8520 C   0  0  0  0  0  3  0  0  0  0  0  0
  -25.5770  -33.9640   24.1610 N   0  0  0  0  0  0  0  0  0  0  0  0
  -25.8900  -35.0060   23.3800 C   0  0  0  0  0  0  0  0  0  0  0  0
  -26.5390  -34.8880   22.3370 O   0  0  0  0  0  0  0  0  0  0  0  0
  -25.0000  -34.1290   24.9730 H   0  0  0  0  0  0  0  0  0  0  0  0
  -24.1370  -36.7810   23.0520 C   0  0  0  0  0  1  0  0  0  0  0  0
  -25.4070  -36.4010   23.8270 C   0  0  0  0  0  3  0  0  0  0  0  0
  -27.5590  -37.3220   24.5700 C   0  0  0  0  0  1  0  0  0  0  0  0
  -26.4270  -37.4590   23.6570 N   0  0  0  0  0  0  0  0  0  0  0  0
  -26.0190  -38.3790   23.7940 H   0  0  0  0  0  0  0  0  0  0  0  0
  -26.3950  -31.8110   25.1450 C   0  0  1  0  0  0  0  0  0  0  0  0
  -25.2960  -31.6020   26.2130 C   0  0  0  0  0  1  0  0  0  0  0  0
  -26.9730  -30.4220   24.7910 C   0  0  0  0  0  1  0  0  0  0  0  0
  -27.5450  -32.6140   25.7950 C   0  0  0  0  0  1  0  0  0  0  0  0
  -28.5700  -22.0180   20.1840 C   0  0  0  0  0  3  0  0  0  0  0  0
  -27.3370  -21.5780   20.7500 O   0  0  0  0  0  0  0  0  0  0  0  0
  -27.4870  -21.1220   21.5730 H   0  0  0  0  0  0  0  0  0  0  0  0
  -29.6920  -20.8290   20.4110 C   0  0  0  0  0  2  0  0  0  0  0  0
  -30.7710  -14.9220   19.9980 C   0  0  0  0  0  0  0  0  0  0  0  0
  -30.5010  -12.6080   19.0670 C   0  0  0  0  0  2  0  0  0  0  0  0
  -29.5250  -12.6130   17.8730 C   0  0  0  0  0  2  0  0  0  0  0  0
  -28.0730  -12.4430   18.3590 C   0  0  0  0  0  2  0  0  0  0  0  0
  -27.7350  -13.3580   19.5670 C   0  0  0  0  0  3  0  0  0  0  0  0
  -28.8410  -13.3470   20.6420 C   0  0  0  0  0  2  0  0  0  0  0  0
  -30.0910  -13.7150   19.9690 N   0  0  0  0  0  0  0  0  0  0  0  0
  -31.9640  -14.8970   19.6810 O   0  0  0  0  0  0  0  0  0  0  0  0
  -29.0530  -16.7780   20.7540 C   0  0  0  0  0  2  0  0  0  0  0  0
  -30.4730  -17.1780   18.8490 C   0  0  0  0  0  2  0  0  0  0  0  0
  -29.1050  -18.3570   21.0840 C   0  0  0  0  0  2  0  0  0  0  0  0
  -30.6370  -18.6990   19.2830 C   0  0  0  0  0  2  0  0  0  0  0  0
  -30.0960  -16.1610   19.8820 N   0  0  0  0  0  0  0  0  0  0  0  0
  -29.4700  -19.3310   19.9860 N   0  0  2  0  0  4  0  0  0  0  0  0
  -28.7100  -19.3420   19.3250 H   0  0  0  0  0  0  0  0  0  0  0  0
  -25.4000  -13.9390   20.4470 C   0  0  0  0  0  0  0  0  0  0  0  0
  -24.3500  -13.1640   20.8500 C   0  0  0  0  0  0  0  0  0  0  0  0
  -24.7980  -11.8100   20.7580 C   0  0  0  0  0  0  0  0  0  0  0  0
  -26.4210  -13.0580   20.1260 N   0  0  0  0  0  0  0  0  0  0  0  0
  -26.0700  -11.7700   20.3780 N   0  0  0  0  0  0  0  0  0  0  0  0
  -24.0680  -10.5490   20.9470 C   0  0  0  0  0  0  0  0  0  0  0  0
  -24.5030   -9.5790   21.8780 C   0  0  0  0  0  3  0  0  0  0  0  0
  -23.7740   -8.3840   22.0580 C   0  0  0  0  0  3  0  0  0  0  0  0
  -22.5960   -8.1520   21.3100 C   0  0  0  0  0  0  0  0  0  0  0  0
  -22.1790   -9.1120   20.3690 C   0  0  0  0  0  3  0  0  0  0  0  0
  -22.9090  -10.2980   20.1870 C   0  0  0  0  0  3  0  0  0  0  0  0
  -21.8350   -7.0100   21.4000 O   0  0  0  0  0  0  0  0  0  0  0  0
  -21.7380   -6.3010   22.5700 C   0  0  0  0  0  0  0  0  0  0  0  0
  -21.2410   -6.8850   23.7570 C   0  0  0  0  0  3  0  0  0  0  0  0
  -21.0950   -6.1020   24.9190 C   0  0  0  0  0  3  0  0  0  0  0  0
  -21.4310   -4.7350   24.8940 C   0  0  0  0  0  0  0  0  0  0  0  0
  -21.9170   -4.1490   23.7110 C   0  0  0  0  0  3  0  0  0  0  0  0
  -22.0670   -4.9300   22.5520 C   0  0  0  0  0  0  0  0  0  0  0  0
  -22.5180   -4.3580   21.4090 F   0  0  0  0  0  0  0  0  0  0  0  0
  -21.2810   -3.9790   26.0070 F   0  0  0  0  0  0  0  0  0  0  0  0
  -22.9730  -13.6460   21.2020 C   0  0  0  0  0  0  0  0  0  0  0  0
  -22.2830  -12.9390   22.0890 N   0  0  0  0  0  0  0  0  0  0  0  0
  -22.5190  -14.6870   20.7270 O   0  0  0  0  0  0  0  0  0  0  0  0
  -22.6670  -12.1000   22.4970 H   0  0  0  0  0  0  0  0  0  0  0  0
  -21.3630  -13.2440   22.3700 H   0  0  0  0  0  0  0  0  0  0  0  0
  -25.5670  -15.3120   20.3020 N   0  0  0  0  0  0  0  0  0  0  0  0
  -24.8090  -15.9650   20.4720 H   0  0  0  0  0  0  0  0  0  0  0  0
  -26.3890  -15.7490   19.9110 H   0  0  0  0  0  0  0  0  0  0  0  0
  1  6  1  0
  1  3  1  0
  3  4  1  0
  3  5  1  0
  3  2  1  0
  6  7  1  0
  8 19  2  0
  9  7  1  0
  9 14  1  0
 10 18  1  0
 10 20  1  0
 11 17  1  0
 11 13  1  0
 12 18  1  0
 13 14  2  0
 13 12  1  0
 15  9  2  0
 16 15  1  0
 16 11  2  0
 17 10  1  0
 18  8  1  0
 20 22  2  0
 21 20  1  0
 23 21  1  0
 24 33  2  0
 24 29  1  0
 25 21  1  0
 25 29  1  0
 26 25  1  0
 27 28  1  0
 27 26  1  0
 28 24  1  0
 29 30  2  0
 30 31  1  0
 32 31  2  0
 33 32  1  0
 34  8  1  0
 34 35  1  0
 34 44  1  0
 35 38  1  0
 36 40  1  0
 36 35  1  0
 37 36  2  0
 40 39  1  0
 42 43  1  0
 42 40  1  0
 42 41  1  0
 44 47  1  1
 44 45  1  0
 46 44  1  0
 48 51  1  0
 48  1  1  0
 48 49  1  0
 49 50  1  0
 53 58  1  0
 54 55  1  0
 54 53  1  0
 56 55  1  0
 56 70  1  0
 56 57  1  0
 58 52  1  0
 58 57  1  0
 59 52  2  0
 60 62  1  0
 61 63  1  0
 61 64  1  0
 63 65  1  0
 64 52  1  0
 64 60  1  0
 65 51  1  0
 65 62  1  0
 65 66  1  6
 67 68  2  0
 68 87  1  0
 69 68  1  0
 69 72  1  0
 70 71  1  0
 70 67  1  0
 71 69  2  0
 72 73  1  0
 73 74  2  0
 75 78  1  0
 75 74  1  0
 76 75  2  0
 77 76  1  0
 77 72  2  0
 78 79  1  0
 79 80  1  0
 80 81  2  0
 82 81  1  0
 82 86  1  0
 83 82  2  0
 84 79  2  0
 84 83  1  0
 85 84  1  0
 87 88  1  0
 88 91  1  0
 88 90  1  0
 89 87  2  0
 92 67  1  0
 92 93  1  0
 94 92  1  0
M  ISO  4   6 101   7 101  52 100  64 100
M  END
>  <TORSDO>  (92) 
F 21

>  <SCORE>  (92) 
-13.652

>  <name>  (92) 
91

>  <ligand_id>  (92) 
91

>  <original_smiles>  (92) 
[H]OC([H])(C([H])(C([H])([H])Oc1c([H])c([H])c2c(c1[H])C([H])([H])N(C(=O)C([H])(N([H])C(=O)C([H])(N([H])C([H])([H])[H])C([H])([H])[H])C(C([H])([H])[H])(C([H])([H])[H])C([H])([H])[H])C([H])(C(=O)N([H])C1([H])c3c([H])c([H])c([H])c([H])c3C([H])([H])C([H])([H])C1([H])[H])C2([H])[H])[N+]([H])([H])C([H])([H])[H])C([H])([H])[N+]1([H])C([H])([H])C([H])([H])N(C(=O)N2C([H])([H])C([H])([H])C([H])([H])C([H])(n3nc(-c4c([H])c([H])c(Oc5c([H])c([H])c(F)c([H])c5F)c([H])c4[H])c(C(=O)N([H])[H])c3N([H])[H])C2([H])[H])C([H])([H])C1([H])[H]

>  <smiles>  (92) 
[H]OC([H])(C([H])(C([H])([H])Oc1c([H])c([H])c2c(c1[H])C([H])([H])N(C(=O)C([H])(N([H])C(=O)C([H])(N([H])C([H])([H])[H])C([H])([H])[H])C(C([H])([H])[H])(C([H])([H])[H])C([H])([H])[H])C([H])(C(=O)N([H])C1([H])c3c([H])c([H])c([H])c([H])c3C([H])([H])C([H])([H])C1([H])[H])C2([H])[H])[N+]([H])([H])C([H])([H])[H])C([H])([H])[N+]1([H])C([H])([H])C([H])([H])N(C(=O)N2C([H])([H])C([H])([H])C([H])([H])C([H])(n3nc(-c4c([H])c([H])c(Oc5c([H])c([H])c(F)c([H])c5F)c([H])c4[H])c(C(=O)N([H])[H])c3N([H])[H])C2([H])[H])C([H])([H])C1([H])[H]

$$$$
92:0:0
     RDKit          3D

 97105  0  0  1  0  0  0  0  0999 V2000
  -30.5790  -18.6730   21.7550 C   0  0  0  0  0  3  0  0  0  0  0  0
  -30.1500  -19.9320   22.0680 C   0  0  0  0  0  3  0  0  0  0  0  0
  -29.9480  -18.2610   20.5460 C   0  0  0  0  0  0  0  0  0  0  0  0
  -29.1030  -19.2990   20.1840 C   0  0  0  0  0  0  0  0  0  0  0  0
  -29.2340  -20.3430   21.1140 N   0  0  0  0  0  0  0  0  0  0  0  0
  -30.2480  -16.9610   19.7880 C   0  0  0  0  0  2  0  0  0  0  0  0
  -30.8830  -14.5950   20.2390 C   0  0  0  0  0  0  0  0  0  0  0  0
  -30.5680  -12.4130   19.1450 C   0  0  0  0  0  2  0  0  0  0  0  0
  -29.6110  -12.6270   17.9520 C   0  0  0  0  0  2  0  0  0  0  0  0
  -28.1430  -12.4980   18.4050 C   0  0  0  0  0  2  0  0  0  0  0  0
  -27.8320  -13.3350   19.6760 C   0  0  0  0  0  3  0  0  0  0  0  0
  -28.9060  -13.1200   20.7690 C   0  0  0  0  0  2  0  0  0  0  0  0
  -30.2200  -13.4060   20.1760 N   0  0  0  0  0  0  0  0  0  0  0  0
  -32.0330  -14.7300   19.8120 O   0  0  0  0  0  0  0  0  0  0  0  0
  -30.1130  -15.6740   20.5090 N   0  0  0  0  0  0  0  0  0  0  0  0
  -29.2060  -15.4770   20.9010 H   0  0  0  0  0  0  0  0  0  0  0  0
  -25.4560  -13.9570   20.4360 C   0  0  0  0  0  0  0  0  0  0  0  0
  -24.3880  -13.1950   20.8230 C   0  0  0  0  0  0  0  0  0  0  0  0
  -24.8350  -11.8390   20.7710 C   0  0  0  0  0  0  0  0  0  0  0  0
  -26.4860  -13.0680   20.1780 N   0  0  0  0  0  0  0  0  0  0  0  0
  -26.1170  -11.7880   20.4380 N   0  0  0  0  0  0  0  0  0  0  0  0
  -24.1000  -10.5820   20.9610 C   0  0  0  0  0  0  0  0  0  0  0  0
  -24.5280   -9.6100   21.8920 C   0  0  0  0  0  3  0  0  0  0  0  0
  -23.7940   -8.4180   22.0710 C   0  0  0  0  0  3  0  0  0  0  0  0
  -22.6190   -8.1890   21.3180 C   0  0  0  0  0  0  0  0  0  0  0  0
  -22.2100   -9.1490   20.3760 C   0  0  0  0  0  3  0  0  0  0  0  0
  -22.9440  -10.3330   20.1950 C   0  0  0  0  0  3  0  0  0  0  0  0
  -21.8570   -7.0490   21.4050 O   0  0  0  0  0  0  0  0  0  0  0  0
  -21.7920   -6.3150   22.5620 C   0  0  0  0  0  0  0  0  0  0  0  0
  -21.3280   -6.8720   23.7740 C   0  0  0  0  0  3  0  0  0  0  0  0
  -21.2120   -6.0640   24.9220 C   0  0  0  0  0  3  0  0  0  0  0  0
  -21.5500   -4.6980   24.8600 C   0  0  0  0  0  0  0  0  0  0  0  0
  -22.0060   -4.1400   23.6520 C   0  0  0  0  0  3  0  0  0  0  0  0
  -22.1230   -4.9460   22.5060 C   0  0  0  0  0  0  0  0  0  0  0  0
  -22.5440   -4.3980   21.3410 F   0  0  0  0  0  0  0  0  0  0  0  0
  -21.4310   -3.9190   25.9600 F   0  0  0  0  0  0  0  0  0  0  0  0
  -23.0010  -13.6840   21.1220 C   0  0  0  0  0  0  0  0  0  0  0  0
  -22.2810  -12.9860   21.9930 N   0  0  0  0  0  0  0  0  0  0  0  0
  -22.5670  -14.7200   20.6190 O   0  0  0  0  0  0  0  0  0  0  0  0
  -22.6470  -12.1470   22.4180 H   0  0  0  0  0  0  0  0  0  0  0  0
  -21.3500  -13.2950   22.2380 H   0  0  0  0  0  0  0  0  0  0  0  0
  -25.6320  -15.3260   20.2490 N   0  0  0  0  0  0  0  0  0  0  0  0
  -24.8080  -15.9180   20.2320 H   0  0  0  0  0  0  0  0  0  0  0  0
  -26.3680  -15.6380   19.6330 H   0  0  0  0  0  0  0  0  0  0  0  0
  -28.1510  -19.3980   19.0220 C   0  0  0  0  0  2  0  0  0  0  0  0
  -26.8260  -18.8700   19.3730 N   0  0  0  0  0  4  0  0  0  0  0  0
  -26.9070  -17.9290   19.7110 H   0  0  0  0  0  0  0  0  0  0  0  0
  -26.2260  -18.8780   18.5680 H   0  0  0  0  0  0  0  0  0  0  0  0
  -26.4010  -19.4250   20.0930 H   0  0  0  0  0  0  0  0  0  0  0  0
  -28.4960  -21.6280   21.1930 C   0  0  0  0  0  2  0  0  0  0  0  0
  -29.0240  -22.8410   20.3480 C   0  0  0  0  0  3  0  0  0  0  0  0
  -30.4340  -22.9040   20.5040 O   0  0  0  0  0  0  0  0  0  0  0  0
  -30.7660  -22.0130   20.4190 H   0  0  0  0  0  0  0  0  0  0  0  0
  -26.8900  -24.1430   21.0040 C   0  0  0  0  0  1  0  0  0  0  0  0
  -28.4020  -24.2470   20.7170 C   0  0  0  0  0  3  0  0  0  0  0  0
  -28.6810  -25.3680   19.6500 C   0  0  0  0  0  2  0  0  0  0  0  0
  -28.5670  -26.7430   20.1040 O   0  0  0  0  0  0  0  0  0  0  0  0
  -24.6270  -31.8050   23.2040 C   0  0  0  0  0  0  0  0  0  0  0  0
  -27.3750  -27.4510   20.0510 C   0  0  0  0  0  0  0  0  0  0  0  0
  -23.4640  -30.4310   21.5080 C   0  0  0  0  0  3  0  0  0  0  0  0
  -24.9590  -28.9520   20.0620 C   0  0  0  0  0  0  0  0  0  0  0  0
  -25.9900  -30.8230   21.3600 C   0  0  0  0  0  2  0  0  0  0  0  0
  -26.1030  -29.4680   20.6820 C   0  0  0  0  0  0  0  0  0  0  0  0
  -27.3090  -28.7250   20.6740 C   0  0  0  0  0  3  0  0  0  0  0  0
  -26.2100  -26.9650   19.4120 C   0  0  0  0  0  3  0  0  0  0  0  0
  -25.0100  -27.7010   19.4240 C   0  0  0  0  0  3  0  0  0  0  0  0
  -23.7040  -29.7940   20.1150 C   0  0  0  0  0  2  0  0  0  0  0  0
  -24.7100  -31.0350   22.0830 N   0  0  0  0  0  0  0  0  0  0  0  0
  -23.5340  -32.0480   23.7360 O   0  0  0  0  0  0  0  0  0  0  0  0
  -22.8140  -29.3760   22.4320 C   0  0  0  0  0  0  0  0  0  0  0  0
  -21.4950  -29.1730   22.2760 N   0  0  0  0  0  0  0  0  0  0  0  0
  -23.4930  -28.7430   23.2450 O   0  0  0  0  0  0  0  0  0  0  0  0
  -21.0090  -29.7380   21.5930 H   0  0  0  0  0  0  0  0  0  0  0  0
  -18.1310  -27.9180   22.6880 C   0  0  0  0  0  0  0  0  0  0  0  0
  -20.6810  -28.2020   23.0050 C   0  0  0  0  0  3  0  0  0  0  0  0
  -20.8130  -26.7900   22.3890 C   0  0  0  0  0  2  0  0  0  0  0  0
  -19.7310  -26.4820   21.3500 C   0  0  0  0  0  2  0  0  0  0  0  0
  -18.3370  -26.5910   21.9770 C   0  0  0  0  0  2  0  0  0  0  0  0
  -19.2330  -28.6810   23.1570 C   0  0  0  0  0  0  0  0  0  0  0  0
  -18.9900  -29.9240   23.7800 C   0  0  0  0  0  3  0  0  0  0  0  0
  -17.6790  -30.4050   23.9400 C   0  0  0  0  0  3  0  0  0  0  0  0
  -16.5890  -29.6390   23.4900 C   0  0  0  0  0  3  0  0  0  0  0  0
  -16.8170  -28.3960   22.8700 C   0  0  0  0  0  3  0  0  0  0  0  0
  -25.8940  -32.4380   23.8600 C   0  0  0  0  0  3  0  0  0  0  0  0
  -25.5760  -33.8360   24.1810 N   0  0  0  0  0  0  0  0  0  0  0  0
  -25.9260  -34.8870   23.4290 C   0  0  0  0  0  0  0  0  0  0  0  0
  -26.6240  -34.7840   22.4150 O   0  0  0  0  0  0  0  0  0  0  0  0
  -24.9620  -33.9900   24.9670 H   0  0  0  0  0  0  0  0  0  0  0  0
  -24.2110  -36.6790   23.0210 C   0  0  0  0  0  1  0  0  0  0  0  0
  -25.4260  -36.2750   23.8710 C   0  0  0  0  0  3  0  0  0  0  0  0
  -27.5280  -37.1640   24.7750 C   0  0  0  0  0  1  0  0  0  0  0  0
  -26.4620  -37.3280   23.7900 N   0  0  0  0  0  0  0  0  0  0  0  0
  -26.0520  -38.2490   23.9190 H   0  0  0  0  0  0  0  0  0  0  0  0
  -26.3790  -31.6660   25.1470 C   0  0  1  0  0  0  0  0  0  0  0  0
  -25.2590  -31.4250   26.1870 C   0  0  0  0  0  1  0  0  0  0  0  0
  -26.9760  -30.2920   24.7650 C   0  0  0  0  0  1  0  0  0  0  0  0
  -27.5080  -32.4630   25.8420 C   0  0  0  0  0  1  0  0  0  0  0  0
  1  2  2  0
  3  1  1  0
  4  3  2  0
  4  5  1  0
  5 50  1  0
  5  2  1  0
  6 15  1  0
  6  3  1  0
  7 15  1  0
  8 13  1  0
  9 10  1  0
  9  8  1  0
 11 10  1  0
 11 20  1  0
 11 12  1  0
 13  7  1  0
 13 12  1  0
 14  7  2  0
 15 16  1  0
 17 18  2  0
 18 37  1  0
 19 18  1  0
 19 22  1  0
 20 17  1  0
 20 21  1  0
 21 19  2  0
 22 23  1  0
 23 24  2  0
 25 28  1  0
 25 24  1  0
 26 25  2  0
 27 26  1  0
 27 22  2  0
 28 29  1  0
 29 30  1  0
 30 31  2  0
 32 31  1  0
 32 36  1  0
 33 32  2  0
 34 29  2  0
 34 33  1  0
 35 34  1  0
 37 38  1  0
 38 41  1  0
 38 40  1  0
 39 37  2  0
 42 17  1  0
 43 42  1  0
 44 42  1  0
 45 46  1  0
 45  4  1  0
 46 47  1  0
 46 49  1  0
 48 46  1  0
 51 52  1  0
 51 55  1  0
 51 50  1  0
 53 52  1  0
 55 54  1  0
 56 57  1  0
 56 55  1  0
 58 69  2  0
 59 57  1  0
 59 64  1  0
 60 68  1  0
 60 70  1  0
 61 67  1  0
 61 63  1  0
 62 68  1  0
 63 62  1  0
 64 63  2  0
 65 66  1  0
 65 59  2  0
 66 61  2  0
 67 60  1  0
 68 58  1  0
 70 72  2  0
 71 70  1  0
 73 71  1  0
 74 83  2  0
 74 79  1  0
 75 71  1  0
 75 79  1  0
 76 75  1  0
 77 78  1  0
 77 76  1  0
 78 74  1  0
 79 80  2  0
 80 81  1  0
 82 81  2  0
 83 82  1  0
 84 58  1  0
 84 85  1  0
 84 94  1  0
 85 88  1  0
 86 90  1  0
 86 85  1  0
 87 86  2  0
 90 89  1  0
 92 90  1  0
 92 93  1  0
 92 91  1  0
 94 97  1  1
 94 95  1  0
 96 94  1  0
M  ISO  4   7 100  15 100  56 101  57 101
M  END
>  <TORSDO>  (93) 
F 24

>  <SCORE>  (93) 
-12.767

>  <name>  (93) 
92

>  <ligand_id>  (93) 
92

>  <original_smiles>  (93) 
[H]OC([H])(C([H])([H])n1c([H])c([H])c(C([H])([H])N([H])C(=O)N2C([H])([H])C([H])([H])C([H])([H])C([H])(n3nc(-c4c([H])c([H])c(Oc5c([H])c([H])c(F)c([H])c5F)c([H])c4[H])c(C(=O)N([H])[H])c3N([H])[H])C2([H])[H])c1C([H])([H])[N+]([H])([H])[H])C([H])(C([H])([H])[H])C([H])([H])Oc1c([H])c([H])c2c(c1[H])C([H])([H])N(C(=O)C([H])(N([H])C(=O)C([H])(N([H])C([H])([H])[H])C([H])([H])[H])C(C([H])([H])[H])(C([H])([H])[H])C([H])([H])[H])C([H])(C(=O)N([H])C1([H])c3c([H])c([H])c([H])c([H])c3C([H])([H])C([H])([H])C1([H])[H])C2([H])[H]

>  <smiles>  (93) 
[H]OC([H])(C([H])([H])n1c([H])c([H])c(C([H])([H])N([H])C(=O)N2C([H])([H])C([H])([H])C([H])([H])C([H])(n3nc(-c4c([H])c([H])c(Oc5c([H])c([H])c(F)c([H])c5F)c([H])c4[H])c(C(=O)N([H])[H])c3N([H])[H])C2([H])[H])c1C([H])([H])[N+]([H])([H])[H])C([H])(C([H])([H])[H])C([H])([H])Oc1c([H])c([H])c2c(c1[H])C([H])([H])N(C(=O)C([H])(N([H])C(=O)C([H])(N([H])C([H])([H])[H])C([H])([H])[H])C(C([H])([H])[H])(C([H])([H])[H])C([H])([H])[H])C([H])(C(=O)N([H])C1([H])c3c([H])c([H])c([H])c([H])c3C([H])([H])C([H])([H])C1([H])[H])C2([H])[H]

$$$$
93:0:0
     RDKit          3D

 93101  0  0  1  0  0  0  0  0999 V2000
  -29.7190  -19.2990   21.6170 C   0  0  0  0  0  3  0  0  0  0  0  0
  -29.5070  -19.8680   19.4830 C   0  0  0  0  0  3  0  0  0  0  0  0
  -30.1450  -18.2120   20.8920 C   0  0  0  0  0  0  0  0  0  0  0  0
  -30.0100  -18.5850   19.5150 C   0  0  0  0  0  0  0  0  0  0  0  0
  -29.3480  -20.3400   20.7720 N   0  0  0  0  0  0  0  0  0  0  0  0
  -31.9120  -17.8050   18.0800 C   0  0  0  0  0  1  0  0  0  0  0  0
  -29.6280  -18.1580   17.0510 C   0  0  0  0  0  1  0  0  0  0  0  0
  -30.3950  -17.7480   18.3140 C   0  0  0  0  0  3  0  0  0  0  0  0
  -30.7300  -16.9160   21.4840 C   0  0  0  0  0  2  0  0  0  0  0  0
  -30.8160  -14.6240   20.4350 C   0  0  0  0  0  0  0  0  0  0  0  0
  -30.5140  -12.4900   19.2190 C   0  0  0  0  0  2  0  0  0  0  0  0
  -29.5690  -12.7050   18.0200 C   0  0  0  0  0  2  0  0  0  0  0  0
  -28.0960  -12.5470   18.4510 C   0  0  0  0  0  2  0  0  0  0  0  0
  -27.7590  -13.3550   19.7350 C   0  0  0  0  0  3  0  0  0  0  0  0
  -28.8190  -13.1250   20.8350 C   0  0  0  0  0  2  0  0  0  0  0  0
  -30.1340  -13.4550   20.2630 N   0  0  0  0  0  0  0  0  0  0  0  0
  -31.9440  -14.7990   19.9700 O   0  0  0  0  0  0  0  0  0  0  0  0
  -30.1530  -15.6240   21.0540 N   0  0  0  0  0  0  0  0  0  0  0  0
  -29.2110  -15.4270   21.3560 H   0  0  0  0  0  0  0  0  0  0  0  0
  -25.3500  -13.9330   20.4330 C   0  0  0  0  0  0  0  0  0  0  0  0
  -24.2890  -13.1500   20.8000 C   0  0  0  0  0  0  0  0  0  0  0  0
  -24.7670  -11.8030   20.7750 C   0  0  0  0  0  0  0  0  0  0  0  0
  -26.4080  -13.0650   20.2110 N   0  0  0  0  0  0  0  0  0  0  0  0
  -26.0600  -11.7790   20.4720 N   0  0  0  0  0  0  0  0  0  0  0  0
  -24.0560  -10.5320   20.9640 C   0  0  0  0  0  0  0  0  0  0  0  0
  -24.4760   -9.5870   21.9250 C   0  0  0  0  0  3  0  0  0  0  0  0
  -23.7660   -8.3810   22.1020 C   0  0  0  0  0  3  0  0  0  0  0  0
  -22.6210   -8.1100   21.3160 C   0  0  0  0  0  0  0  0  0  0  0  0
  -22.2200   -9.0440   20.3440 C   0  0  0  0  0  3  0  0  0  0  0  0
  -22.9330  -10.2420   20.1660 C   0  0  0  0  0  3  0  0  0  0  0  0
  -21.8820   -6.9550   21.3980 O   0  0  0  0  0  0  0  0  0  0  0  0
  -21.7850   -6.2450   22.5680 C   0  0  0  0  0  0  0  0  0  0  0  0
  -21.2610   -6.8200   23.7460 C   0  0  0  0  0  3  0  0  0  0  0  0
  -21.1130   -6.0350   24.9070 C   0  0  0  0  0  3  0  0  0  0  0  0
  -21.4800   -4.6770   24.8910 C   0  0  0  0  0  0  0  0  0  0  0  0
  -21.9970   -4.1000   23.7170 C   0  0  0  0  0  3  0  0  0  0  0  0
  -22.1460   -4.8820   22.5580 C   0  0  0  0  0  0  0  0  0  0  0  0
  -22.6240   -4.3170   21.4240 F   0  0  0  0  0  0  0  0  0  0  0  0
  -21.3310   -3.9200   26.0050 F   0  0  0  0  0  0  0  0  0  0  0  0
  -22.8840  -13.6110   21.0670 C   0  0  0  0  0  0  0  0  0  0  0  0
  -22.1580  -12.9010   21.9240 N   0  0  0  0  0  0  0  0  0  0  0  0
  -22.4390  -14.6380   20.5560 O   0  0  0  0  0  0  0  0  0  0  0  0
  -22.5310  -12.0740   22.3650 H   0  0  0  0  0  0  0  0  0  0  0  0
  -21.2160  -13.1930   22.1450 H   0  0  0  0  0  0  0  0  0  0  0  0
  -25.5030  -15.3040   20.2510 N   0  0  0  0  0  0  0  0  0  0  0  0
  -24.7330  -15.9540   20.3670 H   0  0  0  0  0  0  0  0  0  0  0  0
  -26.3540  -15.7490   19.9330 H   0  0  0  0  0  0  0  0  0  0  0  0
  -28.8330  -21.6600   21.2050 C   0  0  0  0  0  3  0  0  0  0  0  0
  -29.0410  -22.8660   20.2230 C   0  0  0  0  0  3  0  0  0  0  0  0
  -29.7610  -24.6650   21.8960 C   0  0  0  0  0  1  0  0  0  0  0  0
  -28.7430  -24.3030   20.7980 C   0  0  0  0  0  3  0  0  0  0  0  0
  -28.7260  -25.4350   19.7110 C   0  0  0  0  0  2  0  0  0  0  0  0
  -28.5600  -26.7890   20.2200 O   0  0  0  0  0  0  0  0  0  0  0  0
  -24.6480  -31.9590   23.2290 C   0  0  0  0  0  0  0  0  0  0  0  0
  -27.3530  -27.4790   20.1920 C   0  0  0  0  0  0  0  0  0  0  0  0
  -23.4620  -30.5260   21.5990 C   0  0  0  0  0  3  0  0  0  0  0  0
  -24.9360  -28.9860   20.1910 C   0  0  0  0  0  0  0  0  0  0  0  0
  -25.9890  -30.9010   21.4060 C   0  0  0  0  0  2  0  0  0  0  0  0
  -26.0890  -29.5230   20.7760 C   0  0  0  0  0  0  0  0  0  0  0  0
  -27.2950  -28.7760   20.7700 C   0  0  0  0  0  3  0  0  0  0  0  0
  -26.1700  -26.9640   19.6110 C   0  0  0  0  0  3  0  0  0  0  0  0
  -24.9740  -27.7090   19.6100 C   0  0  0  0  0  3  0  0  0  0  0  0
  -23.6830  -29.8340   20.2280 C   0  0  0  0  0  2  0  0  0  0  0  0
  -24.7170  -31.1470   22.1350 N   0  0  0  0  0  0  0  0  0  0  0  0
  -23.5630  -32.2230   23.7650 O   0  0  0  0  0  0  0  0  0  0  0  0
  -22.8220  -29.5080   22.5700 C   0  0  0  0  0  0  0  0  0  0  0  0
  -21.5000  -29.3040   22.4410 N   0  0  0  0  0  0  0  0  0  0  0  0
  -23.5110  -28.9010   23.3940 O   0  0  0  0  0  0  0  0  0  0  0  0
  -21.0050  -29.8450   21.7450 H   0  0  0  0  0  0  0  0  0  0  0  0
  -18.1390  -28.0820   22.9620 C   0  0  0  0  0  0  0  0  0  0  0  0
  -20.6960  -28.3620   23.2180 C   0  0  0  0  0  3  0  0  0  0  0  0
  -20.8070  -26.9300   22.6440 C   0  0  0  0  0  2  0  0  0  0  0  0
  -19.7020  -26.5970   21.6370 C   0  0  0  0  0  2  0  0  0  0  0  0
  -18.3230  -26.7320   22.2890 C   0  0  0  0  0  2  0  0  0  0  0  0
  -19.2530  -28.8540   23.3840 C   0  0  0  0  0  0  0  0  0  0  0  0
  -19.0290  -30.1170   23.9730 C   0  0  0  0  0  3  0  0  0  0  0  0
  -17.7210  -30.6090   24.1440 C   0  0  0  0  0  3  0  0  0  0  0  0
  -16.6210  -29.8340   23.7400 C   0  0  0  0  0  3  0  0  0  0  0  0
  -16.8310  -28.5720   23.1550 C   0  0  0  0  0  3  0  0  0  0  0  0
  -25.9250  -32.6130   23.8450 C   0  0  0  0  0  3  0  0  0  0  0  0
  -25.5960  -34.0080   24.1690 N   0  0  0  0  0  0  0  0  0  0  0  0
  -25.9240  -35.0630   23.4120 C   0  0  0  0  0  0  0  0  0  0  0  0
  -26.6070  -34.9660   22.3880 O   0  0  0  0  0  0  0  0  0  0  0  0
  -24.9930  -34.1570   24.9640 H   0  0  0  0  0  0  0  0  0  0  0  0
  -24.1910  -36.8420   23.0170 C   0  0  0  0  0  1  0  0  0  0  0  0
  -25.4140  -36.4450   23.8600 C   0  0  0  0  0  3  0  0  0  0  0  0
  -27.5160  -37.3460   24.7540 C   0  0  0  0  0  1  0  0  0  0  0  0
  -26.4400  -37.5070   23.7790 N   0  0  0  0  0  0  0  0  0  0  0  0
  -26.0220  -38.4240   23.9160 H   0  0  0  0  0  0  0  0  0  0  0  0
  -26.4580  -31.8560   25.1240 C   0  0  1  0  0  0  0  0  0  0  0  0
  -25.3660  -31.5810   26.1830 C   0  0  0  0  0  1  0  0  0  0  0  0
  -27.0900  -30.5000   24.7340 C   0  0  0  0  0  1  0  0  0  0  0  0
  -27.5780  -32.6860   25.7960 C   0  0  0  0  0  1  0  0  0  0  0  0
  2  4  2  0
  2  5  1  0
  3  9  1  0
  3  1  2  0
  4  3  1  0
  5 48  1  0
  5  1  1  0
  6  8  1  0
  7  8  1  0
  8  4  1  0
 10 18  1  0
 11 16  1  0
 12 13  1  0
 12 11  1  0
 14 13  1  0
 14 23  1  0
 14 15  1  0
 16 10  1  0
 16 15  1  0
 17 10  2  0
 18 19  1  0
 18  9  1  0
 20 21  2  0
 21 40  1  0
 22 21  1  0
 22 25  1  0
 23 20  1  0
 23 24  1  0
 24 22  2  0
 25 26  1  0
 26 27  2  0
 28 31  1  0
 28 27  1  0
 29 28  2  0
 30 29  1  0
 30 25  2  0
 31 32  1  0
 32 33  1  0
 33 34  2  0
 35 34  1  0
 35 39  1  0
 36 35  2  0
 37 32  2  0
 37 36  1  0
 38 37  1  0
 40 41  1  0
 41 44  1  0
 41 43  1  0
 42 40  2  0
 45 46  1  0
 45 20  1  0
 47 45  1  0
 49 51  1  0
 49 48  2  0
 51 50  1  0
 52 53  1  0
 52 51  1  0
 54 65  2  0
 55 53  1  0
 55 60  1  0
 56 64  1  0
 56 66  1  0
 57 63  1  0
 57 59  1  0
 58 64  1  0
 59 58  1  0
 60 59  2  0
 61 55  2  0
 62 61  1  0
 62 57  2  0
 63 56  1  0
 64 54  1  0
 66 68  2  0
 67 66  1  0
 69 67  1  0
 70 79  2  0
 70 75  1  0
 71 67  1  0
 71 75  1  0
 72 71  1  0
 73 74  1  0
 73 72  1  0
 74 70  1  0
 75 76  2  0
 76 77  1  0
 78 77  2  0
 79 78  1  0
 80 54  1  0
 80 81  1  0
 80 90  1  0
 81 84  1  0
 82 86  1  0
 82 81  1  0
 83 82  2  0
 86 85  1  0
 88 86  1  0
 88 89  1  0
 88 87  1  0
 90 93  1  1
 90 91  1  0
 92 90  1  0
M  ISO  4  10 100  18 100  52 101  53 101
M  END
>  <TORSDO>  (94) 
F 22

>  <SCORE>  (94) 
-12.922

>  <name>  (94) 
93

>  <ligand_id>  (94) 
93

>  <original_smiles>  (94) 
[H]c1c([H])c([H])c2c(c1[H])C([H])([H])C([H])([H])C([H])([H])C2([H])N([H])C(=O)C1([H])N(C(=O)C([H])(N([H])C(=O)C([H])(N([H])C([H])([H])[H])C([H])([H])[H])C(C([H])([H])[H])(C([H])([H])[H])C([H])([H])[H])C([H])([H])c2c([H])c(OC([H])([H])C([H])(C([H])([H])[H])C([H])([H])C([H])([H])n3c([H])c(C([H])([H])N([H])C(=O)N4C([H])([H])C([H])([H])C([H])([H])C([H])(n5nc(-c6c([H])c([H])c(Oc7c([H])c([H])c(F)c([H])c7F)c([H])c6[H])c(C(=O)N([H])[H])c5N([H])[H])C4([H])[H])c(C([H])(C([H])([H])[H])C([H])([H])[H])c3[H])c([H])c([H])c2C1([H])[H]

>  <smiles>  (94) 
[H]c1c([H])c([H])c2c(c1[H])C([H])([H])C([H])([H])C([H])([H])C2([H])N([H])C(=O)C1([H])N(C(=O)C([H])(N([H])C(=O)C([H])(N([H])C([H])([H])[H])C([H])([H])[H])C(C([H])([H])[H])(C([H])([H])[H])C([H])([H])[H])C([H])([H])c2c([H])c(OC([H])([H])C([H])(C([H])([H])[H])C([H])([H])C([H])([H])n3c([H])c(C([H])([H])N([H])C(=O)N4C([H])([H])C([H])([H])C([H])([H])C([H])(n5nc(-c6c([H])c([H])c(Oc7c([H])c([H])c(F)c([H])c7F)c([H])c6[H])c(C(=O)N([H])[H])c5N([H])[H])C4([H])[H])c(C([H])(C([H])([H])[H])C([H])([H])[H])c3[H])c([H])c([H])c2C1([H])[H]

$$$$
94:0:0
     RDKit          3D

 91 98  0  0  1  0  0  0  0  0999 V2000
  -28.6610  -21.8290   20.2720 C   0  0  0  0  0  2  0  0  0  0  0  0
  -29.6460  -23.6530   18.6860 C   0  0  0  0  0  1  0  0  0  0  0  0
  -30.3330  -23.6660   21.0910 C   0  0  0  0  0  1  0  0  0  0  0  0
  -29.1490  -23.4490   20.1310 C   0  0  2  0  0  0  0  0  0  0  0  0
  -28.0740  -24.7240   20.4050 C   0  0  0  0  0  2  0  0  0  0  0  0
  -28.3440  -26.2600   20.3150 O   0  0  0  0  0  0  0  0  0  0  0  0
  -24.5140  -31.8350   23.2660 C   0  0  0  0  0  0  0  0  0  0  0  0
  -27.2690  -27.2210   20.2480 C   0  0  0  0  0  0  0  0  0  0  0  0
  -23.3970  -30.4600   21.5520 C   0  0  0  0  0  3  0  0  0  0  0  0
  -24.9200  -28.9330   20.1560 C   0  0  0  0  0  0  0  0  0  0  0  0
  -25.9520  -30.7590   21.4950 C   0  0  0  0  0  2  0  0  0  0  0  0
  -26.0690  -29.3820   20.8200 C   0  0  0  0  0  0  0  0  0  0  0  0
  -27.2460  -28.5430   20.8470 C   0  0  0  0  0  3  0  0  0  0  0  0
  -26.0980  -26.8800   19.5350 C   0  0  0  0  0  3  0  0  0  0  0  0
  -24.9490  -27.6960   19.4980 C   0  0  0  0  0  3  0  0  0  0  0  0
  -23.6800  -29.8140   20.1710 C   0  0  0  0  0  2  0  0  0  0  0  0
  -24.6380  -31.0400   22.1600 N   0  0  0  0  0  0  0  0  0  0  0  0
  -23.4060  -32.0960   23.7560 O   0  0  0  0  0  0  0  0  0  0  0  0
  -22.6930  -29.4240   22.4650 C   0  0  0  0  0  0  0  0  0  0  0  0
  -21.3700  -29.2550   22.2910 N   0  0  0  0  0  0  0  0  0  0  0  0
  -23.3410  -28.7780   23.2930 O   0  0  0  0  0  0  0  0  0  0  0  0
  -20.9040  -29.8270   21.6010 H   0  0  0  0  0  0  0  0  0  0  0  0
  -17.9730  -28.0600   22.6800 C   0  0  0  0  0  0  0  0  0  0  0  0
  -20.5270  -28.2960   23.0110 C   0  0  0  0  0  3  0  0  0  0  0  0
  -20.6320  -26.8840   22.3890 C   0  0  0  0  0  2  0  0  0  0  0  0
  -19.5500  -26.6050   21.3390 C   0  0  0  0  0  2  0  0  0  0  0  0
  -18.1550  -26.7360   21.9590 C   0  0  0  0  0  2  0  0  0  0  0  0
  -19.0860  -28.8010   23.1590 C   0  0  0  0  0  0  0  0  0  0  0  0
  -18.8610  -30.0420   23.7940 C   0  0  0  0  0  3  0  0  0  0  0  0
  -17.5560  -30.5430   23.9540 C   0  0  0  0  0  3  0  0  0  0  0  0
  -16.4560  -29.8000   23.4910 C   0  0  0  0  0  3  0  0  0  0  0  0
  -16.6650  -28.5600   22.8590 C   0  0  0  0  0  3  0  0  0  0  0  0
  -25.7600  -32.4710   23.9560 C   0  0  0  0  0  3  0  0  0  0  0  0
  -25.4200  -33.8610   24.2980 N   0  0  0  0  0  0  0  0  0  0  0  0
  -25.7640  -34.9320   23.5710 C   0  0  0  0  0  0  0  0  0  0  0  0
  -26.4670  -34.8550   22.5600 O   0  0  0  0  0  0  0  0  0  0  0  0
  -24.7970  -33.9960   25.0810 H   0  0  0  0  0  0  0  0  0  0  0  0
  -24.0280  -36.7170   23.1990 C   0  0  0  0  0  1  0  0  0  0  0  0
  -25.2500  -36.3090   24.0380 C   0  0  0  0  0  3  0  0  0  0  0  0
  -27.3450  -37.2070   24.9520 C   0  0  0  0  0  1  0  0  0  0  0  0
  -26.2750  -37.3740   23.9740 N   0  0  0  0  0  0  0  0  0  0  0  0
  -25.8530  -38.2880   24.1190 H   0  0  0  0  0  0  0  0  0  0  0  0
  -26.2230  -31.6840   25.2450 C   0  0  1  0  0  0  0  0  0  0  0  0
  -25.0820  -31.4180   26.2560 C   0  0  0  0  0  1  0  0  0  0  0  0
  -26.8380  -30.3180   24.8640 C   0  0  0  0  0  1  0  0  0  0  0  0
  -27.3300  -32.4800   25.9730 C   0  0  0  0  0  1  0  0  0  0  0  0
  -29.5890  -20.5630   19.9800 N   0  0  0  0  0  4  0  0  0  0  0  0
  -30.3140  -20.5910   20.6800 H   0  0  0  0  0  0  0  0  0  0  0  0
  -30.0490  -20.7490   19.1030 H   0  0  0  0  0  0  0  0  0  0  0  0
  -28.2290  -18.7690   21.1750 C   0  0  0  0  0  1  0  0  0  0  0  0
  -28.1580  -18.9060   18.6910 C   0  0  0  0  0  1  0  0  0  0  0  0
  -29.0830  -19.0480   19.9180 C   0  0  1  0  0  0  0  0  0  0  0  0
  -30.1890  -17.7640   19.8210 C   0  0  0  0  0  2  0  0  0  0  0  0
  -30.6150  -15.0510   19.8800 C   0  0  0  0  0  0  0  0  0  0  0  0
  -30.4710  -12.6660   19.0430 C   0  0  0  0  0  2  0  0  0  0  0  0
  -29.4790  -12.5700   17.8600 C   0  0  0  0  0  2  0  0  0  0  0  0
  -28.0360  -12.3730   18.3670 C   0  0  0  0  0  2  0  0  0  0  0  0
  -27.6820  -13.3370   19.5300 C   0  0  0  0  0  3  0  0  0  0  0  0
  -28.7920  -13.3940   20.6020 C   0  0  0  0  0  2  0  0  0  0  0  0
  -30.0270  -13.7880   19.9160 N   0  0  0  0  0  0  0  0  0  0  0  0
  -31.7940  -15.1140   19.5240 O   0  0  0  0  0  0  0  0  0  0  0  0
  -29.8430  -16.2340   20.0380 N   0  0  0  0  0  0  0  0  0  0  0  0
  -28.8860  -16.0620   20.3100 H   0  0  0  0  0  0  0  0  0  0  0  0
  -25.3710  -13.9380   20.4460 C   0  0  0  0  0  0  0  0  0  0  0  0
  -24.3150  -13.1730   20.8580 C   0  0  0  0  0  0  0  0  0  0  0  0
  -24.7440  -11.8130   20.7440 C   0  0  0  0  0  0  0  0  0  0  0  0
  -26.3740  -13.0480   20.1050 N   0  0  0  0  0  0  0  0  0  0  0  0
  -26.0100  -11.7620   20.3470 N   0  0  0  0  0  0  0  0  0  0  0  0
  -23.9990  -10.5610   20.9310 C   0  0  0  0  0  0  0  0  0  0  0  0
  -24.4080   -9.5910   21.8730 C   0  0  0  0  0  3  0  0  0  0  0  0
  -23.6620   -8.4060   22.0520 C   0  0  0  0  0  3  0  0  0  0  0  0
  -22.4910   -8.1820   21.2880 C   0  0  0  0  0  0  0  0  0  0  0  0
  -22.1000   -9.1400   20.3360 C   0  0  0  0  0  3  0  0  0  0  0  0
  -22.8460  -10.3180   20.1560 C   0  0  0  0  0  3  0  0  0  0  0  0
  -21.7200   -7.0490   21.3730 O   0  0  0  0  0  0  0  0  0  0  0  0
  -21.5740   -6.3640   22.5540 C   0  0  0  0  0  0  0  0  0  0  0  0
  -21.0380   -6.9770   23.7080 C   0  0  0  0  0  3  0  0  0  0  0  0
  -20.8420   -6.2200   24.8790 C   0  0  0  0  0  3  0  0  0  0  0  0
  -21.1710   -4.8510   24.8970 C   0  0  0  0  0  0  0  0  0  0  0  0
  -21.6980   -4.2380   23.7470 C   0  0  0  0  0  3  0  0  0  0  0  0
  -21.8970   -4.9930   22.5780 C   0  0  0  0  0  0  0  0  0  0  0  0
  -22.3860   -4.3930   21.4660 F   0  0  0  0  0  0  0  0  0  0  0  0
  -20.9730   -4.1220   26.0200 F   0  0  0  0  0  0  0  0  0  0  0  0
  -22.9510  -13.6700   21.2350 C   0  0  0  0  0  0  0  0  0  0  0  0
  -22.2650  -12.9600   22.1250 N   0  0  0  0  0  0  0  0  0  0  0  0
  -22.5050  -14.7230   20.7800 O   0  0  0  0  0  0  0  0  0  0  0  0
  -22.6390  -12.1050   22.5110 H   0  0  0  0  0  0  0  0  0  0  0  0
  -21.3510  -13.2730   22.4200 H   0  0  0  0  0  0  0  0  0  0  0  0
  -25.5530  -15.3110   20.3060 N   0  0  0  0  0  0  0  0  0  0  0  0
  -24.8020  -15.9680   20.4860 H   0  0  0  0  0  0  0  0  0  0  0  0
  -26.3570  -15.7440   19.8740 H   0  0  0  0  0  0  0  0  0  0  0  0
  4  2  1  6
  4  1  1  0
  4  5  1  0
  4  3  1  0
  6  5  1  0
  7 18  2  0
  8  6  1  0
  8 13  1  0
  9 17  1  0
  9 19  1  0
 10 16  1  0
 10 12  1  0
 11 17  1  0
 12 13  2  0
 12 11  1  0
 14  8  2  0
 15 14  1  0
 15 10  2  0
 16  9  1  0
 17  7  1  0
 19 21  2  0
 20 19  1  0
 22 20  1  0
 23 32  2  0
 23 28  1  0
 24 20  1  0
 24 28  1  0
 25 24  1  0
 26 27  1  0
 26 25  1  0
 27 23  1  0
 28 29  2  0
 29 30  1  0
 31 30  2  0
 32 31  1  0
 33  7  1  0
 33 34  1  0
 33 43  1  0
 34 37  1  0
 35 39  1  0
 35 34  1  0
 36 35  2  0
 39 38  1  0
 41 39  1  0
 41 42  1  0
 41 40  1  0
 43 46  1  1
 43 44  1  0
 45 43  1  0
 47  1  1  0
 47 48  1  0
 49 47  1  0
 52 51  1  6
 52 47  1  0
 52 50  1  0
 53 52  1  0
 53 62  1  0
 54 60  1  0
 54 62  1  0
 55 60  1  0
 56 57  1  0
 56 55  1  0
 58 57  1  0
 58 67  1  0
 58 59  1  0
 60 59  1  0
 61 54  2  0
 62 63  1  0
 64 65  2  0
 65 84  1  0
 66 65  1  0
 66 69  1  0
 67 68  1  0
 67 64  1  0
 68 66  2  0
 69 70  1  0
 70 71  2  0
 72 75  1  0
 72 71  1  0
 73 72  2  0
 74 73  1  0
 74 69  2  0
 75 76  1  0
 76 81  2  0
 76 77  1  0
 77 78  2  0
 78 79  1  0
 79 83  1  0
 80 79  2  0
 81 80  1  0
 82 81  1  0
 84 85  1  0
 85 88  1  0
 85 87  1  0
 86 84  2  0
 89 64  1  0
 89 90  1  0
 91 89  1  0
M  ISO  4   5 101   6 101  54 100  62 100
M  END
>  <TORSDO>  (95) 
F 21

>  <SCORE>  (95) 
-13.403

>  <name>  (95) 
94

>  <ligand_id>  (95) 
94

>  <original_smiles>  (95) 
[H]c1c([H])c([H])c2c(c1[H])C([H])([H])C([H])([H])C([H])([H])C2([H])N([H])C(=O)C1([H])N(C(=O)C([H])(N([H])C(=O)C([H])(N([H])C([H])([H])[H])C([H])([H])[H])C(C([H])([H])[H])(C([H])([H])[H])C([H])([H])[H])C([H])([H])c2c([H])c(OC([H])([H])C(C([H])([H])[H])(C([H])([H])[H])C([H])([H])[N+]([H])([H])C(C([H])([H])[H])(C([H])([H])[H])C([H])([H])N([H])C(=O)N3C([H])([H])C([H])([H])C([H])([H])C([H])(n4nc(-c5c([H])c([H])c(Oc6c([H])c([H])c(F)c([H])c6F)c([H])c5[H])c(C(=O)N([H])[H])c4N([H])[H])C3([H])[H])c([H])c([H])c2C1([H])[H]

>  <smiles>  (95) 
[H]c1c([H])c([H])c2c(c1[H])C([H])([H])C([H])([H])C([H])([H])C2([H])N([H])C(=O)C1([H])N(C(=O)C([H])(N([H])C(=O)C([H])(N([H])C([H])([H])[H])C([H])([H])[H])C(C([H])([H])[H])(C([H])([H])[H])C([H])([H])[H])C([H])([H])c2c([H])c(OC([H])([H])C(C([H])([H])[H])(C([H])([H])[H])C([H])([H])[N+]([H])([H])C(C([H])([H])[H])(C([H])([H])[H])C([H])([H])N([H])C(=O)N3C([H])([H])C([H])([H])C([H])([H])C([H])(n4nc(-c5c([H])c([H])c(Oc6c([H])c([H])c(F)c([H])c6F)c([H])c5[H])c(C(=O)N([H])[H])c4N([H])[H])C3([H])[H])c([H])c([H])c2C1([H])[H]

$$$$
95:0:0
     RDKit          3D

 95103  0  0  1  0  0  0  0  0999 V2000
  -30.0070  -20.0950   22.5410 C   0  0  0  0  0  1  0  0  0  0  0  0
  -29.3030  -20.1260   21.1710 C   0  0  0  0  0  3  0  0  0  0  0  0
  -30.8570  -14.9620   20.2960 C   0  0  0  0  0  0  0  0  0  0  0  0
  -30.6510  -12.7120   19.2520 C   0  0  0  0  0  2  0  0  0  0  0  0
  -29.7080  -12.7870   18.0320 C   0  0  0  0  0  2  0  0  0  0  0  0
  -28.2320  -12.6330   18.4530 C   0  0  0  0  0  2  0  0  0  0  0  0
  -27.8540  -13.4720   19.7040 C   0  0  0  0  0  3  0  0  0  0  0  0
  -28.9230  -13.3840   20.8130 C   0  0  0  0  0  2  0  0  0  0  0  0
  -30.2070  -13.7520   20.2030 N   0  0  0  0  0  0  0  0  0  0  0  0
  -32.0820  -15.0190   20.1720 O   0  0  0  0  0  0  0  0  0  0  0  0
  -29.8680  -16.3600   18.6350 C   0  0  0  0  0  2  0  0  0  0  0  0
  -30.3530  -17.4700   20.7720 C   0  0  0  0  0  2  0  0  0  0  0  0
  -29.4740  -17.7950   18.2230 C   0  0  0  0  0  2  0  0  0  0  0  0
  -29.2200  -18.6060   20.5470 C   0  0  0  0  0  3  0  0  0  0  0  0
  -30.1120  -16.1230   20.0840 N   0  0  0  0  0  0  0  0  0  0  0  0
  -28.5630  -18.4150   19.2130 N   0  0  1  0  0  4  0  0  0  0  0  0
  -27.9360  -17.6570   19.4220 H   0  0  0  0  0  0  0  0  0  0  0  0
  -25.4550  -14.0500   20.3840 C   0  0  0  0  0  0  0  0  0  0  0  0
  -24.3880  -13.2720   20.7330 C   0  0  0  0  0  0  0  0  0  0  0  0
  -24.8650  -11.9250   20.7270 C   0  0  0  0  0  0  0  0  0  0  0  0
  -26.5110  -13.1760   20.1810 N   0  0  0  0  0  0  0  0  0  0  0  0
  -26.1620  -11.8930   20.4480 N   0  0  0  0  0  0  0  0  0  0  0  0
  -24.1470  -10.6600   20.9150 C   0  0  0  0  0  0  0  0  0  0  0  0
  -24.5340   -9.7340   21.9090 C   0  0  0  0  0  3  0  0  0  0  0  0
  -23.8170   -8.5320   22.0850 C   0  0  0  0  0  3  0  0  0  0  0  0
  -22.6990   -8.2460   21.2650 C   0  0  0  0  0  0  0  0  0  0  0  0
  -22.3340   -9.1600   20.2610 C   0  0  0  0  0  3  0  0  0  0  0  0
  -23.0510  -10.3540   20.0830 C   0  0  0  0  0  3  0  0  0  0  0  0
  -21.9610   -7.0910   21.3440 O   0  0  0  0  0  0  0  0  0  0  0  0
  -21.8070   -6.4180   22.5280 C   0  0  0  0  0  0  0  0  0  0  0  0
  -21.2200   -7.0280   23.6600 C   0  0  0  0  0  3  0  0  0  0  0  0
  -21.0170   -6.2790   24.8350 C   0  0  0  0  0  3  0  0  0  0  0  0
  -21.3900   -4.9220   24.8800 C   0  0  0  0  0  0  0  0  0  0  0  0
  -21.9720   -4.3130   23.7540 C   0  0  0  0  0  3  0  0  0  0  0  0
  -22.1770   -5.0590   22.5810 C   0  0  0  0  0  0  0  0  0  0  0  0
  -22.7200   -4.4640   21.4910 F   0  0  0  0  0  0  0  0  0  0  0  0
  -21.1860   -4.2010   26.0070 F   0  0  0  0  0  0  0  0  0  0  0  0
  -22.9820  -13.7410   20.9740 C   0  0  0  0  0  0  0  0  0  0  0  0
  -22.2440  -13.0460   21.8300 N   0  0  0  0  0  0  0  0  0  0  0  0
  -22.5480  -14.7610   20.4380 O   0  0  0  0  0  0  0  0  0  0  0  0
  -22.6120  -12.2200   22.2780 H   0  0  0  0  0  0  0  0  0  0  0  0
  -21.3020  -13.3410   22.0390 H   0  0  0  0  0  0  0  0  0  0  0  0
  -25.6120  -15.4210   20.2030 N   0  0  0  0  0  0  0  0  0  0  0  0
  -24.8400  -16.0730   20.2840 H   0  0  0  0  0  0  0  0  0  0  0  0
  -26.4950  -15.8560   19.9880 H   0  0  0  0  0  0  0  0  0  0  0  0
  -26.1980  -18.7950   18.5520 C   0  0  0  0  0  1  0  0  0  0  0  0
  -28.0060  -20.0620   17.3320 C   0  0  0  0  0  1  0  0  0  0  0  0
  -27.5950  -19.4320   18.6860 C   0  0  0  0  0  3  0  0  0  0  0  0
  -29.7640  -21.4640   20.3940 C   0  0  0  0  0  2  0  0  0  0  0  0
  -29.2470  -24.0490   20.3340 C   0  0  0  0  0  0  0  0  0  0  0  0
  -28.9900  -22.7400   20.6950 N   0  0  0  0  0  0  0  0  0  0  0  0
  -30.2800  -24.3410   19.7270 O   0  0  0  0  0  0  0  0  0  0  0  0
  -28.1140  -22.6090   21.1830 H   0  0  0  0  0  0  0  0  0  0  0  0
  -28.2000  -25.1980   20.6830 C   0  0  0  0  0  2  0  0  0  0  0  0
  -28.4820  -26.5970   20.2210 O   0  0  0  0  0  0  0  0  0  0  0  0
  -24.6710  -31.9650   23.2560 C   0  0  0  0  0  0  0  0  0  0  0  0
  -27.3810  -27.4730   20.1720 C   0  0  0  0  0  0  0  0  0  0  0  0
  -23.5080  -30.5710   21.5850 C   0  0  0  0  0  3  0  0  0  0  0  0
  -24.9970  -29.0670   20.1510 C   0  0  0  0  0  0  0  0  0  0  0  0
  -26.0460  -30.9280   21.4360 C   0  0  0  0  0  2  0  0  0  0  0  0
  -26.1560  -29.5590   20.7680 C   0  0  0  0  0  0  0  0  0  0  0  0
  -27.3510  -28.7750   20.7690 C   0  0  0  0  0  3  0  0  0  0  0  0
  -26.2070  -27.0550   19.5040 C   0  0  0  0  0  3  0  0  0  0  0  0
  -25.0290  -27.8220   19.5080 C   0  0  0  0  0  3  0  0  0  0  0  0
  -23.7470  -29.9210   20.1990 C   0  0  0  0  0  2  0  0  0  0  0  0
  -24.7600  -31.1710   22.1500 N   0  0  0  0  0  0  0  0  0  0  0  0
  -23.5790  -32.2180   23.7830 O   0  0  0  0  0  0  0  0  0  0  0  0
  -22.8520  -29.5270   22.5220 C   0  0  0  0  0  0  0  0  0  0  0  0
  -21.5360  -29.3090   22.3570 N   0  0  0  0  0  0  0  0  0  0  0  0
  -23.5270  -28.9190   23.3560 O   0  0  0  0  0  0  0  0  0  0  0  0
  -21.0490  -29.8570   21.6620 H   0  0  0  0  0  0  0  0  0  0  0  0
  -18.1830  -28.0080   22.7590 C   0  0  0  0  0  0  0  0  0  0  0  0
  -20.7240  -28.3440   23.1010 C   0  0  0  0  0  3  0  0  0  0  0  0
  -20.8830  -26.9170   22.5240 C   0  0  0  0  0  2  0  0  0  0  0  0
  -19.8200  -26.5640   21.4800 C   0  0  0  0  0  2  0  0  0  0  0  0
  -18.4170  -26.6670   22.0850 C   0  0  0  0  0  2  0  0  0  0  0  0
  -19.2660  -28.8020   23.2210 C   0  0  0  0  0  0  0  0  0  0  0  0
  -18.9930  -30.0570   23.8090 C   0  0  0  0  0  3  0  0  0  0  0  0
  -17.6690  -30.5170   23.9410 C   0  0  0  0  0  3  0  0  0  0  0  0
  -16.6010  -29.7200   23.4970 C   0  0  0  0  0  3  0  0  0  0  0  0
  -16.8570  -28.4670   22.9130 C   0  0  0  0  0  3  0  0  0  0  0  0
  -25.9370  -32.6100   23.9010 C   0  0  0  0  0  3  0  0  0  0  0  0
  -26.4260  -31.8560   25.1990 C   0  0  1  0  0  0  0  0  0  0  0  0
  -25.3050  -31.6000   26.2340 C   0  0  0  0  0  1  0  0  0  0  0  0
  -27.0520  -30.4900   24.8360 C   0  0  0  0  0  1  0  0  0  0  0  0
  -27.5360  -32.6780   25.8950 C   0  0  0  0  0  1  0  0  0  0  0  0
  -25.6140  -34.0100   24.2090 N   0  0  0  0  0  0  0  0  0  0  0  0
  -25.9560  -35.0570   23.4450 C   0  0  0  0  0  0  0  0  0  0  0  0
  -26.6480  -34.9450   22.4300 O   0  0  0  0  0  0  0  0  0  0  0  0
  -25.0060  -34.1710   24.9990 H   0  0  0  0  0  0  0  0  0  0  0  0
  -24.2310  -36.8390   23.0330 C   0  0  0  0  0  1  0  0  0  0  0  0
  -25.4520  -36.4470   23.8790 C   0  0  0  0  0  3  0  0  0  0  0  0
  -27.5600  -37.3480   24.7580 C   0  0  0  0  0  1  0  0  0  0  0  0
  -26.4830  -37.5040   23.7830 N   0  0  0  0  0  0  0  0  0  0  0  0
  -26.0700  -38.4230   23.9110 H   0  0  0  0  0  0  0  0  0  0  0  0
  2  1  1  0
  4  9  1  0
  5  6  1  0
  5  4  1  0
  7  6  1  0
  7 21  1  0
  7  8  1  0
  9  3  1  0
  9  8  1  0
 10  3  2  0
 11 15  1  0
 13 11  1  0
 13 16  1  0
 14 12  1  0
 14  2  1  0
 15  3  1  0
 15 12  1  0
 16 17  1  1
 16 14  1  0
 18 19  2  0
 19 38  1  0
 20 19  1  0
 20 23  1  0
 21 18  1  0
 21 22  1  0
 22 20  2  0
 23 24  1  0
 24 25  2  0
 26 29  1  0
 26 25  1  0
 27 26  2  0
 28 27  1  0
 28 23  2  0
 29 30  1  0
 30 35  2  0
 30 31  1  0
 31 32  2  0
 32 33  1  0
 33 37  1  0
 34 33  2  0
 35 34  1  0
 36 35  1  0
 38 39  1  0
 39 42  1  0
 39 41  1  0
 40 38  2  0
 43 44  1  0
 43 18  1  0
 45 43  1  0
 46 48  1  0
 47 48  1  0
 48 16  1  0
 49 51  1  0
 49  2  1  0
 50 54  1  0
 50 51  1  0
 51 53  1  0
 52 50  2  0
 55 54  1  0
 56 67  2  0
 57 55  1  0
 57 62  1  0
 58 66  1  0
 58 68  1  0
 59 65  1  0
 59 61  1  0
 60 66  1  0
 61 62  2  0
 61 60  1  0
 63 64  1  0
 63 57  2  0
 64 59  2  0
 65 58  1  0
 66 56  1  0
 68 70  2  0
 69 68  1  0
 71 69  1  0
 72 81  2  0
 72 77  1  0
 73 69  1  0
 73 77  1  0
 74 73  1  0
 75 76  1  0
 75 74  1  0
 76 72  1  0
 77 78  2  0
 78 79  1  0
 80 79  2  0
 81 80  1  0
 82 56  1  0
 82 87  1  0
 82 83  1  0
 83 86  1  1
 83 84  1  0
 85 83  1  0
 87 90  1  0
 88 92  1  0
 88 87  1  0
 89 88  2  0
 92 91  1  0
 94 92  1  0
 94 95  1  0
 94 93  1  0
M  ISO  4   3 100  15 100  54 101  55 101
M  END
>  <TORSDO>  (96) 
F 20

>  <SCORE>  (96) 
-12.573

>  <name>  (96) 
95

>  <ligand_id>  (96) 
95

>  <original_smiles>  (96) 
[H]c1c([H])c([H])c2c(c1[H])C([H])([H])C([H])([H])C([H])([H])C2([H])N([H])C(=O)C1([H])N(C(=O)C([H])(N([H])C(=O)C([H])(N([H])C([H])([H])[H])C([H])([H])[H])C(C([H])([H])[H])(C([H])([H])[H])C([H])([H])[H])C([H])([H])c2c([H])c(OC([H])([H])C(=O)N([H])C([H])([H])C([H])(C([H])([H])[H])C3([H])C([H])([H])N(C(=O)N4C([H])([H])C([H])([H])C([H])([H])C([H])(n5nc(-c6c([H])c([H])c(Oc7c([H])c([H])c(F)c([H])c7F)c([H])c6[H])c(C(=O)N([H])[H])c5N([H])[H])C4([H])[H])C([H])([H])C([H])([H])[N+]3([H])C([H])(C([H])([H])[H])C([H])([H])[H])c([H])c([H])c2C1([H])[H]

>  <smiles>  (96) 
[H]c1c([H])c([H])c2c(c1[H])C([H])([H])C([H])([H])C([H])([H])C2([H])N([H])C(=O)C1([H])N(C(=O)C([H])(N([H])C(=O)C([H])(N([H])C([H])([H])[H])C([H])([H])[H])C(C([H])([H])[H])(C([H])([H])[H])C([H])([H])[H])C([H])([H])c2c([H])c(OC([H])([H])C(=O)N([H])C([H])([H])C([H])(C([H])([H])[H])C3([H])C([H])([H])N(C(=O)N4C([H])([H])C([H])([H])C([H])([H])C([H])(n5nc(-c6c([H])c([H])c(Oc7c([H])c([H])c(F)c([H])c7F)c([H])c6[H])c(C(=O)N([H])[H])c5N([H])[H])C4([H])[H])C([H])([H])C([H])([H])[N+]3([H])C([H])(C([H])([H])[H])C([H])([H])[H])c([H])c([H])c2C1([H])[H]

$$$$
96:0:0
     RDKit          3D

 92100  0  0  1  0  0  0  0  0999 V2000
  -31.5310  -21.5680   18.3820 C   0  0  0  0  0  2  0  0  0  0  0  0
  -32.1490  -15.5010   19.5280 C   0  0  0  0  0  0  0  0  0  0  0  0
  -31.9660  -13.0600   18.9730 C   0  0  0  0  0  2  0  0  0  0  0  0
  -30.9880  -12.9070   17.7830 C   0  0  0  0  0  2  0  0  0  0  0  0
  -29.5220  -12.8560   18.2620 C   0  0  0  0  0  2  0  0  0  0  0  0
  -29.1950  -13.9700   19.2900 C   0  0  0  0  0  3  0  0  0  0  0  0
  -30.2740  -14.0300   20.3960 C   0  0  0  0  0  2  0  0  0  0  0  0
  -31.5700  -14.2660   19.7330 N   0  0  0  0  0  0  0  0  0  0  0  0
  -33.3010  -15.5880   19.0850 O   0  0  0  0  0  0  0  0  0  0  0  0
  -30.1020  -18.6350   20.2550 C   0  0  0  0  0  3  0  0  0  0  0  0
  -30.0930  -19.9720   19.9400 C   0  0  0  0  0  0  0  0  0  0  0  0
  -31.1590  -18.0320   19.5260 C   0  0  0  0  0  0  0  0  0  0  0  0
  -31.7460  -18.9930   18.7460 N   0  0  0  0  0  0  0  0  0  0  0  0
  -31.0670  -20.2170   18.9670 N   0  0  0  0  0  0  0  0  0  0  0  0
  -31.2930  -16.5700   19.7300 N   0  0  0  0  0  0  0  0  0  0  0  0
  -30.4660  -16.2030   20.1710 H   0  0  0  0  0  0  0  0  0  0  0  0
  -26.9350  -14.8220   20.1690 C   0  0  0  0  0  0  0  0  0  0  0  0
  -25.8020  -14.1670   20.5700 C   0  0  0  0  0  0  0  0  0  0  0  0
  -26.0930  -12.7730   20.4630 C   0  0  0  0  0  0  0  0  0  0  0  0
  -27.8490  -13.8320   19.8400 N   0  0  0  0  0  0  0  0  0  0  0  0
  -27.3500  -12.5920   20.0780 N   0  0  0  0  0  0  0  0  0  0  0  0
  -25.2270  -11.6000   20.6480 C   0  0  0  0  0  0  0  0  0  0  0  0
  -25.5880  -10.5480   21.5170 C   0  0  0  0  0  3  0  0  0  0  0  0
  -24.7330   -9.4390   21.6900 C   0  0  0  0  0  3  0  0  0  0  0  0
  -23.5030   -9.3750   20.9940 C   0  0  0  0  0  0  0  0  0  0  0  0
  -23.1600  -10.4160   20.1120 C   0  0  0  0  0  3  0  0  0  0  0  0
  -24.0140  -11.5170   19.9370 C   0  0  0  0  0  3  0  0  0  0  0  0
  -22.6190   -8.3270   21.0810 O   0  0  0  0  0  0  0  0  0  0  0  0
  -22.3530   -7.7090   22.2760 C   0  0  0  0  0  0  0  0  0  0  0  0
  -21.8710   -8.4250   23.3940 C   0  0  0  0  0  3  0  0  0  0  0  0
  -21.5430   -7.7390   24.5810 C   0  0  0  0  0  3  0  0  0  0  0  0
  -21.6860   -6.3410   24.6500 C   0  0  0  0  0  0  0  0  0  0  0  0
  -22.1610   -5.6250   23.5350 C   0  0  0  0  0  3  0  0  0  0  0  0
  -22.4910   -6.3070   22.3520 C   0  0  0  0  0  0  0  0  0  0  0  0
  -22.9260   -5.6120   21.2740 F   0  0  0  0  0  0  0  0  0  0  0  0
  -21.3650   -5.6800   25.7860 F   0  0  0  0  0  0  0  0  0  0  0  0
  -24.4900  -14.7990   20.9370 C   0  0  0  0  0  0  0  0  0  0  0  0
  -23.7650  -14.2060   21.8780 N   0  0  0  0  0  0  0  0  0  0  0  0
  -24.1200  -15.8530   20.4200 O   0  0  0  0  0  0  0  0  0  0  0  0
  -24.0770  -13.3530   22.3180 H   0  0  0  0  0  0  0  0  0  0  0  0
  -22.8860  -14.6140   22.1640 H   0  0  0  0  0  0  0  0  0  0  0  0
  -27.2580  -16.1690   20.0340 N   0  0  0  0  0  0  0  0  0  0  0  0
  -26.5760  -16.9000   20.2040 H   0  0  0  0  0  0  0  0  0  0  0  0
  -28.1170  -16.5190   19.6310 H   0  0  0  0  0  0  0  0  0  0  0  0
  -28.5130  -20.5560   21.8310 C   0  0  0  0  0  1  0  0  0  0  0  0
  -28.1060  -21.4430   19.5140 C   0  0  0  0  0  1  0  0  0  0  0  0
  -29.1840  -21.0150   20.5250 C   0  0  0  0  0  3  0  0  0  0  0  0
  -30.5180  -22.7970   18.0010 C   0  0  0  0  0  2  0  0  0  0  0  0
  -32.0130  -24.8330   17.4370 C   0  0  0  0  0  1  0  0  0  0  0  0
  -30.8630  -24.3600   18.3360 C   0  0  0  0  0  3  0  0  0  0  0  0
  -29.6610  -25.4570   18.2870 C   0  0  0  0  0  2  0  0  0  0  0  0
  -29.6820  -26.7800   19.0190 O   0  0  0  0  0  0  0  0  0  0  0  0
  -25.1070  -30.2790   23.4740 C   0  0  0  0  0  0  0  0  0  0  0  0
  -28.4670  -27.4960   19.1960 C   0  0  0  0  0  0  0  0  0  0  0  0
  -24.1860  -29.4750   21.3310 C   0  0  0  0  0  3  0  0  0  0  0  0
  -25.9010  -28.7510   19.5740 C   0  0  0  0  0  0  0  0  0  0  0  0
  -26.6660  -30.1170   21.5120 C   0  0  0  0  0  2  0  0  0  0  0  0
  -26.9690  -29.0990   20.4110 C   0  0  0  0  0  0  0  0  0  0  0  0
  -28.2520  -28.4890   20.2150 C   0  0  0  0  0  3  0  0  0  0  0  0
  -27.3610  -27.2200   18.3590 C   0  0  0  0  0  3  0  0  0  0  0  0
  -26.1020  -27.8240   18.5420 C   0  0  0  0  0  3  0  0  0  0  0  0
  -24.5540  -29.4040   19.8270 C   0  0  0  0  0  2  0  0  0  0  0  0
  -25.3340  -29.9550   22.1660 N   0  0  0  0  0  0  0  0  0  0  0  0
  -23.9730  -30.2080   23.9700 O   0  0  0  0  0  0  0  0  0  0  0  0
  -23.6300  -28.1040   21.7830 C   0  0  0  0  0  0  0  0  0  0  0  0
  -22.3890  -27.7840   21.3750 N   0  0  0  0  0  0  0  0  0  0  0  0
  -24.3180  -27.3420   22.4660 O   0  0  0  0  0  0  0  0  0  0  0  0
  -21.8810  -28.4670   20.8290 H   0  0  0  0  0  0  0  0  0  0  0  0
  -19.3000  -25.9790   20.8270 C   0  0  0  0  0  0  0  0  0  0  0  0
  -21.6890  -26.5270   21.6500 C   0  0  0  0  0  3  0  0  0  0  0  0
  -22.1630  -25.4050   20.6970 C   0  0  0  0  0  2  0  0  0  0  0  0
  -21.2970  -25.2760   19.4400 C   0  0  0  0  0  2  0  0  0  0  0  0
  -19.8420  -24.9800   19.8170 C   0  0  0  0  0  2  0  0  0  0  0  0
  -20.1680  -26.7160   21.6750 C   0  0  0  0  0  0  0  0  0  0  0  0
  -19.6120  -27.6560   22.5690 C   0  0  0  0  0  3  0  0  0  0  0  0
  -18.2210  -27.8600   22.6280 C   0  0  0  0  0  3  0  0  0  0  0  0
  -17.3660  -27.1170   21.7950 C   0  0  0  0  0  3  0  0  0  0  0  0
  -17.9050  -26.1770   20.9000 C   0  0  0  0  0  3  0  0  0  0  0  0
  -26.2560  -30.7760   24.4020 C   0  0  0  0  0  3  0  0  0  0  0  0
  -26.4390  -29.8860   25.6930 C   0  0  1  0  0  0  0  0  0  0  0  0
  -25.1340  -29.6760   26.4940 C   0  0  0  0  0  1  0  0  0  0  0  0
  -26.9960  -28.4910   25.3220 C   0  0  0  0  0  1  0  0  0  0  0  0
  -27.4760  -30.5390   26.6370 C   0  0  0  0  0  1  0  0  0  0  0  0
  -25.9600  -32.1660   24.7760 N   0  0  0  0  0  0  0  0  0  0  0  0
  -26.5460  -33.2430   24.2340 C   0  0  0  0  0  0  0  0  0  0  0  0
  -27.4540  -33.1630   23.4030 O   0  0  0  0  0  0  0  0  0  0  0  0
  -25.1890  -32.3090   25.4110 H   0  0  0  0  0  0  0  0  0  0  0  0
  -25.1430  -35.2330   23.5950 C   0  0  0  0  0  1  0  0  0  0  0  0
  -26.0440  -34.6300   24.6850 C   0  0  0  0  0  3  0  0  0  0  0  0
  -27.8790  -35.2110   26.2090 C   0  0  0  0  0  1  0  0  0  0  0  0
  -27.1360  -35.5740   25.0060 N   0  0  0  0  0  0  0  0  0  0  0  0
  -26.7730  -36.5170   25.1290 H   0  0  0  0  0  0  0  0  0  0  0  0
  1 14  1  0
  2 15  1  0
  2  8  1  0
  3  8  1  0
  4  5  1  0
  4  3  1  0
  6  5  1  0
  6 20  1  0
  6  7  1  0
  8  7  1  0
  9  2  2  0
 11 10  2  0
 11 47  1  0
 12 15  1  0
 12 10  1  0
 13 14  1  0
 13 12  2  0
 14 11  1  0
 15 16  1  0
 17 18  2  0
 18 37  1  0
 19 18  1  0
 19 22  1  0
 20 21  1  0
 20 17  1  0
 21 19  2  0
 22 23  1  0
 23 24  2  0
 25 28  1  0
 25 24  1  0
 26 25  2  0
 27 26  1  0
 27 22  2  0
 28 29  1  0
 29 34  2  0
 29 30  1  0
 30 31  2  0
 31 32  1  0
 32 36  1  0
 33 32  2  0
 34 33  1  0
 35 34  1  0
 37 38  1  0
 38 41  1  0
 38 40  1  0
 39 37  2  0
 42 17  1  0
 42 43  1  0
 44 42  1  0
 46 47  1  0
 47 45  1  0
 48 50  1  0
 48  1  1  0
 50 49  1  0
 51 50  1  0
 51 52  1  0
 52 54  1  0
 53 64  2  0
 54 59  1  0
 55 65  1  0
 55 63  1  0
 56 62  1  0
 56 58  1  0
 57 63  1  0
 58 57  1  0
 59 58  2  0
 60 61  1  0
 60 54  2  0
 61 56  2  0
 62 55  1  0
 63 53  1  0
 65 67  2  0
 66 65  1  0
 68 66  1  0
 69 78  2  0
 69 74  1  0
 70 66  1  0
 70 74  1  0
 71 70  1  0
 72 73  1  0
 72 71  1  0
 73 69  1  0
 74 75  2  0
 75 76  1  0
 77 76  2  0
 78 77  1  0
 79 53  1  0
 79 84  1  0
 79 80  1  0
 80 81  1  1
 80 83  1  0
 82 80  1  0
 84 87  1  0
 85 89  1  0
 85 84  1  0
 86 85  2  0
 89 88  1  0
 89 91  1  0
 91 92  1  0
 91 90  1  0
M  ISO  4   2 100  15 100  51 101  52 101
M  END
>  <TORSDO>  (97) 
F 20

>  <SCORE>  (97) 
-7.767

>  <name>  (97) 
96

>  <ligand_id>  (97) 
96

>  <original_smiles>  (97) 
[H]c1c([H])c([H])c2c(c1[H])C([H])([H])C([H])([H])C([H])([H])C2([H])N([H])C(=O)C1([H])N(C(=O)C([H])(N([H])C(=O)C([H])(N([H])C([H])([H])[H])C([H])([H])[H])C(C([H])([H])[H])(C([H])([H])[H])C([H])([H])[H])C([H])([H])c2c([H])c(OC([H])([H])C([H])(C([H])([H])[H])C([H])([H])C([H])([H])n3nc(N([H])C(=O)N4C([H])([H])C([H])([H])C([H])([H])C([H])(n5nc(-c6c([H])c([H])c(Oc7c([H])c([H])c(F)c([H])c7F)c([H])c6[H])c(C(=O)N([H])[H])c5N([H])[H])C4([H])[H])c([H])c3C([H])(C([H])([H])[H])C([H])([H])[H])c([H])c([H])c2C1([H])[H]

>  <smiles>  (97) 
[H]c1c([H])c([H])c2c(c1[H])C([H])([H])C([H])([H])C([H])([H])C2([H])N([H])C(=O)C1([H])N(C(=O)C([H])(N([H])C(=O)C([H])(N([H])C([H])([H])[H])C([H])([H])[H])C(C([H])([H])[H])(C([H])([H])[H])C([H])([H])[H])C([H])([H])c2c([H])c(OC([H])([H])C([H])(C([H])([H])[H])C([H])([H])C([H])([H])n3nc(N([H])C(=O)N4C([H])([H])C([H])([H])C([H])([H])C([H])(n5nc(-c6c([H])c([H])c(Oc7c([H])c([H])c(F)c([H])c7F)c([H])c6[H])c(C(=O)N([H])[H])c5N([H])[H])C4([H])[H])c([H])c3C([H])(C([H])([H])[H])C([H])([H])[H])c([H])c([H])c2C1([H])[H]

$$$$
97:0:0
     RDKit          3D

100108  0  0  1  0  0  0  0  0999 V2000
  -29.1770  -22.6950   20.2010 C   0  0  0  0  0  3  0  0  0  0  0  0
  -30.0730  -24.5370   18.9220 C   0  0  0  0  0  3  0  0  0  0  0  0
  -29.1670  -24.1000   19.8940 C   0  0  0  0  0  0  0  0  0  0  0  0
  -30.0570  -21.7910   19.5050 C   0  0  0  0  0  0  0  0  0  0  0  0
  -30.8910  -22.3810   18.5100 C   0  0  0  0  0  0  0  0  0  0  0  0
  -30.9110  -23.7130   18.2710 N   0  0  0  0  0  0  0  0  0  0  0  0
  -31.1370  -20.4470   16.8700 C   0  0  0  0  0  1  0  0  0  0  0  0
  -32.5570  -22.4150   16.5350 C   0  0  0  0  0  1  0  0  0  0  0  0
  -31.8880  -21.5560   17.6460 C   0  0  1  0  0  0  0  0  0  0  0  0
  -33.0140  -20.9280   18.5190 C   0  0  0  0  0  2  0  0  0  0  0  0
  -33.8340  -21.9190   19.2460 N   0  0  0  0  0  4  0  0  0  0  0  0
  -34.3000  -22.5340   18.6040 H   0  0  0  0  0  0  0  0  0  0  0  0
  -34.5380  -21.4470   19.7870 H   0  0  0  0  0  0  0  0  0  0  0  0
  -33.2750  -22.4700   19.8720 H   0  0  0  0  0  0  0  0  0  0  0  0
  -28.2010  -25.1320   20.5470 C   0  0  0  0  0  2  0  0  0  0  0  0
  -28.3500  -26.5430   20.1460 O   0  0  0  0  0  0  0  0  0  0  0  0
  -24.6030  -31.8730   23.2210 C   0  0  0  0  0  0  0  0  0  0  0  0
  -27.2090  -27.3490   20.1510 C   0  0  0  0  0  0  0  0  0  0  0  0
  -23.3880  -30.4710   21.5900 C   0  0  0  0  0  3  0  0  0  0  0  0
  -24.8310  -28.9240   20.1570 C   0  0  0  0  0  0  0  0  0  0  0  0
  -25.9210  -30.8050   21.3830 C   0  0  0  0  0  2  0  0  0  0  0  0
  -26.0000  -29.4270   20.7430 C   0  0  0  0  0  0  0  0  0  0  0  0
  -27.1940  -28.6510   20.7290 C   0  0  0  0  0  3  0  0  0  0  0  0
  -26.0210  -26.8920   19.5380 C   0  0  0  0  0  3  0  0  0  0  0  0
  -24.8420  -27.6590   19.5480 C   0  0  0  0  0  3  0  0  0  0  0  0
  -23.5920  -29.7920   20.2090 C   0  0  0  0  0  2  0  0  0  0  0  0
  -24.6570  -31.0670   22.1220 N   0  0  0  0  0  0  0  0  0  0  0  0
  -23.5240  -32.1500   23.7640 O   0  0  0  0  0  0  0  0  0  0  0  0
  -22.7360  -29.4540   22.5550 C   0  0  0  0  0  0  0  0  0  0  0  0
  -21.4090  -29.2740   22.4370 N   0  0  0  0  0  0  0  0  0  0  0  0
  -23.4210  -28.8290   23.3690 O   0  0  0  0  0  0  0  0  0  0  0  0
  -20.9170  -29.8300   21.7520 H   0  0  0  0  0  0  0  0  0  0  0  0
  -18.0370  -28.0750   22.9540 C   0  0  0  0  0  0  0  0  0  0  0  0
  -20.5960  -28.3380   23.2130 C   0  0  0  0  0  3  0  0  0  0  0  0
  -20.6980  -26.9050   22.6410 C   0  0  0  0  0  2  0  0  0  0  0  0
  -19.5920  -26.5780   21.6330 C   0  0  0  0  0  2  0  0  0  0  0  0
  -18.2130  -26.7240   22.2820 C   0  0  0  0  0  2  0  0  0  0  0  0
  -19.1570  -28.8400   23.3770 C   0  0  0  0  0  0  0  0  0  0  0  0
  -18.9390  -30.1040   23.9650 C   0  0  0  0  0  3  0  0  0  0  0  0
  -17.6340  -30.6050   24.1340 C   0  0  0  0  0  3  0  0  0  0  0  0
  -16.5290  -29.8380   23.7280 C   0  0  0  0  0  3  0  0  0  0  0  0
  -16.7320  -28.5740   23.1430 C   0  0  0  0  0  3  0  0  0  0  0  0
  -25.8910  -32.5060   23.8330 C   0  0  0  0  0  3  0  0  0  0  0  0
  -25.5810  -33.9020   24.1730 N   0  0  0  0  0  0  0  0  0  0  0  0
  -25.9050  -34.9590   23.4150 C   0  0  0  0  0  0  0  0  0  0  0  0
  -26.5670  -34.8620   22.3790 O   0  0  0  0  0  0  0  0  0  0  0  0
  -24.9920  -34.0510   24.9780 H   0  0  0  0  0  0  0  0  0  0  0  0
  -24.1720  -36.7500   23.0820 C   0  0  0  0  0  1  0  0  0  0  0  0
  -25.4190  -36.3440   23.8830 C   0  0  0  0  0  3  0  0  0  0  0  0
  -27.5590  -37.2270   24.7020 C   0  0  0  0  0  1  0  0  0  0  0  0
  -26.4490  -37.3990   23.7690 N   0  0  0  0  0  0  0  0  0  0  0  0
  -26.0430  -38.3180   23.9260 H   0  0  0  0  0  0  0  0  0  0  0  0
  -26.4230  -31.7300   25.1010 C   0  0  1  0  0  0  0  0  0  0  0  0
  -25.3410  -31.4870   26.1790 C   0  0  0  0  0  1  0  0  0  0  0  0
  -27.0020  -30.3550   24.6960 C   0  0  0  0  0  1  0  0  0  0  0  0
  -27.5790  -32.5230   25.7530 C   0  0  0  0  0  1  0  0  0  0  0  0
  -30.1680  -20.3980   19.6670 O   0  0  0  0  0  0  0  0  0  0  0  0
  -29.6090  -19.6200   20.7550 C   0  0  0  0  0  2  0  0  0  0  0  0
  -29.3420  -18.0940   20.3920 C   0  0  0  0  0  2  0  0  0  0  0  0
  -30.3740  -17.0370   20.7440 N   0  0  0  0  0  4  0  0  0  0  0  0
  -30.8450  -17.2970   21.5970 H   0  0  0  0  0  0  0  0  0  0  0  0
  -31.0890  -16.9670   20.0310 H   0  0  0  0  0  0  0  0  0  0  0  0
  -30.6030  -14.6090   20.4660 C   0  0  0  0  0  0  0  0  0  0  0  0
  -30.3930  -12.4040   19.3360 C   0  0  0  0  0  2  0  0  0  0  0  0
  -29.4280  -12.5550   18.1370 C   0  0  0  0  0  2  0  0  0  0  0  0
  -27.9600  -12.3930   18.5800 C   0  0  0  0  0  2  0  0  0  0  0  0
  -27.6190  -13.2350   19.8370 C   0  0  0  0  0  3  0  0  0  0  0  0
  -28.6860  -13.0310   20.9370 C   0  0  0  0  0  2  0  0  0  0  0  0
  -29.9960  -13.3870   20.3610 N   0  0  0  0  0  0  0  0  0  0  0  0
  -31.7290  -14.8330   20.0110 O   0  0  0  0  0  0  0  0  0  0  0  0
  -29.8110  -15.6020   20.9570 N   0  0  0  0  0  0  0  0  0  0  0  0
  -28.8720  -15.4860   21.3040 H   0  0  0  0  0  0  0  0  0  0  0  0
  -25.2290  -13.8420   20.5690 C   0  0  0  0  0  0  0  0  0  0  0  0
  -24.1630  -13.0700   20.9470 C   0  0  0  0  0  0  0  0  0  0  0  0
  -24.6230  -11.7180   20.9080 C   0  0  0  0  0  0  0  0  0  0  0  0
  -26.2710  -12.9600   20.3270 N   0  0  0  0  0  0  0  0  0  0  0  0
  -25.9110  -11.6780   20.5900 N   0  0  0  0  0  0  0  0  0  0  0  0
  -23.8970  -10.4550   21.1000 C   0  0  0  0  0  0  0  0  0  0  0  0
  -24.3500   -9.4750   22.0100 C   0  0  0  0  0  3  0  0  0  0  0  0
  -23.6260   -8.2780   22.1910 C   0  0  0  0  0  3  0  0  0  0  0  0
  -22.4340   -8.0530   21.4610 C   0  0  0  0  0  0  0  0  0  0  0  0
  -22.0000   -9.0220   20.5390 C   0  0  0  0  0  3  0  0  0  0  0  0
  -22.7260  -10.2110   20.3570 C   0  0  0  0  0  3  0  0  0  0  0  0
  -21.6790   -6.9090   21.5510 O   0  0  0  0  0  0  0  0  0  0  0  0
  -21.6730   -6.1380   22.6870 C   0  0  0  0  0  0  0  0  0  0  0  0
  -21.3070   -6.6680   23.9430 C   0  0  0  0  0  3  0  0  0  0  0  0
  -21.2470   -5.8260   25.0720 C   0  0  0  0  0  3  0  0  0  0  0  0
  -21.5410   -4.4550   24.9450 C   0  0  0  0  0  0  0  0  0  0  0  0
  -21.9000   -3.9250   23.6930 C   0  0  0  0  0  3  0  0  0  0  0  0
  -21.9630   -4.7640   22.5670 C   0  0  0  0  0  0  0  0  0  0  0  0
  -22.2880   -4.2450   21.3590 F   0  0  0  0  0  0  0  0  0  0  0  0
  -21.4760   -3.6440   26.0260 F   0  0  0  0  0  0  0  0  0  0  0  0
  -22.7690  -13.5480   21.2310 C   0  0  0  0  0  0  0  0  0  0  0  0
  -22.0460  -12.8510   22.1010 N   0  0  0  0  0  0  0  0  0  0  0  0
  -22.3270  -14.5750   20.7160 O   0  0  0  0  0  0  0  0  0  0  0  0
  -22.4150  -12.0200   22.5390 H   0  0  0  0  0  0  0  0  0  0  0  0
  -21.1100  -13.1540   22.3330 H   0  0  0  0  0  0  0  0  0  0  0  0
  -25.3930  -15.2130   20.3910 N   0  0  0  0  0  0  0  0  0  0  0  0
  -24.6180  -15.8600   20.4920 H   0  0  0  0  0  0  0  0  0  0  0  0
  -26.2170  -15.6450   19.9940 H   0  0  0  0  0  0  0  0  0  0  0  0
  2  3  2  0
  3  1  1  0
  3 15  1  0
  4 57  1  0
  4  1  2  0
  5  4  1  0
  6  5  2  0
  6  2  1  0
  9  7  1  6
  8  9  1  0
  9  5  1  0
  9 10  1  0
 10 11  1  0
 11 13  1  0
 11 14  1  0
 12 11  1  0
 16 18  1  0
 16 15  1  0
 17 28  2  0
 18 23  1  0
 19 27  1  0
 19 29  1  0
 20 26  1  0
 20 22  1  0
 21 27  1  0
 22 21  1  0
 23 22  2  0
 24 25  1  0
 24 18  2  0
 25 20  2  0
 26 19  1  0
 27 17  1  0
 29 31  2  0
 30 29  1  0
 32 30  1  0
 33 42  2  0
 33 38  1  0
 34 30  1  0
 34 38  1  0
 35 34  1  0
 36 37  1  0
 36 35  1  0
 37 33  1  0
 38 39  2  0
 39 40  1  0
 41 40  2  0
 42 41  1  0
 43 17  1  0
 43 44  1  0
 43 53  1  0
 44 47  1  0
 45 49  1  0
 45 44  1  0
 46 45  2  0
 49 48  1  0
 51 49  1  0
 51 52  1  0
 51 50  1  0
 53 56  1  1
 53 54  1  0
 55 53  1  0
 57 58  1  0
 59 60  1  0
 59 58  1  0
 60 71  1  0
 60 61  1  0
 62 60  1  0
 63 71  1  0
 64 69  1  0
 65 66  1  0
 65 64  1  0
 67 66  1  0
 67 76  1  0
 67 68  1  0
 69 63  1  0
 69 68  1  0
 70 63  2  0
 71 72  1  0
 73 74  2  0
 74 93  1  0
 75 74  1  0
 75 78  1  0
 76 73  1  0
 76 77  1  0
 77 75  2  0
 78 79  1  0
 79 80  2  0
 81 84  1  0
 81 80  1  0
 82 81  2  0
 83 82  1  0
 83 78  2  0
 84 85  1  0
 85 86  1  0
 86 87  2  0
 88 87  1  0
 88 92  1  0
 89 88  2  0
 90 85  2  0
 90 89  1  0
 91 90  1  0
 93 94  1  0
 94 97  1  0
 94 96  1  0
 95 93  2  0
 98 99  1  0
 98 73  1  0
100 98  1  0
M  ISO  4  15 101  16 101  63 100  71 100
M  END
>  <TORSDO>  (98) 
F 24

>  <SCORE>  (98) 
-12.590

>  <name>  (98) 
97

>  <ligand_id>  (98) 
97

>  <original_smiles>  (98) 
[H]c1nc(C(C([H])([H])[H])(C([H])([H])[H])C([H])([H])[N+]([H])([H])[H])c(OC([H])([H])C([H])([H])[N+]([H])([H])N([H])C(=O)N2C([H])([H])C([H])([H])C([H])([H])C([H])(n3nc(-c4c([H])c([H])c(Oc5c([H])c([H])c(F)c([H])c5F)c([H])c4[H])c(C(=O)N([H])[H])c3N([H])[H])C2([H])[H])c([H])c1C([H])([H])Oc1c([H])c([H])c2c(c1[H])C([H])([H])N(C(=O)C([H])(N([H])C(=O)C([H])(N([H])C([H])([H])[H])C([H])([H])[H])C(C([H])([H])[H])(C([H])([H])[H])C([H])([H])[H])C([H])(C(=O)N([H])C1([H])c3c([H])c([H])c([H])c([H])c3C([H])([H])C([H])([H])C1([H])[H])C2([H])[H]

>  <smiles>  (98) 
[H]c1nc(C(C([H])([H])[H])(C([H])([H])[H])C([H])([H])[N+]([H])([H])[H])c(OC([H])([H])C([H])([H])[N+]([H])([H])N([H])C(=O)N2C([H])([H])C([H])([H])C([H])([H])C([H])(n3nc(-c4c([H])c([H])c(Oc5c([H])c([H])c(F)c([H])c5F)c([H])c4[H])c(C(=O)N([H])[H])c3N([H])[H])C2([H])[H])c([H])c1C([H])([H])Oc1c([H])c([H])c2c(c1[H])C([H])([H])N(C(=O)C([H])(N([H])C(=O)C([H])(N([H])C([H])([H])[H])C([H])([H])[H])C(C([H])([H])[H])(C([H])([H])[H])C([H])([H])[H])C([H])(C(=O)N([H])C1([H])c3c([H])c([H])c([H])c([H])c3C([H])([H])C([H])([H])C1([H])[H])C2([H])[H]

$$$$
98:0:0
     RDKit          3D

 94102  0  0  1  0  0  0  0  0999 V2000
  -29.3690  -22.8300   21.5860 C   0  0  0  0  0  3  0  0  0  0  0  0
  -29.9000  -22.1360   20.4530 C   0  0  0  0  0  0  0  0  0  0  0  0
  -29.6880  -23.0550   19.4340 C   0  0  0  0  0  0  0  0  0  0  0  0
  -30.0270  -22.9560   17.9670 C   0  0  0  0  0  1  0  0  0  0  0  0
  -28.8750  -24.0320   21.3050 N   0  0  0  0  0  0  0  0  0  0  0  0
  -29.0840  -24.2100   19.9800 N   0  0  0  0  0  0  0  0  0  0  0  0
  -30.6100  -20.7440   20.4820 C   0  0  0  0  0  2  0  0  0  0  0  0
  -29.6940  -19.5490   20.4600 N   0  0  0  0  0  4  0  0  0  0  0  0
  -29.3220  -19.4490   19.5290 H   0  0  0  0  0  0  0  0  0  0  0  0
  -28.9090  -19.8270   21.0300 H   0  0  0  0  0  0  0  0  0  0  0  0
  -31.2740  -18.2580   22.0140 C   0  0  0  0  0  1  0  0  0  0  0  0
  -28.8600  -17.6570   21.7910 C   0  0  0  0  0  1  0  0  0  0  0  0
  -30.0930  -18.1810   21.0090 C   0  0  1  0  0  0  0  0  0  0  0  0
  -30.4650  -17.1220   19.8880 C   0  0  0  0  0  2  0  0  0  0  0  0
  -31.0170  -14.6040   19.8420 C   0  0  0  0  0  0  0  0  0  0  0  0
  -30.5690  -12.4530   18.7030 C   0  0  0  0  0  2  0  0  0  0  0  0
  -29.5610  -12.7400   17.5680 C   0  0  0  0  0  2  0  0  0  0  0  0
  -28.1100  -12.6580   18.0840 C   0  0  0  0  0  2  0  0  0  0  0  0
  -27.8980  -13.4590   19.3960 C   0  0  0  0  0  3  0  0  0  0  0  0
  -29.0190  -13.1680   20.4250 C   0  0  0  0  0  2  0  0  0  0  0  0
  -30.3120  -13.4330   19.7720 N   0  0  0  0  0  0  0  0  0  0  0  0
  -32.1360  -14.7340   19.3460 O   0  0  0  0  0  0  0  0  0  0  0  0
  -30.3060  -15.6800   20.2660 N   0  0  0  0  0  0  0  0  0  0  0  0
  -29.4070  -15.4350   20.6500 H   0  0  0  0  0  0  0  0  0  0  0  0
  -25.5970  -14.1680   20.3050 C   0  0  0  0  0  0  0  0  0  0  0  0
  -24.5100  -13.4440   20.7190 C   0  0  0  0  0  0  0  0  0  0  0  0
  -24.8820  -12.0720   20.5960 C   0  0  0  0  0  0  0  0  0  0  0  0
  -26.5650  -13.2390   19.9590 N   0  0  0  0  0  0  0  0  0  0  0  0
  -26.1430  -11.9680   20.1890 N   0  0  0  0  0  0  0  0  0  0  0  0
  -24.0910  -10.8500   20.7830 C   0  0  0  0  0  0  0  0  0  0  0  0
  -24.5080   -9.8280   21.6650 C   0  0  0  0  0  3  0  0  0  0  0  0
  -23.7240   -8.6660   21.8410 C   0  0  0  0  0  3  0  0  0  0  0  0
  -22.5070   -8.5200   21.1320 C   0  0  0  0  0  0  0  0  0  0  0  0
  -22.1060   -9.5290   20.2370 C   0  0  0  0  0  3  0  0  0  0  0  0
  -22.8900  -10.6810   20.0630 C   0  0  0  0  0  3  0  0  0  0  0  0
  -21.6840   -7.4230   21.2240 O   0  0  0  0  0  0  0  0  0  0  0  0
  -21.6180   -6.6660   22.3650 C   0  0  0  0  0  0  0  0  0  0  0  0
  -21.2660   -7.2240   23.6140 C   0  0  0  0  0  3  0  0  0  0  0  0
  -21.1480   -6.3950   24.7480 C   0  0  0  0  0  3  0  0  0  0  0  0
  -21.3710   -5.0100   24.6350 C   0  0  0  0  0  0  0  0  0  0  0  0
  -21.7130   -4.4490   23.3910 C   0  0  0  0  0  3  0  0  0  0  0  0
  -21.8370   -5.2750   22.2630 C   0  0  0  0  0  0  0  0  0  0  0  0
  -22.1500   -4.7280   21.0620 F   0  0  0  0  0  0  0  0  0  0  0  0
  -21.2460   -4.2130   25.7220 F   0  0  0  0  0  0  0  0  0  0  0  0
  -23.1690  -13.9930   21.1120 C   0  0  0  0  0  0  0  0  0  0  0  0
  -22.4610  -13.3110   22.0040 N   0  0  0  0  0  0  0  0  0  0  0  0
  -22.7600  -15.0630   20.6610 O   0  0  0  0  0  0  0  0  0  0  0  0
  -22.8020  -12.4480   22.3990 H   0  0  0  0  0  0  0  0  0  0  0  0
  -21.5600  -13.6610   22.3020 H   0  0  0  0  0  0  0  0  0  0  0  0
  -25.8330  -15.5340   20.1750 N   0  0  0  0  0  0  0  0  0  0  0  0
  -25.0930  -16.2160   20.3300 H   0  0  0  0  0  0  0  0  0  0  0  0
  -26.6600  -15.9300   19.7460 H   0  0  0  0  0  0  0  0  0  0  0  0
  -28.6610  -25.4780   19.3060 C   0  0  0  0  0  2  0  0  0  0  0  0
  -28.4550  -26.5940   20.2030 O   0  0  0  0  0  0  0  0  0  0  0  0
  -24.6570  -31.8800   23.2760 C   0  0  0  0  0  0  0  0  0  0  0  0
  -27.2870  -27.3700   20.1590 C   0  0  0  0  0  0  0  0  0  0  0  0
  -23.4510  -30.4880   21.6320 C   0  0  0  0  0  3  0  0  0  0  0  0
  -24.8990  -28.9520   20.1930 C   0  0  0  0  0  0  0  0  0  0  0  0
  -25.9860  -30.8190   21.4370 C   0  0  0  0  0  2  0  0  0  0  0  0
  -26.0670  -29.4460   20.7830 C   0  0  0  0  0  0  0  0  0  0  0  0
  -27.2570  -28.6630   20.7640 C   0  0  0  0  0  3  0  0  0  0  0  0
  -26.0780  -26.9090   19.5780 C   0  0  0  0  0  3  0  0  0  0  0  0
  -24.9050  -27.6850   19.5890 C   0  0  0  0  0  3  0  0  0  0  0  0
  -23.6610  -29.8200   20.2480 C   0  0  0  0  0  2  0  0  0  0  0  0
  -24.7170  -31.0780   22.1730 N   0  0  0  0  0  0  0  0  0  0  0  0
  -23.5740  -32.1540   23.8140 O   0  0  0  0  0  0  0  0  0  0  0  0
  -22.7930  -29.4670   22.5880 C   0  0  0  0  0  0  0  0  0  0  0  0
  -21.4700  -29.2710   22.4480 N   0  0  0  0  0  0  0  0  0  0  0  0
  -23.4720  -28.8500   23.4140 O   0  0  0  0  0  0  0  0  0  0  0  0
  -20.9810  -29.8290   21.7630 H   0  0  0  0  0  0  0  0  0  0  0  0
  -18.1070  -28.0160   22.8820 C   0  0  0  0  0  0  0  0  0  0  0  0
  -20.6530  -28.3260   23.2110 C   0  0  0  0  0  3  0  0  0  0  0  0
  -20.7940  -26.8900   22.6550 C   0  0  0  0  0  2  0  0  0  0  0  0
  -19.7250  -26.5330   21.6200 C   0  0  0  0  0  2  0  0  0  0  0  0
  -18.3250  -26.6600   22.2290 C   0  0  0  0  0  2  0  0  0  0  0  0
  -19.2010  -28.8040   23.3280 C   0  0  0  0  0  0  0  0  0  0  0  0
  -18.9450  -30.0730   23.8920 C   0  0  0  0  0  3  0  0  0  0  0  0
  -17.6260  -30.5490   24.0240 C   0  0  0  0  0  3  0  0  0  0  0  0
  -16.5460  -29.7570   23.5980 C   0  0  0  0  0  3  0  0  0  0  0  0
  -16.7890  -28.4920   23.0300 C   0  0  0  0  0  3  0  0  0  0  0  0
  -25.9400  -32.5100   23.8990 C   0  0  0  0  0  3  0  0  0  0  0  0
  -25.6420  -33.9140   24.2130 N   0  0  0  0  0  0  0  0  0  0  0  0
  -25.9920  -34.9570   23.4490 C   0  0  0  0  0  0  0  0  0  0  0  0
  -26.6720  -34.8410   22.4260 O   0  0  0  0  0  0  0  0  0  0  0  0
  -25.0400  -34.0810   25.0060 H   0  0  0  0  0  0  0  0  0  0  0  0
  -24.2850  -36.7660   23.0580 C   0  0  0  0  0  1  0  0  0  0  0  0
  -25.5090  -36.3540   23.8900 C   0  0  0  0  0  3  0  0  0  0  0  0
  -27.6390  -37.2260   24.7470 C   0  0  0  0  0  1  0  0  0  0  0  0
  -26.5510  -37.3980   23.7890 N   0  0  0  0  0  0  0  0  0  0  0  0
  -26.1490  -38.3220   23.9290 H   0  0  0  0  0  0  0  0  0  0  0  0
  -26.4430  -31.7480   25.1870 C   0  0  1  0  0  0  0  0  0  0  0  0
  -25.3430  -31.5320   26.2530 C   0  0  0  0  0  1  0  0  0  0  0  0
  -27.0170  -30.3630   24.8100 C   0  0  0  0  0  1  0  0  0  0  0  0
  -27.5950  -32.5400   25.8500 C   0  0  0  0  0  1  0  0  0  0  0  0
  2  7  1  0
  2  1  1  0
  3  6  1  0
  3  2  2  0
  4  3  1  0
  5  1  2  0
  6  5  1  0
  8  7  1  0
  8 13  1  0
  8 10  1  0
  9  8  1  0
 13 12  1  1
 13 11  1  0
 14 23  1  0
 14 13  1  0
 15 23  1  0
 16 21  1  0
 17 18  1  0
 17 16  1  0
 19 18  1  0
 19 28  1  0
 19 20  1  0
 21 15  1  0
 21 20  1  0
 22 15  2  0
 23 24  1  0
 25 26  2  0
 26 45  1  0
 27 26  1  0
 27 30  1  0
 28 29  1  0
 28 25  1  0
 29 27  2  0
 30 31  1  0
 31 32  2  0
 33 36  1  0
 33 32  1  0
 34 33  2  0
 35 34  1  0
 35 30  2  0
 36 37  1  0
 37 38  1  0
 38 39  2  0
 40 39  1  0
 40 44  1  0
 41 40  2  0
 42 37  2  0
 42 41  1  0
 43 42  1  0
 45 46  1  0
 46 49  1  0
 46 48  1  0
 47 45  2  0
 50 25  1  0
 50 51  1  0
 52 50  1  0
 53  6  1  0
 53 54  1  0
 55 66  2  0
 56 54  1  0
 56 61  1  0
 57 65  1  0
 57 67  1  0
 58 64  1  0
 58 60  1  0
 59 65  1  0
 60 59  1  0
 61 60  2  0
 62 63  1  0
 62 56  2  0
 63 58  2  0
 64 57  1  0
 65 55  1  0
 67 69  2  0
 68 67  1  0
 70 68  1  0
 71 80  2  0
 71 76  1  0
 72 68  1  0
 72 76  1  0
 73 72  1  0
 74 75  1  0
 74 73  1  0
 75 71  1  0
 76 77  2  0
 77 78  1  0
 79 78  2  0
 80 79  1  0
 81 55  1  0
 81 82  1  0
 81 91  1  0
 82 85  1  0
 83 87  1  0
 83 82  1  0
 84 83  2  0
 87 86  1  0
 89 87  1  0
 89 90  1  0
 89 88  1  0
 91 94  1  1
 91 92  1  0
 93 91  1  0
M  ISO  4  15 100  23 100  53 101  54 101
M  END
>  <TORSDO>  (99) 
F 21

>  <SCORE>  (99) 
-11.630

>  <name>  (99) 
98

>  <ligand_id>  (99) 
98

>  <original_smiles>  (99) 
[H]c1nn(C([H])([H])Oc2c([H])c([H])c3c(c2[H])C([H])([H])N(C(=O)C([H])(N([H])C(=O)C([H])(N([H])C([H])([H])[H])C([H])([H])[H])C(C([H])([H])[H])(C([H])([H])[H])C([H])([H])[H])C([H])(C(=O)N([H])C2([H])c4c([H])c([H])c([H])c([H])c4C([H])([H])C([H])([H])C2([H])[H])C3([H])[H])c(C([H])([H])[H])c1C([H])([H])[N+]([H])([H])C(C([H])([H])[H])(C([H])([H])[H])C([H])([H])N([H])C(=O)N1C([H])([H])C([H])([H])C([H])([H])C([H])(n2nc(-c3c([H])c([H])c(Oc4c([H])c([H])c(F)c([H])c4F)c([H])c3[H])c(C(=O)N([H])[H])c2N([H])[H])C1([H])[H]

>  <smiles>  (99) 
[H]c1nn(C([H])([H])Oc2c([H])c([H])c3c(c2[H])C([H])([H])N(C(=O)C([H])(N([H])C(=O)C([H])(N([H])C([H])([H])[H])C([H])([H])[H])C(C([H])([H])[H])(C([H])([H])[H])C([H])([H])[H])C([H])(C(=O)N([H])C2([H])c4c([H])c([H])c([H])c([H])c4C([H])([H])C([H])([H])C2([H])[H])C3([H])[H])c(C([H])([H])[H])c1C([H])([H])[N+]([H])([H])C(C([H])([H])[H])(C([H])([H])[H])C([H])([H])N([H])C(=O)N1C([H])([H])C([H])([H])C([H])([H])C([H])(n2nc(-c3c([H])c([H])c(Oc4c([H])c([H])c(F)c([H])c4F)c([H])c3[H])c(C(=O)N([H])[H])c2N([H])[H])C1([H])[H]

$$$$
