0:0:0
     RDKit          3D

 94101  0  0  1  0  0  0  0  0999 V2000
  -29.6750  -19.4690   20.0420 C   0  0  0  0  0  3  0  0  0  0  0  0
  -31.0530  -19.6960   20.6930 C   0  0  0  0  0  0  0  0  0  0  0  0
  -32.1940  -19.2330   18.5470 C   0  0  0  0  0  1  0  0  0  0  0  0
  -32.1860  -19.7040   19.9370 N   0  0  0  0  0  0  0  0  0  0  0  0
  -31.0570  -19.9330   21.9060 O   0  0  0  0  0  0  0  0  0  0  0  0
  -34.0240  -19.2500   21.5580 C   0  0  0  0  0  1  0  0  0  0  0  0
  -33.5550  -21.6480   20.8160 C   0  0  0  0  0  1  0  0  0  0  0  0
  -33.5120  -20.1550   20.4260 C   0  0  0  0  0  3  0  0  0  0  0  0
  -28.8230  -20.7820   20.3450 N   0  0  0  0  0  4  0  0  0  0  0  0
  -27.8520  -20.5560   20.2140 H   0  0  0  0  0  0  0  0  0  0  0  0
  -28.9700  -20.8980   21.3370 H   0  0  0  0  0  0  0  0  0  0  0  0
  -29.0500  -22.2220   19.6990 C   0  0  0  0  0  3  0  0  0  0  0  0
  -28.3980  -23.6720   20.3050 C   0  0  0  0  0  3  0  0  0  0  0  0
  -28.3910  -25.1710   19.5160 C   0  0  0  0  0  2  0  0  0  0  0  0
  -28.3050  -26.6250   20.0660 O   0  0  0  0  0  0  0  0  0  0  0  0
  -24.6590  -32.0380   23.4110 C   0  0  0  0  0  0  0  0  0  0  0  0
  -27.2030  -27.5510   20.0330 C   0  0  0  0  0  0  0  0  0  0  0  0
  -23.4220  -30.7210   21.7290 C   0  0  0  0  0  3  0  0  0  0  0  0
  -24.8410  -29.2440   20.1710 C   0  0  0  0  0  0  0  0  0  0  0  0
  -25.9620  -31.0320   21.5030 C   0  0  0  0  0  2  0  0  0  0  0  0
  -26.0290  -29.6820   20.7700 C   0  0  0  0  0  0  0  0  0  0  0  0
  -27.2030  -28.8480   20.6870 C   0  0  0  0  0  3  0  0  0  0  0  0
  -25.9880  -27.2100   19.4030 C   0  0  0  0  0  3  0  0  0  0  0  0
  -24.8330  -28.0240   19.4730 C   0  0  0  0  0  3  0  0  0  0  0  0
  -23.6050  -30.1200   20.3080 C   0  0  0  0  0  2  0  0  0  0  0  0
  -24.7020  -31.2840   22.2710 N   0  0  0  0  0  0  0  0  0  0  0  0
  -23.5880  -32.2780   23.9890 O   0  0  0  0  0  0  0  0  0  0  0  0
  -22.7840  -29.6570   22.6570 C   0  0  0  0  0  0  0  0  0  0  0  0
  -21.4680  -29.4230   22.5030 N   0  0  0  0  0  0  0  0  0  0  0  0
  -23.4750  -29.0440   23.4740 O   0  0  0  0  0  0  0  0  0  0  0  0
  -20.9650  -29.9710   21.8200 H   0  0  0  0  0  0  0  0  0  0  0  0
  -18.1630  -27.9860   22.8670 C   0  0  0  0  0  0  0  0  0  0  0  0
  -20.6850  -28.4230   23.2360 C   0  0  0  0  0  3  0  0  0  0  0  0
  -20.9080  -27.0080   22.6550 C   0  0  0  0  0  2  0  0  0  0  0  0
  -19.8710  -26.6190   21.5960 C   0  0  0  0  0  2  0  0  0  0  0  0
  -18.4590  -26.6600   22.1870 C   0  0  0  0  0  2  0  0  0  0  0  0
  -19.2070  -28.8210   23.3450 C   0  0  0  0  0  0  0  0  0  0  0  0
  -18.8780  -30.0590   23.9410 C   0  0  0  0  0  3  0  0  0  0  0  0
  -17.5360  -30.4630   24.0640 C   0  0  0  0  0  3  0  0  0  0  0  0
  -16.5050  -29.6280   23.6020 C   0  0  0  0  0  3  0  0  0  0  0  0
  -16.8190  -28.3920   23.0100 C   0  0  0  0  0  3  0  0  0  0  0  0
  -25.9510  -32.6500   24.0350 C   0  0  0  0  0  3  0  0  0  0  0  0
  -25.6640  -34.0540   24.3670 N   0  0  0  0  0  0  0  0  0  0  0  0
  -26.0220  -35.1070   23.6190 C   0  0  0  0  0  0  0  0  0  0  0  0
  -26.6930  -34.9960   22.5900 O   0  0  0  0  0  0  0  0  0  0  0  0
  -25.0660  -34.2150   25.1640 H   0  0  0  0  0  0  0  0  0  0  0  0
  -24.3380  -36.9460   23.2660 C   0  0  0  0  0  1  0  0  0  0  0  0
  -25.5630  -36.5040   24.0840 C   0  0  0  0  0  3  0  0  0  0  0  0
  -27.7010  -37.3430   24.9520 C   0  0  0  0  0  1  0  0  0  0  0  0
  -26.6190  -37.5340   23.9880 N   0  0  0  0  0  0  0  0  0  0  0  0
  -26.2310  -38.4630   24.1290 H   0  0  0  0  0  0  0  0  0  0  0  0
  -26.4500  -31.8750   25.3160 C   0  0  1  0  0  0  0  0  0  0  0  0
  -25.3500  -31.6550   26.3800 C   0  0  0  0  0  1  0  0  0  0  0  0
  -27.0160  -30.4870   24.9370 C   0  0  0  0  0  1  0  0  0  0  0  0
  -27.6080  -32.6540   25.9820 C   0  0  0  0  0  1  0  0  0  0  0  0
  -29.0260  -17.9300   20.3830 C   0  0  0  0  0  2  0  0  0  0  0  0
  -30.4630  -15.4420   20.6200 C   0  0  0  0  0  0  0  0  0  0  0  0
  -30.5790  -13.0200   19.8580 C   0  0  0  0  0  2  0  0  0  0  0  0
  -29.7160  -12.8530   18.5830 C   0  0  0  0  0  2  0  0  0  0  0  0
  -28.2420  -12.5870   18.9470 C   0  0  0  0  0  2  0  0  0  0  0  0
  -27.7270  -13.5390   20.0570 C   0  0  0  0  0  3  0  0  0  0  0  0
  -28.7190  -13.6600   21.2340 C   0  0  0  0  0  2  0  0  0  0  0  0
  -30.0010  -14.1240   20.6830 N   0  0  0  0  0  0  0  0  0  0  0  0
  -31.6120  -15.6180   20.2060 O   0  0  0  0  0  0  0  0  0  0  0  0
  -29.5750  -16.5140   20.9090 N   0  0  0  0  0  0  0  0  0  0  0  0
  -28.8330  -16.1020   21.4600 H   0  0  0  0  0  0  0  0  0  0  0  0
  -25.3190  -14.0390   20.7680 C   0  0  0  0  0  0  0  0  0  0  0  0
  -24.2600  -13.2300   21.0760 C   0  0  0  0  0  0  0  0  0  0  0  0
  -24.7440  -11.8880   20.9750 C   0  0  0  0  0  0  0  0  0  0  0  0
  -26.3800  -13.1910   20.5000 N   0  0  0  0  0  0  0  0  0  0  0  0
  -26.0410  -11.8890   20.6840 N   0  0  0  0  0  0  0  0  0  0  0  0
  -24.0330  -10.6080   21.0800 C   0  0  0  0  0  0  0  0  0  0  0  0
  -24.4330   -9.6150   22.0010 C   0  0  0  0  0  3  0  0  0  0  0  0
  -23.7170   -8.4000   22.0960 C   0  0  0  0  0  3  0  0  0  0  0  0
  -22.5910   -8.1710   21.2700 C   0  0  0  0  0  0  0  0  0  0  0  0
  -22.2130   -9.1550   20.3400 C   0  0  0  0  0  3  0  0  0  0  0  0
  -22.9270  -10.3610   20.2420 C   0  0  0  0  0  3  0  0  0  0  0  0
  -21.8550   -7.0100   21.2720 O   0  0  0  0  0  0  0  0  0  0  0  0
  -21.6820   -6.2680   22.4150 C   0  0  0  0  0  0  0  0  0  0  0  0
  -21.0470   -6.8000   23.5580 C   0  0  0  0  0  3  0  0  0  0  0  0
  -20.8300   -5.9840   24.6870 C   0  0  0  0  0  3  0  0  0  0  0  0
  -21.2360   -4.6360   24.6680 C   0  0  0  0  0  0  0  0  0  0  0  0
  -21.8620   -4.1030   23.5280 C   0  0  0  0  0  3  0  0  0  0  0  0
  -22.0820   -4.9170   22.4040 C   0  0  0  0  0  0  0  0  0  0  0  0
  -22.6680   -4.3930   21.2990 F   0  0  0  0  0  0  0  0  0  0  0  0
  -21.0210   -3.8490   25.7480 F   0  0  0  0  0  0  0  0  0  0  0  0
  -22.8510  -13.6720   21.3480 C   0  0  0  0  0  0  0  0  0  0  0  0
  -22.1260  -12.9330   22.1800 N   0  0  0  0  0  0  0  0  0  0  0  0
  -22.4010  -14.7080   20.8610 O   0  0  0  0  0  0  0  0  0  0  0  0
  -22.5000  -12.0940   22.5990 H   0  0  0  0  0  0  0  0  0  0  0  0
  -21.1820  -13.2120   22.4010 H   0  0  0  0  0  0  0  0  0  0  0  0
  -25.4600  -15.4190   20.6690 N   0  0  0  0  0  0  0  0  0  0  0  0
  -24.6690  -16.0430   20.7840 H   0  0  0  0  0  0  0  0  0  0  0  0
  -26.2870  -15.8880   20.3230 H   0  0  0  0  0  0  0  0  0  0  0  0
  1  9  1  0
  1 56  1  0
  1  2  1  0
  2  5  2  0
  3  4  1  0
  4  8  1  0
  4  2  1  0
  8  7  1  0
  8  6  1  0
  9 11  1  0
 10  9  1  0
 12 13  2  0
 12  9  1  0
 14 15  1  0
 14 13  1  0
 16 27  2  0
 17 15  1  0
 17 22  1  0
 18 26  1  0
 18 28  1  0
 19 25  1  0
 19 21  1  0
 20 26  1  0
 21 20  1  0
 22 21  2  0
 23 24  1  0
 23 17  2  0
 24 19  2  0
 25 18  1  0
 26 16  1  0
 28 30  2  0
 29 28  1  0
 31 29  1  0
 32 41  2  0
 32 37  1  0
 33 29  1  0
 33 37  1  0
 34 33  1  0
 35 36  1  0
 35 34  1  0
 36 32  1  0
 37 38  2  0
 38 39  1  0
 40 39  2  0
 41 40  1  0
 42 16  1  0
 42 43  1  0
 42 52  1  0
 43 46  1  0
 44 48  1  0
 44 43  1  0
 45 44  2  0
 48 47  1  0
 50 48  1  0
 50 51  1  0
 50 49  1  0
 52 55  1  1
 52 53  1  0
 54 52  1  0
 56 65  1  0
 57 63  1  0
 57 65  1  0
 58 63  1  0
 59 60  1  0
 59 58  1  0
 61 60  1  0
 61 70  1  0
 61 62  1  0
 63 62  1  0
 64 57  2  0
 65 66  1  0
 67 68  2  0
 68 87  1  0
 69 68  1  0
 69 72  1  0
 70 71  1  0
 70 67  1  0
 71 69  2  0
 72 73  1  0
 73 74  2  0
 75 78  1  0
 75 74  1  0
 76 75  2  0
 77 76  1  0
 77 72  2  0
 78 79  1  0
 79 80  1  0
 80 81  2  0
 82 81  1  0
 82 86  1  0
 83 82  2  0
 84 79  2  0
 84 83  1  0
 85 84  1  0
 87 88  1  0
 88 91  1  0
 88 90  1  0
 89 87  2  0
 92 67  1  0
 92 93  1  0
 94 92  1  0
M  ISO  4  14 101  15 101  57 100  65 100
M  END
>  <TORSDO>  (1) 
F 23

>  <SCORE>  (1) 
-13.424

>  <name>  (1) 
0

>  <ligand_id>  (1) 
0

>  <original_smiles>  (1) 
[H]c1c([H])c([H])c2c(c1[H])C([H])([H])C([H])([H])C([H])([H])C2([H])N([H])C(=O)C1([H])N(C(=O)C([H])(N([H])C(=O)C([H])(N([H])C([H])([H])[H])C([H])([H])[H])C(C([H])([H])[H])(C([H])([H])[H])C([H])([H])[H])C([H])([H])c2c([H])c(OC([H])([H])C([H])([H])C([H])([H])[N+]([H])([H])C([H])(C(=O)N(C([H])([H])[H])C([H])(C([H])([H])[H])C([H])([H])[H])C([H])([H])N([H])C(=O)N3C([H])([H])C([H])([H])C([H])([H])C([H])(n4nc(-c5c([H])c([H])c(Oc6c([H])c([H])c(F)c([H])c6F)c([H])c5[H])c(C(=O)N([H])[H])c4N([H])[H])C3([H])[H])c([H])c([H])c2C1([H])[H]

>  <smiles>  (1) 
[H]c1c([H])c([H])c2c(c1[H])C([H])([H])C([H])([H])C([H])([H])C2([H])N([H])C(=O)C1([H])N(C(=O)C([H])(N([H])C(=O)C([H])(N([H])C([H])([H])[H])C([H])([H])[H])C(C([H])([H])[H])(C([H])([H])[H])C([H])([H])[H])C([H])([H])c2c([H])c(OC([H])([H])C([H])([H])C([H])([H])[N+]([H])([H])C([H])(C(=O)N(C([H])([H])[H])C([H])(C([H])([H])[H])C([H])([H])[H])C([H])([H])N([H])C(=O)N3C([H])([H])C([H])([H])C([H])([H])C([H])(n4nc(-c5c([H])c([H])c(Oc6c([H])c([H])c(F)c([H])c6F)c([H])c5[H])c(C(=O)N([H])[H])c4N([H])[H])C3([H])[H])c([H])c([H])c2C1([H])[H]

$$$$
1:0:0
     RDKit          3D

 84 91  0  0  1  0  0  0  0  0999 V2000
  -28.9290  -22.3250   20.3150 C   0  0  0  0  0  0  0  0  0  0  0  0
  -30.1190  -22.6080   20.4870 O   0  0  0  0  0  0  0  0  0  0  0  0
  -28.6810  -20.4720   20.2460 C   0  0  0  0  0  3  0  0  0  0  0  0
  -29.7290  -18.8360   20.2590 C   0  0  0  0  0  3  0  0  0  0  0  0
  -30.2820  -15.7060   20.1560 C   0  0  0  0  0  0  0  0  0  0  0  0
  -30.3700  -13.1820   19.2930 C   0  0  0  0  0  2  0  0  0  0  0  0
  -29.4540  -12.7990   18.0960 C   0  0  0  0  0  2  0  0  0  0  0  0
  -28.0420  -12.4340   18.5770 C   0  0  0  0  0  2  0  0  0  0  0  0
  -27.5510  -13.4120   19.6680 C   0  0  0  0  0  3  0  0  0  0  0  0
  -28.6050  -13.7100   20.7610 C   0  0  0  0  0  2  0  0  0  0  0  0
  -29.7580  -14.3440   20.0820 N   0  0  0  0  0  0  0  0  0  0  0  0
  -31.5100  -15.6540   19.9590 O   0  0  0  0  0  0  0  0  0  0  0  0
  -29.5240  -17.0650   20.2570 N   0  0  0  0  0  0  0  0  0  0  0  0
  -28.5420  -16.8470   20.3570 H   0  0  0  0  0  0  0  0  0  0  0  0
  -25.2000  -13.9020   20.4920 C   0  0  0  0  0  0  0  0  0  0  0  0
  -24.1590  -13.1030   20.8720 C   0  0  0  0  0  0  0  0  0  0  0  0
  -24.6490  -11.7610   20.8150 C   0  0  0  0  0  0  0  0  0  0  0  0
  -26.2500  -13.0500   20.2140 N   0  0  0  0  0  0  0  0  0  0  0  0
  -25.9360  -11.7530   20.4760 N   0  0  0  0  0  0  0  0  0  0  0  0
  -23.9430  -10.4860   21.0020 C   0  0  0  0  0  0  0  0  0  0  0  0
  -24.3880   -9.5230   21.9350 C   0  0  0  0  0  3  0  0  0  0  0  0
  -23.6770   -8.3180   22.1130 C   0  0  0  0  0  3  0  0  0  0  0  0
  -22.5060   -8.0640   21.3590 C   0  0  0  0  0  0  0  0  0  0  0  0
  -22.0810   -9.0150   20.4150 C   0  0  0  0  0  3  0  0  0  0  0  0
  -22.7920  -10.2130   20.2350 C   0  0  0  0  0  3  0  0  0  0  0  0
  -21.7670   -6.9090   21.4470 O   0  0  0  0  0  0  0  0  0  0  0  0
  -21.7050   -6.1800   22.6080 C   0  0  0  0  0  0  0  0  0  0  0  0
  -21.2100   -6.7330   23.8090 C   0  0  0  0  0  3  0  0  0  0  0  0
  -21.0980   -5.9280   24.9610 C   0  0  0  0  0  3  0  0  0  0  0  0
  -21.4720   -4.5720   24.9120 C   0  0  0  0  0  0  0  0  0  0  0  0
  -21.9610   -4.0190   23.7150 C   0  0  0  0  0  3  0  0  0  0  0  0
  -22.0730   -4.8210   22.5660 C   0  0  0  0  0  0  0  0  0  0  0  0
  -22.5240   -4.2760   21.4100 F   0  0  0  0  0  0  0  0  0  0  0  0
  -21.3590   -3.7970   26.0170 F   0  0  0  0  0  0  0  0  0  0  0  0
  -22.7610  -13.5560   21.1680 C   0  0  0  0  0  0  0  0  0  0  0  0
  -22.0590  -12.8450   22.0430 N   0  0  0  0  0  0  0  0  0  0  0  0
  -22.3000  -14.5770   20.6600 O   0  0  0  0  0  0  0  0  0  0  0  0
  -22.4460  -12.0200   22.4760 H   0  0  0  0  0  0  0  0  0  0  0  0
  -21.1210  -13.1310   22.2850 H   0  0  0  0  0  0  0  0  0  0  0  0
  -25.3330  -15.2780   20.3250 N   0  0  0  0  0  0  0  0  0  0  0  0
  -24.5540  -15.9140   20.4550 H   0  0  0  0  0  0  0  0  0  0  0  0
  -26.1560  -15.7320   19.9520 H   0  0  0  0  0  0  0  0  0  0  0  0
  -27.8660  -23.8530   20.1900 C   0  0  0  0  0  2  0  0  0  0  0  0
  -28.1260  -25.5870   20.3250 O   0  0  0  0  0  0  0  0  0  0  0  0
  -24.6470  -31.8900   23.2360 C   0  0  0  0  0  0  0  0  0  0  0  0
  -27.1600  -26.8020   20.2670 C   0  0  0  0  0  0  0  0  0  0  0  0
  -23.4550  -30.4910   21.6040 C   0  0  0  0  0  3  0  0  0  0  0  0
  -24.8980  -28.8350   20.1990 C   0  0  0  0  0  0  0  0  0  0  0  0
  -26.0340  -30.6270   21.4820 C   0  0  0  0  0  2  0  0  0  0  0  0
  -26.0940  -29.1930   20.8310 C   0  0  0  0  0  0  0  0  0  0  0  0
  -27.2110  -28.2050   20.8310 C   0  0  0  0  0  3  0  0  0  0  0  0
  -25.9300  -26.6510   19.5790 C   0  0  0  0  0  3  0  0  0  0  0  0
  -24.8530  -27.5900   19.5490 C   0  0  0  0  0  3  0  0  0  0  0  0
  -23.6930  -29.7880   20.2360 C   0  0  0  0  0  2  0  0  0  0  0  0
  -24.7360  -31.0350   22.1600 N   0  0  0  0  0  0  0  0  0  0  0  0
  -23.5540  -32.1960   23.7450 O   0  0  0  0  0  0  0  0  0  0  0  0
  -22.7350  -29.5200   22.5780 C   0  0  0  0  0  0  0  0  0  0  0  0
  -21.4030  -29.3660   22.4500 N   0  0  0  0  0  0  0  0  0  0  0  0
  -23.3870  -28.9010   23.4230 O   0  0  0  0  0  0  0  0  0  0  0  0
  -20.9270  -29.9150   21.7480 H   0  0  0  0  0  0  0  0  0  0  0  0
  -18.0130  -28.1600   22.9590 C   0  0  0  0  0  0  0  0  0  0  0  0
  -20.5720  -28.4360   23.2260 C   0  0  0  0  0  3  0  0  0  0  0  0
  -20.6760  -26.9980   22.6650 C   0  0  0  0  0  2  0  0  0  0  0  0
  -19.5790  -26.6660   21.6490 C   0  0  0  0  0  2  0  0  0  0  0  0
  -18.1940  -26.8100   22.2870 C   0  0  0  0  0  2  0  0  0  0  0  0
  -19.1270  -28.9300   23.3850 C   0  0  0  0  0  0  0  0  0  0  0  0
  -18.9000  -30.1920   23.9780 C   0  0  0  0  0  3  0  0  0  0  0  0
  -17.5910  -30.6830   24.1450 C   0  0  0  0  0  3  0  0  0  0  0  0
  -16.4920  -29.9120   23.7320 C   0  0  0  0  0  3  0  0  0  0  0  0
  -16.7030  -28.6520   23.1450 C   0  0  0  0  0  3  0  0  0  0  0  0
  -25.9130  -32.5390   23.8750 C   0  0  0  0  0  3  0  0  0  0  0  0
  -26.4060  -31.7830   25.1720 C   0  0  1  0  0  0  0  0  0  0  0  0
  -25.2980  -31.5720   26.2310 C   0  0  0  0  0  1  0  0  0  0  0  0
  -26.9810  -30.3930   24.8190 C   0  0  0  0  0  1  0  0  0  0  0  0
  -27.5560  -32.5770   25.8340 C   0  0  0  0  0  1  0  0  0  0  0  0
  -25.5940  -33.9410   24.2060 N   0  0  0  0  0  0  0  0  0  0  0  0
  -25.9060  -35.0040   23.4510 C   0  0  0  0  0  0  0  0  0  0  0  0
  -26.5500  -34.9060   22.4040 O   0  0  0  0  0  0  0  0  0  0  0  0
  -25.0160  -34.0890   25.0210 H   0  0  0  0  0  0  0  0  0  0  0  0
  -24.1560  -36.7980   23.1750 C   0  0  0  0  0  1  0  0  0  0  0  0
  -25.4340  -36.3940   23.9300 C   0  0  0  0  0  3  0  0  0  0  0  0
  -27.5920  -37.3000   24.6750 C   0  0  0  0  0  1  0  0  0  0  0  0
  -26.4550  -37.4530   23.7720 N   0  0  0  0  0  0  0  0  0  0  0  0
  -26.0490  -38.3710   23.9270 H   0  0  0  0  0  0  0  0  0  0  0  0
  1  2  2  0
  3  4  2  0
  3  1  1  0
  5 13  1  0
  6 11  1  0
  7  8  1  0
  7  6  1  0
  9  8  1  0
  9 18  1  0
  9 10  1  0
 11  5  1  0
 11 10  1  0
 12  5  2  0
 13  4  1  0
 13 14  1  0
 15 16  2  0
 16 35  1  0
 17 16  1  0
 17 20  1  0
 18 19  1  0
 18 15  1  0
 19 17  2  0
 20 21  1  0
 21 22  2  0
 23 26  1  0
 23 22  1  0
 24 23  2  0
 25 24  1  0
 25 20  2  0
 26 27  1  0
 27 28  1  0
 28 29  2  0
 30 29  1  0
 30 34  1  0
 31 30  2  0
 32 27  2  0
 32 31  1  0
 33 32  1  0
 35 36  1  0
 36 39  1  0
 36 38  1  0
 37 35  2  0
 40 41  1  0
 40 15  1  0
 42 40  1  0
 43  1  1  0
 43 44  1  0
 45 56  2  0
 46 44  1  0
 46 51  1  0
 47 55  1  0
 47 57  1  0
 48 54  1  0
 48 50  1  0
 49 55  1  0
 50 51  2  0
 50 49  1  0
 52 46  2  0
 53 52  1  0
 53 48  2  0
 54 47  1  0
 55 45  1  0
 57 59  2  0
 58 57  1  0
 60 58  1  0
 61 70  2  0
 61 66  1  0
 62 58  1  0
 62 66  1  0
 63 62  1  0
 64 65  1  0
 64 63  1  0
 65 61  1  0
 66 67  2  0
 67 68  1  0
 69 68  2  0
 70 69  1  0
 71 45  1  0
 71 76  1  0
 71 72  1  0
 72 75  1  1
 72 73  1  0
 74 72  1  0
 76 79  1  0
 77 81  1  0
 77 76  1  0
 78 77  2  0
 81 80  1  0
 83 84  1  0
 83 81  1  0
 83 82  1  0
M  ISO  4   5 100  13 100  43 101  44 101
M  END
>  <TORSDO>  (2) 
F 19

>  <SCORE>  (2) 
-16.362

>  <name>  (2) 
1

>  <ligand_id>  (2) 
1

>  <original_smiles>  (2) 
[H]c1c([H])c([H])c2c(c1[H])C([H])([H])C([H])([H])C([H])([H])C2([H])N([H])C(=O)C1([H])N(C(=O)C([H])(N([H])C(=O)C([H])(N([H])C([H])([H])[H])C([H])([H])[H])C(C([H])([H])[H])(C([H])([H])[H])C([H])([H])[H])C([H])([H])c2c([H])c(OC([H])([H])C(=O)C([H])([H])C([H])([H])N([H])C(=O)N3C([H])([H])C([H])([H])C([H])([H])C([H])(n4nc(-c5c([H])c([H])c(Oc6c([H])c([H])c(F)c([H])c6F)c([H])c5[H])c(C(=O)N([H])[H])c4N([H])[H])C3([H])[H])c([H])c([H])c2C1([H])[H]

>  <smiles>  (2) 
[H]c1c([H])c([H])c2c(c1[H])C([H])([H])C([H])([H])C([H])([H])C2([H])N([H])C(=O)C1([H])N(C(=O)C([H])(N([H])C(=O)C([H])(N([H])C([H])([H])[H])C([H])([H])[H])C(C([H])([H])[H])(C([H])([H])[H])C([H])([H])[H])C([H])([H])c2c([H])c(OC([H])([H])C(=O)C([H])([H])C([H])([H])N([H])C(=O)N3C([H])([H])C([H])([H])C([H])([H])C([H])(n4nc(-c5c([H])c([H])c(Oc6c([H])c([H])c(F)c([H])c6F)c([H])c5[H])c(C(=O)N([H])[H])c4N([H])[H])C3([H])[H])c([H])c([H])c2C1([H])[H]

$$$$
2:0:0
     RDKit          3D

 93102  0  0  1  0  0  0  0  0999 V2000
  -29.5780  -20.3870   17.6050 C   0  0  0  0  0  2  0  0  0  0  0  0
  -29.3480  -18.8980   18.0780 C   0  0  0  0  0  2  0  0  0  0  0  0
  -28.5800  -21.5270   18.0740 C   0  0  0  0  0  2  0  0  0  0  0  0
  -28.6490  -20.2320   20.1580 C   0  0  0  0  0  2  0  0  0  0  0  0
  -29.4780  -18.6300   19.6050 C   0  0  0  0  0  3  0  0  0  0  0  0
  -28.7420  -22.0250   19.5510 C   0  0  1  0  0  0  0  0  0  0  0  0
  -30.1010  -15.5150   19.7960 C   0  0  0  0  0  0  0  0  0  0  0  0
  -30.1610  -12.9520   19.0660 C   0  0  0  0  0  2  0  0  0  0  0  0
  -29.1950  -12.5010   17.9330 C   0  0  0  0  0  2  0  0  0  0  0  0
  -27.8190  -12.1410   18.5040 C   0  0  0  0  0  2  0  0  0  0  0  0
  -27.3590  -13.1810   19.5470 C   0  0  0  0  0  3  0  0  0  0  0  0
  -28.4550  -13.5470   20.5810 C   0  0  0  0  0  2  0  0  0  0  0  0
  -29.5820  -14.1490   19.8290 N   0  0  0  0  0  0  0  0  0  0  0  0
  -31.3090  -15.4570   19.4990 O   0  0  0  0  0  0  0  0  0  0  0  0
  -29.3530  -16.8760   19.9010 N   0  0  0  0  0  0  0  0  0  0  0  0
  -28.4090  -16.6670   20.1980 H   0  0  0  0  0  0  0  0  0  0  0  0
  -25.0690  -13.7180   20.5020 C   0  0  0  0  0  0  0  0  0  0  0  0
  -24.0360  -12.9370   20.9370 C   0  0  0  0  0  0  0  0  0  0  0  0
  -24.4920  -11.5860   20.8450 C   0  0  0  0  0  0  0  0  0  0  0  0
  -26.0830  -12.8440   20.1630 N   0  0  0  0  0  0  0  0  0  0  0  0
  -25.7570  -11.5540   20.4340 N   0  0  0  0  0  0  0  0  0  0  0  0
  -23.7720  -10.3240   21.0690 C   0  0  0  0  0  0  0  0  0  0  0  0
  -24.2140   -9.3800   22.0220 C   0  0  0  0  0  3  0  0  0  0  0  0
  -23.4900   -8.1860   22.2340 C   0  0  0  0  0  3  0  0  0  0  0  0
  -22.3110   -7.9300   21.4940 C   0  0  0  0  0  0  0  0  0  0  0  0
  -21.8870   -8.8630   20.5320 C   0  0  0  0  0  3  0  0  0  0  0  0
  -22.6120  -10.0480   20.3190 C   0  0  0  0  0  3  0  0  0  0  0  0
  -21.5580   -6.7850   21.6160 O   0  0  0  0  0  0  0  0  0  0  0  0
  -21.4560   -6.1140   22.8070 C   0  0  0  0  0  0  0  0  0  0  0  0
  -20.8540   -6.7000   23.9420 C   0  0  0  0  0  3  0  0  0  0  0  0
  -20.7040   -5.9510   25.1250 C   0  0  0  0  0  3  0  0  0  0  0  0
  -21.1470   -4.6150   25.1740 C   0  0  0  0  0  0  0  0  0  0  0  0
  -21.7430   -4.0270   24.0440 C   0  0  0  0  0  3  0  0  0  0  0  0
  -21.8930   -4.7750   22.8620 C   0  0  0  0  0  0  0  0  0  0  0  0
  -22.4480   -4.1970   21.7690 F   0  0  0  0  0  0  0  0  0  0  0  0
  -20.9970   -3.8910   26.3080 F   0  0  0  0  0  0  0  0  0  0  0  0
  -22.6670  -13.4160   21.3160 C   0  0  0  0  0  0  0  0  0  0  0  0
  -22.0090  -12.7220   22.2370 N   0  0  0  0  0  0  0  0  0  0  0  0
  -22.1920  -14.4440   20.8330 O   0  0  0  0  0  0  0  0  0  0  0  0
  -22.4090  -11.8940   22.6530 H   0  0  0  0  0  0  0  0  0  0  0  0
  -21.0950  -13.0280   22.5390 H   0  0  0  0  0  0  0  0  0  0  0  0
  -25.2230  -15.0930   20.3380 N   0  0  0  0  0  0  0  0  0  0  0  0
  -24.4640  -15.7410   20.5130 H   0  0  0  0  0  0  0  0  0  0  0  0
  -26.0330  -15.5350   19.9230 H   0  0  0  0  0  0  0  0  0  0  0  0
  -30.9520  -22.1230   20.8830 C   0  0  0  0  0  3  0  0  0  0  0  0
  -30.7530  -23.4850   18.9090 C   0  0  0  0  0  3  0  0  0  0  0  0
  -32.2260  -22.6920   21.0710 C   0  0  0  0  0  3  0  0  0  0  0  0
  -30.1790  -22.5230   19.7740 C   0  0  0  0  0  0  0  0  0  0  0  0
  -32.0430  -23.9770   19.1620 C   0  0  0  0  0  0  0  0  0  0  0  0
  -32.6810  -24.9830   18.2240 C   0  0  0  0  0  1  0  0  0  0  0  0
  -32.7710  -23.5960   20.2290 N   0  0  0  0  0  0  0  0  0  0  0  0
  -27.7750  -23.6870   19.8080 C   0  0  0  0  0  2  0  0  0  0  0  0
  -27.9300  -25.4300   19.6580 O   0  0  0  0  0  0  0  0  0  0  0  0
  -24.5120  -31.5500   23.0000 C   0  0  0  0  0  0  0  0  0  0  0  0
  -26.9390  -26.6210   19.7230 C   0  0  0  0  0  0  0  0  0  0  0  0
  -23.2740  -30.2330   21.3350 C   0  0  0  0  0  3  0  0  0  0  0  0
  -24.6750  -28.6460   19.8180 C   0  0  0  0  0  0  0  0  0  0  0  0
  -25.8490  -30.3800   21.1480 C   0  0  0  0  0  2  0  0  0  0  0  0
  -25.8900  -28.9760   20.4300 C   0  0  0  0  0  0  0  0  0  0  0  0
  -27.0070  -27.9950   20.3450 C   0  0  0  0  0  3  0  0  0  0  0  0
  -25.6850  -26.4920   19.0750 C   0  0  0  0  0  3  0  0  0  0  0  0
  -24.6090  -27.4290   19.1170 C   0  0  0  0  0  3  0  0  0  0  0  0
  -23.4750  -29.5990   19.9290 C   0  0  0  0  0  2  0  0  0  0  0  0
  -24.5700  -30.7500   21.8810 N   0  0  0  0  0  0  0  0  0  0  0  0
  -23.4340  -31.8300   23.5530 O   0  0  0  0  0  0  0  0  0  0  0  0
  -22.5790  -29.2150   22.2790 C   0  0  0  0  0  0  0  0  0  0  0  0
  -21.2440  -29.0630   22.1710 N   0  0  0  0  0  0  0  0  0  0  0  0
  -23.2510  -28.5620   23.0800 O   0  0  0  0  0  0  0  0  0  0  0  0
  -20.7480  -29.6420   21.5070 H   0  0  0  0  0  0  0  0  0  0  0  0
  -17.8630  -27.8520   22.7230 C   0  0  0  0  0  0  0  0  0  0  0  0
  -20.4310  -28.0940   22.9200 C   0  0  0  0  0  3  0  0  0  0  0  0
  -20.5050  -26.6900   22.2770 C   0  0  0  0  0  2  0  0  0  0  0  0
  -19.3730  -26.4230   21.2790 C   0  0  0  0  0  2  0  0  0  0  0  0
  -18.0120  -26.5390   21.9730 C   0  0  0  0  0  2  0  0  0  0  0  0
  -18.9990  -28.5890   23.1550 C   0  0  0  0  0  0  0  0  0  0  0  0
  -18.8020  -29.8140   23.8270 C   0  0  0  0  0  3  0  0  0  0  0  0
  -17.5050  -30.3050   24.0660 C   0  0  0  0  0  3  0  0  0  0  0  0
  -16.3850  -29.5670   23.6440 C   0  0  0  0  0  3  0  0  0  0  0  0
  -16.5650  -28.3410   22.9800 C   0  0  0  0  0  3  0  0  0  0  0  0
  -25.7950  -32.1640   23.6370 C   0  0  0  0  0  3  0  0  0  0  0  0
  -25.4960  -33.5590   24.0230 N   0  0  0  0  0  0  0  0  0  0  0  0
  -25.8480  -34.6450   23.3210 C   0  0  0  0  0  0  0  0  0  0  0  0
  -26.5170  -34.5790   22.2870 O   0  0  0  0  0  0  0  0  0  0  0  0
  -24.8990  -33.6820   24.8270 H   0  0  0  0  0  0  0  0  0  0  0  0
  -24.1730  -36.5080   23.0480 C   0  0  0  0  0  1  0  0  0  0  0  0
  -25.3940  -36.0240   23.8470 C   0  0  0  0  0  3  0  0  0  0  0  0
  -27.5250  -36.8340   24.7650 C   0  0  0  0  0  1  0  0  0  0  0  0
  -26.4560  -37.0520   23.7940 N   0  0  0  0  0  0  0  0  0  0  0  0
  -26.0690  -37.9780   23.9550 H   0  0  0  0  0  0  0  0  0  0  0  0
  -26.3060  -31.3580   24.8960 C   0  0  1  0  0  0  0  0  0  0  0  0
  -25.2160  -31.1190   25.9670 C   0  0  0  0  0  1  0  0  0  0  0  0
  -26.8610  -29.9760   24.4800 C   0  0  0  0  0  1  0  0  0  0  0  0
  -27.4760  -32.1170   25.5660 C   0  0  0  0  0  1  0  0  0  0  0  0
  1  3  1  0
  1  2  1  0
  2  5  1  0
  3  6  1  0
  5 15  1  0
  5  4  1  0
  6 48  1  0
  6 52  1  1
  6  4  1  0
  7 13  1  0
  7 15  1  0
  8 13  1  0
  9 10  1  0
  9  8  1  0
 11 10  1  0
 11 20  1  0
 11 12  1  0
 13 12  1  0
 14  7  2  0
 15 16  1  0
 17 18  2  0
 18 37  1  0
 19 18  1  0
 19 22  1  0
 20 21  1  0
 20 17  1  0
 21 19  2  0
 22 23  1  0
 23 24  2  0
 25 28  1  0
 25 24  1  0
 26 25  2  0
 27 26  1  0
 27 22  2  0
 28 29  1  0
 29 34  2  0
 29 30  1  0
 30 31  2  0
 31 32  1  0
 32 36  1  0
 33 32  2  0
 34 33  1  0
 35 34  1  0
 37 38  1  0
 38 41  1  0
 38 40  1  0
 39 37  2  0
 42 17  1  0
 42 43  1  0
 44 42  1  0
 45 47  1  0
 46 49  2  0
 46 48  1  0
 48 45  2  0
 49 51  1  0
 50 49  1  0
 51 47  2  0
 53 55  1  0
 53 52  1  0
 54 65  2  0
 55 60  1  0
 56 64  1  0
 56 66  1  0
 57 63  1  0
 57 59  1  0
 58 64  1  0
 59 58  1  0
 60 59  2  0
 61 62  1  0
 61 55  2  0
 62 57  2  0
 63 56  1  0
 64 54  1  0
 66 68  2  0
 67 66  1  0
 69 67  1  0
 70 79  2  0
 70 75  1  0
 71 67  1  0
 71 75  1  0
 72 71  1  0
 73 74  1  0
 73 72  1  0
 74 70  1  0
 75 76  2  0
 76 77  1  0
 78 77  2  0
 79 78  1  0
 80 54  1  0
 80 81  1  0
 80 90  1  0
 81 84  1  0
 82 86  1  0
 82 81  1  0
 83 82  2  0
 86 85  1  0
 88 86  1  0
 88 89  1  0
 88 87  1  0
 90 93  1  1
 90 91  1  0
 92 90  1  0
M  ISO  4   7 100  15 100  52 101  53 101
M  END
>  <TORSDO>  (3) 
F 18

>  <SCORE>  (3) 
-14.713

>  <name>  (3) 
2

>  <ligand_id>  (3) 
2

>  <original_smiles>  (3) 
[H]c1nc(C([H])([H])[H])c([H])c(C2(C([H])([H])Oc3c([H])c([H])c4c(c3[H])C([H])([H])N(C(=O)C([H])(N([H])C(=O)C([H])(N([H])C([H])([H])[H])C([H])([H])[H])C(C([H])([H])[H])(C([H])([H])[H])C([H])([H])[H])C([H])(C(=O)N([H])C3([H])c5c([H])c([H])c([H])c([H])c5C([H])([H])C([H])([H])C3([H])[H])C4([H])[H])C([H])([H])C([H])([H])C([H])([H])C([H])(N([H])C(=O)N3C([H])([H])C([H])([H])C([H])([H])C([H])(n4nc(-c5c([H])c([H])c(Oc6c([H])c([H])c(F)c([H])c6F)c([H])c5[H])c(C(=O)N([H])[H])c4N([H])[H])C3([H])[H])C2([H])[H])c1[H]

>  <smiles>  (3) 
[H]c1nc(C([H])([H])[H])c([H])c(C2(C([H])([H])Oc3c([H])c([H])c4c(c3[H])C([H])([H])N(C(=O)C([H])(N([H])C(=O)C([H])(N([H])C([H])([H])[H])C([H])([H])[H])C(C([H])([H])[H])(C([H])([H])[H])C([H])([H])[H])C([H])(C(=O)N([H])C3([H])c5c([H])c([H])c([H])c([H])c5C([H])([H])C([H])([H])C3([H])[H])C4([H])[H])C([H])([H])C([H])([H])C([H])([H])C([H])(N([H])C(=O)N3C([H])([H])C([H])([H])C([H])([H])C([H])(n4nc(-c5c([H])c([H])c(Oc6c([H])c([H])c(F)c([H])c6F)c([H])c5[H])c(C(=O)N([H])[H])c4N([H])[H])C3([H])[H])C2([H])[H])c1[H]

$$$$
3:0:0
     RDKit          3D

 94102  0  0  1  0  0  0  0  0999 V2000
  -30.0620  -23.6020   20.5630 C   0  0  0  0  0  3  0  0  0  0  0  0
  -30.5800  -22.2950   20.3290 C   0  0  0  0  0  3  0  0  0  0  0  0
  -27.8470  -22.7570   20.1850 C   0  0  0  0  0  3  0  0  0  0  0  0
  -28.6780  -23.8710   20.4890 C   0  0  0  0  0  0  0  0  0  0  0  0
  -29.7600  -21.1760   20.0040 C   0  0  0  0  0  0  0  0  0  0  0  0
  -28.3600  -21.4400   19.9450 C   0  0  0  0  0  0  0  0  0  0  0  0
  -27.3790  -20.3290   19.6170 C   0  0  0  0  0  1  0  0  0  0  0  0
  -28.0730  -25.2510   20.9250 C   0  0  0  0  0  2  0  0  0  0  0  0
  -28.2900  -26.4720   20.1340 O   0  0  0  0  0  0  0  0  0  0  0  0
  -24.6070  -31.8600   23.2000 C   0  0  0  0  0  0  0  0  0  0  0  0
  -27.1960  -27.3360   20.1120 C   0  0  0  0  0  0  0  0  0  0  0  0
  -23.3880  -30.4640   21.5660 C   0  0  0  0  0  3  0  0  0  0  0  0
  -24.8270  -28.9190   20.1250 C   0  0  0  0  0  0  0  0  0  0  0  0
  -25.9220  -30.7930   21.3590 C   0  0  0  0  0  2  0  0  0  0  0  0
  -26.0000  -29.4180   20.7110 C   0  0  0  0  0  0  0  0  0  0  0  0
  -27.1910  -28.6370   20.6970 C   0  0  0  0  0  3  0  0  0  0  0  0
  -26.0080  -26.8830   19.5040 C   0  0  0  0  0  3  0  0  0  0  0  0
  -24.8310  -27.6550   19.5140 C   0  0  0  0  0  3  0  0  0  0  0  0
  -23.5880  -29.7870   20.1840 C   0  0  0  0  0  2  0  0  0  0  0  0
  -24.6580  -31.0540   22.0990 N   0  0  0  0  0  0  0  0  0  0  0  0
  -23.5290  -32.1360   23.7450 O   0  0  0  0  0  0  0  0  0  0  0  0
  -22.7360  -29.4470   22.5310 C   0  0  0  0  0  0  0  0  0  0  0  0
  -21.4090  -29.2710   22.4130 N   0  0  0  0  0  0  0  0  0  0  0  0
  -23.4210  -28.8190   23.3410 O   0  0  0  0  0  0  0  0  0  0  0  0
  -20.9160  -29.8260   21.7280 H   0  0  0  0  0  0  0  0  0  0  0  0
  -18.0330  -28.0860   22.9390 C   0  0  0  0  0  0  0  0  0  0  0  0
  -20.5940  -28.3360   23.1900 C   0  0  0  0  0  3  0  0  0  0  0  0
  -20.6870  -26.9050   22.6100 C   0  0  0  0  0  2  0  0  0  0  0  0
  -19.5750  -26.5880   21.6050 C   0  0  0  0  0  2  0  0  0  0  0  0
  -18.1990  -26.7370   22.2600 C   0  0  0  0  0  2  0  0  0  0  0  0
  -19.1580  -28.8430   23.3620 C   0  0  0  0  0  0  0  0  0  0  0  0
  -18.9490  -30.1060   23.9570 C   0  0  0  0  0  3  0  0  0  0  0  0
  -17.6480  -30.6110   24.1350 C   0  0  0  0  0  3  0  0  0  0  0  0
  -16.5370  -29.8510   23.7290 C   0  0  0  0  0  3  0  0  0  0  0  0
  -16.7300  -28.5910   23.1380 C   0  0  0  0  0  3  0  0  0  0  0  0
  -25.8970  -32.4880   23.8130 C   0  0  0  0  0  3  0  0  0  0  0  0
  -25.5920  -33.8850   24.1510 N   0  0  0  0  0  0  0  0  0  0  0  0
  -25.9260  -34.9420   23.3990 C   0  0  0  0  0  0  0  0  0  0  0  0
  -26.5970  -34.8430   22.3680 O   0  0  0  0  0  0  0  0  0  0  0  0
  -24.9940  -34.0350   24.9510 H   0  0  0  0  0  0  0  0  0  0  0  0
  -24.2090  -36.7450   23.0470 C   0  0  0  0  0  1  0  0  0  0  0  0
  -25.4410  -36.3290   23.8640 C   0  0  0  0  0  3  0  0  0  0  0  0
  -27.5740  -37.1960   24.7200 C   0  0  0  0  0  1  0  0  0  0  0  0
  -26.4810  -37.3780   23.7690 N   0  0  0  0  0  0  0  0  0  0  0  0
  -26.0770  -38.2980   23.9200 H   0  0  0  0  0  0  0  0  0  0  0  0
  -26.4230  -31.7130   25.0810 C   0  0  1  0  0  0  0  0  0  0  0  0
  -25.3390  -31.4720   26.1580 C   0  0  0  0  0  1  0  0  0  0  0  0
  -27.0000  -30.3350   24.6790 C   0  0  0  0  0  1  0  0  0  0  0  0
  -27.5810  -32.5030   25.7350 C   0  0  0  0  0  1  0  0  0  0  0  0
  -30.4470  -19.8210   19.5440 C   0  0  0  0  0  3  0  0  0  0  0  0
  -30.4120  -18.5540   20.4050 N   0  0  0  0  0  4  0  0  0  0  0  0
  -30.1150  -18.8450   21.3230 H   0  0  0  0  0  0  0  0  0  0  0  0
  -31.3880  -18.3250   20.5110 H   0  0  0  0  0  0  0  0  0  0  0  0
  -29.8150  -16.7220   18.6120 C   0  0  0  0  0  1  0  0  0  0  0  0
  -29.7240  -17.2170   20.0770 C   0  0  0  0  0  3  0  0  0  0  0  0
  -30.0120  -16.0050   21.1050 C   0  0  0  0  0  2  0  0  0  0  0  0
  -30.7760  -14.6860   20.6510 C   0  0  0  0  0  0  0  0  0  0  0  0
  -30.5920  -12.4500   19.5770 C   0  0  0  0  0  2  0  0  0  0  0  0
  -29.7030  -12.5940   18.3220 C   0  0  0  0  0  2  0  0  0  0  0  0
  -28.2050  -12.4760   18.6800 C   0  0  0  0  0  2  0  0  0  0  0  0
  -27.8100  -13.3200   19.9230 C   0  0  0  0  0  3  0  0  0  0  0  0
  -28.8220  -13.1260   21.0720 C   0  0  0  0  0  2  0  0  0  0  0  0
  -30.1540  -13.4670   20.5530 N   0  0  0  0  0  0  0  0  0  0  0  0
  -31.9470  -14.8100   20.2780 O   0  0  0  0  0  0  0  0  0  0  0  0
  -25.3840  -13.9310   20.5160 C   0  0  0  0  0  0  0  0  0  0  0  0
  -24.3010  -13.1670   20.8550 C   0  0  0  0  0  0  0  0  0  0  0  0
  -24.7630  -11.8140   20.8710 C   0  0  0  0  0  0  0  0  0  0  0  0
  -26.4390  -13.0470   20.3480 N   0  0  0  0  0  0  0  0  0  0  0  0
  -26.0660  -11.7700   20.6210 N   0  0  0  0  0  0  0  0  0  0  0  0
  -24.0250  -10.5570   21.0530 C   0  0  0  0  0  0  0  0  0  0  0  0
  -24.4240   -9.6000   22.0120 C   0  0  0  0  0  3  0  0  0  0  0  0
  -23.6890   -8.4060   22.1820 C   0  0  0  0  0  3  0  0  0  0  0  0
  -22.5400   -8.1620   21.3920 C   0  0  0  0  0  0  0  0  0  0  0  0
  -22.1610   -9.1080   20.4220 C   0  0  0  0  0  3  0  0  0  0  0  0
  -22.8970  -10.2910   20.2510 C   0  0  0  0  0  3  0  0  0  0  0  0
  -21.7810   -7.0190   21.4690 O   0  0  0  0  0  0  0  0  0  0  0  0
  -21.7010   -6.2860   22.6260 C   0  0  0  0  0  0  0  0  0  0  0  0
  -21.2520   -6.8510   23.8390 C   0  0  0  0  0  3  0  0  0  0  0  0
  -21.1180   -6.0430   24.9850 C   0  0  0  0  0  3  0  0  0  0  0  0
  -21.4230   -4.6700   24.9200 C   0  0  0  0  0  0  0  0  0  0  0  0
  -21.8660   -4.1040   23.7120 C   0  0  0  0  0  3  0  0  0  0  0  0
  -22.0010   -4.9090   22.5670 C   0  0  0  0  0  0  0  0  0  0  0  0
  -22.4070   -4.3540   21.4000 F   0  0  0  0  0  0  0  0  0  0  0  0
  -21.2890   -3.8930   26.0190 F   0  0  0  0  0  0  0  0  0  0  0  0
  -22.8930  -13.6480   21.0530 C   0  0  0  0  0  0  0  0  0  0  0  0
  -22.1250  -12.9710   21.8990 N   0  0  0  0  0  0  0  0  0  0  0  0
  -22.4790  -14.6630   20.4920 O   0  0  0  0  0  0  0  0  0  0  0  0
  -22.4690  -12.1530   22.3780 H   0  0  0  0  0  0  0  0  0  0  0  0
  -21.1760  -13.2770   22.0700 H   0  0  0  0  0  0  0  0  0  0  0  0
  -25.5550  -15.2990   20.3170 N   0  0  0  0  0  0  0  0  0  0  0  0
  -24.7830  -15.9520   20.3840 H   0  0  0  0  0  0  0  0  0  0  0  0
  -26.4100  -15.7300   19.9920 H   0  0  0  0  0  0  0  0  0  0  0  0
  -30.8680  -20.9130   17.2140 C   0  0  0  0  0  1  0  0  0  0  0  0
  -30.4550  -19.6560   18.0020 C   0  0  0  0  0  2  0  0  0  0  0  0
  2  1  2  0
  3  4  2  0
  4  1  1  0
  4  8  1  0
  5  2  1  0
  6  5  2  0
  6  3  1  0
  7  6  1  0
  9  8  1  0
 10 21  2  0
 11  9  1  0
 11 16  1  0
 12 20  1  0
 12 22  1  0
 13 19  1  0
 13 15  1  0
 14 20  1  0
 15 14  1  0
 16 15  2  0
 17 18  1  0
 17 11  2  0
 18 13  2  0
 19 12  1  0
 20 10  1  0
 22 24  2  0
 23 22  1  0
 25 23  1  0
 26 35  2  0
 26 31  1  0
 27 23  1  0
 27 31  1  0
 28 27  1  0
 29 30  1  0
 29 28  1  0
 30 26  1  0
 31 32  2  0
 32 33  1  0
 34 33  2  0
 35 34  1  0
 36 10  1  0
 36 37  1  0
 36 46  1  0
 37 40  1  0
 38 42  1  0
 38 37  1  0
 39 38  2  0
 42 41  1  0
 44 42  1  0
 44 45  1  0
 44 43  1  0
 46 49  1  1
 46 47  1  0
 48 46  1  0
 50 94  1  0
 50  5  1  0
 50 51  1  0
 51 53  1  0
 51 52  1  0
 55 54  1  0
 55 51  1  0
 55 56  1  0
 57 56  1  0
 58 63  1  0
 59 60  1  0
 59 58  1  0
 61 60  1  0
 61 68  1  0
 61 62  1  0
 63 57  1  0
 63 62  1  0
 64 57  2  0
 65 66  2  0
 66 67  1  0
 66 85  1  0
 67 70  1  0
 68 65  1  0
 68 69  1  0
 69 67  2  0
 70 71  1  0
 71 72  2  0
 73 76  1  0
 73 72  1  0
 74 73  2  0
 75 74  1  0
 75 70  2  0
 76 77  1  0
 77 78  1  0
 78 79  2  0
 80 79  1  0
 80 84  1  0
 81 80  2  0
 82 77  2  0
 82 81  1  0
 83 82  1  0
 85 86  1  0
 86 89  1  0
 86 88  1  0
 87 85  2  0
 90 91  1  0
 90 65  1  0
 92 90  1  0
 93 94  1  0
M  ISO  4   8 101   9 101  56 100  57 100
M  END
>  <TORSDO>  (4) 
F 22

>  <SCORE>  (4) 
-12.855

>  <name>  (4) 
3

>  <ligand_id>  (4) 
3

>  <original_smiles>  (4) 
[H]c1c([H])c([H])c2c(c1[H])C([H])([H])C([H])([H])C([H])([H])C2([H])N([H])C(=O)C1([H])N(C(=O)C([H])(N([H])C(=O)C([H])(N([H])C([H])([H])[H])C([H])([H])[H])C(C([H])([H])[H])(C([H])([H])[H])C([H])([H])[H])C([H])([H])c2c([H])c(OC([H])([H])c3c([H])c([H])c(C([H])(C([H])([H])C([H])([H])[H])[N+]([H])([H])C([H])(C([H])([H])[H])C([H])([H])C(=O)N4C([H])([H])C([H])([H])C([H])([H])C([H])(n5nc(-c6c([H])c([H])c(Oc7c([H])c([H])c(F)c([H])c7F)c([H])c6[H])c(C(=O)N([H])[H])c5N([H])[H])C4([H])[H])c(C([H])([H])[H])c3[H])c([H])c([H])c2C1([H])[H]

>  <smiles>  (4) 
[H]c1c([H])c([H])c2c(c1[H])C([H])([H])C([H])([H])C([H])([H])C2([H])N([H])C(=O)C1([H])N(C(=O)C([H])(N([H])C(=O)C([H])(N([H])C([H])([H])[H])C([H])([H])[H])C(C([H])([H])[H])(C([H])([H])[H])C([H])([H])[H])C([H])([H])c2c([H])c(OC([H])([H])c3c([H])c([H])c(C([H])(C([H])([H])C([H])([H])[H])[N+]([H])([H])C([H])(C([H])([H])[H])C([H])([H])C(=O)N4C([H])([H])C([H])([H])C([H])([H])C([H])(n5nc(-c6c([H])c([H])c(Oc7c([H])c([H])c(F)c([H])c7F)c([H])c6[H])c(C(=O)N([H])[H])c5N([H])[H])C4([H])[H])c(C([H])([H])[H])c3[H])c([H])c([H])c2C1([H])[H]

$$$$
4:0:0
     RDKit          3D

 91100  0  0  1  0  0  0  0  0999 V2000
  -28.3740  -23.3680   18.3930 C   0  0  0  0  0  1  0  0  0  0  0  0
  -28.3760  -23.2050   19.9260 C   0  0  1  0  0  0  0  0  0  0  0  0
  -25.6840  -23.3820   20.1000 C   0  0  0  0  0  2  0  0  0  0  0  0
  -26.0110  -21.9510   19.7190 C   0  0  0  0  0  2  0  0  0  0  0  0
  -27.0130  -22.7800   20.4820 C   0  0  0  0  0  3  0  0  0  0  0  0
  -30.8140  -22.0990   19.8340 C   0  0  0  0  0  1  0  0  0  0  0  0
  -29.3810  -21.8160   20.3070 C   0  0  0  0  0  3  0  0  0  0  0  0
  -30.6190  -15.3150   19.8760 C   0  0  0  0  0  0  0  0  0  0  0  0
  -30.4280  -12.9430   18.9530 C   0  0  0  0  0  2  0  0  0  0  0  0
  -29.4250  -12.8510   17.7830 C   0  0  0  0  0  2  0  0  0  0  0  0
  -27.9970  -12.6230   18.3150 C   0  0  0  0  0  2  0  0  0  0  0  0
  -27.6520  -13.5460   19.5140 C   0  0  0  0  0  3  0  0  0  0  0  0
  -28.7830  -13.6150   20.5610 C   0  0  0  0  0  2  0  0  0  0  0  0
  -29.9840  -14.0620   19.8450 N   0  0  0  0  0  0  0  0  0  0  0  0
  -31.8210  -15.2860   19.5830 O   0  0  0  0  0  0  0  0  0  0  0  0
  -29.8540  -19.1180   21.2870 C   0  0  0  0  0  2  0  0  0  0  0  0
  -29.3870  -19.0990   18.9500 C   0  0  0  0  0  2  0  0  0  0  0  0
  -30.6200  -17.7070   20.9200 C   0  0  0  0  0  2  0  0  0  0  0  0
  -29.1970  -17.4490   19.0900 C   0  0  0  0  0  2  0  0  0  0  0  0
  -29.1270  -20.0720   20.2090 C   0  0  0  0  0  3  0  0  0  0  0  0
  -29.9680  -16.6040   20.1060 N   0  0  0  0  0  0  0  0  0  0  0  0
  -25.3360  -14.0920   20.4430 C   0  0  0  0  0  0  0  0  0  0  0  0
  -24.2980  -13.3050   20.8540 C   0  0  0  0  0  0  0  0  0  0  0  0
  -24.7550  -11.9530   20.7450 C   0  0  0  0  0  0  0  0  0  0  0  0
  -26.3570  -13.2220   20.1020 N   0  0  0  0  0  0  0  0  0  0  0  0
  -26.0250  -11.9290   20.3540 N   0  0  0  0  0  0  0  0  0  0  0  0
  -24.0400  -10.6860   20.9370 C   0  0  0  0  0  0  0  0  0  0  0  0
  -24.4840   -9.7200   21.8670 C   0  0  0  0  0  3  0  0  0  0  0  0
  -23.7640   -8.5190   22.0500 C   0  0  0  0  0  3  0  0  0  0  0  0
  -22.5850   -8.2760   21.3080 C   0  0  0  0  0  0  0  0  0  0  0  0
  -22.1600   -9.2320   20.3680 C   0  0  0  0  0  3  0  0  0  0  0  0
  -22.8800  -10.4230   20.1800 C   0  0  0  0  0  3  0  0  0  0  0  0
  -21.8340   -7.1290   21.4040 O   0  0  0  0  0  0  0  0  0  0  0  0
  -21.7490   -6.4190   22.5740 C   0  0  0  0  0  0  0  0  0  0  0  0
  -21.2360   -6.9880   23.7600 C   0  0  0  0  0  3  0  0  0  0  0  0
  -21.1030   -6.2000   24.9200 C   0  0  0  0  0  3  0  0  0  0  0  0
  -21.4720   -4.8420   24.8960 C   0  0  0  0  0  0  0  0  0  0  0  0
  -21.9820   -4.2720   23.7170 C   0  0  0  0  0  3  0  0  0  0  0  0
  -22.1160   -5.0560   22.5590 C   0  0  0  0  0  0  0  0  0  0  0  0
  -22.5830   -4.4950   21.4160 F   0  0  0  0  0  0  0  0  0  0  0  0
  -21.3420   -4.0820   26.0090 F   0  0  0  0  0  0  0  0  0  0  0  0
  -22.9210  -13.7730   21.2240 C   0  0  0  0  0  0  0  0  0  0  0  0
  -22.2420  -13.0540   22.1120 N   0  0  0  0  0  0  0  0  0  0  0  0
  -22.4560  -14.8120   20.7610 O   0  0  0  0  0  0  0  0  0  0  0  0
  -22.6270  -12.2080   22.5070 H   0  0  0  0  0  0  0  0  0  0  0  0
  -21.3220  -13.3540   22.3960 H   0  0  0  0  0  0  0  0  0  0  0  0
  -25.4970  -15.4690   20.3030 N   0  0  0  0  0  0  0  0  0  0  0  0
  -24.7610  -16.1280   20.5330 H   0  0  0  0  0  0  0  0  0  0  0  0
  -26.3440  -15.9210   19.9850 H   0  0  0  0  0  0  0  0  0  0  0  0
  -28.5570  -24.8330   20.5380 C   0  0  0  0  0  2  0  0  0  0  0  0
  -28.4240  -26.3250   19.9700 O   0  0  0  0  0  0  0  0  0  0  0  0
  -24.6110  -31.9360   23.1290 C   0  0  0  0  0  0  0  0  0  0  0  0
  -27.3150  -27.2700   20.0560 C   0  0  0  0  0  0  0  0  0  0  0  0
  -23.4560  -30.5390   21.4620 C   0  0  0  0  0  3  0  0  0  0  0  0
  -24.9470  -29.0050   20.0280 C   0  0  0  0  0  0  0  0  0  0  0  0
  -26.0070  -30.8510   21.3190 C   0  0  0  0  0  2  0  0  0  0  0  0
  -26.1160  -29.4610   20.6500 C   0  0  0  0  0  0  0  0  0  0  0  0
  -27.3000  -28.6160   20.6310 C   0  0  0  0  0  3  0  0  0  0  0  0
  -26.1110  -26.9260   19.4070 C   0  0  0  0  0  3  0  0  0  0  0  0
  -24.9620  -27.7550   19.3880 C   0  0  0  0  0  3  0  0  0  0  0  0
  -23.7020  -29.8850   20.0770 C   0  0  0  0  0  2  0  0  0  0  0  0
  -24.7100  -31.1340   22.0250 N   0  0  0  0  0  0  0  0  0  0  0  0
  -23.5150  -32.1840   23.6570 O   0  0  0  0  0  0  0  0  0  0  0  0
  -22.7920  -29.5040   22.4080 C   0  0  0  0  0  0  0  0  0  0  0  0
  -21.4640  -29.3270   22.2970 N   0  0  0  0  0  0  0  0  0  0  0  0
  -23.4770  -28.8640   23.2110 O   0  0  0  0  0  0  0  0  0  0  0  0
  -20.9640  -29.8940   21.6270 H   0  0  0  0  0  0  0  0  0  0  0  0
  -18.0930  -28.1050   22.8490 C   0  0  0  0  0  0  0  0  0  0  0  0
  -20.6600  -28.3610   23.0540 C   0  0  0  0  0  3  0  0  0  0  0  0
  -20.7450  -26.9520   22.4240 C   0  0  0  0  0  2  0  0  0  0  0  0
  -19.6150  -26.6680   21.4300 C   0  0  0  0  0  2  0  0  0  0  0  0
  -18.2510  -26.7840   22.1160 C   0  0  0  0  0  2  0  0  0  0  0  0
  -19.2240  -28.8520   23.2760 C   0  0  0  0  0  0  0  0  0  0  0  0
  -19.0200  -30.0880   23.9280 C   0  0  0  0  0  3  0  0  0  0  0  0
  -17.7200  -30.5790   24.1540 C   0  0  0  0  0  3  0  0  0  0  0  0
  -16.6050  -29.8300   23.7410 C   0  0  0  0  0  3  0  0  0  0  0  0
  -16.7920  -28.5950   23.0950 C   0  0  0  0  0  3  0  0  0  0  0  0
  -25.8660  -32.5990   23.7750 C   0  0  0  0  0  3  0  0  0  0  0  0
  -26.3850  -31.8270   25.0530 C   0  0  1  0  0  0  0  0  0  0  0  0
  -25.2870  -31.5560   26.1090 C   0  0  0  0  0  1  0  0  0  0  0  0
  -27.0030  -30.4640   24.6660 C   0  0  0  0  0  1  0  0  0  0  0  0
  -27.5090  -32.6430   25.7330 C   0  0  0  0  0  1  0  0  0  0  0  0
  -25.5170  -33.9850   24.1240 N   0  0  0  0  0  0  0  0  0  0  0  0
  -25.8260  -35.0620   23.3870 C   0  0  0  0  0  0  0  0  0  0  0  0
  -26.4970  -34.9920   22.3560 O   0  0  0  0  0  0  0  0  0  0  0  0
  -24.9160  -34.1080   24.9250 H   0  0  0  0  0  0  0  0  0  0  0  0
  -24.0580  -36.8260   23.0640 C   0  0  0  0  0  1  0  0  0  0  0  0
  -25.3070  -36.4330   23.8690 C   0  0  0  0  0  3  0  0  0  0  0  0
  -27.4150  -37.3570   24.7260 C   0  0  0  0  0  1  0  0  0  0  0  0
  -26.3170  -37.5120   23.7770 N   0  0  0  0  0  0  0  0  0  0  0  0
  -25.8880  -38.4210   23.9340 H   0  0  0  0  0  0  0  0  0  0  0  0
  2  1  1  6
  2  7  1  0
  2  5  1  0
  2 50  1  0
  3  5  1  0
  4  3  1  0
  4  5  1  0
  7  6  1  0
  8 21  1  0
  9 14  1  0
 10 11  1  0
 10  9  1  0
 12 11  1  0
 12 25  1  0
 12 13  1  0
 14  8  1  0
 14 13  1  0
 15  8  2  0
 17 19  1  0
 17 20  1  0
 18 16  1  0
 19 21  1  0
 20  7  1  0
 20 16  1  0
 21 18  1  0
 22 23  2  0
 23 42  1  0
 24 23  1  0
 24 27  1  0
 25 26  1  0
 25 22  1  0
 26 24  2  0
 27 28  1  0
 28 29  2  0
 30 33  1  0
 30 29  1  0
 31 30  2  0
 32 31  1  0
 32 27  2  0
 33 34  1  0
 34 35  1  0
 35 36  2  0
 37 36  1  0
 37 41  1  0
 38 37  2  0
 39 34  2  0
 39 38  1  0
 40 39  1  0
 42 43  1  0
 43 46  1  0
 43 45  1  0
 44 42  2  0
 47 22  1  0
 47 48  1  0
 49 47  1  0
 51 53  1  0
 51 50  1  0
 52 63  2  0
 53 58  1  0
 54 62  1  0
 54 64  1  0
 55 61  1  0
 55 57  1  0
 56 62  1  0
 57 56  1  0
 58 57  2  0
 59 53  2  0
 60 59  1  0
 60 55  2  0
 61 54  1  0
 62 52  1  0
 64 66  2  0
 65 64  1  0
 67 65  1  0
 68 77  2  0
 68 73  1  0
 69 65  1  0
 69 73  1  0
 70 69  1  0
 71 72  1  0
 71 70  1  0
 72 68  1  0
 73 74  2  0
 74 75  1  0
 76 75  2  0
 77 76  1  0
 78 52  1  0
 78 83  1  0
 78 79  1  0
 79 82  1  1
 79 80  1  0
 81 79  1  0
 83 86  1  0
 84 88  1  0
 84 83  1  0
 85 84  2  0
 88 87  1  0
 90 88  1  0
 90 91  1  0
 90 89  1  0
M  ISO  4   8 100  21 100  50 101  51 101
M  END
>  <TORSDO>  (5) 
F 19

>  <SCORE>  (5) 
-15.091

>  <name>  (5) 
4

>  <ligand_id>  (5) 
4

>  <original_smiles>  (5) 
[H]c1c([H])c([H])c2c(c1[H])C([H])([H])C([H])([H])C([H])([H])C2([H])N([H])C(=O)C1([H])N(C(=O)C([H])(N([H])C(=O)C([H])(N([H])C([H])([H])[H])C([H])([H])[H])C(C([H])([H])[H])(C([H])([H])[H])C([H])([H])[H])C([H])([H])c2c([H])c(OC([H])([H])C(C([H])([H])[H])(C3([H])C([H])([H])C3([H])[H])C([H])(C([H])([H])[H])C3([H])C([H])([H])C([H])([H])N(C(=O)N4C([H])([H])C([H])([H])C([H])([H])C([H])(n5nc(-c6c([H])c([H])c(Oc7c([H])c([H])c(F)c([H])c7F)c([H])c6[H])c(C(=O)N([H])[H])c5N([H])[H])C4([H])[H])C([H])([H])C3([H])[H])c([H])c([H])c2C1([H])[H]

>  <smiles>  (5) 
[H]c1c([H])c([H])c2c(c1[H])C([H])([H])C([H])([H])C([H])([H])C2([H])N([H])C(=O)C1([H])N(C(=O)C([H])(N([H])C(=O)C([H])(N([H])C([H])([H])[H])C([H])([H])[H])C(C([H])([H])[H])(C([H])([H])[H])C([H])([H])[H])C([H])([H])c2c([H])c(OC([H])([H])C(C([H])([H])[H])(C3([H])C([H])([H])C3([H])[H])C([H])(C([H])([H])[H])C3([H])C([H])([H])C([H])([H])N(C(=O)N4C([H])([H])C([H])([H])C([H])([H])C([H])(n5nc(-c6c([H])c([H])c(Oc7c([H])c([H])c(F)c([H])c7F)c([H])c6[H])c(C(=O)N([H])[H])c5N([H])[H])C4([H])[H])C([H])([H])C3([H])[H])c([H])c([H])c2C1([H])[H]

$$$$
5:0:0
     RDKit          3D

 94102  0  0  1  0  0  0  0  0999 V2000
  -27.5450  -22.5240   20.1970 C   0  0  0  0  0  3  0  0  0  0  0  0
  -27.7470  -21.0940   20.1360 C   0  0  0  0  0  3  0  0  0  0  0  0
  -29.8250  -22.7920   20.7390 C   0  0  0  0  0  3  0  0  0  0  0  0
  -28.5650  -23.4630   20.5420 C   0  0  0  0  0  0  0  0  0  0  0  0
  -28.9780  -20.4080   20.4010 C   0  0  0  0  0  0  0  0  0  0  0  0
  -30.0380  -21.3470   20.6700 C   0  0  0  0  0  0  0  0  0  0  0  0
  -27.0380  -24.9990   21.9900 C   0  0  0  0  0  1  0  0  0  0  0  0
  -28.2450  -25.0030   21.0300 C   0  0  0  0  0  3  0  0  0  0  0  0
  -28.3020  -26.3010   20.2060 O   0  0  0  0  0  0  0  0  0  0  0  0
  -24.5870  -31.8890   23.2240 C   0  0  0  0  0  0  0  0  0  0  0  0
  -27.2330  -27.2540   20.2030 C   0  0  0  0  0  0  0  0  0  0  0  0
  -23.4110  -30.4940   21.5660 C   0  0  0  0  0  3  0  0  0  0  0  0
  -24.8870  -28.9410   20.1520 C   0  0  0  0  0  0  0  0  0  0  0  0
  -25.9610  -30.7940   21.4210 C   0  0  0  0  0  2  0  0  0  0  0  0
  -26.0530  -29.4080   20.7700 C   0  0  0  0  0  0  0  0  0  0  0  0
  -27.2330  -28.5780   20.7820 C   0  0  0  0  0  3  0  0  0  0  0  0
  -26.0470  -26.8740   19.5450 C   0  0  0  0  0  3  0  0  0  0  0  0
  -24.8910  -27.6840   19.5260 C   0  0  0  0  0  3  0  0  0  0  0  0
  -23.6520  -29.8250   20.1870 C   0  0  0  0  0  2  0  0  0  0  0  0
  -24.6720  -31.0800   22.1270 N   0  0  0  0  0  0  0  0  0  0  0  0
  -23.4950  -32.1620   23.7470 O   0  0  0  0  0  0  0  0  0  0  0  0
  -22.7370  -29.4750   22.5170 C   0  0  0  0  0  0  0  0  0  0  0  0
  -21.4080  -29.3090   22.3940 N   0  0  0  0  0  0  0  0  0  0  0  0
  -23.4100  -28.8350   23.3280 O   0  0  0  0  0  0  0  0  0  0  0  0
  -20.9190  -29.8810   21.7190 H   0  0  0  0  0  0  0  0  0  0  0  0
  -18.0200  -28.1410   22.9070 C   0  0  0  0  0  0  0  0  0  0  0  0
  -20.5840  -28.3680   23.1570 C   0  0  0  0  0  3  0  0  0  0  0  0
  -20.6650  -26.9440   22.5560 C   0  0  0  0  0  2  0  0  0  0  0  0
  -19.5510  -26.6520   21.5480 C   0  0  0  0  0  2  0  0  0  0  0  0
  -18.1750  -26.8020   22.2060 C   0  0  0  0  0  2  0  0  0  0  0  0
  -19.1510  -28.8820   23.3420 C   0  0  0  0  0  0  0  0  0  0  0  0
  -18.9500  -30.1360   23.9590 C   0  0  0  0  0  3  0  0  0  0  0  0
  -17.6530  -30.6460   24.1480 C   0  0  0  0  0  3  0  0  0  0  0  0
  -16.5360  -29.9010   23.7310 C   0  0  0  0  0  3  0  0  0  0  0  0
  -16.7210  -28.6510   23.1150 C   0  0  0  0  0  3  0  0  0  0  0  0
  -25.8580  -32.5300   23.8620 C   0  0  0  0  0  3  0  0  0  0  0  0
  -25.5420  -33.9310   24.1770 N   0  0  0  0  0  0  0  0  0  0  0  0
  -25.8840  -34.9820   23.4190 C   0  0  0  0  0  0  0  0  0  0  0  0
  -26.5690  -34.8730   22.3980 O   0  0  0  0  0  0  0  0  0  0  0  0
  -24.9360  -34.0910   24.9690 H   0  0  0  0  0  0  0  0  0  0  0  0
  -24.1680  -36.7790   23.0320 C   0  0  0  0  0  1  0  0  0  0  0  0
  -25.3940  -36.3730   23.8640 C   0  0  0  0  0  3  0  0  0  0  0  0
  -27.5150  -37.2610   24.7290 C   0  0  0  0  0  1  0  0  0  0  0  0
  -26.4300  -37.4230   23.7640 N   0  0  0  0  0  0  0  0  0  0  0  0
  -26.0230  -38.3450   23.8980 H   0  0  0  0  0  0  0  0  0  0  0  0
  -26.3490  -31.7730   25.1570 C   0  0  1  0  0  0  0  0  0  0  0  0
  -25.2350  -31.5520   26.2060 C   0  0  0  0  0  1  0  0  0  0  0  0
  -26.9350  -30.3880   24.7930 C   0  0  0  0  0  1  0  0  0  0  0  0
  -27.4870  -32.5730   25.8340 C   0  0  0  0  0  1  0  0  0  0  0  0
  -28.9570  -18.7610   20.5040 C   0  0  0  0  0  3  0  0  0  0  0  0
  -30.1320  -17.6100   20.2800 C   0  0  0  0  0  3  0  0  0  0  0  0
  -30.5820  -14.9290   20.2200 C   0  0  0  0  0  0  0  0  0  0  0  0
  -30.4070  -12.6230   19.2180 C   0  0  0  0  0  2  0  0  0  0  0  0
  -29.4530  -12.6650   18.0030 C   0  0  0  0  0  2  0  0  0  0  0  0
  -27.9890  -12.4770   18.4510 C   0  0  0  0  0  2  0  0  0  0  0  0
  -27.6250  -13.3490   19.6830 C   0  0  0  0  0  3  0  0  0  0  0  0
  -28.7060  -13.2860   20.7840 C   0  0  0  0  0  2  0  0  0  0  0  0
  -29.9750  -13.6840   20.1650 N   0  0  0  0  0  0  0  0  0  0  0  0
  -31.7700  -15.0170   19.8970 O   0  0  0  0  0  0  0  0  0  0  0  0
  -29.8050  -16.0850   20.4230 N   0  0  0  0  0  0  0  0  0  0  0  0
  -28.8420  -15.8830   20.6480 H   0  0  0  0  0  0  0  0  0  0  0  0
  -25.2500  -13.9110   20.4570 C   0  0  0  0  0  0  0  0  0  0  0  0
  -24.1970  -13.1270   20.8410 C   0  0  0  0  0  0  0  0  0  0  0  0
  -24.6710  -11.7800   20.7950 C   0  0  0  0  0  0  0  0  0  0  0  0
  -26.2960  -13.0410   20.1980 N   0  0  0  0  0  0  0  0  0  0  0  0
  -25.9570  -11.7530   20.4660 N   0  0  0  0  0  0  0  0  0  0  0  0
  -23.9560  -10.5120   20.9900 C   0  0  0  0  0  0  0  0  0  0  0  0
  -24.3970   -9.5490   21.9260 C   0  0  0  0  0  3  0  0  0  0  0  0
  -23.6790   -8.3460   22.1070 C   0  0  0  0  0  3  0  0  0  0  0  0
  -22.5070   -8.0980   21.3550 C   0  0  0  0  0  0  0  0  0  0  0  0
  -22.0850   -9.0490   20.4080 C   0  0  0  0  0  3  0  0  0  0  0  0
  -22.8030  -10.2430   20.2250 C   0  0  0  0  0  3  0  0  0  0  0  0
  -21.7600   -6.9480   21.4480 O   0  0  0  0  0  0  0  0  0  0  0  0
  -21.7050   -6.2170   22.6080 C   0  0  0  0  0  0  0  0  0  0  0  0
  -21.2390   -6.7760   23.8180 C   0  0  0  0  0  3  0  0  0  0  0  0
  -21.1330   -5.9700   24.9690 C   0  0  0  0  0  3  0  0  0  0  0  0
  -21.4810   -4.6070   24.9100 C   0  0  0  0  0  0  0  0  0  0  0  0
  -21.9380   -4.0490   23.7040 C   0  0  0  0  0  3  0  0  0  0  0  0
  -22.0460   -4.8510   22.5540 C   0  0  0  0  0  0  0  0  0  0  0  0
  -22.4670   -4.3030   21.3890 F   0  0  0  0  0  0  0  0  0  0  0  0
  -21.3710   -3.8300   26.0140 F   0  0  0  0  0  0  0  0  0  0  0  0
  -22.8010  -13.5930   21.1340 C   0  0  0  0  0  0  0  0  0  0  0  0
  -22.0900  -12.8860   22.0030 N   0  0  0  0  0  0  0  0  0  0  0  0
  -22.3510  -14.6190   20.6260 O   0  0  0  0  0  0  0  0  0  0  0  0
  -22.4670  -12.0540   22.4350 H   0  0  0  0  0  0  0  0  0  0  0  0
  -21.1530  -13.1780   22.2430 H   0  0  0  0  0  0  0  0  0  0  0  0
  -25.3980  -15.2840   20.2810 N   0  0  0  0  0  0  0  0  0  0  0  0
  -24.6200  -15.9240   20.3960 H   0  0  0  0  0  0  0  0  0  0  0  0
  -26.2200  -15.7290   19.8910 H   0  0  0  0  0  0  0  0  0  0  0  0
  -31.4480  -20.8290   20.9180 C   0  0  0  0  0  2  0  0  0  0  0  0
  -32.2080  -20.6310   19.5920 C   0  0  0  0  0  2  0  0  0  0  0  0
  -34.1110  -19.5530   18.3240 C   0  0  0  0  0  1  0  0  0  0  0  0
  -34.5910  -20.6920   20.5280 C   0  0  0  0  0  1  0  0  0  0  0  0
  -33.5560  -19.8930   19.7180 C   0  0  0  0  0  3  0  0  0  0  0  0
  1  4  1  0
  2  1  2  0
  2  5  1  0
  4  3  2  0
  4  8  1  0
  5 50  1  0
  5  6  2  0
  6  3  1  0
  6 90  1  0
  8  7  1  0
  9  8  1  0
 10 21  2  0
 11  9  1  0
 11 16  1  0
 12 20  1  0
 12 22  1  0
 13 19  1  0
 13 15  1  0
 14 20  1  0
 15 16  2  0
 15 14  1  0
 17 11  2  0
 18 17  1  0
 18 13  2  0
 19 12  1  0
 20 10  1  0
 22 24  2  0
 23 22  1  0
 25 23  1  0
 26 35  2  0
 26 31  1  0
 27 23  1  0
 27 31  1  0
 28 27  1  0
 29 30  1  0
 29 28  1  0
 30 26  1  0
 31 32  2  0
 32 33  1  0
 34 33  2  0
 35 34  1  0
 36 10  1  0
 36 37  1  0
 36 46  1  0
 37 40  1  0
 38 42  1  0
 38 37  1  0
 39 38  2  0
 42 41  1  0
 44 42  1  0
 44 45  1  0
 44 43  1  0
 46 49  1  1
 46 47  1  0
 48 46  1  0
 51 60  1  0
 51 50  2  0
 52 60  1  0
 53 58  1  0
 54 55  1  0
 54 53  1  0
 56 55  1  0
 56 65  1  0
 56 57  1  0
 58 52  1  0
 58 57  1  0
 59 52  2  0
 60 61  1  0
 62 63  2  0
 63 82  1  0
 64 63  1  0
 64 67  1  0
 65 62  1  0
 65 66  1  0
 66 64  2  0
 67 68  1  0
 68 69  2  0
 70 73  1  0
 70 69  1  0
 71 70  2  0
 72 71  1  0
 72 67  2  0
 73 74  1  0
 74 75  1  0
 75 76  2  0
 77 76  1  0
 77 81  1  0
 78 77  2  0
 79 74  2  0
 79 78  1  0
 80 79  1  0
 82 83  1  0
 83 86  1  0
 83 85  1  0
 84 82  2  0
 87 88  1  0
 87 62  1  0
 89 87  1  0
 91 94  1  0
 91 90  1  0
 92 94  1  0
 94 93  1  0
M  ISO  4   8 101   9 101  52 100  60 100
M  END
>  <TORSDO>  (6) 
F 22

>  <SCORE>  (6) 
-13.300

>  <name>  (6) 
5

>  <ligand_id>  (6) 
5

>  <original_smiles>  (6) 
[H]c1c([H])c([H])c2c(c1[H])C([H])([H])C([H])([H])C([H])([H])C2([H])N([H])C(=O)C1([H])N(C(=O)C([H])(N([H])C(=O)C([H])(N([H])C([H])([H])[H])C([H])([H])[H])C(C([H])([H])[H])(C([H])([H])[H])C([H])([H])[H])C([H])([H])c2c([H])c(OC([H])(c3c([H])c([H])c(C([H])([H])C([H])([H])N([H])C(=O)N4C([H])([H])C([H])([H])C([H])([H])C([H])(n5nc(-c6c([H])c([H])c(Oc7c([H])c([H])c(F)c([H])c7F)c([H])c6[H])c(C(=O)N([H])[H])c5N([H])[H])C4([H])[H])c(C([H])([H])C([H])([H])C([H])(C([H])([H])[H])C([H])([H])[H])c3[H])C([H])([H])[H])c([H])c([H])c2C1([H])[H]

>  <smiles>  (6) 
[H]c1c([H])c([H])c2c(c1[H])C([H])([H])C([H])([H])C([H])([H])C2([H])N([H])C(=O)C1([H])N(C(=O)C([H])(N([H])C(=O)C([H])(N([H])C([H])([H])[H])C([H])([H])[H])C(C([H])([H])[H])(C([H])([H])[H])C([H])([H])[H])C([H])([H])c2c([H])c(OC([H])(c3c([H])c([H])c(C([H])([H])C([H])([H])N([H])C(=O)N4C([H])([H])C([H])([H])C([H])([H])C([H])(n5nc(-c6c([H])c([H])c(Oc7c([H])c([H])c(F)c([H])c7F)c([H])c6[H])c(C(=O)N([H])[H])c5N([H])[H])C4([H])[H])c(C([H])([H])C([H])([H])C([H])(C([H])([H])[H])C([H])([H])[H])c3[H])C([H])([H])[H])c([H])c([H])c2C1([H])[H]

$$$$
6:0:0
     RDKit          3D

 92100  0  0  1  0  0  0  0  0999 V2000
  -28.6970  -20.3530   20.3660 C   0  0  0  0  0  3  0  0  0  0  0  0
  -30.3700  -21.7360   20.0640 C   0  0  0  0  0  3  0  0  0  0  0  0
  -29.8160  -19.4530   20.2770 C   0  0  0  0  0  0  0  0  0  0  0  0
  -30.8580  -20.4360   20.0450 C   0  0  0  0  0  0  0  0  0  0  0  0
  -29.0010  -21.8000   20.2490 N   0  0  0  0  0  0  0  0  0  0  0  0
  -32.6360  -20.0590   18.2690 C   0  0  0  0  0  1  0  0  0  0  0  0
  -32.3220  -20.1100   19.7750 C   0  0  0  0  0  3  0  0  0  0  0  0
  -33.1070  -21.0200   20.3530 F   0  0  0  0  0  0  0  0  0  0  0  0
  -27.8810  -23.3430   18.5960 C   0  0  0  0  0  1  0  0  0  0  0  0
  -26.7560  -22.8640   20.7740 C   0  0  0  0  0  1  0  0  0  0  0  0
  -28.1120  -23.1580   20.1040 C   0  0  1  0  0  0  0  0  0  0  0  0
  -28.5520  -24.7210   20.6790 C   0  0  0  0  0  2  0  0  0  0  0  0
  -28.3570  -26.2190   20.1880 O   0  0  0  0  0  0  0  0  0  0  0  0
  -24.6340  -31.9330   23.2370 C   0  0  0  0  0  0  0  0  0  0  0  0
  -27.2430  -27.1420   20.2780 C   0  0  0  0  0  0  0  0  0  0  0  0
  -23.4510  -30.5160   21.6020 C   0  0  0  0  0  3  0  0  0  0  0  0
  -24.9110  -28.9070   20.2220 C   0  0  0  0  0  0  0  0  0  0  0  0
  -26.0090  -30.7670   21.4620 C   0  0  0  0  0  2  0  0  0  0  0  0
  -26.0910  -29.3590   20.8290 C   0  0  0  0  0  0  0  0  0  0  0  0
  -27.2560  -28.4950   20.8280 C   0  0  0  0  0  3  0  0  0  0  0  0
  -26.0310  -26.7950   19.6420 C   0  0  0  0  0  3  0  0  0  0  0  0
  -24.8970  -27.6400   19.6200 C   0  0  0  0  0  3  0  0  0  0  0  0
  -23.6890  -29.8160   20.2370 C   0  0  0  0  0  2  0  0  0  0  0  0
  -24.7180  -31.0980   22.1530 N   0  0  0  0  0  0  0  0  0  0  0  0
  -23.5410  -32.2200   23.7520 O   0  0  0  0  0  0  0  0  0  0  0  0
  -22.7690  -29.5200   22.5720 C   0  0  0  0  0  0  0  0  0  0  0  0
  -21.4410  -29.3480   22.4470 N   0  0  0  0  0  0  0  0  0  0  0  0
  -23.4390  -28.9050   23.4050 O   0  0  0  0  0  0  0  0  0  0  0  0
  -20.9600  -29.8970   21.7500 H   0  0  0  0  0  0  0  0  0  0  0  0
  -18.0550  -28.1600   22.9620 C   0  0  0  0  0  0  0  0  0  0  0  0
  -20.6150  -28.4160   23.2220 C   0  0  0  0  0  3  0  0  0  0  0  0
  -20.7090  -26.9820   22.6510 C   0  0  0  0  0  2  0  0  0  0  0  0
  -19.6040  -26.6600   21.6390 C   0  0  0  0  0  2  0  0  0  0  0  0
  -18.2250  -26.8110   22.2860 C   0  0  0  0  0  2  0  0  0  0  0  0
  -19.1770  -28.9220   23.3860 C   0  0  0  0  0  0  0  0  0  0  0  0
  -18.9620  -30.1860   23.9780 C   0  0  0  0  0  3  0  0  0  0  0  0
  -17.6560  -30.6880   24.1470 C   0  0  0  0  0  3  0  0  0  0  0  0
  -16.5490  -29.9230   23.7400 C   0  0  0  0  0  3  0  0  0  0  0  0
  -16.7500  -28.6600   23.1550 C   0  0  0  0  0  3  0  0  0  0  0  0
  -25.9010  -32.5820   23.8680 C   0  0  0  0  0  3  0  0  0  0  0  0
  -26.4040  -31.8330   25.1620 C   0  0  1  0  0  0  0  0  0  0  0  0
  -25.2980  -31.6030   26.2190 C   0  0  0  0  0  1  0  0  0  0  0  0
  -26.9970  -30.4530   24.7990 C   0  0  0  0  0  1  0  0  0  0  0  0
  -27.5480  -32.6380   25.8260 C   0  0  0  0  0  1  0  0  0  0  0  0
  -25.5810  -33.9840   24.1880 N   0  0  0  0  0  0  0  0  0  0  0  0
  -25.9150  -35.0360   23.4290 C   0  0  0  0  0  0  0  0  0  0  0  0
  -26.5870  -34.9310   22.4000 O   0  0  0  0  0  0  0  0  0  0  0  0
  -24.9850  -34.1390   24.9880 H   0  0  0  0  0  0  0  0  0  0  0  0
  -24.1840  -36.8270   23.0640 C   0  0  0  0  0  1  0  0  0  0  0  0
  -25.4250  -36.4270   23.8830 C   0  0  0  0  0  3  0  0  0  0  0  0
  -27.5530  -37.3210   24.7240 C   0  0  0  0  0  1  0  0  0  0  0  0
  -26.4570  -37.4820   23.7710 N   0  0  0  0  0  0  0  0  0  0  0  0
  -26.0490  -38.4020   23.9130 H   0  0  0  0  0  0  0  0  0  0  0  0
  -30.3080  -17.8130   20.3500 C   0  0  0  0  0  2  0  0  0  0  0  0
  -30.4730  -15.1020   20.2520 C   0  0  0  0  0  0  0  0  0  0  0  0
  -30.3640  -12.7510   19.2770 C   0  0  0  0  0  2  0  0  0  0  0  0
  -29.4150  -12.6870   18.0590 C   0  0  0  0  0  2  0  0  0  0  0  0
  -27.9530  -12.4880   18.5040 C   0  0  0  0  0  2  0  0  0  0  0  0
  -27.5640  -13.3760   19.7160 C   0  0  0  0  0  3  0  0  0  0  0  0
  -28.6430  -13.3770   20.8180 C   0  0  0  0  0  2  0  0  0  0  0  0
  -29.8800  -13.8370   20.1830 N   0  0  0  0  0  0  0  0  0  0  0  0
  -31.6790  -15.1380   19.9850 O   0  0  0  0  0  0  0  0  0  0  0  0
  -29.7310  -16.3310   20.4020 N   0  0  0  0  0  0  0  0  0  0  0  0
  -28.7370  -16.2350   20.5630 H   0  0  0  0  0  0  0  0  0  0  0  0
  -25.1950  -13.9220   20.4950 C   0  0  0  0  0  0  0  0  0  0  0  0
  -24.1440  -13.1320   20.8750 C   0  0  0  0  0  0  0  0  0  0  0  0
  -24.6220  -11.7860   20.8290 C   0  0  0  0  0  0  0  0  0  0  0  0
  -26.2430  -13.0560   20.2350 N   0  0  0  0  0  0  0  0  0  0  0  0
  -25.9100  -11.7670   20.5070 N   0  0  0  0  0  0  0  0  0  0  0  0
  -23.9080  -10.5150   21.0230 C   0  0  0  0  0  0  0  0  0  0  0  0
  -24.3530   -9.5520   21.9570 C   0  0  0  0  0  3  0  0  0  0  0  0
  -23.6350   -8.3490   22.1390 C   0  0  0  0  0  3  0  0  0  0  0  0
  -22.4620   -8.1000   21.3890 C   0  0  0  0  0  0  0  0  0  0  0  0
  -22.0360   -9.0520   20.4470 C   0  0  0  0  0  3  0  0  0  0  0  0
  -22.7520  -10.2480   20.2630 C   0  0  0  0  0  3  0  0  0  0  0  0
  -21.7180   -6.9470   21.4790 O   0  0  0  0  0  0  0  0  0  0  0  0
  -21.6770   -6.2070   22.6340 C   0  0  0  0  0  0  0  0  0  0  0  0
  -21.2350   -6.7570   23.8570 C   0  0  0  0  0  3  0  0  0  0  0  0
  -21.1450   -5.9420   25.0020 C   0  0  0  0  0  3  0  0  0  0  0  0
  -21.4840   -4.5780   24.9270 C   0  0  0  0  0  0  0  0  0  0  0  0
  -21.9150   -4.0270   23.7070 C   0  0  0  0  0  3  0  0  0  0  0  0
  -22.0100   -4.8380   22.5630 C   0  0  0  0  0  0  0  0  0  0  0  0
  -22.4080   -4.2980   21.3860 F   0  0  0  0  0  0  0  0  0  0  0  0
  -21.3870   -3.7920   26.0240 F   0  0  0  0  0  0  0  0  0  0  0  0
  -22.7470  -13.5950   21.1570 C   0  0  0  0  0  0  0  0  0  0  0  0
  -22.0320  -12.8920   22.0290 N   0  0  0  0  0  0  0  0  0  0  0  0
  -22.2950  -14.6170   20.6400 O   0  0  0  0  0  0  0  0  0  0  0  0
  -22.4080  -12.0660   22.4710 H   0  0  0  0  0  0  0  0  0  0  0  0
  -21.0930  -13.1850   22.2570 H   0  0  0  0  0  0  0  0  0  0  0  0
  -25.3400  -15.2940   20.3200 N   0  0  0  0  0  0  0  0  0  0  0  0
  -24.5640  -15.9350   20.4430 H   0  0  0  0  0  0  0  0  0  0  0  0
  -26.1630  -15.7460   19.9450 H   0  0  0  0  0  0  0  0  0  0  0  0
  2  5  1  0
  3 54  1  0
  3  1  2  0
  4  2  2  0
  4  3  1  0
  5  1  1  0
  7  6  1  0
  7  4  1  0
  7  8  1  0
 11  9  1  6
 11  5  1  0
 11 12  1  0
 11 10  1  0
 13 15  1  0
 13 12  1  0
 14 25  2  0
 15 20  1  0
 16 24  1  0
 16 26  1  0
 17 23  1  0
 17 19  1  0
 18 24  1  0
 19 18  1  0
 20 19  2  0
 21 15  2  0
 22 21  1  0
 22 17  2  0
 23 16  1  0
 24 14  1  0
 26 28  2  0
 27 26  1  0
 29 27  1  0
 30 39  2  0
 30 35  1  0
 31 27  1  0
 31 35  1  0
 32 31  1  0
 33 34  1  0
 33 32  1  0
 34 30  1  0
 35 36  2  0
 36 37  1  0
 38 37  2  0
 39 38  1  0
 40 14  1  0
 40 45  1  0
 40 41  1  0
 41 44  1  1
 41 42  1  0
 43 41  1  0
 45 48  1  0
 46 50  1  0
 46 45  1  0
 47 46  2  0
 50 49  1  0
 52 50  1  0
 52 53  1  0
 52 51  1  0
 54 63  1  0
 55 63  1  0
 56 61  1  0
 57 58  1  0
 57 56  1  0
 59 58  1  0
 59 68  1  0
 59 60  1  0
 61 55  1  0
 61 60  1  0
 62 55  2  0
 63 64  1  0
 65 66  2  0
 66 85  1  0
 67 66  1  0
 67 70  1  0
 68 65  1  0
 68 69  1  0
 69 67  2  0
 70 71  1  0
 71 72  2  0
 73 76  1  0
 73 72  1  0
 74 73  2  0
 75 74  1  0
 75 70  2  0
 76 77  1  0
 77 78  1  0
 78 79  2  0
 80 79  1  0
 80 84  1  0
 81 80  2  0
 82 77  2  0
 82 81  1  0
 83 82  1  0
 85 86  1  0
 86 89  1  0
 86 88  1  0
 87 85  2  0
 90 91  1  0
 90 65  1  0
 92 90  1  0
M  ISO  4  12 101  13 101  55 100  63 100
M  END
>  <TORSDO>  (7) 
F 20

>  <SCORE>  (7) 
-15.205

>  <name>  (7) 
6

>  <ligand_id>  (7) 
6

>  <original_smiles>  (7) 
[H]c1c([H])c([H])c2c(c1[H])C([H])([H])C([H])([H])C([H])([H])C2([H])N([H])C(=O)C1([H])N(C(=O)C([H])(N([H])C(=O)C([H])(N([H])C([H])([H])[H])C([H])([H])[H])C(C([H])([H])[H])(C([H])([H])[H])C([H])([H])[H])C([H])([H])c2c([H])c(OC([H])([H])C(n3c([H])c(C([H])([H])N([H])C(=O)N4C([H])([H])C([H])([H])C([H])([H])C([H])(n5nc(-c6c([H])c([H])c(Oc7c([H])c([H])c(F)c([H])c7F)c([H])c6[H])c(C(=O)N([H])[H])c5N([H])[H])C4([H])[H])c(C([H])(F)C([H])([H])[H])c3[H])(C([H])([H])[H])C([H])([H])[H])c([H])c([H])c2C1([H])[H]

>  <smiles>  (7) 
[H]c1c([H])c([H])c2c(c1[H])C([H])([H])C([H])([H])C([H])([H])C2([H])N([H])C(=O)C1([H])N(C(=O)C([H])(N([H])C(=O)C([H])(N([H])C([H])([H])[H])C([H])([H])[H])C(C([H])([H])[H])(C([H])([H])[H])C([H])([H])[H])C([H])([H])c2c([H])c(OC([H])([H])C(n3c([H])c(C([H])([H])N([H])C(=O)N4C([H])([H])C([H])([H])C([H])([H])C([H])(n5nc(-c6c([H])c([H])c(Oc7c([H])c([H])c(F)c([H])c7F)c([H])c6[H])c(C(=O)N([H])[H])c5N([H])[H])C4([H])[H])c(C([H])(F)C([H])([H])[H])c3[H])(C([H])([H])[H])C([H])([H])[H])c([H])c([H])c2C1([H])[H]

$$$$
7:0:0
     RDKit          3D

 89 97  0  0  1  0  0  0  0  0999 V2000
  -30.4060  -23.6870   19.6450 C   0  0  0  0  0  1  0  0  0  0  0  0
  -29.5190  -23.5070   21.9700 C   0  0  0  0  0  1  0  0  0  0  0  0
  -29.1660  -23.3180   20.4840 C   0  0  2  0  0  0  0  0  0  0  0  0
  -28.0310  -19.5900   20.2800 C   0  0  0  0  0  3  0  0  0  0  0  0
  -27.7800  -20.9660   20.2860 C   0  0  0  0  0  3  0  0  0  0  0  0
  -29.9240  -20.6210   20.3910 C   0  0  0  0  0  3  0  0  0  0  0  0
  -29.4320  -19.2780   20.3520 C   0  0  0  0  0  0  0  0  0  0  0  0
  -28.9560  -21.7150   20.3330 N   0  0  0  0  0  0  0  0  0  0  0  0
  -30.2630  -17.8030   20.4010 C   0  0  0  0  0  2  0  0  0  0  0  0
  -30.5240  -15.0540   20.2990 C   0  0  0  0  0  0  0  0  0  0  0  0
  -30.4100  -12.6870   19.3660 C   0  0  0  0  0  2  0  0  0  0  0  0
  -29.4810  -12.6230   18.1330 C   0  0  0  0  0  2  0  0  0  0  0  0
  -28.0140  -12.4120   18.5580 C   0  0  0  0  0  2  0  0  0  0  0  0
  -27.6080  -13.3220   19.7490 C   0  0  0  0  0  3  0  0  0  0  0  0
  -28.6660  -13.3530   20.8710 C   0  0  0  0  0  2  0  0  0  0  0  0
  -29.9200  -13.7920   20.2470 N   0  0  0  0  0  0  0  0  0  0  0  0
  -31.7310  -15.0830   20.0340 O   0  0  0  0  0  0  0  0  0  0  0  0
  -29.7850  -16.2800   20.4400 N   0  0  0  0  0  0  0  0  0  0  0  0
  -28.7950  -16.1550   20.5930 H   0  0  0  0  0  0  0  0  0  0  0  0
  -25.2350  -13.8970   20.5010 C   0  0  0  0  0  0  0  0  0  0  0  0
  -24.1680  -13.1230   20.8680 C   0  0  0  0  0  0  0  0  0  0  0  0
  -24.6260  -11.7710   20.8270 C   0  0  0  0  0  0  0  0  0  0  0  0
  -26.2720  -13.0180   20.2520 N   0  0  0  0  0  0  0  0  0  0  0  0
  -25.9170  -11.7310   20.5100 N   0  0  0  0  0  0  0  0  0  0  0  0
  -23.8940  -10.5110   21.0130 C   0  0  0  0  0  0  0  0  0  0  0  0
  -24.3090   -9.5530   21.9640 C   0  0  0  0  0  3  0  0  0  0  0  0
  -23.5800   -8.3570   22.1380 C   0  0  0  0  0  3  0  0  0  0  0  0
  -22.4210   -8.1100   21.3630 C   0  0  0  0  0  0  0  0  0  0  0  0
  -22.0280   -9.0570   20.4020 C   0  0  0  0  0  3  0  0  0  0  0  0
  -22.7550  -10.2460   20.2260 C   0  0  0  0  0  3  0  0  0  0  0  0
  -21.6660   -6.9660   21.4450 O   0  0  0  0  0  0  0  0  0  0  0  0
  -21.5710   -6.2490   22.6110 C   0  0  0  0  0  0  0  0  0  0  0  0
  -21.0630   -6.8200   23.7970 C   0  0  0  0  0  3  0  0  0  0  0  0
  -20.9180   -6.0290   24.9550 C   0  0  0  0  0  3  0  0  0  0  0  0
  -21.2660   -4.6650   24.9240 C   0  0  0  0  0  0  0  0  0  0  0  0
  -21.7630   -4.0910   23.7410 C   0  0  0  0  0  3  0  0  0  0  0  0
  -21.9110   -4.8810   22.5870 C   0  0  0  0  0  0  0  0  0  0  0  0
  -22.3710   -4.3190   21.4430 F   0  0  0  0  0  0  0  0  0  0  0  0
  -21.1190   -3.9020   26.0320 F   0  0  0  0  0  0  0  0  0  0  0  0
  -22.7740  -13.6040   21.1420 C   0  0  0  0  0  0  0  0  0  0  0  0
  -22.0460  -12.9100   22.0120 N   0  0  0  0  0  0  0  0  0  0  0  0
  -22.3380  -14.6280   20.6190 O   0  0  0  0  0  0  0  0  0  0  0  0
  -22.4110  -12.0880   22.4680 H   0  0  0  0  0  0  0  0  0  0  0  0
  -21.1060  -13.2100   22.2250 H   0  0  0  0  0  0  0  0  0  0  0  0
  -25.4000  -15.2700   20.3270 N   0  0  0  0  0  0  0  0  0  0  0  0
  -24.6350  -15.9220   20.4610 H   0  0  0  0  0  0  0  0  0  0  0  0
  -26.2260  -15.7000   19.9300 H   0  0  0  0  0  0  0  0  0  0  0  0
  -28.0430  -24.5750   20.1370 C   0  0  0  0  0  2  0  0  0  0  0  0
  -28.2700  -26.1400   20.2810 O   0  0  0  0  0  0  0  0  0  0  0  0
  -24.6560  -31.8660   23.2580 C   0  0  0  0  0  0  0  0  0  0  0  0
  -27.2190  -27.1400   20.2040 C   0  0  0  0  0  0  0  0  0  0  0  0
  -23.4500  -30.4890   21.6090 C   0  0  0  0  0  3  0  0  0  0  0  0
  -24.8940  -28.9160   20.1740 C   0  0  0  0  0  0  0  0  0  0  0  0
  -26.0060  -30.7480   21.4350 C   0  0  0  0  0  2  0  0  0  0  0  0
  -26.0810  -29.3570   20.7730 C   0  0  0  0  0  0  0  0  0  0  0  0
  -27.2410  -28.4880   20.7630 C   0  0  0  0  0  3  0  0  0  0  0  0
  -26.0030  -26.8100   19.5650 C   0  0  0  0  0  3  0  0  0  0  0  0
  -24.8710  -27.6570   19.5570 C   0  0  0  0  0  3  0  0  0  0  0  0
  -23.6700  -29.8210   20.2270 C   0  0  0  0  0  2  0  0  0  0  0  0
  -24.7260  -31.0560   22.1560 N   0  0  0  0  0  0  0  0  0  0  0  0
  -23.5720  -32.1460   23.7920 O   0  0  0  0  0  0  0  0  0  0  0  0
  -22.7690  -29.4760   22.5630 C   0  0  0  0  0  0  0  0  0  0  0  0
  -21.4400  -29.3070   22.4360 N   0  0  0  0  0  0  0  0  0  0  0  0
  -23.4390  -28.8430   23.3840 O   0  0  0  0  0  0  0  0  0  0  0  0
  -20.9550  -29.8690   21.7500 H   0  0  0  0  0  0  0  0  0  0  0  0
  -18.0590  -28.1090   22.9310 C   0  0  0  0  0  0  0  0  0  0  0  0
  -20.6180  -28.3650   23.1990 C   0  0  0  0  0  3  0  0  0  0  0  0
  -20.7180  -26.9380   22.6120 C   0  0  0  0  0  2  0  0  0  0  0  0
  -19.6160  -26.6270   21.5950 C   0  0  0  0  0  2  0  0  0  0  0  0
  -18.2330  -26.7680   22.2390 C   0  0  0  0  0  2  0  0  0  0  0  0
  -19.1780  -28.8670   23.3660 C   0  0  0  0  0  0  0  0  0  0  0  0
  -18.9600  -30.1210   23.9730 C   0  0  0  0  0  3  0  0  0  0  0  0
  -17.6570  -30.6200   24.1500 C   0  0  0  0  0  3  0  0  0  0  0  0
  -16.5510  -29.8610   23.7280 C   0  0  0  0  0  3  0  0  0  0  0  0
  -16.7530  -28.6070   23.1240 C   0  0  0  0  0  3  0  0  0  0  0  0
  -25.9340  -32.4950   23.8910 C   0  0  0  0  0  3  0  0  0  0  0  0
  -26.4270  -31.7290   25.1810 C   0  0  1  0  0  0  0  0  0  0  0  0
  -25.3180  -31.5150   26.2360 C   0  0  0  0  0  1  0  0  0  0  0  0
  -26.9980  -30.3420   24.8080 C   0  0  0  0  0  1  0  0  0  0  0  0
  -27.5740  -32.5200   25.8530 C   0  0  0  0  0  1  0  0  0  0  0  0
  -25.6310  -33.8980   24.2160 N   0  0  0  0  0  0  0  0  0  0  0  0
  -25.9490  -34.9470   23.4480 C   0  0  0  0  0  0  0  0  0  0  0  0
  -26.5930  -34.8370   22.4020 O   0  0  0  0  0  0  0  0  0  0  0  0
  -25.0530  -34.0560   25.0280 H   0  0  0  0  0  0  0  0  0  0  0  0
  -24.1950  -36.7320   23.1610 C   0  0  0  0  0  1  0  0  0  0  0  0
  -25.4750  -36.3390   23.9150 C   0  0  0  0  0  3  0  0  0  0  0  0
  -27.6380  -37.2450   24.6440 C   0  0  0  0  0  1  0  0  0  0  0  0
  -26.4960  -37.3960   23.7450 N   0  0  0  0  0  0  0  0  0  0  0  0
  -26.0920  -38.3140   23.9040 H   0  0  0  0  0  0  0  0  0  0  0  0
  3  1  1  6
  3  2  1  0
  4  5  2  0
  4  7  1  0
  5  8  1  0
  7  6  2  0
  7  9  1  0
  8  6  1  0
  8  3  1  0
  9 18  1  0
 10 18  1  0
 11 16  1  0
 12 13  1  0
 12 11  1  0
 14 13  1  0
 14 23  1  0
 14 15  1  0
 16 10  1  0
 16 15  1  0
 17 10  2  0
 18 19  1  0
 20 21  2  0
 21 40  1  0
 22 21  1  0
 22 25  1  0
 23 20  1  0
 23 24  1  0
 24 22  2  0
 25 26  1  0
 26 27  2  0
 28 31  1  0
 28 27  1  0
 29 28  2  0
 30 29  1  0
 30 25  2  0
 31 32  1  0
 32 33  1  0
 33 34  2  0
 35 34  1  0
 35 39  1  0
 36 35  2  0
 37 32  2  0
 37 36  1  0
 38 37  1  0
 40 41  1  0
 41 44  1  0
 41 43  1  0
 42 40  2  0
 45 46  1  0
 45 20  1  0
 47 45  1  0
 48 49  1  0
 48  3  1  0
 50 61  2  0
 51 49  1  0
 51 56  1  0
 52 60  1  0
 52 62  1  0
 53 59  1  0
 53 55  1  0
 54 60  1  0
 55 54  1  0
 56 55  2  0
 57 51  2  0
 58 57  1  0
 58 53  2  0
 59 52  1  0
 60 50  1  0
 62 64  2  0
 63 62  1  0
 65 63  1  0
 66 75  2  0
 66 71  1  0
 67 63  1  0
 67 71  1  0
 68 67  1  0
 69 70  1  0
 69 68  1  0
 70 66  1  0
 71 72  2  0
 72 73  1  0
 74 73  2  0
 75 74  1  0
 76 50  1  0
 76 81  1  0
 76 77  1  0
 77 80  1  1
 77 78  1  0
 79 77  1  0
 81 84  1  0
 82 86  1  0
 82 81  1  0
 83 82  2  0
 86 85  1  0
 88 89  1  0
 88 86  1  0
 88 87  1  0
M  ISO  4  10 100  18 100  48 101  49 101
M  END
>  <TORSDO>  (8) 
F 19

>  <SCORE>  (8) 
-14.612

>  <name>  (8) 
7

>  <ligand_id>  (8) 
7

>  <original_smiles>  (8) 
[H]c1c([H])c([H])c2c(c1[H])C([H])([H])C([H])([H])C([H])([H])C2([H])N([H])C(=O)C1([H])N(C(=O)C([H])(N([H])C(=O)C([H])(N([H])C([H])([H])[H])C([H])([H])[H])C(C([H])([H])[H])(C([H])([H])[H])C([H])([H])[H])C([H])([H])c2c([H])c(OC([H])([H])C(n3c([H])c([H])c(C([H])([H])N([H])C(=O)N4C([H])([H])C([H])([H])C([H])([H])C([H])(n5nc(-c6c([H])c([H])c(Oc7c([H])c([H])c(F)c([H])c7F)c([H])c6[H])c(C(=O)N([H])[H])c5N([H])[H])C4([H])[H])c3[H])(C([H])([H])[H])C([H])([H])[H])c([H])c([H])c2C1([H])[H]

>  <smiles>  (8) 
[H]c1c([H])c([H])c2c(c1[H])C([H])([H])C([H])([H])C([H])([H])C2([H])N([H])C(=O)C1([H])N(C(=O)C([H])(N([H])C(=O)C([H])(N([H])C([H])([H])[H])C([H])([H])[H])C(C([H])([H])[H])(C([H])([H])[H])C([H])([H])[H])C([H])([H])c2c([H])c(OC([H])([H])C(n3c([H])c([H])c(C([H])([H])N([H])C(=O)N4C([H])([H])C([H])([H])C([H])([H])C([H])(n5nc(-c6c([H])c([H])c(Oc7c([H])c([H])c(F)c([H])c7F)c([H])c6[H])c(C(=O)N([H])[H])c5N([H])[H])C4([H])[H])c3[H])(C([H])([H])[H])C([H])([H])[H])c([H])c([H])c2C1([H])[H]

$$$$
8:0:0
     RDKit          3D

 90 98  0  0  1  0  0  0  0  0999 V2000
  -30.3370  -19.7060   22.1240 C   0  0  0  0  0  3  0  0  0  0  0  0
  -29.7780  -21.8580   22.1320 C   0  0  0  0  0  3  0  0  0  0  0  0
  -30.4520  -20.9210   22.8550 C   0  0  0  0  0  0  0  0  0  0  0  0
  -29.7020  -19.8480   20.9090 C   0  0  0  0  0  0  0  0  0  0  0  0
  -29.3200  -21.3970   20.8990 N   0  0  0  0  0  0  0  0  0  0  0  0
  -30.7690  -22.3790   24.9520 C   0  0  0  0  0  1  0  0  0  0  0  0
  -32.7350  -21.1810   23.9860 C   0  0  0  0  0  1  0  0  0  0  0  0
  -31.2080  -21.1240   24.1800 C   0  0  0  0  0  3  0  0  0  0  0  0
  -29.7810  -18.3670   19.9840 C   0  0  0  0  0  2  0  0  0  0  0  0
  -30.4490  -15.4400   20.0570 C   0  0  0  0  0  0  0  0  0  0  0  0
  -30.3660  -13.0070   19.1140 C   0  0  0  0  0  2  0  0  0  0  0  0
  -29.3870  -12.7910   17.9270 C   0  0  0  0  0  2  0  0  0  0  0  0
  -27.9760  -12.4600   18.4410 C   0  0  0  0  0  2  0  0  0  0  0  0
  -27.5610  -13.4140   19.5850 C   0  0  0  0  0  3  0  0  0  0  0  0
  -28.6590  -13.5820   20.6700 C   0  0  0  0  0  2  0  0  0  0  0  0
  -29.8660  -14.1310   20.0060 N   0  0  0  0  0  0  0  0  0  0  0  0
  -31.6160  -15.4420   19.6400 O   0  0  0  0  0  0  0  0  0  0  0  0
  -29.7580  -16.7230   20.3890 N   0  0  0  0  0  0  0  0  0  0  0  0
  -28.8770  -16.5030   20.8260 H   0  0  0  0  0  0  0  0  0  0  0  0
  -25.2190  -13.9410   20.4460 C   0  0  0  0  0  0  0  0  0  0  0  0
  -24.1790  -13.1530   20.8480 C   0  0  0  0  0  0  0  0  0  0  0  0
  -24.6480  -11.8060   20.7750 C   0  0  0  0  0  0  0  0  0  0  0  0
  -26.2570  -13.0760   20.1440 N   0  0  0  0  0  0  0  0  0  0  0  0
  -25.9280  -11.7830   20.4070 N   0  0  0  0  0  0  0  0  0  0  0  0
  -23.9370  -10.5360   20.9850 C   0  0  0  0  0  0  0  0  0  0  0  0
  -24.4030   -9.5740   21.9030 C   0  0  0  0  0  3  0  0  0  0  0  0
  -23.6910   -8.3720   22.1030 C   0  0  0  0  0  3  0  0  0  0  0  0
  -22.4980   -8.1250   21.3820 C   0  0  0  0  0  0  0  0  0  0  0  0
  -22.0520   -9.0780   20.4490 C   0  0  0  0  0  3  0  0  0  0  0  0
  -22.7650  -10.2720   20.2480 C   0  0  0  0  0  3  0  0  0  0  0  0
  -21.7550   -6.9760   21.4910 O   0  0  0  0  0  0  0  0  0  0  0  0
  -21.7260   -6.2410   22.6520 C   0  0  0  0  0  0  0  0  0  0  0  0
  -21.2740   -6.7940   23.8690 C   0  0  0  0  0  3  0  0  0  0  0  0
  -21.1940   -5.9890   25.0210 C   0  0  0  0  0  3  0  0  0  0  0  0
  -21.5510   -4.6290   24.9560 C   0  0  0  0  0  0  0  0  0  0  0  0
  -21.9930   -4.0740   23.7420 C   0  0  0  0  0  3  0  0  0  0  0  0
  -22.0750   -4.8780   22.5930 C   0  0  0  0  0  0  0  0  0  0  0  0
  -22.4820   -4.3340   21.4200 F   0  0  0  0  0  0  0  0  0  0  0  0
  -21.4670   -3.8510   26.0600 F   0  0  0  0  0  0  0  0  0  0  0  0
  -22.7920  -13.6210   21.1920 C   0  0  0  0  0  0  0  0  0  0  0  0
  -22.1060  -12.9060   22.0750 N   0  0  0  0  0  0  0  0  0  0  0  0
  -22.3280  -14.6510   20.7140 O   0  0  0  0  0  0  0  0  0  0  0  0
  -22.5060  -12.0770   22.4900 H   0  0  0  0  0  0  0  0  0  0  0  0
  -21.1740  -13.1930   22.3370 H   0  0  0  0  0  0  0  0  0  0  0  0
  -25.3610  -15.3170   20.2840 N   0  0  0  0  0  0  0  0  0  0  0  0
  -24.5860  -15.9530   20.4370 H   0  0  0  0  0  0  0  0  0  0  0  0
  -26.1910  -15.7800   19.9370 H   0  0  0  0  0  0  0  0  0  0  0  0
  -28.7530  -22.7160   20.0220 C   0  0  0  0  0  2  0  0  0  0  0  0
  -28.0430  -24.3160   20.5530 C   0  0  0  0  0  2  0  0  0  0  0  0
  -28.1930  -25.9350   20.2030 O   0  0  0  0  0  0  0  0  0  0  0  0
  -24.6390  -31.8880   23.2470 C   0  0  0  0  0  0  0  0  0  0  0  0
  -27.1540  -27.0170   20.2050 C   0  0  0  0  0  0  0  0  0  0  0  0
  -23.4150  -30.5040   21.6200 C   0  0  0  0  0  3  0  0  0  0  0  0
  -24.8480  -28.8990   20.1750 C   0  0  0  0  0  0  0  0  0  0  0  0
  -25.9760  -30.7230   21.4310 C   0  0  0  0  0  2  0  0  0  0  0  0
  -26.0400  -29.3070   20.7790 C   0  0  0  0  0  0  0  0  0  0  0  0
  -27.1900  -28.3920   20.7620 C   0  0  0  0  0  3  0  0  0  0  0  0
  -25.9240  -26.7660   19.5450 C   0  0  0  0  0  3  0  0  0  0  0  0
  -24.8100  -27.6490   19.5410 C   0  0  0  0  0  3  0  0  0  0  0  0
  -23.6270  -29.8220   20.2390 C   0  0  0  0  0  2  0  0  0  0  0  0
  -24.6980  -31.0650   22.1530 N   0  0  0  0  0  0  0  0  0  0  0  0
  -23.5610  -32.1770   23.7920 O   0  0  0  0  0  0  0  0  0  0  0  0
  -22.7360  -29.5030   22.5930 C   0  0  0  0  0  0  0  0  0  0  0  0
  -21.4070  -29.3230   22.4690 N   0  0  0  0  0  0  0  0  0  0  0  0
  -23.4110  -28.8910   23.4260 O   0  0  0  0  0  0  0  0  0  0  0  0
  -20.9150  -29.8600   21.7660 H   0  0  0  0  0  0  0  0  0  0  0  0
  -18.0480  -28.0520   22.9700 C   0  0  0  0  0  0  0  0  0  0  0  0
  -20.6010  -28.3780   23.2460 C   0  0  0  0  0  3  0  0  0  0  0  0
  -20.7400  -26.9420   22.6900 C   0  0  0  0  0  2  0  0  0  0  0  0
  -19.6510  -26.5840   21.6720 C   0  0  0  0  0  2  0  0  0  0  0  0
  -18.2600  -26.7030   22.3040 C   0  0  0  0  0  2  0  0  0  0  0  0
  -19.1470  -28.8440   23.3980 C   0  0  0  0  0  0  0  0  0  0  0  0
  -18.8940  -30.1050   23.9810 C   0  0  0  0  0  3  0  0  0  0  0  0
  -17.5750  -30.5750   24.1390 C   0  0  0  0  0  3  0  0  0  0  0  0
  -16.4920  -29.7800   23.7260 C   0  0  0  0  0  3  0  0  0  0  0  0
  -16.7300  -28.5210   23.1480 C   0  0  0  0  0  3  0  0  0  0  0  0
  -25.9230  -32.5250   23.8620 C   0  0  0  0  0  3  0  0  0  0  0  0
  -26.4390  -31.7610   25.1430 C   0  0  1  0  0  0  0  0  0  0  0  0
  -25.3460  -31.5450   26.2160 C   0  0  0  0  0  1  0  0  0  0  0  0
  -27.0120  -30.3740   24.7710 C   0  0  0  0  0  1  0  0  0  0  0  0
  -27.6010  -32.5520   25.7950 C   0  0  0  0  0  1  0  0  0  0  0  0
  -25.6200  -33.9270   24.1970 N   0  0  0  0  0  0  0  0  0  0  0  0
  -25.9580  -34.9860   23.4490 C   0  0  0  0  0  0  0  0  0  0  0  0
  -26.6200  -34.8820   22.4140 O   0  0  0  0  0  0  0  0  0  0  0  0
  -25.0270  -34.0800   25.0000 H   0  0  0  0  0  0  0  0  0  0  0  0
  -24.2530  -36.8080   23.1150 C   0  0  0  0  0  1  0  0  0  0  0  0
  -25.4890  -36.3790   23.9230 C   0  0  0  0  0  3  0  0  0  0  0  0
  -27.6280  -37.2350   24.7680 C   0  0  0  0  0  1  0  0  0  0  0  0
  -26.5340  -37.4210   23.8200 N   0  0  0  0  0  0  0  0  0  0  0  0
  -26.1350  -38.3440   23.9700 H   0  0  0  0  0  0  0  0  0  0  0  0
  1  3  1  0
  2  3  2  0
  3  8  1  0
  4  1  2  0
  5  4  1  0
  5  2  1  0
  7  8  1  0
  8  6  1  0
  9 18  1  0
  9  4  1  0
 10 18  1  0
 11 16  1  0
 12 13  1  0
 12 11  1  0
 14 13  1  0
 14 23  1  0
 14 15  1  0
 16 10  1  0
 16 15  1  0
 17 10  2  0
 18 19  1  0
 20 21  2  0
 21 40  1  0
 22 21  1  0
 22 25  1  0
 23 24  1  0
 23 20  1  0
 24 22  2  0
 25 26  1  0
 26 27  2  0
 28 31  1  0
 28 27  1  0
 29 28  2  0
 30 29  1  0
 30 25  2  0
 31 32  1  0
 32 33  1  0
 33 34  2  0
 35 34  1  0
 35 39  1  0
 36 35  2  0
 37 32  2  0
 37 36  1  0
 38 37  1  0
 40 41  1  0
 41 44  1  0
 41 43  1  0
 42 40  2  0
 45 46  1  0
 45 20  1  0
 47 45  1  0
 48 49  1  0
 48  5  1  0
 50 52  1  0
 50 49  1  0
 51 62  2  0
 52 57  1  0
 53 61  1  0
 53 63  1  0
 54 60  1  0
 54 56  1  0
 55 61  1  0
 56 55  1  0
 57 56  2  0
 58 52  2  0
 59 58  1  0
 59 54  2  0
 60 53  1  0
 61 51  1  0
 63 65  2  0
 64 63  1  0
 66 64  1  0
 67 76  2  0
 67 72  1  0
 68 64  1  0
 68 72  1  0
 69 68  1  0
 70 71  1  0
 70 69  1  0
 71 67  1  0
 72 73  2  0
 73 74  1  0
 75 74  2  0
 76 75  1  0
 77 51  1  0
 77 82  1  0
 77 78  1  0
 78 81  1  1
 78 79  1  0
 80 78  1  0
 82 85  1  0
 83 87  1  0
 83 82  1  0
 84 83  2  0
 87 86  1  0
 89 87  1  0
 89 90  1  0
 89 88  1  0
M  ISO  4  10 100  18 100  49 101  50 101
M  END
>  <TORSDO>  (9) 
F 20

>  <SCORE>  (9) 
-15.851

>  <name>  (9) 
8

>  <ligand_id>  (9) 
8

>  <original_smiles>  (9) 
[H]c1c([H])c([H])c2c(c1[H])C([H])([H])C([H])([H])C([H])([H])C2([H])N([H])C(=O)C1([H])N(C(=O)C([H])(N([H])C(=O)C([H])(N([H])C([H])([H])[H])C([H])([H])[H])C(C([H])([H])[H])(C([H])([H])[H])C([H])([H])[H])C([H])([H])c2c([H])c(OC([H])([H])C([H])([H])n3c([H])c(C([H])(C([H])([H])[H])C([H])([H])[H])c([H])c3C([H])([H])N([H])C(=O)N3C([H])([H])C([H])([H])C([H])([H])C([H])(n4nc(-c5c([H])c([H])c(Oc6c([H])c([H])c(F)c([H])c6F)c([H])c5[H])c(C(=O)N([H])[H])c4N([H])[H])C3([H])[H])c([H])c([H])c2C1([H])[H]

>  <smiles>  (9) 
[H]c1c([H])c([H])c2c(c1[H])C([H])([H])C([H])([H])C([H])([H])C2([H])N([H])C(=O)C1([H])N(C(=O)C([H])(N([H])C(=O)C([H])(N([H])C([H])([H])[H])C([H])([H])[H])C(C([H])([H])[H])(C([H])([H])[H])C([H])([H])[H])C([H])([H])c2c([H])c(OC([H])([H])C([H])([H])n3c([H])c(C([H])(C([H])([H])[H])C([H])([H])[H])c([H])c3C([H])([H])N([H])C(=O)N3C([H])([H])C([H])([H])C([H])([H])C([H])(n4nc(-c5c([H])c([H])c(Oc6c([H])c([H])c(F)c([H])c6F)c([H])c5[H])c(C(=O)N([H])[H])c4N([H])[H])C3([H])[H])c([H])c([H])c2C1([H])[H]

$$$$
9:0:0
     RDKit          3D

 91 99  0  0  1  0  0  0  0  0999 V2000
  -28.2750  -19.8770   19.4350 C   0  0  0  0  0  3  0  0  0  0  0  0
  -29.5170  -21.2480   20.9300 C   0  0  0  0  0  3  0  0  0  0  0  0
  -29.3210  -19.8080   20.3780 C   0  0  0  0  0  0  0  0  0  0  0  0
  -27.5980  -21.0920   19.0980 C   0  0  0  0  0  0  0  0  0  0  0  0
  -28.7960  -22.5670   20.5460 C   0  0  0  0  0  0  0  0  0  0  0  0
  -27.8510  -22.3410   19.6040 N   0  0  0  0  0  0  0  0  0  0  0  0
  -26.5410  -22.0500   16.9830 C   0  0  0  0  0  1  0  0  0  0  0  0
  -25.0760  -21.1720   18.8730 C   0  0  0  0  0  1  0  0  0  0  0  0
  -26.4160  -21.0340   18.1300 C   0  0  0  0  0  3  0  0  0  0  0  0
  -29.4840  -24.1820   22.5570 C   0  0  0  0  0  1  0  0  0  0  0  0
  -28.6530  -24.1850   21.2710 C   0  0  0  0  0  3  0  0  0  0  0  0
  -28.7810  -25.7700   20.7530 O   0  0  0  0  0  0  0  0  0  0  0  0
  -24.8410  -31.7910   23.3460 C   0  0  0  0  0  0  0  0  0  0  0  0
  -27.7410  -26.8560   20.7050 C   0  0  0  0  0  0  0  0  0  0  0  0
  -23.8220  -30.3250   21.6540 C   0  0  0  0  0  3  0  0  0  0  0  0
  -25.4190  -28.7080   20.4130 C   0  0  0  0  0  0  0  0  0  0  0  0
  -26.3900  -30.5820   21.7200 C   0  0  0  0  0  2  0  0  0  0  0  0
  -26.5470  -29.1500   21.1180 C   0  0  0  0  0  0  0  0  0  0  0  0
  -27.7070  -28.2490   21.2290 C   0  0  0  0  0  3  0  0  0  0  0  0
  -26.5790  -26.5730   19.9550 C   0  0  0  0  0  3  0  0  0  0  0  0
  -25.4630  -27.4410   19.8120 C   0  0  0  0  0  3  0  0  0  0  0  0
  -24.1860  -29.6100   20.3240 C   0  0  0  0  0  2  0  0  0  0  0  0
  -25.0350  -30.9300   22.2940 N   0  0  0  0  0  0  0  0  0  0  0  0
  -23.7040  -32.0680   23.7650 O   0  0  0  0  0  0  0  0  0  0  0  0
  -23.0680  -29.3400   22.5850 C   0  0  0  0  0  0  0  0  0  0  0  0
  -21.7510  -29.1570   22.3680 N   0  0  0  0  0  0  0  0  0  0  0  0
  -23.6780  -28.7380   23.4730 O   0  0  0  0  0  0  0  0  0  0  0  0
  -21.3140  -29.6920   21.6310 H   0  0  0  0  0  0  0  0  0  0  0  0
  -18.3410  -27.9630   22.7100 C   0  0  0  0  0  0  0  0  0  0  0  0
  -20.8870  -28.2220   23.0960 C   0  0  0  0  0  3  0  0  0  0  0  0
  -21.0110  -26.7900   22.5240 C   0  0  0  0  0  2  0  0  0  0  0  0
  -19.9570  -26.4720   21.4570 C   0  0  0  0  0  2  0  0  0  0  0  0
  -18.5470  -26.6180   22.0340 C   0  0  0  0  0  2  0  0  0  0  0  0
  -19.4400  -28.7230   23.1940 C   0  0  0  0  0  0  0  0  0  0  0  0
  -19.1930  -29.9790   23.7880 C   0  0  0  0  0  3  0  0  0  0  0  0
  -17.8820  -30.4800   23.8970 C   0  0  0  0  0  3  0  0  0  0  0  0
  -16.7970  -29.7190   23.4270 C   0  0  0  0  0  3  0  0  0  0  0  0
  -17.0270  -28.4610   22.8400 C   0  0  0  0  0  3  0  0  0  0  0  0
  -26.0370  -32.4850   24.0660 C   0  0  0  0  0  3  0  0  0  0  0  0
  -26.4280  -31.7830   25.4260 C   0  0  1  0  0  0  0  0  0  0  0  0
  -25.2300  -31.5520   26.3770 C   0  0  0  0  0  1  0  0  0  0  0  0
  -27.0900  -30.4110   25.1680 C   0  0  0  0  0  1  0  0  0  0  0  0
  -27.4780  -32.6390   26.1730 C   0  0  0  0  0  1  0  0  0  0  0  0
  -25.6690  -33.8900   24.3100 N   0  0  0  0  0  0  0  0  0  0  0  0
  -26.0170  -34.9220   23.5290 C   0  0  0  0  0  0  0  0  0  0  0  0
  -26.7430  -34.7920   22.5410 O   0  0  0  0  0  0  0  0  0  0  0  0
  -25.0240  -34.0610   25.0690 H   0  0  0  0  0  0  0  0  0  0  0  0
  -24.2540  -36.6520   23.0340 C   0  0  0  0  0  1  0  0  0  0  0  0
  -25.4780  -36.3200   23.9030 C   0  0  0  0  0  3  0  0  0  0  0  0
  -27.5460  -37.3210   24.7700 C   0  0  0  0  0  1  0  0  0  0  0  0
  -26.4850  -37.3960   23.7690 N   0  0  0  0  0  0  0  0  0  0  0  0
  -26.0460  -38.3100   23.8430 H   0  0  0  0  0  0  0  0  0  0  0  0
  -30.1440  -18.2550   20.6260 C   0  0  0  0  0  2  0  0  0  0  0  0
  -30.5640  -15.3110   20.1930 C   0  0  0  0  0  0  0  0  0  0  0  0
  -30.4840  -12.8990   19.1910 C   0  0  0  0  0  2  0  0  0  0  0  0
  -29.5100  -12.7210   17.9970 C   0  0  0  0  0  2  0  0  0  0  0  0
  -28.0820  -12.4310   18.4940 C   0  0  0  0  0  2  0  0  0  0  0  0
  -27.6870  -13.3490   19.6780 C   0  0  0  0  0  3  0  0  0  0  0  0
  -28.7860  -13.4630   20.7530 C   0  0  0  0  0  2  0  0  0  0  0  0
  -29.9740  -14.0130   20.0780 N   0  0  0  0  0  0  0  0  0  0  0  0
  -31.7860  -15.2750   19.9790 O   0  0  0  0  0  0  0  0  0  0  0  0
  -29.8310  -16.6130   20.3490 N   0  0  0  0  0  0  0  0  0  0  0  0
  -28.8380  -16.4410   20.3830 H   0  0  0  0  0  0  0  0  0  0  0  0
  -25.3580  -13.8910   20.5530 C   0  0  0  0  0  0  0  0  0  0  0  0
  -24.3080  -13.1090   20.9440 C   0  0  0  0  0  0  0  0  0  0  0  0
  -24.7680  -11.7580   20.8550 C   0  0  0  0  0  0  0  0  0  0  0  0
  -26.3840  -13.0200   20.2390 N   0  0  0  0  0  0  0  0  0  0  0  0
  -26.0460  -11.7270   20.4890 N   0  0  0  0  0  0  0  0  0  0  0  0
  -24.0410  -10.4930   21.0350 C   0  0  0  0  0  0  0  0  0  0  0  0
  -24.4710   -9.5170   21.9610 C   0  0  0  0  0  3  0  0  0  0  0  0
  -23.7410   -8.3200   22.1300 C   0  0  0  0  0  3  0  0  0  0  0  0
  -22.5680   -8.0900   21.3730 C   0  0  0  0  0  0  0  0  0  0  0  0
  -22.1560   -9.0550   20.4370 C   0  0  0  0  0  3  0  0  0  0  0  0
  -22.8860  -10.2430   20.2660 C   0  0  0  0  0  3  0  0  0  0  0  0
  -21.8080   -6.9480   21.4550 O   0  0  0  0  0  0  0  0  0  0  0  0
  -21.7270   -6.2180   22.6140 C   0  0  0  0  0  0  0  0  0  0  0  0
  -21.1830   -6.7610   23.7990 C   0  0  0  0  0  3  0  0  0  0  0  0
  -21.0550   -5.9540   24.9480 C   0  0  0  0  0  3  0  0  0  0  0  0
  -21.4590   -4.6060   24.9110 C   0  0  0  0  0  0  0  0  0  0  0  0
  -21.9930   -4.0620   23.7300 C   0  0  0  0  0  3  0  0  0  0  0  0
  -22.1240   -4.8660   22.5840 C   0  0  0  0  0  0  0  0  0  0  0  0
  -22.6220   -4.3320   21.4420 F   0  0  0  0  0  0  0  0  0  0  0  0
  -21.3280   -3.8290   26.0120 F   0  0  0  0  0  0  0  0  0  0  0  0
  -22.9240  -13.5850   21.2740 C   0  0  0  0  0  0  0  0  0  0  0  0
  -22.2190  -12.8690   22.1430 N   0  0  0  0  0  0  0  0  0  0  0  0
  -22.4780  -14.6270   20.7970 O   0  0  0  0  0  0  0  0  0  0  0  0
  -22.5950  -12.0270   22.5530 H   0  0  0  0  0  0  0  0  0  0  0  0
  -21.2920  -13.1720   22.4050 H   0  0  0  0  0  0  0  0  0  0  0  0
  -25.5210  -15.2650   20.4060 N   0  0  0  0  0  0  0  0  0  0  0  0
  -24.7610  -15.9180   20.5590 H   0  0  0  0  0  0  0  0  0  0  0  0
  -26.3420  -15.7000   20.0100 H   0  0  0  0  0  0  0  0  0  0  0  0
  1  3  1  0
  3 53  1  0
  3  2  2  0
  4  1  2  0
  4  6  1  0
  5  2  1  0
  5 11  1  0
  6  5  2  0
  7  9  1  0
  9  8  1  0
  9  4  1  0
 11 10  1  0
 12 11  1  0
 13 24  2  0
 14 12  1  0
 14 19  1  0
 15 23  1  0
 15 25  1  0
 16 18  1  0
 17 23  1  0
 18 19  2  0
 18 17  1  0
 20 14  2  0
 21 20  1  0
 21 16  2  0
 22 16  1  0
 22 15  1  0
 23 13  1  0
 25 27  2  0
 26 25  1  0
 28 26  1  0
 29 38  2  0
 29 34  1  0
 30 26  1  0
 30 34  1  0
 31 30  1  0
 32 33  1  0
 32 31  1  0
 33 29  1  0
 34 35  2  0
 35 36  1  0
 37 36  2  0
 38 37  1  0
 39 13  1  0
 39 44  1  0
 39 40  1  0
 40 43  1  1
 40 41  1  0
 42 40  1  0
 44 47  1  0
 45 49  1  0
 45 44  1  0
 46 45  2  0
 49 48  1  0
 51 52  1  0
 51 49  1  0
 51 50  1  0
 54 62  1  0
 55 60  1  0
 56 57  1  0
 56 55  1  0
 58 57  1  0
 58 67  1  0
 58 59  1  0
 60 54  1  0
 60 59  1  0
 61 54  2  0
 62 63  1  0
 62 53  1  0
 64 65  2  0
 65 84  1  0
 66 65  1  0
 66 69  1  0
 67 68  1  0
 67 64  1  0
 68 66  2  0
 69 70  1  0
 70 71  2  0
 72 75  1  0
 72 71  1  0
 73 72  2  0
 74 73  1  0
 74 69  2  0
 75 76  1  0
 76 77  1  0
 77 78  2  0
 79 78  1  0
 79 83  1  0
 80 79  2  0
 81 76  2  0
 81 80  1  0
 82 81  1  0
 84 85  1  0
 85 88  1  0
 85 87  1  0
 86 84  2  0
 89 64  1  0
 89 90  1  0
 91 89  1  0
M  ISO  4  11 101  12 101  54 100  62 100
M  END
>  <TORSDO>  (10) 
F 19

>  <SCORE>  (10) 
-14.866

>  <name>  (10) 
9

>  <ligand_id>  (10) 
9

>  <original_smiles>  (10) 
[H]c1c([H])c([H])c2c(c1[H])C([H])([H])C([H])([H])C([H])([H])C2([H])N([H])C(=O)C1([H])N(C(=O)C([H])(N([H])C(=O)C([H])(N([H])C([H])([H])[H])C([H])([H])[H])C(C([H])([H])[H])(C([H])([H])[H])C([H])([H])[H])C([H])([H])c2c([H])c(OC([H])(c3nc(C([H])(C([H])([H])[H])C([H])([H])[H])c([H])c(C([H])([H])N([H])C(=O)N4C([H])([H])C([H])([H])C([H])([H])C([H])(n5nc(-c6c([H])c([H])c(Oc7c([H])c([H])c(F)c([H])c7F)c([H])c6[H])c(C(=O)N([H])[H])c5N([H])[H])C4([H])[H])c3[H])C([H])([H])[H])c([H])c([H])c2C1([H])[H]

>  <smiles>  (10) 
[H]c1c([H])c([H])c2c(c1[H])C([H])([H])C([H])([H])C([H])([H])C2([H])N([H])C(=O)C1([H])N(C(=O)C([H])(N([H])C(=O)C([H])(N([H])C([H])([H])[H])C([H])([H])[H])C(C([H])([H])[H])(C([H])([H])[H])C([H])([H])[H])C([H])([H])c2c([H])c(OC([H])(c3nc(C([H])(C([H])([H])[H])C([H])([H])[H])c([H])c(C([H])([H])N([H])C(=O)N4C([H])([H])C([H])([H])C([H])([H])C([H])(n5nc(-c6c([H])c([H])c(Oc7c([H])c([H])c(F)c([H])c7F)c([H])c6[H])c(C(=O)N([H])[H])c5N([H])[H])C4([H])[H])c3[H])C([H])([H])[H])c([H])c([H])c2C1([H])[H]

$$$$
10:0:0
     RDKit          3D

 91 99  0  0  1  0  0  0  0  0999 V2000
  -28.2140  -21.0350   19.6460 C   0  0  0  0  0  3  0  0  0  0  0  0
  -29.0840  -20.3420   20.4490 C   0  0  0  0  0  0  0  0  0  0  0  0
  -29.4830  -22.8070   21.3680 C   0  0  0  0  0  0  0  0  0  0  0  0
  -28.5710  -23.3670   20.5020 C   0  0  0  0  0  0  0  0  0  0  0  0
  -29.8500  -21.2990   21.3410 C   0  0  0  0  0  0  0  0  0  0  0  0
  -30.1080  -23.5900   22.5140 C   0  0  0  0  0  1  0  0  0  0  0  0
  -28.0150  -22.4520   19.5740 N   0  0  0  0  0  0  0  0  0  0  0  0
  -30.7520  -20.8610   22.0630 O   0  0  0  0  0  0  0  0  0  0  0  0
  -27.2620  -22.7850   18.9770 H   0  0  0  0  0  0  0  0  0  0  0  0
  -29.0290  -18.7270   20.7280 C   0  0  0  0  0  3  0  0  0  0  0  0
  -30.0860  -17.5440   20.2570 C   0  0  0  0  0  3  0  0  0  0  0  0
  -30.5400  -14.8680   20.2690 C   0  0  0  0  0  0  0  0  0  0  0  0
  -30.3640  -12.5570   19.2820 C   0  0  0  0  0  2  0  0  0  0  0  0
  -29.4140  -12.5840   18.0650 C   0  0  0  0  0  2  0  0  0  0  0  0
  -27.9550  -12.3780   18.5150 C   0  0  0  0  0  2  0  0  0  0  0  0
  -27.5760  -13.2790   19.7200 C   0  0  0  0  0  3  0  0  0  0  0  0
  -28.6480  -13.2400   20.8320 C   0  0  0  0  0  2  0  0  0  0  0  0
  -29.9260  -13.6250   20.2200 N   0  0  0  0  0  0  0  0  0  0  0  0
  -31.7230  -14.9540   19.9270 O   0  0  0  0  0  0  0  0  0  0  0  0
  -29.7730  -16.0270   20.4900 N   0  0  0  0  0  0  0  0  0  0  0  0
  -28.8180  -15.8290   20.7490 H   0  0  0  0  0  0  0  0  0  0  0  0
  -25.1990  -13.8530   20.4840 C   0  0  0  0  0  0  0  0  0  0  0  0
  -24.1410  -13.0740   20.8630 C   0  0  0  0  0  0  0  0  0  0  0  0
  -24.6100  -11.7250   20.8210 C   0  0  0  0  0  0  0  0  0  0  0  0
  -26.2420  -12.9790   20.2290 N   0  0  0  0  0  0  0  0  0  0  0  0
  -25.8970  -11.6940   20.4980 N   0  0  0  0  0  0  0  0  0  0  0  0
  -23.8900  -10.4600   21.0140 C   0  0  0  0  0  0  0  0  0  0  0  0
  -24.3250   -9.4960   21.9500 C   0  0  0  0  0  3  0  0  0  0  0  0
  -23.6040   -8.2960   22.1310 C   0  0  0  0  0  3  0  0  0  0  0  0
  -22.4330   -8.0500   21.3770 C   0  0  0  0  0  0  0  0  0  0  0  0
  -22.0160   -9.0030   20.4290 C   0  0  0  0  0  3  0  0  0  0  0  0
  -22.7380  -10.1940   20.2460 C   0  0  0  0  0  3  0  0  0  0  0  0
  -21.6830   -6.9040   21.4670 O   0  0  0  0  0  0  0  0  0  0  0  0
  -21.6270   -6.1690   22.6250 C   0  0  0  0  0  0  0  0  0  0  0  0
  -21.1680   -6.7240   23.8380 C   0  0  0  0  0  3  0  0  0  0  0  0
  -21.0610   -5.9150   24.9870 C   0  0  0  0  0  3  0  0  0  0  0  0
  -21.4030   -4.5520   24.9230 C   0  0  0  0  0  0  0  0  0  0  0  0
  -21.8560   -3.9950   23.7140 C   0  0  0  0  0  3  0  0  0  0  0  0
  -21.9650   -4.8010   22.5680 C   0  0  0  0  0  0  0  0  0  0  0  0
  -22.3810   -4.2550   21.3990 F   0  0  0  0  0  0  0  0  0  0  0  0
  -21.2930   -3.7720   26.0240 F   0  0  0  0  0  0  0  0  0  0  0  0
  -22.7450  -13.5450   21.1500 C   0  0  0  0  0  0  0  0  0  0  0  0
  -22.0280  -12.8440   22.0190 N   0  0  0  0  0  0  0  0  0  0  0  0
  -22.3000  -14.5710   20.6370 O   0  0  0  0  0  0  0  0  0  0  0  0
  -22.4000  -12.0140   22.4570 H   0  0  0  0  0  0  0  0  0  0  0  0
  -21.0910  -13.1410   22.2540 H   0  0  0  0  0  0  0  0  0  0  0  0
  -25.3540  -15.2250   20.3070 N   0  0  0  0  0  0  0  0  0  0  0  0
  -24.5800  -15.8700   20.4260 H   0  0  0  0  0  0  0  0  0  0  0  0
  -26.1850  -15.6700   19.9400 H   0  0  0  0  0  0  0  0  0  0  0  0
  -27.7990  -24.7960   20.7080 C   0  0  0  0  0  2  0  0  0  0  0  0
  -28.2160  -26.2050   20.2630 O   0  0  0  0  0  0  0  0  0  0  0  0
  -24.6050  -31.8660   23.2390 C   0  0  0  0  0  0  0  0  0  0  0  0
  -27.1810  -27.1940   20.2040 C   0  0  0  0  0  0  0  0  0  0  0  0
  -23.4020  -30.4700   21.6020 C   0  0  0  0  0  3  0  0  0  0  0  0
  -24.8490  -28.9080   20.1720 C   0  0  0  0  0  0  0  0  0  0  0  0
  -25.9520  -30.7510   21.4300 C   0  0  0  0  0  2  0  0  0  0  0  0
  -26.0270  -29.3630   20.7810 C   0  0  0  0  0  0  0  0  0  0  0  0
  -27.1970  -28.5210   20.7830 C   0  0  0  0  0  3  0  0  0  0  0  0
  -25.9880  -26.8480   19.5320 C   0  0  0  0  0  3  0  0  0  0  0  0
  -24.8390  -27.6630   19.5320 C   0  0  0  0  0  3  0  0  0  0  0  0
  -23.6180  -29.7960   20.2230 C   0  0  0  0  0  2  0  0  0  0  0  0
  -24.6730  -31.0490   22.1460 N   0  0  0  0  0  0  0  0  0  0  0  0
  -23.5210  -32.1490   23.7690 O   0  0  0  0  0  0  0  0  0  0  0  0
  -22.7310  -29.4580   22.5640 C   0  0  0  0  0  0  0  0  0  0  0  0
  -21.4030  -29.2830   22.4360 N   0  0  0  0  0  0  0  0  0  0  0  0
  -23.4040  -28.8340   23.3870 O   0  0  0  0  0  0  0  0  0  0  0  0
  -20.9160  -29.8380   21.7470 H   0  0  0  0  0  0  0  0  0  0  0  0
  -18.0220  -28.0850   22.9480 C   0  0  0  0  0  0  0  0  0  0  0  0
  -20.5820  -28.3460   23.2100 C   0  0  0  0  0  3  0  0  0  0  0  0
  -20.6810  -26.9140   22.6370 C   0  0  0  0  0  2  0  0  0  0  0  0
  -19.5780  -26.5900   21.6260 C   0  0  0  0  0  2  0  0  0  0  0  0
  -18.1970  -26.7350   22.2730 C   0  0  0  0  0  2  0  0  0  0  0  0
  -19.1420  -28.8480   23.3740 C   0  0  0  0  0  0  0  0  0  0  0  0
  -18.9240  -30.1110   23.9680 C   0  0  0  0  0  3  0  0  0  0  0  0
  -17.6190  -30.6110   24.1380 C   0  0  0  0  0  3  0  0  0  0  0  0
  -16.5150  -29.8450   23.7260 C   0  0  0  0  0  3  0  0  0  0  0  0
  -16.7170  -28.5840   23.1370 C   0  0  0  0  0  3  0  0  0  0  0  0
  -25.8860  -32.5000   23.8610 C   0  0  0  0  0  3  0  0  0  0  0  0
  -26.3950  -31.7360   25.1450 C   0  0  1  0  0  0  0  0  0  0  0  0
  -25.2980  -31.5090   26.2100 C   0  0  0  0  0  1  0  0  0  0  0  0
  -26.9770  -30.3540   24.7690 C   0  0  0  0  0  1  0  0  0  0  0  0
  -27.5460  -32.5320   25.8050 C   0  0  0  0  0  1  0  0  0  0  0  0
  -25.5770  -33.9020   24.1850 N   0  0  0  0  0  0  0  0  0  0  0  0
  -25.9060  -34.9530   23.4230 C   0  0  0  0  0  0  0  0  0  0  0  0
  -26.5700  -34.8450   22.3890 O   0  0  0  0  0  0  0  0  0  0  0  0
  -24.9840  -34.0590   24.9890 H   0  0  0  0  0  0  0  0  0  0  0  0
  -24.1830  -36.7540   23.0700 C   0  0  0  0  0  1  0  0  0  0  0  0
  -25.4240  -36.3440   23.8800 C   0  0  0  0  0  3  0  0  0  0  0  0
  -27.5620  -37.2260   24.7090 C   0  0  0  0  0  1  0  0  0  0  0  0
  -26.4610  -37.3930   23.7630 N   0  0  0  0  0  0  0  0  0  0  0  0
  -26.0570  -38.3150   23.9060 H   0  0  0  0  0  0  0  0  0  0  0  0
  1  2  2  0
  2 10  1  0
  2  5  1  0
  3  6  1  0
  4 50  1  0
  4  3  2  0
  5  3  1  0
  5  8  2  0
  7  1  1  0
  7  4  1  0
  9  7  1  0
 11 20  1  0
 11 10  2  0
 12 20  1  0
 13 18  1  0
 14 15  1  0
 14 13  1  0
 16 15  1  0
 16 25  1  0
 16 17  1  0
 18 12  1  0
 18 17  1  0
 19 12  2  0
 20 21  1  0
 22 23  2  0
 23 42  1  0
 24 23  1  0
 24 27  1  0
 25 22  1  0
 25 26  1  0
 26 24  2  0
 27 28  1  0
 28 29  2  0
 30 33  1  0
 30 29  1  0
 31 30  2  0
 32 31  1  0
 32 27  2  0
 33 34  1  0
 34 35  1  0
 35 36  2  0
 37 36  1  0
 37 41  1  0
 38 37  2  0
 39 34  2  0
 39 38  1  0
 40 39  1  0
 42 43  1  0
 43 46  1  0
 43 45  1  0
 44 42  2  0
 47 48  1  0
 47 22  1  0
 49 47  1  0
 51 50  1  0
 52 63  2  0
 53 51  1  0
 53 58  1  0
 54 62  1  0
 54 64  1  0
 55 61  1  0
 55 57  1  0
 56 62  1  0
 57 58  2  0
 57 56  1  0
 59 60  1  0
 59 53  2  0
 60 55  2  0
 61 54  1  0
 62 52  1  0
 64 66  2  0
 65 64  1  0
 67 65  1  0
 68 77  2  0
 68 73  1  0
 69 65  1  0
 69 73  1  0
 70 69  1  0
 71 72  1  0
 71 70  1  0
 72 68  1  0
 73 74  2  0
 74 75  1  0
 76 75  2  0
 77 76  1  0
 78 52  1  0
 78 83  1  0
 78 79  1  0
 79 82  1  1
 79 80  1  0
 81 79  1  0
 83 86  1  0
 84 88  1  0
 84 83  1  0
 85 84  2  0
 88 87  1  0
 90 88  1  0
 90 91  1  0
 90 89  1  0
M  ISO  4  12 100  20 100  50 101  51 101
M  END
>  <TORSDO>  (11) 
F 19

>  <SCORE>  (11) 
-14.231

>  <name>  (11) 
10

>  <ligand_id>  (11) 
10

>  <original_smiles>  (11) 
[H]c1c([H])c([H])c2c(c1[H])C([H])([H])C([H])([H])C([H])([H])C2([H])N([H])C(=O)C1([H])N(C(=O)C([H])(N([H])C(=O)C([H])(N([H])C([H])([H])[H])C([H])([H])[H])C(C([H])([H])[H])(C([H])([H])[H])C([H])([H])[H])C([H])([H])c2c([H])c(OC([H])([H])c3c(C([H])([H])[H])c(=O)c(C([H])([H])C([H])([H])N([H])C(=O)N4C([H])([H])C([H])([H])C([H])([H])C([H])(n5nc(-c6c([H])c([H])c(Oc7c([H])c([H])c(F)c([H])c7F)c([H])c6[H])c(C(=O)N([H])[H])c5N([H])[H])C4([H])[H])c([H])n3[H])c([H])c([H])c2C1([H])[H]

>  <smiles>  (11) 
[H]c1c([H])c([H])c2c(c1[H])C([H])([H])C([H])([H])C([H])([H])C2([H])N([H])C(=O)C1([H])N(C(=O)C([H])(N([H])C(=O)C([H])(N([H])C([H])([H])[H])C([H])([H])[H])C(C([H])([H])[H])(C([H])([H])[H])C([H])([H])[H])C([H])([H])c2c([H])c(OC([H])([H])c3c(C([H])([H])[H])c(=O)c(C([H])([H])C([H])([H])N([H])C(=O)N4C([H])([H])C([H])([H])C([H])([H])C([H])(n5nc(-c6c([H])c([H])c(Oc7c([H])c([H])c(F)c([H])c7F)c([H])c6[H])c(C(=O)N([H])[H])c5N([H])[H])C4([H])[H])c([H])n3[H])c([H])c([H])c2C1([H])[H]

$$$$
11:0:0
     RDKit          3D

 95103  0  0  1  0  0  0  0  0999 V2000
  -28.1910  -22.7320   20.7260 C   0  0  0  0  0  0  0  0  0  0  0  0
  -28.8650  -23.4500   19.6820 C   0  0  0  0  0  0  0  0  0  0  0  0
  -28.6200  -21.4080   20.8100 C   0  0  0  0  0  0  0  0  0  0  0  0
  -29.7150  -22.3960   19.1860 C   0  0  0  0  0  0  0  0  0  0  0  0
  -27.1330  -23.3370   21.6150 C   0  0  0  0  0  1  0  0  0  0  0  0
  -28.1220  -20.3810   21.7850 C   0  0  0  0  0  1  0  0  0  0  0  0
  -30.6570  -22.4940   18.0280 C   0  0  0  0  0  1  0  0  0  0  0  0
  -29.6320  -21.1040   19.8860 N   0  0  0  0  0  0  0  0  0  0  0  0
  -28.4900  -25.0210   19.1360 C   0  0  0  0  0  2  0  0  0  0  0  0
  -28.4120  -26.4210   19.8840 O   0  0  0  0  0  0  0  0  0  0  0  0
  -24.6690  -31.9240   23.1790 C   0  0  0  0  0  0  0  0  0  0  0  0
  -27.3360  -27.4110   19.8350 C   0  0  0  0  0  0  0  0  0  0  0  0
  -23.4850  -30.5700   21.4970 C   0  0  0  0  0  3  0  0  0  0  0  0
  -24.9540  -29.1220   19.9530 C   0  0  0  0  0  0  0  0  0  0  0  0
  -26.0300  -30.9140   21.3010 C   0  0  0  0  0  2  0  0  0  0  0  0
  -26.1340  -29.5570   20.5680 C   0  0  0  0  0  0  0  0  0  0  0  0
  -27.3160  -28.7160   20.4990 C   0  0  0  0  0  3  0  0  0  0  0  0
  -26.1230  -27.1030   19.1770 C   0  0  0  0  0  3  0  0  0  0  0  0
  -24.9650  -27.9120   19.2440 C   0  0  0  0  0  3  0  0  0  0  0  0
  -23.6990  -29.9740   20.0800 C   0  0  0  0  0  2  0  0  0  0  0  0
  -24.7490  -31.1580   22.0470 N   0  0  0  0  0  0  0  0  0  0  0  0
  -23.5840  -32.1450   23.7390 O   0  0  0  0  0  0  0  0  0  0  0  0
  -22.8590  -29.4930   22.4200 C   0  0  0  0  0  0  0  0  0  0  0  0
  -21.5440  -29.2510   22.2780 N   0  0  0  0  0  0  0  0  0  0  0  0
  -23.5620  -28.8800   23.2270 O   0  0  0  0  0  0  0  0  0  0  0  0
  -21.0300  -29.8000   21.6030 H   0  0  0  0  0  0  0  0  0  0  0  0
  -18.2440  -27.8050   22.6850 C   0  0  0  0  0  0  0  0  0  0  0  0
  -20.7730  -28.2410   23.0100 C   0  0  0  0  0  3  0  0  0  0  0  0
  -20.9870  -26.8340   22.4060 C   0  0  0  0  0  2  0  0  0  0  0  0
  -19.9290  -26.4590   21.3630 C   0  0  0  0  0  2  0  0  0  0  0  0
  -18.5290  -26.4900   21.9810 C   0  0  0  0  0  2  0  0  0  0  0  0
  -19.2980  -28.6360   23.1540 C   0  0  0  0  0  0  0  0  0  0  0  0
  -18.9770  -29.8640   23.7720 C   0  0  0  0  0  3  0  0  0  0  0  0
  -17.6360  -30.2630   23.9280 C   0  0  0  0  0  3  0  0  0  0  0  0
  -16.5970  -29.4310   23.4770 C   0  0  0  0  0  3  0  0  0  0  0  0
  -16.9020  -28.2040   22.8600 C   0  0  0  0  0  3  0  0  0  0  0  0
  -25.9350  -32.5750   23.8150 C   0  0  0  0  0  3  0  0  0  0  0  0
  -25.5980  -33.9650   24.1660 N   0  0  0  0  0  0  0  0  0  0  0  0
  -25.9150  -35.0390   23.4300 C   0  0  0  0  0  0  0  0  0  0  0  0
  -26.5880  -34.9650   22.3980 O   0  0  0  0  0  0  0  0  0  0  0  0
  -25.0030  -34.0970   24.9700 H   0  0  0  0  0  0  0  0  0  0  0  0
  -24.1600  -36.8160   23.1130 C   0  0  0  0  0  1  0  0  0  0  0  0
  -25.4080  -36.4120   23.9150 C   0  0  0  0  0  3  0  0  0  0  0  0
  -27.5230  -37.3220   24.7690 C   0  0  0  0  0  1  0  0  0  0  0  0
  -26.4240  -37.4830   23.8210 N   0  0  0  0  0  0  0  0  0  0  0  0
  -26.0010  -38.3950   23.9790 H   0  0  0  0  0  0  0  0  0  0  0  0
  -26.4540  -31.8020   25.0880 C   0  0  1  0  0  0  0  0  0  0  0  0
  -25.3530  -31.5170   26.1380 C   0  0  0  0  0  1  0  0  0  0  0  0
  -27.0870  -30.4470   24.6930 C   0  0  0  0  0  1  0  0  0  0  0  0
  -27.5710  -32.6220   25.7790 C   0  0  0  0  0  1  0  0  0  0  0  0
  -30.5180  -19.7320   19.9160 C   0  0  0  0  0  2  0  0  0  0  0  0
  -30.2720  -18.1720   19.2390 C   0  0  0  0  0  0  0  0  0  0  0  0
  -31.1710  -15.5140   19.8290 C   0  0  0  0  0  0  0  0  0  0  0  0
  -31.0690  -13.0750   19.1240 C   0  0  0  0  0  2  0  0  0  0  0  0
  -30.1330  -12.9390   17.8980 C   0  0  0  0  0  2  0  0  0  0  0  0
  -28.6760  -12.7470   18.3540 C   0  0  0  0  0  2  0  0  0  0  0  0
  -28.2750  -13.7420   19.4750 C   0  0  0  0  0  3  0  0  0  0  0  0
  -29.3420  -13.8580   20.5870 C   0  0  0  0  0  2  0  0  0  0  0  0
  -30.6040  -14.2400   19.9410 N   0  0  0  0  0  0  0  0  0  0  0  0
  -32.3360  -15.5610   19.4120 O   0  0  0  0  0  0  0  0  0  0  0  0
  -30.3970  -16.7190   19.9530 N   0  0  0  0  0  4  0  0  0  0  0  0
  -29.5460  -16.5050   20.4510 H   0  0  0  0  0  0  0  0  0  0  0  0
  -25.9350  -14.3620   20.2980 C   0  0  0  0  0  0  0  0  0  0  0  0
  -24.8610  -13.6080   20.6820 C   0  0  0  0  0  0  0  0  0  0  0  0
  -25.2880  -12.2460   20.6090 C   0  0  0  0  0  0  0  0  0  0  0  0
  -26.9470  -13.4610   20.0070 N   0  0  0  0  0  0  0  0  0  0  0  0
  -26.5670  -12.1810   20.2580 N   0  0  0  0  0  0  0  0  0  0  0  0
  -24.5300  -11.0010   20.7940 C   0  0  0  0  0  0  0  0  0  0  0  0
  -24.8890  -10.0580   21.7810 C   0  0  0  0  0  3  0  0  0  0  0  0
  -24.1310   -8.8800   21.9540 C   0  0  0  0  0  3  0  0  0  0  0  0
  -23.0000   -8.6370   21.1400 C   0  0  0  0  0  0  0  0  0  0  0  0
  -22.6600   -9.5690   20.1420 C   0  0  0  0  0  3  0  0  0  0  0  0
  -23.4180  -10.7380   19.9690 C   0  0  0  0  0  3  0  0  0  0  0  0
  -22.2200   -7.5080   21.2190 O   0  0  0  0  0  0  0  0  0  0  0  0
  -21.9830   -6.8780   22.4140 C   0  0  0  0  0  0  0  0  0  0  0  0
  -21.3470   -7.5350   23.4910 C   0  0  0  0  0  3  0  0  0  0  0  0
  -21.0630   -6.8310   24.6770 C   0  0  0  0  0  3  0  0  0  0  0  0
  -21.4050   -5.4690   24.7870 C   0  0  0  0  0  0  0  0  0  0  0  0
  -22.0310   -4.8110   23.7140 C   0  0  0  0  0  3  0  0  0  0  0  0
  -22.3180   -5.5130   22.5300 C   0  0  0  0  0  0  0  0  0  0  0  0
  -22.9040   -4.8700   21.4920 F   0  0  0  0  0  0  0  0  0  0  0  0
  -21.1240   -4.7890   25.9230 F   0  0  0  0  0  0  0  0  0  0  0  0
  -23.4880  -14.1200   21.0060 C   0  0  0  0  0  0  0  0  0  0  0  0
  -22.7760  -13.4360   21.8920 N   0  0  0  0  0  0  0  0  0  0  0  0
  -23.0600  -15.1610   20.5090 O   0  0  0  0  0  0  0  0  0  0  0  0
  -23.1390  -12.5930   22.3160 H   0  0  0  0  0  0  0  0  0  0  0  0
  -21.8560  -13.7610   22.1530 H   0  0  0  0  0  0  0  0  0  0  0  0
  -26.1320  -15.7330   20.1500 N   0  0  0  0  0  0  0  0  0  0  0  0
  -25.3880  -16.4060   20.3000 H   0  0  0  0  0  0  0  0  0  0  0  0
  -26.9850  -16.1570   19.8090 H   0  0  0  0  0  0  0  0  0  0  0  0
  -30.9260  -18.1250   17.8340 C   0  0  0  0  0  2  0  0  0  0  0  0
  -32.3890  -17.9360   17.8780 N   0  0  0  0  0  4  0  0  0  0  0  0
  -32.8470  -18.6710   18.3850 H   0  0  0  0  0  0  0  0  0  0  0  0
  -32.7690  -17.9000   16.9490 H   0  0  0  0  0  0  0  0  0  0  0  0
  -32.6030  -17.0600   18.3490 H   0  0  0  0  0  0  0  0  0  0  0  0
  1  3  2  0
  1  5  1  0
  2  1  1  0
  3  6  1  0
  4  2  2  0
  4  8  1  0
  7  4  1  0
  8 51  1  0
  8  3  1  0
  9  2  1  0
  9 10  1  0
 11 22  2  0
 12 10  1  0
 12 17  1  0
 13 21  1  0
 13 23  1  0
 14 20  1  0
 14 16  1  0
 15 21  1  0
 16 15  1  0
 17 16  2  0
 18 19  1  0
 18 12  2  0
 19 14  2  0
 20 13  1  0
 21 11  1  0
 23 25  2  0
 24 23  1  0
 26 24  1  0
 27 36  2  0
 27 32  1  0
 28 24  1  0
 28 32  1  0
 29 28  1  0
 30 31  1  0
 30 29  1  0
 31 27  1  0
 32 33  2  0
 33 34  1  0
 35 34  2  0
 36 35  1  0
 37 11  1  0
 37 38  1  0
 37 47  1  0
 38 41  1  0
 39 43  1  0
 39 38  1  0
 40 39  2  0
 43 42  1  0
 45 43  1  0
 45 46  1  0
 45 44  1  0
 47 50  1  1
 47 48  1  0
 49 47  1  0
 52 51  1  0
 52 61  2  0
 53 59  1  0
 53 61  1  0
 54 59  1  0
 55 56  1  0
 55 54  1  0
 57 56  1  0
 57 66  1  0
 57 58  1  0
 59 58  1  0
 60 53  2  0
 61 62  1  0
 63 64  2  0
 64 83  1  0
 65 64  1  0
 65 68  1  0
 66 67  1  0
 66 63  1  0
 67 65  2  0
 68 69  1  0
 69 70  2  0
 71 74  1  0
 71 70  1  0
 72 71  2  0
 73 72  1  0
 73 68  2  0
 74 75  1  0
 75 80  2  0
 75 76  1  0
 76 77  2  0
 77 78  1  0
 78 82  1  0
 79 78  2  0
 80 79  1  0
 81 80  1  0
 83 84  1  0
 84 87  1  0
 84 86  1  0
 85 83  2  0
 88 63  1  0
 88 89  1  0
 90 88  1  0
 91 92  1  0
 91 52  1  0
 92 95  1  0
 92 93  1  0
 94 92  1  0
M  ISO  4   9 101  10 101  53 100  61 100
M  END
>  <TORSDO>  (12) 
F 21

>  <SCORE>  (12) 
-12.345

>  <name>  (12) 
11

>  <ligand_id>  (12) 
11

>  <original_smiles>  (12) 
[H]c1c([H])c([H])c2c(c1[H])C([H])([H])C([H])([H])C([H])([H])C2([H])N([H])C(=O)C1([H])N(C(=O)C([H])(N([H])C(=O)C([H])(N([H])C([H])([H])[H])C([H])([H])[H])C(C([H])([H])[H])(C([H])([H])[H])C([H])([H])[H])C([H])([H])c2c([H])c(OC([H])([H])c3c(C([H])([H])[H])c(C([H])([H])[H])n(C([H])([H])C([H])(N([H])C(=O)N4C([H])([H])C([H])([H])C([H])([H])C([H])(n5nc(-c6c([H])c([H])c(Oc7c([H])c([H])c(F)c([H])c7F)c([H])c6[H])c(C(=O)N([H])[H])c5N([H])[H])C4([H])[H])C([H])([H])[N+]([H])([H])[H])c3C([H])([H])[H])c([H])c([H])c2C1([H])[H]

>  <smiles>  (12) 
[H]c1c([H])c([H])c2c(c1[H])C([H])([H])C([H])([H])C([H])([H])C2([H])N([H])C(=O)C1([H])N(C(=O)C([H])(N([H])C(=O)C([H])(N([H])C([H])([H])[H])C([H])([H])[H])C(C([H])([H])[H])(C([H])([H])[H])C([H])([H])[H])C([H])([H])c2c([H])c(OC([H])([H])c3c(C([H])([H])[H])c(C([H])([H])[H])n(C([H])([H])C([H])(N([H])C(=O)N4C([H])([H])C([H])([H])C([H])([H])C([H])(n5nc(-c6c([H])c([H])c(Oc7c([H])c([H])c(F)c([H])c7F)c([H])c6[H])c(C(=O)N([H])[H])c5N([H])[H])C4([H])[H])C([H])([H])[N+]([H])([H])[H])c3C([H])([H])[H])c([H])c([H])c2C1([H])[H]

$$$$
12:0:0
     RDKit          3D

 99102  0  0  1  0  0  0  0  0999 V2000
  -30.0270  -17.6370   20.2930 C   0  0  0  0  0  1  0  0  0  0  0  0
  -29.2840  -21.1160   20.5820 C   0  0  0  0  0  2  0  0  0  0  0  0
  -29.1990  -19.4440   20.2880 N   0  0  0  0  0  2  0  0  0  0  0  0
  -30.4370  -21.3710   20.9390 O   0  0  0  0  0  1  0  0  0  0  0  0
  -28.2350  -19.2960   20.0060 H   0  0  0  0  0  0  0  0  0  0  0  0
  -28.2350  -22.9200   20.5810 C   0  0  0  0  0 15  0  0  0  0  0  0
  -28.3630  -24.8850   20.7160 O   0  0  0  0  0  1  0  0  0  0  0  0
  -24.6000  -31.8030   23.0650 C   0  0  0  0  0  0  0  0  0  0  0  0
  -27.4380  -26.2760   20.5910 C   0  0  0  0  0  0  0  0  0  0  0  0
  -23.5750  -30.2160   21.5050 C   0  0  0  0  0  3  0  0  0  0  0  0
  -25.1500  -28.4680   20.3080 C   0  0  0  0  0  0  0  0  0  0  0  0
  -26.1650  -30.3530   21.5390 C   0  0  0  0  0  2  0  0  0  0  0  0
  -26.3120  -28.8370   20.9910 C   0  0  0  0  0  0  0  0  0  0  0  0
  -27.4290  -27.7770   21.0850 C   0  0  0  0  0  3  0  0  0  0  0  0
  -26.2260  -26.2240   19.8420 C   0  0  0  0  0  3  0  0  0  0  0  0
  -25.1670  -27.1960   19.7100 C   0  0  0  0  0  3  0  0  0  0  0  0
  -23.9260  -29.4140   20.2150 C   0  0  0  0  0  2  0  0  0  0  0  0
  -24.8060  -30.8420   22.0840 N   0  0  0  0  0  0  0  0  0  0  0  0
  -23.4620  -32.0970   23.4790 O   0  0  0  0  0  0  0  0  0  0  0  0
  -22.8230  -29.3120   22.5240 C   0  0  0  0  0  0  0  0  0  0  0  0
  -21.4970  -29.1130   22.3670 N   0  0  0  0  0  0  0  0  0  0  0  0
  -23.4560  -28.7810   23.4410 O   0  0  0  0  0  0  0  0  0  0  0  0
  -21.0270  -29.5980   21.6140 H   0  0  0  0  0  0  0  0  0  0  0  0
  -18.1390  -27.7820   22.8510 C   0  0  0  0  0  0  0  0  0  0  0  0
  -20.6740  -28.2000   23.1780 C   0  0  0  0  0  3  0  0  0  0  0  0
  -20.8600  -26.7340   22.7230 C   0  0  0  0  0  2  0  0  0  0  0  0
  -19.8170  -26.2830   21.6950 C   0  0  0  0  0  2  0  0  0  0  0  0
  -18.4070  -26.4010   22.2770 C   0  0  0  0  0  2  0  0  0  0  0  0
  -19.2020  -28.6340   23.2580 C   0  0  0  0  0  0  0  0  0  0  0  0
  -18.8930  -29.9140   23.7630 C   0  0  0  0  0  3  0  0  0  0  0  0
  -17.5580  -30.3500   23.8620 C   0  0  0  0  0  3  0  0  0  0  0  0
  -16.5110  -29.5020   23.4650 C   0  0  0  0  0  3  0  0  0  0  0  0
  -16.8030  -28.2190   22.9650 C   0  0  0  0  0  3  0  0  0  0  0  0
  -25.7760  -32.5910   23.7230 C   0  0  0  0  0  3  0  0  0  0  0  0
  -26.2840  -31.9310   25.0650 C   0  0  1  0  0  0  0  0  0  0  0  0
  -25.1530  -31.5760   26.0610 C   0  0  0  0  0  1  0  0  0  0  0  0
  -27.0710  -30.6340   24.7830 C   0  0  0  0  0  1  0  0  0  0  0  0
  -27.2610  -32.8900   25.7860 C   0  0  0  0  0  1  0  0  0  0  0  0
  -25.3220  -33.9720   24.0050 N   0  0  0  0  0  0  0  0  0  0  0  0
  -25.6800  -35.0680   23.3180 C   0  0  0  0  0  0  0  0  0  0  0  0
  -26.4720  -35.0250   22.3740 O   0  0  0  0  0  0  0  0  0  0  0  0
  -24.6250  -34.0740   24.7270 H   0  0  0  0  0  0  0  0  0  0  0  0
  -23.9220  -36.8040   22.7860 C   0  0  0  0  0  1  0  0  0  0  0  0
  -25.0670  -36.4250   23.7400 C   0  0  0  0  0  3  0  0  0  0  0  0
  -27.0420  -37.3890   24.8410 C   0  0  0  0  0  1  0  0  0  0  0  0
  -26.0510  -37.5320   23.7790 N   0  0  0  0  0  0  0  0  0  0  0  0
  -25.5820  -38.4240   23.9030 H   0  0  0  0  0  0  0  0  0  0  0  0
  -30.3930  -12.7280   19.3680 C   0  0  0  0  0  2  0  0  0  0  0  0
  -30.3570  -15.7580   19.2040 C   0  0  0  0  0  1  0  0  0  0  0  0
  -30.4420  -17.6140   17.4400 C   0  0  0  0  0  0  0  0  0  0  0  0
  -31.0810  -16.5640   18.0720 N   0  0  0  0  0  0  0  0  0  0  0  0
  -29.3810  -18.0680   17.8730 O   0  0  0  0  0  0  0  0  0  0  0  0
  -33.6310  -16.7210   18.8590 C   0  0  0  0  0  1  0  0  0  0  0  0
  -32.5630  -16.4130   17.7880 C   0  0  0  0  0  2  0  0  0  0  0  0
  -31.7280  -17.4230   15.1150 C   0  0  0  0  0  1  0  0  0  0  0  0
  -30.9780  -18.3100   16.1430 C   0  0  0  0  0  3  0  0  0  0  0  0
  -31.6470  -19.6020   16.4140 N   0  0  0  0  0  4  0  0  0  0  0  0
  -32.4550  -19.4830   16.9990 H   0  0  0  0  0  0  0  0  0  0  0  0
  -31.0140  -20.2330   16.8770 H   0  0  0  0  0  0  0  0  0  0  0  0
  -31.9450  -20.0260   15.5520 H   0  0  0  0  0  0  0  0  0  0  0  0
  -30.6650  -17.4290   21.7440 C   0  0  0  0  0  2  0  0  0  0  0  0
  -31.3960  -15.0310   21.5220 C   0  0  0  0  0  0  0  0  0  0  0  0
  -31.0810  -13.8980   19.3490 C   0  0  0  0  0  2  0  0  0  0  0  0
  -29.8560  -13.7660   17.9360 C   0  0  0  0  0  2  0  0  0  0  0  0
  -28.0460  -13.9620   18.2630 C   0  0  0  0  0  2  0  0  0  0  0  0
  -27.4690  -14.2720   20.0140 C   0  0  0  0  0  3  0  0  0  0  0  0
  -28.7770  -14.3970   21.4560 C   0  0  0  0  0  2  0  0  0  0  0  0
  -30.5170  -14.2360   20.9980 N   0  0  0  0  0  0  0  0  0  0  0  0
  -32.5570  -15.0120   21.1330 O   0  0  0  0  0  0  0  0  0  0  0  0
  -30.8040  -16.0310   22.2040 N   0  0  0  0  0  0  0  0  0  0  0  0
  -29.9810  -15.7050   22.6960 H   0  0  0  0  0  0  0  0  0  0  0  0
  -25.2360  -14.3730   20.8040 C   0  0  0  0  0  0  0  0  0  0  0  0
  -24.2230  -13.5140   20.9670 C   0  0  0  0  0  0  0  0  0  0  0  0
  -24.7600  -12.1890   20.8710 C   0  0  0  0  0  0  0  0  0  0  0  0
  -26.2940  -13.6000   20.4610 N   0  0  0  0  0  0  0  0  0  0  0  0
  -26.0660  -12.2550   20.5900 N   0  0  0  0  0  0  0  0  0  0  0  0
  -24.0350  -10.9120   20.9460 C   0  0  0  0  0  0  0  0  0  0  0  0
  -24.4180   -9.8700   21.8240 C   0  0  0  0  0  3  0  0  0  0  0  0
  -23.6400   -8.6930   21.9140 C   0  0  0  0  0  3  0  0  0  0  0  0
  -22.4650   -8.5550   21.1350 C   0  0  0  0  0  0  0  0  0  0  0  0
  -22.1090   -9.5820   20.2480 C   0  0  0  0  0  3  0  0  0  0  0  0
  -22.8860  -10.7470   20.1520 C   0  0  0  0  0  3  0  0  0  0  0  0
  -21.6560   -7.4430   21.1400 O   0  0  0  0  0  0  0  0  0  0  0  0
  -21.6170   -6.5830   22.2080 C   0  0  0  0  0  0  0  0  0  0  0  0
  -21.2810   -7.0220   23.5060 C   0  0  0  0  0  3  0  0  0  0  0  0
  -21.1850   -6.0920   24.5620 C   0  0  0  0  0  3  0  0  0  0  0  0
  -21.4180   -4.7230   24.3150 C   0  0  0  0  0  0  0  0  0  0  0  0
  -21.7500   -4.2850   23.0220 C   0  0  0  0  0  3  0  0  0  0  0  0
  -21.8450   -5.2120   21.9700 C   0  0  0  0  0  0  0  0  0  0  0  0
  -22.1450   -4.7850   20.7180 F   0  0  0  0  0  0  0  0  0  0  0  0
  -21.3220   -3.8260   25.3220 F   0  0  0  0  0  0  0  0  0  0  0  0
  -22.8200  -13.9700   21.0950 C   0  0  0  0  0  0  0  0  0  0  0  0
  -22.0420  -13.2990   21.9260 N   0  0  0  0  0  0  0  0  0  0  0  0
  -22.4370  -14.9780   20.5000 O   0  0  0  0  0  0  0  0  0  0  0  0
  -22.3790  -12.4880   22.4220 H   0  0  0  0  0  0  0  0  0  0  0  0
  -21.0940  -13.6080   22.0760 H   0  0  0  0  0  0  0  0  0  0  0  0
  -25.3330  -15.7670   20.8650 N   0  0  0  0  0  0  0  0  0  0  0  0
  -24.5580  -16.3730   21.1160 H   0  0  0  0  0  0  0  0  0  0  0  0
  -26.1980  -16.2720   20.7230 H   0  0  0  0  0  0  0  0  0  0  0  0
  1 61  1  0
  2  4  1  0
  3  2  1  0
  5  3  1  0
  8 19  2  0
  9  7  1  0
  9 14  1  0
 10 18  1  0
 10 20  1  0
 11 13  1  0
 12 18  1  0
 13 14  2  0
 13 12  1  0
 15  9  2  0
 16 15  1  0
 16 11  2  0
 17 11  1  0
 17 10  1  0
 18  8  1  0
 20 22  2  0
 21 20  1  0
 23 21  1  0
 24 33  2  0
 24 29  1  0
 25 21  1  0
 25 29  1  0
 26 25  1  0
 27 28  1  0
 27 26  1  0
 28 24  1  0
 29 30  2  0
 30 31  1  0
 32 31  2  0
 33 32  1  0
 34  8  1  0
 34 39  1  0
 34 35  1  0
 35 38  1  1
 35 36  1  0
 37 35  1  0
 39 42  1  0
 40 44  1  0
 40 39  1  0
 41 40  2  0
 44 43  1  0
 44 46  1  0
 46 47  1  0
 46 45  1  0
 50 52  2  0
 50 51  1  0
 51 49  1  0
 54 51  1  0
 54 53  1  0
 56 55  1  0
 56 57  1  0
 56 50  1  0
 57 59  1  0
 57 58  1  0
 60 57  1  0
 61 70  1  0
 62 70  1  0
 63 48  1  0
 63 68  1  0
 64 65  1  0
 64 48  1  0
 66 65  1  0
 66 75  1  0
 66 67  1  0
 68 67  1  0
 68 62  1  0
 69 62  2  0
 70 71  1  0
 72 97  1  0
 72 73  2  0
 73 92  1  0
 74 77  1  0
 74 73  1  0
 75 76  1  0
 75 72  1  0
 76 74  2  0
 77 78  1  0
 78 79  2  0
 80 83  1  0
 80 79  1  0
 81 80  2  0
 82 81  1  0
 82 77  2  0
 83 84  1  0
 84 85  1  0
 85 86  2  0
 87 86  1  0
 87 91  1  0
 88 87  2  0
 89 84  2  0
 89 88  1  0
 90 89  1  0
 92 93  1  0
 93 96  1  0
 93 95  1  0
 94 92  2  0
 97 98  1  0
 99 97  1  0
M  ISO  4   6 101   7 101  62 100  70 100
M  END
>  <TORSDO>  (13) 
F 24

>  <SCORE>  (13) 
-12.635

>  <name>  (13) 
12

>  <ligand_id>  (13) 
12

>  <original_smiles>  (13) 
[H]c1c([H])c([H])c2c(c1[H])C([H])([H])C([H])([H])C([H])([H])C2([H])N([H])C(=O)C1([H])N(C(=O)C([H])(N([H])C(=O)C([H])(N([H])C([H])([H])[H])C([H])([H])[H])C(C([H])([H])[H])(C([H])([H])[H])C([H])([H])[H])C([H])([H])c2c([H])c(OC([H])([H])C(=O)N([H])C([H])(C([H])([H])N([H])C(=O)N3C([H])([H])C([H])([H])C([H])([H])C([H])(n4nc(-c5c([H])c([H])c(Oc6c([H])c([H])c(F)c([H])c6F)c([H])c5[H])c(C(=O)N([H])[H])c4N([H])[H])C3([H])[H])C([H])(N(C(=O)C([H])(C([H])([H])[H])[N+]([H])([H])[H])C([H])([H])C([H])([H])[H])C([H])([H])[H])c([H])c([H])c2C1([H])[H]

>  <smiles>  (13) 
[H]c1c([H])c([H])c2c(c1[H])C([H])([H])C([H])([H])C([H])([H])C2([H])N([H])C(=O)C1([H])N(C(=O)C([H])(N([H])C(=O)C([H])(N([H])C([H])([H])[H])C([H])([H])[H])C(C([H])([H])[H])(C([H])([H])[H])C([H])([H])[H])C([H])([H])c2c([H])c(OC([H])([H])C(=O)N([H])C([H])(C([H])([H])N([H])C(=O)N3C([H])([H])C([H])([H])C([H])([H])C([H])(n4nc(-c5c([H])c([H])c(Oc6c([H])c([H])c(F)c([H])c6F)c([H])c5[H])c(C(=O)N([H])[H])c4N([H])[H])C3([H])[H])C([H])(N(C(=O)C([H])(C([H])([H])[H])[N+]([H])([H])[H])C([H])([H])C([H])([H])[H])C([H])([H])[H])c([H])c([H])c2C1([H])[H]

$$$$
13:0:0
     RDKit          3D

 88 96  0  0  1  0  0  0  0  0999 V2000
  -28.9640  -22.7220   20.1540 C   0  0  0  0  0  3  0  0  0  0  0  0
  -27.1370  -24.0250   21.5880 C   0  0  0  0  0  1  0  0  0  0  0  0
  -27.9190  -24.2040   20.2830 C   0  0  0  0  0  3  0  0  0  0  0  0
  -28.1720  -25.8490   20.2300 O   0  0  0  0  0  0  0  0  0  0  0  0
  -24.5930  -31.8500   23.1860 C   0  0  0  0  0  0  0  0  0  0  0  0
  -27.1570  -26.9520   20.1860 C   0  0  0  0  0  0  0  0  0  0  0  0
  -23.4030  -30.4490   21.5500 C   0  0  0  0  0  3  0  0  0  0  0  0
  -24.8550  -28.8400   20.1330 C   0  0  0  0  0  0  0  0  0  0  0  0
  -25.9720  -30.6570   21.4090 C   0  0  0  0  0  2  0  0  0  0  0  0
  -26.0430  -29.2460   20.7550 C   0  0  0  0  0  0  0  0  0  0  0  0
  -27.1890  -28.3250   20.7530 C   0  0  0  0  0  3  0  0  0  0  0  0
  -25.9350  -26.7030   19.5210 C   0  0  0  0  0  3  0  0  0  0  0  0
  -24.8270  -27.5900   19.4960 C   0  0  0  0  0  3  0  0  0  0  0  0
  -23.6370  -29.7620   20.1760 C   0  0  0  0  0  2  0  0  0  0  0  0
  -24.6770  -31.0130   22.1020 N   0  0  0  0  0  0  0  0  0  0  0  0
  -23.5020  -32.1400   23.7030 O   0  0  0  0  0  0  0  0  0  0  0  0
  -22.7080  -29.4560   22.5170 C   0  0  0  0  0  0  0  0  0  0  0  0
  -21.3780  -29.2930   22.3940 N   0  0  0  0  0  0  0  0  0  0  0  0
  -23.3720  -28.8300   23.3480 O   0  0  0  0  0  0  0  0  0  0  0  0
  -20.8930  -29.8480   21.7020 H   0  0  0  0  0  0  0  0  0  0  0  0
  -17.9940  -28.0860   22.9090 C   0  0  0  0  0  0  0  0  0  0  0  0
  -20.5550  -28.3550   23.1670 C   0  0  0  0  0  3  0  0  0  0  0  0
  -20.6540  -26.9220   22.5940 C   0  0  0  0  0  2  0  0  0  0  0  0
  -19.5500  -26.5980   21.5820 C   0  0  0  0  0  2  0  0  0  0  0  0
  -18.1710  -26.7390   22.2300 C   0  0  0  0  0  2  0  0  0  0  0  0
  -19.1120  -28.8520   23.3340 C   0  0  0  0  0  0  0  0  0  0  0  0
  -18.8910  -30.1110   23.9340 C   0  0  0  0  0  3  0  0  0  0  0  0
  -17.5840  -30.6060   24.1100 C   0  0  0  0  0  3  0  0  0  0  0  0
  -16.4810  -29.8390   23.6970 C   0  0  0  0  0  3  0  0  0  0  0  0
  -16.6860  -28.5810   23.1030 C   0  0  0  0  0  3  0  0  0  0  0  0
  -25.8610  -32.4960   23.8200 C   0  0  0  0  0  3  0  0  0  0  0  0
  -26.3710  -31.7290   25.1030 C   0  0  1  0  0  0  0  0  0  0  0  0
  -25.2730  -31.4940   26.1650 C   0  0  0  0  0  1  0  0  0  0  0  0
  -26.9590  -30.3500   24.7280 C   0  0  0  0  0  1  0  0  0  0  0  0
  -27.5160  -32.5280   25.7680 C   0  0  0  0  0  1  0  0  0  0  0  0
  -25.5360  -33.8930   24.1610 N   0  0  0  0  0  0  0  0  0  0  0  0
  -25.8560  -34.9600   23.4160 C   0  0  0  0  0  0  0  0  0  0  0  0
  -26.5170  -34.8730   22.3790 O   0  0  0  0  0  0  0  0  0  0  0  0
  -24.9430  -34.0320   24.9660 H   0  0  0  0  0  0  0  0  0  0  0  0
  -24.1130  -36.7540   23.1120 C   0  0  0  0  0  1  0  0  0  0  0  0
  -25.3690  -36.3430   23.8980 C   0  0  0  0  0  3  0  0  0  0  0  0
  -27.5080  -37.2400   24.7100 C   0  0  0  0  0  1  0  0  0  0  0  0
  -26.3940  -37.4040   23.7780 N   0  0  0  0  0  0  0  0  0  0  0  0
  -25.9850  -38.3210   23.9300 H   0  0  0  0  0  0  0  0  0  0  0  0
  -28.7480  -20.9110   20.3550 C   0  0  0  0  0  3  0  0  0  0  0  0
  -31.9160  -19.4310   19.0660 C   0  0  0  0  0  3  0  0  0  0  0  0
  -31.4750  -18.1310   19.3690 C   0  0  0  0  0  3  0  0  0  0  0  0
  -30.9590  -20.3100   19.4480 C   0  0  0  0  0  3  0  0  0  0  0  0
  -30.2370  -18.1360   19.9710 C   0  0  0  0  0  0  0  0  0  0  0  0
  -29.8420  -19.6890   20.0020 N   0  0  0  0  0  0  0  0  0  0  0  0
  -30.4480  -15.3650   20.2090 C   0  0  0  0  0  0  0  0  0  0  0  0
  -30.3680  -12.9180   19.3340 C   0  0  0  0  0  2  0  0  0  0  0  0
  -29.4410  -12.6820   18.1160 C   0  0  0  0  0  2  0  0  0  0  0  0
  -28.0090  -12.3880   18.5860 C   0  0  0  0  0  2  0  0  0  0  0  0
  -27.5560  -13.3640   19.6970 C   0  0  0  0  0  3  0  0  0  0  0  0
  -28.6150  -13.5660   20.8050 C   0  0  0  0  0  2  0  0  0  0  0  0
  -29.8280  -14.0790   20.1440 N   0  0  0  0  0  0  0  0  0  0  0  0
  -31.6720  -15.2470   20.0410 O   0  0  0  0  0  0  0  0  0  0  0  0
  -29.7870  -16.7240   20.2810 N   0  0  0  0  0  0  0  0  0  0  0  0
  -28.8050  -16.6530   20.5080 H   0  0  0  0  0  0  0  0  0  0  0  0
  -25.1970  -13.8950   20.4950 C   0  0  0  0  0  0  0  0  0  0  0  0
  -24.1450  -13.1080   20.8720 C   0  0  0  0  0  0  0  0  0  0  0  0
  -24.6230  -11.7610   20.8270 C   0  0  0  0  0  0  0  0  0  0  0  0
  -26.2420  -13.0300   20.2320 N   0  0  0  0  0  0  0  0  0  0  0  0
  -25.9110  -11.7400   20.5020 N   0  0  0  0  0  0  0  0  0  0  0  0
  -23.9070  -10.4930   21.0150 C   0  0  0  0  0  0  0  0  0  0  0  0
  -24.3430   -9.5270   21.9500 C   0  0  0  0  0  3  0  0  0  0  0  0
  -23.6250   -8.3250   22.1280 C   0  0  0  0  0  3  0  0  0  0  0  0
  -22.4540   -8.0800   21.3720 C   0  0  0  0  0  0  0  0  0  0  0  0
  -22.0350   -9.0340   20.4260 C   0  0  0  0  0  3  0  0  0  0  0  0
  -22.7560  -10.2270   20.2460 C   0  0  0  0  0  3  0  0  0  0  0  0
  -21.7060   -6.9300   21.4590 O   0  0  0  0  0  0  0  0  0  0  0  0
  -21.6480   -6.1960   22.6150 C   0  0  0  0  0  0  0  0  0  0  0  0
  -21.1900   -6.7530   23.8300 C   0  0  0  0  0  3  0  0  0  0  0  0
  -21.0800   -5.9420   24.9780 C   0  0  0  0  0  3  0  0  0  0  0  0
  -21.4180   -4.5780   24.9140 C   0  0  0  0  0  0  0  0  0  0  0  0
  -21.8730   -4.0220   23.7050 C   0  0  0  0  0  3  0  0  0  0  0  0
  -21.9830   -4.8270   22.5590 C   0  0  0  0  0  0  0  0  0  0  0  0
  -22.4000   -4.2820   21.3900 F   0  0  0  0  0  0  0  0  0  0  0  0
  -21.3070   -3.7980   26.0150 F   0  0  0  0  0  0  0  0  0  0  0  0
  -22.7470  -13.5740   21.1540 C   0  0  0  0  0  0  0  0  0  0  0  0
  -22.0280  -12.8720   22.0210 N   0  0  0  0  0  0  0  0  0  0  0  0
  -22.3000  -14.5980   20.6380 O   0  0  0  0  0  0  0  0  0  0  0  0
  -22.4020  -12.0460   22.4650 H   0  0  0  0  0  0  0  0  0  0  0  0
  -21.0920  -13.1720   22.2530 H   0  0  0  0  0  0  0  0  0  0  0  0
  -25.3470  -15.2680   20.3200 N   0  0  0  0  0  0  0  0  0  0  0  0
  -24.5730  -15.9140   20.4380 H   0  0  0  0  0  0  0  0  0  0  0  0
  -26.1770  -15.7080   19.9450 H   0  0  0  0  0  0  0  0  0  0  0  0
  1  3  1  0
  1 45  2  0
  3  2  1  0
  4  3  1  0
  5 16  2  0
  6  4  1  0
  6 11  1  0
  7 15  1  0
  7 17  1  0
  8 14  1  0
  8 10  1  0
  9 15  1  0
 10  9  1  0
 11 10  2  0
 12  6  2  0
 13 12  1  0
 13  8  2  0
 14  7  1  0
 15  5  1  0
 17 19  2  0
 18 17  1  0
 20 18  1  0
 21 30  2  0
 21 26  1  0
 22 18  1  0
 22 26  1  0
 23 22  1  0
 24 25  1  0
 24 23  1  0
 25 21  1  0
 26 27  2  0
 27 28  1  0
 29 28  2  0
 30 29  1  0
 31  5  1  0
 31 36  1  0
 31 32  1  0
 32 35  1  1
 32 33  1  0
 34 32  1  0
 36 39  1  0
 37 41  1  0
 37 36  1  0
 38 37  2  0
 41 40  1  0
 43 41  1  0
 43 44  1  0
 43 42  1  0
 46 47  1  0
 46 48  2  0
 47 49  2  0
 48 50  1  0
 49 50  1  0
 49 59  1  0
 50 45  1  0
 51 59  1  0
 52 57  1  0
 53 54  1  0
 53 52  1  0
 55 54  1  0
 55 64  1  0
 55 56  1  0
 57 51  1  0
 57 56  1  0
 58 51  2  0
 59 60  1  0
 61 62  2  0
 62 81  1  0
 63 62  1  0
 63 66  1  0
 64 61  1  0
 64 65  1  0
 65 63  2  0
 66 67  1  0
 67 68  2  0
 69 72  1  0
 69 68  1  0
 70 69  2  0
 71 70  1  0
 71 66  2  0
 72 73  1  0
 73 74  1  0
 74 75  2  0
 76 75  1  0
 76 80  1  0
 77 76  2  0
 78 73  2  0
 78 77  1  0
 79 78  1  0
 81 82  1  0
 82 85  1  0
 82 84  1  0
 83 81  2  0
 86 87  1  0
 86 61  1  0
 88 86  1  0
M  ISO  4   3 101   4 101  51 100  59 100
M  END
>  <TORSDO>  (14) 
F 19

>  <SCORE>  (14) 
-16.146

>  <name>  (14) 
13

>  <ligand_id>  (14) 
13

>  <original_smiles>  (14) 
[H]c1c([H])c([H])c2c(c1[H])C([H])([H])C([H])([H])C([H])([H])C2([H])N([H])C(=O)C1([H])N(C(=O)C([H])(N([H])C(=O)C([H])(N([H])C([H])([H])[H])C([H])([H])[H])C(C([H])([H])[H])(C([H])([H])[H])C([H])([H])[H])C([H])([H])c2c([H])c(OC([H])(C([H])([H])[H])C([H])([H])C([H])([H])n3c([H])c([H])c([H])c3N([H])C(=O)N3C([H])([H])C([H])([H])C([H])([H])C([H])(n4nc(-c5c([H])c([H])c(Oc6c([H])c([H])c(F)c([H])c6F)c([H])c5[H])c(C(=O)N([H])[H])c4N([H])[H])C3([H])[H])c([H])c([H])c2C1([H])[H]

>  <smiles>  (14) 
[H]c1c([H])c([H])c2c(c1[H])C([H])([H])C([H])([H])C([H])([H])C2([H])N([H])C(=O)C1([H])N(C(=O)C([H])(N([H])C(=O)C([H])(N([H])C([H])([H])[H])C([H])([H])[H])C(C([H])([H])[H])(C([H])([H])[H])C([H])([H])[H])C([H])([H])c2c([H])c(OC([H])(C([H])([H])[H])C([H])([H])C([H])([H])n3c([H])c([H])c([H])c3N([H])C(=O)N3C([H])([H])C([H])([H])C([H])([H])C([H])(n4nc(-c5c([H])c([H])c(Oc6c([H])c([H])c(F)c([H])c6F)c([H])c5[H])c(C(=O)N([H])[H])c4N([H])[H])C3([H])[H])c([H])c([H])c2C1([H])[H]

$$$$
14:0:0
     RDKit          3D

 98106  0  0  1  0  0  0  0  0999 V2000
  -24.8240  -23.4220   21.2160 N   0  0  1  0  0  4  0  0  0  0  0  0
  -24.7840  -22.5260   21.7650 H   0  0  0  0  0  0  0  0  0  0  0  0
  -23.3560  -22.4120   19.0880 C   0  0  0  0  0  1  0  0  0  0  0  0
  -23.7660  -23.5730   20.1100 C   0  0  0  0  0  3  0  0  0  0  0  0
  -22.6930  -24.5520   20.4670 C   0  0  0  0  0  2  0  0  0  0  0  0
  -23.3850  -26.1220   20.1270 C   0  0  0  0  0  2  0  0  0  0  0  0
  -24.5640  -26.7460   19.0650 C   0  0  0  0  0  2  0  0  0  0  0  0
  -26.2190  -27.1580   18.9710 O   0  0  0  0  0  0  0  0  0  0  0  0
  -25.0050  -31.5920   23.4820 C   0  0  0  0  0  0  0  0  0  0  0  0
  -26.5300  -28.4690   18.6360 C   0  0  0  0  0  3  0  0  0  0  0  0
  -23.5640  -31.1140   21.6010 C   0  0  0  0  0  3  0  0  0  0  0  0
  -24.7180  -30.3460   19.3930 C   0  0  0  0  0  3  0  0  0  0  0  0
  -26.1160  -31.3220   21.2410 C   0  0  0  0  0  2  0  0  0  0  0  0
  -25.9650  -30.3270   20.0460 C   0  0  0  0  0  3  0  0  0  0  0  0
  -26.9400  -29.3780   19.6750 C   0  0  0  0  0  2  0  0  0  0  0  0
  -25.5060  -28.7980   17.7140 C   0  0  0  0  0  3  0  0  0  0  0  0
  -24.5660  -29.7330   18.1620 C   0  0  0  0  0  3  0  0  0  0  0  0
  -23.5670  -31.1600   20.0440 C   0  0  0  0  0  2  0  0  0  0  0  0
  -24.9330  -31.3260   22.1550 N   0  0  0  0  0  0  0  0  0  0  0  0
  -24.0200  -31.5690   24.2250 O   0  0  0  0  0  0  0  0  0  0  0  0
  -22.9720  -29.6970   22.0200 C   0  0  0  0  0  0  0  0  0  0  0  0
  -21.6290  -29.5660   21.8460 N   0  0  0  0  0  0  0  0  0  0  0  0
  -23.7170  -28.8060   22.4940 O   0  0  0  0  0  0  0  0  0  0  0  0
  -21.1540  -30.4690   21.7220 H   0  0  0  0  0  0  0  0  0  0  0  0
  -18.5050  -27.9110   21.7850 C   0  0  0  0  0  0  0  0  0  0  0  0
  -20.9330  -28.3520   22.3970 C   0  0  0  0  0  3  0  0  0  0  0  0
  -21.1620  -27.0920   21.5090 C   0  0  0  0  0  2  0  0  0  0  0  0
  -20.4080  -27.1600   20.2400 C   0  0  0  0  0  2  0  0  0  0  0  0
  -18.9340  -27.3730   20.4370 C   0  0  0  0  0  2  0  0  0  0  0  0
  -19.4380  -28.5520   22.6270 C   0  0  0  0  0  0  0  0  0  0  0  0
  -18.9030  -29.3440   23.6720 C   0  0  0  0  0  3  0  0  0  0  0  0
  -17.4930  -29.5060   23.8410 C   0  0  0  0  0  3  0  0  0  0  0  0
  -16.6090  -28.8500   22.9820 C   0  0  0  0  0  3  0  0  0  0  0  0
  -17.1320  -28.0440   22.0080 C   0  0  0  0  0  3  0  0  0  0  0  0
  -26.3720  -31.9410   24.1560 C   0  0  0  0  0  3  0  0  0  0  0  0
  -26.8790  -30.8410   25.1720 C   0  0  1  0  0  0  0  0  0  0  0  0
  -25.8100  -30.3770   26.1890 C   0  0  0  0  0  1  0  0  0  0  0  0
  -27.3700  -29.5850   24.4150 C   0  0  0  0  0  1  0  0  0  0  0  0
  -28.1000  -31.3840   25.9650 C   0  0  0  0  0  1  0  0  0  0  0  0
  -26.1850  -33.2260   24.8670 N   0  0  0  0  0  0  0  0  0  0  0  0
  -26.5450  -34.4230   24.3840 C   0  0  0  0  0  0  0  0  0  0  0  0
  -27.1630  -34.5500   23.3260 O   0  0  0  0  0  0  0  0  0  0  0  0
  -25.6510  -33.1990   25.7220 H   0  0  0  0  0  0  0  0  0  0  0  0
  -24.9580  -36.3730   24.5490 C   0  0  0  0  0  1  0  0  0  0  0  0
  -26.1600  -35.6750   25.2060 C   0  0  0  0  0  3  0  0  0  0  0  0
  -28.3630  -36.1240   26.1880 C   0  0  0  0  0  1  0  0  0  0  0  0
  -27.2720  -36.6320   25.3610 N   0  0  0  0  0  0  0  0  0  0  0  0
  -26.9430  -37.5030   25.7690 H   0  0  0  0  0  0  0  0  0  0  0  0
  -26.2390  -23.5420   20.6580 C   0  0  0  0  0  2  0  0  0  0  0  0
  -27.0500  -22.2260   20.1660 C   0  0  0  0  0  2  0  0  0  0  0  0
  -28.3660  -21.9460   20.9760 C   0  0  0  0  0  2  0  0  0  0  0  0
  -32.4290  -17.4900   20.3150 C   0  0  0  0  0  0  0  0  0  0  0  0
  -32.8260  -15.0680   19.7160 C   0  0  0  0  0  2  0  0  0  0  0  0
  -32.1330  -14.7170   18.3760 C   0  0  0  0  0  2  0  0  0  0  0  0
  -30.6270  -14.4510   18.5500 C   0  0  0  0  0  2  0  0  0  0  0  0
  -29.9660  -15.4580   19.5440 C   0  0  0  0  0  3  0  0  0  0  0  0
  -30.7930  -15.6790   20.8220 C   0  0  0  0  0  2  0  0  0  0  0  0
  -32.0840  -16.1600   20.3840 N   0  0  0  0  0  0  0  0  0  0  0  0
  -33.6450  -17.7470   20.1410 O   0  0  0  0  0  0  0  0  0  0  0  0
  -30.6090  -19.0840   19.3080 C   0  0  0  0  0  2  0  0  0  0  0  0
  -31.6040  -19.7080   21.3060 C   0  0  0  0  0  2  0  0  0  0  0  0
  -29.2600  -19.8910   19.6490 C   0  0  0  0  0  2  0  0  0  0  0  0
  -30.3620  -20.6280   21.6490 C   0  0  0  0  0  2  0  0  0  0  0  0
  -31.4210  -18.5000   20.4370 N   0  0  0  0  0  0  0  0  0  0  0  0
  -29.5320  -21.0840   20.4890 N   0  0  2  0  0  4  0  0  0  0  0  0
  -30.0510  -21.7260   19.9020 H   0  0  0  0  0  0  0  0  0  0  0  0
  -27.4890  -15.9730   19.9180 C   0  0  0  0  0  0  0  0  0  0  0  0
  -26.4510  -15.2130   20.2450 C   0  0  0  0  0  0  0  0  0  0  0  0
  -26.9620  -13.8660   20.3600 C   0  0  0  0  0  0  0  0  0  0  0  0
  -28.5960  -15.1440   19.8680 N   0  0  0  0  0  0  0  0  0  0  0  0
  -28.2770  -13.8690   20.1950 N   0  0  0  0  0  0  0  0  0  0  0  0
  -26.2810  -12.6030   20.5370 C   0  0  0  0  0  0  0  0  0  0  0  0
  -26.4280  -11.8440   21.7190 C   0  0  0  0  0  3  0  0  0  0  0  0
  -25.7420  -10.6260   21.8710 C   0  0  0  0  0  3  0  0  0  0  0  0
  -24.8910  -10.1580   20.8380 C   0  0  0  0  0  0  0  0  0  0  0  0
  -24.7670  -10.9060   19.6550 C   0  0  0  0  0  3  0  0  0  0  0  0
  -25.4530  -12.1170   19.5030 C   0  0  0  0  0  3  0  0  0  0  0  0
  -24.1990   -8.9790   20.8850 O   0  0  0  0  0  0  0  0  0  0  0  0
  -23.4660   -8.6280   21.9880 C   0  0  0  0  0  0  0  0  0  0  0  0
  -22.4440   -9.4570   22.4990 C   0  0  0  0  0  3  0  0  0  0  0  0
  -21.6680   -9.0190   23.5900 C   0  0  0  0  0  3  0  0  0  0  0  0
  -21.9090   -7.7540   24.1620 C   0  0  0  0  0  0  0  0  0  0  0  0
  -22.9250   -6.9280   23.6490 C   0  0  0  0  0  3  0  0  0  0  0  0
  -23.6990   -7.3650   22.5610 C   0  0  0  0  0  0  0  0  0  0  0  0
  -24.6650   -6.5600   22.0560 F   0  0  0  0  0  0  0  0  0  0  0  0
  -21.1570   -7.3260   25.2020 F   0  0  0  0  0  0  0  0  0  0  0  0
  -25.0020  -15.6250   20.3470 C   0  0  0  0  0  0  0  0  0  0  0  0
  -24.2510  -15.0500   21.2500 N   0  0  0  0  0  0  0  0  0  0  0  0
  -24.5710  -16.5380   19.6240 O   0  0  0  0  0  0  0  0  0  0  0  0
  -24.6090  -14.3090   21.8480 H   0  0  0  0  0  0  0  0  0  0  0  0
  -23.2830  -15.3210   21.3760 H   0  0  0  0  0  0  0  0  0  0  0  0
  -27.6210  -17.3470   19.6090 N   0  0  0  0  0  0  0  0  0  0  0  0
  -26.7990  -17.9430   19.5740 H   0  0  0  0  0  0  0  0  0  0  0  0
  -28.4320  -17.7220   19.1500 H   0  0  0  0  0  0  0  0  0  0  0  0
  -24.6640  -24.5380   22.2830 C   0  0  0  0  0  2  0  0  0  0  0  0
  -23.7180  -25.3290   24.6530 C   0  0  0  0  0  1  0  0  0  0  0  0
  -23.2400  -23.0410   23.6980 C   0  0  0  0  0  1  0  0  0  0  0  0
  -24.2670  -24.1820   23.7140 C   0  0  0  0  0  3  0  0  0  0  0  0
  1  2  1  1
  1 95  1  0
  4  3  1  0
  4  5  1  0
  4  1  1  0
  6  5  1  0
  7  6  1  0
  8  7  1  0
  9 20  2  0
 10  8  1  0
 10 15  1  0
 11 21  1  0
 11 19  1  0
 12 17  1  0
 12 18  1  0
 12 14  1  0
 13 19  1  0
 14 15  1  0
 14 13  1  0
 16 17  2  0
 16 10  1  0
 18 11  1  0
 19  9  1  0
 21 23  2  0
 22 21  1  0
 24 22  1  0
 25 34  2  0
 25 30  1  0
 26 22  1  0
 26 30  1  0
 27 26  1  0
 28 29  1  0
 28 27  1  0
 29 25  1  0
 30 31  2  0
 31 32  1  0
 33 32  2  0
 34 33  1  0
 35  9  1  0
 35 40  1  0
 35 36  1  0
 36 39  1  1
 36 37  1  0
 38 36  1  0
 40 43  1  0
 41 40  1  0
 41 45  1  0
 42 41  2  0
 45 44  1  0
 45 47  1  0
 47 48  1  0
 47 46  1  0
 49  1  1  0
 50 49  1  0
 50 51  1  0
 52 58  1  0
 52 64  1  0
 53 58  1  0
 54 55  1  0
 54 53  1  0
 56 55  1  0
 56 70  1  0
 56 57  1  0
 58 57  1  0
 59 52  2  0
 60 62  1  0
 60 64  1  0
 61 63  1  0
 62 65  1  0
 64 61  1  0
 65 51  1  0
 65 63  1  0
 65 66  1  6
 67 68  2  0
 68 87  1  0
 68 69  1  0
 69 72  1  0
 70 67  1  0
 70 71  1  0
 71 69  2  0
 72 73  1  0
 73 74  2  0
 75 78  1  0
 75 74  1  0
 76 75  2  0
 77 76  1  0
 77 72  2  0
 78 79  1  0
 79 80  2  0
 79 84  1  0
 80 81  1  0
 81 82  2  0
 82 86  1  0
 83 82  1  0
 84 83  2  0
 85 84  1  0
 87 88  1  0
 88 91  1  0
 88 90  1  0
 89 87  2  0
 92 67  1  0
 93 92  1  0
 94 92  1  0
 95 98  1  0
 97 98  1  0
 98 96  1  0
M  ISO  4   7 101   8 101  52 100  64 100
M  END
>  <TORSDO>  (15) 
F 25

>  <SCORE>  (15) 
-2.939

>  <name>  (15) 
14

>  <ligand_id>  (15) 
14

>  <original_smiles>  (15) 
[H]c1c([H])c([H])c2c(c1[H])C([H])([H])C([H])([H])C([H])([H])C2([H])N([H])C(=O)C1([H])N(C(=O)C([H])(N([H])C(=O)C([H])(N([H])C([H])([H])[H])C([H])([H])[H])C(C([H])([H])[H])(C([H])([H])[H])C([H])([H])[H])C([H])([H])c2c([H])c(OC([H])([H])C([H])([H])C([H])([H])C([H])(C([H])([H])[H])[N+]([H])(C([H])([H])C([H])([H])C([H])([H])[N+]3([H])C([H])([H])C([H])([H])N(C(=O)N4C([H])([H])C([H])([H])C([H])([H])C([H])(n5nc(-c6c([H])c([H])c(Oc7c([H])c([H])c(F)c([H])c7F)c([H])c6[H])c(C(=O)N([H])[H])c5N([H])[H])C4([H])[H])C([H])([H])C3([H])[H])C([H])([H])C([H])(C([H])([H])[H])C([H])([H])[H])c([H])c([H])c2C1([H])[H]

>  <smiles>  (15) 
[H]c1c([H])c([H])c2c(c1[H])C([H])([H])C([H])([H])C([H])([H])C2([H])N([H])C(=O)C1([H])N(C(=O)C([H])(N([H])C(=O)C([H])(N([H])C([H])([H])[H])C([H])([H])[H])C(C([H])([H])[H])(C([H])([H])[H])C([H])([H])[H])C([H])([H])c2c([H])c(OC([H])([H])C([H])([H])C([H])([H])C([H])(C([H])([H])[H])[N+]([H])(C([H])([H])C([H])([H])C([H])([H])[N+]3([H])C([H])([H])C([H])([H])N(C(=O)N4C([H])([H])C([H])([H])C([H])([H])C([H])(n5nc(-c6c([H])c([H])c(Oc7c([H])c([H])c(F)c([H])c7F)c([H])c6[H])c(C(=O)N([H])[H])c5N([H])[H])C4([H])[H])C([H])([H])C3([H])[H])C([H])([H])C([H])(C([H])([H])[H])C([H])([H])[H])c([H])c([H])c2C1([H])[H]

$$$$
15:0:0
     RDKit          3D

 96104  0  0  1  0  0  0  0  0999 V2000
  -27.6450  -22.2210   17.9120 C   0  0  0  0  0  1  0  0  0  0  0  0
  -28.3830  -21.8300   19.2200 C   0  0  0  0  0  3  0  0  0  0  0  0
  -28.8860  -23.0220   19.9760 N   0  0  0  0  0  4  0  0  0  0  0  0
  -28.8640  -22.7820   20.9570 H   0  0  0  0  0  0  0  0  0  0  0  0
  -29.8560  -23.1550   19.7310 H   0  0  0  0  0  0  0  0  0  0  0  0
  -28.1800  -24.3280   19.7630 C   0  0  0  0  0  2  0  0  0  0  0  0
  -30.0330  -25.4370   21.1840 C   0  0  0  0  0  1  0  0  0  0  0  0
  -28.5650  -25.4840   20.7340 C   0  0  0  0  0  3  0  0  0  0  0  0
  -28.4420  -26.7740   20.1110 O   0  0  0  0  0  0  0  0  0  0  0  0
  -24.5860  -31.8890   23.2470 C   0  0  0  0  0  0  0  0  0  0  0  0
  -27.2410  -27.4470   20.1800 C   0  0  0  0  0  0  0  0  0  0  0  0
  -23.3800  -30.4790   21.6100 C   0  0  0  0  0  3  0  0  0  0  0  0
  -24.8350  -28.9370   20.1900 C   0  0  0  0  0  0  0  0  0  0  0  0
  -25.9010  -30.8470   21.4030 C   0  0  0  0  0  2  0  0  0  0  0  0
  -25.9900  -29.4710   20.7750 C   0  0  0  0  0  0  0  0  0  0  0  0
  -27.1970  -28.7350   20.7610 C   0  0  0  0  0  3  0  0  0  0  0  0
  -26.0720  -26.9260   19.5880 C   0  0  0  0  0  3  0  0  0  0  0  0
  -24.8710  -27.6650   19.5920 C   0  0  0  0  0  3  0  0  0  0  0  0
  -23.5870  -29.7890   20.2340 C   0  0  0  0  0  2  0  0  0  0  0  0
  -24.6410  -31.0870   22.1460 N   0  0  0  0  0  0  0  0  0  0  0  0
  -23.5040  -32.1590   23.7890 O   0  0  0  0  0  0  0  0  0  0  0  0
  -22.7320  -29.4610   22.5760 C   0  0  0  0  0  0  0  0  0  0  0  0
  -21.4100  -29.2680   22.4420 N   0  0  0  0  0  0  0  0  0  0  0  0
  -23.4160  -28.8450   23.3970 O   0  0  0  0  0  0  0  0  0  0  0  0
  -20.9200  -29.8160   21.7490 H   0  0  0  0  0  0  0  0  0  0  0  0
  -18.0410  -28.0540   22.9270 C   0  0  0  0  0  0  0  0  0  0  0  0
  -20.5960  -28.3280   23.2120 C   0  0  0  0  0  3  0  0  0  0  0  0
  -20.7100  -26.8970   22.6390 C   0  0  0  0  0  2  0  0  0  0  0  0
  -19.6150  -26.5640   21.6220 C   0  0  0  0  0  2  0  0  0  0  0  0
  -18.2290  -26.7030   22.2580 C   0  0  0  0  0  2  0  0  0  0  0  0
  -19.1530  -28.8250   23.3600 C   0  0  0  0  0  0  0  0  0  0  0  0
  -18.9250  -30.0910   23.9430 C   0  0  0  0  0  3  0  0  0  0  0  0
  -17.6150  -30.5860   24.0980 C   0  0  0  0  0  3  0  0  0  0  0  0
  -16.5180  -29.8110   23.6840 C   0  0  0  0  0  3  0  0  0  0  0  0
  -16.7320  -28.5480   23.1060 C   0  0  0  0  0  3  0  0  0  0  0  0
  -25.8710  -32.5240   23.8640 C   0  0  0  0  0  3  0  0  0  0  0  0
  -26.3880  -31.7600   25.1450 C   0  0  1  0  0  0  0  0  0  0  0  0
  -25.2940  -31.5250   26.2130 C   0  0  0  0  0  1  0  0  0  0  0  0
  -26.9710  -30.3830   24.7570 C   0  0  0  0  0  1  0  0  0  0  0  0
  -27.5380  -32.5590   25.8030 C   0  0  0  0  0  1  0  0  0  0  0  0
  -25.5650  -33.9250   24.1830 N   0  0  0  0  0  0  0  0  0  0  0  0
  -25.9080  -34.9700   23.4180 C   0  0  0  0  0  0  0  0  0  0  0  0
  -26.5860  -34.8570   22.3920 O   0  0  0  0  0  0  0  0  0  0  0  0
  -24.9670  -34.0880   24.9790 H   0  0  0  0  0  0  0  0  0  0  0  0
  -24.1960  -36.7710   23.0210 C   0  0  0  0  0  1  0  0  0  0  0  0
  -25.4200  -36.3640   23.8590 C   0  0  0  0  0  3  0  0  0  0  0  0
  -27.5410  -37.2390   24.7310 C   0  0  0  0  0  1  0  0  0  0  0  0
  -26.4610  -37.4100   23.7620 N   0  0  0  0  0  0  0  0  0  0  0  0
  -26.0570  -38.3330   23.8960 H   0  0  0  0  0  0  0  0  0  0  0  0
  -29.5270  -20.8090   18.8890 C   0  0  0  0  0  2  0  0  0  0  0  0
  -30.6580  -14.4970   20.5520 C   0  0  0  0  0  0  0  0  0  0  0  0
  -30.3840  -12.3300   19.4020 C   0  0  0  0  0  2  0  0  0  0  0  0
  -29.4540  -12.5470   18.1890 C   0  0  0  0  0  2  0  0  0  0  0  0
  -27.9720  -12.4130   18.5990 C   0  0  0  0  0  2  0  0  0  0  0  0
  -27.6270  -13.2380   19.8680 C   0  0  0  0  0  3  0  0  0  0  0  0
  -28.6710  -12.9970   20.9830 C   0  0  0  0  0  2  0  0  0  0  0  0
  -30.0050  -13.3060   20.4360 N   0  0  0  0  0  0  0  0  0  0  0  0
  -31.7910  -14.6780   20.0900 O   0  0  0  0  0  0  0  0  0  0  0  0
  -28.6420  -17.2270   20.0620 C   0  0  0  0  0  3  0  0  0  0  0  0
  -28.4880  -18.5130   19.5070 C   0  0  0  0  0  0  0  0  0  0  0  0
  -29.5590  -19.4390   19.6130 C   0  0  0  0  0  0  0  0  0  0  0  0
  -30.7280  -18.9840   20.2830 C   0  0  0  0  0  0  0  0  0  0  0  0
  -29.8590  -16.8310   20.6440 C   0  0  0  0  0  0  0  0  0  0  0  0
  -27.1970  -18.8120   18.7620 C   0  0  0  0  0  1  0  0  0  0  0  0
  -31.9560  -19.8630   20.4610 C   0  0  0  0  0  1  0  0  0  0  0  0
  -30.8660  -17.7270   20.7740 N   0  0  0  0  0  0  0  0  0  0  0  0
  -29.9270  -15.4870   21.1080 N   0  0  0  0  0  0  0  0  0  0  0  0
  -29.0670  -15.1460   21.5010 H   0  0  0  0  0  0  0  0  0  0  0  0
  -25.2220  -13.8600   20.5510 C   0  0  0  0  0  0  0  0  0  0  0  0
  -24.1450  -13.0970   20.9110 C   0  0  0  0  0  0  0  0  0  0  0  0
  -24.6000  -11.7420   20.8820 C   0  0  0  0  0  0  0  0  0  0  0  0
  -26.2650  -12.9740   20.3300 N   0  0  0  0  0  0  0  0  0  0  0  0
  -25.8920  -11.6950   20.5850 N   0  0  0  0  0  0  0  0  0  0  0  0
  -23.8640  -10.4850   21.0660 C   0  0  0  0  0  0  0  0  0  0  0  0
  -24.2830   -9.5150   22.0030 C   0  0  0  0  0  3  0  0  0  0  0  0
  -23.5500   -8.3210   22.1720 C   0  0  0  0  0  3  0  0  0  0  0  0
  -22.3840   -8.0890   21.4040 C   0  0  0  0  0  0  0  0  0  0  0  0
  -21.9820   -9.0490   20.4580 C   0  0  0  0  0  3  0  0  0  0  0  0
  -22.7160  -10.2350   20.2870 C   0  0  0  0  0  3  0  0  0  0  0  0
  -21.6210   -6.9490   21.4840 O   0  0  0  0  0  0  0  0  0  0  0  0
  -21.5540   -6.2080   22.6360 C   0  0  0  0  0  0  0  0  0  0  0  0
  -21.1000   -6.7610   23.8540 C   0  0  0  0  0  3  0  0  0  0  0  0
  -20.9820   -5.9470   24.9970 C   0  0  0  0  0  3  0  0  0  0  0  0
  -21.3050   -4.5780   24.9240 C   0  0  0  0  0  0  0  0  0  0  0  0
  -21.7510   -4.0230   23.7120 C   0  0  0  0  0  3  0  0  0  0  0  0
  -21.8730   -4.8360   22.5700 C   0  0  0  0  0  0  0  0  0  0  0  0
  -22.2830   -4.2920   21.4000 F   0  0  0  0  0  0  0  0  0  0  0  0
  -21.1830   -3.7930   26.0190 F   0  0  0  0  0  0  0  0  0  0  0  0
  -22.7500  -13.5850   21.1710 C   0  0  0  0  0  0  0  0  0  0  0  0
  -22.0040  -12.8900   22.0250 N   0  0  0  0  0  0  0  0  0  0  0  0
  -22.3260  -14.6180   20.6520 O   0  0  0  0  0  0  0  0  0  0  0  0
  -22.3550  -12.0530   22.4650 H   0  0  0  0  0  0  0  0  0  0  0  0
  -21.0680  -13.2000   22.2380 H   0  0  0  0  0  0  0  0  0  0  0  0
  -25.3960  -15.2280   20.3730 N   0  0  0  0  0  0  0  0  0  0  0  0
  -24.6340  -15.8880   20.4740 H   0  0  0  0  0  0  0  0  0  0  0  0
  -26.2420  -15.6500   20.0190 H   0  0  0  0  0  0  0  0  0  0  0  0
  2  1  1  0
  2  3  1  0
  3  4  1  0
  5  3  1  0
  6  3  1  0
  6  8  1  0
  8  7  1  0
  9 11  1  0
  9  8  1  0
 10 21  2  0
 11 16  1  0
 12 20  1  0
 12 22  1  0
 13 19  1  0
 13 15  1  0
 14 20  1  0
 15 14  1  0
 16 15  2  0
 17 18  1  0
 17 11  2  0
 18 13  2  0
 19 12  1  0
 20 10  1  0
 22 24  2  0
 23 22  1  0
 25 23  1  0
 26 35  2  0
 26 31  1  0
 27 23  1  0
 27 31  1  0
 28 27  1  0
 29 30  1  0
 29 28  1  0
 30 26  1  0
 31 32  2  0
 32 33  1  0
 34 33  2  0
 35 34  1  0
 36 10  1  0
 36 41  1  0
 36 37  1  0
 37 40  1  1
 37 38  1  0
 39 37  1  0
 41 44  1  0
 42 46  1  0
 42 41  1  0
 43 42  2  0
 46 45  1  0
 48 46  1  0
 48 49  1  0
 48 47  1  0
 50  2  1  0
 50 61  1  0
 51 67  1  0
 52 57  1  0
 53 54  1  0
 53 52  1  0
 55 54  1  0
 55 72  1  0
 55 56  1  0
 57 51  1  0
 57 56  1  0
 58 51  2  0
 59 63  1  0
 60 61  1  0
 60 59  2  0
 61 62  2  0
 62 65  1  0
 62 66  1  0
 63 66  2  0
 63 67  1  0
 64 60  1  0
 67 68  1  0
 69 70  2  0
 70 89  1  0
 71 70  1  0
 71 74  1  0
 72 69  1  0
 72 73  1  0
 73 71  2  0
 74 75  1  0
 75 76  2  0
 77 80  1  0
 77 76  1  0
 78 77  2  0
 79 78  1  0
 79 74  2  0
 80 81  1  0
 81 82  1  0
 82 83  2  0
 84 83  1  0
 84 88  1  0
 85 84  2  0
 86 81  2  0
 86 85  1  0
 87 86  1  0
 89 90  1  0
 90 93  1  0
 90 92  1  0
 91 89  2  0
 94 95  1  0
 94 69  1  0
 96 94  1  0
M  ISO  4   8 101   9 101  51 100  67 100
M  END
>  <TORSDO>  (16) 
F 20

>  <SCORE>  (16) 
-14.119

>  <name>  (16) 
15

>  <ligand_id>  (16) 
15

>  <original_smiles>  (16) 
[H]c1c([H])c([H])c2c(c1[H])C([H])([H])C([H])([H])C([H])([H])C2([H])N([H])C(=O)C1([H])N(C(=O)C([H])(N([H])C(=O)C([H])(N([H])C([H])([H])[H])C([H])([H])[H])C(C([H])([H])[H])(C([H])([H])[H])C([H])([H])[H])C([H])([H])c2c([H])c(OC([H])(C([H])([H])[H])C([H])([H])[N+]([H])([H])C([H])(C([H])([H])[H])C([H])([H])c3c(C([H])([H])[H])nc(N([H])C(=O)N4C([H])([H])C([H])([H])C([H])([H])C([H])(n5nc(-c6c([H])c([H])c(Oc7c([H])c([H])c(F)c([H])c7F)c([H])c6[H])c(C(=O)N([H])[H])c5N([H])[H])C4([H])[H])c([H])c3C([H])([H])[H])c([H])c([H])c2C1([H])[H]

>  <smiles>  (16) 
[H]c1c([H])c([H])c2c(c1[H])C([H])([H])C([H])([H])C([H])([H])C2([H])N([H])C(=O)C1([H])N(C(=O)C([H])(N([H])C(=O)C([H])(N([H])C([H])([H])[H])C([H])([H])[H])C(C([H])([H])[H])(C([H])([H])[H])C([H])([H])[H])C([H])([H])c2c([H])c(OC([H])(C([H])([H])[H])C([H])([H])[N+]([H])([H])C([H])(C([H])([H])[H])C([H])([H])c3c(C([H])([H])[H])nc(N([H])C(=O)N4C([H])([H])C([H])([H])C([H])([H])C([H])(n5nc(-c6c([H])c([H])c(Oc7c([H])c([H])c(F)c([H])c7F)c([H])c6[H])c(C(=O)N([H])[H])c5N([H])[H])C4([H])[H])c([H])c3C([H])([H])[H])c([H])c([H])c2C1([H])[H]

$$$$
16:0:0
     RDKit          3D

 90 98  0  0  1  0  0  0  0  0999 V2000
  -28.7600  -21.9520   20.2860 N   0  0  2  0  0  4  0  0  0  0  0  0
  -29.1030  -21.9910   21.2350 H   0  0  0  0  0  0  0  0  0  0  0  0
  -31.0790  -15.7130   19.8690 C   0  0  0  0  0  0  0  0  0  0  0  0
  -30.9420  -13.2920   19.0220 C   0  0  0  0  0  2  0  0  0  0  0  0
  -29.9720  -13.0880   17.8360 C   0  0  0  0  0  2  0  0  0  0  0  0
  -28.5510  -12.8130   18.3500 C   0  0  0  0  0  2  0  0  0  0  0  0
  -28.1470  -13.7790   19.4920 C   0  0  0  0  0  3  0  0  0  0  0  0
  -29.2460  -13.9780   20.5580 C   0  0  0  0  0  2  0  0  0  0  0  0
  -30.4410  -14.4510   19.8450 N   0  0  0  0  0  0  0  0  0  0  0  0
  -32.2910  -15.6390   19.6230 O   0  0  0  0  0  0  0  0  0  0  0  0
  -28.6450  -19.0870   20.3660 C   0  0  0  0  0  2  0  0  0  0  0  0
  -30.7700  -19.9070   20.0470 C   0  0  0  0  0  2  0  0  0  0  0  0
  -29.0470  -17.5620   19.8860 C   0  0  0  0  0  2  0  0  0  0  0  0
  -31.2490  -18.3610   19.6420 C   0  0  0  0  0  2  0  0  0  0  0  0
  -29.2870  -20.4600   19.7630 C   0  0  0  0  0  3  0  0  0  0  0  0
  -30.4720  -17.0590   19.9360 N   0  0  0  0  0  0  0  0  0  0  0  0
  -25.8360  -14.2880   20.4430 C   0  0  0  0  0  0  0  0  0  0  0  0
  -24.8000  -13.4870   20.8350 C   0  0  0  0  0  0  0  0  0  0  0  0
  -25.2610  -12.1430   20.6900 C   0  0  0  0  0  0  0  0  0  0  0  0
  -26.8590  -13.4320   20.0770 N   0  0  0  0  0  0  0  0  0  0  0  0
  -26.5300  -12.1300   20.2930 N   0  0  0  0  0  0  0  0  0  0  0  0
  -24.5450  -10.8700   20.8500 C   0  0  0  0  0  0  0  0  0  0  0  0
  -24.9410   -9.9130   21.8100 C   0  0  0  0  0  3  0  0  0  0  0  0
  -24.2190   -8.7080   21.9600 C   0  0  0  0  0  3  0  0  0  0  0  0
  -23.0890   -8.4520   21.1490 C   0  0  0  0  0  0  0  0  0  0  0  0
  -22.7130   -9.3970   20.1780 C   0  0  0  0  0  3  0  0  0  0  0  0
  -23.4350  -10.5930   20.0260 C   0  0  0  0  0  3  0  0  0  0  0  0
  -22.3420   -7.3000   21.2090 O   0  0  0  0  0  0  0  0  0  0  0  0
  -22.0770   -6.6730   22.4020 C   0  0  0  0  0  0  0  0  0  0  0  0
  -21.3960   -7.3270   23.4510 C   0  0  0  0  0  3  0  0  0  0  0  0
  -21.0840   -6.6250   24.6320 C   0  0  0  0  0  3  0  0  0  0  0  0
  -21.4380   -5.2690   24.7620 C   0  0  0  0  0  0  0  0  0  0  0  0
  -22.1100   -4.6150   23.7140 C   0  0  0  0  0  3  0  0  0  0  0  0
  -22.4250   -5.3140   22.5360 C   0  0  0  0  0  0  0  0  0  0  0  0
  -23.0540   -4.6730   21.5210 F   0  0  0  0  0  0  0  0  0  0  0  0
  -21.1300   -4.5910   25.8910 F   0  0  0  0  0  0  0  0  0  0  0  0
  -23.4260  -13.9470   21.2190 C   0  0  0  0  0  0  0  0  0  0  0  0
  -22.7570  -13.2110   22.1000 N   0  0  0  0  0  0  0  0  0  0  0  0
  -22.9560  -14.9930   20.7740 O   0  0  0  0  0  0  0  0  0  0  0  0
  -23.1520  -12.3640   22.4820 H   0  0  0  0  0  0  0  0  0  0  0  0
  -21.8360  -13.4970   22.3980 H   0  0  0  0  0  0  0  0  0  0  0  0
  -25.9790  -15.6660   20.3380 N   0  0  0  0  0  0  0  0  0  0  0  0
  -25.2150  -16.2950   20.5550 H   0  0  0  0  0  0  0  0  0  0  0  0
  -26.7920  -16.1410   19.9700 H   0  0  0  0  0  0  0  0  0  0  0  0
  -26.7590  -21.4390   21.8280 C   0  0  0  0  0  1  0  0  0  0  0  0
  -26.4690  -21.5590   19.2300 C   0  0  0  0  0  1  0  0  0  0  0  0
  -27.2680  -21.9880   20.4790 C   0  0  0  0  0  3  0  0  0  0  0  0
  -29.1780  -23.4380   19.7210 C   0  0  0  0  0  3  0  0  0  0  0  0
  -28.3360  -24.9540   20.0330 C   0  0  0  0  0  3  0  0  0  0  0  0
  -28.4770  -26.4670   19.5120 O   0  0  0  0  0  0  0  0  0  0  0  0
  -24.7960  -31.9040   23.0810 C   0  0  0  0  0  0  0  0  0  0  0  0
  -27.4160  -27.4750   19.5980 C   0  0  0  0  0  0  0  0  0  0  0  0
  -23.6030  -30.6260   21.3470 C   0  0  0  0  0  3  0  0  0  0  0  0
  -25.0620  -29.2170   19.7580 C   0  0  0  0  0  0  0  0  0  0  0  0
  -26.1510  -30.9580   21.1620 C   0  0  0  0  0  2  0  0  0  0  0  0
  -26.2470  -29.6200   20.3870 C   0  0  0  0  0  0  0  0  0  0  0  0
  -27.4230  -28.7700   20.2880 C   0  0  0  0  0  3  0  0  0  0  0  0
  -26.2030  -27.2080   18.9270 C   0  0  0  0  0  3  0  0  0  0  0  0
  -25.0570  -28.0310   19.0100 C   0  0  0  0  0  3  0  0  0  0  0  0
  -23.8170  -30.0810   19.9090 C   0  0  0  0  0  2  0  0  0  0  0  0
  -24.8710  -31.1820   21.9200 N   0  0  0  0  0  0  0  0  0  0  0  0
  -23.7120  -32.1080   23.6530 O   0  0  0  0  0  0  0  0  0  0  0  0
  -22.9680  -29.5200   22.2290 C   0  0  0  0  0  0  0  0  0  0  0  0
  -21.6430  -29.3200   22.1150 N   0  0  0  0  0  0  0  0  0  0  0  0
  -23.6730  -28.8470   22.9860 O   0  0  0  0  0  0  0  0  0  0  0  0
  -21.1260  -29.9170   21.4840 H   0  0  0  0  0  0  0  0  0  0  0  0
  -18.2960  -28.0300   22.6470 C   0  0  0  0  0  0  0  0  0  0  0  0
  -20.8640  -28.2920   22.8150 C   0  0  0  0  0  3  0  0  0  0  0  0
  -20.9470  -26.9340   22.0780 C   0  0  0  0  0  2  0  0  0  0  0  0
  -19.7970  -26.7150   21.0890 C   0  0  0  0  0  2  0  0  0  0  0  0
  -18.4480  -26.7690   21.8140 C   0  0  0  0  0  2  0  0  0  0  0  0
  -19.4310  -28.7530   23.1040 C   0  0  0  0  0  0  0  0  0  0  0  0
  -19.2320  -29.9340   23.8510 C   0  0  0  0  0  3  0  0  0  0  0  0
  -17.9340  -30.3920   24.1450 C   0  0  0  0  0  3  0  0  0  0  0  0
  -16.8150  -29.6660   23.7030 C   0  0  0  0  0  3  0  0  0  0  0  0
  -16.9970  -28.4870   22.9580 C   0  0  0  0  0  3  0  0  0  0  0  0
  -26.0660  -32.5250   23.7390 C   0  0  0  0  0  3  0  0  0  0  0  0
  -26.6100  -31.6750   24.9530 C   0  0  1  0  0  0  0  0  0  0  0  0
  -25.5350  -31.3410   26.0130 C   0  0  0  0  0  1  0  0  0  0  0  0
  -27.2130  -30.3370   24.4640 C   0  0  0  0  0  1  0  0  0  0  0  0
  -27.7530  -32.4410   25.6590 C   0  0  0  0  0  1  0  0  0  0  0  0
  -25.7260  -33.8870   24.1830 N   0  0  0  0  0  0  0  0  0  0  0  0
  -25.9890  -35.0050   23.4940 C   0  0  0  0  0  0  0  0  0  0  0  0
  -26.6050  -35.0000   22.4260 O   0  0  0  0  0  0  0  0  0  0  0  0
  -25.1740  -33.9610   25.0250 H   0  0  0  0  0  0  0  0  0  0  0  0
  -24.1770  -36.7510   23.3880 C   0  0  0  0  0  1  0  0  0  0  0  0
  -25.4870  -36.3420   24.0790 C   0  0  0  0  0  3  0  0  0  0  0  0
  -27.6350  -37.2670   24.8310 C   0  0  0  0  0  1  0  0  0  0  0  0
  -26.4700  -37.4420   23.9660 N   0  0  0  0  0  0  0  0  0  0  0  0
  -26.0380  -38.3340   24.1940 H   0  0  0  0  0  0  0  0  0  0  0  0
  1 47  1  0
  1  2  1  1
  3 16  1  0
  4  9  1  0
  5  6  1  0
  5  4  1  0
  7  6  1  0
  7 20  1  0
  7  8  1  0
  9  3  1  0
  9  8  1  0
 10  3  2  0
 13 16  1  0
 13 11  1  0
 14 16  1  0
 14 12  1  0
 15 12  1  0
 15  1  1  0
 15 11  1  0
 17 18  2  0
 18 37  1  0
 19 18  1  0
 19 22  1  0
 20 21  1  0
 20 17  1  0
 21 19  2  0
 22 23  1  0
 23 24  2  0
 25 28  1  0
 25 24  1  0
 26 25  2  0
 27 26  1  0
 27 22  2  0
 28 29  1  0
 29 34  2  0
 29 30  1  0
 30 31  2  0
 31 32  1  0
 32 36  1  0
 33 32  2  0
 34 33  1  0
 35 34  1  0
 37 38  1  0
 38 41  1  0
 38 40  1  0
 39 37  2  0
 42 17  1  0
 42 43  1  0
 44 42  1  0
 46 47  1  0
 47 45  1  0
 48 49  2  0
 48  1  1  0
 50 52  1  0
 50 49  1  0
 51 62  2  0
 52 57  1  0
 53 61  1  0
 53 63  1  0
 54 60  1  0
 54 56  1  0
 55 61  1  0
 56 55  1  0
 57 56  2  0
 58 59  1  0
 58 52  2  0
 59 54  2  0
 60 53  1  0
 61 51  1  0
 63 65  2  0
 64 63  1  0
 66 64  1  0
 67 76  2  0
 67 72  1  0
 68 64  1  0
 68 72  1  0
 69 68  1  0
 70 71  1  0
 70 69  1  0
 71 67  1  0
 72 73  2  0
 73 74  1  0
 75 74  2  0
 76 75  1  0
 77 51  1  0
 77 82  1  0
 77 78  1  0
 78 81  1  1
 78 79  1  0
 80 78  1  0
 82 85  1  0
 83 87  1  0
 83 82  1  0
 84 83  2  0
 87 86  1  0
 89 87  1  0
 89 90  1  0
 89 88  1  0
M  ISO  4   3 100  16 100  49 101  50 101
M  END
>  <TORSDO>  (17) 
F 19

>  <SCORE>  (17) 
-10.454

>  <name>  (17) 
16

>  <ligand_id>  (17) 
16

>  <original_smiles>  (17) 
[H]c1c([H])c([H])c2c(c1[H])C([H])([H])C([H])([H])C([H])([H])C2([H])N([H])C(=O)C1([H])N(C(=O)C([H])(N([H])C(=O)C([H])(N([H])C([H])([H])[H])C([H])([H])[H])C(C([H])([H])[H])(C([H])([H])[H])C([H])([H])[H])C([H])([H])c2c([H])c(OC([H])([H])C([H])([H])[N+]([H])(C([H])(C([H])([H])[H])C([H])([H])[H])C3([H])C([H])([H])C([H])([H])N(C(=O)N4C([H])([H])C([H])([H])C([H])([H])C([H])(n5nc(-c6c([H])c([H])c(Oc7c([H])c([H])c(F)c([H])c7F)c([H])c6[H])c(C(=O)N([H])[H])c5N([H])[H])C4([H])[H])C([H])([H])C3([H])[H])c([H])c([H])c2C1([H])[H]

>  <smiles>  (17) 
[H]c1c([H])c([H])c2c(c1[H])C([H])([H])C([H])([H])C([H])([H])C2([H])N([H])C(=O)C1([H])N(C(=O)C([H])(N([H])C(=O)C([H])(N([H])C([H])([H])[H])C([H])([H])[H])C(C([H])([H])[H])(C([H])([H])[H])C([H])([H])[H])C([H])([H])c2c([H])c(OC([H])([H])C([H])([H])[N+]([H])(C([H])(C([H])([H])[H])C([H])([H])[H])C3([H])C([H])([H])C([H])([H])N(C(=O)N4C([H])([H])C([H])([H])C([H])([H])C([H])(n5nc(-c6c([H])c([H])c(Oc7c([H])c([H])c(F)c([H])c7F)c([H])c6[H])c(C(=O)N([H])[H])c5N([H])[H])C4([H])[H])C([H])([H])C3([H])[H])c([H])c([H])c2C1([H])[H]

$$$$
17:0:0
     RDKit          3D

 94102  0  0  1  0  0  0  0  0999 V2000
  -29.8460  -22.1250   18.9550 C   0  0  0  0  0  3  0  0  0  0  0  0
  -30.2140  -20.6900   18.9590 C   0  0  0  0  0  3  0  0  0  0  0  0
  -27.9160  -21.5900   20.0680 C   0  0  0  0  0  3  0  0  0  0  0  0
  -28.6530  -22.7240   19.5200 C   0  0  0  0  0  0  0  0  0  0  0  0
  -29.4870  -19.5460   19.4990 C   0  0  0  0  0  0  0  0  0  0  0  0
  -28.2770  -20.1410   20.0840 C   0  0  0  0  0  0  0  0  0  0  0  0
  -27.2920  -19.2530   20.8260 C   0  0  0  0  0  2  0  0  0  0  0  0
  -26.4320  -18.3480   19.9280 C   0  0  0  0  0  2  0  0  0  0  0  0
  -25.3380  -19.0540   19.1160 C   0  0  0  0  0  2  0  0  0  0  0  0
  -24.2810  -18.1020   18.7280 N   0  0  0  0  0  4  0  0  0  0  0  0
  -24.6730  -17.2590   18.3260 H   0  0  0  0  0  0  0  0  0  0  0  0
  -23.6550  -18.5200   18.0640 H   0  0  0  0  0  0  0  0  0  0  0  0
  -23.7440  -17.8320   19.5330 H   0  0  0  0  0  0  0  0  0  0  0  0
  -30.1970  -17.9430   19.4320 C   0  0  0  0  0  2  0  0  0  0  0  0
  -30.7170  -15.1500   19.7130 C   0  0  0  0  0  0  0  0  0  0  0  0
  -30.6470  -12.6860   18.9370 C   0  0  0  0  0  2  0  0  0  0  0  0
  -29.6460  -12.4480   17.7780 C   0  0  0  0  0  2  0  0  0  0  0  0
  -28.2280  -12.1960   18.3170 C   0  0  0  0  0  2  0  0  0  0  0  0
  -27.8520  -13.1910   19.4440 C   0  0  0  0  0  3  0  0  0  0  0  0
  -28.9720  -13.3460   20.4920 C   0  0  0  0  0  2  0  0  0  0  0  0
  -30.1630  -13.8420   19.7760 N   0  0  0  0  0  0  0  0  0  0  0  0
  -31.8540  -15.1780   19.2210 O   0  0  0  0  0  0  0  0  0  0  0  0
  -29.6850  -16.4460   21.4580 C   0  0  0  0  0  1  0  0  0  0  0  0
  -30.0110  -16.4090   20.0300 N   0  0  0  0  0  0  0  0  0  0  0  0
  -25.5560  -13.7610   20.4050 C   0  0  0  0  0  0  0  0  0  0  0  0
  -24.5200  -12.9820   20.8430 C   0  0  0  0  0  0  0  0  0  0  0  0
  -24.9620  -11.6280   20.7260 C   0  0  0  0  0  0  0  0  0  0  0  0
  -26.5640  -12.8820   20.0510 N   0  0  0  0  0  0  0  0  0  0  0  0
  -26.2220  -11.5910   20.3050 N   0  0  0  0  0  0  0  0  0  0  0  0
  -24.2340  -10.3670   20.9320 C   0  0  0  0  0  0  0  0  0  0  0  0
  -24.6420   -9.4270   21.9040 C   0  0  0  0  0  3  0  0  0  0  0  0
  -23.9110   -8.2340   22.1000 C   0  0  0  0  0  3  0  0  0  0  0  0
  -22.7580   -7.9710   21.3220 C   0  0  0  0  0  0  0  0  0  0  0  0
  -22.3700   -8.8990   20.3390 C   0  0  0  0  0  3  0  0  0  0  0  0
  -23.1000  -10.0830   20.1430 C   0  0  0  0  0  3  0  0  0  0  0  0
  -22.0030   -6.8290   21.4240 O   0  0  0  0  0  0  0  0  0  0  0  0
  -21.8430   -6.1750   22.6200 C   0  0  0  0  0  0  0  0  0  0  0  0
  -21.2820   -6.8140   23.7490 C   0  0  0  0  0  3  0  0  0  0  0  0
  -21.0710   -6.0860   24.9370 C   0  0  0  0  0  3  0  0  0  0  0  0
  -21.4110   -4.7220   24.9970 C   0  0  0  0  0  0  0  0  0  0  0  0
  -21.9650   -4.0830   23.8740 C   0  0  0  0  0  3  0  0  0  0  0  0
  -22.1780   -4.8070   22.6880 C   0  0  0  0  0  0  0  0  0  0  0  0
  -22.6920   -4.1830   21.6010 F   0  0  0  0  0  0  0  0  0  0  0  0
  -21.2020   -4.0200   26.1360 F   0  0  0  0  0  0  0  0  0  0  0  0
  -23.1610  -13.4660   21.2490 C   0  0  0  0  0  0  0  0  0  0  0  0
  -22.5190  -12.7750   22.1840 N   0  0  0  0  0  0  0  0  0  0  0  0
  -22.6850  -14.4950   20.7710 O   0  0  0  0  0  0  0  0  0  0  0  0
  -22.9240  -11.9450   22.5900 H   0  0  0  0  0  0  0  0  0  0  0  0
  -21.6100  -13.0820   22.5000 H   0  0  0  0  0  0  0  0  0  0  0  0
  -25.7000  -15.1400   20.2310 N   0  0  0  0  0  0  0  0  0  0  0  0
  -24.8370  -15.4620   19.8040 H   0  0  0  0  0  0  0  0  0  0  0  0
  -26.4840  -15.3560   19.6270 H   0  0  0  0  0  0  0  0  0  0  0  0
  -28.0140  -24.3140   19.2520 C   0  0  0  0  0  2  0  0  0  0  0  0
  -28.3720  -25.8380   19.6820 O   0  0  0  0  0  0  0  0  0  0  0  0
  -24.7590  -31.5400   22.9830 C   0  0  0  0  0  0  0  0  0  0  0  0
  -27.3720  -26.9330   19.6660 C   0  0  0  0  0  0  0  0  0  0  0  0
  -23.5870  -30.2510   21.2440 C   0  0  0  0  0  3  0  0  0  0  0  0
  -25.0590  -28.7730   19.7240 C   0  0  0  0  0  0  0  0  0  0  0  0
  -26.1510  -30.5040   21.1310 C   0  0  0  0  0  2  0  0  0  0  0  0
  -26.2370  -29.1480   20.3820 C   0  0  0  0  0  0  0  0  0  0  0  0
  -27.3910  -28.2490   20.3340 C   0  0  0  0  0  3  0  0  0  0  0  0
  -26.1640  -26.7100   18.9640 C   0  0  0  0  0  3  0  0  0  0  0  0
  -25.0450  -27.5750   18.9970 C   0  0  0  0  0  3  0  0  0  0  0  0
  -23.8310  -29.6740   19.8240 C   0  0  0  0  0  2  0  0  0  0  0  0
  -24.8540  -30.7860   21.8410 N   0  0  0  0  0  0  0  0  0  0  0  0
  -23.6630  -31.7840   23.5140 O   0  0  0  0  0  0  0  0  0  0  0  0
  -22.8990  -29.1810   22.1310 C   0  0  0  0  0  0  0  0  0  0  0  0
  -21.5630  -29.0560   22.0300 N   0  0  0  0  0  0  0  0  0  0  0  0
  -23.5730  -28.4670   22.8790 O   0  0  0  0  0  0  0  0  0  0  0  0
  -21.0740  -29.6840   21.4090 H   0  0  0  0  0  0  0  0  0  0  0  0
  -18.1590  -27.9310   22.5840 C   0  0  0  0  0  0  0  0  0  0  0  0
  -20.7380  -28.0690   22.7350 C   0  0  0  0  0  3  0  0  0  0  0  0
  -20.7480  -26.7070   22.0020 C   0  0  0  0  0  2  0  0  0  0  0  0
  -19.5840  -26.5420   21.0200 C   0  0  0  0  0  2  0  0  0  0  0  0
  -18.2430  -26.6640   21.7500 C   0  0  0  0  0  2  0  0  0  0  0  0
  -19.3290  -28.5990   23.0330 C   0  0  0  0  0  0  0  0  0  0  0  0
  -19.1950  -29.7890   23.7790 C   0  0  0  0  0  3  0  0  0  0  0  0
  -17.9230  -30.3130   24.0780 C   0  0  0  0  0  3  0  0  0  0  0  0
  -16.7670  -29.6410   23.6410 C   0  0  0  0  0  3  0  0  0  0  0  0
  -16.8860  -28.4510   22.9010 C   0  0  0  0  0  3  0  0  0  0  0  0
  -26.0200  -32.1470   23.6660 C   0  0  0  0  0  3  0  0  0  0  0  0
  -25.6670  -33.4890   24.1580 N   0  0  0  0  0  0  0  0  0  0  0  0
  -25.9570  -34.6380   23.5320 C   0  0  0  0  0  0  0  0  0  0  0  0
  -26.6170  -34.6800   22.4900 O   0  0  0  0  0  0  0  0  0  0  0  0
  -25.0790  -33.5280   24.9780 H   0  0  0  0  0  0  0  0  0  0  0  0
  -24.1590  -36.3970   23.4400 C   0  0  0  0  0  1  0  0  0  0  0  0
  -25.4370  -35.9470   24.1620 C   0  0  0  0  0  3  0  0  0  0  0  0
  -27.5610  -36.8180   25.0360 C   0  0  0  0  0  1  0  0  0  0  0  0
  -26.4290  -37.0440   24.1430 N   0  0  0  0  0  0  0  0  0  0  0  0
  -25.9940  -37.9260   24.3990 H   0  0  0  0  0  0  0  0  0  0  0  0
  -26.5700  -31.2600   24.8520 C   0  0  1  0  0  0  0  0  0  0  0  0
  -25.4940  -30.8870   25.8990 C   0  0  0  0  0  1  0  0  0  0  0  0
  -27.1820  -29.9440   24.3210 C   0  0  0  0  0  1  0  0  0  0  0  0
  -27.7070  -32.0110   25.5840 C   0  0  0  0  0  1  0  0  0  0  0  0
  1  2  2  0
  1  4  1  0
  2  5  1  0
  3  6  1  0
  4  3  2  0
  5  6  2  0
  6  7  1  0
  8  7  1  0
  9  8  1  0
 10  9  1  0
 10 13  1  0
 11 10  1  0
 12 10  1  0
 14  5  1  0
 14 24  1  0
 15 21  1  0
 15 24  1  0
 16 21  1  0
 17 18  1  0
 17 16  1  0
 19 18  1  0
 19 28  1  0
 19 20  1  0
 21 20  1  0
 22 15  2  0
 24 23  1  0
 25 26  2  0
 26 45  1  0
 27 26  1  0
 27 30  1  0
 28 29  1  0
 28 25  1  0
 29 27  2  0
 30 31  1  0
 31 32  2  0
 33 36  1  0
 33 32  1  0
 34 33  2  0
 35 34  1  0
 35 30  2  0
 36 37  1  0
 37 42  2  0
 37 38  1  0
 38 39  2  0
 39 40  1  0
 40 44  1  0
 41 40  2  0
 42 41  1  0
 43 42  1  0
 45 46  1  0
 46 49  1  0
 46 48  1  0
 47 45  2  0
 50 25  1  0
 51 50  1  0
 52 50  1  0
 53  4  1  0
 53 54  1  0
 55 66  2  0
 56 54  1  0
 56 61  1  0
 57 65  1  0
 57 67  1  0
 58 64  1  0
 58 60  1  0
 59 65  1  0
 60 59  1  0
 61 60  2  0
 62 63  1  0
 62 56  2  0
 63 58  2  0
 64 57  1  0
 65 55  1  0
 67 69  2  0
 68 67  1  0
 70 68  1  0
 71 80  2  0
 71 76  1  0
 72 68  1  0
 72 76  1  0
 73 72  1  0
 74 75  1  0
 74 73  1  0
 75 71  1  0
 76 77  2  0
 77 78  1  0
 79 78  2  0
 80 79  1  0
 81 55  1  0
 81 82  1  0
 81 91  1  0
 82 85  1  0
 83 82  1  0
 83 87  1  0
 84 83  2  0
 87 86  1  0
 89 87  1  0
 89 90  1  0
 89 88  1  0
 91 94  1  1
 91 92  1  0
 93 91  1  0
M  ISO  4  15 100  24 100  53 101  54 101
M  END
>  <TORSDO>  (18) 
F 22

>  <SCORE>  (18) 
-10.118

>  <name>  (18) 
17

>  <ligand_id>  (18) 
17

>  <original_smiles>  (18) 
[H]c1c([H])c([H])c2c(c1[H])C([H])([H])C([H])([H])C([H])([H])C2([H])N([H])C(=O)C1([H])N(C(=O)C([H])(N([H])C(=O)C([H])(N([H])C([H])([H])[H])C([H])([H])[H])C(C([H])([H])[H])(C([H])([H])[H])C([H])([H])[H])C([H])([H])c2c([H])c(OC([H])([H])c3c([H])c([H])c(C([H])([H])N(C(=O)N4C([H])([H])C([H])([H])C([H])([H])C([H])(n5nc(-c6c([H])c([H])c(Oc7c([H])c([H])c(F)c([H])c7F)c([H])c6[H])c(C(=O)N([H])[H])c5N([H])[H])C4([H])[H])C([H])([H])[H])c(C([H])([H])C([H])([H])C([H])([H])[N+]([H])([H])[H])c3[H])c([H])c([H])c2C1([H])[H]

>  <smiles>  (18) 
[H]c1c([H])c([H])c2c(c1[H])C([H])([H])C([H])([H])C([H])([H])C2([H])N([H])C(=O)C1([H])N(C(=O)C([H])(N([H])C(=O)C([H])(N([H])C([H])([H])[H])C([H])([H])[H])C(C([H])([H])[H])(C([H])([H])[H])C([H])([H])[H])C([H])([H])c2c([H])c(OC([H])([H])c3c([H])c([H])c(C([H])([H])N(C(=O)N4C([H])([H])C([H])([H])C([H])([H])C([H])(n5nc(-c6c([H])c([H])c(Oc7c([H])c([H])c(F)c([H])c7F)c([H])c6[H])c(C(=O)N([H])[H])c5N([H])[H])C4([H])[H])C([H])([H])[H])c(C([H])([H])C([H])([H])C([H])([H])[N+]([H])([H])[H])c3[H])c([H])c([H])c2C1([H])[H]

$$$$
18:0:0
     RDKit          3D

 94102  0  0  1  0  0  0  0  0999 V2000
  -29.0750  -19.0980   20.5060 C   0  0  0  0  0  2  0  0  0  0  0  0
  -30.3450  -19.5970   18.4370 C   0  0  0  0  0  2  0  0  0  0  0  0
  -30.3550  -18.5290   21.1500 C   0  0  0  0  0  2  0  0  0  0  0  0
  -31.6390  -19.0970   19.1190 C   0  0  0  0  0  2  0  0  0  0  0  0
  -29.0230  -18.9820   18.9660 C   0  0  1  0  0  0  0  0  0  0  0  0
  -31.5700  -19.1870   20.6030 N   0  0  2  0  0  4  0  0  0  0  0  0
  -31.4480  -20.1650   20.8190 H   0  0  0  0  0  0  0  0  0  0  0  0
  -30.0650  -15.9590   18.8560 C   0  0  0  0  0  0  0  0  0  0  0  0
  -30.2790  -13.3540   18.3690 C   0  0  0  0  0  2  0  0  0  0  0  0
  -29.3110  -12.7270   17.3290 C   0  0  0  0  0  2  0  0  0  0  0  0
  -27.9600  -12.3710   17.9710 C   0  0  0  0  0  2  0  0  0  0  0  0
  -27.4730  -13.4860   18.9240 C   0  0  0  0  0  3  0  0  0  0  0  0
  -28.5780  -14.0100   19.8680 C   0  0  0  0  0  2  0  0  0  0  0  0
  -29.6290  -14.5820   18.9960 N   0  0  0  0  0  0  0  0  0  0  0  0
  -31.2990  -15.9750   18.6980 O   0  0  0  0  0  0  0  0  0  0  0  0
  -29.1920  -17.2320   18.7080 N   0  0  0  0  0  0  0  0  0  0  0  0
  -28.2640  -16.8770   18.5300 H   0  0  0  0  0  0  0  0  0  0  0  0
  -25.2650  -14.0190   20.0650 C   0  0  0  0  0  0  0  0  0  0  0  0
  -24.2480  -13.2370   20.5340 C   0  0  0  0  0  0  0  0  0  0  0  0
  -24.6730  -11.8850   20.3520 C   0  0  0  0  0  0  0  0  0  0  0  0
  -26.2380  -13.1460   19.6170 N   0  0  0  0  0  0  0  0  0  0  0  0
  -25.9060  -11.8510   19.8560 N   0  0  0  0  0  0  0  0  0  0  0  0
  -23.9460  -10.6250   20.5670 C   0  0  0  0  0  0  0  0  0  0  0  0
  -24.3710   -9.6780   21.5240 C   0  0  0  0  0  3  0  0  0  0  0  0
  -23.6400   -8.4870   21.7260 C   0  0  0  0  0  3  0  0  0  0  0  0
  -22.4700   -8.2340   20.9710 C   0  0  0  0  0  0  0  0  0  0  0  0
  -22.0640   -9.1710   20.0040 C   0  0  0  0  0  3  0  0  0  0  0  0
  -22.7950  -10.3520   19.7990 C   0  0  0  0  0  3  0  0  0  0  0  0
  -21.7120   -7.0930   21.0820 O   0  0  0  0  0  0  0  0  0  0  0  0
  -21.5250   -6.4670   22.2890 C   0  0  0  0  0  0  0  0  0  0  0  0
  -20.9100   -7.1210   23.3790 C   0  0  0  0  0  3  0  0  0  0  0  0
  -20.6740   -6.4180   24.5780 C   0  0  0  0  0  3  0  0  0  0  0  0
  -21.0430   -5.0650   24.6850 C   0  0  0  0  0  0  0  0  0  0  0  0
  -21.6510   -4.4100   23.5990 C   0  0  0  0  0  3  0  0  0  0  0  0
  -21.8870   -5.1100   22.4030 C   0  0  0  0  0  0  0  0  0  0  0  0
  -22.4540   -4.4700   21.3520 F   0  0  0  0  0  0  0  0  0  0  0  0
  -20.8100   -4.3880   25.8350 F   0  0  0  0  0  0  0  0  0  0  0  0
  -22.9140  -13.7210   21.0230 C   0  0  0  0  0  0  0  0  0  0  0  0
  -22.3090  -13.0030   21.9620 N   0  0  0  0  0  0  0  0  0  0  0  0
  -22.4260  -14.7710   20.6070 O   0  0  0  0  0  0  0  0  0  0  0  0
  -22.7220  -12.1530   22.3170 H   0  0  0  0  0  0  0  0  0  0  0  0
  -21.4210  -13.3090   22.3310 H   0  0  0  0  0  0  0  0  0  0  0  0
  -25.4330  -15.3960   19.9470 N   0  0  0  0  0  0  0  0  0  0  0  0
  -24.6910  -16.0450   20.1870 H   0  0  0  0  0  0  0  0  0  0  0  0
  -26.2050  -15.8390   19.4690 H   0  0  0  0  0  0  0  0  0  0  0  0
  -33.7180  -20.0200   21.6030 C   0  0  0  0  0  1  0  0  0  0  0  0
  -33.6200  -17.6720   20.6260 C   0  0  0  0  0  1  0  0  0  0  0  0
  -32.8240  -18.7990   21.3200 C   0  0  0  0  0  3  0  0  0  0  0  0
  -27.7690  -20.3770   18.5460 C   0  0  0  0  0  2  0  0  0  0  0  0
  -25.8070  -22.1490   18.0670 C   0  0  0  0  0  1  0  0  0  0  0  0
  -26.3630  -21.7290   20.4450 C   0  0  0  0  0  1  0  0  0  0  0  0
  -26.9720  -22.0770   19.0770 C   0  0  1  0  0  0  0  0  0  0  0  0
  -27.2570  -23.9730   19.2490 C   0  0  0  0  0  2  0  0  0  0  0  0
  -26.8180  -25.5890   18.7210 O   0  0  0  0  0  0  0  0  0  0  0  0
  -23.9480  -31.5480   22.8150 C   0  0  0  0  0  0  0  0  0  0  0  0
  -25.8480  -26.7410   19.0610 C   0  0  0  0  0  0  0  0  0  0  0  0
  -22.4860  -30.3260   21.2620 C   0  0  0  0  0  3  0  0  0  0  0  0
  -23.6540  -28.7860   19.5200 C   0  0  0  0  0  0  0  0  0  0  0  0
  -25.0190  -30.4430   20.7620 C   0  0  0  0  0  2  0  0  0  0  0  0
  -24.9410  -29.0740   19.9890 C   0  0  0  0  0  0  0  0  0  0  0  0
  -26.0220  -28.0850   19.7220 C   0  0  0  0  0  3  0  0  0  0  0  0
  -24.5210  -26.6530   18.5720 C   0  0  0  0  0  3  0  0  0  0  0  0
  -23.4760  -27.6010   18.7860 C   0  0  0  0  0  3  0  0  0  0  0  0
  -22.4960  -29.7510   19.8170 C   0  0  0  0  0  2  0  0  0  0  0  0
  -23.8510  -30.8000   21.6630 N   0  0  0  0  0  0  0  0  0  0  0  0
  -22.9540  -31.8180   23.5100 O   0  0  0  0  0  0  0  0  0  0  0  0
  -21.8950  -29.2750   22.2400 C   0  0  0  0  0  0  0  0  0  0  0  0
  -20.5720  -29.0280   22.1780 N   0  0  0  0  0  0  0  0  0  0  0  0
  -22.6370  -28.6800   23.0250 O   0  0  0  0  0  0  0  0  0  0  0  0
  -20.0190  -29.5630   21.5220 H   0  0  0  0  0  0  0  0  0  0  0  0
  -17.3600  -27.4010   22.6590 C   0  0  0  0  0  0  0  0  0  0  0  0
  -19.8550  -28.0180   22.9650 C   0  0  0  0  0  3  0  0  0  0  0  0
  -20.1600  -26.5920   22.4470 C   0  0  0  0  0  2  0  0  0  0  0  0
  -19.1380  -26.0920   21.4210 C   0  0  0  0  0  2  0  0  0  0  0  0
  -17.7330  -26.0690   22.0300 C   0  0  0  0  0  2  0  0  0  0  0  0
  -18.3550  -28.3220   23.0820 C   0  0  0  0  0  0  0  0  0  0  0  0
  -17.9530  -29.5560   23.6350 C   0  0  0  0  0  3  0  0  0  0  0  0
  -16.5880  -29.8770   23.7640 C   0  0  0  0  0  3  0  0  0  0  0  0
  -15.6080  -28.9570   23.3530 C   0  0  0  0  0  3  0  0  0  0  0  0
  -15.9940  -27.7210   22.8070 C   0  0  0  0  0  3  0  0  0  0  0  0
  -25.3120  -32.1140   23.3120 C   0  0  0  0  0  3  0  0  0  0  0  0
  -25.9780  -31.2250   24.4350 C   0  0  1  0  0  0  0  0  0  0  0  0
  -25.0410  -30.9200   25.6280 C   0  0  0  0  0  1  0  0  0  0  0  0
  -26.4530  -29.8710   23.8620 C   0  0  0  0  0  1  0  0  0  0  0  0
  -27.2390  -31.9330   24.9850 C   0  0  0  0  0  1  0  0  0  0  0  0
  -25.0850  -33.4780   23.8260 N   0  0  0  0  0  0  0  0  0  0  0  0
  -25.4140  -34.6100   23.1880 C   0  0  0  0  0  0  0  0  0  0  0  0
  -26.0000  -34.6120   22.1030 O   0  0  0  0  0  0  0  0  0  0  0  0
  -24.5590  -33.5520   24.6850 H   0  0  0  0  0  0  0  0  0  0  0  0
  -23.7630  -36.5150   23.2090 C   0  0  0  0  0  1  0  0  0  0  0  0
  -25.0390  -35.9500   23.8570 C   0  0  0  0  0  3  0  0  0  0  0  0
  -27.2710  -36.6380   24.6200 C   0  0  0  0  0  1  0  0  0  0  0  0
  -26.1140  -36.9650   23.7900 N   0  0  0  0  0  0  0  0  0  0  0  0
  -25.7680  -37.8760   24.0780 H   0  0  0  0  0  0  0  0  0  0  0  0
  1  3  1  0
  2  5  1  0
  2  4  1  0
  4  6  1  0
  5  1  1  0
  6  7  1  6
  6  3  1  0
  6 48  1  0
  8 14  1  0
  9 14  1  0
 10 11  1  0
 10  9  1  0
 12 11  1  0
 12 21  1  0
 12 13  1  0
 14 13  1  0
 15  8  2  0
 16  8  1  0
 16  5  1  0
 17 16  1  0
 18 19  2  0
 19 38  1  0
 20 19  1  0
 20 23  1  0
 21 22  1  0
 21 18  1  0
 22 20  2  0
 23 24  1  0
 24 25  2  0
 26 29  1  0
 26 25  1  0
 27 26  2  0
 28 27  1  0
 28 23  2  0
 29 30  1  0
 30 35  2  0
 30 31  1  0
 31 32  2  0
 32 33  1  0
 33 37  1  0
 34 33  2  0
 35 34  1  0
 36 35  1  0
 38 39  1  0
 39 41  1  0
 39 42  1  0
 40 38  2  0
 43 18  1  0
 43 44  1  0
 45 43  1  0
 47 48  1  0
 48 46  1  0
  5 49  1  6
 49 52  1  0
 52 50  1  6
 52 53  1  0
 52 51  1  0
 54 56  1  0
 54 53  1  0
 55 66  2  0
 56 61  1  0
 57 65  1  0
 57 67  1  0
 58 64  1  0
 58 60  1  0
 59 65  1  0
 60 59  1  0
 61 60  2  0
 62 63  1  0
 62 56  2  0
 63 58  2  0
 64 57  1  0
 65 55  1  0
 67 69  2  0
 68 67  1  0
 70 68  1  0
 71 80  2  0
 71 76  1  0
 72 68  1  0
 72 76  1  0
 73 72  1  0
 74 75  1  0
 74 73  1  0
 75 71  1  0
 76 77  2  0
 77 78  1  0
 79 78  2  0
 80 79  1  0
 81 55  1  0
 81 86  1  0
 81 82  1  0
 82 85  1  1
 82 83  1  0
 84 82  1  0
 86 89  1  0
 87 86  1  0
 87 91  1  0
 88 87  2  0
 91 90  1  0
 93 91  1  0
 93 94  1  0
 93 92  1  0
M  ISO  4   8 100  16 100  53 101  54 101
M  END
>  <TORSDO>  (19) 
F 20

>  <SCORE>  (19) 
-10.136

>  <name>  (19) 
18

>  <ligand_id>  (19) 
18

>  <original_smiles>  (19) 
[H]c1c([H])c([H])c2c(c1[H])C([H])([H])C([H])([H])C([H])([H])C2([H])N([H])C(=O)C1([H])N(C(=O)C([H])(N([H])C(=O)C([H])(N([H])C([H])([H])[H])C([H])([H])[H])C(C([H])([H])[H])(C([H])([H])[H])C([H])([H])[H])C([H])([H])c2c([H])c(OC([H])([H])C(C([H])([H])[H])(C([H])([H])[H])C([H])([H])C3(N([H])C(=O)N4C([H])([H])C([H])([H])C([H])([H])C([H])(n5nc(-c6c([H])c([H])c(Oc7c([H])c([H])c(F)c([H])c7F)c([H])c6[H])c(C(=O)N([H])[H])c5N([H])[H])C4([H])[H])C([H])([H])C([H])([H])[N+]([H])(C([H])(C([H])([H])[H])C([H])([H])[H])C([H])([H])C3([H])[H])c([H])c([H])c2C1([H])[H]

>  <smiles>  (19) 
[H]c1c([H])c([H])c2c(c1[H])C([H])([H])C([H])([H])C([H])([H])C2([H])N([H])C(=O)C1([H])N(C(=O)C([H])(N([H])C(=O)C([H])(N([H])C([H])([H])[H])C([H])([H])[H])C(C([H])([H])[H])(C([H])([H])[H])C([H])([H])[H])C([H])([H])c2c([H])c(OC([H])([H])C(C([H])([H])[H])(C([H])([H])[H])C([H])([H])C3(N([H])C(=O)N4C([H])([H])C([H])([H])C([H])([H])C([H])(n5nc(-c6c([H])c([H])c(Oc7c([H])c([H])c(F)c([H])c7F)c([H])c6[H])c(C(=O)N([H])[H])c5N([H])[H])C4([H])[H])C([H])([H])C([H])([H])[N+]([H])(C([H])(C([H])([H])[H])C([H])([H])[H])C([H])([H])C3([H])[H])c([H])c([H])c2C1([H])[H]

$$$$
19:0:0
     RDKit          3D

 92100  0  0  1  0  0  0  0  0999 V2000
  -29.5010  -20.7590   19.6530 N   0  0  2  0  0  4  0  0  0  0  0  0
  -28.5840  -20.7180   19.2430 H   0  0  0  0  0  0  0  0  0  0  0  0
  -30.6370  -14.8020   20.3520 C   0  0  0  0  0  0  0  0  0  0  0  0
  -30.3120  -12.5040   19.3770 C   0  0  0  0  0  2  0  0  0  0  0  0
  -29.3810  -12.5520   18.1490 C   0  0  0  0  0  2  0  0  0  0  0  0
  -27.9210  -12.3670   18.5940 C   0  0  0  0  0  2  0  0  0  0  0  0
  -27.5510  -13.2830   19.7900 C   0  0  0  0  0  3  0  0  0  0  0  0
  -28.6230  -13.2930   20.9030 C   0  0  0  0  0  2  0  0  0  0  0  0
  -29.9090  -13.6200   20.2760 N   0  0  0  0  0  0  0  0  0  0  0  0
  -31.8400  -14.7530   20.0950 O   0  0  0  0  0  0  0  0  0  0  0  0
  -30.8660  -18.6310   20.7650 C   0  0  0  0  0  2  0  0  0  0  0  0
  -28.9290  -18.1500   19.4320 C   0  0  0  0  0  2  0  0  0  0  0  0
  -30.7790  -17.1470   21.3790 C   0  0  0  0  0  2  0  0  0  0  0  0
  -28.8460  -16.6570   19.9900 C   0  0  0  0  0  2  0  0  0  0  0  0
  -29.5050  -19.3220   20.3390 C   0  0  0  0  0  3  0  0  0  0  0  0
  -30.0600  -16.0640   20.6190 N   0  0  0  0  0  0  0  0  0  0  0  0
  -25.1880  -13.8930   20.5520 C   0  0  0  0  0  0  0  0  0  0  0  0
  -24.1170  -13.1240   20.9170 C   0  0  0  0  0  0  0  0  0  0  0  0
  -24.5740  -11.7720   20.8770 C   0  0  0  0  0  0  0  0  0  0  0  0
  -26.2210  -13.0040   20.3020 N   0  0  0  0  0  0  0  0  0  0  0  0
  -25.8620  -11.7250   20.5670 N   0  0  0  0  0  0  0  0  0  0  0  0
  -23.8430  -10.5120   21.0560 C   0  0  0  0  0  0  0  0  0  0  0  0
  -24.2650   -9.5390   21.9890 C   0  0  0  0  0  3  0  0  0  0  0  0
  -23.5310   -8.3450   22.1570 C   0  0  0  0  0  3  0  0  0  0  0  0
  -22.3630   -8.1160   21.3910 C   0  0  0  0  0  0  0  0  0  0  0  0
  -21.9610   -9.0790   20.4480 C   0  0  0  0  0  3  0  0  0  0  0  0
  -22.6960  -10.2630   20.2770 C   0  0  0  0  0  3  0  0  0  0  0  0
  -21.6010   -6.9770   21.4690 O   0  0  0  0  0  0  0  0  0  0  0  0
  -21.5310   -6.2370   22.6230 C   0  0  0  0  0  0  0  0  0  0  0  0
  -21.0790   -6.7960   23.8400 C   0  0  0  0  0  3  0  0  0  0  0  0
  -20.9590   -5.9810   24.9830 C   0  0  0  0  0  3  0  0  0  0  0  0
  -21.2800   -4.6120   24.9120 C   0  0  0  0  0  0  0  0  0  0  0  0
  -21.7250   -4.0550   23.6990 C   0  0  0  0  0  3  0  0  0  0  0  0
  -21.8490   -4.8670   22.5590 C   0  0  0  0  0  0  0  0  0  0  0  0
  -22.2600   -4.3210   21.3870 F   0  0  0  0  0  0  0  0  0  0  0  0
  -21.1570   -3.8270   26.0080 F   0  0  0  0  0  0  0  0  0  0  0  0
  -22.7240  -13.6070   21.1920 C   0  0  0  0  0  0  0  0  0  0  0  0
  -21.9910  -12.9030   22.0480 N   0  0  0  0  0  0  0  0  0  0  0  0
  -22.2970  -14.6470   20.6890 O   0  0  0  0  0  0  0  0  0  0  0  0
  -22.3530  -12.0610   22.4670 H   0  0  0  0  0  0  0  0  0  0  0  0
  -21.0590  -13.2080   22.2850 H   0  0  0  0  0  0  0  0  0  0  0  0
  -25.3630  -15.2630   20.3900 N   0  0  0  0  0  0  0  0  0  0  0  0
  -24.6050  -15.9210   20.5330 H   0  0  0  0  0  0  0  0  0  0  0  0
  -26.2310  -15.7050   20.1150 H   0  0  0  0  0  0  0  0  0  0  0  0
  -31.8000  -21.4530   18.7330 C   0  0  0  0  0  1  0  0  0  0  0  0
  -29.7330  -21.3890   17.2170 C   0  0  0  0  0  1  0  0  0  0  0  0
  -30.4250  -20.8030   18.4610 C   0  0  0  0  0  3  0  0  0  0  0  0
  -29.4130  -22.1360   20.4430 C   0  0  0  0  0  2  0  0  0  0  0  0
  -27.1800  -23.4180   21.1530 C   0  0  0  0  0  1  0  0  0  0  0  0
  -28.3030  -23.3650   20.0980 C   0  0  0  0  0  3  0  0  0  0  0  0
  -28.5880  -24.9500   19.6160 C   0  0  0  0  0  2  0  0  0  0  0  0
  -28.3670  -26.3110   20.3160 O   0  0  0  0  0  0  0  0  0  0  0  0
  -24.6130  -31.9040   23.2240 C   0  0  0  0  0  0  0  0  0  0  0  0
  -27.2560  -27.2210   20.2040 C   0  0  0  0  0  0  0  0  0  0  0  0
  -23.4280  -30.5000   21.5770 C   0  0  0  0  0  3  0  0  0  0  0  0
  -24.8900  -28.9240   20.1650 C   0  0  0  0  0  0  0  0  0  0  0  0
  -25.9760  -30.7890   21.4190 C   0  0  0  0  0  2  0  0  0  0  0  0
  -26.0640  -29.3910   20.7740 C   0  0  0  0  0  0  0  0  0  0  0  0
  -27.2370  -28.5560   20.7780 C   0  0  0  0  0  3  0  0  0  0  0  0
  -26.0520  -26.8330   19.5760 C   0  0  0  0  0  3  0  0  0  0  0  0
  -24.9010  -27.6570   19.5530 C   0  0  0  0  0  3  0  0  0  0  0  0
  -23.6540  -29.8120   20.2020 C   0  0  0  0  0  2  0  0  0  0  0  0
  -24.6920  -31.0840   22.1300 N   0  0  0  0  0  0  0  0  0  0  0  0
  -23.5210  -32.1810   23.7450 O   0  0  0  0  0  0  0  0  0  0  0  0
  -22.7430  -29.4970   22.5420 C   0  0  0  0  0  0  0  0  0  0  0  0
  -21.4160  -29.3330   22.4120 N   0  0  0  0  0  0  0  0  0  0  0  0
  -23.4120  -28.8680   23.3650 O   0  0  0  0  0  0  0  0  0  0  0  0
  -20.9310  -29.8930   21.7250 H   0  0  0  0  0  0  0  0  0  0  0  0
  -18.0240  -28.1570   22.9190 C   0  0  0  0  0  0  0  0  0  0  0  0
  -20.5870  -28.3990   23.1830 C   0  0  0  0  0  3  0  0  0  0  0  0
  -20.6740  -26.9650   22.6100 C   0  0  0  0  0  2  0  0  0  0  0  0
  -19.5710  -26.6510   21.5950 C   0  0  0  0  0  2  0  0  0  0  0  0
  -18.1880  -26.8100   22.2340 C   0  0  0  0  0  2  0  0  0  0  0  0
  -19.1500  -28.9090   23.3500 C   0  0  0  0  0  0  0  0  0  0  0  0
  -18.9410  -30.1720   23.9460 C   0  0  0  0  0  3  0  0  0  0  0  0
  -17.6410  -30.6800   24.1190 C   0  0  0  0  0  3  0  0  0  0  0  0
  -16.5310  -29.9250   23.7030 C   0  0  0  0  0  3  0  0  0  0  0  0
  -16.7230  -28.6670   23.1070 C   0  0  0  0  0  3  0  0  0  0  0  0
  -25.8850  -32.5450   23.8590 C   0  0  0  0  0  3  0  0  0  0  0  0
  -26.3750  -31.7930   25.1580 C   0  0  1  0  0  0  0  0  0  0  0  0
  -25.2630  -31.5830   26.2130 C   0  0  0  0  0  1  0  0  0  0  0  0
  -26.9590  -30.4090   24.7990 C   0  0  0  0  0  1  0  0  0  0  0  0
  -27.5270  -32.5890   25.8180 C   0  0  0  0  0  1  0  0  0  0  0  0
  -25.5820  -33.9490   24.1720 N   0  0  0  0  0  0  0  0  0  0  0  0
  -25.9230  -34.9940   23.4080 C   0  0  0  0  0  0  0  0  0  0  0  0
  -26.5980  -34.8800   22.3830 O   0  0  0  0  0  0  0  0  0  0  0  0
  -24.9980  -34.1150   24.9770 H   0  0  0  0  0  0  0  0  0  0  0  0
  -24.2070  -36.7950   23.0320 C   0  0  0  0  0  1  0  0  0  0  0  0
  -25.4380  -36.3880   23.8560 C   0  0  0  0  0  3  0  0  0  0  0  0
  -27.5660  -37.2690   24.7040 C   0  0  0  0  0  1  0  0  0  0  0  0
  -26.4740  -37.4360   23.7500 N   0  0  0  0  0  0  0  0  0  0  0  0
  -26.0670  -38.3560   23.8910 H   0  0  0  0  0  0  0  0  0  0  0  0
  1 48  1  0
  1  2  1  6
  3 16  1  0
  4  9  1  0
  5  6  1  0
  5  4  1  0
  7  6  1  0
  7 20  1  0
  7  8  1  0
  9  3  1  0
  9  8  1  0
 10  3  2  0
 11 13  1  0
 12 14  1  0
 12 15  1  0
 14 16  1  0
 15  1  1  0
 15 11  1  0
 16 13  1  0
 17 18  2  0
 18 37  1  0
 19 18  1  0
 19 22  1  0
 20 17  1  0
 20 21  1  0
 21 19  2  0
 22 23  1  0
 23 24  2  0
 25 28  1  0
 25 24  1  0
 26 25  2  0
 27 26  1  0
 27 22  2  0
 28 29  1  0
 29 30  1  0
 30 31  2  0
 32 31  1  0
 32 36  1  0
 33 32  2  0
 34 29  2  0
 34 33  1  0
 35 34  1  0
 37 38  1  0
 38 41  1  0
 38 40  1  0
 39 37  2  0
 42 43  1  0
 42 17  1  0
 44 42  1  0
 46 47  1  0
 47 45  1  0
 47  1  1  0
 50 48  1  0
 50 49  1  0
 51 50  1  0
 51 52  1  0
 53 64  2  0
 54 52  1  0
 54 59  1  0
 55 63  1  0
 55 65  1  0
 56 62  1  0
 56 58  1  0
 57 63  1  0
 58 59  2  0
 58 57  1  0
 60 54  2  0
 61 60  1  0
 61 56  2  0
 62 55  1  0
 63 53  1  0
 65 67  2  0
 66 65  1  0
 68 66  1  0
 69 78  2  0
 69 74  1  0
 70 66  1  0
 70 74  1  0
 71 70  1  0
 72 73  1  0
 72 71  1  0
 73 69  1  0
 74 75  2  0
 75 76  1  0
 77 76  2  0
 78 77  1  0
 79 53  1  0
 79 84  1  0
 79 80  1  0
 80 83  1  1
 80 81  1  0
 82 80  1  0
 84 87  1  0
 85 89  1  0
 85 84  1  0
 86 85  2  0
 89 88  1  0
 91 89  1  0
 91 92  1  0
 91 90  1  0
M  ISO  4   3 100  16 100  51 101  52 101
M  END
>  <TORSDO>  (20) 
F 20

>  <SCORE>  (20) 
-14.061

>  <name>  (20) 
19

>  <ligand_id>  (20) 
19

>  <original_smiles>  (20) 
[H]c1c([H])c([H])c2c(c1[H])C([H])([H])C([H])([H])C([H])([H])C2([H])N([H])C(=O)C1([H])N(C(=O)C([H])(N([H])C(=O)C([H])(N([H])C([H])([H])[H])C([H])([H])[H])C(C([H])([H])[H])(C([H])([H])[H])C([H])([H])[H])C([H])([H])c2c([H])c(OC([H])([H])C([H])(C([H])([H])[H])C([H])([H])[N+]([H])(C([H])(C([H])([H])[H])C([H])([H])[H])C3([H])C([H])([H])C([H])([H])N(C(=O)N4C([H])([H])C([H])([H])C([H])([H])C([H])(n5nc(-c6c([H])c([H])c(Oc7c([H])c([H])c(F)c([H])c7F)c([H])c6[H])c(C(=O)N([H])[H])c5N([H])[H])C4([H])[H])C([H])([H])C3([H])[H])c([H])c([H])c2C1([H])[H]

>  <smiles>  (20) 
[H]c1c([H])c([H])c2c(c1[H])C([H])([H])C([H])([H])C([H])([H])C2([H])N([H])C(=O)C1([H])N(C(=O)C([H])(N([H])C(=O)C([H])(N([H])C([H])([H])[H])C([H])([H])[H])C(C([H])([H])[H])(C([H])([H])[H])C([H])([H])[H])C([H])([H])c2c([H])c(OC([H])([H])C([H])(C([H])([H])[H])C([H])([H])[N+]([H])(C([H])(C([H])([H])[H])C([H])([H])[H])C3([H])C([H])([H])C([H])([H])N(C(=O)N4C([H])([H])C([H])([H])C([H])([H])C([H])(n5nc(-c6c([H])c([H])c(Oc7c([H])c([H])c(F)c([H])c7F)c([H])c6[H])c(C(=O)N([H])[H])c5N([H])[H])C4([H])[H])C([H])([H])C3([H])[H])c([H])c([H])c2C1([H])[H]

$$$$
20:0:0
     RDKit          3D

 96105  0  0  1  0  0  0  0  0999 V2000
  -28.3360  -23.2580   20.8020 C   0  0  0  0  0  3  0  0  0  0  0  0
  -30.4330  -22.0070   19.4770 C   0  0  0  0  0  3  0  0  0  0  0  0
  -28.9570  -24.0130   19.7680 C   0  0  0  0  0  0  0  0  0  0  0  0
  -28.7190  -21.9280   21.1520 C   0  0  0  0  0  0  0  0  0  0  0  0
  -30.0780  -23.3580   19.1420 C   0  0  0  0  0  0  0  0  0  0  0  0
  -29.7610  -21.2490   20.4670 C   0  0  0  0  0  0  0  0  0  0  0  0
  -27.9670  -21.2290   22.2730 C   0  0  0  0  0  1  0  0  0  0  0  0
  -28.2550  -25.5750   17.7350 C   0  0  0  0  0  1  0  0  0  0  0  0
  -28.1910  -25.3160   19.2530 C   0  0  0  0  0  3  0  0  0  0  0  0
  -28.2660  -26.6410   19.9320 O   0  0  0  0  0  0  0  0  0  0  0  0
  -24.5720  -31.9650   23.1880 C   0  0  0  0  0  0  0  0  0  0  0  0
  -27.1400  -27.5030   19.9180 C   0  0  0  0  0  0  0  0  0  0  0  0
  -23.3370  -30.5970   21.5510 C   0  0  0  0  0  3  0  0  0  0  0  0
  -24.7600  -29.1150   20.0390 C   0  0  0  0  0  0  0  0  0  0  0  0
  -25.8720  -30.9400   21.3090 C   0  0  0  0  0  2  0  0  0  0  0  0
  -25.9450  -29.5810   20.6210 C   0  0  0  0  0  0  0  0  0  0  0  0
  -27.1320  -28.7850   20.5630 C   0  0  0  0  0  3  0  0  0  0  0  0
  -25.9200  -27.1190   19.3000 C   0  0  0  0  0  3  0  0  0  0  0  0
  -24.7510  -27.8870   19.3730 C   0  0  0  0  0  3  0  0  0  0  0  0
  -23.5180  -29.9730   20.1460 C   0  0  0  0  0  2  0  0  0  0  0  0
  -24.6140  -31.1830   22.0700 N   0  0  0  0  0  0  0  0  0  0  0  0
  -23.5000  -32.2170   23.7580 O   0  0  0  0  0  0  0  0  0  0  0  0
  -22.7160  -29.5420   22.4980 C   0  0  0  0  0  0  0  0  0  0  0  0
  -21.4010  -29.3020   22.3600 N   0  0  0  0  0  0  0  0  0  0  0  0
  -23.4170  -28.9440   23.3200 O   0  0  0  0  0  0  0  0  0  0  0  0
  -20.8920  -29.8380   21.6710 H   0  0  0  0  0  0  0  0  0  0  0  0
  -18.0940  -27.8920   22.7750 C   0  0  0  0  0  0  0  0  0  0  0  0
  -20.6200  -28.3260   23.1220 C   0  0  0  0  0  3  0  0  0  0  0  0
  -20.8350  -26.8940   22.5800 C   0  0  0  0  0  2  0  0  0  0  0  0
  -19.7910  -26.4800   21.5370 C   0  0  0  0  0  2  0  0  0  0  0  0
  -18.3820  -26.5460   22.1330 C   0  0  0  0  0  2  0  0  0  0  0  0
  -19.1460  -28.7360   23.2250 C   0  0  0  0  0  0  0  0  0  0  0  0
  -18.8240  -29.9920   23.7820 C   0  0  0  0  0  3  0  0  0  0  0  0
  -17.4830  -30.4080   23.8960 C   0  0  0  0  0  3  0  0  0  0  0  0
  -16.4460  -29.5630   23.4620 C   0  0  0  0  0  3  0  0  0  0  0  0
  -16.7530  -28.3080   22.9070 C   0  0  0  0  0  3  0  0  0  0  0  0
  -25.8640  -32.5990   23.7870 C   0  0  0  0  0  3  0  0  0  0  0  0
  -25.5520  -33.9920   24.1370 N   0  0  0  0  0  0  0  0  0  0  0  0
  -25.8720  -35.0550   23.3880 C   0  0  0  0  0  0  0  0  0  0  0  0
  -26.5310  -34.9680   22.3500 O   0  0  0  0  0  0  0  0  0  0  0  0
  -24.9650  -34.1340   24.9450 H   0  0  0  0  0  0  0  0  0  0  0  0
  -24.1420  -36.8540   23.0690 C   0  0  0  0  0  1  0  0  0  0  0  0
  -25.3840  -36.4360   23.8690 C   0  0  0  0  0  3  0  0  0  0  0  0
  -27.5180  -37.3110   24.7140 C   0  0  0  0  0  1  0  0  0  0  0  0
  -26.4160  -37.4910   23.7730 N   0  0  0  0  0  0  0  0  0  0  0  0
  -26.0090  -38.4090   23.9320 H   0  0  0  0  0  0  0  0  0  0  0  0
  -26.4120  -31.8190   25.0430 C   0  0  1  0  0  0  0  0  0  0  0  0
  -25.3410  -31.5560   26.1280 C   0  0  0  0  0  1  0  0  0  0  0  0
  -27.0030  -30.4510   24.6270 C   0  0  0  0  0  1  0  0  0  0  0  0
  -27.5650  -32.6190   25.6930 C   0  0  0  0  0  1  0  0  0  0  0  0
  -30.1720  -19.9330   20.8640 N   0  0  0  0  0  0  0  0  0  0  0  0
  -29.8910  -19.7250   21.8180 H   0  0  0  0  0  0  0  0  0  0  0  0
  -30.1140  -18.7050   20.0150 C   0  0  0  0  0  2  0  0  0  0  0  0
  -30.8950  -17.4480   20.6120 C   0  0  0  0  0  2  0  0  0  0  0  0
  -31.0630  -14.9390   19.9910 C   0  0  0  0  0  0  0  0  0  0  0  0
  -30.7450  -12.6900   18.9730 C   0  0  0  0  0  2  0  0  0  0  0  0
  -29.7670  -12.7890   17.7840 C   0  0  0  0  0  2  0  0  0  0  0  0
  -28.3100  -12.6580   18.2670 C   0  0  0  0  0  2  0  0  0  0  0  0
  -27.9990  -13.5670   19.4860 C   0  0  0  0  0  3  0  0  0  0  0  0
  -29.0910  -13.4510   20.5710 C   0  0  0  0  0  2  0  0  0  0  0  0
  -30.3820  -13.7510   19.9340 N   0  0  0  0  0  0  0  0  0  0  0  0
  -32.2210  -15.0300   19.5780 O   0  0  0  0  0  0  0  0  0  0  0  0
  -30.3670  -16.0590   20.3660 N   0  0  0  0  0  0  0  0  0  0  0  0
  -29.4010  -15.9030   20.6170 H   0  0  0  0  0  0  0  0  0  0  0  0
  -25.6620  -14.2190   20.3270 C   0  0  0  0  0  0  0  0  0  0  0  0
  -24.5850  -13.4690   20.7190 C   0  0  0  0  0  0  0  0  0  0  0  0
  -24.9990  -12.1050   20.6270 C   0  0  0  0  0  0  0  0  0  0  0  0
  -26.6640  -13.3130   20.0220 N   0  0  0  0  0  0  0  0  0  0  0  0
  -26.2730  -12.0340   20.2620 N   0  0  0  0  0  0  0  0  0  0  0  0
  -24.2370  -10.8630   20.8080 C   0  0  0  0  0  0  0  0  0  0  0  0
  -24.6360   -9.8810   21.7430 C   0  0  0  0  0  3  0  0  0  0  0  0
  -23.8760   -8.7030   21.9120 C   0  0  0  0  0  3  0  0  0  0  0  0
  -22.7040   -8.4980   21.1460 C   0  0  0  0  0  0  0  0  0  0  0  0
  -22.3250   -9.4680   20.2010 C   0  0  0  0  0  3  0  0  0  0  0  0
  -23.0850  -10.6370   20.0300 C   0  0  0  0  0  3  0  0  0  0  0  0
  -21.9180   -7.3740   21.2240 O   0  0  0  0  0  0  0  0  0  0  0  0
  -21.7860   -6.6680   22.3930 C   0  0  0  0  0  0  0  0  0  0  0  0
  -21.2810   -7.2620   23.5700 C   0  0  0  0  0  3  0  0  0  0  0  0
  -21.0970   -6.4830   24.7300 C   0  0  0  0  0  3  0  0  0  0  0  0
  -21.4080   -5.1110   24.7130 C   0  0  0  0  0  0  0  0  0  0  0  0
  -21.9070   -4.5160   23.5410 C   0  0  0  0  0  3  0  0  0  0  0  0
  -22.0920   -5.2920   22.3830 C   0  0  0  0  0  0  0  0  0  0  0  0
  -22.5530   -4.7090   21.2500 F   0  0  0  0  0  0  0  0  0  0  0  0
  -21.2250   -4.3590   25.8240 F   0  0  0  0  0  0  0  0  0  0  0  0
  -23.2180  -13.9840   21.0630 C   0  0  0  0  0  0  0  0  0  0  0  0
  -22.5040  -13.2890   21.9430 N   0  0  0  0  0  0  0  0  0  0  0  0
  -22.7920  -15.0350   20.5890 O   0  0  0  0  0  0  0  0  0  0  0  0
  -22.8620  -12.4370   22.3490 H   0  0  0  0  0  0  0  0  0  0  0  0
  -21.5880  -13.6140   22.2150 H   0  0  0  0  0  0  0  0  0  0  0  0
  -25.8640  -15.5880   20.1850 N   0  0  0  0  0  0  0  0  0  0  0  0
  -25.1220  -16.2610   20.3440 H   0  0  0  0  0  0  0  0  0  0  0  0
  -26.7060  -16.0090   19.8110 H   0  0  0  0  0  0  0  0  0  0  0  0
  -30.9700  -24.0350   18.1060 C   0  0  0  0  0  2  0  0  0  0  0  0
  -33.0850  -25.0950   19.2600 C   0  0  0  0  0  2  0  0  0  0  0  0
  -32.9030  -25.8110   17.9470 C   0  0  0  0  0  2  0  0  0  0  0  0
  -31.7000  -25.2440   18.6680 C   0  0  0  0  0  3  0  0  0  0  0  0
  1  4  1  0
  2  6  1  0
  3  1  2  0
  4  7  1  0
  5  2  2  0
  5  3  1  0
  6 51  1  0
  6  4  2  0
  9  8  1  0
  9  3  1  0
  9 10  1  0
 11 22  2  0
 12 10  1  0
 12 17  1  0
 13 21  1  0
 13 23  1  0
 14 20  1  0
 14 16  1  0
 15 21  1  0
 16 15  1  0
 17 16  2  0
 18 19  1  0
 18 12  2  0
 19 14  2  0
 20 13  1  0
 21 11  1  0
 23 25  2  0
 24 23  1  0
 26 24  1  0
 27 36  2  0
 27 32  1  0
 28 24  1  0
 28 32  1  0
 29 28  1  0
 30 31  1  0
 30 29  1  0
 31 27  1  0
 32 33  2  0
 33 34  1  0
 35 34  2  0
 36 35  1  0
 37 11  1  0
 37 38  1  0
 37 47  1  0
 38 41  1  0
 39 43  1  0
 39 38  1  0
 40 39  2  0
 43 42  1  0
 45 43  1  0
 45 46  1  0
 45 44  1  0
 47 50  1  1
 47 48  1  0
 49 47  1  0
 51 52  1  0
 53 54  1  0
 53 51  1  0
 55 63  1  0
 56 61  1  0
 57 58  1  0
 57 56  1  0
 59 58  1  0
 59 68  1  0
 59 60  1  0
 61 55  1  0
 61 60  1  0
 62 55  2  0
 63 54  1  0
 63 64  1  0
 65 66  2  0
 66 85  1  0
 67 66  1  0
 67 70  1  0
 68 69  1  0
 68 65  1  0
 69 67  2  0
 70 71  1  0
 71 72  2  0
 73 76  1  0
 73 72  1  0
 74 73  2  0
 75 74  1  0
 75 70  2  0
 76 77  1  0
 77 78  1  0
 78 79  2  0
 80 79  1  0
 80 84  1  0
 81 80  2  0
 82 77  2  0
 82 81  1  0
 83 82  1  0
 85 86  1  0
 86 89  1  0
 86 88  1  0
 87 85  2  0
 90 65  1  0
 90 91  1  0
 92 90  1  0
 93 96  1  0
 93  5  1  0
 95 96  1  0
 95 94  1  0
 96 94  1  0
M  ISO  4   9 101  10 101  55 100  63 100
M  END
>  <TORSDO>  (21) 
F 22

>  <SCORE>  (21) 
-11.566

>  <name>  (21) 
20

>  <ligand_id>  (21) 
20

>  <original_smiles>  (21) 
[H]c1c([H])c([H])c2c(c1[H])C([H])([H])C([H])([H])C([H])([H])C2([H])N([H])C(=O)C1([H])N(C(=O)C([H])(N([H])C(=O)C([H])(N([H])C([H])([H])[H])C([H])([H])[H])C(C([H])([H])[H])(C([H])([H])[H])C([H])([H])[H])C([H])([H])c2c([H])c(OC([H])(c3c([H])c(C([H])([H])[H])c(N([H])C([H])([H])C([H])([H])N([H])C(=O)N4C([H])([H])C([H])([H])C([H])([H])C([H])(n5nc(-c6c([H])c([H])c(Oc7c([H])c([H])c(F)c([H])c7F)c([H])c6[H])c(C(=O)N([H])[H])c5N([H])[H])C4([H])[H])c([H])c3C([H])([H])C3([H])C([H])([H])C3([H])[H])C([H])([H])[H])c([H])c([H])c2C1([H])[H]

>  <smiles>  (21) 
[H]c1c([H])c([H])c2c(c1[H])C([H])([H])C([H])([H])C([H])([H])C2([H])N([H])C(=O)C1([H])N(C(=O)C([H])(N([H])C(=O)C([H])(N([H])C([H])([H])[H])C([H])([H])[H])C(C([H])([H])[H])(C([H])([H])[H])C([H])([H])[H])C([H])([H])c2c([H])c(OC([H])(c3c([H])c(C([H])([H])[H])c(N([H])C([H])([H])C([H])([H])N([H])C(=O)N4C([H])([H])C([H])([H])C([H])([H])C([H])(n5nc(-c6c([H])c([H])c(Oc7c([H])c([H])c(F)c([H])c7F)c([H])c6[H])c(C(=O)N([H])[H])c5N([H])[H])C4([H])[H])c([H])c3C([H])([H])C3([H])C([H])([H])C3([H])[H])C([H])([H])[H])c([H])c([H])c2C1([H])[H]

$$$$
21:0:0
     RDKit          3D

 89 97  0  0  1  0  0  0  0  0999 V2000
  -29.9700  -20.6660   19.4990 C   0  0  0  0  0  3  0  0  0  0  0  0
  -30.3670  -19.4860   20.2050 C   0  0  0  0  0  0  0  0  0  0  0  0
  -30.4930  -20.0570   21.5270 C   0  0  0  0  0  0  0  0  0  0  0  0
  -30.2320  -21.4320   21.5270 C   0  0  0  0  0  0  0  0  0  0  0  0
  -30.9390  -19.2900   22.7570 C   0  0  0  0  0  1  0  0  0  0  0  0
  -30.4230  -22.3660   22.6850 C   0  0  0  0  0  1  0  0  0  0  0  0
  -29.8470  -21.9030   20.2620 N   0  0  0  0  0  0  0  0  0  0  0  0
  -30.7780  -17.9370   19.6500 C   0  0  0  0  0  2  0  0  0  0  0  0
  -31.0120  -15.2050   20.0250 C   0  0  0  0  0  0  0  0  0  0  0  0
  -30.8130  -12.7940   19.2250 C   0  0  0  0  0  2  0  0  0  0  0  0
  -29.8690  -12.6160   18.0130 C   0  0  0  0  0  2  0  0  0  0  0  0
  -28.4050  -12.4650   18.4590 C   0  0  0  0  0  2  0  0  0  0  0  0
  -28.0150  -13.4750   19.5680 C   0  0  0  0  0  3  0  0  0  0  0  0
  -29.0830  -13.5900   20.6790 C   0  0  0  0  0  2  0  0  0  0  0  0
  -30.3500  -13.9660   20.0330 N   0  0  0  0  0  0  0  0  0  0  0  0
  -32.2120  -15.1730   19.7470 O   0  0  0  0  0  0  0  0  0  0  0  0
  -30.3280  -16.4680   20.0960 N   0  0  0  0  0  0  0  0  0  0  0  0
  -29.3440  -16.3900   20.2930 H   0  0  0  0  0  0  0  0  0  0  0  0
  -25.6800  -14.1330   20.3650 C   0  0  0  0  0  0  0  0  0  0  0  0
  -24.5920  -13.3960   20.7370 C   0  0  0  0  0  0  0  0  0  0  0  0
  -25.0010  -12.0270   20.6810 C   0  0  0  0  0  0  0  0  0  0  0  0
  -26.6830  -13.2190   20.0980 N   0  0  0  0  0  0  0  0  0  0  0  0
  -26.2850  -11.9460   20.3540 N   0  0  0  0  0  0  0  0  0  0  0  0
  -24.2260  -10.7920   20.8650 C   0  0  0  0  0  0  0  0  0  0  0  0
  -24.6230   -9.8060   21.7970 C   0  0  0  0  0  3  0  0  0  0  0  0
  -23.8550   -8.6340   21.9700 C   0  0  0  0  0  3  0  0  0  0  0  0
  -22.6740   -8.4400   21.2120 C   0  0  0  0  0  0  0  0  0  0  0  0
  -22.2950   -9.4140   20.2710 C   0  0  0  0  0  3  0  0  0  0  0  0
  -23.0640  -10.5790   20.0970 C   0  0  0  0  0  3  0  0  0  0  0  0
  -21.8790   -7.3240   21.3010 O   0  0  0  0  0  0  0  0  0  0  0  0
  -21.7810   -6.5950   22.4600 C   0  0  0  0  0  0  0  0  0  0  0  0
  -21.3380   -7.1730   23.6680 C   0  0  0  0  0  3  0  0  0  0  0  0
  -21.1900   -6.3720   24.8180 C   0  0  0  0  0  3  0  0  0  0  0  0
  -21.4660   -4.9940   24.7580 C   0  0  0  0  0  0  0  0  0  0  0  0
  -21.8990   -4.4140   23.5510 C   0  0  0  0  0  3  0  0  0  0  0  0
  -22.0510   -5.2120   22.4040 C   0  0  0  0  0  0  0  0  0  0  0  0
  -22.4490   -4.6460   21.2390 F   0  0  0  0  0  0  0  0  0  0  0  0
  -21.3130   -4.2210   25.8580 F   0  0  0  0  0  0  0  0  0  0  0  0
  -23.2160  -13.9190   21.0320 C   0  0  0  0  0  0  0  0  0  0  0  0
  -22.4830  -13.2430   21.9060 N   0  0  0  0  0  0  0  0  0  0  0  0
  -22.8050  -14.9610   20.5190 O   0  0  0  0  0  0  0  0  0  0  0  0
  -22.8400  -12.4060   22.3450 H   0  0  0  0  0  0  0  0  0  0  0  0
  -21.5530  -13.5600   22.1400 H   0  0  0  0  0  0  0  0  0  0  0  0
  -25.9040  -15.4970   20.2030 N   0  0  0  0  0  0  0  0  0  0  0  0
  -25.1970  -16.2000   20.3780 H   0  0  0  0  0  0  0  0  0  0  0  0
  -26.7560  -15.8890   19.8270 H   0  0  0  0  0  0  0  0  0  0  0  0
  -29.6050  -23.4190   19.7470 C   0  0  0  0  0  2  0  0  0  0  0  0
  -28.5920  -24.6710   20.3390 C   0  0  0  0  0  2  0  0  0  0  0  0
  -28.7330  -26.2360   20.1380 O   0  0  0  0  0  0  0  0  0  0  0  0
  -24.8040  -31.7410   23.2110 C   0  0  0  0  0  0  0  0  0  0  0  0
  -27.6180  -27.1690   20.1220 C   0  0  0  0  0  0  0  0  0  0  0  0
  -23.6880  -30.3250   21.5360 C   0  0  0  0  0  3  0  0  0  0  0  0
  -25.2210  -28.8370   20.1040 C   0  0  0  0  0  0  0  0  0  0  0  0
  -26.2320  -30.7030   21.3980 C   0  0  0  0  0  2  0  0  0  0  0  0
  -26.3800  -29.3230   20.7200 C   0  0  0  0  0  0  0  0  0  0  0  0
  -27.5810  -28.5070   20.7030 C   0  0  0  0  0  3  0  0  0  0  0  0
  -26.4190  -26.7860   19.4810 C   0  0  0  0  0  3  0  0  0  0  0  0
  -25.2540  -27.5880   19.4710 C   0  0  0  0  0  3  0  0  0  0  0  0
  -23.9550  -29.6790   20.1510 C   0  0  0  0  0  2  0  0  0  0  0  0
  -24.9290  -30.9390   22.1080 N   0  0  0  0  0  0  0  0  0  0  0  0
  -23.6970  -31.9680   23.7240 O   0  0  0  0  0  0  0  0  0  0  0  0
  -23.0370  -29.2750   22.4720 C   0  0  0  0  0  0  0  0  0  0  0  0
  -21.7210  -29.0470   22.3200 N   0  0  0  0  0  0  0  0  0  0  0  0
  -23.7210  -28.6690   23.3010 O   0  0  0  0  0  0  0  0  0  0  0  0
  -21.2290  -29.5890   21.6230 H   0  0  0  0  0  0  0  0  0  0  0  0
  -18.3930  -27.6600   22.7050 C   0  0  0  0  0  0  0  0  0  0  0  0
  -20.9230  -28.0630   23.0570 C   0  0  0  0  0  3  0  0  0  0  0  0
  -21.1270  -26.6430   22.4790 C   0  0  0  0  0  2  0  0  0  0  0  0
  -20.0800  -26.2650   21.4290 C   0  0  0  0  0  2  0  0  0  0  0  0
  -18.6690  -26.3280   22.0280 C   0  0  0  0  0  2  0  0  0  0  0  0
  -19.4530  -28.4820   23.1710 C   0  0  0  0  0  0  0  0  0  0  0  0
  -19.1430  -29.7220   23.7690 C   0  0  0  0  0  3  0  0  0  0  0  0
  -17.8080  -30.1470   23.9020 C   0  0  0  0  0  3  0  0  0  0  0  0
  -16.7630  -29.3230   23.4530 C   0  0  0  0  0  3  0  0  0  0  0  0
  -17.0550  -28.0820   22.8590 C   0  0  0  0  0  3  0  0  0  0  0  0
  -26.0400  -32.4230   23.8720 C   0  0  0  0  0  3  0  0  0  0  0  0
  -26.5350  -31.6790   25.1750 C   0  0  1  0  0  0  0  0  0  0  0  0
  -25.4140  -31.4190   26.2110 C   0  0  0  0  0  1  0  0  0  0  0  0
  -27.1690  -30.3180   24.8110 C   0  0  0  0  0  1  0  0  0  0  0  0
  -27.6480  -32.5110   25.8580 C   0  0  0  0  0  1  0  0  0  0  0  0
  -25.6730  -33.8130   24.1910 N   0  0  0  0  0  0  0  0  0  0  0  0
  -26.0030  -34.8760   23.4480 C   0  0  0  0  0  0  0  0  0  0  0  0
  -26.7110  -34.7930   22.4410 O   0  0  0  0  0  0  0  0  0  0  0  0
  -25.0490  -33.9530   24.9700 H   0  0  0  0  0  0  0  0  0  0  0  0
  -24.2290  -36.6190   23.0510 C   0  0  0  0  0  1  0  0  0  0  0  0
  -25.4640  -36.2520   23.8910 C   0  0  0  0  0  3  0  0  0  0  0  0
  -27.5500  -37.2010   24.7710 C   0  0  0  0  0  1  0  0  0  0  0  0
  -26.4670  -37.3390   23.8010 N   0  0  0  0  0  0  0  0  0  0  0  0
  -26.0310  -38.2460   23.9460 H   0  0  0  0  0  0  0  0  0  0  0  0
  1  2  2  0
  1  7  1  0
  2  3  1  0
  3  5  1  0
  4  3  2  0
  4  6  1  0
  7  4  1  0
  8 17  1  0
  8  2  1  0
  9 15  1  0
  9 17  1  0
 10 15  1  0
 11 12  1  0
 11 10  1  0
 13 12  1  0
 13 22  1  0
 13 14  1  0
 15 14  1  0
 16  9  2  0
 17 18  1  0
 19 20  2  0
 20 39  1  0
 21 20  1  0
 21 24  1  0
 22 23  1  0
 22 19  1  0
 23 21  2  0
 24 25  1  0
 25 26  2  0
 27 30  1  0
 27 26  1  0
 28 27  2  0
 29 28  1  0
 29 24  2  0
 30 31  1  0
 31 32  1  0
 32 33  2  0
 34 33  1  0
 34 38  1  0
 35 34  2  0
 36 31  2  0
 36 35  1  0
 37 36  1  0
 39 40  1  0
 40 43  1  0
 40 42  1  0
 41 39  2  0
 44 19  1  0
 44 45  1  0
 46 44  1  0
 47  7  1  0
 47 48  1  0
 49 48  1  0
 50 61  2  0
 51 49  1  0
 51 56  1  0
 52 60  1  0
 52 62  1  0
 53 59  1  0
 53 55  1  0
 54 60  1  0
 55 54  1  0
 56 55  2  0
 57 51  2  0
 58 57  1  0
 58 53  2  0
 59 52  1  0
 60 50  1  0
 62 64  2  0
 63 62  1  0
 65 63  1  0
 66 75  2  0
 66 71  1  0
 67 63  1  0
 67 71  1  0
 68 67  1  0
 69 70  1  0
 69 68  1  0
 70 66  1  0
 71 72  2  0
 72 73  1  0
 74 73  2  0
 75 74  1  0
 76 50  1  0
 76 81  1  0
 76 77  1  0
 77 80  1  1
 77 78  1  0
 79 77  1  0
 81 84  1  0
 82 86  1  0
 82 81  1  0
 83 82  2  0
 86 85  1  0
 88 86  1  0
 88 89  1  0
 88 87  1  0
M  ISO  4   9 100  17 100  48 101  49 101
M  END
>  <TORSDO>  (22) 
F 19

>  <SCORE>  (22) 
-15.019

>  <name>  (22) 
21

>  <ligand_id>  (22) 
21

>  <original_smiles>  (22) 
[H]c1c([H])c([H])c2c(c1[H])C([H])([H])C([H])([H])C([H])([H])C2([H])N([H])C(=O)C1([H])N(C(=O)C([H])(N([H])C(=O)C([H])(N([H])C([H])([H])[H])C([H])([H])[H])C(C([H])([H])[H])(C([H])([H])[H])C([H])([H])[H])C([H])([H])c2c([H])c(OC([H])([H])C([H])([H])n3c([H])c(C([H])([H])N([H])C(=O)N4C([H])([H])C([H])([H])C([H])([H])C([H])(n5nc(-c6c([H])c([H])c(Oc7c([H])c([H])c(F)c([H])c7F)c([H])c6[H])c(C(=O)N([H])[H])c5N([H])[H])C4([H])[H])c(C([H])([H])[H])c3C([H])([H])[H])c([H])c([H])c2C1([H])[H]

>  <smiles>  (22) 
[H]c1c([H])c([H])c2c(c1[H])C([H])([H])C([H])([H])C([H])([H])C2([H])N([H])C(=O)C1([H])N(C(=O)C([H])(N([H])C(=O)C([H])(N([H])C([H])([H])[H])C([H])([H])[H])C(C([H])([H])[H])(C([H])([H])[H])C([H])([H])[H])C([H])([H])c2c([H])c(OC([H])([H])C([H])([H])n3c([H])c(C([H])([H])N([H])C(=O)N4C([H])([H])C([H])([H])C([H])([H])C([H])(n5nc(-c6c([H])c([H])c(Oc7c([H])c([H])c(F)c([H])c7F)c([H])c6[H])c(C(=O)N([H])[H])c5N([H])[H])C4([H])[H])c(C([H])([H])[H])c3C([H])([H])[H])c([H])c([H])c2C1([H])[H]

$$$$
22:0:0
     RDKit          3D

100108  0  0  1  0  0  0  0  0999 V2000
  -29.2650  -19.6860   19.0950 C   0  0  0  0  0  3  0  0  0  0  0  0
  -29.3330  -20.4850   21.1010 C   0  0  0  0  0  3  0  0  0  0  0  0
  -29.5120  -19.2310   20.4320 C   0  0  0  0  0  0  0  0  0  0  0  0
  -29.0630  -21.0650   19.0050 C   0  0  0  0  0  0  0  0  0  0  0  0
  -29.0530  -21.6620   20.2790 N   0  0  0  0  0  0  0  0  0  0  0  0
  -30.0430  -17.7230   20.9790 C   0  0  0  0  0  2  0  0  0  0  0  0
  -30.4650  -15.0210   20.4320 C   0  0  0  0  0  0  0  0  0  0  0  0
  -30.3820  -12.6710   19.4420 C   0  0  0  0  0  2  0  0  0  0  0  0
  -29.4480  -12.6060   18.2140 C   0  0  0  0  0  2  0  0  0  0  0  0
  -27.9880  -12.3590   18.6400 C   0  0  0  0  0  2  0  0  0  0  0  0
  -27.5650  -13.2620   19.8300 C   0  0  0  0  0  3  0  0  0  0  0  0
  -28.6230  -13.2940   20.9500 C   0  0  0  0  0  2  0  0  0  0  0  0
  -29.8760  -13.7540   20.3350 N   0  0  0  0  0  0  0  0  0  0  0  0
  -31.6800  -15.0770   20.2120 O   0  0  0  0  0  0  0  0  0  0  0  0
  -29.6860  -16.2180   20.5820 N   0  0  0  0  0  0  0  0  0  0  0  0
  -28.6950  -16.0300   20.6150 H   0  0  0  0  0  0  0  0  0  0  0  0
  -25.1810  -13.7960   20.5780 C   0  0  0  0  0  0  0  0  0  0  0  0
  -24.1300  -13.0020   20.9460 C   0  0  0  0  0  0  0  0  0  0  0  0
  -24.6160  -11.6590   20.9070 C   0  0  0  0  0  0  0  0  0  0  0  0
  -26.2360  -12.9350   20.3300 N   0  0  0  0  0  0  0  0  0  0  0  0
  -25.9080  -11.6450   20.5970 N   0  0  0  0  0  0  0  0  0  0  0  0
  -23.9080  -10.3860   21.0890 C   0  0  0  0  0  0  0  0  0  0  0  0
  -24.3550   -9.4200   22.0160 C   0  0  0  0  0  3  0  0  0  0  0  0
  -23.6480   -8.2110   22.1870 C   0  0  0  0  0  3  0  0  0  0  0  0
  -22.4760   -7.9600   21.4340 C   0  0  0  0  0  0  0  0  0  0  0  0
  -22.0510   -8.9140   20.4940 C   0  0  0  0  0  3  0  0  0  0  0  0
  -22.7580  -10.1160   20.3200 C   0  0  0  0  0  3  0  0  0  0  0  0
  -21.7390   -6.8030   21.5160 O   0  0  0  0  0  0  0  0  0  0  0  0
  -21.7070   -6.0500   22.6620 C   0  0  0  0  0  0  0  0  0  0  0  0
  -21.2810   -6.5870   23.8970 C   0  0  0  0  0  3  0  0  0  0  0  0
  -21.1980   -5.7580   25.0340 C   0  0  0  0  0  3  0  0  0  0  0  0
  -21.5270   -4.3920   24.9360 C   0  0  0  0  0  0  0  0  0  0  0  0
  -21.9460   -3.8550   23.7060 C   0  0  0  0  0  3  0  0  0  0  0  0
  -22.0330   -4.6820   22.5710 C   0  0  0  0  0  0  0  0  0  0  0  0
  -22.4150   -4.1530   21.3850 F   0  0  0  0  0  0  0  0  0  0  0  0
  -21.4400   -3.5950   26.0270 F   0  0  0  0  0  0  0  0  0  0  0  0
  -22.7260  -13.4550   21.2150 C   0  0  0  0  0  0  0  0  0  0  0  0
  -22.0080  -12.7400   22.0740 N   0  0  0  0  0  0  0  0  0  0  0  0
  -22.2740  -14.4780   20.7010 O   0  0  0  0  0  0  0  0  0  0  0  0
  -22.3890  -11.9140   22.5120 H   0  0  0  0  0  0  0  0  0  0  0  0
  -21.0630  -13.0200   22.2950 H   0  0  0  0  0  0  0  0  0  0  0  0
  -25.3290  -15.1700   20.4070 N   0  0  0  0  0  0  0  0  0  0  0  0
  -24.5540  -15.8170   20.5040 H   0  0  0  0  0  0  0  0  0  0  0  0
  -26.1630  -15.6110   20.0450 H   0  0  0  0  0  0  0  0  0  0  0  0
  -29.0130  -23.2350   20.6900 C   0  0  0  0  0  3  0  0  0  0  0  0
  -28.0660  -24.5460   20.1090 C   0  0  0  0  0  3  0  0  0  0  0  0
  -28.2580  -26.0920   20.3820 O   0  0  0  0  0  0  0  0  0  0  0  0
  -24.6140  -31.8640   23.2360 C   0  0  0  0  0  0  0  0  0  0  0  0
  -27.2110  -27.0960   20.2710 C   0  0  0  0  0  0  0  0  0  0  0  0
  -23.4310  -30.4650   21.5890 C   0  0  0  0  0  3  0  0  0  0  0  0
  -24.8920  -28.8720   20.1910 C   0  0  0  0  0  0  0  0  0  0  0  0
  -25.9900  -30.7120   21.4570 C   0  0  0  0  0  2  0  0  0  0  0  0
  -26.0670  -29.3120   20.8140 C   0  0  0  0  0  0  0  0  0  0  0  0
  -27.2270  -28.4430   20.8310 C   0  0  0  0  0  3  0  0  0  0  0  0
  -26.0120  -26.7670   19.6010 C   0  0  0  0  0  3  0  0  0  0  0  0
  -24.8810  -27.6150   19.5640 C   0  0  0  0  0  3  0  0  0  0  0  0
  -23.6690  -29.7790   20.2180 C   0  0  0  0  0  2  0  0  0  0  0  0
  -24.6990  -31.0360   22.1480 N   0  0  0  0  0  0  0  0  0  0  0  0
  -23.5230  -32.1550   23.7510 O   0  0  0  0  0  0  0  0  0  0  0  0
  -22.7330  -29.4690   22.5480 C   0  0  0  0  0  0  0  0  0  0  0  0
  -21.4010  -29.3210   22.4220 N   0  0  0  0  0  0  0  0  0  0  0  0
  -23.3930  -28.8280   23.3700 O   0  0  0  0  0  0  0  0  0  0  0  0
  -20.9240  -29.8910   21.7380 H   0  0  0  0  0  0  0  0  0  0  0  0
  -17.9970  -28.1870   22.9340 C   0  0  0  0  0  0  0  0  0  0  0  0
  -20.5630  -28.3950   23.1890 C   0  0  0  0  0  3  0  0  0  0  0  0
  -20.6310  -26.9650   22.6030 C   0  0  0  0  0  2  0  0  0  0  0  0
  -19.5190  -26.6730   21.5920 C   0  0  0  0  0  2  0  0  0  0  0  0
  -18.1430  -26.8400   22.2430 C   0  0  0  0  0  2  0  0  0  0  0  0
  -19.1330  -28.9240   23.3630 C   0  0  0  0  0  0  0  0  0  0  0  0
  -18.9410  -30.1840   23.9710 C   0  0  0  0  0  3  0  0  0  0  0  0
  -17.6470  -30.7080   24.1470 C   0  0  0  0  0  3  0  0  0  0  0  0
  -16.5260  -29.9700   23.7320 C   0  0  0  0  0  3  0  0  0  0  0  0
  -16.7020  -28.7090   23.1320 C   0  0  0  0  0  3  0  0  0  0  0  0
  -25.8850  -32.5010   23.8780 C   0  0  0  0  0  3  0  0  0  0  0  0
  -26.3700  -31.7420   25.1740 C   0  0  1  0  0  0  0  0  0  0  0  0
  -25.2540  -31.5240   26.2230 C   0  0  0  0  0  1  0  0  0  0  0  0
  -26.9490  -30.3550   24.8120 C   0  0  0  0  0  1  0  0  0  0  0  0
  -27.5120  -32.5370   25.8500 C   0  0  0  0  0  1  0  0  0  0  0  0
  -25.5730  -33.9050   24.1970 N   0  0  0  0  0  0  0  0  0  0  0  0
  -25.9160  -34.9560   23.4400 C   0  0  0  0  0  0  0  0  0  0  0  0
  -26.5920  -34.8460   22.4130 O   0  0  0  0  0  0  0  0  0  0  0  0
  -24.9740  -34.0640   24.9940 H   0  0  0  0  0  0  0  0  0  0  0  0
  -24.1960  -36.7580   23.0770 C   0  0  0  0  0  1  0  0  0  0  0  0
  -25.4340  -36.3490   23.8900 C   0  0  0  0  0  3  0  0  0  0  0  0
  -27.5720  -37.2340   24.7190 C   0  0  0  0  0  1  0  0  0  0  0  0
  -26.4710  -37.3990   23.7730 N   0  0  0  0  0  0  0  0  0  0  0  0
  -26.0680  -38.3220   23.9140 H   0  0  0  0  0  0  0  0  0  0  0  0
  -28.9270  -21.8930   17.7550 C   0  0  0  0  0  3  0  0  0  0  0  0
  -27.5040  -22.0060   17.3970 N   0  0  0  0  0  4  0  0  0  0  0  0
  -27.1440  -21.1220   17.0920 H   0  0  0  0  0  0  0  0  0  0  0  0
  -27.3590  -22.6860   16.6710 H   0  0  0  0  0  0  0  0  0  0  0  0
  -26.9750  -22.2760   18.2050 H   0  0  0  0  0  0  0  0  0  0  0  0
  -29.7710  -21.3460   16.5700 C   0  0  0  0  0  2  0  0  0  0  0  0
  -31.2440  -23.3970   16.0480 C   0  0  0  0  0  1  0  0  0  0  0  0
  -30.1870  -22.4050   15.5150 C   0  0  0  0  0  3  0  0  0  0  0  0
  -30.6380  -21.7790   14.1700 C   0  0  0  0  0  2  0  0  0  0  0  0
  -31.7780  -20.8500   14.3040 N   0  0  0  0  0  4  0  0  0  0  0  0
  -32.5700  -21.2950   14.7300 H   0  0  0  0  0  0  0  0  0  0  0  0
  -32.0580  -20.5350   13.3930 H   0  0  0  0  0  0  0  0  0  0  0  0
  -31.5220  -20.0390   14.8390 H   0  0  0  0  0  0  0  0  0  0  0  0
  1  3  1  0
  3  6  1  0
  3  2  2  0
  4  1  2  0
  4  5  1  0
  5 45  1  0
  5  2  1  0
  7 15  1  0
  8 13  1  0
  9 10  1  0
  9  8  1  0
 11 10  1  0
 11 20  1  0
 11 12  1  0
 13  7  1  0
 13 12  1  0
 14  7  2  0
 15 16  1  0
 15  6  1  0
 17 18  2  0
 18 37  1  0
 19 18  1  0
 19 22  1  0
 20 17  1  0
 20 21  1  0
 21 19  2  0
 22 23  1  0
 23 24  2  0
 25 28  1  0
 25 24  1  0
 26 25  2  0
 27 26  1  0
 27 22  2  0
 28 29  1  0
 29 30  1  0
 30 31  2  0
 32 31  1  0
 32 36  1  0
 33 32  2  0
 34 29  2  0
 34 33  1  0
 35 34  1  0
 37 38  1  0
 38 41  1  0
 38 40  1  0
 39 37  2  0
 42 43  1  0
 42 17  1  0
 44 42  1  0
 46 47  1  0
 46 45  2  0
 48 59  2  0
 49 47  1  0
 49 54  1  0
 50 58  1  0
 50 60  1  0
 51 57  1  0
 51 53  1  0
 52 58  1  0
 53 54  2  0
 53 52  1  0
 55 49  2  0
 56 55  1  0
 56 51  2  0
 57 50  1  0
 58 48  1  0
 60 62  2  0
 61 60  1  0
 63 61  1  0
 64 73  2  0
 64 69  1  0
 65 61  1  0
 65 69  1  0
 66 65  1  0
 67 68  1  0
 67 66  1  0
 68 64  1  0
 69 70  2  0
 70 71  1  0
 72 71  2  0
 73 72  1  0
 74 48  1  0
 74 79  1  0
 74 75  1  0
 75 78  1  1
 75 76  1  0
 77 75  1  0
 79 82  1  0
 80 84  1  0
 80 79  1  0
 81 80  2  0
 84 83  1  0
 86 84  1  0
 86 87  1  0
 86 85  1  0
 88 93  1  0
 88  4  1  0
 89 88  1  0
 89 92  1  0
 90 89  1  0
 91 89  1  0
 95 94  1  0
 95 93  1  0
 96 97  1  0
 96 95  1  0
 97 98  1  0
 97100  1  0
 99 97  1  0
M  ISO  4   7 100  15 100  46 101  47 101
M  END
>  <TORSDO>  (23) 
F 25

>  <SCORE>  (23) 
-12.967

>  <name>  (23) 
22

>  <ligand_id>  (23) 
22

>  <original_smiles>  (23) 
[H]c1c([H])c([H])c2c(c1[H])C([H])([H])C([H])([H])C([H])([H])C2([H])N([H])C(=O)C1([H])N(C(=O)C([H])(N([H])C(=O)C([H])(N([H])C([H])([H])[H])C([H])([H])[H])C(C([H])([H])[H])(C([H])([H])[H])C([H])([H])[H])C([H])([H])c2c([H])c(OC([H])([H])C([H])([H])n3c([H])c(C([H])([H])N([H])C(=O)N4C([H])([H])C([H])([H])C([H])([H])C([H])(n5nc(-c6c([H])c([H])c(Oc7c([H])c([H])c(F)c([H])c7F)c([H])c6[H])c(C(=O)N([H])[H])c5N([H])[H])C4([H])[H])c([H])c3C([H])(C([H])([H])C([H])(C([H])([H])[H])C([H])([H])[N+]([H])([H])[H])[N+]([H])([H])[H])c([H])c([H])c2C1([H])[H]

>  <smiles>  (23) 
[H]c1c([H])c([H])c2c(c1[H])C([H])([H])C([H])([H])C([H])([H])C2([H])N([H])C(=O)C1([H])N(C(=O)C([H])(N([H])C(=O)C([H])(N([H])C([H])([H])[H])C([H])([H])[H])C(C([H])([H])[H])(C([H])([H])[H])C([H])([H])[H])C([H])([H])c2c([H])c(OC([H])([H])C([H])([H])n3c([H])c(C([H])([H])N([H])C(=O)N4C([H])([H])C([H])([H])C([H])([H])C([H])(n5nc(-c6c([H])c([H])c(Oc7c([H])c([H])c(F)c([H])c7F)c([H])c6[H])c(C(=O)N([H])[H])c5N([H])[H])C4([H])[H])c([H])c3C([H])(C([H])([H])C([H])(C([H])([H])[H])C([H])([H])[N+]([H])([H])[H])[N+]([H])([H])[H])c([H])c([H])c2C1([H])[H]

$$$$
23:0:0
     RDKit          3D

 91 99  0  0  1  0  0  0  0  0999 V2000
  -27.4870  -21.3450   19.2620 C   0  0  0  0  0  2  0  0  0  0  0  0
  -27.1000  -20.1730   18.7040 C   0  0  0  0  0  3  0  0  0  0  0  0
  -27.8350  -19.1510   19.3640 C   0  0  0  0  0  3  0  0  0  0  0  0
  -28.9040  -19.6540   20.0780 C   0  0  0  0  0  0  0  0  0  0  0  0
  -27.4960  -17.7110   19.2120 C   0  0  0  0  0  1  0  0  0  0  0  0
  -28.5360  -21.2010   20.1620 N   0  0  0  0  0  0  0  0  0  0  0  0
  -26.8150  -19.5970   16.2850 C   0  0  0  0  0  1  0  0  0  0  0  0
  -25.1540  -21.1900   17.3380 C   0  0  0  0  0  1  0  0  0  0  0  0
  -26.0800  -19.9830   17.5790 C   0  0  0  0  0  3  0  0  0  0  0  0
  -30.0590  -18.4100   20.5310 C   0  0  0  0  0  3  0  0  0  0  0  0
  -30.6980  -15.4560   20.4390 C   0  0  0  0  0  0  0  0  0  0  0  0
  -30.7270  -12.9950   19.5810 C   0  0  0  0  0  2  0  0  0  0  0  0
  -29.8290  -12.7460   18.3410 C   0  0  0  0  0  2  0  0  0  0  0  0
  -28.3770  -12.4560   18.7610 C   0  0  0  0  0  2  0  0  0  0  0  0
  -27.8930  -13.4240   19.8680 C   0  0  0  0  0  3  0  0  0  0  0  0
  -28.9220  -13.6120   21.0040 C   0  0  0  0  0  2  0  0  0  0  0  0
  -30.1490  -14.1390   20.3830 N   0  0  0  0  0  0  0  0  0  0  0  0
  -31.9240  -15.4600   20.2420 O   0  0  0  0  0  0  0  0  0  0  0  0
  -29.9070  -16.7190   20.5240 N   0  0  0  0  0  0  0  0  0  0  0  0
  -28.9340  -16.4750   20.6040 H   0  0  0  0  0  0  0  0  0  0  0  0
  -25.5110  -13.9410   20.6130 C   0  0  0  0  0  0  0  0  0  0  0  0
  -24.4530  -13.1690   20.9830 C   0  0  0  0  0  0  0  0  0  0  0  0
  -24.9260  -11.8260   20.9230 C   0  0  0  0  0  0  0  0  0  0  0  0
  -26.5660  -13.0850   20.3670 N   0  0  0  0  0  0  0  0  0  0  0  0
  -26.2230  -11.7960   20.6210 N   0  0  0  0  0  0  0  0  0  0  0  0
  -24.1920  -10.5690   21.0790 C   0  0  0  0  0  0  0  0  0  0  0  0
  -24.5880   -9.5990   22.0240 C   0  0  0  0  0  3  0  0  0  0  0  0
  -23.8500   -8.4070   22.1690 C   0  0  0  0  0  3  0  0  0  0  0  0
  -22.7040   -8.1790   21.3690 C   0  0  0  0  0  0  0  0  0  0  0  0
  -22.3290   -9.1400   20.4140 C   0  0  0  0  0  3  0  0  0  0  0  0
  -23.0680  -10.3250   20.2660 C   0  0  0  0  0  3  0  0  0  0  0  0
  -21.9410   -7.0390   21.4230 O   0  0  0  0  0  0  0  0  0  0  0  0
  -21.7990   -6.3270   22.5860 C   0  0  0  0  0  0  0  0  0  0  0  0
  -21.2310   -6.8980   23.7460 C   0  0  0  0  0  3  0  0  0  0  0  0
  -21.0410   -6.1100   24.8980 C   0  0  0  0  0  3  0  0  0  0  0  0
  -21.4110   -4.7510   24.8900 C   0  0  0  0  0  0  0  0  0  0  0  0
  -21.9740   -4.1800   23.7350 C   0  0  0  0  0  3  0  0  0  0  0  0
  -22.1660   -4.9670   22.5860 C   0  0  0  0  0  0  0  0  0  0  0  0
  -22.6890   -4.4080   21.4670 F   0  0  0  0  0  0  0  0  0  0  0  0
  -21.2210   -3.9900   25.9930 F   0  0  0  0  0  0  0  0  0  0  0  0
  -23.0600  -13.6570   21.2510 C   0  0  0  0  0  0  0  0  0  0  0  0
  -22.3290  -12.9670   22.1200 N   0  0  0  0  0  0  0  0  0  0  0  0
  -22.6300  -14.6860   20.7290 O   0  0  0  0  0  0  0  0  0  0  0  0
  -22.6920  -12.1350   22.5590 H   0  0  0  0  0  0  0  0  0  0  0  0
  -21.3950  -13.2760   22.3460 H   0  0  0  0  0  0  0  0  0  0  0  0
  -25.6310  -15.2950   20.4260 N   0  0  0  0  0  0  0  0  0  0  0  0
  -24.8240  -15.9040   20.5110 H   0  0  0  0  0  0  0  0  0  0  0  0
  -26.4270  -15.7410   19.9960 H   0  0  0  0  0  0  0  0  0  0  0  0
  -28.8470  -22.7000   20.8290 C   0  0  0  0  0  3  0  0  0  0  0  0
  -28.0360  -24.2860   20.4460 C   0  0  0  0  0  3  0  0  0  0  0  0
  -28.2730  -25.8950   20.7410 O   0  0  0  0  0  0  0  0  0  0  0  0
  -24.7420  -32.0490   23.3160 C   0  0  0  0  0  0  0  0  0  0  0  0
  -27.2810  -27.0010   20.5940 C   0  0  0  0  0  0  0  0  0  0  0  0
  -23.5590  -30.5860   21.7270 C   0  0  0  0  0  3  0  0  0  0  0  0
  -25.0110  -28.9010   20.4050 C   0  0  0  0  0  0  0  0  0  0  0  0
  -26.1290  -30.7670   21.6100 C   0  0  0  0  0  2  0  0  0  0  0  0
  -26.1940  -29.3260   21.0250 C   0  0  0  0  0  0  0  0  0  0  0  0
  -27.3270  -28.3960   21.0890 C   0  0  0  0  0  3  0  0  0  0  0  0
  -26.0710  -26.7250   19.9210 C   0  0  0  0  0  3  0  0  0  0  0  0
  -24.9760  -27.6210   19.8310 C   0  0  0  0  0  3  0  0  0  0  0  0
  -23.8030  -29.8380   20.3870 C   0  0  0  0  0  2  0  0  0  0  0  0
  -24.8320  -31.1640   22.2710 N   0  0  0  0  0  0  0  0  0  0  0  0
  -23.6480  -32.3750   23.8040 O   0  0  0  0  0  0  0  0  0  0  0  0
  -22.8400  -29.6470   22.7290 C   0  0  0  0  0  0  0  0  0  0  0  0
  -21.5240  -29.4250   22.5450 N   0  0  0  0  0  0  0  0  0  0  0  0
  -23.4770  -29.1150   23.6420 O   0  0  0  0  0  0  0  0  0  0  0  0
  -21.0580  -29.9170   21.7970 H   0  0  0  0  0  0  0  0  0  0  0  0
  -18.1550  -28.1410   22.9810 C   0  0  0  0  0  0  0  0  0  0  0  0
  -20.6890  -28.5160   23.3390 C   0  0  0  0  0  3  0  0  0  0  0  0
  -20.8670  -27.0520   22.8740 C   0  0  0  0  0  2  0  0  0  0  0  0
  -19.8170  -26.6080   21.8500 C   0  0  0  0  0  2  0  0  0  0  0  0
  -18.4080  -26.7470   22.4340 C   0  0  0  0  0  2  0  0  0  0  0  0
  -19.2270  -28.9760   23.3970 C   0  0  0  0  0  0  0  0  0  0  0  0
  -18.9360  -30.2680   23.8850 C   0  0  0  0  0  3  0  0  0  0  0  0
  -17.6100  -30.7320   23.9530 C   0  0  0  0  0  3  0  0  0  0  0  0
  -16.5530  -29.9000   23.5430 C   0  0  0  0  0  3  0  0  0  0  0  0
  -16.8260  -28.6050   23.0670 C   0  0  0  0  0  3  0  0  0  0  0  0
  -26.0130  -32.7110   23.9350 C   0  0  0  0  0  3  0  0  0  0  0  0
  -26.5580  -31.9400   25.2020 C   0  0  1  0  0  0  0  0  0  0  0  0
  -25.4630  -31.5870   26.2360 C   0  0  0  0  0  1  0  0  0  0  0  0
  -27.2530  -30.6200   24.7920 C   0  0  0  0  0  1  0  0  0  0  0  0
  -27.6330  -32.7970   25.9160 C   0  0  0  0  0  1  0  0  0  0  0  0
  -25.6740  -34.1000   24.2960 N   0  0  0  0  0  0  0  0  0  0  0  0
  -25.9150  -35.1720   23.5300 C   0  0  0  0  0  0  0  0  0  0  0  0
  -26.5110  -35.0990   22.4510 O   0  0  0  0  0  0  0  0  0  0  0  0
  -25.1360  -34.2260   25.1410 H   0  0  0  0  0  0  0  0  0  0  0  0
  -24.0810  -36.8930   23.3610 C   0  0  0  0  0  1  0  0  0  0  0  0
  -25.4190  -36.5440   24.0360 C   0  0  0  0  0  3  0  0  0  0  0  0
  -27.5800  -37.5400   24.6520 C   0  0  0  0  0  1  0  0  0  0  0  0
  -26.3880  -37.6400   23.8130 N   0  0  0  0  0  0  0  0  0  0  0  0
  -25.9540  -38.5420   23.9840 H   0  0  0  0  0  0  0  0  0  0  0  0
  1  6  1  0
  2  9  1  0
  2  1  1  0
  2  3  1  0
  3  5  1  0
  3  4  1  0
  4  6  1  0
  4 10  2  0
  6 49  1  0
  7  9  1  0
  8  9  1  0
 11 19  1  0
 12 17  1  0
 13 14  1  0
 13 12  1  0
 15 14  1  0
 15 24  1  0
 15 16  1  0
 17 11  1  0
 17 16  1  0
 18 11  2  0
 19 10  1  0
 19 20  1  0
 21 22  2  0
 22 41  1  0
 23 22  1  0
 23 26  1  0
 24 21  1  0
 24 25  1  0
 25 23  2  0
 26 27  1  0
 27 28  2  0
 29 32  1  0
 29 28  1  0
 30 29  2  0
 31 30  1  0
 31 26  2  0
 32 33  1  0
 33 38  2  0
 33 34  1  0
 34 35  2  0
 36 35  1  0
 36 40  1  0
 37 36  2  0
 38 37  1  0
 39 38  1  0
 41 42  1  0
 42 45  1  0
 42 44  1  0
 43 41  2  0
 46 47  1  0
 46 21  1  0
 48 46  1  0
 50 51  1  0
 50 49  2  0
 52 63  2  0
 53 51  1  0
 53 58  1  0
 54 62  1  0
 54 64  1  0
 55 57  1  0
 56 62  1  0
 57 58  2  0
 57 56  1  0
 59 53  2  0
 60 59  1  0
 60 55  2  0
 61 55  1  0
 61 54  1  0
 62 52  1  0
 64 66  2  0
 65 64  1  0
 67 65  1  0
 68 77  2  0
 68 73  1  0
 69 65  1  0
 69 73  1  0
 70 69  1  0
 71 72  1  0
 71 70  1  0
 72 68  1  0
 73 74  2  0
 74 75  1  0
 76 75  2  0
 77 76  1  0
 78 52  1  0
 78 83  1  0
 78 79  1  0
 79 82  1  1
 79 80  1  0
 81 79  1  0
 83 86  1  0
 84 88  1  0
 84 83  1  0
 85 84  2  0
 88 87  1  0
 90 91  1  0
 90 88  1  0
 90 89  1  0
M  ISO  4  11 100  19 100  50 101  51 101
M  END
>  <TORSDO>  (24) 
F 20

>  <SCORE>  (24) 
-15.246

>  <name>  (24) 
23

>  <ligand_id>  (24) 
23

>  <original_smiles>  (24) 
[H]c1c([H])c([H])c2c(c1[H])C([H])([H])C([H])([H])C([H])([H])C2([H])N([H])C(=O)C1([H])N(C(=O)C([H])(N([H])C(=O)C([H])(N([H])C([H])([H])[H])C([H])([H])[H])C(C([H])([H])[H])(C([H])([H])[H])C([H])([H])[H])C([H])([H])c2c([H])c(OC([H])([H])C([H])([H])n3c([H])c(C([H])(C([H])([H])[H])C([H])([H])[H])c(C([H])([H])[H])c3C([H])([H])N([H])C(=O)N3C([H])([H])C([H])([H])C([H])([H])C([H])(n4nc(-c5c([H])c([H])c(Oc6c([H])c([H])c(F)c([H])c6F)c([H])c5[H])c(C(=O)N([H])[H])c4N([H])[H])C3([H])[H])c([H])c([H])c2C1([H])[H]

>  <smiles>  (24) 
[H]c1c([H])c([H])c2c(c1[H])C([H])([H])C([H])([H])C([H])([H])C2([H])N([H])C(=O)C1([H])N(C(=O)C([H])(N([H])C(=O)C([H])(N([H])C([H])([H])[H])C([H])([H])[H])C(C([H])([H])[H])(C([H])([H])[H])C([H])([H])[H])C([H])([H])c2c([H])c(OC([H])([H])C([H])([H])n3c([H])c(C([H])(C([H])([H])[H])C([H])([H])[H])c(C([H])([H])[H])c3C([H])([H])N([H])C(=O)N3C([H])([H])C([H])([H])C([H])([H])C([H])(n4nc(-c5c([H])c([H])c(Oc6c([H])c([H])c(F)c([H])c6F)c([H])c5[H])c(C(=O)N([H])[H])c4N([H])[H])C3([H])[H])c([H])c([H])c2C1([H])[H]

$$$$
24:0:0
     RDKit          3D

 90 98  0  0  1  0  0  0  0  0999 V2000
  -29.9470  -20.8040   19.3440 C   0  0  0  0  0  3  0  0  0  0  0  0
  -28.4550  -20.5120   21.0460 C   0  0  0  0  0  3  0  0  0  0  0  0
  -29.5720  -22.2360   19.2720 C   0  0  0  0  0  0  0  0  0  0  0  0
  -29.4170  -19.7780   20.2320 C   0  0  0  0  0  0  0  0  0  0  0  0
  -28.5950  -22.8740   20.1340 C   0  0  0  0  0  0  0  0  0  0  0  0
  -28.0720  -21.8880   20.9850 N   0  0  0  0  0  0  0  0  0  0  0  0
  -30.0130  -22.8190   16.9390 C   0  0  0  0  0  2  0  0  0  0  0  0
  -30.2280  -23.0570   18.2440 C   0  0  0  0  0  0  0  0  0  0  0  0
  -31.1770  -24.1390   18.7340 C   0  0  0  0  0  1  0  0  0  0  0  0
  -30.1270  -18.1870   20.3910 C   0  0  0  0  0  2  0  0  0  0  0  0
  -30.4310  -15.3210   20.2610 C   0  0  0  0  0  0  0  0  0  0  0  0
  -30.3770  -12.9000   19.3570 C   0  0  0  0  0  2  0  0  0  0  0  0
  -29.4450  -12.7120   18.1330 C   0  0  0  0  0  2  0  0  0  0  0  0
  -28.0020  -12.4410   18.5900 C   0  0  0  0  0  2  0  0  0  0  0  0
  -27.5620  -13.3980   19.7250 C   0  0  0  0  0  3  0  0  0  0  0  0
  -28.6190  -13.5370   20.8410 C   0  0  0  0  0  2  0  0  0  0  0  0
  -29.8460  -14.0310   20.2000 N   0  0  0  0  0  0  0  0  0  0  0  0
  -31.6460  -15.3190   20.0240 O   0  0  0  0  0  0  0  0  0  0  0  0
  -29.6910  -16.5930   20.3860 N   0  0  0  0  0  0  0  0  0  0  0  0
  -28.7040  -16.4440   20.5330 H   0  0  0  0  0  0  0  0  0  0  0  0
  -25.1960  -13.9430   20.5060 C   0  0  0  0  0  0  0  0  0  0  0  0
  -24.1410  -13.1580   20.8770 C   0  0  0  0  0  0  0  0  0  0  0  0
  -24.6150  -11.8110   20.8320 C   0  0  0  0  0  0  0  0  0  0  0  0
  -26.2400  -13.0750   20.2440 N   0  0  0  0  0  0  0  0  0  0  0  0
  -25.9040  -11.7860   20.5090 N   0  0  0  0  0  0  0  0  0  0  0  0
  -23.8960  -10.5440   21.0170 C   0  0  0  0  0  0  0  0  0  0  0  0
  -24.3260   -9.5780   21.9530 C   0  0  0  0  0  3  0  0  0  0  0  0
  -23.6050   -8.3770   22.1260 C   0  0  0  0  0  3  0  0  0  0  0  0
  -22.4360   -8.1350   21.3640 C   0  0  0  0  0  0  0  0  0  0  0  0
  -22.0270   -9.0880   20.4150 C   0  0  0  0  0  3  0  0  0  0  0  0
  -22.7510  -10.2790   20.2390 C   0  0  0  0  0  3  0  0  0  0  0  0
  -21.6850   -6.9870   21.4470 O   0  0  0  0  0  0  0  0  0  0  0  0
  -21.6130   -6.2570   22.6060 C   0  0  0  0  0  0  0  0  0  0  0  0
  -21.1200   -6.8120   23.8070 C   0  0  0  0  0  3  0  0  0  0  0  0
  -20.9980   -6.0060   24.9570 C   0  0  0  0  0  3  0  0  0  0  0  0
  -21.3600   -4.6460   24.9060 C   0  0  0  0  0  0  0  0  0  0  0  0
  -21.8460   -4.0910   23.7100 C   0  0  0  0  0  3  0  0  0  0  0  0
  -21.9700   -4.8940   22.5620 C   0  0  0  0  0  0  0  0  0  0  0  0
  -22.4190   -4.3490   21.4060 F   0  0  0  0  0  0  0  0  0  0  0  0
  -21.2350   -3.8690   26.0080 F   0  0  0  0  0  0  0  0  0  0  0  0
  -22.7450  -13.6260   21.1610 C   0  0  0  0  0  0  0  0  0  0  0  0
  -22.0300  -12.9220   22.0300 N   0  0  0  0  0  0  0  0  0  0  0  0
  -22.2980  -14.6520   20.6480 O   0  0  0  0  0  0  0  0  0  0  0  0
  -22.4110  -12.0940   22.4660 H   0  0  0  0  0  0  0  0  0  0  0  0
  -21.0910  -13.2100   22.2640 H   0  0  0  0  0  0  0  0  0  0  0  0
  -25.3470  -15.3170   20.3370 N   0  0  0  0  0  0  0  0  0  0  0  0
  -24.5680  -15.9560   20.4410 H   0  0  0  0  0  0  0  0  0  0  0  0
  -26.1810  -15.7640   19.9820 H   0  0  0  0  0  0  0  0  0  0  0  0
  -27.8320  -24.4240   19.8940 C   0  0  0  0  0  2  0  0  0  0  0  0
  -28.1750  -25.9850   20.2060 O   0  0  0  0  0  0  0  0  0  0  0  0
  -24.6400  -31.8930   23.2290 C   0  0  0  0  0  0  0  0  0  0  0  0
  -27.1750  -27.0800   20.1410 C   0  0  0  0  0  0  0  0  0  0  0  0
  -23.4300  -30.5080   21.5900 C   0  0  0  0  0  3  0  0  0  0  0  0
  -24.8680  -28.9310   20.1350 C   0  0  0  0  0  0  0  0  0  0  0  0
  -25.9920  -30.7370   21.4180 C   0  0  0  0  0  2  0  0  0  0  0  0
  -26.0590  -29.3380   20.7500 C   0  0  0  0  0  0  0  0  0  0  0  0
  -27.2060  -28.4310   20.7350 C   0  0  0  0  0  3  0  0  0  0  0  0
  -25.9590  -26.8260   19.4680 C   0  0  0  0  0  3  0  0  0  0  0  0
  -24.8410  -27.6940   19.4740 C   0  0  0  0  0  3  0  0  0  0  0  0
  -23.6460  -29.8420   20.2040 C   0  0  0  0  0  2  0  0  0  0  0  0
  -24.7090  -31.0710   22.1330 N   0  0  0  0  0  0  0  0  0  0  0  0
  -23.5560  -32.1730   23.7650 O   0  0  0  0  0  0  0  0  0  0  0  0
  -22.7510  -29.4990   22.5540 C   0  0  0  0  0  0  0  0  0  0  0  0
  -21.4240  -29.3190   22.4300 N   0  0  0  0  0  0  0  0  0  0  0  0
  -23.4280  -28.8790   23.3790 O   0  0  0  0  0  0  0  0  0  0  0  0
  -20.9290  -29.8710   21.7430 H   0  0  0  0  0  0  0  0  0  0  0  0
  -18.0550  -28.0710   22.9430 C   0  0  0  0  0  0  0  0  0  0  0  0
  -20.6130  -28.3710   23.2040 C   0  0  0  0  0  3  0  0  0  0  0  0
  -20.7330  -26.9400   22.6320 C   0  0  0  0  0  2  0  0  0  0  0  0
  -19.6350  -26.6020   21.6190 C   0  0  0  0  0  2  0  0  0  0  0  0
  -18.2510  -26.7260   22.2620 C   0  0  0  0  0  2  0  0  0  0  0  0
  -19.1650  -28.8500   23.3690 C   0  0  0  0  0  0  0  0  0  0  0  0
  -18.9260  -30.1070   23.9670 C   0  0  0  0  0  3  0  0  0  0  0  0
  -17.6130  -30.5850   24.1420 C   0  0  0  0  0  3  0  0  0  0  0  0
  -16.5200  -29.8050   23.7280 C   0  0  0  0  0  3  0  0  0  0  0  0
  -16.7430  -28.5490   23.1340 C   0  0  0  0  0  3  0  0  0  0  0  0
  -25.9170  -32.5330   23.8510 C   0  0  0  0  0  3  0  0  0  0  0  0
  -26.4140  -31.7870   25.1500 C   0  0  1  0  0  0  0  0  0  0  0  0
  -25.3130  -31.5870   26.2170 C   0  0  0  0  0  1  0  0  0  0  0  0
  -26.9870  -30.3930   24.8040 C   0  0  0  0  0  1  0  0  0  0  0  0
  -27.5670  -32.5850   25.8050 C   0  0  0  0  0  1  0  0  0  0  0  0
  -25.6130  -33.9400   24.1610 N   0  0  0  0  0  0  0  0  0  0  0  0
  -25.9270  -34.9830   23.3800 C   0  0  0  0  0  0  0  0  0  0  0  0
  -26.5670  -34.8640   22.3330 O   0  0  0  0  0  0  0  0  0  0  0  0
  -25.0450  -34.1110   24.9780 H   0  0  0  0  0  0  0  0  0  0  0  0
  -24.1830  -36.7700   23.0660 C   0  0  0  0  0  1  0  0  0  0  0  0
  -25.4570  -36.3810   23.8320 C   0  0  0  0  0  3  0  0  0  0  0  0
  -27.6190  -37.2890   24.5610 C   0  0  0  0  0  1  0  0  0  0  0  0
  -26.4800  -37.4350   23.6570 N   0  0  0  0  0  0  0  0  0  0  0  0
  -26.0760  -38.3560   23.8030 H   0  0  0  0  0  0  0  0  0  0  0  0
  1  4  1  0
  3  1  2  0
  3  5  1  0
  4 10  1  0
  4  2  2  0
  5  6  2  0
  6  2  1  0
  7  8  2  0
  8  9  1  0
  8  3  1  0
 11 19  1  0
 12 17  1  0
 13 14  1  0
 13 12  1  0
 15 14  1  0
 15 24  1  0
 15 16  1  0
 17 11  1  0
 17 16  1  0
 18 11  2  0
 19 10  1  0
 19 20  1  0
 21 22  2  0
 22 41  1  0
 23 22  1  0
 23 26  1  0
 24 21  1  0
 24 25  1  0
 25 23  2  0
 26 27  1  0
 27 28  2  0
 29 32  1  0
 29 28  1  0
 30 29  2  0
 31 30  1  0
 31 26  2  0
 32 33  1  0
 33 34  1  0
 34 35  2  0
 36 35  1  0
 36 40  1  0
 37 36  2  0
 38 33  2  0
 38 37  1  0
 39 38  1  0
 41 42  1  0
 42 45  1  0
 42 44  1  0
 43 41  2  0
 46 47  1  0
 46 21  1  0
 48 46  1  0
 49  5  1  0
 49 50  1  0
 51 62  2  0
 52 50  1  0
 52 57  1  0
 53 61  1  0
 53 63  1  0
 54 60  1  0
 54 56  1  0
 55 61  1  0
 56 55  1  0
 57 56  2  0
 58 59  1  0
 58 52  2  0
 59 54  2  0
 60 53  1  0
 61 51  1  0
 63 65  2  0
 64 63  1  0
 66 64  1  0
 67 76  2  0
 67 72  1  0
 68 64  1  0
 68 72  1  0
 69 68  1  0
 70 71  1  0
 70 69  1  0
 71 67  1  0
 72 73  2  0
 73 74  1  0
 75 74  2  0
 76 75  1  0
 77 51  1  0
 77 82  1  0
 77 78  1  0
 78 81  1  1
 78 79  1  0
 80 78  1  0
 82 85  1  0
 83 87  1  0
 83 82  1  0
 84 83  2  0
 87 86  1  0
 89 90  1  0
 89 87  1  0
 89 88  1  0
M  ISO  4  11 100  19 100  49 101  50 101
M  END
>  <TORSDO>  (25) 
F 19

>  <SCORE>  (25) 
-15.337

>  <name>  (25) 
24

>  <ligand_id>  (25) 
24

>  <original_smiles>  (25) 
[H]C([H])=C(c1c(C([H])([H])Oc2c([H])c([H])c3c(c2[H])C([H])([H])N(C(=O)C([H])(N([H])C(=O)C([H])(N([H])C([H])([H])[H])C([H])([H])[H])C(C([H])([H])[H])(C([H])([H])[H])C([H])([H])[H])C([H])(C(=O)N([H])C2([H])c4c([H])c([H])c([H])c([H])c4C([H])([H])C([H])([H])C2([H])[H])C3([H])[H])nc([H])c(C([H])([H])N([H])C(=O)N2C([H])([H])C([H])([H])C([H])([H])C([H])(n3nc(-c4c([H])c([H])c(Oc5c([H])c([H])c(F)c([H])c5F)c([H])c4[H])c(C(=O)N([H])[H])c3N([H])[H])C2([H])[H])c1[H])C([H])([H])[H]

>  <smiles>  (25) 
[H]C([H])=C(c1c(C([H])([H])Oc2c([H])c([H])c3c(c2[H])C([H])([H])N(C(=O)C([H])(N([H])C(=O)C([H])(N([H])C([H])([H])[H])C([H])([H])[H])C(C([H])([H])[H])(C([H])([H])[H])C([H])([H])[H])C([H])(C(=O)N([H])C2([H])c4c([H])c([H])c([H])c([H])c4C([H])([H])C([H])([H])C2([H])[H])C3([H])[H])nc([H])c(C([H])([H])N([H])C(=O)N2C([H])([H])C([H])([H])C([H])([H])C([H])(n3nc(-c4c([H])c([H])c(Oc5c([H])c([H])c(F)c([H])c5F)c([H])c4[H])c(C(=O)N([H])[H])c3N([H])[H])C2([H])[H])c1[H])C([H])([H])[H]

$$$$
25:0:0
     RDKit          3D

 96104  0  0  1  0  0  0  0  0999 V2000
  -28.5960  -20.0440   20.3110 C   0  0  0  0  0  3  0  0  0  0  0  0
  -31.1500  -19.6510   21.2430 C   0  0  0  0  0  2  0  0  0  0  0  0
  -30.3960  -18.4720   20.9540 C   0  0  0  0  0  0  0  0  0  0  0  0
  -29.0700  -18.6970   20.4700 C   0  0  0  0  0  0  0  0  0  0  0  0
  -29.3970  -21.1750   20.6120 C   0  0  0  0  0  0  0  0  0  0  0  0
  -30.6470  -20.9130   21.0680 N   0  0  0  0  0  0  0  0  0  0  0  0
  -31.2600  -21.7060   21.2750 H   0  0  0  0  0  0  0  0  0  0  0  0
  -28.2610  -17.5850   20.1570 N   0  0  0  0  0  0  0  0  0  0  0  0
  -28.4100  -16.7360   20.6850 H   0  0  0  0  0  0  0  0  0  0  0  0
  -25.8050  -17.2960   20.1470 C   0  0  0  0  0  1  0  0  0  0  0  0
  -27.1940  -16.7480   18.0960 C   0  0  0  0  0  1  0  0  0  0  0  0
  -27.0560  -17.6510   19.3320 C   0  0  0  0  0  3  0  0  0  0  0  0
  -30.9710  -17.0630   21.3940 C   0  0  0  0  0  2  0  0  0  0  0  0
  -31.0880  -14.5890   20.7210 C   0  0  0  0  0  0  0  0  0  0  0  0
  -30.8240  -12.3510   19.6680 C   0  0  0  0  0  2  0  0  0  0  0  0
  -29.9110  -12.4330   18.4300 C   0  0  0  0  0  2  0  0  0  0  0  0
  -28.4340  -12.2990   18.8450 C   0  0  0  0  0  2  0  0  0  0  0  0
  -28.0520  -13.2160   20.0370 C   0  0  0  0  0  3  0  0  0  0  0  0
  -29.0840  -13.1180   21.1800 C   0  0  0  0  0  2  0  0  0  0  0  0
  -30.4030  -13.4100   20.6070 N   0  0  0  0  0  0  0  0  0  0  0  0
  -32.2800  -14.6610   20.4120 O   0  0  0  0  0  0  0  0  0  0  0  0
  -30.3790  -15.7240   21.0220 N   0  0  0  0  0  0  0  0  0  0  0  0
  -29.3820  -15.6060   21.1150 H   0  0  0  0  0  0  0  0  0  0  0  0
  -25.6950  -13.8620   20.8290 C   0  0  0  0  0  0  0  0  0  0  0  0
  -24.5920  -13.1130   21.1380 C   0  0  0  0  0  0  0  0  0  0  0  0
  -24.9860  -11.7490   20.9750 C   0  0  0  0  0  0  0  0  0  0  0  0
  -26.6940  -12.9570   20.5080 N   0  0  0  0  0  0  0  0  0  0  0  0
  -26.2720  -11.6740   20.6570 N   0  0  0  0  0  0  0  0  0  0  0  0
  -24.1970  -10.5130   21.0420 C   0  0  0  0  0  0  0  0  0  0  0  0
  -24.4940   -9.4980   21.9770 C   0  0  0  0  0  3  0  0  0  0  0  0
  -23.7060   -8.3280   22.0320 C   0  0  0  0  0  3  0  0  0  0  0  0
  -22.6120   -8.1630   21.1500 C   0  0  0  0  0  0  0  0  0  0  0  0
  -22.3370   -9.1680   20.2080 C   0  0  0  0  0  3  0  0  0  0  0  0
  -23.1240  -10.3290   20.1470 C   0  0  0  0  0  3  0  0  0  0  0  0
  -21.8090   -7.0480   21.1160 O   0  0  0  0  0  0  0  0  0  0  0  0
  -21.5120   -6.3390   22.2530 C   0  0  0  0  0  0  0  0  0  0  0  0
  -20.8570   -6.9370   23.3520 C   0  0  0  0  0  3  0  0  0  0  0  0
  -20.5080   -6.1580   24.4730 C   0  0  0  0  0  3  0  0  0  0  0  0
  -20.8020   -4.7810   24.4930 C   0  0  0  0  0  0  0  0  0  0  0  0
  -21.4460   -4.1830   23.3960 C   0  0  0  0  0  3  0  0  0  0  0  0
  -21.7990   -4.9590   22.2790 C   0  0  0  0  0  0  0  0  0  0  0  0
  -22.4020   -4.3730   21.2160 F   0  0  0  0  0  0  0  0  0  0  0  0
  -20.4600   -4.0300   25.5670 F   0  0  0  0  0  0  0  0  0  0  0  0
  -23.2220  -13.6360   21.4520 C   0  0  0  0  0  0  0  0  0  0  0  0
  -22.4690  -12.9180   22.2790 N   0  0  0  0  0  0  0  0  0  0  0  0
  -22.8290  -14.7130   21.0040 O   0  0  0  0  0  0  0  0  0  0  0  0
  -22.8030  -12.0480   22.6650 H   0  0  0  0  0  0  0  0  0  0  0  0
  -21.5490  -13.2460   22.5320 H   0  0  0  0  0  0  0  0  0  0  0  0
  -25.9220  -15.2320   20.7570 N   0  0  0  0  0  0  0  0  0  0  0  0
  -25.1770  -15.8960   20.9420 H   0  0  0  0  0  0  0  0  0  0  0  0
  -26.7480  -15.6660   20.3650 H   0  0  0  0  0  0  0  0  0  0  0  0
  -28.9430  -22.6320   20.2430 C   0  0  0  0  0  2  0  0  0  0  0  0
  -29.1190  -23.8630   21.2280 C   0  0  0  0  0  2  0  0  0  0  0  0
  -27.4940  -25.2320   22.6580 C   0  0  0  0  0  1  0  0  0  0  0  0
  -27.9540  -24.9500   21.2120 C   0  0  0  0  0  3  0  0  0  0  0  0
  -28.2170  -26.2570   20.5840 O   0  0  0  0  0  0  0  0  0  0  0  0
  -24.4750  -31.8520   23.0820 C   0  0  0  0  0  0  0  0  0  0  0  0
  -27.1110  -27.1000   20.4350 C   0  0  0  0  0  0  0  0  0  0  0  0
  -23.2930  -30.3530   21.5120 C   0  0  0  0  0  3  0  0  0  0  0  0
  -24.7630  -28.6980   20.2410 C   0  0  0  0  0  0  0  0  0  0  0  0
  -25.8370  -30.6490   21.3630 C   0  0  0  0  0  2  0  0  0  0  0  0
  -25.9210  -29.2300   20.8260 C   0  0  0  0  0  0  0  0  0  0  0  0
  -27.1020  -28.4420   20.9100 C   0  0  0  0  0  3  0  0  0  0  0  0
  -25.9380  -26.6060   19.8220 C   0  0  0  0  0  3  0  0  0  0  0  0
  -24.7710  -27.3880   19.7320 C   0  0  0  0  0  3  0  0  0  0  0  0
  -23.5380  -29.5850   20.1880 C   0  0  0  0  0  2  0  0  0  0  0  0
  -24.5520  -30.9690   22.0440 N   0  0  0  0  0  0  0  0  0  0  0  0
  -23.3830  -32.1790   23.5680 O   0  0  0  0  0  0  0  0  0  0  0  0
  -22.5980  -29.4110   22.5250 C   0  0  0  0  0  0  0  0  0  0  0  0
  -21.2700  -29.2580   22.3960 N   0  0  0  0  0  0  0  0  0  0  0  0
  -23.2530  -28.8180   23.3870 O   0  0  0  0  0  0  0  0  0  0  0  0
  -20.8010  -29.7840   21.6710 H   0  0  0  0  0  0  0  0  0  0  0  0
  -17.8430  -28.2850   23.0090 C   0  0  0  0  0  0  0  0  0  0  0  0
  -20.4190  -28.3900   23.2090 C   0  0  0  0  0  3  0  0  0  0  0  0
  -20.4210  -26.9440   22.6570 C   0  0  0  0  0  2  0  0  0  0  0  0
  -19.2740  -26.6750   21.6810 C   0  0  0  0  0  2  0  0  0  0  0  0
  -17.9200  -26.9150   22.3550 C   0  0  0  0  0  2  0  0  0  0  0  0
  -19.0180  -28.9840   23.3950 C   0  0  0  0  0  0  0  0  0  0  0  0
  -18.8910  -30.2680   23.9660 C   0  0  0  0  0  3  0  0  0  0  0  0
  -17.6240  -30.8550   24.1540 C   0  0  0  0  0  3  0  0  0  0  0  0
  -16.4660  -30.1500   23.7870 C   0  0  0  0  0  3  0  0  0  0  0  0
  -16.5760  -28.8680   23.2180 C   0  0  0  0  0  3  0  0  0  0  0  0
  -25.7540  -32.5120   23.6840 C   0  0  0  0  0  3  0  0  0  0  0  0
  -25.4010  -33.8790   24.0900 N   0  0  0  0  0  0  0  0  0  0  0  0
  -25.6690  -34.9790   23.3710 C   0  0  0  0  0  0  0  0  0  0  0  0
  -26.3130  -34.9520   22.3180 O   0  0  0  0  0  0  0  0  0  0  0  0
  -24.8270  -33.9720   24.9160 H   0  0  0  0  0  0  0  0  0  0  0  0
  -23.8760  -36.7270   23.1290 C   0  0  0  0  0  1  0  0  0  0  0  0
  -25.1400  -36.3240   23.9060 C   0  0  0  0  0  3  0  0  0  0  0  0
  -27.2500  -37.2400   24.7640 C   0  0  0  0  0  1  0  0  0  0  0  0
  -26.1350  -37.4160   23.8380 N   0  0  0  0  0  0  0  0  0  0  0  0
  -25.6980  -38.3110   24.0350 H   0  0  0  0  0  0  0  0  0  0  0  0
  -26.3530  -31.7100   24.9040 C   0  0  1  0  0  0  0  0  0  0  0  0
  -25.2950  -31.3150   25.9620 C   0  0  0  0  0  1  0  0  0  0  0  0
  -27.0430  -30.4150   24.4190 C   0  0  0  0  0  1  0  0  0  0  0  0
  -27.4460  -32.5530   25.6060 C   0  0  0  0  0  1  0  0  0  0  0  0
  1  4  1  0
  1  5  2  0
  3  2  1  0
  3 13  1  0
  4  3  2  0
  5  6  1  0
  6  2  1  0
  6  7  1  0
  8  4  1  0
  8  9  1  0
 11 12  1  0
 12 10  1  0
 12  8  1  0
 14 22  1  0
 15 20  1  0
 16 17  1  0
 16 15  1  0
 18 17  1  0
 18 27  1  0
 18 19  1  0
 20 14  1  0
 20 19  1  0
 21 14  2  0
 22 23  1  0
 22 13  1  0
 24 25  2  0
 25 44  1  0
 26 29  1  0
 26 25  1  0
 27 28  1  0
 27 24  1  0
 28 26  2  0
 29 30  1  0
 30 31  2  0
 32 31  1  0
 33 32  2  0
 34 33  1  0
 34 29  2  0
 35 32  1  0
 35 36  1  0
 36 41  2  0
 36 37  1  0
 37 38  2  0
 38 39  1  0
 39 43  1  0
 40 39  2  0
 41 40  1  0
 42 41  1  0
 44 45  1  0
 45 48  1  0
 45 47  1  0
 46 44  2  0
 49 24  1  0
 49 50  1  0
 51 49  1  0
 52  5  1  0
 52 53  1  0
 55 53  1  0
 55 54  1  0
 56 55  1  0
 57 68  2  0
 58 56  1  0
 58 63  1  0
 59 67  1  0
 59 69  1  0
 60 62  1  0
 61 67  1  0
 62 63  2  0
 62 61  1  0
 64 58  2  0
 65 64  1  0
 65 60  2  0
 66 60  1  0
 66 59  1  0
 67 57  1  0
 69 71  2  0
 70 69  1  0
 72 70  1  0
 73 82  2  0
 73 78  1  0
 74 70  1  0
 74 78  1  0
 75 74  1  0
 76 77  1  0
 76 75  1  0
 77 73  1  0
 78 79  2  0
 79 80  1  0
 81 80  2  0
 82 81  1  0
 83 57  1  0
 83 84  1  0
 83 93  1  0
 84 87  1  0
 85 89  1  0
 85 84  1  0
 86 85  2  0
 89 88  1  0
 91 89  1  0
 91 92  1  0
 91 90  1  0
 93 96  1  1
 93 94  1  0
 95 93  1  0
M  ISO  4  14 100  22 100  55 101  56 101
M  END
>  <TORSDO>  (26) 
F 22

>  <SCORE>  (26) 
-11.137

>  <name>  (26) 
25

>  <ligand_id>  (26) 
25

>  <original_smiles>  (26) 
[H]c1c([H])c([H])c2c(c1[H])C([H])([H])C([H])([H])C([H])([H])C2([H])N([H])C(=O)C1([H])N(C(=O)C([H])(N([H])C(=O)C([H])(N([H])C([H])([H])[H])C([H])([H])[H])C(C([H])([H])[H])(C([H])([H])[H])C([H])([H])[H])C([H])([H])c2c([H])c(OC([H])(C([H])([H])[H])C([H])([H])C([H])([H])c3c([H])c(N([H])C([H])(C([H])([H])[H])C([H])([H])[H])c(C([H])([H])N([H])C(=O)N4C([H])([H])C([H])([H])C([H])([H])C([H])(n5nc(-c6c([H])c([H])c(Oc7c([H])c([H])c(F)c([H])c7F)c([H])c6[H])c(C(=O)N([H])[H])c5N([H])[H])C4([H])[H])c([H])[n+]3[H])c([H])c([H])c2C1([H])[H]

>  <smiles>  (26) 
[H]c1c([H])c([H])c2c(c1[H])C([H])([H])C([H])([H])C([H])([H])C2([H])N([H])C(=O)C1([H])N(C(=O)C([H])(N([H])C(=O)C([H])(N([H])C([H])([H])[H])C([H])([H])[H])C(C([H])([H])[H])(C([H])([H])[H])C([H])([H])[H])C([H])([H])c2c([H])c(OC([H])(C([H])([H])[H])C([H])([H])C([H])([H])c3c([H])c(N([H])C([H])(C([H])([H])[H])C([H])([H])[H])c(C([H])([H])N([H])C(=O)N4C([H])([H])C([H])([H])C([H])([H])C([H])(n5nc(-c6c([H])c([H])c(Oc7c([H])c([H])c(F)c([H])c7F)c([H])c6[H])c(C(=O)N([H])[H])c5N([H])[H])C4([H])[H])c([H])[n+]3[H])c([H])c([H])c2C1([H])[H]

$$$$
26:0:0
     RDKit          3D

 99107  0  0  1  0  0  0  0  0999 V2000
  -30.1060  -20.8620   21.3830 C   0  0  0  0  0  2  0  0  0  0  0  0
  -29.7310  -19.8180   20.4340 C   0  0  0  0  0  0  0  0  0  0  0  0
  -28.5120  -21.9600   19.4840 C   0  0  0  0  0  0  0  0  0  0  0  0
  -28.8840  -20.5050   19.4620 C   0  0  0  0  0  0  0  0  0  0  0  0
  -28.9410  -22.9480   20.4830 C   0  0  0  0  0  0  0  0  0  0  0  0
  -27.5510  -22.4620   18.4140 C   0  0  0  0  0  1  0  0  0  0  0  0
  -29.7220  -22.2300   21.3890 N   0  0  0  0  0  0  0  0  0  0  0  0
  -30.0580  -22.7690   22.1890 H   0  0  0  0  0  0  0  0  0  0  0  0
  -26.8510  -24.3200   21.4170 C   0  0  0  0  0  1  0  0  0  0  0  0
  -28.2700  -24.5170   20.8530 C   0  0  0  0  0  3  0  0  0  0  0  0
  -28.4280  -26.0370   20.2730 O   0  0  0  0  0  0  0  0  0  0  0  0
  -24.5390  -31.8740   23.0770 C   0  0  0  0  0  0  0  0  0  0  0  0
  -27.3760  -27.0840   20.2330 C   0  0  0  0  0  0  0  0  0  0  0  0
  -23.4500  -30.4020   21.4320 C   0  0  0  0  0  3  0  0  0  0  0  0
  -25.0050  -28.8420   20.0820 C   0  0  0  0  0  0  0  0  0  0  0  0
  -26.0080  -30.7270   21.3520 C   0  0  0  0  0  2  0  0  0  0  0  0
  -26.1550  -29.3120   20.7300 C   0  0  0  0  0  0  0  0  0  0  0  0
  -27.3400  -28.4530   20.7820 C   0  0  0  0  0  3  0  0  0  0  0  0
  -26.1990  -26.7640   19.5220 C   0  0  0  0  0  3  0  0  0  0  0  0
  -25.0490  -27.5870   19.4590 C   0  0  0  0  0  3  0  0  0  0  0  0
  -23.7480  -29.7070   20.0760 C   0  0  0  0  0  2  0  0  0  0  0  0
  -24.6840  -31.0280   22.0070 N   0  0  0  0  0  0  0  0  0  0  0  0
  -23.4230  -32.1250   23.5620 O   0  0  0  0  0  0  0  0  0  0  0  0
  -22.7740  -29.3910   22.3950 C   0  0  0  0  0  0  0  0  0  0  0  0
  -21.4520  -29.1810   22.2480 N   0  0  0  0  0  0  0  0  0  0  0  0
  -23.4450  -28.7950   23.2400 O   0  0  0  0  0  0  0  0  0  0  0  0
  -20.9630  -29.7140   21.5410 H   0  0  0  0  0  0  0  0  0  0  0  0
  -18.0900  -27.9150   22.7490 C   0  0  0  0  0  0  0  0  0  0  0  0
  -20.6460  -28.2270   23.0150 C   0  0  0  0  0  3  0  0  0  0  0  0
  -20.7720  -26.7990   22.4340 C   0  0  0  0  0  2  0  0  0  0  0  0
  -19.6770  -26.4610   21.4190 C   0  0  0  0  0  2  0  0  0  0  0  0
  -18.2920  -26.5750   22.0640 C   0  0  0  0  0  2  0  0  0  0  0  0
  -19.1950  -28.6980   23.1810 C   0  0  0  0  0  0  0  0  0  0  0  0
  -18.9490  -29.9500   23.7860 C   0  0  0  0  0  3  0  0  0  0  0  0
  -17.6350  -30.4220   23.9600 C   0  0  0  0  0  3  0  0  0  0  0  0
  -16.5460  -29.6370   23.5410 C   0  0  0  0  0  3  0  0  0  0  0  0
  -16.7740  -28.3860   22.9430 C   0  0  0  0  0  3  0  0  0  0  0  0
  -25.7630  -32.5790   23.7330 C   0  0  0  0  0  3  0  0  0  0  0  0
  -26.2830  -31.8390   25.0280 C   0  0  1  0  0  0  0  0  0  0  0  0
  -25.1670  -31.5110   26.0470 C   0  0  0  0  0  1  0  0  0  0  0  0
  -26.9870  -30.5120   24.6620 C   0  0  0  0  0  1  0  0  0  0  0  0
  -27.3420  -32.7140   25.7410 C   0  0  0  0  0  1  0  0  0  0  0  0
  -25.3700  -33.9590   24.0610 N   0  0  0  0  0  0  0  0  0  0  0  0
  -25.6560  -35.0370   23.3180 C   0  0  0  0  0  0  0  0  0  0  0  0
  -26.3440  -34.9750   22.2950 O   0  0  0  0  0  0  0  0  0  0  0  0
  -24.7570  -34.0770   24.8550 H   0  0  0  0  0  0  0  0  0  0  0  0
  -23.8390  -36.7430   22.9640 C   0  0  0  0  0  1  0  0  0  0  0  0
  -25.0950  -36.3970   23.7800 C   0  0  0  0  0  3  0  0  0  0  0  0
  -27.1760  -37.3900   24.6260 C   0  0  0  0  0  1  0  0  0  0  0  0
  -26.0710  -37.5040   23.6790 N   0  0  0  0  0  0  0  0  0  0  0  0
  -25.6160  -38.4010   23.8270 H   0  0  0  0  0  0  0  0  0  0  0  0
  -28.3600  -19.6920   18.4490 N   0  0  0  0  0  0  0  0  0  0  0  0
  -28.1860  -18.7570   18.8000 H   0  0  0  0  0  0  0  0  0  0  0  0
  -29.1570  -19.6620   17.2280 C   0  0  0  0  0  2  0  0  0  0  0  0
  -28.3270  -19.1300   16.0470 C   0  0  0  0  0  2  0  0  0  0  0  0
  -29.0560  -19.2370   14.6940 C   0  0  0  0  0  2  0  0  0  0  0  0
  -28.1910  -18.8500   13.5640 N   0  0  0  0  0  4  0  0  0  0  0  0
  -27.8950  -17.8950   13.6470 H   0  0  0  0  0  0  0  0  0  0  0  0
  -28.6930  -18.9470   12.7000 H   0  0  0  0  0  0  0  0  0  0  0  0
  -27.3760  -19.4370   13.5180 H   0  0  0  0  0  0  0  0  0  0  0  0
  -30.4440  -18.2230   20.4360 C   0  0  0  0  0  2  0  0  0  0  0  0
  -30.7380  -15.3610   20.5200 C   0  0  0  0  0  0  0  0  0  0  0  0
  -30.7180  -12.9100   19.7060 C   0  0  0  0  0  2  0  0  0  0  0  0
  -29.8610  -12.6960   18.4340 C   0  0  0  0  0  2  0  0  0  0  0  0
  -28.3880  -12.4530   18.8090 C   0  0  0  0  0  2  0  0  0  0  0  0
  -27.8900  -13.4500   19.8850 C   0  0  0  0  0  3  0  0  0  0  0  0
  -28.8790  -13.6130   21.0570 C   0  0  0  0  0  2  0  0  0  0  0  0
  -30.1500  -14.0730   20.4780 N   0  0  0  0  0  0  0  0  0  0  0  0
  -31.9640  -15.3500   20.3430 O   0  0  0  0  0  0  0  0  0  0  0  0
  -30.0000  -16.6360   20.5580 N   0  0  0  0  0  0  0  0  0  0  0  0
  -29.0080  -16.5010   20.6810 H   0  0  0  0  0  0  0  0  0  0  0  0
  -25.5030  -14.0430   20.5570 C   0  0  0  0  0  0  0  0  0  0  0  0
  -24.4110  -13.2800   20.8650 C   0  0  0  0  0  0  0  0  0  0  0  0
  -24.8520  -11.9220   20.8200 C   0  0  0  0  0  0  0  0  0  0  0  0
  -26.5360  -13.1520   20.3330 N   0  0  0  0  0  0  0  0  0  0  0  0
  -26.1550  -11.8690   20.5600 N   0  0  0  0  0  0  0  0  0  0  0  0
  -24.0920  -10.6710   20.9480 C   0  0  0  0  0  0  0  0  0  0  0  0
  -24.3630   -9.7420   21.9780 C   0  0  0  0  0  3  0  0  0  0  0  0
  -23.6040   -8.5580   22.0930 C   0  0  0  0  0  3  0  0  0  0  0  0
  -22.5590   -8.2930   21.1750 C   0  0  0  0  0  0  0  0  0  0  0  0
  -22.3090   -9.2100   20.1380 C   0  0  0  0  0  3  0  0  0  0  0  0
  -23.0700  -10.3850   20.0220 C   0  0  0  0  0  3  0  0  0  0  0  0
  -21.7860   -7.1570   21.1940 O   0  0  0  0  0  0  0  0  0  0  0  0
  -21.4160   -6.5580   22.3710 C   0  0  0  0  0  0  0  0  0  0  0  0
  -20.6960   -7.2530   23.3660 C   0  0  0  0  0  3  0  0  0  0  0  0
  -20.2750   -6.5780   24.5300 C   0  0  0  0  0  3  0  0  0  0  0  0
  -20.5650   -5.2110   24.6970 C   0  0  0  0  0  0  0  0  0  0  0  0
  -21.2780   -4.5170   23.7040 C   0  0  0  0  0  3  0  0  0  0  0  0
  -21.6990   -5.1880   22.5430 C   0  0  0  0  0  0  0  0  0  0  0  0
  -22.3680   -4.5090   21.5800 F   0  0  0  0  0  0  0  0  0  0  0  0
  -20.1550   -4.5620   25.8120 F   0  0  0  0  0  0  0  0  0  0  0  0
  -23.0140  -13.7800   21.0860 C   0  0  0  0  0  0  0  0  0  0  0  0
  -22.2470  -13.1000   21.9300 N   0  0  0  0  0  0  0  0  0  0  0  0
  -22.6120  -14.8120   20.5470 O   0  0  0  0  0  0  0  0  0  0  0  0
  -22.5830  -12.2660   22.3870 H   0  0  0  0  0  0  0  0  0  0  0  0
  -21.3080  -13.4190   22.1230 H   0  0  0  0  0  0  0  0  0  0  0  0
  -25.6980  -15.4140   20.4170 N   0  0  0  0  0  0  0  0  0  0  0  0
  -24.9350  -16.0760   20.5050 H   0  0  0  0  0  0  0  0  0  0  0  0
  -26.5570  -15.8390   20.0980 H   0  0  0  0  0  0  0  0  0  0  0  0
  1  7  1  0
  2 61  1  0
  2  1  1  0
  3  5  2  0
  4  3  1  0
  4  2  2  0
  5 10  1  0
  5  7  1  0
  6  3  1  0
  7  8  1  0
 10  9  1  0
 11 10  1  0
 12 23  2  0
 13 11  1  0
 13 18  1  0
 14 22  1  0
 14 24  1  0
 15 17  1  0
 16 22  1  0
 17 18  2  0
 17 16  1  0
 19 13  2  0
 20 19  1  0
 20 15  2  0
 21 15  1  0
 21 14  1  0
 22 12  1  0
 24 26  2  0
 25 24  1  0
 27 25  1  0
 28 37  2  0
 28 33  1  0
 29 25  1  0
 29 33  1  0
 30 29  1  0
 31 32  1  0
 31 30  1  0
 32 28  1  0
 33 34  2  0
 34 35  1  0
 36 35  2  0
 37 36  1  0
 38 12  1  0
 38 43  1  0
 38 39  1  0
 39 42  1  1
 39 40  1  0
 41 39  1  0
 43 46  1  0
 44 48  1  0
 44 43  1  0
 45 44  2  0
 48 47  1  0
 50 48  1  0
 50 51  1  0
 50 49  1  0
 52 53  1  0
 52  4  1  0
 54 52  1  0
 55 54  1  0
 56 55  1  0
 57 58  1  0
 57 56  1  0
 59 57  1  0
 60 57  1  0
 61 70  1  0
 62 70  1  0
 63 68  1  0
 64 65  1  0
 64 63  1  0
 66 65  1  0
 66 75  1  0
 66 67  1  0
 68 62  1  0
 68 67  1  0
 69 62  2  0
 70 71  1  0
 72 73  2  0
 73 92  1  0
 74 73  1  0
 74 77  1  0
 75 72  1  0
 75 76  1  0
 76 74  2  0
 77 78  1  0
 78 79  2  0
 80 83  1  0
 80 79  1  0
 81 80  2  0
 82 81  1  0
 82 77  2  0
 83 84  1  0
 84 89  2  0
 84 85  1  0
 85 86  2  0
 86 87  1  0
 87 91  1  0
 88 87  2  0
 89 88  1  0
 90 89  1  0
 92 93  1  0
 93 96  1  0
 93 95  1  0
 94 92  2  0
 97 98  1  0
 97 72  1  0
 99 97  1  0
M  ISO  4  10 101  11 101  62 100  70 100
M  END
>  <TORSDO>  (27) 
F 23

>  <SCORE>  (27) 
-12.776

>  <name>  (27) 
26

>  <ligand_id>  (27) 
26

>  <original_smiles>  (27) 
[H]c1c([H])c([H])c2c(c1[H])C([H])([H])C([H])([H])C([H])([H])C2([H])N([H])C(=O)C1([H])N(C(=O)C([H])(N([H])C(=O)C([H])(N([H])C([H])([H])[H])C([H])([H])[H])C(C([H])([H])[H])(C([H])([H])[H])C([H])([H])[H])C([H])([H])c2c([H])c(OC([H])(c3c(C([H])([H])[H])c(N([H])C([H])([H])C([H])([H])C([H])([H])[N+]([H])([H])[H])c(C([H])([H])N([H])C(=O)N4C([H])([H])C([H])([H])C([H])([H])C([H])(n5nc(-c6c([H])c([H])c(Oc7c([H])c([H])c(F)c([H])c7F)c([H])c6[H])c(C(=O)N([H])[H])c5N([H])[H])C4([H])[H])c([H])[n+]3[H])C([H])([H])[H])c([H])c([H])c2C1([H])[H]

>  <smiles>  (27) 
[H]c1c([H])c([H])c2c(c1[H])C([H])([H])C([H])([H])C([H])([H])C2([H])N([H])C(=O)C1([H])N(C(=O)C([H])(N([H])C(=O)C([H])(N([H])C([H])([H])[H])C([H])([H])[H])C(C([H])([H])[H])(C([H])([H])[H])C([H])([H])[H])C([H])([H])c2c([H])c(OC([H])(c3c(C([H])([H])[H])c(N([H])C([H])([H])C([H])([H])C([H])([H])[N+]([H])([H])[H])c(C([H])([H])N([H])C(=O)N4C([H])([H])C([H])([H])C([H])([H])C([H])(n5nc(-c6c([H])c([H])c(Oc7c([H])c([H])c(F)c([H])c7F)c([H])c6[H])c(C(=O)N([H])[H])c5N([H])[H])C4([H])[H])c([H])[n+]3[H])C([H])([H])[H])c([H])c([H])c2C1([H])[H]

$$$$
27:0:0
     RDKit          3D

 84 88  0  0  1  0  0  0  0  0999 V2000
  -28.3930  -23.3790   19.8880 C   0  0  0  0  0 15  0  0  0  0  0  0
  -30.0310  -21.6830   21.4170 C   0  0  0  0  0  1  0  0  0  0  0  0
  -27.6180  -21.0420   21.2730 C   0  0  0  0  0  1  0  0  0  0  0  0
  -28.8670  -21.3980   20.4560 C   0  0  0  0  0  2  0  0  0  0  0  0
  -29.4560  -19.4750   19.8290 C   0  0  0  0  0  1  0  0  0  0  0  0
  -30.2070  -16.1150   20.0280 C   0  0  0  0  0  0  0  0  0  0  0  0
  -30.3640  -13.4810   19.2300 C   0  0  0  0  0  2  0  0  0  0  0  0
  -29.4800  -12.9230   18.0630 C   0  0  0  0  0  2  0  0  0  0  0  0
  -28.0950  -12.4960   18.5650 C   0  0  0  0  0  2  0  0  0  0  0  0
  -27.5700  -13.5120   19.5980 C   0  0  0  0  0  3  0  0  0  0  0  0
  -28.6050  -13.9520   20.6720 C   0  0  0  0  0  2  0  0  0  0  0  0
  -29.7120  -14.6880   19.9790 N   0  0  0  0  0  0  0  0  0  0  0  0
  -31.4310  -15.9810   19.7820 O   0  0  0  0  0  0  0  0  0  0  0  0
  -29.4850  -17.5910   20.1660 N   0  0  0  0  0  0  0  0  0  0  0  0
  -28.5490  -17.3600   20.4680 H   0  0  0  0  0  0  0  0  0  0  0  0
  -25.2340  -14.0180   20.4290 C   0  0  0  0  0  0  0  0  0  0  0  0
  -24.1850  -13.2370   20.8160 C   0  0  0  0  0  0  0  0  0  0  0  0
  -24.6540  -11.8870   20.7660 C   0  0  0  0  0  0  0  0  0  0  0  0
  -26.2730  -13.1520   20.1550 N   0  0  0  0  0  0  0  0  0  0  0  0
  -25.9410  -11.8590   20.4230 N   0  0  0  0  0  0  0  0  0  0  0  0
  -23.9260  -10.6250   20.9680 C   0  0  0  0  0  0  0  0  0  0  0  0
  -24.3690   -9.6540   21.8950 C   0  0  0  0  0  3  0  0  0  0  0  0
  -23.6340   -8.4640   22.0920 C   0  0  0  0  0  3  0  0  0  0  0  0
  -22.4440   -8.2350   21.3610 C   0  0  0  0  0  0  0  0  0  0  0  0
  -22.0190   -9.1950   20.4250 C   0  0  0  0  0  3  0  0  0  0  0  0
  -22.7530  -10.3760   20.2260 C   0  0  0  0  0  3  0  0  0  0  0  0
  -21.6810   -7.0960   21.4650 O   0  0  0  0  0  0  0  0  0  0  0  0
  -21.6450   -6.3560   22.6190 C   0  0  0  0  0  0  0  0  0  0  0  0
  -21.2390   -6.9140   23.8500 C   0  0  0  0  0  3  0  0  0  0  0  0
  -21.1520   -6.1010   24.9970 C   0  0  0  0  0  3  0  0  0  0  0  0
  -21.4600   -4.7300   24.9150 C   0  0  0  0  0  0  0  0  0  0  0  0
  -21.8580   -4.1710   23.6880 C   0  0  0  0  0  3  0  0  0  0  0  0
  -21.9490   -4.9810   22.5430 C   0  0  0  0  0  0  0  0  0  0  0  0
  -22.3130   -4.4320   21.3580 F   0  0  0  0  0  0  0  0  0  0  0  0
  -21.3680   -3.9470   26.0160 F   0  0  0  0  0  0  0  0  0  0  0  0
  -22.7950  -13.7160   21.1110 C   0  0  0  0  0  0  0  0  0  0  0  0
  -22.0850  -13.0310   21.9980 N   0  0  0  0  0  0  0  0  0  0  0  0
  -22.3500  -14.7400   20.5910 O   0  0  0  0  0  0  0  0  0  0  0  0
  -22.4620  -12.2080   22.4430 H   0  0  0  0  0  0  0  0  0  0  0  0
  -21.1530  -13.3370   22.2370 H   0  0  0  0  0  0  0  0  0  0  0  0
  -25.3910  -15.3880   20.2500 N   0  0  0  0  0  0  0  0  0  0  0  0
  -24.6260  -16.0420   20.3740 H   0  0  0  0  0  0  0  0  0  0  0  0
  -26.2260  -15.8190   19.8760 H   0  0  0  0  0  0  0  0  0  0  0  0
  -28.2260  -25.2270   20.3080 O   0  0  0  0  0  1  0  0  0  0  0  0
  -24.7120  -31.8280   23.1410 C   0  0  0  0  0  0  0  0  0  0  0  0
  -27.2760  -26.5470   20.1900 C   0  0  0  0  0  0  0  0  0  0  0  0
  -23.5420  -30.4050   21.5170 C   0  0  0  0  0  3  0  0  0  0  0  0
  -25.0060  -28.7140   20.1230 C   0  0  0  0  0  0  0  0  0  0  0  0
  -26.1300  -30.4980   21.4210 C   0  0  0  0  0  2  0  0  0  0  0  0
  -26.2030  -29.0370   20.7690 C   0  0  0  0  0  0  0  0  0  0  0  0
  -27.3030  -27.9880   20.7700 C   0  0  0  0  0  3  0  0  0  0  0  0
  -26.0430  -26.5040   19.4680 C   0  0  0  0  0  3  0  0  0  0  0  0
  -24.9800  -27.4770   19.4470 C   0  0  0  0  0  3  0  0  0  0  0  0
  -23.7980  -29.6820   20.1590 C   0  0  0  0  0  2  0  0  0  0  0  0
  -24.8210  -30.9510   22.0760 N   0  0  0  0  0  0  0  0  0  0  0  0
  -23.6130  -32.1310   23.6400 O   0  0  0  0  0  0  0  0  0  0  0  0
  -22.8120  -29.4500   22.5020 C   0  0  0  0  0  0  0  0  0  0  0  0
  -21.4760  -29.3040   22.3900 N   0  0  0  0  0  0  0  0  0  0  0  0
  -23.4660  -28.8330   23.3460 O   0  0  0  0  0  0  0  0  0  0  0  0
  -20.9930  -29.8530   21.6920 H   0  0  0  0  0  0  0  0  0  0  0  0
  -18.0920  -28.0800   22.9390 C   0  0  0  0  0  0  0  0  0  0  0  0
  -20.6540  -28.3700   23.1740 C   0  0  0  0  0  3  0  0  0  0  0  0
  -20.7580  -26.9340   22.6090 C   0  0  0  0  0  2  0  0  0  0  0  0
  -19.6510  -26.6010   21.6030 C   0  0  0  0  0  2  0  0  0  0  0  0
  -18.2740  -26.7340   22.2580 C   0  0  0  0  0  2  0  0  0  0  0  0
  -19.2090  -28.8560   23.3540 C   0  0  0  0  0  0  0  0  0  0  0  0
  -18.9800  -30.1110   23.9600 C   0  0  0  0  0  3  0  0  0  0  0  0
  -17.6700  -30.5930   24.1470 C   0  0  0  0  0  3  0  0  0  0  0  0
  -16.5700  -29.8170   23.7420 C   0  0  0  0  0  3  0  0  0  0  0  0
  -16.7820  -28.5600   23.1460 C   0  0  0  0  0  3  0  0  0  0  0  0
  -25.9590  -32.5060   23.7860 C   0  0  0  0  0  3  0  0  0  0  0  0
  -25.6110  -33.9030   24.1290 N   0  0  0  0  0  0  0  0  0  0  0  0
  -25.9300  -34.9840   23.4050 C   0  0  0  0  0  0  0  0  0  0  0  0
  -26.5950  -34.9120   22.3700 O   0  0  0  0  0  0  0  0  0  0  0  0
  -25.0140  -34.0310   24.9330 H   0  0  0  0  0  0  0  0  0  0  0  0
  -24.1730  -36.7730   23.1230 C   0  0  0  0  0  1  0  0  0  0  0  0
  -25.4350  -36.3620   23.8990 C   0  0  0  0  0  3  0  0  0  0  0  0
  -27.5710  -37.2690   24.7100 C   0  0  0  0  0  1  0  0  0  0  0  0
  -26.4520  -37.4330   23.7870 N   0  0  0  0  0  0  0  0  0  0  0  0
  -26.0360  -38.3460   23.9520 H   0  0  0  0  0  0  0  0  0  0  0  0
  -26.4680  -31.7590   25.0820 C   0  0  1  0  0  0  0  0  0  0  0  0
  -25.3620  -31.5250   26.1400 C   0  0  0  0  0  1  0  0  0  0  0  0
  -27.0660  -30.3780   24.7330 C   0  0  0  0  0  1  0  0  0  0  0  0
  -27.6060  -32.5710   25.7450 C   0  0  0  0  0  1  0  0  0  0  0  0
  4  3  1  0
  4  2  1  0
  5 14  1  0
  6 14  1  0
  7 12  1  0
  8  9  1  0
  8  7  1  0
 10  9  1  0
 10 19  1  0
 10 11  1  0
 12  6  1  0
 12 11  1  0
 13  6  2  0
 14 15  1  0
 16 17  2  0
 17 36  1  0
 18 17  1  0
 18 21  1  0
 19 20  1  0
 19 16  1  0
 20 18  2  0
 21 22  1  0
 22 23  2  0
 24 27  1  0
 24 23  1  0
 25 24  2  0
 26 25  1  0
 26 21  2  0
 27 28  1  0
 28 29  1  0
 29 30  2  0
 31 30  1  0
 31 35  1  0
 32 31  2  0
 33 28  2  0
 33 32  1  0
 34 33  1  0
 36 37  1  0
 37 40  1  0
 37 39  1  0
 38 36  2  0
 41 42  1  0
 41 16  1  0
 43 41  1  0
 45 56  2  0
 46 44  1  0
 46 51  1  0
 47 55  1  0
 47 57  1  0
 48 54  1  0
 48 50  1  0
 49 55  1  0
 50 51  2  0
 50 49  1  0
 52 46  2  0
 53 52  1  0
 53 48  2  0
 54 47  1  0
 55 45  1  0
 57 59  2  0
 58 57  1  0
 60 58  1  0
 61 70  2  0
 61 66  1  0
 62 58  1  0
 62 66  1  0
 63 62  1  0
 64 65  1  0
 64 63  1  0
 65 61  1  0
 66 67  2  0
 67 68  1  0
 69 68  2  0
 70 69  1  0
 71 45  1  0
 71 72  1  0
 71 81  1  0
 72 75  1  0
 73 77  1  0
 73 72  1  0
 74 73  2  0
 77 76  1  0
 79 77  1  0
 79 80  1  0
 79 78  1  0
 81 84  1  1
 81 82  1  0
 83 81  1  0
M  ISO  4   1 101   6 100  14 100  44 101
M  END
>  <TORSDO>  (28) 
F 18

>  <SCORE>  (28) 
-15.543

>  <name>  (28) 
27

>  <ligand_id>  (28) 
27

>  <original_smiles>  (28) 
[H]c1c([H])c([H])c2c(c1[H])C([H])([H])C([H])([H])C([H])([H])C2([H])N([H])C(=O)C1([H])N(C(=O)C([H])(N([H])C(=O)C([H])(N([H])C([H])([H])[H])C([H])([H])[H])C(C([H])([H])[H])(C([H])([H])[H])C([H])([H])[H])C([H])([H])c2c([H])c(OC([H])([H])C(C([H])([H])[H])(C([H])([H])[H])C([H])([H])N([H])C(=O)N3C([H])([H])C([H])([H])C([H])([H])C([H])(n4nc(-c5c([H])c([H])c(Oc6c([H])c([H])c(F)c([H])c6F)c([H])c5[H])c(C(=O)N([H])[H])c4N([H])[H])C3([H])[H])c([H])c([H])c2C1([H])[H]

>  <smiles>  (28) 
[H]c1c([H])c([H])c2c(c1[H])C([H])([H])C([H])([H])C([H])([H])C2([H])N([H])C(=O)C1([H])N(C(=O)C([H])(N([H])C(=O)C([H])(N([H])C([H])([H])[H])C([H])([H])[H])C(C([H])([H])[H])(C([H])([H])[H])C([H])([H])[H])C([H])([H])c2c([H])c(OC([H])([H])C(C([H])([H])[H])(C([H])([H])[H])C([H])([H])N([H])C(=O)N3C([H])([H])C([H])([H])C([H])([H])C([H])(n4nc(-c5c([H])c([H])c(Oc6c([H])c([H])c(F)c([H])c6F)c([H])c5[H])c(C(=O)N([H])[H])c4N([H])[H])C3([H])[H])c([H])c([H])c2C1([H])[H]

$$$$
28:0:0
     RDKit          3D

 90 97  0  0  1  0  0  0  0  0999 V2000
  -29.6280  -21.3940   19.1920 C   0  0  0  0  0  3  0  0  0  0  0  0
  -30.8760  -21.6700   18.8070 F   0  0  0  0  0  0  0  0  0  0  0  0
  -28.4700  -22.4520   21.4520 C   0  0  0  0  0  1  0  0  0  0  0  0
  -29.1480  -22.8380   20.1330 C   0  0  0  0  0  3  0  0  0  0  0  0
  -28.4290  -24.3810   19.6140 C   0  0  0  0  0  2  0  0  0  0  0  0
  -28.4450  -25.9010   20.2050 O   0  0  0  0  0  0  0  0  0  0  0  0
  -24.6530  -31.6420   23.1900 C   0  0  0  0  0  0  0  0  0  0  0  0
  -27.4030  -26.9480   20.1080 C   0  0  0  0  0  0  0  0  0  0  0  0
  -23.5360  -30.2850   21.4630 C   0  0  0  0  0  3  0  0  0  0  0  0
  -25.0610  -28.7530   20.0440 C   0  0  0  0  0  0  0  0  0  0  0  0
  -26.0980  -30.5520   21.4100 C   0  0  0  0  0  2  0  0  0  0  0  0
  -26.2150  -29.1670   20.7190 C   0  0  0  0  0  0  0  0  0  0  0  0
  -27.3790  -28.2830   20.7330 C   0  0  0  0  0  3  0  0  0  0  0  0
  -26.2220  -26.6780   19.3800 C   0  0  0  0  0  3  0  0  0  0  0  0
  -25.0860  -27.5270   19.3590 C   0  0  0  0  0  3  0  0  0  0  0  0
  -23.8260  -29.6510   20.0740 C   0  0  0  0  0  2  0  0  0  0  0  0
  -24.7820  -30.8500   22.0770 N   0  0  0  0  0  0  0  0  0  0  0  0
  -23.5430  -31.8980   23.6820 O   0  0  0  0  0  0  0  0  0  0  0  0
  -22.8250  -29.2480   22.3690 C   0  0  0  0  0  0  0  0  0  0  0  0
  -21.4980  -29.0860   22.2060 N   0  0  0  0  0  0  0  0  0  0  0  0
  -23.4720  -28.5910   23.1880 O   0  0  0  0  0  0  0  0  0  0  0  0
  -21.0280  -29.6740   21.5300 H   0  0  0  0  0  0  0  0  0  0  0  0
  -18.0990  -27.8940   22.6370 C   0  0  0  0  0  0  0  0  0  0  0  0
  -20.6610  -28.1160   22.9200 C   0  0  0  0  0  3  0  0  0  0  0  0
  -20.7450  -26.7170   22.2680 C   0  0  0  0  0  2  0  0  0  0  0  0
  -19.6430  -26.4640   21.2340 C   0  0  0  0  0  2  0  0  0  0  0  0
  -18.2610  -26.5850   21.8820 C   0  0  0  0  0  2  0  0  0  0  0  0
  -19.2250  -28.6200   23.1120 C   0  0  0  0  0  0  0  0  0  0  0  0
  -19.0150  -29.8430   23.7820 C   0  0  0  0  0  3  0  0  0  0  0  0
  -17.7140  -30.3440   23.9790 C   0  0  0  0  0  3  0  0  0  0  0  0
  -16.6030  -29.6170   23.5150 C   0  0  0  0  0  3  0  0  0  0  0  0
  -16.7970  -28.3920   22.8510 C   0  0  0  0  0  3  0  0  0  0  0  0
  -25.8930  -32.2790   23.8890 C   0  0  0  0  0  3  0  0  0  0  0  0
  -25.5590  -33.6750   24.2200 N   0  0  0  0  0  0  0  0  0  0  0  0
  -25.9080  -34.7420   23.4880 C   0  0  0  0  0  0  0  0  0  0  0  0
  -26.6090  -34.6540   22.4780 O   0  0  0  0  0  0  0  0  0  0  0  0
  -24.9450  -33.8190   25.0090 H   0  0  0  0  0  0  0  0  0  0  0  0
  -24.1760  -36.5330   23.1160 C   0  0  0  0  0  1  0  0  0  0  0  0
  -25.4030  -36.1250   23.9480 C   0  0  0  0  0  3  0  0  0  0  0  0
  -27.5000  -37.0360   24.8470 C   0  0  0  0  0  1  0  0  0  0  0  0
  -26.4300  -37.1880   23.8650 N   0  0  0  0  0  0  0  0  0  0  0  0
  -26.0100  -38.1050   23.9930 H   0  0  0  0  0  0  0  0  0  0  0  0
  -26.3370  -31.5020   25.1920 C   0  0  1  0  0  0  0  0  0  0  0  0
  -25.1830  -31.2480   26.1890 C   0  0  0  0  0  1  0  0  0  0  0  0
  -26.9550  -30.1330   24.8320 C   0  0  0  0  0  1  0  0  0  0  0  0
  -27.4360  -32.3020   25.9280 C   0  0  0  0  0  1  0  0  0  0  0  0
  -29.5710  -19.5850   19.1880 C   0  0  0  0  0  0  0  0  0  0  0  0
  -27.0810  -19.9380   18.9070 C   0  0  0  0  0  1  0  0  0  0  0  0
  -28.2670  -18.4070   17.4130 C   0  0  0  0  0  1  0  0  0  0  0  0
  -28.2460  -19.0430   18.7540 N   0  0  1  0  0  4  0  0  0  0  0  0
  -28.0670  -18.2980   19.4080 H   0  0  0  0  0  0  0  0  0  0  0  0
  -30.5080  -18.2250   19.8560 C   0  0  0  0  0  3  0  0  0  0  0  0
  -30.9020  -15.3300   19.8170 C   0  0  0  0  0  0  0  0  0  0  0  0
  -30.7730  -12.8860   18.9990 C   0  0  0  0  0  2  0  0  0  0  0  0
  -29.7990  -12.6820   17.8120 C   0  0  0  0  0  2  0  0  0  0  0  0
  -28.3610  -12.4690   18.3160 C   0  0  0  0  0  2  0  0  0  0  0  0
  -27.9760  -13.4730   19.4300 C   0  0  0  0  0  3  0  0  0  0  0  0
  -29.0710  -13.6100   20.5100 C   0  0  0  0  0  2  0  0  0  0  0  0
  -30.2920  -14.0500   19.8200 N   0  0  0  0  0  0  0  0  0  0  0  0
  -32.1080  -15.3100   19.5460 O   0  0  0  0  0  0  0  0  0  0  0  0
  -30.1680  -16.6000   19.9130 N   0  0  0  0  0  0  0  0  0  0  0  0
  -29.1930  -16.4060   20.0800 H   0  0  0  0  0  0  0  0  0  0  0  0
  -25.6530  -14.1020   20.2780 C   0  0  0  0  0  0  0  0  0  0  0  0
  -24.5810  -13.3580   20.6850 C   0  0  0  0  0  0  0  0  0  0  0  0
  -25.0020  -11.9940   20.6250 C   0  0  0  0  0  0  0  0  0  0  0  0
  -26.6570  -13.1960   19.9890 N   0  0  0  0  0  0  0  0  0  0  0  0
  -26.2800  -11.9200   20.2660 N   0  0  0  0  0  0  0  0  0  0  0  0
  -24.2420  -10.7540   20.8330 C   0  0  0  0  0  0  0  0  0  0  0  0
  -24.6340   -9.7990   21.7950 C   0  0  0  0  0  3  0  0  0  0  0  0
  -23.8730   -8.6250   21.9900 C   0  0  0  0  0  3  0  0  0  0  0  0
  -22.7040   -8.4010   21.2250 C   0  0  0  0  0  0  0  0  0  0  0  0
  -22.3300   -9.3460   20.2530 C   0  0  0  0  0  3  0  0  0  0  0  0
  -23.0900  -10.5100   20.0560 C   0  0  0  0  0  3  0  0  0  0  0  0
  -21.9170   -7.2790   21.3320 O   0  0  0  0  0  0  0  0  0  0  0  0
  -21.7790   -6.6070   22.5200 C   0  0  0  0  0  0  0  0  0  0  0  0
  -21.2140   -7.2190   23.6610 C   0  0  0  0  0  3  0  0  0  0  0  0
  -21.0260   -6.4720   24.8400 C   0  0  0  0  0  3  0  0  0  0  0  0
  -21.3900   -5.1120   24.8790 C   0  0  0  0  0  0  0  0  0  0  0  0
  -21.9460   -4.4990   23.7430 C   0  0  0  0  0  3  0  0  0  0  0  0
  -22.1360   -5.2440   22.5650 C   0  0  0  0  0  0  0  0  0  0  0  0
  -22.6510   -4.6430   21.4660 F   0  0  0  0  0  0  0  0  0  0  0  0
  -21.2020   -4.3920   26.0090 F   0  0  0  0  0  0  0  0  0  0  0  0
  -23.2120  -13.8790   21.0030 C   0  0  0  0  0  0  0  0  0  0  0  0
  -22.5000  -13.2150   21.9050 N   0  0  0  0  0  0  0  0  0  0  0  0
  -22.7870  -14.9120   20.4860 O   0  0  0  0  0  0  0  0  0  0  0  0
  -22.8610  -12.3790   22.3430 H   0  0  0  0  0  0  0  0  0  0  0  0
  -21.5790  -13.5400   22.1570 H   0  0  0  0  0  0  0  0  0  0  0  0
  -25.8500  -15.4670   20.0930 N   0  0  0  0  0  0  0  0  0  0  0  0
  -25.0610  -16.1020   20.1570 H   0  0  0  0  0  0  0  0  0  0  0  0
  -26.5970  -15.8150   19.5080 H   0  0  0  0  0  0  0  0  0  0  0  0
  1  2  1  0
  1  4  1  0
  4  3  1  0
  5  4  1  0
  5  6  1  0
  7 18  2  0
  8  6  1  0
  8 13  1  0
  9 17  1  0
  9 19  1  0
 10 16  1  0
 10 12  1  0
 11 17  1  0
 12 13  2  0
 12 11  1  0
 14  8  2  0
 15 14  1  0
 15 10  2  0
 16  9  1  0
 17  7  1  0
 19 21  2  0
 20 19  1  0
 22 20  1  0
 23 32  2  0
 23 28  1  0
 24 20  1  0
 24 28  1  0
 25 24  1  0
 26 27  1  0
 26 25  1  0
 27 23  1  0
 28 29  2  0
 29 30  1  0
 31 30  2  0
 32 31  1  0
 33  7  1  0
 33 34  1  0
 33 43  1  0
 34 37  1  0
 35 39  1  0
 35 34  1  0
 36 35  2  0
 39 38  1  0
 41 39  1  0
 41 42  1  0
 41 40  1  0
 43 46  1  1
 43 44  1  0
 45 43  1  0
 47  1  1  0
 47 52  2  0
 49 50  1  0
 50 48  1  0
 50 47  1  0
 50 51  1  1
 52 61  1  0
 53 59  1  0
 53 61  1  0
 54 59  1  0
 55 56  1  0
 55 54  1  0
 57 56  1  0
 57 66  1  0
 57 58  1  0
 59 58  1  0
 60 53  2  0
 61 62  1  0
 63 64  2  0
 64 83  1  0
 65 64  1  0
 65 68  1  0
 66 67  1  0
 66 63  1  0
 67 65  2  0
 68 69  1  0
 69 70  2  0
 71 74  1  0
 71 70  1  0
 72 71  2  0
 73 72  1  0
 73 68  2  0
 74 75  1  0
 75 80  2  0
 75 76  1  0
 76 77  2  0
 77 78  1  0
 78 82  1  0
 79 78  2  0
 80 79  1  0
 81 80  1  0
 83 84  1  0
 84 87  1  0
 84 86  1  0
 85 83  2  0
 88 89  1  0
 88 63  1  0
 90 88  1  0
M  ISO  4   5 101   6 101  53 100  61 100
M  END
>  <TORSDO>  (29) 
F 21

>  <SCORE>  (29) 
-15.092

>  <name>  (29) 
28

>  <ligand_id>  (29) 
28

>  <original_smiles>  (29) 
[H]c1c([H])c([H])c2c(c1[H])C([H])([H])C([H])([H])C([H])([H])C2([H])N([H])C(=O)C1([H])N(C(=O)C([H])(N([H])C(=O)C([H])(N([H])C([H])([H])[H])C([H])([H])[H])C(C([H])([H])[H])(C([H])([H])[H])C([H])([H])[H])C([H])([H])c2c([H])c(OC([H])([H])C([H])(C([H])([H])[H])C([H])(F)C([H])(C([H])([H])N([H])C(=O)N3C([H])([H])C([H])([H])C([H])([H])C([H])(n4nc(-c5c([H])c([H])c(Oc6c([H])c([H])c(F)c([H])c6F)c([H])c5[H])c(C(=O)N([H])[H])c4N([H])[H])C3([H])[H])[N+]([H])(C([H])([H])[H])C([H])([H])[H])c([H])c([H])c2C1([H])[H]

>  <smiles>  (29) 
[H]c1c([H])c([H])c2c(c1[H])C([H])([H])C([H])([H])C([H])([H])C2([H])N([H])C(=O)C1([H])N(C(=O)C([H])(N([H])C(=O)C([H])(N([H])C([H])([H])[H])C([H])([H])[H])C(C([H])([H])[H])(C([H])([H])[H])C([H])([H])[H])C([H])([H])c2c([H])c(OC([H])([H])C([H])(C([H])([H])[H])C([H])(F)C([H])(C([H])([H])N([H])C(=O)N3C([H])([H])C([H])([H])C([H])([H])C([H])(n4nc(-c5c([H])c([H])c(Oc6c([H])c([H])c(F)c([H])c6F)c([H])c5[H])c(C(=O)N([H])[H])c4N([H])[H])C3([H])[H])[N+]([H])(C([H])([H])[H])C([H])([H])[H])c([H])c([H])c2C1([H])[H]

$$$$
29:0:0
     RDKit          3D

 96103  0  0  1  0  0  0  0  0999 V2000
  -29.0200  -20.4150   19.9350 C   0  0  0  0  0  3  0  0  0  0  0  0
  -27.5930  -20.1370   20.2060 N   0  0  0  0  0  4  0  0  0  0  0  0
  -27.0830  -19.9990   19.3500 H   0  0  0  0  0  0  0  0  0  0  0  0
  -27.1830  -20.9190   20.6880 H   0  0  0  0  0  0  0  0  0  0  0  0
  -27.4600  -19.3330   20.7930 H   0  0  0  0  0  0  0  0  0  0  0  0
  -29.1030  -21.9780   19.3340 C   0  0  0  0  0  2  0  0  0  0  0  0
  -29.1670  -23.5340   21.4240 C   0  0  0  0  0  1  0  0  0  0  0  0
  -28.4400  -23.3350   20.0870 C   0  0  0  0  0  3  0  0  0  0  0  0
  -28.2950  -24.8420   19.3700 C   0  0  0  0  0  2  0  0  0  0  0  0
  -28.1740  -26.2330   20.0480 O   0  0  0  0  0  0  0  0  0  0  0  0
  -24.6320  -31.9000   23.1100 C   0  0  0  0  0  0  0  0  0  0  0  0
  -27.0830  -27.1630   19.9950 C   0  0  0  0  0  0  0  0  0  0  0  0
  -23.3620  -30.4910   21.5290 C   0  0  0  0  0  3  0  0  0  0  0  0
  -24.7510  -28.9000   20.0600 C   0  0  0  0  0  0  0  0  0  0  0  0
  -25.9060  -30.7530   21.2590 C   0  0  0  0  0  2  0  0  0  0  0  0
  -25.9520  -29.3530   20.6150 C   0  0  0  0  0  0  0  0  0  0  0  0
  -27.1120  -28.4950   20.5760 C   0  0  0  0  0  3  0  0  0  0  0  0
  -25.8540  -26.7990   19.4090 C   0  0  0  0  0  3  0  0  0  0  0  0
  -24.7130  -27.6320   19.4510 C   0  0  0  0  0  3  0  0  0  0  0  0
  -23.5250  -29.7930   20.1510 C   0  0  0  0  0  2  0  0  0  0  0  0
  -24.6550  -31.0670   22.0210 N   0  0  0  0  0  0  0  0  0  0  0  0
  -23.5700  -32.1950   23.6760 O   0  0  0  0  0  0  0  0  0  0  0  0
  -22.7180  -29.4970   22.5260 C   0  0  0  0  0  0  0  0  0  0  0  0
  -21.3950  -29.2840   22.4130 N   0  0  0  0  0  0  0  0  0  0  0  0
  -23.4120  -28.9260   23.3720 O   0  0  0  0  0  0  0  0  0  0  0  0
  -20.8830  -29.8090   21.7170 H   0  0  0  0  0  0  0  0  0  0  0  0
  -18.0690  -27.9400   22.9080 C   0  0  0  0  0  0  0  0  0  0  0  0
  -20.6040  -28.3450   23.2170 C   0  0  0  0  0  3  0  0  0  0  0  0
  -20.7880  -26.8900   22.7240 C   0  0  0  0  0  2  0  0  0  0  0  0
  -19.7290  -26.4600   21.7050 C   0  0  0  0  0  2  0  0  0  0  0  0
  -18.3260  -26.5690   22.3080 C   0  0  0  0  0  2  0  0  0  0  0  0
  -19.1370  -28.7820   23.3180 C   0  0  0  0  0  0  0  0  0  0  0  0
  -18.8390  -30.0610   23.8340 C   0  0  0  0  0  3  0  0  0  0  0  0
  -17.5060  -30.5000   23.9470 C   0  0  0  0  0  3  0  0  0  0  0  0
  -16.4520  -29.6560   23.5540 C   0  0  0  0  0  3  0  0  0  0  0  0
  -16.7340  -28.3780   23.0370 C   0  0  0  0  0  3  0  0  0  0  0  0
  -25.9380  -32.5350   23.6800 C   0  0  0  0  0  3  0  0  0  0  0  0
  -26.5530  -31.7190   24.8860 C   0  0  1  0  0  0  0  0  0  0  0  0
  -25.5280  -31.3760   25.9920 C   0  0  0  0  0  1  0  0  0  0  0  0
  -27.1750  -30.3920   24.3920 C   0  0  0  0  0  1  0  0  0  0  0  0
  -27.6930  -32.5320   25.5450 C   0  0  0  0  0  1  0  0  0  0  0  0
  -25.6250  -33.9100   24.1040 N   0  0  0  0  0  0  0  0  0  0  0  0
  -25.8560  -35.0060   23.3700 C   0  0  0  0  0  0  0  0  0  0  0  0
  -26.4210  -34.9700   22.2740 O   0  0  0  0  0  0  0  0  0  0  0  0
  -25.1140  -34.0140   24.9680 H   0  0  0  0  0  0  0  0  0  0  0  0
  -24.0440  -36.7560   23.2990 C   0  0  0  0  0  1  0  0  0  0  0  0
  -25.3820  -36.3580   23.9400 C   0  0  0  0  0  3  0  0  0  0  0  0
  -27.5700  -37.2890   24.5610 C   0  0  0  0  0  1  0  0  0  0  0  0
  -26.3620  -37.4510   23.7570 N   0  0  0  0  0  0  0  0  0  0  0  0
  -25.9430  -38.3470   23.9940 H   0  0  0  0  0  0  0  0  0  0  0  0
  -29.7480  -19.0250   19.2740 C   0  0  0  0  0  2  0  0  0  0  0  0
  -30.0640  -17.5920   20.1170 C   0  0  0  0  0  0  0  0  0  0  0  0
  -30.8990  -14.9740   19.4450 C   0  0  0  0  0  0  0  0  0  0  0  0
  -30.6550  -12.6370   18.4980 C   0  0  0  0  0  2  0  0  0  0  0  0
  -29.6000  -12.6370   17.3690 C   0  0  0  0  0  2  0  0  0  0  0  0
  -28.1700  -12.5060   17.9340 C   0  0  0  0  0  2  0  0  0  0  0  0
  -27.9130  -13.4450   19.1420 C   0  0  0  0  0  3  0  0  0  0  0  0
  -29.0670  -13.3700   20.1600 C   0  0  0  0  0  2  0  0  0  0  0  0
  -30.2910  -13.7290   19.4330 N   0  0  0  0  0  0  0  0  0  0  0  0
  -32.1050  -15.0470   19.1910 O   0  0  0  0  0  0  0  0  0  0  0  0
  -30.0570  -16.1090   19.5570 N   0  0  0  0  0  4  0  0  0  0  0  0
  -29.1080  -15.8050   19.3900 H   0  0  0  0  0  0  0  0  0  0  0  0
  -25.6450  -14.1430   20.1020 C   0  0  0  0  0  0  0  0  0  0  0  0
  -24.5770  -13.4170   20.5560 C   0  0  0  0  0  0  0  0  0  0  0  0
  -24.9670  -12.0470   20.4710 C   0  0  0  0  0  0  0  0  0  0  0  0
  -26.6140  -13.2150   19.7600 N   0  0  0  0  0  0  0  0  0  0  0  0
  -26.2210  -11.9480   20.0470 N   0  0  0  0  0  0  0  0  0  0  0  0
  -24.1940  -10.8210   20.7080 C   0  0  0  0  0  0  0  0  0  0  0  0
  -24.6110   -9.8590   21.6530 C   0  0  0  0  0  3  0  0  0  0  0  0
  -23.8400   -8.6950   21.8760 C   0  0  0  0  0  3  0  0  0  0  0  0
  -22.6420   -8.4860   21.1540 C   0  0  0  0  0  0  0  0  0  0  0  0
  -22.2420   -9.4390   20.2010 C   0  0  0  0  0  3  0  0  0  0  0  0
  -23.0100  -10.5930   19.9770 C   0  0  0  0  0  3  0  0  0  0  0  0
  -21.8460   -7.3760   21.2870 O   0  0  0  0  0  0  0  0  0  0  0  0
  -21.7280   -6.7160   22.4830 C   0  0  0  0  0  0  0  0  0  0  0  0
  -21.2910   -7.3670   23.6580 C   0  0  0  0  0  3  0  0  0  0  0  0
  -21.1150   -6.6340   24.8470 C   0  0  0  0  0  3  0  0  0  0  0  0
  -21.3680   -5.2510   24.8670 C   0  0  0  0  0  0  0  0  0  0  0  0
  -21.7980   -4.5990   23.6990 C   0  0  0  0  0  3  0  0  0  0  0  0
  -21.9720   -5.3290   22.5110 C   0  0  0  0  0  0  0  0  0  0  0  0
  -22.3690   -4.6890   21.3830 F   0  0  0  0  0  0  0  0  0  0  0  0
  -21.1870   -4.5450   26.0090 F   0  0  0  0  0  0  0  0  0  0  0  0
  -23.2320  -13.9600   20.9450 C   0  0  0  0  0  0  0  0  0  0  0  0
  -22.5550  -13.3110   21.8870 N   0  0  0  0  0  0  0  0  0  0  0  0
  -22.8000  -14.9990   20.4460 O   0  0  0  0  0  0  0  0  0  0  0  0
  -22.9190  -12.4710   22.3140 H   0  0  0  0  0  0  0  0  0  0  0  0
  -21.6610  -13.6680   22.1900 H   0  0  0  0  0  0  0  0  0  0  0  0
  -25.8610  -15.5070   19.9360 N   0  0  0  0  0  0  0  0  0  0  0  0
  -25.0870  -16.1520   20.0590 H   0  0  0  0  0  0  0  0  0  0  0  0
  -26.5970  -15.8900   19.3620 H   0  0  0  0  0  0  0  0  0  0  0  0
  -31.2420  -19.0210   22.0210 C   0  0  0  0  0  1  0  0  0  0  0  0
  -31.1120  -17.6650   21.2900 C   0  0  0  0  0  3  0  0  0  0  0  0
  -32.0550  -16.2680   23.1490 C   0  0  0  0  0  1  0  0  0  0  0  0
  -29.6400  -16.6190   23.0660 C   0  0  0  0  0  1  0  0  0  0  0  0
  -30.8970  -16.5490   22.2720 N   0  0  1  0  0  4  0  0  0  0  0  0
  -30.8120  -15.7290   21.6960 H   0  0  0  0  0  0  0  0  0  0  0  0
  1 51  1  0
  1  2  1  0
  2  4  1  0
  2  5  1  0
  3  2  1  0
  6  1  1  0
  6  8  1  0
  8  7  1  0
  9 10  1  0
  9  8  1  0
 11 22  2  0
 12 10  1  0
 12 17  1  0
 13 21  1  0
 13 23  1  0
 14 20  1  0
 14 16  1  0
 15 21  1  0
 16 15  1  0
 17 16  2  0
 18 19  1  0
 18 12  2  0
 19 14  2  0
 20 13  1  0
 21 11  1  0
 23 25  2  0
 24 23  1  0
 26 24  1  0
 27 36  2  0
 27 32  1  0
 28 24  1  0
 28 32  1  0
 29 28  1  0
 30 31  1  0
 30 29  1  0
 31 27  1  0
 32 33  2  0
 33 34  1  0
 35 34  2  0
 36 35  1  0
 37 11  1  0
 37 42  1  0
 37 38  1  0
 38 41  1  1
 38 39  1  0
 40 38  1  0
 42 45  1  0
 43 47  1  0
 43 42  1  0
 44 43  2  0
 47 46  1  0
 49 47  1  0
 49 50  1  0
 49 48  1  0
 51 52  1  0
 52 92  1  0
 53 61  1  0
 54 59  1  0
 55 56  1  0
 55 54  1  0
 57 56  1  0
 57 66  1  0
 57 58  1  0
 59 53  1  0
 59 58  1  0
 60 53  2  0
 61 52  2  0
 62 61  1  0
 63 64  2  0
 64 83  1  0
 65 64  1  0
 65 68  1  0
 66 67  1  0
 66 63  1  0
 67 65  2  0
 68 69  1  0
 69 70  2  0
 71 74  1  0
 71 70  1  0
 72 71  2  0
 73 72  1  0
 73 68  2  0
 74 75  1  0
 75 80  2  0
 75 76  1  0
 76 77  2  0
 77 78  1  0
 78 82  1  0
 79 78  2  0
 80 79  1  0
 81 80  1  0
 83 84  1  0
 84 87  1  0
 84 86  1  0
 85 83  2  0
 88 89  1  0
 88 63  1  0
 90 88  1  0
 92 91  1  0
 92 95  1  0
 95 94  1  0
 95 93  1  0
 95 96  1  6
M  ISO  4   9 101  10 101  53 100  61 100
M  END
>  <TORSDO>  (30) 
F 24

>  <SCORE>  (30) 
-7.522

>  <name>  (30) 
29

>  <ligand_id>  (30) 
29

>  <original_smiles>  (30) 
[H]c1c([H])c([H])c2c(c1[H])C([H])([H])C([H])([H])C([H])([H])C2([H])N([H])C(=O)C1([H])N(C(=O)C([H])(N([H])C(=O)C([H])(N([H])C([H])([H])[H])C([H])([H])[H])C(C([H])([H])[H])(C([H])([H])[H])C([H])([H])[H])C([H])([H])c2c([H])c(OC([H])([H])C([H])(C([H])([H])[H])C([H])([H])C([H])(C([H])([H])C([H])(N([H])C(=O)N3C([H])([H])C([H])([H])C([H])([H])C([H])(n4nc(-c5c([H])c([H])c(Oc6c([H])c([H])c(F)c([H])c6F)c([H])c5[H])c(C(=O)N([H])[H])c4N([H])[H])C3([H])[H])C([H])(C([H])([H])[H])[N+]([H])(C([H])([H])[H])C([H])([H])[H])[N+]([H])([H])[H])c([H])c([H])c2C1([H])[H]

>  <smiles>  (30) 
[H]c1c([H])c([H])c2c(c1[H])C([H])([H])C([H])([H])C([H])([H])C2([H])N([H])C(=O)C1([H])N(C(=O)C([H])(N([H])C(=O)C([H])(N([H])C([H])([H])[H])C([H])([H])[H])C(C([H])([H])[H])(C([H])([H])[H])C([H])([H])[H])C([H])([H])c2c([H])c(OC([H])([H])C([H])(C([H])([H])[H])C([H])([H])C([H])(C([H])([H])C([H])(N([H])C(=O)N3C([H])([H])C([H])([H])C([H])([H])C([H])(n4nc(-c5c([H])c([H])c(Oc6c([H])c([H])c(F)c([H])c6F)c([H])c5[H])c(C(=O)N([H])[H])c4N([H])[H])C3([H])[H])C([H])(C([H])([H])[H])[N+]([H])(C([H])([H])[H])C([H])([H])[H])[N+]([H])([H])[H])c([H])c([H])c2C1([H])[H]

$$$$
30:0:0
     RDKit          3D

 98106  0  0  1  0  0  0  0  0999 V2000
  -28.1990  -23.6420   21.7030 C   0  0  0  0  0  2  0  0  0  0  0  0
  -25.1050  -23.8890   22.8070 C   0  0  0  0  0  2  0  0  0  0  0  0
  -25.4440  -25.3820   22.8490 C   0  0  0  0  0  2  0  0  0  0  0  0
  -25.1130  -23.3660   21.3620 C   0  0  0  0  0  2  0  0  0  0  0  0
  -26.8350  -25.7110   22.2590 C   0  0  0  0  0  2  0  0  0  0  0  0
  -26.0580  -24.1520   20.4170 C   0  0  0  0  0  2  0  0  0  0  0  0
  -27.3230  -24.8040   21.0720 C   0  0  2  0  0  0  0  0  0  0  0  0
  -28.1560  -25.6250   19.9580 C   0  0  0  0  0  2  0  0  0  0  0  0
  -28.3360  -27.0860   19.9270 O   0  0  0  0  0  0  0  0  0  0  0  0
  -24.4800  -31.9780   23.2450 C   0  0  0  0  0  0  0  0  0  0  0  0
  -27.2320  -27.8970   19.7940 C   0  0  0  0  0  0  0  0  0  0  0  0
  -23.3150  -30.6560   21.5180 C   0  0  0  0  0  3  0  0  0  0  0  0
  -24.8060  -29.3290   19.9430 C   0  0  0  0  0  0  0  0  0  0  0  0
  -25.8260  -31.1540   21.3120 C   0  0  0  0  0  2  0  0  0  0  0  0
  -25.9570  -29.8570   20.5360 C   0  0  0  0  0  0  0  0  0  0  0  0
  -27.1820  -29.1510   20.4510 C   0  0  0  0  0  3  0  0  0  0  0  0
  -26.0740  -27.4220   19.1430 C   0  0  0  0  0  3  0  0  0  0  0  0
  -24.8570  -28.1060   19.2510 C   0  0  0  0  0  3  0  0  0  0  0  0
  -23.5220  -30.1100   20.0840 C   0  0  0  0  0  2  0  0  0  0  0  0
  -24.5590  -31.2800   22.0800 N   0  0  0  0  0  0  0  0  0  0  0  0
  -23.4010  -32.1450   23.8250 O   0  0  0  0  0  0  0  0  0  0  0  0
  -22.7450  -29.5270   22.4030 C   0  0  0  0  0  0  0  0  0  0  0  0
  -21.4320  -29.2690   22.2700 N   0  0  0  0  0  0  0  0  0  0  0  0
  -23.4740  -28.8820   23.1560 O   0  0  0  0  0  0  0  0  0  0  0  0
  -20.9130  -29.8360   21.6110 H   0  0  0  0  0  0  0  0  0  0  0  0
  -18.1320  -27.8910   22.7150 C   0  0  0  0  0  0  0  0  0  0  0  0
  -20.6820  -28.2400   22.9910 C   0  0  0  0  0  3  0  0  0  0  0  0
  -20.8410  -26.8430   22.3310 C   0  0  0  0  0  2  0  0  0  0  0  0
  -19.7650  -26.5660   21.2870 C   0  0  0  0  0  2  0  0  0  0  0  0
  -18.3650  -26.6050   21.9220 C   0  0  0  0  0  2  0  0  0  0  0  0
  -19.2210  -28.6670   23.1990 C   0  0  0  0  0  0  0  0  0  0  0  0
  -18.9570  -29.8690   23.8920 C   0  0  0  0  0  3  0  0  0  0  0  0
  -17.6350  -30.3030   24.1030 C   0  0  0  0  0  3  0  0  0  0  0  0
  -16.5570  -29.5210   23.6400 C   0  0  0  0  0  3  0  0  0  0  0  0
  -16.8080  -28.3120   22.9600 C   0  0  0  0  0  3  0  0  0  0  0  0
  -25.7490  -32.6170   23.8930 C   0  0  0  0  0  3  0  0  0  0  0  0
  -25.4220  -34.0140   24.2010 N   0  0  0  0  0  0  0  0  0  0  0  0
  -25.7760  -35.0620   23.4450 C   0  0  0  0  0  0  0  0  0  0  0  0
  -26.4850  -34.9560   22.4430 O   0  0  0  0  0  0  0  0  0  0  0  0
  -24.8000  -34.1710   24.9800 H   0  0  0  0  0  0  0  0  0  0  0  0
  -24.0580  -36.8490   23.0140 C   0  0  0  0  0  1  0  0  0  0  0  0
  -25.2680  -36.4570   23.8740 C   0  0  0  0  0  3  0  0  0  0  0  0
  -27.3690  -37.3570   24.7790 C   0  0  0  0  0  1  0  0  0  0  0  0
  -26.3060  -37.5110   23.7870 N   0  0  0  0  0  0  0  0  0  0  0  0
  -25.8930  -38.4320   23.9070 H   0  0  0  0  0  0  0  0  0  0  0  0
  -26.2370  -31.8610   25.1920 C   0  0  1  0  0  0  0  0  0  0  0  0
  -25.1190  -31.6090   26.2290 C   0  0  0  0  0  1  0  0  0  0  0  0
  -26.8440  -30.4850   24.8330 C   0  0  0  0  0  1  0  0  0  0  0  0
  -27.3610  -32.6710   25.8820 C   0  0  0  0  0  1  0  0  0  0  0  0
  -28.4200  -22.4730   20.8100 N   0  0  0  0  0  4  0  0  0  0  0  0
  -28.6690  -22.8240   19.9010 H   0  0  0  0  0  0  0  0  0  0  0  0
  -27.5530  -21.9710   20.7030 H   0  0  0  0  0  0  0  0  0  0  0  0
  -29.3320  -20.9910   22.6560 C   0  0  0  0  0  1  0  0  0  0  0  0
  -29.4710  -21.5020   21.2060 C   0  0  0  0  0  3  0  0  0  0  0  0
  -29.3900  -20.2990   20.2440 C   0  0  0  0  0  2  0  0  0  0  0  0
  -31.6600  -19.6460   19.7990 C   0  0  0  0  0  1  0  0  0  0  0  0
  -30.3960  -19.2480   20.4290 N   0  0  0  0  0  0  0  0  0  0  0  0
  -29.8490  -18.1150   19.6860 C   0  0  0  0  0  2  0  0  0  0  0  0
  -30.1710  -16.6550   21.8820 C   0  0  0  0  0  1  0  0  0  0  0  0
  -29.8160  -16.7400   20.3790 C   0  0  0  0  0  3  0  0  0  0  0  0
  -31.3990  -14.8600   19.6810 C   0  0  0  0  0  0  0  0  0  0  0  0
  -31.0950  -12.4900   19.1950 C   0  0  0  0  0  2  0  0  0  0  0  0
  -30.1650  -12.3360   17.9750 C   0  0  0  0  0  2  0  0  0  0  0  0
  -28.6830  -12.3180   18.4000 C   0  0  0  0  0  2  0  0  0  0  0  0
  -28.3240  -13.4570   19.3960 C   0  0  0  0  0  3  0  0  0  0  0  0
  -29.3860  -13.5500   20.5200 C   0  0  0  0  0  2  0  0  0  0  0  0
  -30.6970  -13.7160   19.8860 N   0  0  0  0  0  0  0  0  0  0  0  0
  -32.5360  -14.8850   19.2000 O   0  0  0  0  0  0  0  0  0  0  0  0
  -30.7300  -15.9930   19.5480 N   0  0  0  0  0  0  0  0  0  0  0  0
  -31.2850  -16.6280   18.9930 H   0  0  0  0  0  0  0  0  0  0  0  0
  -26.0000  -14.2370   20.1860 C   0  0  0  0  0  0  0  0  0  0  0  0
  -24.8940  -13.5520   20.5950 C   0  0  0  0  0  0  0  0  0  0  0  0
  -25.2530  -12.1650   20.5600 C   0  0  0  0  0  0  0  0  0  0  0  0
  -26.9730  -13.2860   19.9300 N   0  0  0  0  0  0  0  0  0  0  0  0
  -26.5250  -12.0330   20.2050 N   0  0  0  0  0  0  0  0  0  0  0  0
  -24.4430  -10.9640   20.7860 C   0  0  0  0  0  0  0  0  0  0  0  0
  -24.8480   -9.9590   21.6930 C   0  0  0  0  0  3  0  0  0  0  0  0
  -24.0400   -8.8220   21.9060 C   0  0  0  0  0  3  0  0  0  0  0  0
  -22.8140   -8.6810   21.2130 C   0  0  0  0  0  0  0  0  0  0  0  0
  -22.4270   -9.6740   20.2970 C   0  0  0  0  0  3  0  0  0  0  0  0
  -23.2330  -10.8030   20.0790 C   0  0  0  0  0  3  0  0  0  0  0  0
  -21.9770   -7.6010   21.3400 O   0  0  0  0  0  0  0  0  0  0  0  0
  -21.8560   -6.9170   22.5260 C   0  0  0  0  0  0  0  0  0  0  0  0
  -21.4890   -7.5660   23.7230 C   0  0  0  0  0  3  0  0  0  0  0  0
  -21.3060   -6.8180   24.9030 C   0  0  0  0  0  3  0  0  0  0  0  0
  -21.4810   -5.4210   24.8850 C   0  0  0  0  0  0  0  0  0  0  0  0
  -21.8430   -4.7720   23.6930 C   0  0  0  0  0  3  0  0  0  0  0  0
  -22.0270   -5.5180   22.5140 C   0  0  0  0  0  0  0  0  0  0  0  0
  -22.3530   -4.8840   21.3630 F   0  0  0  0  0  0  0  0  0  0  0  0
  -21.3000   -4.7000   26.0180 F   0  0  0  0  0  0  0  0  0  0  0  0
  -23.5480  -14.1290   20.9210 C   0  0  0  0  0  0  0  0  0  0  0  0
  -22.8400  -13.5470   21.8780 N   0  0  0  0  0  0  0  0  0  0  0  0
  -23.1350  -15.1450   20.3550 O   0  0  0  0  0  0  0  0  0  0  0  0
  -23.1940  -12.7300   22.3580 H   0  0  0  0  0  0  0  0  0  0  0  0
  -21.9410  -13.9270   22.1420 H   0  0  0  0  0  0  0  0  0  0  0  0
  -26.2540  -15.5930   19.9890 N   0  0  0  0  0  0  0  0  0  0  0  0
  -25.5310  -16.2920   20.0990 H   0  0  0  0  0  0  0  0  0  0  0  0
  -27.1070  -15.9690   19.5990 H   0  0  0  0  0  0  0  0  0  0  0  0
  2  3  1  0
  4  2  1  0
  5  3  1  0
  6  7  1  0
  6  4  1  0
  7  1  1  1
  7  5  1  0
  8  7  1  0
  9  8  1  0
 10 21  2  0
 11  9  1  0
 11 16  1  0
 12 20  1  0
 12 22  1  0
 13 19  1  0
 13 15  1  0
 14 20  1  0
 15 14  1  0
 16 15  2  0
 17 18  1  0
 17 11  2  0
 18 13  2  0
 19 12  1  0
 20 10  1  0
 22 24  2  0
 23 22  1  0
 25 23  1  0
 26 35  2  0
 26 31  1  0
 27 23  1  0
 27 31  1  0
 28 27  1  0
 29 30  1  0
 29 28  1  0
 30 26  1  0
 31 32  2  0
 32 33  1  0
 34 33  2  0
 35 34  1  0
 36 10  1  0
 36 37  1  0
 36 46  1  0
 37 40  1  0
 38 42  1  0
 38 37  1  0
 39 38  2  0
 42 41  1  0
 44 42  1  0
 44 45  1  0
 44 43  1  0
 46 49  1  1
 46 47  1  0
 48 46  1  0
 50 54  1  0
 50  1  1  0
 51 50  1  0
 52 50  1  0
 54 53  1  0
 55 57  1  0
 55 54  1  0
 56 57  1  0
 58 60  1  0
 58 57  1  0
 60 59  1  0
 61 67  1  0
 62 67  1  0
 63 64  1  0
 63 62  1  0
 65 64  1  0
 65 74  1  0
 65 66  1  0
 67 66  1  0
 68 61  2  0
 69 61  1  0
 69 60  1  0
 70 69  1  0
 71 72  2  0
 72 91  1  0
 73 72  1  0
 73 76  1  0
 74 71  1  0
 74 75  1  0
 75 73  2  0
 76 77  1  0
 77 78  2  0
 79 82  1  0
 79 78  1  0
 80 79  2  0
 81 80  1  0
 81 76  2  0
 82 83  1  0
 83 84  1  0
 84 85  2  0
 86 85  1  0
 86 90  1  0
 87 86  2  0
 88 83  2  0
 88 87  1  0
 89 88  1  0
 91 92  1  0
 92 95  1  0
 92 94  1  0
 93 91  2  0
 96 97  1  0
 96 71  1  0
 98 96  1  0
M  ISO  4   8 101   9 101  61 100  69 100
M  END
>  <TORSDO>  (31) 
F 24

>  <SCORE>  (31) 
-11.335

>  <name>  (31) 
30

>  <ligand_id>  (31) 
30

>  <original_smiles>  (31) 
[H]c1c([H])c([H])c2c(c1[H])C([H])([H])C([H])([H])C([H])([H])C2([H])N([H])C(=O)C1([H])N(C(=O)C([H])(N([H])C(=O)C([H])(N([H])C([H])([H])[H])C([H])([H])[H])C(C([H])([H])[H])(C([H])([H])[H])C([H])([H])[H])C([H])([H])c2c([H])c(OC([H])([H])C3(C([H])([H])[N+]([H])([H])C([H])(C([H])([H])[H])C([H])([H])N(C([H])([H])[H])C([H])([H])C([H])(N([H])C(=O)N4C([H])([H])C([H])([H])C([H])([H])C([H])(n5nc(-c6c([H])c([H])c(Oc7c([H])c([H])c(F)c([H])c7F)c([H])c6[H])c(C(=O)N([H])[H])c5N([H])[H])C4([H])[H])C([H])([H])[H])C([H])([H])C([H])([H])C([H])([H])C([H])([H])C3([H])[H])c([H])c([H])c2C1([H])[H]

>  <smiles>  (31) 
[H]c1c([H])c([H])c2c(c1[H])C([H])([H])C([H])([H])C([H])([H])C2([H])N([H])C(=O)C1([H])N(C(=O)C([H])(N([H])C(=O)C([H])(N([H])C([H])([H])[H])C([H])([H])[H])C(C([H])([H])[H])(C([H])([H])[H])C([H])([H])[H])C([H])([H])c2c([H])c(OC([H])([H])C3(C([H])([H])[N+]([H])([H])C([H])(C([H])([H])[H])C([H])([H])N(C([H])([H])[H])C([H])([H])C([H])(N([H])C(=O)N4C([H])([H])C([H])([H])C([H])([H])C([H])(n5nc(-c6c([H])c([H])c(Oc7c([H])c([H])c(F)c([H])c7F)c([H])c6[H])c(C(=O)N([H])[H])c5N([H])[H])C4([H])[H])C([H])([H])[H])C([H])([H])C([H])([H])C([H])([H])C([H])([H])C3([H])[H])c([H])c([H])c2C1([H])[H]

$$$$
31:0:0
     RDKit          3D

 92100  0  0  1  0  0  0  0  0999 V2000
  -29.8340  -22.5690   18.4450 C   0  0  0  0  0  3  0  0  0  0  0  0
  -29.3750  -22.0270   19.6070 C   0  0  0  0  0  0  0  0  0  0  0  0
  -29.7240  -20.5230   19.5200 C   0  0  0  0  0  0  0  0  0  0  0  0
  -30.4810  -20.4440   18.3490 C   0  0  0  0  0  0  0  0  0  0  0  0
  -31.2250  -19.2920   17.7190 C   0  0  0  0  0  1  0  0  0  0  0  0
  -30.5060  -21.6620   17.6800 N   0  0  0  0  0  0  0  0  0  0  0  0
  -31.3500  -23.4690   16.1190 C   0  0  0  0  0  1  0  0  0  0  0  0
  -30.3050  -21.3590   15.2220 C   0  0  0  0  0  1  0  0  0  0  0  0
  -31.1250  -21.9660   16.3730 C   0  0  0  0  0  3  0  0  0  0  0  0
  -28.7120  -23.1910   20.5620 C   0  0  0  0  0  2  0  0  0  0  0  0
  -27.9870  -24.6260   19.9880 C   0  0  0  0  0  2  0  0  0  0  0  0
  -28.2410  -26.1400   20.2910 O   0  0  0  0  0  0  0  0  0  0  0  0
  -24.6300  -31.8560   23.2400 C   0  0  0  0  0  0  0  0  0  0  0  0
  -27.1950  -27.1370   20.2010 C   0  0  0  0  0  0  0  0  0  0  0  0
  -23.4250  -30.4580   21.6110 C   0  0  0  0  0  3  0  0  0  0  0  0
  -24.8690  -28.8890   20.1720 C   0  0  0  0  0  0  0  0  0  0  0  0
  -25.9790  -30.7230   21.4340 C   0  0  0  0  0  2  0  0  0  0  0  0
  -26.0500  -29.3310   20.7810 C   0  0  0  0  0  0  0  0  0  0  0  0
  -27.2120  -28.4690   20.7830 C   0  0  0  0  0  3  0  0  0  0  0  0
  -25.9910  -26.8070   19.5370 C   0  0  0  0  0  3  0  0  0  0  0  0
  -24.8520  -27.6410   19.5350 C   0  0  0  0  0  3  0  0  0  0  0  0
  -23.6400  -29.7830   20.2290 C   0  0  0  0  0  2  0  0  0  0  0  0
  -24.6980  -31.0340   22.1500 N   0  0  0  0  0  0  0  0  0  0  0  0
  -23.5460  -32.1420   23.7730 O   0  0  0  0  0  0  0  0  0  0  0  0
  -22.7510  -29.4490   22.5740 C   0  0  0  0  0  0  0  0  0  0  0  0
  -21.4240  -29.2750   22.4520 N   0  0  0  0  0  0  0  0  0  0  0  0
  -23.4270  -28.8260   23.3970 O   0  0  0  0  0  0  0  0  0  0  0  0
  -20.9380  -29.8270   21.7600 H   0  0  0  0  0  0  0  0  0  0  0  0
  -18.0470  -28.0640   22.9630 C   0  0  0  0  0  0  0  0  0  0  0  0
  -20.6050  -28.3400   23.2300 C   0  0  0  0  0  3  0  0  0  0  0  0
  -20.7140  -26.9060   22.6640 C   0  0  0  0  0  2  0  0  0  0  0  0
  -19.6130  -26.5730   21.6520 C   0  0  0  0  0  2  0  0  0  0  0  0
  -18.2300  -26.7130   22.2940 C   0  0  0  0  0  2  0  0  0  0  0  0
  -19.1630  -28.8350   23.3880 C   0  0  0  0  0  0  0  0  0  0  0  0
  -18.9360  -30.0980   23.9750 C   0  0  0  0  0  3  0  0  0  0  0  0
  -17.6280  -30.5920   24.1420 C   0  0  0  0  0  3  0  0  0  0  0  0
  -16.5280  -29.8190   23.7320 C   0  0  0  0  0  3  0  0  0  0  0  0
  -16.7380  -28.5570   23.1490 C   0  0  0  0  0  3  0  0  0  0  0  0
  -25.9090  -32.4970   23.8580 C   0  0  0  0  0  3  0  0  0  0  0  0
  -25.5970  -33.8990   24.1820 N   0  0  0  0  0  0  0  0  0  0  0  0
  -25.9330  -34.9520   23.4270 C   0  0  0  0  0  0  0  0  0  0  0  0
  -26.6040  -34.8450   22.3960 O   0  0  0  0  0  0  0  0  0  0  0  0
  -24.9970  -34.0550   24.9790 H   0  0  0  0  0  0  0  0  0  0  0  0
  -24.2090  -36.7530   23.0760 C   0  0  0  0  0  1  0  0  0  0  0  0
  -25.4500  -36.3430   23.8840 C   0  0  0  0  0  3  0  0  0  0  0  0
  -27.5870  -37.2220   24.7170 C   0  0  0  0  0  1  0  0  0  0  0  0
  -26.4870  -37.3930   23.7720 N   0  0  0  0  0  0  0  0  0  0  0  0
  -26.0840  -38.3150   23.9170 H   0  0  0  0  0  0  0  0  0  0  0  0
  -26.4230  -31.7350   25.1410 C   0  0  1  0  0  0  0  0  0  0  0  0
  -25.3280  -31.5060   26.2090 C   0  0  0  0  0  1  0  0  0  0  0  0
  -27.0040  -30.3530   24.7650 C   0  0  0  0  0  1  0  0  0  0  0  0
  -27.5780  -32.5300   25.7940 C   0  0  0  0  0  1  0  0  0  0  0  0
  -29.4580  -19.1050   20.3750 C   0  0  0  0  0  3  0  0  0  0  0  0
  -30.1830  -17.6010   20.0170 C   0  0  0  0  0  3  0  0  0  0  0  0
  -30.5590  -14.9350   20.3070 C   0  0  0  0  0  0  0  0  0  0  0  0
  -30.3900  -12.5990   19.3550 C   0  0  0  0  0  2  0  0  0  0  0  0
  -29.4570  -12.5870   18.1210 C   0  0  0  0  0  2  0  0  0  0  0  0
  -27.9950  -12.3860   18.5540 C   0  0  0  0  0  2  0  0  0  0  0  0
  -27.6000  -13.3040   19.7410 C   0  0  0  0  0  3  0  0  0  0  0  0
  -28.6570  -13.3000   20.8680 C   0  0  0  0  0  2  0  0  0  0  0  0
  -29.9370  -13.6900   20.2660 N   0  0  0  0  0  0  0  0  0  0  0  0
  -31.7480  -14.9820   19.9770 O   0  0  0  0  0  0  0  0  0  0  0  0
  -29.8280  -16.1390   20.4920 N   0  0  0  0  0  0  0  0  0  0  0  0
  -28.8710  -16.0020   20.7810 H   0  0  0  0  0  0  0  0  0  0  0  0
  -25.2130  -13.8840   20.4610 C   0  0  0  0  0  0  0  0  0  0  0  0
  -24.1500  -13.1080   20.8310 C   0  0  0  0  0  0  0  0  0  0  0  0
  -24.6190  -11.7590   20.8150 C   0  0  0  0  0  0  0  0  0  0  0  0
  -26.2600  -13.0070   20.2340 N   0  0  0  0  0  0  0  0  0  0  0  0
  -25.9120  -11.7240   20.5150 N   0  0  0  0  0  0  0  0  0  0  0  0
  -23.8950  -10.4960   21.0100 C   0  0  0  0  0  0  0  0  0  0  0  0
  -24.3250   -9.5350   21.9510 C   0  0  0  0  0  3  0  0  0  0  0  0
  -23.5980   -8.3380   22.1340 C   0  0  0  0  0  3  0  0  0  0  0  0
  -22.4280   -8.0950   21.3780 C   0  0  0  0  0  0  0  0  0  0  0  0
  -22.0190   -9.0450   20.4240 C   0  0  0  0  0  3  0  0  0  0  0  0
  -22.7450  -10.2320   20.2390 C   0  0  0  0  0  3  0  0  0  0  0  0
  -21.6740   -6.9500   21.4690 O   0  0  0  0  0  0  0  0  0  0  0  0
  -21.6240   -6.2110   22.6250 C   0  0  0  0  0  0  0  0  0  0  0  0
  -21.1940   -6.7710   23.8470 C   0  0  0  0  0  3  0  0  0  0  0  0
  -21.0910   -5.9600   24.9960 C   0  0  0  0  0  3  0  0  0  0  0  0
  -21.4090   -4.5910   24.9200 C   0  0  0  0  0  0  0  0  0  0  0  0
  -21.8330   -4.0300   23.7030 C   0  0  0  0  0  3  0  0  0  0  0  0
  -21.9360   -4.8390   22.5570 C   0  0  0  0  0  0  0  0  0  0  0  0
  -22.3240   -4.2900   21.3800 F   0  0  0  0  0  0  0  0  0  0  0  0
  -21.3040   -3.8090   26.0210 F   0  0  0  0  0  0  0  0  0  0  0  0
  -22.7490  -13.5830   21.0890 C   0  0  0  0  0  0  0  0  0  0  0  0
  -22.0180  -12.8900   21.9530 N   0  0  0  0  0  0  0  0  0  0  0  0
  -22.3130  -14.6050   20.5600 O   0  0  0  0  0  0  0  0  0  0  0  0
  -22.3860  -12.0620   22.4000 H   0  0  0  0  0  0  0  0  0  0  0  0
  -21.0770  -13.1890   22.1720 H   0  0  0  0  0  0  0  0  0  0  0  0
  -25.3740  -15.2540   20.2720 N   0  0  0  0  0  0  0  0  0  0  0  0
  -24.6060  -15.9080   20.3800 H   0  0  0  0  0  0  0  0  0  0  0  0
  -26.2170  -15.6920   19.9220 H   0  0  0  0  0  0  0  0  0  0  0  0
  1  2  2  0
  2 10  1  0
  3  2  1  0
  3 53  1  0
  4  3  2  0
  5  4  1  0
  6  4  1  0
  6  1  1  0
  7  9  1  0
  8  9  1  0
  9  6  1  0
 11 12  1  0
 11 10  1  0
 13 24  2  0
 14 12  1  0
 14 19  1  0
 15 23  1  0
 15 25  1  0
 16 22  1  0
 16 18  1  0
 17 23  1  0
 18 19  2  0
 18 17  1  0
 20 14  2  0
 21 20  1  0
 21 16  2  0
 22 15  1  0
 23 13  1  0
 25 27  2  0
 26 25  1  0
 28 26  1  0
 29 38  2  0
 29 34  1  0
 30 26  1  0
 30 34  1  0
 31 30  1  0
 32 33  1  0
 32 31  1  0
 33 29  1  0
 34 35  2  0
 35 36  1  0
 37 36  2  0
 38 37  1  0
 39 13  1  0
 39 40  1  0
 39 49  1  0
 40 43  1  0
 41 45  1  0
 41 40  1  0
 42 41  2  0
 45 44  1  0
 47 45  1  0
 47 48  1  0
 47 46  1  0
 49 52  1  1
 49 50  1  0
 51 49  1  0
 54 53  2  0
 54 63  1  0
 55 63  1  0
 56 61  1  0
 57 58  1  0
 57 56  1  0
 59 58  1  0
 59 68  1  0
 59 60  1  0
 61 55  1  0
 61 60  1  0
 62 55  2  0
 63 64  1  0
 65 66  2  0
 66 85  1  0
 67 66  1  0
 67 70  1  0
 68 65  1  0
 68 69  1  0
 69 67  2  0
 70 71  1  0
 71 72  2  0
 73 76  1  0
 73 72  1  0
 74 73  2  0
 75 74  1  0
 75 70  2  0
 76 77  1  0
 77 78  1  0
 78 79  2  0
 80 79  1  0
 80 84  1  0
 81 80  2  0
 82 77  2  0
 82 81  1  0
 83 82  1  0
 85 86  1  0
 86 89  1  0
 86 88  1  0
 87 85  2  0
 90 91  1  0
 90 65  1  0
 92 90  1  0
M  ISO  4  11 101  12 101  55 100  63 100
M  END
>  <TORSDO>  (32) 
F 21

>  <SCORE>  (32) 
-14.891

>  <name>  (32) 
31

>  <ligand_id>  (32) 
31

>  <original_smiles>  (32) 
[H]c1c([H])c([H])c2c(c1[H])C([H])([H])C([H])([H])C([H])([H])C2([H])N([H])C(=O)C1([H])N(C(=O)C([H])(N([H])C(=O)C([H])(N([H])C([H])([H])[H])C([H])([H])[H])C(C([H])([H])[H])(C([H])([H])[H])C([H])([H])[H])C([H])([H])c2c([H])c(OC([H])([H])C([H])([H])c3c(C([H])([H])C([H])([H])N([H])C(=O)N4C([H])([H])C([H])([H])C([H])([H])C([H])(n5nc(-c6c([H])c([H])c(Oc7c([H])c([H])c(F)c([H])c7F)c([H])c6[H])c(C(=O)N([H])[H])c5N([H])[H])C4([H])[H])c(C([H])([H])[H])n(C([H])(C([H])([H])[H])C([H])([H])[H])c3[H])c([H])c([H])c2C1([H])[H]

>  <smiles>  (32) 
[H]c1c([H])c([H])c2c(c1[H])C([H])([H])C([H])([H])C([H])([H])C2([H])N([H])C(=O)C1([H])N(C(=O)C([H])(N([H])C(=O)C([H])(N([H])C([H])([H])[H])C([H])([H])[H])C(C([H])([H])[H])(C([H])([H])[H])C([H])([H])[H])C([H])([H])c2c([H])c(OC([H])([H])C([H])([H])c3c(C([H])([H])C([H])([H])N([H])C(=O)N4C([H])([H])C([H])([H])C([H])([H])C([H])(n5nc(-c6c([H])c([H])c(Oc7c([H])c([H])c(F)c([H])c7F)c([H])c6[H])c(C(=O)N([H])[H])c5N([H])[H])C4([H])[H])c(C([H])([H])[H])n(C([H])(C([H])([H])[H])C([H])([H])[H])c3[H])c([H])c([H])c2C1([H])[H]

$$$$
32:0:0
     RDKit          3D

 94102  0  0  1  0  0  0  0  0999 V2000
  -29.6950  -20.7630   22.2210 C   0  0  0  0  0  2  0  0  0  0  0  0
  -30.6520  -19.8280   22.6700 C   0  0  0  0  0  0  0  0  0  0  0  0
  -29.2250  -20.4530   20.9740 C   0  0  0  0  0  3  0  0  0  0  0  0
  -30.8430  -18.9500   21.6490 C   0  0  0  0  0  0  0  0  0  0  0  0
  -31.9500  -17.9380   21.5500 C   0  0  0  0  0  1  0  0  0  0  0  0
  -29.8270  -19.0870   20.6870 N   0  0  0  0  0  0  0  0  0  0  0  0
  -30.5210  -18.9290   24.9860 C   0  0  0  0  0  1  0  0  0  0  0  0
  -31.5460  -21.2130   24.6080 C   0  0  0  0  0  1  0  0  0  0  0  0
  -31.3310  -19.8080   24.0250 C   0  0  0  0  0  3  0  0  0  0  0  0
  -27.9560  -21.2410   18.8790 C   0  0  0  0  0  1  0  0  0  0  0  0
  -26.8150  -21.2390   21.0810 C   0  0  0  0  0  1  0  0  0  0  0  0
  -28.1460  -21.5400   20.3710 C   0  0  1  0  0  0  0  0  0  0  0  0
  -28.4020  -23.2450   20.5340 C   0  0  0  0  0  3  0  0  0  0  0  0
  -27.4410  -24.5610   20.0260 C   0  0  0  0  0  3  0  0  0  0  0  0
  -27.7530  -26.1070   20.0500 O   0  0  0  0  0  0  0  0  0  0  0  0
  -24.7520  -32.0090   23.3510 C   0  0  0  0  0  0  0  0  0  0  0  0
  -26.7650  -27.1700   20.0540 C   0  0  0  0  0  0  0  0  0  0  0  0
  -23.3380  -30.7310   21.7850 C   0  0  0  0  0  3  0  0  0  0  0  0
  -24.5630  -29.0870   20.2260 C   0  0  0  0  0  0  0  0  0  0  0  0
  -25.8870  -30.8140   21.4370 C   0  0  0  0  0  2  0  0  0  0  0  0
  -25.8120  -29.4310   20.7610 C   0  0  0  0  0  0  0  0  0  0  0  0
  -26.9080  -28.4870   20.6660 C   0  0  0  0  0  3  0  0  0  0  0  0
  -25.4970  -26.9460   19.4730 C   0  0  0  0  0  3  0  0  0  0  0  0
  -24.4260  -27.8610   19.5610 C   0  0  0  0  0  3  0  0  0  0  0  0
  -23.4030  -30.0580   20.3860 C   0  0  0  0  0  2  0  0  0  0  0  0
  -24.6850  -31.2080   22.2420 N   0  0  0  0  0  0  0  0  0  0  0  0
  -23.7290  -32.3560   23.9640 O   0  0  0  0  0  0  0  0  0  0  0  0
  -22.6570  -29.7590   22.7840 C   0  0  0  0  0  0  0  0  0  0  0  0
  -21.3430  -29.5220   22.6180 N   0  0  0  0  0  0  0  0  0  0  0  0
  -23.3200  -29.2140   23.6710 O   0  0  0  0  0  0  0  0  0  0  0  0
  -20.8660  -29.9960   21.8640 H   0  0  0  0  0  0  0  0  0  0  0  0
  -18.0490  -28.0360   22.9520 C   0  0  0  0  0  0  0  0  0  0  0  0
  -20.5300  -28.6040   23.4220 C   0  0  0  0  0  3  0  0  0  0  0  0
  -20.8280  -27.1340   23.0610 C   0  0  0  0  0  2  0  0  0  0  0  0
  -19.8790  -26.5680   21.9950 C   0  0  0  0  0  2  0  0  0  0  0  0
  -18.4230  -26.6410   22.4750 C   0  0  0  0  0  2  0  0  0  0  0  0
  -19.0380  -28.9600   23.3810 C   0  0  0  0  0  0  0  0  0  0  0  0
  -18.6370  -30.2510   23.7850 C   0  0  0  0  0  3  0  0  0  0  0  0
  -17.2810  -30.6230   23.7690 C   0  0  0  0  0  3  0  0  0  0  0  0
  -16.3060  -29.7050   23.3520 C   0  0  0  0  0  3  0  0  0  0  0  0
  -16.6900  -28.4130   22.9510 C   0  0  0  0  0  3  0  0  0  0  0  0
  -26.1140  -32.5440   23.8900 C   0  0  0  0  0  3  0  0  0  0  0  0
  -25.8990  -33.9230   24.3580 N   0  0  0  0  0  0  0  0  0  0  0  0
  -26.2680  -35.0260   23.6910 C   0  0  0  0  0  0  0  0  0  0  0  0
  -26.8910  -34.9840   22.6260 O   0  0  0  0  0  0  0  0  0  0  0  0
  -25.3440  -34.0320   25.1930 H   0  0  0  0  0  0  0  0  0  0  0  0
  -24.6550  -36.9560   23.5740 C   0  0  0  0  0  1  0  0  0  0  0  0
  -25.8870  -36.3900   24.2980 C   0  0  0  0  0  3  0  0  0  0  0  0
  -28.0980  -37.0520   25.1390 C   0  0  0  0  0  1  0  0  0  0  0  0
  -26.9860  -37.3810   24.2520 N   0  0  0  0  0  0  0  0  0  0  0  0
  -26.6480  -38.3070   24.4990 H   0  0  0  0  0  0  0  0  0  0  0  0
  -26.7110  -31.6570   25.0520 C   0  0  1  0  0  0  0  0  0  0  0  0
  -25.7090  -31.3710   26.1940 C   0  0  0  0  0  1  0  0  0  0  0  0
  -27.2050  -30.2970   24.5080 C   0  0  0  0  0  1  0  0  0  0  0  0
  -27.9450  -32.3610   25.6630 C   0  0  0  0  0  1  0  0  0  0  0  0
  -29.7260  -17.9090   19.6250 C   0  0  0  0  0  2  0  0  0  0  0  0
  -30.3960  -15.2120   19.9340 C   0  0  0  0  0  0  0  0  0  0  0  0
  -30.3510  -12.7920   19.1700 C   0  0  0  0  0  2  0  0  0  0  0  0
  -29.3940  -12.6490   17.9620 C   0  0  0  0  0  2  0  0  0  0  0  0
  -27.9470  -12.4070   18.4320 C   0  0  0  0  0  2  0  0  0  0  0  0
  -27.5320  -13.3660   19.5810 C   0  0  0  0  0  3  0  0  0  0  0  0
  -28.6190  -13.4890   20.6740 C   0  0  0  0  0  2  0  0  0  0  0  0
  -29.8580  -13.9230   20.0090 N   0  0  0  0  0  0  0  0  0  0  0  0
  -31.5780  -15.3010   19.5790 O   0  0  0  0  0  0  0  0  0  0  0  0
  -29.5790  -16.3730   20.0510 N   0  0  0  0  0  0  0  0  0  0  0  0
  -28.6690  -16.1650   20.4270 H   0  0  0  0  0  0  0  0  0  0  0  0
  -25.1680  -13.8730   20.4200 C   0  0  0  0  0  0  0  0  0  0  0  0
  -24.1390  -13.0690   20.8290 C   0  0  0  0  0  0  0  0  0  0  0  0
  -24.6340  -11.7310   20.7620 C   0  0  0  0  0  0  0  0  0  0  0  0
  -26.2240  -13.0250   20.1300 N   0  0  0  0  0  0  0  0  0  0  0  0
  -25.9130  -11.7310   20.3980 N   0  0  0  0  0  0  0  0  0  0  0  0
  -23.9430  -10.4490   20.9660 C   0  0  0  0  0  0  0  0  0  0  0  0
  -24.3880   -9.5130   21.9260 C   0  0  0  0  0  3  0  0  0  0  0  0
  -23.6940   -8.2990   22.1180 C   0  0  0  0  0  3  0  0  0  0  0  0
  -22.5390   -8.0110   21.3530 C   0  0  0  0  0  0  0  0  0  0  0  0
  -22.1130   -8.9360   20.3830 C   0  0  0  0  0  3  0  0  0  0  0  0
  -22.8090  -10.1400   20.1880 C   0  0  0  0  0  3  0  0  0  0  0  0
  -21.8160   -6.8470   21.4550 O   0  0  0  0  0  0  0  0  0  0  0  0
  -21.7280   -6.1550   22.6370 C   0  0  0  0  0  0  0  0  0  0  0  0
  -21.2080   -6.7470   23.8090 C   0  0  0  0  0  3  0  0  0  0  0  0
  -21.0690   -5.9800   24.9830 C   0  0  0  0  0  3  0  0  0  0  0  0
  -21.4400   -4.6210   24.9860 C   0  0  0  0  0  0  0  0  0  0  0  0
  -21.9510   -4.0290   23.8180 C   0  0  0  0  0  3  0  0  0  0  0  0
  -22.0920   -4.7930   22.6470 C   0  0  0  0  0  0  0  0  0  0  0  0
  -22.5660   -4.2120   21.5190 F   0  0  0  0  0  0  0  0  0  0  0  0
  -21.2980   -3.8820   26.1100 F   0  0  0  0  0  0  0  0  0  0  0  0
  -22.7420  -13.5100   21.1620 C   0  0  0  0  0  0  0  0  0  0  0  0
  -22.0740  -12.7960   22.0580 N   0  0  0  0  0  0  0  0  0  0  0  0
  -22.2560  -14.5230   20.6600 O   0  0  0  0  0  0  0  0  0  0  0  0
  -22.4780  -11.9760   22.4870 H   0  0  0  0  0  0  0  0  0  0  0  0
  -21.1400  -13.0720   22.3250 H   0  0  0  0  0  0  0  0  0  0  0  0
  -25.2860  -15.2500   20.2400 N   0  0  0  0  0  0  0  0  0  0  0  0
  -24.5010  -15.8790   20.3710 H   0  0  0  0  0  0  0  0  0  0  0  0
  -26.0850  -15.7050   19.8190 H   0  0  0  0  0  0  0  0  0  0  0  0
  1  2  1  0
  2  9  1  0
  3 12  1  0
  3  1  1  0
  4  2  2  0
  5  4  1  0
  6  3  1  0
  6  4  1  0
  9  8  1  0
  9  7  1  0
 12 10  1  6
 12 13  1  0
 12 11  1  0
 14 15  1  0
 14 13  2  0
 15 17  1  0
 16 27  2  0
 17 22  1  0
 18 26  1  0
 18 28  1  0
 19 25  1  0
 19 21  1  0
 20 26  1  0
 21 20  1  0
 22 21  2  0
 23 24  1  0
 23 17  2  0
 24 19  2  0
 25 18  1  0
 26 16  1  0
 28 30  2  0
 29 28  1  0
 31 29  1  0
 32 37  1  0
 33 29  1  0
 34 33  1  0
 35 36  1  0
 35 34  1  0
 36 32  1  0
 37 33  1  0
 37 38  2  0
 39 38  1  0
 40 39  2  0
 41 32  2  0
 41 40  1  0
 42 16  1  0
 42 43  1  0
 42 52  1  0
 43 46  1  0
 44 48  1  0
 44 43  1  0
 45 44  2  0
 48 47  1  0
 50 48  1  0
 50 51  1  0
 50 49  1  0
 52 55  1  1
 52 53  1  0
 54 52  1  0
 56 65  1  0
 56  6  1  0
 57 63  1  0
 57 65  1  0
 58 63  1  0
 59 60  1  0
 59 58  1  0
 61 60  1  0
 61 70  1  0
 61 62  1  0
 63 62  1  0
 64 57  2  0
 65 66  1  0
 67 68  2  0
 68 87  1  0
 69 68  1  0
 69 72  1  0
 70 71  1  0
 70 67  1  0
 71 69  2  0
 72 73  1  0
 73 74  2  0
 75 78  1  0
 75 74  1  0
 76 75  2  0
 77 76  1  0
 77 72  2  0
 78 79  1  0
 79 84  2  0
 79 80  1  0
 80 81  2  0
 81 82  1  0
 82 86  1  0
 83 82  2  0
 84 83  1  0
 85 84  1  0
 87 88  1  0
 88 91  1  0
 88 90  1  0
 89 87  2  0
 92 93  1  0
 92 67  1  0
 94 92  1  0
M  ISO  4  14 101  15 101  57 100  65 100
M  END
>  <TORSDO>  (33) 
F 21

>  <SCORE>  (33) 
-10.909

>  <name>  (33) 
32

>  <ligand_id>  (33) 
32

>  <original_smiles>  (33) 
[H]c1c([H])c([H])c2c(c1[H])C([H])([H])C([H])([H])C([H])([H])C2([H])N([H])C(=O)C1([H])N(C(=O)C([H])(N([H])C(=O)C([H])(N([H])C([H])([H])[H])C([H])([H])[H])C(C([H])([H])[H])(C([H])([H])[H])C([H])([H])[H])C([H])([H])c2c([H])c(OC([H])([H])C([H])([H])C(c3c([H])c(C([H])(C([H])([H])[H])C([H])([H])[H])c(C([H])([H])[H])n3C([H])([H])N([H])C(=O)N3C([H])([H])C([H])([H])C([H])([H])C([H])(n4nc(-c5c([H])c([H])c(Oc6c([H])c([H])c(F)c([H])c6F)c([H])c5[H])c(C(=O)N([H])[H])c4N([H])[H])C3([H])[H])(C([H])([H])[H])C([H])([H])[H])c([H])c([H])c2C1([H])[H]

>  <smiles>  (33) 
[H]c1c([H])c([H])c2c(c1[H])C([H])([H])C([H])([H])C([H])([H])C2([H])N([H])C(=O)C1([H])N(C(=O)C([H])(N([H])C(=O)C([H])(N([H])C([H])([H])[H])C([H])([H])[H])C(C([H])([H])[H])(C([H])([H])[H])C([H])([H])[H])C([H])([H])c2c([H])c(OC([H])([H])C([H])([H])C(c3c([H])c(C([H])(C([H])([H])[H])C([H])([H])[H])c(C([H])([H])[H])n3C([H])([H])N([H])C(=O)N3C([H])([H])C([H])([H])C([H])([H])C([H])(n4nc(-c5c([H])c([H])c(Oc6c([H])c([H])c(F)c([H])c6F)c([H])c5[H])c(C(=O)N([H])[H])c4N([H])[H])C3([H])[H])(C([H])([H])[H])C([H])([H])[H])c([H])c([H])c2C1([H])[H]

$$$$
33:0:0
     RDKit          3D

 94101  0  0  1  0  0  0  0  0999 V2000
  -29.5050  -22.2080   20.5800 C   0  0  0  0  0  0  0  0  0  0  0  0
  -29.3750  -23.4350   20.0600 N   0  0  0  0  0  0  0  0  0  0  0  0
  -28.6340  -21.6720   21.2660 O   0  0  0  0  0  0  0  0  0  0  0  0
  -30.1490  -23.7900   19.5140 H   0  0  0  0  0  0  0  0  0  0  0  0
  -30.8120  -21.4600   20.2880 C   0  0  0  0  0  2  0  0  0  0  0  0
  -30.6150  -19.9840   19.8630 C   0  0  0  0  0  2  0  0  0  0  0  0
  -30.3670  -19.0530   20.9960 N   0  0  0  0  0  4  0  0  0  0  0  0
  -29.6210  -19.4120   21.5710 H   0  0  0  0  0  0  0  0  0  0  0  0
  -31.2030  -19.0330   21.5600 H   0  0  0  0  0  0  0  0  0  0  0  0
  -28.5610  -17.5050   20.2400 C   0  0  0  0  0  1  0  0  0  0  0  0
  -30.0520  -17.6550   20.6040 C   0  0  0  0  0  3  0  0  0  0  0  0
  -30.4850  -16.6630   21.7160 C   0  0  0  0  0  2  0  0  0  0  0  0
  -30.6890  -14.4190   20.6000 C   0  0  0  0  0  0  0  0  0  0  0  0
  -30.3730  -12.3280   19.3290 C   0  0  0  0  0  2  0  0  0  0  0  0
  -29.4300  -12.5700   18.1340 C   0  0  0  0  0  2  0  0  0  0  0  0
  -27.9540  -12.4240   18.5560 C   0  0  0  0  0  2  0  0  0  0  0  0
  -27.6210  -13.2350   19.8350 C   0  0  0  0  0  3  0  0  0  0  0  0
  -28.6640  -12.9570   20.9410 C   0  0  0  0  0  2  0  0  0  0  0  0
  -30.0020  -13.2640   20.3990 N   0  0  0  0  0  0  0  0  0  0  0  0
  -31.7440  -14.7010   20.0240 O   0  0  0  0  0  0  0  0  0  0  0  0
  -30.0930  -15.2790   21.4360 N   0  0  0  0  0  0  0  0  0  0  0  0
  -29.2430  -14.9520   21.8700 H   0  0  0  0  0  0  0  0  0  0  0  0
  -25.2150  -13.8620   20.5100 C   0  0  0  0  0  0  0  0  0  0  0  0
  -24.1410  -13.0970   20.8750 C   0  0  0  0  0  0  0  0  0  0  0  0
  -24.5980  -11.7430   20.8620 C   0  0  0  0  0  0  0  0  0  0  0  0
  -26.2600  -12.9740   20.2990 N   0  0  0  0  0  0  0  0  0  0  0  0
  -25.8900  -11.6950   20.5640 N   0  0  0  0  0  0  0  0  0  0  0  0
  -23.8670  -10.4850   21.0580 C   0  0  0  0  0  0  0  0  0  0  0  0
  -24.3060   -9.5140   21.9860 C   0  0  0  0  0  3  0  0  0  0  0  0
  -23.5790   -8.3190   22.1690 C   0  0  0  0  0  3  0  0  0  0  0  0
  -22.3980   -8.0860   21.4240 C   0  0  0  0  0  0  0  0  0  0  0  0
  -21.9790   -9.0450   20.4860 C   0  0  0  0  0  3  0  0  0  0  0  0
  -22.7070  -10.2330   20.3010 C   0  0  0  0  0  3  0  0  0  0  0  0
  -21.6420   -6.9430   21.5180 O   0  0  0  0  0  0  0  0  0  0  0  0
  -21.6180   -6.1860   22.6610 C   0  0  0  0  0  0  0  0  0  0  0  0
  -21.2380   -6.7310   23.9060 C   0  0  0  0  0  3  0  0  0  0  0  0
  -21.1590   -5.9030   25.0440 C   0  0  0  0  0  3  0  0  0  0  0  0
  -21.4530   -4.5300   24.9360 C   0  0  0  0  0  0  0  0  0  0  0  0
  -21.8260   -3.9830   23.6960 C   0  0  0  0  0  3  0  0  0  0  0  0
  -21.9070   -4.8090   22.5610 C   0  0  0  0  0  0  0  0  0  0  0  0
  -22.2460   -4.2750   21.3640 F   0  0  0  0  0  0  0  0  0  0  0  0
  -21.3700   -3.7310   26.0260 F   0  0  0  0  0  0  0  0  0  0  0  0
  -22.7420  -13.5790   21.1340 C   0  0  0  0  0  0  0  0  0  0  0  0
  -22.0080  -12.8930   22.0020 N   0  0  0  0  0  0  0  0  0  0  0  0
  -22.3090  -14.6000   20.6020 O   0  0  0  0  0  0  0  0  0  0  0  0
  -22.3700  -12.0670   22.4550 H   0  0  0  0  0  0  0  0  0  0  0  0
  -21.0700  -13.1980   22.2180 H   0  0  0  0  0  0  0  0  0  0  0  0
  -25.3860  -15.2310   20.3200 N   0  0  0  0  0  0  0  0  0  0  0  0
  -24.6190  -15.8890   20.4100 H   0  0  0  0  0  0  0  0  0  0  0  0
  -26.2430  -15.6610   19.9960 H   0  0  0  0  0  0  0  0  0  0  0  0
  -28.2230  -24.3320   20.1950 C   0  0  0  0  0  2  0  0  0  0  0  0
  -27.9870  -25.7680   22.3280 C   0  0  0  0  0  1  0  0  0  0  0  0
  -28.6090  -25.6390   20.9260 C   0  0  0  0  0  3  0  0  0  0  0  0
  -28.4220  -26.7960   20.1000 O   0  0  0  0  0  0  0  0  0  0  0  0
  -24.5820  -31.8800   23.2460 C   0  0  0  0  0  0  0  0  0  0  0  0
  -27.2210  -27.4650   20.1520 C   0  0  0  0  0  0  0  0  0  0  0  0
  -23.3650  -30.4770   21.6100 C   0  0  0  0  0  3  0  0  0  0  0  0
  -24.8120  -28.9360   20.1810 C   0  0  0  0  0  0  0  0  0  0  0  0
  -25.8850  -30.8480   21.3910 C   0  0  0  0  0  2  0  0  0  0  0  0
  -25.9710  -29.4770   20.7560 C   0  0  0  0  0  0  0  0  0  0  0  0
  -27.1780  -28.7480   20.7350 C   0  0  0  0  0  3  0  0  0  0  0  0
  -26.0500  -26.9260   19.5790 C   0  0  0  0  0  3  0  0  0  0  0  0
  -24.8460  -27.6580   19.5920 C   0  0  0  0  0  3  0  0  0  0  0  0
  -23.5650  -29.7900   20.2320 C   0  0  0  0  0  2  0  0  0  0  0  0
  -24.6290  -31.0830   22.1420 N   0  0  0  0  0  0  0  0  0  0  0  0
  -23.5040  -32.1520   23.7940 O   0  0  0  0  0  0  0  0  0  0  0  0
  -22.7200  -29.4570   22.5760 C   0  0  0  0  0  0  0  0  0  0  0  0
  -21.3970  -29.2730   22.4530 N   0  0  0  0  0  0  0  0  0  0  0  0
  -23.4090  -28.8340   23.3890 O   0  0  0  0  0  0  0  0  0  0  0  0
  -20.9040  -29.8280   21.7670 H   0  0  0  0  0  0  0  0  0  0  0  0
  -18.0260  -28.0730   22.9520 C   0  0  0  0  0  0  0  0  0  0  0  0
  -20.5830  -28.3350   23.2250 C   0  0  0  0  0  3  0  0  0  0  0  0
  -20.6890  -26.9030   22.6510 C   0  0  0  0  0  2  0  0  0  0  0  0
  -19.5880  -26.5760   21.6370 C   0  0  0  0  0  2  0  0  0  0  0  0
  -18.2060  -26.7220   22.2810 C   0  0  0  0  0  2  0  0  0  0  0  0
  -19.1430  -28.8370   23.3800 C   0  0  0  0  0  0  0  0  0  0  0  0
  -18.9220  -30.1020   23.9670 C   0  0  0  0  0  3  0  0  0  0  0  0
  -17.6160  -30.6030   24.1290 C   0  0  0  0  0  3  0  0  0  0  0  0
  -16.5130  -29.8340   23.7180 C   0  0  0  0  0  3  0  0  0  0  0  0
  -16.7190  -28.5710   23.1350 C   0  0  0  0  0  3  0  0  0  0  0  0
  -25.8730  -32.5090   23.8600 C   0  0  0  0  0  3  0  0  0  0  0  0
  -25.5700  -33.9070   24.1920 N   0  0  0  0  0  0  0  0  0  0  0  0
  -25.9050  -34.9580   23.4320 C   0  0  0  0  0  0  0  0  0  0  0  0
  -26.5730  -34.8530   22.3990 O   0  0  0  0  0  0  0  0  0  0  0  0
  -24.9770  -34.0640   24.9940 H   0  0  0  0  0  0  0  0  0  0  0  0
  -24.1820  -36.7540   23.0760 C   0  0  0  0  0  1  0  0  0  0  0  0
  -25.4210  -36.3480   23.8890 C   0  0  0  0  0  3  0  0  0  0  0  0
  -27.5610  -37.2230   24.7180 C   0  0  0  0  0  1  0  0  0  0  0  0
  -26.4570  -37.3980   23.7760 N   0  0  0  0  0  0  0  0  0  0  0  0
  -26.0550  -38.3180   23.9250 H   0  0  0  0  0  0  0  0  0  0  0  0
  -26.4000  -31.7340   25.1290 C   0  0  1  0  0  0  0  0  0  0  0  0
  -25.3160  -31.4950   26.2060 C   0  0  0  0  0  1  0  0  0  0  0  0
  -26.9780  -30.3580   24.7250 C   0  0  0  0  0  1  0  0  0  0  0  0
  -27.5600  -32.5250   25.7810 C   0  0  0  0  0  1  0  0  0  0  0  0
  1  3  2  0
  2 51  1  0
  2  1  1  0
  4  2  1  0
  5  1  1  0
  6  5  1  0
  6  7  1  0
  7  9  1  0
  7  8  1  0
 11 10  1  0
 11  7  1  0
 11 12  1  0
 13 21  1  0
 14 19  1  0
 15 16  1  0
 15 14  1  0
 17 16  1  0
 17 26  1  0
 17 18  1  0
 19 13  1  0
 19 18  1  0
 20 13  2  0
 21 12  1  0
 21 22  1  0
 23 24  2  0
 24 43  1  0
 25 24  1  0
 25 28  1  0
 26 23  1  0
 26 27  1  0
 27 25  2  0
 28 29  1  0
 29 30  2  0
 31 34  1  0
 31 30  1  0
 32 31  2  0
 33 32  1  0
 33 28  2  0
 34 35  1  0
 35 36  1  0
 36 37  2  0
 38 37  1  0
 38 42  1  0
 39 38  2  0
 40 35  2  0
 40 39  1  0
 41 40  1  0
 43 44  1  0
 44 47  1  0
 44 46  1  0
 45 43  2  0
 48 49  1  0
 48 23  1  0
 50 48  1  0
 51 53  1  0
 53 52  1  0
 54 56  1  0
 54 53  1  0
 55 66  2  0
 56 61  1  0
 57 65  1  0
 57 67  1  0
 58 64  1  0
 58 60  1  0
 59 65  1  0
 60 59  1  0
 61 60  2  0
 62 63  1  0
 62 56  2  0
 63 58  2  0
 64 57  1  0
 65 55  1  0
 67 69  2  0
 68 67  1  0
 70 68  1  0
 71 80  2  0
 71 76  1  0
 72 68  1  0
 72 76  1  0
 73 72  1  0
 74 75  1  0
 74 73  1  0
 75 71  1  0
 76 77  2  0
 77 78  1  0
 79 78  2  0
 80 79  1  0
 81 55  1  0
 81 82  1  0
 81 91  1  0
 82 85  1  0
 83 87  1  0
 83 82  1  0
 84 83  2  0
 87 86  1  0
 89 87  1  0
 89 90  1  0
 89 88  1  0
 91 94  1  1
 91 92  1  0
 93 91  1  0
M  ISO  4  13 100  21 100  53 101  54 101
M  END
>  <TORSDO>  (34) 
F 23

>  <SCORE>  (34) 
-13.043

>  <name>  (34) 
33

>  <ligand_id>  (34) 
33

>  <original_smiles>  (34) 
[H]c1c([H])c([H])c2c(c1[H])C([H])([H])C([H])([H])C([H])([H])C2([H])N([H])C(=O)C1([H])N(C(=O)C([H])(N([H])C(=O)C([H])(N([H])C([H])([H])[H])C([H])([H])[H])C(C([H])([H])[H])(C([H])([H])[H])C([H])([H])[H])C([H])([H])c2c([H])c(OC([H])(C([H])([H])[H])C([H])([H])N([H])C(=O)C([H])([H])C([H])([H])[N+]([H])([H])C([H])(C([H])([H])[H])C([H])([H])N([H])C(=O)N3C([H])([H])C([H])([H])C([H])([H])C([H])(n4nc(-c5c([H])c([H])c(Oc6c([H])c([H])c(F)c([H])c6F)c([H])c5[H])c(C(=O)N([H])[H])c4N([H])[H])C3([H])[H])c([H])c([H])c2C1([H])[H]

>  <smiles>  (34) 
[H]c1c([H])c([H])c2c(c1[H])C([H])([H])C([H])([H])C([H])([H])C2([H])N([H])C(=O)C1([H])N(C(=O)C([H])(N([H])C(=O)C([H])(N([H])C([H])([H])[H])C([H])([H])[H])C(C([H])([H])[H])(C([H])([H])[H])C([H])([H])[H])C([H])([H])c2c([H])c(OC([H])(C([H])([H])[H])C([H])([H])N([H])C(=O)C([H])([H])C([H])([H])[N+]([H])([H])C([H])(C([H])([H])[H])C([H])([H])N([H])C(=O)N3C([H])([H])C([H])([H])C([H])([H])C([H])(n4nc(-c5c([H])c([H])c(Oc6c([H])c([H])c(F)c([H])c6F)c([H])c5[H])c(C(=O)N([H])[H])c4N([H])[H])C3([H])[H])c([H])c([H])c2C1([H])[H]

$$$$
34:0:0
     RDKit          3D

 95103  0  0  1  0  0  0  0  0999 V2000
  -29.1670  -18.6940   21.2310 C   0  0  0  0  0  3  0  0  0  0  0  0
  -30.3530  -17.9690   20.9610 C   0  0  0  0  0  0  0  0  0  0  0  0
  -29.9060  -20.4670   19.9180 C   0  0  0  0  0  0  0  0  0  0  0  0
  -31.0760  -19.7060   19.5940 C   0  0  0  0  0  0  0  0  0  0  0  0
  -28.9400  -19.9280   20.7090 N   0  0  0  0  0  0  0  0  0  0  0  0
  -31.2970  -18.4780   20.1380 N   0  0  0  0  0  0  0  0  0  0  0  0
  -32.4360  -19.1550   17.5130 C   0  0  0  0  0  1  0  0  0  0  0  0
  -33.4640  -20.5320   19.4010 C   0  0  0  0  0  1  0  0  0  0  0  0
  -32.1800  -20.1740   18.6370 C   0  0  0  0  0  3  0  0  0  0  0  0
  -28.6870  -21.6980   18.0830 C   0  0  0  0  0  1  0  0  0  0  0  0
  -29.5880  -21.8590   19.3190 C   0  0  0  0  0  3  0  0  0  0  0  0
  -29.0270  -22.9000   20.3330 C   0  0  0  0  0  2  0  0  0  0  0  0
  -29.0810  -24.3840   19.8470 C   0  0  0  0  0  2  0  0  0  0  0  0
  -29.0700  -25.5050   22.1580 C   0  0  0  0  0  1  0  0  0  0  0  0
  -28.3990  -25.4220   20.7800 C   0  0  0  0  0  3  0  0  0  0  0  0
  -28.4660  -26.7450   20.2080 O   0  0  0  0  0  0  0  0  0  0  0  0
  -24.5650  -31.9040   23.2240 C   0  0  0  0  0  0  0  0  0  0  0  0
  -27.2920  -27.4720   20.2030 C   0  0  0  0  0  0  0  0  0  0  0  0
  -23.3940  -30.4890   21.5680 C   0  0  0  0  0  3  0  0  0  0  0  0
  -24.8830  -28.9580   20.1710 C   0  0  0  0  0  0  0  0  0  0  0  0
  -25.9180  -30.8700   21.4020 C   0  0  0  0  0  2  0  0  0  0  0  0
  -26.0280  -29.4960   20.7710 C   0  0  0  0  0  0  0  0  0  0  0  0
  -27.2380  -28.7630   20.7790 C   0  0  0  0  0  3  0  0  0  0  0  0
  -26.1320  -26.9490   19.5920 C   0  0  0  0  0  3  0  0  0  0  0  0
  -24.9300  -27.6830   19.5760 C   0  0  0  0  0  3  0  0  0  0  0  0
  -23.6290  -29.8030   20.1950 C   0  0  0  0  0  2  0  0  0  0  0  0
  -24.6430  -31.1030   22.1240 N   0  0  0  0  0  0  0  0  0  0  0  0
  -23.4740  -32.1690   23.7480 O   0  0  0  0  0  0  0  0  0  0  0  0
  -22.7370  -29.4660   22.5230 C   0  0  0  0  0  0  0  0  0  0  0  0
  -21.4130  -29.2840   22.3850 N   0  0  0  0  0  0  0  0  0  0  0  0
  -23.4150  -28.8390   23.3400 O   0  0  0  0  0  0  0  0  0  0  0  0
  -20.9280  -29.8430   21.6980 H   0  0  0  0  0  0  0  0  0  0  0  0
  -18.0320  -28.1050   22.8700 C   0  0  0  0  0  0  0  0  0  0  0  0
  -20.5910  -28.3430   23.1450 C   0  0  0  0  0  3  0  0  0  0  0  0
  -20.6850  -26.9180   22.5530 C   0  0  0  0  0  2  0  0  0  0  0  0
  -19.5810  -26.6130   21.5360 C   0  0  0  0  0  2  0  0  0  0  0  0
  -18.2000  -26.7610   22.1820 C   0  0  0  0  0  2  0  0  0  0  0  0
  -19.1550  -28.8550   23.3080 C   0  0  0  0  0  0  0  0  0  0  0  0
  -18.9450  -30.1140   23.9100 C   0  0  0  0  0  3  0  0  0  0  0  0
  -17.6450  -30.6230   24.0800 C   0  0  0  0  0  3  0  0  0  0  0  0
  -16.5350  -29.8690   23.6600 C   0  0  0  0  0  3  0  0  0  0  0  0
  -16.7290  -28.6120   23.0610 C   0  0  0  0  0  3  0  0  0  0  0  0
  -25.8360  -32.5470   23.8620 C   0  0  0  0  0  3  0  0  0  0  0  0
  -25.5160  -33.9440   24.1790 N   0  0  0  0  0  0  0  0  0  0  0  0
  -25.8590  -34.9940   23.4200 C   0  0  0  0  0  0  0  0  0  0  0  0
  -26.5490  -34.8870   22.4020 O   0  0  0  0  0  0  0  0  0  0  0  0
  -24.9080  -34.1020   24.9690 H   0  0  0  0  0  0  0  0  0  0  0  0
  -24.1350  -36.7790   23.0100 C   0  0  0  0  0  1  0  0  0  0  0  0
  -25.3540  -36.3820   23.8580 C   0  0  0  0  0  3  0  0  0  0  0  0
  -27.4590  -37.2780   24.7500 C   0  0  0  0  0  1  0  0  0  0  0  0
  -26.3860  -37.4380   23.7720 N   0  0  0  0  0  0  0  0  0  0  0  0
  -25.9730  -38.3570   23.9040 H   0  0  0  0  0  0  0  0  0  0  0  0
  -26.3410  -31.7840   25.1490 C   0  0  1  0  0  0  0  0  0  0  0  0
  -25.2340  -31.5380   26.2000 C   0  0  0  0  0  1  0  0  0  0  0  0
  -26.9430  -30.4110   24.7660 C   0  0  0  0  0  1  0  0  0  0  0  0
  -27.4740  -32.5900   25.8270 C   0  0  0  0  0  1  0  0  0  0  0  0
  -30.6950  -16.6550   21.6760 C   0  0  0  0  0  2  0  0  0  0  0  0
  -30.6920  -14.5130   20.3550 C   0  0  0  0  0  0  0  0  0  0  0  0
  -30.3390  -12.4170   19.0860 C   0  0  0  0  0  2  0  0  0  0  0  0
  -29.3580  -12.6540   17.9220 C   0  0  0  0  0  2  0  0  0  0  0  0
  -27.8980  -12.4990   18.3940 C   0  0  0  0  0  2  0  0  0  0  0  0
  -27.6030  -13.3000   19.6910 C   0  0  0  0  0  3  0  0  0  0  0  0
  -28.6870  -13.0300   20.7570 C   0  0  0  0  0  2  0  0  0  0  0  0
  -29.9950  -13.3580   20.1630 N   0  0  0  0  0  0  0  0  0  0  0  0
  -31.7770  -14.7360   19.8140 O   0  0  0  0  0  0  0  0  0  0  0  0
  -30.0950  -15.4220   21.1440 N   0  0  0  0  0  0  0  0  0  0  0  0
  -29.1930  -15.1660   21.5120 H   0  0  0  0  0  0  0  0  0  0  0  0
  -25.2200  -13.8990   20.4590 C   0  0  0  0  0  0  0  0  0  0  0  0
  -24.1620  -13.1210   20.8460 C   0  0  0  0  0  0  0  0  0  0  0  0
  -24.6240  -11.7710   20.7930 C   0  0  0  0  0  0  0  0  0  0  0  0
  -26.2610  -13.0200   20.1970 N   0  0  0  0  0  0  0  0  0  0  0  0
  -25.9070  -11.7360   20.4550 N   0  0  0  0  0  0  0  0  0  0  0  0
  -23.9050  -10.5060   20.9900 C   0  0  0  0  0  0  0  0  0  0  0  0
  -24.3470   -9.5430   21.9240 C   0  0  0  0  0  3  0  0  0  0  0  0
  -23.6290   -8.3420   22.1080 C   0  0  0  0  0  3  0  0  0  0  0  0
  -22.4550   -8.0950   21.3570 C   0  0  0  0  0  0  0  0  0  0  0  0
  -22.0320   -9.0460   20.4120 C   0  0  0  0  0  3  0  0  0  0  0  0
  -22.7500  -10.2400   20.2270 C   0  0  0  0  0  3  0  0  0  0  0  0
  -21.7070   -6.9460   21.4500 O   0  0  0  0  0  0  0  0  0  0  0  0
  -21.6510   -6.2160   22.6110 C   0  0  0  0  0  0  0  0  0  0  0  0
  -21.1870   -6.7770   23.8210 C   0  0  0  0  0  3  0  0  0  0  0  0
  -21.0800   -5.9720   24.9740 C   0  0  0  0  0  3  0  0  0  0  0  0
  -21.4250   -4.6090   24.9160 C   0  0  0  0  0  0  0  0  0  0  0  0
  -21.8810   -4.0480   23.7100 C   0  0  0  0  0  3  0  0  0  0  0  0
  -21.9910   -4.8500   22.5610 C   0  0  0  0  0  0  0  0  0  0  0  0
  -22.4110   -4.2990   21.3950 F   0  0  0  0  0  0  0  0  0  0  0  0
  -21.3140   -3.8330   26.0200 F   0  0  0  0  0  0  0  0  0  0  0  0
  -22.7700  -13.5940   21.1550 C   0  0  0  0  0  0  0  0  0  0  0  0
  -22.0610  -12.8830   22.0250 N   0  0  0  0  0  0  0  0  0  0  0  0
  -22.3210  -14.6270   20.6600 O   0  0  0  0  0  0  0  0  0  0  0  0
  -22.4380  -12.0460   22.4450 H   0  0  0  0  0  0  0  0  0  0  0  0
  -21.1270  -13.1790   22.2740 H   0  0  0  0  0  0  0  0  0  0  0  0
  -25.3800  -15.2710   20.2890 N   0  0  0  0  0  0  0  0  0  0  0  0
  -24.6130  -15.9230   20.4150 H   0  0  0  0  0  0  0  0  0  0  0  0
  -26.2210  -15.7110   19.9410 H   0  0  0  0  0  0  0  0  0  0  0  0
  2  1  1  0
  2 57  1  0
  3  5  1  0
  4  3  2  0
  4  6  1  0
  5  1  2  0
  6  2  2  0
  7  9  1  0
  9  8  1  0
  9  4  1  0
 11 10  1  0
 11  3  1  0
 11 12  1  0
 13 12  1  0
 13 15  1  0
 15 14  1  0
 16 15  1  0
 17 28  2  0
 18 16  1  0
 18 23  1  0
 19 27  1  0
 19 29  1  0
 20 26  1  0
 20 22  1  0
 21 27  1  0
 22 23  2  0
 22 21  1  0
 24 18  2  0
 25 24  1  0
 25 20  2  0
 26 19  1  0
 27 17  1  0
 29 31  2  0
 30 29  1  0
 32 30  1  0
 33 42  2  0
 33 38  1  0
 34 30  1  0
 34 38  1  0
 35 34  1  0
 36 37  1  0
 36 35  1  0
 37 33  1  0
 38 39  2  0
 39 40  1  0
 41 40  2  0
 42 41  1  0
 43 17  1  0
 43 44  1  0
 43 53  1  0
 44 47  1  0
 45 49  1  0
 45 44  1  0
 46 45  2  0
 49 48  1  0
 51 49  1  0
 51 52  1  0
 51 50  1  0
 53 56  1  1
 53 54  1  0
 55 53  1  0
 58 66  1  0
 59 64  1  0
 60 61  1  0
 60 59  1  0
 62 61  1  0
 62 71  1  0
 62 63  1  0
 64 58  1  0
 64 63  1  0
 65 58  2  0
 66 67  1  0
 66 57  1  0
 68 69  2  0
 69 88  1  0
 70 69  1  0
 70 73  1  0
 71 72  1  0
 71 68  1  0
 72 70  2  0
 73 74  1  0
 74 75  2  0
 76 79  1  0
 76 75  1  0
 77 76  2  0
 78 77  1  0
 78 73  2  0
 79 80  1  0
 80 81  1  0
 81 82  2  0
 83 82  1  0
 83 87  1  0
 84 83  2  0
 85 80  2  0
 85 84  1  0
 86 85  1  0
 88 89  1  0
 89 92  1  0
 89 91  1  0
 90 88  2  0
 93 94  1  0
 93 68  1  0
 95 93  1  0
M  ISO  4  15 101  16 101  58 100  66 100
M  END
>  <TORSDO>  (35) 
F 22

>  <SCORE>  (35) 
-13.153

>  <name>  (35) 
34

>  <ligand_id>  (35) 
34

>  <original_smiles>  (35) 
[H]c1nc(C([H])(C([H])([H])[H])C([H])([H])C([H])([H])C([H])(Oc2c([H])c([H])c3c(c2[H])C([H])([H])N(C(=O)C([H])(N([H])C(=O)C([H])(N([H])C([H])([H])[H])C([H])([H])[H])C(C([H])([H])[H])(C([H])([H])[H])C([H])([H])[H])C([H])(C(=O)N([H])C2([H])c4c([H])c([H])c([H])c([H])c4C([H])([H])C([H])([H])C2([H])[H])C3([H])[H])C([H])([H])[H])c(C([H])(C([H])([H])[H])C([H])([H])[H])nc1C([H])([H])N([H])C(=O)N1C([H])([H])C([H])([H])C([H])([H])C([H])(n2nc(-c3c([H])c([H])c(Oc4c([H])c([H])c(F)c([H])c4F)c([H])c3[H])c(C(=O)N([H])[H])c2N([H])[H])C1([H])[H]

>  <smiles>  (35) 
[H]c1nc(C([H])(C([H])([H])[H])C([H])([H])C([H])([H])C([H])(Oc2c([H])c([H])c3c(c2[H])C([H])([H])N(C(=O)C([H])(N([H])C(=O)C([H])(N([H])C([H])([H])[H])C([H])([H])[H])C(C([H])([H])[H])(C([H])([H])[H])C([H])([H])[H])C([H])(C(=O)N([H])C2([H])c4c([H])c([H])c([H])c([H])c4C([H])([H])C([H])([H])C2([H])[H])C3([H])[H])C([H])([H])[H])c(C([H])(C([H])([H])[H])C([H])([H])[H])nc1C([H])([H])N([H])C(=O)N1C([H])([H])C([H])([H])C([H])([H])C([H])(n2nc(-c3c([H])c([H])c(Oc4c([H])c([H])c(F)c([H])c4F)c([H])c3[H])c(C(=O)N([H])[H])c2N([H])[H])C1([H])[H]

$$$$
35:0:0
     RDKit          3D

 97103  0  0  1  0  0  0  0  0999 V2000
  -28.2200  -28.7480   22.6040 C   0  0  0  0  0  3  0  0  0  0  0  0
  -27.4590  -27.2930   23.1680 C   0  0  0  0  0  3  0  0  0  0  0  0
  -28.1570  -29.4730   21.0160 C   0  0  0  0  0  2  0  0  0  0  0  0
  -25.9460  -26.5770   20.8520 C   0  0  0  0  0  1  0  0  0  0  0  0
  -26.5660  -26.0860   22.3390 C   0  0  0  0  0  3  0  0  0  0  0  0
  -27.1230  -28.7490   19.7500 C   0  0  0  0  0  2  0  0  0  0  0  0
  -29.2680  -29.5800   18.3980 C   0  0  0  0  0  1  0  0  0  0  0  0
  -28.0990  -28.5790   18.5200 C   0  0  0  0  0  3  0  0  0  0  0  0
  -28.6890  -27.2610   18.7220 O   0  0  0  0  0  0  0  0  0  0  0  0
  -24.5770  -31.8310   23.2860 C   0  0  0  0  0  0  0  0  0  0  0  0
  -27.7240  -26.6280   19.3350 C   0  0  0  0  0  3  0  0  0  0  0  0
  -23.4050  -30.4180   21.6430 C   0  0  0  0  0  3  0  0  0  0  0  0
  -24.8220  -28.6310   20.3930 C   0  0  0  0  0  0  0  0  0  0  0  0
  -25.8870  -30.2520   21.8990 C   0  0  0  0  0  2  0  0  0  0  0  0
  -26.0210  -28.6200   21.6090 C   0  0  0  0  0  2  0  0  0  0  0  0
  -28.0290  -27.1620   20.8700 C   0  0  0  0  0  1  0  0  0  0  0  0
  -26.2590  -26.8350   18.5230 C   0  0  0  0  0  2  0  0  0  0  0  0
  -24.9820  -27.7760   19.0060 C   0  0  0  0  0  3  0  0  0  0  0  0
  -23.7100  -29.6920   20.3210 C   0  0  0  0  0  2  0  0  0  0  0  0
  -24.6350  -30.8870   22.3000 N   0  0  0  0  0  0  0  0  0  0  0  0
  -23.4860  -32.2170   23.7230 O   0  0  0  0  0  0  0  0  0  0  0  0
  -22.7010  -29.4220   22.5620 C   0  0  0  0  0  0  0  0  0  0  0  0
  -21.3830  -29.2880   22.3950 N   0  0  0  0  0  0  0  0  0  0  0  0
  -23.3460  -28.7700   23.3870 O   0  0  0  0  0  0  0  0  0  0  0  0
  -20.9140  -29.8620   21.7080 H   0  0  0  0  0  0  0  0  0  0  0  0
  -18.0090  -28.1350   22.8440 C   0  0  0  0  0  0  0  0  0  0  0  0
  -20.5570  -28.3490   23.1420 C   0  0  0  0  0  3  0  0  0  0  0  0
  -20.6590  -26.9280   22.5400 C   0  0  0  0  0  2  0  0  0  0  0  0
  -19.5550  -26.6240   21.5220 C   0  0  0  0  0  2  0  0  0  0  0  0
  -18.1720  -26.7870   22.1620 C   0  0  0  0  0  2  0  0  0  0  0  0
  -19.1330  -28.8750   23.2900 C   0  0  0  0  0  0  0  0  0  0  0  0
  -18.9340  -30.1390   23.8870 C   0  0  0  0  0  3  0  0  0  0  0  0
  -17.6390  -30.6580   24.0540 C   0  0  0  0  0  3  0  0  0  0  0  0
  -16.5250  -29.9120   23.6300 C   0  0  0  0  0  3  0  0  0  0  0  0
  -16.7130  -28.6550   23.0260 C   0  0  0  0  0  3  0  0  0  0  0  0
  -25.8630  -32.4750   23.8960 C   0  0  0  0  0  3  0  0  0  0  0  0
  -25.5470  -33.8700   24.2320 N   0  0  0  0  0  0  0  0  0  0  0  0
  -25.8940  -34.9440   23.5120 C   0  0  0  0  0  0  0  0  0  0  0  0
  -26.5700  -34.8800   22.4820 O   0  0  0  0  0  0  0  0  0  0  0  0
  -24.9240  -34.0090   25.0130 H   0  0  0  0  0  0  0  0  0  0  0  0
  -24.1430  -36.7390   23.2590 C   0  0  0  0  0  1  0  0  0  0  0  0
  -25.4060  -36.3130   24.0260 C   0  0  0  0  0  3  0  0  0  0  0  0
  -27.5520  -37.1790   24.8400 C   0  0  0  0  0  1  0  0  0  0  0  0
  -26.4260  -37.3790   23.9340 N   0  0  0  0  0  0  0  0  0  0  0  0
  -26.0170  -38.2850   24.1440 H   0  0  0  0  0  0  0  0  0  0  0  0
  -26.3990  -31.7280   25.1860 C   0  0  1  0  0  0  0  0  0  0  0  0
  -25.3010  -31.4530   26.2310 C   0  0  0  0  0  1  0  0  0  0  0  0
  -27.0470  -30.3810   24.8770 C   0  0  0  0  0  1  0  0  0  0  0  0
  -27.5360  -32.5550   25.8330 C   0  0  0  0  0  1  0  0  0  0  0  0
  -27.1850  -24.3760   22.5180 C   0  0  0  0  0  2  0  0  0  0  0  0
  -27.2620  -22.8780   21.6810 N   0  0  0  0  0  4  0  0  0  0  0  0
  -26.3420  -22.4820   21.7820 H   0  0  0  0  0  0  0  0  0  0  0  0
  -27.3070  -23.1700   20.7180 H   0  0  0  0  0  0  0  0  0  0  0  0
  -28.3600  -21.5490   21.7060 C   0  0  0  0  0  2  0  0  0  0  0  0
  -28.2700  -19.2030   23.0200 C   0  0  0  0  0  1  0  0  0  0  0  0
  -26.8790  -19.3690   20.9710 C   0  0  0  0  0  1  0  0  0  0  0  0
  -28.2750  -19.6640   21.5520 C   0  0  1  0  0  0  0  0  0  0  0  0
  -29.4510  -18.6250   19.3440 C   0  0  0  0  0  1  0  0  0  0  0  0
  -29.3850  -18.3210   20.8520 C   0  0  0  0  0  3  0  0  0  0  0  0
  -30.2580  -15.3770   20.5870 C   0  0  0  0  0  0  0  0  0  0  0  0
  -30.4210  -12.9160   19.5940 C   0  0  0  0  0  2  0  0  0  0  0  0
  -29.5420  -12.6320   18.3360 C   0  0  0  0  0  2  0  0  0  0  0  0
  -28.0890  -12.3170   18.7350 C   0  0  0  0  0  2  0  0  0  0  0  0
  -27.5990  -13.2720   19.8470 C   0  0  0  0  0  3  0  0  0  0  0  0
  -28.5980  -13.4080   21.0140 C   0  0  0  0  0  2  0  0  0  0  0  0
  -29.8030  -14.0200   20.4520 N   0  0  0  0  0  0  0  0  0  0  0  0
  -31.4600  -15.4560   20.2680 O   0  0  0  0  0  0  0  0  0  0  0  0
  -29.3980  -16.5930   20.9160 N   0  0  0  0  0  0  0  0  0  0  0  0
  -28.4860  -16.2580   21.1920 H   0  0  0  0  0  0  0  0  0  0  0  0
  -25.2280  -13.8220   20.5780 C   0  0  0  0  0  0  0  0  0  0  0  0
  -24.1620  -13.0420   20.9260 C   0  0  0  0  0  0  0  0  0  0  0  0
  -24.6260  -11.6910   20.8730 C   0  0  0  0  0  0  0  0  0  0  0  0
  -26.2660  -12.9470   20.3230 N   0  0  0  0  0  0  0  0  0  0  0  0
  -25.9190  -11.6580   20.5730 N   0  0  0  0  0  0  0  0  0  0  0  0
  -23.8990  -10.4290   21.0410 C   0  0  0  0  0  0  0  0  0  0  0  0
  -24.3590   -9.4220   21.9190 C   0  0  0  0  0  3  0  0  0  0  0  0
  -23.6290   -8.2250   22.0750 C   0  0  0  0  0  3  0  0  0  0  0  0
  -22.4270   -8.0280   21.3550 C   0  0  0  0  0  0  0  0  0  0  0  0
  -21.9890   -9.0230   20.4640 C   0  0  0  0  0  3  0  0  0  0  0  0
  -22.7170  -10.2120   20.3050 C   0  0  0  0  0  3  0  0  0  0  0  0
  -21.6660   -6.8870   21.4240 O   0  0  0  0  0  0  0  0  0  0  0  0
  -21.6850   -6.0720   22.5270 C   0  0  0  0  0  0  0  0  0  0  0  0
  -21.4000   -6.5630   23.8200 C   0  0  0  0  0  3  0  0  0  0  0  0
  -21.3660   -5.6790   24.9180 C   0  0  0  0  0  3  0  0  0  0  0  0
  -21.6060   -4.3060   24.7230 C   0  0  0  0  0  0  0  0  0  0  0  0
  -21.8820   -3.8130   23.4350 C   0  0  0  0  0  3  0  0  0  0  0  0
  -21.9180   -4.6940   22.3400 C   0  0  0  0  0  0  0  0  0  0  0  0
  -22.1660   -4.2130   21.0980 F   0  0  0  0  0  0  0  0  0  0  0  0
  -21.5620   -3.4540   25.7740 F   0  0  0  0  0  0  0  0  0  0  0  0
  -22.7660  -13.5200   21.1900 C   0  0  0  0  0  0  0  0  0  0  0  0
  -22.0340  -12.8190   22.0460 N   0  0  0  0  0  0  0  0  0  0  0  0
  -22.3330  -14.5510   20.6760 O   0  0  0  0  0  0  0  0  0  0  0  0
  -22.3940  -11.9820   22.4820 H   0  0  0  0  0  0  0  0  0  0  0  0
  -21.0950  -13.1210   22.2680 H   0  0  0  0  0  0  0  0  0  0  0  0
  -25.4020  -15.1960   20.4240 N   0  0  0  0  0  0  0  0  0  0  0  0
  -24.6600  -15.8650   20.5900 H   0  0  0  0  0  0  0  0  0  0  0  0
  -26.2510  -15.6200   20.0760 H   0  0  0  0  0  0  0  0  0  0  0  0
  1  2  2  0
  3  1  1  0
  5  4  1  0
  5 50  1  0
  5  2  1  0
  6  3  1  0
  8  7  1  0
  8  9  1  0
  8  6  1  0
  9 11  1  0
 10 21  2  0
 11 16  1  0
 12 20  1  0
 12 22  1  0
 13 15  1  0
 14 20  1  0
 15 14  1  0
 17 18  1  0
 17 11  1  0
 18 13  2  0
 19 13  1  0
 19 12  1  0
 20 10  1  0
 22 24  2  0
 23 22  1  0
 25 23  1  0
 26 35  2  0
 26 31  1  0
 27 23  1  0
 27 31  1  0
 28 27  1  0
 29 30  1  0
 29 28  1  0
 30 26  1  0
 31 32  2  0
 32 33  1  0
 34 33  2  0
 35 34  1  0
 36 10  1  0
 36 37  1  0
 36 46  1  0
 37 40  1  0
 38 42  1  0
 38 37  1  0
 39 38  2  0
 42 41  1  0
 44 42  1  0
 44 45  1  0
 44 43  1  0
 46 49  1  1
 46 47  1  0
 48 46  1  0
 51 54  1  0
 51 52  1  0
 51 50  1  0
 53 51  1  0
 57 56  1  6
 57 54  1  0
 57 55  1  0
 59 58  1  0
 59 68  1  0
 59 57  1  0
 60 68  1  0
 61 66  1  0
 62 63  1  0
 62 61  1  0
 64 63  1  0
 64 73  1  0
 64 65  1  0
 66 60  1  0
 66 65  1  0
 67 60  2  0
 68 69  1  0
 70 71  2  0
 71 90  1  0
 72 71  1  0
 72 75  1  0
 73 74  1  0
 73 70  1  0
 74 72  2  0
 75 76  1  0
 76 77  2  0
 78 81  1  0
 78 77  1  0
 79 78  2  0
 80 79  1  0
 80 75  2  0
 81 82  1  0
 82 83  1  0
 83 84  2  0
 85 84  1  0
 85 89  1  0
 86 85  2  0
 87 82  2  0
 87 86  1  0
 88 87  1  0
 90 91  1  0
 91 94  1  0
 91 93  1  0
 92 90  2  0
 95 70  1  0
 95 96  1  0
 97 95  1  0
M  ISO  4   8 101   9 101  60 100  68 100
M  END
>  <TORSDO>  (36) 
F 22

>  <SCORE>  (36) 
2.302

>  <name>  (36) 
35

>  <ligand_id>  (36) 
35

>  <original_smiles>  (36) 
[H]c1c([H])c([H])c2c(c1[H])C([H])([H])C([H])([H])C([H])([H])C2([H])N([H])C(=O)C1([H])N(C(=O)C([H])(N([H])C(=O)C([H])(N([H])C([H])([H])[H])C([H])([H])[H])C(C([H])([H])[H])(C([H])([H])[H])C([H])([H])[H])C([H])([H])c2c([H])c(OC([H])(c3c([H])c([H])c([H])c(C([H])([H])[N+]([H])([H])C([H])([H])C(C([H])([H])[H])(C([H])([H])[H])C([H])(N([H])C(=O)N4C([H])([H])C([H])([H])C([H])([H])C([H])(n5nc(-c6c([H])c([H])c(Oc7c([H])c([H])c(F)c([H])c7F)c([H])c6[H])c(C(=O)N([H])[H])c5N([H])[H])C4([H])[H])C([H])([H])[H])c3[H])C([H])([H])[H])c([H])c([H])c2C1([H])[H]

>  <smiles>  (36) 
[H]c1c([H])c([H])c2c(c1[H])C([H])([H])C([H])([H])C([H])([H])C2([H])N([H])C(=O)C1([H])N(C(=O)C([H])(N([H])C(=O)C([H])(N([H])C([H])([H])[H])C([H])([H])[H])C(C([H])([H])[H])(C([H])([H])[H])C([H])([H])[H])C([H])([H])c2c([H])c(OC([H])(c3c([H])c([H])c([H])c(C([H])([H])[N+]([H])([H])C([H])([H])C(C([H])([H])[H])(C([H])([H])[H])C([H])(N([H])C(=O)N4C([H])([H])C([H])([H])C([H])([H])C([H])(n5nc(-c6c([H])c([H])c(Oc7c([H])c([H])c(F)c([H])c7F)c([H])c6[H])c(C(=O)N([H])[H])c5N([H])[H])C4([H])[H])C([H])([H])[H])c3[H])C([H])([H])[H])c([H])c([H])c2C1([H])[H]

$$$$
36:0:0
     RDKit          3D

 96104  0  0  1  0  0  0  0  0999 V2000
  -29.8760  -20.0690   20.4650 C   0  0  0  0  0  3  0  0  0  0  0  0
  -29.1000  -21.1670   19.9260 C   0  0  0  0  0  0  0  0  0  0  0  0
  -27.8890  -20.7690   19.2790 C   0  0  0  0  0  0  0  0  0  0  0  0
  -29.4890  -18.6880   20.3210 C   0  0  0  0  0  0  0  0  0  0  0  0
  -27.5720  -19.3710   19.1880 C   0  0  0  0  0  0  0  0  0  0  0  0
  -28.3430  -18.3820   19.6960 N   0  0  0  0  0  0  0  0  0  0  0  0
  -25.2930  -19.4990   18.3930 C   0  0  0  0  0  1  0  0  0  0  0  0
  -26.5240  -18.8100   18.4910 O   0  0  0  0  0  0  0  0  0  0  0  0
  -26.1690  -22.4300   19.3500 C   0  0  0  0  0  1  0  0  0  0  0  0
  -27.1500  -21.7120   18.5960 O   0  0  0  0  0  0  0  0  0  0  0  0
  -30.3550  -17.4540   20.8010 C   0  0  0  0  0  2  0  0  0  0  0  0
  -30.6380  -14.9090   20.3040 C   0  0  0  0  0  0  0  0  0  0  0  0
  -30.3890  -12.7090   19.1550 C   0  0  0  0  0  2  0  0  0  0  0  0
  -29.4100  -12.8700   17.9740 C   0  0  0  0  0  2  0  0  0  0  0  0
  -27.9510  -12.6890   18.4390 C   0  0  0  0  0  2  0  0  0  0  0  0
  -27.6290  -13.4980   19.7240 C   0  0  0  0  0  3  0  0  0  0  0  0
  -28.7230  -13.3220   20.7970 C   0  0  0  0  0  2  0  0  0  0  0  0
  -30.0000  -13.7000   20.1800 N   0  0  0  0  0  0  0  0  0  0  0  0
  -31.8250  -15.0200   19.9830 O   0  0  0  0  0  0  0  0  0  0  0  0
  -29.8840  -16.0260   20.5930 N   0  0  0  0  0  0  0  0  0  0  0  0
  -28.8910  -15.8980   20.6930 H   0  0  0  0  0  0  0  0  0  0  0  0
  -25.2570  -14.0570   20.5270 C   0  0  0  0  0  0  0  0  0  0  0  0
  -24.2050  -13.2660   20.9060 C   0  0  0  0  0  0  0  0  0  0  0  0
  -24.6770  -11.9200   20.8310 C   0  0  0  0  0  0  0  0  0  0  0  0
  -26.3000  -13.1910   20.2430 N   0  0  0  0  0  0  0  0  0  0  0  0
  -25.9610  -11.9000   20.4910 N   0  0  0  0  0  0  0  0  0  0  0  0
  -23.9640  -10.6480   21.0040 C   0  0  0  0  0  0  0  0  0  0  0  0
  -24.3940   -9.6830   21.9420 C   0  0  0  0  0  3  0  0  0  0  0  0
  -23.6840   -8.4740   22.1010 C   0  0  0  0  0  3  0  0  0  0  0  0
  -22.5270   -8.2220   21.3240 C   0  0  0  0  0  0  0  0  0  0  0  0
  -22.1170   -9.1760   20.3770 C   0  0  0  0  0  3  0  0  0  0  0  0
  -22.8270  -10.3750   20.2140 C   0  0  0  0  0  3  0  0  0  0  0  0
  -21.7830   -7.0690   21.3990 O   0  0  0  0  0  0  0  0  0  0  0  0
  -21.7030   -6.3370   22.5570 C   0  0  0  0  0  0  0  0  0  0  0  0
  -21.1830   -6.8870   23.7510 C   0  0  0  0  0  3  0  0  0  0  0  0
  -21.0520   -6.0790   24.8980 C   0  0  0  0  0  3  0  0  0  0  0  0
  -21.4270   -4.7230   24.8530 C   0  0  0  0  0  0  0  0  0  0  0  0
  -21.9350   -4.1720   23.6640 C   0  0  0  0  0  3  0  0  0  0  0  0
  -22.0700   -4.9770   22.5180 C   0  0  0  0  0  0  0  0  0  0  0  0
  -22.5420   -4.4360   21.3700 F   0  0  0  0  0  0  0  0  0  0  0  0
  -21.2920   -3.9450   25.9530 F   0  0  0  0  0  0  0  0  0  0  0  0
  -22.8100  -13.7250   21.2170 C   0  0  0  0  0  0  0  0  0  0  0  0
  -22.0940  -12.9910   22.0640 N   0  0  0  0  0  0  0  0  0  0  0  0
  -22.3630  -14.7700   20.7470 O   0  0  0  0  0  0  0  0  0  0  0  0
  -22.4700  -12.1470   22.4700 H   0  0  0  0  0  0  0  0  0  0  0  0
  -21.1600  -13.2830   22.3130 H   0  0  0  0  0  0  0  0  0  0  0  0
  -25.4070  -15.4320   20.3790 N   0  0  0  0  0  0  0  0  0  0  0  0
  -24.6340  -16.0720   20.5270 H   0  0  0  0  0  0  0  0  0  0  0  0
  -26.2330  -15.8920   20.0160 H   0  0  0  0  0  0  0  0  0  0  0  0
  -29.6540  -22.6680   19.7730 C   0  0  0  0  0  3  0  0  0  0  0  0
  -31.2060  -22.6750   19.9380 C   0  0  0  0  0  2  0  0  0  0  0  0
  -33.4980  -23.5850   19.2510 C   0  0  0  0  0  1  0  0  0  0  0  0
  -31.9850  -23.8500   19.3120 C   0  0  0  0  0  2  0  0  0  0  0  0
  -28.9780  -23.9410   20.5240 C   0  0  0  0  0  2  0  0  0  0  0  0
  -28.7890  -25.3190   19.6940 C   0  0  0  0  0  2  0  0  0  0  0  0
  -28.6250  -26.6650   20.3280 O   0  0  0  0  0  0  0  0  0  0  0  0
  -24.6840  -31.9760   23.2500 C   0  0  0  0  0  0  0  0  0  0  0  0
  -27.4690  -27.4680   20.2300 C   0  0  0  0  0  0  0  0  0  0  0  0
  -23.5440  -30.5470   21.5910 C   0  0  0  0  0  3  0  0  0  0  0  0
  -25.0590  -29.0340   20.1820 C   0  0  0  0  0  0  0  0  0  0  0  0
  -26.0810  -30.9250   21.4500 C   0  0  0  0  0  2  0  0  0  0  0  0
  -26.2040  -29.5470   20.8020 C   0  0  0  0  0  0  0  0  0  0  0  0
  -27.4060  -28.7740   20.8190 C   0  0  0  0  0  3  0  0  0  0  0  0
  -26.2910  -27.0070   19.5970 C   0  0  0  0  0  3  0  0  0  0  0  0
  -25.1070  -27.7700   19.5730 C   0  0  0  0  0  3  0  0  0  0  0  0
  -23.8000  -29.8810   20.2130 C   0  0  0  0  0  2  0  0  0  0  0  0
  -24.7880  -31.1690   22.1520 N   0  0  0  0  0  0  0  0  0  0  0  0
  -23.5850  -32.2210   23.7700 O   0  0  0  0  0  0  0  0  0  0  0  0
  -22.8960  -29.5100   22.5390 C   0  0  0  0  0  0  0  0  0  0  0  0
  -21.5810  -29.2770   22.3800 N   0  0  0  0  0  0  0  0  0  0  0  0
  -23.5780  -28.9170   23.3790 O   0  0  0  0  0  0  0  0  0  0  0  0
  -21.0840  -29.8100   21.6810 H   0  0  0  0  0  0  0  0  0  0  0  0
  -18.2440  -27.9510   22.8080 C   0  0  0  0  0  0  0  0  0  0  0  0
  -20.7830  -28.3130   23.1400 C   0  0  0  0  0  3  0  0  0  0  0  0
  -20.9570  -26.8820   22.5780 C   0  0  0  0  0  2  0  0  0  0  0  0
  -19.8940  -26.5100   21.5390 C   0  0  0  0  0  2  0  0  0  0  0  0
  -18.4910  -26.6060   22.1470 C   0  0  0  0  0  2  0  0  0  0  0  0
  -19.3210  -28.7590   23.2610 C   0  0  0  0  0  0  0  0  0  0  0  0
  -19.0360  -30.0160   23.8380 C   0  0  0  0  0  3  0  0  0  0  0  0
  -17.7080  -30.4670   23.9620 C   0  0  0  0  0  3  0  0  0  0  0  0
  -16.6460  -29.6570   23.5260 C   0  0  0  0  0  3  0  0  0  0  0  0
  -16.9150  -28.4000   22.9530 C   0  0  0  0  0  3  0  0  0  0  0  0
  -25.9400  -32.6440   23.8910 C   0  0  0  0  0  3  0  0  0  0  0  0
  -25.5920  -34.0390   24.1960 N   0  0  0  0  0  0  0  0  0  0  0  0
  -25.9170  -35.0890   23.4300 C   0  0  0  0  0  0  0  0  0  0  0  0
  -26.6070  -34.9860   22.4120 O   0  0  0  0  0  0  0  0  0  0  0  0
  -24.9810  -34.1910   24.9850 H   0  0  0  0  0  0  0  0  0  0  0  0
  -24.1650  -36.8430   23.0110 C   0  0  0  0  0  1  0  0  0  0  0  0
  -25.3920  -36.4730   23.8600 C   0  0  0  0  0  3  0  0  0  0  0  0
  -27.4830  -37.4130   24.7370 C   0  0  0  0  0  1  0  0  0  0  0  0
  -26.4050  -37.5440   23.7580 N   0  0  0  0  0  0  0  0  0  0  0  0
  -25.9780  -38.4570   23.8780 H   0  0  0  0  0  0  0  0  0  0  0  0
  -26.4410  -31.9030   25.1900 C   0  0  1  0  0  0  0  0  0  0  0  0
  -25.3240  -31.6330   26.2250 C   0  0  0  0  0  1  0  0  0  0  0  0
  -27.0890  -30.5460   24.8310 C   0  0  0  0  0  1  0  0  0  0  0  0
  -27.5400  -32.7440   25.8790 C   0  0  0  0  0  1  0  0  0  0  0  0
  2  1  1  0
  3  2  2  0
  4  1  2  0
  4 11  1  0
  5  3  1  0
  5  6  2  0
  6  4  1  0
  7  8  1  0
  8  5  1  0
 10  3  1  0
 10  9  1  0
 12 20  1  0
 13 18  1  0
 14 15  1  0
 14 13  1  0
 16 15  1  0
 16 25  1  0
 16 17  1  0
 18 12  1  0
 18 17  1  0
 19 12  2  0
 20 21  1  0
 20 11  1  0
 22 23  2  0
 23 42  1  0
 24 23  1  0
 24 27  1  0
 25 26  1  0
 25 22  1  0
 26 24  2  0
 27 28  1  0
 28 29  2  0
 30 33  1  0
 30 29  1  0
 31 30  2  0
 32 31  1  0
 32 27  2  0
 33 34  1  0
 34 35  1  0
 35 36  2  0
 37 36  1  0
 37 41  1  0
 38 37  2  0
 39 34  2  0
 39 38  1  0
 40 39  1  0
 42 43  1  0
 43 46  1  0
 43 45  1  0
 44 42  2  0
 47 48  1  0
 47 22  1  0
 49 47  1  0
 50  2  1  0
 50 51  1  0
 50 54  1  0
 52 53  1  0
 53 51  1  0
 55 56  1  0
 55 54  1  0
 57 68  2  0
 58 56  1  0
 58 63  1  0
 59 67  1  0
 59 69  1  0
 60 66  1  0
 60 62  1  0
 61 67  1  0
 62 63  2  0
 62 61  1  0
 64 58  2  0
 65 64  1  0
 65 60  2  0
 66 59  1  0
 67 57  1  0
 69 71  2  0
 70 69  1  0
 72 70  1  0
 73 82  2  0
 73 78  1  0
 74 70  1  0
 74 78  1  0
 75 74  1  0
 76 77  1  0
 76 75  1  0
 77 73  1  0
 78 79  2  0
 79 80  1  0
 81 80  2  0
 82 81  1  0
 83 57  1  0
 83 84  1  0
 83 93  1  0
 84 87  1  0
 85 89  1  0
 85 84  1  0
 86 85  2  0
 89 88  1  0
 91 89  1  0
 91 92  1  0
 91 90  1  0
 93 96  1  1
 93 94  1  0
 95 93  1  0
M  ISO  4  12 100  20 100  55 101  56 101
M  END
>  <TORSDO>  (37) 
F 24

>  <SCORE>  (37) 
-11.977

>  <name>  (37) 
36

>  <ligand_id>  (37) 
36

>  <original_smiles>  (37) 
[H]c1c([H])c([H])c2c(c1[H])C([H])([H])C([H])([H])C([H])([H])C2([H])N([H])C(=O)C1([H])N(C(=O)C([H])(N([H])C(=O)C([H])(N([H])C([H])([H])[H])C([H])([H])[H])C(C([H])([H])[H])(C([H])([H])[H])C([H])([H])[H])C([H])([H])c2c([H])c(OC([H])([H])C([H])([H])C([H])(c3c([H])c(C([H])([H])N([H])C(=O)N4C([H])([H])C([H])([H])C([H])([H])C([H])(n5nc(-c6c([H])c([H])c(Oc7c([H])c([H])c(F)c([H])c7F)c([H])c6[H])c(C(=O)N([H])[H])c5N([H])[H])C4([H])[H])nc(OC([H])([H])[H])c3OC([H])([H])[H])C([H])([H])C([H])([H])C([H])([H])[H])c([H])c([H])c2C1([H])[H]

>  <smiles>  (37) 
[H]c1c([H])c([H])c2c(c1[H])C([H])([H])C([H])([H])C([H])([H])C2([H])N([H])C(=O)C1([H])N(C(=O)C([H])(N([H])C(=O)C([H])(N([H])C([H])([H])[H])C([H])([H])[H])C(C([H])([H])[H])(C([H])([H])[H])C([H])([H])[H])C([H])([H])c2c([H])c(OC([H])([H])C([H])([H])C([H])(c3c([H])c(C([H])([H])N([H])C(=O)N4C([H])([H])C([H])([H])C([H])([H])C([H])(n5nc(-c6c([H])c([H])c(Oc7c([H])c([H])c(F)c([H])c7F)c([H])c6[H])c(C(=O)N([H])[H])c5N([H])[H])C4([H])[H])nc(OC([H])([H])[H])c3OC([H])([H])[H])C([H])([H])C([H])([H])C([H])([H])[H])c([H])c([H])c2C1([H])[H]

$$$$
37:0:0
     RDKit          3D

 89 97  0  0  1  0  0  0  0  0999 V2000
  -31.0550  -21.4590   21.0290 C   0  0  0  0  0  1  0  0  0  0  0  0
  -29.6830  -20.9460   20.7690 N   0  0  2  0  0  4  0  0  0  0  0  0
  -29.2570  -20.9780   21.6850 H   0  0  0  0  0  0  0  0  0  0  0  0
  -30.6800  -14.9410   19.9570 C   0  0  0  0  0  0  0  0  0  0  0  0
  -30.3730  -12.6610   18.9460 C   0  0  0  0  0  2  0  0  0  0  0  0
  -29.3680  -12.6830   17.7760 C   0  0  0  0  0  2  0  0  0  0  0  0
  -27.9380  -12.4780   18.3060 C   0  0  0  0  0  2  0  0  0  0  0  0
  -27.6210  -13.3690   19.5370 C   0  0  0  0  0  3  0  0  0  0  0  0
  -28.7530  -13.3470   20.5870 C   0  0  0  0  0  2  0  0  0  0  0  0
  -29.9760  -13.7480   19.8860 N   0  0  0  0  0  0  0  0  0  0  0  0
  -31.8690  -14.8860   19.6240 O   0  0  0  0  0  0  0  0  0  0  0  0
  -30.2470  -18.8230   19.1540 C   0  0  0  0  0  2  0  0  0  0  0  0
  -28.6570  -18.3580   20.9160 C   0  0  0  0  0  2  0  0  0  0  0  0
  -30.8080  -17.3360   19.2370 C   0  0  0  0  0  2  0  0  0  0  0  0
  -29.1010  -16.7990   20.9650 C   0  0  0  0  0  2  0  0  0  0  0  0
  -29.7650  -19.3840   20.5100 C   0  0  0  0  0  3  0  0  0  0  0  0
  -30.0630  -16.2280   19.9500 N   0  0  0  0  0  0  0  0  0  0  0  0
  -25.2930  -13.9170   20.4450 C   0  0  0  0  0  0  0  0  0  0  0  0
  -24.2570  -13.1250   20.8590 C   0  0  0  0  0  0  0  0  0  0  0  0
  -24.7220  -11.7780   20.7590 C   0  0  0  0  0  0  0  0  0  0  0  0
  -26.3210  -13.0510   20.1150 N   0  0  0  0  0  0  0  0  0  0  0  0
  -25.9920  -11.7580   20.3670 N   0  0  0  0  0  0  0  0  0  0  0  0
  -24.0120  -10.5070   20.9550 C   0  0  0  0  0  0  0  0  0  0  0  0
  -24.4760   -9.5350   21.8690 C   0  0  0  0  0  3  0  0  0  0  0  0
  -23.7630   -8.3310   22.0560 C   0  0  0  0  0  3  0  0  0  0  0  0
  -22.5740   -8.0900   21.3280 C   0  0  0  0  0  0  0  0  0  0  0  0
  -22.1300   -9.0490   20.4020 C   0  0  0  0  0  3  0  0  0  0  0  0
  -22.8440  -10.2450   20.2120 C   0  0  0  0  0  3  0  0  0  0  0  0
  -21.8300   -6.9380   21.4240 O   0  0  0  0  0  0  0  0  0  0  0  0
  -21.7700   -6.2160   22.5890 C   0  0  0  0  0  0  0  0  0  0  0  0
  -21.2920   -6.7790   23.7920 C   0  0  0  0  0  3  0  0  0  0  0  0
  -21.1820   -5.9810   24.9480 C   0  0  0  0  0  3  0  0  0  0  0  0
  -21.5410   -4.6220   24.9030 C   0  0  0  0  0  0  0  0  0  0  0  0
  -22.0120   -4.0570   23.7050 C   0  0  0  0  0  3  0  0  0  0  0  0
  -22.1240   -4.8520   22.5510 C   0  0  0  0  0  0  0  0  0  0  0  0
  -22.5590   -4.2980   21.3940 F   0  0  0  0  0  0  0  0  0  0  0  0
  -21.4290   -3.8530   26.0120 F   0  0  0  0  0  0  0  0  0  0  0  0
  -22.8790  -13.5880   21.2300 C   0  0  0  0  0  0  0  0  0  0  0  0
  -22.2080  -12.8660   22.1200 N   0  0  0  0  0  0  0  0  0  0  0  0
  -22.4060  -14.6250   20.7640 O   0  0  0  0  0  0  0  0  0  0  0  0
  -22.6050  -12.0280   22.5190 H   0  0  0  0  0  0  0  0  0  0  0  0
  -21.2860  -13.1590   22.4130 H   0  0  0  0  0  0  0  0  0  0  0  0
  -25.4390  -15.2920   20.2950 N   0  0  0  0  0  0  0  0  0  0  0  0
  -24.6780  -15.9370   20.4730 H   0  0  0  0  0  0  0  0  0  0  0  0
  -26.2570  -15.7420   19.9060 H   0  0  0  0  0  0  0  0  0  0  0  0
  -28.8680  -22.0290   19.9920 C   0  0  0  0  0  2  0  0  0  0  0  0
  -29.0270  -23.6340   20.4340 C   0  0  0  0  0  3  0  0  0  0  0  0
  -28.0760  -24.8780   19.9240 C   0  0  0  0  0  3  0  0  0  0  0  0
  -28.3140  -26.3570   20.2490 O   0  0  0  0  0  0  0  0  0  0  0  0
  -24.6430  -31.9200   23.2450 C   0  0  0  0  0  0  0  0  0  0  0  0
  -27.2440  -27.2990   20.1700 C   0  0  0  0  0  0  0  0  0  0  0  0
  -23.4470  -30.5290   21.5970 C   0  0  0  0  0  3  0  0  0  0  0  0
  -24.9010  -28.9880   20.1550 C   0  0  0  0  0  0  0  0  0  0  0  0
  -25.9950  -30.8300   21.4240 C   0  0  0  0  0  2  0  0  0  0  0  0
  -26.0760  -29.4500   20.7620 C   0  0  0  0  0  0  0  0  0  0  0  0
  -27.2500  -28.6200   20.7550 C   0  0  0  0  0  3  0  0  0  0  0  0
  -26.0480  -26.9280   19.5180 C   0  0  0  0  0  3  0  0  0  0  0  0
  -24.8960  -27.7390   19.5190 C   0  0  0  0  0  3  0  0  0  0  0  0
  -23.6660  -29.8690   20.2120 C   0  0  0  0  0  2  0  0  0  0  0  0
  -24.7150  -31.1120   22.1440 N   0  0  0  0  0  0  0  0  0  0  0  0
  -23.5580  -32.1910   23.7790 O   0  0  0  0  0  0  0  0  0  0  0  0
  -22.7840  -29.5040   22.5510 C   0  0  0  0  0  0  0  0  0  0  0  0
  -21.4590  -29.3190   22.4200 N   0  0  0  0  0  0  0  0  0  0  0  0
  -23.4630  -28.8810   23.3720 O   0  0  0  0  0  0  0  0  0  0  0  0
  -20.9670  -29.8750   21.7340 H   0  0  0  0  0  0  0  0  0  0  0  0
  -18.0870  -28.0950   22.9180 C   0  0  0  0  0  0  0  0  0  0  0  0
  -20.6450  -28.3720   23.1870 C   0  0  0  0  0  3  0  0  0  0  0  0
  -20.7550  -26.9440   22.6040 C   0  0  0  0  0  2  0  0  0  0  0  0
  -19.6550  -26.6200   21.5870 C   0  0  0  0  0  2  0  0  0  0  0  0
  -18.2720  -26.7520   22.2330 C   0  0  0  0  0  2  0  0  0  0  0  0
  -19.2020  -28.8620   23.3520 C   0  0  0  0  0  0  0  0  0  0  0  0
  -18.9730  -30.1190   23.9540 C   0  0  0  0  0  3  0  0  0  0  0  0
  -17.6650  -30.6090   24.1250 C   0  0  0  0  0  3  0  0  0  0  0  0
  -16.5670  -29.8400   23.7060 C   0  0  0  0  0  3  0  0  0  0  0  0
  -16.7780  -28.5840   23.1090 C   0  0  0  0  0  3  0  0  0  0  0  0
  -25.9200  -32.5580   23.8720 C   0  0  0  0  0  3  0  0  0  0  0  0
  -26.4180  -31.8040   25.1660 C   0  0  1  0  0  0  0  0  0  0  0  0
  -25.3100  -31.5840   26.2220 C   0  0  0  0  0  1  0  0  0  0  0  0
  -27.0040  -30.4200   24.8050 C   0  0  0  0  0  1  0  0  0  0  0  0
  -27.5600  -32.6070   25.8320 C   0  0  0  0  0  1  0  0  0  0  0  0
  -25.6120  -33.9620   24.1820 N   0  0  0  0  0  0  0  0  0  0  0  0
  -25.9180  -35.0030   23.3960 C   0  0  0  0  0  0  0  0  0  0  0  0
  -26.5600  -34.8820   22.3490 O   0  0  0  0  0  0  0  0  0  0  0  0
  -25.0380  -34.1290   24.9960 H   0  0  0  0  0  0  0  0  0  0  0  0
  -24.1630  -36.7770   23.0720 C   0  0  0  0  0  1  0  0  0  0  0  0
  -25.4400  -36.3990   23.8410 C   0  0  0  0  0  3  0  0  0  0  0  0
  -27.5940  -37.3250   24.5720 C   0  0  0  0  0  1  0  0  0  0  0  0
  -26.4590  -37.4560   23.6620 N   0  0  0  0  0  0  0  0  0  0  0  0
  -26.0490  -38.3770   23.7980 H   0  0  0  0  0  0  0  0  0  0  0  0
  2  1  1  0
  2  3  1  1
  5 10  1  0
  6  7  1  0
  6  5  1  0
  8  7  1  0
  8 21  1  0
  8  9  1  0
 10  4  1  0
 10  9  1  0
 11  4  2  0
 12 14  1  0
 12 16  1  0
 13 15  1  0
 14 17  1  0
 16  2  1  0
 16 13  1  0
 17  4  1  0
 17 15  1  0
 18 19  2  0
 19 38  1  0
 20 19  1  0
 20 23  1  0
 21 22  1  0
 21 18  1  0
 22 20  2  0
 23 24  1  0
 24 25  2  0
 26 29  1  0
 26 25  1  0
 27 26  2  0
 28 27  1  0
 28 23  2  0
 29 30  1  0
 30 31  1  0
 31 32  2  0
 33 32  1  0
 33 37  1  0
 34 33  2  0
 35 30  2  0
 35 34  1  0
 36 35  1  0
 38 39  1  0
 39 42  1  0
 39 41  1  0
 40 38  2  0
 43 18  1  0
 43 44  1  0
 45 43  1  0
 46 47  1  0
 46  2  1  0
 48 49  1  0
 48 47  2  0
 50 61  2  0
 51 49  1  0
 51 56  1  0
 52 60  1  0
 52 62  1  0
 53 59  1  0
 53 55  1  0
 54 60  1  0
 55 54  1  0
 56 55  2  0
 57 58  1  0
 57 51  2  0
 58 53  2  0
 59 52  1  0
 60 50  1  0
 62 64  2  0
 63 62  1  0
 65 63  1  0
 66 75  2  0
 66 71  1  0
 67 63  1  0
 67 71  1  0
 68 67  1  0
 69 70  1  0
 69 68  1  0
 70 66  1  0
 71 72  2  0
 72 73  1  0
 74 73  2  0
 75 74  1  0
 76 50  1  0
 76 81  1  0
 76 77  1  0
 77 80  1  1
 77 78  1  0
 79 77  1  0
 81 84  1  0
 82 86  1  0
 82 81  1  0
 83 82  2  0
 86 85  1  0
 88 89  1  0
 88 86  1  0
 88 87  1  0
M  ISO  4   4 100  17 100  48 101  49 101
M  END
>  <TORSDO>  (38) 
F 19

>  <SCORE>  (38) 
-13.902

>  <name>  (38) 
37

>  <ligand_id>  (38) 
37

>  <original_smiles>  (38) 
[H]c1c([H])c([H])c2c(c1[H])C([H])([H])C([H])([H])C([H])([H])C2([H])N([H])C(=O)C1([H])N(C(=O)C([H])(N([H])C(=O)C([H])(N([H])C([H])([H])[H])C([H])([H])[H])C(C([H])([H])[H])(C([H])([H])[H])C([H])([H])[H])C([H])([H])c2c([H])c(OC([H])([H])C([H])([H])C([H])([H])[N+]([H])(C([H])([H])[H])C3([H])C([H])([H])C([H])([H])N(C(=O)N4C([H])([H])C([H])([H])C([H])([H])C([H])(n5nc(-c6c([H])c([H])c(Oc7c([H])c([H])c(F)c([H])c7F)c([H])c6[H])c(C(=O)N([H])[H])c5N([H])[H])C4([H])[H])C([H])([H])C3([H])[H])c([H])c([H])c2C1([H])[H]

>  <smiles>  (38) 
[H]c1c([H])c([H])c2c(c1[H])C([H])([H])C([H])([H])C([H])([H])C2([H])N([H])C(=O)C1([H])N(C(=O)C([H])(N([H])C(=O)C([H])(N([H])C([H])([H])[H])C([H])([H])[H])C(C([H])([H])[H])(C([H])([H])[H])C([H])([H])[H])C([H])([H])c2c([H])c(OC([H])([H])C([H])([H])C([H])([H])[N+]([H])(C([H])([H])[H])C3([H])C([H])([H])C([H])([H])N(C(=O)N4C([H])([H])C([H])([H])C([H])([H])C([H])(n5nc(-c6c([H])c([H])c(Oc7c([H])c([H])c(F)c([H])c7F)c([H])c6[H])c(C(=O)N([H])[H])c5N([H])[H])C4([H])[H])C([H])([H])C3([H])[H])c([H])c([H])c2C1([H])[H]

$$$$
38:0:0
     RDKit          3D

 96104  0  0  1  0  0  0  0  0999 V2000
  -30.6850  -21.9800   19.3330 C   0  0  0  0  0  2  0  0  0  0  0  0
  -30.3030  -20.8020   17.1240 C   0  0  0  0  0  1  0  0  0  0  0  0
  -28.3430  -21.6520   18.3900 C   0  0  0  0  0  1  0  0  0  0  0  0
  -29.7460  -20.9420   18.5590 C   0  0  2  0  0  0  0  0  0  0  0  0
  -30.5680  -18.5850   19.6550 C   0  0  0  0  0  3  0  0  0  0  0  0
  -28.6790  -17.4530   19.4650 C   0  0  0  0  0  0  0  0  0  0  0  0
  -30.0000  -17.3230   19.8840 C   0  0  0  0  0  0  0  0  0  0  0  0
  -28.4430  -18.6990   18.9520 C   0  0  0  0  0  0  0  0  0  0  0  0
  -27.6210  -16.4970   19.6650 C   0  0  0  0  0  1  0  0  0  0  0  0
  -27.0840  -19.0760   18.4120 C   0  0  0  0  0  1  0  0  0  0  0  0
  -29.6050  -19.4980   19.0970 N   0  0  0  0  0  0  0  0  0  0  0  0
  -30.7910  -14.8020   20.2600 C   0  0  0  0  0  0  0  0  0  0  0  0
  -30.3470  -12.5090   19.3590 C   0  0  0  0  0  2  0  0  0  0  0  0
  -29.4110  -12.5150   18.1340 C   0  0  0  0  0  2  0  0  0  0  0  0
  -27.9730  -12.2600   18.6190 C   0  0  0  0  0  2  0  0  0  0  0  0
  -27.5820  -13.2190   19.7570 C   0  0  0  0  0  3  0  0  0  0  0  0
  -28.6780  -13.3410   20.8630 C   0  0  0  0  0  2  0  0  0  0  0  0
  -29.9760  -13.6600   20.2250 N   0  0  0  0  0  0  0  0  0  0  0  0
  -31.9640  -14.6750   19.9110 O   0  0  0  0  0  0  0  0  0  0  0  0
  -30.4550  -16.0960   20.6410 N   0  0  0  0  0  0  0  0  0  0  0  0
  -31.2650  -16.3850   21.1780 H   0  0  0  0  0  0  0  0  0  0  0  0
  -25.1900  -13.8180   20.5310 C   0  0  0  0  0  0  0  0  0  0  0  0
  -24.1320  -13.0540   20.9100 C   0  0  0  0  0  0  0  0  0  0  0  0
  -24.6020  -11.7100   20.8660 C   0  0  0  0  0  0  0  0  0  0  0  0
  -26.2500  -12.9520   20.2880 N   0  0  0  0  0  0  0  0  0  0  0  0
  -25.8920  -11.6710   20.5590 N   0  0  0  0  0  0  0  0  0  0  0  0
  -23.8740  -10.4550   21.0590 C   0  0  0  0  0  0  0  0  0  0  0  0
  -24.3110   -9.4840   21.9860 C   0  0  0  0  0  3  0  0  0  0  0  0
  -23.5830   -8.2910   22.1610 C   0  0  0  0  0  3  0  0  0  0  0  0
  -22.4040   -8.0650   21.4160 C   0  0  0  0  0  0  0  0  0  0  0  0
  -21.9830   -9.0240   20.4800 C   0  0  0  0  0  3  0  0  0  0  0  0
  -22.7120  -10.2110   20.3010 C   0  0  0  0  0  3  0  0  0  0  0  0
  -21.6420   -6.9300   21.5100 O   0  0  0  0  0  0  0  0  0  0  0  0
  -21.6170   -6.1780   22.6540 C   0  0  0  0  0  0  0  0  0  0  0  0
  -21.2340   -6.7260   23.8960 C   0  0  0  0  0  3  0  0  0  0  0  0
  -21.1600   -5.9030   25.0360 C   0  0  0  0  0  3  0  0  0  0  0  0
  -21.4550   -4.5290   24.9350 C   0  0  0  0  0  0  0  0  0  0  0  0
  -21.8350   -3.9810   23.6960 C   0  0  0  0  0  3  0  0  0  0  0  0
  -21.9150   -4.8060   22.5590 C   0  0  0  0  0  0  0  0  0  0  0  0
  -22.2610   -4.2710   21.3610 F   0  0  0  0  0  0  0  0  0  0  0  0
  -21.3730   -3.7280   26.0230 F   0  0  0  0  0  0  0  0  0  0  0  0
  -22.7370  -13.5390   21.1780 C   0  0  0  0  0  0  0  0  0  0  0  0
  -22.0060  -12.8580   22.0550 N   0  0  0  0  0  0  0  0  0  0  0  0
  -22.3080  -14.5730   20.6610 O   0  0  0  0  0  0  0  0  0  0  0  0
  -22.3590  -12.0240   22.5060 H   0  0  0  0  0  0  0  0  0  0  0  0
  -21.0720  -13.1750   22.2850 H   0  0  0  0  0  0  0  0  0  0  0  0
  -25.2790  -15.1760   20.3590 N   0  0  0  0  0  0  0  0  0  0  0  0
  -24.5070  -15.8130   20.5190 H   0  0  0  0  0  0  0  0  0  0  0  0
  -26.1340  -15.6310   20.0690 H   0  0  0  0  0  0  0  0  0  0  0  0
  -30.2670  -23.3960   18.9720 N   0  0  0  0  0  4  0  0  0  0  0  0
  -30.0050  -23.2350   18.0040 H   0  0  0  0  0  0  0  0  0  0  0  0
  -29.4320  -23.6310   19.4650 H   0  0  0  0  0  0  0  0  0  0  0  0
  -31.1570  -24.5790   18.8660 C   0  0  0  0  0  2  0  0  0  0  0  0
  -30.9190  -25.8310   19.8050 C   0  0  0  0  0  2  0  0  0  0  0  0
  -29.5770  -26.3560   20.4870 C   0  0  0  0  0  2  0  0  0  0  0  0
  -28.4120  -26.6240   19.6960 O   0  0  0  0  0  0  0  0  0  0  0  0
  -24.5810  -31.8500   23.1990 C   0  0  0  0  0  0  0  0  0  0  0  0
  -27.2940  -27.3750   20.0810 C   0  0  0  0  0  0  0  0  0  0  0  0
  -23.3910  -30.4340   21.5760 C   0  0  0  0  0  3  0  0  0  0  0  0
  -24.8510  -28.8580   20.2020 C   0  0  0  0  0  0  0  0  0  0  0  0
  -25.9250  -30.7780   21.3590 C   0  0  0  0  0  2  0  0  0  0  0  0
  -26.0380  -29.3940   20.7420 C   0  0  0  0  0  0  0  0  0  0  0  0
  -27.2650  -28.6620   20.6830 C   0  0  0  0  0  3  0  0  0  0  0  0
  -26.0770  -26.8580   19.5790 C   0  0  0  0  0  3  0  0  0  0  0  0
  -24.8640  -27.5710   19.6570 C   0  0  0  0  0  3  0  0  0  0  0  0
  -23.6090  -29.7280   20.2300 C   0  0  0  0  0  2  0  0  0  0  0  0
  -24.6510  -31.0440   22.1020 N   0  0  0  0  0  0  0  0  0  0  0  0
  -23.5060  -32.0960   23.7720 O   0  0  0  0  0  0  0  0  0  0  0  0
  -22.7220  -29.4290   22.5270 C   0  0  0  0  0  0  0  0  0  0  0  0
  -21.3890  -29.2660   22.4140 N   0  0  0  0  0  0  0  0  0  0  0  0
  -23.4140  -28.7680   23.3020 O   0  0  0  0  0  0  0  0  0  0  0  0
  -20.8960  -29.8360   21.7400 H   0  0  0  0  0  0  0  0  0  0  0  0
  -18.0010  -28.0990   22.9600 C   0  0  0  0  0  0  0  0  0  0  0  0
  -20.5700  -28.3310   23.1930 C   0  0  0  0  0  3  0  0  0  0  0  0
  -20.6360  -26.8910   22.6190 C   0  0  0  0  0  2  0  0  0  0  0  0
  -19.5200  -26.5840   21.6120 C   0  0  0  0  0  2  0  0  0  0  0  0
  -18.1560  -26.7500   22.2820 C   0  0  0  0  0  2  0  0  0  0  0  0
  -19.1390  -28.8400   23.3800 C   0  0  0  0  0  0  0  0  0  0  0  0
  -18.9390  -30.1040   23.9730 C   0  0  0  0  0  3  0  0  0  0  0  0
  -17.6480  -30.6260   24.1530 C   0  0  0  0  0  3  0  0  0  0  0  0
  -16.5300  -29.8730   23.7620 C   0  0  0  0  0  3  0  0  0  0  0  0
  -16.7080  -28.6160   23.1620 C   0  0  0  0  0  3  0  0  0  0  0  0
  -25.8570  -32.4940   23.8160 C   0  0  0  0  0  3  0  0  0  0  0  0
  -25.5180  -33.8860   24.1410 N   0  0  0  0  0  0  0  0  0  0  0  0
  -25.8570  -34.9480   23.3990 C   0  0  0  0  0  0  0  0  0  0  0  0
  -26.5540  -34.8580   22.3900 O   0  0  0  0  0  0  0  0  0  0  0  0
  -24.9140  -34.0100   24.9410 H   0  0  0  0  0  0  0  0  0  0  0  0
  -24.1270  -36.7410   23.0430 C   0  0  0  0  0  1  0  0  0  0  0  0
  -25.3580  -36.3340   23.8610 C   0  0  0  0  0  3  0  0  0  0  0  0
  -27.4870  -37.2290   24.7220 C   0  0  0  0  0  1  0  0  0  0  0  0
  -26.3870  -37.3990   23.7720 N   0  0  0  0  0  0  0  0  0  0  0  0
  -25.9740  -38.3160   23.9330 H   0  0  0  0  0  0  0  0  0  0  0  0
  -26.3710  -31.7460   25.1070 C   0  0  1  0  0  0  0  0  0  0  0  0
  -25.2770  -31.5060   26.1780 C   0  0  0  0  0  1  0  0  0  0  0  0
  -26.9670  -30.3800   24.7120 C   0  0  0  0  0  1  0  0  0  0  0  0
  -27.5080  -32.5570   25.7640 C   0  0  0  0  0  1  0  0  0  0  0  0
  4  2  1  6
  3  4  1  0
  4 11  1  0
  4  1  1  0
  5  7  2  0
  6  9  1  0
  6  7  1  0
  7 20  1  0
  8 11  1  0
  8  6  2  0
 10  8  1  0
 11  5  1  0
 12 20  1  0
 13 18  1  0
 14 15  1  0
 14 13  1  0
 16 15  1  0
 16 25  1  0
 16 17  1  0
 18 12  1  0
 18 17  1  0
 19 12  2  0
 20 21  1  0
 22 23  2  0
 23 42  1  0
 24 23  1  0
 24 27  1  0
 25 22  1  0
 25 26  1  0
 26 24  2  0
 27 28  1  0
 28 29  2  0
 30 33  1  0
 30 29  1  0
 31 30  2  0
 32 31  1  0
 32 27  2  0
 33 34  1  0
 34 35  1  0
 35 36  2  0
 37 36  1  0
 37 41  1  0
 38 37  2  0
 39 34  2  0
 39 38  1  0
 40 39  1  0
 42 43  1  0
 43 46  1  0
 43 45  1  0
 44 42  2  0
 47 48  1  0
 47 22  1  0
 49 47  1  0
 50  1  1  0
 50 52  1  0
 51 50  1  0
 53 50  1  0
 53 54  1  0
 54 55  1  0
 56 58  1  0
 56 55  1  0
 57 68  2  0
 58 63  1  0
 59 67  1  0
 59 69  1  0
 60 66  1  0
 60 62  1  0
 61 67  1  0
 62 61  1  0
 63 62  2  0
 64 65  1  0
 64 58  2  0
 65 60  2  0
 66 59  1  0
 67 57  1  0
 69 71  2  0
 70 69  1  0
 72 70  1  0
 73 82  2  0
 73 78  1  0
 74 70  1  0
 74 78  1  0
 75 74  1  0
 76 77  1  0
 76 75  1  0
 77 73  1  0
 78 79  2  0
 79 80  1  0
 81 80  2  0
 82 81  1  0
 83 57  1  0
 83 84  1  0
 83 93  1  0
 84 87  1  0
 85 89  1  0
 85 84  1  0
 86 85  2  0
 89 88  1  0
 91 89  1  0
 91 92  1  0
 91 90  1  0
 93 96  1  1
 93 94  1  0
 95 93  1  0
M  ISO  4  12 100  20 100  55 101  56 101
M  END
>  <TORSDO>  (39) 
F 22

>  <SCORE>  (39) 
-13.264

>  <name>  (39) 
38

>  <ligand_id>  (39) 
38

>  <original_smiles>  (39) 
[H]c1c([H])c([H])c2c(c1[H])C([H])([H])C([H])([H])C([H])([H])C2([H])N([H])C(=O)C1([H])N(C(=O)C([H])(N([H])C(=O)C([H])(N([H])C([H])([H])[H])C([H])([H])[H])C(C([H])([H])[H])(C([H])([H])[H])C([H])([H])[H])C([H])([H])c2c([H])c(OC([H])([H])C([H])([H])C([H])([H])[N+]([H])([H])C([H])([H])C(n3c([H])c(N([H])C(=O)N4C([H])([H])C([H])([H])C([H])([H])C([H])(n5nc(-c6c([H])c([H])c(Oc7c([H])c([H])c(F)c([H])c7F)c([H])c6[H])c(C(=O)N([H])[H])c5N([H])[H])C4([H])[H])c(C([H])([H])[H])c3C([H])([H])[H])(C([H])([H])[H])C([H])([H])[H])c([H])c([H])c2C1([H])[H]

>  <smiles>  (39) 
[H]c1c([H])c([H])c2c(c1[H])C([H])([H])C([H])([H])C([H])([H])C2([H])N([H])C(=O)C1([H])N(C(=O)C([H])(N([H])C(=O)C([H])(N([H])C([H])([H])[H])C([H])([H])[H])C(C([H])([H])[H])(C([H])([H])[H])C([H])([H])[H])C([H])([H])c2c([H])c(OC([H])([H])C([H])([H])C([H])([H])[N+]([H])([H])C([H])([H])C(n3c([H])c(N([H])C(=O)N4C([H])([H])C([H])([H])C([H])([H])C([H])(n5nc(-c6c([H])c([H])c(Oc7c([H])c([H])c(F)c([H])c7F)c([H])c6[H])c(C(=O)N([H])[H])c5N([H])[H])C4([H])[H])c(C([H])([H])[H])c3C([H])([H])[H])(C([H])([H])[H])C([H])([H])[H])c([H])c([H])c2C1([H])[H]

$$$$
39:0:0
     RDKit          3D

 90 97  0  0  1  0  0  0  0  0999 V2000
  -28.9010  -21.8190   20.7080 C   0  0  0  0  0  0  0  0  0  0  0  0
  -29.2680  -20.5850   20.0760 N   0  0  0  0  0  0  0  0  0  0  0  0
  -28.7800  -21.7880   21.9340 O   0  0  0  0  0  0  0  0  0  0  0  0
  -31.1980  -20.9820   18.5820 C   0  0  0  0  0  1  0  0  0  0  0  0
  -29.7060  -20.6330   18.6780 C   0  0  0  0  0  2  0  0  0  0  0  0
  -28.6310  -23.3050   19.9840 C   0  0  0  0  0  2  0  0  0  0  0  0
  -27.9430  -24.6980   20.6920 C   0  0  0  0  0  3  0  0  0  0  0  0
  -26.1070  -23.3640   22.0690 C   0  0  0  0  0  1  0  0  0  0  0  0
  -26.4410  -24.4680   21.0590 C   0  0  0  0  0  2  0  0  0  0  0  0
  -28.1480  -26.1970   20.2330 O   0  0  0  0  0  0  0  0  0  0  0  0
  -24.5420  -31.9110   23.2410 C   0  0  0  0  0  0  0  0  0  0  0  0
  -27.1170  -27.2130   20.1830 C   0  0  0  0  0  0  0  0  0  0  0  0
  -23.3560  -30.5480   21.5660 C   0  0  0  0  0  3  0  0  0  0  0  0
  -24.8140  -28.9860   20.1360 C   0  0  0  0  0  0  0  0  0  0  0  0
  -25.9150  -30.7920   21.4450 C   0  0  0  0  0  2  0  0  0  0  0  0
  -25.9860  -29.4080   20.7750 C   0  0  0  0  0  0  0  0  0  0  0  0
  -27.1400  -28.5340   20.7880 C   0  0  0  0  0  3  0  0  0  0  0  0
  -25.9410  -26.9210   19.4620 C   0  0  0  0  0  3  0  0  0  0  0  0
  -24.8030  -27.7550   19.4640 C   0  0  0  0  0  3  0  0  0  0  0  0
  -23.5920  -29.8920   20.1800 C   0  0  0  0  0  2  0  0  0  0  0  0
  -24.6230  -31.1050   22.1380 N   0  0  0  0  0  0  0  0  0  0  0  0
  -23.4510  -32.1960   23.7570 O   0  0  0  0  0  0  0  0  0  0  0  0
  -22.6570  -29.5310   22.5040 C   0  0  0  0  0  0  0  0  0  0  0  0
  -21.3270  -29.3820   22.3680 N   0  0  0  0  0  0  0  0  0  0  0  0
  -23.3140  -28.8780   23.3190 O   0  0  0  0  0  0  0  0  0  0  0  0
  -20.8520  -29.9620   21.6900 H   0  0  0  0  0  0  0  0  0  0  0  0
  -17.9180  -28.2510   22.8610 C   0  0  0  0  0  0  0  0  0  0  0  0
  -20.4860  -28.4430   23.1160 C   0  0  0  0  0  3  0  0  0  0  0  0
  -20.5470  -27.0250   22.4990 C   0  0  0  0  0  2  0  0  0  0  0  0
  -19.4300  -26.7600   21.4830 C   0  0  0  0  0  2  0  0  0  0  0  0
  -18.0570  -26.9200   22.1410 C   0  0  0  0  0  2  0  0  0  0  0  0
  -19.0590  -28.9730   23.3050 C   0  0  0  0  0  0  0  0  0  0  0  0
  -18.8740  -30.2200   23.9410 C   0  0  0  0  0  3  0  0  0  0  0  0
  -17.5840  -30.7470   24.1330 C   0  0  0  0  0  3  0  0  0  0  0  0
  -16.4580  -30.0220   23.7050 C   0  0  0  0  0  3  0  0  0  0  0  0
  -16.6260  -28.7750   23.0770 C   0  0  0  0  0  3  0  0  0  0  0  0
  -25.8150  -32.5280   23.8930 C   0  0  0  0  0  3  0  0  0  0  0  0
  -25.5180  -33.9330   24.2130 N   0  0  0  0  0  0  0  0  0  0  0  0
  -25.8690  -34.9800   23.4530 C   0  0  0  0  0  0  0  0  0  0  0  0
  -26.5450  -34.8620   22.4270 O   0  0  0  0  0  0  0  0  0  0  0  0
  -24.9220  -34.0980   25.0100 H   0  0  0  0  0  0  0  0  0  0  0  0
  -24.1660  -36.7980   23.0870 C   0  0  0  0  0  1  0  0  0  0  0  0
  -25.4000  -36.3790   23.9030 C   0  0  0  0  0  3  0  0  0  0  0  0
  -27.5430  -37.2440   24.7360 C   0  0  0  0  0  1  0  0  0  0  0  0
  -26.4470  -37.4170   23.7860 N   0  0  0  0  0  0  0  0  0  0  0  0
  -26.0510  -38.3430   23.9240 H   0  0  0  0  0  0  0  0  0  0  0  0
  -26.2810  -31.7570   25.1900 C   0  0  1  0  0  0  0  0  0  0  0  0
  -25.1550  -31.5450   26.2290 C   0  0  0  0  0  1  0  0  0  0  0  0
  -26.8520  -30.3670   24.8290 C   0  0  0  0  0  1  0  0  0  0  0  0
  -27.4270  -32.5380   25.8750 C   0  0  0  0  0  1  0  0  0  0  0  0
  -29.2340  -19.1040   20.6670 C   0  0  0  0  0  3  0  0  0  0  0  0
  -30.1620  -17.7760   20.1630 C   0  0  0  0  0  3  0  0  0  0  0  0
  -30.6000  -15.0610   20.2370 C   0  0  0  0  0  0  0  0  0  0  0  0
  -30.4630  -12.7300   19.2530 C   0  0  0  0  0  2  0  0  0  0  0  0
  -29.5140  -12.7020   18.0320 C   0  0  0  0  0  2  0  0  0  0  0  0
  -28.0590  -12.4790   18.4770 C   0  0  0  0  0  2  0  0  0  0  0  0
  -27.6620  -13.3830   19.6730 C   0  0  0  0  0  3  0  0  0  0  0  0
  -28.7290  -13.3830   20.7890 C   0  0  0  0  0  2  0  0  0  0  0  0
  -29.9950  -13.8060   20.1760 N   0  0  0  0  0  0  0  0  0  0  0  0
  -31.7880  -15.1300   19.9070 O   0  0  0  0  0  0  0  0  0  0  0  0
  -29.8460  -16.2490   20.4530 N   0  0  0  0  0  0  0  0  0  0  0  0
  -28.8940  -16.0690   20.7420 H   0  0  0  0  0  0  0  0  0  0  0  0
  -25.2760  -13.9320   20.4200 C   0  0  0  0  0  0  0  0  0  0  0  0
  -24.2240  -13.1460   20.7970 C   0  0  0  0  0  0  0  0  0  0  0  0
  -24.7060  -11.8000   20.7690 C   0  0  0  0  0  0  0  0  0  0  0  0
  -26.3300  -13.0680   20.1780 N   0  0  0  0  0  0  0  0  0  0  0  0
  -25.9950  -11.7800   20.4550 N   0  0  0  0  0  0  0  0  0  0  0  0
  -23.9960  -10.5290   20.9660 C   0  0  0  0  0  0  0  0  0  0  0  0
  -24.4300   -9.5800   21.9180 C   0  0  0  0  0  3  0  0  0  0  0  0
  -23.7190   -8.3750   22.1040 C   0  0  0  0  0  3  0  0  0  0  0  0
  -22.5580   -8.1100   21.3380 C   0  0  0  0  0  0  0  0  0  0  0  0
  -22.1450   -9.0480   20.3760 C   0  0  0  0  0  3  0  0  0  0  0  0
  -22.8560  -10.2440   20.1880 C   0  0  0  0  0  3  0  0  0  0  0  0
  -21.8200   -6.9550   21.4310 O   0  0  0  0  0  0  0  0  0  0  0  0
  -21.7540   -6.2360   22.5960 C   0  0  0  0  0  0  0  0  0  0  0  0
  -21.2710   -6.8020   23.7960 C   0  0  0  0  0  3  0  0  0  0  0  0
  -21.1550   -6.0080   24.9540 C   0  0  0  0  0  3  0  0  0  0  0  0
  -21.5120   -4.6460   24.9130 C   0  0  0  0  0  0  0  0  0  0  0  0
  -21.9870   -4.0780   23.7170 C   0  0  0  0  0  3  0  0  0  0  0  0
  -22.1040   -4.8710   22.5620 C   0  0  0  0  0  0  0  0  0  0  0  0
  -22.5430   -4.3140   21.4080 F   0  0  0  0  0  0  0  0  0  0  0  0
  -21.3930   -3.8800   26.0220 F   0  0  0  0  0  0  0  0  0  0  0  0
  -22.8220  -13.6040   21.0700 C   0  0  0  0  0  0  0  0  0  0  0  0
  -22.1030  -12.9000   21.9370 N   0  0  0  0  0  0  0  0  0  0  0  0
  -22.3700  -14.6240   20.5500 O   0  0  0  0  0  0  0  0  0  0  0  0
  -22.4810  -12.0760   22.3820 H   0  0  0  0  0  0  0  0  0  0  0  0
  -21.1630  -13.1900   22.1620 H   0  0  0  0  0  0  0  0  0  0  0  0
  -25.4180  -15.3060   20.2330 N   0  0  0  0  0  0  0  0  0  0  0  0
  -24.6400  -15.9470   20.3410 H   0  0  0  0  0  0  0  0  0  0  0  0
  -26.2500  -15.7500   19.8670 H   0  0  0  0  0  0  0  0  0  0  0  0
  1  3  2  0
  2 51  1  0
  2  1  1  0
  4  5  1  0
  5  2  1  0
  6  1  1  0
  7  6  1  0
  7  9  1  0
  9  8  1  0
 10  7  1  0
 11 22  2  0
 12 10  1  0
 12 17  1  0
 13 21  1  0
 13 23  1  0
 14 20  1  0
 14 16  1  0
 15 21  1  0
 16 17  2  0
 16 15  1  0
 18 19  1  0
 18 12  2  0
 19 14  2  0
 20 13  1  0
 21 11  1  0
 23 25  2  0
 24 23  1  0
 26 24  1  0
 27 36  2  0
 27 32  1  0
 28 24  1  0
 28 32  1  0
 29 28  1  0
 30 31  1  0
 30 29  1  0
 31 27  1  0
 32 33  2  0
 33 34  1  0
 35 34  2  0
 36 35  1  0
 37 11  1  0
 37 38  1  0
 37 47  1  0
 38 41  1  0
 39 43  1  0
 39 38  1  0
 40 39  2  0
 43 42  1  0
 45 43  1  0
 45 46  1  0
 45 44  1  0
 47 50  1  1
 47 48  1  0
 49 47  1  0
 52 61  1  0
 52 51  2  0
 53 61  1  0
 54 59  1  0
 55 56  1  0
 55 54  1  0
 57 56  1  0
 57 66  1  0
 57 58  1  0
 59 53  1  0
 59 58  1  0
 60 53  2  0
 61 62  1  0
 63 64  2  0
 64 83  1  0
 65 64  1  0
 65 68  1  0
 66 63  1  0
 66 67  1  0
 67 65  2  0
 68 69  1  0
 69 70  2  0
 71 74  1  0
 71 70  1  0
 72 71  2  0
 73 72  1  0
 73 68  2  0
 74 75  1  0
 75 76  1  0
 76 77  2  0
 78 77  1  0
 78 82  1  0
 79 78  2  0
 80 75  2  0
 80 79  1  0
 81 80  1  0
 83 84  1  0
 84 87  1  0
 84 86  1  0
 85 83  2  0
 88 89  1  0
 88 63  1  0
 90 88  1  0
M  ISO  4   7 101  10 101  53 100  61 100
M  END
>  <TORSDO>  (40) 
F 22

>  <SCORE>  (40) 
-14.305

>  <name>  (40) 
39

>  <ligand_id>  (40) 
39

>  <original_smiles>  (40) 
[H]c1c([H])c([H])c2c(c1[H])C([H])([H])C([H])([H])C([H])([H])C2([H])N([H])C(=O)C1([H])N(C(=O)C([H])(N([H])C(=O)C([H])(N([H])C([H])([H])[H])C([H])([H])[H])C(C([H])([H])[H])(C([H])([H])[H])C([H])([H])[H])C([H])([H])c2c([H])c(OC([H])(C([H])([H])C(=O)N(C([H])([H])C([H])([H])[H])C([H])([H])C([H])([H])N([H])C(=O)N3C([H])([H])C([H])([H])C([H])([H])C([H])(n4nc(-c5c([H])c([H])c(Oc6c([H])c([H])c(F)c([H])c6F)c([H])c5[H])c(C(=O)N([H])[H])c4N([H])[H])C3([H])[H])C([H])([H])C([H])([H])[H])c([H])c([H])c2C1([H])[H]

>  <smiles>  (40) 
[H]c1c([H])c([H])c2c(c1[H])C([H])([H])C([H])([H])C([H])([H])C2([H])N([H])C(=O)C1([H])N(C(=O)C([H])(N([H])C(=O)C([H])(N([H])C([H])([H])[H])C([H])([H])[H])C(C([H])([H])[H])(C([H])([H])[H])C([H])([H])[H])C([H])([H])c2c([H])c(OC([H])(C([H])([H])C(=O)N(C([H])([H])C([H])([H])[H])C([H])([H])C([H])([H])N([H])C(=O)N3C([H])([H])C([H])([H])C([H])([H])C([H])(n4nc(-c5c([H])c([H])c(Oc6c([H])c([H])c(F)c([H])c6F)c([H])c5[H])c(C(=O)N([H])[H])c4N([H])[H])C3([H])[H])C([H])([H])C([H])([H])[H])c([H])c([H])c2C1([H])[H]

$$$$
40:0:0
     RDKit          3D

 89 96  0  0  1  0  0  0  0  0999 V2000
  -28.8730  -21.1850   18.0190 C   0  0  0  0  0  1  0  0  0  0  0  0
  -28.5120  -21.6380   19.4660 C   0  0  0  0  0  3  0  0  0  0  0  0
  -29.2820  -20.9460   21.7830 C   0  0  0  0  0  1  0  0  0  0  0  0
  -29.3670  -20.6120   20.3450 N   0  0  1  0  0  4  0  0  0  0  0  0
  -30.3260  -20.8070   20.1080 H   0  0  0  0  0  0  0  0  0  0  0  0
  -29.1820  -19.0280   20.1050 C   0  0  0  0  0  3  0  0  0  0  0  0
  -30.1770  -17.7920   20.6900 C   0  0  0  0  0  3  0  0  0  0  0  0
  -30.6050  -15.0430   20.4800 C   0  0  0  0  0  0  0  0  0  0  0  0
  -30.5070  -12.6860   19.5570 C   0  0  0  0  0  2  0  0  0  0  0  0
  -29.6070  -12.6190   18.3050 C   0  0  0  0  0  2  0  0  0  0  0  0
  -28.1350  -12.4010   18.7030 C   0  0  0  0  0  2  0  0  0  0  0  0
  -27.6840  -13.3520   19.8420 C   0  0  0  0  0  3  0  0  0  0  0  0
  -28.7080  -13.3880   20.9960 C   0  0  0  0  0  2  0  0  0  0  0  0
  -29.9940  -13.7930   20.4110 N   0  0  0  0  0  0  0  0  0  0  0  0
  -31.8200  -15.0860   20.2620 O   0  0  0  0  0  0  0  0  0  0  0  0
  -29.8380  -16.2380   20.5880 N   0  0  0  0  0  0  0  0  0  0  0  0
  -28.8540  -16.0560   20.7170 H   0  0  0  0  0  0  0  0  0  0  0  0
  -25.2710  -13.9190   20.4920 C   0  0  0  0  0  0  0  0  0  0  0  0
  -24.1990  -13.1370   20.8410 C   0  0  0  0  0  0  0  0  0  0  0  0
  -24.6750  -11.7920   20.8400 C   0  0  0  0  0  0  0  0  0  0  0  0
  -26.3310  -13.0490   20.3020 N   0  0  0  0  0  0  0  0  0  0  0  0
  -25.9780  -11.7640   20.5770 N   0  0  0  0  0  0  0  0  0  0  0  0
  -23.9480  -10.5240   21.0220 C   0  0  0  0  0  0  0  0  0  0  0  0
  -24.3620   -9.5670   21.9740 C   0  0  0  0  0  3  0  0  0  0  0  0
  -23.6360   -8.3690   22.1440 C   0  0  0  0  0  3  0  0  0  0  0  0
  -22.4800   -8.1190   21.3650 C   0  0  0  0  0  0  0  0  0  0  0  0
  -22.0870   -9.0660   20.4030 C   0  0  0  0  0  3  0  0  0  0  0  0
  -22.8140  -10.2580   20.2300 C   0  0  0  0  0  3  0  0  0  0  0  0
  -21.7290   -6.9730   21.4450 O   0  0  0  0  0  0  0  0  0  0  0  0
  -21.6590   -6.2400   22.6030 C   0  0  0  0  0  0  0  0  0  0  0  0
  -21.2060   -6.8030   23.8170 C   0  0  0  0  0  3  0  0  0  0  0  0
  -21.0820   -5.9950   24.9650 C   0  0  0  0  0  3  0  0  0  0  0  0
  -21.3990   -4.6260   24.9000 C   0  0  0  0  0  0  0  0  0  0  0  0
  -21.8420   -4.0600   23.6920 C   0  0  0  0  0  3  0  0  0  0  0  0
  -21.9680   -4.8660   22.5450 C   0  0  0  0  0  0  0  0  0  0  0  0
  -22.3770   -4.3120   21.3790 F   0  0  0  0  0  0  0  0  0  0  0  0
  -21.2720   -3.8480   26.0010 F   0  0  0  0  0  0  0  0  0  0  0  0
  -22.7930  -13.6120   21.0580 C   0  0  0  0  0  0  0  0  0  0  0  0
  -22.0390  -12.9240   21.9110 N   0  0  0  0  0  0  0  0  0  0  0  0
  -22.3680  -14.6260   20.5090 O   0  0  0  0  0  0  0  0  0  0  0  0
  -22.3910  -12.0990   22.3720 H   0  0  0  0  0  0  0  0  0  0  0  0
  -21.0940  -13.2260   22.1040 H   0  0  0  0  0  0  0  0  0  0  0  0
  -25.4320  -15.2860   20.2950 N   0  0  0  0  0  0  0  0  0  0  0  0
  -24.6550  -15.9360   20.3390 H   0  0  0  0  0  0  0  0  0  0  0  0
  -26.2600  -15.6950   19.8840 H   0  0  0  0  0  0  0  0  0  0  0  0
  -27.2740  -23.7290   18.4440 C   0  0  0  0  0  1  0  0  0  0  0  0
  -28.4730  -23.3850   19.3820 C   0  0  0  0  0  3  0  0  0  0  0  0
  -28.2360  -24.6900   20.4310 C   0  0  0  0  0  2  0  0  0  0  0  0
  -28.3420  -26.2220   20.0730 O   0  0  0  0  0  0  0  0  0  0  0  0
  -24.7260  -31.9090   23.1840 C   0  0  0  0  0  0  0  0  0  0  0  0
  -27.2690  -27.1860   20.0980 C   0  0  0  0  0  0  0  0  0  0  0  0
  -23.5090  -30.5060   21.5730 C   0  0  0  0  0  3  0  0  0  0  0  0
  -24.9390  -28.9410   20.1060 C   0  0  0  0  0  0  0  0  0  0  0  0
  -26.0590  -30.7710   21.3620 C   0  0  0  0  0  2  0  0  0  0  0  0
  -26.1260  -29.3800   20.7050 C   0  0  0  0  0  0  0  0  0  0  0  0
  -27.2930  -28.5250   20.6780 C   0  0  0  0  0  3  0  0  0  0  0  0
  -26.0590  -26.8630   19.4530 C   0  0  0  0  0  3  0  0  0  0  0  0
  -24.9270  -27.7040   19.4480 C   0  0  0  0  0  3  0  0  0  0  0  0
  -23.7030  -29.8340   20.1860 C   0  0  0  0  0  2  0  0  0  0  0  0
  -24.7870  -31.0820   22.0940 N   0  0  0  0  0  0  0  0  0  0  0  0
  -23.6460  -32.1960   23.7250 O   0  0  0  0  0  0  0  0  0  0  0  0
  -22.8480  -29.5000   22.5460 C   0  0  0  0  0  0  0  0  0  0  0  0
  -21.5180  -29.3320   22.4330 N   0  0  0  0  0  0  0  0  0  0  0  0
  -23.5310  -28.8670   23.3520 O   0  0  0  0  0  0  0  0  0  0  0  0
  -21.0100  -29.9220   21.7890 H   0  0  0  0  0  0  0  0  0  0  0  0
  -18.1660  -28.0470   22.9220 C   0  0  0  0  0  0  0  0  0  0  0  0
  -20.7130  -28.3710   23.1910 C   0  0  0  0  0  3  0  0  0  0  0  0
  -20.8670  -26.9450   22.6100 C   0  0  0  0  0  2  0  0  0  0  0  0
  -19.7610  -26.5680   21.6190 C   0  0  0  0  0  2  0  0  0  0  0  0
  -18.3700  -26.7030   22.2440 C   0  0  0  0  0  2  0  0  0  0  0  0
  -19.2630  -28.8380   23.3450 C   0  0  0  0  0  0  0  0  0  0  0  0
  -19.0150  -30.1120   23.9120 C   0  0  0  0  0  3  0  0  0  0  0  0
  -17.6970  -30.5750   24.0850 C   0  0  0  0  0  3  0  0  0  0  0  0
  -16.6130  -29.7720   23.6880 C   0  0  0  0  0  3  0  0  0  0  0  0
  -16.8500  -28.5170   23.1040 C   0  0  0  0  0  3  0  0  0  0  0  0
  -26.0090  -32.5510   23.7880 C   0  0  0  0  0  3  0  0  0  0  0  0
  -25.6930  -33.9480   24.1380 N   0  0  0  0  0  0  0  0  0  0  0  0
  -26.0120  -35.0150   23.3950 C   0  0  0  0  0  0  0  0  0  0  0  0
  -26.6730  -34.9290   22.3560 O   0  0  0  0  0  0  0  0  0  0  0  0
  -25.0970  -34.0820   24.9400 H   0  0  0  0  0  0  0  0  0  0  0  0
  -24.2760  -36.8070   23.0820 C   0  0  0  0  0  1  0  0  0  0  0  0
  -25.5280  -36.3990   23.8760 C   0  0  0  0  0  3  0  0  0  0  0  0
  -27.6700  -37.2700   24.6960 C   0  0  0  0  0  1  0  0  0  0  0  0
  -26.5590  -37.4550   23.7640 N   0  0  0  0  0  0  0  0  0  0  0  0
  -26.1590  -38.3730   23.9240 H   0  0  0  0  0  0  0  0  0  0  0  0
  -26.5510  -31.7780   25.0530 C   0  0  1  0  0  0  0  0  0  0  0  0
  -25.4720  -31.5260   26.1340 C   0  0  0  0  0  1  0  0  0  0  0  0
  -27.1340  -30.4050   24.6480 C   0  0  0  0  0  1  0  0  0  0  0  0
  -27.7140  -32.5700   25.6900 C   0  0  0  0  0  1  0  0  0  0  0  0
  2  1  1  0
  2  4  1  0
  4  3  1  0
  4  5  1  6
  6  4  1  0
  6  7  2  0
  8 16  1  0
  9 14  1  0
 10 11  1  0
 10  9  1  0
 12 11  1  0
 12 21  1  0
 12 13  1  0
 14  8  1  0
 14 13  1  0
 15  8  2  0
 16  7  1  0
 16 17  1  0
 18 19  2  0
 19 38  1  0
 20 19  1  0
 20 23  1  0
 21 18  1  0
 21 22  1  0
 22 20  2  0
 23 24  1  0
 24 25  2  0
 26 29  1  0
 26 25  1  0
 27 26  2  0
 28 27  1  0
 28 23  2  0
 29 30  1  0
 30 31  1  0
 31 32  2  0
 33 32  1  0
 33 37  1  0
 34 33  2  0
 35 30  2  0
 35 34  1  0
 36 35  1  0
 38 39  1  0
 39 42  1  0
 39 41  1  0
 40 38  2  0
 43 44  1  0
 43 18  1  0
 45 43  1  0
 47 46  1  0
 47  2  1  0
 47 48  1  0
 49 51  1  0
 49 48  1  0
 50 61  2  0
 51 56  1  0
 52 60  1  0
 52 62  1  0
 53 59  1  0
 53 55  1  0
 54 60  1  0
 55 54  1  0
 56 55  2  0
 57 51  2  0
 58 57  1  0
 58 53  2  0
 59 52  1  0
 60 50  1  0
 62 64  2  0
 63 62  1  0
 65 63  1  0
 66 75  2  0
 66 71  1  0
 67 63  1  0
 67 71  1  0
 68 67  1  0
 69 70  1  0
 69 68  1  0
 70 66  1  0
 71 72  2  0
 72 73  1  0
 74 73  2  0
 75 74  1  0
 76 50  1  0
 76 77  1  0
 76 86  1  0
 77 80  1  0
 78 82  1  0
 78 77  1  0
 79 78  2  0
 82 81  1  0
 84 82  1  0
 84 85  1  0
 84 83  1  0
 86 89  1  1
 86 87  1  0
 88 86  1  0
M  ISO  4   8 100  16 100  48 101  49 101
M  END
>  <TORSDO>  (41) 
F 21

>  <SCORE>  (41) 
-13.539

>  <name>  (41) 
40

>  <ligand_id>  (41) 
40

>  <original_smiles>  (41) 
[H]c1c([H])c([H])c2c(c1[H])C([H])([H])C([H])([H])C([H])([H])C2([H])N([H])C(=O)C1([H])N(C(=O)C([H])(N([H])C(=O)C([H])(N([H])C([H])([H])[H])C([H])([H])[H])C(C([H])([H])[H])(C([H])([H])[H])C([H])([H])[H])C([H])([H])c2c([H])c(OC([H])([H])C([H])(C([H])([H])[H])C([H])(C([H])([H])[H])[N+]([H])(C([H])([H])[H])C([H])([H])C([H])([H])N([H])C(=O)N3C([H])([H])C([H])([H])C([H])([H])C([H])(n4nc(-c5c([H])c([H])c(Oc6c([H])c([H])c(F)c([H])c6F)c([H])c5[H])c(C(=O)N([H])[H])c4N([H])[H])C3([H])[H])c([H])c([H])c2C1([H])[H]

>  <smiles>  (41) 
[H]c1c([H])c([H])c2c(c1[H])C([H])([H])C([H])([H])C([H])([H])C2([H])N([H])C(=O)C1([H])N(C(=O)C([H])(N([H])C(=O)C([H])(N([H])C([H])([H])[H])C([H])([H])[H])C(C([H])([H])[H])(C([H])([H])[H])C([H])([H])[H])C([H])([H])c2c([H])c(OC([H])([H])C([H])(C([H])([H])[H])C([H])(C([H])([H])[H])[N+]([H])(C([H])([H])[H])C([H])([H])C([H])([H])N([H])C(=O)N3C([H])([H])C([H])([H])C([H])([H])C([H])(n4nc(-c5c([H])c([H])c(Oc6c([H])c([H])c(F)c([H])c6F)c([H])c5[H])c(C(=O)N([H])[H])c4N([H])[H])C3([H])[H])c([H])c([H])c2C1([H])[H]

$$$$
41:0:0
     RDKit          3D

 93100  0  0  1  0  0  0  0  0999 V2000
  -30.1160  -18.9130   20.1730 C   0  0  2  0  0  0  0  0  0  0  0  0
  -30.5900  -15.7620   20.3160 C   0  0  0  0  0  0  0  0  0  0  0  0
  -30.5930  -13.2680   19.4010 C   0  0  0  0  0  2  0  0  0  0  0  0
  -29.6970  -13.0100   18.1580 C   0  0  0  0  0  2  0  0  0  0  0  0
  -28.2630  -12.6670   18.5870 C   0  0  0  0  0  2  0  0  0  0  0  0
  -27.7840  -13.5870   19.7350 C   0  0  0  0  0  3  0  0  0  0  0  0
  -28.8280  -13.8140   20.8560 C   0  0  0  0  0  2  0  0  0  0  0  0
  -30.0200  -14.4240   20.2270 N   0  0  0  0  0  0  0  0  0  0  0  0
  -31.7970  -15.6650   20.0520 O   0  0  0  0  0  0  0  0  0  0  0  0
  -29.9010  -17.1540   20.4510 N   0  0  0  0  0  0  0  0  0  0  0  0
  -28.9640  -16.9880   20.7950 H   0  0  0  0  0  0  0  0  0  0  0  0
  -25.4150  -14.0630   20.5120 C   0  0  0  0  0  0  0  0  0  0  0  0
  -24.3730  -13.2620   20.8730 C   0  0  0  0  0  0  0  0  0  0  0  0
  -24.8670  -11.9200   20.8220 C   0  0  0  0  0  0  0  0  0  0  0  0
  -26.4740  -13.2170   20.2500 N   0  0  0  0  0  0  0  0  0  0  0  0
  -26.1590  -11.9190   20.5030 N   0  0  0  0  0  0  0  0  0  0  0  0
  -24.1620  -10.6430   21.0010 C   0  0  0  0  0  0  0  0  0  0  0  0
  -24.5690   -9.7000   21.9700 C   0  0  0  0  0  3  0  0  0  0  0  0
  -23.8610   -8.4900   22.1380 C   0  0  0  0  0  3  0  0  0  0  0  0
  -22.7300   -8.2140   21.3340 C   0  0  0  0  0  0  0  0  0  0  0  0
  -22.3420   -9.1440   20.3540 C   0  0  0  0  0  3  0  0  0  0  0  0
  -23.0510  -10.3450   20.1860 C   0  0  0  0  0  3  0  0  0  0  0  0
  -21.9950   -7.0550   21.4080 O   0  0  0  0  0  0  0  0  0  0  0  0
  -21.8600   -6.3600   22.5830 C   0  0  0  0  0  0  0  0  0  0  0  0
  -21.2780   -6.9420   23.7310 C   0  0  0  0  0  3  0  0  0  0  0  0
  -21.1010   -6.1720   24.8970 C   0  0  0  0  0  3  0  0  0  0  0  0
  -21.4890   -4.8180   24.9140 C   0  0  0  0  0  0  0  0  0  0  0  0
  -22.0600   -4.2350   23.7700 C   0  0  0  0  0  3  0  0  0  0  0  0
  -22.2430   -5.0040   22.6060 C   0  0  0  0  0  0  0  0  0  0  0  0
  -22.7780   -4.4310   21.5000 F   0  0  0  0  0  0  0  0  0  0  0  0
  -21.3090   -4.0740   26.0320 F   0  0  0  0  0  0  0  0  0  0  0  0
  -22.9690  -13.7060   21.1540 C   0  0  0  0  0  0  0  0  0  0  0  0
  -22.2620  -12.9920   22.0210 N   0  0  0  0  0  0  0  0  0  0  0  0
  -22.5100  -14.7250   20.6350 O   0  0  0  0  0  0  0  0  0  0  0  0
  -22.6530  -12.1710   22.4580 H   0  0  0  0  0  0  0  0  0  0  0  0
  -21.3180  -13.2670   22.2530 H   0  0  0  0  0  0  0  0  0  0  0  0
  -25.5500  -15.4420   20.3530 N   0  0  0  0  0  0  0  0  0  0  0  0
  -24.7600  -16.0700   20.4520 H   0  0  0  0  0  0  0  0  0  0  0  0
  -26.3770  -15.9040   20.0020 H   0  0  0  0  0  0  0  0  0  0  0  0
  -31.3900  -18.7890   22.4170 C   0  0  0  0  0  1  0  0  0  0  0  0
  -32.7640  -18.7430   20.2900 C   0  0  0  0  0  1  0  0  0  0  0  0
  -31.7670  -20.8040   21.0470 C   0  0  0  0  0  1  0  0  0  0  0  0
  -31.4700  -19.2870   20.9510 C   0  0  1  0  0  0  0  0  0  0  0  0
  -29.0320  -20.5140   20.3730 C   0  0  0  0  0  2  0  0  0  0  0  0
  -29.3620  -22.4570   18.4470 C   0  0  0  0  0  1  0  0  0  0  0  0
  -29.1050  -22.4140   19.9660 C   0  0  0  0  0  3  0  0  0  0  0  0
  -28.1050  -24.0360   20.2180 C   0  0  0  0  0  2  0  0  0  0  0  0
  -28.2710  -25.7700   20.1730 O   0  0  0  0  0  0  0  0  0  0  0  0
  -24.6640  -31.9380   23.1830 C   0  0  0  0  0  0  0  0  0  0  0  0
  -27.2610  -26.9360   20.1710 C   0  0  0  0  0  0  0  0  0  0  0  0
  -23.4890  -30.5290   21.5440 C   0  0  0  0  0  3  0  0  0  0  0  0
  -24.9520  -28.9000   20.1370 C   0  0  0  0  0  0  0  0  0  0  0  0
  -26.0640  -30.7140   21.4160 C   0  0  0  0  0  2  0  0  0  0  0  0
  -26.1450  -29.2860   20.7590 C   0  0  0  0  0  0  0  0  0  0  0  0
  -27.2890  -28.3330   20.7380 C   0  0  0  0  0  3  0  0  0  0  0  0
  -26.0250  -26.7460   19.5060 C   0  0  0  0  0  3  0  0  0  0  0  0
  -24.9250  -27.6540   19.4890 C   0  0  0  0  0  3  0  0  0  0  0  0
  -23.7340  -29.8330   20.1760 C   0  0  0  0  0  2  0  0  0  0  0  0
  -24.7630  -31.0930   22.1010 N   0  0  0  0  0  0  0  0  0  0  0  0
  -23.5680  -32.2250   23.6940 O   0  0  0  0  0  0  0  0  0  0  0  0
  -22.7850  -29.5430   22.5150 C   0  0  0  0  0  0  0  0  0  0  0  0
  -21.4640  -29.3340   22.3580 N   0  0  0  0  0  0  0  0  0  0  0  0
  -23.4390  -28.9620   23.3850 O   0  0  0  0  0  0  0  0  0  0  0  0
  -20.9830  -29.8610   21.6440 H   0  0  0  0  0  0  0  0  0  0  0  0
  -18.1190  -27.9790   22.7790 C   0  0  0  0  0  0  0  0  0  0  0  0
  -20.6510  -28.3810   23.1250 C   0  0  0  0  0  3  0  0  0  0  0  0
  -20.8400  -26.9370   22.6030 C   0  0  0  0  0  2  0  0  0  0  0  0
  -19.7950  -26.5310   21.5580 C   0  0  0  0  0  2  0  0  0  0  0  0
  -18.3860  -26.6230   22.1470 C   0  0  0  0  0  2  0  0  0  0  0  0
  -19.1810  -28.8100   23.2220 C   0  0  0  0  0  0  0  0  0  0  0  0
  -18.8730  -30.0720   23.7770 C   0  0  0  0  0  3  0  0  0  0  0  0
  -17.5380  -30.5040   23.8910 C   0  0  0  0  0  3  0  0  0  0  0  0
  -16.4910  -29.6730   23.4560 C   0  0  0  0  0  3  0  0  0  0  0  0
  -16.7820  -28.4110   22.9080 C   0  0  0  0  0  3  0  0  0  0  0  0
  -25.9220  -32.5970   23.8240 C   0  0  0  0  0  3  0  0  0  0  0  0
  -25.5890  -33.9990   24.1460 N   0  0  0  0  0  0  0  0  0  0  0  0
  -25.9500  -35.0660   23.4190 C   0  0  0  0  0  0  0  0  0  0  0  0
  -26.6560  -34.9750   22.4110 O   0  0  0  0  0  0  0  0  0  0  0  0
  -24.9690  -34.1430   24.9290 H   0  0  0  0  0  0  0  0  0  0  0  0
  -24.2600  -36.8930   23.0170 C   0  0  0  0  0  1  0  0  0  0  0  0
  -25.4550  -36.4530   23.8790 C   0  0  0  0  0  3  0  0  0  0  0  0
  -27.5470  -37.3160   24.8380 C   0  0  0  0  0  1  0  0  0  0  0  0
  -26.5010  -37.5000   23.8360 N   0  0  0  0  0  0  0  0  0  0  0  0
  -26.0940  -38.4210   23.9710 H   0  0  0  0  0  0  0  0  0  0  0  0
  -26.4190  -31.8520   25.1260 C   0  0  1  0  0  0  0  0  0  0  0  0
  -25.2990  -31.5880   26.1590 C   0  0  0  0  0  1  0  0  0  0  0  0
  -27.0600  -30.4890   24.7760 C   0  0  0  0  0  1  0  0  0  0  0  0
  -27.5210  -32.6880   25.8190 C   0  0  0  0  0  1  0  0  0  0  0  0
  -30.2620  -18.9680   18.6130 C   0  0  0  0  0  2  0  0  0  0  0  0
  -31.0430  -17.7380   16.5660 C   0  0  0  0  0  1  0  0  0  0  0  0
  -31.0300  -17.8450   18.0360 N   0  0  0  0  0  4  0  0  0  0  0  0
  -31.9730  -17.8700   18.3870 H   0  0  0  0  0  0  0  0  0  0  0  0
  -30.5940  -17.0190   18.4070 H   0  0  0  0  0  0  0  0  0  0  0  0
  1 89  1  6
  1 44  1  0
  1 10  1  0
  1 43  1  0
  2 10  1  0
  3  8  1  0
  4  5  1  0
  4  3  1  0
  6  5  1  0
  6 15  1  0
  6  7  1  0
  8  2  1  0
  8  7  1  0
  9  2  2  0
 10 11  1  0
 12 13  2  0
 13 32  1  0
 14 13  1  0
 14 17  1  0
 15 16  1  0
 15 12  1  0
 16 14  2  0
 17 18  1  0
 18 19  2  0
 20 23  1  0
 20 19  1  0
 21 20  2  0
 22 21  1  0
 22 17  2  0
 23 24  1  0
 24 29  2  0
 24 25  1  0
 25 26  2  0
 26 27  1  0
 27 31  1  0
 28 27  2  0
 29 28  1  0
 30 29  1  0
 32 33  1  0
 33 36  1  0
 33 35  1  0
 34 32  2  0
 37 38  1  0
 37 12  1  0
 39 37  1  0
 43 41  1  6
 43 42  1  0
 43 40  1  0
 46 45  1  0
 46 47  1  0
 46 44  1  0
 48 47  1  0
 49 60  2  0
 50 48  1  0
 50 55  1  0
 51 59  1  0
 51 61  1  0
 52 58  1  0
 52 54  1  0
 53 59  1  0
 54 53  1  0
 55 54  2  0
 56 50  2  0
 57 56  1  0
 57 52  2  0
 58 51  1  0
 59 49  1  0
 61 63  2  0
 62 61  1  0
 64 62  1  0
 65 74  2  0
 65 70  1  0
 66 62  1  0
 66 70  1  0
 67 66  1  0
 68 69  1  0
 68 67  1  0
 69 65  1  0
 70 71  2  0
 71 72  1  0
 73 72  2  0
 74 73  1  0
 75 49  1  0
 75 76  1  0
 75 85  1  0
 76 79  1  0
 77 81  1  0
 77 76  1  0
 78 77  2  0
 81 80  1  0
 83 81  1  0
 83 84  1  0
 83 82  1  0
 85 88  1  1
 85 86  1  0
 87 85  1  0
 90 91  1  0
 91 92  1  0
 91 93  1  0
 91 89  1  0
M  ISO  4   2 100  10 100  47 101  48 101
M  END
>  <TORSDO>  (42) 
F 22

>  <SCORE>  (42) 
-15.101

>  <name>  (42) 
41

>  <ligand_id>  (42) 
41

>  <original_smiles>  (42) 
[H]c1c([H])c([H])c2c(c1[H])C([H])([H])C([H])([H])C([H])([H])C2([H])N([H])C(=O)C1([H])N(C(=O)C([H])(N([H])C(=O)C([H])(N([H])C([H])([H])[H])C([H])([H])[H])C(C([H])([H])[H])(C([H])([H])[H])C([H])([H])[H])C([H])([H])c2c([H])c(OC([H])([H])C([H])(C([H])([H])[H])C([H])([H])C(N([H])C(=O)N3C([H])([H])C([H])([H])C([H])([H])C([H])(n4nc(-c5c([H])c([H])c(Oc6c([H])c([H])c(F)c([H])c6F)c([H])c5[H])c(C(=O)N([H])[H])c4N([H])[H])C3([H])[H])(C(C([H])([H])[H])(C([H])([H])[H])C([H])([H])[H])C([H])([H])[N+]([H])([H])C([H])([H])[H])c([H])c([H])c2C1([H])[H]

>  <smiles>  (42) 
[H]c1c([H])c([H])c2c(c1[H])C([H])([H])C([H])([H])C([H])([H])C2([H])N([H])C(=O)C1([H])N(C(=O)C([H])(N([H])C(=O)C([H])(N([H])C([H])([H])[H])C([H])([H])[H])C(C([H])([H])[H])(C([H])([H])[H])C([H])([H])[H])C([H])([H])c2c([H])c(OC([H])([H])C([H])(C([H])([H])[H])C([H])([H])C(N([H])C(=O)N3C([H])([H])C([H])([H])C([H])([H])C([H])(n4nc(-c5c([H])c([H])c(Oc6c([H])c([H])c(F)c([H])c6F)c([H])c5[H])c(C(=O)N([H])[H])c4N([H])[H])C3([H])[H])(C(C([H])([H])[H])(C([H])([H])[H])C([H])([H])[H])C([H])([H])[N+]([H])([H])C([H])([H])[H])c([H])c([H])c2C1([H])[H]

$$$$
42:0:0
     RDKit          3D

 93101  0  0  1  0  0  0  0  0999 V2000
  -28.5620  -22.5840   21.8930 C   0  0  0  0  0  2  0  0  0  0  0  0
  -29.8940  -22.8080   19.8100 C   0  0  0  0  0  2  0  0  0  0  0  0
  -28.5710  -20.9830   21.7620 C   0  0  0  0  0  2  0  0  0  0  0  0
  -30.4290  -21.3310   20.2180 C   0  0  0  0  0  2  0  0  0  0  0  0
  -28.5960  -23.3360   20.5370 C   0  0  0  0  0  3  0  0  0  0  0  0
  -29.3860  -20.3280   20.6580 N   0  0  1  0  0  4  0  0  0  0  0  0
  -28.7670  -20.2570   19.8660 H   0  0  0  0  0  0  0  0  0  0  0  0
  -29.7510  -18.8370   21.0200 C   0  0  0  0  0  2  0  0  0  0  0  0
  -30.1500  -17.6370   19.9640 C   0  0  0  0  0  2  0  0  0  0  0  0
  -30.6580  -14.9890   20.0080 C   0  0  0  0  0  0  0  0  0  0  0  0
  -30.3910  -12.7090   18.9760 C   0  0  0  0  0  2  0  0  0  0  0  0
  -29.3890  -12.7790   17.8020 C   0  0  0  0  0  2  0  0  0  0  0  0
  -27.9490  -12.5810   18.3030 C   0  0  0  0  0  2  0  0  0  0  0  0
  -27.6370  -13.4420   19.5510 C   0  0  0  0  0  3  0  0  0  0  0  0
  -28.7580  -13.3760   20.6150 C   0  0  0  0  0  2  0  0  0  0  0  0
  -30.0180  -13.7590   19.9620 N   0  0  0  0  0  0  0  0  0  0  0  0
  -31.8070  -15.0840   19.5720 O   0  0  0  0  0  0  0  0  0  0  0  0
  -29.9330  -16.1390   20.3340 N   0  0  0  0  0  0  0  0  0  0  0  0
  -29.0120  -15.9280   20.6870 H   0  0  0  0  0  0  0  0  0  0  0  0
  -25.2920  -13.9920   20.4290 C   0  0  0  0  0  0  0  0  0  0  0  0
  -24.2540  -13.1990   20.8420 C   0  0  0  0  0  0  0  0  0  0  0  0
  -24.7230  -11.8520   20.7520 C   0  0  0  0  0  0  0  0  0  0  0  0
  -26.3250  -13.1270   20.1140 N   0  0  0  0  0  0  0  0  0  0  0  0
  -25.9960  -11.8340   20.3730 N   0  0  0  0  0  0  0  0  0  0  0  0
  -24.0160  -10.5780   20.9500 C   0  0  0  0  0  0  0  0  0  0  0  0
  -24.4530   -9.6350   21.9060 C   0  0  0  0  0  3  0  0  0  0  0  0
  -23.7470   -8.4280   22.0960 C   0  0  0  0  0  3  0  0  0  0  0  0
  -22.5890   -8.1570   21.3290 C   0  0  0  0  0  0  0  0  0  0  0  0
  -22.1730   -9.0870   20.3600 C   0  0  0  0  0  3  0  0  0  0  0  0
  -22.8800  -10.2850   20.1700 C   0  0  0  0  0  3  0  0  0  0  0  0
  -21.8550   -7.0000   21.4260 O   0  0  0  0  0  0  0  0  0  0  0  0
  -21.7310   -6.3190   22.6110 C   0  0  0  0  0  0  0  0  0  0  0  0
  -21.1870   -6.9270   23.7630 C   0  0  0  0  0  3  0  0  0  0  0  0
  -21.0180   -6.1750   24.9420 C   0  0  0  0  0  3  0  0  0  0  0  0
  -21.3730   -4.8140   24.9660 C   0  0  0  0  0  0  0  0  0  0  0  0
  -21.9050   -4.2020   23.8160 C   0  0  0  0  0  3  0  0  0  0  0  0
  -22.0770   -4.9540   22.6400 C   0  0  0  0  0  0  0  0  0  0  0  0
  -22.5730   -4.3560   21.5300 F   0  0  0  0  0  0  0  0  0  0  0  0
  -21.1980   -4.0870   26.0950 F   0  0  0  0  0  0  0  0  0  0  0  0
  -22.8690  -13.6530   21.2010 C   0  0  0  0  0  0  0  0  0  0  0  0
  -22.1990  -12.9270   22.0900 N   0  0  0  0  0  0  0  0  0  0  0  0
  -22.3900  -14.6820   20.7260 O   0  0  0  0  0  0  0  0  0  0  0  0
  -22.6080  -12.0980   22.4950 H   0  0  0  0  0  0  0  0  0  0  0  0
  -21.2640  -13.1980   22.3650 H   0  0  0  0  0  0  0  0  0  0  0  0
  -25.4400  -15.3680   20.2690 N   0  0  0  0  0  0  0  0  0  0  0  0
  -24.6820  -16.0250   20.4220 H   0  0  0  0  0  0  0  0  0  0  0  0
  -26.2610  -15.8010   19.8640 H   0  0  0  0  0  0  0  0  0  0  0  0
  -27.6870  -24.7030   20.1660 C   0  0  0  0  0  3  0  0  0  0  0  0
  -28.0370  -26.2380   20.2130 O   0  0  0  0  0  0  0  0  0  0  0  0
  -24.5110  -31.9920   23.2790 C   0  0  0  0  0  0  0  0  0  0  0  0
  -27.0230  -27.2800   20.1750 C   0  0  0  0  0  0  0  0  0  0  0  0
  -23.2880  -30.6120   21.6530 C   0  0  0  0  0  3  0  0  0  0  0  0
  -24.7140  -29.0650   20.2080 C   0  0  0  0  0  0  0  0  0  0  0  0
  -25.8500  -30.8520   21.4790 C   0  0  0  0  0  2  0  0  0  0  0  0
  -25.9030  -29.4640   20.8300 C   0  0  0  0  0  0  0  0  0  0  0  0
  -27.0500  -28.5780   20.8300 C   0  0  0  0  0  3  0  0  0  0  0  0
  -25.8420  -27.0860   19.4230 C   0  0  0  0  0  3  0  0  0  0  0  0
  -24.6950  -27.8760   19.4910 C   0  0  0  0  0  3  0  0  0  0  0  0
  -23.4950  -29.9610   20.2650 C   0  0  0  0  0  2  0  0  0  0  0  0
  -24.5690  -31.1720   22.1900 N   0  0  0  0  0  0  0  0  0  0  0  0
  -23.4310  -32.2800   23.8150 O   0  0  0  0  0  0  0  0  0  0  0  0
  -22.6180  -29.5900   22.6050 C   0  0  0  0  0  0  0  0  0  0  0  0
  -21.2990  -29.3780   22.4510 N   0  0  0  0  0  0  0  0  0  0  0  0
  -23.2900  -28.9930   23.4490 O   0  0  0  0  0  0  0  0  0  0  0  0
  -20.8120  -29.9150   21.7460 H   0  0  0  0  0  0  0  0  0  0  0  0
  -17.9500  -28.0690   22.8620 C   0  0  0  0  0  0  0  0  0  0  0  0
  -20.4850  -28.4340   23.2200 C   0  0  0  0  0  3  0  0  0  0  0  0
  -20.6610  -26.9900   22.6970 C   0  0  0  0  0  2  0  0  0  0  0  0
  -19.6130  -26.5940   21.6530 C   0  0  0  0  0  2  0  0  0  0  0  0
  -18.2020  -26.7060   22.2370 C   0  0  0  0  0  2  0  0  0  0  0  0
  -19.0230  -28.8860   23.3100 C   0  0  0  0  0  0  0  0  0  0  0  0
  -18.7320  -30.1580   23.8520 C   0  0  0  0  0  3  0  0  0  0  0  0
  -17.4040  -30.6140   23.9500 C   0  0  0  0  0  3  0  0  0  0  0  0
  -16.3460  -29.7930   23.5240 C   0  0  0  0  0  3  0  0  0  0  0  0
  -16.6190  -28.5240   22.9840 C   0  0  0  0  0  3  0  0  0  0  0  0
  -25.7990  -32.6190   23.8880 C   0  0  0  0  0  3  0  0  0  0  0  0
  -25.4960  -34.0170   24.2280 N   0  0  0  0  0  0  0  0  0  0  0  0
  -25.7990  -35.0720   23.4610 C   0  0  0  0  0  0  0  0  0  0  0  0
  -26.4330  -34.9740   22.4080 O   0  0  0  0  0  0  0  0  0  0  0  0
  -24.9360  -34.1690   25.0520 H   0  0  0  0  0  0  0  0  0  0  0  0
  -24.0440  -36.8510   23.1820 C   0  0  0  0  0  1  0  0  0  0  0  0
  -25.3220  -36.4590   23.9380 C   0  0  0  0  0  3  0  0  0  0  0  0
  -27.4820  -37.3610   24.6790 C   0  0  0  0  0  1  0  0  0  0  0  0
  -26.3410  -37.5190   23.7810 N   0  0  0  0  0  0  0  0  0  0  0  0
  -25.9360  -38.4380   23.9420 H   0  0  0  0  0  0  0  0  0  0  0  0
  -26.3190  -31.8440   25.1580 C   0  0  1  0  0  0  0  0  0  0  0  0
  -25.2250  -31.5920   26.2210 C   0  0  0  0  0  1  0  0  0  0  0  0
  -26.9140  -30.4730   24.7630 C   0  0  0  0  0  1  0  0  0  0  0  0
  -27.4660  -32.6390   25.8250 C   0  0  0  0  0  1  0  0  0  0  0  0
  -26.8020  -24.3430   18.8990 C   0  0  0  0  0  2  0  0  0  0  0  0
  -25.6020  -22.0470   19.2480 C   0  0  0  0  0  1  0  0  0  0  0  0
  -25.8340  -23.0370   16.9580 C   0  0  0  0  0  1  0  0  0  0  0  0
  -26.5120  -22.9150   18.3310 C   0  0  0  0  0  3  0  0  0  0  0  0
  2  4  1  0
  2  5  1  0
  3  1  1  0
  4  6  1  0
  5 48  1  0
  5  1  1  0
  6  8  1  0
  6  3  1  0
  6  7  1  6
  9 18  1  0
  9  8  1  0
 10 18  1  0
 11 16  1  0
 12 13  1  0
 12 11  1  0
 14 13  1  0
 14 23  1  0
 14 15  1  0
 16 10  1  0
 16 15  1  0
 17 10  2  0
 18 19  1  0
 20 21  2  0
 21 40  1  0
 22 21  1  0
 22 25  1  0
 23 24  1  0
 23 20  1  0
 24 22  2  0
 25 26  1  0
 26 27  2  0
 28 31  1  0
 28 27  1  0
 29 28  2  0
 30 29  1  0
 30 25  2  0
 31 32  1  0
 32 37  2  0
 32 33  1  0
 33 34  2  0
 34 35  1  0
 35 39  1  0
 36 35  2  0
 37 36  1  0
 38 37  1  0
 40 41  1  0
 41 44  1  0
 41 43  1  0
 42 40  2  0
 45 46  1  0
 45 20  1  0
 47 45  1  0
 48 90  1  0
 48 49  1  0
 50 61  2  0
 51 49  1  0
 51 56  1  0
 52 60  1  0
 52 62  1  0
 53 59  1  0
 53 55  1  0
 54 60  1  0
 55 54  1  0
 56 55  2  0
 57 58  1  0
 57 51  2  0
 58 53  2  0
 59 52  1  0
 60 50  1  0
 62 64  2  0
 63 62  1  0
 65 63  1  0
 66 75  2  0
 66 71  1  0
 67 63  1  0
 67 71  1  0
 68 67  1  0
 69 70  1  0
 69 68  1  0
 70 66  1  0
 71 72  2  0
 72 73  1  0
 74 73  2  0
 75 74  1  0
 76 50  1  0
 76 77  1  0
 76 86  1  0
 77 80  1  0
 78 82  1  0
 78 77  1  0
 79 78  2  0
 82 81  1  0
 84 82  1  0
 84 85  1  0
 84 83  1  0
 86 89  1  1
 86 87  1  0
 88 86  1  0
 92 93  1  0
 93 90  1  0
 93 91  1  0
M  ISO  4  10 100  18 100  48 101  49 101
M  END
>  <TORSDO>  (43) 
F 21

>  <SCORE>  (43) 
-12.328

>  <name>  (43) 
42

>  <ligand_id>  (43) 
42

>  <original_smiles>  (43) 
[H]c1c([H])c([H])c2c(c1[H])C([H])([H])C([H])([H])C([H])([H])C2([H])N([H])C(=O)C1([H])N(C(=O)C([H])(N([H])C(=O)C([H])(N([H])C([H])([H])[H])C([H])([H])[H])C(C([H])([H])[H])(C([H])([H])[H])C([H])([H])[H])C([H])([H])c2c([H])c(OC([H])(C([H])([H])C([H])(C([H])([H])[H])C([H])([H])[H])C3([H])C([H])([H])C([H])([H])[N+]([H])(C([H])([H])C([H])([H])N([H])C(=O)N4C([H])([H])C([H])([H])C([H])([H])C([H])(n5nc(-c6c([H])c([H])c(Oc7c([H])c([H])c(F)c([H])c7F)c([H])c6[H])c(C(=O)N([H])[H])c5N([H])[H])C4([H])[H])C([H])([H])C3([H])[H])c([H])c([H])c2C1([H])[H]

>  <smiles>  (43) 
[H]c1c([H])c([H])c2c(c1[H])C([H])([H])C([H])([H])C([H])([H])C2([H])N([H])C(=O)C1([H])N(C(=O)C([H])(N([H])C(=O)C([H])(N([H])C([H])([H])[H])C([H])([H])[H])C(C([H])([H])[H])(C([H])([H])[H])C([H])([H])[H])C([H])([H])c2c([H])c(OC([H])(C([H])([H])C([H])(C([H])([H])[H])C([H])([H])[H])C3([H])C([H])([H])C([H])([H])[N+]([H])(C([H])([H])C([H])([H])N([H])C(=O)N4C([H])([H])C([H])([H])C([H])([H])C([H])(n5nc(-c6c([H])c([H])c(Oc7c([H])c([H])c(F)c([H])c7F)c([H])c6[H])c(C(=O)N([H])[H])c5N([H])[H])C4([H])[H])C([H])([H])C3([H])[H])c([H])c([H])c2C1([H])[H]

$$$$
43:0:0
     RDKit          3D

 94102  0  0  1  0  0  0  0  0999 V2000
  -30.7580  -15.1240   20.5500 C   0  0  0  0  0  0  0  0  0  0  0  0
  -30.4470  -12.9270   19.3400 C   0  0  0  0  0  2  0  0  0  0  0  0
  -29.5170  -13.0300   18.1140 C   0  0  0  0  0  2  0  0  0  0  0  0
  -28.0470  -12.8520   18.5370 C   0  0  0  0  0  2  0  0  0  0  0  0
  -27.6780  -13.6790   19.7970 C   0  0  0  0  0  3  0  0  0  0  0  0
  -28.7400  -13.5680   20.9070 C   0  0  0  0  0  2  0  0  0  0  0  0
  -30.0090  -13.9810   20.2960 N   0  0  0  0  0  0  0  0  0  0  0  0
  -31.9810  -14.9520   20.5280 O   0  0  0  0  0  0  0  0  0  0  0  0
  -31.8670  -18.2340   19.4460 C   0  0  0  0  0  2  0  0  0  0  0  0
  -31.0110  -19.4560   19.8090 C   0  0  0  0  0  2  0  0  0  0  0  0
  -29.5330  -17.5910   20.9410 C   0  0  0  0  0  2  0  0  0  0  0  0
  -31.0310  -16.9960   19.0160 C   0  0  0  0  0  3  0  0  0  0  0  0
  -30.0710  -19.1950   20.9920 C   0  0  0  0  0  3  0  0  0  0  0  0
  -30.2960  -16.4340   20.1860 N   0  0  0  0  0  0  0  0  0  0  0  0
  -25.2790  -14.2570   20.4630 C   0  0  0  0  0  0  0  0  0  0  0  0
  -24.2070  -13.4810   20.8100 C   0  0  0  0  0  0  0  0  0  0  0  0
  -24.6800  -12.1330   20.8280 C   0  0  0  0  0  0  0  0  0  0  0  0
  -26.3330  -13.3810   20.2740 N   0  0  0  0  0  0  0  0  0  0  0  0
  -25.9820  -12.1000   20.5650 N   0  0  0  0  0  0  0  0  0  0  0  0
  -23.9540  -10.8690   21.0150 C   0  0  0  0  0  0  0  0  0  0  0  0
  -24.3620   -9.9190   21.9760 C   0  0  0  0  0  3  0  0  0  0  0  0
  -23.6340   -8.7220   22.1520 C   0  0  0  0  0  3  0  0  0  0  0  0
  -22.4850   -8.4670   21.3660 C   0  0  0  0  0  0  0  0  0  0  0  0
  -22.0990   -9.4050   20.3930 C   0  0  0  0  0  3  0  0  0  0  0  0
  -22.8270  -10.5940   20.2160 C   0  0  0  0  0  3  0  0  0  0  0  0
  -21.7330   -7.3200   21.4500 O   0  0  0  0  0  0  0  0  0  0  0  0
  -21.6600   -6.5900   22.6090 C   0  0  0  0  0  0  0  0  0  0  0  0
  -21.2350   -7.1640   23.8270 C   0  0  0  0  0  3  0  0  0  0  0  0
  -21.1060   -6.3600   24.9780 C   0  0  0  0  0  3  0  0  0  0  0  0
  -21.3940   -4.9840   24.9120 C   0  0  0  0  0  0  0  0  0  0  0  0
  -21.8110   -4.4090   23.7000 C   0  0  0  0  0  3  0  0  0  0  0  0
  -21.9410   -5.2090   22.5510 C   0  0  0  0  0  0  0  0  0  0  0  0
  -22.3220   -4.6450   21.3790 F   0  0  0  0  0  0  0  0  0  0  0  0
  -21.2640   -4.2110   26.0160 F   0  0  0  0  0  0  0  0  0  0  0  0
  -22.7960  -13.9520   21.0120 C   0  0  0  0  0  0  0  0  0  0  0  0
  -22.0480  -13.2850   21.8830 N   0  0  0  0  0  0  0  0  0  0  0  0
  -22.3650  -14.9470   20.4300 O   0  0  0  0  0  0  0  0  0  0  0  0
  -22.4100  -12.4810   22.3760 H   0  0  0  0  0  0  0  0  0  0  0  0
  -21.0990  -13.5820   22.0620 H   0  0  0  0  0  0  0  0  0  0  0  0
  -25.4440  -15.6240   20.2640 N   0  0  0  0  0  0  0  0  0  0  0  0
  -24.6760  -16.2840   20.3280 H   0  0  0  0  0  0  0  0  0  0  0  0
  -26.3090  -16.0500   19.9530 H   0  0  0  0  0  0  0  0  0  0  0  0
  -30.1410  -17.2520   17.7850 C   0  0  0  0  0  0  0  0  0  0  0  0
  -30.7550  -17.8390   16.7450 N   0  0  0  0  0  0  0  0  0  0  0  0
  -28.9550  -16.9140   17.7640 O   0  0  0  0  0  0  0  0  0  0  0  0
  -31.7320  -18.0650   16.8740 H   0  0  0  0  0  0  0  0  0  0  0  0
  -31.2630  -18.1420   14.3820 C   0  0  0  0  0  1  0  0  0  0  0  0
  -29.5500  -19.6120   15.5400 C   0  0  0  0  0  1  0  0  0  0  0  0
  -30.1730  -18.2080   15.4610 C   0  0  0  0  0  3  0  0  0  0  0  0
  -29.0990  -20.5630   21.1450 C   0  0  0  0  0  2  0  0  0  0  0  0
  -29.6250  -22.1530   21.3160 C   0  0  0  0  0  2  0  0  0  0  0  0
  -28.8810  -23.5530   20.7410 C   0  0  0  0  0  2  0  0  0  0  0  0
  -28.9280  -25.0710   21.4580 C   0  0  0  0  0  2  0  0  0  0  0  0
  -28.9400  -26.4850   20.8340 O   0  0  0  0  0  0  0  0  0  0  0  0
  -24.7900  -32.0200   23.3750 C   0  0  0  0  0  0  0  0  0  0  0  0
  -27.8010  -27.3490   20.7600 C   0  0  0  0  0  0  0  0  0  0  0  0
  -23.7740  -30.4880   21.7290 C   0  0  0  0  0  3  0  0  0  0  0  0
  -25.3900  -28.9270   20.4880 C   0  0  0  0  0  0  0  0  0  0  0  0
  -26.3110  -30.8940   21.7120 C   0  0  0  0  0  2  0  0  0  0  0  0
  -26.4990  -29.4810   21.1390 C   0  0  0  0  0  0  0  0  0  0  0  0
  -27.7120  -28.7080   21.2470 C   0  0  0  0  0  3  0  0  0  0  0  0
  -26.6600  -26.8700   20.0860 C   0  0  0  0  0  3  0  0  0  0  0  0
  -25.4780  -27.6340   19.9490 C   0  0  0  0  0  3  0  0  0  0  0  0
  -24.1190  -29.7570   20.4050 C   0  0  0  0  0  2  0  0  0  0  0  0
  -24.9730  -31.1590   22.3270 N   0  0  0  0  0  0  0  0  0  0  0  0
  -23.6580  -32.2670   23.8210 O   0  0  0  0  0  0  0  0  0  0  0  0
  -23.0860  -29.4900   22.6950 C   0  0  0  0  0  0  0  0  0  0  0  0
  -21.7780  -29.2500   22.4990 N   0  0  0  0  0  0  0  0  0  0  0  0
  -23.7360  -28.9310   23.5840 O   0  0  0  0  0  0  0  0  0  0  0  0
  -21.3080  -29.7550   21.7590 H   0  0  0  0  0  0  0  0  0  0  0  0
  -18.4230  -27.9440   22.8850 C   0  0  0  0  0  0  0  0  0  0  0  0
  -20.9550  -28.3080   23.2620 C   0  0  0  0  0  3  0  0  0  0  0  0
  -21.1330  -26.8640   22.7390 C   0  0  0  0  0  2  0  0  0  0  0  0
  -20.0930  -26.4690   21.6860 C   0  0  0  0  0  2  0  0  0  0  0  0
  -18.6780  -26.5820   22.2600 C   0  0  0  0  0  2  0  0  0  0  0  0
  -19.4920  -28.7600   23.3410 C   0  0  0  0  0  0  0  0  0  0  0  0
  -19.2000  -30.0300   23.8840 C   0  0  0  0  0  3  0  0  0  0  0  0
  -17.8720  -30.4870   23.9750 C   0  0  0  0  0  3  0  0  0  0  0  0
  -16.8160  -29.6690   23.5360 C   0  0  0  0  0  3  0  0  0  0  0  0
  -17.0920  -28.4000   22.9990 C   0  0  0  0  0  3  0  0  0  0  0  0
  -25.9900  -32.7510   24.0500 C   0  0  0  0  0  3  0  0  0  0  0  0
  -25.5830  -34.1420   24.3040 N   0  0  0  0  0  0  0  0  0  0  0  0
  -25.8930  -35.1850   23.5200 C   0  0  0  0  0  0  0  0  0  0  0  0
  -26.6170  -35.0810   22.5270 O   0  0  0  0  0  0  0  0  0  0  0  0
  -24.9430  -34.2930   25.0700 H   0  0  0  0  0  0  0  0  0  0  0  0
  -24.0830  -36.8610   23.0180 C   0  0  0  0  0  1  0  0  0  0  0  0
  -25.3080  -36.5600   23.8980 C   0  0  0  0  0  3  0  0  0  0  0  0
  -27.3540  -37.5960   24.7760 C   0  0  0  0  0  1  0  0  0  0  0  0
  -26.2810  -37.6660   23.7860 N   0  0  0  0  0  0  0  0  0  0  0  0
  -25.8180  -38.5650   23.8860 H   0  0  0  0  0  0  0  0  0  0  0  0
  -26.4610  -32.0640   25.3920 C   0  0  1  0  0  0  0  0  0  0  0  0
  -25.3110  -31.7800   26.3860 C   0  0  0  0  0  1  0  0  0  0  0  0
  -27.1710  -30.7220   25.1030 C   0  0  0  0  0  1  0  0  0  0  0  0
  -27.4940  -32.9650   26.1070 C   0  0  0  0  0  1  0  0  0  0  0  0
  2  7  1  0
  3  4  1  0
  3  2  1  0
  5  4  1  0
  5 18  1  0
  5  6  1  0
  7  1  1  0
  7  6  1  0
  8  1  2  0
  9 10  1  0
 10 13  1  0
 11 13  1  0
 12 43  1  0
 12  9  1  0
 12 14  1  0
 13 50  1  0
 14  1  1  0
 14 11  1  0
 15 16  2  0
 16 17  1  0
 16 35  1  0
 17 20  1  0
 18 15  1  0
 18 19  1  0
 19 17  2  0
 20 21  1  0
 21 22  2  0
 23 26  1  0
 23 22  1  0
 24 23  2  0
 25 24  1  0
 25 20  2  0
 26 27  1  0
 27 28  1  0
 28 29  2  0
 30 29  1  0
 30 34  1  0
 31 30  2  0
 32 27  2  0
 32 31  1  0
 33 32  1  0
 35 36  1  0
 36 39  1  0
 36 38  1  0
 37 35  2  0
 40 41  1  0
 40 15  1  0
 42 40  1  0
 44 46  1  0
 44 43  1  0
 45 43  2  0
 47 49  1  0
 49 48  1  0
 49 44  1  0
 50 51  1  0
 52 51  1  0
 52 53  1  0
 54 53  1  0
 55 66  2  0
 56 54  1  0
 56 61  1  0
 57 65  1  0
 57 67  1  0
 58 60  1  0
 59 65  1  0
 60 61  2  0
 60 59  1  0
 62 56  2  0
 63 62  1  0
 63 58  2  0
 64 58  1  0
 64 57  1  0
 65 55  1  0
 67 69  2  0
 68 67  1  0
 70 68  1  0
 71 80  2  0
 71 76  1  0
 72 68  1  0
 72 76  1  0
 73 72  1  0
 74 75  1  0
 74 73  1  0
 75 71  1  0
 76 77  2  0
 77 78  1  0
 79 78  2  0
 80 79  1  0
 81 55  1  0
 81 82  1  0
 81 91  1  0
 82 85  1  0
 83 87  1  0
 83 82  1  0
 84 83  2  0
 87 86  1  0
 89 90  1  0
 89 87  1  0
 89 88  1  0
 91 94  1  1
 91 92  1  0
 93 91  1  0
M  ISO  4   1 100  14 100  53 101  54 101
M  END
>  <TORSDO>  (44) 
F 21

>  <SCORE>  (44) 
-12.297

>  <name>  (44) 
43

>  <ligand_id>  (44) 
43

>  <original_smiles>  (44) 
[H]c1c([H])c([H])c2c(c1[H])C([H])([H])C([H])([H])C([H])([H])C2([H])N([H])C(=O)C1([H])N(C(=O)C([H])(N([H])C(=O)C([H])(N([H])C([H])([H])[H])C([H])([H])[H])C(C([H])([H])[H])(C([H])([H])[H])C([H])([H])[H])C([H])([H])c2c([H])c(OC([H])([H])C([H])([H])C([H])([H])C([H])([H])C3([H])C([H])([H])N(C(=O)N4C([H])([H])C([H])([H])C([H])([H])C([H])(n5nc(-c6c([H])c([H])c(Oc7c([H])c([H])c(F)c([H])c7F)c([H])c6[H])c(C(=O)N([H])[H])c5N([H])[H])C4([H])[H])C([H])(C(=O)N([H])C([H])(C([H])([H])[H])C([H])([H])[H])C([H])([H])C3([H])[H])c([H])c([H])c2C1([H])[H]

>  <smiles>  (44) 
[H]c1c([H])c([H])c2c(c1[H])C([H])([H])C([H])([H])C([H])([H])C2([H])N([H])C(=O)C1([H])N(C(=O)C([H])(N([H])C(=O)C([H])(N([H])C([H])([H])[H])C([H])([H])[H])C(C([H])([H])[H])(C([H])([H])[H])C([H])([H])[H])C([H])([H])c2c([H])c(OC([H])([H])C([H])([H])C([H])([H])C([H])([H])C3([H])C([H])([H])N(C(=O)N4C([H])([H])C([H])([H])C([H])([H])C([H])(n5nc(-c6c([H])c([H])c(Oc7c([H])c([H])c(F)c([H])c7F)c([H])c6[H])c(C(=O)N([H])[H])c5N([H])[H])C4([H])[H])C([H])(C(=O)N([H])C([H])(C([H])([H])[H])C([H])([H])[H])C([H])([H])C3([H])[H])c([H])c([H])c2C1([H])[H]

$$$$
44:0:0
     RDKit          3D

 92100  0  0  1  0  0  0  0  0999 V2000
  -31.3080  -18.4380   18.7390 C   0  0  0  0  0  3  0  0  0  0  0  0
  -29.8540  -20.2230   17.9440 C   0  0  0  0  0  0  0  0  0  0  0  0
  -28.8660  -19.5840   18.7840 C   0  0  0  0  0  0  0  0  0  0  0  0
  -30.3000  -17.7560   19.5060 C   0  0  0  0  0  0  0  0  0  0  0  0
  -31.0930  -19.6070   17.9950 N   0  0  0  0  0  0  0  0  0  0  0  0
  -29.0970  -18.4140   19.4960 N   0  0  0  0  0  0  0  0  0  0  0  0
  -31.2790  -15.3530   20.4070 C   0  0  0  0  0  0  0  0  0  0  0  0
  -31.3330  -12.8270   20.4070 C   0  0  0  0  0  2  0  0  0  0  0  0
  -30.6080  -12.3250   19.1350 C   0  0  0  0  0  2  0  0  0  0  0  0
  -29.0860  -12.2350   19.3640 C   0  0  0  0  0  2  0  0  0  0  0  0
  -28.5140  -13.5060   20.0490 C   0  0  0  0  0  3  0  0  0  0  0  0
  -29.3650  -13.9160   21.2710 C   0  0  0  0  0  2  0  0  0  0  0  0
  -30.7380  -14.1350   20.7870 N   0  0  0  0  0  0  0  0  0  0  0  0
  -32.4930  -15.4200   20.1760 O   0  0  0  0  0  0  0  0  0  0  0  0
  -30.3840  -16.4160   20.2040 N   0  0  0  0  0  0  0  0  0  0  0  0
  -29.4970  -16.1710   20.6110 H   0  0  0  0  0  0  0  0  0  0  0  0
  -26.1510  -14.3530   20.5660 C   0  0  0  0  0  0  0  0  0  0  0  0
  -24.9670  -13.7000   20.7810 C   0  0  0  0  0  0  0  0  0  0  0  0
  -25.2690  -12.3050   20.7190 C   0  0  0  0  0  0  0  0  0  0  0  0
  -27.1030  -13.3620   20.3850 N   0  0  0  0  0  0  0  0  0  0  0  0
  -26.5710  -12.1230   20.5380 N   0  0  0  0  0  0  0  0  0  0  0  0
  -24.3810  -11.1350   20.7660 C   0  0  0  0  0  0  0  0  0  0  0  0
  -24.6700  -10.0200   21.5840 C   0  0  0  0  0  3  0  0  0  0  0  0
  -23.7930   -8.9170   21.6240 C   0  0  0  0  0  3  0  0  0  0  0  0
  -22.6100   -8.9200   20.8470 C   0  0  0  0  0  0  0  0  0  0  0  0
  -22.3380  -10.0230   20.0180 C   0  0  0  0  0  3  0  0  0  0  0  0
  -23.2160  -11.1180   19.9730 C   0  0  0  0  0  3  0  0  0  0  0  0
  -21.7130   -7.8800   20.8030 O   0  0  0  0  0  0  0  0  0  0  0  0
  -21.6690   -6.9250   21.7880 C   0  0  0  0  0  0  0  0  0  0  0  0
  -21.4590   -7.2610   23.1430 C   0  0  0  0  0  3  0  0  0  0  0  0
  -21.3500   -6.2440   24.1110 C   0  0  0  0  0  3  0  0  0  0  0  0
  -21.4430   -4.8930   23.7270 C   0  0  0  0  0  0  0  0  0  0  0  0
  -21.6490   -4.5550   22.3780 C   0  0  0  0  0  3  0  0  0  0  0  0
  -21.7570   -5.5700   21.4100 C   0  0  0  0  0  0  0  0  0  0  0  0
  -21.9340   -5.2400   20.1080 F   0  0  0  0  0  0  0  0  0  0  0  0
  -21.3320   -3.9130   24.6560 F   0  0  0  0  0  0  0  0  0  0  0  0
  -23.6150  -14.3330   20.9370 C   0  0  0  0  0  0  0  0  0  0  0  0
  -22.7340  -13.7120   21.7140 N   0  0  0  0  0  0  0  0  0  0  0  0
  -23.3500  -15.4130   20.4120 O   0  0  0  0  0  0  0  0  0  0  0  0
  -22.9590  -12.8340   22.1580 H   0  0  0  0  0  0  0  0  0  0  0  0
  -21.8210  -14.1200   21.8610 H   0  0  0  0  0  0  0  0  0  0  0  0
  -26.4920  -15.7000   20.4890 N   0  0  0  0  0  0  0  0  0  0  0  0
  -25.7950  -16.4320   20.5610 H   0  0  0  0  0  0  0  0  0  0  0  0
  -27.4190  -16.0580   20.2940 H   0  0  0  0  0  0  0  0  0  0  0  0
  -27.2210  -20.8860   20.2290 C   0  0  0  0  0  1  0  0  0  0  0  0
  -26.4010  -18.9590   18.8000 C   0  0  0  0  0  1  0  0  0  0  0  0
  -27.4290  -20.0970   18.9220 C   0  0  0  0  0  3  0  0  0  0  0  0
  -29.9190  -20.7360   15.4200 C   0  0  0  0  0  1  0  0  0  0  0  0
  -29.5140  -21.3490   16.7780 C   0  0  0  0  0  3  0  0  0  0  0  0
  -29.8490  -22.9880   16.7630 C   0  0  0  0  0  3  0  0  0  0  0  0
  -28.6750  -24.1380   16.4200 C   0  0  0  0  0  3  0  0  0  0  0  0
  -28.7090  -25.6840   16.5340 O   0  0  0  0  0  0  0  0  0  0  0  0
  -24.9750  -29.2970   21.7310 C   0  0  0  0  0  0  0  0  0  0  0  0
  -27.5370  -26.4130   16.9390 C   0  0  0  0  0  0  0  0  0  0  0  0
  -23.6860  -28.2650   19.9030 C   0  0  0  0  0  3  0  0  0  0  0  0
  -25.0230  -27.5580   17.8330 C   0  0  0  0  0  0  0  0  0  0  0  0
  -26.0840  -29.0940   19.4790 C   0  0  0  0  0  2  0  0  0  0  0  0
  -26.2240  -28.0250   18.3830 C   0  0  0  0  0  0  0  0  0  0  0  0
  -27.4770  -27.4740   17.9270 C   0  0  0  0  0  3  0  0  0  0  0  0
  -26.2910  -26.0510   16.3840 C   0  0  0  0  0  3  0  0  0  0  0  0
  -25.0650  -26.5930   16.8180 C   0  0  0  0  0  3  0  0  0  0  0  0
  -23.7130  -28.1180   18.3620 C   0  0  0  0  0  2  0  0  0  0  0  0
  -24.9420  -28.8930   20.4260 N   0  0  0  0  0  0  0  0  0  0  0  0
  -23.9890  -29.1700   22.4720 O   0  0  0  0  0  0  0  0  0  0  0  0
  -23.3790  -26.8880   20.5440 C   0  0  0  0  0  0  0  0  0  0  0  0
  -22.1120  -26.4450   20.4640 N   0  0  0  0  0  0  0  0  0  0  0  0
  -24.2760  -26.2320   21.0790 O   0  0  0  0  0  0  0  0  0  0  0  0
  -21.4300  -27.0440   20.0190 H   0  0  0  0  0  0  0  0  0  0  0  0
  -19.1900  -24.3160   20.7060 C   0  0  0  0  0  0  0  0  0  0  0  0
  -21.6230  -25.1600   20.9710 C   0  0  0  0  0  3  0  0  0  0  0  0
  -22.0070  -24.0010   20.0240 C   0  0  0  0  0  2  0  0  0  0  0  0
  -20.9240  -23.7070   18.9780 C   0  0  0  0  0  2  0  0  0  0  0  0
  -19.6290  -23.2860   19.6790 C   0  0  0  0  0  2  0  0  0  0  0  0
  -20.1250  -25.2080   21.2990 C   0  0  0  0  0  0  0  0  0  0  0  0
  -19.6630  -26.1720   22.2180 C   0  0  0  0  0  3  0  0  0  0  0  0
  -18.2980  -26.2550   22.5490 C   0  0  0  0  0  3  0  0  0  0  0  0
  -17.3800  -25.3590   21.9750 C   0  0  0  0  0  3  0  0  0  0  0  0
  -17.8260  -24.3890   21.0600 C   0  0  0  0  0  3  0  0  0  0  0  0
  -26.2460  -29.9540   22.3500 C   0  0  0  0  0  3  0  0  0  0  0  0
  -27.1730  -28.9240   23.1050 C   0  0  1  0  0  0  0  0  0  0  0  0
  -26.4230  -28.0630   24.1500 C   0  0  0  0  0  1  0  0  0  0  0  0
  -27.8590  -27.9600   22.1090 C   0  0  0  0  0  1  0  0  0  0  0  0
  -28.3050  -29.6820   23.8380 C   0  0  0  0  0  1  0  0  0  0  0  0
  -25.7960  -31.0110   23.2700 N   0  0  0  0  0  0  0  0  0  0  0  0
  -25.9050  -32.3240   23.0370 C   0  0  0  0  0  0  0  0  0  0  0  0
  -26.4620  -32.7790   22.0340 O   0  0  0  0  0  0  0  0  0  0  0  0
  -25.2750  -30.7100   24.0830 H   0  0  0  0  0  0  0  0  0  0  0  0
  -23.9590  -33.8300   23.5700 C   0  0  0  0  0  1  0  0  0  0  0  0
  -25.3030  -33.2870   24.0790 C   0  0  0  0  0  3  0  0  0  0  0  0
  -27.3820  -34.0120   25.1680 C   0  0  0  0  0  1  0  0  0  0  0  0
  -26.1960  -34.4160   24.4190 N   0  0  0  0  0  0  0  0  0  0  0  0
  -25.7010  -35.1180   24.9630 H   0  0  0  0  0  0  0  0  0  0  0  0
  1  4  1  0
  2  5  1  0
  2  3  2  0
  3 47  1  0
  3  6  1  0
  4 15  1  0
  5  1  2  0
  6  4  2  0
  7 13  1  0
  8 13  1  0
  9 10  1  0
  9  8  1  0
 11 10  1  0
 11 20  1  0
 11 12  1  0
 13 12  1  0
 14  7  2  0
 15  7  1  0
 15 16  1  0
 17 18  2  0
 18 37  1  0
 19 22  1  0
 19 18  1  0
 20 21  1  0
 20 17  1  0
 21 19  2  0
 22 23  1  0
 23 24  2  0
 25 24  1  0
 26 25  2  0
 27 26  1  0
 27 22  2  0
 28 25  1  0
 28 29  1  0
 29 30  1  0
 30 31  2  0
 32 31  1  0
 32 36  1  0
 33 32  2  0
 34 29  2  0
 34 33  1  0
 35 34  1  0
 37 38  1  0
 38 41  1  0
 38 40  1  0
 39 37  2  0
 42 43  1  0
 42 17  1  0
 44 42  1  0
 46 47  1  0
 47 45  1  0
 49 48  1  0
 49  2  1  0
 50 49  1  0
 51 52  1  0
 51 50  2  0
 52 54  1  0
 53 64  2  0
 54 59  1  0
 55 63  1  0
 55 65  1  0
 56 62  1  0
 56 58  1  0
 57 63  1  0
 58 57  1  0
 59 58  2  0
 60 61  1  0
 60 54  2  0
 61 56  2  0
 62 55  1  0
 63 53  1  0
 65 67  2  0
 66 65  1  0
 68 66  1  0
 69 78  2  0
 69 74  1  0
 70 66  1  0
 70 74  1  0
 71 70  1  0
 72 73  1  0
 72 71  1  0
 73 69  1  0
 74 75  2  0
 75 76  1  0
 77 76  2  0
 78 77  1  0
 79 53  1  0
 79 80  1  0
 79 84  1  0
 80 83  1  1
 80 81  1  0
 82 80  1  0
 84 87  1  0
 85 84  1  0
 85 89  1  0
 86 85  2  0
 89 88  1  0
 89 91  1  0
 91 92  1  0
 91 90  1  0
M  ISO  4   7 100  15 100  51 101  52 101
M  END
>  <TORSDO>  (45) 
F 20

>  <SCORE>  (45) 
-7.563

>  <name>  (45) 
44

>  <ligand_id>  (45) 
44

>  <original_smiles>  (45) 
[H]c1nc(C([H])(C([H])([H])[H])C([H])([H])C([H])([H])Oc2c([H])c([H])c3c(c2[H])C([H])([H])N(C(=O)C([H])(N([H])C(=O)C([H])(N([H])C([H])([H])[H])C([H])([H])[H])C(C([H])([H])[H])(C([H])([H])[H])C([H])([H])[H])C([H])(C(=O)N([H])C2([H])c4c([H])c([H])c([H])c([H])c4C([H])([H])C([H])([H])C2([H])[H])C3([H])[H])c(C([H])(C([H])([H])[H])C([H])([H])[H])nc1N([H])C(=O)N1C([H])([H])C([H])([H])C([H])([H])C([H])(n2nc(-c3c([H])c([H])c(Oc4c([H])c([H])c(F)c([H])c4F)c([H])c3[H])c(C(=O)N([H])[H])c2N([H])[H])C1([H])[H]

>  <smiles>  (45) 
[H]c1nc(C([H])(C([H])([H])[H])C([H])([H])C([H])([H])Oc2c([H])c([H])c3c(c2[H])C([H])([H])N(C(=O)C([H])(N([H])C(=O)C([H])(N([H])C([H])([H])[H])C([H])([H])[H])C(C([H])([H])[H])(C([H])([H])[H])C([H])([H])[H])C([H])(C(=O)N([H])C2([H])c4c([H])c([H])c([H])c([H])c4C([H])([H])C([H])([H])C2([H])[H])C3([H])[H])c(C([H])(C([H])([H])[H])C([H])([H])[H])nc1N([H])C(=O)N1C([H])([H])C([H])([H])C([H])([H])C([H])(n2nc(-c3c([H])c([H])c(Oc4c([H])c([H])c(F)c([H])c4F)c([H])c3[H])c(C(=O)N([H])[H])c2N([H])[H])C1([H])[H]

$$$$
45:0:0
     RDKit          3D

100108  0  0  1  0  0  0  0  0999 V2000
  -30.0840  -22.2230   19.7000 C   0  0  0  0  0  3  0  0  0  0  0  0
  -28.7540  -20.2040   20.9130 C   0  0  0  0  0  3  0  0  0  0  0  0
  -30.5580  -20.8160   19.6110 C   0  0  0  0  0  0  0  0  0  0  0  0
  -29.9040  -19.6460   20.2330 C   0  0  0  0  0  0  0  0  0  0  0  0
  -28.9210  -22.6960   20.4200 C   0  0  0  0  0  0  0  0  0  0  0  0
  -28.3140  -21.5540   20.9630 N   0  0  0  0  0  0  0  0  0  0  0  0
  -27.5030  -24.0200   18.8260 C   0  0  0  0  0  1  0  0  0  0  0  0
  -26.8950  -24.0560   21.3650 C   0  0  0  0  0  1  0  0  0  0  0  0
  -28.0070  -24.1900   20.2790 C   0  0  1  0  0  0  0  0  0  0  0  0
  -28.3230  -25.8120   20.3940 O   0  0  0  0  0  0  0  0  0  0  0  0
  -24.7420  -31.8110   23.2750 C   0  0  0  0  0  0  0  0  0  0  0  0
  -27.3180  -26.9280   20.2990 C   0  0  0  0  0  0  0  0  0  0  0  0
  -23.5600  -30.4240   21.6260 C   0  0  0  0  0  3  0  0  0  0  0  0
  -25.0190  -28.8290   20.2260 C   0  0  0  0  0  0  0  0  0  0  0  0
  -26.1340  -30.6260   21.5110 C   0  0  0  0  0  2  0  0  0  0  0  0
  -26.2090  -29.2210   20.8530 C   0  0  0  0  0  0  0  0  0  0  0  0
  -27.3530  -28.3000   20.8580 C   0  0  0  0  0  3  0  0  0  0  0  0
  -26.0710  -26.6880   19.6580 C   0  0  0  0  0  3  0  0  0  0  0  0
  -24.9780  -27.5780   19.6090 C   0  0  0  0  0  3  0  0  0  0  0  0
  -23.8030  -29.7510   20.2520 C   0  0  0  0  0  2  0  0  0  0  0  0
  -24.8330  -30.9750   22.1920 N   0  0  0  0  0  0  0  0  0  0  0  0
  -23.6470  -32.1100   23.7810 O   0  0  0  0  0  0  0  0  0  0  0  0
  -22.8460  -29.4270   22.5810 C   0  0  0  0  0  0  0  0  0  0  0  0
  -21.5210  -29.2520   22.4230 N   0  0  0  0  0  0  0  0  0  0  0  0
  -23.4930  -28.8130   23.4330 O   0  0  0  0  0  0  0  0  0  0  0  0
  -21.0520  -29.8020   21.7150 H   0  0  0  0  0  0  0  0  0  0  0  0
  -18.1340  -28.0260   22.8640 C   0  0  0  0  0  0  0  0  0  0  0  0
  -20.6850  -28.3200   23.1850 C   0  0  0  0  0  3  0  0  0  0  0  0
  -20.8100  -26.8800   22.6370 C   0  0  0  0  0  2  0  0  0  0  0  0
  -19.7380  -26.5290   21.6010 C   0  0  0  0  0  2  0  0  0  0  0  0
  -18.3380  -26.6710   22.2080 C   0  0  0  0  0  2  0  0  0  0  0  0
  -19.2350  -28.8060   23.3090 C   0  0  0  0  0  0  0  0  0  0  0  0
  -18.9890  -30.0700   23.8880 C   0  0  0  0  0  3  0  0  0  0  0  0
  -17.6760  -30.5580   24.0170 C   0  0  0  0  0  3  0  0  0  0  0  0
  -16.5890  -29.7790   23.5860 C   0  0  0  0  0  3  0  0  0  0  0  0
  -16.8190  -28.5130   23.0170 C   0  0  0  0  0  3  0  0  0  0  0  0
  -26.0070  -32.4480   23.9230 C   0  0  0  0  0  3  0  0  0  0  0  0
  -25.6890  -33.8480   24.2530 N   0  0  0  0  0  0  0  0  0  0  0  0
  -26.0060  -34.9050   23.4920 C   0  0  0  0  0  0  0  0  0  0  0  0
  -26.6580  -34.8050   22.4510 O   0  0  0  0  0  0  0  0  0  0  0  0
  -25.1020  -33.9990   25.0600 H   0  0  0  0  0  0  0  0  0  0  0  0
  -24.2540  -36.6910   23.1890 C   0  0  0  0  0  1  0  0  0  0  0  0
  -25.5230  -36.2940   23.9590 C   0  0  0  0  0  3  0  0  0  0  0  0
  -27.6770  -37.2020   24.7200 C   0  0  0  0  0  1  0  0  0  0  0  0
  -26.5450  -37.3530   23.8100 N   0  0  0  0  0  0  0  0  0  0  0  0
  -26.1380  -38.2710   23.9610 H   0  0  0  0  0  0  0  0  0  0  0  0
  -26.4900  -31.6800   25.2150 C   0  0  1  0  0  0  0  0  0  0  0  0
  -25.3720  -31.4520   26.2590 C   0  0  0  0  0  1  0  0  0  0  0  0
  -27.0790  -30.2960   24.8540 C   0  0  0  0  0  1  0  0  0  0  0  0
  -27.6270  -32.4750   25.8980 C   0  0  0  0  0  1  0  0  0  0  0  0
  -31.7380  -20.5850   18.6480 C   0  0  0  0  0  2  0  0  0  0  0  0
  -33.1440  -21.1320   19.0510 C   0  0  0  0  0  3  0  0  0  0  0  0
  -33.8400  -20.2680   20.0400 N   0  0  0  0  0  4  0  0  0  0  0  0
  -33.2160  -19.5260   20.3140 H   0  0  0  0  0  0  0  0  0  0  0  0
  -34.6050  -19.8340   19.5450 H   0  0  0  0  0  0  0  0  0  0  0  0
  -35.4440  -21.9750   20.9820 C   0  0  0  0  0  1  0  0  0  0  0  0
  -34.9650  -19.8280   22.2050 C   0  0  0  0  0  1  0  0  0  0  0  0
  -34.3730  -20.9040   21.2730 C   0  0  0  0  0  3  0  0  0  0  0  0
  -35.0630  -20.2200   17.5100 C   0  0  0  0  0  1  0  0  0  0  0  0
  -34.7690  -22.7080   17.7840 C   0  0  0  0  0  1  0  0  0  0  0  0
  -34.0450  -21.3490   17.7860 C   0  0  0  0  0  3  0  0  0  0  0  0
  -30.4680  -17.9990   20.0740 C   0  0  0  0  0  2  0  0  0  0  0  0
  -30.6580  -15.1510   20.2540 C   0  0  0  0  0  0  0  0  0  0  0  0
  -30.5540  -12.7250   19.4020 C   0  0  0  0  0  2  0  0  0  0  0  0
  -29.6250  -12.5460   18.1790 C   0  0  0  0  0  2  0  0  0  0  0  0
  -28.1750  -12.3000   18.6270 C   0  0  0  0  0  2  0  0  0  0  0  0
  -27.7380  -13.2490   19.7720 C   0  0  0  0  0  3  0  0  0  0  0  0
  -28.8050  -13.3950   20.8790 C   0  0  0  0  0  2  0  0  0  0  0  0
  -30.0430  -13.8720   20.2330 N   0  0  0  0  0  0  0  0  0  0  0  0
  -31.8640  -15.1220   19.9820 O   0  0  0  0  0  0  0  0  0  0  0  0
  -29.9810  -16.4510   20.3630 N   0  0  0  0  0  0  0  0  0  0  0  0
  -29.0030  -16.3700   20.5930 H   0  0  0  0  0  0  0  0  0  0  0  0
  -25.3740  -13.7870   20.5690 C   0  0  0  0  0  0  0  0  0  0  0  0
  -24.3170  -13.0020   20.9400 C   0  0  0  0  0  0  0  0  0  0  0  0
  -24.7850  -11.6540   20.8780 C   0  0  0  0  0  0  0  0  0  0  0  0
  -26.4170  -12.9190   20.2920 N   0  0  0  0  0  0  0  0  0  0  0  0
  -26.0740  -11.6300   20.5450 N   0  0  0  0  0  0  0  0  0  0  0  0
  -24.0600  -10.3880   21.0540 C   0  0  0  0  0  0  0  0  0  0  0  0
  -24.4780   -9.4190   21.9940 C   0  0  0  0  0  3  0  0  0  0  0  0
  -23.7550   -8.2190   22.1590 C   0  0  0  0  0  3  0  0  0  0  0  0
  -22.5930   -7.9770   21.3870 C   0  0  0  0  0  0  0  0  0  0  0  0
  -22.1930   -8.9340   20.4380 C   0  0  0  0  0  3  0  0  0  0  0  0
  -22.9180  -10.1260   20.2700 C   0  0  0  0  0  3  0  0  0  0  0  0
  -21.8390   -6.8310   21.4650 O   0  0  0  0  0  0  0  0  0  0  0  0
  -21.7480   -6.1050   22.6250 C   0  0  0  0  0  0  0  0  0  0  0  0
  -21.2600   -6.6730   23.8230 C   0  0  0  0  0  3  0  0  0  0  0  0
  -21.1150   -5.8720   24.9720 C   0  0  0  0  0  3  0  0  0  0  0  0
  -21.4490   -4.5040   24.9290 C   0  0  0  0  0  0  0  0  0  0  0  0
  -21.9290   -3.9380   23.7370 C   0  0  0  0  0  3  0  0  0  0  0  0
  -22.0770   -4.7340   22.5880 C   0  0  0  0  0  0  0  0  0  0  0  0
  -22.5180   -4.1760   21.4360 F   0  0  0  0  0  0  0  0  0  0  0  0
  -21.3020   -3.7350   26.0340 F   0  0  0  0  0  0  0  0  0  0  0  0
  -22.9220  -13.4720   21.2320 C   0  0  0  0  0  0  0  0  0  0  0  0
  -22.2010  -12.7670   22.0960 N   0  0  0  0  0  0  0  0  0  0  0  0
  -22.4790  -14.5050   20.7290 O   0  0  0  0  0  0  0  0  0  0  0  0
  -22.5700  -11.9350   22.5340 H   0  0  0  0  0  0  0  0  0  0  0  0
  -21.2650  -13.0710   22.3290 H   0  0  0  0  0  0  0  0  0  0  0  0
  -25.5310  -15.1610   20.4150 N   0  0  0  0  0  0  0  0  0  0  0  0
  -24.7660  -15.8110   20.5540 H   0  0  0  0  0  0  0  0  0  0  0  0
  -26.3660  -15.6030   20.0560 H   0  0  0  0  0  0  0  0  0  0  0  0
  1  5  1  0
  2  6  1  0
  3  1  2  0
  3  4  1  0
  4  2  2  0
  5  6  2  0
  9  7  1  6
  9 10  1  0
  9  5  1  0
  9  8  1  0
 11 22  2  0
 12 10  1  0
 12 17  1  0
 13 21  1  0
 13 23  1  0
 14 20  1  0
 14 16  1  0
 15 21  1  0
 16 17  2  0
 16 15  1  0
 18 12  2  0
 19 18  1  0
 19 14  2  0
 20 13  1  0
 21 11  1  0
 23 25  2  0
 24 23  1  0
 26 24  1  0
 27 36  2  0
 27 32  1  0
 28 24  1  0
 28 32  1  0
 29 28  1  0
 30 31  1  0
 30 29  1  0
 31 27  1  0
 32 33  2  0
 33 34  1  0
 35 34  2  0
 36 35  1  0
 37 11  1  0
 37 38  1  0
 37 47  1  0
 38 41  1  0
 39 43  1  0
 39 38  1  0
 40 39  2  0
 43 42  1  0
 45 43  1  0
 45 46  1  0
 45 44  1  0
 47 50  1  1
 47 48  1  0
 49 47  1  0
 51  3  1  0
 52 51  1  0
 52 53  1  0
 53 54  1  0
 53 58  1  0
 55 53  1  0
 56 58  1  0
 58 57  1  0
 59 61  1  0
 60 61  1  0
 61 52  1  0
 62  4  1  0
 62 71  1  0
 63 71  1  0
 64 69  1  0
 65 66  1  0
 65 64  1  0
 67 66  1  0
 67 76  1  0
 67 68  1  0
 69 63  1  0
 69 68  1  0
 70 63  2  0
 71 72  1  0
 73 74  2  0
 74 93  1  0
 75 74  1  0
 75 78  1  0
 76 77  1  0
 76 73  1  0
 77 75  2  0
 78 79  1  0
 79 80  2  0
 81 84  1  0
 81 80  1  0
 82 81  2  0
 83 82  1  0
 83 78  2  0
 84 85  1  0
 85 86  1  0
 86 87  2  0
 88 87  1  0
 88 92  1  0
 89 88  2  0
 90 85  2  0
 90 89  1  0
 91 90  1  0
 93 94  1  0
 94 97  1  0
 94 96  1  0
 95 93  2  0
 98 99  1  0
 98 73  1  0
100 98  1  0
M  ISO  4   9 101  10 101  63 100  71 100
M  END
>  <TORSDO>  (46) 
F 23

>  <SCORE>  (46) 
-14.306

>  <name>  (46) 
45

>  <ligand_id>  (46) 
45

>  <original_smiles>  (46) 
[H]c1nc(C(Oc2c([H])c([H])c3c(c2[H])C([H])([H])N(C(=O)C([H])(N([H])C(=O)C([H])(N([H])C([H])([H])[H])C([H])([H])[H])C(C([H])([H])[H])(C([H])([H])[H])C([H])([H])[H])C([H])(C(=O)N([H])C2([H])c4c([H])c([H])c([H])c([H])c4C([H])([H])C([H])([H])C2([H])[H])C3([H])[H])(C([H])([H])[H])C([H])([H])[H])c([H])c(C([H])([H])C([H])(C([H])(C([H])([H])[H])C([H])([H])[H])[N+]([H])([H])C([H])(C([H])([H])[H])C([H])([H])[H])c1C([H])([H])N([H])C(=O)N1C([H])([H])C([H])([H])C([H])([H])C([H])(n2nc(-c3c([H])c([H])c(Oc4c([H])c([H])c(F)c([H])c4F)c([H])c3[H])c(C(=O)N([H])[H])c2N([H])[H])C1([H])[H]

>  <smiles>  (46) 
[H]c1nc(C(Oc2c([H])c([H])c3c(c2[H])C([H])([H])N(C(=O)C([H])(N([H])C(=O)C([H])(N([H])C([H])([H])[H])C([H])([H])[H])C(C([H])([H])[H])(C([H])([H])[H])C([H])([H])[H])C([H])(C(=O)N([H])C2([H])c4c([H])c([H])c([H])c([H])c4C([H])([H])C([H])([H])C2([H])[H])C3([H])[H])(C([H])([H])[H])C([H])([H])[H])c([H])c(C([H])([H])C([H])(C([H])(C([H])([H])[H])C([H])([H])[H])[N+]([H])([H])C([H])(C([H])([H])[H])C([H])([H])[H])c1C([H])([H])N([H])C(=O)N1C([H])([H])C([H])([H])C([H])([H])C([H])(n2nc(-c3c([H])c([H])c(Oc4c([H])c([H])c(F)c([H])c4F)c([H])c3[H])c(C(=O)N([H])[H])c2N([H])[H])C1([H])[H]

$$$$
46:0:0
     RDKit          3D

 95103  0  0  1  0  0  0  0  0999 V2000
  -28.3720  -24.0970   17.3820 C   0  0  0  0  0  3  0  0  0  0  0  0
  -28.2210  -25.3110   18.0610 C   0  0  0  0  0  3  0  0  0  0  0  0
  -28.9700  -23.0030   18.0370 C   0  0  0  0  0  0  0  0  0  0  0  0
  -29.4040  -23.1430   19.3840 C   0  0  0  0  0  0  0  0  0  0  0  0
  -28.5820  -25.3970   19.4120 C   0  0  0  0  0  0  0  0  0  0  0  0
  -29.1480  -21.7190   17.2390 C   0  0  0  0  0  1  0  0  0  0  0  0
  -29.1680  -24.3290   20.0560 N   0  0  0  0  0  0  0  0  0  0  0  0
  -31.3200  -22.6390   21.0140 C   0  0  0  0  0  1  0  0  0  0  0  0
  -30.2860  -22.0120   20.0550 C   0  0  0  0  0  3  0  0  0  0  0  0
  -29.8670  -20.3490   22.0860 C   0  0  0  0  0  1  0  0  0  0  0  0
  -29.6120  -20.6540   20.5950 C   0  0  0  0  0  3  0  0  0  0  0  0
  -30.1280  -18.1180   19.7540 C   0  0  0  0  0  0  0  0  0  0  0  0
  -29.8430  -19.4590   19.7050 N   0  0  0  0  0  0  0  0  0  0  0  0
  -30.0950  -17.5190   18.6780 O   0  0  0  0  0  0  0  0  0  0  0  0
  -29.6500  -19.7050   18.7440 H   0  0  0  0  0  0  0  0  0  0  0  0
  -30.5190  -17.2610   21.0040 C   0  0  0  0  0  2  0  0  0  0  0  0
  -30.9800  -14.7450   20.4810 C   0  0  0  0  0  0  0  0  0  0  0  0
  -30.7610  -12.5120   19.4060 C   0  0  0  0  0  2  0  0  0  0  0  0
  -29.8470  -12.6460   18.1690 C   0  0  0  0  0  2  0  0  0  0  0  0
  -28.3620  -12.5110   18.5610 C   0  0  0  0  0  2  0  0  0  0  0  0
  -27.9890  -13.3940   19.7800 C   0  0  0  0  0  3  0  0  0  0  0  0
  -29.0130  -13.2170   20.9260 C   0  0  0  0  0  2  0  0  0  0  0  0
  -30.3430  -13.5360   20.3810 N   0  0  0  0  0  0  0  0  0  0  0  0
  -32.1380  -14.9030   20.0860 O   0  0  0  0  0  0  0  0  0  0  0  0
  -30.2180  -15.7910   20.9050 N   0  0  0  0  0  0  0  0  0  0  0  0
  -29.2840  -15.5410   21.1900 H   0  0  0  0  0  0  0  0  0  0  0  0
  -25.5820  -14.0530   20.4010 C   0  0  0  0  0  0  0  0  0  0  0  0
  -24.4890  -13.3050   20.7550 C   0  0  0  0  0  0  0  0  0  0  0  0
  -24.9290  -11.9470   20.7680 C   0  0  0  0  0  0  0  0  0  0  0  0
  -26.6180  -13.1490   20.2230 N   0  0  0  0  0  0  0  0  0  0  0  0
  -26.2270  -11.8800   20.5010 N   0  0  0  0  0  0  0  0  0  0  0  0
  -24.1760  -10.7000   20.9610 C   0  0  0  0  0  0  0  0  0  0  0  0
  -24.5670   -9.7450   21.9260 C   0  0  0  0  0  3  0  0  0  0  0  0
  -23.8190   -8.5620   22.1080 C   0  0  0  0  0  3  0  0  0  0  0  0
  -22.6640   -8.3270   21.3270 C   0  0  0  0  0  0  0  0  0  0  0  0
  -22.2900   -9.2690   20.3520 C   0  0  0  0  0  3  0  0  0  0  0  0
  -23.0380  -10.4440   20.1680 C   0  0  0  0  0  3  0  0  0  0  0  0
  -21.8910   -7.1950   21.4180 O   0  0  0  0  0  0  0  0  0  0  0  0
  -21.7940   -6.4790   22.5840 C   0  0  0  0  0  0  0  0  0  0  0  0
  -21.3480   -7.0710   23.7860 C   0  0  0  0  0  3  0  0  0  0  0  0
  -21.2010   -6.2850   24.9450 C   0  0  0  0  0  3  0  0  0  0  0  0
  -21.4840   -4.9070   24.9020 C   0  0  0  0  0  0  0  0  0  0  0  0
  -21.9190   -4.3140   23.7050 C   0  0  0  0  0  3  0  0  0  0  0  0
  -22.0710   -5.0970   22.5470 C   0  0  0  0  0  0  0  0  0  0  0  0
  -22.4730   -4.5170   21.3900 F   0  0  0  0  0  0  0  0  0  0  0  0
  -21.3320   -4.1480   26.0130 F   0  0  0  0  0  0  0  0  0  0  0  0
  -23.0910  -13.8100   20.9710 C   0  0  0  0  0  0  0  0  0  0  0  0
  -22.3350  -13.1500   21.8410 N   0  0  0  0  0  0  0  0  0  0  0  0
  -22.6810  -14.8240   20.4090 O   0  0  0  0  0  0  0  0  0  0  0  0
  -22.6820  -12.3310   22.3160 H   0  0  0  0  0  0  0  0  0  0  0  0
  -21.3950  -13.4670   22.0300 H   0  0  0  0  0  0  0  0  0  0  0  0
  -25.7790  -15.4140   20.1960 N   0  0  0  0  0  0  0  0  0  0  0  0
  -25.0280  -16.0920   20.2670 H   0  0  0  0  0  0  0  0  0  0  0  0
  -26.6450  -15.8210   19.8640 H   0  0  0  0  0  0  0  0  0  0  0  0
  -28.4550  -26.6190   20.0960 O   0  0  0  0  0  0  0  0  0  0  0  0
  -24.6080  -31.8770   23.1480 C   0  0  0  0  0  0  0  0  0  0  0  0
  -27.2960  -27.4100   20.0450 C   0  0  0  0  0  0  0  0  0  0  0  0
  -23.4230  -30.4770   21.4940 C   0  0  0  0  0  3  0  0  0  0  0  0
  -24.8940  -28.9640   20.0590 C   0  0  0  0  0  0  0  0  0  0  0  0
  -25.9540  -30.8420   21.3090 C   0  0  0  0  0  2  0  0  0  0  0  0
  -26.0550  -29.4730   20.6520 C   0  0  0  0  0  0  0  0  0  0  0  0
  -27.2540  -28.7090   20.6370 C   0  0  0  0  0  3  0  0  0  0  0  0
  -26.0940  -26.9290   19.4710 C   0  0  0  0  0  3  0  0  0  0  0  0
  -24.9130  -27.6920   19.4650 C   0  0  0  0  0  3  0  0  0  0  0  0
  -23.6480  -29.8210   20.1070 C   0  0  0  0  0  2  0  0  0  0  0  0
  -24.6810  -31.0800   22.0410 N   0  0  0  0  0  0  0  0  0  0  0  0
  -23.5210  -32.1320   23.6860 O   0  0  0  0  0  0  0  0  0  0  0  0
  -22.7770  -29.4360   22.4410 C   0  0  0  0  0  0  0  0  0  0  0  0
  -21.4580  -29.2320   22.3000 N   0  0  0  0  0  0  0  0  0  0  0  0
  -23.4620  -28.8210   23.2620 O   0  0  0  0  0  0  0  0  0  0  0  0
  -20.9630  -29.7840   21.6120 H   0  0  0  0  0  0  0  0  0  0  0  0
  -18.1050  -27.9490   22.7450 C   0  0  0  0  0  0  0  0  0  0  0  0
  -20.6510  -28.2770   23.0600 C   0  0  0  0  0  3  0  0  0  0  0  0
  -20.8000  -26.8460   22.4930 C   0  0  0  0  0  2  0  0  0  0  0  0
  -19.7250  -26.4900   21.4600 C   0  0  0  0  0  2  0  0  0  0  0  0
  -18.3290  -26.6010   22.0800 C   0  0  0  0  0  2  0  0  0  0  0  0
  -19.1970  -28.7430   23.1920 C   0  0  0  0  0  0  0  0  0  0  0  0
  -18.9350  -30.0020   23.7750 C   0  0  0  0  0  3  0  0  0  0  0  0
  -17.6150  -30.4700   23.9140 C   0  0  0  0  0  3  0  0  0  0  0  0
  -16.5380  -29.6750   23.4850 C   0  0  0  0  0  3  0  0  0  0  0  0
  -16.7840  -28.4170   22.9060 C   0  0  0  0  0  3  0  0  0  0  0  0
  -25.8830  -32.5200   23.7750 C   0  0  0  0  0  3  0  0  0  0  0  0
  -26.4130  -31.7370   25.0390 C   0  0  1  0  0  0  0  0  0  0  0  0
  -25.3280  -31.4660   26.1060 C   0  0  0  0  0  1  0  0  0  0  0  0
  -27.0150  -30.3740   24.6240 C   0  0  0  0  0  1  0  0  0  0  0  0
  -27.5560  -32.5380   25.7080 C   0  0  0  0  0  1  0  0  0  0  0  0
  -25.5540  -33.9090   24.1250 N   0  0  0  0  0  0  0  0  0  0  0  0
  -25.8740  -34.9770   23.3830 C   0  0  0  0  0  0  0  0  0  0  0  0
  -26.5490  -34.8980   22.3520 O   0  0  0  0  0  0  0  0  0  0  0  0
  -24.9520  -34.0420   24.9240 H   0  0  0  0  0  0  0  0  0  0  0  0
  -24.1250  -36.7530   23.0400 C   0  0  0  0  0  1  0  0  0  0  0  0
  -25.3630  -36.3500   23.8580 C   0  0  0  0  0  3  0  0  0  0  0  0
  -27.4770  -37.2480   24.7250 C   0  0  0  0  0  1  0  0  0  0  0  0
  -26.3830  -37.4190   23.7730 N   0  0  0  0  0  0  0  0  0  0  0  0
  -25.9650  -38.3310   23.9320 H   0  0  0  0  0  0  0  0  0  0  0  0
  1  3  1  0
  1  2  2  0
  2  5  1  0
  3  4  2  0
  4  9  1  0
  4  7  1  0
  5  7  2  0
  5 55  1  0
  6  3  1  0
  9 11  1  0
  9  8  1  0
 11 10  1  0
 12 16  1  0
 13 12  1  0
 13 11  1  0
 14 12  2  0
 15 13  1  0
 17 25  1  0
 18 23  1  0
 19 20  1  0
 19 18  1  0
 21 20  1  0
 21 30  1  0
 21 22  1  0
 23 17  1  0
 23 22  1  0
 24 17  2  0
 25 16  1  0
 25 26  1  0
 27 28  2  0
 28 29  1  0
 28 47  1  0
 29 32  1  0
 30 27  1  0
 30 31  1  0
 31 29  2  0
 32 33  1  0
 33 34  2  0
 35 38  1  0
 35 34  1  0
 36 35  2  0
 37 36  1  0
 37 32  2  0
 38 39  1  0
 39 40  1  0
 40 41  2  0
 42 41  1  0
 42 46  1  0
 43 42  2  0
 44 39  2  0
 44 43  1  0
 45 44  1  0
 47 48  1  0
 48 51  1  0
 48 50  1  0
 49 47  2  0
 52 53  1  0
 52 27  1  0
 54 52  1  0
 56 67  2  0
 57 55  1  0
 57 62  1  0
 58 66  1  0
 58 68  1  0
 59 65  1  0
 59 61  1  0
 60 66  1  0
 61 60  1  0
 62 61  2  0
 63 57  2  0
 64 63  1  0
 64 59  2  0
 65 58  1  0
 66 56  1  0
 68 70  2  0
 69 68  1  0
 71 69  1  0
 72 81  2  0
 72 77  1  0
 73 69  1  0
 73 77  1  0
 74 73  1  0
 75 76  1  0
 75 74  1  0
 76 72  1  0
 77 78  2  0
 78 79  1  0
 80 79  2  0
 81 80  1  0
 82 56  1  0
 82 87  1  0
 82 83  1  0
 83 86  1  1
 83 84  1  0
 85 83  1  0
 87 90  1  0
 88 92  1  0
 88 87  1  0
 89 88  2  0
 92 91  1  0
 94 92  1  0
 94 95  1  0
 94 93  1  0
M  ISO  4   5 101  17 100  25 100  55 101
M  END
>  <TORSDO>  (47) 
F 20

>  <SCORE>  (47) 
-13.532

>  <name>  (47) 
46

>  <ligand_id>  (47) 
46

>  <original_smiles>  (47) 
[H]c1c(Oc2c([H])c([H])c3c(c2[H])C([H])([H])N(C(=O)C([H])(N([H])C(=O)C([H])(N([H])C([H])([H])[H])C([H])([H])[H])C(C([H])([H])[H])(C([H])([H])[H])C([H])([H])[H])C([H])(C(=O)N([H])C2([H])c4c([H])c([H])c([H])c([H])c4C([H])([H])C([H])([H])C2([H])[H])C3([H])[H])nc(C([H])(C([H])([H])[H])C([H])(N([H])C(=O)C([H])([H])N([H])C(=O)N2C([H])([H])C([H])([H])C([H])([H])C([H])(n3nc(-c4c([H])c([H])c(Oc5c([H])c([H])c(F)c([H])c5F)c([H])c4[H])c(C(=O)N([H])[H])c3N([H])[H])C2([H])[H])C([H])([H])[H])c(C([H])([H])[H])c1[H]

>  <smiles>  (47) 
[H]c1c(Oc2c([H])c([H])c3c(c2[H])C([H])([H])N(C(=O)C([H])(N([H])C(=O)C([H])(N([H])C([H])([H])[H])C([H])([H])[H])C(C([H])([H])[H])(C([H])([H])[H])C([H])([H])[H])C([H])(C(=O)N([H])C2([H])c4c([H])c([H])c([H])c([H])c4C([H])([H])C([H])([H])C2([H])[H])C3([H])[H])nc(C([H])(C([H])([H])[H])C([H])(N([H])C(=O)C([H])([H])N([H])C(=O)N2C([H])([H])C([H])([H])C([H])([H])C([H])(n3nc(-c4c([H])c([H])c(Oc5c([H])c([H])c(F)c([H])c5F)c([H])c4[H])c(C(=O)N([H])[H])c3N([H])[H])C2([H])[H])C([H])([H])[H])c(C([H])([H])[H])c1[H]

$$$$
47:0:0
     RDKit          3D

 91 99  0  0  1  0  0  0  0  0999 V2000
  -29.1460  -23.2570   20.1030 C   0  0  0  0  0  3  0  0  0  0  0  0
  -27.9570  -19.4440   20.3250 C   0  0  0  0  0  3  0  0  0  0  0  0
  -27.6690  -20.8710   20.2900 C   0  0  0  0  0  3  0  0  0  0  0  0
  -29.3060  -19.2000   20.2150 C   0  0  0  0  0  0  0  0  0  0  0  0
  -28.8170  -21.6200   20.1750 C   0  0  0  0  0  0  0  0  0  0  0  0
  -29.8320  -20.5650   20.1190 O   0  0  0  0  0  0  0  0  0  0  0  0
  -30.2460  -17.8280   20.1630 C   0  0  0  0  0  2  0  0  0  0  0  0
  -30.5730  -15.0830   20.2390 C   0  0  0  0  0  0  0  0  0  0  0  0
  -30.4510  -12.7080   19.3310 C   0  0  0  0  0  2  0  0  0  0  0  0
  -29.5100  -12.6100   18.1080 C   0  0  0  0  0  2  0  0  0  0  0  0
  -28.0560  -12.3840   18.5620 C   0  0  0  0  0  2  0  0  0  0  0  0
  -27.6440  -13.3270   19.7220 C   0  0  0  0  0  3  0  0  0  0  0  0
  -28.7090  -13.3960   20.8350 C   0  0  0  0  0  2  0  0  0  0  0  0
  -29.9640  -13.8210   20.2030 N   0  0  0  0  0  0  0  0  0  0  0  0
  -31.7780  -15.1160   19.9690 O   0  0  0  0  0  0  0  0  0  0  0  0
  -29.8230  -16.3000   20.3550 N   0  0  0  0  0  0  0  0  0  0  0  0
  -28.8420  -16.1590   20.5430 H   0  0  0  0  0  0  0  0  0  0  0  0
  -25.2810  -13.8890   20.5170 C   0  0  0  0  0  0  0  0  0  0  0  0
  -24.2220  -13.1080   20.8900 C   0  0  0  0  0  0  0  0  0  0  0  0
  -24.6860  -11.7570   20.8260 C   0  0  0  0  0  0  0  0  0  0  0  0
  -26.3180  -13.0140   20.2420 N   0  0  0  0  0  0  0  0  0  0  0  0
  -25.9720  -11.7260   20.4970 N   0  0  0  0  0  0  0  0  0  0  0  0
  -23.9620  -10.4920   21.0070 C   0  0  0  0  0  0  0  0  0  0  0  0
  -24.3860   -9.5270   21.9480 C   0  0  0  0  0  3  0  0  0  0  0  0
  -23.6640   -8.3240   22.1180 C   0  0  0  0  0  3  0  0  0  0  0  0
  -22.5050   -8.0790   21.3450 C   0  0  0  0  0  0  0  0  0  0  0  0
  -22.0990   -9.0320   20.3940 C   0  0  0  0  0  3  0  0  0  0  0  0
  -22.8220  -10.2260   20.2230 C   0  0  0  0  0  3  0  0  0  0  0  0
  -21.7540   -6.9300   21.4220 O   0  0  0  0  0  0  0  0  0  0  0  0
  -21.6580   -6.2080   22.5840 C   0  0  0  0  0  0  0  0  0  0  0  0
  -21.1620   -6.7790   23.7780 C   0  0  0  0  0  3  0  0  0  0  0  0
  -21.0190   -5.9830   24.9330 C   0  0  0  0  0  3  0  0  0  0  0  0
  -21.3590   -4.6170   24.8930 C   0  0  0  0  0  0  0  0  0  0  0  0
  -21.8460   -4.0460   23.7040 C   0  0  0  0  0  3  0  0  0  0  0  0
  -21.9940   -4.8400   22.5540 C   0  0  0  0  0  0  0  0  0  0  0  0
  -22.4440   -4.2800   21.4050 F   0  0  0  0  0  0  0  0  0  0  0  0
  -21.2120   -3.8500   25.9990 F   0  0  0  0  0  0  0  0  0  0  0  0
  -22.8280  -13.5770   21.1850 C   0  0  0  0  0  0  0  0  0  0  0  0
  -22.1170  -12.8690   22.0530 N   0  0  0  0  0  0  0  0  0  0  0  0
  -22.3820  -14.6070   20.6820 O   0  0  0  0  0  0  0  0  0  0  0  0
  -22.4980  -12.0420   22.4890 H   0  0  0  0  0  0  0  0  0  0  0  0
  -21.1770  -13.1570   22.2870 H   0  0  0  0  0  0  0  0  0  0  0  0
  -25.4460  -15.2620   20.3580 N   0  0  0  0  0  0  0  0  0  0  0  0
  -24.6950  -15.9270   20.4930 H   0  0  0  0  0  0  0  0  0  0  0  0
  -26.2840  -15.6900   19.9870 H   0  0  0  0  0  0  0  0  0  0  0  0
  -30.0590  -23.4390   18.9580 N   0  0  0  0  0  4  0  0  0  0  0  0
  -29.5570  -23.4240   18.0880 H   0  0  0  0  0  0  0  0  0  0  0  0
  -30.7210  -22.6850   18.9390 H   0  0  0  0  0  0  0  0  0  0  0  0
  -30.5640  -24.3040   19.0220 H   0  0  0  0  0  0  0  0  0  0  0  0
  -28.0270  -24.5670   20.1180 C   0  0  0  0  0  2  0  0  0  0  0  0
  -28.2810  -26.1360   20.1900 O   0  0  0  0  0  0  0  0  0  0  0  0
  -24.6740  -31.8930   23.2420 C   0  0  0  0  0  0  0  0  0  0  0  0
  -27.2230  -27.1400   20.1640 C   0  0  0  0  0  0  0  0  0  0  0  0
  -23.4660  -30.5060   21.6040 C   0  0  0  0  0  3  0  0  0  0  0  0
  -24.9020  -28.9290   20.1640 C   0  0  0  0  0  0  0  0  0  0  0  0
  -26.0240  -30.7470   21.4350 C   0  0  0  0  0  2  0  0  0  0  0  0
  -26.0880  -29.3570   20.7700 C   0  0  0  0  0  0  0  0  0  0  0  0
  -27.2480  -28.4810   20.7480 C   0  0  0  0  0  3  0  0  0  0  0  0
  -26.0010  -26.8280   19.5260 C   0  0  0  0  0  3  0  0  0  0  0  0
  -24.8730  -27.6790   19.5270 C   0  0  0  0  0  3  0  0  0  0  0  0
  -23.6800  -29.8340   20.2220 C   0  0  0  0  0  2  0  0  0  0  0  0
  -24.7430  -31.0710   22.1480 N   0  0  0  0  0  0  0  0  0  0  0  0
  -23.5900  -32.1800   23.7720 O   0  0  0  0  0  0  0  0  0  0  0  0
  -22.7820  -29.5000   22.5650 C   0  0  0  0  0  0  0  0  0  0  0  0
  -21.4540  -29.3330   22.4380 N   0  0  0  0  0  0  0  0  0  0  0  0
  -23.4510  -28.8730   23.3910 O   0  0  0  0  0  0  0  0  0  0  0  0
  -20.9680  -29.8830   21.7430 H   0  0  0  0  0  0  0  0  0  0  0  0
  -18.0720  -28.1250   22.9390 C   0  0  0  0  0  0  0  0  0  0  0  0
  -20.6320  -28.3950   23.2080 C   0  0  0  0  0  3  0  0  0  0  0  0
  -20.7380  -26.9630   22.6340 C   0  0  0  0  0  2  0  0  0  0  0  0
  -19.6370  -26.6390   21.6190 C   0  0  0  0  0  2  0  0  0  0  0  0
  -18.2540  -26.7780   22.2620 C   0  0  0  0  0  2  0  0  0  0  0  0
  -19.1880  -28.8910   23.3700 C   0  0  0  0  0  0  0  0  0  0  0  0
  -18.9630  -30.1510   23.9670 C   0  0  0  0  0  3  0  0  0  0  0  0
  -17.6580  -30.6460   24.1340 C   0  0  0  0  0  3  0  0  0  0  0  0
  -16.5560  -29.8780   23.7200 C   0  0  0  0  0  3  0  0  0  0  0  0
  -16.7640  -28.6190   23.1290 C   0  0  0  0  0  3  0  0  0  0  0  0
  -25.9550  -32.5230   23.8690 C   0  0  0  0  0  3  0  0  0  0  0  0
  -26.4720  -31.7430   25.1420 C   0  0  1  0  0  0  0  0  0  0  0  0
  -25.3800  -31.5020   26.2110 C   0  0  0  0  0  1  0  0  0  0  0  0
  -27.0490  -30.3640   24.7490 C   0  0  0  0  0  1  0  0  0  0  0  0
  -27.6280  -32.5300   25.8030 C   0  0  0  0  0  1  0  0  0  0  0  0
  -25.6440  -33.9190   24.2170 N   0  0  0  0  0  0  0  0  0  0  0  0
  -25.9480  -34.9820   23.4590 C   0  0  0  0  0  0  0  0  0  0  0  0
  -26.5830  -34.8900   22.4050 O   0  0  0  0  0  0  0  0  0  0  0  0
  -25.0690  -34.0650   25.0330 H   0  0  0  0  0  0  0  0  0  0  0  0
  -24.1870  -36.7620   23.2020 C   0  0  0  0  0  1  0  0  0  0  0  0
  -25.4740  -36.3660   23.9440 C   0  0  0  0  0  3  0  0  0  0  0  0
  -27.6380  -37.2720   24.6680 C   0  0  0  0  0  1  0  0  0  0  0  0
  -26.4890  -37.4290   23.7800 N   0  0  0  0  0  0  0  0  0  0  0  0
  -26.0830  -38.3450   23.9480 H   0  0  0  0  0  0  0  0  0  0  0  0
  1 50  1  0
  1  5  1  0
  3  2  1  0
  4  2  2  0
  5  3  2  0
  6  5  1  0
  6  4  1  0
  7  4  1  0
  7 16  1  0
  8 16  1  0
  9 14  1  0
 10 11  1  0
 10  9  1  0
 12 11  1  0
 12 21  1  0
 12 13  1  0
 14  8  1  0
 14 13  1  0
 15  8  2  0
 16 17  1  0
 18 19  2  0
 19 38  1  0
 20 19  1  0
 20 23  1  0
 21 22  1  0
 21 18  1  0
 22 20  2  0
 23 24  1  0
 24 25  2  0
 26 29  1  0
 26 25  1  0
 27 26  2  0
 28 27  1  0
 28 23  2  0
 29 30  1  0
 30 31  1  0
 31 32  2  0
 33 32  1  0
 33 37  1  0
 34 33  2  0
 35 30  2  0
 35 34  1  0
 36 35  1  0
 38 39  1  0
 39 42  1  0
 39 41  1  0
 40 38  2  0
 43 44  1  0
 43 18  1  0
 45 43  1  0
 46 49  1  0
 46  1  1  0
 47 46  1  0
 48 46  1  0
 50 51  1  0
 52 63  2  0
 53 51  1  0
 53 58  1  0
 54 62  1  0
 54 64  1  0
 55 61  1  0
 55 57  1  0
 56 62  1  0
 57 56  1  0
 58 57  2  0
 59 60  1  0
 59 53  2  0
 60 55  2  0
 61 54  1  0
 62 52  1  0
 64 66  2  0
 65 64  1  0
 67 65  1  0
 68 77  2  0
 68 73  1  0
 69 65  1  0
 69 73  1  0
 70 69  1  0
 71 72  1  0
 71 70  1  0
 72 68  1  0
 73 74  2  0
 74 75  1  0
 76 75  2  0
 77 76  1  0
 78 52  1  0
 78 83  1  0
 78 79  1  0
 79 82  1  1
 79 80  1  0
 81 79  1  0
 83 86  1  0
 84 88  1  0
 84 83  1  0
 85 84  2  0
 88 87  1  0
 90 88  1  0
 90 91  1  0
 90 89  1  0
M  ISO  4   8 100  16 100  50 101  51 101
M  END
>  <TORSDO>  (48) 
F 20

>  <SCORE>  (48) 
-14.264

>  <name>  (48) 
47

>  <ligand_id>  (48) 
47

>  <original_smiles>  (48) 
[H]c1c(C([H])([H])N([H])C(=O)N2C([H])([H])C([H])([H])C([H])([H])C([H])(n3nc(-c4c([H])c([H])c(Oc5c([H])c([H])c(F)c([H])c5F)c([H])c4[H])c(C(=O)N([H])[H])c3N([H])[H])C2([H])[H])oc(C([H])(C([H])([H])Oc2c([H])c([H])c3c(c2[H])C([H])([H])N(C(=O)C([H])(N([H])C(=O)C([H])(N([H])C([H])([H])[H])C([H])([H])[H])C(C([H])([H])[H])(C([H])([H])[H])C([H])([H])[H])C([H])(C(=O)N([H])C2([H])c4c([H])c([H])c([H])c([H])c4C([H])([H])C([H])([H])C2([H])[H])C3([H])[H])[N+]([H])([H])[H])c1[H]

>  <smiles>  (48) 
[H]c1c(C([H])([H])N([H])C(=O)N2C([H])([H])C([H])([H])C([H])([H])C([H])(n3nc(-c4c([H])c([H])c(Oc5c([H])c([H])c(F)c([H])c5F)c([H])c4[H])c(C(=O)N([H])[H])c3N([H])[H])C2([H])[H])oc(C([H])(C([H])([H])Oc2c([H])c([H])c3c(c2[H])C([H])([H])N(C(=O)C([H])(N([H])C(=O)C([H])(N([H])C([H])([H])[H])C([H])([H])[H])C(C([H])([H])[H])(C([H])([H])[H])C([H])([H])[H])C([H])(C(=O)N([H])C2([H])c4c([H])c([H])c([H])c([H])c4C([H])([H])C([H])([H])C2([H])[H])C3([H])[H])[N+]([H])([H])[H])c1[H]

$$$$
48:0:0
     RDKit          3D

 86 93  0  0  1  0  0  0  0  0999 V2000
  -29.0180  -22.2450   20.2360 C   0  0  0  0  0  3  0  0  0  0  0  0
  -28.8000  -20.3310   20.2160 C   0  0  0  0  0  2  0  0  0  0  0  0
  -30.3190  -18.9740   18.4780 C   0  0  0  0  0  1  0  0  0  0  0  0
  -29.8580  -18.7530   19.9280 C   0  0  2  0  0  0  0  0  0  0  0  0
  -30.4060  -15.6560   19.9060 C   0  0  0  0  0  0  0  0  0  0  0  0
  -30.4860  -13.1260   19.0940 C   0  0  0  0  0  2  0  0  0  0  0  0
  -29.5390  -12.7280   17.9290 C   0  0  0  0  0  2  0  0  0  0  0  0
  -28.1440  -12.3630   18.4570 C   0  0  0  0  0  2  0  0  0  0  0  0
  -27.6760  -13.3570   19.5450 C   0  0  0  0  0  3  0  0  0  0  0  0
  -28.7570  -13.6760   20.6020 C   0  0  0  0  0  2  0  0  0  0  0  0
  -29.8910  -14.2950   19.8800 N   0  0  0  0  0  0  0  0  0  0  0  0
  -31.6290  -15.6130   19.6740 O   0  0  0  0  0  0  0  0  0  0  0  0
  -29.6390  -17.0010   19.9950 N   0  0  0  0  0  0  0  0  0  0  0  0
  -28.6610  -16.7900   20.1370 H   0  0  0  0  0  0  0  0  0  0  0  0
  -25.3630  -13.8470   20.4720 C   0  0  0  0  0  0  0  0  0  0  0  0
  -24.3320  -13.0450   20.8740 C   0  0  0  0  0  0  0  0  0  0  0  0
  -24.8080  -11.7020   20.7650 C   0  0  0  0  0  0  0  0  0  0  0  0
  -26.3950  -12.9940   20.1320 N   0  0  0  0  0  0  0  0  0  0  0  0
  -26.0810  -11.6930   20.3750 N   0  0  0  0  0  0  0  0  0  0  0  0
  -24.1020  -10.4270   20.9500 C   0  0  0  0  0  0  0  0  0  0  0  0
  -24.5270   -9.4750   21.9020 C   0  0  0  0  0  3  0  0  0  0  0  0
  -23.8160   -8.2680   22.0770 C   0  0  0  0  0  3  0  0  0  0  0  0
  -22.6630   -8.0050   21.3000 C   0  0  0  0  0  0  0  0  0  0  0  0
  -22.2550   -8.9460   20.3370 C   0  0  0  0  0  3  0  0  0  0  0  0
  -22.9680  -10.1430   20.1610 C   0  0  0  0  0  3  0  0  0  0  0  0
  -21.9240   -6.8490   21.3840 O   0  0  0  0  0  0  0  0  0  0  0  0
  -21.7770   -6.1730   22.5680 C   0  0  0  0  0  0  0  0  0  0  0  0
  -21.1860   -6.7730   23.7010 C   0  0  0  0  0  3  0  0  0  0  0  0
  -20.9910   -6.0200   24.8760 C   0  0  0  0  0  3  0  0  0  0  0  0
  -21.3780   -4.6670   24.9180 C   0  0  0  0  0  0  0  0  0  0  0  0
  -21.9600   -4.0660   23.7890 C   0  0  0  0  0  3  0  0  0  0  0  0
  -22.1560   -4.8160   22.6160 C   0  0  0  0  0  0  0  0  0  0  0  0
  -22.7000   -4.2260   21.5250 F   0  0  0  0  0  0  0  0  0  0  0  0
  -21.1830   -3.9410   26.0440 F   0  0  0  0  0  0  0  0  0  0  0  0
  -22.9490  -13.5000   21.2370 C   0  0  0  0  0  0  0  0  0  0  0  0
  -22.2810  -12.7750   22.1260 N   0  0  0  0  0  0  0  0  0  0  0  0
  -22.4750  -14.5350   20.7690 O   0  0  0  0  0  0  0  0  0  0  0  0
  -22.6800  -11.9400   22.5250 H   0  0  0  0  0  0  0  0  0  0  0  0
  -21.3560  -13.0620   22.4140 H   0  0  0  0  0  0  0  0  0  0  0  0
  -25.5010  -15.2240   20.3320 N   0  0  0  0  0  0  0  0  0  0  0  0
  -24.7320  -15.8630   20.5070 H   0  0  0  0  0  0  0  0  0  0  0  0
  -26.3120  -15.6820   19.9380 H   0  0  0  0  0  0  0  0  0  0  0  0
  -30.8110  -18.5830   22.3130 C   0  0  0  0  0  1  0  0  0  0  0  0
  -31.0670  -18.9880   20.8540 C   0  0  0  0  0  2  0  0  0  0  0  0
  -28.0070  -23.8830   20.2480 C   0  0  0  0  0  3  0  0  0  0  0  0
  -28.2050  -25.6170   20.3180 O   0  0  0  0  0  0  0  0  0  0  0  0
  -24.6860  -31.8530   23.2440 C   0  0  0  0  0  0  0  0  0  0  0  0
  -27.2230  -26.8060   20.2660 C   0  0  0  0  0  0  0  0  0  0  0  0
  -23.5020  -30.4560   21.6060 C   0  0  0  0  0  3  0  0  0  0  0  0
  -24.9510  -28.8120   20.1980 C   0  0  0  0  0  0  0  0  0  0  0  0
  -26.0780  -30.6090   21.4860 C   0  0  0  0  0  2  0  0  0  0  0  0
  -26.1440  -29.1790   20.8320 C   0  0  0  0  0  0  0  0  0  0  0  0
  -27.2670  -28.2030   20.8330 C   0  0  0  0  0  3  0  0  0  0  0  0
  -25.9940  -26.6370   19.5790 C   0  0  0  0  0  3  0  0  0  0  0  0
  -24.9120  -27.5670   19.5490 C   0  0  0  0  0  3  0  0  0  0  0  0
  -23.7420  -29.7590   20.2360 C   0  0  0  0  0  2  0  0  0  0  0  0
  -24.7780  -31.0040   22.1650 N   0  0  0  0  0  0  0  0  0  0  0  0
  -23.5920  -32.1530   23.7530 O   0  0  0  0  0  0  0  0  0  0  0  0
  -22.7840  -29.4760   22.5750 C   0  0  0  0  0  0  0  0  0  0  0  0
  -21.4550  -29.3110   22.4350 N   0  0  0  0  0  0  0  0  0  0  0  0
  -23.4360  -28.8630   23.4230 O   0  0  0  0  0  0  0  0  0  0  0  0
  -20.9800  -29.8560   21.7300 H   0  0  0  0  0  0  0  0  0  0  0  0
  -18.0700  -28.0850   22.9210 C   0  0  0  0  0  0  0  0  0  0  0  0
  -20.6260  -28.3750   23.2040 C   0  0  0  0  0  3  0  0  0  0  0  0
  -20.7410  -26.9390   22.6410 C   0  0  0  0  0  2  0  0  0  0  0  0
  -19.6520  -26.6020   21.6180 C   0  0  0  0  0  2  0  0  0  0  0  0
  -18.2630  -26.7370   22.2480 C   0  0  0  0  0  2  0  0  0  0  0  0
  -19.1770  -28.8610   23.3550 C   0  0  0  0  0  0  0  0  0  0  0  0
  -18.9390  -30.1200   23.9490 C   0  0  0  0  0  3  0  0  0  0  0  0
  -17.6270  -30.6040   24.1090 C   0  0  0  0  0  3  0  0  0  0  0  0
  -16.5340  -29.8270   23.6870 C   0  0  0  0  0  3  0  0  0  0  0  0
  -16.7560  -28.5690   23.1000 C   0  0  0  0  0  3  0  0  0  0  0  0
  -25.9490  -32.5010   23.8890 C   0  0  0  0  0  3  0  0  0  0  0  0
  -26.4350  -31.7470   25.1890 C   0  0  1  0  0  0  0  0  0  0  0  0
  -25.3210  -31.5290   26.2390 C   0  0  0  0  0  1  0  0  0  0  0  0
  -27.0210  -30.3600   24.8390 C   0  0  0  0  0  1  0  0  0  0  0  0
  -27.5760  -32.5460   25.8620 C   0  0  0  0  0  1  0  0  0  0  0  0
  -25.6290  -33.9040   24.2160 N   0  0  0  0  0  0  0  0  0  0  0  0
  -25.9400  -34.9640   23.4580 C   0  0  0  0  0  0  0  0  0  0  0  0
  -26.5850  -34.8640   22.4120 O   0  0  0  0  0  0  0  0  0  0  0  0
  -25.0500  -34.0550   25.0290 H   0  0  0  0  0  0  0  0  0  0  0  0
  -24.1820  -36.7490   23.1830 C   0  0  0  0  0  1  0  0  0  0  0  0
  -25.4650  -36.3550   23.9330 C   0  0  0  0  0  3  0  0  0  0  0  0
  -27.6240  -37.2750   24.6590 C   0  0  0  0  0  1  0  0  0  0  0  0
  -26.4820  -37.4170   23.7610 N   0  0  0  0  0  0  0  0  0  0  0  0
  -26.0730  -38.3360   23.9110 H   0  0  0  0  0  0  0  0  0  0  0  0
  1 45  2  0
  2  1  1  0
  4  3  1  6
  4 13  1  0
  4  2  1  0
  4 44  1  0
  5 13  1  0
  6 11  1  0
  7  8  1  0
  7  6  1  0
  9  8  1  0
  9 18  1  0
  9 10  1  0
 11  5  1  0
 11 10  1  0
 12  5  2  0
 13 14  1  0
 15 16  2  0
 16 35  1  0
 17 16  1  0
 17 20  1  0
 18 19  1  0
 18 15  1  0
 19 17  2  0
 20 21  1  0
 21 22  2  0
 23 26  1  0
 23 22  1  0
 24 23  2  0
 25 24  1  0
 25 20  2  0
 26 27  1  0
 27 32  2  0
 27 28  1  0
 28 29  2  0
 29 30  1  0
 30 34  1  0
 31 30  2  0
 32 31  1  0
 33 32  1  0
 35 36  1  0
 36 39  1  0
 36 38  1  0
 37 35  2  0
 40 15  1  0
 40 41  1  0
 42 40  1  0
 44 43  1  0
 45 46  1  0
 47 58  2  0
 48 46  1  0
 48 53  1  0
 49 57  1  0
 49 59  1  0
 50 56  1  0
 50 52  1  0
 51 57  1  0
 52 53  2  0
 52 51  1  0
 54 48  2  0
 55 54  1  0
 55 50  2  0
 56 49  1  0
 57 47  1  0
 59 61  2  0
 60 59  1  0
 62 60  1  0
 63 72  2  0
 63 68  1  0
 64 60  1  0
 64 68  1  0
 65 64  1  0
 66 67  1  0
 66 65  1  0
 67 63  1  0
 68 69  2  0
 69 70  1  0
 71 70  2  0
 72 71  1  0
 73 47  1  0
 73 78  1  0
 73 74  1  0
 74 77  1  1
 74 75  1  0
 76 74  1  0
 78 81  1  0
 79 83  1  0
 79 78  1  0
 80 79  2  0
 83 82  1  0
 85 86  1  0
 85 83  1  0
 85 84  1  0
M  ISO  4   5 100  13 100  45 101  46 101
M  END
>  <TORSDO>  (49) 
F 20

>  <SCORE>  (49) 
-15.641

>  <name>  (49) 
48

>  <ligand_id>  (49) 
48

>  <original_smiles>  (49) 
[H]c1c([H])c([H])c2c(c1[H])C([H])([H])C([H])([H])C([H])([H])C2([H])N([H])C(=O)C1([H])N(C(=O)C([H])(N([H])C(=O)C([H])(N([H])C([H])([H])[H])C([H])([H])[H])C(C([H])([H])[H])(C([H])([H])[H])C([H])([H])[H])C([H])([H])c2c([H])c(OC([H])([H])C([H])([H])C([H])([H])C(N([H])C(=O)N3C([H])([H])C([H])([H])C([H])([H])C([H])(n4nc(-c5c([H])c([H])c(Oc6c([H])c([H])c(F)c([H])c6F)c([H])c5[H])c(C(=O)N([H])[H])c4N([H])[H])C3([H])[H])(C([H])([H])[H])C([H])([H])C([H])([H])[H])c([H])c([H])c2C1([H])[H]

>  <smiles>  (49) 
[H]c1c([H])c([H])c2c(c1[H])C([H])([H])C([H])([H])C([H])([H])C2([H])N([H])C(=O)C1([H])N(C(=O)C([H])(N([H])C(=O)C([H])(N([H])C([H])([H])[H])C([H])([H])[H])C(C([H])([H])[H])(C([H])([H])[H])C([H])([H])[H])C([H])([H])c2c([H])c(OC([H])([H])C([H])([H])C([H])([H])C(N([H])C(=O)N3C([H])([H])C([H])([H])C([H])([H])C([H])(n4nc(-c5c([H])c([H])c(Oc6c([H])c([H])c(F)c([H])c6F)c([H])c5[H])c(C(=O)N([H])[H])c4N([H])[H])C3([H])[H])(C([H])([H])[H])C([H])([H])C([H])([H])[H])c([H])c([H])c2C1([H])[H]

$$$$
49:0:0
     RDKit          3D

 94102  0  0  1  0  0  0  0  0999 V2000
  -29.5570  -21.2710   20.0850 C   0  0  0  0  0  3  0  0  0  0  0  0
  -27.6080  -21.4260   19.2840 C   0  0  0  0  0  3  0  0  0  0  0  0
  -28.4820  -22.3550   19.8460 C   0  0  0  0  0  0  0  0  0  0  0  0
  -29.3290  -19.8510   19.7170 C   0  0  0  0  0  0  0  0  0  0  0  0
  -28.0250  -20.0450   19.2330 N   0  0  0  0  0  0  0  0  0  0  0  0
  -25.9430  -19.3430   17.9670 C   0  0  0  0  0  1  0  0  0  0  0  0
  -26.7210  -18.1030   20.0270 C   0  0  0  0  0  1  0  0  0  0  0  0
  -27.1730  -18.9270   18.8070 C   0  0  0  0  0  3  0  0  0  0  0  0
  -30.1580  -18.2740   19.8810 C   0  0  0  0  0  2  0  0  0  0  0  0
  -30.5260  -15.3130   19.8230 C   0  0  0  0  0  0  0  0  0  0  0  0
  -30.4810  -12.8270   19.0130 C   0  0  0  0  0  2  0  0  0  0  0  0
  -29.5090  -12.5410   17.8400 C   0  0  0  0  0  2  0  0  0  0  0  0
  -28.0840  -12.2840   18.3540 C   0  0  0  0  0  2  0  0  0  0  0  0
  -27.6790  -13.2890   19.4590 C   0  0  0  0  0  3  0  0  0  0  0  0
  -28.7730  -13.4790   20.5280 C   0  0  0  0  0  2  0  0  0  0  0  0
  -29.9570  -14.0000   19.8160 N   0  0  0  0  0  0  0  0  0  0  0  0
  -31.7430  -15.2800   19.5790 O   0  0  0  0  0  0  0  0  0  0  0  0
  -29.7850  -16.6210   19.9030 N   0  0  0  0  0  0  0  0  0  0  0  0
  -28.7920  -16.4680   19.9650 H   0  0  0  0  0  0  0  0  0  0  0  0
  -25.3760  -13.9000   20.3480 C   0  0  0  0  0  0  0  0  0  0  0  0
  -24.3110  -13.1500   20.7650 C   0  0  0  0  0  0  0  0  0  0  0  0
  -24.7350  -11.7880   20.6900 C   0  0  0  0  0  0  0  0  0  0  0  0
  -26.3750  -12.9990   20.0340 N   0  0  0  0  0  0  0  0  0  0  0  0
  -26.0070  -11.7210   20.3100 N   0  0  0  0  0  0  0  0  0  0  0  0
  -23.9830  -10.5440   20.9000 C   0  0  0  0  0  0  0  0  0  0  0  0
  -24.4110   -9.5690   21.8290 C   0  0  0  0  0  3  0  0  0  0  0  0
  -23.6550   -8.3950   22.0320 C   0  0  0  0  0  3  0  0  0  0  0  0
  -22.4580   -8.1870   21.3040 C   0  0  0  0  0  0  0  0  0  0  0  0
  -22.0480   -9.1520   20.3660 C   0  0  0  0  0  3  0  0  0  0  0  0
  -22.8060  -10.3170   20.1610 C   0  0  0  0  0  3  0  0  0  0  0  0
  -21.6800   -7.0590   21.4060 O   0  0  0  0  0  0  0  0  0  0  0  0
  -21.6030   -6.3460   22.5760 C   0  0  0  0  0  0  0  0  0  0  0  0
  -21.1950   -6.9450   23.7870 C   0  0  0  0  0  3  0  0  0  0  0  0
  -21.0530   -6.1600   24.9490 C   0  0  0  0  0  3  0  0  0  0  0  0
  -21.3200   -4.7790   24.9010 C   0  0  0  0  0  0  0  0  0  0  0  0
  -21.7280   -4.1810   23.6960 C   0  0  0  0  0  3  0  0  0  0  0  0
  -21.8650   -4.9620   22.5350 C   0  0  0  0  0  0  0  0  0  0  0  0
  -22.2350   -4.3770   21.3700 F   0  0  0  0  0  0  0  0  0  0  0  0
  -21.1810   -4.0250   26.0160 F   0  0  0  0  0  0  0  0  0  0  0  0
  -22.9450  -13.6670   21.1030 C   0  0  0  0  0  0  0  0  0  0  0  0
  -22.2330  -12.9990   22.0020 N   0  0  0  0  0  0  0  0  0  0  0  0
  -22.5110  -14.7030   20.5980 O   0  0  0  0  0  0  0  0  0  0  0  0
  -22.5900  -12.1640   22.4440 H   0  0  0  0  0  0  0  0  0  0  0  0
  -21.3180  -13.3430   22.2600 H   0  0  0  0  0  0  0  0  0  0  0  0
  -25.5700  -15.2680   20.1790 N   0  0  0  0  0  0  0  0  0  0  0  0
  -24.8280  -15.9360   20.3440 H   0  0  0  0  0  0  0  0  0  0  0  0
  -26.3550  -15.6700   19.6860 H   0  0  0  0  0  0  0  0  0  0  0  0
  -27.8940  -24.0400   20.2450 C   0  0  0  0  0  3  0  0  0  0  0  0
  -28.2170  -25.6640   19.9600 O   0  0  0  0  0  0  0  0  0  0  0  0
  -24.6020  -31.6420   23.0520 C   0  0  0  0  0  0  0  0  0  0  0  0
  -27.2330  -26.8130   19.9720 C   0  0  0  0  0  0  0  0  0  0  0  0
  -23.4530  -30.2900   21.3480 C   0  0  0  0  0  3  0  0  0  0  0  0
  -24.9420  -28.7260   19.9180 C   0  0  0  0  0  0  0  0  0  0  0  0
  -26.0240  -30.5060   21.2650 C   0  0  0  0  0  2  0  0  0  0  0  0
  -26.1190  -29.1070   20.5760 C   0  0  0  0  0  0  0  0  0  0  0  0
  -27.2650  -28.1780   20.5690 C   0  0  0  0  0  3  0  0  0  0  0  0
  -26.0280  -26.6020   19.2680 C   0  0  0  0  0  3  0  0  0  0  0  0
  -24.9280  -27.4970   19.2410 C   0  0  0  0  0  3  0  0  0  0  0  0
  -23.7190  -29.6420   19.9610 C   0  0  0  0  0  2  0  0  0  0  0  0
  -24.7140  -30.8390   21.9430 N   0  0  0  0  0  0  0  0  0  0  0  0
  -23.5010  -31.9140   23.5580 O   0  0  0  0  0  0  0  0  0  0  0  0
  -22.7380  -29.2670   22.2730 C   0  0  0  0  0  0  0  0  0  0  0  0
  -21.4020  -29.1540   22.1690 N   0  0  0  0  0  0  0  0  0  0  0  0
  -23.3980  -28.5740   23.0520 O   0  0  0  0  0  0  0  0  0  0  0  0
  -20.9210  -29.7740   21.5330 H   0  0  0  0  0  0  0  0  0  0  0  0
  -17.9840  -28.0580   22.7280 C   0  0  0  0  0  0  0  0  0  0  0  0
  -20.5630  -28.1950   22.9020 C   0  0  0  0  0  3  0  0  0  0  0  0
  -20.5740  -26.8060   22.2220 C   0  0  0  0  0  2  0  0  0  0  0  0
  -19.4210  -26.6100   21.2310 C   0  0  0  0  0  2  0  0  0  0  0  0
  -18.0740  -26.7610   21.9430 C   0  0  0  0  0  2  0  0  0  0  0  0
  -19.1530  -28.7390   23.1660 C   0  0  0  0  0  0  0  0  0  0  0  0
  -19.0110  -29.9560   23.8690 C   0  0  0  0  0  3  0  0  0  0  0  0
  -17.7370  -30.4920   24.1310 C   0  0  0  0  0  3  0  0  0  0  0  0
  -16.5850  -29.8090   23.7040 C   0  0  0  0  0  3  0  0  0  0  0  0
  -16.7090  -28.5910   23.0110 C   0  0  0  0  0  3  0  0  0  0  0  0
  -25.8540  -32.2720   23.7330 C   0  0  0  0  0  3  0  0  0  0  0  0
  -25.5280  -33.6680   24.0850 N   0  0  0  0  0  0  0  0  0  0  0  0
  -25.8760  -34.7430   23.3680 C   0  0  0  0  0  0  0  0  0  0  0  0
  -26.5640  -34.6650   22.3450 O   0  0  0  0  0  0  0  0  0  0  0  0
  -24.9090  -33.7990   24.8710 H   0  0  0  0  0  0  0  0  0  0  0  0
  -24.1490  -36.5540   23.0500 C   0  0  0  0  0  1  0  0  0  0  0  0
  -25.3860  -36.1230   23.8540 C   0  0  0  0  0  3  0  0  0  0  0  0
  -27.5160  -37.0050   24.7040 C   0  0  0  0  0  1  0  0  0  0  0  0
  -26.4160  -37.1810   23.7630 N   0  0  0  0  0  0  0  0  0  0  0  0
  -26.0040  -38.0970   23.9220 H   0  0  0  0  0  0  0  0  0  0  0  0
  -26.3210  -31.4840   25.0200 C   0  0  1  0  0  0  0  0  0  0  0  0
  -25.1920  -31.2480   26.0510 C   0  0  0  0  0  1  0  0  0  0  0  0
  -26.9000  -30.1010   24.6440 C   0  0  0  0  0  1  0  0  0  0  0  0
  -27.4570  -32.2620   25.7260 C   0  0  0  0  0  1  0  0  0  0  0  0
  -27.7670  -24.0070   21.7830 C   0  0  0  0  0  2  0  0  0  0  0  0
  -27.0050  -25.1420   22.3460 N   0  0  0  0  0  4  0  0  0  0  0  0
  -27.3440  -25.9920   21.9240 H   0  0  0  0  0  0  0  0  0  0  0  0
  -27.1260  -25.2010   23.3420 H   0  0  0  0  0  0  0  0  0  0  0  0
  -26.0230  -25.0560   22.1460 H   0  0  0  0  0  0  0  0  0  0  0  0
  2  3  2  0
  3  1  1  0
  3 48  1  0
  4  9  1  0
  4  1  2  0
  5  2  1  0
  5  4  1  0
  6  8  1  0
  8  5  1  0
  8  7  1  0
  9 18  1  0
 10 18  1  0
 11 16  1  0
 12 13  1  0
 12 11  1  0
 14 13  1  0
 14 23  1  0
 14 15  1  0
 16 10  1  0
 16 15  1  0
 17 10  2  0
 18 19  1  0
 20 21  2  0
 21 40  1  0
 22 21  1  0
 22 25  1  0
 23 24  1  0
 23 20  1  0
 24 22  2  0
 25 26  1  0
 26 27  2  0
 28 31  1  0
 28 27  1  0
 29 28  2  0
 30 29  1  0
 30 25  2  0
 31 32  1  0
 32 33  1  0
 33 34  2  0
 35 34  1  0
 35 39  1  0
 36 35  2  0
 37 32  2  0
 37 36  1  0
 38 37  1  0
 40 41  1  0
 41 44  1  0
 41 43  1  0
 42 40  2  0
 45 46  1  0
 45 20  1  0
 47 45  1  0
 48 90  1  0
 49 51  1  0
 49 48  1  0
 50 61  2  0
 51 56  1  0
 52 60  1  0
 52 62  1  0
 53 59  1  0
 53 55  1  0
 54 60  1  0
 55 54  1  0
 56 55  2  0
 57 51  2  0
 58 57  1  0
 58 53  2  0
 59 52  1  0
 60 50  1  0
 62 64  2  0
 63 62  1  0
 65 63  1  0
 66 75  2  0
 66 71  1  0
 67 63  1  0
 67 71  1  0
 68 67  1  0
 69 70  1  0
 69 68  1  0
 70 66  1  0
 71 72  2  0
 72 73  1  0
 74 73  2  0
 75 74  1  0
 76 50  1  0
 76 77  1  0
 76 86  1  0
 77 80  1  0
 78 82  1  0
 78 77  1  0
 79 78  2  0
 82 81  1  0
 84 82  1  0
 84 85  1  0
 84 83  1  0
 86 89  1  1
 86 87  1  0
 88 86  1  0
 90 91  1  0
 91 93  1  0
 92 91  1  0
 94 91  1  0
M  ISO  4  10 100  18 100  48 101  49 101
M  END
>  <TORSDO>  (50) 
F 21

>  <SCORE>  (50) 
-14.926

>  <name>  (50) 
49

>  <ligand_id>  (50) 
49

>  <original_smiles>  (50) 
[H]c1c([H])c([H])c2c(c1[H])C([H])([H])C([H])([H])C([H])([H])C2([H])N([H])C(=O)C1([H])N(C(=O)C([H])(N([H])C(=O)C([H])(N([H])C([H])([H])[H])C([H])([H])[H])C(C([H])([H])[H])(C([H])([H])[H])C([H])([H])[H])C([H])([H])c2c([H])c(OC([H])(c3c([H])c(C([H])([H])N([H])C(=O)N4C([H])([H])C([H])([H])C([H])([H])C([H])(n5nc(-c6c([H])c([H])c(Oc7c([H])c([H])c(F)c([H])c7F)c([H])c6[H])c(C(=O)N([H])[H])c5N([H])[H])C4([H])[H])n(C([H])(C([H])([H])[H])C([H])([H])[H])c3[H])C([H])([H])[N+]([H])([H])[H])c([H])c([H])c2C1([H])[H]

>  <smiles>  (50) 
[H]c1c([H])c([H])c2c(c1[H])C([H])([H])C([H])([H])C([H])([H])C2([H])N([H])C(=O)C1([H])N(C(=O)C([H])(N([H])C(=O)C([H])(N([H])C([H])([H])[H])C([H])([H])[H])C(C([H])([H])[H])(C([H])([H])[H])C([H])([H])[H])C([H])([H])c2c([H])c(OC([H])(c3c([H])c(C([H])([H])N([H])C(=O)N4C([H])([H])C([H])([H])C([H])([H])C([H])(n5nc(-c6c([H])c([H])c(Oc7c([H])c([H])c(F)c([H])c7F)c([H])c6[H])c(C(=O)N([H])[H])c5N([H])[H])C4([H])[H])n(C([H])(C([H])([H])[H])C([H])([H])[H])c3[H])C([H])([H])[N+]([H])([H])[H])c([H])c([H])c2C1([H])[H]

$$$$
50:0:0
     RDKit          3D

 97106  0  0  1  0  0  0  0  0999 V2000
  -28.8770  -22.2870   19.9450 C   0  0  0  0  0  3  0  0  0  0  0  0
  -27.5390  -23.5060   21.5330 C   0  0  0  0  0  3  0  0  0  0  0  0
  -28.3140  -23.5720   20.3670 C   0  0  0  0  0  0  0  0  0  0  0  0
  -28.6530  -21.0310   20.6640 C   0  0  0  0  0  0  0  0  0  0  0  0
  -27.8130  -21.1770   21.7980 C   0  0  0  0  0  0  0  0  0  0  0  0
  -27.3920  -19.9910   22.6510 C   0  0  0  0  0  1  0  0  0  0  0  0
  -27.3010  -22.3610   22.2150 N   0  0  0  0  0  0  0  0  0  0  0  0
  -29.2010  -19.5500   20.2500 C   0  0  0  0  0  2  0  0  0  0  0  0
  -31.5920  -17.6930   23.5030 C   0  0  0  0  0  3  0  0  0  0  0  0
  -31.0600  -16.8030   22.5660 C   0  0  0  0  0  3  0  0  0  0  0  0
  -30.6940  -19.5230   22.2250 C   0  0  0  0  0  3  0  0  0  0  0  0
  -31.4290  -19.0710   23.3320 C   0  0  0  0  0  0  0  0  0  0  0  0
  -30.0550  -18.6700   21.2830 C   0  0  0  0  0  0  0  0  0  0  0  0
  -30.3110  -17.1990   21.4230 C   0  0  0  0  0  0  0  0  0  0  0  0
  -30.6060  -14.8020   20.4640 C   0  0  0  0  0  0  0  0  0  0  0  0
  -30.4330  -12.5030   19.4650 C   0  0  0  0  0  2  0  0  0  0  0  0
  -29.5070  -12.4980   18.2320 C   0  0  0  0  0  2  0  0  0  0  0  0
  -28.0380  -12.3120   18.6570 C   0  0  0  0  0  2  0  0  0  0  0  0
  -27.6340  -13.2320   19.8400 C   0  0  0  0  0  3  0  0  0  0  0  0
  -28.6810  -13.2150   20.9720 C   0  0  0  0  0  2  0  0  0  0  0  0
  -29.9630  -13.5850   20.3630 N   0  0  0  0  0  0  0  0  0  0  0  0
  -31.8070  -14.8560   20.1770 O   0  0  0  0  0  0  0  0  0  0  0  0
  -29.8800  -15.9910   20.6570 N   0  0  0  0  0  0  0  0  0  0  0  0
  -28.8840  -15.9060   20.5190 H   0  0  0  0  0  0  0  0  0  0  0  0
  -25.2500  -13.8200   20.5700 C   0  0  0  0  0  0  0  0  0  0  0  0
  -24.1800  -13.0440   20.9220 C   0  0  0  0  0  0  0  0  0  0  0  0
  -24.6390  -11.6920   20.8760 C   0  0  0  0  0  0  0  0  0  0  0  0
  -26.2910  -12.9400   20.3260 N   0  0  0  0  0  0  0  0  0  0  0  0
  -25.9320  -11.6540   20.5760 N   0  0  0  0  0  0  0  0  0  0  0  0
  -23.9070  -10.4300   21.0420 C   0  0  0  0  0  0  0  0  0  0  0  0
  -24.3620   -9.4210   21.9200 C   0  0  0  0  0  3  0  0  0  0  0  0
  -23.6290   -8.2250   22.0760 C   0  0  0  0  0  3  0  0  0  0  0  0
  -22.4270   -8.0290   21.3550 C   0  0  0  0  0  0  0  0  0  0  0  0
  -21.9920   -9.0270   20.4650 C   0  0  0  0  0  3  0  0  0  0  0  0
  -22.7250  -10.2150   20.3070 C   0  0  0  0  0  3  0  0  0  0  0  0
  -21.6650   -6.8890   21.4250 O   0  0  0  0  0  0  0  0  0  0  0  0
  -21.6860   -6.0740   22.5280 C   0  0  0  0  0  0  0  0  0  0  0  0
  -21.4010   -6.5640   23.8210 C   0  0  0  0  0  3  0  0  0  0  0  0
  -21.3650   -5.6790   24.9170 C   0  0  0  0  0  3  0  0  0  0  0  0
  -21.6040   -4.3060   24.7230 C   0  0  0  0  0  0  0  0  0  0  0  0
  -21.8820   -3.8150   23.4350 C   0  0  0  0  0  3  0  0  0  0  0  0
  -21.9190   -4.6970   22.3400 C   0  0  0  0  0  0  0  0  0  0  0  0
  -22.1670   -4.2150   21.0980 F   0  0  0  0  0  0  0  0  0  0  0  0
  -21.5620   -3.4540   25.7740 F   0  0  0  0  0  0  0  0  0  0  0  0
  -22.7820  -13.5230   21.1860 C   0  0  0  0  0  0  0  0  0  0  0  0
  -22.0450  -12.8230   22.0410 N   0  0  0  0  0  0  0  0  0  0  0  0
  -22.3520  -14.5540   20.6700 O   0  0  0  0  0  0  0  0  0  0  0  0
  -22.4050  -11.9890   22.4790 H   0  0  0  0  0  0  0  0  0  0  0  0
  -21.1070  -13.1270   22.2600 H   0  0  0  0  0  0  0  0  0  0  0  0
  -25.4190  -15.1920   20.4090 N   0  0  0  0  0  0  0  0  0  0  0  0
  -24.6520  -15.8460   20.5180 H   0  0  0  0  0  0  0  0  0  0  0  0
  -26.2620  -15.6300   20.0610 H   0  0  0  0  0  0  0  0  0  0  0  0
  -33.0250  -19.5010   25.3120 C   0  0  0  0  0  1  0  0  0  0  0  0
  -30.8610  -20.7870   25.0980 C   0  0  0  0  0  1  0  0  0  0  0  0
  -31.9920  -20.0850   24.3290 C   0  0  0  0  0  3  0  0  0  0  0  0
  -28.4130  -24.9640   19.5670 C   0  0  0  0  0  2  0  0  0  0  0  0
  -28.3200  -26.3330   20.2170 O   0  0  0  0  0  0  0  0  0  0  0  0
  -24.6360  -31.8510   23.1920 C   0  0  0  0  0  0  0  0  0  0  0  0
  -27.2160  -27.2230   20.1250 C   0  0  0  0  0  0  0  0  0  0  0  0
  -23.4330  -30.4730   21.5370 C   0  0  0  0  0  3  0  0  0  0  0  0
  -24.8760  -28.9100   20.1060 C   0  0  0  0  0  0  0  0  0  0  0  0
  -25.9810  -30.7510   21.3760 C   0  0  0  0  0  2  0  0  0  0  0  0
  -26.0480  -29.3710   20.7160 C   0  0  0  0  0  0  0  0  0  0  0  0
  -27.2160  -28.5380   20.7140 C   0  0  0  0  0  3  0  0  0  0  0  0
  -26.0140  -26.8310   19.4950 C   0  0  0  0  0  3  0  0  0  0  0  0
  -24.8660  -27.6510   19.4860 C   0  0  0  0  0  3  0  0  0  0  0  0
  -23.6500  -29.8030   20.1540 C   0  0  0  0  0  2  0  0  0  0  0  0
  -24.7030  -31.0440   22.0910 N   0  0  0  0  0  0  0  0  0  0  0  0
  -23.5500  -32.1390   23.7160 O   0  0  0  0  0  0  0  0  0  0  0  0
  -22.7530  -29.4590   22.4880 C   0  0  0  0  0  0  0  0  0  0  0  0
  -21.4230  -29.3050   22.3630 N   0  0  0  0  0  0  0  0  0  0  0  0
  -23.4200  -28.8120   23.2990 O   0  0  0  0  0  0  0  0  0  0  0  0
  -20.9410  -29.8810   21.6880 H   0  0  0  0  0  0  0  0  0  0  0  0
  -18.0300  -28.1390   22.8470 C   0  0  0  0  0  0  0  0  0  0  0  0
  -20.5910  -28.3700   23.1250 C   0  0  0  0  0  3  0  0  0  0  0  0
  -20.6780  -26.9420   22.5400 C   0  0  0  0  0  2  0  0  0  0  0  0
  -19.5760  -26.6380   21.5210 C   0  0  0  0  0  2  0  0  0  0  0  0
  -18.1940  -26.7930   22.1610 C   0  0  0  0  0  2  0  0  0  0  0  0
  -19.1560  -28.8860   23.2850 C   0  0  0  0  0  0  0  0  0  0  0  0
  -18.9480  -30.1470   23.8860 C   0  0  0  0  0  3  0  0  0  0  0  0
  -17.6480  -30.6590   24.0570 C   0  0  0  0  0  3  0  0  0  0  0  0
  -16.5370  -29.9080   23.6340 C   0  0  0  0  0  3  0  0  0  0  0  0
  -16.7300  -28.6500   23.0340 C   0  0  0  0  0  3  0  0  0  0  0  0
  -25.9160  -32.4720   23.8300 C   0  0  0  0  0  3  0  0  0  0  0  0
  -26.4510  -31.6590   25.0730 C   0  0  1  0  0  0  0  0  0  0  0  0
  -25.3700  -31.3790   26.1440 C   0  0  0  0  0  1  0  0  0  0  0  0
  -27.0360  -30.2990   24.6280 C   0  0  0  0  0  1  0  0  0  0  0  0
  -27.6030  -32.4370   25.7530 C   0  0  0  0  0  1  0  0  0  0  0  0
  -25.5960  -33.8530   24.2220 N   0  0  0  0  0  0  0  0  0  0  0  0
  -25.9070  -34.9420   23.5060 C   0  0  0  0  0  0  0  0  0  0  0  0
  -26.5630  -34.8900   22.4630 O   0  0  0  0  0  0  0  0  0  0  0  0
  -25.0160  -33.9670   25.0390 H   0  0  0  0  0  0  0  0  0  0  0  0
  -24.1480  -36.7270   23.2640 C   0  0  0  0  0  1  0  0  0  0  0  0
  -25.4110  -36.3050   24.0310 C   0  0  0  0  0  3  0  0  0  0  0  0
  -27.5560  -37.1790   24.8460 C   0  0  0  0  0  1  0  0  0  0  0  0
  -26.4270  -37.3760   23.9410 N   0  0  0  0  0  0  0  0  0  0  0  0
  -26.0150  -38.2820   24.1440 H   0  0  0  0  0  0  0  0  0  0  0  0
  1  3  2  0
  1  4  1  0
  2  7  2  0
  3  2  1  0
  4  5  2  0
  5  7  1  0
  5  6  1  0
  8  4  1  0
  8 13  1  0
 10  9  2  0
 11 12  2  0
 12  9  1  0
 12 55  1  0
 13 14  2  0
 13 11  1  0
 14 10  1  0
 15 23  1  0
 16 21  1  0
 17 18  1  0
 17 16  1  0
 19 18  1  0
 19 28  1  0
 19 20  1  0
 21 15  1  0
 21 20  1  0
 22 15  2  0
 23 14  1  0
 24 23  1  0
 25 26  2  0
 26 45  1  0
 27 26  1  0
 27 30  1  0
 28 25  1  0
 28 29  1  0
 29 27  2  0
 30 31  1  0
 31 32  2  0
 33 36  1  0
 33 32  1  0
 34 33  2  0
 35 34  1  0
 35 30  2  0
 36 37  1  0
 37 38  1  0
 38 39  2  0
 40 39  1  0
 40 44  1  0
 41 40  2  0
 42 37  2  0
 42 41  1  0
 43 42  1  0
 45 46  1  0
 46 49  1  0
 46 48  1  0
 47 45  2  0
 50 51  1  0
 50 25  1  0
 52 50  1  0
 55 54  1  0
 55 53  1  0
 56 57  1  0
 56  3  1  0
 58 69  2  0
 59 57  1  0
 59 64  1  0
 60 68  1  0
 60 70  1  0
 61 67  1  0
 61 63  1  0
 62 68  1  0
 63 62  1  0
 64 63  2  0
 65 59  2  0
 66 65  1  0
 66 61  2  0
 67 60  1  0
 68 58  1  0
 70 72  2  0
 71 70  1  0
 73 71  1  0
 74 83  2  0
 74 79  1  0
 75 71  1  0
 75 79  1  0
 76 75  1  0
 77 78  1  0
 77 76  1  0
 78 74  1  0
 79 80  2  0
 80 81  1  0
 82 81  2  0
 83 82  1  0
 84 58  1  0
 84 89  1  0
 84 85  1  0
 85 88  1  1
 85 86  1  0
 87 85  1  0
 89 92  1  0
 90 94  1  0
 90 89  1  0
 91 90  2  0
 94 93  1  0
 96 94  1  0
 96 97  1  0
 96 95  1  0
M  ISO  4  15 100  23 100  56 101  57 101
M  END
>  <TORSDO>  (51) 
F 20

>  <SCORE>  (51) 
3.757

>  <name>  (51) 
50

>  <ligand_id>  (51) 
50

>  <original_smiles>  (51) 
[H]c1nc(C([H])([H])[H])c(C([H])([H])c2c([H])c(C([H])(C([H])([H])[H])C([H])([H])[H])c([H])c([H])c2N([H])C(=O)N2C([H])([H])C([H])([H])C([H])([H])C([H])(n3nc(-c4c([H])c([H])c(Oc5c([H])c([H])c(F)c([H])c5F)c([H])c4[H])c(C(=O)N([H])[H])c3N([H])[H])C2([H])[H])c([H])c1C([H])([H])Oc1c([H])c([H])c2c(c1[H])C([H])([H])N(C(=O)C([H])(N([H])C(=O)C([H])(N([H])C([H])([H])[H])C([H])([H])[H])C(C([H])([H])[H])(C([H])([H])[H])C([H])([H])[H])C([H])(C(=O)N([H])C1([H])c3c([H])c([H])c([H])c([H])c3C([H])([H])C([H])([H])C1([H])[H])C2([H])[H]

>  <smiles>  (51) 
[H]c1nc(C([H])([H])[H])c(C([H])([H])c2c([H])c(C([H])(C([H])([H])[H])C([H])([H])[H])c([H])c([H])c2N([H])C(=O)N2C([H])([H])C([H])([H])C([H])([H])C([H])(n3nc(-c4c([H])c([H])c(Oc5c([H])c([H])c(F)c([H])c5F)c([H])c4[H])c(C(=O)N([H])[H])c3N([H])[H])C2([H])[H])c([H])c1C([H])([H])Oc1c([H])c([H])c2c(c1[H])C([H])([H])N(C(=O)C([H])(N([H])C(=O)C([H])(N([H])C([H])([H])[H])C([H])([H])[H])C(C([H])([H])[H])(C([H])([H])[H])C([H])([H])[H])C([H])(C(=O)N([H])C1([H])c3c([H])c([H])c([H])c([H])c3C([H])([H])C([H])([H])C1([H])[H])C2([H])[H]

$$$$
51:0:0
     RDKit          3D

 95 95  0  0  1  0  0  0  0  0999 V2000
  -25.7630  -24.9750   21.1080 C   0  0  0  0  0  2  0  0  0  0  0  0
  -26.4290  -24.1240   20.3170 C   0  0  0  0  0  2  0  0  0  0  0  0
  -26.1690  -26.0490   19.8850 C   0  0  0  0  0  2  0  0  0  0  0  0
  -25.9560  -26.9390   18.6010 C   0  0  0  0  0  3  0  0  0  0  0  0
  -26.5070  -25.9300   20.2840 N   0  0  1  0  0  4  0  0  0  0  0  0
  -24.2590  -26.4610   16.0060 C   0  0  0  0  0  1  0  0  0  0  0  0
  -24.1940  -28.8540   16.7460 C   0  0  0  0  0  1  0  0  0  0  0  0
  -24.3760  -27.3980   17.2560 C   0  0  0  0  0  3  0  0  0  0  0  0
  -26.2920  -27.2060   18.2480 N   0  0  0  0  0  0  0  0  0  0  0  0
  -25.4290  -27.0350   17.7340 H   0  0  0  0  0  0  0  0  0  0  0  0
  -27.6500  -29.4030   17.1030 C   0  0  0  0  0  1  0  0  0  0  0  0
  -27.2630  -27.3960   15.6410 C   0  0  0  0  0  1  0  0  0  0  0  0
  -27.4060  -27.8690   17.0990 C   0  0  0  0  0  3  0  0  0  0  0  0
  -26.9060  -21.8650   20.3690 C   0  0  0  0  0 15  0  0  0  0  0  0
  -28.2430  -19.9040   20.4410 C   0  0  0  0  0 15  0  0  0  0  0  0
  -29.5050  -16.2530   20.5340 C   0  0  0  0  0  0  0  0  0  0  0  0
  -30.1670  -13.5040   19.8700 C   0  0  0  0  0  2  0  0  0  0  0  0
  -29.5520  -12.5700   18.7490 C   0  0  0  0  0  2  0  0  0  0  0  0
  -28.2100  -11.9750   19.1730 C   0  0  0  0  0  2  0  0  0  0  0  0
  -27.4760  -12.9970   20.0490 C   0  0  0  0  0  3  0  0  0  0  0  0
  -28.3150  -13.7370   21.1290 C   0  0  0  0  0  2  0  0  0  0  0  0
  -29.2510  -14.7000   20.4340 N   0  0  0  0  0  0  0  0  0  0  0  0
  -30.7790  -16.1240   20.5190 O   0  0  0  0  0  0  0  0  0  0  0  0
  -28.6170  -17.8160   20.5410 N   0  0  0  0  0  2  0  0  0  0  0  0
  -29.1720  -18.0150   21.3660 H   0  0  0  0  0  0  0  0  0  0  0  0
  -25.1140  -13.4230   20.7340 C   0  0  0  0  0  0  0  0  0  0  0  0
  -24.0770  -12.6180   21.0870 C   0  0  0  0  0  0  0  0  0  0  0  0
  -24.5940  -11.2820   21.1010 C   0  0  0  0  0  0  0  0  0  0  0  0
  -26.1880  -12.5790   20.5450 N   0  0  0  0  0  0  0  0  0  0  0  0
  -25.9000  -11.2800   20.8230 N   0  0  0  0  0  0  0  0  0  0  0  0
  -23.8950  -10.0050   21.2950 C   0  0  0  0  0  0  0  0  0  0  0  0
  -24.3450   -9.0450   22.2280 C   0  0  0  0  0  3  0  0  0  0  0  0
  -23.6320   -7.8420   22.4110 C   0  0  0  0  0  3  0  0  0  0  0  0
  -22.4580   -7.5900   21.6600 C   0  0  0  0  0  0  0  0  0  0  0  0
  -22.0320   -8.5390   20.7160 C   0  0  0  0  0  3  0  0  0  0  0  0
  -22.7440   -9.7340   20.5300 C   0  0  0  0  0  3  0  0  0  0  0  0
  -21.7140   -6.4350   21.7530 O   0  0  0  0  0  0  0  0  0  0  0  0
  -21.6990   -5.6760   22.8960 C   0  0  0  0  0  0  0  0  0  0  0  0
  -21.2790   -6.2070   24.1360 C   0  0  0  0  0  3  0  0  0  0  0  0
  -21.2140   -5.3770   25.2730 C   0  0  0  0  0  3  0  0  0  0  0  0
  -21.5550   -4.0140   25.1710 C   0  0  0  0  0  0  0  0  0  0  0  0
  -21.9630   -3.4810   23.9360 C   0  0  0  0  0  3  0  0  0  0  0  0
  -22.0340   -4.3090   22.8020 C   0  0  0  0  0  0  0  0  0  0  0  0
  -22.4080   -3.7860   21.6100 F   0  0  0  0  0  0  0  0  0  0  0  0
  -21.4860   -3.2150   26.2610 F   0  0  0  0  0  0  0  0  0  0  0  0
  -22.6590  -13.0660   21.2800 C   0  0  0  0  0  0  0  0  0  0  0  0
  -21.9250  -12.3930   22.1550 N   0  0  0  0  0  0  0  0  0  0  0  0
  -22.2200  -14.0570   20.6970 O   0  0  0  0  0  0  0  0  0  0  0  0
  -22.2990  -11.6010   22.6470 H   0  0  0  0  0  0  0  0  0  0  0  0
  -20.9720  -12.6750   22.3280 H   0  0  0  0  0  0  0  0  0  0  0  0
  -25.2470  -14.7960   20.5310 N   0  0  0  0  0  0  0  0  0  0  0  0
  -24.4750  -15.4480   20.6120 H   0  0  0  0  0  0  0  0  0  0  0  0
  -26.1150  -15.2490   20.2630 H   0  0  0  0  0  0  0  0  0  0  0  0
  -28.1960  -25.6580   20.8460 C   0  0  0  0  0  2  0  0  0  0  0  0
  -28.8700  -25.5250   19.5890 O   0  0  0  0  0  0  0  0  0  0  0  0
  -24.9470  -31.5350   22.8510 C   0  0  0  0  0  0  0  0  0  0  0  0
  -28.1960  -26.2990   18.7620 C   0  0  0  0  0  1  0  0  0  0  0  0
  -23.5210  -30.0520   21.3940 C   0  0  0  0  0  3  0  0  0  0  0  0
  -24.3860  -27.7660   20.0880 C   0  0  0  0  0  1  0  0  0  0  0  0
  -26.0280  -30.0970   21.0700 C   0  0  0  0  0  2  0  0  0  0  0  0
  -26.1040  -28.5520   20.7720 C   0  0  0  0  0  1  0  0  0  0  0  0
  -27.9610  -27.9150   20.2470 C   0  0  0  0  0 15  0  0  0  0  0  0
  -26.3200  -25.4780   17.7510 C   0  0  0  0  0  1  0  0  0  0  0  0
  -24.3520  -26.1430   18.6150 C   0  0  0  0  0  1  0  0  0  0  0  0
  -23.4200  -29.0310   20.1610 C   0  0  0  0  0  2  0  0  0  0  0  0
  -24.8570  -30.6090   21.8180 N   0  0  0  0  0  0  0  0  0  0  0  0
  -23.9430  -31.9270   23.4650 O   0  0  0  0  0  0  0  0  0  0  0  0
  -22.9070  -29.2420   22.5080 C   0  0  0  0  0  0  0  0  0  0  0  0
  -21.5890  -29.0540   22.4260 N   0  0  0  0  0  0  0  0  0  0  0  0
  -23.6210  -28.6970   23.3530 O   0  0  0  0  0  0  0  0  0  0  0  0
  -21.0710  -29.5570   21.7180 H   0  0  0  0  0  0  0  0  0  0  0  0
  -18.3660  -27.5230   22.8580 C   0  0  0  0  0  0  0  0  0  0  0  0
  -20.8500  -28.0910   23.2170 C   0  0  0  0  0  3  0  0  0  0  0  0
  -21.1460  -26.6460   22.7470 C   0  0  0  0  0  2  0  0  0  0  0  0
  -20.1360  -26.1240   21.7210 C   0  0  0  0  0  2  0  0  0  0  0  0
  -18.7250  -26.1510   22.3130 C   0  0  0  0  0  2  0  0  0  0  0  0
  -19.3670  -28.4430   23.2610 C   0  0  0  0  0  0  0  0  0  0  0  0
  -18.9850  -29.7220   23.7190 C   0  0  0  0  0  3  0  0  0  0  0  0
  -17.6260  -30.0820   23.7870 C   0  0  0  0  0  3  0  0  0  0  0  0
  -16.6370  -29.1620   23.4070 C   0  0  0  0  0  3  0  0  0  0  0  0
  -17.0060  -27.8870   22.9470 C   0  0  0  0  0  3  0  0  0  0  0  0
  -26.3140  -32.1390   23.3420 C   0  0  0  0  0  3  0  0  0  0  0  0
  -26.0850  -33.4980   23.8780 N   0  0  0  0  0  0  0  0  0  0  0  0
  -26.3670  -34.6540   23.2490 C   0  0  0  0  0  0  0  0  0  0  0  0
  -26.9090  -34.6860   22.1410 O   0  0  0  0  0  0  0  0  0  0  0  0
  -25.6010  -33.5610   24.7640 H   0  0  0  0  0  0  0  0  0  0  0  0
  -24.6570  -36.4930   23.3860 C   0  0  0  0  0  1  0  0  0  0  0  0
  -25.9880  -35.9740   23.9520 C   0  0  0  0  0  3  0  0  0  0  0  0
  -28.2320  -36.7510   24.5870 C   0  0  0  0  0  1  0  0  0  0  0  0
  -27.0180  -37.0320   23.8260 N   0  0  0  0  0  0  0  0  0  0  0  0
  -26.6520  -37.9260   24.1330 H   0  0  0  0  0  0  0  0  0  0  0  0
  -27.0290  -31.2670   24.4550 C   0  0  1  0  0  0  0  0  0  0  0  0
  -26.1180  -30.9250   25.6610 C   0  0  0  0  0  1  0  0  0  0  0  0
  -27.5520  -29.9350   23.8690 C   0  0  0  0  0  1  0  0  0  0  0  0
  -28.2620  -32.0170   25.0100 C   0  0  0  0  0  1  0  0  0  0  0  0
  2  1  1  0
  5  3  1  6
  4 63  1  0
  4  3  1  0
  5  2  1  0
  5 54  1  0
  5  1  1  0
  6  8  1  0
  7  8  1  0
  8 64  1  0
  9  4  1  0
 10  9  1  0
 12 13  1  0
 13 11  1  0
 13  9  1  0
 16 24  1  0
 17 22  1  0
 18 19  1  0
 18 17  1  0
 20 19  1  0
 20 29  1  0
 20 21  1  0
 22 16  1  0
 22 21  1  0
 23 16  2  0
 24 25  1  0
 26 27  2  0
 27 28  1  0
 27 46  1  0
 28 31  1  0
 29 26  1  0
 29 30  1  0
 30 28  2  0
 31 32  1  0
 32 33  2  0
 34 37  1  0
 34 33  1  0
 35 34  2  0
 36 35  1  0
 36 31  2  0
 37 38  1  0
 38 39  1  0
 39 40  2  0
 41 40  1  0
 41 45  1  0
 42 41  2  0
 43 38  2  0
 43 42  1  0
 44 43  1  0
 46 47  1  0
 47 50  1  0
 47 49  1  0
 48 46  2  0
 51 52  1  0
 51 26  1  0
 53 51  1  0
 55 54  1  0
 56 67  2  0
 57 55  1  0
 58 65  1  0
 58 66  1  0
 58 68  1  0
 59 65  1  0
 60 66  1  0
 61 60  1  0
 66 56  1  0
 68 70  2  0
 69 68  1  0
 71 69  1  0
 72 81  2  0
 72 77  1  0
 73 69  1  0
 73 77  1  0
 74 73  1  0
 75 76  1  0
 75 74  1  0
 76 72  1  0
 77 78  2  0
 78 79  1  0
 80 79  2  0
 81 80  1  0
 82 56  1  0
 82 83  1  0
 82 92  1  0
 83 86  1  0
 84 83  1  0
 84 88  1  0
 85 84  2  0
 88 87  1  0
 90 88  1  0
 90 91  1  0
 90 89  1  0
 92 95  1  1
 92 93  1  0
 94 92  1  0
M  ISO  4  16 100  24 100  54 101  55 101
M  END
>  <TORSDO>  (52) 
F 22

>  <SCORE>  (52) 
-12.134

>  <name>  (52) 
51

>  <ligand_id>  (52) 
51

>  <original_smiles>  (52) 
[H]c1c([H])c([H])c2c(c1[H])C([H])([H])C([H])([H])C([H])([H])C2([H])N([H])C(=O)C1([H])N(C(=O)C([H])(N([H])C(=O)C([H])(N([H])C([H])([H])[H])C([H])([H])[H])C(C([H])([H])[H])(C([H])([H])[H])C([H])([H])[H])C([H])([H])c2c([H])c(OC([H])([H])n3c([H])c(C([H])([H])C([H])([H])N([H])C(=O)N4C([H])([H])C([H])([H])C([H])([H])C([H])(n5nc(-c6c([H])c([H])c(Oc7c([H])c([H])c(F)c([H])c7F)c([H])c6[H])c(C(=O)N([H])[H])c5N([H])[H])C4([H])[H])c(N([H])C([H])(C([H])([H])[H])C([H])([H])[H])c3C([H])(C([H])([H])[H])C([H])([H])[H])c([H])c([H])c2C1([H])[H]

>  <smiles>  (52) 
[H]c1c([H])c([H])c2c(c1[H])C([H])([H])C([H])([H])C([H])([H])C2([H])N([H])C(=O)C1([H])N(C(=O)C([H])(N([H])C(=O)C([H])(N([H])C([H])([H])[H])C([H])([H])[H])C(C([H])([H])[H])(C([H])([H])[H])C([H])([H])[H])C([H])([H])c2c([H])c(OC([H])([H])n3c([H])c(C([H])([H])C([H])([H])N([H])C(=O)N4C([H])([H])C([H])([H])C([H])([H])C([H])(n5nc(-c6c([H])c([H])c(Oc7c([H])c([H])c(F)c([H])c7F)c([H])c6[H])c(C(=O)N([H])[H])c5N([H])[H])C4([H])[H])c(N([H])C([H])(C([H])([H])[H])C([H])([H])[H])c3C([H])(C([H])([H])[H])C([H])([H])[H])c([H])c([H])c2C1([H])[H]

$$$$
52:0:0
     RDKit          3D

 96106  0  0  1  0  0  0  0  0999 V2000
  -29.5270  -20.3980   18.1780 C   0  0  0  0  0  3  0  0  0  0  0  0
  -29.1370  -21.7630   17.8790 C   0  0  0  0  0  3  0  0  0  0  0  0
  -30.1610  -22.5200   19.8590 C   0  0  0  0  0  3  0  0  0  0  0  0
  -30.2650  -20.0030   19.3390 C   0  0  0  0  0  0  0  0  0  0  0  0
  -29.4250  -22.9030   18.7020 C   0  0  0  0  0  0  0  0  0  0  0  0
  -30.5810  -21.1630   20.1640 C   0  0  0  0  0  0  0  0  0  0  0  0
  -31.4030  -21.0340   21.4490 C   0  0  0  0  0  1  0  0  0  0  0  0
  -31.5960  -14.5180   18.7770 C   0  0  0  0  0  0  0  0  0  0  0  0
  -31.1680  -12.1400   18.0190 C   0  0  0  0  0  2  0  0  0  0  0  0
  -29.9490  -12.0560   17.0680 C   0  0  0  0  0  2  0  0  0  0  0  0
  -28.6370  -11.9250   17.8670 C   0  0  0  0  0  2  0  0  0  0  0  0
  -28.5730  -12.8810   19.0860 C   0  0  0  0  0  3  0  0  0  0  0  0
  -29.8940  -12.9350   19.8900 C   0  0  0  0  0  2  0  0  0  0  0  0
  -30.9610  -13.2900   18.9470 N   0  0  0  0  0  0  0  0  0  0  0  0
  -32.5880  -14.5510   18.0420 O   0  0  0  0  0  0  0  0  0  0  0  0
  -32.1330  -16.1140   20.4260 C   0  0  0  0  0  2  0  0  0  0  0  0
  -30.7130  -17.0740   18.7440 C   0  0  0  0  0  2  0  0  0  0  0  0
  -31.6020  -17.0690   21.5220 C   0  0  0  0  0  2  0  0  0  0  0  0
  -30.7970  -18.4640   19.6560 C   0  0  0  0  0  3  0  0  0  0  0  0
  -31.1540  -15.7150   19.3980 N   0  0  0  0  0  0  0  0  0  0  0  0
  -30.5700  -18.0440   21.0670 N   0  0  1  0  0  4  0  0  0  0  0  0
  -30.7370  -18.8850   21.5990 H   0  0  0  0  0  0  0  0  0  0  0  0
  -26.7520  -13.4380   20.7960 C   0  0  0  0  0  0  0  0  0  0  0  0
  -25.6820  -12.7300   21.2750 C   0  0  0  0  0  0  0  0  0  0  0  0
  -25.7420  -11.4490   20.6480 C   0  0  0  0  0  0  0  0  0  0  0  0
  -27.4140  -12.5880   19.9300 N   0  0  0  0  0  0  0  0  0  0  0  0
  -26.8250  -11.3630   19.8820 N   0  0  0  0  0  0  0  0  0  0  0  0
  -24.7900  -10.3290   20.6870 C   0  0  0  0  0  0  0  0  0  0  0  0
  -25.0360   -9.1850   21.4720 C   0  0  0  0  0  3  0  0  0  0  0  0
  -24.0960   -8.1320   21.5140 C   0  0  0  0  0  3  0  0  0  0  0  0
  -22.8980   -8.2160   20.7650 C   0  0  0  0  0  0  0  0  0  0  0  0
  -22.6720   -9.3480   19.9620 C   0  0  0  0  0  3  0  0  0  0  0  0
  -23.6100  -10.3920   19.9200 C   0  0  0  0  0  3  0  0  0  0  0  0
  -21.9440   -7.2280   20.7250 O   0  0  0  0  0  0  0  0  0  0  0  0
  -21.4200   -6.6880   21.8720 C   0  0  0  0  0  0  0  0  0  0  0  0
  -20.7630   -7.4830   22.8360 C   0  0  0  0  0  3  0  0  0  0  0  0
  -20.1820   -6.8810   23.9700 C   0  0  0  0  0  3  0  0  0  0  0  0
  -20.2440   -5.4860   24.1340 C   0  0  0  0  0  0  0  0  0  0  0  0
  -20.8910   -4.6900   23.1730 C   0  0  0  0  0  3  0  0  0  0  0  0
  -21.4780   -5.2910   22.0450 C   0  0  0  0  0  0  0  0  0  0  0  0
  -22.0780   -4.5200   21.1080 F   0  0  0  0  0  0  0  0  0  0  0  0
  -19.6790   -4.8990   25.2170 F   0  0  0  0  0  0  0  0  0  0  0  0
  -24.6110  -13.2600   22.1830 C   0  0  0  0  0  0  0  0  0  0  0  0
  -24.0260  -12.4000   23.0150 N   0  0  0  0  0  0  0  0  0  0  0  0
  -24.3260  -14.4560   22.1980 O   0  0  0  0  0  0  0  0  0  0  0  0
  -24.2390  -11.4130   22.9960 H   0  0  0  0  0  0  0  0  0  0  0  0
  -23.3180  -12.7350   23.6530 H   0  0  0  0  0  0  0  0  0  0  0  0
  -27.1880  -14.7380   20.9970 N   0  0  0  0  0  4  0  0  0  0  0  0
  -26.5900  -15.3910   21.4930 H   0  0  0  0  0  0  0  0  0  0  0  0
  -27.8920  -15.1910   20.4260 H   0  0  0  0  0  0  0  0  0  0  0  0
  -29.1610  -17.6550   21.3800 C   0  0  0  0  0  2  0  0  0  0  0  0
  -28.8570  -15.1440   21.9430 C   0  0  0  0  0  1  0  0  0  0  0  0
  -27.3320  -16.2710   20.2650 C   0  0  0  0  0  2  0  0  0  0  0  0
  -28.7400  -16.2380   20.8760 C   0  0  0  0  0  3  0  0  0  0  0  0
  -28.6580  -24.3270   18.4830 C   0  0  0  0  0  2  0  0  0  0  0  0
  -28.9910  -25.7520   18.9580 O   0  0  0  0  0  0  0  0  0  0  0  0
  -25.0750  -30.4530   22.9910 C   0  0  0  0  0  0  0  0  0  0  0  0
  -27.9200  -26.7090   19.0440 C   0  0  0  0  0  0  0  0  0  0  0  0
  -23.9660  -29.4340   21.0370 C   0  0  0  0  0  3  0  0  0  0  0  0
  -25.5130  -28.3070   19.3310 C   0  0  0  0  0  0  0  0  0  0  0  0
  -26.5040  -29.8360   21.0190 C   0  0  0  0  0  2  0  0  0  0  0  0
  -26.6550  -28.6360   20.0750 C   0  0  0  0  0  0  0  0  0  0  0  0
  -27.8510  -27.8440   19.9410 C   0  0  0  0  0  3  0  0  0  0  0  0
  -26.7630  -26.5120   18.2520 C   0  0  0  0  0  3  0  0  0  0  0  0
  -25.5780  -27.2520   18.4110 C   0  0  0  0  0  3  0  0  0  0  0  0
  -24.2450  -29.1130   19.5460 C   0  0  0  0  0  2  0  0  0  0  0  0
  -25.1990  -29.9160   21.7420 N   0  0  0  0  0  0  0  0  0  0  0  0
  -23.9680  -30.5630   23.5410 O   0  0  0  0  0  0  0  0  0  0  0  0
  -23.3220  -28.1980   21.7150 C   0  0  0  0  0  0  0  0  0  0  0  0
  -22.1640  -27.7520   21.1960 N   0  0  0  0  0  0  0  0  0  0  0  0
  -23.8750  -27.6490   22.6720 O   0  0  0  0  0  0  0  0  0  0  0  0
  -21.7620  -28.2620   20.4220 H   0  0  0  0  0  0  0  0  0  0  0  0
  -19.2770  -25.6780   20.5180 C   0  0  0  0  0  0  0  0  0  0  0  0
  -21.4170  -26.5810   21.6570 C   0  0  0  0  0  3  0  0  0  0  0  0
  -22.0920  -25.2690   21.1920 C   0  0  0  0  0  2  0  0  0  0  0  0
  -21.5370  -24.7420   19.8650 C   0  0  0  0  0  2  0  0  0  0  0  0
  -20.0330  -24.4740   19.9820 C   0  0  0  0  0  2  0  0  0  0  0  0
  -19.9290  -26.6740   21.2920 C   0  0  0  0  0  0  0  0  0  0  0  0
  -19.1870  -27.7870   21.7410 C   0  0  0  0  0  3  0  0  0  0  0  0
  -17.8210  -27.9160   21.4300 C   0  0  0  0  0  3  0  0  0  0  0  0
  -17.1770  -26.9210   20.6730 C   0  0  0  0  0  3  0  0  0  0  0  0
  -17.9030  -25.8030   20.2230 C   0  0  0  0  0  3  0  0  0  0  0  0
  -26.3170  -30.9730   23.7790 C   0  0  0  0  0  3  0  0  0  0  0  0
  -26.6670  -30.0860   25.0370 C   0  0  1  0  0  0  0  0  0  0  0  0
  -25.4580  -29.8180   25.9630 C   0  0  0  0  0  1  0  0  0  0  0  0
  -27.2460  -28.7160   24.6070 C   0  0  0  0  0  1  0  0  0  0  0  0
  -27.7650  -30.7800   25.8760 C   0  0  0  0  0  1  0  0  0  0  0  0
  -26.0340  -32.3570   24.1880 N   0  0  0  0  0  0  0  0  0  0  0  0
  -26.4230  -33.4450   23.5100 C   0  0  0  0  0  0  0  0  0  0  0  0
  -27.1190  -33.3870   22.4930 O   0  0  0  0  0  0  0  0  0  0  0  0
  -25.4200  -32.4810   24.9780 H   0  0  0  0  0  0  0  0  0  0  0  0
  -24.7720  -35.3240   23.2150 C   0  0  0  0  0  1  0  0  0  0  0  0
  -25.9640  -34.8180   24.0430 C   0  0  0  0  0  3  0  0  0  0  0  0
  -28.0750  -35.5840   25.0360 C   0  0  0  0  0  1  0  0  0  0  0  0
  -27.0350  -35.8370   24.0420 N   0  0  0  0  0  0  0  0  0  0  0  0
  -26.6510  -36.7630   24.2110 H   0  0  0  0  0  0  0  0  0  0  0  0
  1  4  1  0
  2  1  2  0
  2  5  1  0
  3  6  1  0
  4  6  2  0
  5  3  2  0
  6  7  1  0
  8 14  1  0
  8 20  1  0
  9 14  1  0
 10 11  1  0
 10  9  1  0
 12 11  1  0
 12 13  1  0
 12 26  1  0
 14 13  1  0
 15  8  2  0
 16 18  1  0
 17 20  1  0
 17 19  1  0
 19  4  1  0
 19 21  1  0
 20 16  1  0
 21 51  1  0
 21 18  1  0
 21 22  1  1
 23 48  1  0
 23 24  2  0
 24 43  1  0
 25 28  1  0
 25 24  1  0
 26 23  1  0
 27 26  1  0
 27 25  2  0
 28 29  1  0
 29 30  2  0
 31 30  1  0
 32 31  2  0
 33 32  1  0
 33 28  2  0
 34 31  1  0
 34 35  1  0
 35 40  2  0
 35 36  1  0
 36 37  2  0
 37 38  1  0
 38 42  1  0
 39 38  2  0
 40 39  1  0
 41 40  1  0
 43 45  2  0
 43 44  1  0
 44 47  1  0
 46 44  1  0
 48 49  1  0
 50 48  1  0
 53 54  1  0
 53 48  1  0
 54 51  1  0
 54 52  1  0
 55  5  1  0
 55 56  1  0
 56 58  1  0
 57 68  2  0
 58 63  1  0
 59 69  1  0
 59 67  1  0
 60 66  1  0
 60 62  1  0
 61 67  1  0
 62 61  1  0
 63 62  2  0
 64 65  1  0
 64 58  2  0
 65 60  2  0
 66 59  1  0
 67 57  1  0
 69 71  2  0
 70 69  1  0
 72 70  1  0
 73 78  1  0
 74 70  1  0
 75 74  1  0
 76 77  1  0
 76 75  1  0
 77 73  1  0
 78 74  1  0
 78 79  2  0
 80 79  1  0
 81 80  2  0
 82 73  2  0
 82 81  1  0
 83 57  1  0
 83 88  1  0
 83 84  1  0
 84 87  1  1
 84 85  1  0
 86 84  1  0
 88 91  1  0
 89 93  1  0
 89 88  1  0
 90 89  2  0
 93 92  1  0
 95 93  1  0
 95 96  1  0
 95 94  1  0
M  ISO  4   8 100  20 100  55 101  56 101
M  END
>  <TORSDO>  (53) 
F 19

>  <SCORE>  (53) 
-3.441

>  <name>  (53) 
52

>  <ligand_id>  (53) 
52

>  <original_smiles>  (53) 
[H]c1c([H])c([H])c2c(c1[H])C([H])([H])C([H])([H])C([H])([H])C2([H])N([H])C(=O)C1([H])N(C(=O)C([H])(N([H])C(=O)C([H])(N([H])C([H])([H])[H])C([H])([H])[H])C(C([H])([H])[H])(C([H])([H])[H])C([H])([H])[H])C([H])([H])c2c([H])c(OC([H])([H])c3c([H])c([H])c(C4([H])C([H])([H])N(C(=O)N5C([H])([H])C([H])([H])C([H])([H])C([H])(n6nc(-c7c([H])c([H])c(Oc8c([H])c([H])c(F)c([H])c8F)c([H])c7[H])c(C(=O)N([H])[H])c6N([H])[H])C5([H])[H])C([H])([H])C([H])([H])[N+]4([H])C([H])([H])C([H])(C([H])([H])[H])C([H])([H])[H])c(C([H])([H])[H])c3[H])c([H])c([H])c2C1([H])[H]

>  <smiles>  (53) 
[H]c1c([H])c([H])c2c(c1[H])C([H])([H])C([H])([H])C([H])([H])C2([H])N([H])C(=O)C1([H])N(C(=O)C([H])(N([H])C(=O)C([H])(N([H])C([H])([H])[H])C([H])([H])[H])C(C([H])([H])[H])(C([H])([H])[H])C([H])([H])[H])C([H])([H])c2c([H])c(OC([H])([H])c3c([H])c([H])c(C4([H])C([H])([H])N(C(=O)N5C([H])([H])C([H])([H])C([H])([H])C([H])(n6nc(-c7c([H])c([H])c(Oc8c([H])c([H])c(F)c([H])c8F)c([H])c7[H])c(C(=O)N([H])[H])c6N([H])[H])C5([H])[H])C([H])([H])C([H])([H])[N+]4([H])C([H])([H])C([H])(C([H])([H])[H])C([H])([H])[H])c(C([H])([H])[H])c3[H])c([H])c([H])c2C1([H])[H]

$$$$
53:0:0
     RDKit          3D

 95103  0  0  1  0  0  0  0  0999 V2000
  -30.8330  -19.5130   21.1160 C   0  0  0  0  0  2  0  0  0  0  0  0
  -28.3510  -20.1280   19.9540 C   0  0  0  0  0  2  0  0  0  0  0  0
  -29.1940  -21.3010   20.5740 C   0  0  0  0  0  3  0  0  0  0  0  0
  -29.9990  -18.3460   20.5160 C   0  0  0  0  0  3  0  0  0  0  0  0
  -30.6110  -20.8480   20.4980 N   0  0  0  0  0  0  0  0  0  0  0  0
  -28.5810  -18.7890   20.5850 N   0  0  0  0  0  4  0  0  0  0  0  0
  -27.9970  -18.1150   20.1220 H   0  0  0  0  0  0  0  0  0  0  0  0
  -28.2930  -18.8430   21.5490 H   0  0  0  0  0  0  0  0  0  0  0  0
  -32.9070  -21.6670   20.1810 C   0  0  0  0  0  1  0  0  0  0  0  0
  -31.8680  -21.7910   22.4980 C   0  0  0  0  0  1  0  0  0  0  0  0
  -31.6060  -21.8310   20.9790 C   0  0  0  0  0  3  0  0  0  0  0  0
  -28.9420  -22.6710   19.7830 C   0  0  0  0  0  2  0  0  0  0  0  0
  -29.2070  -24.3050   21.8110 C   0  0  0  0  0  1  0  0  0  0  0  0
  -28.4500  -23.9990   20.5110 C   0  0  0  0  0  3  0  0  0  0  0  0
  -28.4990  -25.2740   19.5780 C   0  0  0  0  0  2  0  0  0  0  0  0
  -28.3740  -26.5910   20.2070 O   0  0  0  0  0  0  0  0  0  0  0  0
  -24.5880  -31.8750   23.2400 C   0  0  0  0  0  0  0  0  0  0  0  0
  -27.2000  -27.3420   20.1780 C   0  0  0  0  0  0  0  0  0  0  0  0
  -23.3780  -30.4680   21.6100 C   0  0  0  0  0  3  0  0  0  0  0  0
  -24.8220  -28.9120   20.1900 C   0  0  0  0  0  0  0  0  0  0  0  0
  -25.9130  -30.7960   21.4140 C   0  0  0  0  0  2  0  0  0  0  0  0
  -25.9890  -29.4170   20.7750 C   0  0  0  0  0  0  0  0  0  0  0  0
  -27.1790  -28.6400   20.7620 C   0  0  0  0  0  3  0  0  0  0  0  0
  -26.0020  -26.8640   19.5990 C   0  0  0  0  0  3  0  0  0  0  0  0
  -24.8270  -27.6380   19.5990 C   0  0  0  0  0  3  0  0  0  0  0  0
  -23.5830  -29.7820   20.2340 C   0  0  0  0  0  2  0  0  0  0  0  0
  -24.6460  -31.0620   22.1450 N   0  0  0  0  0  0  0  0  0  0  0  0
  -23.5060  -32.1550   23.7740 O   0  0  0  0  0  0  0  0  0  0  0  0
  -22.7210  -29.4520   22.5750 C   0  0  0  0  0  0  0  0  0  0  0  0
  -21.3960  -29.2730   22.4460 N   0  0  0  0  0  0  0  0  0  0  0  0
  -23.4020  -28.8300   23.3940 O   0  0  0  0  0  0  0  0  0  0  0  0
  -20.9100  -29.8310   21.7580 H   0  0  0  0  0  0  0  0  0  0  0  0
  -18.0160  -28.0880   22.9420 C   0  0  0  0  0  0  0  0  0  0  0  0
  -20.5740  -28.3430   23.2190 C   0  0  0  0  0  3  0  0  0  0  0  0
  -20.6730  -26.9070   22.6520 C   0  0  0  0  0  2  0  0  0  0  0  0
  -19.5730  -26.5820   21.6360 C   0  0  0  0  0  2  0  0  0  0  0  0
  -18.1900  -26.7340   22.2750 C   0  0  0  0  0  2  0  0  0  0  0  0
  -19.1350  -28.8510   23.3700 C   0  0  0  0  0  0  0  0  0  0  0  0
  -18.9180  -30.1200   23.9510 C   0  0  0  0  0  3  0  0  0  0  0  0
  -17.6140  -30.6240   24.1080 C   0  0  0  0  0  3  0  0  0  0  0  0
  -16.5090  -29.8590   23.6970 C   0  0  0  0  0  3  0  0  0  0  0  0
  -16.7110  -28.5940   23.1190 C   0  0  0  0  0  3  0  0  0  0  0  0
  -25.8720  -32.5060   23.8580 C   0  0  0  0  0  3  0  0  0  0  0  0
  -25.5650  -33.9040   24.1870 N   0  0  0  0  0  0  0  0  0  0  0  0
  -25.9020  -34.9540   23.4270 C   0  0  0  0  0  0  0  0  0  0  0  0
  -26.5770  -34.8480   22.3980 O   0  0  0  0  0  0  0  0  0  0  0  0
  -24.9590  -34.0590   24.9800 H   0  0  0  0  0  0  0  0  0  0  0  0
  -24.1800  -36.7510   23.0650 C   0  0  0  0  0  1  0  0  0  0  0  0
  -25.4160  -36.3450   23.8820 C   0  0  0  0  0  3  0  0  0  0  0  0
  -27.5480  -37.2210   24.7270 C   0  0  0  0  0  1  0  0  0  0  0  0
  -26.4530  -37.3940   23.7750 N   0  0  0  0  0  0  0  0  0  0  0  0
  -26.0490  -38.3160   23.9230 H   0  0  0  0  0  0  0  0  0  0  0  0
  -26.3920  -31.7360   25.1350 C   0  0  1  0  0  0  0  0  0  0  0  0
  -25.2970  -31.4950   26.2010 C   0  0  0  0  0  1  0  0  0  0  0  0
  -26.9780  -30.3610   24.7430 C   0  0  0  0  0  1  0  0  0  0  0  0
  -27.5430  -32.5320   25.7950 C   0  0  0  0  0  1  0  0  0  0  0  0
  -30.3460  -17.0000   21.2990 C   0  0  0  0  0  2  0  0  0  0  0  0
  -30.5940  -14.5870   20.4580 C   0  0  0  0  0  0  0  0  0  0  0  0
  -30.3650  -12.3760   19.3500 C   0  0  0  0  0  2  0  0  0  0  0  0
  -29.4170  -12.4990   18.1380 C   0  0  0  0  0  2  0  0  0  0  0  0
  -27.9480  -12.3370   18.5750 C   0  0  0  0  0  2  0  0  0  0  0  0
  -27.5890  -13.2020   19.8120 C   0  0  0  0  0  3  0  0  0  0  0  0
  -28.6480  -13.0470   20.9260 C   0  0  0  0  0  2  0  0  0  0  0  0
  -29.9510  -13.3870   20.3400 N   0  0  0  0  0  0  0  0  0  0  0  0
  -31.7630  -14.7320   20.0890 O   0  0  0  0  0  0  0  0  0  0  0  0
  -29.8430  -15.6590   20.8540 N   0  0  0  0  0  0  0  0  0  0  0  0
  -28.8790  -15.4470   21.0660 H   0  0  0  0  0  0  0  0  0  0  0  0
  -25.1930  -13.8000   20.5200 C   0  0  0  0  0  0  0  0  0  0  0  0
  -24.1280  -13.0260   20.8900 C   0  0  0  0  0  0  0  0  0  0  0  0
  -24.5940  -11.6750   20.8660 C   0  0  0  0  0  0  0  0  0  0  0  0
  -26.2410  -12.9210   20.2930 N   0  0  0  0  0  0  0  0  0  0  0  0
  -25.8850  -11.6380   20.5650 N   0  0  0  0  0  0  0  0  0  0  0  0
  -23.8720  -10.4110   21.0570 C   0  0  0  0  0  0  0  0  0  0  0  0
  -24.3080   -9.4480   21.9920 C   0  0  0  0  0  3  0  0  0  0  0  0
  -23.5870   -8.2470   22.1700 C   0  0  0  0  0  3  0  0  0  0  0  0
  -22.4170   -8.0030   21.4110 C   0  0  0  0  0  0  0  0  0  0  0  0
  -22.0010   -8.9570   20.4660 C   0  0  0  0  0  3  0  0  0  0  0  0
  -22.7220  -10.1490   20.2870 C   0  0  0  0  0  3  0  0  0  0  0  0
  -21.6670   -6.8550   21.5000 O   0  0  0  0  0  0  0  0  0  0  0  0
  -21.6240   -6.1100   22.6510 C   0  0  0  0  0  0  0  0  0  0  0  0
  -21.1940   -6.6590   23.8780 C   0  0  0  0  0  3  0  0  0  0  0  0
  -21.0980   -5.8410   25.0200 C   0  0  0  0  0  3  0  0  0  0  0  0
  -21.4230   -4.4730   24.9380 C   0  0  0  0  0  0  0  0  0  0  0  0
  -21.8470   -3.9230   23.7150 C   0  0  0  0  0  3  0  0  0  0  0  0
  -21.9440   -4.7400   22.5740 C   0  0  0  0  0  0  0  0  0  0  0  0
  -22.3330   -4.2000   21.3930 F   0  0  0  0  0  0  0  0  0  0  0  0
  -21.3240   -3.6850   26.0330 F   0  0  0  0  0  0  0  0  0  0  0  0
  -22.7280  -13.5000   21.1500 C   0  0  0  0  0  0  0  0  0  0  0  0
  -21.9960  -12.8030   22.0100 N   0  0  0  0  0  0  0  0  0  0  0  0
  -22.2920  -14.5250   20.6260 O   0  0  0  0  0  0  0  0  0  0  0  0
  -22.3590  -11.9720   22.4540 H   0  0  0  0  0  0  0  0  0  0  0  0
  -21.0570  -13.1030   22.2290 H   0  0  0  0  0  0  0  0  0  0  0  0
  -25.3560  -15.1690   20.3300 N   0  0  0  0  0  0  0  0  0  0  0  0
  -24.5740  -15.8110   20.4010 H   0  0  0  0  0  0  0  0  0  0  0  0
  -26.1710  -15.5820   19.8970 H   0  0  0  0  0  0  0  0  0  0  0  0
  2  3  1  0
  2  6  1  0
  3 12  1  0
  4  6  1  0
  4  1  1  0
  4 57  1  0
  5  3  1  0
  5 11  1  0
  5  1  1  0
  6  8  1  0
  7  6  1  0
  9 11  1  0
 11 10  1  0
 12 14  1  0
 14 13  1  0
 15 16  1  0
 15 14  1  0
 17 28  2  0
 18 16  1  0
 18 23  1  0
 19 27  1  0
 19 29  1  0
 20 26  1  0
 20 22  1  0
 21 27  1  0
 22 21  1  0
 23 22  2  0
 24 18  2  0
 25 24  1  0
 25 20  2  0
 26 19  1  0
 27 17  1  0
 29 31  2  0
 30 29  1  0
 32 30  1  0
 33 42  2  0
 33 38  1  0
 34 30  1  0
 34 38  1  0
 35 34  1  0
 36 37  1  0
 36 35  1  0
 37 33  1  0
 38 39  2  0
 39 40  1  0
 41 40  2  0
 42 41  1  0
 43 17  1  0
 43 44  1  0
 43 53  1  0
 44 47  1  0
 45 49  1  0
 45 44  1  0
 46 45  2  0
 49 48  1  0
 51 49  1  0
 51 52  1  0
 51 50  1  0
 53 56  1  1
 53 54  1  0
 55 53  1  0
 58 66  1  0
 59 64  1  0
 60 61  1  0
 60 59  1  0
 62 61  1  0
 62 71  1  0
 62 63  1  0
 64 58  1  0
 64 63  1  0
 65 58  2  0
 66 67  1  0
 66 57  1  0
 68 69  2  0
 69 88  1  0
 70 69  1  0
 70 73  1  0
 71 68  1  0
 71 72  1  0
 72 70  2  0
 73 74  1  0
 74 75  2  0
 76 79  1  0
 76 75  1  0
 77 76  2  0
 78 77  1  0
 78 73  2  0
 79 80  1  0
 80 81  1  0
 81 82  2  0
 83 82  1  0
 83 87  1  0
 84 83  2  0
 85 80  2  0
 85 84  1  0
 86 85  1  0
 88 89  1  0
 89 92  1  0
 89 91  1  0
 90 88  2  0
 93 94  1  0
 93 68  1  0
 95 93  1  0
M  ISO  4  15 101  16 101  58 100  66 100
M  END
>  <TORSDO>  (54) 
F 21

>  <SCORE>  (54) 
-13.656

>  <name>  (54) 
53

>  <ligand_id>  (54) 
53

>  <original_smiles>  (54) 
[H]c1c([H])c([H])c2c(c1[H])C([H])([H])C([H])([H])C([H])([H])C2([H])N([H])C(=O)C1([H])N(C(=O)C([H])(N([H])C(=O)C([H])(N([H])C([H])([H])[H])C([H])([H])[H])C(C([H])([H])[H])(C([H])([H])[H])C([H])([H])[H])C([H])([H])c2c([H])c(OC([H])([H])C([H])(C([H])([H])[H])C([H])([H])C3([H])N(C([H])(C([H])([H])[H])C([H])([H])[H])C([H])([H])C([H])(C([H])([H])N([H])C(=O)N4C([H])([H])C([H])([H])C([H])([H])C([H])(n5nc(-c6c([H])c([H])c(Oc7c([H])c([H])c(F)c([H])c7F)c([H])c6[H])c(C(=O)N([H])[H])c5N([H])[H])C4([H])[H])[N+]([H])([H])C3([H])[H])c([H])c([H])c2C1([H])[H]

>  <smiles>  (54) 
[H]c1c([H])c([H])c2c(c1[H])C([H])([H])C([H])([H])C([H])([H])C2([H])N([H])C(=O)C1([H])N(C(=O)C([H])(N([H])C(=O)C([H])(N([H])C([H])([H])[H])C([H])([H])[H])C(C([H])([H])[H])(C([H])([H])[H])C([H])([H])[H])C([H])([H])c2c([H])c(OC([H])([H])C([H])(C([H])([H])[H])C([H])([H])C3([H])N(C([H])(C([H])([H])[H])C([H])([H])[H])C([H])([H])C([H])(C([H])([H])N([H])C(=O)N4C([H])([H])C([H])([H])C([H])([H])C([H])(n5nc(-c6c([H])c([H])c(Oc7c([H])c([H])c(F)c([H])c7F)c([H])c6[H])c(C(=O)N([H])[H])c5N([H])[H])C4([H])[H])[N+]([H])([H])C3([H])[H])c([H])c([H])c2C1([H])[H]

$$$$
54:0:0
     RDKit          3D

 91 99  0  0  1  0  0  0  0  0999 V2000
  -28.8860  -23.5110   20.5480 C   0  0  0  0  0  3  0  0  0  0  0  0
  -29.1000  -23.6360   22.0060 N   0  0  0  0  0  4  0  0  0  0  0  0
  -28.2650  -23.3970   22.5170 H   0  0  0  0  0  0  0  0  0  0  0  0
  -29.3370  -24.5870   22.2410 H   0  0  0  0  0  0  0  0  0  0  0  0
  -29.8500  -23.0500   22.3270 H   0  0  0  0  0  0  0  0  0  0  0  0
  -28.4960  -21.9140   20.2090 C   0  0  0  0  0  3  0  0  0  0  0  0
  -29.4600  -20.5990   20.5730 C   0  0  0  0  0  3  0  0  0  0  0  0
  -30.5130  -15.0080   20.5240 C   0  0  0  0  0  0  0  0  0  0  0  0
  -30.4260  -12.6170   19.6780 C   0  0  0  0  0  2  0  0  0  0  0  0
  -29.5460  -12.4930   18.4130 C   0  0  0  0  0  2  0  0  0  0  0  0
  -28.0580  -12.3310   18.7920 C   0  0  0  0  0  2  0  0  0  0  0  0
  -27.6000  -13.2890   19.9270 C   0  0  0  0  0  3  0  0  0  0  0  0
  -28.6210  -13.3490   21.0780 C   0  0  0  0  0  2  0  0  0  0  0  0
  -29.9020  -13.7530   20.4850 N   0  0  0  0  0  0  0  0  0  0  0  0
  -31.7460  -15.0310   20.4860 O   0  0  0  0  0  0  0  0  0  0  0  0
  -27.9790  -17.2630   18.8850 C   0  0  0  0  0  2  0  0  0  0  0  0
  -28.3270  -18.7480   19.0690 C   0  0  0  0  0  2  0  0  0  0  0  0
  -29.2400  -16.3700   18.9410 C   0  0  0  0  0  2  0  0  0  0  0  0
  -30.0830  -17.6990   20.7310 C   0  0  0  0  0  2  0  0  0  0  0  0
  -29.0390  -18.9830   20.4180 C   0  0  0  0  0  3  0  0  0  0  0  0
  -29.7580  -16.2160   20.3130 N   0  0  0  0  0  0  0  0  0  0  0  0
  -25.2000  -13.8790   20.5800 C   0  0  0  0  0  0  0  0  0  0  0  0
  -24.1250  -13.1040   20.9140 C   0  0  0  0  0  0  0  0  0  0  0  0
  -24.5960  -11.7570   20.9270 C   0  0  0  0  0  0  0  0  0  0  0  0
  -26.2530  -12.9990   20.3920 N   0  0  0  0  0  0  0  0  0  0  0  0
  -25.8990  -11.7190   20.6720 N   0  0  0  0  0  0  0  0  0  0  0  0
  -23.8680  -10.4950   21.0990 C   0  0  0  0  0  0  0  0  0  0  0  0
  -24.2750   -9.5350   22.0490 C   0  0  0  0  0  3  0  0  0  0  0  0
  -23.5440   -8.3400   22.2140 C   0  0  0  0  0  3  0  0  0  0  0  0
  -22.3920   -8.0980   21.4240 C   0  0  0  0  0  0  0  0  0  0  0  0
  -22.0060   -9.0480   20.4630 C   0  0  0  0  0  3  0  0  0  0  0  0
  -22.7390  -10.2350   20.2980 C   0  0  0  0  0  3  0  0  0  0  0  0
  -21.6360   -6.9530   21.4960 O   0  0  0  0  0  0  0  0  0  0  0  0
  -21.5590   -6.2070   22.6440 C   0  0  0  0  0  0  0  0  0  0  0  0
  -21.0990   -6.7570   23.8610 C   0  0  0  0  0  3  0  0  0  0  0  0
  -20.9710   -5.9370   24.9990 C   0  0  0  0  0  3  0  0  0  0  0  0
  -21.2910   -4.5690   24.9210 C   0  0  0  0  0  0  0  0  0  0  0  0
  -21.7430   -4.0170   23.7100 C   0  0  0  0  0  3  0  0  0  0  0  0
  -21.8730   -4.8350   22.5730 C   0  0  0  0  0  0  0  0  0  0  0  0
  -22.2870   -4.2950   21.4010 F   0  0  0  0  0  0  0  0  0  0  0  0
  -21.1610   -3.7780   26.0130 F   0  0  0  0  0  0  0  0  0  0  0  0
  -22.7180  -13.5820   21.1140 C   0  0  0  0  0  0  0  0  0  0  0  0
  -21.9520  -12.8940   21.9530 N   0  0  0  0  0  0  0  0  0  0  0  0
  -22.3050  -14.6020   20.5650 O   0  0  0  0  0  0  0  0  0  0  0  0
  -22.3010  -12.0710   22.4200 H   0  0  0  0  0  0  0  0  0  0  0  0
  -21.0050  -13.1970   22.1270 H   0  0  0  0  0  0  0  0  0  0  0  0
  -25.3580  -15.2470   20.3970 N   0  0  0  0  0  0  0  0  0  0  0  0
  -24.5760  -15.8870   20.4770 H   0  0  0  0  0  0  0  0  0  0  0  0
  -26.2220  -15.7020   20.1330 H   0  0  0  0  0  0  0  0  0  0  0  0
  -27.9180  -24.7840   20.0950 C   0  0  0  0  0  2  0  0  0  0  0  0
  -28.2260  -26.2820   20.2760 O   0  0  0  0  0  0  0  0  0  0  0  0
  -24.6020  -31.8980   23.2550 C   0  0  0  0  0  0  0  0  0  0  0  0
  -27.1720  -27.2430   20.1980 C   0  0  0  0  0  0  0  0  0  0  0  0
  -23.3960  -30.4980   21.6200 C   0  0  0  0  0  3  0  0  0  0  0  0
  -24.8370  -28.9480   20.1820 C   0  0  0  0  0  0  0  0  0  0  0  0
  -25.9460  -30.7890   21.4440 C   0  0  0  0  0  2  0  0  0  0  0  0
  -26.0170  -29.4070   20.7830 C   0  0  0  0  0  0  0  0  0  0  0  0
  -27.1870  -28.5690   20.7750 C   0  0  0  0  0  3  0  0  0  0  0  0
  -25.9660  -26.8810   19.5550 C   0  0  0  0  0  3  0  0  0  0  0  0
  -24.8230  -27.6950   19.5570 C   0  0  0  0  0  3  0  0  0  0  0  0
  -23.6080  -29.8320   20.2360 C   0  0  0  0  0  2  0  0  0  0  0  0
  -24.6690  -31.0800   22.1630 N   0  0  0  0  0  0  0  0  0  0  0  0
  -23.5170  -32.1800   23.7830 O   0  0  0  0  0  0  0  0  0  0  0  0
  -22.7320  -29.4820   22.5810 C   0  0  0  0  0  0  0  0  0  0  0  0
  -21.4040  -29.2930   22.4510 N   0  0  0  0  0  0  0  0  0  0  0  0
  -23.4080  -28.8630   23.4080 O   0  0  0  0  0  0  0  0  0  0  0  0
  -20.9120  -29.8520   21.7660 H   0  0  0  0  0  0  0  0  0  0  0  0
  -18.0370  -28.0560   22.9330 C   0  0  0  0  0  0  0  0  0  0  0  0
  -20.5890  -28.3500   23.2220 C   0  0  0  0  0  3  0  0  0  0  0  0
  -20.7120  -26.9120   22.6600 C   0  0  0  0  0  2  0  0  0  0  0  0
  -19.6250  -26.5690   21.6380 C   0  0  0  0  0  2  0  0  0  0  0  0
  -18.2350  -26.7030   22.2680 C   0  0  0  0  0  2  0  0  0  0  0  0
  -19.1430  -28.8360   23.3640 C   0  0  0  0  0  0  0  0  0  0  0  0
  -18.9040  -30.1020   23.9400 C   0  0  0  0  0  3  0  0  0  0  0  0
  -17.5910  -30.5870   24.0900 C   0  0  0  0  0  3  0  0  0  0  0  0
  -16.4990  -29.8050   23.6770 C   0  0  0  0  0  3  0  0  0  0  0  0
  -16.7220  -28.5400   23.1050 C   0  0  0  0  0  3  0  0  0  0  0  0
  -25.8860  -32.5330   23.8750 C   0  0  0  0  0  3  0  0  0  0  0  0
  -26.4020  -31.7710   25.1560 C   0  0  1  0  0  0  0  0  0  0  0  0
  -25.3090  -31.5380   26.2230 C   0  0  0  0  0  1  0  0  0  0  0  0
  -26.9840  -30.3880   24.7800 C   0  0  0  0  0  1  0  0  0  0  0  0
  -27.5570  -32.5680   25.8090 C   0  0  0  0  0  1  0  0  0  0  0  0
  -25.5800  -33.9350   24.1970 N   0  0  0  0  0  0  0  0  0  0  0  0
  -25.9130  -34.9830   23.4320 C   0  0  0  0  0  0  0  0  0  0  0  0
  -26.5710  -34.8710   22.3960 O   0  0  0  0  0  0  0  0  0  0  0  0
  -24.9980  -34.1040   25.0040 H   0  0  0  0  0  0  0  0  0  0  0  0
  -24.1840  -36.7770   23.0790 C   0  0  0  0  0  1  0  0  0  0  0  0
  -25.4300  -36.3750   23.8850 C   0  0  0  0  0  3  0  0  0  0  0  0
  -27.5670  -37.2550   24.7070 C   0  0  0  0  0  1  0  0  0  0  0  0
  -26.4640  -37.4270   23.7660 N   0  0  0  0  0  0  0  0  0  0  0  0
  -26.0600  -38.3480   23.9160 H   0  0  0  0  0  0  0  0  0  0  0  0
  1 50  1  0
  1  2  1  0
  2  4  1  0
  2  5  1  0
  2  3  1  0
  6  1  1  0
  6  7  2  0
  9 14  1  0
 10 11  1  0
 10  9  1  0
 12 11  1  0
 12 25  1  0
 12 13  1  0
 14  8  1  0
 14 13  1  0
 15  8  2  0
 16 18  1  0
 16 17  1  0
 17 20  1  0
 18 21  1  0
 20  7  1  0
 20 19  1  0
 21  8  1  0
 21 19  1  0
 22 23  2  0
 23 24  1  0
 23 42  1  0
 24 27  1  0
 25 22  1  0
 25 26  1  0
 26 24  2  0
 27 28  1  0
 28 29  2  0
 30 33  1  0
 30 29  1  0
 31 30  2  0
 32 31  1  0
 32 27  2  0
 33 34  1  0
 34 35  1  0
 35 36  2  0
 37 36  1  0
 37 41  1  0
 38 37  2  0
 39 34  2  0
 39 38  1  0
 40 39  1  0
 42 43  1  0
 43 46  1  0
 43 45  1  0
 44 42  2  0
 47 48  1  0
 47 22  1  0
 49 47  1  0
 50 51  1  0
 52 63  2  0
 53 51  1  0
 53 58  1  0
 54 62  1  0
 54 64  1  0
 55 61  1  0
 55 57  1  0
 56 62  1  0
 57 56  1  0
 58 57  2  0
 59 60  1  0
 59 53  2  0
 60 55  2  0
 61 54  1  0
 62 52  1  0
 64 66  2  0
 65 64  1  0
 67 65  1  0
 68 77  2  0
 68 73  1  0
 69 65  1  0
 69 73  1  0
 70 69  1  0
 71 72  1  0
 71 70  1  0
 72 68  1  0
 73 74  2  0
 74 75  1  0
 76 75  2  0
 77 76  1  0
 78 52  1  0
 78 83  1  0
 78 79  1  0
 79 82  1  1
 79 80  1  0
 81 79  1  0
 83 86  1  0
 84 88  1  0
 84 83  1  0
 85 84  2  0
 88 87  1  0
 90 88  1  0
 90 91  1  0
 90 89  1  0
M  ISO  4   8 100  21 100  50 101  51 101
M  END
>  <TORSDO>  (55) 
F 20

>  <SCORE>  (55) 
-13.960

>  <name>  (55) 
54

>  <ligand_id>  (55) 
54

>  <original_smiles>  (55) 
[H]c1c([H])c([H])c2c(c1[H])C([H])([H])C([H])([H])C([H])([H])C2([H])N([H])C(=O)C1([H])N(C(=O)C([H])(N([H])C(=O)C([H])(N([H])C([H])([H])[H])C([H])([H])[H])C(C([H])([H])[H])(C([H])([H])[H])C([H])([H])[H])C([H])([H])c2c([H])c(OC([H])([H])C([H])(C([H])([H])C([H])([H])C3([H])C([H])([H])N(C(=O)N4C([H])([H])C([H])([H])C([H])([H])C([H])(n5nc(-c6c([H])c([H])c(Oc7c([H])c([H])c(F)c([H])c7F)c([H])c6[H])c(C(=O)N([H])[H])c5N([H])[H])C4([H])[H])C([H])([H])C([H])([H])C3([H])[H])[N+]([H])([H])[H])c([H])c([H])c2C1([H])[H]

>  <smiles>  (55) 
[H]c1c([H])c([H])c2c(c1[H])C([H])([H])C([H])([H])C([H])([H])C2([H])N([H])C(=O)C1([H])N(C(=O)C([H])(N([H])C(=O)C([H])(N([H])C([H])([H])[H])C([H])([H])[H])C(C([H])([H])[H])(C([H])([H])[H])C([H])([H])[H])C([H])([H])c2c([H])c(OC([H])([H])C([H])(C([H])([H])C([H])([H])C3([H])C([H])([H])N(C(=O)N4C([H])([H])C([H])([H])C([H])([H])C([H])(n5nc(-c6c([H])c([H])c(Oc7c([H])c([H])c(F)c([H])c7F)c([H])c6[H])c(C(=O)N([H])[H])c5N([H])[H])C4([H])[H])C([H])([H])C([H])([H])C3([H])[H])[N+]([H])([H])[H])c([H])c([H])c2C1([H])[H]

$$$$
55:0:0
     RDKit          3D

 85 92  0  0  1  0  0  0  0  0999 V2000
  -30.0110  -22.4700   19.2120 C   0  0  0  0  0  1  0  0  0  0  0  0
  -29.6760  -22.4560   21.6820 C   0  0  0  0  0  1  0  0  0  0  0  0
  -28.9750  -22.2760   20.3280 C   0  0  2  0  0  0  0  0  0  0  0  0
  -28.7020  -20.3700   20.2830 C   0  0  0  0  0  3  0  0  0  0  0  0
  -29.7340  -18.7450   20.3110 C   0  0  0  0  0  3  0  0  0  0  0  0
  -30.2640  -15.6440   20.2080 C   0  0  0  0  0  0  0  0  0  0  0  0
  -30.3350  -13.1300   19.3480 C   0  0  0  0  0  2  0  0  0  0  0  0
  -29.4200  -12.7710   18.1440 C   0  0  0  0  0  2  0  0  0  0  0  0
  -28.0010  -12.4200   18.6180 C   0  0  0  0  0  2  0  0  0  0  0  0
  -27.5160  -13.3990   19.7100 C   0  0  0  0  0  3  0  0  0  0  0  0
  -28.5660  -13.6770   20.8100 C   0  0  0  0  0  2  0  0  0  0  0  0
  -29.7330  -14.2920   20.1390 N   0  0  0  0  0  0  0  0  0  0  0  0
  -31.4920  -15.5980   20.0100 O   0  0  0  0  0  0  0  0  0  0  0  0
  -29.5080  -16.9930   20.3080 N   0  0  0  0  0  0  0  0  0  0  0  0
  -28.5260  -16.7810   20.4090 H   0  0  0  0  0  0  0  0  0  0  0  0
  -25.1630  -13.9060   20.5270 C   0  0  0  0  0  0  0  0  0  0  0  0
  -24.1170  -13.1130   20.9020 C   0  0  0  0  0  0  0  0  0  0  0  0
  -24.5980  -11.7690   20.8430 C   0  0  0  0  0  0  0  0  0  0  0  0
  -26.2100  -13.0480   20.2500 N   0  0  0  0  0  0  0  0  0  0  0  0
  -25.8850  -11.7530   20.5090 N   0  0  0  0  0  0  0  0  0  0  0  0
  -23.8840  -10.4970   21.0260 C   0  0  0  0  0  0  0  0  0  0  0  0
  -24.3180   -9.5330   21.9630 C   0  0  0  0  0  3  0  0  0  0  0  0
  -23.6000   -8.3300   22.1360 C   0  0  0  0  0  3  0  0  0  0  0  0
  -22.4330   -8.0820   21.3750 C   0  0  0  0  0  0  0  0  0  0  0  0
  -22.0180   -9.0360   20.4280 C   0  0  0  0  0  3  0  0  0  0  0  0
  -22.7380  -10.2290   20.2520 C   0  0  0  0  0  3  0  0  0  0  0  0
  -21.6880   -6.9310   21.4570 O   0  0  0  0  0  0  0  0  0  0  0  0
  -21.6110   -6.2050   22.6180 C   0  0  0  0  0  0  0  0  0  0  0  0
  -21.1070   -6.7620   23.8130 C   0  0  0  0  0  3  0  0  0  0  0  0
  -20.9810   -5.9600   24.9650 C   0  0  0  0  0  3  0  0  0  0  0  0
  -21.3480   -4.6010   24.9220 C   0  0  0  0  0  0  0  0  0  0  0  0
  -21.8450   -4.0440   23.7310 C   0  0  0  0  0  3  0  0  0  0  0  0
  -21.9730   -4.8420   22.5820 C   0  0  0  0  0  0  0  0  0  0  0  0
  -22.4320   -4.2950   21.4310 F   0  0  0  0  0  0  0  0  0  0  0  0
  -21.2210   -3.8290   26.0260 F   0  0  0  0  0  0  0  0  0  0  0  0
  -22.7200  -13.5740   21.1960 C   0  0  0  0  0  0  0  0  0  0  0  0
  -22.0120  -12.8660   22.0680 N   0  0  0  0  0  0  0  0  0  0  0  0
  -22.2670  -14.6000   20.6890 O   0  0  0  0  0  0  0  0  0  0  0  0
  -22.3920  -12.0380   22.5000 H   0  0  0  0  0  0  0  0  0  0  0  0
  -21.0750  -13.1580   22.3080 H   0  0  0  0  0  0  0  0  0  0  0  0
  -25.3070  -15.2810   20.3640 N   0  0  0  0  0  0  0  0  0  0  0  0
  -24.5310  -15.9220   20.4920 H   0  0  0  0  0  0  0  0  0  0  0  0
  -26.1350  -15.7320   19.9960 H   0  0  0  0  0  0  0  0  0  0  0  0
  -27.9500  -23.9030   20.1990 C   0  0  0  0  0  2  0  0  0  0  0  0
  -28.1440  -25.6350   20.3030 O   0  0  0  0  0  0  0  0  0  0  0  0
  -24.6490  -31.8710   23.2540 C   0  0  0  0  0  0  0  0  0  0  0  0
  -27.1630  -26.8270   20.2510 C   0  0  0  0  0  0  0  0  0  0  0  0
  -23.4550  -30.4840   21.6130 C   0  0  0  0  0  3  0  0  0  0  0  0
  -24.8960  -28.8400   20.1960 C   0  0  0  0  0  0  0  0  0  0  0  0
  -26.0320  -30.6280   21.4880 C   0  0  0  0  0  2  0  0  0  0  0  0
  -26.0930  -29.2010   20.8290 C   0  0  0  0  0  0  0  0  0  0  0  0
  -27.2120  -28.2220   20.8230 C   0  0  0  0  0  3  0  0  0  0  0  0
  -25.9350  -26.6650   19.5660 C   0  0  0  0  0  3  0  0  0  0  0  0
  -24.8550  -27.5980   19.5400 C   0  0  0  0  0  3  0  0  0  0  0  0
  -23.6910  -29.7910   20.2390 C   0  0  0  0  0  2  0  0  0  0  0  0
  -24.7360  -31.0260   22.1710 N   0  0  0  0  0  0  0  0  0  0  0  0
  -23.5570  -32.1720   23.7670 O   0  0  0  0  0  0  0  0  0  0  0  0
  -22.7370  -29.5040   22.5800 C   0  0  0  0  0  0  0  0  0  0  0  0
  -21.4050  -29.3520   22.4510 N   0  0  0  0  0  0  0  0  0  0  0  0
  -23.3900  -28.8780   23.4180 O   0  0  0  0  0  0  0  0  0  0  0  0
  -20.9290  -29.9080   21.7530 H   0  0  0  0  0  0  0  0  0  0  0  0
  -18.0120  -28.1500   22.9510 C   0  0  0  0  0  0  0  0  0  0  0  0
  -20.5730  -28.4180   23.2190 C   0  0  0  0  0  3  0  0  0  0  0  0
  -20.6740  -26.9840   22.6460 C   0  0  0  0  0  2  0  0  0  0  0  0
  -19.5750  -26.6630   21.6280 C   0  0  0  0  0  2  0  0  0  0  0  0
  -18.1920  -26.8040   22.2680 C   0  0  0  0  0  2  0  0  0  0  0  0
  -19.1300  -28.9150   23.3830 C   0  0  0  0  0  0  0  0  0  0  0  0
  -18.9060  -30.1710   23.9860 C   0  0  0  0  0  3  0  0  0  0  0  0
  -17.5990  -30.6650   24.1570 C   0  0  0  0  0  3  0  0  0  0  0  0
  -16.4970  -29.9000   23.7390 C   0  0  0  0  0  3  0  0  0  0  0  0
  -16.7040  -28.6430   23.1420 C   0  0  0  0  0  3  0  0  0  0  0  0
  -25.9160  -32.5120   23.8980 C   0  0  0  0  0  3  0  0  0  0  0  0
  -26.4020  -31.7530   25.1950 C   0  0  1  0  0  0  0  0  0  0  0  0
  -25.2880  -31.5400   26.2480 C   0  0  0  0  0  1  0  0  0  0  0  0
  -26.9770  -30.3630   24.8410 C   0  0  0  0  0  1  0  0  0  0  0  0
  -27.5500  -32.5430   25.8650 C   0  0  0  0  0  1  0  0  0  0  0  0
  -25.6030  -33.9160   24.2290 N   0  0  0  0  0  0  0  0  0  0  0  0
  -25.9240  -34.9770   23.4750 C   0  0  0  0  0  0  0  0  0  0  0  0
  -26.5740  -34.8760   22.4320 O   0  0  0  0  0  0  0  0  0  0  0  0
  -25.0210  -34.0660   25.0400 H   0  0  0  0  0  0  0  0  0  0  0  0
  -24.1880  -36.7800   23.1870 C   0  0  0  0  0  1  0  0  0  0  0  0
  -25.4570  -36.3690   23.9520 C   0  0  0  0  0  3  0  0  0  0  0  0
  -27.6140  -37.2620   24.7150 C   0  0  0  0  0  1  0  0  0  0  0  0
  -26.4840  -37.4230   23.8030 N   0  0  0  0  0  0  0  0  0  0  0  0
  -26.0820  -38.3430   23.9550 H   0  0  0  0  0  0  0  0  0  0  0  0
  3  1  1  6
  3  2  1  0
  4  5  2  0
  4  3  1  0
  6 14  1  0
  7 12  1  0
  8  9  1  0
  8  7  1  0
 10  9  1  0
 10 19  1  0
 10 11  1  0
 12  6  1  0
 12 11  1  0
 13  6  2  0
 14  5  1  0
 14 15  1  0
 16 17  2  0
 17 36  1  0
 18 17  1  0
 18 21  1  0
 19 20  1  0
 19 16  1  0
 20 18  2  0
 21 22  1  0
 22 23  2  0
 24 27  1  0
 24 23  1  0
 25 24  2  0
 26 25  1  0
 26 21  2  0
 27 28  1  0
 28 29  1  0
 29 30  2  0
 31 30  1  0
 31 35  1  0
 32 31  2  0
 33 28  2  0
 33 32  1  0
 34 33  1  0
 36 37  1  0
 37 40  1  0
 37 39  1  0
 38 36  2  0
 41 42  1  0
 41 16  1  0
 43 41  1  0
 44 45  1  0
 44  3  1  0
 46 57  2  0
 47 45  1  0
 47 52  1  0
 48 56  1  0
 48 58  1  0
 49 55  1  0
 49 51  1  0
 50 56  1  0
 51 50  1  0
 52 51  2  0
 53 47  2  0
 54 53  1  0
 54 49  2  0
 55 48  1  0
 56 46  1  0
 58 60  2  0
 59 58  1  0
 61 59  1  0
 62 71  2  0
 62 67  1  0
 63 59  1  0
 63 67  1  0
 64 63  1  0
 65 66  1  0
 65 64  1  0
 66 62  1  0
 67 68  2  0
 68 69  1  0
 70 69  2  0
 71 70  1  0
 72 46  1  0
 72 77  1  0
 72 73  1  0
 73 76  1  1
 73 74  1  0
 75 73  1  0
 77 80  1  0
 78 82  1  0
 78 77  1  0
 79 78  2  0
 82 81  1  0
 84 82  1  0
 84 85  1  0
 84 83  1  0
M  ISO  4   6 100  14 100  44 101  45 101
M  END
>  <TORSDO>  (56) 
F 19

>  <SCORE>  (56) 
-16.417

>  <name>  (56) 
55

>  <ligand_id>  (56) 
55

>  <original_smiles>  (56) 
[H]c1c([H])c([H])c2c(c1[H])C([H])([H])C([H])([H])C([H])([H])C2([H])N([H])C(=O)C1([H])N(C(=O)C([H])(N([H])C(=O)C([H])(N([H])C([H])([H])[H])C([H])([H])[H])C(C([H])([H])[H])(C([H])([H])[H])C([H])([H])[H])C([H])([H])c2c([H])c(OC([H])([H])C(C([H])([H])[H])(C([H])([H])[H])C([H])([H])C([H])([H])N([H])C(=O)N3C([H])([H])C([H])([H])C([H])([H])C([H])(n4nc(-c5c([H])c([H])c(Oc6c([H])c([H])c(F)c([H])c6F)c([H])c5[H])c(C(=O)N([H])[H])c4N([H])[H])C3([H])[H])c([H])c([H])c2C1([H])[H]

>  <smiles>  (56) 
[H]c1c([H])c([H])c2c(c1[H])C([H])([H])C([H])([H])C([H])([H])C2([H])N([H])C(=O)C1([H])N(C(=O)C([H])(N([H])C(=O)C([H])(N([H])C([H])([H])[H])C([H])([H])[H])C(C([H])([H])[H])(C([H])([H])[H])C([H])([H])[H])C([H])([H])c2c([H])c(OC([H])([H])C(C([H])([H])[H])(C([H])([H])[H])C([H])([H])C([H])([H])N([H])C(=O)N3C([H])([H])C([H])([H])C([H])([H])C([H])(n4nc(-c5c([H])c([H])c(Oc6c([H])c([H])c(F)c([H])c6F)c([H])c5[H])c(C(=O)N([H])[H])c4N([H])[H])C3([H])[H])c([H])c([H])c2C1([H])[H]

$$$$
56:0:0
     RDKit          3D

 95103  0  0  1  0  0  0  0  0999 V2000
  -30.2200  -21.1130   19.6170 C   0  0  0  0  0  2  0  0  0  0  0  0
  -30.7110  -19.6480   21.6230 C   0  0  0  0  0  3  0  0  0  0  0  0
  -30.9490  -18.4460   22.3010 C   0  0  0  0  0  3  0  0  0  0  0  0
  -30.4660  -18.3720   19.5610 C   0  0  0  0  0  3  0  0  0  0  0  0
  -30.4250  -19.6640   20.2500 C   0  0  0  0  0  0  0  0  0  0  0  0
  -30.9150  -17.1920   21.6560 C   0  0  0  0  0  0  0  0  0  0  0  0
  -30.7330  -17.0990   20.2360 C   0  0  0  0  0  0  0  0  0  0  0  0
  -31.3750  -14.6270   19.3650 C   0  0  0  0  0  0  0  0  0  0  0  0
  -30.9140  -12.4350   18.2180 C   0  0  0  0  0  2  0  0  0  0  0  0
  -29.7960  -12.6460   17.1650 C   0  0  0  0  0  2  0  0  0  0  0  0
  -28.3850  -12.5900   17.7980 C   0  0  0  0  0  2  0  0  0  0  0  0
  -28.2890  -13.4260   19.1000 C   0  0  0  0  0  3  0  0  0  0  0  0
  -29.4720  -13.0740   20.0240 C   0  0  0  0  0  2  0  0  0  0  0  0
  -30.7000  -13.4240   19.2980 N   0  0  0  0  0  0  0  0  0  0  0  0
  -32.5240  -14.7160   18.9130 O   0  0  0  0  0  0  0  0  0  0  0  0
  -30.5770  -15.7310   19.6620 N   0  0  0  0  0  0  0  0  0  0  0  0
  -29.6430  -15.3850   19.8250 H   0  0  0  0  0  0  0  0  0  0  0  0
  -26.1250  -14.2530   20.2120 C   0  0  0  0  0  0  0  0  0  0  0  0
  -25.0350  -13.5860   20.7030 C   0  0  0  0  0  0  0  0  0  0  0  0
  -25.3090  -12.1960   20.5210 C   0  0  0  0  0  0  0  0  0  0  0  0
  -27.0020  -13.2730   19.7700 N   0  0  0  0  0  0  0  0  0  0  0  0
  -26.5230  -12.0270   20.0140 N   0  0  0  0  0  0  0  0  0  0  0  0
  -24.4610  -11.0200   20.7440 C   0  0  0  0  0  0  0  0  0  0  0  0
  -24.8350  -10.0030   21.6490 C   0  0  0  0  0  3  0  0  0  0  0  0
  -23.9970   -8.8890   21.8600 C   0  0  0  0  0  3  0  0  0  0  0  0
  -22.7700   -8.7810   21.1620 C   0  0  0  0  0  0  0  0  0  0  0  0
  -22.4100   -9.7880   20.2470 C   0  0  0  0  0  3  0  0  0  0  0  0
  -23.2500  -10.8940   20.0350 C   0  0  0  0  0  3  0  0  0  0  0  0
  -21.9010   -7.7230   21.2850 O   0  0  0  0  0  0  0  0  0  0  0  0
  -21.7410   -7.0600   22.4750 C   0  0  0  0  0  0  0  0  0  0  0  0
  -21.3490   -7.7300   23.6550 C   0  0  0  0  0  3  0  0  0  0  0  0
  -21.1250   -6.9980   24.8400 C   0  0  0  0  0  3  0  0  0  0  0  0
  -21.2830   -5.5990   24.8440 C   0  0  0  0  0  0  0  0  0  0  0  0
  -21.6710   -4.9300   23.6700 C   0  0  0  0  0  3  0  0  0  0  0  0
  -21.8960   -5.6580   22.4890 C   0  0  0  0  0  0  0  0  0  0  0  0
  -22.2470   -5.0060   21.3540 F   0  0  0  0  0  0  0  0  0  0  0  0
  -21.0640   -4.8940   25.9780 F   0  0  0  0  0  0  0  0  0  0  0  0
  -23.7630  -14.2040   21.2070 C   0  0  0  0  0  0  0  0  0  0  0  0
  -23.1170  -13.5780   22.1840 N   0  0  0  0  0  0  0  0  0  0  0  0
  -23.3580  -15.2780   20.7670 O   0  0  0  0  0  0  0  0  0  0  0  0
  -23.4580  -12.7070   22.5650 H   0  0  0  0  0  0  0  0  0  0  0  0
  -22.2670  -13.9770   22.5550 H   0  0  0  0  0  0  0  0  0  0  0  0
  -26.4280  -15.6070   20.0840 N   0  0  0  0  0  0  0  0  0  0  0  0
  -25.7360  -16.3100   20.3240 H   0  0  0  0  0  0  0  0  0  0  0  0
  -27.1870  -15.9840   19.5330 H   0  0  0  0  0  0  0  0  0  0  0  0
  -30.3870  -16.0970   23.9350 C   0  0  0  0  0  1  0  0  0  0  0  0
  -32.5400  -15.5500   22.6800 C   0  0  0  0  0  1  0  0  0  0  0  0
  -31.0680  -15.9630   22.5570 C   0  0  0  0  0  3  0  0  0  0  0  0
  -29.0670  -22.0180   20.0900 N   0  0  0  0  0  4  0  0  0  0  0  0
  -28.3740  -21.9640   19.3620 H   0  0  0  0  0  0  0  0  0  0  0  0
  -28.6450  -21.5860   20.8960 H   0  0  0  0  0  0  0  0  0  0  0  0
  -29.3080  -23.5070   20.4270 C   0  0  0  0  0  2  0  0  0  0  0  0
  -28.1030  -24.5210   18.4130 C   0  0  0  0  0  1  0  0  0  0  0  0
  -28.2070  -24.6020   19.9480 C   0  0  0  0  0  3  0  0  0  0  0  0
  -28.3540  -26.0710   20.2770 O   0  0  0  0  0  0  0  0  0  0  0  0
  -24.6690  -31.7090   23.0380 C   0  0  0  0  0  0  0  0  0  0  0  0
  -27.2530  -26.9650   20.1750 C   0  0  0  0  0  0  0  0  0  0  0  0
  -23.4690  -30.2680   21.4350 C   0  0  0  0  0  3  0  0  0  0  0  0
  -24.9170  -28.6490   20.0840 C   0  0  0  0  0  0  0  0  0  0  0  0
  -26.0190  -30.5320   21.2810 C   0  0  0  0  0  2  0  0  0  0  0  0
  -26.0860  -29.1250   20.6860 C   0  0  0  0  0  0  0  0  0  0  0  0
  -27.2540  -28.2940   20.7250 C   0  0  0  0  0  3  0  0  0  0  0  0
  -26.0520  -26.5640   19.5430 C   0  0  0  0  0  3  0  0  0  0  0  0
  -24.9040  -27.3740   19.5050 C   0  0  0  0  0  3  0  0  0  0  0  0
  -23.6990  -29.5490   20.0800 C   0  0  0  0  0  2  0  0  0  0  0  0
  -24.7370  -30.8580   21.9720 N   0  0  0  0  0  0  0  0  0  0  0  0
  -23.5830  -32.0140   23.5520 O   0  0  0  0  0  0  0  0  0  0  0  0
  -22.7820  -29.2920   22.4230 C   0  0  0  0  0  0  0  0  0  0  0  0
  -21.4520  -29.1370   22.3040 N   0  0  0  0  0  0  0  0  0  0  0  0
  -23.4470  -28.6790   23.2630 O   0  0  0  0  0  0  0  0  0  0  0  0
  -20.9760  -29.6780   21.5960 H   0  0  0  0  0  0  0  0  0  0  0  0
  -18.0460  -28.0550   22.8740 C   0  0  0  0  0  0  0  0  0  0  0  0
  -20.6160  -28.2410   23.1060 C   0  0  0  0  0  3  0  0  0  0  0  0
  -20.6680  -26.7960   22.5610 C   0  0  0  0  0  2  0  0  0  0  0  0
  -19.5430  -26.4860   21.5700 C   0  0  0  0  0  2  0  0  0  0  0  0
  -18.1740  -26.6880   22.2240 C   0  0  0  0  0  2  0  0  0  0  0  0
  -19.1940  -28.7920   23.2740 C   0  0  0  0  0  0  0  0  0  0  0  0
  -19.0210  -30.0720   23.8430 C   0  0  0  0  0  3  0  0  0  0  0  0
  -17.7350  -30.6160   24.0160 C   0  0  0  0  0  3  0  0  0  0  0  0
  -16.6020  -29.8790   23.6300 C   0  0  0  0  0  3  0  0  0  0  0  0
  -16.7580  -28.6020   23.0620 C   0  0  0  0  0  3  0  0  0  0  0  0
  -25.9510  -32.3550   23.6490 C   0  0  0  0  0  3  0  0  0  0  0  0
  -25.6150  -33.7340   24.0320 N   0  0  0  0  0  0  0  0  0  0  0  0
  -25.9310  -34.8240   23.3180 C   0  0  0  0  0  0  0  0  0  0  0  0
  -26.6080  -34.7750   22.2880 O   0  0  0  0  0  0  0  0  0  0  0  0
  -25.0210  -33.8450   24.8420 H   0  0  0  0  0  0  0  0  0  0  0  0
  -24.1640  -36.5890   23.0290 C   0  0  0  0  0  1  0  0  0  0  0  0
  -25.4140  -36.1830   23.8270 C   0  0  0  0  0  3  0  0  0  0  0  0
  -27.5290  -37.0760   24.6970 C   0  0  0  0  0  1  0  0  0  0  0  0
  -26.4240  -37.2630   23.7580 N   0  0  0  0  0  0  0  0  0  0  0  0
  -25.9980  -38.1670   23.9460 H   0  0  0  0  0  0  0  0  0  0  0  0
  -26.5150  -31.5580   24.8890 C   0  0  1  0  0  0  0  0  0  0  0  0
  -25.4520  -31.2510   25.9680 C   0  0  0  0  0  1  0  0  0  0  0  0
  -27.1360  -30.2140   24.4420 C   0  0  0  0  0  1  0  0  0  0  0  0
  -27.6510  -32.3660   25.5590 C   0  0  0  0  0  1  0  0  0  0  0  0
  1 49  1  0
  1  5  1  0
  2  3  1  0
  4  7  2  0
  4  5  1  0
  5  2  2  0
  6  3  2  0
  6 48  1  0
  7  6  1  0
  8 16  1  0
  9 14  1  0
 10 11  1  0
 10  9  1  0
 12 11  1  0
 12 21  1  0
 12 13  1  0
 14  8  1  0
 14 13  1  0
 15  8  2  0
 16 17  1  0
 16  7  1  0
 18 19  2  0
 19 38  1  0
 20 19  1  0
 20 23  1  0
 21 22  1  0
 21 18  1  0
 22 20  2  0
 23 24  1  0
 24 25  2  0
 26 29  1  0
 26 25  1  0
 27 26  2  0
 28 27  1  0
 28 23  2  0
 29 30  1  0
 30 35  2  0
 30 31  1  0
 31 32  2  0
 32 33  1  0
 33 37  1  0
 34 33  2  0
 35 34  1  0
 36 35  1  0
 38 39  1  0
 39 42  1  0
 39 41  1  0
 40 38  2  0
 43 18  1  0
 43 44  1  0
 45 43  1  0
 48 47  1  0
 48 46  1  0
 49 52  1  0
 49 51  1  0
 50 49  1  0
 54 53  1  0
 54 55  1  0
 54 52  1  0
 56 67  2  0
 57 55  1  0
 57 62  1  0
 58 66  1  0
 58 68  1  0
 59 61  1  0
 60 66  1  0
 61 62  2  0
 61 60  1  0
 63 57  2  0
 64 63  1  0
 64 59  2  0
 65 59  1  0
 65 58  1  0
 66 56  1  0
 68 70  2  0
 69 68  1  0
 71 69  1  0
 72 81  2  0
 72 77  1  0
 73 69  1  0
 73 77  1  0
 74 73  1  0
 75 76  1  0
 75 74  1  0
 76 72  1  0
 77 78  2  0
 78 79  1  0
 80 79  2  0
 81 80  1  0
 82 56  1  0
 82 83  1  0
 82 92  1  0
 83 86  1  0
 84 88  1  0
 84 83  1  0
 85 84  2  0
 88 87  1  0
 90 88  1  0
 90 91  1  0
 90 89  1  0
 92 95  1  1
 92 93  1  0
 94 92  1  0
M  ISO  4   8 100  16 100  54 101  55 101
M  END
>  <TORSDO>  (57) 
F 21

>  <SCORE>  (57) 
-3.420

>  <name>  (57) 
56

>  <ligand_id>  (57) 
56

>  <original_smiles>  (57) 
[H]c1c([H])c([H])c2c(c1[H])C([H])([H])C([H])([H])C([H])([H])C2([H])N([H])C(=O)C1([H])N(C(=O)C([H])(N([H])C(=O)C([H])(N([H])C([H])([H])[H])C([H])([H])[H])C(C([H])([H])[H])(C([H])([H])[H])C([H])([H])[H])C([H])([H])c2c([H])c(OC([H])(C([H])([H])[H])C([H])([H])[N+]([H])([H])C([H])([H])c3c([H])c([H])c(C([H])(C([H])([H])[H])C([H])([H])[H])c(N([H])C(=O)N4C([H])([H])C([H])([H])C([H])([H])C([H])(n5nc(-c6c([H])c([H])c(Oc7c([H])c([H])c(F)c([H])c7F)c([H])c6[H])c(C(=O)N([H])[H])c5N([H])[H])C4([H])[H])c3[H])c([H])c([H])c2C1([H])[H]

>  <smiles>  (57) 
[H]c1c([H])c([H])c2c(c1[H])C([H])([H])C([H])([H])C([H])([H])C2([H])N([H])C(=O)C1([H])N(C(=O)C([H])(N([H])C(=O)C([H])(N([H])C([H])([H])[H])C([H])([H])[H])C(C([H])([H])[H])(C([H])([H])[H])C([H])([H])[H])C([H])([H])c2c([H])c(OC([H])(C([H])([H])[H])C([H])([H])[N+]([H])([H])C([H])([H])c3c([H])c([H])c(C([H])(C([H])([H])[H])C([H])([H])[H])c(N([H])C(=O)N4C([H])([H])C([H])([H])C([H])([H])C([H])(n5nc(-c6c([H])c([H])c(Oc7c([H])c([H])c(F)c([H])c7F)c([H])c6[H])c(C(=O)N([H])[H])c5N([H])[H])C4([H])[H])c3[H])c([H])c([H])c2C1([H])[H]

$$$$
57:0:0
     RDKit          3D

 91 99  0  0  1  0  0  0  0  0999 V2000
  -28.5890  -21.9160   19.5380 C   0  0  0  0  0  3  0  0  0  0  0  0
  -28.5610  -20.4930   19.5930 C   0  0  0  0  0  3  0  0  0  0  0  0
  -30.0890  -21.9300   21.4210 C   0  0  0  0  0  3  0  0  0  0  0  0
  -29.3490  -22.6720   20.4620 C   0  0  0  0  0  0  0  0  0  0  0  0
  -29.2840  -19.7510   20.5660 C   0  0  0  0  0  0  0  0  0  0  0  0
  -30.0640  -20.4970   21.4890 C   0  0  0  0  0  0  0  0  0  0  0  0
  -31.6240  -20.4720   23.3220 C   0  0  0  0  0  1  0  0  0  0  0  0
  -30.7540  -19.7740   22.4400 O   0  0  0  0  0  0  0  0  0  0  0  0
  -29.4680  -24.2370   20.4210 C   0  0  0  0  0  3  0  0  0  0  0  0
  -28.2360  -25.1290   20.0080 C   0  0  0  0  0  3  0  0  0  0  0  0
  -28.4150  -26.5830   20.1620 O   0  0  0  0  0  0  0  0  0  0  0  0
  -24.6680  -31.8820   23.2510 C   0  0  0  0  0  0  0  0  0  0  0  0
  -27.2780  -27.3970   20.1230 C   0  0  0  0  0  0  0  0  0  0  0  0
  -23.4560  -30.5030   21.5980 C   0  0  0  0  0  3  0  0  0  0  0  0
  -24.9020  -28.9780   20.1460 C   0  0  0  0  0  0  0  0  0  0  0  0
  -25.9910  -30.8390   21.4020 C   0  0  0  0  0  2  0  0  0  0  0  0
  -26.0710  -29.4710   20.7400 C   0  0  0  0  0  0  0  0  0  0  0  0
  -27.2630  -28.6920   20.7180 C   0  0  0  0  0  3  0  0  0  0  0  0
  -26.0870  -26.9480   19.5070 C   0  0  0  0  0  3  0  0  0  0  0  0
  -24.9100  -27.7220   19.5210 C   0  0  0  0  0  3  0  0  0  0  0  0
  -23.6620  -29.8440   20.2090 C   0  0  0  0  0  2  0  0  0  0  0  0
  -24.7240  -31.0910   22.1410 N   0  0  0  0  0  0  0  0  0  0  0  0
  -23.5880  -32.1500   23.7960 O   0  0  0  0  0  0  0  0  0  0  0  0
  -22.8030  -29.4730   22.5480 C   0  0  0  0  0  0  0  0  0  0  0  0
  -21.4770  -29.2940   22.4250 N   0  0  0  0  0  0  0  0  0  0  0  0
  -23.4870  -28.8360   23.3540 O   0  0  0  0  0  0  0  0  0  0  0  0
  -20.9840  -29.8610   21.7490 H   0  0  0  0  0  0  0  0  0  0  0  0
  -18.1020  -28.0950   22.9270 C   0  0  0  0  0  0  0  0  0  0  0  0
  -20.6620  -28.3470   23.1880 C   0  0  0  0  0  3  0  0  0  0  0  0
  -20.7600  -26.9230   22.5940 C   0  0  0  0  0  2  0  0  0  0  0  0
  -19.6530  -26.6150   21.5810 C   0  0  0  0  0  2  0  0  0  0  0  0
  -18.2750  -26.7530   22.2330 C   0  0  0  0  0  2  0  0  0  0  0  0
  -19.2250  -28.8500   23.3610 C   0  0  0  0  0  0  0  0  0  0  0  0
  -19.0090  -30.1050   23.9690 C   0  0  0  0  0  3  0  0  0  0  0  0
  -17.7060  -30.6060   24.1460 C   0  0  0  0  0  3  0  0  0  0  0  0
  -16.5990  -29.8480   23.7290 C   0  0  0  0  0  3  0  0  0  0  0  0
  -16.7980  -28.5930   23.1240 C   0  0  0  0  0  3  0  0  0  0  0  0
  -25.9550  -32.5070   23.8750 C   0  0  0  0  0  3  0  0  0  0  0  0
  -25.6480  -33.9010   24.2220 N   0  0  0  0  0  0  0  0  0  0  0  0
  -25.9470  -34.9600   23.4560 C   0  0  0  0  0  0  0  0  0  0  0  0
  -26.5820  -34.8650   22.4020 O   0  0  0  0  0  0  0  0  0  0  0  0
  -25.0820  -34.0490   25.0440 H   0  0  0  0  0  0  0  0  0  0  0  0
  -24.1810  -36.7310   23.1880 C   0  0  0  0  0  1  0  0  0  0  0  0
  -25.4670  -36.3430   23.9360 C   0  0  0  0  0  3  0  0  0  0  0  0
  -27.6280  -37.2580   24.6580 C   0  0  0  0  0  1  0  0  0  0  0  0
  -26.4790  -37.4080   23.7690 N   0  0  0  0  0  0  0  0  0  0  0  0
  -26.0690  -38.3240   23.9350 H   0  0  0  0  0  0  0  0  0  0  0  0
  -26.4770  -31.7210   25.1390 C   0  0  1  0  0  0  0  0  0  0  0  0
  -25.3900  -31.4720   26.2100 C   0  0  0  0  0  1  0  0  0  0  0  0
  -27.0580  -30.3470   24.7290 C   0  0  0  0  0  1  0  0  0  0  0  0
  -27.6310  -32.5060   25.8050 C   0  0  0  0  0  1  0  0  0  0  0  0
  -29.0860  -18.1990   20.6920 C   0  0  0  0  0  2  0  0  0  0  0  0
  -30.2950  -17.2000   20.4820 C   0  0  0  0  0  2  0  0  0  0  0  0
  -30.6850  -14.6680   20.2040 C   0  0  0  0  0  0  0  0  0  0  0  0
  -30.3960  -12.4690   19.0960 C   0  0  0  0  0  2  0  0  0  0  0  0
  -29.4110  -12.6370   17.9200 C   0  0  0  0  0  2  0  0  0  0  0  0
  -27.9550  -12.4770   18.4020 C   0  0  0  0  0  2  0  0  0  0  0  0
  -27.6490  -13.3170   19.6700 C   0  0  0  0  0  3  0  0  0  0  0  0
  -28.7460  -13.1370   20.7430 C   0  0  0  0  0  2  0  0  0  0  0  0
  -30.0370  -13.4670   20.1220 N   0  0  0  0  0  0  0  0  0  0  0  0
  -31.8300  -14.8180   19.7700 O   0  0  0  0  0  0  0  0  0  0  0  0
  -29.9380  -15.7440   20.5870 N   0  0  0  0  0  0  0  0  0  0  0  0
  -29.0070  -15.5320   20.9100 H   0  0  0  0  0  0  0  0  0  0  0  0
  -25.2860  -13.9100   20.4890 C   0  0  0  0  0  0  0  0  0  0  0  0
  -24.2310  -13.1320   20.8830 C   0  0  0  0  0  0  0  0  0  0  0  0
  -24.6860  -11.7800   20.8090 C   0  0  0  0  0  0  0  0  0  0  0  0
  -26.3180  -13.0320   20.1980 N   0  0  0  0  0  0  0  0  0  0  0  0
  -25.9640  -11.7440   20.4510 N   0  0  0  0  0  0  0  0  0  0  0  0
  -23.9620  -10.5160   20.9990 C   0  0  0  0  0  0  0  0  0  0  0  0
  -24.4050   -9.5440   21.9210 C   0  0  0  0  0  3  0  0  0  0  0  0
  -23.6820   -8.3440   22.1000 C   0  0  0  0  0  3  0  0  0  0  0  0
  -22.5010   -8.1110   21.3560 C   0  0  0  0  0  0  0  0  0  0  0  0
  -22.0770   -9.0740   20.4230 C   0  0  0  0  0  3  0  0  0  0  0  0
  -22.8010  -10.2630   20.2420 C   0  0  0  0  0  3  0  0  0  0  0  0
  -21.7480   -6.9650   21.4460 O   0  0  0  0  0  0  0  0  0  0  0  0
  -21.6790   -6.2390   22.6070 C   0  0  0  0  0  0  0  0  0  0  0  0
  -21.2130   -6.8050   23.8140 C   0  0  0  0  0  3  0  0  0  0  0  0
  -21.0920   -6.0040   24.9670 C   0  0  0  0  0  3  0  0  0  0  0  0
  -21.4250   -4.6380   24.9130 C   0  0  0  0  0  0  0  0  0  0  0  0
  -21.8820   -4.0690   23.7120 C   0  0  0  0  0  3  0  0  0  0  0  0
  -22.0050   -4.8680   22.5600 C   0  0  0  0  0  0  0  0  0  0  0  0
  -22.4260   -4.3120   21.3990 F   0  0  0  0  0  0  0  0  0  0  0  0
  -21.3010   -3.8650   26.0190 F   0  0  0  0  0  0  0  0  0  0  0  0
  -22.8460  -13.6080   21.2160 C   0  0  0  0  0  0  0  0  0  0  0  0
  -22.1500  -12.9020   22.1000 N   0  0  0  0  0  0  0  0  0  0  0  0
  -22.3900  -14.6410   20.7270 O   0  0  0  0  0  0  0  0  0  0  0  0
  -22.5320  -12.0660   22.5180 H   0  0  0  0  0  0  0  0  0  0  0  0
  -21.2220  -13.2030   22.3640 H   0  0  0  0  0  0  0  0  0  0  0  0
  -25.4490  -15.2830   20.3310 N   0  0  0  0  0  0  0  0  0  0  0  0
  -24.6870  -15.9370   20.4770 H   0  0  0  0  0  0  0  0  0  0  0  0
  -26.2770  -15.7220   19.9480 H   0  0  0  0  0  0  0  0  0  0  0  0
  1  2  2  0
  1  4  1  0
  2  5  1  0
  3  6  1  0
  4  3  2  0
  5 52  1  0
  5  6  2  0
  6  8  1  0
  8  7  1  0
  9  4  1  0
 10 11  1  0
 10  9  2  0
 12 23  2  0
 13 11  1  0
 13 18  1  0
 14 22  1  0
 14 24  1  0
 15 21  1  0
 15 17  1  0
 16 22  1  0
 17 16  1  0
 18 17  2  0
 19 20  1  0
 19 13  2  0
 20 15  2  0
 21 14  1  0
 22 12  1  0
 24 26  2  0
 25 24  1  0
 27 25  1  0
 28 37  2  0
 28 33  1  0
 29 25  1  0
 29 33  1  0
 30 29  1  0
 31 32  1  0
 31 30  1  0
 32 28  1  0
 33 34  2  0
 34 35  1  0
 36 35  2  0
 37 36  1  0
 38 12  1  0
 38 39  1  0
 38 48  1  0
 39 42  1  0
 40 44  1  0
 40 39  1  0
 41 40  2  0
 44 43  1  0
 46 47  1  0
 46 44  1  0
 46 45  1  0
 48 51  1  1
 48 49  1  0
 50 48  1  0
 53 62  1  0
 53 52  1  0
 54 62  1  0
 55 60  1  0
 56 57  1  0
 56 55  1  0
 58 57  1  0
 58 67  1  0
 58 59  1  0
 60 54  1  0
 60 59  1  0
 61 54  2  0
 62 63  1  0
 64 65  2  0
 65 84  1  0
 66 65  1  0
 66 69  1  0
 67 68  1  0
 67 64  1  0
 68 66  2  0
 69 70  1  0
 70 71  2  0
 72 75  1  0
 72 71  1  0
 73 72  2  0
 74 73  1  0
 74 69  2  0
 75 76  1  0
 76 77  1  0
 77 78  2  0
 79 78  1  0
 79 83  1  0
 80 79  2  0
 81 76  2  0
 81 80  1  0
 82 81  1  0
 84 85  1  0
 85 88  1  0
 85 87  1  0
 86 84  2  0
 89 90  1  0
 89 64  1  0
 91 89  1  0
M  ISO  4  10 101  11 101  54 100  62 100
M  END
>  <TORSDO>  (58) 
F 21

>  <SCORE>  (58) 
-13.654

>  <name>  (58) 
57

>  <ligand_id>  (58) 
57

>  <original_smiles>  (58) 
[H]c1c([H])c([H])c2c(c1[H])C([H])([H])C([H])([H])C([H])([H])C2([H])N([H])C(=O)C1([H])N(C(=O)C([H])(N([H])C(=O)C([H])(N([H])C([H])([H])[H])C([H])([H])[H])C(C([H])([H])[H])(C([H])([H])[H])C([H])([H])[H])C([H])([H])c2c([H])c(OC([H])([H])C([H])([H])c3c([H])c([H])c(C([H])([H])C([H])([H])N([H])C(=O)N4C([H])([H])C([H])([H])C([H])([H])C([H])(n5nc(-c6c([H])c([H])c(Oc7c([H])c([H])c(F)c([H])c7F)c([H])c6[H])c(C(=O)N([H])[H])c5N([H])[H])C4([H])[H])c(OC([H])([H])[H])c3[H])c([H])c([H])c2C1([H])[H]

>  <smiles>  (58) 
[H]c1c([H])c([H])c2c(c1[H])C([H])([H])C([H])([H])C([H])([H])C2([H])N([H])C(=O)C1([H])N(C(=O)C([H])(N([H])C(=O)C([H])(N([H])C([H])([H])[H])C([H])([H])[H])C(C([H])([H])[H])(C([H])([H])[H])C([H])([H])[H])C([H])([H])c2c([H])c(OC([H])([H])C([H])([H])c3c([H])c([H])c(C([H])([H])C([H])([H])N([H])C(=O)N4C([H])([H])C([H])([H])C([H])([H])C([H])(n5nc(-c6c([H])c([H])c(Oc7c([H])c([H])c(F)c([H])c7F)c([H])c6[H])c(C(=O)N([H])[H])c5N([H])[H])C4([H])[H])c(OC([H])([H])[H])c3[H])c([H])c([H])c2C1([H])[H]

$$$$
58:0:0
     RDKit          3D

 95103  0  0  1  0  0  0  0  0999 V2000
  -29.2770  -20.8230   17.3330 C   0  0  0  0  0  3  0  0  0  0  0  0
  -31.0520  -19.4670   17.7020 C   0  0  0  0  0  3  0  0  0  0  0  0
  -30.1920  -19.9170   16.7440 C   0  0  0  0  0  0  0  0  0  0  0  0
  -29.6460  -20.9770   18.6450 C   0  0  0  0  0  0  0  0  0  0  0  0
  -30.7230  -20.1100   18.8920 N   0  0  0  0  0  0  0  0  0  0  0  0
  -27.5620  -22.1200   19.5560 C   0  0  0  0  0  1  0  0  0  0  0  0
  -29.7630  -23.2990   19.6180 C   0  0  0  0  0  1  0  0  0  0  0  0
  -29.0830  -21.9220   19.6820 C   0  0  0  0  0  3  0  0  0  0  0  0
  -30.2120  -19.5450   15.3940 N   0  0  0  0  0  0  0  0  0  0  0  0
  -29.2660  -19.4010   15.0500 H   0  0  0  0  0  0  0  0  0  0  0  0
  -32.4560  -20.2820   14.5820 C   0  0  0  0  0  1  0  0  0  0  0  0
  -30.9250  -20.4850   14.5190 C   0  0  0  0  0  3  0  0  0  0  0  0
  -30.3780  -20.4030   13.0640 C   0  0  0  0  0  2  0  0  0  0  0  0
  -30.9200  -21.4930   12.1030 C   0  0  0  0  0  2  0  0  0  0  0  0
  -29.9130  -22.0570   11.2470 O   0  0  0  0  0  0  0  0  0  0  0  0
  -30.1550  -28.8390    9.0710 C   0  0  0  0  0  0  0  0  0  0  0  0
  -29.5880  -23.3710   11.5010 C   0  0  0  0  0  0  0  0  0  0  0  0
  -29.3980  -28.4760   11.3980 C   0  0  0  0  0  3  0  0  0  0  0  0
  -28.8920  -26.0570   12.0320 C   0  0  0  0  0  0  0  0  0  0  0  0
  -29.0330  -26.6800    9.6140 C   0  0  0  0  0  2  0  0  0  0  0  0
  -29.1350  -25.6470   10.7160 C   0  0  0  0  0  0  0  0  0  0  0  0
  -29.4710  -24.3000   10.4440 C   0  0  0  0  0  3  0  0  0  0  0  0
  -29.3470  -23.8010   12.8240 C   0  0  0  0  0  3  0  0  0  0  0  0
  -29.0000  -25.1370   13.0930 C   0  0  0  0  0  3  0  0  0  0  0  0
  -28.5160  -27.5100   12.2340 C   0  0  0  0  0  2  0  0  0  0  0  0
  -29.5740  -28.0100    9.9830 N   0  0  0  0  0  0  0  0  0  0  0  0
  -30.5030  -29.9870    9.3790 O   0  0  0  0  0  0  0  0  0  0  0  0
  -30.7350  -28.6940   12.1420 C   0  0  0  0  0  0  0  0  0  0  0  0
  -30.7750  -29.7150   13.0170 N   0  0  0  0  0  0  0  0  0  0  0  0
  -31.6940  -27.9440   11.9500 O   0  0  0  0  0  0  0  0  0  0  0  0
  -29.9510  -30.2910   13.1180 H   0  0  0  0  0  0  0  0  0  0  0  0
  -31.8400  -31.8970   15.6900 C   0  0  0  0  0  0  0  0  0  0  0  0
  -31.9180  -30.0810   13.8530 C   0  0  0  0  0  3  0  0  0  0  0  0
  -32.1090  -29.0660   15.0030 C   0  0  0  0  0  2  0  0  0  0  0  0
  -31.3950  -29.4790   16.2950 C   0  0  0  0  0  2  0  0  0  0  0  0
  -31.9050  -30.8400   16.7800 C   0  0  0  0  0  2  0  0  0  0  0  0
  -31.8310  -31.5400   14.3160 C   0  0  0  0  0  0  0  0  0  0  0  0
  -31.7330  -32.5590   13.3440 C   0  0  0  0  0  3  0  0  0  0  0  0
  -31.6500  -33.9120   13.7250 C   0  0  0  0  0  3  0  0  0  0  0  0
  -31.6730  -34.2600   15.0860 C   0  0  0  0  0  3  0  0  0  0  0  0
  -31.7730  -33.2550   16.0650 C   0  0  0  0  0  3  0  0  0  0  0  0
  -30.3870  -28.3970    7.5930 C   0  0  0  0  0  3  0  0  0  0  0  0
  -30.0810  -29.5480    6.7310 N   0  0  0  0  0  0  0  0  0  0  0  0
  -28.8450  -29.9300    6.3830 C   0  0  0  0  0  0  0  0  0  0  0  0
  -27.8330  -29.2980    6.7000 O   0  0  0  0  0  0  0  0  0  0  0  0
  -30.8560  -30.1420    6.4720 H   0  0  0  0  0  0  0  0  0  0  0  0
  -28.6250  -32.4310    6.5000 C   0  0  0  0  0  1  0  0  0  0  0  0
  -28.7060  -31.2220    5.5540 C   0  0  0  0  0  3  0  0  0  0  0  0
  -27.7890  -30.5310    3.3860 C   0  0  0  0  0  1  0  0  0  0  0  0
  -27.5380  -31.2190    4.6490 N   0  0  0  0  0  0  0  0  0  0  0  0
  -27.2470  -32.1690    4.4360 H   0  0  0  0  0  0  0  0  0  0  0  0
  -31.8510  -27.8730    7.3240 C   0  0  1  0  0  0  0  0  0  0  0  0
  -32.8350  -28.9780    6.8780 C   0  0  0  0  0  1  0  0  0  0  0  0
  -32.4340  -27.2080    8.5930 C   0  0  0  0  0  1  0  0  0  0  0  0
  -31.8280  -26.7830    6.2270 C   0  0  0  0  0  1  0  0  0  0  0  0
  -31.4340  -19.9690   20.1680 C   0  0  0  0  0  2  0  0  0  0  0  0
  -30.8540  -18.9490   21.1800 C   0  0  0  0  0  2  0  0  0  0  0  0
  -30.3040  -16.5220   20.8970 C   0  0  0  0  0  0  0  0  0  0  0  0
  -31.0130  -14.2200   20.3430 C   0  0  0  0  0  2  0  0  0  0  0  0
  -32.5480  -14.1430   20.4650 C   0  0  0  0  0  2  0  0  0  0  0  0
  -33.2360  -14.6000   19.1610 C   0  0  0  0  0  2  0  0  0  0  0  0
  -32.6600  -15.9340   18.6150 C   0  0  0  0  0  3  0  0  0  0  0  0
  -31.1160  -15.9030   18.6000 C   0  0  0  0  0  2  0  0  0  0  0  0
  -30.6470  -15.5940   19.9650 N   0  0  0  0  0  0  0  0  0  0  0  0
  -30.0770  -16.2560   22.0820 O   0  0  0  0  0  0  0  0  0  0  0  0
  -30.3560  -17.7820   20.4450 N   0  0  0  0  0  0  0  0  0  0  0  0
  -30.3990  -17.8560   19.4400 H   0  0  0  0  0  0  0  0  0  0  0  0
  -34.4470  -16.7730   16.9560 C   0  0  0  0  0  0  0  0  0  0  0  0
  -34.4740  -16.8210   15.5910 C   0  0  0  0  0  0  0  0  0  0  0  0
  -33.2160  -16.3050   15.1530 C   0  0  0  0  0  0  0  0  0  0  0  0
  -33.2070  -16.2500   17.2970 N   0  0  0  0  0  0  0  0  0  0  0  0
  -32.4470  -16.0200   16.1960 N   0  0  0  0  0  0  0  0  0  0  0  0
  -32.7220  -16.0220   13.8010 C   0  0  0  0  0  0  0  0  0  0  0  0
  -31.8490  -16.9110   13.1360 C   0  0  0  0  0  3  0  0  0  0  0  0
  -31.3960  -16.6260   11.8290 C   0  0  0  0  0  3  0  0  0  0  0  0
  -31.8200  -15.4460   11.1730 C   0  0  0  0  0  0  0  0  0  0  0  0
  -32.6710  -14.5540   11.8480 C   0  0  0  0  0  3  0  0  0  0  0  0
  -33.1170  -14.8350   13.1510 C   0  0  0  0  0  3  0  0  0  0  0  0
  -31.4100  -15.0740    9.9150 O   0  0  0  0  0  0  0  0  0  0  0  0
  -31.7580  -15.7920    8.8000 C   0  0  0  0  0  0  0  0  0  0  0  0
  -33.1050  -15.9520    8.4060 C   0  0  0  0  0  3  0  0  0  0  0  0
  -33.4160  -16.6440    7.2190 C   0  0  0  0  0  3  0  0  0  0  0  0
  -32.3830  -17.1660    6.4180 C   0  0  0  0  0  0  0  0  0  0  0  0
  -31.0410  -16.9970    6.8000 C   0  0  0  0  0  3  0  0  0  0  0  0
  -30.7300  -16.3110    7.9870 C   0  0  0  0  0  0  0  0  0  0  0  0
  -29.4340  -16.1340    8.3420 F   0  0  0  0  0  0  0  0  0  0  0  0
  -32.6780  -17.8230    5.2720 F   0  0  0  0  0  0  0  0  0  0  0  0
  -35.6310  -17.2390   14.7340 C   0  0  0  0  0  0  0  0  0  0  0  0
  -35.3930  -18.1320   13.7790 N   0  0  0  0  0  0  0  0  0  0  0  0
  -36.7670  -16.8170   14.9450 O   0  0  0  0  0  0  0  0  0  0  0  0
  -34.4600  -18.4820   13.6280 H   0  0  0  0  0  0  0  0  0  0  0  0
  -36.1470  -18.4760   13.2020 H   0  0  0  0  0  0  0  0  0  0  0  0
  -35.3820  -17.1190   17.9270 N   0  0  0  0  0  0  0  0  0  0  0  0
  -36.2950  -17.4710   17.6640 H   0  0  0  0  0  0  0  0  0  0  0  0
  -35.2760  -16.9890   18.9230 H   0  0  0  0  0  0  0  0  0  0  0  0
  1  4  2  0
  2  5  1  0
  3  1  1  0
  3  2  2  0
  4  5  1  0
  4  8  1  0
  5 56  1  0
  6  8  1  0
  7  8  1  0
  9  3  1  0
 10  9  1  0
 12 11  1  0
 12  9  1  0
 13 12  1  0
 14 13  1  0
 15 17  1  0
 15 14  1  0
 16 27  2  0
 16 26  1  0
 17 23  1  0
 18 28  1  0
 18 25  1  0
 19 25  1  0
 19 24  1  0
 20 26  1  0
 20 21  1  0
 21 19  2  0
 22 21  1  0
 22 17  2  0
 23 24  2  0
 26 18  1  0
 28 29  1  0
 29 31  1  0
 30 28  2  0
 32 41  1  0
 32 36  1  0
 33 29  1  0
 33 37  1  0
 33 34  1  0
 34 35  1  0
 35 36  1  0
 37 32  2  0
 38 39  2  0
 38 37  1  0
 39 40  1  0
 40 41  2  0
 42 16  1  0
 43 42  1  0
 44 45  2  0
 44 43  1  0
 46 43  1  0
 48 44  1  0
 48 47  1  0
 49 50  1  0
 50 48  1  0
 51 50  1  0
 52 42  1  0
 52 54  1  1
 53 52  1  0
 55 52  1  0
 56 57  1  0
 58 65  2  0
 59 60  1  0
 61 60  1  0
 62 71  1  0
 62 61  1  0
 63 62  1  0
 63 64  1  0
 64 59  1  0
 64 58  1  0
 66 58  1  0
 66 57  1  0
 67 66  1  0
 68 71  1  0
 68 93  1  0
 69 68  2  0
 70 69  1  0
 70 72  2  0
 72 71  1  0
 73 70  1  0
 74 73  2  0
 75 74  1  0
 76 75  2  0
 76 77  1  0
 77 78  2  0
 78 73  1  0
 79 76  1  0
 80 79  1  0
 81 80  1  0
 82 81  2  0
 83 84  2  0
 83 82  1  0
 84 85  1  0
 85 86  1  0
 85 80  2  0
 87 83  1  0
 88 90  2  0
 88 69  1  0
 89 88  1  0
 91 89  1  0
 92 89  1  0
 93 95  1  0
 94 93  1  0
M  ISO  4  14 101  15 101  58 100  66 100
M  END
>  <TORSDO>  (59) 
F 23

>  <SCORE>  (59) 
-4.606

>  <name>  (59) 
58

>  <ligand_id>  (59) 
58

>  <original_smiles>  (59) 
[H]c1c([H])c([H])c2c(c1[H])C([H])([H])C([H])([H])C([H])([H])C2([H])N([H])C(=O)C1([H])N(C(=O)C([H])(N([H])C(=O)C([H])(N([H])C([H])([H])[H])C([H])([H])[H])C(C([H])([H])[H])(C([H])([H])[H])C([H])([H])[H])C([H])([H])c2c([H])c(OC([H])([H])C([H])([H])C([H])(N([H])c3c([H])c(C([H])(C([H])([H])[H])C([H])([H])[H])n(C([H])([H])C([H])([H])N([H])C(=O)N4C([H])([H])C([H])([H])C([H])([H])C([H])(n5nc(-c6c([H])c([H])c(Oc7c([H])c([H])c(F)c([H])c7F)c([H])c6[H])c(C(=O)N([H])[H])c5N([H])[H])C4([H])[H])c3[H])C([H])([H])[H])c([H])c([H])c2C1([H])[H]

>  <smiles>  (59) 
[H]c1c([H])c([H])c2c(c1[H])C([H])([H])C([H])([H])C([H])([H])C2([H])N([H])C(=O)C1([H])N(C(=O)C([H])(N([H])C(=O)C([H])(N([H])C([H])([H])[H])C([H])([H])[H])C(C([H])([H])[H])(C([H])([H])[H])C([H])([H])[H])C([H])([H])c2c([H])c(OC([H])([H])C([H])([H])C([H])(N([H])c3c([H])c(C([H])(C([H])([H])[H])C([H])([H])[H])n(C([H])([H])C([H])([H])N([H])C(=O)N4C([H])([H])C([H])([H])C([H])([H])C([H])(n5nc(-c6c([H])c([H])c(Oc7c([H])c([H])c(F)c([H])c7F)c([H])c6[H])c(C(=O)N([H])[H])c5N([H])[H])C4([H])[H])c3[H])C([H])([H])[H])c([H])c([H])c2C1([H])[H]

$$$$
59:0:0
     RDKit          3D

 90 97  0  0  1  0  0  0  0  0999 V2000
  -27.2170  -22.9800   21.2490 C   0  0  0  0  0  1  0  0  0  0  0  0
  -29.5700  -23.6400   21.7510 C   0  0  0  0  0  1  0  0  0  0  0  0
  -28.5850  -23.2900   20.6150 C   0  0  2  0  0  0  0  0  0  0  0  0
  -29.4730  -24.8730   18.6760 C   0  0  0  0  0  1  0  0  0  0  0  0
  -28.3640  -24.7340   19.7320 C   0  0  0  0  0  3  0  0  0  0  0  0
  -28.2680  -26.1950   20.2900 O   0  0  0  0  0  0  0  0  0  0  0  0
  -24.6280  -31.8780   23.2250 C   0  0  0  0  0  0  0  0  0  0  0  0
  -27.1880  -27.1510   20.1730 C   0  0  0  0  0  0  0  0  0  0  0  0
  -23.4160  -30.4760   21.5990 C   0  0  0  0  0  3  0  0  0  0  0  0
  -24.8510  -28.8970   20.1610 C   0  0  0  0  0  0  0  0  0  0  0  0
  -25.9680  -30.7380   21.4150 C   0  0  0  0  0  2  0  0  0  0  0  0
  -26.0340  -29.3450   20.7600 C   0  0  0  0  0  0  0  0  0  0  0  0
  -27.1960  -28.4860   20.7520 C   0  0  0  0  0  3  0  0  0  0  0  0
  -25.9760  -26.8050   19.5330 C   0  0  0  0  0  3  0  0  0  0  0  0
  -24.8370  -27.6430   19.5310 C   0  0  0  0  0  3  0  0  0  0  0  0
  -23.6230  -29.7930   20.2200 C   0  0  0  0  0  2  0  0  0  0  0  0
  -24.6910  -31.0530   22.1330 N   0  0  0  0  0  0  0  0  0  0  0  0
  -23.5470  -32.1630   23.7610 O   0  0  0  0  0  0  0  0  0  0  0  0
  -22.7440  -29.4730   22.5710 C   0  0  0  0  0  0  0  0  0  0  0  0
  -21.4150  -29.3000   22.4560 N   0  0  0  0  0  0  0  0  0  0  0  0
  -23.4220  -28.8530   23.3950 O   0  0  0  0  0  0  0  0  0  0  0  0
  -20.9240  -29.8540   21.7690 H   0  0  0  0  0  0  0  0  0  0  0  0
  -18.0420  -28.0830   22.9760 C   0  0  0  0  0  0  0  0  0  0  0  0
  -20.5990  -28.3650   23.2380 C   0  0  0  0  0  3  0  0  0  0  0  0
  -20.7100  -26.9280   22.6760 C   0  0  0  0  0  2  0  0  0  0  0  0
  -19.6090  -26.5870   21.6670 C   0  0  0  0  0  2  0  0  0  0  0  0
  -18.2270  -26.7280   22.3120 C   0  0  0  0  0  2  0  0  0  0  0  0
  -19.1560  -28.8580   23.3970 C   0  0  0  0  0  0  0  0  0  0  0  0
  -18.9280  -30.1220   23.9830 C   0  0  0  0  0  3  0  0  0  0  0  0
  -17.6190  -30.6130   24.1470 C   0  0  0  0  0  3  0  0  0  0  0  0
  -16.5200  -29.8360   23.7440 C   0  0  0  0  0  3  0  0  0  0  0  0
  -16.7330  -28.5710   23.1660 C   0  0  0  0  0  3  0  0  0  0  0  0
  -25.9110  -32.5180   23.8400 C   0  0  0  0  0  3  0  0  0  0  0  0
  -25.5970  -33.9160   24.1780 N   0  0  0  0  0  0  0  0  0  0  0  0
  -25.9160  -34.9760   23.4250 C   0  0  0  0  0  0  0  0  0  0  0  0
  -26.5740  -34.8820   22.3850 O   0  0  0  0  0  0  0  0  0  0  0  0
  -25.0110  -34.0610   24.9880 H   0  0  0  0  0  0  0  0  0  0  0  0
  -24.1780  -36.7700   23.1120 C   0  0  0  0  0  1  0  0  0  0  0  0
  -25.4320  -36.3620   23.8990 C   0  0  0  0  0  3  0  0  0  0  0  0
  -27.5820  -37.2460   24.6940 C   0  0  0  0  0  1  0  0  0  0  0  0
  -26.4600  -37.4200   23.7770 N   0  0  0  0  0  0  0  0  0  0  0  0
  -26.0520  -38.3370   23.9460 H   0  0  0  0  0  0  0  0  0  0  0  0
  -26.4370  -31.7520   25.1160 C   0  0  1  0  0  0  0  0  0  0  0  0
  -25.3520  -31.5170   26.1940 C   0  0  0  0  0  1  0  0  0  0  0  0
  -27.0160  -30.3720   24.7290 C   0  0  0  0  0  1  0  0  0  0  0  0
  -27.5930  -32.5470   25.7650 C   0  0  0  0  0  1  0  0  0  0  0  0
  -29.1980  -21.8390   19.9450 C   0  0  0  0  0  2  0  0  0  0  0  0
  -28.7110  -20.3660   20.2840 N   0  0  0  0  0  4  0  0  0  0  0  0
  -28.0070  -20.4920   20.9940 H   0  0  0  0  0  0  0  0  0  0  0  0
  -28.1930  -20.0650   19.4730 H   0  0  0  0  0  0  0  0  0  0  0  0
  -29.5370  -19.0910   20.7720 C   0  0  0  0  0  2  0  0  0  0  0  0
  -29.6640  -17.6290   19.9270 C   0  0  0  0  0  2  0  0  0  0  0  0
  -30.4930  -14.9850   20.2720 C   0  0  0  0  0  0  0  0  0  0  0  0
  -30.3740  -12.6280   19.3510 C   0  0  0  0  0  2  0  0  0  0  0  0
  -29.4380  -12.6010   18.1210 C   0  0  0  0  0  2  0  0  0  0  0  0
  -27.9730  -12.3950   18.5500 C   0  0  0  0  0  2  0  0  0  0  0  0
  -27.5780  -13.3070   19.7410 C   0  0  0  0  0  3  0  0  0  0  0  0
  -28.6380  -13.3010   20.8660 C   0  0  0  0  0  2  0  0  0  0  0  0
  -29.9140  -13.7150   20.2650 N   0  0  0  0  0  0  0  0  0  0  0  0
  -31.6610  -15.0730   19.8800 O   0  0  0  0  0  0  0  0  0  0  0  0
  -29.7110  -16.1500   20.5200 N   0  0  0  0  0  0  0  0  0  0  0  0
  -28.8400  -15.8980   20.9660 H   0  0  0  0  0  0  0  0  0  0  0  0
  -25.2030  -13.8890   20.4890 C   0  0  0  0  0  0  0  0  0  0  0  0
  -24.1390  -13.1150   20.8660 C   0  0  0  0  0  0  0  0  0  0  0  0
  -24.6000  -11.7630   20.8280 C   0  0  0  0  0  0  0  0  0  0  0  0
  -26.2410  -13.0090   20.2410 N   0  0  0  0  0  0  0  0  0  0  0  0
  -25.8880  -11.7240   20.5090 N   0  0  0  0  0  0  0  0  0  0  0  0
  -23.8690  -10.5010   21.0150 C   0  0  0  0  0  0  0  0  0  0  0  0
  -24.3120   -9.5200   21.9310 C   0  0  0  0  0  3  0  0  0  0  0  0
  -23.5820   -8.3250   22.1090 C   0  0  0  0  0  3  0  0  0  0  0  0
  -22.3930   -8.1030   21.3710 C   0  0  0  0  0  0  0  0  0  0  0  0
  -21.9700   -9.0740   20.4460 C   0  0  0  0  0  3  0  0  0  0  0  0
  -22.7020  -10.2600   20.2640 C   0  0  0  0  0  3  0  0  0  0  0  0
  -21.6340   -6.9620   21.4600 O   0  0  0  0  0  0  0  0  0  0  0  0
  -21.6130   -6.1980   22.6010 C   0  0  0  0  0  0  0  0  0  0  0  0
  -21.2400   -6.7360   23.8520 C   0  0  0  0  0  3  0  0  0  0  0  0
  -21.1620   -5.9010   24.9840 C   0  0  0  0  0  3  0  0  0  0  0  0
  -21.4530   -4.5270   24.8650 C   0  0  0  0  0  0  0  0  0  0  0  0
  -21.8200   -3.9880   23.6210 C   0  0  0  0  0  3  0  0  0  0  0  0
  -21.8980   -4.8220   22.4910 C   0  0  0  0  0  0  0  0  0  0  0  0
  -22.2310   -4.2940   21.2890 F   0  0  0  0  0  0  0  0  0  0  0  0
  -21.3710   -3.7230   25.9500 F   0  0  0  0  0  0  0  0  0  0  0  0
  -22.7450  -13.5950   21.1460 C   0  0  0  0  0  0  0  0  0  0  0  0
  -22.0190  -12.9010   22.0150 N   0  0  0  0  0  0  0  0  0  0  0  0
  -22.3100  -14.6220   20.6310 O   0  0  0  0  0  0  0  0  0  0  0  0
  -22.3820  -12.0700   22.4580 H   0  0  0  0  0  0  0  0  0  0  0  0
  -21.0840  -13.2090   22.2400 H   0  0  0  0  0  0  0  0  0  0  0  0
  -25.3710  -15.2600   20.3090 N   0  0  0  0  0  0  0  0  0  0  0  0
  -24.6090  -15.9210   20.4100 H   0  0  0  0  0  0  0  0  0  0  0  0
  -26.2050  -15.6790   19.9130 H   0  0  0  0  0  0  0  0  0  0  0  0
  3  1  1  1
  3  2  1  0
  5  4  1  0
  5  6  1  0
  5  3  1  0
  7 18  2  0
  8  6  1  0
  8 13  1  0
  9 17  1  0
  9 19  1  0
 10 16  1  0
 10 12  1  0
 11 17  1  0
 12 11  1  0
 13 12  2  0
 14  8  2  0
 15 14  1  0
 15 10  2  0
 16  9  1  0
 17  7  1  0
 19 21  2  0
 20 19  1  0
 22 20  1  0
 23 32  2  0
 23 28  1  0
 24 20  1  0
 24 28  1  0
 25 24  1  0
 26 27  1  0
 26 25  1  0
 27 23  1  0
 28 29  2  0
 29 30  1  0
 31 30  2  0
 32 31  1  0
 33  7  1  0
 33 34  1  0
 33 43  1  0
 34 37  1  0
 35 39  1  0
 35 34  1  0
 36 35  2  0
 39 38  1  0
 41 39  1  0
 41 42  1  0
 41 40  1  0
 43 46  1  1
 43 44  1  0
 45 43  1  0
 47 48  1  0
 47  3  1  0
 48 51  1  0
 48 49  1  0
 50 48  1  0
 52 61  1  0
 52 51  1  0
 53 61  1  0
 54 59  1  0
 55 56  1  0
 55 54  1  0
 57 56  1  0
 57 66  1  0
 57 58  1  0
 59 53  1  0
 59 58  1  0
 60 53  2  0
 61 62  1  0
 63 64  2  0
 64 83  1  0
 65 64  1  0
 65 68  1  0
 66 63  1  0
 66 67  1  0
 67 65  2  0
 68 69  1  0
 69 70  2  0
 71 74  1  0
 71 70  1  0
 72 71  2  0
 73 72  1  0
 73 68  2  0
 74 75  1  0
 75 76  1  0
 76 77  2  0
 78 77  1  0
 78 82  1  0
 79 78  2  0
 80 75  2  0
 80 79  1  0
 81 80  1  0
 83 84  1  0
 84 87  1  0
 84 86  1  0
 85 83  2  0
 88 89  1  0
 88 63  1  0
 90 88  1  0
M  ISO  4   5 101   6 101  53 100  61 100
M  END
>  <TORSDO>  (60) 
F 21

>  <SCORE>  (60) 
-14.281

>  <name>  (60) 
59

>  <ligand_id>  (60) 
59

>  <original_smiles>  (60) 
[H]c1c([H])c([H])c2c(c1[H])C([H])([H])C([H])([H])C([H])([H])C2([H])N([H])C(=O)C1([H])N(C(=O)C([H])(N([H])C(=O)C([H])(N([H])C([H])([H])[H])C([H])([H])[H])C(C([H])([H])[H])(C([H])([H])[H])C([H])([H])[H])C([H])([H])c2c([H])c(OC([H])(C([H])([H])[H])C(C([H])([H])[H])(C([H])([H])[H])C([H])([H])[N+]([H])([H])C([H])([H])C([H])([H])N([H])C(=O)N3C([H])([H])C([H])([H])C([H])([H])C([H])(n4nc(-c5c([H])c([H])c(Oc6c([H])c([H])c(F)c([H])c6F)c([H])c5[H])c(C(=O)N([H])[H])c4N([H])[H])C3([H])[H])c([H])c([H])c2C1([H])[H]

>  <smiles>  (60) 
[H]c1c([H])c([H])c2c(c1[H])C([H])([H])C([H])([H])C([H])([H])C2([H])N([H])C(=O)C1([H])N(C(=O)C([H])(N([H])C(=O)C([H])(N([H])C([H])([H])[H])C([H])([H])[H])C(C([H])([H])[H])(C([H])([H])[H])C([H])([H])[H])C([H])([H])c2c([H])c(OC([H])(C([H])([H])[H])C(C([H])([H])[H])(C([H])([H])[H])C([H])([H])[N+]([H])([H])C([H])([H])C([H])([H])N([H])C(=O)N3C([H])([H])C([H])([H])C([H])([H])C([H])(n4nc(-c5c([H])c([H])c(Oc6c([H])c([H])c(F)c([H])c6F)c([H])c5[H])c(C(=O)N([H])[H])c4N([H])[H])C3([H])[H])c([H])c([H])c2C1([H])[H]

$$$$
60:0:0
     RDKit          3D

 93101  0  0  1  0  0  0  0  0999 V2000
  -29.3610  -22.5000   19.9890 C   0  0  0  0  0  3  0  0  0  0  0  0
  -31.5040  -18.7910   20.8170 C   0  0  0  0  0  2  0  0  0  0  0  0
  -29.5640  -18.0670   19.6450 C   0  0  0  0  0  2  0  0  0  0  0  0
  -30.9080  -20.3030   20.8860 C   0  0  0  0  0  2  0  0  0  0  0  0
  -28.9480  -19.5900   19.7090 C   0  0  0  0  0  2  0  0  0  0  0  0
  -30.5360  -17.5220   20.8020 C   0  0  0  0  0  3  0  0  0  0  0  0
  -29.9160  -20.8750   19.7640 C   0  0  0  0  0  3  0  0  0  0  0  0
  -31.2620  -15.9940   20.7040 C   0  0  0  0  0  0  0  0  0  0  0  0
  -31.1950  -13.5470   20.0030 C   0  0  0  0  0  2  0  0  0  0  0  0
  -30.4160  -13.4050   18.6730 C   0  0  0  0  0  2  0  0  0  0  0  0
  -28.9070  -13.2590   18.9430 C   0  0  0  0  0  2  0  0  0  0  0  0
  -28.3930  -14.2970   19.9750 C   0  0  0  0  0  3  0  0  0  0  0  0
  -29.3070  -14.4020   21.2120 C   0  0  0  0  0  2  0  0  0  0  0  0
  -30.6530  -14.7340   20.7350 N   0  0  0  0  0  0  0  0  0  0  0  0
  -32.4840  -15.9680   20.5130 O   0  0  0  0  0  0  0  0  0  0  0  0
  -26.0040  -15.0030   20.5470 C   0  0  0  0  0  0  0  0  0  0  0  0
  -24.8600  -14.2900   20.7740 C   0  0  0  0  0  0  0  0  0  0  0  0
  -25.2300  -12.9130   20.7010 C   0  0  0  0  0  0  0  0  0  0  0  0
  -27.0010  -14.0660   20.3410 N   0  0  0  0  0  0  0  0  0  0  0  0
  -26.5390  -12.7980   20.5010 N   0  0  0  0  0  0  0  0  0  0  0  0
  -24.4040  -11.7000   20.7500 C   0  0  0  0  0  0  0  0  0  0  0  0
  -24.7640  -10.5860   21.5410 C   0  0  0  0  0  3  0  0  0  0  0  0
  -23.9400   -9.4420   21.5850 C   0  0  0  0  0  3  0  0  0  0  0  0
  -22.7380   -9.4030   20.8370 C   0  0  0  0  0  0  0  0  0  0  0  0
  -22.3960  -10.5040   20.0330 C   0  0  0  0  0  3  0  0  0  0  0  0
  -23.2200  -11.6400   19.9860 C   0  0  0  0  0  3  0  0  0  0  0  0
  -21.8880   -8.3240   20.8000 O   0  0  0  0  0  0  0  0  0  0  0  0
  -21.8450   -7.4070   21.8190 C   0  0  0  0  0  0  0  0  0  0  0  0
  -21.5330   -7.7810   23.1450 C   0  0  0  0  0  3  0  0  0  0  0  0
  -21.4290   -6.7960   24.1480 C   0  0  0  0  0  3  0  0  0  0  0  0
  -21.6280   -5.4400   23.8270 C   0  0  0  0  0  0  0  0  0  0  0  0
  -21.9310   -5.0660   22.5060 C   0  0  0  0  0  3  0  0  0  0  0  0
  -22.0350   -6.0470   21.5050 C   0  0  0  0  0  0  0  0  0  0  0  0
  -22.3080   -5.6780   20.2290 F   0  0  0  0  0  0  0  0  0  0  0  0
  -21.5210   -4.4930   24.7880 F   0  0  0  0  0  0  0  0  0  0  0  0
  -23.4810  -14.8560   20.9520 C   0  0  0  0  0  0  0  0  0  0  0  0
  -22.6280  -14.1670   21.7010 N   0  0  0  0  0  0  0  0  0  0  0  0
  -23.1680  -15.9420   20.4640 O   0  0  0  0  0  0  0  0  0  0  0  0
  -22.8890  -13.2850   22.1160 H   0  0  0  0  0  0  0  0  0  0  0  0
  -21.6990  -14.5300   21.8640 H   0  0  0  0  0  0  0  0  0  0  0  0
  -26.2800  -16.3660   20.4730 N   0  0  0  0  0  0  0  0  0  0  0  0
  -25.5550  -17.0700   20.5620 H   0  0  0  0  0  0  0  0  0  0  0  0
  -27.1900  -16.7580   20.2680 H   0  0  0  0  0  0  0  0  0  0  0  0
  -28.5590  -22.5240   21.2400 N   0  0  0  0  0  4  0  0  0  0  0  0
  -28.1120  -21.6340   21.3920 H   0  0  0  0  0  0  0  0  0  0  0  0
  -29.2090  -22.6650   21.9960 H   0  0  0  0  0  0  0  0  0  0  0  0
  -27.5720  -23.6280   21.3600 C   0  0  0  0  0  2  0  0  0  0  0  0
  -26.1380  -23.1880   23.4500 C   0  0  0  0  0  1  0  0  0  0  0  0
  -28.5390  -24.0210   23.7050 C   0  0  0  0  0  1  0  0  0  0  0  0
  -27.2750  -24.0120   22.8250 C   0  0  0  0  0  3  0  0  0  0  0  0
  -28.7910  -23.6810   18.8710 C   0  0  0  0  0  3  0  0  0  0  0  0
  -27.9860  -25.1640   19.2120 C   0  0  0  0  0  3  0  0  0  0  0  0
  -27.7540  -26.4790   18.3690 O   0  0  0  0  0  0  0  0  0  0  0  0
  -24.4330  -31.4950   22.7310 C   0  0  0  0  0  0  0  0  0  0  0  0
  -26.7040  -27.4390   18.6510 C   0  0  0  0  0  0  0  0  0  0  0  0
  -23.0820  -30.3940   20.9880 C   0  0  0  0  0  3  0  0  0  0  0  0
  -24.3850  -29.1340   19.1640 C   0  0  0  0  0  0  0  0  0  0  0  0
  -25.6080  -30.7370   20.6230 C   0  0  0  0  0  2  0  0  0  0  0  0
  -25.6210  -29.4840   19.7230 C   0  0  0  0  0  0  0  0  0  0  0  0
  -26.7810  -28.6610   19.4430 C   0  0  0  0  0  3  0  0  0  0  0  0
  -25.4370  -27.2030   18.0770 C   0  0  0  0  0  3  0  0  0  0  0  0
  -24.3070  -28.0130   18.3230 C   0  0  0  0  0  3  0  0  0  0  0  0
  -23.1680  -29.9840   19.4940 C   0  0  0  0  0  2  0  0  0  0  0  0
  -24.4010  -30.8890   21.5020 N   0  0  0  0  0  0  0  0  0  0  0  0
  -23.4040  -31.6520   23.4040 O   0  0  0  0  0  0  0  0  0  0  0  0
  -22.5050  -29.2140   21.8120 C   0  0  0  0  0  0  0  0  0  0  0  0
  -21.1810  -28.9890   21.7230 N   0  0  0  0  0  0  0  0  0  0  0  0
  -23.2500  -28.5100   22.4980 O   0  0  0  0  0  0  0  0  0  0  0  0
  -20.6310  -29.6200   21.1550 H   0  0  0  0  0  0  0  0  0  0  0  0
  -17.9080  -27.4840   22.1230 C   0  0  0  0  0  0  0  0  0  0  0  0
  -20.4490  -27.8980   22.3730 C   0  0  0  0  0  3  0  0  0  0  0  0
  -20.6350  -26.5670   21.6060 C   0  0  0  0  0  2  0  0  0  0  0  0
  -19.5280  -26.3030   20.5800 C   0  0  0  0  0  2  0  0  0  0  0  0
  -18.1590  -26.2570   21.2640 C   0  0  0  0  0  2  0  0  0  0  0  0
  -18.9830  -28.2630   22.6310 C   0  0  0  0  0  0  0  0  0  0  0  0
  -18.6910  -29.4120   23.3970 C   0  0  0  0  0  3  0  0  0  0  0  0
  -17.3580  -29.7850   23.6590 C   0  0  0  0  0  3  0  0  0  0  0  0
  -16.3000  -29.0010   23.1670 C   0  0  0  0  0  3  0  0  0  0  0  0
  -16.5760  -27.8530   22.4050 C   0  0  0  0  0  3  0  0  0  0  0  0
  -25.7630  -32.0380   23.3380 C   0  0  0  0  0  3  0  0  0  0  0  0
  -25.4780  -33.3420   23.9600 N   0  0  0  0  0  0  0  0  0  0  0  0
  -25.8080  -34.5280   23.4360 C   0  0  0  0  0  0  0  0  0  0  0  0
  -26.4540  -34.6390   22.3900 O   0  0  0  0  0  0  0  0  0  0  0  0
  -24.9060  -33.3290   24.7930 H   0  0  0  0  0  0  0  0  0  0  0  0
  -24.1200  -36.3920   23.5000 C   0  0  0  0  0  1  0  0  0  0  0  0
  -25.3560  -35.7940   24.1910 C   0  0  0  0  0  3  0  0  0  0  0  0
  -27.5090  -36.4380   25.1800 C   0  0  0  0  0  1  0  0  0  0  0  0
  -26.4110  -36.8250   24.3000 N   0  0  0  0  0  0  0  0  0  0  0  0
  -26.0220  -37.7000   24.6440 H   0  0  0  0  0  0  0  0  0  0  0  0
  -26.4070  -31.0570   24.3940 C   0  0  1  0  0  0  0  0  0  0  0  0
  -25.4270  -30.5990   25.4990 C   0  0  0  0  0  1  0  0  0  0  0  0
  -26.9570  -29.7910   23.7010 C   0  0  0  0  0  1  0  0  0  0  0  0
  -27.6140  -31.7420   25.0760 C   0  0  0  0  0  1  0  0  0  0  0  0
  1 51  1  0
  1 44  1  0
  2  4  1  0
  3  5  1  0
  3  6  1  0
  5  7  1  0
  6  8  1  0
  6  2  1  0
  7  1  1  0
  7  4  1  0
  8 14  1  0
  9 14  1  0
 10 11  1  0
 10  9  1  0
 12 11  1  0
 12 19  1  0
 12 13  1  0
 14 13  1  0
 15  8  2  0
 16 17  2  0
 17 36  1  0
 18 21  1  0
 18 17  1  0
 19 20  1  0
 19 16  1  0
 20 18  2  0
 21 22  1  0
 22 23  2  0
 24 23  1  0
 25 24  2  0
 26 25  1  0
 26 21  2  0
 27 24  1  0
 27 28  1  0
 28 29  1  0
 29 30  2  0
 31 30  1  0
 31 35  1  0
 32 31  2  0
 33 28  2  0
 33 32  1  0
 34 33  1  0
 36 37  1  0
 37 40  1  0
 37 39  1  0
 38 36  2  0
 41 16  1  0
 41 42  1  0
 43 41  1  0
 44 47  1  0
 44 45  1  0
 44 46  1  0
 47 50  1  0
 50 48  1  0
 50 49  1  0
 51 52  2  0
 53 55  1  0
 53 52  1  0
 54 65  2  0
 55 60  1  0
 56 64  1  0
 56 66  1  0
 57 63  1  0
 57 59  1  0
 58 64  1  0
 59 58  1  0
 60 59  2  0
 61 62  1  0
 61 55  2  0
 62 57  2  0
 63 56  1  0
 64 54  1  0
 66 68  2  0
 67 66  1  0
 69 67  1  0
 70 79  2  0
 70 75  1  0
 71 67  1  0
 71 75  1  0
 72 71  1  0
 73 74  1  0
 73 72  1  0
 74 70  1  0
 75 76  2  0
 76 77  1  0
 78 77  2  0
 79 78  1  0
 80 54  1  0
 80 81  1  0
 80 90  1  0
 81 84  1  0
 82 81  1  0
 82 86  1  0
 83 82  2  0
 86 85  1  0
 86 88  1  0
 88 89  1  0
 88 87  1  0
 90 93  1  1
 90 91  1  0
 92 90  1  0
M  ISO  4   6 100   8 100  52 101  53 101
M  END
>  <TORSDO>  (61) 
F 22

>  <SCORE>  (61) 
-4.828

>  <name>  (61) 
60

>  <ligand_id>  (61) 
60

>  <original_smiles>  (61) 
[H]c1c([H])c([H])c2c(c1[H])C([H])([H])C([H])([H])C([H])([H])C2([H])N([H])C(=O)C1([H])N(C(=O)C([H])(N([H])C(=O)C([H])(N([H])C([H])([H])[H])C([H])([H])[H])C(C([H])([H])[H])(C([H])([H])[H])C([H])([H])[H])C([H])([H])c2c([H])c(OC([H])([H])C([H])([H])C([H])(C3([H])C([H])([H])C([H])([H])C([H])(C(=O)N4C([H])([H])C([H])([H])C([H])([H])C([H])(n5nc(-c6c([H])c([H])c(Oc7c([H])c([H])c(F)c([H])c7F)c([H])c6[H])c(C(=O)N([H])[H])c5N([H])[H])C4([H])[H])C([H])([H])C3([H])[H])[N+]([H])([H])C([H])([H])C([H])(C([H])([H])[H])C([H])([H])[H])c([H])c([H])c2C1([H])[H]

>  <smiles>  (61) 
[H]c1c([H])c([H])c2c(c1[H])C([H])([H])C([H])([H])C([H])([H])C2([H])N([H])C(=O)C1([H])N(C(=O)C([H])(N([H])C(=O)C([H])(N([H])C([H])([H])[H])C([H])([H])[H])C(C([H])([H])[H])(C([H])([H])[H])C([H])([H])[H])C([H])([H])c2c([H])c(OC([H])([H])C([H])([H])C([H])(C3([H])C([H])([H])C([H])([H])C([H])(C(=O)N4C([H])([H])C([H])([H])C([H])([H])C([H])(n5nc(-c6c([H])c([H])c(Oc7c([H])c([H])c(F)c([H])c7F)c([H])c6[H])c(C(=O)N([H])[H])c5N([H])[H])C4([H])[H])C([H])([H])C3([H])[H])[N+]([H])([H])C([H])([H])C([H])(C([H])([H])[H])C([H])([H])[H])c([H])c([H])c2C1([H])[H]

$$$$
61:0:0
     RDKit          3D

 94102  0  0  1  0  0  0  0  0999 V2000
  -29.9930  -21.1380   19.7080 C   0  0  0  0  0  2  0  0  0  0  0  0
  -28.5970  -18.1870   17.6190 C   0  0  0  0  0  3  0  0  0  0  0  0
  -27.9600  -18.9260   16.6140 C   0  0  0  0  0  3  0  0  0  0  0  0
  -28.6160  -20.9030   17.5730 C   0  0  0  0  0  3  0  0  0  0  0  0
  -29.2920  -18.8340   18.6720 C   0  0  0  0  0  0  0  0  0  0  0  0
  -29.2960  -20.2660   18.6420 C   0  0  0  0  0  0  0  0  0  0  0  0
  -27.9710  -20.2660   16.5830 N   0  0  0  0  0  0  0  0  0  0  0  0
  -29.9960  -17.9790   19.7630 C   0  0  0  0  0  2  0  0  0  0  0  0
  -29.4910  -16.4980   19.7660 C   0  0  0  0  0  2  0  0  0  0  0  0
  -30.6770  -14.4840   20.4550 C   0  0  0  0  0  0  0  0  0  0  0  0
  -30.3530  -12.3060   19.3670 C   0  0  0  0  0  2  0  0  0  0  0  0
  -29.4370  -12.5390   18.1450 C   0  0  0  0  0  2  0  0  0  0  0  0
  -27.9520  -12.4330   18.5480 C   0  0  0  0  0  2  0  0  0  0  0  0
  -27.6170  -13.2590   19.8210 C   0  0  0  0  0  3  0  0  0  0  0  0
  -28.6640  -13.0350   20.9400 C   0  0  0  0  0  2  0  0  0  0  0  0
  -30.0010  -13.3010   20.3900 N   0  0  0  0  0  0  0  0  0  0  0  0
  -31.7990  -14.6500   19.9740 O   0  0  0  0  0  0  0  0  0  0  0  0
  -29.9290  -15.5450   20.8070 N   0  0  0  0  0  0  0  0  0  0  0  0
  -29.1940  -15.3050   21.4560 H   0  0  0  0  0  0  0  0  0  0  0  0
  -25.2150  -13.8910   20.5240 C   0  0  0  0  0  0  0  0  0  0  0  0
  -24.1410  -13.1270   20.8980 C   0  0  0  0  0  0  0  0  0  0  0  0
  -24.5940  -11.7720   20.8670 C   0  0  0  0  0  0  0  0  0  0  0  0
  -26.2550  -13.0000   20.2950 N   0  0  0  0  0  0  0  0  0  0  0  0
  -25.8840  -11.7220   20.5650 N   0  0  0  0  0  0  0  0  0  0  0  0
  -23.8590  -10.5160   21.0620 C   0  0  0  0  0  0  0  0  0  0  0  0
  -24.2930   -9.5440   21.9890 C   0  0  0  0  0  3  0  0  0  0  0  0
  -23.5600   -8.3510   22.1710 C   0  0  0  0  0  3  0  0  0  0  0  0
  -22.3760   -8.1230   21.4270 C   0  0  0  0  0  0  0  0  0  0  0  0
  -21.9630   -9.0870   20.4890 C   0  0  0  0  0  3  0  0  0  0  0  0
  -22.6970  -10.2690   20.3060 C   0  0  0  0  0  3  0  0  0  0  0  0
  -21.6120   -6.9850   21.5190 O   0  0  0  0  0  0  0  0  0  0  0  0
  -21.5770   -6.2320   22.6650 C   0  0  0  0  0  0  0  0  0  0  0  0
  -21.1820   -6.7790   23.9060 C   0  0  0  0  0  3  0  0  0  0  0  0
  -21.0900   -5.9520   25.0440 C   0  0  0  0  0  3  0  0  0  0  0  0
  -21.3850   -4.5800   24.9420 C   0  0  0  0  0  0  0  0  0  0  0  0
  -21.7690   -4.0320   23.7050 C   0  0  0  0  0  3  0  0  0  0  0  0
  -21.8610   -4.8540   22.5690 C   0  0  0  0  0  0  0  0  0  0  0  0
  -22.2130   -4.3150   21.3760 F   0  0  0  0  0  0  0  0  0  0  0  0
  -21.2910   -3.7820   26.0320 F   0  0  0  0  0  0  0  0  0  0  0  0
  -22.7450  -13.6160   21.1720 C   0  0  0  0  0  0  0  0  0  0  0  0
  -22.0100  -12.9260   22.0360 N   0  0  0  0  0  0  0  0  0  0  0  0
  -22.3150  -14.6440   20.6550 O   0  0  0  0  0  0  0  0  0  0  0  0
  -22.3720  -12.0950   22.4810 H   0  0  0  0  0  0  0  0  0  0  0  0
  -21.0760  -13.2370   22.2640 H   0  0  0  0  0  0  0  0  0  0  0  0
  -25.3920  -15.2590   20.3430 N   0  0  0  0  0  0  0  0  0  0  0  0
  -24.6270  -15.9160   20.4530 H   0  0  0  0  0  0  0  0  0  0  0  0
  -26.2460  -15.6990   20.0210 H   0  0  0  0  0  0  0  0  0  0  0  0
  -29.9030  -22.6720   19.4330 C   0  0  0  0  0  2  0  0  0  0  0  0
  -30.4490  -23.6070   20.5130 C   0  0  0  0  0  0  0  0  0  0  0  0
  -30.4820  -23.2780   21.7020 O   0  0  0  0  0  0  0  0  0  0  0  0
  -30.9480  -24.9770   20.0340 C   0  0  0  0  0  2  0  0  0  0  0  0
  -30.6730  -26.1650   20.9900 C   0  0  0  0  0  2  0  0  0  0  0  0
  -29.6910  -27.2180   20.4310 C   0  0  0  0  0  2  0  0  0  0  0  0
  -28.3890  -26.6590   20.2170 O   0  0  0  0  0  0  0  0  0  0  0  0
  -24.5640  -31.9060   23.2480 C   0  0  0  0  0  0  0  0  0  0  0  0
  -27.2610  -27.4620   20.2400 C   0  0  0  0  0  0  0  0  0  0  0  0
  -23.3630  -30.4860   21.6140 C   0  0  0  0  0  3  0  0  0  0  0  0
  -24.8320  -28.9340   20.2180 C   0  0  0  0  0  0  0  0  0  0  0  0
  -25.8830  -30.8580   21.4160 C   0  0  0  0  0  2  0  0  0  0  0  0
  -25.9800  -29.4790   20.8020 C   0  0  0  0  0  0  0  0  0  0  0  0
  -27.1900  -28.7550   20.8170 C   0  0  0  0  0  3  0  0  0  0  0  0
  -26.0880  -26.9230   19.6670 C   0  0  0  0  0  3  0  0  0  0  0  0
  -24.8790  -27.6500   19.6490 C   0  0  0  0  0  3  0  0  0  0  0  0
  -23.5790  -29.7830   20.2470 C   0  0  0  0  0  2  0  0  0  0  0  0
  -24.6220  -31.0980   22.1540 N   0  0  0  0  0  0  0  0  0  0  0  0
  -23.4820  -32.1840   23.7840 O   0  0  0  0  0  0  0  0  0  0  0  0
  -22.7070  -29.4790   22.5860 C   0  0  0  0  0  0  0  0  0  0  0  0
  -21.3820  -29.3030   22.4570 N   0  0  0  0  0  0  0  0  0  0  0  0
  -23.3870  -28.8560   23.4040 O   0  0  0  0  0  0  0  0  0  0  0  0
  -20.8960  -29.8560   21.7650 H   0  0  0  0  0  0  0  0  0  0  0  0
  -17.9980  -28.1510   22.9680 C   0  0  0  0  0  0  0  0  0  0  0  0
  -20.5590  -28.3780   23.2330 C   0  0  0  0  0  3  0  0  0  0  0  0
  -20.6420  -26.9440   22.6610 C   0  0  0  0  0  2  0  0  0  0  0  0
  -19.5340  -26.6330   21.6500 C   0  0  0  0  0  2  0  0  0  0  0  0
  -18.1550  -26.7980   22.2960 C   0  0  0  0  0  2  0  0  0  0  0  0
  -19.1270  -28.8990   23.3930 C   0  0  0  0  0  0  0  0  0  0  0  0
  -18.9270  -30.1680   23.9790 C   0  0  0  0  0  3  0  0  0  0  0  0
  -17.6300  -30.6880   24.1440 C   0  0  0  0  0  3  0  0  0  0  0  0
  -16.5150  -29.9370   23.7360 C   0  0  0  0  0  3  0  0  0  0  0  0
  -16.7010  -28.6690   23.1540 C   0  0  0  0  0  3  0  0  0  0  0  0
  -25.8490  -32.5400   23.8700 C   0  0  0  0  0  3  0  0  0  0  0  0
  -25.5400  -33.9380   24.1970 N   0  0  0  0  0  0  0  0  0  0  0  0
  -25.8750  -34.9880   23.4340 C   0  0  0  0  0  0  0  0  0  0  0  0
  -26.5490  -34.8820   22.4050 O   0  0  0  0  0  0  0  0  0  0  0  0
  -24.9420  -34.0960   24.9950 H   0  0  0  0  0  0  0  0  0  0  0  0
  -24.1480  -36.7770   23.0630 C   0  0  0  0  0  1  0  0  0  0  0  0
  -25.3840  -36.3770   23.8850 C   0  0  0  0  0  3  0  0  0  0  0  0
  -27.5150  -37.2620   24.7240 C   0  0  0  0  0  1  0  0  0  0  0  0
  -26.4180  -37.4310   23.7740 N   0  0  0  0  0  0  0  0  0  0  0  0
  -26.0100  -38.3500   23.9180 H   0  0  0  0  0  0  0  0  0  0  0  0
  -26.3710  -31.7700   25.1440 C   0  0  1  0  0  0  0  0  0  0  0  0
  -25.2790  -31.5200   26.2110 C   0  0  0  0  0  1  0  0  0  0  0  0
  -26.9650  -30.4000   24.7430 C   0  0  0  0  0  1  0  0  0  0  0  0
  -27.5170  -32.5700   25.8080 C   0  0  0  0  0  1  0  0  0  0  0  0
  2  5  1  0
  3  2  2  0
  4  6  1  0
  5  8  1  0
  6  5  2  0
  6  1  1  0
  7  3  1  0
  7  4  2  0
  8  9  1  0
  9 18  1  0
 10 18  1  0
 11 16  1  0
 12 13  1  0
 12 11  1  0
 14 13  1  0
 14 23  1  0
 14 15  1  0
 16 10  1  0
 16 15  1  0
 17 10  2  0
 18 19  1  0
 20 21  2  0
 21 40  1  0
 22 21  1  0
 22 25  1  0
 23 20  1  0
 23 24  1  0
 24 22  2  0
 25 26  1  0
 26 27  2  0
 28 31  1  0
 28 27  1  0
 29 28  2  0
 30 29  1  0
 30 25  2  0
 31 32  1  0
 32 33  1  0
 33 34  2  0
 35 34  1  0
 35 39  1  0
 36 35  2  0
 37 32  2  0
 37 36  1  0
 38 37  1  0
 40 41  1  0
 41 44  1  0
 41 43  1  0
 42 40  2  0
 45 46  1  0
 45 20  1  0
 47 45  1  0
 48  1  1  0
 48 49  1  0
 49 50  2  0
 51 49  1  0
 51 52  1  0
 53 52  1  0
 54 56  1  0
 54 53  1  0
 55 66  2  0
 56 61  1  0
 57 65  1  0
 57 67  1  0
 58 64  1  0
 58 60  1  0
 59 65  1  0
 60 61  2  0
 60 59  1  0
 62 56  2  0
 63 62  1  0
 63 58  2  0
 64 57  1  0
 65 55  1  0
 67 69  2  0
 68 67  1  0
 70 68  1  0
 71 80  2  0
 71 76  1  0
 72 68  1  0
 72 76  1  0
 73 72  1  0
 74 75  1  0
 74 73  1  0
 75 71  1  0
 76 77  2  0
 77 78  1  0
 79 78  2  0
 80 79  1  0
 81 55  1  0
 81 82  1  0
 81 91  1  0
 82 85  1  0
 83 87  1  0
 83 82  1  0
 84 83  2  0
 87 86  1  0
 89 87  1  0
 89 90  1  0
 89 88  1  0
 91 94  1  1
 91 92  1  0
 93 91  1  0
M  ISO  4  10 100  18 100  53 101  54 101
M  END
>  <TORSDO>  (62) 
F 24

>  <SCORE>  (62) 
-12.779

>  <name>  (62) 
61

>  <ligand_id>  (62) 
61

>  <original_smiles>  (62) 
[H]c1nc([H])c(C([H])([H])C([H])([H])C(=O)C([H])([H])C([H])([H])C([H])([H])Oc2c([H])c([H])c3c(c2[H])C([H])([H])N(C(=O)C([H])(N([H])C(=O)C([H])(N([H])C([H])([H])[H])C([H])([H])[H])C(C([H])([H])[H])(C([H])([H])[H])C([H])([H])[H])C([H])(C(=O)N([H])C2([H])c4c([H])c([H])c([H])c([H])c4C([H])([H])C([H])([H])C2([H])[H])C3([H])[H])c(C([H])([H])C([H])([H])N([H])C(=O)N2C([H])([H])C([H])([H])C([H])([H])C([H])(n3nc(-c4c([H])c([H])c(Oc5c([H])c([H])c(F)c([H])c5F)c([H])c4[H])c(C(=O)N([H])[H])c3N([H])[H])C2([H])[H])c1[H]

>  <smiles>  (62) 
[H]c1nc([H])c(C([H])([H])C([H])([H])C(=O)C([H])([H])C([H])([H])C([H])([H])Oc2c([H])c([H])c3c(c2[H])C([H])([H])N(C(=O)C([H])(N([H])C(=O)C([H])(N([H])C([H])([H])[H])C([H])([H])[H])C(C([H])([H])[H])(C([H])([H])[H])C([H])([H])[H])C([H])(C(=O)N([H])C2([H])c4c([H])c([H])c([H])c([H])c4C([H])([H])C([H])([H])C2([H])[H])C3([H])[H])c(C([H])([H])C([H])([H])N([H])C(=O)N2C([H])([H])C([H])([H])C([H])([H])C([H])(n3nc(-c4c([H])c([H])c(Oc5c([H])c([H])c(F)c([H])c5F)c([H])c4[H])c(C(=O)N([H])[H])c3N([H])[H])C2([H])[H])c1[H]

$$$$
62:0:0
     RDKit          3D

 82 86  0  0  1  0  0  0  0  0999 V2000
  -28.1370  -24.6640   20.2800 O   0  0  0  0  0  1  0  0  0  0  0  0
  -24.7340  -31.8030   23.1520 C   0  0  0  0  0  0  0  0  0  0  0  0
  -27.2260  -26.1590   20.2530 C   0  0  0  0  0  0  0  0  0  0  0  0
  -23.5690  -30.3790   21.5310 C   0  0  0  0  0  3  0  0  0  0  0  0
  -25.0170  -28.5910   20.1720 C   0  0  0  0  0  0  0  0  0  0  0  0
  -26.1690  -30.3340   21.4840 C   0  0  0  0  0  2  0  0  0  0  0  0
  -26.2240  -28.8290   20.8370 C   0  0  0  0  0  0  0  0  0  0  0  0
  -27.2770  -27.6660   20.8260 C   0  0  0  0  0  3  0  0  0  0  0  0
  -25.9790  -26.2970   19.5260 C   0  0  0  0  0  3  0  0  0  0  0  0
  -24.9720  -27.3550   19.4890 C   0  0  0  0  0  3  0  0  0  0  0  0
  -23.8390  -29.6200   20.1890 C   0  0  0  0  0  2  0  0  0  0  0  0
  -24.8570  -30.8880   22.1070 N   0  0  0  0  0  0  0  0  0  0  0  0
  -23.6280  -32.1340   23.6250 O   0  0  0  0  0  0  0  0  0  0  0  0
  -22.7900  -29.4690   22.5260 C   0  0  0  0  0  0  0  0  0  0  0  0
  -21.4500  -29.3540   22.4040 N   0  0  0  0  0  0  0  0  0  0  0  0
  -23.4170  -28.8550   23.3910 O   0  0  0  0  0  0  0  0  0  0  0  0
  -20.9850  -29.8980   21.6910 H   0  0  0  0  0  0  0  0  0  0  0  0
  -18.0430  -28.1630   22.9450 C   0  0  0  0  0  0  0  0  0  0  0  0
  -20.6080  -28.4320   23.1860 C   0  0  0  0  0  3  0  0  0  0  0  0
  -20.6980  -26.9930   22.6240 C   0  0  0  0  0  2  0  0  0  0  0  0
  -19.5930  -26.6710   21.6130 C   0  0  0  0  0  2  0  0  0  0  0  0
  -18.2140  -26.8160   22.2620 C   0  0  0  0  0  2  0  0  0  0  0  0
  -19.1660  -28.9300   23.3620 C   0  0  0  0  0  0  0  0  0  0  0  0
  -18.9450  -30.1830   23.9710 C   0  0  0  0  0  3  0  0  0  0  0  0
  -17.6390  -30.6750   24.1590 C   0  0  0  0  0  3  0  0  0  0  0  0
  -16.5340  -29.9080   23.7510 C   0  0  0  0  0  3  0  0  0  0  0  0
  -16.7360  -28.6540   23.1500 C   0  0  0  0  0  3  0  0  0  0  0  0
  -25.9690  -32.4900   23.8170 C   0  0  0  0  0  3  0  0  0  0  0  0
  -25.6220  -33.8950   24.1490 N   0  0  0  0  0  0  0  0  0  0  0  0
  -25.9300  -34.9760   23.4180 C   0  0  0  0  0  0  0  0  0  0  0  0
  -26.5750  -34.8970   22.3700 O   0  0  0  0  0  0  0  0  0  0  0  0
  -25.0380  -34.0270   24.9630 H   0  0  0  0  0  0  0  0  0  0  0  0
  -24.1650  -36.7690   23.1870 C   0  0  0  0  0  1  0  0  0  0  0  0
  -25.4550  -36.3610   23.9170 C   0  0  0  0  0  3  0  0  0  0  0  0
  -27.6170  -37.2890   24.6380 C   0  0  0  0  0  1  0  0  0  0  0  0
  -26.4650  -37.4330   23.7520 N   0  0  0  0  0  0  0  0  0  0  0  0
  -26.0520  -38.3460   23.9150 H   0  0  0  0  0  0  0  0  0  0  0  0
  -26.4440  -31.7560   25.1340 C   0  0  1  0  0  0  0  0  0  0  0  0
  -25.3190  -31.5450   26.1760 C   0  0  0  0  0  1  0  0  0  0  0  0
  -27.0410  -30.3700   24.8160 C   0  0  0  0  0  1  0  0  0  0  0  0
  -27.5740  -32.5690   25.8090 C   0  0  0  0  0  1  0  0  0  0  0  0
  -28.1770  -22.5590   20.1660 C   0  0  0  0  0 15  0  0  0  0  0  0
  -30.1260  -20.6340   21.3760 C   0  0  0  0  0  1  0  0  0  0  0  0
  -29.1990  -20.4320   20.1740 C   0  0  0  0  0  1  0  0  0  0  0  0
  -29.9420  -16.6970   20.0440 C   0  0  0  0  0  0  0  0  0  0  0  0
  -30.3010  -13.9350   19.2580 C   0  0  0  0  0  2  0  0  0  0  0  0
  -29.5130  -13.0880   18.1740 C   0  0  0  0  0  2  0  0  0  0  0  0
  -28.2060  -12.5100   18.7180 C   0  0  0  0  0  2  0  0  0  0  0  0
  -27.5770  -13.5390   19.6670 C   0  0  0  0  0  3  0  0  0  0  0  0
  -28.5580  -14.2410   20.6770 C   0  0  0  0  0  2  0  0  0  0  0  0
  -29.5240  -15.1680   19.9320 N   0  0  0  0  0  0  0  0  0  0  0  0
  -31.1900  -16.4790   19.9460 O   0  0  0  0  0  0  0  0  0  0  0  0
  -29.2060  -18.3230   20.0940 N   0  0  0  0  0  2  0  0  0  0  0  0
  -28.2220  -18.0840   20.0790 H   0  0  0  0  0  0  0  0  0  0  0  0
  -25.2470  -13.9380   20.5380 C   0  0  0  0  0  0  0  0  0  0  0  0
  -24.2200  -13.1270   20.9200 C   0  0  0  0  0  0  0  0  0  0  0  0
  -24.7160  -11.7890   20.8410 C   0  0  0  0  0  0  0  0  0  0  0  0
  -26.3080  -13.1070   20.2470 N   0  0  0  0  0  0  0  0  0  0  0  0
  -26.0040  -11.7970   20.4800 N   0  0  0  0  0  0  0  0  0  0  0  0
  -24.0070  -10.5110   21.0280 C   0  0  0  0  0  0  0  0  0  0  0  0
  -24.4480   -9.5440   21.9600 C   0  0  0  0  0  3  0  0  0  0  0  0
  -23.7280   -8.3430   22.1460 C   0  0  0  0  0  3  0  0  0  0  0  0
  -22.5510   -8.0970   21.4000 C   0  0  0  0  0  0  0  0  0  0  0  0
  -22.1250   -9.0510   20.4590 C   0  0  0  0  0  3  0  0  0  0  0  0
  -22.8460  -10.2440   20.2730 C   0  0  0  0  0  3  0  0  0  0  0  0
  -21.8040   -6.9470   21.4930 O   0  0  0  0  0  0  0  0  0  0  0  0
  -21.7380   -6.2200   22.6560 C   0  0  0  0  0  0  0  0  0  0  0  0
  -21.2500   -6.7810   23.8570 C   0  0  0  0  0  3  0  0  0  0  0  0
  -21.1340   -5.9820   25.0120 C   0  0  0  0  0  3  0  0  0  0  0  0
  -21.4950   -4.6220   24.9670 C   0  0  0  0  0  0  0  0  0  0  0  0
  -21.9760   -4.0600   23.7710 C   0  0  0  0  0  3  0  0  0  0  0  0
  -22.0930   -4.8570   22.6180 C   0  0  0  0  0  0  0  0  0  0  0  0
  -22.5350   -4.3050   21.4630 F   0  0  0  0  0  0  0  0  0  0  0  0
  -21.3780   -3.8520   26.0750 F   0  0  0  0  0  0  0  0  0  0  0  0
  -22.8250  -13.5770   21.2360 C   0  0  0  0  0  0  0  0  0  0  0  0
  -22.1350  -12.8630   22.1170 N   0  0  0  0  0  0  0  0  0  0  0  0
  -22.3590  -14.6020   20.7400 O   0  0  0  0  0  0  0  0  0  0  0  0
  -22.5290  -12.0350   22.5410 H   0  0  0  0  0  0  0  0  0  0  0  0
  -21.2000  -13.1480   22.3730 H   0  0  0  0  0  0  0  0  0  0  0  0
  -25.3640  -15.3150   20.3750 N   0  0  0  0  0  0  0  0  0  0  0  0
  -24.5810  -15.9440   20.5150 H   0  0  0  0  0  0  0  0  0  0  0  0
  -26.1870  -15.7810   20.0160 H   0  0  0  0  0  0  0  0  0  0  0  0
  2 13  2  0
  3  1  1  0
  3  8  1  0
  4 12  1  0
  4 14  1  0
  5 11  1  0
  5  7  1  0
  6 12  1  0
  7  6  1  0
  8  7  2  0
  9  3  2  0
 10  9  1  0
 10  5  2  0
 11  4  1  0
 12  2  1  0
 14 16  2  0
 15 14  1  0
 17 15  1  0
 18 27  2  0
 18 23  1  0
 19 15  1  0
 19 23  1  0
 20 19  1  0
 21 22  1  0
 21 20  1  0
 22 18  1  0
 23 24  2  0
 24 25  1  0
 26 25  2  0
 27 26  1  0
 28  2  1  0
 28 29  1  0
 28 38  1  0
 29 32  1  0
 30 34  1  0
 30 29  1  0
 31 30  2  0
 34 33  1  0
 36 37  1  0
 36 34  1  0
 36 35  1  0
 38 41  1  1
 38 39  1  0
 40 38  1  0
 44 43  1  0
 45 53  1  0
 46 51  1  0
 47 48  1  0
 47 46  1  0
 49 48  1  0
 49 58  1  0
 49 50  1  0
 51 45  1  0
 51 50  1  0
 52 45  2  0
 54 53  1  0
 55 56  2  0
 56 75  1  0
 57 56  1  0
 57 60  1  0
 58 59  1  0
 58 55  1  0
 59 57  2  0
 60 61  1  0
 61 62  2  0
 63 66  1  0
 63 62  1  0
 64 63  2  0
 65 64  1  0
 65 60  2  0
 66 67  1  0
 67 68  1  0
 68 69  2  0
 70 69  1  0
 70 74  1  0
 71 70  2  0
 72 67  2  0
 72 71  1  0
 73 72  1  0
 75 76  1  0
 76 79  1  0
 76 78  1  0
 77 75  2  0
 80 81  1  0
 80 55  1  0
 82 80  1  0
M  ISO  4   1 101  42 101  45 100  53 100
M  END
>  <TORSDO>  (63) 
F 17

>  <SCORE>  (63) 
-16.272

>  <name>  (63) 
62

>  <ligand_id>  (63) 
62

>  <original_smiles>  (63) 
[H]c1c([H])c([H])c2c(c1[H])C([H])([H])C([H])([H])C([H])([H])C2([H])N([H])C(=O)C1([H])N(C(=O)C([H])(N([H])C(=O)C([H])(N([H])C([H])([H])[H])C([H])([H])[H])C(C([H])([H])[H])(C([H])([H])[H])C([H])([H])[H])C([H])([H])c2c([H])c(OC([H])([H])C([H])(N([H])C(=O)N3C([H])([H])C([H])([H])C([H])([H])C([H])(n4nc(-c5c([H])c([H])c(Oc6c([H])c([H])c(F)c([H])c6F)c([H])c5[H])c(C(=O)N([H])[H])c4N([H])[H])C3([H])[H])C([H])([H])[H])c([H])c([H])c2C1([H])[H]

>  <smiles>  (63) 
[H]c1c([H])c([H])c2c(c1[H])C([H])([H])C([H])([H])C([H])([H])C2([H])N([H])C(=O)C1([H])N(C(=O)C([H])(N([H])C(=O)C([H])(N([H])C([H])([H])[H])C([H])([H])[H])C(C([H])([H])[H])(C([H])([H])[H])C([H])([H])[H])C([H])([H])c2c([H])c(OC([H])([H])C([H])(N([H])C(=O)N3C([H])([H])C([H])([H])C([H])([H])C([H])(n4nc(-c5c([H])c([H])c(Oc6c([H])c([H])c(F)c([H])c6F)c([H])c5[H])c(C(=O)N([H])[H])c4N([H])[H])C3([H])[H])C([H])([H])[H])c([H])c([H])c2C1([H])[H]

$$$$
63:0:0
     RDKit          3D

 92101  0  0  1  0  0  0  0  0999 V2000
  -28.0880  -22.1540   22.3940 C   0  0  0  0  0  2  0  0  0  0  0  0
  -27.2210  -21.8680   21.1520 C   0  0  0  0  0  2  0  0  0  0  0  0
  -29.2890  -23.0690   22.0810 C   0  0  0  0  0  2  0  0  0  0  0  0
  -28.0140  -21.2840   19.9490 C   0  0  0  0  0  2  0  0  0  0  0  0
  -29.6440  -23.1050   20.5760 C   0  0  0  0  0  3  0  0  0  0  0  0
  -29.4820  -21.5280   20.0230 N   0  0  1  0  0  4  0  0  0  0  0  0
  -29.8030  -21.5810   19.0650 H   0  0  0  0  0  0  0  0  0  0  0  0
  -28.9020  -24.6300   19.9210 C   0  0  0  0  0  2  0  0  0  0  0  0
  -28.9500  -26.2340   20.3180 O   0  0  0  0  0  0  0  0  0  0  0  0
  -24.8630  -31.8130   23.3050 C   0  0  0  0  0  0  0  0  0  0  0  0
  -27.8740  -27.2630   20.2160 C   0  0  0  0  0  0  0  0  0  0  0  0
  -23.8430  -30.4280   21.5430 C   0  0  0  0  0  3  0  0  0  0  0  0
  -25.4610  -28.9910   20.1230 C   0  0  0  0  0  0  0  0  0  0  0  0
  -26.3900  -30.8120   21.5350 C   0  0  0  0  0  2  0  0  0  0  0  0
  -26.5870  -29.4410   20.8250 C   0  0  0  0  0  0  0  0  0  0  0  0
  -27.7860  -28.5970   20.8500 C   0  0  0  0  0  3  0  0  0  0  0  0
  -26.7160  -26.9680   19.4580 C   0  0  0  0  0  3  0  0  0  0  0  0
  -25.5500  -27.7780   19.4210 C   0  0  0  0  0  3  0  0  0  0  0  0
  -24.1860  -29.8350   20.1480 C   0  0  0  0  0  2  0  0  0  0  0  0
  -25.0500  -31.0420   22.1870 N   0  0  0  0  0  0  0  0  0  0  0  0
  -23.7330  -32.0090   23.7830 O   0  0  0  0  0  0  0  0  0  0  0  0
  -23.1670  -29.3440   22.4230 C   0  0  0  0  0  0  0  0  0  0  0  0
  -21.8550  -29.1160   22.2370 N   0  0  0  0  0  0  0  0  0  0  0  0
  -23.8330  -28.7090   23.2450 O   0  0  0  0  0  0  0  0  0  0  0  0
  -21.3640  -29.6860   21.5630 H   0  0  0  0  0  0  0  0  0  0  0  0
  -18.5200  -27.7280   22.5760 C   0  0  0  0  0  0  0  0  0  0  0  0
  -21.0580  -28.0920   22.9220 C   0  0  0  0  0  3  0  0  0  0  0  0
  -21.2400  -26.7060   22.2630 C   0  0  0  0  0  2  0  0  0  0  0  0
  -20.1790  -26.4020   21.2000 C   0  0  0  0  0  2  0  0  0  0  0  0
  -18.7770  -26.4390   21.8160 C   0  0  0  0  0  2  0  0  0  0  0  0
  -19.5910  -28.5110   23.0830 C   0  0  0  0  0  0  0  0  0  0  0  0
  -19.2980  -29.7160   23.7570 C   0  0  0  0  0  3  0  0  0  0  0  0
  -17.9670  -30.1410   23.9290 C   0  0  0  0  0  3  0  0  0  0  0  0
  -16.9080  -29.3540   23.4380 C   0  0  0  0  0  3  0  0  0  0  0  0
  -17.1860  -28.1510   22.7660 C   0  0  0  0  0  3  0  0  0  0  0  0
  -26.0590  -32.5050   24.0290 C   0  0  0  0  0  3  0  0  0  0  0  0
  -26.4870  -31.7670   25.3570 C   0  0  1  0  0  0  0  0  0  0  0  0
  -25.3090  -31.4820   26.3190 C   0  0  0  0  0  1  0  0  0  0  0  0
  -27.1740  -30.4200   25.0420 C   0  0  0  0  0  1  0  0  0  0  0  0
  -27.5280  -32.6200   26.1200 C   0  0  0  0  0  1  0  0  0  0  0  0
  -25.6680  -33.8940   24.3270 N   0  0  0  0  0  0  0  0  0  0  0  0
  -26.0060  -34.9610   23.5910 C   0  0  0  0  0  0  0  0  0  0  0  0
  -26.7380  -34.8810   22.6020 O   0  0  0  0  0  0  0  0  0  0  0  0
  -25.0260  -34.0270   25.0940 H   0  0  0  0  0  0  0  0  0  0  0  0
  -24.2230  -36.6840   23.1490 C   0  0  0  0  0  1  0  0  0  0  0  0
  -25.4430  -36.3310   24.0180 C   0  0  0  0  0  3  0  0  0  0  0  0
  -27.4940  -37.3140   24.9420 C   0  0  0  0  0  1  0  0  0  0  0  0
  -26.4340  -37.4280   23.9440 N   0  0  0  0  0  0  0  0  0  0  0  0
  -25.9830  -38.3300   24.0660 H   0  0  0  0  0  0  0  0  0  0  0  0
  -30.1730  -20.0890   20.5730 C   0  0  0  0  0  2  0  0  0  0  0  0
  -30.0630  -19.0160   17.6770 C   0  0  0  0  0  2  0  0  0  0  0  0
  -31.2480  -18.5580   18.5260 C   0  0  0  0  0  2  0  0  0  0  0  0
  -29.2020  -18.2590   18.6800 C   0  0  0  0  0  2  0  0  0  0  0  0
  -30.3040  -18.4760   19.7530 C   0  0  2  0  0  0  0  0  0  0  0  0
  -31.2250  -15.6570   20.2240 C   0  0  0  0  0  0  0  0  0  0  0  0
  -31.1790  -13.1840   19.4300 C   0  0  0  0  0  2  0  0  0  0  0  0
  -30.2840  -12.9710   18.1810 C   0  0  0  0  0  2  0  0  0  0  0  0
  -28.8200  -12.7440   18.5920 C   0  0  0  0  0  2  0  0  0  0  0  0
  -28.3690  -13.7450   19.6830 C   0  0  0  0  0  3  0  0  0  0  0  0
  -29.3890  -13.8890   20.8350 C   0  0  0  0  0  2  0  0  0  0  0  0
  -30.6510  -14.3510   20.2360 N   0  0  0  0  0  0  0  0  0  0  0  0
  -32.4210  -15.6410   19.8950 O   0  0  0  0  0  0  0  0  0  0  0  0
  -30.4810  -16.9340   20.4110 N   0  0  0  0  0  0  0  0  0  0  0  0
  -29.6270  -16.7060   20.9000 H   0  0  0  0  0  0  0  0  0  0  0  0
  -26.0200  -14.3790   20.4390 C   0  0  0  0  0  0  0  0  0  0  0  0
  -24.9220  -13.6360   20.7740 C   0  0  0  0  0  0  0  0  0  0  0  0
  -25.3300  -12.2700   20.6970 C   0  0  0  0  0  0  0  0  0  0  0  0
  -27.0240  -13.4680   20.1680 N   0  0  0  0  0  0  0  0  0  0  0  0
  -26.6210  -12.1900   20.3920 N   0  0  0  0  0  0  0  0  0  0  0  0
  -24.5480  -11.0340   20.8360 C   0  0  0  0  0  0  0  0  0  0  0  0
  -24.9120  -10.0280   21.7580 C   0  0  0  0  0  3  0  0  0  0  0  0
  -24.1300   -8.8590   21.8880 C   0  0  0  0  0  3  0  0  0  0  0  0
  -22.9700   -8.6890   21.0960 C   0  0  0  0  0  0  0  0  0  0  0  0
  -22.6270   -9.6820   20.1620 C   0  0  0  0  0  3  0  0  0  0  0  0
  -23.4090  -10.8420   20.0300 C   0  0  0  0  0  3  0  0  0  0  0  0
  -22.1650   -7.5760   21.1360 O   0  0  0  0  0  0  0  0  0  0  0  0
  -21.9970   -6.8510   22.2880 C   0  0  0  0  0  0  0  0  0  0  0  0
  -21.4890   -7.4350   23.4700 C   0  0  0  0  0  3  0  0  0  0  0  0
  -21.2670   -6.6390   24.6100 C   0  0  0  0  0  3  0  0  0  0  0  0
  -21.5410   -5.2590   24.5710 C   0  0  0  0  0  0  0  0  0  0  0  0
  -22.0410   -4.6740   23.3940 C   0  0  0  0  0  3  0  0  0  0  0  0
  -22.2650   -5.4680   22.2560 C   0  0  0  0  0  0  0  0  0  0  0  0
  -22.7270   -4.8950   21.1180 F   0  0  0  0  0  0  0  0  0  0  0  0
  -21.3220   -4.4910   25.6640 F   0  0  0  0  0  0  0  0  0  0  0  0
  -23.5450  -14.1640   21.0480 C   0  0  0  0  0  0  0  0  0  0  0  0
  -22.7840  -13.4780   21.8940 N   0  0  0  0  0  0  0  0  0  0  0  0
  -23.1530  -15.2190   20.5500 O   0  0  0  0  0  0  0  0  0  0  0  0
  -23.1140  -12.6230   22.3180 H   0  0  0  0  0  0  0  0  0  0  0  0
  -21.8570  -13.8090   22.1190 H   0  0  0  0  0  0  0  0  0  0  0  0
  -26.2450  -15.7460   20.3100 N   0  0  0  0  0  0  0  0  0  0  0  0
  -25.5110  -16.4320   20.4470 H   0  0  0  0  0  0  0  0  0  0  0  0
  -27.1040  -16.1520   19.9630 H   0  0  0  0  0  0  0  0  0  0  0  0
  2  1  1  0
  3  1  1  0
  4  6  1  0
  4  2  1  0
  5  8  1  0
  5  3  1  0
  6 50  1  0
  6  5  1  0
  6  7  1  6
  8  9  1  0
 10 21  2  0
 11  9  1  0
 11 16  1  0
 12 20  1  0
 12 22  1  0
 13 19  1  0
 13 15  1  0
 14 20  1  0
 15 16  2  0
 15 14  1  0
 17 11  2  0
 18 17  1  0
 18 13  2  0
 19 12  1  0
 20 10  1  0
 22 24  2  0
 23 22  1  0
 25 23  1  0
 26 35  2  0
 26 31  1  0
 27 23  1  0
 27 31  1  0
 28 27  1  0
 29 30  1  0
 29 28  1  0
 30 26  1  0
 31 32  2  0
 32 33  1  0
 34 33  2  0
 35 34  1  0
 36 10  1  0
 36 41  1  0
 36 37  1  0
 37 40  1  1
 37 38  1  0
 39 37  1  0
 41 44  1  0
 42 46  1  0
 42 41  1  0
 43 42  2  0
 46 45  1  0
 48 46  1  0
 48 49  1  0
 48 47  1  0
 51 52  1  0
 51 53  1  0
 52 54  1  0
 53 54  1  0
 54 63  1  0
 54 50  1  1
 55 61  1  0
 55 63  1  0
 56 61  1  0
 57 58  1  0
 57 56  1  0
 59 58  1  0
 59 68  1  0
 59 60  1  0
 61 60  1  0
 62 55  2  0
 63 64  1  0
 65 66  2  0
 66 85  1  0
 67 66  1  0
 67 70  1  0
 68 69  1  0
 68 65  1  0
 69 67  2  0
 70 71  1  0
 71 72  2  0
 73 76  1  0
 73 72  1  0
 74 73  2  0
 75 74  1  0
 75 70  2  0
 76 77  1  0
 77 78  1  0
 78 79  2  0
 80 79  1  0
 80 84  1  0
 81 80  2  0
 82 77  2  0
 82 81  1  0
 83 82  1  0
 85 86  1  0
 86 89  1  0
 86 88  1  0
 87 85  2  0
 90 65  1  0
 90 91  1  0
 92 90  1  0
M  ISO  4   8 101   9 101  55 100  63 100
M  END
>  <TORSDO>  (64) 
F 19

>  <SCORE>  (64) 
-14.398

>  <name>  (64) 
63

>  <ligand_id>  (64) 
63

>  <original_smiles>  (64) 
[H]c1c([H])c([H])c2c(c1[H])C([H])([H])C([H])([H])C([H])([H])C2([H])N([H])C(=O)C1([H])N(C(=O)C([H])(N([H])C(=O)C([H])(N([H])C([H])([H])[H])C([H])([H])[H])C(C([H])([H])[H])(C([H])([H])[H])C([H])([H])[H])C([H])([H])c2c([H])c(OC([H])([H])C3([H])C([H])([H])C([H])([H])C([H])([H])C([H])([H])[N+]3([H])C([H])([H])C3(N([H])C(=O)N4C([H])([H])C([H])([H])C([H])([H])C([H])(n5nc(-c6c([H])c([H])c(Oc7c([H])c([H])c(F)c([H])c7F)c([H])c6[H])c(C(=O)N([H])[H])c5N([H])[H])C4([H])[H])C([H])([H])C([H])([H])C3([H])[H])c([H])c([H])c2C1([H])[H]

>  <smiles>  (64) 
[H]c1c([H])c([H])c2c(c1[H])C([H])([H])C([H])([H])C([H])([H])C2([H])N([H])C(=O)C1([H])N(C(=O)C([H])(N([H])C(=O)C([H])(N([H])C([H])([H])[H])C([H])([H])[H])C(C([H])([H])[H])(C([H])([H])[H])C([H])([H])[H])C([H])([H])c2c([H])c(OC([H])([H])C3([H])C([H])([H])C([H])([H])C([H])([H])C([H])([H])[N+]3([H])C([H])([H])C3(N([H])C(=O)N4C([H])([H])C([H])([H])C([H])([H])C([H])(n5nc(-c6c([H])c([H])c(Oc7c([H])c([H])c(F)c([H])c7F)c([H])c6[H])c(C(=O)N([H])[H])c5N([H])[H])C4([H])[H])C([H])([H])C([H])([H])C3([H])[H])c([H])c([H])c2C1([H])[H]

$$$$
64:0:0
     RDKit          3D

 88 95  0  0  1  0  0  0  0  0999 V2000
  -28.5750  -21.6870   19.8270 C   0  0  0  0  0  2  0  0  0  0  0  0
  -29.1090  -23.1920   21.8470 C   0  0  0  0  0  1  0  0  0  0  0  0
  -28.8960  -23.2710   20.3310 C   0  0  0  0  0  3  0  0  0  0  0  0
  -27.9480  -24.6340   19.9800 C   0  0  0  0  0  2  0  0  0  0  0  0
  -28.2200  -26.1530   20.2620 O   0  0  0  0  0  0  0  0  0  0  0  0
  -24.5870  -31.8970   23.1890 C   0  0  0  0  0  0  0  0  0  0  0  0
  -27.1730  -27.1490   20.1920 C   0  0  0  0  0  0  0  0  0  0  0  0
  -23.3950  -30.4990   21.5530 C   0  0  0  0  0  3  0  0  0  0  0  0
  -24.8460  -28.9040   20.1560 C   0  0  0  0  0  0  0  0  0  0  0  0
  -25.9540  -30.7450   21.4060 C   0  0  0  0  0  2  0  0  0  0  0  0
  -26.0270  -29.3480   20.7630 C   0  0  0  0  0  0  0  0  0  0  0  0
  -27.1960  -28.4880   20.7580 C   0  0  0  0  0  3  0  0  0  0  0  0
  -25.9650  -26.8090   19.5440 C   0  0  0  0  0  3  0  0  0  0  0  0
  -24.8270  -27.6440   19.5370 C   0  0  0  0  0  3  0  0  0  0  0  0
  -23.6230  -29.8100   20.1840 C   0  0  0  0  0  2  0  0  0  0  0  0
  -24.6660  -31.0690   22.1030 N   0  0  0  0  0  0  0  0  0  0  0  0
  -23.4980  -32.1860   23.7090 O   0  0  0  0  0  0  0  0  0  0  0  0
  -22.7030  -29.5000   22.5130 C   0  0  0  0  0  0  0  0  0  0  0  0
  -21.3730  -29.3400   22.3840 N   0  0  0  0  0  0  0  0  0  0  0  0
  -23.3670  -28.8680   23.3400 O   0  0  0  0  0  0  0  0  0  0  0  0
  -20.8880  -29.9000   21.6960 H   0  0  0  0  0  0  0  0  0  0  0  0
  -17.9790  -28.1970   22.9260 C   0  0  0  0  0  0  0  0  0  0  0  0
  -20.5450  -28.4140   23.1630 C   0  0  0  0  0  3  0  0  0  0  0  0
  -20.6110  -26.9830   22.5810 C   0  0  0  0  0  2  0  0  0  0  0  0
  -19.4910  -26.6840   21.5780 C   0  0  0  0  0  2  0  0  0  0  0  0
  -18.1200  -26.8480   22.2400 C   0  0  0  0  0  2  0  0  0  0  0  0
  -19.1160  -28.9360   23.3480 C   0  0  0  0  0  0  0  0  0  0  0  0
  -18.9250  -30.1950   23.9570 C   0  0  0  0  0  3  0  0  0  0  0  0
  -17.6330  -30.7180   24.1450 C   0  0  0  0  0  3  0  0  0  0  0  0
  -16.5110  -29.9770   23.7350 C   0  0  0  0  0  3  0  0  0  0  0  0
  -16.6840  -28.7190   23.1330 C   0  0  0  0  0  3  0  0  0  0  0  0
  -25.8600  -32.5390   23.8210 C   0  0  0  0  0  3  0  0  0  0  0  0
  -25.5410  -33.9360   24.1610 N   0  0  0  0  0  0  0  0  0  0  0  0
  -25.8650  -34.9960   23.4080 C   0  0  0  0  0  0  0  0  0  0  0  0
  -26.5320  -34.9020   22.3730 O   0  0  0  0  0  0  0  0  0  0  0  0
  -24.9440  -34.0830   24.9630 H   0  0  0  0  0  0  0  0  0  0  0  0
  -24.1370  -36.7960   23.0630 C   0  0  0  0  0  1  0  0  0  0  0  0
  -25.3760  -36.3820   23.8730 C   0  0  0  0  0  3  0  0  0  0  0  0
  -27.5020  -37.2720   24.7250 C   0  0  0  0  0  1  0  0  0  0  0  0
  -26.4100  -37.4370   23.7700 N   0  0  0  0  0  0  0  0  0  0  0  0
  -26.0000  -38.3580   23.9080 H   0  0  0  0  0  0  0  0  0  0  0  0
  -26.3660  -31.7660   25.1010 C   0  0  1  0  0  0  0  0  0  0  0  0
  -25.2670  -31.5230   26.1600 C   0  0  0  0  0  1  0  0  0  0  0  0
  -26.9590  -30.3890   24.7230 C   0  0  0  0  0  1  0  0  0  0  0  0
  -27.5070  -32.5650   25.7750 C   0  0  0  0  0  1  0  0  0  0  0  0
  -29.4050  -20.4280   20.2110 O   0  0  0  0  0  0  0  0  0  0  0  0
  -29.2430  -19.0150   18.1990 C   0  0  0  0  0  1  0  0  0  0  0  0
  -27.7790  -18.5420   20.1660 C   0  0  0  0  0  1  0  0  0  0  0  0
  -29.1930  -18.9600   19.7380 C   0  0  2  0  0  0  0  0  0  0  0  0
  -30.2300  -17.7100   20.2010 C   0  0  0  0  0  2  0  0  0  0  0  0
  -30.6160  -14.9910   20.1610 C   0  0  0  0  0  0  0  0  0  0  0  0
  -30.4590  -12.6490   19.2400 C   0  0  0  0  0  2  0  0  0  0  0  0
  -29.4970  -12.5940   18.0340 C   0  0  0  0  0  2  0  0  0  0  0  0
  -28.0380  -12.4060   18.4950 C   0  0  0  0  0  2  0  0  0  0  0  0
  -27.6620  -13.3360   19.6770 C   0  0  0  0  0  3  0  0  0  0  0  0
  -28.7440  -13.3510   20.7730 C   0  0  0  0  0  2  0  0  0  0  0  0
  -30.0030  -13.7460   20.1310 N   0  0  0  0  0  0  0  0  0  0  0  0
  -31.8230  -15.0480   19.9130 O   0  0  0  0  0  0  0  0  0  0  0  0
  -29.8460  -16.1780   20.2420 N   0  0  0  0  0  0  0  0  0  0  0  0
  -28.8610  -16.0110   20.3740 H   0  0  0  0  0  0  0  0  0  0  0  0
  -25.3060  -13.9240   20.4840 C   0  0  0  0  0  0  0  0  0  0  0  0
  -24.2450  -13.1510   20.8690 C   0  0  0  0  0  0  0  0  0  0  0  0
  -24.7000  -11.7960   20.8110 C   0  0  0  0  0  0  0  0  0  0  0  0
  -26.3370  -13.0400   20.2100 N   0  0  0  0  0  0  0  0  0  0  0  0
  -25.9850  -11.7560   20.4760 N   0  0  0  0  0  0  0  0  0  0  0  0
  -23.9690  -10.5340   21.0010 C   0  0  0  0  0  0  0  0  0  0  0  0
  -24.4020   -9.5640   21.9320 C   0  0  0  0  0  3  0  0  0  0  0  0
  -23.6690   -8.3700   22.1140 C   0  0  0  0  0  3  0  0  0  0  0  0
  -22.4910   -8.1400   21.3650 C   0  0  0  0  0  0  0  0  0  0  0  0
  -22.0760   -9.1020   20.4250 C   0  0  0  0  0  3  0  0  0  0  0  0
  -22.8080  -10.2870   20.2410 C   0  0  0  0  0  3  0  0  0  0  0  0
  -21.7310   -6.9990   21.4540 O   0  0  0  0  0  0  0  0  0  0  0  0
  -21.6700   -6.2650   22.6110 C   0  0  0  0  0  0  0  0  0  0  0  0
  -21.2080   -6.8260   23.8240 C   0  0  0  0  0  3  0  0  0  0  0  0
  -21.0930   -6.0190   24.9730 C   0  0  0  0  0  3  0  0  0  0  0  0
  -21.4280   -4.6520   24.9120 C   0  0  0  0  0  0  0  0  0  0  0  0
  -21.8830   -4.0930   23.7060 C   0  0  0  0  0  3  0  0  0  0  0  0
  -21.9990   -4.8960   22.5560 C   0  0  0  0  0  0  0  0  0  0  0  0
  -22.4180   -4.3460   21.3890 F   0  0  0  0  0  0  0  0  0  0  0  0
  -21.3130   -3.8750   26.0130 F   0  0  0  0  0  0  0  0  0  0  0  0
  -22.8550  -13.6320   21.1660 C   0  0  0  0  0  0  0  0  0  0  0  0
  -22.1390  -12.9320   22.0340 N   0  0  0  0  0  0  0  0  0  0  0  0
  -22.4110  -14.6630   20.6590 O   0  0  0  0  0  0  0  0  0  0  0  0
  -22.5100  -12.1000   22.4710 H   0  0  0  0  0  0  0  0  0  0  0  0
  -21.2020  -13.2300   22.2670 H   0  0  0  0  0  0  0  0  0  0  0  0
  -25.4730  -15.2930   20.3160 N   0  0  0  0  0  0  0  0  0  0  0  0
  -24.7210  -15.9590   20.4570 H   0  0  0  0  0  0  0  0  0  0  0  0
  -26.3070  -15.7210   19.9400 H   0  0  0  0  0  0  0  0  0  0  0  0
  1 46  1  0
  1  3  1  0
  3  2  1  0
  4  5  1  0
  4  3  1  0
  6 17  2  0
  7  5  1  0
  7 12  1  0
  8 16  1  0
  8 18  1  0
  9 15  1  0
  9 11  1  0
 10 16  1  0
 11 10  1  0
 12 11  2  0
 13  7  2  0
 14 13  1  0
 14  9  2  0
 15  8  1  0
 16  6  1  0
 18 20  2  0
 19 18  1  0
 21 19  1  0
 22 31  2  0
 22 27  1  0
 23 19  1  0
 23 27  1  0
 24 23  1  0
 25 26  1  0
 25 24  1  0
 26 22  1  0
 27 28  2  0
 28 29  1  0
 30 29  2  0
 31 30  1  0
 32  6  1  0
 32 33  1  0
 32 42  1  0
 33 36  1  0
 34 38  1  0
 34 33  1  0
 35 34  2  0
 38 37  1  0
 40 38  1  0
 40 41  1  0
 40 39  1  0
 42 45  1  1
 42 43  1  0
 44 42  1  0
 49 47  1  6
 49 48  1  0
 49 50  1  0
 49 46  1  0
 50 59  1  0
 51 59  1  0
 52 57  1  0
 53 54  1  0
 53 52  1  0
 55 54  1  0
 55 64  1  0
 55 56  1  0
 57 51  1  0
 57 56  1  0
 58 51  2  0
 59 60  1  0
 61 62  2  0
 62 81  1  0
 63 62  1  0
 63 66  1  0
 64 65  1  0
 64 61  1  0
 65 63  2  0
 66 67  1  0
 67 68  2  0
 69 72  1  0
 69 68  1  0
 70 69  2  0
 71 70  1  0
 71 66  2  0
 72 73  1  0
 73 74  1  0
 74 75  2  0
 76 75  1  0
 76 80  1  0
 77 76  2  0
 78 73  2  0
 78 77  1  0
 79 78  1  0
 81 82  1  0
 82 85  1  0
 82 84  1  0
 83 81  2  0
 86 87  1  0
 86 61  1  0
 88 86  1  0
M  ISO  4   4 101   5 101  51 100  59 100
M  END
>  <TORSDO>  (65) 
F 21

>  <SCORE>  (65) 
-14.079

>  <name>  (65) 
64

>  <ligand_id>  (65) 
64

>  <original_smiles>  (65) 
[H]c1c([H])c([H])c2c(c1[H])C([H])([H])C([H])([H])C([H])([H])C2([H])N([H])C(=O)C1([H])N(C(=O)C([H])(N([H])C(=O)C([H])(N([H])C([H])([H])[H])C([H])([H])[H])C(C([H])([H])[H])(C([H])([H])[H])C([H])([H])[H])C([H])([H])c2c([H])c(OC([H])([H])C([H])(C([H])([H])[H])C([H])([H])OC(C([H])([H])[H])(C([H])([H])[H])C([H])([H])N([H])C(=O)N3C([H])([H])C([H])([H])C([H])([H])C([H])(n4nc(-c5c([H])c([H])c(Oc6c([H])c([H])c(F)c([H])c6F)c([H])c5[H])c(C(=O)N([H])[H])c4N([H])[H])C3([H])[H])c([H])c([H])c2C1([H])[H]

>  <smiles>  (65) 
[H]c1c([H])c([H])c2c(c1[H])C([H])([H])C([H])([H])C([H])([H])C2([H])N([H])C(=O)C1([H])N(C(=O)C([H])(N([H])C(=O)C([H])(N([H])C([H])([H])[H])C([H])([H])[H])C(C([H])([H])[H])(C([H])([H])[H])C([H])([H])[H])C([H])([H])c2c([H])c(OC([H])([H])C([H])(C([H])([H])[H])C([H])([H])OC(C([H])([H])[H])(C([H])([H])[H])C([H])([H])N([H])C(=O)N3C([H])([H])C([H])([H])C([H])([H])C([H])(n4nc(-c5c([H])c([H])c(Oc6c([H])c([H])c(F)c([H])c6F)c([H])c5[H])c(C(=O)N([H])[H])c4N([H])[H])C3([H])[H])c([H])c([H])c2C1([H])[H]

$$$$
65:0:0
     RDKit          3D

 94102  0  0  1  0  0  0  0  0999 V2000
  -30.0760  -19.2520   21.5000 C   0  0  0  0  0  3  0  0  0  0  0  0
  -29.5140  -20.2920   19.6450 C   0  0  0  0  0  3  0  0  0  0  0  0
  -29.7280  -18.9960   20.1510 C   0  0  0  0  0  0  0  0  0  0  0  0
  -30.1890  -20.6050   21.7560 C   0  0  0  0  0  0  0  0  0  0  0  0
  -29.7710  -21.3210   20.6000 N   0  0  0  0  0  0  0  0  0  0  0  0
  -31.2080  -20.0560   24.0180 C   0  0  0  0  0  1  0  0  0  0  0  0
  -29.8830  -22.1160   23.8710 C   0  0  0  0  0  1  0  0  0  0  0  0
  -32.1320  -21.9260   22.6990 C   0  0  0  0  0  1  0  0  0  0  0  0
  -30.8150  -21.1930   23.0360 C   0  0  2  0  0  0  0  0  0  0  0  0
  -29.7050  -17.5550   19.4550 C   0  0  0  0  0  2  0  0  0  0  0  0
  -30.2990  -15.1690   20.3910 C   0  0  0  0  0  0  0  0  0  0  0  0
  -30.3890  -12.7050   19.9800 C   0  0  0  0  0  2  0  0  0  0  0  0
  -29.5810  -12.3680   18.7070 C   0  0  0  0  0  2  0  0  0  0  0  0
  -28.1010  -12.1350   19.0580 C   0  0  0  0  0  2  0  0  0  0  0  0
  -27.5220  -13.2490   19.9670 C   0  0  0  0  0  3  0  0  0  0  0  0
  -28.4600  -13.5720   21.1520 C   0  0  0  0  0  2  0  0  0  0  0  0
  -29.7740  -13.9090   20.5900 N   0  0  0  0  0  0  0  0  0  0  0  0
  -31.5020  -15.2920   20.1480 O   0  0  0  0  0  0  0  0  0  0  0  0
  -29.4380  -16.2470   20.2120 N   0  0  0  0  0  0  0  0  0  0  0  0
  -28.4670  -16.0570   20.4070 H   0  0  0  0  0  0  0  0  0  0  0  0
  -25.1070  -13.7960   20.6390 C   0  0  0  0  0  0  0  0  0  0  0  0
  -24.0370  -13.0030   20.9440 C   0  0  0  0  0  0  0  0  0  0  0  0
  -24.5120  -11.6560   20.8800 C   0  0  0  0  0  0  0  0  0  0  0  0
  -26.1660  -12.9330   20.4060 N   0  0  0  0  0  0  0  0  0  0  0  0
  -25.8140  -11.6390   20.6180 N   0  0  0  0  0  0  0  0  0  0  0  0
  -23.7900  -10.3810   20.9980 C   0  0  0  0  0  0  0  0  0  0  0  0
  -24.2210   -9.3660   21.8810 C   0  0  0  0  0  3  0  0  0  0  0  0
  -23.4970   -8.1580   21.9890 C   0  0  0  0  0  3  0  0  0  0  0  0
  -22.3300   -7.9570   21.2140 C   0  0  0  0  0  0  0  0  0  0  0  0
  -21.9210   -8.9610   20.3190 C   0  0  0  0  0  3  0  0  0  0  0  0
  -22.6440  -10.1600   20.2090 C   0  0  0  0  0  3  0  0  0  0  0  0
  -21.5790   -6.8070   21.2370 O   0  0  0  0  0  0  0  0  0  0  0  0
  -21.5950   -5.9580   22.3150 C   0  0  0  0  0  0  0  0  0  0  0  0
  -21.2130   -6.3860   23.6050 C   0  0  0  0  0  3  0  0  0  0  0  0
  -21.1760   -5.4630   24.6700 C   0  0  0  0  0  3  0  0  0  0  0  0
  -21.5100   -4.1140   24.4460 C   0  0  0  0  0  0  0  0  0  0  0  0
  -21.8850   -3.6860   23.1610 C   0  0  0  0  0  3  0  0  0  0  0  0
  -21.9230   -4.6040   22.0970 C   0  0  0  0  0  0  0  0  0  0  0  0
  -22.2630   -4.1820   20.8560 F   0  0  0  0  0  0  0  0  0  0  0  0
  -21.4660   -3.2270   25.4670 F   0  0  0  0  0  0  0  0  0  0  0  0
  -22.6270  -13.4570   21.1850 C   0  0  0  0  0  0  0  0  0  0  0  0
  -21.8890  -12.7440   22.0270 N   0  0  0  0  0  0  0  0  0  0  0  0
  -22.1880  -14.4810   20.6610 O   0  0  0  0  0  0  0  0  0  0  0  0
  -22.2560  -11.9130   22.4690 H   0  0  0  0  0  0  0  0  0  0  0  0
  -20.9440  -13.0330   22.2380 H   0  0  0  0  0  0  0  0  0  0  0  0
  -25.2730  -15.1730   20.5140 N   0  0  0  0  0  0  0  0  0  0  0  0
  -24.5080  -15.8290   20.6210 H   0  0  0  0  0  0  0  0  0  0  0  0
  -26.1340  -15.6200   20.2320 H   0  0  0  0  0  0  0  0  0  0  0  0
  -29.8540  -22.8640   20.4710 C   0  0  0  0  0  2  0  0  0  0  0  0
  -29.0660  -23.8900   19.4870 C   0  0  0  0  0  3  0  0  0  0  0  0
  -27.9330  -23.2240   18.9480 O   0  0  0  0  0  0  0  0  0  0  0  0
  -28.2250  -22.3660   18.6520 H   0  0  0  0  0  0  0  0  0  0  0  0
  -28.5830  -25.2860   20.1960 C   0  0  0  0  0  2  0  0  0  0  0  0
  -28.6370  -26.6770   19.6160 O   0  0  0  0  0  0  0  0  0  0  0  0
  -24.7540  -31.6310   23.2980 C   0  0  0  0  0  0  0  0  0  0  0  0
  -27.4890  -27.4980   19.7350 C   0  0  0  0  0  0  0  0  0  0  0  0
  -23.5640  -30.3170   21.5840 C   0  0  0  0  0  3  0  0  0  0  0  0
  -25.0400  -28.9890   19.9600 C   0  0  0  0  0  0  0  0  0  0  0  0
  -26.0740  -30.7950   21.3320 C   0  0  0  0  0  2  0  0  0  0  0  0
  -26.2070  -29.4840   20.5560 C   0  0  0  0  0  0  0  0  0  0  0  0
  -27.4380  -28.7560   20.4260 C   0  0  0  0  0  3  0  0  0  0  0  0
  -26.2950  -27.0680   19.1180 C   0  0  0  0  0  3  0  0  0  0  0  0
  -25.0860  -27.7900   19.2290 C   0  0  0  0  0  3  0  0  0  0  0  0
  -23.7560  -29.7820   20.1400 C   0  0  0  0  0  2  0  0  0  0  0  0
  -24.8170  -30.9280   22.1290 N   0  0  0  0  0  0  0  0  0  0  0  0
  -23.6810  -31.7970   23.8960 O   0  0  0  0  0  0  0  0  0  0  0  0
  -22.9960  -29.1820   22.4710 C   0  0  0  0  0  0  0  0  0  0  0  0
  -21.6960  -28.8840   22.3140 N   0  0  0  0  0  0  0  0  0  0  0  0
  -23.7240  -28.5780   23.2620 O   0  0  0  0  0  0  0  0  0  0  0  0
  -21.1640  -29.4260   21.6490 H   0  0  0  0  0  0  0  0  0  0  0  0
  -18.4800  -27.2480   22.6050 C   0  0  0  0  0  0  0  0  0  0  0  0
  -20.9670  -27.8240   23.0150 C   0  0  0  0  0  3  0  0  0  0  0  0
  -21.2820  -26.4390   22.4040 C   0  0  0  0  0  2  0  0  0  0  0  0
  -20.2810  -26.0140   21.3250 C   0  0  0  0  0  2  0  0  0  0  0  0
  -18.8630  -25.9590   21.9000 C   0  0  0  0  0  2  0  0  0  0  0  0
  -19.4700  -28.1330   23.1120 C   0  0  0  0  0  0  0  0  0  0  0  0
  -19.0630  -29.3340   23.7290 C   0  0  0  0  0  3  0  0  0  0  0  0
  -17.6970  -29.6570   23.8450 C   0  0  0  0  0  3  0  0  0  0  0  0
  -16.7210  -28.7730   23.3560 C   0  0  0  0  0  3  0  0  0  0  0  0
  -17.1140  -27.5700   22.7380 C   0  0  0  0  0  3  0  0  0  0  0  0
  -26.0230  -32.2820   23.9260 C   0  0  0  0  0  3  0  0  0  0  0  0
  -25.6820  -33.6660   24.2840 N   0  0  0  0  0  0  0  0  0  0  0  0
  -26.0120  -34.7460   23.5620 C   0  0  0  0  0  0  0  0  0  0  0  0
  -26.7040  -34.6810   22.5410 O   0  0  0  0  0  0  0  0  0  0  0  0
  -25.0570  -33.7860   25.0700 H   0  0  0  0  0  0  0  0  0  0  0  0
  -24.2560  -36.5210   23.2300 C   0  0  0  0  0  1  0  0  0  0  0  0
  -25.4920  -36.1140   24.0470 C   0  0  0  0  0  3  0  0  0  0  0  0
  -27.5960  -37.0140   24.9370 C   0  0  0  0  0  1  0  0  0  0  0  0
  -26.5070  -37.1860   23.9800 N   0  0  0  0  0  0  0  0  0  0  0  0
  -26.0820  -38.0940   24.1470 H   0  0  0  0  0  0  0  0  0  0  0  0
  -26.5600  -31.5000   25.1860 C   0  0  1  0  0  0  0  0  0  0  0  0
  -25.4800  -31.2310   26.2610 C   0  0  0  0  0  1  0  0  0  0  0  0
  -27.1570  -30.1360   24.7720 C   0  0  0  0  0  1  0  0  0  0  0  0
  -27.7060  -32.3010   25.8490 C   0  0  0  0  0  1  0  0  0  0  0  0
  1  4  2  0
  2  3  2  0
  2  5  1  0
  3  1  1  0
  4  9  1  0
  5  4  1  0
  9  8  1  6
  9  7  1  0
  9  6  1  0
 10  3  1  0
 10 19  1  0
 11 17  1  0
 12 17  1  0
 13 14  1  0
 13 12  1  0
 15 14  1  0
 15 24  1  0
 15 16  1  0
 17 16  1  0
 18 11  2  0
 19 11  1  0
 19 20  1  0
 21 22  2  0
 22 41  1  0
 23 22  1  0
 23 26  1  0
 24 25  1  0
 24 21  1  0
 25 23  2  0
 26 27  1  0
 27 28  2  0
 29 32  1  0
 29 28  1  0
 30 29  2  0
 31 30  1  0
 31 26  2  0
 32 33  1  0
 33 34  1  0
 34 35  2  0
 36 35  1  0
 36 40  1  0
 37 36  2  0
 38 33  2  0
 38 37  1  0
 39 38  1  0
 41 42  1  0
 42 45  1  0
 42 44  1  0
 43 41  2  0
 46 47  1  0
 46 21  1  0
 48 46  1  0
 49  5  1  0
 50 53  1  0
 50 49  1  0
 51 50  1  0
 52 51  1  0
 54 56  1  0
 54 53  1  0
 55 66  2  0
 56 61  1  0
 57 65  1  0
 57 67  1  0
 58 64  1  0
 58 60  1  0
 59 65  1  0
 60 59  1  0
 61 60  2  0
 62 63  1  0
 62 56  2  0
 63 58  2  0
 64 57  1  0
 65 55  1  0
 67 69  2  0
 68 67  1  0
 70 68  1  0
 71 80  2  0
 71 76  1  0
 72 68  1  0
 72 76  1  0
 73 72  1  0
 74 75  1  0
 74 73  1  0
 75 71  1  0
 76 77  2  0
 77 78  1  0
 79 78  2  0
 80 79  1  0
 81 55  1  0
 81 82  1  0
 81 91  1  0
 82 85  1  0
 83 87  1  0
 83 82  1  0
 84 83  2  0
 87 86  1  0
 89 87  1  0
 89 90  1  0
 89 88  1  0
 91 94  1  1
 91 92  1  0
 93 91  1  0
M  ISO  4  11 100  19 100  53 101  54 101
M  END
>  <TORSDO>  (66) 
F 22

>  <SCORE>  (66) 
-11.721

>  <name>  (66) 
65

>  <ligand_id>  (66) 
65

>  <original_smiles>  (66) 
[H]OC([H])(C([H])([H])Oc1c([H])c([H])c2c(c1[H])C([H])([H])N(C(=O)C([H])(N([H])C(=O)C([H])(N([H])C([H])([H])[H])C([H])([H])[H])C(C([H])([H])[H])(C([H])([H])[H])C([H])([H])[H])C([H])(C(=O)N([H])C1([H])c3c([H])c([H])c([H])c([H])c3C([H])([H])C([H])([H])C1([H])[H])C2([H])[H])C([H])([H])n1c([H])c(C([H])([H])N([H])C(=O)N2C([H])([H])C([H])([H])C([H])([H])C([H])(n3nc(-c4c([H])c([H])c(Oc5c([H])c([H])c(F)c([H])c5F)c([H])c4[H])c(C(=O)N([H])[H])c3N([H])[H])C2([H])[H])c([H])c1C(C([H])([H])[H])(C([H])([H])[H])C([H])([H])[H]

>  <smiles>  (66) 
[H]OC([H])(C([H])([H])Oc1c([H])c([H])c2c(c1[H])C([H])([H])N(C(=O)C([H])(N([H])C(=O)C([H])(N([H])C([H])([H])[H])C([H])([H])[H])C(C([H])([H])[H])(C([H])([H])[H])C([H])([H])[H])C([H])(C(=O)N([H])C1([H])c3c([H])c([H])c([H])c([H])c3C([H])([H])C([H])([H])C1([H])[H])C2([H])[H])C([H])([H])n1c([H])c(C([H])([H])N([H])C(=O)N2C([H])([H])C([H])([H])C([H])([H])C([H])(n3nc(-c4c([H])c([H])c(Oc5c([H])c([H])c(F)c([H])c5F)c([H])c4[H])c(C(=O)N([H])[H])c3N([H])[H])C2([H])[H])c([H])c1C(C([H])([H])[H])(C([H])([H])[H])C([H])([H])[H]

$$$$
66:0:0
     RDKit          3D

 92100  0  0  1  0  0  0  0  0999 V2000
  -30.6770  -18.3810   18.4860 C   0  0  0  0  0  2  0  0  0  0  0  0
  -30.5430  -17.7840   19.9160 C   0  0  0  0  0  3  0  0  0  0  0  0
  -29.9960  -20.3900   19.8280 C   0  0  0  0  0  3  0  0  0  0  0  0
  -29.5590  -18.9530   20.4920 C   0  0  1  0  0  0  0  0  0  0  0  0
  -28.0910  -18.6310   20.1390 C   0  0  0  0  0  1  0  0  0  0  0  0
  -29.6770  -19.0150   22.0230 C   0  0  0  0  0  1  0  0  0  0  0  0
  -30.5210  -19.8890   18.5230 N   0  0  0  0  0  4  0  0  0  0  0  0
  -29.8970  -20.1530   17.7800 H   0  0  0  0  0  0  0  0  0  0  0  0
  -31.4130  -20.3190   18.3380 H   0  0  0  0  0  0  0  0  0  0  0  0
  -31.0600  -15.0560   19.9190 C   0  0  0  0  0  0  0  0  0  0  0  0
  -30.9290  -12.6640   19.0950 C   0  0  0  0  0  2  0  0  0  0  0  0
  -29.9480  -12.5590   17.9030 C   0  0  0  0  0  2  0  0  0  0  0  0
  -28.5030  -12.3590   18.4010 C   0  0  0  0  0  2  0  0  0  0  0  0
  -28.1350  -13.3310   19.5530 C   0  0  0  0  0  3  0  0  0  0  0  0
  -29.2350  -13.4000   20.6340 C   0  0  0  0  0  2  0  0  0  0  0  0
  -30.4760  -13.7920   19.9560 N   0  0  0  0  0  0  0  0  0  0  0  0
  -32.2470  -15.1280   19.5870 O   0  0  0  0  0  0  0  0  0  0  0  0
  -30.2650  -16.2280   20.0470 N   0  0  0  0  0  0  0  0  0  0  0  0
  -29.3040  -16.0160   20.2690 H   0  0  0  0  0  0  0  0  0  0  0  0
  -25.8170  -13.9310   20.4530 C   0  0  0  0  0  0  0  0  0  0  0  0
  -24.7580  -13.1650   20.8570 C   0  0  0  0  0  0  0  0  0  0  0  0
  -25.1890  -11.8060   20.7470 C   0  0  0  0  0  0  0  0  0  0  0  0
  -26.8230  -13.0410   20.1180 N   0  0  0  0  0  0  0  0  0  0  0  0
  -26.4590  -11.7560   20.3610 N   0  0  0  0  0  0  0  0  0  0  0  0
  -24.4440  -10.5530   20.9300 C   0  0  0  0  0  0  0  0  0  0  0  0
  -24.8480   -9.5850   21.8740 C   0  0  0  0  0  3  0  0  0  0  0  0
  -24.1030   -8.3980   22.0460 C   0  0  0  0  0  3  0  0  0  0  0  0
  -22.9410   -8.1710   21.2710 C   0  0  0  0  0  0  0  0  0  0  0  0
  -22.5570   -9.1280   20.3160 C   0  0  0  0  0  3  0  0  0  0  0  0
  -23.3020  -10.3060   20.1420 C   0  0  0  0  0  3  0  0  0  0  0  0
  -22.1690   -7.0370   21.3520 O   0  0  0  0  0  0  0  0  0  0  0  0
  -21.9990   -6.3650   22.5350 C   0  0  0  0  0  0  0  0  0  0  0  0
  -21.3830   -6.9680   23.6530 C   0  0  0  0  0  3  0  0  0  0  0  0
  -21.1660   -6.2190   24.8270 C   0  0  0  0  0  3  0  0  0  0  0  0
  -21.5540   -4.8670   24.8810 C   0  0  0  0  0  0  0  0  0  0  0  0
  -22.1620   -4.2630   23.7670 C   0  0  0  0  0  3  0  0  0  0  0  0
  -22.3810   -5.0100   22.5960 C   0  0  0  0  0  0  0  0  0  0  0  0
  -22.9480   -4.4160   21.5180 F   0  0  0  0  0  0  0  0  0  0  0  0
  -21.3380   -4.1440   26.0060 F   0  0  0  0  0  0  0  0  0  0  0  0
  -23.3910  -13.6610   21.2230 C   0  0  0  0  0  0  0  0  0  0  0  0
  -22.6970  -12.9510   22.1070 N   0  0  0  0  0  0  0  0  0  0  0  0
  -22.9480  -14.7120   20.7620 O   0  0  0  0  0  0  0  0  0  0  0  0
  -23.0700  -12.0980   22.4990 H   0  0  0  0  0  0  0  0  0  0  0  0
  -21.7820  -13.2640   22.3950 H   0  0  0  0  0  0  0  0  0  0  0  0
  -25.9980  -15.3040   20.3140 N   0  0  0  0  0  0  0  0  0  0  0  0
  -25.2440  -15.9590   20.4840 H   0  0  0  0  0  0  0  0  0  0  0  0
  -26.8060  -15.7340   19.8840 H   0  0  0  0  0  0  0  0  0  0  0  0
  -29.0280  -21.7890   19.7650 C   0  0  0  0  0  2  0  0  0  0  0  0
  -30.5950  -23.6690   18.8240 C   0  0  0  0  0  1  0  0  0  0  0  0
  -29.4880  -23.4200   19.8550 C   0  0  0  0  0  3  0  0  0  0  0  0
  -28.4110  -24.7220   19.7600 C   0  0  0  0  0  2  0  0  0  0  0  0
  -28.6710  -26.2340   20.0470 O   0  0  0  0  0  0  0  0  0  0  0  0
  -24.9130  -31.6380   23.3880 C   0  0  0  0  0  0  0  0  0  0  0  0
  -27.6040  -27.2080   20.0410 C   0  0  0  0  0  0  0  0  0  0  0  0
  -23.7620  -30.3660   21.6180 C   0  0  0  0  0  3  0  0  0  0  0  0
  -25.2550  -28.9270   20.1020 C   0  0  0  0  0  0  0  0  0  0  0  0
  -26.3150  -30.6700   21.5280 C   0  0  0  0  0  2  0  0  0  0  0  0
  -26.4190  -29.3360   20.7670 C   0  0  0  0  0  0  0  0  0  0  0  0
  -27.5940  -28.4950   20.7190 C   0  0  0  0  0  3  0  0  0  0  0  0
  -26.4110  -26.9050   19.3480 C   0  0  0  0  0  3  0  0  0  0  0  0
  -25.2650  -27.7260   19.3780 C   0  0  0  0  0  3  0  0  0  0  0  0
  -24.0170  -29.8050   20.1940 C   0  0  0  0  0  2  0  0  0  0  0  0
  -25.0150  -30.9080   22.2350 N   0  0  0  0  0  0  0  0  0  0  0  0
  -23.8120  -31.8680   23.9130 O   0  0  0  0  0  0  0  0  0  0  0  0
  -23.0760  -29.2780   22.4810 C   0  0  0  0  0  0  0  0  0  0  0  0
  -21.7610  -29.0780   22.2860 N   0  0  0  0  0  0  0  0  0  0  0  0
  -23.7310  -28.6170   23.2910 O   0  0  0  0  0  0  0  0  0  0  0  0
  -21.2860  -29.6660   21.6130 H   0  0  0  0  0  0  0  0  0  0  0  0
  -18.4000  -27.7530   22.5600 C   0  0  0  0  0  0  0  0  0  0  0  0
  -20.9360  -28.0700   22.9570 C   0  0  0  0  0  3  0  0  0  0  0  0
  -21.1060  -26.6820   22.2960 C   0  0  0  0  0  2  0  0  0  0  0  0
  -20.0580  -26.3940   21.2160 C   0  0  0  0  0  2  0  0  0  0  0  0
  -18.6470  -26.4570   21.8060 C   0  0  0  0  0  2  0  0  0  0  0  0
  -19.4740  -28.5170   23.0860 C   0  0  0  0  0  0  0  0  0  0  0  0
  -19.1900  -29.7300   23.7500 C   0  0  0  0  0  3  0  0  0  0  0  0
  -17.8630  -30.1790   23.8930 C   0  0  0  0  0  3  0  0  0  0  0  0
  -16.8020  -29.4110   23.3830 C   0  0  0  0  0  3  0  0  0  0  0  0
  -17.0710  -28.1990   22.7220 C   0  0  0  0  0  3  0  0  0  0  0  0
  -26.1700  -32.2330   24.0920 C   0  0  0  0  0  3  0  0  0  0  0  0
  -26.5870  -31.4420   25.3920 C   0  0  1  0  0  0  0  0  0  0  0  0
  -25.4250  -31.2240   26.3890 C   0  0  0  0  0  1  0  0  0  0  0  0
  -27.1590  -30.0510   25.0310 C   0  0  0  0  0  1  0  0  0  0  0  0
  -27.7140  -32.2030   26.1300 C   0  0  0  0  0  1  0  0  0  0  0  0
  -25.8780  -33.6380   24.4200 N   0  0  0  0  0  0  0  0  0  0  0  0
  -26.2150  -34.6880   23.6580 C   0  0  0  0  0  0  0  0  0  0  0  0
  -26.8730  -34.5740   22.6200 O   0  0  0  0  0  0  0  0  0  0  0  0
  -25.2970  -33.8010   25.2300 H   0  0  0  0  0  0  0  0  0  0  0  0
  -24.4750  -36.4820   23.3610 C   0  0  0  0  0  1  0  0  0  0  0  0
  -25.7510  -36.0830   24.1210 C   0  0  0  0  0  3  0  0  0  0  0  0
  -27.9100  -36.9880   24.8620 C   0  0  0  0  0  1  0  0  0  0  0  0
  -26.7790  -37.1330   23.9480 N   0  0  0  0  0  0  0  0  0  0  0  0
  -26.3770  -38.0570   24.0860 H   0  0  0  0  0  0  0  0  0  0  0  0
  1  7  1  0
  1  2  1  0
  2 18  1  0
  2  4  1  0
  3 48  1  0
  3  4  1  0
  4  6  1  1
  5  4  1  0
  7  3  1  0
  8  7  1  0
  9  7  1  0
 10 16  1  0
 10 18  1  0
 11 16  1  0
 12 13  1  0
 12 11  1  0
 14 13  1  0
 14 23  1  0
 14 15  1  0
 16 15  1  0
 17 10  2  0
 18 19  1  0
 20 21  2  0
 21 40  1  0
 22 21  1  0
 22 25  1  0
 23 24  1  0
 23 20  1  0
 24 22  2  0
 25 26  1  0
 26 27  2  0
 28 31  1  0
 28 27  1  0
 29 28  2  0
 30 29  1  0
 30 25  2  0
 31 32  1  0
 32 37  2  0
 32 33  1  0
 33 34  2  0
 34 35  1  0
 35 39  1  0
 36 35  2  0
 37 36  1  0
 38 37  1  0
 40 41  1  0
 41 44  1  0
 41 43  1  0
 42 40  2  0
 45 20  1  0
 45 46  1  0
 47 45  1  0
 48 50  1  0
 50 49  1  0
 51 50  1  0
 51 52  1  0
 53 64  2  0
 54 52  1  0
 54 59  1  0
 55 63  1  0
 55 65  1  0
 56 62  1  0
 56 58  1  0
 57 63  1  0
 58 57  1  0
 59 58  2  0
 60 61  1  0
 60 54  2  0
 61 56  2  0
 62 55  1  0
 63 53  1  0
 65 67  2  0
 66 65  1  0
 68 66  1  0
 69 78  2  0
 69 74  1  0
 70 66  1  0
 70 74  1  0
 71 70  1  0
 72 73  1  0
 72 71  1  0
 73 69  1  0
 74 75  2  0
 75 76  1  0
 77 76  2  0
 78 77  1  0
 79 53  1  0
 79 84  1  0
 79 80  1  0
 80 83  1  1
 80 81  1  0
 82 80  1  0
 84 87  1  0
 85 89  1  0
 85 84  1  0
 86 85  2  0
 89 88  1  0
 91 92  1  0
 91 89  1  0
 91 90  1  0
M  ISO  4  10 100  18 100  51 101  52 101
M  END
>  <TORSDO>  (67) 
F 19

>  <SCORE>  (67) 
-13.029

>  <name>  (67) 
66

>  <ligand_id>  (67) 
66

>  <original_smiles>  (67) 
[H]c1c([H])c([H])c2c(c1[H])C([H])([H])C([H])([H])C([H])([H])C2([H])N([H])C(=O)C1([H])N(C(=O)C([H])(N([H])C(=O)C([H])(N([H])C([H])([H])[H])C([H])([H])[H])C(C([H])([H])[H])(C([H])([H])[H])C([H])([H])[H])C([H])([H])c2c([H])c(OC([H])([H])C([H])(C([H])([H])[H])C([H])([H])C3([H])C(C([H])([H])[H])(C([H])([H])[H])C([H])(N([H])C(=O)N4C([H])([H])C([H])([H])C([H])([H])C([H])(n5nc(-c6c([H])c([H])c(Oc7c([H])c([H])c(F)c([H])c7F)c([H])c6[H])c(C(=O)N([H])[H])c5N([H])[H])C4([H])[H])C([H])([H])[N+]3([H])[H])c([H])c([H])c2C1([H])[H]

>  <smiles>  (67) 
[H]c1c([H])c([H])c2c(c1[H])C([H])([H])C([H])([H])C([H])([H])C2([H])N([H])C(=O)C1([H])N(C(=O)C([H])(N([H])C(=O)C([H])(N([H])C([H])([H])[H])C([H])([H])[H])C(C([H])([H])[H])(C([H])([H])[H])C([H])([H])[H])C([H])([H])c2c([H])c(OC([H])([H])C([H])(C([H])([H])[H])C([H])([H])C3([H])C(C([H])([H])[H])(C([H])([H])[H])C([H])(N([H])C(=O)N4C([H])([H])C([H])([H])C([H])([H])C([H])(n5nc(-c6c([H])c([H])c(Oc7c([H])c([H])c(F)c([H])c7F)c([H])c6[H])c(C(=O)N([H])[H])c5N([H])[H])C4([H])[H])C([H])([H])[N+]3([H])[H])c([H])c([H])c2C1([H])[H]

$$$$
67:0:0
     RDKit          3D

 94102  0  0  1  0  0  0  0  0999 V2000
  -29.6370  -22.2190   20.4510 C   0  0  0  0  0  2  0  0  0  0  0  0
  -28.7900  -23.4560   20.6580 N   0  0  0  0  0  4  0  0  0  0  0  0
  -28.0230  -23.2090   21.2640 H   0  0  0  0  0  0  0  0  0  0  0  0
  -29.3440  -24.1080   21.1910 H   0  0  0  0  0  0  0  0  0  0  0  0
  -28.2540  -24.2480   19.5010 C   0  0  0  0  0  2  0  0  0  0  0  0
  -28.9230  -25.6640   19.3470 C   0  0  0  0  0  2  0  0  0  0  0  0
  -28.5510  -26.7470   20.2410 O   0  0  0  0  0  0  0  0  0  0  0  0
  -24.5570  -31.8720   23.2040 C   0  0  0  0  0  0  0  0  0  0  0  0
  -27.3610  -27.4670   20.1410 C   0  0  0  0  0  0  0  0  0  0  0  0
  -23.4180  -30.4720   21.5090 C   0  0  0  0  0  3  0  0  0  0  0  0
  -24.9350  -28.9600   20.1210 C   0  0  0  0  0  0  0  0  0  0  0  0
  -25.9470  -30.8520   21.3970 C   0  0  0  0  0  2  0  0  0  0  0  0
  -26.0690  -29.4830   20.7520 C   0  0  0  0  0  0  0  0  0  0  0  0
  -27.2750  -28.7370   20.7720 C   0  0  0  0  0  3  0  0  0  0  0  0
  -26.2070  -26.9760   19.4880 C   0  0  0  0  0  3  0  0  0  0  0  0
  -24.9980  -27.7030   19.4970 C   0  0  0  0  0  3  0  0  0  0  0  0
  -23.6780  -29.8020   20.1320 C   0  0  0  0  0  2  0  0  0  0  0  0
  -24.6560  -31.0830   22.0920 N   0  0  0  0  0  0  0  0  0  0  0  0
  -23.4580  -32.1250   23.7160 O   0  0  0  0  0  0  0  0  0  0  0  0
  -22.7510  -29.4390   22.4450 C   0  0  0  0  0  0  0  0  0  0  0  0
  -21.4260  -29.2680   22.3030 N   0  0  0  0  0  0  0  0  0  0  0  0
  -23.4240  -28.7910   23.2490 O   0  0  0  0  0  0  0  0  0  0  0  0
  -20.9490  -29.8350   21.6140 H   0  0  0  0  0  0  0  0  0  0  0  0
  -18.0350  -28.1220   22.7960 C   0  0  0  0  0  0  0  0  0  0  0  0
  -20.6010  -28.3180   23.0470 C   0  0  0  0  0  3  0  0  0  0  0  0
  -20.6710  -26.9100   22.4130 C   0  0  0  0  0  2  0  0  0  0  0  0
  -19.5530  -26.6480   21.4010 C   0  0  0  0  0  2  0  0  0  0  0  0
  -18.1790  -26.7980   22.0620 C   0  0  0  0  0  2  0  0  0  0  0  0
  -19.1740  -28.8400   23.2430 C   0  0  0  0  0  0  0  0  0  0  0  0
  -18.9920  -30.0820   23.8900 C   0  0  0  0  0  3  0  0  0  0  0  0
  -17.7010  -30.6020   24.0990 C   0  0  0  0  0  3  0  0  0  0  0  0
  -16.5750  -29.8810   23.6660 C   0  0  0  0  0  3  0  0  0  0  0  0
  -16.7420  -28.6440   23.0170 C   0  0  0  0  0  3  0  0  0  0  0  0
  -25.8170  -32.5130   23.8650 C   0  0  0  0  0  3  0  0  0  0  0  0
  -25.4840  -33.9060   24.1910 N   0  0  0  0  0  0  0  0  0  0  0  0
  -25.8300  -34.9650   23.4490 C   0  0  0  0  0  0  0  0  0  0  0  0
  -26.5350  -34.8750   22.4400 O   0  0  0  0  0  0  0  0  0  0  0  0
  -24.8620  -34.0480   24.9730 H   0  0  0  0  0  0  0  0  0  0  0  0
  -24.1100  -36.7530   23.0260 C   0  0  0  0  0  1  0  0  0  0  0  0
  -25.3110  -36.3480   23.8950 C   0  0  0  0  0  3  0  0  0  0  0  0
  -27.3900  -37.2460   24.8420 C   0  0  0  0  0  1  0  0  0  0  0  0
  -26.3390  -37.4070   23.8420 N   0  0  0  0  0  0  0  0  0  0  0  0
  -25.9190  -38.3250   23.9680 H   0  0  0  0  0  0  0  0  0  0  0  0
  -26.3000  -31.7470   25.1570 C   0  0  1  0  0  0  0  0  0  0  0  0
  -25.1740  -31.5000   26.1880 C   0  0  0  0  0  1  0  0  0  0  0  0
  -26.9130  -30.3750   24.7870 C   0  0  0  0  0  1  0  0  0  0  0  0
  -27.4110  -32.5580   25.8670 C   0  0  0  0  0  1  0  0  0  0  0  0
  -27.5690  -20.7920   20.8010 C   0  0  0  0  0  1  0  0  0  0  0  0
  -28.8830  -20.8940   19.9920 C   0  0  0  0  0  3  0  0  0  0  0  0
  -29.4400  -18.3460   20.6700 C   0  0  0  0  0  3  0  0  0  0  0  0
  -30.2430  -17.2780   20.1260 C   0  0  0  0  0  0  0  0  0  0  0  0
  -29.6410  -19.5180   19.9460 C   0  0  0  0  0  0  0  0  0  0  0  0
  -30.9680  -17.8180   19.0910 C   0  0  0  0  0  0  0  0  0  0  0  0
  -31.9190  -17.1870   18.1110 C   0  0  0  0  0  1  0  0  0  0  0  0
  -31.1290  -20.0650   17.9430 C   0  0  0  0  0  1  0  0  0  0  0  0
  -30.6100  -19.1780   18.9850 N   0  0  0  0  0  0  0  0  0  0  0  0
  -30.9020  -14.7670   20.2740 C   0  0  0  0  0  0  0  0  0  0  0  0
  -30.6630  -12.4850   19.3280 C   0  0  0  0  0  2  0  0  0  0  0  0
  -29.7510  -12.6060   18.0870 C   0  0  0  0  0  2  0  0  0  0  0  0
  -28.2700  -12.4590   18.4930 C   0  0  0  0  0  2  0  0  0  0  0  0
  -27.8960  -13.3600   19.7000 C   0  0  0  0  0  3  0  0  0  0  0  0
  -28.9440  -13.2510   20.8350 C   0  0  0  0  0  2  0  0  0  0  0  0
  -30.2650  -13.5540   20.2630 N   0  0  0  0  0  0  0  0  0  0  0  0
  -32.0820  -14.8640   19.9270 O   0  0  0  0  0  0  0  0  0  0  0  0
  -30.1310  -15.8720   20.5440 N   0  0  0  0  0  0  0  0  0  0  0  0
  -29.2550  -15.6410   20.9830 H   0  0  0  0  0  0  0  0  0  0  0  0
  -25.5040  -13.9770   20.4070 C   0  0  0  0  0  0  0  0  0  0  0  0
  -24.4300  -13.2150   20.7790 C   0  0  0  0  0  0  0  0  0  0  0  0
  -24.8820  -11.8590   20.7580 C   0  0  0  0  0  0  0  0  0  0  0  0
  -26.5420  -13.0890   20.1820 N   0  0  0  0  0  0  0  0  0  0  0  0
  -26.1750  -11.8100   20.4560 N   0  0  0  0  0  0  0  0  0  0  0  0
  -24.1440  -10.6020   20.9490 C   0  0  0  0  0  0  0  0  0  0  0  0
  -24.5270   -9.6640   21.9300 C   0  0  0  0  0  3  0  0  0  0  0  0
  -23.7920   -8.4740   22.1110 C   0  0  0  0  0  3  0  0  0  0  0  0
  -22.6560   -8.2150   21.3050 C   0  0  0  0  0  0  0  0  0  0  0  0
  -22.2920   -9.1430   20.3140 C   0  0  0  0  0  3  0  0  0  0  0  0
  -23.0300  -10.3230   20.1320 C   0  0  0  0  0  3  0  0  0  0  0  0
  -21.8910   -7.0770   21.3910 O   0  0  0  0  0  0  0  0  0  0  0  0
  -21.7420   -6.3920   22.5700 C   0  0  0  0  0  0  0  0  0  0  0  0
  -21.1760   -6.9940   23.7140 C   0  0  0  0  0  3  0  0  0  0  0  0
  -20.9840   -6.2320   24.8850 C   0  0  0  0  0  3  0  0  0  0  0  0
  -21.3470   -4.8730   24.9090 C   0  0  0  0  0  0  0  0  0  0  0  0
  -21.9010   -4.2690   23.7650 C   0  0  0  0  0  3  0  0  0  0  0  0
  -22.0950   -5.0270   22.5980 C   0  0  0  0  0  0  0  0  0  0  0  0
  -22.6120   -4.4380   21.4910 F   0  0  0  0  0  0  0  0  0  0  0  0
  -21.1510   -4.1370   26.0290 F   0  0  0  0  0  0  0  0  0  0  0  0
  -23.0320  -13.7040   21.0430 C   0  0  0  0  0  0  0  0  0  0  0  0
  -22.2900  -13.0180   21.9010 N   0  0  0  0  0  0  0  0  0  0  0  0
  -22.6060  -14.7320   20.5190 O   0  0  0  0  0  0  0  0  0  0  0  0
  -22.6490  -12.1950   22.3600 H   0  0  0  0  0  0  0  0  0  0  0  0
  -21.3490  -13.3300   22.1090 H   0  0  0  0  0  0  0  0  0  0  0  0
  -25.6730  -15.3440   20.2180 N   0  0  0  0  0  0  0  0  0  0  0  0
  -24.9090  -15.9990   20.3450 H   0  0  0  0  0  0  0  0  0  0  0  0
  -26.5250  -15.7810   19.8810 H   0  0  0  0  0  0  0  0  0  0  0  0
  1  2  1  0
  2  4  1  0
  2  3  1  0
  5  2  1  0
  6  5  1  0
  6  7  1  0
  8 19  2  0
  9  7  1  0
  9 14  1  0
 10 18  1  0
 10 20  1  0
 11 17  1  0
 11 13  1  0
 12 18  1  0
 13 14  2  0
 13 12  1  0
 15 16  1  0
 15  9  2  0
 16 11  2  0
 17 10  1  0
 18  8  1  0
 20 22  2  0
 21 20  1  0
 23 21  1  0
 24 33  2  0
 24 29  1  0
 25 21  1  0
 25 29  1  0
 26 25  1  0
 27 28  1  0
 27 26  1  0
 28 24  1  0
 29 30  2  0
 30 31  1  0
 32 31  2  0
 33 32  1  0
 34  8  1  0
 34 35  1  0
 34 44  1  0
 35 38  1  0
 36 40  1  0
 36 35  1  0
 37 36  2  0
 40 39  1  0
 42 40  1  0
 42 43  1  0
 42 41  1  0
 44 47  1  1
 44 45  1  0
 46 44  1  0
 49  1  1  0
 49 48  1  0
 51 65  1  0
 51 50  1  0
 52 49  1  0
 52 50  2  0
 53 51  2  0
 54 53  1  0
 55 56  1  0
 56 53  1  0
 56 52  1  0
 57 65  1  0
 58 63  1  0
 59 60  1  0
 59 58  1  0
 61 60  1  0
 61 70  1  0
 61 62  1  0
 63 57  1  0
 63 62  1  0
 64 57  2  0
 65 66  1  0
 67 68  2  0
 68 87  1  0
 69 68  1  0
 69 72  1  0
 70 67  1  0
 70 71  1  0
 71 69  2  0
 72 73  1  0
 73 74  2  0
 75 78  1  0
 75 74  1  0
 76 75  2  0
 77 76  1  0
 77 72  2  0
 78 79  1  0
 79 84  2  0
 79 80  1  0
 80 81  2  0
 81 82  1  0
 82 86  1  0
 83 82  2  0
 84 83  1  0
 85 84  1  0
 87 88  1  0
 88 91  1  0
 88 90  1  0
 89 87  2  0
 92 93  1  0
 92 67  1  0
 94 92  1  0
M  ISO  4   6 101   7 101  57 100  65 100
M  END
>  <TORSDO>  (68) 
F 21

>  <SCORE>  (68) 
-13.045

>  <name>  (68) 
67

>  <ligand_id>  (68) 
67

>  <original_smiles>  (68) 
[H]c1c([H])c([H])c2c(c1[H])C([H])([H])C([H])([H])C([H])([H])C2([H])N([H])C(=O)C1([H])N(C(=O)C([H])(N([H])C(=O)C([H])(N([H])C([H])([H])[H])C([H])([H])[H])C(C([H])([H])[H])(C([H])([H])[H])C([H])([H])[H])C([H])([H])c2c([H])c(OC([H])([H])C([H])([H])[N+]([H])([H])C([H])([H])C([H])(c3c([H])c(N([H])C(=O)N4C([H])([H])C([H])([H])C([H])([H])C([H])(n5nc(-c6c([H])c([H])c(Oc7c([H])c([H])c(F)c([H])c7F)c([H])c6[H])c(C(=O)N([H])[H])c5N([H])[H])C4([H])[H])c(C([H])([H])[H])n3C([H])([H])[H])C([H])([H])[H])c([H])c([H])c2C1([H])[H]

>  <smiles>  (68) 
[H]c1c([H])c([H])c2c(c1[H])C([H])([H])C([H])([H])C([H])([H])C2([H])N([H])C(=O)C1([H])N(C(=O)C([H])(N([H])C(=O)C([H])(N([H])C([H])([H])[H])C([H])([H])[H])C(C([H])([H])[H])(C([H])([H])[H])C([H])([H])[H])C([H])([H])c2c([H])c(OC([H])([H])C([H])([H])[N+]([H])([H])C([H])([H])C([H])(c3c([H])c(N([H])C(=O)N4C([H])([H])C([H])([H])C([H])([H])C([H])(n5nc(-c6c([H])c([H])c(Oc7c([H])c([H])c(F)c([H])c7F)c([H])c6[H])c(C(=O)N([H])[H])c5N([H])[H])C4([H])[H])c(C([H])([H])[H])n3C([H])([H])[H])C([H])([H])[H])c([H])c([H])c2C1([H])[H]

$$$$
68:0:0
     RDKit          3D

 93101  0  0  1  0  0  0  0  0999 V2000
  -28.4420  -21.8410   19.7400 C   0  0  0  0  0  3  0  0  0  0  0  0
  -30.0510  -23.0050   20.6130 C   0  0  0  0  0  3  0  0  0  0  0  0
  -29.3610  -20.8100   20.1100 C   0  0  0  0  0  0  0  0  0  0  0  0
  -30.3940  -21.6450   20.6940 C   0  0  0  0  0  0  0  0  0  0  0  0
  -28.7990  -23.2190   20.0560 N   0  0  0  0  0  0  0  0  0  0  0  0
  -29.1980  -19.1170   20.0560 C   0  0  0  0  0  3  0  0  0  0  0  0
  -30.3300  -17.8290   20.1340 C   0  0  0  0  0  3  0  0  0  0  0  0
  -30.7670  -15.0480   20.0060 C   0  0  0  0  0  0  0  0  0  0  0  0
  -30.6420  -12.6480   19.1480 C   0  0  0  0  0  2  0  0  0  0  0  0
  -29.6650  -12.5200   17.9560 C   0  0  0  0  0  2  0  0  0  0  0  0
  -28.2220  -12.3060   18.4520 C   0  0  0  0  0  2  0  0  0  0  0  0
  -27.8470  -13.2740   19.6030 C   0  0  0  0  0  3  0  0  0  0  0  0
  -28.9430  -13.3570   20.6850 C   0  0  0  0  0  2  0  0  0  0  0  0
  -30.1750  -13.7780   20.0060 N   0  0  0  0  0  0  0  0  0  0  0  0
  -31.9670  -15.0870   19.7150 O   0  0  0  0  0  0  0  0  0  0  0  0
  -29.9950  -16.2550   20.1290 N   0  0  0  0  0  0  0  0  0  0  0  0
  -29.0180  -16.0620   20.2870 H   0  0  0  0  0  0  0  0  0  0  0  0
  -25.5190  -13.8700   20.4750 C   0  0  0  0  0  0  0  0  0  0  0  0
  -24.4600  -13.1030   20.8770 C   0  0  0  0  0  0  0  0  0  0  0  0
  -24.9000  -11.7460   20.7940 C   0  0  0  0  0  0  0  0  0  0  0  0
  -26.5330  -12.9810   20.1640 N   0  0  0  0  0  0  0  0  0  0  0  0
  -26.1740  -11.6970   20.4220 N   0  0  0  0  0  0  0  0  0  0  0  0
  -24.1610  -10.4910   20.9880 C   0  0  0  0  0  0  0  0  0  0  0  0
  -24.6000   -9.5090   21.9030 C   0  0  0  0  0  3  0  0  0  0  0  0
  -23.8600   -8.3210   22.0870 C   0  0  0  0  0  3  0  0  0  0  0  0
  -22.6660   -8.1080   21.3570 C   0  0  0  0  0  0  0  0  0  0  0  0
  -22.2470   -9.0790   20.4310 C   0  0  0  0  0  3  0  0  0  0  0  0
  -22.9870  -10.2580   20.2440 C   0  0  0  0  0  3  0  0  0  0  0  0
  -21.8970   -6.9730   21.4510 O   0  0  0  0  0  0  0  0  0  0  0  0
  -21.8080   -6.2580   22.6190 C   0  0  0  0  0  0  0  0  0  0  0  0
  -21.3260   -6.8400   23.8120 C   0  0  0  0  0  3  0  0  0  0  0  0
  -21.1860   -6.0520   24.9720 C   0  0  0  0  0  3  0  0  0  0  0  0
  -21.5170   -4.6840   24.9380 C   0  0  0  0  0  0  0  0  0  0  0  0
  -21.9910   -4.1030   23.7490 C   0  0  0  0  0  3  0  0  0  0  0  0
  -22.1330   -4.8870   22.5920 C   0  0  0  0  0  0  0  0  0  0  0  0
  -22.5710   -4.3180   21.4430 F   0  0  0  0  0  0  0  0  0  0  0  0
  -21.3750   -3.9240   26.0500 F   0  0  0  0  0  0  0  0  0  0  0  0
  -23.0860  -13.5970   21.2220 C   0  0  0  0  0  0  0  0  0  0  0  0
  -22.3920  -12.9010   22.1160 N   0  0  0  0  0  0  0  0  0  0  0  0
  -22.6380  -14.6340   20.7340 O   0  0  0  0  0  0  0  0  0  0  0  0
  -22.7700  -12.0620   22.5290 H   0  0  0  0  0  0  0  0  0  0  0  0
  -21.4720  -13.2130   22.3920 H   0  0  0  0  0  0  0  0  0  0  0  0
  -25.6950  -15.2420   20.3180 N   0  0  0  0  0  0  0  0  0  0  0  0
  -24.9410  -15.9000   20.4740 H   0  0  0  0  0  0  0  0  0  0  0  0
  -26.5150  -15.6720   19.9110 H   0  0  0  0  0  0  0  0  0  0  0  0
  -27.9060  -24.5550   19.9370 C   0  0  0  0  0  2  0  0  0  0  0  0
  -28.3200  -26.0080   20.2940 O   0  0  0  0  0  0  0  0  0  0  0  0
  -24.7320  -31.7430   23.3650 C   0  0  0  0  0  0  0  0  0  0  0  0
  -27.3380  -27.0890   20.2030 C   0  0  0  0  0  0  0  0  0  0  0  0
  -23.5830  -30.4600   21.6050 C   0  0  0  0  0  3  0  0  0  0  0  0
  -25.0650  -28.9380   20.1550 C   0  0  0  0  0  0  0  0  0  0  0  0
  -26.1510  -30.6630   21.5740 C   0  0  0  0  0  2  0  0  0  0  0  0
  -26.2260  -29.3020   20.8510 C   0  0  0  0  0  0  0  0  0  0  0  0
  -27.3590  -28.3930   20.8640 C   0  0  0  0  0  3  0  0  0  0  0  0
  -26.1650  -26.8680   19.4440 C   0  0  0  0  0  3  0  0  0  0  0  0
  -25.0540  -27.7370   19.4360 C   0  0  0  0  0  3  0  0  0  0  0  0
  -23.8560  -29.8590   20.2010 C   0  0  0  0  0  2  0  0  0  0  0  0
  -24.8410  -30.9760   22.2370 N   0  0  0  0  0  0  0  0  0  0  0  0
  -23.6280  -32.0220   23.8580 O   0  0  0  0  0  0  0  0  0  0  0  0
  -22.8430  -29.4160   22.4820 C   0  0  0  0  0  0  0  0  0  0  0  0
  -21.5100  -29.3130   22.3260 N   0  0  0  0  0  0  0  0  0  0  0  0
  -23.4710  -28.7070   23.2710 O   0  0  0  0  0  0  0  0  0  0  0  0
  -21.0600  -29.9390   21.6720 H   0  0  0  0  0  0  0  0  0  0  0  0
  -18.0660  -28.2650   22.7440 C   0  0  0  0  0  0  0  0  0  0  0  0
  -20.6360  -28.3600   23.0170 C   0  0  0  0  0  3  0  0  0  0  0  0
  -20.6560  -26.9800   22.3220 C   0  0  0  0  0  2  0  0  0  0  0  0
  -19.5360  -26.8080   21.2910 C   0  0  0  0  0  2  0  0  0  0  0  0
  -18.1660  -26.9720   21.9510 C   0  0  0  0  0  2  0  0  0  0  0  0
  -19.2250  -28.9250   23.2310 C   0  0  0  0  0  0  0  0  0  0  0  0
  -19.0750  -30.1390   23.9350 C   0  0  0  0  0  3  0  0  0  0  0  0
  -17.7990  -30.6910   24.1540 C   0  0  0  0  0  3  0  0  0  0  0  0
  -16.6550  -30.0280   23.6800 C   0  0  0  0  0  3  0  0  0  0  0  0
  -16.7880  -28.8160   22.9810 C   0  0  0  0  0  3  0  0  0  0  0  0
  -25.9900  -32.3240   24.0790 C   0  0  0  0  0  3  0  0  0  0  0  0
  -25.7140  -33.7330   24.4020 N   0  0  0  0  0  0  0  0  0  0  0  0
  -26.0940  -34.7780   23.6550 C   0  0  0  0  0  0  0  0  0  0  0  0
  -26.7790  -34.6550   22.6360 O   0  0  0  0  0  0  0  0  0  0  0  0
  -25.1090  -33.9050   25.1920 H   0  0  0  0  0  0  0  0  0  0  0  0
  -24.4290  -36.6300   23.2820 C   0  0  0  0  0  1  0  0  0  0  0  0
  -25.6440  -36.1820   24.1090 C   0  0  0  0  0  3  0  0  0  0  0  0
  -27.7860  -37.0070   24.9810 C   0  0  0  0  0  1  0  0  0  0  0  0
  -26.7110  -37.2030   24.0130 N   0  0  0  0  0  0  0  0  0  0  0  0
  -26.3300  -38.1360   24.1450 H   0  0  0  0  0  0  0  0  0  0  0  0
  -26.3810  -31.5290   25.3870 C   0  0  1  0  0  0  0  0  0  0  0  0
  -25.2090  -31.3530   26.3820 C   0  0  0  0  0  1  0  0  0  0  0  0
  -26.9160  -30.1210   25.0390 C   0  0  0  0  0  1  0  0  0  0  0  0
  -27.5250  -32.2650   26.1230 C   0  0  0  0  0  1  0  0  0  0  0  0
  -31.6660  -21.1310   21.3650 C   0  0  0  0  0  3  0  0  0  0  0  0
  -31.1760  -19.7480   23.4910 C   0  0  0  0  0  1  0  0  0  0  0  0
  -30.6920  -22.2210   23.5320 C   0  0  0  0  0  1  0  0  0  0  0  0
  -31.5820  -21.1190   22.9280 C   0  0  0  0  0  3  0  0  0  0  0  0
  -34.2450  -21.1930   21.0550 C   0  0  0  0  0  1  0  0  0  0  0  0
  -32.9030  -21.9200   20.8670 C   0  0  0  0  0  2  0  0  0  0  0  0
  1  5  1  0
  1  3  2  0
  2  4  2  0
  3  4  1  0
  4 88  1  0
  5  2  1  0
  6  3  1  0
  6  7  2  0
  8 14  1  0
  8 16  1  0
  9 14  1  0
 10 11  1  0
 10  9  1  0
 12 11  1  0
 12 21  1  0
 12 13  1  0
 14 13  1  0
 15  8  2  0
 16  7  1  0
 16 17  1  0
 18 19  2  0
 19 38  1  0
 20 19  1  0
 20 23  1  0
 21 22  1  0
 21 18  1  0
 22 20  2  0
 23 24  1  0
 24 25  2  0
 26 29  1  0
 26 25  1  0
 27 26  2  0
 28 27  1  0
 28 23  2  0
 29 30  1  0
 30 31  1  0
 31 32  2  0
 33 32  1  0
 33 37  1  0
 34 33  2  0
 35 30  2  0
 35 34  1  0
 36 35  1  0
 38 39  1  0
 39 42  1  0
 39 41  1  0
 40 38  2  0
 43 44  1  0
 43 18  1  0
 45 43  1  0
 46  5  1  0
 46 47  1  0
 48 59  2  0
 49 47  1  0
 49 54  1  0
 50 58  1  0
 50 60  1  0
 51 57  1  0
 51 53  1  0
 52 58  1  0
 53 54  2  0
 53 52  1  0
 55 49  2  0
 56 55  1  0
 56 51  2  0
 57 50  1  0
 58 48  1  0
 60 62  2  0
 61 60  1  0
 63 61  1  0
 64 73  2  0
 64 69  1  0
 65 61  1  0
 65 69  1  0
 66 65  1  0
 67 68  1  0
 67 66  1  0
 68 64  1  0
 69 70  2  0
 70 71  1  0
 72 71  2  0
 73 72  1  0
 74 48  1  0
 74 75  1  0
 74 84  1  0
 75 78  1  0
 76 80  1  0
 76 75  1  0
 77 76  2  0
 80 79  1  0
 82 80  1  0
 82 83  1  0
 82 81  1  0
 84 87  1  1
 84 85  1  0
 86 84  1  0
 88 93  1  0
 88 91  1  0
 91 89  1  0
 91 90  1  0
 93 92  1  0
M  ISO  4   8 100  16 100  46 101  47 101
M  END
>  <TORSDO>  (69) 
F 22

>  <SCORE>  (69) 
-13.845

>  <name>  (69) 
68

>  <ligand_id>  (69) 
68

>  <original_smiles>  (69) 
[H]c1c([H])c([H])c2c(c1[H])C([H])([H])C([H])([H])C([H])([H])C2([H])N([H])C(=O)C1([H])N(C(=O)C([H])(N([H])C(=O)C([H])(N([H])C([H])([H])[H])C([H])([H])[H])C(C([H])([H])[H])(C([H])([H])[H])C([H])([H])[H])C([H])([H])c2c([H])c(OC([H])([H])n3c([H])c(C([H])([H])C([H])([H])N([H])C(=O)N4C([H])([H])C([H])([H])C([H])([H])C([H])(n5nc(-c6c([H])c([H])c(Oc7c([H])c([H])c(F)c([H])c7F)c([H])c6[H])c(C(=O)N([H])[H])c5N([H])[H])C4([H])[H])c(C([H])(C([H])([H])C([H])([H])[H])C([H])(C([H])([H])[H])C([H])([H])[H])c3[H])c([H])c([H])c2C1([H])[H]

>  <smiles>  (69) 
[H]c1c([H])c([H])c2c(c1[H])C([H])([H])C([H])([H])C([H])([H])C2([H])N([H])C(=O)C1([H])N(C(=O)C([H])(N([H])C(=O)C([H])(N([H])C([H])([H])[H])C([H])([H])[H])C(C([H])([H])[H])(C([H])([H])[H])C([H])([H])[H])C([H])([H])c2c([H])c(OC([H])([H])n3c([H])c(C([H])([H])C([H])([H])N([H])C(=O)N4C([H])([H])C([H])([H])C([H])([H])C([H])(n5nc(-c6c([H])c([H])c(Oc7c([H])c([H])c(F)c([H])c7F)c([H])c6[H])c(C(=O)N([H])[H])c5N([H])[H])C4([H])[H])c(C([H])(C([H])([H])C([H])([H])[H])C([H])(C([H])([H])[H])C([H])([H])[H])c3[H])c([H])c([H])c2C1([H])[H]

$$$$
69:0:0
     RDKit          3D

 93101  0  0  1  0  0  0  0  0999 V2000
  -26.0340  -22.1750   20.3760 C   0  0  0  0  0  1  0  0  0  0  0  0
  -27.4450  -22.6110   20.5260 N   0  0  1  0  0  4  0  0  0  0  0  0
  -27.4020  -23.2880   21.2720 H   0  0  0  0  0  0  0  0  0  0  0  0
  -28.3480  -21.5460   21.0590 C   0  0  0  0  0  3  0  0  0  0  0  0
  -28.4040  -20.2240   20.2340 C   0  0  0  0  0  3  0  0  0  0  0  0
  -30.3660  -17.9870   22.7060 C   0  0  0  0  0  3  0  0  0  0  0  0
  -29.6200  -19.0620   22.1870 C   0  0  0  0  0  3  0  0  0  0  0  0
  -30.7780  -16.9320   21.8710 C   0  0  0  0  0  3  0  0  0  0  0  0
  -29.6840  -18.0310   19.9860 C   0  0  0  0  0  3  0  0  0  0  0  0
  -29.2740  -19.1010   20.8170 C   0  0  0  0  0  0  0  0  0  0  0  0
  -30.4360  -16.9490   20.5010 C   0  0  0  0  0  0  0  0  0  0  0  0
  -31.5430  -14.8140   19.8410 C   0  0  0  0  0  0  0  0  0  0  0  0
  -31.1240  -12.6240   18.8260 C   0  0  0  0  0  2  0  0  0  0  0  0
  -30.1430  -12.8450   17.6550 C   0  0  0  0  0  2  0  0  0  0  0  0
  -28.6820  -12.7940   18.1490 C   0  0  0  0  0  2  0  0  0  0  0  0
  -28.4350  -13.6890   19.3940 C   0  0  0  0  0  3  0  0  0  0  0  0
  -29.5260  -13.4660   20.4670 C   0  0  0  0  0  2  0  0  0  0  0  0
  -30.8350  -13.6590   19.8250 N   0  0  0  0  0  0  0  0  0  0  0  0
  -32.7310  -14.8880   19.5230 O   0  0  0  0  0  0  0  0  0  0  0  0
  -30.7670  -15.8900   19.6190 N   0  0  0  0  0  0  0  0  0  0  0  0
  -30.7600  -16.1560   18.6470 H   0  0  0  0  0  0  0  0  0  0  0  0
  -26.1310  -14.4570   20.2400 C   0  0  0  0  0  0  0  0  0  0  0  0
  -25.0220  -13.7580   20.6310 C   0  0  0  0  0  0  0  0  0  0  0  0
  -25.3770  -12.3770   20.5420 C   0  0  0  0  0  0  0  0  0  0  0  0
  -27.0930  -13.5070   19.9350 N   0  0  0  0  0  0  0  0  0  0  0  0
  -26.6460  -12.2490   20.1770 N   0  0  0  0  0  0  0  0  0  0  0  0
  -24.5660  -11.1670   20.7270 C   0  0  0  0  0  0  0  0  0  0  0  0
  -24.9310  -10.1710   21.6570 C   0  0  0  0  0  3  0  0  0  0  0  0
  -24.1270   -9.0240   21.8300 C   0  0  0  0  0  3  0  0  0  0  0  0
  -22.9430   -8.8670   21.0720 C   0  0  0  0  0  0  0  0  0  0  0  0
  -22.5970   -9.8520   20.1310 C   0  0  0  0  0  3  0  0  0  0  0  0
  -23.4000  -10.9900   19.9560 C   0  0  0  0  0  3  0  0  0  0  0  0
  -22.1140   -7.7750   21.1570 O   0  0  0  0  0  0  0  0  0  0  0  0
  -21.9530   -7.0810   22.3300 C   0  0  0  0  0  0  0  0  0  0  0  0
  -21.5220   -7.7130   23.5180 C   0  0  0  0  0  3  0  0  0  0  0  0
  -21.3020   -6.9490   24.6810 C   0  0  0  0  0  3  0  0  0  0  0  0
  -21.5040   -5.5560   24.6600 C   0  0  0  0  0  0  0  0  0  0  0  0
  -21.9270   -4.9250   23.4770 C   0  0  0  0  0  3  0  0  0  0  0  0
  -22.1480   -5.6850   22.3150 C   0  0  0  0  0  0  0  0  0  0  0  0
  -22.5350   -5.0680   21.1720 F   0  0  0  0  0  0  0  0  0  0  0  0
  -21.2850   -4.8220   25.7750 F   0  0  0  0  0  0  0  0  0  0  0  0
  -23.6790  -14.3280   20.9790 C   0  0  0  0  0  0  0  0  0  0  0  0
  -22.9660  -13.6960   21.9050 N   0  0  0  0  0  0  0  0  0  0  0  0
  -23.2740  -15.3700   20.4650 O   0  0  0  0  0  0  0  0  0  0  0  0
  -23.3070  -12.8520   22.3430 H   0  0  0  0  0  0  0  0  0  0  0  0
  -22.0650  -14.0600   22.1810 H   0  0  0  0  0  0  0  0  0  0  0  0
  -26.3960  -15.8170   20.0950 N   0  0  0  0  0  0  0  0  0  0  0  0
  -25.7030  -16.5310   20.2850 H   0  0  0  0  0  0  0  0  0  0  0  0
  -27.2940  -16.1980   19.8210 H   0  0  0  0  0  0  0  0  0  0  0  0
  -27.9530  -23.3700   19.3440 C   0  0  0  0  0  2  0  0  0  0  0  0
  -28.9810  -24.4770   19.6980 C   0  0  0  0  0  2  0  0  0  0  0  0
  -28.4140  -25.7310   20.4100 C   0  0  0  0  0  2  0  0  0  0  0  0
  -28.3400  -26.8770   19.5520 O   0  0  0  0  0  0  0  0  0  0  0  0
  -24.5410  -31.6860   23.2050 C   0  0  0  0  0  0  0  0  0  0  0  0
  -27.1750  -27.5970   19.6680 C   0  0  0  0  0  0  0  0  0  0  0  0
  -23.3200  -30.4240   21.4640 C   0  0  0  0  0  3  0  0  0  0  0  0
  -24.7630  -29.0460   19.8760 C   0  0  0  0  0  0  0  0  0  0  0  0
  -25.8350  -30.8420   21.2500 C   0  0  0  0  0  2  0  0  0  0  0  0
  -25.9260  -29.5360   20.4840 C   0  0  0  0  0  0  0  0  0  0  0  0
  -27.1390  -28.8190   20.3780 C   0  0  0  0  0  3  0  0  0  0  0  0
  -25.9990  -27.1180   19.0570 C   0  0  0  0  0  3  0  0  0  0  0  0
  -24.7930  -27.8370   19.1600 C   0  0  0  0  0  3  0  0  0  0  0  0
  -23.5090  -29.8770   20.0230 C   0  0  0  0  0  2  0  0  0  0  0  0
  -24.5850  -30.9920   22.0330 N   0  0  0  0  0  0  0  0  0  0  0  0
  -23.4680  -31.8890   23.7910 O   0  0  0  0  0  0  0  0  0  0  0  0
  -22.7020  -29.3080   22.3380 C   0  0  0  0  0  0  0  0  0  0  0  0
  -21.3800  -29.1140   22.2140 N   0  0  0  0  0  0  0  0  0  0  0  0
  -23.4100  -28.6260   23.0830 O   0  0  0  0  0  0  0  0  0  0  0  0
  -20.8670  -29.7230   21.5920 H   0  0  0  0  0  0  0  0  0  0  0  0
  -18.0450  -27.7790   22.6060 C   0  0  0  0  0  0  0  0  0  0  0  0
  -20.5930  -28.0940   22.9080 C   0  0  0  0  0  3  0  0  0  0  0  0
  -20.7400  -26.7150   22.2220 C   0  0  0  0  0  2  0  0  0  0  0  0
  -19.6500  -26.4380   21.1820 C   0  0  0  0  0  2  0  0  0  0  0  0
  -18.2640  -26.4910   21.8300 C   0  0  0  0  0  2  0  0  0  0  0  0
  -19.1390  -28.5390   23.0990 C   0  0  0  0  0  0  0  0  0  0  0  0
  -18.8810  -29.7470   23.7810 C   0  0  0  0  0  3  0  0  0  0  0  0
  -17.5610  -30.1960   23.9780 C   0  0  0  0  0  3  0  0  0  0  0  0
  -16.4810  -29.4320   23.5020 C   0  0  0  0  0  3  0  0  0  0  0  0
  -16.7240  -28.2260   22.8210 C   0  0  0  0  0  3  0  0  0  0  0  0
  -25.8320  -32.2750   23.8550 C   0  0  0  0  0  3  0  0  0  0  0  0
  -25.5300  -33.6520   24.2710 N   0  0  0  0  0  0  0  0  0  0  0  0
  -25.8780  -34.7460   23.5810 C   0  0  0  0  0  0  0  0  0  0  0  0
  -26.5560  -34.7010   22.5500 O   0  0  0  0  0  0  0  0  0  0  0  0
  -24.9280  -33.7610   25.0740 H   0  0  0  0  0  0  0  0  0  0  0  0
  -24.1670  -36.5710   23.3200 C   0  0  0  0  0  1  0  0  0  0  0  0
  -25.3960  -36.1070   24.1190 C   0  0  0  0  0  3  0  0  0  0  0  0
  -27.5260  -36.9210   25.0290 C   0  0  0  0  0  1  0  0  0  0  0  0
  -26.4380  -37.1560   24.0830 N   0  0  0  0  0  0  0  0  0  0  0  0
  -26.0360  -38.0690   24.2820 H   0  0  0  0  0  0  0  0  0  0  0  0
  -26.3570  -31.4260   25.0770 C   0  0  1  0  0  0  0  0  0  0  0  0
  -25.2760  -31.1350   26.1450 C   0  0  0  0  0  1  0  0  0  0  0  0
  -26.9200  -30.0700   24.5950 C   0  0  0  0  0  1  0  0  0  0  0  0
  -27.5250  -32.1690   25.7680 C   0  0  0  0  0  1  0  0  0  0  0  0
  1  2  1  0
  2  4  1  0
  2  3  1  1
  5 10  1  0
  5  4  2  0
  7  6  1  0
  8  6  2  0
  9 11  2  0
  9 10  1  0
 10  7  2  0
 11  8  1  0
 13 18  1  0
 14 15  1  0
 14 13  1  0
 16 15  1  0
 16 25  1  0
 16 17  1  0
 18 12  1  0
 18 17  1  0
 19 12  2  0
 20 12  1  0
 20 11  1  0
 21 20  1  0
 22 23  2  0
 23 42  1  0
 24 23  1  0
 24 27  1  0
 25 26  1  0
 25 22  1  0
 26 24  2  0
 27 28  1  0
 28 29  2  0
 30 33  1  0
 30 29  1  0
 31 30  2  0
 32 31  1  0
 32 27  2  0
 33 34  1  0
 34 35  1  0
 35 36  2  0
 37 36  1  0
 37 41  1  0
 38 37  2  0
 39 34  2  0
 39 38  1  0
 40 39  1  0
 42 43  1  0
 43 46  1  0
 43 45  1  0
 44 42  2  0
 47 22  1  0
 47 48  1  0
 49 47  1  0
 50 51  1  0
 50  2  1  0
 51 52  1  0
 53 55  1  0
 53 52  1  0
 54 65  2  0
 55 60  1  0
 56 64  1  0
 56 66  1  0
 57 63  1  0
 57 59  1  0
 58 64  1  0
 59 58  1  0
 60 59  2  0
 61 62  1  0
 61 55  2  0
 62 57  2  0
 63 56  1  0
 64 54  1  0
 66 68  2  0
 67 66  1  0
 69 67  1  0
 70 79  2  0
 70 75  1  0
 71 67  1  0
 71 75  1  0
 72 71  1  0
 73 74  1  0
 73 72  1  0
 74 70  1  0
 75 76  2  0
 76 77  1  0
 78 77  2  0
 79 78  1  0
 80 54  1  0
 80 81  1  0
 80 90  1  0
 81 84  1  0
 82 86  1  0
 82 81  1  0
 83 82  2  0
 86 85  1  0
 88 86  1  0
 88 89  1  0
 88 87  1  0
 90 93  1  1
 90 91  1  0
 92 90  1  0
M  ISO  4  12 100  20 100  52 101  53 101
M  END
>  <TORSDO>  (70) 
F 22

>  <SCORE>  (70) 
-9.810

>  <name>  (70) 
69

>  <ligand_id>  (70) 
69

>  <original_smiles>  (70) 
[H]c1c([H])c([H])c2c(c1[H])C([H])([H])C([H])([H])C([H])([H])C2([H])N([H])C(=O)C1([H])N(C(=O)C([H])(N([H])C(=O)C([H])(N([H])C([H])([H])[H])C([H])([H])[H])C(C([H])([H])[H])(C([H])([H])[H])C([H])([H])[H])C([H])([H])c2c([H])c(OC([H])([H])C([H])([H])C([H])([H])[N+]([H])(C([H])([H])[H])C([H])([H])C([H])([H])c3c([H])c([H])c([H])c(N([H])C(=O)N4C([H])([H])C([H])([H])C([H])([H])C([H])(n5nc(-c6c([H])c([H])c(Oc7c([H])c([H])c(F)c([H])c7F)c([H])c6[H])c(C(=O)N([H])[H])c5N([H])[H])C4([H])[H])c3[H])c([H])c([H])c2C1([H])[H]

>  <smiles>  (70) 
[H]c1c([H])c([H])c2c(c1[H])C([H])([H])C([H])([H])C([H])([H])C2([H])N([H])C(=O)C1([H])N(C(=O)C([H])(N([H])C(=O)C([H])(N([H])C([H])([H])[H])C([H])([H])[H])C(C([H])([H])[H])(C([H])([H])[H])C([H])([H])[H])C([H])([H])c2c([H])c(OC([H])([H])C([H])([H])C([H])([H])[N+]([H])(C([H])([H])[H])C([H])([H])C([H])([H])c3c([H])c([H])c([H])c(N([H])C(=O)N4C([H])([H])C([H])([H])C([H])([H])C([H])(n5nc(-c6c([H])c([H])c(Oc7c([H])c([H])c(F)c([H])c7F)c([H])c6[H])c(C(=O)N([H])[H])c5N([H])[H])C4([H])[H])c3[H])c([H])c([H])c2C1([H])[H]

$$$$
70:0:0
     RDKit          3D

 96104  0  0  1  0  0  0  0  0999 V2000
  -29.2650  -20.9650   19.7370 C   0  0  0  0  0  3  0  0  0  0  0  0
  -29.3460  -22.1590   20.4810 C   0  0  0  0  0  0  0  0  0  0  0  0
  -29.8200  -21.6810   21.7640 C   0  0  0  0  0  0  0  0  0  0  0  0
  -30.0090  -20.3050   21.7150 C   0  0  0  0  0  0  0  0  0  0  0  0
  -30.5630  -19.3660   22.7570 C   0  0  0  0  0  1  0  0  0  0  0  0
  -29.7500  -19.8220   20.4370 N   0  0  0  0  0  0  0  0  0  0  0  0
  -29.2700  -23.6780   23.3010 C   0  0  0  0  0  1  0  0  0  0  0  0
  -31.6690  -22.9990   22.8830 C   0  0  0  0  0  1  0  0  0  0  0  0
  -30.2120  -22.5160   22.9850 C   0  0  0  0  0  3  0  0  0  0  0  0
  -30.1800  -18.4260   19.9150 C   0  0  0  0  0  2  0  0  0  0  0  0
  -29.3840  -17.0410   20.2050 C   0  0  0  0  0  2  0  0  0  0  0  0
  -30.6600  -14.6790   19.9340 C   0  0  0  0  0  0  0  0  0  0  0  0
  -30.4170  -12.4070   18.8850 C   0  0  0  0  0  2  0  0  0  0  0  0
  -29.3950  -12.4480   17.7290 C   0  0  0  0  0  2  0  0  0  0  0  0
  -27.9570  -12.2550   18.2540 C   0  0  0  0  0  2  0  0  0  0  0  0
  -27.6580  -13.1390   19.4930 C   0  0  0  0  0  3  0  0  0  0  0  0
  -28.7890  -13.0530   20.5420 C   0  0  0  0  0  2  0  0  0  0  0  0
  -30.0420  -13.4430   19.8790 N   0  0  0  0  0  0  0  0  0  0  0  0
  -31.7230  -14.8540   19.3290 O   0  0  0  0  0  0  0  0  0  0  0  0
  -30.3480  -15.7040   22.0850 C   0  0  0  0  0  1  0  0  0  0  0  0
  -30.0650  -15.7220   20.6470 N   0  0  0  0  0  0  0  0  0  0  0  0
  -25.3160  -13.7000   20.3840 C   0  0  0  0  0  0  0  0  0  0  0  0
  -24.2870  -12.9130   20.8210 C   0  0  0  0  0  0  0  0  0  0  0  0
  -24.7580  -11.5680   20.7460 C   0  0  0  0  0  0  0  0  0  0  0  0
  -26.3510  -12.8330   20.0700 N   0  0  0  0  0  0  0  0  0  0  0  0
  -26.0240  -11.5440   20.3460 N   0  0  0  0  0  0  0  0  0  0  0  0
  -24.0570  -10.2970   20.9710 C   0  0  0  0  0  0  0  0  0  0  0  0
  -24.4940   -9.3750   21.9460 C   0  0  0  0  0  3  0  0  0  0  0  0
  -23.7920   -8.1700   22.1590 C   0  0  0  0  0  3  0  0  0  0  0  0
  -22.6370   -7.8790   21.3950 C   0  0  0  0  0  0  0  0  0  0  0  0
  -22.2180   -8.7900   20.4100 C   0  0  0  0  0  3  0  0  0  0  0  0
  -22.9220   -9.9870   20.1960 C   0  0  0  0  0  3  0  0  0  0  0  0
  -21.9080   -6.7220   21.5140 O   0  0  0  0  0  0  0  0  0  0  0  0
  -21.7810   -6.0680   22.7130 C   0  0  0  0  0  0  0  0  0  0  0  0
  -21.2110   -6.6950   23.8430 C   0  0  0  0  0  3  0  0  0  0  0  0
  -21.0350   -5.9670   25.0370 C   0  0  0  0  0  3  0  0  0  0  0  0
  -21.4230   -4.6160   25.1030 C   0  0  0  0  0  0  0  0  0  0  0  0
  -21.9850   -3.9900   23.9780 C   0  0  0  0  0  3  0  0  0  0  0  0
  -22.1600   -4.7130   22.7860 C   0  0  0  0  0  0  0  0  0  0  0  0
  -22.6850   -4.0980   21.6980 F   0  0  0  0  0  0  0  0  0  0  0  0
  -21.2470   -3.9170   26.2500 F   0  0  0  0  0  0  0  0  0  0  0  0
  -22.9070  -13.3780   21.1890 C   0  0  0  0  0  0  0  0  0  0  0  0
  -22.2420  -12.6680   22.0940 N   0  0  0  0  0  0  0  0  0  0  0  0
  -22.4300  -14.4010   20.7020 O   0  0  0  0  0  0  0  0  0  0  0  0
  -22.6410  -11.8330   22.4990 H   0  0  0  0  0  0  0  0  0  0  0  0
  -21.3160  -12.9600   22.3780 H   0  0  0  0  0  0  0  0  0  0  0  0
  -25.4520  -15.0730   20.2070 N   0  0  0  0  0  0  0  0  0  0  0  0
  -24.6870  -15.7200   20.3750 H   0  0  0  0  0  0  0  0  0  0  0  0
  -26.2790  -15.5250   19.8380 H   0  0  0  0  0  0  0  0  0  0  0  0
  -29.2410  -23.7130   19.9990 C   0  0  0  0  0  3  0  0  0  0  0  0
  -29.5060  -23.7510   18.5500 N   0  0  0  0  0  4  0  0  0  0  0  0
  -28.7520  -23.3300   18.0360 H   0  0  0  0  0  0  0  0  0  0  0  0
  -30.3520  -23.2490   18.3450 H   0  0  0  0  0  0  0  0  0  0  0  0
  -29.6180  -24.6990   18.2370 H   0  0  0  0  0  0  0  0  0  0  0  0
  -28.0480  -24.7770   20.3530 C   0  0  0  0  0  2  0  0  0  0  0  0
  -28.2940  -26.2740   20.2300 O   0  0  0  0  0  0  0  0  0  0  0  0
  -24.6540  -31.8510   23.2210 C   0  0  0  0  0  0  0  0  0  0  0  0
  -27.2050  -27.1890   20.1980 C   0  0  0  0  0  0  0  0  0  0  0  0
  -23.4420  -30.4660   21.5780 C   0  0  0  0  0  3  0  0  0  0  0  0
  -24.8760  -28.8860   20.1670 C   0  0  0  0  0  0  0  0  0  0  0  0
  -25.9920  -30.7340   21.4090 C   0  0  0  0  0  2  0  0  0  0  0  0
  -26.0540  -29.3460   20.7690 C   0  0  0  0  0  0  0  0  0  0  0  0
  -27.2220  -28.5100   20.7730 C   0  0  0  0  0  3  0  0  0  0  0  0
  -26.0040  -26.8110   19.5540 C   0  0  0  0  0  3  0  0  0  0  0  0
  -24.8560  -27.6260   19.5550 C   0  0  0  0  0  3  0  0  0  0  0  0
  -23.6570  -29.7870   20.2000 C   0  0  0  0  0  2  0  0  0  0  0  0
  -24.7150  -31.0360   22.1250 N   0  0  0  0  0  0  0  0  0  0  0  0
  -23.5690  -32.1400   23.7490 O   0  0  0  0  0  0  0  0  0  0  0  0
  -22.7590  -29.4600   22.5370 C   0  0  0  0  0  0  0  0  0  0  0  0
  -21.4290  -29.3010   22.4100 N   0  0  0  0  0  0  0  0  0  0  0  0
  -23.4270  -28.8250   23.3570 O   0  0  0  0  0  0  0  0  0  0  0  0
  -20.9480  -29.8680   21.7250 H   0  0  0  0  0  0  0  0  0  0  0  0
  -18.0370  -28.1490   22.9160 C   0  0  0  0  0  0  0  0  0  0  0  0
  -20.5980  -28.3750   23.1830 C   0  0  0  0  0  3  0  0  0  0  0  0
  -20.6800  -26.9400   22.6120 C   0  0  0  0  0  2  0  0  0  0  0  0
  -19.5730  -26.6310   21.5990 C   0  0  0  0  0  2  0  0  0  0  0  0
  -18.1930  -26.7960   22.2410 C   0  0  0  0  0  2  0  0  0  0  0  0
  -19.1650  -28.8970   23.3440 C   0  0  0  0  0  0  0  0  0  0  0  0
  -18.9640  -30.1620   23.9360 C   0  0  0  0  0  3  0  0  0  0  0  0
  -17.6660  -30.6810   24.1050 C   0  0  0  0  0  3  0  0  0  0  0  0
  -16.5510  -29.9310   23.6910 C   0  0  0  0  0  3  0  0  0  0  0  0
  -16.7370  -28.6670   23.1010 C   0  0  0  0  0  3  0  0  0  0  0  0
  -25.9380  -32.4720   23.8480 C   0  0  0  0  0  3  0  0  0  0  0  0
  -25.6300  -33.8660   24.2040 N   0  0  0  0  0  0  0  0  0  0  0  0
  -25.9660  -34.9330   23.4650 C   0  0  0  0  0  0  0  0  0  0  0  0
  -26.6340  -34.8460   22.4310 O   0  0  0  0  0  0  0  0  0  0  0  0
  -25.0410  -34.0080   25.0110 H   0  0  0  0  0  0  0  0  0  0  0  0
  -24.2460  -36.7390   23.1460 C   0  0  0  0  0  1  0  0  0  0  0  0
  -25.4870  -36.3160   23.9490 C   0  0  0  0  0  3  0  0  0  0  0  0
  -27.6270  -37.1790   24.7900 C   0  0  0  0  0  1  0  0  0  0  0  0
  -26.5240  -37.3660   23.8500 N   0  0  0  0  0  0  0  0  0  0  0  0
  -26.1240  -38.2880   24.0080 H   0  0  0  0  0  0  0  0  0  0  0  0
  -26.4570  -31.6800   25.1110 C   0  0  1  0  0  0  0  0  0  0  0  0
  -25.3660  -31.4240   26.1770 C   0  0  0  0  0  1  0  0  0  0  0  0
  -27.0460  -30.3110   24.7010 C   0  0  0  0  0  1  0  0  0  0  0  0
  -27.6060  -32.4670   25.7820 C   0  0  0  0  0  1  0  0  0  0  0  0
  1  6  1  0
  1  2  2  0
  2  3  1  0
  3  9  1  0
  4  3  2  0
  4  5  1  0
  6  4  1  0
  8  9  1  0
  9  7  1  0
 10 11  1  0
 10  6  1  0
 11 21  1  0
 12 21  1  0
 13 18  1  0
 14 15  1  0
 14 13  1  0
 16 15  1  0
 16 25  1  0
 16 17  1  0
 18 12  1  0
 18 17  1  0
 19 12  2  0
 21 20  1  0
 22 23  2  0
 23 42  1  0
 24 23  1  0
 24 27  1  0
 25 26  1  0
 25 22  1  0
 26 24  2  0
 27 28  1  0
 28 29  2  0
 30 33  1  0
 30 29  1  0
 31 30  2  0
 32 31  1  0
 32 27  2  0
 33 34  1  0
 34 39  2  0
 34 35  1  0
 35 36  2  0
 36 37  1  0
 37 41  1  0
 38 37  2  0
 39 38  1  0
 40 39  1  0
 42 43  1  0
 43 46  1  0
 43 45  1  0
 44 42  2  0
 47 48  1  0
 47 22  1  0
 49 47  1  0
 50 55  1  0
 50  2  1  0
 51 50  1  0
 52 51  1  0
 53 51  1  0
 54 51  1  0
 56 55  1  0
 57 68  2  0
 58 56  1  0
 58 63  1  0
 59 67  1  0
 59 69  1  0
 60 66  1  0
 60 62  1  0
 61 67  1  0
 62 63  2  0
 62 61  1  0
 64 65  1  0
 64 58  2  0
 65 60  2  0
 66 59  1  0
 67 57  1  0
 69 71  2  0
 70 69  1  0
 72 70  1  0
 73 82  2  0
 73 78  1  0
 74 70  1  0
 74 78  1  0
 75 74  1  0
 76 77  1  0
 76 75  1  0
 77 73  1  0
 78 79  2  0
 79 80  1  0
 81 80  2  0
 82 81  1  0
 83 57  1  0
 83 84  1  0
 83 93  1  0
 84 87  1  0
 85 89  1  0
 85 84  1  0
 86 85  2  0
 89 88  1  0
 91 89  1  0
 91 92  1  0
 91 90  1  0
 93 96  1  1
 93 94  1  0
 95 93  1  0
M  ISO  4  12 100  21 100  55 101  56 101
M  END
>  <TORSDO>  (71) 
F 22

>  <SCORE>  (71) 
-10.642

>  <name>  (71) 
70

>  <ligand_id>  (71) 
70

>  <original_smiles>  (71) 
[H]c1c([H])c([H])c2c(c1[H])C([H])([H])C([H])([H])C([H])([H])C2([H])N([H])C(=O)C1([H])N(C(=O)C([H])(N([H])C(=O)C([H])(N([H])C([H])([H])[H])C([H])([H])[H])C(C([H])([H])[H])(C([H])([H])[H])C([H])([H])[H])C([H])([H])c2c([H])c(OC([H])([H])C([H])(c3c(C([H])(C([H])([H])[H])C([H])([H])[H])c(C([H])([H])[H])n(C([H])([H])C([H])([H])N(C(=O)N4C([H])([H])C([H])([H])C([H])([H])C([H])(n5nc(-c6c([H])c([H])c(Oc7c([H])c([H])c(F)c([H])c7F)c([H])c6[H])c(C(=O)N([H])[H])c5N([H])[H])C4([H])[H])C([H])([H])[H])c3[H])[N+]([H])([H])[H])c([H])c([H])c2C1([H])[H]

>  <smiles>  (71) 
[H]c1c([H])c([H])c2c(c1[H])C([H])([H])C([H])([H])C([H])([H])C2([H])N([H])C(=O)C1([H])N(C(=O)C([H])(N([H])C(=O)C([H])(N([H])C([H])([H])[H])C([H])([H])[H])C(C([H])([H])[H])(C([H])([H])[H])C([H])([H])[H])C([H])([H])c2c([H])c(OC([H])([H])C([H])(c3c(C([H])(C([H])([H])[H])C([H])([H])[H])c(C([H])([H])[H])n(C([H])([H])C([H])([H])N(C(=O)N4C([H])([H])C([H])([H])C([H])([H])C([H])(n5nc(-c6c([H])c([H])c(Oc7c([H])c([H])c(F)c([H])c7F)c([H])c6[H])c(C(=O)N([H])[H])c5N([H])[H])C4([H])[H])C([H])([H])[H])c3[H])[N+]([H])([H])[H])c([H])c([H])c2C1([H])[H]

$$$$
71:0:0
     RDKit          3D

 93100  0  0  1  0  0  0  0  0999 V2000
  -29.7210  -19.8480   19.5770 N   0  0  0  0  0  4  0  0  0  0  0  0
  -30.7220  -19.8930   19.6500 H   0  0  0  0  0  0  0  0  0  0  0  0
  -29.5190  -20.0680   18.6170 H   0  0  0  0  0  0  0  0  0  0  0  0
  -29.1140  -21.0090   20.3830 C   0  0  0  0  0  3  0  0  0  0  0  0
  -29.1830  -22.4730   19.7000 C   0  0  0  0  0  3  0  0  0  0  0  0
  -28.6240  -23.7880   20.4490 C   0  0  0  0  0  3  0  0  0  0  0  0
  -28.5790  -25.1760   19.6400 C   0  0  0  0  0  3  0  0  0  0  0  0
  -28.3830  -26.4740   20.3390 O   0  0  0  0  0  0  0  0  0  0  0  0
  -24.6290  -31.8920   23.2570 C   0  0  0  0  0  0  0  0  0  0  0  0
  -27.2310  -27.2780   20.2520 C   0  0  0  0  0  0  0  0  0  0  0  0
  -23.4210  -30.4980   21.6130 C   0  0  0  0  0  3  0  0  0  0  0  0
  -24.8660  -28.9080   20.2150 C   0  0  0  0  0  0  0  0  0  0  0  0
  -25.9640  -30.7820   21.4460 C   0  0  0  0  0  2  0  0  0  0  0  0
  -26.0340  -29.3970   20.8130 C   0  0  0  0  0  0  0  0  0  0  0  0
  -27.2120  -28.5930   20.8220 C   0  0  0  0  0  3  0  0  0  0  0  0
  -26.0320  -26.8310   19.6490 C   0  0  0  0  0  3  0  0  0  0  0  0
  -24.8690  -27.6310   19.6270 C   0  0  0  0  0  3  0  0  0  0  0  0
  -23.6380  -29.8010   20.2430 C   0  0  0  0  0  2  0  0  0  0  0  0
  -24.6910  -31.0750   22.1630 N   0  0  0  0  0  0  0  0  0  0  0  0
  -23.5430  -32.1890   23.7770 O   0  0  0  0  0  0  0  0  0  0  0  0
  -22.7350  -29.5020   22.5760 C   0  0  0  0  0  0  0  0  0  0  0  0
  -21.4080  -29.3440   22.4350 N   0  0  0  0  0  0  0  0  0  0  0  0
  -23.3940  -28.8720   23.4080 O   0  0  0  0  0  0  0  0  0  0  0  0
  -20.9370  -29.9010   21.7360 H   0  0  0  0  0  0  0  0  0  0  0  0
  -18.0020  -28.2170   22.9250 C   0  0  0  0  0  0  0  0  0  0  0  0
  -20.5660  -28.4240   23.2020 C   0  0  0  0  0  3  0  0  0  0  0  0
  -20.6390  -26.9900   22.6280 C   0  0  0  0  0  2  0  0  0  0  0  0
  -19.5330  -26.6900   21.6110 C   0  0  0  0  0  2  0  0  0  0  0  0
  -18.1520  -26.8650   22.2500 C   0  0  0  0  0  2  0  0  0  0  0  0
  -19.1360  -28.9560   23.3580 C   0  0  0  0  0  0  0  0  0  0  0  0
  -18.9410  -30.2220   23.9500 C   0  0  0  0  0  3  0  0  0  0  0  0
  -17.6470  -30.7500   24.1130 C   0  0  0  0  0  3  0  0  0  0  0  0
  -16.5280  -30.0090   23.6940 C   0  0  0  0  0  3  0  0  0  0  0  0
  -16.7070  -28.7440   23.1070 C   0  0  0  0  0  3  0  0  0  0  0  0
  -25.9130  -32.5110   23.8900 C   0  0  0  0  0  3  0  0  0  0  0  0
  -25.6120  -33.9090   24.2290 N   0  0  0  0  0  0  0  0  0  0  0  0
  -25.9480  -34.9650   23.4760 C   0  0  0  0  0  0  0  0  0  0  0  0
  -26.6130  -34.8630   22.4410 O   0  0  0  0  0  0  0  0  0  0  0  0
  -25.0240  -34.0640   25.0350 H   0  0  0  0  0  0  0  0  0  0  0  0
  -24.2300  -36.7690   23.1380 C   0  0  0  0  0  1  0  0  0  0  0  0
  -25.4730  -36.3550   23.9420 C   0  0  0  0  0  3  0  0  0  0  0  0
  -27.6140  -37.2250   24.7690 C   0  0  0  0  0  1  0  0  0  0  0  0
  -26.5120  -37.4000   23.8260 N   0  0  0  0  0  0  0  0  0  0  0  0
  -26.1140  -38.3230   23.9730 H   0  0  0  0  0  0  0  0  0  0  0  0
  -26.4140  -31.7280   25.1660 C   0  0  1  0  0  0  0  0  0  0  0  0
  -25.3110  -31.4880   26.2230 C   0  0  0  0  0  1  0  0  0  0  0  0
  -26.9940  -30.3520   24.7660 C   0  0  0  0  0  1  0  0  0  0  0  0
  -27.5670  -32.5100   25.8400 C   0  0  0  0  0  1  0  0  0  0  0  0
  -29.3120  -18.3630   19.6720 C   0  0  0  0  0  3  0  0  0  0  0  0
  -27.7990  -18.1280   19.8840 C   0  0  0  0  0  0  0  0  0  0  0  0
  -26.9260  -18.8880   19.2270 N   0  0  0  0  0  0  0  0  0  0  0  0
  -27.3930  -17.2430   20.6360 O   0  0  0  0  0  0  0  0  0  0  0  0
  -27.2100  -19.5970   18.5680 H   0  0  0  0  0  0  0  0  0  0  0  0
  -25.9360  -18.7410   19.3720 H   0  0  0  0  0  0  0  0  0  0  0  0
  -30.2880  -17.3010   20.4090 C   0  0  0  0  0  2  0  0  0  0  0  0
  -30.6320  -14.6960   20.3060 C   0  0  0  0  0  0  0  0  0  0  0  0
  -30.3870  -12.4360   19.3010 C   0  0  0  0  0  2  0  0  0  0  0  0
  -29.4560  -12.5480   18.0760 C   0  0  0  0  0  2  0  0  0  0  0  0
  -27.9790  -12.4040   18.4990 C   0  0  0  0  0  2  0  0  0  0  0  0
  -27.6150  -13.2880   19.7250 C   0  0  0  0  0  3  0  0  0  0  0  0
  -28.6740  -13.1760   20.8450 C   0  0  0  0  0  2  0  0  0  0  0  0
  -29.9810  -13.4910   20.2530 N   0  0  0  0  0  0  0  0  0  0  0  0
  -31.8170  -14.7850   19.9770 O   0  0  0  0  0  0  0  0  0  0  0  0
  -29.8780  -15.8300   20.5070 N   0  0  0  0  0  0  0  0  0  0  0  0
  -28.9110  -15.6740   20.7550 H   0  0  0  0  0  0  0  0  0  0  0  0
  -25.2290  -13.8990   20.4560 C   0  0  0  0  0  0  0  0  0  0  0  0
  -24.1550  -13.1340   20.8180 C   0  0  0  0  0  0  0  0  0  0  0  0
  -24.6070  -11.7790   20.7850 C   0  0  0  0  0  0  0  0  0  0  0  0
  -26.2660  -13.0140   20.2170 N   0  0  0  0  0  0  0  0  0  0  0  0
  -25.8970  -11.7310   20.4780 N   0  0  0  0  0  0  0  0  0  0  0  0
  -23.8680  -10.5230   20.9710 C   0  0  0  0  0  0  0  0  0  0  0  0
  -24.2860   -9.5510   21.9080 C   0  0  0  0  0  3  0  0  0  0  0  0
  -23.5470   -8.3610   22.0840 C   0  0  0  0  0  3  0  0  0  0  0  0
  -22.3740   -8.1330   21.3240 C   0  0  0  0  0  0  0  0  0  0  0  0
  -21.9750   -9.0940   20.3790 C   0  0  0  0  0  3  0  0  0  0  0  0
  -22.7140  -10.2750   20.2010 C   0  0  0  0  0  3  0  0  0  0  0  0
  -21.6090   -6.9940   21.4090 O   0  0  0  0  0  0  0  0  0  0  0  0
  -21.5440   -6.2560   22.5630 C   0  0  0  0  0  0  0  0  0  0  0  0
  -21.1120   -6.8150   23.7840 C   0  0  0  0  0  3  0  0  0  0  0  0
  -20.9930   -6.0010   24.9280 C   0  0  0  0  0  3  0  0  0  0  0  0
  -21.2980   -4.6300   24.8520 C   0  0  0  0  0  0  0  0  0  0  0  0
  -21.7230   -4.0690   23.6340 C   0  0  0  0  0  3  0  0  0  0  0  0
  -21.8440   -4.8810   22.4930 C   0  0  0  0  0  0  0  0  0  0  0  0
  -22.2340   -4.3310   21.3170 F   0  0  0  0  0  0  0  0  0  0  0  0
  -21.1770   -3.8460   25.9480 F   0  0  0  0  0  0  0  0  0  0  0  0
  -22.7610  -13.6220   21.0870 C   0  0  0  0  0  0  0  0  0  0  0  0
  -22.0250  -12.9400   21.9560 N   0  0  0  0  0  0  0  0  0  0  0  0
  -22.3350  -14.6500   20.5610 O   0  0  0  0  0  0  0  0  0  0  0  0
  -22.3780  -12.1110   22.4110 H   0  0  0  0  0  0  0  0  0  0  0  0
  -21.0910  -13.2550   22.1700 H   0  0  0  0  0  0  0  0  0  0  0  0
  -25.3990  -15.2710   20.3010 N   0  0  0  0  0  0  0  0  0  0  0  0
  -24.6410  -15.9120   20.5060 H   0  0  0  0  0  0  0  0  0  0  0  0
  -26.2940  -15.7400   20.2410 H   0  0  0  0  0  0  0  0  0  0  0  0
  1  2  1  0
  1 49  1  0
  1  4  1  0
  3  1  1  0
  5  4  2  0
  5  6  1  0
  7  8  1  0
  7  6  2  0
  9 20  2  0
 10  8  1  0
 10 15  1  0
 11 19  1  0
 11 21  1  0
 12 18  1  0
 12 14  1  0
 13 19  1  0
 14 15  2  0
 14 13  1  0
 16 10  2  0
 17 16  1  0
 17 12  2  0
 18 11  1  0
 19  9  1  0
 21 23  2  0
 22 21  1  0
 24 22  1  0
 25 34  2  0
 25 30  1  0
 26 22  1  0
 26 30  1  0
 27 26  1  0
 28 29  1  0
 28 27  1  0
 29 25  1  0
 30 31  2  0
 31 32  1  0
 33 32  2  0
 34 33  1  0
 35  9  1  0
 35 36  1  0
 35 45  1  0
 36 39  1  0
 37 41  1  0
 37 36  1  0
 38 37  2  0
 41 40  1  0
 43 41  1  0
 43 44  1  0
 43 42  1  0
 45 48  1  1
 45 46  1  0
 47 45  1  0
 49 50  1  0
 49 55  1  0
 50 52  2  0
 51 54  1  0
 51 50  1  0
 53 51  1  0
 55 64  1  0
 56 64  1  0
 57 62  1  0
 58 59  1  0
 58 57  1  0
 60 59  1  0
 60 69  1  0
 60 61  1  0
 62 56  1  0
 62 61  1  0
 63 56  2  0
 64 65  1  0
 66 67  2  0
 67 86  1  0
 68 67  1  0
 68 71  1  0
 69 66  1  0
 69 70  1  0
 70 68  2  0
 71 72  1  0
 72 73  2  0
 74 77  1  0
 74 73  1  0
 75 74  2  0
 76 75  1  0
 76 71  2  0
 77 78  1  0
 78 79  1  0
 79 80  2  0
 81 80  1  0
 81 85  1  0
 82 81  2  0
 83 78  2  0
 83 82  1  0
 84 83  1  0
 86 87  1  0
 87 90  1  0
 87 89  1  0
 88 86  2  0
 91 66  1  0
 91 92  1  0
 93 91  1  0
M  ISO  4   7 101   8 101  56 100  64 100
M  END
>  <TORSDO>  (72) 
F 23

>  <SCORE>  (72) 
-12.898

>  <name>  (72) 
71

>  <ligand_id>  (72) 
71

>  <original_smiles>  (72) 
[H]c1c([H])c([H])c2c(c1[H])C([H])([H])C([H])([H])C([H])([H])C2([H])N([H])C(=O)C1([H])N(C(=O)C([H])(N([H])C(=O)C([H])(N([H])C([H])([H])[H])C([H])([H])[H])C(C([H])([H])[H])(C([H])([H])[H])C([H])([H])[H])C([H])([H])c2c([H])c(OC([H])([H])C([H])([H])C([H])([H])C([H])([H])[N+]([H])([H])C([H])(C(=O)N([H])[H])C([H])([H])N([H])C(=O)N3C([H])([H])C([H])([H])C([H])([H])C([H])(n4nc(-c5c([H])c([H])c(Oc6c([H])c([H])c(F)c([H])c6F)c([H])c5[H])c(C(=O)N([H])[H])c4N([H])[H])C3([H])[H])c([H])c([H])c2C1([H])[H]

>  <smiles>  (72) 
[H]c1c([H])c([H])c2c(c1[H])C([H])([H])C([H])([H])C([H])([H])C2([H])N([H])C(=O)C1([H])N(C(=O)C([H])(N([H])C(=O)C([H])(N([H])C([H])([H])[H])C([H])([H])[H])C(C([H])([H])[H])(C([H])([H])[H])C([H])([H])[H])C([H])([H])c2c([H])c(OC([H])([H])C([H])([H])C([H])([H])C([H])([H])[N+]([H])([H])C([H])(C(=O)N([H])[H])C([H])([H])N([H])C(=O)N3C([H])([H])C([H])([H])C([H])([H])C([H])(n4nc(-c5c([H])c([H])c(Oc6c([H])c([H])c(F)c([H])c6F)c([H])c5[H])c(C(=O)N([H])[H])c4N([H])[H])C3([H])[H])c([H])c([H])c2C1([H])[H]

$$$$
72:0:0
     RDKit          3D

 92100  0  0  1  0  0  0  0  0999 V2000
  -28.7740  -19.8680   19.6550 C   0  0  0  0  0  3  0  0  0  0  0  0
  -30.6900  -18.7190   21.2810 C   0  0  0  0  0  3  0  0  0  0  0  0
  -29.5780  -20.8200   20.3460 C   0  0  0  0  0  0  0  0  0  0  0  0
  -28.8890  -18.4290   19.7550 C   0  0  0  0  0  0  0  0  0  0  0  0
  -30.5610  -20.1690   21.1700 C   0  0  0  0  0  0  0  0  0  0  0  0
  -29.8730  -17.7680   20.5810 C   0  0  0  0  0  0  0  0  0  0  0  0
  -31.5430  -21.0350   21.9370 C   0  0  0  0  0  1  0  0  0  0  0  0
  -30.7480  -15.1680   20.6730 C   0  0  0  0  0  0  0  0  0  0  0  0
  -30.6940  -12.8280   19.7270 C   0  0  0  0  0  2  0  0  0  0  0  0
  -29.7910  -12.8150   18.4720 C   0  0  0  0  0  2  0  0  0  0  0  0
  -28.3150  -12.5990   18.8570 C   0  0  0  0  0  2  0  0  0  0  0  0
  -27.8740  -13.5050   20.0350 C   0  0  0  0  0  3  0  0  0  0  0  0
  -28.8980  -13.4860   21.1910 C   0  0  0  0  0  2  0  0  0  0  0  0
  -30.1940  -13.8950   20.6310 N   0  0  0  0  0  0  0  0  0  0  0  0
  -31.9520  -15.2960   20.4210 O   0  0  0  0  0  0  0  0  0  0  0  0
  -29.8690  -16.2600   20.8060 N   0  0  0  0  0  0  0  0  0  0  0  0
  -28.9360  -15.9060   20.9430 H   0  0  0  0  0  0  0  0  0  0  0  0
  -25.4700  -14.0930   20.7050 C   0  0  0  0  0  0  0  0  0  0  0  0
  -24.3920  -13.3170   21.0270 C   0  0  0  0  0  0  0  0  0  0  0  0
  -24.8550  -11.9670   20.9960 C   0  0  0  0  0  0  0  0  0  0  0  0
  -26.5190  -13.2140   20.4850 N   0  0  0  0  0  0  0  0  0  0  0  0
  -26.1550  -11.9300   20.7280 N   0  0  0  0  0  0  0  0  0  0  0  0
  -24.1220  -10.7050   21.1490 C   0  0  0  0  0  0  0  0  0  0  0  0
  -24.5140   -9.7360   22.0970 C   0  0  0  0  0  3  0  0  0  0  0  0
  -23.7830   -8.5380   22.2380 C   0  0  0  0  0  3  0  0  0  0  0  0
  -22.6450   -8.3020   21.4300 C   0  0  0  0  0  0  0  0  0  0  0  0
  -22.2730   -9.2610   20.4720 C   0  0  0  0  0  3  0  0  0  0  0  0
  -23.0050  -10.4510   20.3280 C   0  0  0  0  0  3  0  0  0  0  0  0
  -21.8880   -7.1560   21.4810 O   0  0  0  0  0  0  0  0  0  0  0  0
  -21.7700   -6.4230   22.6340 C   0  0  0  0  0  0  0  0  0  0  0  0
  -21.2320   -6.9760   23.8160 C   0  0  0  0  0  3  0  0  0  0  0  0
  -21.0630   -6.1680   24.9570 C   0  0  0  0  0  3  0  0  0  0  0  0
  -21.4200   -4.8070   24.9170 C   0  0  0  0  0  0  0  0  0  0  0  0
  -21.9520   -4.2530   23.7380 C   0  0  0  0  0  3  0  0  0  0  0  0
  -22.1220   -5.0580   22.5990 C   0  0  0  0  0  0  0  0  0  0  0  0
  -22.6130   -4.5150   21.4590 F   0  0  0  0  0  0  0  0  0  0  0  0
  -21.2520   -4.0270   26.0100 F   0  0  0  0  0  0  0  0  0  0  0  0
  -22.9870  -13.7960   21.2560 C   0  0  0  0  0  0  0  0  0  0  0  0
  -22.2330  -13.0990   22.0980 N   0  0  0  0  0  0  0  0  0  0  0  0
  -22.5660  -14.8220   20.7230 O   0  0  0  0  0  0  0  0  0  0  0  0
  -22.5870  -12.2690   22.5520 H   0  0  0  0  0  0  0  0  0  0  0  0
  -21.2890  -13.3990   22.2930 H   0  0  0  0  0  0  0  0  0  0  0  0
  -25.6360  -15.4630   20.5580 N   0  0  0  0  0  0  0  0  0  0  0  0
  -24.8550  -16.1030   20.6560 H   0  0  0  0  0  0  0  0  0  0  0  0
  -26.4780  -15.9180   20.2390 H   0  0  0  0  0  0  0  0  0  0  0  0
  -28.3270  -17.7250   17.3970 C   0  0  0  0  0  1  0  0  0  0  0  0
  -26.4540  -17.9380   19.0960 C   0  0  0  0  0  1  0  0  0  0  0  0
  -27.9430  -17.6050   18.8780 C   0  0  0  0  0  3  0  0  0  0  0  0
  -29.5180  -22.4070   19.9390 C   0  0  0  0  0  3  0  0  0  0  0  0
  -28.8900  -23.7140   20.7380 C   0  0  0  0  0  3  0  0  0  0  0  0
  -28.6540  -25.1550   19.9370 C   0  0  0  0  0  2  0  0  0  0  0  0
  -28.4970  -26.5620   20.5300 O   0  0  0  0  0  0  0  0  0  0  0  0
  -24.5930  -32.0220   23.4080 C   0  0  0  0  0  0  0  0  0  0  0  0
  -27.3680  -27.4340   20.4070 C   0  0  0  0  0  0  0  0  0  0  0  0
  -23.4580  -30.5970   21.7430 C   0  0  0  0  0  3  0  0  0  0  0  0
  -24.9750  -29.0670   20.3430 C   0  0  0  0  0  0  0  0  0  0  0  0
  -26.0010  -30.9450   21.6230 C   0  0  0  0  0  2  0  0  0  0  0  0
  -26.1240  -29.5600   20.9710 C   0  0  0  0  0  0  0  0  0  0  0  0
  -27.3160  -28.7560   20.9920 C   0  0  0  0  0  3  0  0  0  0  0  0
  -26.1880  -27.0210   19.7500 C   0  0  0  0  0  3  0  0  0  0  0  0
  -25.0150  -27.8090   19.7210 C   0  0  0  0  0  3  0  0  0  0  0  0
  -23.7200  -29.9240   20.3680 C   0  0  0  0  0  2  0  0  0  0  0  0
  -24.7020  -31.2090   22.3140 N   0  0  0  0  0  0  0  0  0  0  0  0
  -23.4910  -32.2770   23.9170 O   0  0  0  0  0  0  0  0  0  0  0  0
  -22.7900  -29.5720   22.6920 C   0  0  0  0  0  0  0  0  0  0  0  0
  -21.4750  -29.3490   22.5200 N   0  0  0  0  0  0  0  0  0  0  0  0
  -23.4580  -28.9780   23.5430 O   0  0  0  0  0  0  0  0  0  0  0  0
  -20.9940  -29.8810   21.8100 H   0  0  0  0  0  0  0  0  0  0  0  0
  -18.1270  -28.0290   22.9140 C   0  0  0  0  0  0  0  0  0  0  0  0
  -20.6620  -28.3870   23.2700 C   0  0  0  0  0  3  0  0  0  0  0  0
  -20.8380  -26.9560   22.7140 C   0  0  0  0  0  2  0  0  0  0  0  0
  -19.7860  -26.5840   21.6640 C   0  0  0  0  0  2  0  0  0  0  0  0
  -18.3770  -26.6820   22.2570 C   0  0  0  0  0  2  0  0  0  0  0  0
  -19.2000  -28.8360   23.3750 C   0  0  0  0  0  0  0  0  0  0  0  0
  -18.9120  -30.0930   23.9490 C   0  0  0  0  0  3  0  0  0  0  0  0
  -17.5840  -30.5460   24.0670 C   0  0  0  0  0  3  0  0  0  0  0  0
  -16.5250  -29.7360   23.6210 C   0  0  0  0  0  3  0  0  0  0  0  0
  -16.7960  -28.4790   23.0500 C   0  0  0  0  0  3  0  0  0  0  0  0
  -25.8440  -32.6860   24.0610 C   0  0  0  0  0  3  0  0  0  0  0  0
  -26.2980  -31.9750   25.3950 C   0  0  1  0  0  0  0  0  0  0  0  0
  -25.1480  -31.7540   26.4060 C   0  0  0  0  0  1  0  0  0  0  0  0
  -26.9290  -30.5960   25.0950 C   0  0  0  0  0  1  0  0  0  0  0  0
  -27.3930  -32.8170   26.0910 C   0  0  0  0  0  1  0  0  0  0  0  0
  -25.5180  -34.0970   24.3170 N   0  0  0  0  0  0  0  0  0  0  0  0
  -25.8810  -35.1200   23.5300 C   0  0  0  0  0  0  0  0  0  0  0  0
  -26.5890  -34.9740   22.5310 O   0  0  0  0  0  0  0  0  0  0  0  0
  -24.8930  -34.2840   25.0870 H   0  0  0  0  0  0  0  0  0  0  0  0
  -24.1640  -36.8930   23.0410 C   0  0  0  0  0  1  0  0  0  0  0  0
  -25.3780  -36.5270   23.9110 C   0  0  0  0  0  3  0  0  0  0  0  0
  -27.4800  -37.4570   24.7750 C   0  0  0  0  0  1  0  0  0  0  0  0
  -26.4140  -37.5760   23.7840 N   0  0  0  0  0  0  0  0  0  0  0  0
  -26.0030  -38.5020   23.8700 H   0  0  0  0  0  0  0  0  0  0  0  0
  1  4  2  0
  1  3  1  0
  3  5  2  0
  4  6  1  0
  5  2  1  0
  5  7  1  0
  6 16  1  0
  6  2  2  0
  8 16  1  0
  9 14  1  0
 10 11  1  0
 10  9  1  0
 12 11  1  0
 12 21  1  0
 12 13  1  0
 14  8  1  0
 14 13  1  0
 15  8  2  0
 16 17  1  0
 18 19  2  0
 19 38  1  0
 20 19  1  0
 20 23  1  0
 21 18  1  0
 21 22  1  0
 22 20  2  0
 23 24  1  0
 24 25  2  0
 26 29  1  0
 26 25  1  0
 27 26  2  0
 28 27  1  0
 28 23  2  0
 29 30  1  0
 30 31  1  0
 31 32  2  0
 33 32  1  0
 33 37  1  0
 34 33  2  0
 35 30  2  0
 35 34  1  0
 36 35  1  0
 38 39  1  0
 39 42  1  0
 39 41  1  0
 40 38  2  0
 43 44  1  0
 43 18  1  0
 45 43  1  0
 46 48  1  0
 48 47  1  0
 48  4  1  0
 49  3  1  0
 49 50  2  0
 51 52  1  0
 51 50  1  0
 53 64  2  0
 54 52  1  0
 54 59  1  0
 55 63  1  0
 55 65  1  0
 56 62  1  0
 56 58  1  0
 57 63  1  0
 58 59  2  0
 58 57  1  0
 60 54  2  0
 61 60  1  0
 61 56  2  0
 62 55  1  0
 63 53  1  0
 65 67  2  0
 66 65  1  0
 68 66  1  0
 69 78  2  0
 69 74  1  0
 70 66  1  0
 70 74  1  0
 71 70  1  0
 72 73  1  0
 72 71  1  0
 73 69  1  0
 74 75  2  0
 75 76  1  0
 77 76  2  0
 78 77  1  0
 79 53  1  0
 79 84  1  0
 79 80  1  0
 80 83  1  1
 80 81  1  0
 82 80  1  0
 84 87  1  0
 85 89  1  0
 85 84  1  0
 86 85  2  0
 89 88  1  0
 91 92  1  0
 91 89  1  0
 91 90  1  0
M  ISO  4   8 100  16 100  51 101  52 101
M  END
>  <TORSDO>  (73) 
F 20

>  <SCORE>  (73) 
-13.177

>  <name>  (73) 
72

>  <ligand_id>  (73) 
72

>  <original_smiles>  (73) 
[H]c1c([H])c([H])c2c(c1[H])C([H])([H])C([H])([H])C([H])([H])C2([H])N([H])C(=O)C1([H])N(C(=O)C([H])(N([H])C(=O)C([H])(N([H])C([H])([H])[H])C([H])([H])[H])C(C([H])([H])[H])(C([H])([H])[H])C([H])([H])[H])C([H])([H])c2c([H])c(OC([H])([H])C([H])([H])C([H])([H])c3c([H])c(C([H])(C([H])([H])[H])C([H])([H])[H])c(N([H])C(=O)N4C([H])([H])C([H])([H])C([H])([H])C([H])(n5nc(-c6c([H])c([H])c(Oc7c([H])c([H])c(F)c([H])c7F)c([H])c6[H])c(C(=O)N([H])[H])c5N([H])[H])C4([H])[H])c([H])c3C([H])([H])[H])c([H])c([H])c2C1([H])[H]

>  <smiles>  (73) 
[H]c1c([H])c([H])c2c(c1[H])C([H])([H])C([H])([H])C([H])([H])C2([H])N([H])C(=O)C1([H])N(C(=O)C([H])(N([H])C(=O)C([H])(N([H])C([H])([H])[H])C([H])([H])[H])C(C([H])([H])[H])(C([H])([H])[H])C([H])([H])[H])C([H])([H])c2c([H])c(OC([H])([H])C([H])([H])C([H])([H])c3c([H])c(C([H])(C([H])([H])[H])C([H])([H])[H])c(N([H])C(=O)N4C([H])([H])C([H])([H])C([H])([H])C([H])(n5nc(-c6c([H])c([H])c(Oc7c([H])c([H])c(F)c([H])c7F)c([H])c6[H])c(C(=O)N([H])[H])c5N([H])[H])C4([H])[H])c([H])c3C([H])([H])[H])c([H])c([H])c2C1([H])[H]

$$$$
73:0:0
     RDKit          3D

 94102  0  0  1  0  0  0  0  0999 V2000
  -29.5860  -22.1420   18.1870 C   0  0  0  0  0  3  0  0  0  0  0  0
  -29.4580  -21.3610   19.3590 C   0  0  0  0  0  0  0  0  0  0  0  0
  -30.0370  -19.9970   19.3430 C   0  0  0  0  0  0  0  0  0  0  0  0
  -30.9570  -19.7960   18.2610 C   0  0  0  0  0  0  0  0  0  0  0  0
  -31.0100  -20.6880   17.1720 C   0  0  0  0  0  0  0  0  0  0  0  0
  -31.9130  -20.4120   15.9860 C   0  0  0  0  0  1  0  0  0  0  0  0
  -30.2970  -21.8140   17.1040 N   0  0  0  0  0  0  0  0  0  0  0  0
  -32.9910  -18.9830   19.0480 C   0  0  0  0  0  1  0  0  0  0  0  0
  -31.8560  -18.7680   18.2180 O   0  0  0  0  0  0  0  0  0  0  0  0
  -28.7200  -22.1790   20.4830 C   0  0  0  0  0  2  0  0  0  0  0  0
  -29.0220  -23.7870   20.6170 C   0  0  0  0  0  3  0  0  0  0  0  0
  -28.0030  -24.9330   20.1100 C   0  0  0  0  0  3  0  0  0  0  0  0
  -28.2710  -26.3990   20.3250 O   0  0  0  0  0  0  0  0  0  0  0  0
  -24.6100  -31.8980   23.3280 C   0  0  0  0  0  0  0  0  0  0  0  0
  -27.1900  -27.3080   20.2500 C   0  0  0  0  0  0  0  0  0  0  0  0
  -23.4070  -30.5270   21.6670 C   0  0  0  0  0  3  0  0  0  0  0  0
  -24.8530  -28.9800   20.2310 C   0  0  0  0  0  0  0  0  0  0  0  0
  -25.9550  -30.8120   21.5110 C   0  0  0  0  0  2  0  0  0  0  0  0
  -26.0250  -29.4370   20.8470 C   0  0  0  0  0  0  0  0  0  0  0  0
  -27.1950  -28.6140   20.8480 C   0  0  0  0  0  3  0  0  0  0  0  0
  -25.9970  -26.9250   19.5950 C   0  0  0  0  0  3  0  0  0  0  0  0
  -24.8440  -27.7300   19.5950 C   0  0  0  0  0  3  0  0  0  0  0  0
  -23.6260  -29.8690   20.2800 C   0  0  0  0  0  2  0  0  0  0  0  0
  -24.6760  -31.0970   22.2250 N   0  0  0  0  0  0  0  0  0  0  0  0
  -23.5240  -32.1800   23.8550 O   0  0  0  0  0  0  0  0  0  0  0  0
  -22.7290  -29.5050   22.6100 C   0  0  0  0  0  0  0  0  0  0  0  0
  -21.4060  -29.3210   22.4560 N   0  0  0  0  0  0  0  0  0  0  0  0
  -23.3930  -28.8820   23.4430 O   0  0  0  0  0  0  0  0  0  0  0  0
  -20.9300  -29.8750   21.7570 H   0  0  0  0  0  0  0  0  0  0  0  0
  -18.0280  -28.0940   22.8730 C   0  0  0  0  0  0  0  0  0  0  0  0
  -20.5760  -28.3790   23.2090 C   0  0  0  0  0  3  0  0  0  0  0  0
  -20.7070  -26.9460   22.6430 C   0  0  0  0  0  2  0  0  0  0  0  0
  -19.6340  -26.6090   21.6010 C   0  0  0  0  0  2  0  0  0  0  0  0
  -18.2350  -26.7430   22.2080 C   0  0  0  0  0  2  0  0  0  0  0  0
  -19.1280  -28.8680   23.3280 C   0  0  0  0  0  0  0  0  0  0  0  0
  -18.8810  -30.1310   23.9090 C   0  0  0  0  0  3  0  0  0  0  0  0
  -17.5680  -30.6210   24.0390 C   0  0  0  0  0  3  0  0  0  0  0  0
  -16.4820  -29.8440   23.5990 C   0  0  0  0  0  3  0  0  0  0  0  0
  -16.7130  -28.5820   23.0220 C   0  0  0  0  0  3  0  0  0  0  0  0
  -25.8920  -32.5140   23.9670 C   0  0  0  0  0  3  0  0  0  0  0  0
  -25.6120  -33.9290   24.2520 N   0  0  0  0  0  0  0  0  0  0  0  0
  -25.9880  -34.9520   23.4740 C   0  0  0  0  0  0  0  0  0  0  0  0
  -26.6760  -34.8040   22.4590 O   0  0  0  0  0  0  0  0  0  0  0  0
  -25.0050  -34.1210   25.0360 H   0  0  0  0  0  0  0  0  0  0  0  0
  -24.3220  -36.7820   23.0270 C   0  0  0  0  0  1  0  0  0  0  0  0
  -25.5290  -36.3660   23.8830 C   0  0  0  0  0  3  0  0  0  0  0  0
  -27.6600  -37.2150   24.7560 C   0  0  0  0  0  1  0  0  0  0  0  0
  -26.5940  -37.3860   23.7730 N   0  0  0  0  0  0  0  0  0  0  0  0
  -26.2110  -38.3210   23.8820 H   0  0  0  0  0  0  0  0  0  0  0  0
  -26.3560  -31.7660   25.2750 C   0  0  1  0  0  0  0  0  0  0  0  0
  -25.2290  -31.5820   26.3200 C   0  0  0  0  0  1  0  0  0  0  0  0
  -26.9140  -30.3640   24.9370 C   0  0  0  0  0  1  0  0  0  0  0  0
  -27.5100  -32.5480   25.9460 C   0  0  0  0  0  1  0  0  0  0  0  0
  -29.7900  -18.7380   20.3260 C   0  0  0  0  0  2  0  0  0  0  0  0
  -28.8260  -17.0450   18.5730 C   0  0  0  0  0  1  0  0  0  0  0  0
  -29.8480  -17.1990   19.7170 C   0  0  0  0  0  3  0  0  0  0  0  0
  -30.5360  -14.7750   20.3740 C   0  0  0  0  0  0  0  0  0  0  0  0
  -30.3510  -12.4990   19.3850 C   0  0  0  0  0  2  0  0  0  0  0  0
  -29.4090  -12.5800   18.1620 C   0  0  0  0  0  2  0  0  0  0  0  0
  -27.9410  -12.3990   18.5970 C   0  0  0  0  0  2  0  0  0  0  0  0
  -27.5690  -13.2700   19.8270 C   0  0  0  0  0  3  0  0  0  0  0  0
  -28.6350  -13.1810   20.9410 C   0  0  0  0  0  2  0  0  0  0  0  0
  -29.9260  -13.5420   20.3470 N   0  0  0  0  0  0  0  0  0  0  0  0
  -31.7100  -14.8800   20.0060 O   0  0  0  0  0  0  0  0  0  0  0  0
  -29.7470  -15.9080   20.5420 N   0  0  0  0  0  0  0  0  0  0  0  0
  -28.8380  -15.7260   20.9440 H   0  0  0  0  0  0  0  0  0  0  0  0
  -25.1750  -13.8230   20.5650 C   0  0  0  0  0  0  0  0  0  0  0  0
  -24.1230  -13.0310   20.9390 C   0  0  0  0  0  0  0  0  0  0  0  0
  -24.6050  -11.6880   20.9010 C   0  0  0  0  0  0  0  0  0  0  0  0
  -26.2300  -12.9600   20.3210 N   0  0  0  0  0  0  0  0  0  0  0  0
  -25.8950  -11.6700   20.5840 N   0  0  0  0  0  0  0  0  0  0  0  0
  -23.8990  -10.4140   21.0910 C   0  0  0  0  0  0  0  0  0  0  0  0
  -24.3420   -9.4550   22.0280 C   0  0  0  0  0  3  0  0  0  0  0  0
  -23.6330   -8.2470   22.2050 C   0  0  0  0  0  3  0  0  0  0  0  0
  -22.4680   -7.9890   21.4430 C   0  0  0  0  0  0  0  0  0  0  0  0
  -22.0460   -8.9370   20.4930 C   0  0  0  0  0  3  0  0  0  0  0  0
  -22.7570  -10.1360   20.3160 C   0  0  0  0  0  3  0  0  0  0  0  0
  -21.7310   -6.8330   21.5290 O   0  0  0  0  0  0  0  0  0  0  0  0
  -21.6770   -6.0970   22.6870 C   0  0  0  0  0  0  0  0  0  0  0  0
  -21.1900   -6.6440   23.8940 C   0  0  0  0  0  3  0  0  0  0  0  0
  -21.0890   -5.8340   25.0420 C   0  0  0  0  0  3  0  0  0  0  0  0
  -21.4630   -4.4780   24.9840 C   0  0  0  0  0  0  0  0  0  0  0  0
  -21.9410   -3.9300   23.7810 C   0  0  0  0  0  3  0  0  0  0  0  0
  -22.0470   -4.7390   22.6350 C   0  0  0  0  0  0  0  0  0  0  0  0
  -22.4900   -4.2010   21.4720 F   0  0  0  0  0  0  0  0  0  0  0  0
  -21.3590   -3.6970   26.0840 F   0  0  0  0  0  0  0  0  0  0  0  0
  -22.7200  -13.4870   21.2240 C   0  0  0  0  0  0  0  0  0  0  0  0
  -22.0060  -12.7670   22.0810 N   0  0  0  0  0  0  0  0  0  0  0  0
  -22.2670  -14.5150   20.7220 O   0  0  0  0  0  0  0  0  0  0  0  0
  -22.3860  -11.9350   22.5070 H   0  0  0  0  0  0  0  0  0  0  0  0
  -21.0660  -13.0530   22.3180 H   0  0  0  0  0  0  0  0  0  0  0  0
  -25.3150  -15.1960   20.3890 N   0  0  0  0  0  0  0  0  0  0  0  0
  -24.5300  -15.8310   20.4870 H   0  0  0  0  0  0  0  0  0  0  0  0
  -26.1390  -15.6440   20.0150 H   0  0  0  0  0  0  0  0  0  0  0  0
  1  2  1  0
  2 10  1  0
  3  2  2  0
  3 54  1  0
  4  3  1  0
  5  4  2  0
  6  5  1  0
  7  5  1  0
  7  1  2  0
  9  4  1  0
  9  8  1  0
 10 11  1  0
 12 13  1  0
 12 11  2  0
 14 25  2  0
 15 13  1  0
 15 20  1  0
 16 24  1  0
 16 26  1  0
 17 23  1  0
 17 19  1  0
 18 24  1  0
 19 20  2  0
 19 18  1  0
 21 15  2  0
 22 21  1  0
 22 17  2  0
 23 16  1  0
 24 14  1  0
 26 28  2  0
 27 26  1  0
 29 27  1  0
 30 39  2  0
 30 35  1  0
 31 27  1  0
 31 35  1  0
 32 31  1  0
 33 34  1  0
 33 32  1  0
 34 30  1  0
 35 36  2  0
 36 37  1  0
 38 37  2  0
 39 38  1  0
 40 14  1  0
 40 41  1  0
 40 50  1  0
 41 44  1  0
 42 46  1  0
 42 41  1  0
 43 42  2  0
 46 45  1  0
 48 49  1  0
 48 46  1  0
 48 47  1  0
 50 53  1  1
 50 51  1  0
 52 50  1  0
 56 55  1  0
 56 54  1  0
 56 65  1  0
 57 65  1  0
 58 63  1  0
 59 60  1  0
 59 58  1  0
 61 60  1  0
 61 70  1  0
 61 62  1  0
 63 57  1  0
 63 62  1  0
 64 57  2  0
 65 66  1  0
 67 68  2  0
 68 87  1  0
 69 68  1  0
 69 72  1  0
 70 67  1  0
 70 71  1  0
 71 69  2  0
 72 73  1  0
 73 74  2  0
 75 78  1  0
 75 74  1  0
 76 75  2  0
 77 76  1  0
 77 72  2  0
 78 79  1  0
 79 80  1  0
 80 81  2  0
 82 81  1  0
 82 86  1  0
 83 82  2  0
 84 79  2  0
 84 83  1  0
 85 84  1  0
 87 88  1  0
 88 91  1  0
 88 90  1  0
 89 87  2  0
 92 93  1  0
 92 67  1  0
 94 92  1  0
M  ISO  4  12 101  13 101  57 100  65 100
M  END
>  <TORSDO>  (74) 
F 22

>  <SCORE>  (74) 
-13.058

>  <name>  (74) 
73

>  <ligand_id>  (74) 
73

>  <original_smiles>  (74) 
[H]c1nc(C([H])([H])[H])c(OC([H])([H])[H])c(C([H])([H])C([H])(N([H])C(=O)N2C([H])([H])C([H])([H])C([H])([H])C([H])(n3nc(-c4c([H])c([H])c(Oc5c([H])c([H])c(F)c([H])c5F)c([H])c4[H])c(C(=O)N([H])[H])c3N([H])[H])C2([H])[H])C([H])([H])[H])c1C([H])([H])C([H])([H])C([H])([H])Oc1c([H])c([H])c2c(c1[H])C([H])([H])N(C(=O)C([H])(N([H])C(=O)C([H])(N([H])C([H])([H])[H])C([H])([H])[H])C(C([H])([H])[H])(C([H])([H])[H])C([H])([H])[H])C([H])(C(=O)N([H])C1([H])c3c([H])c([H])c([H])c([H])c3C([H])([H])C([H])([H])C1([H])[H])C2([H])[H]

>  <smiles>  (74) 
[H]c1nc(C([H])([H])[H])c(OC([H])([H])[H])c(C([H])([H])C([H])(N([H])C(=O)N2C([H])([H])C([H])([H])C([H])([H])C([H])(n3nc(-c4c([H])c([H])c(Oc5c([H])c([H])c(F)c([H])c5F)c([H])c4[H])c(C(=O)N([H])[H])c3N([H])[H])C2([H])[H])C([H])([H])[H])c1C([H])([H])C([H])([H])C([H])([H])Oc1c([H])c([H])c2c(c1[H])C([H])([H])N(C(=O)C([H])(N([H])C(=O)C([H])(N([H])C([H])([H])[H])C([H])([H])[H])C(C([H])([H])[H])(C([H])([H])[H])C([H])([H])[H])C([H])(C(=O)N([H])C1([H])c3c([H])c([H])c([H])c([H])c3C([H])([H])C([H])([H])C1([H])[H])C2([H])[H]

$$$$
74:0:0
     RDKit          3D

 99 96  0  0  1  0  0  0  0  0999 V2000
  -27.4850  -20.3080   19.3380 C   0  0  0  0  0  1  0  0  0  0  0  0
  -26.6330  -20.5100   18.1390 N   0  0  0  0  0  4  0  0  0  0  0  0
  -27.1940  -21.0410   17.4890 H   0  0  0  0  0  0  0  0  0  0  0  0
  -26.4760  -19.6150   17.7060 H   0  0  0  0  0  0  0  0  0  0  0  0
  -24.4960  -21.1620   16.9800 C   0  0  0  0  0  1  0  0  0  0  0  0
  -25.3400  -21.2270   18.2710 C   0  0  0  0  0  3  0  0  0  0  0  0
  -24.7150  -23.2700   19.7650 C   0  0  0  0  0  1  0  0  0  0  0  0
  -25.6420  -22.6880   18.6880 C   0  0  0  0  0  2  0  0  0  0  0  0
  -28.4300  -18.0180   17.6520 C   0  0  0  0  0  1  0  0  0  0  0  0
  -27.7910  -17.9830   19.0430 C   0  0  0  0  0  1  0  0  0  0  0  0
  -24.6460  -12.9700   20.5700 C   0  0  0  0  0 15  0  0  0  0  0  0
  -25.4710  -14.6160   19.3130 C   0  0  0  0  0 15  0  0  0  0  0  0
  -25.9630  -11.6810   21.9940 C   0  0  0  0  0 15  0  0  0  0  0  0
  -28.7400  -11.5890   19.8690 C   0  0  0  0  0 15  0  0  0  0  0  0
  -27.2880  -15.6680   19.1190 C   0  0  0  0  0 15  0  0  0  0  0  0
  -28.7510  -14.0190   18.8350 C   0  0  0  0  0  1  0  0  0  0  0  0
  -27.8360  -11.2300   21.6440 N   0  0  0  0  0  2  0  0  0  0  0  0
  -27.9670  -10.2640   21.9010 H   0  0  0  0  0  0  0  0  0  0  0  0
  -28.3550  -11.7940   22.2990 H   0  0  0  0  0  0  0  0  0  0  0  0
  -31.7830  -15.0570   19.1560 C   0  0  0  0  0  0  0  0  0  0  0  0
  -33.0250  -13.0450   19.0730 C   0  0  0  0  0  2  0  0  0  0  0  0
  -31.9850  -12.5910   18.0800 C   0  0  0  0  0  2  0  0  0  0  0  0
  -30.7970  -12.3640   19.0110 C   0  0  0  0  0  2  0  0  0  0  0  0
  -30.4120  -13.3080   20.5870 C   0  0  0  0  0  3  0  0  0  0  0  0
  -31.7170  -13.5530   21.1310 C   0  0  0  0  0  2  0  0  0  0  0  0
  -32.3360  -14.0490   19.9050 N   0  0  0  0  0  0  0  0  0  0  0  0
  -32.7390  -15.8030   18.8390 O   0  0  0  0  0  0  0  0  0  0  0  0
  -30.3090  -14.9370   18.6340 N   0  0  0  0  0  0  0  0  0  0  0  0
  -30.1700  -15.6690   17.9550 H   0  0  0  0  0  0  0  0  0  0  0  0
  -28.0390  -14.6590   21.3710 C   0  0  2  0  0  0  0  0  0  0  0  0
  -26.7650  -14.0200   21.2720 C   0  0  0  0  0  3  0  0  0  0  0  0
  -26.8410  -12.7920   20.2000 C   0  0  0  0  0  1  0  0  0  0  0  0
  -29.0230  -13.6790   21.3100 N   0  0  0  0  0  0  0  0  0  0  0  0
  -27.7030  -13.5620   20.9750 N   0  0  0  0  0  4  0  0  0  0  0  0
  -26.3080  -10.8060   20.0590 C   0  0  0  0  0  2  0  0  0  0  0  0
  -26.3350   -9.6580   21.1300 C   0  0  0  0  0  2  0  0  0  0  0  0
  -25.2800   -8.9360   21.8450 C   0  0  0  0  0  2  0  0  0  0  0  0
  -24.1280   -8.6350   21.1280 C   0  0  0  0  0  0  0  0  0  0  0  0
  -24.1390   -9.2780   19.8660 C   0  0  0  0  0  3  0  0  0  0  0  0
  -25.1340  -10.2370   19.4030 C   0  0  0  0  0  2  0  0  0  0  0  0
  -23.2460   -7.5620   21.3410 O   0  0  0  0  0  0  0  0  0  0  0  0
  -22.5590   -7.2080   22.4980 C   0  0  0  0  0  0  0  0  0  0  0  0
  -21.6490   -8.0930   23.1190 C   0  0  0  0  0  3  0  0  0  0  0  0
  -20.8240   -7.6570   24.1800 C   0  0  0  0  0  3  0  0  0  0  0  0
  -20.8860   -6.3250   24.6360 C   0  0  0  0  0  0  0  0  0  0  0  0
  -21.7730   -5.4290   24.0140 C   0  0  0  0  0  3  0  0  0  0  0  0
  -22.5900   -5.8620   22.9510 C   0  0  0  0  0  0  0  0  0  0  0  0
  -23.3940   -4.9540   22.3450 F   0  0  0  0  0  0  0  0  0  0  0  0
  -20.0920   -5.9060   25.6540 F   0  0  0  0  0  0  0  0  0  0  0  0
  -25.5330  -14.7340   22.0090 C   0  0  0  0  0  0  0  0  0  0  0  0
  -24.9200  -14.1620   23.0590 N   0  0  0  0  0  0  0  0  0  0  0  0
  -24.7910  -15.4880   21.3960 O   0  0  0  0  0  0  0  0  0  0  0  0
  -25.3890  -13.4950   23.6520 H   0  0  0  0  0  0  0  0  0  0  0  0
  -24.0450  -14.5540   23.3690 H   0  0  0  0  0  0  0  0  0  0  0  0
  -28.3740  -16.0080   21.3720 N   0  0  0  0  0  0  0  0  0  0  0  0
  -27.6650  -16.7290   21.3410 H   0  0  0  0  0  0  0  0  0  0  0  0
  -29.3210  -16.3630   21.3290 H   0  0  0  0  0  0  0  0  0  0  0  0
  -28.1810  -22.5690   19.4940 C   0  0  0  0  0 15  0  0  0  0  0  0
  -28.3560  -24.5660   20.1910 O   0  0  0  0  0  1  0  0  0  0  0  0
  -25.0800  -31.6910   23.1000 C   0  0  0  0  0  0  0  0  0  0  0  0
  -27.7820  -26.1850   20.1760 C   0  0  0  0  0  0  0  0  0  0  0  0
  -24.1640  -30.2110   21.4000 C   0  0  0  0  0  3  0  0  0  0  0  0
  -25.7730  -28.6300   20.0430 C   0  0  0  0  0  0  0  0  0  0  0  0
  -26.7470  -30.3070   21.5600 C   0  0  0  0  0  2  0  0  0  0  0  0
  -26.8890  -28.8330   20.8480 C   0  0  0  0  0  0  0  0  0  0  0  0
  -27.8840  -27.6300   20.8900 C   0  0  0  0  0  3  0  0  0  0  0  0
  -26.7550  -26.4390   19.2550 C   0  0  0  0  0  3  0  0  0  0  0  0
  -25.7940  -27.4950   19.2240 C   0  0  0  0  0  3  0  0  0  0  0  0
  -24.5650  -29.5900   20.0320 C   0  0  0  0  0  2  0  0  0  0  0  0
  -25.3640  -30.7980   22.0690 N   0  0  0  0  0  0  0  0  0  0  0  0
  -23.9140  -31.9050   23.4900 O   0  0  0  0  0  0  0  0  0  0  0  0
  -23.4550  -29.1650   22.3030 C   0  0  0  0  0  0  0  0  0  0  0  0
  -22.1420  -28.9340   22.1130 N   0  0  0  0  0  0  0  0  0  0  0  0
  -24.1020  -28.5700   23.1680 O   0  0  0  0  0  0  0  0  0  0  0  0
  -21.6570  -29.4710   21.4090 H   0  0  0  0  0  0  0  0  0  0  0  0
  -18.8010  -27.5770   22.5680 C   0  0  0  0  0  0  0  0  0  0  0  0
  -21.3520  -27.9220   22.8260 C   0  0  0  0  0  3  0  0  0  0  0  0
  -21.4970  -26.5360   22.1550 C   0  0  0  0  0  2  0  0  0  0  0  0
  -20.4010  -26.2490   21.1240 C   0  0  0  0  0  2  0  0  0  0  0  0
  -19.0210  -26.2910   21.7860 C   0  0  0  0  0  2  0  0  0  0  0  0
  -19.8940  -28.3510   23.0410 C   0  0  0  0  0  0  0  0  0  0  0  0
  -19.6310  -29.5480   23.7400 C   0  0  0  0  0  3  0  0  0  0  0  0
  -18.3100  -29.9780   23.9630 C   0  0  0  0  0  3  0  0  0  0  0  0
  -17.2320  -29.2040   23.5020 C   0  0  0  0  0  3  0  0  0  0  0  0
  -17.4770  -28.0040   22.8100 C   0  0  0  0  0  3  0  0  0  0  0  0
  -26.1830  -32.5000   23.8530 C   0  0  0  0  0  3  0  0  0  0  0  0
  -25.6770  -33.8720   24.1120 N   0  0  0  0  0  0  0  0  0  0  0  0
  -25.9810  -34.9720   23.4070 C   0  0  0  0  0  0  0  0  0  0  0  0
  -26.7650  -34.9450   22.4570 O   0  0  0  0  0  0  0  0  0  0  0  0
  -24.9840  -33.9570   24.8400 H   0  0  0  0  0  0  0  0  0  0  0  0
  -24.1160  -36.6000   22.9020 C   0  0  0  0  0  1  0  0  0  0  0  0
  -25.3220  -36.3130   23.8130 C   0  0  0  0  0  3  0  0  0  0  0  0
  -27.2690  -37.4300   24.8170 C   0  0  0  0  0  1  0  0  0  0  0  0
  -26.2480  -37.4690   23.7740 N   0  0  0  0  0  0  0  0  0  0  0  0
  -25.7380  -38.3430   23.8640 H   0  0  0  0  0  0  0  0  0  0  0  0
  -26.5940  -31.8420   25.2310 C   0  0  1  0  0  0  0  0  0  0  0  0
  -25.3940  -31.5150   26.1520 C   0  0  0  0  0  1  0  0  0  0  0  0
  -27.3720  -30.5300   25.0130 C   0  0  0  0  0  1  0  0  0  0  0  0
  -27.5480  -32.7840   26.0020 C   0  0  0  0  0  1  0  0  0  0  0  0
  2  6  1  0
  2  1  1  0
  3  2  1  0
  4  2  1  0
  6  5  1  0
  6  8  1  0
  8  7  1  0
  9 10  1  0
 17 18  1  0
 17 19  1  0
 20 26  1  0
 21 26  1  0
 22 23  1  0
 22 21  1  0
 24 23  1  0
 24 25  1  0
 26 25  1  0
 27 20  2  0
 28 16  1  0
 28 20  1  0
 29 28  1  0
 30 55  1  1
 31 30  1  0
 31 50  1  0
 33 24  1  0
 33 30  1  0
 34 32  1  0
 34 31  1  0
 34 33  1  0
 34 30  1  0
 35 36  1  0
 36 37  1  0
 38 41  1  0
 38 37  1  0
 39 38  2  0
 40 39  1  0
 40 35  1  0
 41 42  1  0
 42 47  2  0
 42 43  1  0
 43 44  2  0
 44 45  1  0
 45 49  1  0
 46 45  2  0
 47 46  1  0
 48 47  1  0
 50 51  1  0
 51 54  1  0
 51 53  1  0
 52 50  2  0
 56 55  1  0
 57 55  1  0
 60 71  2  0
 61 59  1  0
 61 66  1  0
 62 70  1  0
 62 72  1  0
 63 65  1  0
 64 70  1  0
 65 66  2  0
 65 64  1  0
 67 61  2  0
 68 67  1  0
 68 63  2  0
 69 63  1  0
 69 62  1  0
 70 60  1  0
 72 74  2  0
 73 72  1  0
 75 73  1  0
 76 85  2  0
 76 81  1  0
 77 73  1  0
 77 81  1  0
 78 77  1  0
 79 80  1  0
 79 78  1  0
 80 76  1  0
 81 82  2  0
 82 83  1  0
 84 83  2  0
 85 84  1  0
 86 60  1  0
 86 87  1  0
 86 96  1  0
 87 90  1  0
 88 92  1  0
 88 87  1  0
 89 88  2  0
 92 91  1  0
 94 92  1  0
 94 95  1  0
 94 93  1  0
 96 99  1  1
 96 97  1  0
 98 96  1  0
M  ISO  4  20 100  28 100  58 101  59 101
M  END
>  <TORSDO>  (75) 
F 22

>  <SCORE>  (75) 
-6.700

>  <name>  (75) 
74

>  <ligand_id>  (75) 
74

>  <original_smiles>  (75) 
[H]c1c([H])c([H])c2c(c1[H])C([H])([H])C([H])([H])C([H])([H])C2([H])N([H])C(=O)C1([H])N(C(=O)C([H])(N([H])C(=O)C([H])(N([H])C([H])([H])[H])C([H])([H])[H])C(C([H])([H])[H])(C([H])([H])[H])C([H])([H])[H])C([H])([H])c2c([H])c(OC([H])([H])C([H])(C([H])(C([H])([H])[H])C3([H])C([H])([H])C([H])([H])C([H])([H])[N+]([H])([H])C([H])([H])C3([H])N([H])C(=O)N3C([H])([H])C([H])([H])C([H])([H])C([H])(n4nc(-c5c([H])c([H])c(Oc6c([H])c([H])c(F)c([H])c6F)c([H])c5[H])c(C(=O)N([H])[H])c4N([H])[H])C3([H])[H])[N+]([H])([H])C([H])(C([H])([H])[H])C([H])([H])C([H])([H])[H])c([H])c([H])c2C1([H])[H]

>  <smiles>  (75) 
[H]c1c([H])c([H])c2c(c1[H])C([H])([H])C([H])([H])C([H])([H])C2([H])N([H])C(=O)C1([H])N(C(=O)C([H])(N([H])C(=O)C([H])(N([H])C([H])([H])[H])C([H])([H])[H])C(C([H])([H])[H])(C([H])([H])[H])C([H])([H])[H])C([H])([H])c2c([H])c(OC([H])([H])C([H])(C([H])(C([H])([H])[H])C3([H])C([H])([H])C([H])([H])C([H])([H])[N+]([H])([H])C([H])([H])C3([H])N([H])C(=O)N3C([H])([H])C([H])([H])C([H])([H])C([H])(n4nc(-c5c([H])c([H])c(Oc6c([H])c([H])c(F)c([H])c6F)c([H])c5[H])c(C(=O)N([H])[H])c4N([H])[H])C3([H])[H])[N+]([H])([H])C([H])(C([H])([H])[H])C([H])([H])C([H])([H])[H])c([H])c([H])c2C1([H])[H]

$$$$
75:0:0
     RDKit          3D

 91 99  0  0  1  0  0  0  0  0999 V2000
  -29.4710  -21.7750   19.0640 C   0  0  0  0  0  2  0  0  0  0  0  0
  -26.8920  -19.4860   20.4020 C   0  0  0  0  0  3  0  0  0  0  0  0
  -27.4720  -20.6410   19.9860 C   0  0  0  0  0  3  0  0  0  0  0  0
  -27.8230  -18.4630   20.1520 C   0  0  0  0  0  0  0  0  0  0  0  0
  -28.9820  -18.9230   19.5790 C   0  0  0  0  0  0  0  0  0  0  0  0
  -28.7780  -20.4330   19.5430 N   0  0  0  0  0  0  0  0  0  0  0  0
  -27.5620  -17.1630   20.4270 F   0  0  0  0  0  0  0  0  0  0  0  0
  -30.0960  -17.7900   19.1770 C   0  0  0  0  0  2  0  0  0  0  0  0
  -30.6990  -15.0590   19.4010 C   0  0  0  0  0  0  0  0  0  0  0  0
  -30.5140  -12.6310   18.6850 C   0  0  0  0  0  2  0  0  0  0  0  0
  -29.4620  -12.4950   17.5600 C   0  0  0  0  0  2  0  0  0  0  0  0
  -28.0470  -12.3310   18.1460 C   0  0  0  0  0  2  0  0  0  0  0  0
  -27.7610  -13.3300   19.2970 C   0  0  0  0  0  3  0  0  0  0  0  0
  -28.9280  -13.4290   20.3040 C   0  0  0  0  0  2  0  0  0  0  0  0
  -30.1240  -13.7950   19.5350 N   0  0  0  0  0  0  0  0  0  0  0  0
  -31.8590  -15.1030   18.9740 O   0  0  0  0  0  0  0  0  0  0  0  0
  -29.9190  -16.2440   19.5430 N   0  0  0  0  0  0  0  0  0  0  0  0
  -29.0080  -16.0580   19.9340 H   0  0  0  0  0  0  0  0  0  0  0  0
  -25.5210  -13.9740   20.3530 C   0  0  0  0  0  0  0  0  0  0  0  0
  -24.4790  -13.2290   20.8320 C   0  0  0  0  0  0  0  0  0  0  0  0
  -24.8740  -11.8640   20.6990 C   0  0  0  0  0  0  0  0  0  0  0  0
  -26.4850  -13.0650   19.9540 N   0  0  0  0  0  0  0  0  0  0  0  0
  -26.1130  -11.7870   20.2250 N   0  0  0  0  0  0  0  0  0  0  0  0
  -24.1190  -10.6260   20.9380 C   0  0  0  0  0  0  0  0  0  0  0  0
  -24.5400   -9.6760   21.8940 C   0  0  0  0  0  3  0  0  0  0  0  0
  -23.7840   -8.5060   22.1250 C   0  0  0  0  0  3  0  0  0  0  0  0
  -22.5930   -8.2770   21.3950 C   0  0  0  0  0  0  0  0  0  0  0  0
  -22.1890   -9.2150   20.4290 C   0  0  0  0  0  3  0  0  0  0  0  0
  -22.9460  -10.3760   20.1990 C   0  0  0  0  0  3  0  0  0  0  0  0
  -21.8100   -7.1550   21.5300 O   0  0  0  0  0  0  0  0  0  0  0  0
  -21.6490   -6.5310   22.7410 C   0  0  0  0  0  0  0  0  0  0  0  0
  -21.1330   -7.2100   23.8670 C   0  0  0  0  0  3  0  0  0  0  0  0
  -20.9190   -6.5130   25.0720 C   0  0  0  0  0  3  0  0  0  0  0  0
  -21.2100   -5.1370   25.1520 C   0  0  0  0  0  0  0  0  0  0  0  0
  -21.7190   -4.4590   24.0320 C   0  0  0  0  0  3  0  0  0  0  0  0
  -21.9350   -5.1530   22.8280 C   0  0  0  0  0  0  0  0  0  0  0  0
  -22.4040   -4.4890   21.7450 F   0  0  0  0  0  0  0  0  0  0  0  0
  -20.9980   -4.4650   26.3090 F   0  0  0  0  0  0  0  0  0  0  0  0
  -23.1500  -13.7550   21.2910 C   0  0  0  0  0  0  0  0  0  0  0  0
  -22.5250  -13.0830   22.2490 N   0  0  0  0  0  0  0  0  0  0  0  0
  -22.6820  -14.7970   20.8340 O   0  0  0  0  0  0  0  0  0  0  0  0
  -22.9230  -12.2410   22.6390 H   0  0  0  0  0  0  0  0  0  0  0  0
  -21.6380  -13.4160   22.6010 H   0  0  0  0  0  0  0  0  0  0  0  0
  -25.7170  -15.3420   20.1990 N   0  0  0  0  0  0  0  0  0  0  0  0
  -25.0000  -16.0170   20.4430 H   0  0  0  0  0  0  0  0  0  0  0  0
  -26.5250  -15.7690   19.7670 H   0  0  0  0  0  0  0  0  0  0  0  0
  -29.0230  -23.2570   21.2930 C   0  0  0  0  0  1  0  0  0  0  0  0
  -29.3090  -23.3390   19.7860 C   0  0  0  0  0  3  0  0  0  0  0  0
  -28.9470  -24.8830   17.7020 C   0  0  0  0  0  1  0  0  0  0  0  0
  -28.5240  -24.7250   19.1730 C   0  0  0  0  0  3  0  0  0  0  0  0
  -28.5790  -26.1880   19.7540 O   0  0  0  0  0  0  0  0  0  0  0  0
  -24.6800  -31.5390   23.0700 C   0  0  0  0  0  0  0  0  0  0  0  0
  -27.4720  -27.1270   19.7430 C   0  0  0  0  0  0  0  0  0  0  0  0
  -23.5390  -30.1740   21.3680 C   0  0  0  0  0  3  0  0  0  0  0  0
  -25.0500  -28.7600   19.8440 C   0  0  0  0  0  0  0  0  0  0  0  0
  -26.0740  -30.5790   21.1930 C   0  0  0  0  0  2  0  0  0  0  0  0
  -26.2150  -29.2290   20.4630 C   0  0  0  0  0  0  0  0  0  0  0  0
  -27.4230  -28.4310   20.3960 C   0  0  0  0  0  3  0  0  0  0  0  0
  -26.2670  -26.7680   19.0960 C   0  0  0  0  0  3  0  0  0  0  0  0
  -25.0910  -27.5440   19.1470 C   0  0  0  0  0  3  0  0  0  0  0  0
  -23.7780  -29.5850   19.9530 C   0  0  0  0  0  2  0  0  0  0  0  0
  -24.7850  -30.7860   21.9320 N   0  0  0  0  0  0  0  0  0  0  0  0
  -23.5850  -31.7350   23.6210 O   0  0  0  0  0  0  0  0  0  0  0  0
  -22.9270  -29.0790   22.2800 C   0  0  0  0  0  0  0  0  0  0  0  0
  -21.6090  -28.8420   22.1540 N   0  0  0  0  0  0  0  0  0  0  0  0
  -23.6400  -28.4460   23.0620 O   0  0  0  0  0  0  0  0  0  0  0  0
  -21.0850  -29.4130   21.5050 H   0  0  0  0  0  0  0  0  0  0  0  0
  -18.3010  -27.4440   22.6360 C   0  0  0  0  0  0  0  0  0  0  0  0
  -20.8490  -27.8200   22.8780 C   0  0  0  0  0  3  0  0  0  0  0  0
  -21.0080  -26.4300   22.2170 C   0  0  0  0  0  2  0  0  0  0  0  0
  -19.9060  -26.1150   21.2010 C   0  0  0  0  0  2  0  0  0  0  0  0
  -18.5320  -26.1500   21.8740 C   0  0  0  0  0  2  0  0  0  0  0  0
  -19.3880  -28.2360   23.0940 C   0  0  0  0  0  0  0  0  0  0  0  0
  -19.1160  -29.4450   23.7690 C   0  0  0  0  0  3  0  0  0  0  0  0
  -17.7900  -29.8660   23.9880 C   0  0  0  0  0  3  0  0  0  0  0  0
  -16.7190  -29.0720   23.5440 C   0  0  0  0  0  3  0  0  0  0  0  0
  -16.9750  -27.8610   22.8760 C   0  0  0  0  0  3  0  0  0  0  0  0
  -25.9270  -32.2100   23.7220 C   0  0  0  0  0  3  0  0  0  0  0  0
  -26.4720  -31.4190   24.9760 C   0  0  1  0  0  0  0  0  0  0  0  0
  -25.3840  -31.0830   26.0220 C   0  0  0  0  0  1  0  0  0  0  0  0
  -27.1300  -30.0890   24.5420 C   0  0  0  0  0  1  0  0  0  0  0  0
  -27.5720  -32.2480   25.6790 C   0  0  0  0  0  1  0  0  0  0  0  0
  -25.5490  -33.5790   24.1080 N   0  0  0  0  0  0  0  0  0  0  0  0
  -25.8240  -34.6800   23.3950 C   0  0  0  0  0  0  0  0  0  0  0  0
  -26.4910  -34.6520   22.3580 O   0  0  0  0  0  0  0  0  0  0  0  0
  -24.9520  -33.6690   24.9180 H   0  0  0  0  0  0  0  0  0  0  0  0
  -24.0120  -36.4060   23.1300 C   0  0  0  0  0  1  0  0  0  0  0  0
  -25.2770  -36.0240   23.9150 C   0  0  0  0  0  3  0  0  0  0  0  0
  -27.3710  -36.9770   24.7750 C   0  0  0  0  0  1  0  0  0  0  0  0
  -26.2590  -37.1280   23.8400 N   0  0  0  0  0  0  0  0  0  0  0  0
  -25.8110  -38.0230   24.0220 H   0  0  0  0  0  0  0  0  0  0  0  0
  1  6  1  0
  1 48  1  0
  3  2  2  0
  4  2  1  0
  4  7  1  0
  5  4  2  0
  6  5  1  0
  6  3  1  0
  8 17  1  0
  8  5  1  0
  9 15  1  0
  9 17  1  0
 10 15  1  0
 11 12  1  0
 11 10  1  0
 13 12  1  0
 13 22  1  0
 13 14  1  0
 15 14  1  0
 16  9  2  0
 17 18  1  0
 19 20  2  0
 20 39  1  0
 21 20  1  0
 21 24  1  0
 22 23  1  0
 22 19  1  0
 23 21  2  0
 24 25  1  0
 25 26  2  0
 27 30  1  0
 27 26  1  0
 28 27  2  0
 29 28  1  0
 29 24  2  0
 30 31  1  0
 31 36  2  0
 31 32  1  0
 32 33  2  0
 33 34  1  0
 34 38  1  0
 35 34  2  0
 36 35  1  0
 37 36  1  0
 39 40  1  0
 40 43  1  0
 40 42  1  0
 41 39  2  0
 44 19  1  0
 44 45  1  0
 46 44  1  0
 48 47  1  0
 50 49  1  0
 50 51  1  0
 50 48  1  0
 52 63  2  0
 53 51  1  0
 53 58  1  0
 54 62  1  0
 54 64  1  0
 55 61  1  0
 55 57  1  0
 56 62  1  0
 57 56  1  0
 58 57  2  0
 59 60  1  0
 59 53  2  0
 60 55  2  0
 61 54  1  0
 62 52  1  0
 64 66  2  0
 65 64  1  0
 67 65  1  0
 68 77  2  0
 68 73  1  0
 69 65  1  0
 69 73  1  0
 70 69  1  0
 71 72  1  0
 71 70  1  0
 72 68  1  0
 73 74  2  0
 74 75  1  0
 76 75  2  0
 77 76  1  0
 78 52  1  0
 78 83  1  0
 78 79  1  0
 79 82  1  1
 79 80  1  0
 81 79  1  0
 83 86  1  0
 84 88  1  0
 84 83  1  0
 85 84  2  0
 88 87  1  0
 90 88  1  0
 90 91  1  0
 90 89  1  0
M  ISO  4   9 100  17 100  50 101  51 101
M  END
>  <TORSDO>  (76) 
F 20

>  <SCORE>  (76) 
-12.129

>  <name>  (76) 
75

>  <ligand_id>  (76) 
75

>  <original_smiles>  (76) 
[H]c1c([H])c([H])c2c(c1[H])C([H])([H])C([H])([H])C([H])([H])C2([H])N([H])C(=O)C1([H])N(C(=O)C([H])(N([H])C(=O)C([H])(N([H])C([H])([H])[H])C([H])([H])[H])C(C([H])([H])[H])(C([H])([H])[H])C([H])([H])[H])C([H])([H])c2c([H])c(OC([H])(C([H])([H])[H])C([H])(C([H])([H])[H])C([H])([H])n3c([H])c([H])c(F)c3C([H])([H])N([H])C(=O)N3C([H])([H])C([H])([H])C([H])([H])C([H])(n4nc(-c5c([H])c([H])c(Oc6c([H])c([H])c(F)c([H])c6F)c([H])c5[H])c(C(=O)N([H])[H])c4N([H])[H])C3([H])[H])c([H])c([H])c2C1([H])[H]

>  <smiles>  (76) 
[H]c1c([H])c([H])c2c(c1[H])C([H])([H])C([H])([H])C([H])([H])C2([H])N([H])C(=O)C1([H])N(C(=O)C([H])(N([H])C(=O)C([H])(N([H])C([H])([H])[H])C([H])([H])[H])C(C([H])([H])[H])(C([H])([H])[H])C([H])([H])[H])C([H])([H])c2c([H])c(OC([H])(C([H])([H])[H])C([H])(C([H])([H])[H])C([H])([H])n3c([H])c([H])c(F)c3C([H])([H])N([H])C(=O)N3C([H])([H])C([H])([H])C([H])([H])C([H])(n4nc(-c5c([H])c([H])c(Oc6c([H])c([H])c(F)c([H])c6F)c([H])c5[H])c(C(=O)N([H])[H])c4N([H])[H])C3([H])[H])c([H])c([H])c2C1([H])[H]

$$$$
76:0:0
     RDKit          3D

 96104  0  0  1  0  0  0  0  0999 V2000
  -29.9740  -23.6000   18.9700 C   0  0  0  0  0  3  0  0  0  0  0  0
  -30.6360  -22.4290   20.9640 C   0  0  0  0  0  3  0  0  0  0  0  0
  -29.9400  -22.3630   18.3090 C   0  0  0  0  0  3  0  0  0  0  0  0
  -30.3020  -23.6520   20.3440 C   0  0  0  0  0  0  0  0  0  0  0  0
  -30.5990  -21.2370   20.2170 C   0  0  0  0  0  0  0  0  0  0  0  0
  -30.2250  -21.1960   18.9190 N   0  0  0  0  0  0  0  0  0  0  0  0
  -29.8100  -24.7690   22.5720 C   0  0  0  0  0  1  0  0  0  0  0  0
  -31.8210  -25.4150   21.2200 C   0  0  0  0  0  1  0  0  0  0  0  0
  -30.3470  -24.9720   21.1380 C   0  0  1  0  0  0  0  0  0  0  0  0
  -29.5450  -26.1210   20.4690 C   0  0  0  0  0  2  0  0  0  0  0  0
  -28.0080  -25.9700   20.4110 C   0  0  0  0  0  2  0  0  0  0  0  0
  -27.5660  -26.8460   19.3870 O   0  0  0  0  0  0  0  0  0  0  0  0
  -24.4230  -31.9720   23.2080 C   0  0  0  0  0  0  0  0  0  0  0  0
  -26.4440  -27.5810   19.6540 C   0  0  0  0  0  0  0  0  0  0  0  0
  -22.9630  -30.7500   21.6250 C   0  0  0  0  0  3  0  0  0  0  0  0
  -24.1620  -29.1980   19.9930 C   0  0  0  0  0  0  0  0  0  0  0  0
  -25.4760  -30.9590   21.1950 C   0  0  0  0  0  2  0  0  0  0  0  0
  -25.4020  -29.6230   20.4880 C   0  0  0  0  0  0  0  0  0  0  0  0
  -26.5480  -28.8200   20.3180 C   0  0  0  0  0  3  0  0  0  0  0  0
  -25.1930  -27.1530   19.1690 C   0  0  0  0  0  3  0  0  0  0  0  0
  -24.0490  -27.9600   19.3330 C   0  0  0  0  0  3  0  0  0  0  0  0
  -22.9900  -30.1310   20.2020 C   0  0  0  0  0  2  0  0  0  0  0  0
  -24.3110  -31.2370   22.0660 N   0  0  0  0  0  0  0  0  0  0  0  0
  -23.4220  -32.2840   23.8670 O   0  0  0  0  0  0  0  0  0  0  0  0
  -22.3380  -29.7220   22.5940 C   0  0  0  0  0  0  0  0  0  0  0  0
  -21.0090  -29.5510   22.5060 N   0  0  0  0  0  0  0  0  0  0  0  0
  -23.0440  -29.0790   23.3770 O   0  0  0  0  0  0  0  0  0  0  0  0
  -20.5010  -30.1210   21.8440 H   0  0  0  0  0  0  0  0  0  0  0  0
  -17.6580  -28.3000   23.0120 C   0  0  0  0  0  0  0  0  0  0  0  0
  -20.2100  -28.6100   23.2890 C   0  0  0  0  0  3  0  0  0  0  0  0
  -20.3410  -27.1720   22.7350 C   0  0  0  0  0  2  0  0  0  0  0  0
  -19.2490  -26.8130   21.7220 C   0  0  0  0  0  2  0  0  0  0  0  0
  -17.8630  -26.9430   22.3590 C   0  0  0  0  0  2  0  0  0  0  0  0
  -18.7610  -29.0900   23.4340 C   0  0  0  0  0  0  0  0  0  0  0  0
  -18.5160  -30.3580   24.0010 C   0  0  0  0  0  3  0  0  0  0  0  0
  -17.2020  -30.8390   24.1530 C   0  0  0  0  0  3  0  0  0  0  0  0
  -16.1140  -30.0460   23.7470 C   0  0  0  0  0  3  0  0  0  0  0  0
  -16.3430  -28.7810   23.1820 C   0  0  0  0  0  3  0  0  0  0  0  0
  -25.8070  -32.4740   23.7270 C   0  0  0  0  0  3  0  0  0  0  0  0
  -25.6430  -33.8760   24.1310 N   0  0  0  0  0  0  0  0  0  0  0  0
  -26.0450  -34.9280   23.4070 C   0  0  0  0  0  0  0  0  0  0  0  0
  -26.6640  -34.8130   22.3450 O   0  0  0  0  0  0  0  0  0  0  0  0
  -25.0930  -34.0470   24.9610 H   0  0  0  0  0  0  0  0  0  0  0  0
  -24.5090  -36.9040   23.1710 C   0  0  0  0  0  1  0  0  0  0  0  0
  -25.7050  -36.3310   23.9450 C   0  0  0  0  0  3  0  0  0  0  0  0
  -27.9190  -36.9460   24.8090 C   0  0  0  0  0  1  0  0  0  0  0  0
  -26.8410  -37.2760   23.8810 N   0  0  0  0  0  0  0  0  0  0  0  0
  -26.5320  -38.2240   24.0750 H   0  0  0  0  0  0  0  0  0  0  0  0
  -26.3800  -31.6110   24.9170 C   0  0  1  0  0  0  0  0  0  0  0  0
  -25.3730  -31.4030   26.0730 C   0  0  0  0  0  1  0  0  0  0  0  0
  -26.8220  -30.2160   24.4180 C   0  0  0  0  0  1  0  0  0  0  0  0
  -27.6400  -32.2930   25.4990 C   0  0  0  0  0  1  0  0  0  0  0  0
  -30.8640  -19.8880   20.8470 C   0  0  0  0  0  2  0  0  0  0  0  0
  -29.6570  -19.0870   20.6190 N   0  0  0  0  0  4  0  0  0  0  0  0
  -29.2840  -19.5120   19.7800 H   0  0  0  0  0  0  0  0  0  0  0  0
  -28.9970  -19.2690   21.3560 H   0  0  0  0  0  0  0  0  0  0  0  0
  -29.8340  -17.6410   20.3880 C   0  0  0  0  0  2  0  0  0  0  0  0
  -30.3900  -16.8790   21.6120 C   0  0  0  0  0  2  0  0  0  0  0  0
  -30.7210  -14.6210   20.6130 C   0  0  0  0  0  0  0  0  0  0  0  0
  -30.4180  -12.5460   19.3230 C   0  0  0  0  0  2  0  0  0  0  0  0
  -29.4670  -12.8080   18.1390 C   0  0  0  0  0  2  0  0  0  0  0  0
  -27.9920  -12.6520   18.5670 C   0  0  0  0  0  2  0  0  0  0  0  0
  -27.6610  -13.4240   19.8720 C   0  0  0  0  0  3  0  0  0  0  0  0
  -28.7190  -13.1300   20.9590 C   0  0  0  0  0  2  0  0  0  0  0  0
  -30.0510  -13.4580   20.4130 N   0  0  0  0  0  0  0  0  0  0  0  0
  -31.7410  -14.9470   20.0000 O   0  0  0  0  0  0  0  0  0  0  0  0
  -30.1350  -15.4470   21.4850 N   0  0  0  0  0  0  0  0  0  0  0  0
  -29.3330  -15.0780   21.9720 H   0  0  0  0  0  0  0  0  0  0  0  0
  -25.2520  -13.9880   20.5960 C   0  0  0  0  0  0  0  0  0  0  0  0
  -24.1950  -13.1940   20.9520 C   0  0  0  0  0  0  0  0  0  0  0  0
  -24.6720  -11.8490   20.8820 C   0  0  0  0  0  0  0  0  0  0  0  0
  -26.3090  -13.1260   20.3420 N   0  0  0  0  0  0  0  0  0  0  0  0
  -25.9610  -11.8340   20.5650 N   0  0  0  0  0  0  0  0  0  0  0  0
  -23.9660  -10.5730   21.0480 C   0  0  0  0  0  0  0  0  0  0  0  0
  -24.3790   -9.6170   22.0030 C   0  0  0  0  0  3  0  0  0  0  0  0
  -23.6710   -8.4060   22.1560 C   0  0  0  0  0  3  0  0  0  0  0  0
  -22.5380   -8.1390   21.3500 C   0  0  0  0  0  0  0  0  0  0  0  0
  -22.1450   -9.0840   20.3850 C   0  0  0  0  0  3  0  0  0  0  0  0
  -22.8520  -10.2880   20.2320 C   0  0  0  0  0  3  0  0  0  0  0  0
  -21.8060   -6.9790   21.4090 O   0  0  0  0  0  0  0  0  0  0  0  0
  -21.6670   -6.2730   22.5770 C   0  0  0  0  0  0  0  0  0  0  0  0
  -21.0660   -6.8400   23.7220 C   0  0  0  0  0  3  0  0  0  0  0  0
  -20.8780   -6.0580   24.8790 C   0  0  0  0  0  3  0  0  0  0  0  0
  -21.2830   -4.7100   24.8920 C   0  0  0  0  0  0  0  0  0  0  0  0
  -21.8770   -4.1420   23.7510 C   0  0  0  0  0  3  0  0  0  0  0  0
  -22.0660   -4.9210   22.5960 C   0  0  0  0  0  0  0  0  0  0  0  0
  -22.6200   -4.3630   21.4920 F   0  0  0  0  0  0  0  0  0  0  0  0
  -21.0960   -3.9560   26.0000 F   0  0  0  0  0  0  0  0  0  0  0  0
  -22.7930  -13.6470   21.2460 C   0  0  0  0  0  0  0  0  0  0  0  0
  -22.0790  -12.9150   22.0940 N   0  0  0  0  0  0  0  0  0  0  0  0
  -22.3400  -14.6820   20.7620 O   0  0  0  0  0  0  0  0  0  0  0  0
  -22.4590  -12.0790   22.5110 H   0  0  0  0  0  0  0  0  0  0  0  0
  -21.1380  -13.2000   22.3320 H   0  0  0  0  0  0  0  0  0  0  0  0
  -25.3970  -15.3650   20.4520 N   0  0  0  0  0  0  0  0  0  0  0  0
  -24.6210  -16.0070   20.5740 H   0  0  0  0  0  0  0  0  0  0  0  0
  -26.2370  -15.8200   20.1230 H   0  0  0  0  0  0  0  0  0  0  0  0
  1  4  1  0
  3  6  1  0
  3  1  2  0
  4  2  2  0
  4  9  1  0
  5 53  1  0
  5  2  1  0
  6  5  2  0
  9  8  1  1
  9  7  1  0
 10  9  1  0
 11 10  1  0
 12 14  1  0
 12 11  1  0
 13 24  2  0
 14 19  1  0
 15 23  1  0
 15 25  1  0
 16 22  1  0
 16 18  1  0
 17 23  1  0
 18 17  1  0
 19 18  2  0
 20 21  1  0
 20 14  2  0
 21 16  2  0
 22 15  1  0
 23 13  1  0
 25 27  2  0
 26 25  1  0
 28 26  1  0
 29 38  2  0
 29 34  1  0
 30 26  1  0
 30 34  1  0
 31 30  1  0
 32 33  1  0
 32 31  1  0
 33 29  1  0
 34 35  2  0
 35 36  1  0
 37 36  2  0
 38 37  1  0
 39 13  1  0
 39 40  1  0
 39 49  1  0
 40 43  1  0
 41 45  1  0
 41 40  1  0
 42 41  2  0
 45 44  1  0
 47 45  1  0
 47 48  1  0
 47 46  1  0
 49 52  1  1
 49 50  1  0
 51 49  1  0
 54 53  1  0
 54 56  1  0
 55 54  1  0
 57 54  1  0
 57 58  1  0
 59 67  1  0
 60 65  1  0
 61 62  1  0
 61 60  1  0
 63 62  1  0
 63 72  1  0
 63 64  1  0
 65 59  1  0
 65 64  1  0
 66 59  2  0
 67 58  1  0
 67 68  1  0
 69 70  2  0
 70 89  1  0
 71 70  1  0
 71 74  1  0
 72 73  1  0
 72 69  1  0
 73 71  2  0
 74 75  1  0
 75 76  2  0
 77 80  1  0
 77 76  1  0
 78 77  2  0
 79 78  1  0
 79 74  2  0
 80 81  1  0
 81 86  2  0
 81 82  1  0
 82 83  2  0
 83 84  1  0
 84 88  1  0
 85 84  2  0
 86 85  1  0
 87 86  1  0
 89 90  1  0
 90 93  1  0
 90 92  1  0
 91 89  2  0
 94 95  1  0
 94 69  1  0
 96 94  1  0
M  ISO  4  11 101  12 101  59 100  67 100
M  END
>  <TORSDO>  (77) 
F 23

>  <SCORE>  (77) 
-12.112

>  <name>  (77) 
76

>  <ligand_id>  (77) 
76

>  <original_smiles>  (77) 
[H]c1nc(C([H])([H])[N+]([H])([H])C([H])([H])C([H])([H])N([H])C(=O)N2C([H])([H])C([H])([H])C([H])([H])C([H])(n3nc(-c4c([H])c([H])c(Oc5c([H])c([H])c(F)c([H])c5F)c([H])c4[H])c(C(=O)N([H])[H])c3N([H])[H])C2([H])[H])c([H])c(C(C([H])([H])[H])(C([H])([H])[H])C([H])([H])C([H])([H])Oc2c([H])c([H])c3c(c2[H])C([H])([H])N(C(=O)C([H])(N([H])C(=O)C([H])(N([H])C([H])([H])[H])C([H])([H])[H])C(C([H])([H])[H])(C([H])([H])[H])C([H])([H])[H])C([H])(C(=O)N([H])C2([H])c4c([H])c([H])c([H])c([H])c4C([H])([H])C([H])([H])C2([H])[H])C3([H])[H])c1[H]

>  <smiles>  (77) 
[H]c1nc(C([H])([H])[N+]([H])([H])C([H])([H])C([H])([H])N([H])C(=O)N2C([H])([H])C([H])([H])C([H])([H])C([H])(n3nc(-c4c([H])c([H])c(Oc5c([H])c([H])c(F)c([H])c5F)c([H])c4[H])c(C(=O)N([H])[H])c3N([H])[H])C2([H])[H])c([H])c(C(C([H])([H])[H])(C([H])([H])[H])C([H])([H])C([H])([H])Oc2c([H])c([H])c3c(c2[H])C([H])([H])N(C(=O)C([H])(N([H])C(=O)C([H])(N([H])C([H])([H])[H])C([H])([H])[H])C(C([H])([H])[H])(C([H])([H])[H])C([H])([H])[H])C([H])(C(=O)N([H])C2([H])c4c([H])c([H])c([H])c([H])c4C([H])([H])C([H])([H])C2([H])[H])C3([H])[H])c1[H]

$$$$
77:0:0
     RDKit          3D

 93101  0  0  1  0  0  0  0  0999 V2000
  -29.0420  -20.7700   20.2000 C   0  0  0  0  0  3  0  0  0  0  0  0
  -30.6630  -14.8420   19.8530 C   0  0  0  0  0  0  0  0  0  0  0  0
  -30.4030  -12.5160   18.9280 C   0  0  0  0  0  2  0  0  0  0  0  0
  -29.3950  -12.4390   17.7630 C   0  0  0  0  0  2  0  0  0  0  0  0
  -27.9770  -12.2020   18.3120 C   0  0  0  0  0  2  0  0  0  0  0  0
  -27.6310  -13.1610   19.4850 C   0  0  0  0  0  3  0  0  0  0  0  0
  -28.7620  -13.2180   20.5330 C   0  0  0  0  0  2  0  0  0  0  0  0
  -29.9730  -13.6340   19.8170 N   0  0  0  0  0  0  0  0  0  0  0  0
  -31.8630  -14.7770   19.5660 O   0  0  0  0  0  0  0  0  0  0  0  0
  -30.9370  -17.3850   20.0580 C   0  0  0  0  0  2  0  0  0  0  0  0
  -28.6720  -16.6430   19.9840 C   0  0  0  0  0  2  0  0  0  0  0  0
  -30.4430  -18.6730   19.2460 C   0  0  0  0  0  2  0  0  0  0  0  0
  -28.3680  -18.1920   20.4050 C   0  0  0  0  0  3  0  0  0  0  0  0
  -26.8410  -18.4270   20.3850 C   0  0  0  0  0  1  0  0  0  0  0  0
  -30.0860  -16.1430   19.9980 N   0  0  0  0  0  0  0  0  0  0  0  0
  -29.1190  -19.2830   19.6460 N   0  0  1  0  0  4  0  0  0  0  0  0
  -28.6300  -19.3470   18.7640 H   0  0  0  0  0  0  0  0  0  0  0  0
  -25.3080  -13.7280   20.4040 C   0  0  0  0  0  0  0  0  0  0  0  0
  -24.2740  -12.9510   20.8380 C   0  0  0  0  0  0  0  0  0  0  0  0
  -24.7360  -11.6000   20.7560 C   0  0  0  0  0  0  0  0  0  0  0  0
  -26.3340  -12.8560   20.0790 N   0  0  0  0  0  0  0  0  0  0  0  0
  -26.0020  -11.5710   20.3600 N   0  0  0  0  0  0  0  0  0  0  0  0
  -24.0210  -10.3360   20.9710 C   0  0  0  0  0  0  0  0  0  0  0  0
  -24.4680   -9.3880   21.9180 C   0  0  0  0  0  3  0  0  0  0  0  0
  -23.7520   -8.1900   22.1260 C   0  0  0  0  0  3  0  0  0  0  0  0
  -22.5730   -7.9310   21.3870 C   0  0  0  0  0  0  0  0  0  0  0  0
  -22.1450   -8.8670   20.4310 C   0  0  0  0  0  3  0  0  0  0  0  0
  -22.8610  -10.0570   20.2210 C   0  0  0  0  0  3  0  0  0  0  0  0
  -21.8290   -6.7820   21.5010 O   0  0  0  0  0  0  0  0  0  0  0  0
  -21.7440   -6.0950   22.6840 C   0  0  0  0  0  0  0  0  0  0  0  0
  -21.1810   -6.6740   23.8430 C   0  0  0  0  0  3  0  0  0  0  0  0
  -21.0470   -5.9090   25.0200 C   0  0  0  0  0  3  0  0  0  0  0  0
  -21.4690   -4.5660   25.0390 C   0  0  0  0  0  0  0  0  0  0  0  0
  -22.0250   -3.9850   23.8860 C   0  0  0  0  0  3  0  0  0  0  0  0
  -22.1590   -4.7470   22.7120 C   0  0  0  0  0  0  0  0  0  0  0  0
  -22.6770   -4.1770   21.5960 F   0  0  0  0  0  0  0  0  0  0  0  0
  -21.3340   -3.8290   26.1660 F   0  0  0  0  0  0  0  0  0  0  0  0
  -22.8970  -13.4250   21.2030 C   0  0  0  0  0  0  0  0  0  0  0  0
  -22.2350  -12.7410   22.1260 N   0  0  0  0  0  0  0  0  0  0  0  0
  -22.4210  -14.4440   20.7040 O   0  0  0  0  0  0  0  0  0  0  0  0
  -22.6410  -11.9250   22.5650 H   0  0  0  0  0  0  0  0  0  0  0  0
  -21.3120  -13.0410   22.4030 H   0  0  0  0  0  0  0  0  0  0  0  0
  -25.4470  -15.1020   20.2220 N   0  0  0  0  0  0  0  0  0  0  0  0
  -24.6500  -15.7150   20.3530 H   0  0  0  0  0  0  0  0  0  0  0  0
  -26.2130  -15.5360   19.7290 H   0  0  0  0  0  0  0  0  0  0  0  0
  -28.8080  -22.0730   19.2150 C   0  0  0  0  0  2  0  0  0  0  0  0
  -27.8850  -23.4240   19.5290 C   0  0  0  0  0  2  0  0  0  0  0  0
  -28.2890  -24.8330   20.2780 C   0  0  0  0  0  2  0  0  0  0  0  0
  -28.2410  -26.2540   19.7310 O   0  0  0  0  0  0  0  0  0  0  0  0
  -24.5890  -31.6300   23.1160 C   0  0  0  0  0  0  0  0  0  0  0  0
  -27.1200  -27.1160   19.8490 C   0  0  0  0  0  0  0  0  0  0  0  0
  -23.3510  -30.3000   21.4440 C   0  0  0  0  0  3  0  0  0  0  0  0
  -24.7700  -28.7800   19.9430 C   0  0  0  0  0  0  0  0  0  0  0  0
  -25.8920  -30.6030   21.2220 C   0  0  0  0  0  2  0  0  0  0  0  0
  -25.9580  -29.2360   20.5290 C   0  0  0  0  0  0  0  0  0  0  0  0
  -27.1390  -28.4220   20.4570 C   0  0  0  0  0  3  0  0  0  0  0  0
  -25.9070  -26.7230   19.2510 C   0  0  0  0  0  3  0  0  0  0  0  0
  -24.7500  -27.5340   19.2930 C   0  0  0  0  0  3  0  0  0  0  0  0
  -23.5400  -29.6670   20.0390 C   0  0  0  0  0  2  0  0  0  0  0  0
  -24.6330  -30.8610   21.9850 N   0  0  0  0  0  0  0  0  0  0  0  0
  -23.5150  -31.8890   23.6780 O   0  0  0  0  0  0  0  0  0  0  0  0
  -22.6930  -29.2570   22.3790 C   0  0  0  0  0  0  0  0  0  0  0  0
  -21.3690  -29.0670   22.2470 N   0  0  0  0  0  0  0  0  0  0  0  0
  -23.3750  -28.6220   23.1890 O   0  0  0  0  0  0  0  0  0  0  0  0
  -20.8740  -29.6300   21.5700 H   0  0  0  0  0  0  0  0  0  0  0  0
  -18.0120  -27.7910   22.7010 C   0  0  0  0  0  0  0  0  0  0  0  0
  -20.5650  -28.0960   22.9920 C   0  0  0  0  0  3  0  0  0  0  0  0
  -20.6980  -26.6810   22.3840 C   0  0  0  0  0  2  0  0  0  0  0  0
  -19.6080  -26.3600   21.3560 C   0  0  0  0  0  2  0  0  0  0  0  0
  -18.2200  -26.4630   21.9950 C   0  0  0  0  0  2  0  0  0  0  0  0
  -19.1130  -28.5650   23.1560 C   0  0  0  0  0  0  0  0  0  0  0  0
  -18.8640  -29.8080   23.7790 C   0  0  0  0  0  3  0  0  0  0  0  0
  -17.5490  -30.2790   23.9470 C   0  0  0  0  0  3  0  0  0  0  0  0
  -16.4640  -29.5020   23.5080 C   0  0  0  0  0  3  0  0  0  0  0  0
  -16.6950  -28.2600   22.8910 C   0  0  0  0  0  3  0  0  0  0  0  0
  -25.8820  -32.2380   23.7420 C   0  0  0  0  0  3  0  0  0  0  0  0
  -25.5920  -33.6350   24.1020 N   0  0  0  0  0  0  0  0  0  0  0  0
  -25.9350  -34.7000   23.3650 C   0  0  0  0  0  0  0  0  0  0  0  0
  -26.5980  -34.6100   22.3280 O   0  0  0  0  0  0  0  0  0  0  0  0
  -25.0060  -33.7790   24.9120 H   0  0  0  0  0  0  0  0  0  0  0  0
  -24.2500  -36.5390   23.0370 C   0  0  0  0  0  1  0  0  0  0  0  0
  -25.4710  -36.0860   23.8540 C   0  0  0  0  0  3  0  0  0  0  0  0
  -27.6000  -36.9180   24.7510 C   0  0  0  0  0  1  0  0  0  0  0  0
  -26.5270  -37.1200   23.7810 N   0  0  0  0  0  0  0  0  0  0  0  0
  -26.1330  -38.0450   23.9320 H   0  0  0  0  0  0  0  0  0  0  0  0
  -26.3960  -31.4390   25.0040 C   0  0  1  0  0  0  0  0  0  0  0  0
  -25.3030  -31.1950   26.0700 C   0  0  0  0  0  1  0  0  0  0  0  0
  -26.9610  -30.0620   24.5840 C   0  0  0  0  0  1  0  0  0  0  0  0
  -27.5590  -32.2070   25.6770 C   0  0  0  0  0  1  0  0  0  0  0  0
  -30.1110  -21.0500   21.2890 C   0  0  0  0  0  2  0  0  0  0  0  0
  -32.5980  -20.9100   21.7780 C   0  0  0  0  0  1  0  0  0  0  0  0
  -31.6950  -23.0070   20.7320 C   0  0  0  0  0  1  0  0  0  0  0  0
  -31.5340  -21.4810   20.8320 C   0  0  0  0  0  3  0  0  0  0  0  0
  1 46  1  0
  1 90  1  0
  2 15  1  0
  3  8  1  0
  4  5  1  0
  4  3  1  0
  6  5  1  0
  6 21  1  0
  6  7  1  0
  8  2  1  0
  8  7  1  0
  9  2  2  0
 11 15  1  0
 11 13  1  0
 12 16  1  0
 12 10  1  0
 13 14  1  0
 15 10  1  0
 16  1  1  0
 16 13  1  0
 16 17  1  6
 18 19  2  0
 19 38  1  0
 20 19  1  0
 20 23  1  0
 21 22  1  0
 21 18  1  0
 22 20  2  0
 23 24  1  0
 24 25  2  0
 26 29  1  0
 26 25  1  0
 27 26  2  0
 28 27  1  0
 28 23  2  0
 29 30  1  0
 30 35  2  0
 30 31  1  0
 31 32  2  0
 32 33  1  0
 33 37  1  0
 34 33  2  0
 35 34  1  0
 36 35  1  0
 38 39  1  0
 39 42  1  0
 39 41  1  0
 40 38  2  0
 43 44  1  0
 43 18  1  0
 45 43  1  0
 46 47  1  0
 47 48  1  0
 49 51  1  0
 49 48  1  0
 50 61  2  0
 51 56  1  0
 52 60  1  0
 52 62  1  0
 53 59  1  0
 53 55  1  0
 54 60  1  0
 55 54  1  0
 56 55  2  0
 57 58  1  0
 57 51  2  0
 58 53  2  0
 59 52  1  0
 60 50  1  0
 62 64  2  0
 63 62  1  0
 65 63  1  0
 66 75  2  0
 66 71  1  0
 67 63  1  0
 67 71  1  0
 68 67  1  0
 69 70  1  0
 69 68  1  0
 70 66  1  0
 71 72  2  0
 72 73  1  0
 74 73  2  0
 75 74  1  0
 76 50  1  0
 76 77  1  0
 76 86  1  0
 77 80  1  0
 78 82  1  0
 78 77  1  0
 79 78  2  0
 82 81  1  0
 84 82  1  0
 84 85  1  0
 84 83  1  0
 86 89  1  1
 86 87  1  0
 88 86  1  0
 92 93  1  0
 93 90  1  0
 93 91  1  0
M  ISO  4   2 100  15 100  48 101  49 101
M  END
>  <TORSDO>  (78) 
F 21

>  <SCORE>  (78) 
-12.861

>  <name>  (78) 
77

>  <ligand_id>  (78) 
77

>  <original_smiles>  (78) 
[H]c1c([H])c([H])c2c(c1[H])C([H])([H])C([H])([H])C([H])([H])C2([H])N([H])C(=O)C1([H])N(C(=O)C([H])(N([H])C(=O)C([H])(N([H])C([H])([H])[H])C([H])([H])[H])C(C([H])([H])[H])(C([H])([H])[H])C([H])([H])[H])C([H])([H])c2c([H])c(OC([H])([H])C([H])([H])C([H])([H])C([H])(C([H])([H])C([H])(C([H])([H])[H])C([H])([H])[H])[N+]3([H])C([H])([H])C([H])([H])N(C(=O)N4C([H])([H])C([H])([H])C([H])([H])C([H])(n5nc(-c6c([H])c([H])c(Oc7c([H])c([H])c(F)c([H])c7F)c([H])c6[H])c(C(=O)N([H])[H])c5N([H])[H])C4([H])[H])C([H])([H])C3([H])C([H])([H])[H])c([H])c([H])c2C1([H])[H]

>  <smiles>  (78) 
[H]c1c([H])c([H])c2c(c1[H])C([H])([H])C([H])([H])C([H])([H])C2([H])N([H])C(=O)C1([H])N(C(=O)C([H])(N([H])C(=O)C([H])(N([H])C([H])([H])[H])C([H])([H])[H])C(C([H])([H])[H])(C([H])([H])[H])C([H])([H])[H])C([H])([H])c2c([H])c(OC([H])([H])C([H])([H])C([H])([H])C([H])(C([H])([H])C([H])(C([H])([H])[H])C([H])([H])[H])[N+]3([H])C([H])([H])C([H])([H])N(C(=O)N4C([H])([H])C([H])([H])C([H])([H])C([H])(n5nc(-c6c([H])c([H])c(Oc7c([H])c([H])c(F)c([H])c7F)c([H])c6[H])c(C(=O)N([H])[H])c5N([H])[H])C4([H])[H])C([H])([H])C3([H])C([H])([H])[H])c([H])c([H])c2C1([H])[H]

$$$$
78:0:0
     RDKit          3D

 94102  0  0  1  0  0  0  0  0999 V2000
  -30.3570  -20.6190   18.7950 C   0  0  0  0  0  2  0  0  0  0  0  0
  -29.7340  -20.6170   20.0820 C   0  0  0  0  0  0  0  0  0  0  0  0
  -29.6040  -19.7240   18.0760 C   0  0  0  0  0  3  0  0  0  0  0  0
  -29.4810  -19.1990   20.2030 C   0  0  0  0  0  3  0  0  0  0  0  0
  -28.7480  -19.1940   19.0310 N   0  0  0  0  0  0  0  0  0  0  0  0
  -26.8200  -17.6660   19.2740 C   0  0  0  0  0  1  0  0  0  0  0  0
  -27.3020  -19.0460   18.8910 C   0  0  0  0  0  2  0  0  0  0  0  0
  -29.2050  -21.9960   20.8260 C   0  0  0  0  0  3  0  0  0  0  0  0
  -30.8080  -24.0380   20.4070 C   0  0  0  0  0  1  0  0  0  0  0  0
  -29.3530  -23.5800   20.2620 C   0  0  0  0  0  3  0  0  0  0  0  0
  -28.3830  -24.8450   20.7900 C   0  0  0  0  0  2  0  0  0  0  0  0
  -28.5710  -26.3670   20.5480 O   0  0  0  0  0  0  0  0  0  0  0  0
  -24.6420  -31.9920   23.2930 C   0  0  0  0  0  0  0  0  0  0  0  0
  -27.4600  -27.2810   20.4830 C   0  0  0  0  0  0  0  0  0  0  0  0
  -23.5330  -30.5020   21.6730 C   0  0  0  0  0  3  0  0  0  0  0  0
  -25.0670  -28.9280   20.3460 C   0  0  0  0  0  0  0  0  0  0  0  0
  -26.0790  -30.8500   21.5630 C   0  0  0  0  0  2  0  0  0  0  0  0
  -26.2170  -29.4390   20.9630 C   0  0  0  0  0  0  0  0  0  0  0  0
  -27.4150  -28.6340   21.0070 C   0  0  0  0  0  3  0  0  0  0  0  0
  -26.2800  -26.8640   19.8300 C   0  0  0  0  0  3  0  0  0  0  0  0
  -25.1110  -27.6510   19.7670 C   0  0  0  0  0  3  0  0  0  0  0  0
  -23.8110  -29.7850   20.3250 C   0  0  0  0  0  2  0  0  0  0  0  0
  -24.7700  -31.1380   22.2310 N   0  0  0  0  0  0  0  0  0  0  0  0
  -23.5350  -32.2600   23.7780 O   0  0  0  0  0  0  0  0  0  0  0  0
  -22.8610  -29.5080   22.6500 C   0  0  0  0  0  0  0  0  0  0  0  0
  -21.5470  -29.2720   22.4730 N   0  0  0  0  0  0  0  0  0  0  0  0
  -23.5210  -28.9490   23.5280 O   0  0  0  0  0  0  0  0  0  0  0  0
  -21.0680  -29.7740   21.7380 H   0  0  0  0  0  0  0  0  0  0  0  0
  -18.2060  -27.9340   22.8740 C   0  0  0  0  0  0  0  0  0  0  0  0
  -20.7330  -28.3330   23.2510 C   0  0  0  0  0  3  0  0  0  0  0  0
  -20.9300  -26.8820   22.7540 C   0  0  0  0  0  2  0  0  0  0  0  0
  -19.8950  -26.4570   21.7070 C   0  0  0  0  0  2  0  0  0  0  0  0
  -18.4780  -26.5640   22.2770 C   0  0  0  0  0  2  0  0  0  0  0  0
  -19.2640  -28.7700   23.3190 C   0  0  0  0  0  0  0  0  0  0  0  0
  -18.9570  -30.0470   23.8360 C   0  0  0  0  0  3  0  0  0  0  0  0
  -17.6220  -30.4900   23.9160 C   0  0  0  0  0  3  0  0  0  0  0  0
  -16.5780  -29.6520   23.4890 C   0  0  0  0  0  3  0  0  0  0  0  0
  -16.8690  -28.3760   22.9750 C   0  0  0  0  0  3  0  0  0  0  0  0
  -25.8820  -32.6870   23.9310 C   0  0  0  0  0  3  0  0  0  0  0  0
  -25.5120  -34.0790   24.2310 N   0  0  0  0  0  0  0  0  0  0  0  0
  -25.8230  -35.1330   23.4660 C   0  0  0  0  0  0  0  0  0  0  0  0
  -26.5230  -35.0390   22.4540 O   0  0  0  0  0  0  0  0  0  0  0  0
  -24.8920  -34.2230   25.0140 H   0  0  0  0  0  0  0  0  0  0  0  0
  -24.0460  -36.8610   23.0400 C   0  0  0  0  0  1  0  0  0  0  0  0
  -25.2770  -36.5100   23.8910 C   0  0  0  0  0  3  0  0  0  0  0  0
  -27.3550  -37.4800   24.7690 C   0  0  0  0  0  1  0  0  0  0  0  0
  -26.2750  -37.5970   23.7930 N   0  0  0  0  0  0  0  0  0  0  0  0
  -25.8320  -38.5050   23.9160 H   0  0  0  0  0  0  0  0  0  0  0  0
  -26.3930  -31.9610   25.2360 C   0  0  1  0  0  0  0  0  0  0  0  0
  -25.2790  -31.6760   26.2700 C   0  0  0  0  0  1  0  0  0  0  0  0
  -27.0690  -30.6150   24.8890 C   0  0  0  0  0  1  0  0  0  0  0  0
  -27.4720  -32.8290   25.9290 C   0  0  0  0  0  1  0  0  0  0  0  0
  -30.4260  -17.8440   20.2860 C   0  0  0  0  0  2  0  0  0  0  0  0
  -30.7650  -15.1300   20.2280 C   0  0  0  0  0  0  0  0  0  0  0  0
  -30.6330  -12.7950   19.2650 C   0  0  0  0  0  2  0  0  0  0  0  0
  -29.6780  -12.7840   18.0520 C   0  0  0  0  0  2  0  0  0  0  0  0
  -28.2330  -12.5410   18.5240 C   0  0  0  0  0  2  0  0  0  0  0  0
  -27.8360  -13.4460   19.7240 C   0  0  0  0  0  3  0  0  0  0  0  0
  -28.9190  -13.4540   20.8250 C   0  0  0  0  0  2  0  0  0  0  0  0
  -30.1680  -13.8700   20.1820 N   0  0  0  0  0  0  0  0  0  0  0  0
  -31.9690  -15.1830   19.9640 O   0  0  0  0  0  0  0  0  0  0  0  0
  -29.9940  -16.3260   20.3500 N   0  0  0  0  0  0  0  0  0  0  0  0
  -29.0100  -16.1740   20.5030 H   0  0  0  0  0  0  0  0  0  0  0  0
  -25.4720  -13.9850   20.5580 C   0  0  0  0  0  0  0  0  0  0  0  0
  -24.4170  -13.2010   20.9270 C   0  0  0  0  0  0  0  0  0  0  0  0
  -24.8820  -11.8560   20.8320 C   0  0  0  0  0  0  0  0  0  0  0  0
  -26.5120  -13.1240   20.2470 N   0  0  0  0  0  0  0  0  0  0  0  0
  -26.1660  -11.8310   20.4830 N   0  0  0  0  0  0  0  0  0  0  0  0
  -24.1580  -10.5920   20.9890 C   0  0  0  0  0  0  0  0  0  0  0  0
  -24.5770   -9.6170   21.9190 C   0  0  0  0  0  3  0  0  0  0  0  0
  -23.8480   -8.4190   22.0690 C   0  0  0  0  0  3  0  0  0  0  0  0
  -22.6910   -8.1900   21.2880 C   0  0  0  0  0  0  0  0  0  0  0  0
  -22.2890   -9.1580   20.3520 C   0  0  0  0  0  3  0  0  0  0  0  0
  -23.0180  -10.3480   20.1990 C   0  0  0  0  0  3  0  0  0  0  0  0
  -21.9330   -7.0460   21.3520 O   0  0  0  0  0  0  0  0  0  0  0  0
  -21.8320   -6.3100   22.5040 C   0  0  0  0  0  0  0  0  0  0  0  0
  -21.3270   -6.8670   23.6990 C   0  0  0  0  0  3  0  0  0  0  0  0
  -21.1770   -6.0600   24.8450 C   0  0  0  0  0  3  0  0  0  0  0  0
  -21.5210   -4.6940   24.7950 C   0  0  0  0  0  0  0  0  0  0  0  0
  -22.0180   -4.1370   23.6040 C   0  0  0  0  0  3  0  0  0  0  0  0
  -22.1710   -4.9420   22.4620 C   0  0  0  0  0  0  0  0  0  0  0  0
  -22.6310   -4.3950   21.3110 F   0  0  0  0  0  0  0  0  0  0  0  0
  -21.3680   -3.9160   25.8920 F   0  0  0  0  0  0  0  0  0  0  0  0
  -23.0310  -13.6780   21.2410 C   0  0  0  0  0  0  0  0  0  0  0  0
  -22.3160  -12.9600   22.1020 N   0  0  0  0  0  0  0  0  0  0  0  0
  -22.5880  -14.7220   20.7640 O   0  0  0  0  0  0  0  0  0  0  0  0
  -22.6890  -12.1220   22.5170 H   0  0  0  0  0  0  0  0  0  0  0  0
  -21.3870  -13.2660   22.3520 H   0  0  0  0  0  0  0  0  0  0  0  0
  -25.6020  -15.3530   20.4380 N   0  0  0  0  0  0  0  0  0  0  0  0
  -24.7790  -15.9420   20.5190 H   0  0  0  0  0  0  0  0  0  0  0  0
  -26.3330  -15.7880   19.8860 H   0  0  0  0  0  0  0  0  0  0  0  0
  -29.4150  -19.5630   16.5950 C   0  0  0  0  0  2  0  0  0  0  0  0
  -27.8240  -18.5790   15.1440 C   0  0  0  0  0  1  0  0  0  0  0  0
  -28.5020  -18.4880   16.3890 O   0  0  0  0  0  0  0  0  0  0  0  0
  1  2  1  0
  2  4  1  0
  2  8  2  0
  3 92  1  0
  3  1  1  0
  3  5  1  0
  4 53  1  0
  5  4  1  0
  7  5  1  0
  7  6  1  0
 10  9  1  0
 10 11  1  0
 10  8  1  0
 12 11  1  0
 13 24  2  0
 14 12  1  0
 14 19  1  0
 15 23  1  0
 15 25  1  0
 16 18  1  0
 17 23  1  0
 18 19  2  0
 18 17  1  0
 20 14  2  0
 21 20  1  0
 21 16  2  0
 22 16  1  0
 22 15  1  0
 23 13  1  0
 25 27  2  0
 26 25  1  0
 28 26  1  0
 29 38  2  0
 29 34  1  0
 30 26  1  0
 30 34  1  0
 31 30  1  0
 32 33  1  0
 32 31  1  0
 33 29  1  0
 34 35  2  0
 35 36  1  0
 37 36  2  0
 38 37  1  0
 39 13  1  0
 39 40  1  0
 39 49  1  0
 40 43  1  0
 41 45  1  0
 41 40  1  0
 42 41  2  0
 45 44  1  0
 47 45  1  0
 47 48  1  0
 47 46  1  0
 49 52  1  1
 49 50  1  0
 51 49  1  0
 53 62  1  0
 54 62  1  0
 55 60  1  0
 56 57  1  0
 56 55  1  0
 58 57  1  0
 58 67  1  0
 58 59  1  0
 60 54  1  0
 60 59  1  0
 61 54  2  0
 62 63  1  0
 64 65  2  0
 65 84  1  0
 66 65  1  0
 66 69  1  0
 67 68  1  0
 67 64  1  0
 68 66  2  0
 69 70  1  0
 70 71  2  0
 72 75  1  0
 72 71  1  0
 73 72  2  0
 74 73  1  0
 74 69  2  0
 75 76  1  0
 76 77  1  0
 77 78  2  0
 79 78  1  0
 79 83  1  0
 80 79  2  0
 81 76  2  0
 81 80  1  0
 82 81  1  0
 84 85  1  0
 85 88  1  0
 85 87  1  0
 86 84  2  0
 89 90  1  0
 89 64  1  0
 91 89  1  0
 93 94  1  0
 94 92  1  0
M  ISO  4  11 101  12 101  54 100  62 100
M  END
>  <TORSDO>  (79) 
F 23

>  <SCORE>  (79) 
-12.406

>  <name>  (79) 
78

>  <ligand_id>  (79) 
78

>  <original_smiles>  (79) 
[H]c1c([H])c([H])c2c(c1[H])C([H])([H])C([H])([H])C([H])([H])C2([H])N([H])C(=O)C1([H])N(C(=O)C([H])(N([H])C(=O)C([H])(N([H])C([H])([H])[H])C([H])([H])[H])C(C([H])([H])[H])(C([H])([H])[H])C([H])([H])[H])C([H])([H])c2c([H])c(OC([H])([H])C([H])(C([H])([H])[H])C([H])([H])c3c([H])c(C([H])([H])OC([H])([H])[H])n(C([H])([H])C([H])([H])[H])c3C([H])([H])N([H])C(=O)N3C([H])([H])C([H])([H])C([H])([H])C([H])(n4nc(-c5c([H])c([H])c(Oc6c([H])c([H])c(F)c([H])c6F)c([H])c5[H])c(C(=O)N([H])[H])c4N([H])[H])C3([H])[H])c([H])c([H])c2C1([H])[H]

>  <smiles>  (79) 
[H]c1c([H])c([H])c2c(c1[H])C([H])([H])C([H])([H])C([H])([H])C2([H])N([H])C(=O)C1([H])N(C(=O)C([H])(N([H])C(=O)C([H])(N([H])C([H])([H])[H])C([H])([H])[H])C(C([H])([H])[H])(C([H])([H])[H])C([H])([H])[H])C([H])([H])c2c([H])c(OC([H])([H])C([H])(C([H])([H])[H])C([H])([H])c3c([H])c(C([H])([H])OC([H])([H])[H])n(C([H])([H])C([H])([H])[H])c3C([H])([H])N([H])C(=O)N3C([H])([H])C([H])([H])C([H])([H])C([H])(n4nc(-c5c([H])c([H])c(Oc6c([H])c([H])c(F)c([H])c6F)c([H])c5[H])c(C(=O)N([H])[H])c4N([H])[H])C3([H])[H])c([H])c([H])c2C1([H])[H]

$$$$
79:0:0
     RDKit          3D

 89 96  0  0  1  0  0  0  0  0999 V2000
  -27.2790  -22.0660   19.4720 C   0  0  0  0  0  1  0  0  0  0  0  0
  -28.6700  -22.3780   20.0640 C   0  0  0  0  0  3  0  0  0  0  0  0
  -29.0800  -23.8780   19.6300 C   0  0  0  0  0  3  0  0  0  0  0  0
  -28.1680  -25.0820   20.1780 C   0  0  0  0  0  3  0  0  0  0  0  0
  -28.4100  -26.5140   19.8300 O   0  0  0  0  0  0  0  0  0  0  0  0
  -24.6850  -31.7960   23.1300 C   0  0  0  0  0  0  0  0  0  0  0  0
  -27.2970  -27.3750   19.8560 C   0  0  0  0  0  0  0  0  0  0  0  0
  -23.4740  -30.4390   21.4630 C   0  0  0  0  0  3  0  0  0  0  0  0
  -24.9130  -28.9580   19.9630 C   0  0  0  0  0  0  0  0  0  0  0  0
  -26.0070  -30.7940   21.2450 C   0  0  0  0  0  2  0  0  0  0  0  0
  -26.0920  -29.4420   20.5450 C   0  0  0  0  0  0  0  0  0  0  0  0
  -27.2880  -28.6640   20.4800 C   0  0  0  0  0  3  0  0  0  0  0  0
  -26.0990  -26.9660   19.2280 C   0  0  0  0  0  3  0  0  0  0  0  0
  -24.9170  -27.7230   19.2990 C   0  0  0  0  0  3  0  0  0  0  0  0
  -23.6730  -29.8220   20.0570 C   0  0  0  0  0  2  0  0  0  0  0  0
  -24.7430  -31.0250   22.0040 N   0  0  0  0  0  0  0  0  0  0  0  0
  -23.6050  -32.0400   23.6910 O   0  0  0  0  0  0  0  0  0  0  0  0
  -22.8370  -29.3810   22.3950 C   0  0  0  0  0  0  0  0  0  0  0  0
  -21.5120  -29.1820   22.2780 N   0  0  0  0  0  0  0  0  0  0  0  0
  -23.5330  -28.7400   23.1870 O   0  0  0  0  0  0  0  0  0  0  0  0
  -21.0050  -29.7560   21.6160 H   0  0  0  0  0  0  0  0  0  0  0  0
  -18.1650  -27.8820   22.7540 C   0  0  0  0  0  0  0  0  0  0  0  0
  -20.7170  -28.2040   23.0250 C   0  0  0  0  0  3  0  0  0  0  0  0
  -20.8560  -26.7900   22.4160 C   0  0  0  0  0  2  0  0  0  0  0  0
  -19.7610  -26.4610   21.3970 C   0  0  0  0  0  2  0  0  0  0  0  0
  -18.3770  -26.5540   22.0450 C   0  0  0  0  0  2  0  0  0  0  0  0
  -19.2650  -28.6640   23.1990 C   0  0  0  0  0  0  0  0  0  0  0  0
  -19.0130  -29.9060   23.8210 C   0  0  0  0  0  3  0  0  0  0  0  0
  -17.6950  -30.3680   23.9990 C   0  0  0  0  0  3  0  0  0  0  0  0
  -16.6110  -29.5820   23.5690 C   0  0  0  0  0  3  0  0  0  0  0  0
  -16.8480  -28.3400   22.9540 C   0  0  0  0  0  3  0  0  0  0  0  0
  -25.9680  -32.4270   23.7560 C   0  0  0  0  0  3  0  0  0  0  0  0
  -25.6520  -33.8130   24.1380 N   0  0  0  0  0  0  0  0  0  0  0  0
  -25.9660  -34.8910   23.4070 C   0  0  0  0  0  0  0  0  0  0  0  0
  -26.6240  -34.8250   22.3660 O   0  0  0  0  0  0  0  0  0  0  0  0
  -25.0830  -33.9420   24.9620 H   0  0  0  0  0  0  0  0  0  0  0  0
  -24.2280  -36.6780   23.1090 C   0  0  0  0  0  1  0  0  0  0  0  0
  -25.4720  -36.2610   23.9110 C   0  0  0  0  0  3  0  0  0  0  0  0
  -27.6010  -37.1220   24.7740 C   0  0  0  0  0  1  0  0  0  0  0  0
  -26.5010  -37.3220   23.8350 N   0  0  0  0  0  0  0  0  0  0  0  0
  -26.0920  -38.2380   24.0090 H   0  0  0  0  0  0  0  0  0  0  0  0
  -26.5050  -31.6260   25.0050 C   0  0  1  0  0  0  0  0  0  0  0  0
  -25.4310  -31.3470   26.0810 C   0  0  0  0  0  1  0  0  0  0  0  0
  -27.0940  -30.2670   24.5670 C   0  0  0  0  0  1  0  0  0  0  0  0
  -27.6590  -32.4090   25.6730 C   0  0  0  0  0  1  0  0  0  0  0  0
  -29.6300  -21.1340   19.6880 C   0  0  0  0  0  2  0  0  0  0  0  0
  -28.6200  -19.7880   21.6130 C   0  0  0  0  0  1  0  0  0  0  0  0
  -29.6550  -19.8540   20.5440 N   0  0  1  0  0  4  0  0  0  0  0  0
  -30.5210  -19.9620   21.0480 H   0  0  0  0  0  0  0  0  0  0  0  0
  -29.8060  -18.4990   19.8280 C   0  0  0  0  0  2  0  0  0  0  0  0
  -30.4580  -17.2840   20.6610 C   0  0  0  0  0  2  0  0  0  0  0  0
  -30.9370  -14.7670   19.9840 C   0  0  0  0  0  0  0  0  0  0  0  0
  -30.6940  -12.5080   18.9610 C   0  0  0  0  0  2  0  0  0  0  0  0
  -29.7210  -12.6090   17.7650 C   0  0  0  0  0  2  0  0  0  0  0  0
  -28.2580  -12.4760   18.2400 C   0  0  0  0  0  2  0  0  0  0  0  0
  -27.9370  -13.3730   19.4680 C   0  0  0  0  0  3  0  0  0  0  0  0
  -29.0190  -13.2170   20.5570 C   0  0  0  0  0  2  0  0  0  0  0  0
  -30.3100  -13.5470   19.9350 N   0  0  0  0  0  0  0  0  0  0  0  0
  -32.1090  -14.9010   19.6240 O   0  0  0  0  0  0  0  0  0  0  0  0
  -30.1450  -15.8510   20.2770 N   0  0  0  0  0  0  0  0  0  0  0  0
  -29.1800  -15.5950   20.4210 H   0  0  0  0  0  0  0  0  0  0  0  0
  -25.5770  -14.0310   20.2400 C   0  0  0  0  0  0  0  0  0  0  0  0
  -24.5020  -13.2840   20.6440 C   0  0  0  0  0  0  0  0  0  0  0  0
  -24.9370  -11.9240   20.6170 C   0  0  0  0  0  0  0  0  0  0  0  0
  -26.5950  -13.1260   19.9880 N   0  0  0  0  0  0  0  0  0  0  0  0
  -26.2160  -11.8550   20.2730 N   0  0  0  0  0  0  0  0  0  0  0  0
  -24.1860  -10.6830   20.8420 C   0  0  0  0  0  0  0  0  0  0  0  0
  -24.5970   -9.7390   21.8100 C   0  0  0  0  0  3  0  0  0  0  0  0
  -23.8480   -8.5600   22.0240 C   0  0  0  0  0  3  0  0  0  0  0  0
  -22.6750   -8.3200   21.2700 C   0  0  0  0  0  0  0  0  0  0  0  0
  -22.2800   -9.2530   20.2960 C   0  0  0  0  0  3  0  0  0  0  0  0
  -23.0280  -10.4230   20.0800 C   0  0  0  0  0  3  0  0  0  0  0  0
  -21.8970   -7.1930   21.3910 O   0  0  0  0  0  0  0  0  0  0  0  0
  -21.8010   -6.5070   22.5740 C   0  0  0  0  0  0  0  0  0  0  0  0
  -21.3420   -7.1260   23.7570 C   0  0  0  0  0  3  0  0  0  0  0  0
  -21.1930   -6.3690   24.9350 C   0  0  0  0  0  3  0  0  0  0  0  0
  -21.4920   -4.9940   24.9310 C   0  0  0  0  0  0  0  0  0  0  0  0
  -21.9490   -4.3740   23.7540 C   0  0  0  0  0  3  0  0  0  0  0  0
  -22.0990   -5.1290   22.5770 C   0  0  0  0  0  0  0  0  0  0  0  0
  -22.5170   -4.5260   21.4390 F   0  0  0  0  0  0  0  0  0  0  0  0
  -21.3440   -4.2630   26.0610 F   0  0  0  0  0  0  0  0  0  0  0  0
  -23.1250  -13.8000   20.9450 C   0  0  0  0  0  0  0  0  0  0  0  0
  -22.4080  -13.1370   21.8460 N   0  0  0  0  0  0  0  0  0  0  0  0
  -22.6960  -14.8240   20.4190 O   0  0  0  0  0  0  0  0  0  0  0  0
  -22.7720  -12.3060   22.2890 H   0  0  0  0  0  0  0  0  0  0  0  0
  -21.4860  -13.4640   22.0940 H   0  0  0  0  0  0  0  0  0  0  0  0
  -25.7520  -15.3960   20.0460 N   0  0  0  0  0  0  0  0  0  0  0  0
  -26.5700  -15.8410   19.6550 H   0  0  0  0  0  0  0  0  0  0  0  0
  -24.9690  -16.0290   20.1620 H   0  0  0  0  0  0  0  0  0  0  0  0
  2  1  1  0
  3  2  1  0
  3  4  2  0
  5  7  1  0
  5  4  1  0
  6 17  2  0
  7 12  1  0
  8 16  1  0
  8 18  1  0
  9 15  1  0
  9 11  1  0
 10 16  1  0
 11 10  1  0
 12 11  2  0
 13 14  1  0
 13  7  2  0
 14  9  2  0
 15  8  1  0
 16  6  1  0
 18 20  2  0
 19 18  1  0
 21 19  1  0
 22 31  2  0
 22 27  1  0
 23 19  1  0
 23 27  1  0
 24 23  1  0
 25 26  1  0
 25 24  1  0
 26 22  1  0
 27 28  2  0
 28 29  1  0
 30 29  2  0
 31 30  1  0
 32  6  1  0
 32 33  1  0
 32 42  1  0
 33 36  1  0
 34 38  1  0
 34 33  1  0
 35 34  2  0
 38 37  1  0
 40 38  1  0
 40 41  1  0
 40 39  1  0
 42 45  1  1
 42 43  1  0
 44 42  1  0
 46  2  1  0
 46 48  1  0
 48 49  1  1
 48 47  1  0
 50 48  1  0
 50 51  1  0
 52 60  1  0
 53 58  1  0
 54 55  1  0
 54 53  1  0
 56 55  1  0
 56 65  1  0
 56 57  1  0
 58 52  1  0
 58 57  1  0
 59 52  2  0
 60 61  1  0
 60 51  1  0
 62 63  2  0
 63 82  1  0
 64 63  1  0
 64 67  1  0
 65 62  1  0
 65 66  1  0
 66 64  2  0
 67 68  1  0
 68 69  2  0
 70 73  1  0
 70 69  1  0
 71 70  2  0
 72 71  1  0
 72 67  2  0
 73 74  1  0
 74 79  2  0
 74 75  1  0
 75 76  2  0
 77 76  1  0
 77 81  1  0
 78 77  2  0
 79 78  1  0
 80 79  1  0
 82 83  1  0
 83 86  1  0
 83 85  1  0
 84 82  2  0
 87 89  1  0
 87 62  1  0
 88 87  1  0
M  ISO  4   4 101   5 101  52 100  60 100
M  END
>  <TORSDO>  (80) 
F 22

>  <SCORE>  (80) 
-11.521

>  <name>  (80) 
79

>  <ligand_id>  (80) 
79

>  <original_smiles>  (80) 
[H]c1c([H])c([H])c2c(c1[H])C([H])([H])C([H])([H])C([H])([H])C2([H])N([H])C(=O)C1([H])N(C(=O)C([H])(N([H])C(=O)C([H])(N([H])C([H])([H])[H])C([H])([H])[H])C(C([H])([H])[H])(C([H])([H])[H])C([H])([H])[H])C([H])([H])c2c([H])c(OC([H])([H])C([H])([H])C([H])(C([H])([H])[H])C([H])([H])[N+]([H])(C([H])([H])[H])C([H])([H])C([H])([H])N([H])C(=O)N3C([H])([H])C([H])([H])C([H])([H])C([H])(n4nc(-c5c([H])c([H])c(Oc6c([H])c([H])c(F)c([H])c6F)c([H])c5[H])c(C(=O)N([H])[H])c4N([H])[H])C3([H])[H])c([H])c([H])c2C1([H])[H]

>  <smiles>  (80) 
[H]c1c([H])c([H])c2c(c1[H])C([H])([H])C([H])([H])C([H])([H])C2([H])N([H])C(=O)C1([H])N(C(=O)C([H])(N([H])C(=O)C([H])(N([H])C([H])([H])[H])C([H])([H])[H])C(C([H])([H])[H])(C([H])([H])[H])C([H])([H])[H])C([H])([H])c2c([H])c(OC([H])([H])C([H])([H])C([H])(C([H])([H])[H])C([H])([H])[N+]([H])(C([H])([H])[H])C([H])([H])C([H])([H])N([H])C(=O)N3C([H])([H])C([H])([H])C([H])([H])C([H])(n4nc(-c5c([H])c([H])c(Oc6c([H])c([H])c(F)c([H])c6F)c([H])c5[H])c(C(=O)N([H])[H])c4N([H])[H])C3([H])[H])c([H])c([H])c2C1([H])[H]

$$$$
80:0:0
     RDKit          3D

 94102  0  0  1  0  0  0  0  0999 V2000
  -29.9420  -20.7060   20.6650 C   0  0  0  0  0  3  0  0  0  0  0  0
  -29.6710  -19.3970   20.1670 C   0  0  0  0  0  0  0  0  0  0  0  0
  -28.5900  -19.7210   19.2640 C   0  0  0  0  0  0  0  0  0  0  0  0
  -28.3560  -21.1100   19.2190 C   0  0  0  0  0  0  0  0  0  0  0  0
  -27.4130  -21.8940   18.3580 C   0  0  0  0  0  1  0  0  0  0  0  0
  -29.1560  -21.8080   20.1300 N   0  0  0  0  0  0  0  0  0  0  0  0
  -26.3480  -18.6020   18.8560 C   0  0  0  0  0  1  0  0  0  0  0  0
  -27.8330  -18.6730   18.4580 C   0  0  0  0  0  3  0  0  0  0  0  0
  -29.4150  -18.8460   16.5340 C   0  0  0  0  0  1  0  0  0  0  0  0
  -28.0130  -18.8580   17.0020 N   0  0  0  0  0  4  0  0  0  0  0  0
  -27.5270  -18.1150   16.5270 H   0  0  0  0  0  0  0  0  0  0  0  0
  -27.5900  -19.7260   16.7230 H   0  0  0  0  0  0  0  0  0  0  0  0
  -30.4510  -17.9330   20.5150 C   0  0  0  0  0  2  0  0  0  0  0  0
  -30.7590  -15.1810   20.3300 C   0  0  0  0  0  0  0  0  0  0  0  0
  -30.6480  -12.8140   19.4000 C   0  0  0  0  0  2  0  0  0  0  0  0
  -29.7210  -12.7340   18.1640 C   0  0  0  0  0  2  0  0  0  0  0  0
  -28.2570  -12.5220   18.5940 C   0  0  0  0  0  2  0  0  0  0  0  0
  -27.8400  -13.4520   19.7650 C   0  0  0  0  0  3  0  0  0  0  0  0
  -28.8930  -13.4960   20.8920 C   0  0  0  0  0  2  0  0  0  0  0  0
  -30.1540  -13.9210   20.2730 N   0  0  0  0  0  0  0  0  0  0  0  0
  -31.9720  -15.2130   20.0940 O   0  0  0  0  0  0  0  0  0  0  0  0
  -30.0040  -16.3990   20.4470 N   0  0  0  0  0  0  0  0  0  0  0  0
  -29.0240  -16.2410   20.6110 H   0  0  0  0  0  0  0  0  0  0  0  0
  -25.4620  -14.0240   20.5020 C   0  0  0  0  0  0  0  0  0  0  0  0
  -24.3940  -13.2510   20.8610 C   0  0  0  0  0  0  0  0  0  0  0  0
  -24.8580  -11.9010   20.8280 C   0  0  0  0  0  0  0  0  0  0  0  0
  -26.5050  -13.1470   20.2640 N   0  0  0  0  0  0  0  0  0  0  0  0
  -26.1520  -11.8620   20.5260 N   0  0  0  0  0  0  0  0  0  0  0  0
  -24.1280  -10.6410   21.0120 C   0  0  0  0  0  0  0  0  0  0  0  0
  -24.5340   -9.6820   21.9650 C   0  0  0  0  0  3  0  0  0  0  0  0
  -23.8010   -8.4890   22.1370 C   0  0  0  0  0  3  0  0  0  0  0  0
  -22.6480   -8.2450   21.3530 C   0  0  0  0  0  0  0  0  0  0  0  0
  -22.2610   -9.1920   20.3880 C   0  0  0  0  0  3  0  0  0  0  0  0
  -22.9940  -10.3780   20.2170 C   0  0  0  0  0  3  0  0  0  0  0  0
  -21.8900   -7.1020   21.4310 O   0  0  0  0  0  0  0  0  0  0  0  0
  -21.7780   -6.3910   22.5980 C   0  0  0  0  0  0  0  0  0  0  0  0
  -21.2490   -6.9670   23.7730 C   0  0  0  0  0  3  0  0  0  0  0  0
  -21.0860   -6.1810   24.9320 C   0  0  0  0  0  3  0  0  0  0  0  0
  -21.4440   -4.8200   24.9150 C   0  0  0  0  0  0  0  0  0  0  0  0
  -21.9660   -4.2430   23.7430 C   0  0  0  0  0  3  0  0  0  0  0  0
  -22.1290   -5.0260   22.5880 C   0  0  0  0  0  0  0  0  0  0  0  0
  -22.6130   -4.4600   21.4560 F   0  0  0  0  0  0  0  0  0  0  0  0
  -21.2810   -4.0620   26.0250 F   0  0  0  0  0  0  0  0  0  0  0  0
  -22.9970  -13.7320   21.1220 C   0  0  0  0  0  0  0  0  0  0  0  0
  -22.2670  -13.0500   21.9950 N   0  0  0  0  0  0  0  0  0  0  0  0
  -22.5620  -14.7520   20.5860 O   0  0  0  0  0  0  0  0  0  0  0  0
  -22.6330  -12.2270   22.4510 H   0  0  0  0  0  0  0  0  0  0  0  0
  -21.3280  -13.3560   22.2110 H   0  0  0  0  0  0  0  0  0  0  0  0
  -25.6310  -15.3930   20.3380 N   0  0  0  0  0  0  0  0  0  0  0  0
  -24.8730  -16.0490   20.4940 H   0  0  0  0  0  0  0  0  0  0  0  0
  -26.5020  -15.8280   20.0780 H   0  0  0  0  0  0  0  0  0  0  0  0
  -29.2360  -23.3870   20.4760 C   0  0  0  0  0  3  0  0  0  0  0  0
  -28.2470  -24.6990   19.9880 C   0  0  0  0  0  3  0  0  0  0  0  0
  -28.4240  -26.2360   20.3050 O   0  0  0  0  0  0  0  0  0  0  0  0
  -24.6810  -31.9360   23.2020 C   0  0  0  0  0  0  0  0  0  0  0  0
  -27.3550  -27.2160   20.2200 C   0  0  0  0  0  0  0  0  0  0  0  0
  -23.5150  -30.5040   21.5720 C   0  0  0  0  0  3  0  0  0  0  0  0
  -24.9980  -28.9380   20.1650 C   0  0  0  0  0  0  0  0  0  0  0  0
  -26.0670  -30.8040   21.4190 C   0  0  0  0  0  2  0  0  0  0  0  0
  -26.1680  -29.4060   20.7750 C   0  0  0  0  0  0  0  0  0  0  0  0
  -27.3460  -28.5620   20.7820 C   0  0  0  0  0  3  0  0  0  0  0  0
  -26.1560  -26.8570   19.5690 C   0  0  0  0  0  3  0  0  0  0  0  0
  -25.0060  -27.6790   19.5450 C   0  0  0  0  0  3  0  0  0  0  0  0
  -23.7520  -29.8140   20.2020 C   0  0  0  0  0  2  0  0  0  0  0  0
  -24.7740  -31.1050   22.1180 N   0  0  0  0  0  0  0  0  0  0  0  0
  -23.5860  -32.2070   23.7200 O   0  0  0  0  0  0  0  0  0  0  0  0
  -22.8450  -29.4970   22.5400 C   0  0  0  0  0  0  0  0  0  0  0  0
  -21.5210  -29.3020   22.4090 N   0  0  0  0  0  0  0  0  0  0  0  0
  -23.5220  -28.8910   23.3750 O   0  0  0  0  0  0  0  0  0  0  0  0
  -21.0300  -29.8410   21.7090 H   0  0  0  0  0  0  0  0  0  0  0  0
  -18.1500  -28.0830   22.9390 C   0  0  0  0  0  0  0  0  0  0  0  0
  -20.7100  -28.3580   23.1830 C   0  0  0  0  0  3  0  0  0  0  0  0
  -20.8140  -26.9290   22.6020 C   0  0  0  0  0  2  0  0  0  0  0  0
  -19.7040  -26.6040   21.5960 C   0  0  0  0  0  2  0  0  0  0  0  0
  -18.3280  -26.7390   22.2530 C   0  0  0  0  0  2  0  0  0  0  0  0
  -19.2690  -28.8510   23.3600 C   0  0  0  0  0  0  0  0  0  0  0  0
  -19.0460  -30.1090   23.9620 C   0  0  0  0  0  3  0  0  0  0  0  0
  -17.7390  -30.5990   24.1460 C   0  0  0  0  0  3  0  0  0  0  0  0
  -16.6360  -29.8270   23.7410 C   0  0  0  0  0  3  0  0  0  0  0  0
  -16.8430  -28.5710   23.1430 C   0  0  0  0  0  3  0  0  0  0  0  0
  -25.9440  -32.6000   23.8320 C   0  0  0  0  0  3  0  0  0  0  0  0
  -25.6000  -33.9930   24.1620 N   0  0  0  0  0  0  0  0  0  0  0  0
  -25.9090  -35.0570   23.4090 C   0  0  0  0  0  0  0  0  0  0  0  0
  -26.5790  -34.9710   22.3770 O   0  0  0  0  0  0  0  0  0  0  0  0
  -25.0030  -34.1330   24.9640 H   0  0  0  0  0  0  0  0  0  0  0  0
  -24.1490  -36.8250   23.0630 C   0  0  0  0  0  1  0  0  0  0  0  0
  -25.3960  -36.4360   23.8740 C   0  0  0  0  0  3  0  0  0  0  0  0
  -27.5050  -37.3640   24.7240 C   0  0  0  0  0  1  0  0  0  0  0  0
  -26.4100  -37.5090   23.7700 N   0  0  0  0  0  0  0  0  0  0  0  0
  -25.9830  -38.4200   23.9120 H   0  0  0  0  0  0  0  0  0  0  0  0
  -26.4660  -31.8460   25.1170 C   0  0  1  0  0  0  0  0  0  0  0  0
  -25.3650  -31.5680   26.1670 C   0  0  0  0  0  1  0  0  0  0  0  0
  -27.1040  -30.4900   24.7400 C   0  0  0  0  0  1  0  0  0  0  0  0
  -27.5760  -32.6820   25.7990 C   0  0  0  0  0  1  0  0  0  0  0  0
  2 13  1  0
  2  1  2  0
  3  2  1  0
  4  3  2  0
  4  6  1  0
  5  4  1  0
  6 52  1  0
  6  1  1  0
  8  7  1  0
  8  3  1  0
  9 10  1  0
 10  8  1  0
 11 10  1  0
 12 10  1  0
 14 22  1  0
 15 20  1  0
 16 17  1  0
 16 15  1  0
 18 17  1  0
 18 27  1  0
 18 19  1  0
 20 14  1  0
 20 19  1  0
 21 14  2  0
 22 13  1  0
 22 23  1  0
 24 25  2  0
 25 44  1  0
 26 25  1  0
 26 29  1  0
 27 24  1  0
 27 28  1  0
 28 26  2  0
 29 30  1  0
 30 31  2  0
 32 35  1  0
 32 31  1  0
 33 32  2  0
 34 33  1  0
 34 29  2  0
 35 36  1  0
 36 37  1  0
 37 38  2  0
 39 38  1  0
 39 43  1  0
 40 39  2  0
 41 36  2  0
 41 40  1  0
 42 41  1  0
 44 45  1  0
 45 48  1  0
 45 47  1  0
 46 44  2  0
 49 50  1  0
 49 24  1  0
 51 49  1  0
 53 54  1  0
 53 52  2  0
 55 66  2  0
 56 54  1  0
 56 61  1  0
 57 65  1  0
 57 67  1  0
 58 64  1  0
 58 60  1  0
 59 65  1  0
 60 61  2  0
 60 59  1  0
 62 56  2  0
 63 62  1  0
 63 58  2  0
 64 57  1  0
 65 55  1  0
 67 69  2  0
 68 67  1  0
 70 68  1  0
 71 80  2  0
 71 76  1  0
 72 68  1  0
 72 76  1  0
 73 72  1  0
 74 75  1  0
 74 73  1  0
 75 71  1  0
 76 77  2  0
 77 78  1  0
 79 78  2  0
 80 79  1  0
 81 55  1  0
 81 82  1  0
 81 91  1  0
 82 85  1  0
 83 87  1  0
 83 82  1  0
 84 83  2  0
 87 86  1  0
 89 87  1  0
 89 90  1  0
 89 88  1  0
 91 94  1  1
 91 92  1  0
 93 91  1  0
M  ISO  4  14 100  22 100  53 101  54 101
M  END
>  <TORSDO>  (81) 
F 21

>  <SCORE>  (81) 
-14.659

>  <name>  (81) 
80

>  <ligand_id>  (81) 
80

>  <original_smiles>  (81) 
[H]c1c([H])c([H])c2c(c1[H])C([H])([H])C([H])([H])C([H])([H])C2([H])N([H])C(=O)C1([H])N(C(=O)C([H])(N([H])C(=O)C([H])(N([H])C([H])([H])[H])C([H])([H])[H])C(C([H])([H])[H])(C([H])([H])[H])C([H])([H])[H])C([H])([H])c2c([H])c(OC([H])([H])C([H])([H])n3c([H])c(C([H])([H])N([H])C(=O)N4C([H])([H])C([H])([H])C([H])([H])C([H])(n5nc(-c6c([H])c([H])c(Oc7c([H])c([H])c(F)c([H])c7F)c([H])c6[H])c(C(=O)N([H])[H])c5N([H])[H])C4([H])[H])c(C([H])(C([H])([H])[H])[N+]([H])([H])C([H])([H])[H])c3C([H])([H])[H])c([H])c([H])c2C1([H])[H]

>  <smiles>  (81) 
[H]c1c([H])c([H])c2c(c1[H])C([H])([H])C([H])([H])C([H])([H])C2([H])N([H])C(=O)C1([H])N(C(=O)C([H])(N([H])C(=O)C([H])(N([H])C([H])([H])[H])C([H])([H])[H])C(C([H])([H])[H])(C([H])([H])[H])C([H])([H])[H])C([H])([H])c2c([H])c(OC([H])([H])C([H])([H])n3c([H])c(C([H])([H])N([H])C(=O)N4C([H])([H])C([H])([H])C([H])([H])C([H])(n5nc(-c6c([H])c([H])c(Oc7c([H])c([H])c(F)c([H])c7F)c([H])c6[H])c(C(=O)N([H])[H])c5N([H])[H])C4([H])[H])c(C([H])(C([H])([H])[H])[N+]([H])([H])C([H])([H])[H])c3C([H])([H])[H])c([H])c([H])c2C1([H])[H]

$$$$
81:0:0
     RDKit          3D

 92100  0  0  1  0  0  0  0  0999 V2000
  -30.7230  -20.8230   19.4900 C   0  0  0  0  0  2  0  0  0  0  0  0
  -29.5940  -20.8600   20.3490 C   0  0  0  0  0  0  0  0  0  0  0  0
  -31.0810  -22.0420   19.0330 C   0  0  0  0  0  3  0  0  0  0  0  0
  -29.3150  -22.4450   20.4590 C   0  0  0  0  0  0  0  0  0  0  0  0
  -32.2870  -22.3800   18.2080 C   0  0  0  0  0  1  0  0  0  0  0  0
  -30.0970  -22.9450   19.3860 N   0  0  0  0  0  0  0  0  0  0  0  0
  -29.3930  -19.0190   20.8190 C   0  0  0  0  0  2  0  0  0  0  0  0
  -30.2900  -15.9620   20.0350 C   0  0  0  0  0  0  0  0  0  0  0  0
  -30.3380  -13.4990   18.9530 C   0  0  0  0  0  2  0  0  0  0  0  0
  -29.3390  -13.1720   17.8060 C   0  0  0  0  0  2  0  0  0  0  0  0
  -27.9660  -12.7530   18.3520 C   0  0  0  0  0  2  0  0  0  0  0  0
  -27.5490  -13.6450   19.5410 C   0  0  0  0  0  3  0  0  0  0  0  0
  -28.6780  -13.8930   20.5660 C   0  0  0  0  0  2  0  0  0  0  0  0
  -29.7630  -14.6040   19.8470 N   0  0  0  0  0  0  0  0  0  0  0  0
  -31.5220  -15.9040   19.8520 O   0  0  0  0  0  0  0  0  0  0  0  0
  -29.5060  -17.3180   20.2070 N   0  0  0  0  0  0  0  0  0  0  0  0
  -28.5480  -17.0440   20.0410 H   0  0  0  0  0  0  0  0  0  0  0  0
  -25.2510  -14.0620   20.5350 C   0  0  0  0  0  0  0  0  0  0  0  0
  -24.2490  -13.2350   20.9470 C   0  0  0  0  0  0  0  0  0  0  0  0
  -24.7540  -11.9050   20.8090 C   0  0  0  0  0  0  0  0  0  0  0  0
  -26.2950  -13.2390   20.1570 N   0  0  0  0  0  0  0  0  0  0  0  0
  -26.0150  -11.9280   20.3880 N   0  0  0  0  0  0  0  0  0  0  0  0
  -24.0780  -10.6120   20.9910 C   0  0  0  0  0  0  0  0  0  0  0  0
  -24.5080   -9.6740   21.9550 C   0  0  0  0  0  3  0  0  0  0  0  0
  -23.8230   -8.4520   22.1250 C   0  0  0  0  0  3  0  0  0  0  0  0
  -22.6890   -8.1580   21.3320 C   0  0  0  0  0  0  0  0  0  0  0  0
  -22.2760   -9.0850   20.3580 C   0  0  0  0  0  3  0  0  0  0  0  0
  -22.9640  -10.3000   20.1860 C   0  0  0  0  0  3  0  0  0  0  0  0
  -21.9780   -6.9850   21.4060 O   0  0  0  0  0  0  0  0  0  0  0  0
  -21.8220   -6.3120   22.5920 C   0  0  0  0  0  0  0  0  0  0  0  0
  -21.2090   -6.9130   23.7120 C   0  0  0  0  0  3  0  0  0  0  0  0
  -21.0060   -6.1660   24.8880 C   0  0  0  0  0  3  0  0  0  0  0  0
  -21.4070   -4.8170   24.9460 C   0  0  0  0  0  0  0  0  0  0  0  0
  -22.0130   -4.2160   23.8290 C   0  0  0  0  0  3  0  0  0  0  0  0
  -22.2200   -4.9620   22.6550 C   0  0  0  0  0  0  0  0  0  0  0  0
  -22.7850   -4.3700   21.5750 F   0  0  0  0  0  0  0  0  0  0  0  0
  -21.2070   -4.0980   26.0750 F   0  0  0  0  0  0  0  0  0  0  0  0
  -22.8650  -13.6520   21.3460 C   0  0  0  0  0  0  0  0  0  0  0  0
  -22.2300  -12.9090   22.2420 N   0  0  0  0  0  0  0  0  0  0  0  0
  -22.3570  -14.6790   20.8950 O   0  0  0  0  0  0  0  0  0  0  0  0
  -22.6520  -12.0740   22.6240 H   0  0  0  0  0  0  0  0  0  0  0  0
  -21.3040  -13.1770   22.5490 H   0  0  0  0  0  0  0  0  0  0  0  0
  -25.3550  -15.4460   20.4170 N   0  0  0  0  0  0  0  0  0  0  0  0
  -24.5830  -16.0640   20.6430 H   0  0  0  0  0  0  0  0  0  0  0  0
  -26.1540  -15.9360   20.0420 H   0  0  0  0  0  0  0  0  0  0  0  0
  -28.4580  -23.9810   21.1310 C   0  0  0  0  0  2  0  0  0  0  0  0
  -28.5990  -25.7280   20.8290 O   0  0  0  0  0  0  0  0  0  0  0  0
  -24.6270  -31.9860   23.3090 C   0  0  0  0  0  0  0  0  0  0  0  0
  -27.5690  -26.8970   20.7150 C   0  0  0  0  0  0  0  0  0  0  0  0
  -23.6090  -30.4550   21.6770 C   0  0  0  0  0  3  0  0  0  0  0  0
  -25.2180  -28.8260   20.4280 C   0  0  0  0  0  0  0  0  0  0  0  0
  -26.1830  -30.7240   21.6930 C   0  0  0  0  0  2  0  0  0  0  0  0
  -26.3590  -29.2680   21.1110 C   0  0  0  0  0  0  0  0  0  0  0  0
  -27.5250  -28.3310   21.2080 C   0  0  0  0  0  3  0  0  0  0  0  0
  -26.3830  -26.6650   19.9690 C   0  0  0  0  0  3  0  0  0  0  0  0
  -25.2740  -27.5550   19.8320 C   0  0  0  0  0  3  0  0  0  0  0  0
  -23.9620  -29.7140   20.3570 C   0  0  0  0  0  2  0  0  0  0  0  0
  -24.8260  -31.0910   22.2780 N   0  0  0  0  0  0  0  0  0  0  0  0
  -23.4920  -32.2530   23.7390 O   0  0  0  0  0  0  0  0  0  0  0  0
  -22.8880  -29.4870   22.6520 C   0  0  0  0  0  0  0  0  0  0  0  0
  -21.5810  -29.2340   22.4440 N   0  0  0  0  0  0  0  0  0  0  0  0
  -23.5210  -28.9590   23.5690 O   0  0  0  0  0  0  0  0  0  0  0  0
  -21.1160  -29.7180   21.6890 H   0  0  0  0  0  0  0  0  0  0  0  0
  -18.2470  -27.8340   22.8140 C   0  0  0  0  0  0  0  0  0  0  0  0
  -20.7640  -28.2860   23.2160 C   0  0  0  0  0  3  0  0  0  0  0  0
  -20.9910  -26.8340   22.7320 C   0  0  0  0  0  2  0  0  0  0  0  0
  -19.9810  -26.3910   21.6660 C   0  0  0  0  0  2  0  0  0  0  0  0
  -18.5530  -26.4700   22.2150 C   0  0  0  0  0  2  0  0  0  0  0  0
  -19.2830  -28.6910   23.2670 C   0  0  0  0  0  0  0  0  0  0  0  0
  -18.9430  -29.9590   23.7860 C   0  0  0  0  0  3  0  0  0  0  0  0
  -17.5980  -30.3700   23.8560 C   0  0  0  0  0  3  0  0  0  0  0  0
  -16.5750  -29.5140   23.4170 C   0  0  0  0  0  3  0  0  0  0  0  0
  -16.8990  -28.2470   22.9000 C   0  0  0  0  0  3  0  0  0  0  0  0
  -25.8130  -32.7350   23.9910 C   0  0  0  0  0  3  0  0  0  0  0  0
  -25.3870  -34.1200   24.2740 N   0  0  0  0  0  0  0  0  0  0  0  0
  -25.6610  -35.1870   23.5110 C   0  0  0  0  0  0  0  0  0  0  0  0
  -26.3570  -35.1130   22.4960 O   0  0  0  0  0  0  0  0  0  0  0  0
  -24.7590  -34.2450   25.0550 H   0  0  0  0  0  0  0  0  0  0  0  0
  -23.8130  -36.8590   23.1070 C   0  0  0  0  0  1  0  0  0  0  0  0
  -25.0700  -36.5490   23.9340 C   0  0  0  0  0  3  0  0  0  0  0  0
  -27.1210  -37.6130   24.7750 C   0  0  0  0  0  1  0  0  0  0  0  0
  -26.0270  -37.6720   23.8110 N   0  0  0  0  0  0  0  0  0  0  0  0
  -25.5520  -38.5610   23.9310 H   0  0  0  0  0  0  0  0  0  0  0  0
  -26.2960  -32.0440   25.3250 C   0  0  1  0  0  0  0  0  0  0  0  0
  -25.1510  -31.7320   26.3190 C   0  0  0  0  0  1  0  0  0  0  0  0
  -27.0280  -30.7130   25.0340 C   0  0  0  0  0  1  0  0  0  0  0  0
  -27.3140  -32.9580   26.0460 C   0  0  0  0  0  1  0  0  0  0  0  0
  -29.9930  -24.2660   18.7200 C   0  0  0  0  0  2  0  0  0  0  0  0
  -29.7610  -24.1630   17.2010 C   0  0  0  0  0  2  0  0  0  0  0  0
  -27.2800  -23.4710   17.1950 C   0  0  0  0  0  1  0  0  0  0  0  0
  -28.3420  -24.5790   15.1770 C   0  0  0  0  0  1  0  0  0  0  0  0
  -28.3320  -24.4830   16.7130 C   0  0  0  0  0  3  0  0  0  0  0  0
  1  2  1  0
  2  4  2  0
  2  7  1  0
  3  5  1  0
  3  6  1  0
  3  1  1  0
  4 46  1  0
  6  4  1  0
  8 16  1  0
  9 14  1  0
 10 11  1  0
 10  9  1  0
 12 11  1  0
 12 21  1  0
 12 13  1  0
 14  8  1  0
 14 13  1  0
 15  8  2  0
 16  7  1  0
 17 16  1  0
 18 19  2  0
 19 38  1  0
 20 19  1  0
 20 23  1  0
 21 22  1  0
 21 18  1  0
 22 20  2  0
 23 24  1  0
 24 25  2  0
 26 29  1  0
 26 25  1  0
 27 26  2  0
 28 27  1  0
 28 23  2  0
 29 30  1  0
 30 35  2  0
 30 31  1  0
 31 32  2  0
 32 33  1  0
 33 37  1  0
 34 33  2  0
 35 34  1  0
 36 35  1  0
 38 39  1  0
 39 42  1  0
 39 41  1  0
 40 38  2  0
 43 18  1  0
 43 44  1  0
 45 43  1  0
 47 46  1  0
 48 59  2  0
 49 47  1  0
 49 54  1  0
 50 58  1  0
 50 60  1  0
 51 53  1  0
 52 58  1  0
 53 54  2  0
 53 52  1  0
 55 49  2  0
 56 55  1  0
 56 51  2  0
 57 51  1  0
 57 50  1  0
 58 48  1  0
 60 62  2  0
 61 60  1  0
 63 61  1  0
 64 73  2  0
 64 69  1  0
 65 61  1  0
 65 69  1  0
 66 65  1  0
 67 68  1  0
 67 66  1  0
 68 64  1  0
 69 70  2  0
 70 71  1  0
 72 71  2  0
 73 72  1  0
 74 48  1  0
 74 75  1  0
 74 84  1  0
 75 78  1  0
 76 80  1  0
 76 75  1  0
 77 76  2  0
 80 79  1  0
 82 83  1  0
 82 80  1  0
 82 81  1  0
 84 87  1  1
 84 85  1  0
 86 84  1  0
 88  6  1  0
 89 88  1  0
 91 92  1  0
 92 90  1  0
 92 89  1  0
M  ISO  4   8 100  16 100  46 101  47 101
M  END
>  <TORSDO>  (82) 
F 21

>  <SCORE>  (82) 
-13.329

>  <name>  (82) 
81

>  <ligand_id>  (82) 
81

>  <original_smiles>  (82) 
[H]c1c([H])c([H])c2c(c1[H])C([H])([H])C([H])([H])C([H])([H])C2([H])N([H])C(=O)C1([H])N(C(=O)C([H])(N([H])C(=O)C([H])(N([H])C([H])([H])[H])C([H])([H])[H])C(C([H])([H])[H])(C([H])([H])[H])C([H])([H])[H])C([H])([H])c2c([H])c(OC([H])([H])c3c(C([H])([H])N([H])C(=O)N4C([H])([H])C([H])([H])C([H])([H])C([H])(n5nc(-c6c([H])c([H])c(Oc7c([H])c([H])c(F)c([H])c7F)c([H])c6[H])c(C(=O)N([H])[H])c5N([H])[H])C4([H])[H])c([H])c(C([H])([H])[H])n3C([H])([H])C([H])([H])C([H])(C([H])([H])[H])C([H])([H])[H])c([H])c([H])c2C1([H])[H]

>  <smiles>  (82) 
[H]c1c([H])c([H])c2c(c1[H])C([H])([H])C([H])([H])C([H])([H])C2([H])N([H])C(=O)C1([H])N(C(=O)C([H])(N([H])C(=O)C([H])(N([H])C([H])([H])[H])C([H])([H])[H])C(C([H])([H])[H])(C([H])([H])[H])C([H])([H])[H])C([H])([H])c2c([H])c(OC([H])([H])c3c(C([H])([H])N([H])C(=O)N4C([H])([H])C([H])([H])C([H])([H])C([H])(n5nc(-c6c([H])c([H])c(Oc7c([H])c([H])c(F)c([H])c7F)c([H])c6[H])c(C(=O)N([H])[H])c5N([H])[H])C4([H])[H])c([H])c(C([H])([H])[H])n3C([H])([H])C([H])([H])C([H])(C([H])([H])[H])C([H])([H])[H])c([H])c([H])c2C1([H])[H]

$$$$
82:0:0
     RDKit          3D

 95103  0  0  1  0  0  0  0  0999 V2000
  -29.6090  -19.5350   19.5740 C   0  0  0  0  0  3  0  0  0  0  0  0
  -30.2770  -20.4060   21.4990 C   0  0  0  0  0  3  0  0  0  0  0  0
  -30.4840  -18.6150   20.1290 C   0  0  0  0  0  0  0  0  0  0  0  0
  -30.9240  -19.1990   21.3650 C   0  0  0  0  0  0  0  0  0  0  0  0
  -29.4820  -20.6550   20.3940 N   0  0  0  0  0  0  0  0  0  0  0  0
  -33.3680  -19.0760   21.8490 C   0  0  0  0  0  1  0  0  0  0  0  0
  -31.9730  -18.6480   22.3180 C   0  0  0  0  0  3  0  0  0  0  0  0
  -30.4570  -18.4790   24.3960 C   0  0  0  0  0  1  0  0  0  0  0  0
  -31.7460  -19.0480   23.7910 C   0  0  0  0  0  2  0  0  0  0  0  0
  -30.9540  -17.2990   19.4680 C   0  0  0  0  0  2  0  0  0  0  0  0
  -31.3600  -14.8840   19.9920 C   0  0  0  0  0  0  0  0  0  0  0  0
  -31.1590  -12.5280   19.2920 C   0  0  0  0  0  2  0  0  0  0  0  0
  -30.2370  -12.4770   18.0560 C   0  0  0  0  0  2  0  0  0  0  0  0
  -28.7620  -12.3640   18.4910 C   0  0  0  0  0  2  0  0  0  0  0  0
  -28.3770  -13.4000   19.5820 C   0  0  0  0  0  3  0  0  0  0  0  0
  -29.4210  -13.4420   20.7200 C   0  0  0  0  0  2  0  0  0  0  0  0
  -30.7350  -13.6780   20.1090 N   0  0  0  0  0  0  0  0  0  0  0  0
  -32.5300  -14.9740   19.6090 O   0  0  0  0  0  0  0  0  0  0  0  0
  -30.5720  -15.9900   20.0580 N   0  0  0  0  0  0  0  0  0  0  0  0
  -29.6140  -15.8720   20.3500 H   0  0  0  0  0  0  0  0  0  0  0  0
  -26.0460  -14.0880   20.4150 C   0  0  0  0  0  0  0  0  0  0  0  0
  -24.9480  -13.3540   20.7710 C   0  0  0  0  0  0  0  0  0  0  0  0
  -25.3300  -11.9840   20.6440 C   0  0  0  0  0  0  0  0  0  0  0  0
  -27.0300  -13.1680   20.0940 N   0  0  0  0  0  0  0  0  0  0  0  0
  -26.6070  -11.8920   20.2920 N   0  0  0  0  0  0  0  0  0  0  0  0
  -24.5400  -10.7540   20.7820 C   0  0  0  0  0  0  0  0  0  0  0  0
  -24.8910   -9.7510   21.7120 C   0  0  0  0  0  3  0  0  0  0  0  0
  -24.1060   -8.5850   21.8380 C   0  0  0  0  0  3  0  0  0  0  0  0
  -22.9540   -8.4140   21.0340 C   0  0  0  0  0  0  0  0  0  0  0  0
  -22.6220   -9.4040   20.0930 C   0  0  0  0  0  3  0  0  0  0  0  0
  -23.4080  -10.5620   19.9650 C   0  0  0  0  0  3  0  0  0  0  0  0
  -22.1460   -7.3040   21.0700 O   0  0  0  0  0  0  0  0  0  0  0  0
  -21.9310   -6.6060   22.2320 C   0  0  0  0  0  0  0  0  0  0  0  0
  -21.3760   -7.2190   23.3780 C   0  0  0  0  0  3  0  0  0  0  0  0
  -21.1090   -6.4490   24.5270 C   0  0  0  0  0  3  0  0  0  0  0  0
  -21.3870   -5.0680   24.5310 C   0  0  0  0  0  0  0  0  0  0  0  0
  -21.9330   -4.4570   23.3890 C   0  0  0  0  0  3  0  0  0  0  0  0
  -22.2020   -5.2230   22.2420 C   0  0  0  0  0  0  0  0  0  0  0  0
  -22.7100   -4.6250   21.1380 F   0  0  0  0  0  0  0  0  0  0  0  0
  -21.1220   -4.3260   25.6320 F   0  0  0  0  0  0  0  0  0  0  0  0
  -23.5870  -13.8900   21.1180 C   0  0  0  0  0  0  0  0  0  0  0  0
  -22.8550  -13.1910   21.9770 N   0  0  0  0  0  0  0  0  0  0  0  0
  -23.1860  -14.9590   20.6610 O   0  0  0  0  0  0  0  0  0  0  0  0
  -23.1930  -12.3230   22.3660 H   0  0  0  0  0  0  0  0  0  0  0  0
  -21.9430  -13.5260   22.2490 H   0  0  0  0  0  0  0  0  0  0  0  0
  -26.2840  -15.4560   20.3150 N   0  0  0  0  0  0  0  0  0  0  0  0
  -25.5660  -16.1420   20.5130 H   0  0  0  0  0  0  0  0  0  0  0  0
  -27.1520  -15.8710   20.0050 H   0  0  0  0  0  0  0  0  0  0  0  0
  -28.6250  -21.8620   20.2180 C   0  0  0  0  0  2  0  0  0  0  0  0
  -30.5190  -23.2480   19.1190 C   0  0  0  0  0  1  0  0  0  0  0  0
  -29.0210  -22.8950   19.1040 C   0  0  0  0  0  3  0  0  0  0  0  0
  -28.1610  -24.7030   17.5100 C   0  0  0  0  0  1  0  0  0  0  0  0
  -28.0900  -24.1790   18.9600 C   0  0  0  0  0  3  0  0  0  0  0  0
  -28.3130  -25.3610   19.9790 C   0  0  0  0  0  2  0  0  0  0  0  0
  -28.2580  -26.7200   19.4650 O   0  0  0  0  0  0  0  0  0  0  0  0
  -24.5680  -31.7030   23.0640 C   0  0  0  0  0  0  0  0  0  0  0  0
  -27.0880  -27.4430   19.6010 C   0  0  0  0  0  0  0  0  0  0  0  0
  -23.2940  -30.3810   21.4070 C   0  0  0  0  0  3  0  0  0  0  0  0
  -24.6870  -28.9400   19.8250 C   0  0  0  0  0  0  0  0  0  0  0  0
  -25.8070  -30.7760   21.0990 C   0  0  0  0  0  2  0  0  0  0  0  0
  -25.8730  -29.4400   20.3790 C   0  0  0  0  0  0  0  0  0  0  0  0
  -27.0770  -28.7020   20.2550 C   0  0  0  0  0  3  0  0  0  0  0  0
  -25.8820  -26.9610   19.0500 C   0  0  0  0  0  3  0  0  0  0  0  0
  -24.6890  -27.7030   19.1580 C   0  0  0  0  0  3  0  0  0  0  0  0
  -23.4400  -29.7830   19.9830 C   0  0  0  0  0  2  0  0  0  0  0  0
  -24.5800  -30.9670   21.9150 N   0  0  0  0  0  0  0  0  0  0  0  0
  -23.5140  -31.9250   23.6750 O   0  0  0  0  0  0  0  0  0  0  0  0
  -22.7070  -29.2950   22.3420 C   0  0  0  0  0  0  0  0  0  0  0  0
  -21.3870  -29.0700   22.2440 N   0  0  0  0  0  0  0  0  0  0  0  0
  -23.4370  -28.6620   23.1090 O   0  0  0  0  0  0  0  0  0  0  0  0
  -20.8560  -29.6350   21.5960 H   0  0  0  0  0  0  0  0  0  0  0  0
  -18.0800  -27.6980   22.7430 C   0  0  0  0  0  0  0  0  0  0  0  0
  -20.6270  -28.0680   22.9930 C   0  0  0  0  0  3  0  0  0  0  0  0
  -20.7900  -26.6620   22.3690 C   0  0  0  0  0  2  0  0  0  0  0  0
  -19.6920  -26.3200   21.3600 C   0  0  0  0  0  2  0  0  0  0  0  0
  -18.3130  -26.3800   22.0220 C   0  0  0  0  0  2  0  0  0  0  0  0
  -19.1690  -28.4970   23.1850 C   0  0  0  0  0  0  0  0  0  0  0  0
  -18.9010  -29.7310   23.8170 C   0  0  0  0  0  3  0  0  0  0  0  0
  -17.5790  -30.1680   24.0140 C   0  0  0  0  0  3  0  0  0  0  0  0
  -16.5040  -29.3650   23.5910 C   0  0  0  0  0  3  0  0  0  0  0  0
  -16.7550  -28.1330   22.9610 C   0  0  0  0  0  3  0  0  0  0  0  0
  -25.8760  -32.3210   23.6490 C   0  0  0  0  0  3  0  0  0  0  0  0
  -25.5630  -33.6820   24.1030 N   0  0  0  0  0  0  0  0  0  0  0  0
  -25.8480  -34.7970   23.4170 C   0  0  0  0  0  0  0  0  0  0  0  0
  -26.4740  -34.7870   22.3550 O   0  0  0  0  0  0  0  0  0  0  0  0
  -25.0040  -33.7610   24.9410 H   0  0  0  0  0  0  0  0  0  0  0  0
  -24.0780  -36.5740   23.2800 C   0  0  0  0  0  1  0  0  0  0  0  0
  -25.3590  -36.1350   24.0040 C   0  0  0  0  0  3  0  0  0  0  0  0
  -27.5120  -36.9920   24.8120 C   0  0  0  0  0  1  0  0  0  0  0  0
  -26.3680  -37.2130   23.9320 N   0  0  0  0  0  0  0  0  0  0  0  0
  -25.9560  -38.1100   24.1700 H   0  0  0  0  0  0  0  0  0  0  0  0
  -26.4900  -31.4700   24.8270 C   0  0  1  0  0  0  0  0  0  0  0  0
  -25.4730  -31.1220   25.9410 C   0  0  0  0  0  1  0  0  0  0  0  0
  -27.0730  -30.1420   24.2880 C   0  0  0  0  0  1  0  0  0  0  0  0
  -27.6660  -32.2390   25.4720 C   0  0  0  0  0  1  0  0  0  0  0  0
  1  3  2  0
  1  5  1  0
  3  4  1  0
  4  2  2  0
  4  7  1  0
  5  2  1  0
  7  6  1  0
  7  9  1  0
  9  8  1  0
 10 19  1  0
 10  3  1  0
 11 19  1  0
 11 17  1  0
 12 17  1  0
 13 14  1  0
 13 12  1  0
 15 14  1  0
 15 24  1  0
 15 16  1  0
 17 16  1  0
 18 11  2  0
 19 20  1  0
 21 22  2  0
 22 41  1  0
 23 22  1  0
 23 26  1  0
 24 25  1  0
 24 21  1  0
 25 23  2  0
 26 27  1  0
 27 28  2  0
 29 32  1  0
 29 28  1  0
 30 29  2  0
 31 30  1  0
 31 26  2  0
 32 33  1  0
 33 38  2  0
 33 34  1  0
 34 35  2  0
 35 36  1  0
 36 40  1  0
 37 36  2  0
 38 37  1  0
 39 38  1  0
 41 42  1  0
 42 45  1  0
 42 44  1  0
 43 41  2  0
 46 21  1  0
 46 47  1  0
 48 46  1  0
 49  5  1  0
 51 50  1  0
 51 49  1  0
 53 52  1  0
 53 51  1  0
 53 54  1  0
 55 57  1  0
 55 54  1  0
 56 67  2  0
 57 62  1  0
 58 66  1  0
 58 68  1  0
 59 65  1  0
 59 61  1  0
 60 66  1  0
 61 60  1  0
 62 61  2  0
 63 64  1  0
 63 57  2  0
 64 59  2  0
 65 58  1  0
 66 56  1  0
 68 70  2  0
 69 68  1  0
 71 69  1  0
 72 81  2  0
 72 77  1  0
 73 69  1  0
 73 77  1  0
 74 73  1  0
 75 76  1  0
 75 74  1  0
 76 72  1  0
 77 78  2  0
 78 79  1  0
 80 79  2  0
 81 80  1  0
 82 56  1  0
 82 83  1  0
 82 92  1  0
 83 86  1  0
 84 88  1  0
 84 83  1  0
 85 84  2  0
 88 87  1  0
 90 88  1  0
 90 91  1  0
 90 89  1  0
 92 95  1  1
 92 93  1  0
 94 92  1  0
M  ISO  4  11 100  19 100  54 101  55 101
M  END
>  <TORSDO>  (83) 
F 23

>  <SCORE>  (83) 
-9.943

>  <name>  (83) 
82

>  <ligand_id>  (83) 
82

>  <original_smiles>  (83) 
[H]c1c([H])c([H])c2c(c1[H])C([H])([H])C([H])([H])C([H])([H])C2([H])N([H])C(=O)C1([H])N(C(=O)C([H])(N([H])C(=O)C([H])(N([H])C([H])([H])[H])C([H])([H])[H])C(C([H])([H])[H])(C([H])([H])[H])C([H])([H])[H])C([H])([H])c2c([H])c(OC([H])([H])C([H])(C([H])([H])[H])C([H])(C([H])([H])[H])C([H])([H])n3c([H])c(C([H])([H])N([H])C(=O)N4C([H])([H])C([H])([H])C([H])([H])C([H])(n5nc(-c6c([H])c([H])c(Oc7c([H])c([H])c(F)c([H])c7F)c([H])c6[H])c(C(=O)N([H])[H])c5N([H])[H])C4([H])[H])c(C([H])(C([H])([H])[H])C([H])([H])C([H])([H])[H])c3[H])c([H])c([H])c2C1([H])[H]

>  <smiles>  (83) 
[H]c1c([H])c([H])c2c(c1[H])C([H])([H])C([H])([H])C([H])([H])C2([H])N([H])C(=O)C1([H])N(C(=O)C([H])(N([H])C(=O)C([H])(N([H])C([H])([H])[H])C([H])([H])[H])C(C([H])([H])[H])(C([H])([H])[H])C([H])([H])[H])C([H])([H])c2c([H])c(OC([H])([H])C([H])(C([H])([H])[H])C([H])(C([H])([H])[H])C([H])([H])n3c([H])c(C([H])([H])N([H])C(=O)N4C([H])([H])C([H])([H])C([H])([H])C([H])(n5nc(-c6c([H])c([H])c(Oc7c([H])c([H])c(F)c([H])c7F)c([H])c6[H])c(C(=O)N([H])[H])c5N([H])[H])C4([H])[H])c(C([H])(C([H])([H])[H])C([H])([H])C([H])([H])[H])c3[H])c([H])c([H])c2C1([H])[H]

$$$$
83:0:0
     RDKit          3D

 90 97  0  0  1  0  0  0  0  0999 V2000
  -28.7800  -23.3220   20.3350 C   0  0  0  0  0  2  0  0  0  0  0  0
  -27.5430  -24.4870   18.3810 C   0  0  0  0  0  1  0  0  0  0  0  0
  -29.8320  -25.1210   18.8700 C   0  0  0  0  0  1  0  0  0  0  0  0
  -28.4910  -24.8010   19.5580 C   0  0  2  0  0  0  0  0  0  0  0  0
  -28.2760  -26.2010   20.2730 O   0  0  0  0  0  0  0  0  0  0  0  0
  -24.5380  -31.8630   23.2420 C   0  0  0  0  0  0  0  0  0  0  0  0
  -27.1990  -27.1790   20.1900 C   0  0  0  0  0  0  0  0  0  0  0  0
  -23.3830  -30.4710   21.5810 C   0  0  0  0  0  3  0  0  0  0  0  0
  -24.8650  -28.9450   20.1590 C   0  0  0  0  0  0  0  0  0  0  0  0
  -25.9420  -30.7620   21.4510 C   0  0  0  0  0  2  0  0  0  0  0  0
  -26.0380  -29.3770   20.7880 C   0  0  0  0  0  0  0  0  0  0  0  0
  -27.2030  -28.5110   20.7890 C   0  0  0  0  0  3  0  0  0  0  0  0
  -25.9710  -26.8670   19.5630 C   0  0  0  0  0  3  0  0  0  0  0  0
  -24.8460  -27.7050   19.5320 C   0  0  0  0  0  3  0  0  0  0  0  0
  -23.6310  -29.8270   20.1960 C   0  0  0  0  0  2  0  0  0  0  0  0
  -24.6410  -31.0510   22.1490 N   0  0  0  0  0  0  0  0  0  0  0  0
  -23.4380  -32.1280   23.7520 O   0  0  0  0  0  0  0  0  0  0  0  0
  -22.7050  -29.4360   22.5160 C   0  0  0  0  0  0  0  0  0  0  0  0
  -21.3830  -29.2430   22.3580 N   0  0  0  0  0  0  0  0  0  0  0  0
  -23.3710  -28.8140   23.3450 O   0  0  0  0  0  0  0  0  0  0  0  0
  -20.9010  -29.7940   21.6610 H   0  0  0  0  0  0  0  0  0  0  0  0
  -18.0110  -27.9870   22.7890 C   0  0  0  0  0  0  0  0  0  0  0  0
  -20.5610  -28.2860   23.1050 C   0  0  0  0  0  3  0  0  0  0  0  0
  -20.6910  -26.8580   22.5250 C   0  0  0  0  0  2  0  0  0  0  0  0
  -19.6130  -26.5240   21.4880 C   0  0  0  0  0  2  0  0  0  0  0  0
  -18.2190  -26.6440   22.1090 C   0  0  0  0  0  2  0  0  0  0  0  0
  -19.1090  -28.7640   23.2420 C   0  0  0  0  0  0  0  0  0  0  0  0
  -18.8590  -30.0160   23.8400 C   0  0  0  0  0  3  0  0  0  0  0  0
  -17.5420  -30.4940   23.9890 C   0  0  0  0  0  3  0  0  0  0  0  0
  -16.4590  -29.7140   23.5510 C   0  0  0  0  0  3  0  0  0  0  0  0
  -16.6930  -28.4620   22.9570 C   0  0  0  0  0  3  0  0  0  0  0  0
  -25.7950  -32.5170   23.8950 C   0  0  0  0  0  3  0  0  0  0  0  0
  -25.4720  -33.9230   24.1830 N   0  0  0  0  0  0  0  0  0  0  0  0
  -25.8000  -34.9570   23.3970 C   0  0  0  0  0  0  0  0  0  0  0  0
  -26.4770  -34.8310   22.3750 O   0  0  0  0  0  0  0  0  0  0  0  0
  -24.8870  -34.0990   24.9870 H   0  0  0  0  0  0  0  0  0  0  0  0
  -24.0610  -36.7260   22.9810 C   0  0  0  0  0  1  0  0  0  0  0  0
  -25.3010  -36.3540   23.8090 C   0  0  0  0  0  3  0  0  0  0  0  0
  -27.4230  -37.2890   24.6230 C   0  0  0  0  0  1  0  0  0  0  0  0
  -26.3260  -37.4140   23.6670 N   0  0  0  0  0  0  0  0  0  0  0  0
  -25.9080  -38.3340   23.7790 H   0  0  0  0  0  0  0  0  0  0  0  0
  -26.2580  -31.7810   25.2100 C   0  0  1  0  0  0  0  0  0  0  0  0
  -25.1230  -31.5660   26.2390 C   0  0  0  0  0  1  0  0  0  0  0  0
  -26.8590  -30.3960   24.8760 C   0  0  0  0  0  1  0  0  0  0  0  0
  -27.3760  -32.5960   25.9020 C   0  0  0  0  0  1  0  0  0  0  0  0
  -28.5630  -21.7490   19.7160 C   0  0  0  0  0  2  0  0  0  0  0  0
  -30.7920  -20.8680   19.0640 C   0  0  0  0  0  1  0  0  0  0  0  0
  -29.5910  -20.5430   19.8730 N   0  0  2  0  0  4  0  0  0  0  0  0
  -29.8950  -20.5710   20.8360 H   0  0  0  0  0  0  0  0  0  0  0  0
  -27.9970  -18.6270   20.5420 C   0  0  0  0  0  1  0  0  0  0  0  0
  -29.1820  -19.0130   19.6390 C   0  0  0  0  0  3  0  0  0  0  0  0
  -30.3100  -17.7560   19.7220 C   0  0  0  0  0  2  0  0  0  0  0  0
  -30.7250  -15.0450   19.7800 C   0  0  0  0  0  0  0  0  0  0  0  0
  -30.5350  -12.6620   18.9550 C   0  0  0  0  0  2  0  0  0  0  0  0
  -29.5420  -12.5940   17.7740 C   0  0  0  0  0  2  0  0  0  0  0  0
  -28.0930  -12.4410   18.2780 C   0  0  0  0  0  2  0  0  0  0  0  0
  -27.7620  -13.3950   19.4540 C   0  0  0  0  0  3  0  0  0  0  0  0
  -28.8780  -13.4320   20.5230 C   0  0  0  0  0  2  0  0  0  0  0  0
  -30.1190  -13.7930   19.8300 N   0  0  0  0  0  0  0  0  0  0  0  0
  -31.9110  -15.0970   19.4370 O   0  0  0  0  0  0  0  0  0  0  0  0
  -29.9550  -16.2270   19.8960 N   0  0  0  0  0  0  0  0  0  0  0  0
  -28.9790  -16.0510   20.0700 H   0  0  0  0  0  0  0  0  0  0  0  0
  -25.4520  -14.0080   20.3710 C   0  0  0  0  0  0  0  0  0  0  0  0
  -24.3990  -13.2430   20.7990 C   0  0  0  0  0  0  0  0  0  0  0  0
  -24.8300  -11.8840   20.7030 C   0  0  0  0  0  0  0  0  0  0  0  0
  -26.4550  -13.1130   20.0380 N   0  0  0  0  0  0  0  0  0  0  0  0
  -26.0950  -11.8290   20.3010 N   0  0  0  0  0  0  0  0  0  0  0  0
  -24.0870  -10.6340   20.9080 C   0  0  0  0  0  0  0  0  0  0  0  0
  -24.5050   -9.6650   21.8480 C   0  0  0  0  0  3  0  0  0  0  0  0
  -23.7580   -8.4830   22.0370 C   0  0  0  0  0  3  0  0  0  0  0  0
  -22.5820   -8.2590   21.2810 C   0  0  0  0  0  0  0  0  0  0  0  0
  -22.1860   -9.2160   20.3300 C   0  0  0  0  0  3  0  0  0  0  0  0
  -22.9330  -10.3880   20.1390 C   0  0  0  0  0  3  0  0  0  0  0  0
  -21.8040   -7.1290   21.3820 O   0  0  0  0  0  0  0  0  0  0  0  0
  -21.6770   -6.4460   22.5660 C   0  0  0  0  0  0  0  0  0  0  0  0
  -21.1600   -7.0590   23.7290 C   0  0  0  0  0  3  0  0  0  0  0  0
  -20.9820   -6.3010   24.9030 C   0  0  0  0  0  3  0  0  0  0  0  0
  -21.3090   -4.9300   24.9160 C   0  0  0  0  0  0  0  0  0  0  0  0
  -21.8210   -4.3190   23.7580 C   0  0  0  0  0  3  0  0  0  0  0  0
  -22.0010   -5.0730   22.5850 C   0  0  0  0  0  0  0  0  0  0  0  0
  -22.4730   -4.4720   21.4650 F   0  0  0  0  0  0  0  0  0  0  0  0
  -21.1310   -4.2000   26.0410 F   0  0  0  0  0  0  0  0  0  0  0  0
  -23.0350  -13.7460   21.1700 C   0  0  0  0  0  0  0  0  0  0  0  0
  -22.3440  -13.0500   22.0650 N   0  0  0  0  0  0  0  0  0  0  0  0
  -22.5910  -14.7930   20.7020 O   0  0  0  0  0  0  0  0  0  0  0  0
  -22.7120  -12.2030   22.4690 H   0  0  0  0  0  0  0  0  0  0  0  0
  -21.4370  -13.3810   22.3570 H   0  0  0  0  0  0  0  0  0  0  0  0
  -25.6260  -15.3790   20.2100 N   0  0  0  0  0  0  0  0  0  0  0  0
  -24.8590  -16.0240   20.3650 H   0  0  0  0  0  0  0  0  0  0  0  0
  -26.3940  -15.8040   19.7100 H   0  0  0  0  0  0  0  0  0  0  0  0
  4  2  1  6
  3  4  1  0
  4  5  1  0
  4  1  1  0
  6 17  2  0
  7  5  1  0
  7 12  1  0
  8 16  1  0
  8 18  1  0
  9 15  1  0
  9 11  1  0
 10 16  1  0
 11 12  2  0
 11 10  1  0
 13  7  2  0
 14 13  1  0
 14  9  2  0
 15  8  1  0
 16  6  1  0
 18 20  2  0
 19 18  1  0
 21 19  1  0
 22 31  2  0
 22 27  1  0
 23 19  1  0
 23 27  1  0
 24 23  1  0
 25 26  1  0
 25 24  1  0
 26 22  1  0
 27 28  2  0
 28 29  1  0
 30 29  2  0
 31 30  1  0
 32  6  1  0
 32 33  1  0
 32 42  1  0
 33 36  1  0
 34 38  1  0
 34 33  1  0
 35 34  2  0
 38 37  1  0
 40 41  1  0
 40 38  1  0
 40 39  1  0
 42 45  1  1
 42 43  1  0
 44 42  1  0
 46 48  1  0
 46  1  1  0
 47 48  1  0
 48 49  1  1
 51 52  1  0
 51 48  1  0
 51 50  1  0
 52 61  1  0
 53 59  1  0
 53 61  1  0
 54 59  1  0
 55 56  1  0
 55 54  1  0
 57 56  1  0
 57 66  1  0
 57 58  1  0
 59 58  1  0
 60 53  2  0
 61 62  1  0
 63 64  2  0
 64 83  1  0
 65 64  1  0
 65 68  1  0
 66 67  1  0
 66 63  1  0
 67 65  2  0
 68 69  1  0
 69 70  2  0
 71 74  1  0
 71 70  1  0
 72 71  2  0
 73 72  1  0
 73 68  2  0
 74 75  1  0
 75 80  2  0
 75 76  1  0
 76 77  2  0
 77 78  1  0
 78 82  1  0
 79 78  2  0
 80 79  1  0
 81 80  1  0
 83 84  1  0
 84 87  1  0
 84 86  1  0
 85 83  2  0
 88 89  1  0
 88 63  1  0
 90 88  1  0
M  ISO  4   4 101   5 101  53 100  61 100
M  END
>  <TORSDO>  (84) 
F 21

>  <SCORE>  (84) 
-13.960

>  <name>  (84) 
83

>  <ligand_id>  (84) 
83

>  <original_smiles>  (84) 
[H]c1c([H])c([H])c2c(c1[H])C([H])([H])C([H])([H])C([H])([H])C2([H])N([H])C(=O)C1([H])N(C(=O)C([H])(N([H])C(=O)C([H])(N([H])C([H])([H])[H])C([H])([H])[H])C(C([H])([H])[H])(C([H])([H])[H])C([H])([H])[H])C([H])([H])c2c([H])c(OC(C([H])([H])[H])(C([H])([H])[H])C([H])([H])C([H])([H])[N+]([H])(C([H])([H])[H])C([H])(C([H])([H])[H])C([H])([H])N([H])C(=O)N3C([H])([H])C([H])([H])C([H])([H])C([H])(n4nc(-c5c([H])c([H])c(Oc6c([H])c([H])c(F)c([H])c6F)c([H])c5[H])c(C(=O)N([H])[H])c4N([H])[H])C3([H])[H])c([H])c([H])c2C1([H])[H]

>  <smiles>  (84) 
[H]c1c([H])c([H])c2c(c1[H])C([H])([H])C([H])([H])C([H])([H])C2([H])N([H])C(=O)C1([H])N(C(=O)C([H])(N([H])C(=O)C([H])(N([H])C([H])([H])[H])C([H])([H])[H])C(C([H])([H])[H])(C([H])([H])[H])C([H])([H])[H])C([H])([H])c2c([H])c(OC(C([H])([H])[H])(C([H])([H])[H])C([H])([H])C([H])([H])[N+]([H])(C([H])([H])[H])C([H])(C([H])([H])[H])C([H])([H])N([H])C(=O)N3C([H])([H])C([H])([H])C([H])([H])C([H])(n4nc(-c5c([H])c([H])c(Oc6c([H])c([H])c(F)c([H])c6F)c([H])c5[H])c(C(=O)N([H])[H])c4N([H])[H])C3([H])[H])c([H])c([H])c2C1([H])[H]

$$$$
84:0:0
     RDKit          3D

 92100  0  0  1  0  0  0  0  0999 V2000
  -29.9450  -20.7090   20.6470 C   0  0  0  0  0  3  0  0  0  0  0  0
  -29.6220  -19.3930   20.2040 C   0  0  0  0  0  0  0  0  0  0  0  0
  -28.4660  -19.7060   19.3930 C   0  0  0  0  0  0  0  0  0  0  0  0
  -28.2290  -21.0940   19.3540 C   0  0  0  0  0  0  0  0  0  0  0  0
  -27.2030  -21.8580   18.5730 C   0  0  0  0  0  1  0  0  0  0  0  0
  -29.1210  -21.8060   20.1640 N   0  0  0  0  0  0  0  0  0  0  0  0
  -28.2610  -18.3400   17.2710 C   0  0  0  0  0  1  0  0  0  0  0  0
  -27.6550  -18.6620   18.6410 C   0  0  2  0  0  0  0  0  0  0  0  0
  -26.3960  -19.0690   18.4770 F   0  0  0  0  0  0  0  0  0  0  0  0
  -27.6030  -17.5370   19.3490 F   0  0  0  0  0  0  0  0  0  0  0  0
  -30.4190  -17.9280   20.5010 C   0  0  0  0  0  2  0  0  0  0  0  0
  -30.6930  -15.1780   20.2870 C   0  0  0  0  0  0  0  0  0  0  0  0
  -30.5460  -12.8300   19.3130 C   0  0  0  0  0  2  0  0  0  0  0  0
  -29.6000  -12.7840   18.0910 C   0  0  0  0  0  2  0  0  0  0  0  0
  -28.1440  -12.5650   18.5400 C   0  0  0  0  0  2  0  0  0  0  0  0
  -27.7480  -13.4780   19.7310 C   0  0  0  0  0  3  0  0  0  0  0  0
  -28.8190  -13.4970   20.8430 C   0  0  0  0  0  2  0  0  0  0  0  0
  -30.0740  -13.9250   20.2130 N   0  0  0  0  0  0  0  0  0  0  0  0
  -31.9020  -15.2020   20.0320 O   0  0  0  0  0  0  0  0  0  0  0  0
  -29.9590  -16.4010   20.4400 N   0  0  0  0  0  0  0  0  0  0  0  0
  -28.9640  -16.2740   20.5560 H   0  0  0  0  0  0  0  0  0  0  0  0
  -25.3760  -14.0380   20.5040 C   0  0  0  0  0  0  0  0  0  0  0  0
  -24.3170  -13.2590   20.8740 C   0  0  0  0  0  0  0  0  0  0  0  0
  -24.7840  -11.9110   20.8270 C   0  0  0  0  0  0  0  0  0  0  0  0
  -26.4190  -13.1670   20.2450 N   0  0  0  0  0  0  0  0  0  0  0  0
  -26.0740  -11.8780   20.5060 N   0  0  0  0  0  0  0  0  0  0  0  0
  -24.0590  -10.6470   21.0100 C   0  0  0  0  0  0  0  0  0  0  0  0
  -24.4770   -9.6840   21.9550 C   0  0  0  0  0  3  0  0  0  0  0  0
  -23.7490   -8.4860   22.1270 C   0  0  0  0  0  3  0  0  0  0  0  0
  -22.5880   -8.2450   21.3540 C   0  0  0  0  0  0  0  0  0  0  0  0
  -22.1900   -9.1960   20.3990 C   0  0  0  0  0  3  0  0  0  0  0  0
  -22.9180  -10.3840   20.2250 C   0  0  0  0  0  3  0  0  0  0  0  0
  -21.8330   -7.1000   21.4340 O   0  0  0  0  0  0  0  0  0  0  0  0
  -21.7410   -6.3790   22.5980 C   0  0  0  0  0  0  0  0  0  0  0  0
  -21.2160   -6.9410   23.7820 C   0  0  0  0  0  3  0  0  0  0  0  0
  -21.0750   -6.1450   24.9360 C   0  0  0  0  0  3  0  0  0  0  0  0
  -21.4470   -4.7870   24.9060 C   0  0  0  0  0  0  0  0  0  0  0  0
  -21.9630   -4.2240   23.7250 C   0  0  0  0  0  3  0  0  0  0  0  0
  -22.1060   -5.0180   22.5740 C   0  0  0  0  0  0  0  0  0  0  0  0
  -22.5850   -4.4660   21.4330 F   0  0  0  0  0  0  0  0  0  0  0  0
  -21.3030   -4.0200   26.0120 F   0  0  0  0  0  0  0  0  0  0  0  0
  -22.9220  -13.7350   21.1580 C   0  0  0  0  0  0  0  0  0  0  0  0
  -22.2080  -13.0430   22.0380 N   0  0  0  0  0  0  0  0  0  0  0  0
  -22.4760  -14.7560   20.6360 O   0  0  0  0  0  0  0  0  0  0  0  0
  -22.5820  -12.2180   22.4830 H   0  0  0  0  0  0  0  0  0  0  0  0
  -21.2720  -13.3450   22.2710 H   0  0  0  0  0  0  0  0  0  0  0  0
  -25.5280  -15.4110   20.3410 N   0  0  0  0  0  0  0  0  0  0  0  0
  -24.7580  -16.0530   20.4830 H   0  0  0  0  0  0  0  0  0  0  0  0
  -26.3750  -15.8780   20.0420 H   0  0  0  0  0  0  0  0  0  0  0  0
  -29.2530  -23.3940   20.4560 C   0  0  0  0  0  3  0  0  0  0  0  0
  -28.2090  -24.7000   20.0770 C   0  0  0  0  0  3  0  0  0  0  0  0
  -28.4090  -26.2410   20.3680 O   0  0  0  0  0  0  0  0  0  0  0  0
  -24.6530  -31.9140   23.3040 C   0  0  0  0  0  0  0  0  0  0  0  0
  -27.3460  -27.2290   20.2860 C   0  0  0  0  0  0  0  0  0  0  0  0
  -23.5020  -30.5160   21.6320 C   0  0  0  0  0  3  0  0  0  0  0  0
  -24.9980  -28.9680   20.2210 C   0  0  0  0  0  0  0  0  0  0  0  0
  -26.0580  -30.8080   21.5190 C   0  0  0  0  0  2  0  0  0  0  0  0
  -26.1620  -29.4200   20.8550 C   0  0  0  0  0  0  0  0  0  0  0  0
  -27.3370  -28.5680   20.8670 C   0  0  0  0  0  3  0  0  0  0  0  0
  -26.1530  -26.8870   19.6130 C   0  0  0  0  0  3  0  0  0  0  0  0
  -25.0100  -27.7180   19.5820 C   0  0  0  0  0  3  0  0  0  0  0  0
  -23.7590  -29.8510   20.2530 C   0  0  0  0  0  2  0  0  0  0  0  0
  -24.7570  -31.1020   22.2070 N   0  0  0  0  0  0  0  0  0  0  0  0
  -23.5530  -32.1810   23.8130 O   0  0  0  0  0  0  0  0  0  0  0  0
  -22.8180  -29.4950   22.5740 C   0  0  0  0  0  0  0  0  0  0  0  0
  -21.4910  -29.3180   22.4300 N   0  0  0  0  0  0  0  0  0  0  0  0
  -23.4820  -28.8640   23.4000 O   0  0  0  0  0  0  0  0  0  0  0  0
  -21.0100  -29.8790   21.7410 H   0  0  0  0  0  0  0  0  0  0  0  0
  -18.1070  -28.1110   22.9040 C   0  0  0  0  0  0  0  0  0  0  0  0
  -20.6660  -28.3660   23.1800 C   0  0  0  0  0  3  0  0  0  0  0  0
  -20.7670  -26.9460   22.5760 C   0  0  0  0  0  2  0  0  0  0  0  0
  -19.6660  -26.6460   21.5530 C   0  0  0  0  0  2  0  0  0  0  0  0
  -18.2840  -26.7770   22.1980 C   0  0  0  0  0  2  0  0  0  0  0  0
  -19.2250  -28.8640   23.3510 C   0  0  0  0  0  0  0  0  0  0  0  0
  -19.0050  -30.1120   23.9730 C   0  0  0  0  0  3  0  0  0  0  0  0
  -17.6990  -30.6080   24.1510 C   0  0  0  0  0  3  0  0  0  0  0  0
  -16.5960  -29.8520   23.7190 C   0  0  0  0  0  3  0  0  0  0  0  0
  -16.8010  -28.6050   23.1020 C   0  0  0  0  0  3  0  0  0  0  0  0
  -25.9090  -32.5630   23.9610 C   0  0  0  0  0  3  0  0  0  0  0  0
  -26.3740  -31.8210   25.2740 C   0  0  1  0  0  0  0  0  0  0  0  0
  -25.2390  -31.6040   26.3050 C   0  0  0  0  0  1  0  0  0  0  0  0
  -26.9740  -30.4350   24.9430 C   0  0  0  0  0  1  0  0  0  0  0  0
  -27.4960  -32.6320   25.9650 C   0  0  0  0  0  1  0  0  0  0  0  0
  -25.5860  -33.9690   24.2550 N   0  0  0  0  0  0  0  0  0  0  0  0
  -25.9120  -35.0090   23.4780 C   0  0  0  0  0  0  0  0  0  0  0  0
  -26.5830  -34.8870   22.4490 O   0  0  0  0  0  0  0  0  0  0  0  0
  -24.9890  -34.1370   25.0520 H   0  0  0  0  0  0  0  0  0  0  0  0
  -24.1640  -36.7800   23.1030 C   0  0  0  0  0  1  0  0  0  0  0  0
  -25.4200  -36.4060   23.9060 C   0  0  0  0  0  3  0  0  0  0  0  0
  -27.5500  -37.3430   24.6920 C   0  0  0  0  0  1  0  0  0  0  0  0
  -26.4410  -37.4650   23.7500 N   0  0  0  0  0  0  0  0  0  0  0  0
  -26.0260  -38.3860   23.8660 H   0  0  0  0  0  0  0  0  0  0  0  0
  2 11  1  0
  2  1  2  0
  3  2  1  0
  4  3  2  0
  4  6  1  0
  5  4  1  0
  6 50  1  0
  6  1  1  0
  8  7  1  6
  8 10  1  0
  8  3  1  0
  9  8  1  0
 12 20  1  0
 13 18  1  0
 14 15  1  0
 14 13  1  0
 16 15  1  0
 16 25  1  0
 16 17  1  0
 18 12  1  0
 18 17  1  0
 19 12  2  0
 20 11  1  0
 20 21  1  0
 22 23  2  0
 23 42  1  0
 24 23  1  0
 24 27  1  0
 25 22  1  0
 25 26  1  0
 26 24  2  0
 27 28  1  0
 28 29  2  0
 30 33  1  0
 30 29  1  0
 31 30  2  0
 32 31  1  0
 32 27  2  0
 33 34  1  0
 34 35  1  0
 35 36  2  0
 37 36  1  0
 37 41  1  0
 38 37  2  0
 39 34  2  0
 39 38  1  0
 40 39  1  0
 42 43  1  0
 43 46  1  0
 43 45  1  0
 44 42  2  0
 47 48  1  0
 47 22  1  0
 49 47  1  0
 51 52  1  0
 51 50  2  0
 53 64  2  0
 54 52  1  0
 54 59  1  0
 55 63  1  0
 55 65  1  0
 56 62  1  0
 56 58  1  0
 57 63  1  0
 58 59  2  0
 58 57  1  0
 60 54  2  0
 61 60  1  0
 61 56  2  0
 62 55  1  0
 63 53  1  0
 65 67  2  0
 66 65  1  0
 68 66  1  0
 69 78  2  0
 69 74  1  0
 70 66  1  0
 70 74  1  0
 71 70  1  0
 72 73  1  0
 72 71  1  0
 73 69  1  0
 74 75  2  0
 75 76  1  0
 77 76  2  0
 78 77  1  0
 79 53  1  0
 79 84  1  0
 79 80  1  0
 80 83  1  1
 80 81  1  0
 82 80  1  0
 84 87  1  0
 85 89  1  0
 85 84  1  0
 86 85  2  0
 89 88  1  0
 91 92  1  0
 91 89  1  0
 91 90  1  0
M  ISO  4  12 100  20 100  51 101  52 101
M  END
>  <TORSDO>  (85) 
F 20

>  <SCORE>  (85) 
-14.876

>  <name>  (85) 
84

>  <ligand_id>  (85) 
84

>  <original_smiles>  (85) 
[H]c1c([H])c([H])c2c(c1[H])C([H])([H])C([H])([H])C([H])([H])C2([H])N([H])C(=O)C1([H])N(C(=O)C([H])(N([H])C(=O)C([H])(N([H])C([H])([H])[H])C([H])([H])[H])C(C([H])([H])[H])(C([H])([H])[H])C([H])([H])[H])C([H])([H])c2c([H])c(OC([H])([H])C([H])([H])n3c([H])c(C([H])([H])N([H])C(=O)N4C([H])([H])C([H])([H])C([H])([H])C([H])(n5nc(-c6c([H])c([H])c(Oc7c([H])c([H])c(F)c([H])c7F)c([H])c6[H])c(C(=O)N([H])[H])c5N([H])[H])C4([H])[H])c(C(F)(F)C([H])([H])[H])c3C([H])([H])[H])c([H])c([H])c2C1([H])[H]

>  <smiles>  (85) 
[H]c1c([H])c([H])c2c(c1[H])C([H])([H])C([H])([H])C([H])([H])C2([H])N([H])C(=O)C1([H])N(C(=O)C([H])(N([H])C(=O)C([H])(N([H])C([H])([H])[H])C([H])([H])[H])C(C([H])([H])[H])(C([H])([H])[H])C([H])([H])[H])C([H])([H])c2c([H])c(OC([H])([H])C([H])([H])n3c([H])c(C([H])([H])N([H])C(=O)N4C([H])([H])C([H])([H])C([H])([H])C([H])(n5nc(-c6c([H])c([H])c(Oc7c([H])c([H])c(F)c([H])c7F)c([H])c6[H])c(C(=O)N([H])[H])c5N([H])[H])C4([H])[H])c(C(F)(F)C([H])([H])[H])c3C([H])([H])[H])c([H])c([H])c2C1([H])[H]

$$$$
85:0:0
     RDKit          3D

 97105  0  0  1  0  0  0  0  0999 V2000
  -29.7250  -22.8880   21.3390 C   0  0  0  0  0  3  0  0  0  0  0  0
  -31.0890  -24.1550   22.8380 C   0  0  0  0  0  3  0  0  0  0  0  0
  -30.2640  -24.1410   21.6990 C   0  0  0  0  0  0  0  0  0  0  0  0
  -29.9570  -21.7330   22.1240 C   0  0  0  0  0  0  0  0  0  0  0  0
  -30.7280  -21.8820   23.3200 C   0  0  0  0  0  0  0  0  0  0  0  0
  -31.3190  -23.0700   23.5940 N   0  0  0  0  0  0  0  0  0  0  0  0
  -29.8900  -19.8540   24.7740 C   0  0  0  0  0  1  0  0  0  0  0  0
  -31.4030  -21.5170   25.7460 C   0  0  0  0  0  1  0  0  0  0  0  0
  -32.2600  -19.9580   23.9790 C   0  0  0  0  0  1  0  0  0  0  0  0
  -31.0480  -20.8090   24.4100 C   0  0  2  0  0  0  0  0  0  0  0  0
  -30.7120  -25.3580   19.5410 C   0  0  0  0  0  1  0  0  0  0  0  0
  -30.3760  -26.7120   21.6150 C   0  0  0  0  0  1  0  0  0  0  0  0
  -29.9460  -25.4160   20.8800 C   0  0  2  0  0  0  0  0  0  0  0  0
  -28.4130  -25.4960   20.6170 C   0  0  0  0  0  2  0  0  0  0  0  0
  -28.0950  -26.3160   19.4810 O   0  0  0  0  0  0  0  0  0  0  0  0
  -25.2210  -31.5630   23.2950 C   0  0  0  0  0  0  0  0  0  0  0  0
  -27.0100  -27.1450   19.6480 C   0  0  0  0  0  0  0  0  0  0  0  0
  -23.6870  -30.4150   21.7280 C   0  0  0  0  0  3  0  0  0  0  0  0
  -24.7950  -28.8550   20.0410 C   0  0  0  0  0  0  0  0  0  0  0  0
  -26.1920  -30.5500   21.2370 C   0  0  0  0  0  2  0  0  0  0  0  0
  -26.0610  -29.2290   20.5070 C   0  0  0  0  0  0  0  0  0  0  0  0
  -27.1740  -28.3840   20.3010 C   0  0  0  0  0  3  0  0  0  0  0  0
  -25.7300  -26.7770   19.1790 C   0  0  0  0  0  3  0  0  0  0  0  0
  -24.6230  -27.6280   19.3710 C   0  0  0  0  0  3  0  0  0  0  0  0
  -23.6590  -29.8210   20.2940 C   0  0  0  0  0  2  0  0  0  0  0  0
  -25.0610  -30.8510   22.1440 N   0  0  0  0  0  0  0  0  0  0  0  0
  -24.2480  -31.8980   23.9840 O   0  0  0  0  0  0  0  0  0  0  0  0
  -23.0480  -29.3950   22.6970 C   0  0  0  0  0  0  0  0  0  0  0  0
  -21.7220  -29.2120   22.5840 N   0  0  0  0  0  0  0  0  0  0  0  0
  -23.7400  -28.7690   23.5040 O   0  0  0  0  0  0  0  0  0  0  0  0
  -21.2250  -29.7670   21.9010 H   0  0  0  0  0  0  0  0  0  0  0  0
  -18.4020  -27.8380   22.9460 C   0  0  0  0  0  0  0  0  0  0  0  0
  -20.9140  -28.2750   23.3620 C   0  0  0  0  0  3  0  0  0  0  0  0
  -21.1410  -26.8200   22.8880 C   0  0  0  0  0  2  0  0  0  0  0  0
  -20.1300  -26.3660   21.8290 C   0  0  0  0  0  2  0  0  0  0  0  0
  -18.7030  -26.4630   22.3740 C   0  0  0  0  0  2  0  0  0  0  0  0
  -19.4410  -28.6950   23.3940 C   0  0  0  0  0  0  0  0  0  0  0  0
  -19.1100  -29.9760   23.8850 C   0  0  0  0  0  3  0  0  0  0  0  0
  -17.7700  -30.4050   23.9330 C   0  0  0  0  0  3  0  0  0  0  0  0
  -16.7430  -29.5480   23.5030 C   0  0  0  0  0  3  0  0  0  0  0  0
  -17.0580  -28.2660   23.0150 C   0  0  0  0  0  3  0  0  0  0  0  0
  -26.6330  -32.0150   23.7880 C   0  0  0  0  0  3  0  0  0  0  0  0
  -26.4770  -33.3200   24.4410 N   0  0  0  0  0  0  0  0  0  0  0  0
  -26.9170  -34.4810   23.9350 C   0  0  0  0  0  0  0  0  0  0  0  0
  -27.5680  -34.5510   22.8890 O   0  0  0  0  0  0  0  0  0  0  0  0
  -25.9040  -33.3460   25.2720 H   0  0  0  0  0  0  0  0  0  0  0  0
  -25.4190  -36.4980   24.0220 C   0  0  0  0  0  1  0  0  0  0  0  0
  -26.5800  -35.7660   24.7130 C   0  0  0  0  0  3  0  0  0  0  0  0
  -28.7770  -36.1630   25.7340 C   0  0  0  0  0  1  0  0  0  0  0  0
  -27.7300  -36.6850   24.8590 N   0  0  0  0  0  0  0  0  0  0  0  0
  -27.4300  -37.5830   25.2270 H   0  0  0  0  0  0  0  0  0  0  0  0
  -27.3110  -30.9780   24.7640 C   0  0  1  0  0  0  0  0  0  0  0  0
  -26.4060  -30.5520   25.9440 C   0  0  0  0  0  1  0  0  0  0  0  0
  -27.7230  -29.6980   23.9990 C   0  0  0  0  0  1  0  0  0  0  0  0
  -28.6100  -31.5800   25.3500 C   0  0  0  0  0  1  0  0  0  0  0  0
  -29.3530  -20.4240   21.5980 C   0  0  0  0  0  2  0  0  0  0  0  0
  -30.4150  -19.4250   21.0810 C   0  0  0  0  0  2  0  0  0  0  0  0
  -29.9310  -17.9610   20.9830 C   0  0  0  0  0  2  0  0  0  0  0  0
  -31.0700  -16.9460   21.2170 C   0  0  0  0  0  2  0  0  0  0  0  0
  -31.2590  -14.5710   20.3960 C   0  0  0  0  0  0  0  0  0  0  0  0
  -30.9050  -12.3760   19.3250 C   0  0  0  0  0  2  0  0  0  0  0  0
  -29.9950  -12.5550   18.0930 C   0  0  0  0  0  2  0  0  0  0  0  0
  -28.5050  -12.5110   18.4930 C   0  0  0  0  0  2  0  0  0  0  0  0
  -28.1790  -13.4350   19.6940 C   0  0  0  0  0  3  0  0  0  0  0  0
  -29.1930  -13.1960   20.8370 C   0  0  0  0  0  2  0  0  0  0  0  0
  -30.5450  -13.4170   20.2950 N   0  0  0  0  0  0  0  0  0  0  0  0
  -32.3700  -14.7300   19.8830 O   0  0  0  0  0  0  0  0  0  0  0  0
  -30.6170  -15.5660   21.0270 N   0  0  0  0  0  0  0  0  0  0  0  0
  -29.7080  -15.3290   21.3910 H   0  0  0  0  0  0  0  0  0  0  0  0
  -25.8070  -14.2030   20.3470 C   0  0  0  0  0  0  0  0  0  0  0  0
  -24.6870  -13.5050   20.7060 C   0  0  0  0  0  0  0  0  0  0  0  0
  -25.0640  -12.1270   20.7060 C   0  0  0  0  0  0  0  0  0  0  0  0
  -26.8010  -13.2560   20.1500 N   0  0  0  0  0  0  0  0  0  0  0  0
  -26.3530  -12.0020   20.4220 N   0  0  0  0  0  0  0  0  0  0  0  0
  -24.2560  -10.9170   20.9020 C   0  0  0  0  0  0  0  0  0  0  0  0
  -24.5830   -9.9630   21.8910 C   0  0  0  0  0  3  0  0  0  0  0  0
  -23.7820   -8.8160   22.0750 C   0  0  0  0  0  3  0  0  0  0  0  0
  -22.6380   -8.6140   21.2690 C   0  0  0  0  0  0  0  0  0  0  0  0
  -22.3300   -9.5540   20.2680 C   0  0  0  0  0  3  0  0  0  0  0  0
  -23.1320  -10.6920   20.0830 C   0  0  0  0  0  3  0  0  0  0  0  0
  -21.8130   -7.5190   21.3580 O   0  0  0  0  0  0  0  0  0  0  0  0
  -21.6220   -6.8600   22.5450 C   0  0  0  0  0  0  0  0  0  0  0  0
  -21.1280   -7.5170   23.6940 C   0  0  0  0  0  3  0  0  0  0  0  0
  -20.8820   -6.7850   24.8720 C   0  0  0  0  0  3  0  0  0  0  0  0
  -21.1190   -5.3970   24.9020 C   0  0  0  0  0  0  0  0  0  0  0  0
  -21.6020   -4.7390   23.7590 C   0  0  0  0  0  3  0  0  0  0  0  0
  -21.8520   -5.4690   22.5820 C   0  0  0  0  0  0  0  0  0  0  0  0
  -22.2980   -4.8290   21.4750 F   0  0  0  0  0  0  0  0  0  0  0  0
  -20.8760   -4.6910   26.0310 F   0  0  0  0  0  0  0  0  0  0  0  0
  -23.3170  -14.0720   20.9430 C   0  0  0  0  0  0  0  0  0  0  0  0
  -22.5430  -13.4570   21.8310 N   0  0  0  0  0  0  0  0  0  0  0  0
  -22.9400  -15.0950   20.3720 O   0  0  0  0  0  0  0  0  0  0  0  0
  -22.8520  -12.6240   22.3120 H   0  0  0  0  0  0  0  0  0  0  0  0
  -21.6230  -13.8210   22.0290 H   0  0  0  0  0  0  0  0  0  0  0  0
  -26.0550  -15.5600   20.1540 N   0  0  0  0  0  0  0  0  0  0  0  0
  -25.3320  -16.2620   20.2630 H   0  0  0  0  0  0  0  0  0  0  0  0
  -26.9500  -15.9520   19.8930 H   0  0  0  0  0  0  0  0  0  0  0  0
  1  3  2  0
  1  4  1  0
  2  6  2  0
  3  2  1  0
  4  5  2  0
  5  6  1  0
  5 10  1  0
 10  9  1  6
 10  7  1  0
 10  8  1  0
 13 11  1  6
 13 12  1  0
 13  3  1  0
 14 13  1  0
 15 17  1  0
 15 14  1  0
 16 27  2  0
 17 22  1  0
 18 26  1  0
 18 28  1  0
 19 25  1  0
 19 21  1  0
 20 26  1  0
 21 20  1  0
 22 21  2  0
 23 24  1  0
 23 17  2  0
 24 19  2  0
 25 18  1  0
 26 16  1  0
 28 30  2  0
 29 28  1  0
 31 29  1  0
 32 41  2  0
 32 37  1  0
 33 29  1  0
 33 37  1  0
 34 33  1  0
 35 36  1  0
 35 34  1  0
 36 32  1  0
 37 38  2  0
 38 39  1  0
 40 39  2  0
 41 40  1  0
 42 16  1  0
 42 43  1  0
 42 52  1  0
 43 46  1  0
 44 43  1  0
 44 48  1  0
 45 44  2  0
 48 47  1  0
 48 50  1  0
 50 51  1  0
 50 49  1  0
 52 55  1  1
 52 53  1  0
 54 52  1  0
 56  4  1  0
 57 56  1  0
 58 57  1  0
 58 59  1  0
 60 68  1  0
 61 66  1  0
 62 63  1  0
 62 61  1  0
 64 63  1  0
 64 73  1  0
 64 65  1  0
 66 60  1  0
 66 65  1  0
 67 60  2  0
 68 59  1  0
 68 69  1  0
 70 71  2  0
 71 72  1  0
 71 90  1  0
 72 75  1  0
 73 70  1  0
 73 74  1  0
 74 72  2  0
 75 76  1  0
 76 77  2  0
 78 81  1  0
 78 77  1  0
 79 78  2  0
 80 79  1  0
 80 75  2  0
 81 82  1  0
 82 87  2  0
 82 83  1  0
 83 84  2  0
 84 85  1  0
 85 89  1  0
 86 85  2  0
 87 86  1  0
 88 87  1  0
 90 91  1  0
 91 94  1  0
 91 93  1  0
 92 90  2  0
 95 96  1  0
 95 70  1  0
 97 95  1  0
M  ISO  4  14 101  15 101  60 100  68 100
M  END
>  <TORSDO>  (86) 
F 23

>  <SCORE>  (86) 
-6.180

>  <name>  (86) 
85

>  <ligand_id>  (86) 
85

>  <original_smiles>  (86) 
[H]c1nc(C(C([H])([H])[H])(C([H])([H])[H])C([H])([H])[H])c(C([H])([H])C([H])([H])C([H])([H])C([H])([H])N([H])C(=O)N2C([H])([H])C([H])([H])C([H])([H])C([H])(n3nc(-c4c([H])c([H])c(Oc5c([H])c([H])c(F)c([H])c5F)c([H])c4[H])c(C(=O)N([H])[H])c3N([H])[H])C2([H])[H])c([H])c1C(C([H])([H])[H])(C([H])([H])[H])C([H])([H])Oc1c([H])c([H])c2c(c1[H])C([H])([H])N(C(=O)C([H])(N([H])C(=O)C([H])(N([H])C([H])([H])[H])C([H])([H])[H])C(C([H])([H])[H])(C([H])([H])[H])C([H])([H])[H])C([H])(C(=O)N([H])C1([H])c3c([H])c([H])c([H])c([H])c3C([H])([H])C([H])([H])C1([H])[H])C2([H])[H]

>  <smiles>  (86) 
[H]c1nc(C(C([H])([H])[H])(C([H])([H])[H])C([H])([H])[H])c(C([H])([H])C([H])([H])C([H])([H])C([H])([H])N([H])C(=O)N2C([H])([H])C([H])([H])C([H])([H])C([H])(n3nc(-c4c([H])c([H])c(Oc5c([H])c([H])c(F)c([H])c5F)c([H])c4[H])c(C(=O)N([H])[H])c3N([H])[H])C2([H])[H])c([H])c1C(C([H])([H])[H])(C([H])([H])[H])C([H])([H])Oc1c([H])c([H])c2c(c1[H])C([H])([H])N(C(=O)C([H])(N([H])C(=O)C([H])(N([H])C([H])([H])[H])C([H])([H])[H])C(C([H])([H])[H])(C([H])([H])[H])C([H])([H])[H])C([H])(C(=O)N([H])C1([H])c3c([H])c([H])c([H])c([H])c3C([H])([H])C([H])([H])C1([H])[H])C2([H])[H]

$$$$
86:0:0
     RDKit          3D

 86 90  0  0  1  0  0  0  0  0999 V2000
  -29.7490  -21.7190   18.5400 C   0  0  0  0  0  1  0  0  0  0  0  0
  -28.8030  -21.4330   19.7180 C   0  0  0  0  0  2  0  0  0  0  0  0
  -27.2450  -19.9430   18.1830 C   0  0  0  0  0  1  0  0  0  0  0  0
  -27.3860  -21.1120   19.1750 C   0  0  0  0  0  3  0  0  0  0  0  0
  -26.6000  -20.8480   20.2180 F   0  0  0  0  0  0  0  0  0  0  0  0
  -29.4720  -19.5140   20.2790 C   0  0  0  0  0  1  0  0  0  0  0  0
  -30.2050  -16.1570   19.8790 C   0  0  0  0  0  0  0  0  0  0  0  0
  -30.3540  -13.5380   19.0190 C   0  0  0  0  0  2  0  0  0  0  0  0
  -29.4370  -12.9610   17.8900 C   0  0  0  0  0  2  0  0  0  0  0  0
  -28.0720  -12.5280   18.4400 C   0  0  0  0  0  2  0  0  0  0  0  0
  -27.5710  -13.5380   19.4930 C   0  0  0  0  0  3  0  0  0  0  0  0
  -28.6440  -13.9930   20.5190 C   0  0  0  0  0  2  0  0  0  0  0  0
  -29.7020  -14.7400   19.7680 N   0  0  0  0  0  0  0  0  0  0  0  0
  -31.4460  -16.0160   19.7520 O   0  0  0  0  0  0  0  0  0  0  0  0
  -29.4650  -17.6280   19.9420 N   0  0  0  0  0  0  0  0  0  0  0  0
  -28.4890  -17.3850   19.8420 H   0  0  0  0  0  0  0  0  0  0  0  0
  -25.2730  -14.0250   20.4320 C   0  0  0  0  0  0  0  0  0  0  0  0
  -24.2390  -13.2360   20.8440 C   0  0  0  0  0  0  0  0  0  0  0  0
  -24.7060  -11.8880   20.7510 C   0  0  0  0  0  0  0  0  0  0  0  0
  -26.3010  -13.1650   20.1010 N   0  0  0  0  0  0  0  0  0  0  0  0
  -25.9800  -11.8670   20.3560 N   0  0  0  0  0  0  0  0  0  0  0  0
  -23.9850  -10.6220   20.9540 C   0  0  0  0  0  0  0  0  0  0  0  0
  -24.4430   -9.6460   21.8680 C   0  0  0  0  0  3  0  0  0  0  0  0
  -23.7150   -8.4520   22.0660 C   0  0  0  0  0  3  0  0  0  0  0  0
  -22.5160   -8.2230   21.3500 C   0  0  0  0  0  0  0  0  0  0  0  0
  -22.0760   -9.1870   20.4260 C   0  0  0  0  0  3  0  0  0  0  0  0
  -22.8040  -10.3720   20.2260 C   0  0  0  0  0  3  0  0  0  0  0  0
  -21.7590   -7.0820   21.4570 O   0  0  0  0  0  0  0  0  0  0  0  0
  -21.7230   -6.3460   22.6150 C   0  0  0  0  0  0  0  0  0  0  0  0
  -21.2680   -6.8960   23.8320 C   0  0  0  0  0  3  0  0  0  0  0  0
  -21.1810   -6.0870   24.9830 C   0  0  0  0  0  3  0  0  0  0  0  0
  -21.5420   -4.7270   24.9170 C   0  0  0  0  0  0  0  0  0  0  0  0
  -21.9920   -4.1770   23.7040 C   0  0  0  0  0  3  0  0  0  0  0  0
  -22.0800   -4.9840   22.5560 C   0  0  0  0  0  0  0  0  0  0  0  0
  -22.4930   -4.4420   21.3850 F   0  0  0  0  0  0  0  0  0  0  0  0
  -21.4540   -3.9470   26.0200 F   0  0  0  0  0  0  0  0  0  0  0  0
  -22.8610  -13.7090   21.1980 C   0  0  0  0  0  0  0  0  0  0  0  0
  -22.1830  -13.0020   22.0960 N   0  0  0  0  0  0  0  0  0  0  0  0
  -22.3960  -14.7400   20.7160 O   0  0  0  0  0  0  0  0  0  0  0  0
  -22.5760  -12.1690   22.5070 H   0  0  0  0  0  0  0  0  0  0  0  0
  -21.2600  -13.3010   22.3770 H   0  0  0  0  0  0  0  0  0  0  0  0
  -25.4190  -15.4000   20.2740 N   0  0  0  0  0  0  0  0  0  0  0  0
  -24.6570  -16.0470   20.4400 H   0  0  0  0  0  0  0  0  0  0  0  0
  -26.2360  -15.8420   19.8740 H   0  0  0  0  0  0  0  0  0  0  0  0
  -28.4180  -23.4120   20.3570 C   0  0  0  0  0 15  0  0  0  0  0  0
  -28.2920  -25.2880   20.0680 O   0  0  0  0  0  1  0  0  0  0  0  0
  -24.6730  -31.8170   23.0980 C   0  0  0  0  0  0  0  0  0  0  0  0
  -27.2990  -26.5780   20.1360 C   0  0  0  0  0  0  0  0  0  0  0  0
  -23.5340  -30.4040   21.4470 C   0  0  0  0  0  3  0  0  0  0  0  0
  -25.0200  -28.7350   20.0620 C   0  0  0  0  0  0  0  0  0  0  0  0
  -26.1210  -30.5170   21.3770 C   0  0  0  0  0  2  0  0  0  0  0  0
  -26.2120  -29.0600   20.7180 C   0  0  0  0  0  0  0  0  0  0  0  0
  -27.3250  -28.0210   20.7100 C   0  0  0  0  0  3  0  0  0  0  0  0
  -26.0590  -26.5290   19.4260 C   0  0  0  0  0  3  0  0  0  0  0  0
  -24.9980  -27.4990   19.3880 C   0  0  0  0  0  3  0  0  0  0  0  0
  -23.8120  -29.6990   20.0850 C   0  0  0  0  0  2  0  0  0  0  0  0
  -24.8030  -30.9530   22.0260 N   0  0  0  0  0  0  0  0  0  0  0  0
  -23.5650  -32.1050   23.5880 O   0  0  0  0  0  0  0  0  0  0  0  0
  -22.8010  -29.4310   22.4120 C   0  0  0  0  0  0  0  0  0  0  0  0
  -21.4660  -29.2860   22.2910 N   0  0  0  0  0  0  0  0  0  0  0  0
  -23.4520  -28.7970   23.2460 O   0  0  0  0  0  0  0  0  0  0  0  0
  -20.9870  -29.8460   21.5990 H   0  0  0  0  0  0  0  0  0  0  0  0
  -18.0730  -28.0910   22.8440 C   0  0  0  0  0  0  0  0  0  0  0  0
  -20.6410  -28.3370   23.0540 C   0  0  0  0  0  3  0  0  0  0  0  0
  -20.7170  -26.9200   22.4390 C   0  0  0  0  0  2  0  0  0  0  0  0
  -19.5910  -26.6360   21.4390 C   0  0  0  0  0  2  0  0  0  0  0  0
  -18.2250  -26.7670   22.1170 C   0  0  0  0  0  2  0  0  0  0  0  0
  -19.2050  -28.8370   23.2690 C   0  0  0  0  0  0  0  0  0  0  0  0
  -19.0010  -30.0740   23.9190 C   0  0  0  0  0  3  0  0  0  0  0  0
  -17.7020  -30.5680   24.1400 C   0  0  0  0  0  3  0  0  0  0  0  0
  -16.5860  -29.8210   23.7260 C   0  0  0  0  0  3  0  0  0  0  0  0
  -16.7720  -28.5830   23.0850 C   0  0  0  0  0  3  0  0  0  0  0  0
  -25.9070  -32.4980   23.7640 C   0  0  0  0  0  3  0  0  0  0  0  0
  -26.3880  -31.7560   25.0730 C   0  0  1  0  0  0  0  0  0  0  0  0
  -25.2620  -31.5210   26.1080 C   0  0  0  0  0  1  0  0  0  0  0  0
  -27.0040  -30.3800   24.7400 C   0  0  0  0  0  1  0  0  0  0  0  0
  -27.5050  -32.5760   25.7620 C   0  0  0  0  0  1  0  0  0  0  0  0
  -25.5530  -33.8960   24.0960 N   0  0  0  0  0  0  0  0  0  0  0  0
  -25.8940  -34.9770   23.3810 C   0  0  0  0  0  0  0  0  0  0  0  0
  -26.5940  -34.9040   22.3690 O   0  0  0  0  0  0  0  0  0  0  0  0
  -24.9340  -34.0240   24.8830 H   0  0  0  0  0  0  0  0  0  0  0  0
  -24.1760  -36.7870   23.0160 C   0  0  0  0  0  1  0  0  0  0  0  0
  -25.3870  -36.3560   23.8590 C   0  0  0  0  0  3  0  0  0  0  0  0
  -27.4760  -37.2410   24.8040 C   0  0  0  0  0  1  0  0  0  0  0  0
  -26.4180  -37.4170   23.8130 N   0  0  0  0  0  0  0  0  0  0  0  0
  -26.0000  -38.3330   23.9540 H   0  0  0  0  0  0  0  0  0  0  0  0
  1  2  1  0
  4  3  1  0
  4  2  1  0
  4  5  1  0
  7 15  1  0
  8 13  1  0
  9 10  1  0
  9  8  1  0
 11 10  1  0
 11 20  1  0
 11 12  1  0
 13  7  1  0
 13 12  1  0
 14  7  2  0
 15  6  1  0
 16 15  1  0
 17 18  2  0
 18 37  1  0
 19 18  1  0
 19 22  1  0
 20 21  1  0
 20 17  1  0
 21 19  2  0
 22 23  1  0
 23 24  2  0
 25 28  1  0
 25 24  1  0
 26 25  2  0
 27 26  1  0
 27 22  2  0
 28 29  1  0
 29 30  1  0
 30 31  2  0
 32 31  1  0
 32 36  1  0
 33 32  2  0
 34 29  2  0
 34 33  1  0
 35 34  1  0
 37 38  1  0
 38 41  1  0
 38 40  1  0
 39 37  2  0
 42 17  1  0
 42 43  1  0
 44 42  1  0
 46 48  1  0
 47 58  2  0
 48 53  1  0
 49 57  1  0
 49 59  1  0
 50 56  1  0
 50 52  1  0
 51 57  1  0
 52 51  1  0
 53 52  2  0
 54 48  2  0
 55 54  1  0
 55 50  2  0
 56 49  1  0
 57 47  1  0
 59 61  2  0
 60 59  1  0
 62 60  1  0
 63 72  2  0
 63 68  1  0
 64 60  1  0
 64 68  1  0
 65 64  1  0
 66 67  1  0
 66 65  1  0
 67 63  1  0
 68 69  2  0
 69 70  1  0
 71 70  2  0
 72 71  1  0
 73 47  1  0
 73 78  1  0
 73 74  1  0
 74 77  1  1
 74 75  1  0
 76 74  1  0
 78 81  1  0
 79 83  1  0
 79 78  1  0
 80 79  2  0
 83 82  1  0
 85 83  1  0
 85 86  1  0
 85 84  1  0
M  ISO  4   7 100  15 100  45 101  46 101
M  END
>  <TORSDO>  (87) 
F 19

>  <SCORE>  (87) 
-15.193

>  <name>  (87) 
86

>  <ligand_id>  (87) 
86

>  <original_smiles>  (87) 
[H]c1c([H])c([H])c2c(c1[H])C([H])([H])C([H])([H])C([H])([H])C2([H])N([H])C(=O)C1([H])N(C(=O)C([H])(N([H])C(=O)C([H])(N([H])C([H])([H])[H])C([H])([H])[H])C(C([H])([H])[H])(C([H])([H])[H])C([H])([H])[H])C([H])([H])c2c([H])c(OC([H])([H])C(C([H])([H])[H])(C([H])([H])N([H])C(=O)N3C([H])([H])C([H])([H])C([H])([H])C([H])(n4nc(-c5c([H])c([H])c(Oc6c([H])c([H])c(F)c([H])c6F)c([H])c5[H])c(C(=O)N([H])[H])c4N([H])[H])C3([H])[H])C([H])(F)C([H])([H])[H])c([H])c([H])c2C1([H])[H]

>  <smiles>  (87) 
[H]c1c([H])c([H])c2c(c1[H])C([H])([H])C([H])([H])C([H])([H])C2([H])N([H])C(=O)C1([H])N(C(=O)C([H])(N([H])C(=O)C([H])(N([H])C([H])([H])[H])C([H])([H])[H])C(C([H])([H])[H])(C([H])([H])[H])C([H])([H])[H])C([H])([H])c2c([H])c(OC([H])([H])C(C([H])([H])[H])(C([H])([H])N([H])C(=O)N3C([H])([H])C([H])([H])C([H])([H])C([H])(n4nc(-c5c([H])c([H])c(Oc6c([H])c([H])c(F)c([H])c6F)c([H])c5[H])c(C(=O)N([H])[H])c4N([H])[H])C3([H])[H])C([H])(F)C([H])([H])[H])c([H])c([H])c2C1([H])[H]

$$$$
87:0:0
     RDKit          3D

 94102  0  0  1  0  0  0  0  0999 V2000
  -29.0100  -19.5550   19.0960 C   0  0  0  0  0  0  0  0  0  0  0  0
  -27.9300  -21.9310   19.5070 C   0  0  0  0  0  2  0  0  0  0  0  0
  -29.7380  -21.9660   21.1880 C   0  0  0  0  0  2  0  0  0  0  0  0
  -29.6940  -19.2540   20.4670 C   0  0  0  0  0  3  0  0  0  0  0  0
  -28.8530  -22.9810   20.2370 C   0  0  0  0  0  3  0  0  0  0  0  0
  -28.6300  -20.8440   18.7100 N   0  0  0  0  0  0  0  0  0  0  0  0
  -29.3950  -20.4450   21.4280 N   0  0  0  0  0  4  0  0  0  0  0  0
  -28.9530  -18.6150   18.2990 O   0  0  0  0  0  0  0  0  0  0  0  0
  -28.4230  -20.3830   21.6780 H   0  0  0  0  0  0  0  0  0  0  0  0
  -29.8970  -20.2150   22.2700 H   0  0  0  0  0  0  0  0  0  0  0  0
  -27.7700  -20.5970   16.3450 C   0  0  0  0  0  1  0  0  0  0  0  0
  -30.2270  -21.1780   16.7750 C   0  0  0  0  0  1  0  0  0  0  0  0
  -28.7760  -21.2770   17.2930 C   0  0  0  0  0  3  0  0  0  0  0  0
  -29.8020  -17.6400   21.1230 C   0  0  0  0  0  2  0  0  0  0  0  0
  -30.5600  -14.9500   20.5080 C   0  0  0  0  0  0  0  0  0  0  0  0
  -30.5000  -12.5830   19.5390 C   0  0  0  0  0  2  0  0  0  0  0  0
  -29.5910  -12.4980   18.2890 C   0  0  0  0  0  2  0  0  0  0  0  0
  -28.1210  -12.2670   18.6970 C   0  0  0  0  0  2  0  0  0  0  0  0
  -27.6750  -13.2050   19.8480 C   0  0  0  0  0  3  0  0  0  0  0  0
  -28.7050  -13.2410   20.9930 C   0  0  0  0  0  2  0  0  0  0  0  0
  -29.9750  -13.6830   20.3990 N   0  0  0  0  0  0  0  0  0  0  0  0
  -31.7860  -15.0070   20.3750 O   0  0  0  0  0  0  0  0  0  0  0  0
  -29.7460  -16.1360   20.5440 N   0  0  0  0  0  0  0  0  0  0  0  0
  -28.7860  -15.8650   20.3960 H   0  0  0  0  0  0  0  0  0  0  0  0
  -25.2790  -13.7900   20.5350 C   0  0  0  0  0  0  0  0  0  0  0  0
  -24.2080  -13.0180   20.8840 C   0  0  0  0  0  0  0  0  0  0  0  0
  -24.6750  -11.6670   20.8790 C   0  0  0  0  0  0  0  0  0  0  0  0
  -26.3280  -12.9110   20.3220 N   0  0  0  0  0  0  0  0  0  0  0  0
  -25.9740  -11.6290   20.6010 N   0  0  0  0  0  0  0  0  0  0  0  0
  -23.9450  -10.4070   21.0630 C   0  0  0  0  0  0  0  0  0  0  0  0
  -24.3420   -9.4560   22.0280 C   0  0  0  0  0  3  0  0  0  0  0  0
  -23.6110   -8.2600   22.1980 C   0  0  0  0  0  3  0  0  0  0  0  0
  -22.4680   -8.0070   21.4020 C   0  0  0  0  0  0  0  0  0  0  0  0
  -22.0910   -8.9470   20.4270 C   0  0  0  0  0  3  0  0  0  0  0  0
  -22.8230  -10.1340   20.2560 C   0  0  0  0  0  3  0  0  0  0  0  0
  -21.7130   -6.8620   21.4790 O   0  0  0  0  0  0  0  0  0  0  0  0
  -21.6140   -6.1430   22.6430 C   0  0  0  0  0  0  0  0  0  0  0  0
  -21.0990   -6.7110   23.8290 C   0  0  0  0  0  3  0  0  0  0  0  0
  -20.9500   -5.9170   24.9830 C   0  0  0  0  0  3  0  0  0  0  0  0
  -21.3040   -4.5550   24.9530 C   0  0  0  0  0  0  0  0  0  0  0  0
  -21.8110   -3.9870   23.7710 C   0  0  0  0  0  3  0  0  0  0  0  0
  -21.9620   -4.7780   22.6190 C   0  0  0  0  0  0  0  0  0  0  0  0
  -22.4330   -4.2200   21.4770 F   0  0  0  0  0  0  0  0  0  0  0  0
  -21.1540   -3.7890   26.0580 F   0  0  0  0  0  0  0  0  0  0  0  0
  -22.8030  -13.4960   21.1080 C   0  0  0  0  0  0  0  0  0  0  0  0
  -22.0490  -12.8110   21.9570 N   0  0  0  0  0  0  0  0  0  0  0  0
  -22.3830  -14.5170   20.5650 O   0  0  0  0  0  0  0  0  0  0  0  0
  -22.4030  -11.9860   22.4230 H   0  0  0  0  0  0  0  0  0  0  0  0
  -21.1040  -13.1140   22.1470 H   0  0  0  0  0  0  0  0  0  0  0  0
  -25.4430  -15.1610   20.3500 N   0  0  0  0  0  0  0  0  0  0  0  0
  -24.6620  -15.8020   20.4330 H   0  0  0  0  0  0  0  0  0  0  0  0
  -26.2730  -15.5960   19.9690 H   0  0  0  0  0  0  0  0  0  0  0  0
  -28.1120  -24.4580   20.7590 C   0  0  0  0  0  2  0  0  0  0  0  0
  -28.3780  -25.9960   20.4690 O   0  0  0  0  0  0  0  0  0  0  0  0
  -24.6670  -31.8080   23.2820 C   0  0  0  0  0  0  0  0  0  0  0  0
  -27.3280  -27.0030   20.4120 C   0  0  0  0  0  0  0  0  0  0  0  0
  -23.5170  -30.3860   21.6310 C   0  0  0  0  0  3  0  0  0  0  0  0
  -25.0100  -28.7810   20.2790 C   0  0  0  0  0  0  0  0  0  0  0  0
  -26.0800  -30.6360   21.5450 C   0  0  0  0  0  2  0  0  0  0  0  0
  -26.1740  -29.2300   20.9150 C   0  0  0  0  0  0  0  0  0  0  0  0
  -27.3370  -28.3590   20.9570 C   0  0  0  0  0  3  0  0  0  0  0  0
  -26.1350  -26.6680   19.7370 C   0  0  0  0  0  3  0  0  0  0  0  0
  -25.0050  -27.5160   19.6730 C   0  0  0  0  0  3  0  0  0  0  0  0
  -23.7840  -29.6850   20.2730 C   0  0  0  0  0  2  0  0  0  0  0  0
  -24.7730  -30.9680   22.2070 N   0  0  0  0  0  0  0  0  0  0  0  0
  -23.5630  -32.1030   23.7700 O   0  0  0  0  0  0  0  0  0  0  0  0
  -22.8050  -29.3990   22.5900 C   0  0  0  0  0  0  0  0  0  0  0  0
  -21.4780  -29.2400   22.4390 N   0  0  0  0  0  0  0  0  0  0  0  0
  -23.4510  -28.7720   23.4340 O   0  0  0  0  0  0  0  0  0  0  0  0
  -21.0110  -29.7910   21.7320 H   0  0  0  0  0  0  0  0  0  0  0  0
  -18.0700  -28.0990   22.9120 C   0  0  0  0  0  0  0  0  0  0  0  0
  -20.6310  -28.3200   23.2030 C   0  0  0  0  0  3  0  0  0  0  0  0
  -20.7160  -26.8840   22.6340 C   0  0  0  0  0  2  0  0  0  0  0  0
  -19.6190  -26.5780   21.6090 C   0  0  0  0  0  2  0  0  0  0  0  0
  -18.2330  -26.7470   22.2380 C   0  0  0  0  0  2  0  0  0  0  0  0
  -19.1970  -28.8440   23.3520 C   0  0  0  0  0  0  0  0  0  0  0  0
  -18.9910  -30.1090   23.9430 C   0  0  0  0  0  3  0  0  0  0  0  0
  -17.6920  -30.6290   24.0990 C   0  0  0  0  0  3  0  0  0  0  0  0
  -16.5800  -29.8810   23.6750 C   0  0  0  0  0  3  0  0  0  0  0  0
  -16.7690  -28.6180   23.0860 C   0  0  0  0  0  3  0  0  0  0  0  0
  -25.9240  -32.4570   23.9370 C   0  0  0  0  0  3  0  0  0  0  0  0
  -26.3870  -31.7200   25.2540 C   0  0  1  0  0  0  0  0  0  0  0  0
  -25.2510  -31.5180   26.2840 C   0  0  0  0  0  1  0  0  0  0  0  0
  -26.9800  -30.3300   24.9310 C   0  0  0  0  0  1  0  0  0  0  0  0
  -27.5120  -32.5320   25.9400 C   0  0  0  0  0  1  0  0  0  0  0  0
  -25.6030  -33.8640   24.2260 N   0  0  0  0  0  0  0  0  0  0  0  0
  -25.9570  -34.9030   23.4580 C   0  0  0  0  0  0  0  0  0  0  0  0
  -26.6520  -34.7780   22.4470 O   0  0  0  0  0  0  0  0  0  0  0  0
  -24.9860  -34.0360   25.0080 H   0  0  0  0  0  0  0  0  0  0  0  0
  -24.2490  -36.7020   23.0270 C   0  0  0  0  0  1  0  0  0  0  0  0
  -25.4640  -36.3030   23.8780 C   0  0  0  0  0  3  0  0  0  0  0  0
  -27.5750  -37.2010   24.7570 C   0  0  0  0  0  1  0  0  0  0  0  0
  -26.5050  -37.3510   23.7750 N   0  0  0  0  0  0  0  0  0  0  0  0
  -26.0970  -38.2750   23.8900 H   0  0  0  0  0  0  0  0  0  0  0  0
  1  4  1  0
  2  5  1  0
  3  7  1  0
  4 14  1  0
  4  7  1  0
  5 53  1  0
  5  3  1  0
  6  1  1  0
  6  2  1  0
  7  9  1  0
  7 10  1  0
  8  1  2  0
 11 13  1  0
 12 13  1  0
 13  6  1  0
 15 23  1  0
 16 21  1  0
 17 18  1  0
 17 16  1  0
 19 18  1  0
 19 28  1  0
 19 20  1  0
 21 15  1  0
 21 20  1  0
 22 15  2  0
 23 14  1  0
 24 23  1  0
 25 26  2  0
 26 45  1  0
 27 26  1  0
 27 30  1  0
 28 25  1  0
 28 29  1  0
 29 27  2  0
 30 31  1  0
 31 32  2  0
 33 36  1  0
 33 32  1  0
 34 33  2  0
 35 34  1  0
 35 30  2  0
 36 37  1  0
 37 38  1  0
 38 39  2  0
 40 39  1  0
 40 44  1  0
 41 40  2  0
 42 37  2  0
 42 41  1  0
 43 42  1  0
 45 46  1  0
 46 49  1  0
 46 48  1  0
 47 45  2  0
 50 51  1  0
 50 25  1  0
 52 50  1  0
 54 53  1  0
 55 66  2  0
 56 54  1  0
 56 61  1  0
 57 65  1  0
 57 67  1  0
 58 60  1  0
 59 65  1  0
 60 61  2  0
 60 59  1  0
 62 56  2  0
 63 62  1  0
 63 58  2  0
 64 58  1  0
 64 57  1  0
 65 55  1  0
 67 69  2  0
 68 67  1  0
 70 68  1  0
 71 80  2  0
 71 76  1  0
 72 68  1  0
 72 76  1  0
 73 72  1  0
 74 75  1  0
 74 73  1  0
 75 71  1  0
 76 77  2  0
 77 78  1  0
 79 78  2  0
 80 79  1  0
 81 55  1  0
 81 86  1  0
 81 82  1  0
 82 85  1  1
 82 83  1  0
 84 82  1  0
 86 89  1  0
 87 91  1  0
 87 86  1  0
 88 87  2  0
 91 90  1  0
 93 91  1  0
 93 94  1  0
 93 92  1  0
M  ISO  4  15 100  23 100  53 101  54 101
M  END
>  <TORSDO>  (88) 
F 19

>  <SCORE>  (88) 
-14.760

>  <name>  (88) 
87

>  <ligand_id>  (88) 
87

>  <original_smiles>  (88) 
[H]c1c([H])c([H])c2c(c1[H])C([H])([H])C([H])([H])C([H])([H])C2([H])N([H])C(=O)C1([H])N(C(=O)C([H])(N([H])C(=O)C([H])(N([H])C([H])([H])[H])C([H])([H])[H])C(C([H])([H])[H])(C([H])([H])[H])C([H])([H])[H])C([H])([H])c2c([H])c(OC([H])([H])C3([H])C([H])([H])N(C([H])(C([H])([H])[H])C([H])([H])[H])C(=O)C([H])(C([H])([H])N([H])C(=O)N4C([H])([H])C([H])([H])C([H])([H])C([H])(n5nc(-c6c([H])c([H])c(Oc7c([H])c([H])c(F)c([H])c7F)c([H])c6[H])c(C(=O)N([H])[H])c5N([H])[H])C4([H])[H])[N+]([H])([H])C3([H])[H])c([H])c([H])c2C1([H])[H]

>  <smiles>  (88) 
[H]c1c([H])c([H])c2c(c1[H])C([H])([H])C([H])([H])C([H])([H])C2([H])N([H])C(=O)C1([H])N(C(=O)C([H])(N([H])C(=O)C([H])(N([H])C([H])([H])[H])C([H])([H])[H])C(C([H])([H])[H])(C([H])([H])[H])C([H])([H])[H])C([H])([H])c2c([H])c(OC([H])([H])C3([H])C([H])([H])N(C([H])(C([H])([H])[H])C([H])([H])[H])C(=O)C([H])(C([H])([H])N([H])C(=O)N4C([H])([H])C([H])([H])C([H])([H])C([H])(n5nc(-c6c([H])c([H])c(Oc7c([H])c([H])c(F)c([H])c7F)c([H])c6[H])c(C(=O)N([H])[H])c5N([H])[H])C4([H])[H])[N+]([H])([H])C3([H])[H])c([H])c([H])c2C1([H])[H]

$$$$
88:0:0
     RDKit          3D

 89 97  0  0  1  0  0  0  0  0999 V2000
  -28.1240  -20.6090   20.8480 C   0  0  0  0  0  2  0  0  0  0  0  0
  -29.4830  -21.1690   20.6050 C   0  0  0  0  0  3  0  0  0  0  0  0
  -29.0790  -19.7330   20.0480 C   0  0  0  0  0  3  0  0  0  0  0  0
  -27.7630  -17.5810   20.3830 C   0  0  0  0  0  1  0  0  0  0  0  0
  -29.1340  -18.2510   20.6250 C   0  0  0  0  0  3  0  0  0  0  0  0
  -31.6380  -17.7740   20.6560 C   0  0  0  0  0  1  0  0  0  0  0  0
  -30.2890  -17.2620   20.1220 C   0  0  0  0  0  3  0  0  0  0  0  0
  -30.7660  -14.6740   20.0090 C   0  0  0  0  0  0  0  0  0  0  0  0
  -30.4390  -12.4300   18.9880 C   0  0  0  0  0  2  0  0  0  0  0  0
  -29.4390  -12.5570   17.8190 C   0  0  0  0  0  2  0  0  0  0  0  0
  -27.9930  -12.4100   18.3300 C   0  0  0  0  0  2  0  0  0  0  0  0
  -27.7050  -13.2850   19.5790 C   0  0  0  0  0  3  0  0  0  0  0  0
  -28.8240  -13.1590   20.6380 C   0  0  0  0  0  2  0  0  0  0  0  0
  -30.1020  -13.4730   19.9820 N   0  0  0  0  0  0  0  0  0  0  0  0
  -31.8870  -14.7790   19.5070 O   0  0  0  0  0  0  0  0  0  0  0  0
  -30.0700  -15.7840   20.4190 N   0  0  0  0  0  0  0  0  0  0  0  0
  -29.1730  -15.5720   20.8290 H   0  0  0  0  0  0  0  0  0  0  0  0
  -25.3750  -13.8880   20.4810 C   0  0  0  0  0  0  0  0  0  0  0  0
  -24.3200  -13.1190   20.8880 C   0  0  0  0  0  0  0  0  0  0  0  0
  -24.7500  -11.7630   20.7650 C   0  0  0  0  0  0  0  0  0  0  0  0
  -26.3860  -13.0020   20.1390 N   0  0  0  0  0  0  0  0  0  0  0  0
  -26.0180  -11.7140   20.3700 N   0  0  0  0  0  0  0  0  0  0  0  0
  -24.0080  -10.5070   20.9470 C   0  0  0  0  0  0  0  0  0  0  0  0
  -24.4080   -9.5460   21.9020 C   0  0  0  0  0  3  0  0  0  0  0  0
  -23.6680   -8.3560   22.0710 C   0  0  0  0  0  3  0  0  0  0  0  0
  -22.5150   -8.1190   21.2860 C   0  0  0  0  0  0  0  0  0  0  0  0
  -22.1350   -9.0700   20.3210 C   0  0  0  0  0  3  0  0  0  0  0  0
  -22.8750  -10.2510   20.1500 C   0  0  0  0  0  3  0  0  0  0  0  0
  -21.7500   -6.9810   21.3630 O   0  0  0  0  0  0  0  0  0  0  0  0
  -21.5690   -6.3140   22.5480 C   0  0  0  0  0  0  0  0  0  0  0  0
  -20.9650   -6.9310   23.6650 C   0  0  0  0  0  3  0  0  0  0  0  0
  -20.7350   -6.1880   24.8420 C   0  0  0  0  0  3  0  0  0  0  0  0
  -21.1000   -4.8310   24.9000 C   0  0  0  0  0  0  0  0  0  0  0  0
  -21.6970   -4.2130   23.7860 C   0  0  0  0  0  3  0  0  0  0  0  0
  -21.9280   -4.9520   22.6130 C   0  0  0  0  0  0  0  0  0  0  0  0
  -22.4840   -4.3470   21.5360 F   0  0  0  0  0  0  0  0  0  0  0  0
  -20.8730   -4.1140   26.0250 F   0  0  0  0  0  0  0  0  0  0  0  0
  -22.9550  -13.6120   21.2720 C   0  0  0  0  0  0  0  0  0  0  0  0
  -22.2670  -12.8930   22.1520 N   0  0  0  0  0  0  0  0  0  0  0  0
  -22.5080  -14.6690   20.8280 O   0  0  0  0  0  0  0  0  0  0  0  0
  -22.6380  -12.0370   22.5350 H   0  0  0  0  0  0  0  0  0  0  0  0
  -21.3510  -13.2050   22.4450 H   0  0  0  0  0  0  0  0  0  0  0  0
  -25.5500  -15.2620   20.3500 N   0  0  0  0  0  0  0  0  0  0  0  0
  -24.8010  -15.9180   20.5440 H   0  0  0  0  0  0  0  0  0  0  0  0
  -26.3780  -15.7030   19.9740 H   0  0  0  0  0  0  0  0  0  0  0  0
  -29.5160  -22.5210   19.7920 C   0  0  0  0  0  2  0  0  0  0  0  0
  -29.3400  -23.9160   20.5540 C   0  0  0  0  0  3  0  0  0  0  0  0
  -28.6650  -25.1050   19.7350 C   0  0  0  0  0  3  0  0  0  0  0  0
  -28.6530  -26.4940   20.2690 O   0  0  0  0  0  0  0  0  0  0  0  0
  -24.6820  -31.7390   23.2240 C   0  0  0  0  0  0  0  0  0  0  0  0
  -27.5040  -27.3020   20.1670 C   0  0  0  0  0  0  0  0  0  0  0  0
  -23.5580  -30.3220   21.5430 C   0  0  0  0  0  3  0  0  0  0  0  0
  -25.0880  -28.8450   20.1250 C   0  0  0  0  0  0  0  0  0  0  0  0
  -26.0900  -30.7240   21.4190 C   0  0  0  0  0  2  0  0  0  0  0  0
  -26.2260  -29.3570   20.7580 C   0  0  0  0  0  0  0  0  0  0  0  0
  -27.4320  -28.5940   20.7770 C   0  0  0  0  0  3  0  0  0  0  0  0
  -26.3470  -26.8630   19.4800 C   0  0  0  0  0  3  0  0  0  0  0  0
  -25.1510  -27.6040   19.4760 C   0  0  0  0  0  3  0  0  0  0  0  0
  -23.8230  -29.6760   20.1580 C   0  0  0  0  0  2  0  0  0  0  0  0
  -24.7930  -30.9460   22.1190 N   0  0  0  0  0  0  0  0  0  0  0  0
  -23.5790  -31.9750   23.7380 O   0  0  0  0  0  0  0  0  0  0  0  0
  -22.9110  -29.2710   22.4760 C   0  0  0  0  0  0  0  0  0  0  0  0
  -21.5990  -29.0360   22.3050 N   0  0  0  0  0  0  0  0  0  0  0  0
  -23.5890  -28.6710   23.3140 O   0  0  0  0  0  0  0  0  0  0  0  0
  -21.1100  -29.5750   21.6030 H   0  0  0  0  0  0  0  0  0  0  0  0
  -18.2600  -27.7010   22.6930 C   0  0  0  0  0  0  0  0  0  0  0  0
  -20.7950  -28.0620   23.0440 C   0  0  0  0  0  3  0  0  0  0  0  0
  -20.9740  -26.6390   22.4640 C   0  0  0  0  0  2  0  0  0  0  0  0
  -19.9180  -26.2800   21.4160 C   0  0  0  0  0  2  0  0  0  0  0  0
  -18.5130  -26.3650   22.0160 C   0  0  0  0  0  2  0  0  0  0  0  0
  -19.3330  -28.5050   23.1620 C   0  0  0  0  0  0  0  0  0  0  0  0
  -19.0440  -29.7550   23.7530 C   0  0  0  0  0  3  0  0  0  0  0  0
  -17.7160  -30.2010   23.8830 C   0  0  0  0  0  3  0  0  0  0  0  0
  -16.6570  -29.3940   23.4300 C   0  0  0  0  0  3  0  0  0  0  0  0
  -16.9290  -28.1470   22.8410 C   0  0  0  0  0  3  0  0  0  0  0  0
  -25.9310  -32.4040   23.8800 C   0  0  0  0  0  3  0  0  0  0  0  0
  -25.5780  -33.7960   24.1960 N   0  0  0  0  0  0  0  0  0  0  0  0
  -25.8880  -34.8520   23.4310 C   0  0  0  0  0  0  0  0  0  0  0  0
  -26.5700  -34.7590   22.4060 O   0  0  0  0  0  0  0  0  0  0  0  0
  -24.9730  -33.9400   24.9900 H   0  0  0  0  0  0  0  0  0  0  0  0
  -24.1070  -36.5870   23.0530 C   0  0  0  0  0  1  0  0  0  0  0  0
  -25.3570  -36.2290   23.8720 C   0  0  0  0  0  3  0  0  0  0  0  0
  -27.4520  -37.1940   24.7150 C   0  0  0  0  0  1  0  0  0  0  0  0
  -26.3580  -37.3110   23.7530 N   0  0  0  0  0  0  0  0  0  0  0  0
  -25.9210  -38.2200   23.8810 H   0  0  0  0  0  0  0  0  0  0  0  0
  -26.4290  -31.6490   25.1730 C   0  0  1  0  0  0  0  0  0  0  0  0
  -25.3100  -31.3750   26.2040 C   0  0  0  0  0  1  0  0  0  0  0  0
  -27.0680  -30.2910   24.8020 C   0  0  0  0  0  1  0  0  0  0  0  0
  -27.5340  -32.4780   25.8700 C   0  0  0  0  0  1  0  0  0  0  0  0
  2 46  1  0
  2  1  1  0
  3  2  1  0
  3  5  1  0
  3  1  1  0
  5  4  1  0
  7 16  1  0
  7  5  1  0
  7  6  1  0
  8 16  1  0
  9 14  1  0
 10 11  1  0
 10  9  1  0
 12 11  1  0
 12 21  1  0
 12 13  1  0
 14  8  1  0
 14 13  1  0
 15  8  2  0
 16 17  1  0
 18 19  2  0
 19 38  1  0
 20 19  1  0
 20 23  1  0
 21 22  1  0
 21 18  1  0
 22 20  2  0
 23 24  1  0
 24 25  2  0
 26 29  1  0
 26 25  1  0
 27 26  2  0
 28 27  1  0
 28 23  2  0
 29 30  1  0
 30 35  2  0
 30 31  1  0
 31 32  2  0
 32 33  1  0
 33 37  1  0
 34 33  2  0
 35 34  1  0
 36 35  1  0
 38 39  1  0
 39 42  1  0
 39 41  1  0
 40 38  2  0
 43 18  1  0
 43 44  1  0
 45 43  1  0
 46 47  1  0
 48 49  1  0
 48 47  2  0
 50 61  2  0
 51 49  1  0
 51 56  1  0
 52 60  1  0
 52 62  1  0
 53 59  1  0
 53 55  1  0
 54 60  1  0
 55 56  2  0
 55 54  1  0
 57 51  2  0
 58 57  1  0
 58 53  2  0
 59 52  1  0
 60 50  1  0
 62 64  2  0
 63 62  1  0
 65 63  1  0
 66 75  2  0
 66 71  1  0
 67 63  1  0
 67 71  1  0
 68 67  1  0
 69 70  1  0
 69 68  1  0
 70 66  1  0
 71 72  2  0
 72 73  1  0
 74 73  2  0
 75 74  1  0
 76 50  1  0
 76 77  1  0
 76 86  1  0
 77 80  1  0
 78 82  1  0
 78 77  1  0
 79 78  2  0
 82 81  1  0
 84 82  1  0
 84 85  1  0
 84 83  1  0
 86 89  1  1
 86 87  1  0
 88 86  1  0
M  ISO  4   8 100  16 100  48 101  49 101
M  END
>  <TORSDO>  (89) 
F 21

>  <SCORE>  (89) 
-12.957

>  <name>  (89) 
88

>  <ligand_id>  (89) 
88

>  <original_smiles>  (89) 
[H]c1c([H])c([H])c2c(c1[H])C([H])([H])C([H])([H])C([H])([H])C2([H])N([H])C(=O)C1([H])N(C(=O)C([H])(N([H])C(=O)C([H])(N([H])C([H])([H])[H])C([H])([H])[H])C(C([H])([H])[H])(C([H])([H])[H])C([H])([H])[H])C([H])([H])c2c([H])c(OC([H])([H])C([H])([H])C([H])([H])C3([H])C([H])([H])C3([H])C([H])(C([H])([H])[H])C([H])(N([H])C(=O)N3C([H])([H])C([H])([H])C([H])([H])C([H])(n4nc(-c5c([H])c([H])c(Oc6c([H])c([H])c(F)c([H])c6F)c([H])c5[H])c(C(=O)N([H])[H])c4N([H])[H])C3([H])[H])C([H])([H])[H])c([H])c([H])c2C1([H])[H]

>  <smiles>  (89) 
[H]c1c([H])c([H])c2c(c1[H])C([H])([H])C([H])([H])C([H])([H])C2([H])N([H])C(=O)C1([H])N(C(=O)C([H])(N([H])C(=O)C([H])(N([H])C([H])([H])[H])C([H])([H])[H])C(C([H])([H])[H])(C([H])([H])[H])C([H])([H])[H])C([H])([H])c2c([H])c(OC([H])([H])C([H])([H])C([H])([H])C3([H])C([H])([H])C3([H])C([H])(C([H])([H])[H])C([H])(N([H])C(=O)N3C([H])([H])C([H])([H])C([H])([H])C([H])(n4nc(-c5c([H])c([H])c(Oc6c([H])c([H])c(F)c([H])c6F)c([H])c5[H])c(C(=O)N([H])[H])c4N([H])[H])C3([H])[H])C([H])([H])[H])c([H])c([H])c2C1([H])[H]

$$$$
89:0:0
     RDKit          3D

 91 99  0  0  1  0  0  0  0  0999 V2000
  -30.2260  -22.1120   20.6820 C   0  0  0  0  0  3  0  0  0  0  0  0
  -28.8820  -22.3680   20.2790 C   0  0  0  0  0  0  0  0  0  0  0  0
  -30.5090  -20.7620   20.6740 C   0  0  0  0  0  0  0  0  0  0  0  0
  -28.4260  -21.0840   19.9480 C   0  0  0  0  0  0  0  0  0  0  0  0
  -31.7810  -20.1130   21.1240 C   0  0  0  0  0  1  0  0  0  0  0  0
  -27.0800  -20.7050   19.4110 C   0  0  0  0  0  1  0  0  0  0  0  0
  -29.3900  -20.0570   20.2200 N   0  0  0  0  0  0  0  0  0  0  0  0
  -27.9170  -24.1040   21.8650 C   0  0  0  0  0  1  0  0  0  0  0  0
  -28.1110  -23.7780   20.3780 C   0  0  0  0  0  3  0  0  0  0  0  0
  -28.6290  -25.1010   19.6040 C   0  0  0  0  0  2  0  0  0  0  0  0
  -28.4710  -26.4990   20.1320 O   0  0  0  0  0  0  0  0  0  0  0  0
  -24.6700  -31.8410   23.1730 C   0  0  0  0  0  0  0  0  0  0  0  0
  -27.3210  -27.3090   20.0580 C   0  0  0  0  0  0  0  0  0  0  0  0
  -23.4790  -30.4620   21.5040 C   0  0  0  0  0  3  0  0  0  0  0  0
  -24.9420  -28.9250   20.0610 C   0  0  0  0  0  0  0  0  0  0  0  0
  -26.0170  -30.7840   21.3400 C   0  0  0  0  0  2  0  0  0  0  0  0
  -26.1040  -29.4120   20.6710 C   0  0  0  0  0  0  0  0  0  0  0  0
  -27.2890  -28.6130   20.6600 C   0  0  0  0  0  3  0  0  0  0  0  0
  -26.1340  -26.8720   19.4320 C   0  0  0  0  0  3  0  0  0  0  0  0
  -24.9610  -27.6630   19.4350 C   0  0  0  0  0  3  0  0  0  0  0  0
  -23.7050  -29.8030   20.1150 C   0  0  0  0  0  2  0  0  0  0  0  0
  -24.7410  -31.0470   22.0620 N   0  0  0  0  0  0  0  0  0  0  0  0
  -23.5830  -32.1050   23.7070 O   0  0  0  0  0  0  0  0  0  0  0  0
  -22.8140  -29.4300   22.4460 C   0  0  0  0  0  0  0  0  0  0  0  0
  -21.4860  -29.2680   22.3240 N   0  0  0  0  0  0  0  0  0  0  0  0
  -23.4920  -28.7830   23.2490 O   0  0  0  0  0  0  0  0  0  0  0  0
  -20.9980  -29.8370   21.6480 H   0  0  0  0  0  0  0  0  0  0  0  0
  -18.1030  -28.0990   22.8460 C   0  0  0  0  0  0  0  0  0  0  0  0
  -20.6680  -28.3200   23.0820 C   0  0  0  0  0  3  0  0  0  0  0  0
  -20.7400  -26.9050   22.4640 C   0  0  0  0  0  2  0  0  0  0  0  0
  -19.6220  -26.6270   21.4560 C   0  0  0  0  0  2  0  0  0  0  0  0
  -18.2520  -26.7690   22.1250 C   0  0  0  0  0  2  0  0  0  0  0  0
  -19.2370  -28.8330   23.2810 C   0  0  0  0  0  0  0  0  0  0  0  0
  -19.0430  -30.0790   23.9150 C   0  0  0  0  0  3  0  0  0  0  0  0
  -17.7480  -30.5920   24.1150 C   0  0  0  0  0  3  0  0  0  0  0  0
  -16.6280  -29.8550   23.6940 C   0  0  0  0  0  3  0  0  0  0  0  0
  -16.8060  -28.6090   23.0660 C   0  0  0  0  0  3  0  0  0  0  0  0
  -25.9460  -32.4690   23.8120 C   0  0  0  0  0  3  0  0  0  0  0  0
  -26.4520  -31.6870   25.0870 C   0  0  1  0  0  0  0  0  0  0  0  0
  -25.3510  -31.4380   26.1440 C   0  0  0  0  0  1  0  0  0  0  0  0
  -27.0370  -30.3150   24.6870 C   0  0  0  0  0  1  0  0  0  0  0  0
  -27.5970  -32.4750   25.7660 C   0  0  0  0  0  1  0  0  0  0  0  0
  -25.6310  -33.8640   24.1530 N   0  0  0  0  0  0  0  0  0  0  0  0
  -25.9670  -34.9270   23.4110 C   0  0  0  0  0  0  0  0  0  0  0  0
  -26.6440  -34.8340   22.3820 O   0  0  0  0  0  0  0  0  0  0  0  0
  -25.0310  -34.0080   24.9530 H   0  0  0  0  0  0  0  0  0  0  0  0
  -24.2420  -36.7230   23.0560 C   0  0  0  0  0  1  0  0  0  0  0  0
  -25.4740  -36.3110   23.8780 C   0  0  0  0  0  3  0  0  0  0  0  0
  -27.5970  -37.1870   24.7470 C   0  0  0  0  0  1  0  0  0  0  0  0
  -26.5070  -37.3650   23.7920 N   0  0  0  0  0  0  0  0  0  0  0  0
  -26.1010  -38.2860   23.9420 H   0  0  0  0  0  0  0  0  0  0  0  0
  -29.1750  -18.5300   20.0550 C   0  0  0  0  0  3  0  0  0  0  0  0
  -30.3020  -17.4040   20.3890 C   0  0  0  0  0  3  0  0  0  0  0  0
  -30.7010  -14.7990   20.1970 C   0  0  0  0  0  0  0  0  0  0  0  0
  -30.5140  -12.5290   19.1790 C   0  0  0  0  0  2  0  0  0  0  0  0
  -29.5600  -12.5970   17.9690 C   0  0  0  0  0  2  0  0  0  0  0  0
  -28.0950  -12.4220   18.4160 C   0  0  0  0  0  2  0  0  0  0  0  0
  -27.7310  -13.3070   19.6370 C   0  0  0  0  0  3  0  0  0  0  0  0
  -28.7980  -13.2130   20.7460 C   0  0  0  0  0  2  0  0  0  0  0  0
  -30.0860  -13.5710   20.1410 N   0  0  0  0  0  0  0  0  0  0  0  0
  -31.8800  -14.9160   19.8450 O   0  0  0  0  0  0  0  0  0  0  0  0
  -29.9210  -15.9190   20.4420 N   0  0  0  0  0  0  0  0  0  0  0  0
  -28.9700  -15.7150   20.7120 H   0  0  0  0  0  0  0  0  0  0  0  0
  -25.3460  -13.8970   20.3790 C   0  0  0  0  0  0  0  0  0  0  0  0
  -24.2850  -13.1220   20.7680 C   0  0  0  0  0  0  0  0  0  0  0  0
  -24.7530  -11.7710   20.7430 C   0  0  0  0  0  0  0  0  0  0  0  0
  -26.3920  -13.0190   20.1410 N   0  0  0  0  0  0  0  0  0  0  0  0
  -26.0420  -11.7370   20.4220 N   0  0  0  0  0  0  0  0  0  0  0  0
  -24.0350  -10.5060   20.9490 C   0  0  0  0  0  0  0  0  0  0  0  0
  -24.4700   -9.5530   21.8950 C   0  0  0  0  0  3  0  0  0  0  0  0
  -23.7500   -8.3550   22.0880 C   0  0  0  0  0  3  0  0  0  0  0  0
  -22.5800   -8.1020   21.3350 C   0  0  0  0  0  0  0  0  0  0  0  0
  -22.1630   -9.0440   20.3780 C   0  0  0  0  0  3  0  0  0  0  0  0
  -22.8850  -10.2330   20.1810 C   0  0  0  0  0  3  0  0  0  0  0  0
  -21.8320   -6.9540   21.4360 O   0  0  0  0  0  0  0  0  0  0  0  0
  -21.7800   -6.2300   22.6000 C   0  0  0  0  0  0  0  0  0  0  0  0
  -21.3320   -6.7980   23.8120 C   0  0  0  0  0  3  0  0  0  0  0  0
  -21.2230   -5.9980   24.9660 C   0  0  0  0  0  3  0  0  0  0  0  0
  -21.5570   -4.6310   24.9110 C   0  0  0  0  0  0  0  0  0  0  0  0
  -22.0040   -4.0640   23.7040 C   0  0  0  0  0  3  0  0  0  0  0  0
  -22.1110   -4.8600   22.5500 C   0  0  0  0  0  0  0  0  0  0  0  0
  -22.5190   -4.3050   21.3840 F   0  0  0  0  0  0  0  0  0  0  0  0
  -21.4480   -3.8600   26.0180 F   0  0  0  0  0  0  0  0  0  0  0  0
  -22.8900  -13.5990   21.0430 C   0  0  0  0  0  0  0  0  0  0  0  0
  -22.1660  -12.9050   21.9170 N   0  0  0  0  0  0  0  0  0  0  0  0
  -22.4460  -14.6200   20.5210 O   0  0  0  0  0  0  0  0  0  0  0  0
  -22.5370  -12.0790   22.3620 H   0  0  0  0  0  0  0  0  0  0  0  0
  -21.2280  -13.2080   22.1430 H   0  0  0  0  0  0  0  0  0  0  0  0
  -25.5040  -15.2640   20.1820 N   0  0  0  0  0  0  0  0  0  0  0  0
  -24.7290  -15.9140   20.2590 H   0  0  0  0  0  0  0  0  0  0  0  0
  -26.3310  -15.6870   19.7770 H   0  0  0  0  0  0  0  0  0  0  0  0
  2  9  1  0
  2  1  1  0
  3  1  2  0
  3  5  1  0
  4  7  1  0
  4  2  2  0
  6  4  1  0
  7  3  1  0
  9  8  1  0
 10 11  1  0
 10  9  1  0
 12 23  2  0
 13 11  1  0
 13 18  1  0
 14 22  1  0
 14 24  1  0
 15 21  1  0
 15 17  1  0
 16 22  1  0
 17 16  1  0
 18 17  2  0
 19 20  1  0
 19 13  2  0
 20 15  2  0
 21 14  1  0
 22 12  1  0
 24 26  2  0
 25 24  1  0
 27 25  1  0
 28 37  2  0
 28 33  1  0
 29 25  1  0
 29 33  1  0
 30 29  1  0
 31 32  1  0
 31 30  1  0
 32 28  1  0
 33 34  2  0
 34 35  1  0
 36 35  2  0
 37 36  1  0
 38 12  1  0
 38 43  1  0
 38 39  1  0
 39 42  1  1
 39 40  1  0
 41 39  1  0
 43 46  1  0
 44 48  1  0
 44 43  1  0
 45 44  2  0
 48 47  1  0
 50 48  1  0
 50 51  1  0
 50 49  1  0
 52  7  1  0
 52 53  2  0
 53 62  1  0
 54 62  1  0
 55 60  1  0
 56 57  1  0
 56 55  1  0
 58 57  1  0
 58 67  1  0
 58 59  1  0
 60 54  1  0
 60 59  1  0
 61 54  2  0
 62 63  1  0
 64 65  2  0
 65 84  1  0
 66 65  1  0
 66 69  1  0
 67 64  1  0
 67 68  1  0
 68 66  2  0
 69 70  1  0
 70 71  2  0
 72 75  1  0
 72 71  1  0
 73 72  2  0
 74 73  1  0
 74 69  2  0
 75 76  1  0
 76 77  1  0
 77 78  2  0
 79 78  1  0
 79 83  1  0
 80 79  2  0
 81 76  2  0
 81 80  1  0
 82 81  1  0
 84 85  1  0
 85 88  1  0
 85 87  1  0
 86 84  2  0
 89 90  1  0
 89 64  1  0
 91 89  1  0
M  ISO  4  10 101  11 101  54 100  62 100
M  END
>  <TORSDO>  (90) 
F 20

>  <SCORE>  (90) 
-13.618

>  <name>  (90) 
89

>  <ligand_id>  (90) 
89

>  <original_smiles>  (90) 
[H]c1c([H])c([H])c2c(c1[H])C([H])([H])C([H])([H])C([H])([H])C2([H])N([H])C(=O)C1([H])N(C(=O)C([H])(N([H])C(=O)C([H])(N([H])C([H])([H])[H])C([H])([H])[H])C(C([H])([H])[H])(C([H])([H])[H])C([H])([H])[H])C([H])([H])c2c([H])c(OC([H])([H])C([H])(c3c([H])c(C([H])([H])[H])n(C([H])([H])C([H])([H])N([H])C(=O)N4C([H])([H])C([H])([H])C([H])([H])C([H])(n5nc(-c6c([H])c([H])c(Oc7c([H])c([H])c(F)c([H])c7F)c([H])c6[H])c(C(=O)N([H])[H])c5N([H])[H])C4([H])[H])c3C([H])([H])[H])C([H])([H])[H])c([H])c([H])c2C1([H])[H]

>  <smiles>  (90) 
[H]c1c([H])c([H])c2c(c1[H])C([H])([H])C([H])([H])C([H])([H])C2([H])N([H])C(=O)C1([H])N(C(=O)C([H])(N([H])C(=O)C([H])(N([H])C([H])([H])[H])C([H])([H])[H])C(C([H])([H])[H])(C([H])([H])[H])C([H])([H])[H])C([H])([H])c2c([H])c(OC([H])([H])C([H])(c3c([H])c(C([H])([H])[H])n(C([H])([H])C([H])([H])N([H])C(=O)N4C([H])([H])C([H])([H])C([H])([H])C([H])(n5nc(-c6c([H])c([H])c(Oc7c([H])c([H])c(F)c([H])c7F)c([H])c6[H])c(C(=O)N([H])[H])c5N([H])[H])C4([H])[H])c3C([H])([H])[H])C([H])([H])[H])c([H])c([H])c2C1([H])[H]

$$$$
91:0:0
     RDKit          3D

 90 98  0  0  1  0  0  0  0  0999 V2000
  -28.5160  -20.8760   20.0240 C   0  0  0  0  0  3  0  0  0  0  0  0
  -29.3550  -19.6350   20.3820 C   0  0  0  0  0  0  0  0  0  0  0  0
  -28.7370  -22.3390   20.4690 C   0  0  0  0  0  0  0  0  0  0  0  0
  -30.6060  -21.3280   21.5050 C   0  0  0  0  0  0  0  0  0  0  0  0
  -30.3830  -20.0340   21.1690 N   0  0  0  0  0  0  0  0  0  0  0  0
  -29.8650  -22.4260   21.2250 N   0  0  0  0  0  0  0  0  0  0  0  0
  -32.0070  -21.8300   23.6800 C   0  0  0  0  0  1  0  0  0  0  0  0
  -31.9740  -21.5640   22.1600 C   0  0  0  0  0  2  0  0  0  0  0  0
  -26.5680  -23.6020   21.2040 C   0  0  0  0  0  1  0  0  0  0  0  0
  -27.7770  -23.8300   20.2770 C   0  0  0  0  0  3  0  0  0  0  0  0
  -28.0890  -25.4720   20.4620 O   0  0  0  0  0  0  0  0  0  0  0  0
  -24.6450  -31.6340   23.2870 C   0  0  0  0  0  0  0  0  0  0  0  0
  -27.1280  -26.6330   20.3440 C   0  0  0  0  0  0  0  0  0  0  0  0
  -23.4620  -30.2830   21.6080 C   0  0  0  0  0  3  0  0  0  0  0  0
  -24.9020  -28.6260   20.2320 C   0  0  0  0  0  0  0  0  0  0  0  0
  -26.0380  -30.3910   21.5590 C   0  0  0  0  0  2  0  0  0  0  0  0
  -26.0810  -28.9780   20.8980 C   0  0  0  0  0  0  0  0  0  0  0  0
  -27.1830  -28.0000   20.9300 C   0  0  0  0  0  3  0  0  0  0  0  0
  -25.9310  -26.4650   19.6020 C   0  0  0  0  0  3  0  0  0  0  0  0
  -24.8570  -27.3950   19.5610 C   0  0  0  0  0  3  0  0  0  0  0  0
  -23.7150  -29.5930   20.2400 C   0  0  0  0  0  2  0  0  0  0  0  0
  -24.7360  -30.7980   22.2030 N   0  0  0  0  0  0  0  0  0  0  0  0
  -23.5510  -31.9610   23.7700 O   0  0  0  0  0  0  0  0  0  0  0  0
  -22.7000  -29.3120   22.5490 C   0  0  0  0  0  0  0  0  0  0  0  0
  -21.3680  -29.2040   22.3910 N   0  0  0  0  0  0  0  0  0  0  0  0
  -23.3150  -28.6580   23.3960 O   0  0  0  0  0  0  0  0  0  0  0  0
  -20.9260  -29.7780   21.6850 H   0  0  0  0  0  0  0  0  0  0  0  0
  -17.9190  -28.1780   22.8530 C   0  0  0  0  0  0  0  0  0  0  0  0
  -20.4870  -28.3010   23.1390 C   0  0  0  0  0  3  0  0  0  0  0  0
  -20.5160  -26.8760   22.5350 C   0  0  0  0  0  2  0  0  0  0  0  0
  -19.4070  -26.6330   21.5070 C   0  0  0  0  0  2  0  0  0  0  0  0
  -18.0300  -26.8370   22.1450 C   0  0  0  0  0  2  0  0  0  0  0  0
  -19.0730  -28.8690   23.3050 C   0  0  0  0  0  0  0  0  0  0  0  0
  -18.9110  -30.1250   23.9310 C   0  0  0  0  0  3  0  0  0  0  0  0
  -17.6300  -30.6860   24.1040 C   0  0  0  0  0  3  0  0  0  0  0  0
  -16.4920  -29.9900   23.6660 C   0  0  0  0  0  3  0  0  0  0  0  0
  -16.6360  -28.7350   23.0470 C   0  0  0  0  0  3  0  0  0  0  0  0
  -25.9160  -32.2340   23.9620 C   0  0  0  0  0  3  0  0  0  0  0  0
  -26.3330  -31.4740   25.2820 C   0  0  1  0  0  0  0  0  0  0  0  0
  -25.1790  -31.3000   26.2970 C   0  0  0  0  0  1  0  0  0  0  0  0
  -26.8800  -30.0670   24.9580 C   0  0  0  0  0  1  0  0  0  0  0  0
  -27.4850  -32.2340   25.9820 C   0  0  0  0  0  1  0  0  0  0  0  0
  -25.6480  -33.6520   24.2640 N   0  0  0  0  0  0  0  0  0  0  0  0
  -26.0220  -34.6860   23.4950 C   0  0  0  0  0  0  0  0  0  0  0  0
  -26.6930  -34.5400   22.4700 O   0  0  0  0  0  0  0  0  0  0  0  0
  -25.0540  -33.8390   25.0590 H   0  0  0  0  0  0  0  0  0  0  0  0
  -24.3480  -36.5290   23.1360 C   0  0  0  0  0  1  0  0  0  0  0  0
  -25.5900  -36.0990   23.9350 C   0  0  0  0  0  3  0  0  0  0  0  0
  -27.7590  -36.9410   24.7200 C   0  0  0  0  0  1  0  0  0  0  0  0
  -26.6540  -37.1170   23.7810 N   0  0  0  0  0  0  0  0  0  0  0  0
  -26.2790  -38.0530   23.9070 H   0  0  0  0  0  0  0  0  0  0  0  0
  -29.5650  -17.9930   19.7260 C   0  0  0  0  0  2  0  0  0  0  0  0
  -30.2420  -15.0700   19.8850 C   0  0  0  0  0  0  0  0  0  0  0  0
  -30.1230  -12.6470   18.9110 C   0  0  0  0  0  2  0  0  0  0  0  0
  -29.1010  -12.4840   17.7570 C   0  0  0  0  0  2  0  0  0  0  0  0
  -27.7090  -12.1510   18.3110 C   0  0  0  0  0  2  0  0  0  0  0  0
  -27.3530  -13.0540   19.5170 C   0  0  0  0  0  3  0  0  0  0  0  0
  -28.5000  -13.1940   20.5500 C   0  0  0  0  0  2  0  0  0  0  0  0
  -29.6600  -13.7560   19.8370 N   0  0  0  0  0  0  0  0  0  0  0  0
  -31.4130  -15.0600   19.4780 O   0  0  0  0  0  0  0  0  0  0  0  0
  -29.5380  -16.3630   20.1820 N   0  0  0  0  0  0  0  0  0  0  0  0
  -28.6360  -16.1680   20.5860 H   0  0  0  0  0  0  0  0  0  0  0  0
  -25.0370  -13.5410   20.4670 C   0  0  0  0  0  0  0  0  0  0  0  0
  -24.0290  -12.7360   20.9150 C   0  0  0  0  0  0  0  0  0  0  0  0
  -24.5240  -11.3970   20.8350 C   0  0  0  0  0  0  0  0  0  0  0  0
  -26.0780  -12.6950   20.1300 N   0  0  0  0  0  0  0  0  0  0  0  0
  -25.7880  -11.3990   20.4250 N   0  0  0  0  0  0  0  0  0  0  0  0
  -23.8470  -10.1160   21.0690 C   0  0  0  0  0  0  0  0  0  0  0  0
  -24.3080   -9.1940   22.0350 C   0  0  0  0  0  3  0  0  0  0  0  0
  -23.6180   -7.9830   22.2590 C   0  0  0  0  0  3  0  0  0  0  0  0
  -22.4540   -7.6800   21.5120 C   0  0  0  0  0  0  0  0  0  0  0  0
  -22.0100   -8.5910   20.5370 C   0  0  0  0  0  3  0  0  0  0  0  0
  -22.7020   -9.7930   20.3120 C   0  0  0  0  0  3  0  0  0  0  0  0
  -21.7320   -6.5180   21.6430 O   0  0  0  0  0  0  0  0  0  0  0  0
  -21.6410   -5.8580   22.8420 C   0  0  0  0  0  0  0  0  0  0  0  0
  -21.0960   -6.4720   23.9910 C   0  0  0  0  0  3  0  0  0  0  0  0
  -20.9540   -5.7340   25.1830 C   0  0  0  0  0  3  0  0  0  0  0  0
  -21.3510   -4.3840   25.2280 C   0  0  0  0  0  0  0  0  0  0  0  0
  -21.8890   -3.7710   24.0830 C   0  0  0  0  0  3  0  0  0  0  0  0
  -22.0340   -4.5050   22.8930 C   0  0  0  0  0  0  0  0  0  0  0  0
  -22.5330   -3.9030   21.7860 F   0  0  0  0  0  0  0  0  0  0  0  0
  -21.2100   -3.6730   26.3710 F   0  0  0  0  0  0  0  0  0  0  0  0
  -22.6440  -13.1770   21.2880 C   0  0  0  0  0  0  0  0  0  0  0  0
  -22.0010  -12.4650   22.2030 N   0  0  0  0  0  0  0  0  0  0  0  0
  -22.1460  -14.1960   20.8110 O   0  0  0  0  0  0  0  0  0  0  0  0
  -22.4220  -11.6440   22.6100 H   0  0  0  0  0  0  0  0  0  0  0  0
  -21.0780  -12.7440   22.5010 H   0  0  0  0  0  0  0  0  0  0  0  0
  -25.1430  -14.9180   20.2830 N   0  0  0  0  0  0  0  0  0  0  0  0
  -24.3370  -15.5220   20.4080 H   0  0  0  0  0  0  0  0  0  0  0  0
  -25.9160  -15.3790   19.8200 H   0  0  0  0  0  0  0  0  0  0  0  0
  1  2  2  0
  1  3  1  0
  2  5  1  0
  3  6  2  0
  4  8  1  0
  5  4  2  0
  6  4  1  0
  8  7  1  0
 10 11  1  0
 10  3  1  0
 10  9  1  0
 12 23  2  0
 13 11  1  0
 13 18  1  0
 14 22  1  0
 14 24  1  0
 15 21  1  0
 15 17  1  0
 16 22  1  0
 17 18  2  0
 17 16  1  0
 19 13  2  0
 20 19  1  0
 20 15  2  0
 21 14  1  0
 22 12  1  0
 24 26  2  0
 25 24  1  0
 27 25  1  0
 28 37  2  0
 28 33  1  0
 29 25  1  0
 29 33  1  0
 30 29  1  0
 31 32  1  0
 31 30  1  0
 32 28  1  0
 33 34  2  0
 34 35  1  0
 36 35  2  0
 37 36  1  0
 38 12  1  0
 38 43  1  0
 38 39  1  0
 39 42  1  1
 39 40  1  0
 41 39  1  0
 43 46  1  0
 44 48  1  0
 44 43  1  0
 45 44  2  0
 48 47  1  0
 50 51  1  0
 50 48  1  0
 50 49  1  0
 52 61  1  0
 52  2  1  0
 53 61  1  0
 54 59  1  0
 55 56  1  0
 55 54  1  0
 57 56  1  0
 57 66  1  0
 57 58  1  0
 59 53  1  0
 59 58  1  0
 60 53  2  0
 61 62  1  0
 63 64  2  0
 64 83  1  0
 65 64  1  0
 65 68  1  0
 66 67  1  0
 66 63  1  0
 67 65  2  0
 68 69  1  0
 69 70  2  0
 71 74  1  0
 71 70  1  0
 72 71  2  0
 73 72  1  0
 73 68  2  0
 74 75  1  0
 75 80  2  0
 75 76  1  0
 76 77  2  0
 77 78  1  0
 78 82  1  0
 79 78  2  0
 80 79  1  0
 81 80  1  0
 83 84  1  0
 84 87  1  0
 84 86  1  0
 85 83  2  0
 88 89  1  0
 88 63  1  0
 90 88  1  0
M  ISO  4  10 101  11 101  53 100  61 100
M  END
>  <TORSDO>  (91) 
F 19

>  <SCORE>  (91) 
-14.597

>  <name>  (91) 
91

>  <ligand_id>  (91) 
91

>  <original_smiles>  (91) 
[H]c1c(C([H])([H])N([H])C(=O)N2C([H])([H])C([H])([H])C([H])([H])C([H])(n3nc(-c4c([H])c([H])c(Oc5c([H])c([H])c(F)c([H])c5F)c([H])c4[H])c(C(=O)N([H])[H])c3N([H])[H])C2([H])[H])nc(C([H])([H])C([H])([H])[H])nc1C([H])(Oc1c([H])c([H])c2c(c1[H])C([H])([H])N(C(=O)C([H])(N([H])C(=O)C([H])(N([H])C([H])([H])[H])C([H])([H])[H])C(C([H])([H])[H])(C([H])([H])[H])C([H])([H])[H])C([H])(C(=O)N([H])C1([H])c3c([H])c([H])c([H])c([H])c3C([H])([H])C([H])([H])C1([H])[H])C2([H])[H])C([H])([H])[H]

>  <smiles>  (91) 
[H]c1c(C([H])([H])N([H])C(=O)N2C([H])([H])C([H])([H])C([H])([H])C([H])(n3nc(-c4c([H])c([H])c(Oc5c([H])c([H])c(F)c([H])c5F)c([H])c4[H])c(C(=O)N([H])[H])c3N([H])[H])C2([H])[H])nc(C([H])([H])C([H])([H])[H])nc1C([H])(Oc1c([H])c([H])c2c(c1[H])C([H])([H])N(C(=O)C([H])(N([H])C(=O)C([H])(N([H])C([H])([H])[H])C([H])([H])[H])C(C([H])([H])[H])(C([H])([H])[H])C([H])([H])[H])C([H])(C(=O)N([H])C1([H])c3c([H])c([H])c([H])c([H])c3C([H])([H])C([H])([H])C1([H])[H])C2([H])[H])C([H])([H])[H]

$$$$
92:0:0
     RDKit          3D

 96103  0  0  1  0  0  0  0  0999 V2000
  -30.0740  -22.8480   20.9420 N   0  0  0  0  0  0  0  0  0  0  0  0
  -30.9020  -22.9800   21.5170 H   0  0  0  0  0  0  0  0  0  0  0  0
  -30.3220  -21.8290   19.9220 C   0  0  0  0  0  2  0  0  0  0  0  0
  -29.5920  -20.4930   20.2210 C   0  0  0  0  0  2  0  0  0  0  0  0
  -30.5020  -19.3630   20.5520 N   0  0  0  0  0  4  0  0  0  0  0  0
  -30.7240  -19.4310   21.5350 H   0  0  0  0  0  0  0  0  0  0  0  0
  -31.3650  -19.5030   20.0530 H   0  0  0  0  0  0  0  0  0  0  0  0
  -28.5270  -17.8080   20.6930 C   0  0  0  0  0  1  0  0  0  0  0  0
  -30.1040  -17.7250   18.7160 C   0  0  0  0  0  1  0  0  0  0  0  0
  -30.0040  -17.9820   20.2410 C   0  0  1  0  0  0  0  0  0  0  0  0
  -30.8940  -16.9320   20.9820 C   0  0  0  0  0  2  0  0  0  0  0  0
  -31.0380  -14.5110   20.3320 C   0  0  0  0  0  0  0  0  0  0  0  0
  -30.7100  -12.3210   19.2490 C   0  0  0  0  0  2  0  0  0  0  0  0
  -29.7850  -12.4990   18.0300 C   0  0  0  0  0  2  0  0  0  0  0  0
  -28.3070  -12.3730   18.4440 C   0  0  0  0  0  2  0  0  0  0  0  0
  -27.9570  -13.2650   19.6670 C   0  0  0  0  0  3  0  0  0  0  0  0
  -28.9970  -13.0970   20.8000 C   0  0  0  0  0  2  0  0  0  0  0  0
  -30.3370  -13.3480   20.2370 N   0  0  0  0  0  0  0  0  0  0  0  0
  -32.1580  -14.6580   19.8340 O   0  0  0  0  0  0  0  0  0  0  0  0
  -30.3910  -15.5460   20.8940 N   0  0  0  0  0  0  0  0  0  0  0  0
  -29.4570  -15.3720   21.2370 H   0  0  0  0  0  0  0  0  0  0  0  0
  -25.5780  -13.9260   20.3960 C   0  0  0  0  0  0  0  0  0  0  0  0
  -24.4910  -13.1800   20.7630 C   0  0  0  0  0  0  0  0  0  0  0  0
  -24.9140  -11.8180   20.7140 C   0  0  0  0  0  0  0  0  0  0  0  0
  -26.5980  -13.0190   20.1460 N   0  0  0  0  0  0  0  0  0  0  0  0
  -26.2010  -11.7450   20.3940 N   0  0  0  0  0  0  0  0  0  0  0  0
  -24.1540  -10.5760   20.9000 C   0  0  0  0  0  0  0  0  0  0  0  0
  -24.5480   -9.6000   21.8440 C   0  0  0  0  0  3  0  0  0  0  0  0
  -23.7880   -8.4230   22.0140 C   0  0  0  0  0  3  0  0  0  0  0  0
  -22.6220   -8.2110   21.2420 C   0  0  0  0  0  0  0  0  0  0  0  0
  -22.2430   -9.1750   20.2890 C   0  0  0  0  0  3  0  0  0  0  0  0
  -23.0040  -10.3440   20.1170 C   0  0  0  0  0  3  0  0  0  0  0  0
  -21.8420   -7.0840   21.3180 O   0  0  0  0  0  0  0  0  0  0  0  0
  -21.7390   -6.3530   22.4770 C   0  0  0  0  0  0  0  0  0  0  0  0
  -21.2790   -6.9270   23.6820 C   0  0  0  0  0  3  0  0  0  0  0  0
  -21.1220   -6.1240   24.8290 C   0  0  0  0  0  3  0  0  0  0  0  0
  -21.4190   -4.7500   24.7730 C   0  0  0  0  0  0  0  0  0  0  0  0
  -21.8740   -4.1760   23.5730 C   0  0  0  0  0  3  0  0  0  0  0  0
  -22.0310   -4.9760   22.4290 C   0  0  0  0  0  0  0  0  0  0  0  0
  -22.4500   -4.4120   21.2690 F   0  0  0  0  0  0  0  0  0  0  0  0
  -21.2610   -3.9770   25.8730 F   0  0  0  0  0  0  0  0  0  0  0  0
  -23.1120  -13.6990   21.0510 C   0  0  0  0  0  0  0  0  0  0  0  0
  -22.3660  -13.0260   21.9190 N   0  0  0  0  0  0  0  0  0  0  0  0
  -22.7000  -14.7420   20.5390 O   0  0  0  0  0  0  0  0  0  0  0  0
  -22.7090  -12.1910   22.3690 H   0  0  0  0  0  0  0  0  0  0  0  0
  -21.4410  -13.3650   22.1460 H   0  0  0  0  0  0  0  0  0  0  0  0
  -25.7710  -15.2920   20.2400 N   0  0  0  0  0  0  0  0  0  0  0  0
  -25.0050  -15.9450   20.3630 H   0  0  0  0  0  0  0  0  0  0  0  0
  -26.6070  -15.7270   19.8740 H   0  0  0  0  0  0  0  0  0  0  0  0
  -29.7070  -24.1410   20.3350 C   0  0  0  0  0  2  0  0  0  0  0  0
  -28.7640  -25.0370   22.5120 C   0  0  0  0  0  1  0  0  0  0  0  0
  -31.1830  -25.3780   21.9570 C   0  0  0  0  0  1  0  0  0  0  0  0
  -29.7560  -25.3170   21.3600 C   0  0  1  0  0  0  0  0  0  0  0  0
  -30.3590  -27.3030   19.7110 C   0  0  0  0  0  1  0  0  0  0  0  0
  -29.3630  -26.7100   20.7240 C   0  0  0  0  0  3  0  0  0  0  0  0
  -28.1510  -26.5760   19.9830 O   0  0  0  0  0  0  0  0  0  0  0  0
  -24.5600  -31.9310   23.1930 C   0  0  0  0  0  0  0  0  0  0  0  0
  -27.0840  -27.4460   20.0800 C   0  0  0  0  0  0  0  0  0  0  0  0
  -23.3000  -30.5420   21.5820 C   0  0  0  0  0  3  0  0  0  0  0  0
  -24.7070  -28.9880   20.1310 C   0  0  0  0  0  0  0  0  0  0  0  0
  -25.8250  -30.8720   21.3250 C   0  0  0  0  0  2  0  0  0  0  0  0
  -25.8860  -29.4950   20.6950 C   0  0  0  0  0  0  0  0  0  0  0  0
  -27.0790  -28.7330   20.6750 C   0  0  0  0  0  3  0  0  0  0  0  0
  -25.8900  -26.9640   19.5050 C   0  0  0  0  0  3  0  0  0  0  0  0
  -24.7030  -27.7180   19.5310 C   0  0  0  0  0  3  0  0  0  0  0  0
  -23.4750  -29.8610   20.1990 C   0  0  0  0  0  2  0  0  0  0  0  0
  -24.5820  -31.1300   22.0920 N   0  0  0  0  0  0  0  0  0  0  0  0
  -23.4950  -32.2190   23.7580 O   0  0  0  0  0  0  0  0  0  0  0  0
  -22.6590  -29.5290   22.5590 C   0  0  0  0  0  0  0  0  0  0  0  0
  -21.3310  -29.3530   22.4520 N   0  0  0  0  0  0  0  0  0  0  0  0
  -23.3500  -28.9060   23.3680 O   0  0  0  0  0  0  0  0  0  0  0  0
  -20.8340  -29.9100   21.7700 H   0  0  0  0  0  0  0  0  0  0  0  0
  -17.9590  -28.1720   22.9970 C   0  0  0  0  0  0  0  0  0  0  0  0
  -20.5200  -28.4260   23.2400 C   0  0  0  0  0  3  0  0  0  0  0  0
  -20.6130  -26.9880   22.6770 C   0  0  0  0  0  2  0  0  0  0  0  0
  -19.4990  -26.6580   21.6780 C   0  0  0  0  0  2  0  0  0  0  0  0
  -18.1250  -26.8130   22.3350 C   0  0  0  0  0  2  0  0  0  0  0  0
  -19.0830  -28.9340   23.4070 C   0  0  0  0  0  0  0  0  0  0  0  0
  -18.8750  -30.2060   23.9850 C   0  0  0  0  0  3  0  0  0  0  0  0
  -17.5720  -30.7120   24.1600 C   0  0  0  0  0  3  0  0  0  0  0  0
  -16.4620  -29.9450   23.7660 C   0  0  0  0  0  3  0  0  0  0  0  0
  -16.6550  -28.6770   23.1890 C   0  0  0  0  0  3  0  0  0  0  0  0
  -25.8680  -32.5470   23.7810 C   0  0  0  0  0  3  0  0  0  0  0  0
  -25.5770  -33.9410   24.1430 N   0  0  0  0  0  0  0  0  0  0  0  0
  -25.9100  -35.0040   23.4000 C   0  0  0  0  0  0  0  0  0  0  0  0
  -26.5680  -34.9150   22.3580 O   0  0  0  0  0  0  0  0  0  0  0  0
  -24.9920  -34.0840   24.9520 H   0  0  0  0  0  0  0  0  0  0  0  0
  -24.2040  -36.8250   23.0890 C   0  0  0  0  0  1  0  0  0  0  0  0
  -25.4400  -36.3870   23.8900 C   0  0  0  0  0  3  0  0  0  0  0  0
  -27.5870  -37.2240   24.7400 C   0  0  0  0  0  1  0  0  0  0  0  0
  -26.4850  -37.4300   23.8020 N   0  0  0  0  0  0  0  0  0  0  0  0
  -26.0900  -38.3500   23.9740 H   0  0  0  0  0  0  0  0  0  0  0  0
  -26.4270  -31.7490   25.0220 C   0  0  1  0  0  0  0  0  0  0  0  0
  -25.3720  -31.4940   26.1220 C   0  0  0  0  0  1  0  0  0  0  0  0
  -26.9900  -30.3780   24.5780 C   0  0  0  0  0  1  0  0  0  0  0  0
  -27.6010  -32.5290   25.6590 C   0  0  0  0  0  1  0  0  0  0  0  0
  1  2  1  0
  3  4  1  0
  3  1  1  0
  4  5  1  0
  5  6  1  0
  7  5  1  0
 10  9  1  6
 10  5  1  0
 10  8  1  0
 10 11  1  0
 12 20  1  0
 13 18  1  0
 14 15  1  0
 14 13  1  0
 16 15  1  0
 16 25  1  0
 16 17  1  0
 18 12  1  0
 18 17  1  0
 19 12  2  0
 20 11  1  0
 20 21  1  0
 22 23  2  0
 23 42  1  0
 24 23  1  0
 24 27  1  0
 25 26  1  0
 25 22  1  0
 26 24  2  0
 27 28  1  0
 28 29  2  0
 30 33  1  0
 30 29  1  0
 31 30  2  0
 32 31  1  0
 32 27  2  0
 33 34  1  0
 34 35  1  0
 35 36  2  0
 37 36  1  0
 37 41  1  0
 38 37  2  0
 39 34  2  0
 39 38  1  0
 40 39  1  0
 42 43  1  0
 43 46  1  0
 43 45  1  0
 44 42  2  0
 47 48  1  0
 47 22  1  0
 49 47  1  0
 50  1  1  0
 50 53  1  0
 53 52  1  1
 53 51  1  0
 55 54  1  0
 55 53  1  0
 56 58  1  0
 56 55  1  0
 57 68  2  0
 58 63  1  0
 59 67  1  0
 59 69  1  0
 60 66  1  0
 60 62  1  0
 61 67  1  0
 62 61  1  0
 63 62  2  0
 64 65  1  0
 64 58  2  0
 65 60  2  0
 66 59  1  0
 67 57  1  0
 69 71  2  0
 70 69  1  0
 72 70  1  0
 73 82  2  0
 73 78  1  0
 74 70  1  0
 74 78  1  0
 75 74  1  0
 76 77  1  0
 76 75  1  0
 77 73  1  0
 78 79  2  0
 79 80  1  0
 81 80  2  0
 82 81  1  0
 83 57  1  0
 83 84  1  0
 83 93  1  0
 84 87  1  0
 85 89  1  0
 85 84  1  0
 86 85  2  0
 89 88  1  0
 91 89  1  0
 91 92  1  0
 91 90  1  0
 93 96  1  1
 93 94  1  0
 95 93  1  0
M  ISO  4  12 100  20 100  55 101  56 101
M  END
>  <TORSDO>  (92) 
F 24

>  <SCORE>  (92) 
-12.005

>  <name>  (92) 
92

>  <ligand_id>  (92) 
92

>  <original_smiles>  (92) 
[H]c1c([H])c([H])c2c(c1[H])C([H])([H])C([H])([H])C([H])([H])C2([H])N([H])C(=O)C1([H])N(C(=O)C([H])(N([H])C(=O)C([H])(N([H])C([H])([H])[H])C([H])([H])[H])C(C([H])([H])[H])(C([H])([H])[H])C([H])([H])[H])C([H])([H])c2c([H])c(OC([H])(C([H])([H])[H])C(C([H])([H])[H])(C([H])([H])[H])C([H])([H])N([H])C([H])([H])C([H])([H])[N+]([H])([H])C(C([H])([H])[H])(C([H])([H])[H])C([H])([H])N([H])C(=O)N3C([H])([H])C([H])([H])C([H])([H])C([H])(n4nc(-c5c([H])c([H])c(Oc6c([H])c([H])c(F)c([H])c6F)c([H])c5[H])c(C(=O)N([H])[H])c4N([H])[H])C3([H])[H])c([H])c([H])c2C1([H])[H]

>  <smiles>  (92) 
[H]c1c([H])c([H])c2c(c1[H])C([H])([H])C([H])([H])C([H])([H])C2([H])N([H])C(=O)C1([H])N(C(=O)C([H])(N([H])C(=O)C([H])(N([H])C([H])([H])[H])C([H])([H])[H])C(C([H])([H])[H])(C([H])([H])[H])C([H])([H])[H])C([H])([H])c2c([H])c(OC([H])(C([H])([H])[H])C(C([H])([H])[H])(C([H])([H])[H])C([H])([H])N([H])C([H])([H])C([H])([H])[N+]([H])([H])C(C([H])([H])[H])(C([H])([H])[H])C([H])([H])N([H])C(=O)N3C([H])([H])C([H])([H])C([H])([H])C([H])(n4nc(-c5c([H])c([H])c(Oc6c([H])c([H])c(F)c([H])c6F)c([H])c5[H])c(C(=O)N([H])[H])c4N([H])[H])C3([H])[H])c([H])c([H])c2C1([H])[H]

$$$$
93:0:0
     RDKit          3D

 95103  0  0  1  0  0  0  0  0999 V2000
  -30.0310  -22.3160   21.5540 C   0  0  0  0  0  3  0  0  0  0  0  0
  -28.6930  -21.3470   20.1160 C   0  0  0  0  0  3  0  0  0  0  0  0
  -28.9900  -22.6180   20.6270 C   0  0  0  0  0  0  0  0  0  0  0  0
  -30.2330  -20.9550   21.6780 C   0  0  0  0  0  0  0  0  0  0  0  0
  -29.4300  -20.2880   20.7400 N   0  0  0  0  0  0  0  0  0  0  0  0
  -30.2250  -19.5420   23.7700 C   0  0  0  0  0  1  0  0  0  0  0  0
  -32.0750  -21.1870   23.4210 C   0  0  0  0  0  1  0  0  0  0  0  0
  -31.0840  -20.2510   22.7060 C   0  0  0  0  0  3  0  0  0  0  0  0
  -29.1950  -18.7660   20.5520 C   0  0  0  0  0  3  0  0  0  0  0  0
  -30.3690  -17.6280   20.5530 C   0  0  0  0  0  3  0  0  0  0  0  0
  -30.7980  -15.0160   20.3550 C   0  0  0  0  0  0  0  0  0  0  0  0
  -30.6490  -12.7330   19.3420 C   0  0  0  0  0  2  0  0  0  0  0  0
  -29.7240  -12.7870   18.1040 C   0  0  0  0  0  2  0  0  0  0  0  0
  -28.2500  -12.5990   18.5120 C   0  0  0  0  0  2  0  0  0  0  0  0
  -27.8520  -13.4930   19.7160 C   0  0  0  0  0  3  0  0  0  0  0  0
  -28.8900  -13.4200   20.8540 C   0  0  0  0  0  2  0  0  0  0  0  0
  -30.1910  -13.7830   20.2800 N   0  0  0  0  0  0  0  0  0  0  0  0
  -31.9900  -15.1340   20.0520 O   0  0  0  0  0  0  0  0  0  0  0  0
  -30.0010  -16.1360   20.5670 N   0  0  0  0  0  0  0  0  0  0  0  0
  -29.0310  -15.9330   20.7480 H   0  0  0  0  0  0  0  0  0  0  0  0
  -25.4690  -14.0840   20.4570 C   0  0  0  0  0  0  0  0  0  0  0  0
  -24.3910  -13.3090   20.7870 C   0  0  0  0  0  0  0  0  0  0  0  0
  -24.8380  -11.9560   20.7010 C   0  0  0  0  0  0  0  0  0  0  0  0
  -26.5030  -13.2030   20.1870 N   0  0  0  0  0  0  0  0  0  0  0  0
  -26.1310  -11.9150   20.3990 N   0  0  0  0  0  0  0  0  0  0  0  0
  -24.0950  -10.6960   20.8300 C   0  0  0  0  0  0  0  0  0  0  0  0
  -24.5040   -9.6850   21.7270 C   0  0  0  0  0  3  0  0  0  0  0  0
  -23.7620   -8.4910   21.8480 C   0  0  0  0  0  3  0  0  0  0  0  0
  -22.5940   -8.2990   21.0720 C   0  0  0  0  0  0  0  0  0  0  0  0
  -22.2030   -9.2980   20.1620 C   0  0  0  0  0  3  0  0  0  0  0  0
  -22.9470  -10.4830   20.0400 C   0  0  0  0  0  3  0  0  0  0  0  0
  -21.8240   -7.1630   21.1050 O   0  0  0  0  0  0  0  0  0  0  0  0
  -21.7520   -6.3740   22.2260 C   0  0  0  0  0  0  0  0  0  0  0  0
  -21.3190   -6.8850   23.4700 C   0  0  0  0  0  3  0  0  0  0  0  0
  -21.1940   -6.0230   24.5790 C   0  0  0  0  0  3  0  0  0  0  0  0
  -21.4900   -4.6540   24.4440 C   0  0  0  0  0  0  0  0  0  0  0  0
  -21.9130   -4.1430   23.2050 C   0  0  0  0  0  3  0  0  0  0  0  0
  -22.0420   -5.0010   22.0990 C   0  0  0  0  0  0  0  0  0  0  0  0
  -22.4300   -4.5000   20.9010 F   0  0  0  0  0  0  0  0  0  0  0  0
  -21.3610   -3.8250   25.5060 F   0  0  0  0  0  0  0  0  0  0  0  0
  -22.9980  -13.7910   21.0660 C   0  0  0  0  0  0  0  0  0  0  0  0
  -22.2580  -13.0740   21.9040 N   0  0  0  0  0  0  0  0  0  0  0  0
  -22.5750  -14.8390   20.5780 O   0  0  0  0  0  0  0  0  0  0  0  0
  -22.6150  -12.2270   22.3200 H   0  0  0  0  0  0  0  0  0  0  0  0
  -21.3210  -13.3750   22.1300 H   0  0  0  0  0  0  0  0  0  0  0  0
  -25.6510  -15.4590   20.3360 N   0  0  0  0  0  0  0  0  0  0  0  0
  -24.8820  -16.1120   20.4610 H   0  0  0  0  0  0  0  0  0  0  0  0
  -26.4870  -15.8980   19.9740 H   0  0  0  0  0  0  0  0  0  0  0  0
  -28.2900  -24.0660   20.5100 C   0  0  0  0  0  3  0  0  0  0  0  0
  -26.7780  -23.9180   20.2310 C   0  0  0  0  0  2  0  0  0  0  0  0
  -25.8610  -25.0040   22.3600 C   0  0  0  0  0  1  0  0  0  0  0  0
  -24.4480  -23.3700   21.0640 C   0  0  0  0  0  1  0  0  0  0  0  0
  -25.8790  -23.7410   21.4780 C   0  0  0  0  0  3  0  0  0  0  0  0
  -28.9030  -25.2880   19.6450 C   0  0  0  0  0  2  0  0  0  0  0  0
  -28.7360  -26.7220   20.0610 O   0  0  0  0  0  0  0  0  0  0  0  0
  -24.5670  -31.7610   23.1140 C   0  0  0  0  0  0  0  0  0  0  0  0
  -27.5550  -27.4860   19.9650 C   0  0  0  0  0  0  0  0  0  0  0  0
  -23.5070  -30.3700   21.3690 C   0  0  0  0  0  3  0  0  0  0  0  0
  -25.0990  -28.9720   19.9240 C   0  0  0  0  0  0  0  0  0  0  0  0
  -26.0290  -30.8390   21.2950 C   0  0  0  0  0  2  0  0  0  0  0  0
  -26.2130  -29.4980   20.5900 C   0  0  0  0  0  0  0  0  0  0  0  0
  -27.4360  -28.7650   20.6030 C   0  0  0  0  0  3  0  0  0  0  0  0
  -26.4250  -27.0250   19.2570 C   0  0  0  0  0  3  0  0  0  0  0  0
  -25.2100  -27.7430   19.2510 C   0  0  0  0  0  3  0  0  0  0  0  0
  -23.8130  -29.7760   19.9660 C   0  0  0  0  0  2  0  0  0  0  0  0
  -24.7170  -31.0070   21.9840 N   0  0  0  0  0  0  0  0  0  0  0  0
  -23.4510  -31.9530   23.6170 O   0  0  0  0  0  0  0  0  0  0  0  0
  -22.8790  -29.2700   22.2600 C   0  0  0  0  0  0  0  0  0  0  0  0
  -21.5570  -29.0630   22.1250 N   0  0  0  0  0  0  0  0  0  0  0  0
  -23.5790  -28.6140   23.0350 O   0  0  0  0  0  0  0  0  0  0  0  0
  -21.0540  -29.6560   21.4800 H   0  0  0  0  0  0  0  0  0  0  0  0
  -18.2060  -27.7890   22.6090 C   0  0  0  0  0  0  0  0  0  0  0  0
  -20.7690  -28.0530   22.8340 C   0  0  0  0  0  3  0  0  0  0  0  0
  -20.8680  -26.6790   22.1330 C   0  0  0  0  0  2  0  0  0  0  0  0
  -19.7400  -26.4330   21.1250 C   0  0  0  0  0  2  0  0  0  0  0  0
  -18.3740  -26.5050   21.8150 C   0  0  0  0  0  2  0  0  0  0  0  0
  -19.3290  -28.5220   23.0740 C   0  0  0  0  0  0  0  0  0  0  0  0
  -19.1180  -29.7240   23.7820 C   0  0  0  0  0  3  0  0  0  0  0  0
  -17.8150  -30.1940   24.0280 C   0  0  0  0  0  3  0  0  0  0  0  0
  -16.7060  -29.4570   23.5800 C   0  0  0  0  0  3  0  0  0  0  0  0
  -16.9020  -28.2550   22.8770 C   0  0  0  0  0  3  0  0  0  0  0  0
  -25.7880  -32.4390   23.8100 C   0  0  0  0  0  3  0  0  0  0  0  0
  -25.3980  -33.8160   24.1510 N   0  0  0  0  0  0  0  0  0  0  0  0
  -25.7060  -34.8990   23.4230 C   0  0  0  0  0  0  0  0  0  0  0  0
  -26.4220  -34.8470   22.4190 O   0  0  0  0  0  0  0  0  0  0  0  0
  -24.7760  -33.9290   24.9380 H   0  0  0  0  0  0  0  0  0  0  0  0
  -23.9010  -36.6060   23.0290 C   0  0  0  0  0  1  0  0  0  0  0  0
  -25.1310  -36.2540   23.8810 C   0  0  0  0  0  3  0  0  0  0  0  0
  -27.1870  -37.2280   24.8010 C   0  0  0  0  0  1  0  0  0  0  0  0
  -26.1100  -37.3590   23.8220 N   0  0  0  0  0  0  0  0  0  0  0  0
  -25.6500  -38.2530   23.9750 H   0  0  0  0  0  0  0  0  0  0  0  0
  -26.2780  -31.6690   25.0980 C   0  0  1  0  0  0  0  0  0  0  0  0
  -25.1510  -31.3690   26.1130 C   0  0  0  0  0  1  0  0  0  0  0  0
  -26.9400  -30.3250   24.7120 C   0  0  0  0  0  1  0  0  0  0  0  0
  -27.3610  -32.5040   25.8230 C   0  0  0  0  0  1  0  0  0  0  0  0
  1  4  2  0
  2  3  2  0
  2  5  1  0
  3  1  1  0
  4  8  1  0
  5  4  1  0
  8  7  1  0
  8  6  1  0
  9 10  2  0
  9  5  1  0
 10 19  1  0
 11 19  1  0
 12 17  1  0
 13 14  1  0
 13 12  1  0
 15 14  1  0
 15 24  1  0
 15 16  1  0
 17 11  1  0
 17 16  1  0
 18 11  2  0
 19 20  1  0
 21 22  2  0
 22 41  1  0
 23 22  1  0
 23 26  1  0
 24 25  1  0
 24 21  1  0
 25 23  2  0
 26 27  1  0
 27 28  2  0
 29 32  1  0
 29 28  1  0
 30 29  2  0
 31 30  1  0
 31 26  2  0
 32 33  1  0
 33 34  1  0
 34 35  2  0
 36 35  1  0
 36 40  1  0
 37 36  2  0
 38 33  2  0
 38 37  1  0
 39 38  1  0
 41 42  1  0
 42 45  1  0
 42 44  1  0
 43 41  2  0
 46 21  1  0
 46 47  1  0
 48 46  1  0
 49 54  1  0
 49  3  1  0
 50 49  1  0
 50 53  1  0
 52 53  1  0
 53 51  1  0
 54 55  1  0
 56 67  2  0
 57 55  1  0
 57 62  1  0
 58 66  1  0
 58 68  1  0
 59 65  1  0
 59 61  1  0
 60 66  1  0
 61 62  2  0
 61 60  1  0
 63 57  2  0
 64 63  1  0
 64 59  2  0
 65 58  1  0
 66 56  1  0
 68 70  2  0
 69 68  1  0
 71 69  1  0
 72 81  2  0
 72 77  1  0
 73 69  1  0
 73 77  1  0
 74 73  1  0
 75 76  1  0
 75 74  1  0
 76 72  1  0
 77 78  2  0
 78 79  1  0
 80 79  2  0
 81 80  1  0
 82 56  1  0
 82 83  1  0
 82 92  1  0
 83 86  1  0
 84 88  1  0
 84 83  1  0
 85 84  2  0
 88 87  1  0
 90 88  1  0
 90 91  1  0
 90 89  1  0
 92 95  1  1
 92 93  1  0
 94 92  1  0
M  ISO  4  11 100  19 100  54 101  55 101
M  END
>  <TORSDO>  (93) 
F 23

>  <SCORE>  (93) 
-12.003

>  <name>  (93) 
93

>  <ligand_id>  (93) 
93

>  <original_smiles>  (93) 
[H]c1c([H])c([H])c2c(c1[H])C([H])([H])C([H])([H])C([H])([H])C2([H])N([H])C(=O)C1([H])N(C(=O)C([H])(N([H])C(=O)C([H])(N([H])C([H])([H])[H])C([H])([H])[H])C(C([H])([H])[H])(C([H])([H])[H])C([H])([H])[H])C([H])([H])c2c([H])c(OC([H])([H])C([H])(c3c([H])c(C([H])(C([H])([H])[H])C([H])([H])[H])n(C([H])([H])C([H])([H])N([H])C(=O)N4C([H])([H])C([H])([H])C([H])([H])C([H])(n5nc(-c6c([H])c([H])c(Oc7c([H])c([H])c(F)c([H])c7F)c([H])c6[H])c(C(=O)N([H])[H])c5N([H])[H])C4([H])[H])c3[H])C([H])([H])C([H])(C([H])([H])[H])C([H])([H])[H])c([H])c([H])c2C1([H])[H]

>  <smiles>  (93) 
[H]c1c([H])c([H])c2c(c1[H])C([H])([H])C([H])([H])C([H])([H])C2([H])N([H])C(=O)C1([H])N(C(=O)C([H])(N([H])C(=O)C([H])(N([H])C([H])([H])[H])C([H])([H])[H])C(C([H])([H])[H])(C([H])([H])[H])C([H])([H])[H])C([H])([H])c2c([H])c(OC([H])([H])C([H])(c3c([H])c(C([H])(C([H])([H])[H])C([H])([H])[H])n(C([H])([H])C([H])([H])N([H])C(=O)N4C([H])([H])C([H])([H])C([H])([H])C([H])(n5nc(-c6c([H])c([H])c(Oc7c([H])c([H])c(F)c([H])c7F)c([H])c6[H])c(C(=O)N([H])[H])c5N([H])[H])C4([H])[H])c3[H])C([H])([H])C([H])(C([H])([H])[H])C([H])([H])[H])c([H])c([H])c2C1([H])[H]

$$$$
94:0:0
     RDKit          3D

 96104  0  0  1  0  0  0  0  0999 V2000
  -29.7530  -21.8360   22.4590 C   0  0  0  0  0  2  0  0  0  0  0  0
  -29.3490  -19.8540   20.9250 C   0  0  0  0  0  2  0  0  0  0  0  0
  -30.2910  -20.8520   23.5230 C   0  0  0  0  0  2  0  0  0  0  0  0
  -28.7260  -21.1390   21.5400 C   0  0  0  0  0  3  0  0  0  0  0  0
  -29.8730  -18.8990   22.0460 C   0  0  0  0  0  3  0  0  0  0  0  0
  -30.8420  -19.6110   22.9220 N   0  0  0  0  0  4  0  0  0  0  0  0
  -31.1130  -19.0050   23.6840 H   0  0  0  0  0  0  0  0  0  0  0  0
  -31.6840  -19.8280   22.4130 H   0  0  0  0  0  0  0  0  0  0  0  0
  -28.0360  -22.0100   20.5410 N   0  0  0  0  0  4  0  0  0  0  0  0
  -27.6380  -21.4100   19.8370 H   0  0  0  0  0  0  0  0  0  0  0  0
  -27.2520  -22.4480   20.9990 H   0  0  0  0  0  0  0  0  0  0  0  0
  -28.7620  -23.0970   19.8330 C   0  0  0  0  0  2  0  0  0  0  0  0
  -28.3660  -24.4970   20.3630 C   0  0  0  0  0  2  0  0  0  0  0  0
  -28.8230  -25.6710   19.4680 C   0  0  0  0  0  2  0  0  0  0  0  0
  -28.6520  -26.9430   20.1050 O   0  0  0  0  0  0  0  0  0  0  0  0
  -24.6100  -31.7670   23.4010 C   0  0  0  0  0  0  0  0  0  0  0  0
  -27.4260  -27.5820   20.1130 C   0  0  0  0  0  0  0  0  0  0  0  0
  -23.4670  -30.4370   21.6530 C   0  0  0  0  0  3  0  0  0  0  0  0
  -24.9800  -29.0130   20.1730 C   0  0  0  0  0  0  0  0  0  0  0  0
  -25.9810  -30.8650   21.5250 C   0  0  0  0  0  2  0  0  0  0  0  0
  -26.1100  -29.5300   20.8160 C   0  0  0  0  0  0  0  0  0  0  0  0
  -27.3300  -28.8190   20.7890 C   0  0  0  0  0  3  0  0  0  0  0  0
  -26.2700  -27.0710   19.4730 C   0  0  0  0  0  3  0  0  0  0  0  0
  -25.0530  -27.7790   19.5050 C   0  0  0  0  0  3  0  0  0  0  0  0
  -23.7160  -29.8390   20.2400 C   0  0  0  0  0  2  0  0  0  0  0  0
  -24.7030  -31.0360   22.2530 N   0  0  0  0  0  0  0  0  0  0  0  0
  -23.5140  -31.9800   23.9380 O   0  0  0  0  0  0  0  0  0  0  0  0
  -22.8250  -29.3480   22.5410 C   0  0  0  0  0  0  0  0  0  0  0  0
  -21.5020  -29.1680   22.4030 N   0  0  0  0  0  0  0  0  0  0  0  0
  -23.5140  -28.6730   23.3100 O   0  0  0  0  0  0  0  0  0  0  0  0
  -21.0080  -29.7730   21.7630 H   0  0  0  0  0  0  0  0  0  0  0  0
  -18.1330  -27.9330   22.8230 C   0  0  0  0  0  0  0  0  0  0  0  0
  -20.6890  -28.1730   23.1030 C   0  0  0  0  0  3  0  0  0  0  0  0
  -20.7930  -26.7910   22.4200 C   0  0  0  0  0  2  0  0  0  0  0  0
  -19.6900  -26.5470   21.3840 C   0  0  0  0  0  2  0  0  0  0  0  0
  -18.3100  -26.6390   22.0430 C   0  0  0  0  0  2  0  0  0  0  0  0
  -19.2510  -28.6620   23.3050 C   0  0  0  0  0  0  0  0  0  0  0  0
  -19.0360  -29.8760   23.9920 C   0  0  0  0  0  3  0  0  0  0  0  0
  -17.7320  -30.3640   24.2010 C   0  0  0  0  0  3  0  0  0  0  0  0
  -16.6260  -29.6300   23.7370 C   0  0  0  0  0  3  0  0  0  0  0  0
  -16.8280  -28.4160   23.0560 C   0  0  0  0  0  3  0  0  0  0  0  0
  -25.8710  -32.3860   24.0810 C   0  0  0  0  0  3  0  0  0  0  0  0
  -25.5460  -33.7740   24.4350 N   0  0  0  0  0  0  0  0  0  0  0  0
  -25.8910  -34.8460   23.7090 C   0  0  0  0  0  0  0  0  0  0  0  0
  -26.5920  -34.7680   22.6960 O   0  0  0  0  0  0  0  0  0  0  0  0
  -24.9280  -33.9040   25.2240 H   0  0  0  0  0  0  0  0  0  0  0  0
  -24.1470  -36.6220   23.3500 C   0  0  0  0  0  1  0  0  0  0  0  0
  -25.3790  -36.2210   24.1780 C   0  0  0  0  0  3  0  0  0  0  0  0
  -27.4890  -37.1160   25.0590 C   0  0  0  0  0  1  0  0  0  0  0  0
  -26.4010  -37.2860   24.0990 N   0  0  0  0  0  0  0  0  0  0  0  0
  -25.9850  -38.2000   24.2510 H   0  0  0  0  0  0  0  0  0  0  0  0
  -26.3480  -31.5840   25.3540 C   0  0  1  0  0  0  0  0  0  0  0  0
  -25.2220  -31.3070   26.3760 C   0  0  0  0  0  1  0  0  0  0  0  0
  -26.9550  -30.2220   24.9410 C   0  0  0  0  0  1  0  0  0  0  0  0
  -27.4700  -32.3650   26.0770 C   0  0  0  0  0  1  0  0  0  0  0  0
  -29.2150  -16.5950   21.1910 C   0  0  0  0  0  1  0  0  0  0  0  0
  -30.3960  -17.4920   21.5810 C   0  0  0  0  0  3  0  0  0  0  0  0
  -31.6370  -17.5100   20.6220 C   0  0  0  0  0  2  0  0  0  0  0  0
  -31.1070  -16.8730   18.0810 C   0  0  0  0  0  1  0  0  0  0  0  0
  -31.8130  -16.5320   19.4110 C   0  0  0  0  0  3  0  0  0  0  0  0
  -32.3880  -15.0740   19.6180 C   0  0  0  0  0  0  0  0  0  0  0  0
  -31.9400  -12.7450   18.9760 C   0  0  0  0  0  2  0  0  0  0  0  0
  -31.0050  -12.7470   17.7490 C   0  0  0  0  0  2  0  0  0  0  0  0
  -29.5300  -12.7690   18.1940 C   0  0  0  0  0  2  0  0  0  0  0  0
  -29.2350  -13.8570   19.2590 C   0  0  0  0  0  3  0  0  0  0  0  0
  -30.2990  -13.8380   20.3790 C   0  0  0  0  0  2  0  0  0  0  0  0
  -31.6230  -13.9530   19.7600 N   0  0  0  0  0  0  0  0  0  0  0  0
  -33.5920  -14.9590   19.3760 O   0  0  0  0  0  0  0  0  0  0  0  0
  -26.9490  -14.7730   19.9890 C   0  0  0  0  0  0  0  0  0  0  0  0
  -25.8060  -14.1490   20.3990 C   0  0  0  0  0  0  0  0  0  0  0  0
  -26.0980  -12.7510   20.3900 C   0  0  0  0  0  0  0  0  0  0  0  0
  -27.8770  -13.7650   19.7750 N   0  0  0  0  0  0  0  0  0  0  0  0
  -27.3700  -12.5440   20.0710 N   0  0  0  0  0  0  0  0  0  0  0  0
  -25.2230  -11.5970   20.6030 C   0  0  0  0  0  0  0  0  0  0  0  0
  -25.5390  -10.6000   21.5520 C   0  0  0  0  0  3  0  0  0  0  0  0
  -24.6700   -9.5080   21.7540 C   0  0  0  0  0  3  0  0  0  0  0  0
  -23.4710   -9.4050   21.0080 C   0  0  0  0  0  0  0  0  0  0  0  0
  -23.1740  -10.3900   20.0480 C   0  0  0  0  0  3  0  0  0  0  0  0
  -24.0450  -11.4740   19.8410 C   0  0  0  0  0  3  0  0  0  0  0  0
  -22.5820   -8.3640   21.1220 O   0  0  0  0  0  0  0  0  0  0  0  0
  -22.3210   -7.7700   22.3320 C   0  0  0  0  0  0  0  0  0  0  0  0
  -21.8840   -8.5160   23.4490 C   0  0  0  0  0  3  0  0  0  0  0  0
  -21.5560   -7.8570   24.6500 C   0  0  0  0  0  3  0  0  0  0  0  0
  -21.6610   -6.4560   24.7380 C   0  0  0  0  0  0  0  0  0  0  0  0
  -22.0950   -5.7120   23.6270 C   0  0  0  0  0  3  0  0  0  0  0  0
  -22.4210   -6.3690   22.4270 C   0  0  0  0  0  0  0  0  0  0  0  0
  -22.8170   -5.6430   21.3530 F   0  0  0  0  0  0  0  0  0  0  0  0
  -21.3400   -5.8220   25.8910 F   0  0  0  0  0  0  0  0  0  0  0  0
  -24.4840  -14.8050   20.6840 C   0  0  0  0  0  0  0  0  0  0  0  0
  -23.7090  -14.2460   21.6060 N   0  0  0  0  0  0  0  0  0  0  0  0
  -24.1570  -15.8530   20.1240 O   0  0  0  0  0  0  0  0  0  0  0  0
  -23.9900  -13.4070   22.0910 H   0  0  0  0  0  0  0  0  0  0  0  0
  -22.8210  -14.6680   21.8430 H   0  0  0  0  0  0  0  0  0  0  0  0
  -27.2590  -16.1080   19.7510 N   0  0  0  0  0  0  0  0  0  0  0  0
  -26.5390  -16.8200   19.7830 H   0  0  0  0  0  0  0  0  0  0  0  0
  -28.1280  -16.4390   19.3580 H   0  0  0  0  0  0  0  0  0  0  0  0
  1  3  1  0
  2  4  1  0
  2  5  1  0
  4  9  1  0
  4  1  1  0
  5 57  1  0
  5  6  1  0
  6  3  1  0
  6  7  1  0
  8  6  1  0
  9 11  1  0
 10  9  1  0
 12 13  1  0
 12  9  1  0
 14 15  1  0
 14 13  1  0
 15 17  1  0
 16 27  2  0
 17 22  1  0
 18 26  1  0
 18 28  1  0
 19 25  1  0
 19 21  1  0
 20 26  1  0
 21 20  1  0
 22 21  2  0
 23 24  1  0
 23 17  2  0
 24 19  2  0
 25 18  1  0
 26 16  1  0
 28 30  2  0
 29 28  1  0
 31 29  1  0
 32 41  2  0
 32 37  1  0
 33 29  1  0
 33 37  1  0
 34 33  1  0
 35 36  1  0
 35 34  1  0
 36 32  1  0
 37 38  2  0
 38 39  1  0
 40 39  2  0
 41 40  1  0
 42 16  1  0
 42 43  1  0
 42 52  1  0
 43 46  1  0
 44 48  1  0
 44 43  1  0
 45 44  2  0
 48 47  1  0
 50 48  1  0
 50 51  1  0
 50 49  1  0
 52 55  1  1
 52 53  1  0
 54 52  1  0
 57 56  1  0
 58 57  1  0
 60 59  1  0
 60 61  1  0
 60 58  1  0
 61 67  1  0
 62 67  1  0
 63 64  1  0
 63 62  1  0
 65 64  1  0
 65 72  1  0
 65 66  1  0
 67 66  1  0
 68 61  2  0
 69 70  2  0
 70 89  1  0
 71 70  1  0
 71 74  1  0
 72 69  1  0
 72 73  1  0
 73 71  2  0
 74 75  1  0
 75 76  2  0
 77 80  1  0
 77 76  1  0
 78 77  2  0
 79 78  1  0
 79 74  2  0
 80 81  1  0
 81 86  2  0
 81 82  1  0
 82 83  2  0
 83 84  1  0
 84 88  1  0
 85 84  2  0
 86 85  1  0
 87 86  1  0
 89 90  1  0
 90 93  1  0
 90 92  1  0
 91 89  2  0
 94 95  1  0
 94 69  1  0
 96 94  1  0
M  ISO  4  14 101  15 101  60 100  61 100
M  END
>  <TORSDO>  (94) 
F 23

>  <SCORE>  (94) 
-9.832

>  <name>  (94) 
94

>  <ligand_id>  (94) 
94

>  <original_smiles>  (94) 
[H]c1c([H])c([H])c2c(c1[H])C([H])([H])C([H])([H])C([H])([H])C2([H])N([H])C(=O)C1([H])N(C(=O)C([H])(N([H])C(=O)C([H])(N([H])C([H])([H])[H])C([H])([H])[H])C(C([H])([H])[H])(C([H])([H])[H])C([H])([H])[H])C([H])([H])c2c([H])c(OC([H])([H])C([H])([H])C([H])([H])[N+]([H])([H])C3([H])C([H])([H])C([H])([H])[N+]([H])([H])C([H])(C([H])(C([H])([H])[H])C([H])([H])C([H])(C(=O)N4C([H])([H])C([H])([H])C([H])([H])C([H])(n5nc(-c6c([H])c([H])c(Oc7c([H])c([H])c(F)c([H])c7F)c([H])c6[H])c(C(=O)N([H])[H])c5N([H])[H])C4([H])[H])C([H])([H])[H])C3([H])[H])c([H])c([H])c2C1([H])[H]

>  <smiles>  (94) 
[H]c1c([H])c([H])c2c(c1[H])C([H])([H])C([H])([H])C([H])([H])C2([H])N([H])C(=O)C1([H])N(C(=O)C([H])(N([H])C(=O)C([H])(N([H])C([H])([H])[H])C([H])([H])[H])C(C([H])([H])[H])(C([H])([H])[H])C([H])([H])[H])C([H])([H])c2c([H])c(OC([H])([H])C([H])([H])C([H])([H])[N+]([H])([H])C3([H])C([H])([H])C([H])([H])[N+]([H])([H])C([H])(C([H])(C([H])([H])[H])C([H])([H])C([H])(C(=O)N4C([H])([H])C([H])([H])C([H])([H])C([H])(n5nc(-c6c([H])c([H])c(Oc7c([H])c([H])c(F)c([H])c7F)c([H])c6[H])c(C(=O)N([H])[H])c5N([H])[H])C4([H])[H])C([H])([H])[H])C3([H])[H])c([H])c([H])c2C1([H])[H]

$$$$
