0:0:0
     RDKit          3D

 92100  0  0  1  0  0  0  0  0999 V2000
  -28.0380  -21.8570   20.6810 C   0  0  0  0  0  3  0  0  0  0  0  0
  -28.3610  -20.4060   20.7690 C   0  0  0  0  0  3  0  0  0  0  0  0
  -28.8180  -22.8890   20.0020 C   0  0  0  0  0  0  0  0  0  0  0  0
  -29.5070  -19.7600   20.1540 C   0  0  0  0  0  0  0  0  0  0  0  0
  -29.9460  -22.1460   19.4270 C   0  0  0  0  0  0  0  0  0  0  0  0
  -30.2390  -20.7580   19.5270 N   0  0  0  0  0  0  0  0  0  0  0  0
  -27.5870  -24.4270   18.2460 C   0  0  0  0  0  1  0  0  0  0  0  0
  -28.3690  -24.5250   19.5650 C   0  0  0  0  0  3  0  0  0  0  0  0
  -28.2100  -25.9800   20.3130 O   0  0  0  0  0  0  0  0  0  0  0  0
  -24.6320  -31.9300   23.2300 C   0  0  0  0  0  0  0  0  0  0  0  0
  -27.1920  -27.0670   20.1980 C   0  0  0  0  0  0  0  0  0  0  0  0
  -23.4380  -30.5320   21.5970 C   0  0  0  0  0  3  0  0  0  0  0  0
  -24.8850  -28.9400   20.1730 C   0  0  0  0  0  0  0  0  0  0  0  0
  -26.0050  -30.7490   21.4460 C   0  0  0  0  0  2  0  0  0  0  0  0
  -26.0760  -29.3440   20.7860 C   0  0  0  0  0  0  0  0  0  0  0  0
  -27.2200  -28.4290   20.7790 C   0  0  0  0  0  3  0  0  0  0  0  0
  -25.9510  -26.8090   19.5710 C   0  0  0  0  0  3  0  0  0  0  0  0
  -24.8470  -27.6900   19.5480 C   0  0  0  0  0  3  0  0  0  0  0  0
  -23.6650  -29.8540   20.2200 C   0  0  0  0  0  2  0  0  0  0  0  0
  -24.7140  -31.0970   22.1430 N   0  0  0  0  0  0  0  0  0  0  0  0
  -23.5430  -32.2190   23.7500 O   0  0  0  0  0  0  0  0  0  0  0  0
  -22.7480  -29.5330   22.5620 C   0  0  0  0  0  0  0  0  0  0  0  0
  -21.4180  -29.3630   22.4370 N   0  0  0  0  0  0  0  0  0  0  0  0
  -23.4160  -28.9100   23.3920 O   0  0  0  0  0  0  0  0  0  0  0  0
  -20.9330  -29.9160   21.7450 H   0  0  0  0  0  0  0  0  0  0  0  0
  -18.0370  -28.1560   22.9540 C   0  0  0  0  0  0  0  0  0  0  0  0
  -20.5960  -28.4280   23.2130 C   0  0  0  0  0  3  0  0  0  0  0  0
  -20.7000  -26.9930   22.6420 C   0  0  0  0  0  2  0  0  0  0  0  0
  -19.5970  -26.6650   21.6310 C   0  0  0  0  0  2  0  0  0  0  0  0
  -18.2150  -26.8060   22.2770 C   0  0  0  0  0  2  0  0  0  0  0  0
  -19.1540  -28.9230   23.3790 C   0  0  0  0  0  0  0  0  0  0  0  0
  -18.9300  -30.1830   23.9760 C   0  0  0  0  0  3  0  0  0  0  0  0
  -17.6230  -30.6770   24.1470 C   0  0  0  0  0  3  0  0  0  0  0  0
  -16.5210  -29.9080   23.7360 C   0  0  0  0  0  3  0  0  0  0  0  0
  -16.7290  -28.6490   23.1470 C   0  0  0  0  0  3  0  0  0  0  0  0
  -25.9020  -32.5760   23.8590 C   0  0  0  0  0  3  0  0  0  0  0  0
  -26.4010  -31.8220   25.1550 C   0  0  1  0  0  0  0  0  0  0  0  0
  -25.2930  -31.5980   26.2110 C   0  0  0  0  0  1  0  0  0  0  0  0
  -26.9910  -30.4390   24.7980 C   0  0  0  0  0  1  0  0  0  0  0  0
  -27.5420  -32.6280   25.8200 C   0  0  0  0  0  1  0  0  0  0  0  0
  -25.5860  -33.9780   24.1790 N   0  0  0  0  0  0  0  0  0  0  0  0
  -25.9140  -35.0320   23.4200 C   0  0  0  0  0  0  0  0  0  0  0  0
  -26.5790  -34.9260   22.3870 O   0  0  0  0  0  0  0  0  0  0  0  0
  -24.9950  -34.1340   24.9820 H   0  0  0  0  0  0  0  0  0  0  0  0
  -24.1900  -36.8340   23.0720 C   0  0  0  0  0  1  0  0  0  0  0  0
  -25.4320  -36.4240   23.8780 C   0  0  0  0  0  3  0  0  0  0  0  0
  -27.5650  -37.3140   24.7100 C   0  0  0  0  0  1  0  0  0  0  0  0
  -26.4660  -37.4760   23.7610 N   0  0  0  0  0  0  0  0  0  0  0  0
  -26.0600  -38.3970   23.8990 H   0  0  0  0  0  0  0  0  0  0  0  0
  -30.9410  -22.9230   18.5520 C   0  0  0  0  0  2  0  0  0  0  0  0
  -31.8020  -21.3750   16.6830 C   0  0  0  0  0  1  0  0  0  0  0  0
  -33.3130  -23.1340   17.6600 C   0  0  0  0  0  1  0  0  0  0  0  0
  -32.1580  -22.1610   17.9600 C   0  0  0  0  0  3  0  0  0  0  0  0
  -30.2010  -18.1720   20.2880 C   0  0  0  0  0  2  0  0  0  0  0  0
  -30.4660  -15.3220   20.1200 C   0  0  0  0  0  0  0  0  0  0  0  0
  -30.3760  -12.9100   19.1960 C   0  0  0  0  0  2  0  0  0  0  0  0
  -29.4110  -12.7460   17.9960 C   0  0  0  0  0  2  0  0  0  0  0  0
  -27.9770  -12.4760   18.4870 C   0  0  0  0  0  2  0  0  0  0  0  0
  -27.5720  -13.4190   19.6480 C   0  0  0  0  0  3  0  0  0  0  0  0
  -28.6620  -13.5400   20.7330 C   0  0  0  0  0  2  0  0  0  0  0  0
  -29.8730  -14.0360   20.0610 N   0  0  0  0  0  0  0  0  0  0  0  0
  -31.6780  -15.3160   19.8690 O   0  0  0  0  0  0  0  0  0  0  0  0
  -29.7400  -16.5930   20.2560 N   0  0  0  0  0  0  0  0  0  0  0  0
  -28.7460  -16.4750   20.3780 H   0  0  0  0  0  0  0  0  0  0  0  0
  -25.2270  -13.9570   20.4950 C   0  0  0  0  0  0  0  0  0  0  0  0
  -24.1820  -13.1700   20.8880 C   0  0  0  0  0  0  0  0  0  0  0  0
  -24.6540  -11.8220   20.8190 C   0  0  0  0  0  0  0  0  0  0  0  0
  -26.2640  -13.0910   20.2000 N   0  0  0  0  0  0  0  0  0  0  0  0
  -25.9340  -11.7990   20.4640 N   0  0  0  0  0  0  0  0  0  0  0  0
  -23.9380  -10.5530   21.0100 C   0  0  0  0  0  0  0  0  0  0  0  0
  -24.3900   -9.5810   21.9290 C   0  0  0  0  0  3  0  0  0  0  0  0
  -23.6720   -8.3790   22.1110 C   0  0  0  0  0  3  0  0  0  0  0  0
  -22.4860   -8.1420   21.3750 C   0  0  0  0  0  0  0  0  0  0  0  0
  -22.0530   -9.1040   20.4450 C   0  0  0  0  0  3  0  0  0  0  0  0
  -22.7720  -10.2960   20.2600 C   0  0  0  0  0  3  0  0  0  0  0  0
  -21.7370   -6.9930   21.4670 O   0  0  0  0  0  0  0  0  0  0  0  0
  -21.6900   -6.2560   22.6230 C   0  0  0  0  0  0  0  0  0  0  0  0
  -21.2280   -6.8030   23.8390 C   0  0  0  0  0  3  0  0  0  0  0  0
  -21.1320   -5.9910   24.9850 C   0  0  0  0  0  3  0  0  0  0  0  0
  -21.4880   -4.6300   24.9170 C   0  0  0  0  0  0  0  0  0  0  0  0
  -21.9440   -4.0820   23.7060 C   0  0  0  0  0  3  0  0  0  0  0  0
  -22.0420   -4.8920   22.5610 C   0  0  0  0  0  0  0  0  0  0  0  0
  -22.4620   -4.3530   21.3910 F   0  0  0  0  0  0  0  0  0  0  0  0
  -21.3890   -3.8470   26.0170 F   0  0  0  0  0  0  0  0  0  0  0  0
  -22.7920  -13.6360   21.2080 C   0  0  0  0  0  0  0  0  0  0  0  0
  -22.0940  -12.9210   22.0830 N   0  0  0  0  0  0  0  0  0  0  0  0
  -22.3380  -14.6690   20.7200 O   0  0  0  0  0  0  0  0  0  0  0  0
  -22.4760  -12.0850   22.5000 H   0  0  0  0  0  0  0  0  0  0  0  0
  -21.1610  -13.2150   22.3410 H   0  0  0  0  0  0  0  0  0  0  0  0
  -25.3760  -15.3310   20.3340 N   0  0  0  0  0  0  0  0  0  0  0  0
  -24.6050  -15.9750   20.4770 H   0  0  0  0  0  0  0  0  0  0  0  0
  -26.1970  -15.7790   19.9470 H   0  0  0  0  0  0  0  0  0  0  0  0
  1  2  1  0
  3  1  2  0
  4 54  1  0
  4  2  2  0
  5  6  2  0
  5  3  1  0
  6  4  1  0
  8  7  1  0
  8  3  1  0
  8  9  1  0
 10 21  2  0
 11  9  1  0
 11 16  1  0
 12 20  1  0
 12 22  1  0
 13 19  1  0
 13 15  1  0
 14 20  1  0
 15 14  1  0
 16 15  2  0
 17 11  2  0
 18 17  1  0
 18 13  2  0
 19 12  1  0
 20 10  1  0
 22 24  2  0
 23 22  1  0
 25 23  1  0
 26 35  2  0
 26 31  1  0
 27 23  1  0
 27 31  1  0
 28 27  1  0
 29 30  1  0
 29 28  1  0
 30 26  1  0
 31 32  2  0
 32 33  1  0
 34 33  2  0
 35 34  1  0
 36 10  1  0
 36 41  1  0
 36 37  1  0
 37 40  1  1
 37 38  1  0
 39 37  1  0
 41 44  1  0
 42 46  1  0
 42 41  1  0
 43 42  2  0
 46 45  1  0
 48 46  1  0
 48 49  1  0
 48 47  1  0
 50  5  1  0
 51 53  1  0
 52 53  1  0
 53 50  1  0
 55 63  1  0
 56 61  1  0
 57 58  1  0
 57 56  1  0
 59 58  1  0
 59 68  1  0
 59 60  1  0
 61 55  1  0
 61 60  1  0
 62 55  2  0
 63 54  1  0
 63 64  1  0
 65 66  2  0
 66 85  1  0
 67 66  1  0
 67 70  1  0
 68 69  1  0
 68 65  1  0
 69 67  2  0
 70 71  1  0
 71 72  2  0
 73 76  1  0
 73 72  1  0
 74 73  2  0
 75 74  1  0
 75 70  2  0
 76 77  1  0
 77 78  1  0
 78 79  2  0
 80 79  1  0
 80 84  1  0
 81 80  2  0
 82 77  2  0
 82 81  1  0
 83 82  1  0
 85 86  1  0
 86 89  1  0
 86 88  1  0
 87 85  2  0
 90 91  1  0
 90 65  1  0
 92 90  1  0
M  ISO  4   8 101   9 101  55 100  63 100
M  END
>  <TORSDO>  (1) 
F 20

>  <SCORE>  (1) 
-14.832

>  <name>  (1) 
0

>  <ligand_id>  (1) 
0

>  <original_smiles>  (1) 
[H]c1c(C([H])([H])N([H])C(=O)N2C([H])([H])C([H])([H])C([H])([H])C([H])(n3nc(-c4c([H])c([H])c(Oc5c([H])c([H])c(F)c([H])c5F)c([H])c4[H])c(C(=O)N([H])[H])c3N([H])[H])C2([H])[H])nc(C([H])([H])C([H])(C([H])([H])[H])C([H])([H])[H])c(C([H])(Oc2c([H])c([H])c3c(c2[H])C([H])([H])N(C(=O)C([H])(N([H])C(=O)C([H])(N([H])C([H])([H])[H])C([H])([H])[H])C(C([H])([H])[H])(C([H])([H])[H])C([H])([H])[H])C([H])(C(=O)N([H])C2([H])c4c([H])c([H])c([H])c([H])c4C([H])([H])C([H])([H])C2([H])[H])C3([H])[H])C([H])([H])[H])c1[H]

>  <smiles>  (1) 
[H]c1c(C([H])([H])N([H])C(=O)N2C([H])([H])C([H])([H])C([H])([H])C([H])(n3nc(-c4c([H])c([H])c(Oc5c([H])c([H])c(F)c([H])c5F)c([H])c4[H])c(C(=O)N([H])[H])c3N([H])[H])C2([H])[H])nc(C([H])([H])C([H])(C([H])([H])[H])C([H])([H])[H])c(C([H])(Oc2c([H])c([H])c3c(c2[H])C([H])([H])N(C(=O)C([H])(N([H])C(=O)C([H])(N([H])C([H])([H])[H])C([H])([H])[H])C(C([H])([H])[H])(C([H])([H])[H])C([H])([H])[H])C([H])(C(=O)N([H])C2([H])c4c([H])c([H])c([H])c([H])c4C([H])([H])C([H])([H])C2([H])[H])C3([H])[H])C([H])([H])[H])c1[H]

$$$$
1:0:0
     RDKit          3D

 93100  0  0  1  0  0  0  0  0999 V2000
  -29.7400  -21.2920   21.8370 C   0  0  0  0  0  1  0  0  0  0  0  0
  -28.9600  -21.3150   20.5810 N   0  0  1  0  0  4  0  0  0  0  0  0
  -28.0040  -21.2230   20.8910 H   0  0  0  0  0  0  0  0  0  0  0  0
  -28.9550  -22.8920   19.9830 C   0  0  0  0  0  2  0  0  0  0  0  0
  -27.8800  -24.3100   22.0250 C   0  0  0  0  0  1  0  0  0  0  0  0
  -28.0740  -24.3830   20.5090 C   0  0  0  0  0  3  0  0  0  0  0  0
  -28.2830  -26.0100   20.2870 O   0  0  0  0  0  0  0  0  0  0  0  0
  -24.6490  -31.9660   23.2450 C   0  0  0  0  0  0  0  0  0  0  0  0
  -27.2480  -27.0860   20.2760 C   0  0  0  0  0  0  0  0  0  0  0  0
  -23.4690  -30.5470   21.6160 C   0  0  0  0  0  3  0  0  0  0  0  0
  -24.9330  -28.9400   20.2150 C   0  0  0  0  0  0  0  0  0  0  0  0
  -26.0340  -30.7800   21.4710 C   0  0  0  0  0  2  0  0  0  0  0  0
  -26.1180  -29.3640   20.8300 C   0  0  0  0  0  0  0  0  0  0  0  0
  -27.2740  -28.4590   20.8300 C   0  0  0  0  0  3  0  0  0  0  0  0
  -26.0290  -26.8110   19.6190 C   0  0  0  0  0  3  0  0  0  0  0  0
  -24.9110  -27.6840   19.5900 C   0  0  0  0  0  3  0  0  0  0  0  0
  -23.7070  -29.8510   20.2500 C   0  0  0  0  0  2  0  0  0  0  0  0
  -24.7400  -31.1250   22.1650 N   0  0  0  0  0  0  0  0  0  0  0  0
  -23.5570  -32.2520   23.7610 O   0  0  0  0  0  0  0  0  0  0  0  0
  -22.7800  -29.5550   22.5890 C   0  0  0  0  0  0  0  0  0  0  0  0
  -21.4520  -29.3770   22.4600 N   0  0  0  0  0  0  0  0  0  0  0  0
  -23.4480  -28.9430   23.4280 O   0  0  0  0  0  0  0  0  0  0  0  0
  -20.9670  -29.9200   21.7600 H   0  0  0  0  0  0  0  0  0  0  0  0
  -18.0780  -28.1430   22.9660 C   0  0  0  0  0  0  0  0  0  0  0  0
  -20.6340  -28.4400   23.2370 C   0  0  0  0  0  3  0  0  0  0  0  0
  -20.7520  -27.0020   22.6780 C   0  0  0  0  0  2  0  0  0  0  0  0
  -19.6570  -26.6580   21.6630 C   0  0  0  0  0  2  0  0  0  0  0  0
  -18.2720  -26.7920   22.3010 C   0  0  0  0  0  2  0  0  0  0  0  0
  -19.1860  -28.9240   23.3910 C   0  0  0  0  0  0  0  0  0  0  0  0
  -18.9480  -30.1870   23.9780 C   0  0  0  0  0  3  0  0  0  0  0  0
  -17.6360  -30.6700   24.1390 C   0  0  0  0  0  3  0  0  0  0  0  0
  -16.5430  -29.8880   23.7280 C   0  0  0  0  0  3  0  0  0  0  0  0
  -16.7640  -28.6270   23.1480 C   0  0  0  0  0  3  0  0  0  0  0  0
  -25.9130  -32.6240   23.8750 C   0  0  0  0  0  3  0  0  0  0  0  0
  -25.5870  -34.0260   24.1910 N   0  0  0  0  0  0  0  0  0  0  0  0
  -25.9160  -35.0810   23.4340 C   0  0  0  0  0  0  0  0  0  0  0  0
  -26.5910  -34.9780   22.4070 O   0  0  0  0  0  0  0  0  0  0  0  0
  -24.9840  -34.1770   24.9870 H   0  0  0  0  0  0  0  0  0  0  0  0
  -24.1790  -36.8680   23.0760 C   0  0  0  0  0  1  0  0  0  0  0  0
  -25.4230  -36.4710   23.8880 C   0  0  0  0  0  3  0  0  0  0  0  0
  -27.5520  -37.3760   24.7140 C   0  0  0  0  0  1  0  0  0  0  0  0
  -26.4490  -37.5300   23.7690 N   0  0  0  0  0  0  0  0  0  0  0  0
  -26.0370  -38.4490   23.9110 H   0  0  0  0  0  0  0  0  0  0  0  0
  -26.4150  -31.8780   25.1740 C   0  0  1  0  0  0  0  0  0  0  0  0
  -25.3060  -31.6460   26.2270 C   0  0  0  0  0  1  0  0  0  0  0  0
  -27.0180  -30.4990   24.8210 C   0  0  0  0  0  1  0  0  0  0  0  0
  -27.5470  -32.6930   25.8420 C   0  0  0  0  0  1  0  0  0  0  0  0
  -29.1680  -19.8240   19.8240 C   0  0  0  0  0  3  0  0  0  0  0  0
  -29.8000  -18.2920   20.5610 C   0  0  0  0  0  2  0  0  0  0  0  0
  -30.4480  -15.4100   20.1270 C   0  0  0  0  0  0  0  0  0  0  0  0
  -30.4140  -12.9920   19.1830 C   0  0  0  0  0  2  0  0  0  0  0  0
  -29.4570  -12.8120   17.9800 C   0  0  0  0  0  2  0  0  0  0  0  0
  -28.0180  -12.5350   18.4550 C   0  0  0  0  0  2  0  0  0  0  0  0
  -27.6000  -13.4620   19.6240 C   0  0  0  0  0  3  0  0  0  0  0  0
  -28.6850  -13.5820   20.7130 C   0  0  0  0  0  2  0  0  0  0  0  0
  -29.8850  -14.1080   20.0430 N   0  0  0  0  0  0  0  0  0  0  0  0
  -31.6730  -15.4260   19.9500 O   0  0  0  0  0  0  0  0  0  0  0  0
  -29.6520  -16.6580   20.2070 N   0  0  0  0  0  0  0  0  0  0  0  0
  -28.6760  -16.4070   20.1680 H   0  0  0  0  0  0  0  0  0  0  0  0
  -25.2460  -13.9870   20.4470 C   0  0  0  0  0  0  0  0  0  0  0  0
  -24.2010  -13.1960   20.8350 C   0  0  0  0  0  0  0  0  0  0  0  0
  -24.6830  -11.8510   20.7830 C   0  0  0  0  0  0  0  0  0  0  0  0
  -26.2910  -13.1260   20.1700 N   0  0  0  0  0  0  0  0  0  0  0  0
  -25.9670  -11.8340   20.4420 N   0  0  0  0  0  0  0  0  0  0  0  0
  -23.9740  -10.5800   20.9770 C   0  0  0  0  0  0  0  0  0  0  0  0
  -24.4230   -9.6160   21.9070 C   0  0  0  0  0  3  0  0  0  0  0  0
  -23.7090   -8.4120   22.0930 C   0  0  0  0  0  3  0  0  0  0  0  0
  -22.5320   -8.1630   21.3460 C   0  0  0  0  0  0  0  0  0  0  0  0
  -22.1030   -9.1160   20.4060 C   0  0  0  0  0  3  0  0  0  0  0  0
  -22.8170  -10.3110   20.2190 C   0  0  0  0  0  3  0  0  0  0  0  0
  -21.7880   -7.0110   21.4410 O   0  0  0  0  0  0  0  0  0  0  0  0
  -21.7490   -6.2730   22.5970 C   0  0  0  0  0  0  0  0  0  0  0  0
  -21.3090   -6.8250   23.8190 C   0  0  0  0  0  3  0  0  0  0  0  0
  -21.2180   -6.0120   24.9680 C   0  0  0  0  0  3  0  0  0  0  0  0
  -21.5560   -4.6470   24.8920 C   0  0  0  0  0  0  0  0  0  0  0  0
  -21.9910   -4.0940   23.6750 C   0  0  0  0  0  3  0  0  0  0  0  0
  -22.0840   -4.9050   22.5300 C   0  0  0  0  0  0  0  0  0  0  0  0
  -22.4810   -4.3620   21.3540 F   0  0  0  0  0  0  0  0  0  0  0  0
  -21.4630   -3.8640   25.9920 F   0  0  0  0  0  0  0  0  0  0  0  0
  -22.8050  -13.6560   21.1340 C   0  0  0  0  0  0  0  0  0  0  0  0
  -22.0990  -12.9460   22.0040 N   0  0  0  0  0  0  0  0  0  0  0  0
  -22.3510  -14.6830   20.6300 O   0  0  0  0  0  0  0  0  0  0  0  0
  -22.4780  -12.1140   22.4310 H   0  0  0  0  0  0  0  0  0  0  0  0
  -21.1620  -13.2370   22.2480 H   0  0  0  0  0  0  0  0  0  0  0  0
  -25.3860  -15.3610   20.2740 N   0  0  0  0  0  0  0  0  0  0  0  0
  -24.6060  -15.9980   20.3970 H   0  0  0  0  0  0  0  0  0  0  0  0
  -26.2020  -15.8090   19.8840 H   0  0  0  0  0  0  0  0  0  0  0  0
  -29.8720  -20.0660   18.4440 C   0  0  0  0  0  3  0  0  0  0  0  0
  -31.2070  -19.1770   16.4500 C   0  0  0  0  0  1  0  0  0  0  0  0
  -28.9830  -18.1010   16.9860 C   0  0  0  0  0  1  0  0  0  0  0  0
  -30.2160  -18.8200   17.5740 C   0  0  0  0  0  3  0  0  0  0  0  0
  -29.0780  -20.9020   17.6150 O   0  0  0  0  0  0  0  0  0  0  0  0
  -28.3800  -20.3690   17.2500 H   0  0  0  0  0  0  0  0  0  0  0  0
  2  3  1  1
  2  1  1  0
  4  6  1  0
  4  2  1  0
  6  5  1  0
  7  6  1  0
  8 19  2  0
  9  7  1  0
  9 14  1  0
 10 18  1  0
 10 20  1  0
 11 17  1  0
 11 13  1  0
 12 18  1  0
 13 12  1  0
 14 13  2  0
 15  9  2  0
 16 15  1  0
 16 11  2  0
 17 10  1  0
 18  8  1  0
 20 22  2  0
 21 20  1  0
 23 21  1  0
 24 33  2  0
 24 29  1  0
 25 21  1  0
 25 29  1  0
 26 25  1  0
 27 28  1  0
 27 26  1  0
 28 24  1  0
 29 30  2  0
 30 31  1  0
 32 31  2  0
 33 32  1  0
 34  8  1  0
 34 35  1  0
 34 44  1  0
 35 38  1  0
 36 40  1  0
 36 35  1  0
 37 36  2  0
 40 39  1  0
 42 40  1  0
 42 43  1  0
 42 41  1  0
 44 47  1  1
 44 45  1  0
 46 44  1  0
 48 49  1  0
 48  2  1  0
 50 58  1  0
 51 56  1  0
 52 53  1  0
 52 51  1  0
 54 53  1  0
 54 63  1  0
 54 55  1  0
 56 50  1  0
 56 55  1  0
 57 50  2  0
 58 49  1  0
 59 58  1  0
 60 61  2  0
 61 80  1  0
 62 61  1  0
 62 65  1  0
 63 64  1  0
 63 60  1  0
 64 62  2  0
 65 66  1  0
 66 67  2  0
 68 71  1  0
 68 67  1  0
 69 68  2  0
 70 69  1  0
 70 65  2  0
 71 72  1  0
 72 73  1  0
 73 74  2  0
 75 74  1  0
 75 79  1  0
 76 75  2  0
 77 72  2  0
 77 76  1  0
 78 77  1  0
 80 81  1  0
 81 84  1  0
 81 83  1  0
 82 80  2  0
 85 86  1  0
 85 60  1  0
 87 85  1  0
 88 91  1  0
 88 48  1  0
 89 91  1  0
 90 91  1  0
 92 88  1  0
 93 92  1  0
M  ISO  4   6 101   7 101  50 100  58 100
M  END
>  <TORSDO>  (2) 
F 23

>  <SCORE>  (2) 
-15.565

>  <name>  (2) 
1

>  <ligand_id>  (2) 
1

>  <original_smiles>  (2) 
[H]OC([H])(C([H])(C([H])([H])[H])C([H])([H])[H])C([H])(C([H])([H])N([H])C(=O)N1C([H])([H])C([H])([H])C([H])([H])C([H])(n2nc(-c3c([H])c([H])c(Oc4c([H])c([H])c(F)c([H])c4F)c([H])c3[H])c(C(=O)N([H])[H])c2N([H])[H])C1([H])[H])[N+]([H])(C([H])([H])[H])C([H])([H])C([H])(Oc1c([H])c([H])c2c(c1[H])C([H])([H])N(C(=O)C([H])(N([H])C(=O)C([H])(N([H])C([H])([H])[H])C([H])([H])[H])C(C([H])([H])[H])(C([H])([H])[H])C([H])([H])[H])C([H])(C(=O)N([H])C1([H])c3c([H])c([H])c([H])c([H])c3C([H])([H])C([H])([H])C1([H])[H])C2([H])[H])C([H])([H])[H]

>  <smiles>  (2) 
[H]OC([H])(C([H])(C([H])([H])[H])C([H])([H])[H])C([H])(C([H])([H])N([H])C(=O)N1C([H])([H])C([H])([H])C([H])([H])C([H])(n2nc(-c3c([H])c([H])c(Oc4c([H])c([H])c(F)c([H])c4F)c([H])c3[H])c(C(=O)N([H])[H])c2N([H])[H])C1([H])[H])[N+]([H])(C([H])([H])[H])C([H])([H])C([H])(Oc1c([H])c([H])c2c(c1[H])C([H])([H])N(C(=O)C([H])(N([H])C(=O)C([H])(N([H])C([H])([H])[H])C([H])([H])[H])C(C([H])([H])[H])(C([H])([H])[H])C([H])([H])[H])C([H])(C(=O)N([H])C1([H])c3c([H])c([H])c([H])c([H])c3C([H])([H])C([H])([H])C1([H])[H])C2([H])[H])C([H])([H])[H]

$$$$
2:0:0
     RDKit          3D

 97105  0  0  1  0  0  0  0  0999 V2000
  -30.7230  -21.3380   20.4990 C   0  0  0  0  0  2  0  0  0  0  0  0
  -29.9760  -22.5330   20.9760 N   0  0  0  0  0  4  0  0  0  0  0  0
  -29.0130  -22.3030   21.1540 H   0  0  0  0  0  0  0  0  0  0  0  0
  -30.3780  -22.7730   21.8690 H   0  0  0  0  0  0  0  0  0  0  0  0
  -30.0190  -23.7690   20.1600 C   0  0  0  0  0  2  0  0  0  0  0  0
  -27.5080  -24.1080   20.6180 C   0  0  0  0  0  1  0  0  0  0  0  0
  -28.6390  -24.1440   19.5620 C   0  0  0  0  0  3  0  0  0  0  0  0
  -28.7000  -25.4990   18.8080 C   0  0  0  0  0  2  0  0  0  0  0  0
  -28.5490  -26.6420   19.6680 O   0  0  0  0  0  0  0  0  0  0  0  0
  -24.6740  -31.5510   23.0830 C   0  0  0  0  0  0  0  0  0  0  0  0
  -27.3410  -27.3180   19.7210 C   0  0  0  0  0  0  0  0  0  0  0  0
  -23.4750  -30.2540   21.3540 C   0  0  0  0  0  3  0  0  0  0  0  0
  -24.9290  -28.8040   19.8530 C   0  0  0  0  0  0  0  0  0  0  0  0
  -26.0030  -30.6280   21.1810 C   0  0  0  0  0  2  0  0  0  0  0  0
  -26.0880  -29.2950   20.4650 C   0  0  0  0  0  0  0  0  0  0  0  0
  -27.2930  -28.5580   20.4030 C   0  0  0  0  0  3  0  0  0  0  0  0
  -26.1450  -26.8310   19.1350 C   0  0  0  0  0  3  0  0  0  0  0  0
  -24.9490  -27.5640   19.1980 C   0  0  0  0  0  3  0  0  0  0  0  0
  -23.6890  -29.6610   19.9380 C   0  0  0  0  0  2  0  0  0  0  0  0
  -24.7360  -30.8240   21.9300 N   0  0  0  0  0  0  0  0  0  0  0  0
  -23.5920  -31.7880   23.6370 O   0  0  0  0  0  0  0  0  0  0  0  0
  -22.8240  -29.1730   22.2470 C   0  0  0  0  0  0  0  0  0  0  0  0
  -21.4930  -29.0290   22.1400 N   0  0  0  0  0  0  0  0  0  0  0  0
  -23.5120  -28.4720   22.9960 O   0  0  0  0  0  0  0  0  0  0  0  0
  -21.0010  -29.6500   21.5140 H   0  0  0  0  0  0  0  0  0  0  0  0
  -18.0990  -27.9150   22.6670 C   0  0  0  0  0  0  0  0  0  0  0  0
  -20.6740  -28.0520   22.8540 C   0  0  0  0  0  3  0  0  0  0  0  0
  -20.6960  -26.6790   22.1440 C   0  0  0  0  0  2  0  0  0  0  0  0
  -19.5430  -26.4920   21.1540 C   0  0  0  0  0  2  0  0  0  0  0  0
  -18.1950  -26.6280   21.8670 C   0  0  0  0  0  2  0  0  0  0  0  0
  -19.2630  -28.5910   23.1180 C   0  0  0  0  0  0  0  0  0  0  0  0
  -19.1160  -29.8030   23.8280 C   0  0  0  0  0  3  0  0  0  0  0  0
  -17.8390  -30.3320   24.0940 C   0  0  0  0  0  3  0  0  0  0  0  0
  -16.6910  -29.6500   23.6550 C   0  0  0  0  0  3  0  0  0  0  0  0
  -16.8230  -28.4430   22.9470 C   0  0  0  0  0  3  0  0  0  0  0  0
  -25.9580  -32.1440   23.7450 C   0  0  0  0  0  3  0  0  0  0  0  0
  -26.4770  -31.2910   24.9660 C   0  0  1  0  0  0  0  0  0  0  0  0
  -25.3850  -30.9810   26.0140 C   0  0  0  0  0  1  0  0  0  0  0  0
  -27.0580  -29.9440   24.4780 C   0  0  0  0  0  1  0  0  0  0  0  0
  -27.6260  -32.0390   25.6840 C   0  0  0  0  0  1  0  0  0  0  0  0
  -25.6460  -33.5170   24.1640 N   0  0  0  0  0  0  0  0  0  0  0  0
  -25.9790  -34.6170   23.4760 C   0  0  0  0  0  0  0  0  0  0  0  0
  -26.6550  -34.5810   22.4440 O   0  0  0  0  0  0  0  0  0  0  0  0
  -25.0460  -33.6200   24.9680 H   0  0  0  0  0  0  0  0  0  0  0  0
  -24.2540  -36.4280   23.2230 C   0  0  0  0  0  1  0  0  0  0  0  0
  -25.4850  -35.9690   24.0200 C   0  0  0  0  0  3  0  0  0  0  0  0
  -27.6080  -36.7990   24.9340 C   0  0  0  0  0  1  0  0  0  0  0  0
  -26.5160  -37.0280   23.9910 N   0  0  0  0  0  0  0  0  0  0  0  0
  -26.1070  -37.9360   24.1950 H   0  0  0  0  0  0  0  0  0  0  0  0
  -30.4160  -20.8980   19.0480 C   0  0  0  0  0  2  0  0  0  0  0  0
  -30.2380  -18.9390   17.3810 C   0  0  0  0  0  1  0  0  0  0  0  0
  -30.5770  -19.3710   18.8200 C   0  0  0  0  0  3  0  0  0  0  0  0
  -31.1880  -14.3160   20.0540 C   0  0  0  0  0  0  0  0  0  0  0  0
  -30.7220  -12.2780   18.7410 C   0  0  0  0  0  2  0  0  0  0  0  0
  -29.7300  -12.6050   17.6070 C   0  0  0  0  0  2  0  0  0  0  0  0
  -28.2730  -12.5140   18.0990 C   0  0  0  0  0  2  0  0  0  0  0  0
  -28.0420  -13.2980   19.4160 C   0  0  0  0  0  3  0  0  0  0  0  0
  -29.1230  -12.9270   20.4520 C   0  0  0  0  0  2  0  0  0  0  0  0
  -30.4530  -13.1870   19.8630 N   0  0  0  0  0  0  0  0  0  0  0  0
  -32.1960  -14.5890   19.3930 O   0  0  0  0  0  0  0  0  0  0  0  0
  -28.2540  -17.7170   21.4700 C   0  0  0  0  0  3  0  0  0  0  0  0
  -29.0160  -16.5630   21.6800 C   0  0  0  0  0  3  0  0  0  0  0  0
  -28.6780  -18.6600   20.5120 C   0  0  0  0  0  0  0  0  0  0  0  0
  -29.9220  -18.4370   19.8580 C   0  0  0  0  0  0  0  0  0  0  0  0
  -30.1720  -16.3500   20.9150 C   0  0  0  0  0  0  0  0  0  0  0  0
  -27.7330  -19.8110   20.2090 C   0  0  0  0  0  1  0  0  0  0  0  0
  -30.6250  -17.2980   20.0630 N   0  0  0  0  0  0  0  0  0  0  0  0
  -30.7610  -15.0770   21.0710 N   0  0  0  0  0  0  0  0  0  0  0  0
  -30.2570  -14.5150   21.7370 H   0  0  0  0  0  0  0  0  0  0  0  0
  -25.6850  -14.0020   20.1850 C   0  0  0  0  0  0  0  0  0  0  0  0
  -24.6000  -13.2720   20.5950 C   0  0  0  0  0  0  0  0  0  0  0  0
  -25.0090  -11.9030   20.5600 C   0  0  0  0  0  0  0  0  0  0  0  0
  -26.6910  -13.0800   19.9340 N   0  0  0  0  0  0  0  0  0  0  0  0
  -26.2860  -11.8140   20.2090 N   0  0  0  0  0  0  0  0  0  0  0  0
  -24.2450  -10.6700   20.7890 C   0  0  0  0  0  0  0  0  0  0  0  0
  -24.6630   -9.7100   21.7360 C   0  0  0  0  0  3  0  0  0  0  0  0
  -23.9030   -8.5390   21.9490 C   0  0  0  0  0  3  0  0  0  0  0  0
  -22.7110   -8.3220   21.2170 C   0  0  0  0  0  0  0  0  0  0  0  0
  -22.3130   -9.2720   20.2590 C   0  0  0  0  0  3  0  0  0  0  0  0
  -23.0740  -10.4330   20.0440 C   0  0  0  0  0  3  0  0  0  0  0  0
  -21.9190   -7.2050   21.3390 O   0  0  0  0  0  0  0  0  0  0  0  0
  -21.8280   -6.5180   22.5220 C   0  0  0  0  0  0  0  0  0  0  0  0
  -21.4180   -7.1450   23.7210 C   0  0  0  0  0  3  0  0  0  0  0  0
  -21.2710   -6.3850   24.8980 C   0  0  0  0  0  3  0  0  0  0  0  0
  -21.5200   -4.9980   24.8780 C   0  0  0  0  0  0  0  0  0  0  0  0
  -21.9210   -4.3720   23.6850 C   0  0  0  0  0  3  0  0  0  0  0  0
  -22.0710   -5.1300   22.5110 C   0  0  0  0  0  0  0  0  0  0  0  0
  -22.4370   -4.5170   21.3590 F   0  0  0  0  0  0  0  0  0  0  0  0
  -21.3700   -4.2660   26.0080 F   0  0  0  0  0  0  0  0  0  0  0  0
  -23.2320  -13.8010   20.9170 C   0  0  0  0  0  0  0  0  0  0  0  0
  -22.5200  -13.1530   21.8330 N   0  0  0  0  0  0  0  0  0  0  0  0
  -22.8040  -14.8260   20.3880 O   0  0  0  0  0  0  0  0  0  0  0  0
  -22.8770  -12.3210   22.2810 H   0  0  0  0  0  0  0  0  0  0  0  0
  -21.6030  -13.4900   22.0900 H   0  0  0  0  0  0  0  0  0  0  0  0
  -25.8890  -15.3640   19.9950 N   0  0  0  0  0  0  0  0  0  0  0  0
  -25.1530  -16.0430   20.1460 H   0  0  0  0  0  0  0  0  0  0  0  0
  -26.7650  -15.7810   19.7030 H   0  0  0  0  0  0  0  0  0  0  0  0
  1  2  1  0
  2  3  1  0
  2  4  1  0
  5  2  1  0
  7  5  1  0
  7  6  1  0
  8  7  1  0
  8  9  1  0
  9 11  1  0
 10 21  2  0
 11 16  1  0
 12 20  1  0
 12 22  1  0
 13 19  1  0
 13 15  1  0
 14 20  1  0
 15 14  1  0
 16 15  2  0
 17 18  1  0
 17 11  2  0
 18 13  2  0
 19 12  1  0
 20 10  1  0
 22 24  2  0
 23 22  1  0
 25 23  1  0
 26 35  2  0
 26 31  1  0
 27 23  1  0
 27 31  1  0
 28 27  1  0
 29 30  1  0
 29 28  1  0
 30 26  1  0
 31 32  2  0
 32 33  1  0
 34 33  2  0
 35 34  1  0
 36 10  1  0
 36 41  1  0
 36 37  1  0
 37 40  1  1
 37 38  1  0
 39 37  1  0
 41 44  1  0
 42 46  1  0
 42 41  1  0
 43 42  2  0
 46 45  1  0
 48 46  1  0
 48 49  1  0
 48 47  1  0
 50  1  1  0
 52 51  1  0
 52 50  1  0
 52 64  1  0
 53 68  1  0
 54 59  1  0
 55 56  1  0
 55 54  1  0
 57 56  1  0
 57 73  1  0
 57 58  1  0
 59 53  1  0
 59 58  1  0
 60 53  2  0
 61 62  1  0
 63 61  2  0
 64 67  2  0
 64 63  1  0
 65 68  1  0
 65 62  2  0
 66 63  1  0
 67 65  1  0
 68 69  1  0
 70 71  2  0
 71 90  1  0
 72 71  1  0
 72 75  1  0
 73 70  1  0
 73 74  1  0
 74 72  2  0
 75 76  1  0
 76 77  2  0
 78 81  1  0
 78 77  1  0
 79 78  2  0
 80 79  1  0
 80 75  2  0
 81 82  1  0
 82 83  1  0
 83 84  2  0
 85 84  1  0
 85 89  1  0
 86 85  2  0
 87 82  2  0
 87 86  1  0
 88 87  1  0
 90 91  1  0
 91 94  1  0
 91 93  1  0
 92 90  2  0
 95 96  1  0
 95 70  1  0
 97 95  1  0
M  ISO  4   8 101   9 101  53 100  68 100
M  END
>  <TORSDO>  (3) 
F 22

>  <SCORE>  (3) 
-10.453

>  <name>  (3) 
2

>  <ligand_id>  (3) 
2

>  <original_smiles>  (3) 
[H]c1c(N([H])C(=O)N2C([H])([H])C([H])([H])C([H])([H])C([H])(n3nc(-c4c([H])c([H])c(Oc5c([H])c([H])c(F)c([H])c5F)c([H])c4[H])c(C(=O)N([H])[H])c3N([H])[H])C2([H])[H])nc(C([H])(C([H])([H])[H])C([H])([H])C([H])([H])[N+]([H])([H])C([H])([H])C([H])(C([H])([H])[H])C([H])([H])Oc2c([H])c([H])c3c(c2[H])C([H])([H])N(C(=O)C([H])(N([H])C(=O)C([H])(N([H])C([H])([H])[H])C([H])([H])[H])C(C([H])([H])[H])(C([H])([H])[H])C([H])([H])[H])C([H])(C(=O)N([H])C2([H])c4c([H])c([H])c([H])c([H])c4C([H])([H])C([H])([H])C2([H])[H])C3([H])[H])c(C([H])([H])[H])c1[H]

>  <smiles>  (3) 
[H]c1c(N([H])C(=O)N2C([H])([H])C([H])([H])C([H])([H])C([H])(n3nc(-c4c([H])c([H])c(Oc5c([H])c([H])c(F)c([H])c5F)c([H])c4[H])c(C(=O)N([H])[H])c3N([H])[H])C2([H])[H])nc(C([H])(C([H])([H])[H])C([H])([H])C([H])([H])[N+]([H])([H])C([H])([H])C([H])(C([H])([H])[H])C([H])([H])Oc2c([H])c([H])c3c(c2[H])C([H])([H])N(C(=O)C([H])(N([H])C(=O)C([H])(N([H])C([H])([H])[H])C([H])([H])[H])C(C([H])([H])[H])(C([H])([H])[H])C([H])([H])[H])C([H])(C(=O)N([H])C2([H])c4c([H])c([H])c([H])c([H])c4C([H])([H])C([H])([H])C2([H])[H])C3([H])[H])c(C([H])([H])[H])c1[H]

$$$$
3:0:0
     RDKit          3D

 91 99  0  0  1  0  0  0  0  0999 V2000
  -30.3380  -21.0180   19.6910 C   0  0  0  0  0  2  0  0  0  0  0  0
  -29.8510  -17.2310   19.3070 C   0  0  0  0  0  2  0  0  0  0  0  0
  -29.9970  -17.7270   21.7160 C   0  0  0  0  0  2  0  0  0  0  0  0
  -30.2290  -18.6890   18.9790 C   0  0  0  0  0  2  0  0  0  0  0  0
  -30.3060  -19.2130   21.3970 C   0  0  0  0  0  2  0  0  0  0  0  0
  -30.5240  -16.7670   20.6170 C   0  0  0  0  0  3  0  0  0  0  0  0
  -29.8480  -19.6550   20.0480 N   0  0  1  0  0  4  0  0  0  0  0  0
  -28.8380  -19.6900   20.0570 H   0  0  0  0  0  0  0  0  0  0  0  0
  -30.7820  -14.3880   19.9870 C   0  0  0  0  0  0  0  0  0  0  0  0
  -30.2460  -12.3730   18.6560 C   0  0  0  0  0  2  0  0  0  0  0  0
  -29.2120  -12.7070   17.5640 C   0  0  0  0  0  2  0  0  0  0  0  0
  -27.7840  -12.5390   18.1170 C   0  0  0  0  0  2  0  0  0  0  0  0
  -27.5820  -13.2870   19.4600 C   0  0  0  0  0  3  0  0  0  0  0  0
  -28.7240  -12.9740   20.4480 C   0  0  0  0  0  2  0  0  0  0  0  0
  -30.0110  -13.2790   19.7950 N   0  0  0  0  0  0  0  0  0  0  0  0
  -31.7650  -14.6330   19.2780 O   0  0  0  0  0  0  0  0  0  0  0  0
  -30.5350  -14.9340   22.3000 C   0  0  0  0  0  1  0  0  0  0  0  0
  -30.3420  -15.3070   20.8910 N   0  0  0  0  0  0  0  0  0  0  0  0
  -25.2540  -13.8670   20.3900 C   0  0  0  0  0  0  0  0  0  0  0  0
  -24.2240  -13.0820   20.8320 C   0  0  0  0  0  0  0  0  0  0  0  0
  -24.6830  -11.7340   20.7300 C   0  0  0  0  0  0  0  0  0  0  0  0
  -26.2750  -12.9970   20.0470 N   0  0  0  0  0  0  0  0  0  0  0  0
  -25.9410  -11.7060   20.3090 N   0  0  0  0  0  0  0  0  0  0  0  0
  -23.9780  -10.4650   20.9530 C   0  0  0  0  0  0  0  0  0  0  0  0
  -24.4800   -9.4870   21.8420 C   0  0  0  0  0  3  0  0  0  0  0  0
  -23.7760   -8.2830   22.0540 C   0  0  0  0  0  3  0  0  0  0  0  0
  -22.5550   -8.0460   21.3770 C   0  0  0  0  0  0  0  0  0  0  0  0
  -22.0710   -9.0120   20.4770 C   0  0  0  0  0  3  0  0  0  0  0  0
  -22.7750  -10.2080   20.2640 C   0  0  0  0  0  3  0  0  0  0  0  0
  -21.8170   -6.8940   21.4990 O   0  0  0  0  0  0  0  0  0  0  0  0
  -21.8390   -6.1440   22.6470 C   0  0  0  0  0  0  0  0  0  0  0  0
  -21.4970   -6.6950   23.9020 C   0  0  0  0  0  3  0  0  0  0  0  0
  -21.4640   -5.8720   25.0460 C   0  0  0  0  0  3  0  0  0  0  0  0
  -21.7620   -4.5000   24.9370 C   0  0  0  0  0  0  0  0  0  0  0  0
  -22.0990   -3.9500   23.6880 C   0  0  0  0  0  3  0  0  0  0  0  0
  -22.1330   -4.7690   22.5460 C   0  0  0  0  0  0  0  0  0  0  0  0
  -22.4370   -4.2310   21.3410 F   0  0  0  0  0  0  0  0  0  0  0  0
  -21.7220   -3.7080   26.0330 F   0  0  0  0  0  0  0  0  0  0  0  0
  -22.8540  -13.5470   21.2370 C   0  0  0  0  0  0  0  0  0  0  0  0
  -22.2160  -12.8430   22.1650 N   0  0  0  0  0  0  0  0  0  0  0  0
  -22.3610  -14.5710   20.7640 O   0  0  0  0  0  0  0  0  0  0  0  0
  -22.6290  -12.0150   22.5690 H   0  0  0  0  0  0  0  0  0  0  0  0
  -21.3040  -13.1390   22.4810 H   0  0  0  0  0  0  0  0  0  0  0  0
  -25.3980  -15.2430   20.2340 N   0  0  0  0  0  0  0  0  0  0  0  0
  -24.6390  -15.8880   20.4230 H   0  0  0  0  0  0  0  0  0  0  0  0
  -26.2250  -15.6980   19.8710 H   0  0  0  0  0  0  0  0  0  0  0  0
  -29.6050  -22.2130   20.3460 C   0  0  0  0  0  2  0  0  0  0  0  0
  -30.2940  -23.5300   19.9210 C   0  0  0  0  0  2  0  0  0  0  0  0
  -29.7970  -24.8260   20.5840 C   0  0  0  0  0  2  0  0  0  0  0  0
  -28.4310  -25.3360   20.0960 C   0  0  0  0  0  2  0  0  0  0  0  0
  -28.4570  -26.7550   20.2220 O   0  0  0  0  0  0  0  0  0  0  0  0
  -24.6540  -31.9040   23.2290 C   0  0  0  0  0  0  0  0  0  0  0  0
  -27.2660  -27.4410   20.1860 C   0  0  0  0  0  0  0  0  0  0  0  0
  -23.4330  -30.4920   21.6060 C   0  0  0  0  0  3  0  0  0  0  0  0
  -24.8720  -28.9370   20.1840 C   0  0  0  0  0  0  0  0  0  0  0  0
  -25.9550  -30.8460   21.3890 C   0  0  0  0  0  2  0  0  0  0  0  0
  -26.0310  -29.4720   20.7590 C   0  0  0  0  0  0  0  0  0  0  0  0
  -27.2310  -28.7310   20.7520 C   0  0  0  0  0  3  0  0  0  0  0  0
  -26.0900  -26.9110   19.6060 C   0  0  0  0  0  3  0  0  0  0  0  0
  -24.8940  -27.6570   19.6040 C   0  0  0  0  0  3  0  0  0  0  0  0
  -23.6300  -29.7960   20.2310 C   0  0  0  0  0  2  0  0  0  0  0  0
  -24.7000  -31.0960   22.1330 N   0  0  0  0  0  0  0  0  0  0  0  0
  -23.5780  -32.1870   23.7720 O   0  0  0  0  0  0  0  0  0  0  0  0
  -22.7850  -29.4830   22.5800 C   0  0  0  0  0  0  0  0  0  0  0  0
  -21.4610  -29.3050   22.4570 N   0  0  0  0  0  0  0  0  0  0  0  0
  -23.4700  -28.8610   23.3970 O   0  0  0  0  0  0  0  0  0  0  0  0
  -20.9730  -29.8570   21.7650 H   0  0  0  0  0  0  0  0  0  0  0  0
  -18.0810  -28.1390   22.9770 C   0  0  0  0  0  0  0  0  0  0  0  0
  -20.6400  -28.3790   23.2370 C   0  0  0  0  0  3  0  0  0  0  0  0
  -20.7310  -26.9450   22.6680 C   0  0  0  0  0  2  0  0  0  0  0  0
  -19.6230  -26.6230   21.6610 C   0  0  0  0  0  2  0  0  0  0  0  0
  -18.2440  -26.7840   22.3100 C   0  0  0  0  0  2  0  0  0  0  0  0
  -19.2070  -28.8950   23.3980 C   0  0  0  0  0  0  0  0  0  0  0  0
  -19.0010  -30.1640   23.9800 C   0  0  0  0  0  3  0  0  0  0  0  0
  -17.7010  -30.6780   24.1470 C   0  0  0  0  0  3  0  0  0  0  0  0
  -16.5900  -29.9180   23.7440 C   0  0  0  0  0  3  0  0  0  0  0  0
  -16.7800  -28.6510   23.1640 C   0  0  0  0  0  3  0  0  0  0  0  0
  -25.9480  -32.5320   23.8380 C   0  0  0  0  0  3  0  0  0  0  0  0
  -25.6400  -33.9270   24.1790 N   0  0  0  0  0  0  0  0  0  0  0  0
  -25.9700  -34.9850   23.4250 C   0  0  0  0  0  0  0  0  0  0  0  0
  -26.6380  -34.8890   22.3930 O   0  0  0  0  0  0  0  0  0  0  0  0
  -25.0470  -34.0740   24.9830 H   0  0  0  0  0  0  0  0  0  0  0  0
  -24.2450  -36.7800   23.0830 C   0  0  0  0  0  1  0  0  0  0  0  0
  -25.4830  -36.3690   23.8940 C   0  0  0  0  0  3  0  0  0  0  0  0
  -27.6200  -37.2420   24.7320 C   0  0  0  0  0  1  0  0  0  0  0  0
  -26.5180  -37.4210   23.7910 N   0  0  0  0  0  0  0  0  0  0  0  0
  -26.1140  -38.3420   23.9410 H   0  0  0  0  0  0  0  0  0  0  0  0
  -26.4840  -31.7510   25.1000 C   0  0  1  0  0  0  0  0  0  0  0  0
  -25.4060  -31.5020   26.1800 C   0  0  0  0  0  1  0  0  0  0  0  0
  -27.0660  -30.3780   24.6870 C   0  0  0  0  0  1  0  0  0  0  0  0
  -27.6420  -32.5440   25.7510 C   0  0  0  0  0  1  0  0  0  0  0  0
  1  7  1  0
  1 47  1  0
  2  6  1  0
  4  2  1  0
  4  7  1  0
  5  3  1  0
  6 18  1  0
  6  3  1  0
  7  8  1  1
  7  5  1  0
  9 18  1  0
 10 15  1  0
 11 12  1  0
 11 10  1  0
 13 12  1  0
 13 22  1  0
 13 14  1  0
 15  9  1  0
 15 14  1  0
 16  9  2  0
 18 17  1  0
 19 20  2  0
 20 39  1  0
 21 20  1  0
 21 24  1  0
 22 23  1  0
 22 19  1  0
 23 21  2  0
 24 25  1  0
 25 26  2  0
 27 30  1  0
 27 26  1  0
 28 27  2  0
 29 28  1  0
 29 24  2  0
 30 31  1  0
 31 32  1  0
 32 33  2  0
 34 33  1  0
 34 38  1  0
 35 34  2  0
 36 31  2  0
 36 35  1  0
 37 36  1  0
 39 40  1  0
 40 43  1  0
 40 42  1  0
 41 39  2  0
 44 19  1  0
 44 45  1  0
 46 44  1  0
 48 47  1  0
 48 49  1  0
 50 51  1  0
 50 49  1  0
 52 63  2  0
 53 51  1  0
 53 58  1  0
 54 62  1  0
 54 64  1  0
 55 61  1  0
 55 57  1  0
 56 62  1  0
 57 56  1  0
 58 57  2  0
 59 53  2  0
 60 59  1  0
 60 55  2  0
 61 54  1  0
 62 52  1  0
 64 66  2  0
 65 64  1  0
 67 65  1  0
 68 77  2  0
 68 73  1  0
 69 65  1  0
 69 73  1  0
 70 69  1  0
 71 72  1  0
 71 70  1  0
 72 68  1  0
 73 74  2  0
 74 75  1  0
 76 75  2  0
 77 76  1  0
 78 52  1  0
 78 79  1  0
 78 88  1  0
 79 82  1  0
 80 84  1  0
 80 79  1  0
 81 80  2  0
 84 83  1  0
 86 84  1  0
 86 87  1  0
 86 85  1  0
 88 91  1  1
 88 89  1  0
 90 88  1  0
M  ISO  4   9 100  18 100  50 101  51 101
M  END
>  <TORSDO>  (4) 
F 21

>  <SCORE>  (4) 
-11.832

>  <name>  (4) 
3

>  <ligand_id>  (4) 
3

>  <original_smiles>  (4) 
[H]c1c([H])c([H])c2c(c1[H])C([H])([H])C([H])([H])C([H])([H])C2([H])N([H])C(=O)C1([H])N(C(=O)C([H])(N([H])C(=O)C([H])(N([H])C([H])([H])[H])C([H])([H])[H])C(C([H])([H])[H])(C([H])([H])[H])C([H])([H])[H])C([H])([H])c2c([H])c(OC([H])([H])C([H])([H])C([H])([H])C([H])([H])C([H])([H])[N+]3([H])C([H])([H])C([H])([H])C([H])(N(C(=O)N4C([H])([H])C([H])([H])C([H])([H])C([H])(n5nc(-c6c([H])c([H])c(Oc7c([H])c([H])c(F)c([H])c7F)c([H])c6[H])c(C(=O)N([H])[H])c5N([H])[H])C4([H])[H])C([H])([H])[H])C([H])([H])C3([H])[H])c([H])c([H])c2C1([H])[H]

>  <smiles>  (4) 
[H]c1c([H])c([H])c2c(c1[H])C([H])([H])C([H])([H])C([H])([H])C2([H])N([H])C(=O)C1([H])N(C(=O)C([H])(N([H])C(=O)C([H])(N([H])C([H])([H])[H])C([H])([H])[H])C(C([H])([H])[H])(C([H])([H])[H])C([H])([H])[H])C([H])([H])c2c([H])c(OC([H])([H])C([H])([H])C([H])([H])C([H])([H])C([H])([H])[N+]3([H])C([H])([H])C([H])([H])C([H])(N(C(=O)N4C([H])([H])C([H])([H])C([H])([H])C([H])(n5nc(-c6c([H])c([H])c(Oc7c([H])c([H])c(F)c([H])c7F)c([H])c6[H])c(C(=O)N([H])[H])c5N([H])[H])C4([H])[H])C([H])([H])[H])C([H])([H])C3([H])[H])c([H])c([H])c2C1([H])[H]

$$$$
4:0:0
     RDKit          3D

 90 98  0  0  1  0  0  0  0  0999 V2000
  -29.3710  -22.9860   21.3060 C   0  0  0  0  0  3  0  0  0  0  0  0
  -29.6190  -21.6300   21.3080 C   0  0  0  0  0  0  0  0  0  0  0  0
  -30.4140  -20.9870   22.4450 C   0  0  0  0  0  1  0  0  0  0  0  0
  -30.3250  -19.7840   19.6410 C   0  0  0  0  0  2  0  0  0  0  0  0
  -28.6440  -19.2530   20.7010 C   0  0  0  0  0  2  0  0  0  0  0  0
  -29.9620  -18.4830   20.4100 C   0  0  0  0  0  3  0  0  0  0  0  0
  -29.2380  -20.5530   20.2790 N   0  0  1  0  0  4  0  0  0  0  0  0
  -28.6560  -20.9610   19.5610 H   0  0  0  0  0  0  0  0  0  0  0  0
  -30.0660  -17.1060   19.6400 C   0  0  0  0  0  2  0  0  0  0  0  0
  -30.6420  -14.6710   20.1100 C   0  0  0  0  0  0  0  0  0  0  0  0
  -30.3090  -12.4540   19.0640 C   0  0  0  0  0  2  0  0  0  0  0  0
  -29.3350  -12.6470   17.8830 C   0  0  0  0  0  2  0  0  0  0  0  0
  -27.8800  -12.4830   18.3660 C   0  0  0  0  0  2  0  0  0  0  0  0
  -27.5780  -13.3440   19.6220 C   0  0  0  0  0  3  0  0  0  0  0  0
  -28.6770  -13.1910   20.7020 C   0  0  0  0  0  2  0  0  0  0  0  0
  -29.9740  -13.4790   20.0750 N   0  0  0  0  0  0  0  0  0  0  0  0
  -31.7960  -14.7680   19.6860 O   0  0  0  0  0  0  0  0  0  0  0  0
  -29.9010  -15.7940   20.3540 N   0  0  0  0  0  0  0  0  0  0  0  0
  -28.9870  -15.6160   20.7380 H   0  0  0  0  0  0  0  0  0  0  0  0
  -25.2190  -13.9590   20.4260 C   0  0  0  0  0  0  0  0  0  0  0  0
  -24.1620  -13.1930   20.8320 C   0  0  0  0  0  0  0  0  0  0  0  0
  -24.6110  -11.8370   20.7840 C   0  0  0  0  0  0  0  0  0  0  0  0
  -26.2490  -13.0710   20.1580 N   0  0  0  0  0  0  0  0  0  0  0  0
  -25.8920  -11.7900   20.4350 N   0  0  0  0  0  0  0  0  0  0  0  0
  -23.8830  -10.5800   20.9960 C   0  0  0  0  0  0  0  0  0  0  0  0
  -24.3440   -9.6040   21.9090 C   0  0  0  0  0  3  0  0  0  0  0  0
  -23.6150   -8.4110   22.1050 C   0  0  0  0  0  3  0  0  0  0  0  0
  -22.4130   -8.1870   21.3920 C   0  0  0  0  0  0  0  0  0  0  0  0
  -21.9740   -9.1510   20.4660 C   0  0  0  0  0  3  0  0  0  0  0  0
  -22.7030  -10.3360   20.2670 C   0  0  0  0  0  3  0  0  0  0  0  0
  -21.6490   -7.0500   21.5010 O   0  0  0  0  0  0  0  0  0  0  0  0
  -21.6380   -6.2980   22.6490 C   0  0  0  0  0  0  0  0  0  0  0  0
  -21.2670   -6.8480   23.8960 C   0  0  0  0  0  3  0  0  0  0  0  0
  -21.2050   -6.0240   25.0380 C   0  0  0  0  0  3  0  0  0  0  0  0
  -21.5020   -4.6510   24.9340 C   0  0  0  0  0  0  0  0  0  0  0  0
  -21.8650   -4.1010   23.6930 C   0  0  0  0  0  3  0  0  0  0  0  0
  -21.9300   -4.9210   22.5530 C   0  0  0  0  0  0  0  0  0  0  0  0
  -22.2620   -4.3840   21.3540 F   0  0  0  0  0  0  0  0  0  0  0  0
  -21.4320   -3.8560   26.0280 F   0  0  0  0  0  0  0  0  0  0  0  0
  -22.7790  -13.6790   21.1460 C   0  0  0  0  0  0  0  0  0  0  0  0
  -22.0730  -12.9890   22.0340 N   0  0  0  0  0  0  0  0  0  0  0  0
  -22.3340  -14.7080   20.6380 O   0  0  0  0  0  0  0  0  0  0  0  0
  -22.4430  -12.1580   22.4710 H   0  0  0  0  0  0  0  0  0  0  0  0
  -21.1450  -13.3030   22.2820 H   0  0  0  0  0  0  0  0  0  0  0  0
  -25.3900  -15.3300   20.2400 N   0  0  0  0  0  0  0  0  0  0  0  0
  -24.6170  -15.9820   20.3320 H   0  0  0  0  0  0  0  0  0  0  0  0
  -26.2220  -15.7610   19.8580 H   0  0  0  0  0  0  0  0  0  0  0  0
  -28.6830  -23.9910   20.3360 C   0  0  0  0  0  2  0  0  0  0  0  0
  -28.3120  -25.3860   21.0050 C   0  0  0  0  0  2  0  0  0  0  0  0
  -28.3880  -26.6080   20.2030 O   0  0  0  0  0  0  0  0  0  0  0  0
  -24.6050  -31.9100   23.2540 C   0  0  0  0  0  0  0  0  0  0  0  0
  -27.2590  -27.4170   20.1970 C   0  0  0  0  0  0  0  0  0  0  0  0
  -23.4160  -30.5050   21.6040 C   0  0  0  0  0  3  0  0  0  0  0  0
  -24.8800  -28.9670   20.1840 C   0  0  0  0  0  0  0  0  0  0  0  0
  -25.9480  -30.8570   21.4240 C   0  0  0  0  0  2  0  0  0  0  0  0
  -26.0390  -29.4830   20.7770 C   0  0  0  0  0  0  0  0  0  0  0  0
  -27.2390  -28.7200   20.7680 C   0  0  0  0  0  3  0  0  0  0  0  0
  -26.0830  -26.9310   19.5950 C   0  0  0  0  0  3  0  0  0  0  0  0
  -24.8990  -27.6960   19.5860 C   0  0  0  0  0  3  0  0  0  0  0  0
  -23.6390  -29.8310   20.2240 C   0  0  0  0  0  2  0  0  0  0  0  0
  -24.6750  -31.1060   22.1520 N   0  0  0  0  0  0  0  0  0  0  0  0
  -23.5190  -32.1780   23.7880 O   0  0  0  0  0  0  0  0  0  0  0  0
  -22.7600  -29.4830   22.5630 C   0  0  0  0  0  0  0  0  0  0  0  0
  -21.4340  -29.3080   22.4450 N   0  0  0  0  0  0  0  0  0  0  0  0
  -23.4470  -28.8510   23.3710 O   0  0  0  0  0  0  0  0  0  0  0  0
  -20.9430  -29.8790   21.7720 H   0  0  0  0  0  0  0  0  0  0  0  0
  -18.0580  -28.1060   22.9370 C   0  0  0  0  0  0  0  0  0  0  0  0
  -20.6170  -28.3640   23.2080 C   0  0  0  0  0  3  0  0  0  0  0  0
  -20.7190  -26.9340   22.6270 C   0  0  0  0  0  2  0  0  0  0  0  0
  -19.6160  -26.6130   21.6150 C   0  0  0  0  0  2  0  0  0  0  0  0
  -18.2340  -26.7580   22.2570 C   0  0  0  0  0  2  0  0  0  0  0  0
  -19.1770  -28.8660   23.3720 C   0  0  0  0  0  0  0  0  0  0  0  0
  -18.9590  -30.1270   23.9670 C   0  0  0  0  0  3  0  0  0  0  0  0
  -17.6540  -30.6270   24.1360 C   0  0  0  0  0  3  0  0  0  0  0  0
  -16.5510  -29.8650   23.7170 C   0  0  0  0  0  3  0  0  0  0  0  0
  -16.7520  -28.6070   23.1220 C   0  0  0  0  0  3  0  0  0  0  0  0
  -25.8850  -32.5460   23.8800 C   0  0  0  0  0  3  0  0  0  0  0  0
  -26.3920  -31.7850   25.1660 C   0  0  1  0  0  0  0  0  0  0  0  0
  -25.2900  -31.5610   26.2280 C   0  0  0  0  0  1  0  0  0  0  0  0
  -26.9760  -30.4060   24.7820 C   0  0  0  0  0  1  0  0  0  0  0  0
  -27.5420  -32.5840   25.8260 C   0  0  0  0  0  1  0  0  0  0  0  0
  -25.5760  -33.9470   24.2000 N   0  0  0  0  0  0  0  0  0  0  0  0
  -25.9180  -34.9940   23.4380 C   0  0  0  0  0  0  0  0  0  0  0  0
  -26.5940  -34.8850   22.4120 O   0  0  0  0  0  0  0  0  0  0  0  0
  -24.9730  -34.1100   24.9930 H   0  0  0  0  0  0  0  0  0  0  0  0
  -24.1960  -36.7880   23.0620 C   0  0  0  0  0  1  0  0  0  0  0  0
  -25.4300  -36.3870   23.8830 C   0  0  0  0  0  3  0  0  0  0  0  0
  -27.5630  -37.2710   24.7220 C   0  0  0  0  0  1  0  0  0  0  0  0
  -26.4670  -37.4370   23.7710 N   0  0  0  0  0  0  0  0  0  0  0  0
  -26.0610  -38.3570   23.9140 H   0  0  0  0  0  0  0  0  0  0  0  0
  1  2  2  0
  2  3  1  0
  4  7  1  0
  4  6  1  0
  6  9  1  0
  6  5  1  0
  7  5  1  0
  7  2  1  0
  7  8  1  6
  9 18  1  0
 10 18  1  0
 11 16  1  0
 12 13  1  0
 12 11  1  0
 14 13  1  0
 14 23  1  0
 14 15  1  0
 16 10  1  0
 16 15  1  0
 17 10  2  0
 18 19  1  0
 20 21  2  0
 21 40  1  0
 22 21  1  0
 22 25  1  0
 23 20  1  0
 23 24  1  0
 24 22  2  0
 25 26  1  0
 26 27  2  0
 28 31  1  0
 28 27  1  0
 29 28  2  0
 30 29  1  0
 30 25  2  0
 31 32  1  0
 32 33  1  0
 33 34  2  0
 35 34  1  0
 35 39  1  0
 36 35  2  0
 37 32  2  0
 37 36  1  0
 38 37  1  0
 40 41  1  0
 41 44  1  0
 41 43  1  0
 42 40  2  0
 45 46  1  0
 45 20  1  0
 47 45  1  0
 48 49  1  0
 48  1  1  0
 50 49  1  0
 51 62  2  0
 52 50  1  0
 52 57  1  0
 53 61  1  0
 53 63  1  0
 54 60  1  0
 54 56  1  0
 55 61  1  0
 56 55  1  0
 57 56  2  0
 58 52  2  0
 59 58  1  0
 59 54  2  0
 60 53  1  0
 61 51  1  0
 63 65  2  0
 64 63  1  0
 66 64  1  0
 67 76  2  0
 67 72  1  0
 68 64  1  0
 68 72  1  0
 69 68  1  0
 70 71  1  0
 70 69  1  0
 71 67  1  0
 72 73  2  0
 73 74  1  0
 75 74  2  0
 76 75  1  0
 77 51  1  0
 77 82  1  0
 77 78  1  0
 78 81  1  1
 78 79  1  0
 80 78  1  0
 82 85  1  0
 83 87  1  0
 83 82  1  0
 84 83  2  0
 87 86  1  0
 89 87  1  0
 89 90  1  0
 89 88  1  0
M  ISO  4  10 100  18 100  49 101  50 101
M  END
>  <TORSDO>  (5) 
F 20

>  <SCORE>  (5) 
-13.712

>  <name>  (5) 
4

>  <ligand_id>  (5) 
4

>  <original_smiles>  (5) 
[H]C(=C(C([H])([H])[H])[N+]1([H])C([H])([H])C([H])(C([H])([H])N([H])C(=O)N2C([H])([H])C([H])([H])C([H])([H])C([H])(n3nc(-c4c([H])c([H])c(Oc5c([H])c([H])c(F)c([H])c5F)c([H])c4[H])c(C(=O)N([H])[H])c3N([H])[H])C2([H])[H])C1([H])[H])C([H])([H])C([H])([H])Oc1c([H])c([H])c2c(c1[H])C([H])([H])N(C(=O)C([H])(N([H])C(=O)C([H])(N([H])C([H])([H])[H])C([H])([H])[H])C(C([H])([H])[H])(C([H])([H])[H])C([H])([H])[H])C([H])(C(=O)N([H])C1([H])c3c([H])c([H])c([H])c([H])c3C([H])([H])C([H])([H])C1([H])[H])C2([H])[H]

>  <smiles>  (5) 
[H]C(=C(C([H])([H])[H])[N+]1([H])C([H])([H])C([H])(C([H])([H])N([H])C(=O)N2C([H])([H])C([H])([H])C([H])([H])C([H])(n3nc(-c4c([H])c([H])c(Oc5c([H])c([H])c(F)c([H])c5F)c([H])c4[H])c(C(=O)N([H])[H])c3N([H])[H])C2([H])[H])C1([H])[H])C([H])([H])C([H])([H])Oc1c([H])c([H])c2c(c1[H])C([H])([H])N(C(=O)C([H])(N([H])C(=O)C([H])(N([H])C([H])([H])[H])C([H])([H])[H])C(C([H])([H])[H])(C([H])([H])[H])C([H])([H])[H])C([H])(C(=O)N([H])C1([H])c3c([H])c([H])c([H])c([H])c3C([H])([H])C([H])([H])C1([H])[H])C2([H])[H]

$$$$
5:0:0
     RDKit          3D

 94103  0  0  1  0  0  0  0  0999 V2000
  -28.7850  -21.3330   20.9740 C   0  0  0  0  0  0  0  0  0  0  0  0
  -27.7730  -24.9260   21.5750 C   0  0  0  0  0  2  0  0  0  0  0  0
  -27.7610  -23.4080   21.8190 C   0  0  0  0  0  2  0  0  0  0  0  0
  -29.0230  -23.8290   19.8660 C   0  0  0  0  0  2  0  0  0  0  0  0
  -28.0470  -25.0890   20.0920 C   0  0  0  0  0  3  0  0  0  0  0  0
  -28.6140  -22.7230   20.8200 N   0  0  0  0  0  0  0  0  0  0  0  0
  -28.1930  -20.8030   21.9210 O   0  0  0  0  0  0  0  0  0  0  0  0
  -31.8120  -18.1170   20.2300 C   0  0  0  0  0  2  0  0  0  0  0  0
  -29.3880  -18.7130   20.4820 C   0  0  0  0  0  2  0  0  0  0  0  0
  -32.0240  -19.5720   19.7330 C   0  0  0  0  0  2  0  0  0  0  0  0
  -29.6700  -20.2880   20.1430 C   0  0  0  0  0  3  0  0  0  0  0  0
  -30.3930  -17.5920   19.9150 C   0  0  0  0  0  3  0  0  0  0  0  0
  -31.1090  -20.5490   20.3760 N   0  0  0  0  0  4  0  0  0  0  0  0
  -31.3290  -21.4700   20.0330 H   0  0  0  0  0  0  0  0  0  0  0  0
  -31.2760  -20.5590   21.3700 H   0  0  0  0  0  0  0  0  0  0  0  0
  -30.8840  -14.9740   19.9950 C   0  0  0  0  0  0  0  0  0  0  0  0
  -30.6270  -12.7110   18.9790 C   0  0  0  0  0  2  0  0  0  0  0  0
  -29.6480  -12.7990   17.7870 C   0  0  0  0  0  2  0  0  0  0  0  0
  -28.1960  -12.6230   18.2680 C   0  0  0  0  0  2  0  0  0  0  0  0
  -27.8680  -13.4990   19.5070 C   0  0  0  0  0  3  0  0  0  0  0  0
  -28.9640  -13.4040   20.5910 C   0  0  0  0  0  2  0  0  0  0  0  0
  -30.2410  -13.7560   19.9580 N   0  0  0  0  0  0  0  0  0  0  0  0
  -32.0370  -15.0590   19.5670 O   0  0  0  0  0  0  0  0  0  0  0  0
  -30.1560  -16.1180   20.3000 N   0  0  0  0  0  0  0  0  0  0  0  0
  -29.2390  -15.9220   20.6750 H   0  0  0  0  0  0  0  0  0  0  0  0
  -25.5000  -14.0730   20.3070 C   0  0  0  0  0  0  0  0  0  0  0  0
  -24.4500  -13.2920   20.7060 C   0  0  0  0  0  0  0  0  0  0  0  0
  -24.9180  -11.9440   20.6570 C   0  0  0  0  0  0  0  0  0  0  0  0
  -26.5400  -13.2010   20.0370 N   0  0  0  0  0  0  0  0  0  0  0  0
  -26.1990  -11.9150   20.3090 N   0  0  0  0  0  0  0  0  0  0  0  0
  -24.2040  -10.6770   20.8640 C   0  0  0  0  0  0  0  0  0  0  0  0
  -24.6240   -9.7430   21.8370 C   0  0  0  0  0  3  0  0  0  0  0  0
  -23.9110   -8.5410   22.0310 C   0  0  0  0  0  3  0  0  0  0  0  0
  -22.7620   -8.2640   21.2510 C   0  0  0  0  0  0  0  0  0  0  0  0
  -22.3620   -9.1860   20.2680 C   0  0  0  0  0  3  0  0  0  0  0  0
  -23.0770  -10.3800   20.0720 C   0  0  0  0  0  3  0  0  0  0  0  0
  -22.0220   -7.1110   21.3530 O   0  0  0  0  0  0  0  0  0  0  0  0
  -21.9010   -6.4340   22.5400 C   0  0  0  0  0  0  0  0  0  0  0  0
  -21.3200   -7.0300   23.6810 C   0  0  0  0  0  3  0  0  0  0  0  0
  -21.1510   -6.2770   24.8600 C   0  0  0  0  0  3  0  0  0  0  0  0
  -21.5530   -4.9280   24.8980 C   0  0  0  0  0  0  0  0  0  0  0  0
  -22.1270   -4.3310   23.7610 C   0  0  0  0  0  3  0  0  0  0  0  0
  -22.2960   -5.0820   22.5850 C   0  0  0  0  0  0  0  0  0  0  0  0
  -22.8300   -4.4970   21.4850 F   0  0  0  0  0  0  0  0  0  0  0  0
  -21.3850   -4.2010   26.0280 F   0  0  0  0  0  0  0  0  0  0  0  0
  -23.0590  -13.7610   21.0240 C   0  0  0  0  0  0  0  0  0  0  0  0
  -22.3660  -13.0620   21.9140 N   0  0  0  0  0  0  0  0  0  0  0  0
  -22.5980  -14.7820   20.5170 O   0  0  0  0  0  0  0  0  0  0  0  0
  -22.7530  -12.2350   22.3450 H   0  0  0  0  0  0  0  0  0  0  0  0
  -21.4330  -13.3570   22.1700 H   0  0  0  0  0  0  0  0  0  0  0  0
  -25.6530  -15.4450   20.1260 N   0  0  0  0  0  0  0  0  0  0  0  0
  -24.8870  -16.0970   20.2540 H   0  0  0  0  0  0  0  0  0  0  0  0
  -26.4810  -15.8800   19.7380 H   0  0  0  0  0  0  0  0  0  0  0  0
  -28.3260  -26.5420   19.7840 O   0  0  0  0  0  0  0  0  0  0  0  0
  -24.6970  -31.8980   23.1170 C   0  0  0  0  0  0  0  0  0  0  0  0
  -27.2340  -27.4470   19.8020 C   0  0  0  0  0  0  0  0  0  0  0  0
  -23.4560  -30.5590   21.4580 C   0  0  0  0  0  3  0  0  0  0  0  0
  -24.8740  -29.0860   19.9190 C   0  0  0  0  0  0  0  0  0  0  0  0
  -25.9930  -30.8930   21.2180 C   0  0  0  0  0  2  0  0  0  0  0  0
  -26.0610  -29.5400   20.5110 C   0  0  0  0  0  0  0  0  0  0  0  0
  -27.2430  -28.7330   20.4420 C   0  0  0  0  0  3  0  0  0  0  0  0
  -26.0270  -27.0810   19.1630 C   0  0  0  0  0  3  0  0  0  0  0  0
  -24.8630  -27.8660   19.2340 C   0  0  0  0  0  3  0  0  0  0  0  0
  -23.6360  -29.9510   20.0430 C   0  0  0  0  0  2  0  0  0  0  0  0
  -24.7360  -31.1330   21.9870 N   0  0  0  0  0  0  0  0  0  0  0  0
  -23.6270  -32.1440   23.6930 O   0  0  0  0  0  0  0  0  0  0  0  0
  -22.8300  -29.4930   22.3920 C   0  0  0  0  0  0  0  0  0  0  0  0
  -21.5060  -29.2940   22.2830 N   0  0  0  0  0  0  0  0  0  0  0  0
  -23.5350  -28.8530   23.1760 O   0  0  0  0  0  0  0  0  0  0  0  0
  -20.9950  -29.8670   21.6260 H   0  0  0  0  0  0  0  0  0  0  0  0
  -18.1620  -28.0110   22.7970 C   0  0  0  0  0  0  0  0  0  0  0  0
  -20.7180  -28.3140   23.0360 C   0  0  0  0  0  3  0  0  0  0  0  0
  -20.8400  -26.9050   22.4130 C   0  0  0  0  0  2  0  0  0  0  0  0
  -19.7290  -26.5930   21.4060 C   0  0  0  0  0  2  0  0  0  0  0  0
  -18.3540  -26.6870   22.0750 C   0  0  0  0  0  2  0  0  0  0  0  0
  -19.2720  -28.7830   23.2330 C   0  0  0  0  0  0  0  0  0  0  0  0
  -19.0360  -30.0200   23.8690 C   0  0  0  0  0  3  0  0  0  0  0  0
  -17.7240  -30.4880   24.0750 C   0  0  0  0  0  3  0  0  0  0  0  0
  -16.6290  -29.7120   23.6550 C   0  0  0  0  0  3  0  0  0  0  0  0
  -16.8490  -28.4770   23.0200 C   0  0  0  0  0  3  0  0  0  0  0  0
  -25.9900  -32.5180   23.7270 C   0  0  0  0  0  3  0  0  0  0  0  0
  -25.6840  -33.9070   24.1020 N   0  0  0  0  0  0  0  0  0  0  0  0
  -25.9950  -34.9810   23.3640 C   0  0  0  0  0  0  0  0  0  0  0  0
  -26.6370  -34.9080   22.3130 O   0  0  0  0  0  0  0  0  0  0  0  0
  -25.1110  -34.0370   24.9230 H   0  0  0  0  0  0  0  0  0  0  0  0
  -24.2600  -36.7840   23.0990 C   0  0  0  0  0  1  0  0  0  0  0  0
  -25.5170  -36.3550   23.8740 C   0  0  0  0  0  3  0  0  0  0  0  0
  -27.6610  -37.2220   24.6970 C   0  0  0  0  0  1  0  0  0  0  0  0
  -26.5470  -37.4110   23.7710 N   0  0  0  0  0  0  0  0  0  0  0  0
  -26.1440  -38.3270   23.9460 H   0  0  0  0  0  0  0  0  0  0  0  0
  -26.5360  -31.7140   24.9720 C   0  0  1  0  0  0  0  0  0  0  0  0
  -25.4660  -31.4450   26.0550 C   0  0  0  0  0  1  0  0  0  0  0  0
  -27.1170  -30.3510   24.5320 C   0  0  0  0  0  1  0  0  0  0  0  0
  -27.6960  -32.4970   25.6300 C   0  0  0  0  0  1  0  0  0  0  0  0
  1  7  2  0
  2  3  1  0
  4  5  1  0
  4  6  1  0
  5 54  1  0
  5  2  1  0
  6  1  1  0
  6  3  1  0
 10  8  1  0
 10 13  1  0
 11 13  1  0
 11  9  1  0
 11  1  1  0
 12  8  1  0
 12 24  1  0
 12  9  1  0
 13 15  1  0
 14 13  1  0
 16 24  1  0
 17 22  1  0
 18 19  1  0
 18 17  1  0
 20 19  1  0
 20 29  1  0
 20 21  1  0
 22 16  1  0
 22 21  1  0
 23 16  2  0
 24 25  1  0
 26 27  2  0
 27 46  1  0
 28 27  1  0
 28 31  1  0
 29 26  1  0
 29 30  1  0
 30 28  2  0
 31 32  1  0
 32 33  2  0
 34 37  1  0
 34 33  1  0
 35 34  2  0
 36 35  1  0
 36 31  2  0
 37 38  1  0
 38 43  2  0
 38 39  1  0
 39 40  2  0
 40 41  1  0
 41 45  1  0
 42 41  2  0
 43 42  1  0
 44 43  1  0
 46 47  1  0
 47 50  1  0
 47 49  1  0
 48 46  2  0
 51 52  1  0
 51 26  1  0
 53 51  1  0
 54 56  1  0
 55 66  2  0
 56 61  1  0
 57 65  1  0
 57 67  1  0
 58 64  1  0
 58 60  1  0
 59 65  1  0
 60 59  1  0
 61 60  2  0
 62 63  1  0
 62 56  2  0
 63 58  2  0
 64 57  1  0
 65 55  1  0
 67 69  2  0
 68 67  1  0
 70 68  1  0
 71 80  2  0
 71 76  1  0
 72 68  1  0
 72 76  1  0
 73 72  1  0
 74 75  1  0
 74 73  1  0
 75 71  1  0
 76 77  2  0
 77 78  1  0
 79 78  2  0
 80 79  1  0
 81 55  1  0
 81 82  1  0
 81 91  1  0
 82 85  1  0
 83 87  1  0
 83 82  1  0
 84 83  2  0
 87 86  1  0
 89 87  1  0
 89 90  1  0
 89 88  1  0
 91 94  1  1
 91 92  1  0
 93 91  1  0
M  ISO  4   5 101  16 100  24 100  54 101
M  END
>  <TORSDO>  (6) 
F 17

>  <SCORE>  (6) 
-14.040

>  <name>  (6) 
5

>  <ligand_id>  (6) 
5

>  <original_smiles>  (6) 
[H]c1c([H])c([H])c2c(c1[H])C([H])([H])C([H])([H])C([H])([H])C2([H])N([H])C(=O)C1([H])N(C(=O)C([H])(N([H])C(=O)C([H])(N([H])C([H])([H])[H])C([H])([H])[H])C(C([H])([H])[H])(C([H])([H])[H])C([H])([H])[H])C([H])([H])c2c([H])c(OC3([H])C([H])([H])N(C(=O)C4([H])C([H])([H])C([H])(N([H])C(=O)N5C([H])([H])C([H])([H])C([H])([H])C([H])(n6nc(-c7c([H])c([H])c(Oc8c([H])c([H])c(F)c([H])c8F)c([H])c7[H])c(C(=O)N([H])[H])c6N([H])[H])C5([H])[H])C([H])([H])C([H])([H])[N+]4([H])[H])C([H])([H])C3([H])[H])c([H])c([H])c2C1([H])[H]

>  <smiles>  (6) 
[H]c1c([H])c([H])c2c(c1[H])C([H])([H])C([H])([H])C([H])([H])C2([H])N([H])C(=O)C1([H])N(C(=O)C([H])(N([H])C(=O)C([H])(N([H])C([H])([H])[H])C([H])([H])[H])C(C([H])([H])[H])(C([H])([H])[H])C([H])([H])[H])C([H])([H])c2c([H])c(OC3([H])C([H])([H])N(C(=O)C4([H])C([H])([H])C([H])(N([H])C(=O)N5C([H])([H])C([H])([H])C([H])([H])C([H])(n6nc(-c7c([H])c([H])c(Oc8c([H])c([H])c(F)c([H])c8F)c([H])c7[H])c(C(=O)N([H])[H])c6N([H])[H])C5([H])[H])C([H])([H])C([H])([H])[N+]4([H])[H])C([H])([H])C3([H])[H])c([H])c([H])c2C1([H])[H]

$$$$
6:0:0
     RDKit          3D

 93101  0  0  1  0  0  0  0  0999 V2000
  -30.6250  -20.2720   20.2220 C   0  0  0  0  0  3  0  0  0  0  0  0
  -31.1810  -19.0930   20.7500 C   0  0  0  0  0  3  0  0  0  0  0  0
  -29.4450  -20.2110   19.4380 C   0  0  0  0  0  0  0  0  0  0  0  0
  -30.5690  -17.8570   20.4920 C   0  0  0  0  0  0  0  0  0  0  0  0
  -28.9350  -18.9010   19.1730 C   0  0  0  0  0  0  0  0  0  0  0  0
  -29.4790  -17.7660   19.7000 N   0  0  0  0  0  0  0  0  0  0  0  0
  -27.3550  -19.5430   17.1810 C   0  0  0  0  0  1  0  0  0  0  0  0
  -26.4380  -18.5710   19.3340 C   0  0  0  0  0  1  0  0  0  0  0  0
  -27.6460  -18.6240   18.3860 C   0  0  0  0  0  3  0  0  0  0  0  0
  -31.0420  -16.6030   21.2360 C   0  0  0  0  0  2  0  0  0  0  0  0
  -30.9150  -14.3770   20.1200 C   0  0  0  0  0  0  0  0  0  0  0  0
  -30.4810  -12.2430   18.9430 C   0  0  0  0  0  2  0  0  0  0  0  0
  -29.4870  -12.4820   17.7880 C   0  0  0  0  0  2  0  0  0  0  0  0
  -28.0290  -12.4060   18.2820 C   0  0  0  0  0  2  0  0  0  0  0  0
  -27.7900  -13.2070   19.5890 C   0  0  0  0  0  3  0  0  0  0  0  0
  -28.8980  -12.9450   20.6330 C   0  0  0  0  0  2  0  0  0  0  0  0
  -30.1920  -13.2300   19.9960 N   0  0  0  0  0  0  0  0  0  0  0  0
  -31.9840  -14.5560   19.5310 O   0  0  0  0  0  0  0  0  0  0  0  0
  -30.3770  -15.3410   20.8860 N   0  0  0  0  0  0  0  0  0  0  0  0
  -29.4720  -15.1810   21.2980 H   0  0  0  0  0  0  0  0  0  0  0  0
  -25.4460  -13.8450   20.4310 C   0  0  0  0  0  0  0  0  0  0  0  0
  -24.3840  -13.0860   20.8340 C   0  0  0  0  0  0  0  0  0  0  0  0
  -24.8160  -11.7240   20.7570 C   0  0  0  0  0  0  0  0  0  0  0  0
  -26.4600  -12.9490   20.1330 N   0  0  0  0  0  0  0  0  0  0  0  0
  -26.0880  -11.6670   20.3840 N   0  0  0  0  0  0  0  0  0  0  0  0
  -24.0720  -10.4720   20.9550 C   0  0  0  0  0  0  0  0  0  0  0  0
  -24.4880   -9.5060   21.8990 C   0  0  0  0  0  3  0  0  0  0  0  0
  -23.7430   -8.3220   22.0870 C   0  0  0  0  0  3  0  0  0  0  0  0
  -22.5700   -8.0940   21.3310 C   0  0  0  0  0  0  0  0  0  0  0  0
  -22.1770   -9.0450   20.3730 C   0  0  0  0  0  3  0  0  0  0  0  0
  -22.9210  -10.2210   20.1830 C   0  0  0  0  0  3  0  0  0  0  0  0
  -21.7980   -6.9610   21.4290 O   0  0  0  0  0  0  0  0  0  0  0  0
  -21.6950   -6.2580   22.6030 C   0  0  0  0  0  0  0  0  0  0  0  0
  -21.2160   -6.8570   23.7890 C   0  0  0  0  0  3  0  0  0  0  0  0
  -21.0590   -6.0820   24.9560 C   0  0  0  0  0  3  0  0  0  0  0  0
  -21.3730   -4.7100   24.9380 C   0  0  0  0  0  0  0  0  0  0  0  0
  -21.8450   -4.1110   23.7570 C   0  0  0  0  0  3  0  0  0  0  0  0
  -22.0030   -4.8820   22.5920 C   0  0  0  0  0  0  0  0  0  0  0  0
  -22.4380   -4.2960   21.4500 F   0  0  0  0  0  0  0  0  0  0  0  0
  -21.2160   -3.9620   26.0550 F   0  0  0  0  0  0  0  0  0  0  0  0
  -23.0130  -13.5820   21.1890 C   0  0  0  0  0  0  0  0  0  0  0  0
  -22.3250  -12.8910   22.0910 N   0  0  0  0  0  0  0  0  0  0  0  0
  -22.5610  -14.6170   20.6980 O   0  0  0  0  0  0  0  0  0  0  0  0
  -22.7040  -12.0510   22.5040 H   0  0  0  0  0  0  0  0  0  0  0  0
  -21.4080  -13.2070   22.3730 H   0  0  0  0  0  0  0  0  0  0  0  0
  -25.6420  -15.2160   20.2710 N   0  0  0  0  0  0  0  0  0  0  0  0
  -24.9240  -15.9080   20.4540 H   0  0  0  0  0  0  0  0  0  0  0  0
  -26.5180  -15.6240   19.9670 H   0  0  0  0  0  0  0  0  0  0  0  0
  -28.8200  -21.3500   18.9340 O   0  0  0  0  0  0  0  0  0  0  0  0
  -29.0140  -22.6270   19.5760 C   0  0  0  0  0  2  0  0  0  0  0  0
  -28.1270  -23.7660   18.9730 C   0  0  0  0  0  2  0  0  0  0  0  0
  -28.1830  -25.1050   19.7680 C   0  0  0  0  0  2  0  0  0  0  0  0
  -27.9970  -26.3290   19.0190 O   0  0  0  0  0  0  0  0  0  0  0  0
  -24.6300  -31.2870   22.9440 C   0  0  0  0  0  0  0  0  0  0  0  0
  -26.8660  -27.0880   19.2430 C   0  0  0  0  0  0  0  0  0  0  0  0
  -23.2770  -30.1720   21.1980 C   0  0  0  0  0  3  0  0  0  0  0  0
  -24.5770  -28.7300   19.5410 C   0  0  0  0  0  0  0  0  0  0  0  0
  -25.8120  -30.4030   20.9300 C   0  0  0  0  0  2  0  0  0  0  0  0
  -25.7880  -29.1110   20.1330 C   0  0  0  0  0  0  0  0  0  0  0  0
  -26.9380  -28.2970   19.9800 C   0  0  0  0  0  3  0  0  0  0  0  0
  -25.6390  -26.7230   18.6550 C   0  0  0  0  0  3  0  0  0  0  0  0
  -24.4960  -27.5350   18.8040 C   0  0  0  0  0  3  0  0  0  0  0  0
  -23.3950  -29.6520   19.7390 C   0  0  0  0  0  2  0  0  0  0  0  0
  -24.5950  -30.6280   21.7500 N   0  0  0  0  0  0  0  0  0  0  0  0
  -23.5900  -31.5540   23.5610 O   0  0  0  0  0  0  0  0  0  0  0  0
  -22.5960  -29.0820   22.0560 C   0  0  0  0  0  0  0  0  0  0  0  0
  -21.2550  -29.0270   22.0060 N   0  0  0  0  0  0  0  0  0  0  0  0
  -23.2690  -28.2940   22.7260 O   0  0  0  0  0  0  0  0  0  0  0  0
  -20.7760  -29.7170   21.4440 H   0  0  0  0  0  0  0  0  0  0  0  0
  -17.8220  -28.0520   22.5840 C   0  0  0  0  0  0  0  0  0  0  0  0
  -20.4050  -28.0580   22.6970 C   0  0  0  0  0  3  0  0  0  0  0  0
  -20.3390  -26.7210   21.9220 C   0  0  0  0  0  2  0  0  0  0  0  0
  -19.1510  -26.6400   20.9590 C   0  0  0  0  0  2  0  0  0  0  0  0
  -17.8320  -26.8020   21.7210 C   0  0  0  0  0  2  0  0  0  0  0  0
  -19.0300  -28.6500   23.0300 C   0  0  0  0  0  0  0  0  0  0  0  0
  -18.9640  -29.8300   23.8020 C   0  0  0  0  0  3  0  0  0  0  0  0
  -17.7240  -30.4060   24.1350 C   0  0  0  0  0  3  0  0  0  0  0  0
  -16.5310  -29.8000   23.7040 C   0  0  0  0  0  3  0  0  0  0  0  0
  -16.5810  -28.6240   22.9350 C   0  0  0  0  0  3  0  0  0  0  0  0
  -25.9760  -31.7630   23.5760 C   0  0  0  0  0  3  0  0  0  0  0  0
  -25.7520  -33.0970   24.1490 N   0  0  0  0  0  0  0  0  0  0  0  0
  -26.1590  -34.2440   23.5890 C   0  0  0  0  0  0  0  0  0  0  0  0
  -26.8350  -34.2850   22.5570 O   0  0  0  0  0  0  0  0  0  0  0  0
  -25.1600  -33.1440   24.9650 H   0  0  0  0  0  0  0  0  0  0  0  0
  -24.5530  -36.1800   23.5600 C   0  0  0  0  0  1  0  0  0  0  0  0
  -25.7550  -35.5570   24.2890 C   0  0  0  0  0  3  0  0  0  0  0  0
  -27.9260  -36.1440   25.2750 C   0  0  0  0  0  1  0  0  0  0  0  0
  -26.8510  -36.5450   24.3690 N   0  0  0  0  0  0  0  0  0  0  0  0
  -26.4990  -37.4460   24.6820 H   0  0  0  0  0  0  0  0  0  0  0  0
  -26.5350  -30.7720   24.6700 C   0  0  1  0  0  0  0  0  0  0  0  0
  -25.5080  -30.4060   25.7670 C   0  0  0  0  0  1  0  0  0  0  0  0
  -27.0170  -29.4560   24.0160 C   0  0  0  0  0  1  0  0  0  0  0  0
  -27.7670  -31.3960   25.3690 C   0  0  0  0  0  1  0  0  0  0  0  0
  1  2  1  0
  3  1  2  0
  4  2  2  0
  4 10  1  0
  5  3  1  0
  5  6  2  0
  6  4  1  0
  7  9  1  0
  9  5  1  0
  9  8  1  0
 11 19  1  0
 12 17  1  0
 13 14  1  0
 13 12  1  0
 15 14  1  0
 15 24  1  0
 15 16  1  0
 17 11  1  0
 17 16  1  0
 18 11  2  0
 19 10  1  0
 19 20  1  0
 21 22  2  0
 22 41  1  0
 23 22  1  0
 23 26  1  0
 24 25  1  0
 24 21  1  0
 25 23  2  0
 26 27  1  0
 27 28  2  0
 29 32  1  0
 29 28  1  0
 30 29  2  0
 31 30  1  0
 31 26  2  0
 32 33  1  0
 33 34  1  0
 34 35  2  0
 36 35  1  0
 36 40  1  0
 37 36  2  0
 38 33  2  0
 38 37  1  0
 39 38  1  0
 41 42  1  0
 42 45  1  0
 42 44  1  0
 43 41  2  0
 46 21  1  0
 46 47  1  0
 48 46  1  0
 49  3  1  0
 49 50  1  0
 51 50  1  0
 51 52  1  0
 53 55  1  0
 53 52  1  0
 54 65  2  0
 55 60  1  0
 56 64  1  0
 56 66  1  0
 57 63  1  0
 57 59  1  0
 58 64  1  0
 59 58  1  0
 60 59  2  0
 61 62  1  0
 61 55  2  0
 62 57  2  0
 63 56  1  0
 64 54  1  0
 66 68  2  0
 67 66  1  0
 69 67  1  0
 70 79  2  0
 70 75  1  0
 71 67  1  0
 71 75  1  0
 72 71  1  0
 73 74  1  0
 73 72  1  0
 74 70  1  0
 75 76  2  0
 76 77  1  0
 78 77  2  0
 79 78  1  0
 80 54  1  0
 80 81  1  0
 80 90  1  0
 81 84  1  0
 82 81  1  0
 82 86  1  0
 83 82  2  0
 86 85  1  0
 86 88  1  0
 88 89  1  0
 88 87  1  0
 90 93  1  1
 90 91  1  0
 92 90  1  0
M  ISO  4  11 100  19 100  52 101  53 101
M  END
>  <TORSDO>  (7) 
F 22

>  <SCORE>  (7) 
-11.957

>  <name>  (7) 
6

>  <ligand_id>  (7) 
6

>  <original_smiles>  (7) 
[H]c1c(C([H])([H])N([H])C(=O)N2C([H])([H])C([H])([H])C([H])([H])C([H])(n3nc(-c4c([H])c([H])c(Oc5c([H])c([H])c(F)c([H])c5F)c([H])c4[H])c(C(=O)N([H])[H])c3N([H])[H])C2([H])[H])nc(C([H])(C([H])([H])[H])C([H])([H])[H])c(OC([H])([H])C([H])([H])C([H])([H])Oc2c([H])c([H])c3c(c2[H])C([H])([H])N(C(=O)C([H])(N([H])C(=O)C([H])(N([H])C([H])([H])[H])C([H])([H])[H])C(C([H])([H])[H])(C([H])([H])[H])C([H])([H])[H])C([H])(C(=O)N([H])C2([H])c4c([H])c([H])c([H])c([H])c4C([H])([H])C([H])([H])C2([H])[H])C3([H])[H])c1[H]

>  <smiles>  (7) 
[H]c1c(C([H])([H])N([H])C(=O)N2C([H])([H])C([H])([H])C([H])([H])C([H])(n3nc(-c4c([H])c([H])c(Oc5c([H])c([H])c(F)c([H])c5F)c([H])c4[H])c(C(=O)N([H])[H])c3N([H])[H])C2([H])[H])nc(C([H])(C([H])([H])[H])C([H])([H])[H])c(OC([H])([H])C([H])([H])C([H])([H])Oc2c([H])c([H])c3c(c2[H])C([H])([H])N(C(=O)C([H])(N([H])C(=O)C([H])(N([H])C([H])([H])[H])C([H])([H])[H])C(C([H])([H])[H])(C([H])([H])[H])C([H])([H])[H])C([H])(C(=O)N([H])C2([H])c4c([H])c([H])c([H])c([H])c4C([H])([H])C([H])([H])C2([H])[H])C3([H])[H])c1[H]

$$$$
7:0:0
     RDKit          3D

 90 99  0  0  1  0  0  0  0  0999 V2000
  -30.0760  -20.3200   21.7720 C   0  0  0  0  0  3  0  0  0  0  0  0
  -29.5100  -22.7540   21.7540 C   0  0  0  0  0  3  0  0  0  0  0  0
  -30.1500  -21.6260   22.3400 C   0  0  0  0  0  0  0  0  0  0  0  0
  -29.3800  -20.0440   20.5770 C   0  0  0  0  0  0  0  0  0  0  0  0
  -28.7570  -22.6860   20.5660 C   0  0  0  0  0  0  0  0  0  0  0  0
  -28.7400  -21.2830   20.0270 N   0  0  0  0  0  0  0  0  0  0  0  0
  -30.9400  -20.9010   24.7650 C   0  0  0  0  0  2  0  0  0  0  0  0
  -30.2980  -22.2610   24.8830 C   0  0  0  0  0  2  0  0  0  0  0  0
  -30.9620  -21.8500   23.5880 C   0  0  0  0  0  3  0  0  0  0  0  0
  -29.6030  -18.4070   19.9060 C   0  0  0  0  0  2  0  0  0  0  0  0
  -30.3410  -15.5050   20.2790 C   0  0  0  0  0  0  0  0  0  0  0  0
  -30.4170  -12.9930   19.5310 C   0  0  0  0  0  2  0  0  0  0  0  0
  -29.5260  -12.6710   18.2980 C   0  0  0  0  0  2  0  0  0  0  0  0
  -28.0810  -12.3780   18.7280 C   0  0  0  0  0  2  0  0  0  0  0  0
  -27.5820  -13.3650   19.8100 C   0  0  0  0  0  3  0  0  0  0  0  0
  -28.6120  -13.6150   20.9380 C   0  0  0  0  0  2  0  0  0  0  0  0
  -29.8260  -14.1600   20.3050 N   0  0  0  0  0  0  0  0  0  0  0  0
  -31.5390  -15.5170   19.9530 O   0  0  0  0  0  0  0  0  0  0  0  0
  -29.5650  -16.7870   20.4320 N   0  0  0  0  0  0  0  0  0  0  0  0
  -28.6570  -16.5860   20.8220 H   0  0  0  0  0  0  0  0  0  0  0  0
  -25.2110  -13.8800   20.5830 C   0  0  0  0  0  0  0  0  0  0  0  0
  -24.1600  -13.0860   20.9520 C   0  0  0  0  0  0  0  0  0  0  0  0
  -24.6430  -11.7400   20.9010 C   0  0  0  0  0  0  0  0  0  0  0  0
  -26.2620  -13.0220   20.3210 N   0  0  0  0  0  0  0  0  0  0  0  0
  -25.9340  -11.7260   20.5780 N   0  0  0  0  0  0  0  0  0  0  0  0
  -23.9300  -10.4680   21.0840 C   0  0  0  0  0  0  0  0  0  0  0  0
  -24.3680   -9.4980   22.0120 C   0  0  0  0  0  3  0  0  0  0  0  0
  -23.6450   -8.2980   22.1850 C   0  0  0  0  0  3  0  0  0  0  0  0
  -22.4740   -8.0560   21.4300 C   0  0  0  0  0  0  0  0  0  0  0  0
  -22.0550   -9.0150   20.4920 C   0  0  0  0  0  3  0  0  0  0  0  0
  -22.7780  -10.2070   20.3170 C   0  0  0  0  0  3  0  0  0  0  0  0
  -21.7300   -6.9030   21.5110 O   0  0  0  0  0  0  0  0  0  0  0  0
  -21.6950   -6.1460   22.6540 C   0  0  0  0  0  0  0  0  0  0  0  0
  -21.2470   -6.6770   23.8830 C   0  0  0  0  0  3  0  0  0  0  0  0
  -21.1580   -5.8470   25.0180 C   0  0  0  0  0  3  0  0  0  0  0  0
  -21.5110   -4.4870   24.9250 C   0  0  0  0  0  0  0  0  0  0  0  0
  -21.9530   -3.9570   23.7000 C   0  0  0  0  0  3  0  0  0  0  0  0
  -22.0420   -4.7830   22.5680 C   0  0  0  0  0  0  0  0  0  0  0  0
  -22.4490   -4.2630   21.3840 F   0  0  0  0  0  0  0  0  0  0  0  0
  -21.4210   -3.6870   26.0130 F   0  0  0  0  0  0  0  0  0  0  0  0
  -22.7590  -13.5460   21.2300 C   0  0  0  0  0  0  0  0  0  0  0  0
  -22.0410  -12.8380   22.0920 N   0  0  0  0  0  0  0  0  0  0  0  0
  -22.3100  -14.5720   20.7180 O   0  0  0  0  0  0  0  0  0  0  0  0
  -22.4160  -12.0080   22.5310 H   0  0  0  0  0  0  0  0  0  0  0  0
  -21.1030  -13.1320   22.3220 H   0  0  0  0  0  0  0  0  0  0  0  0
  -25.3520  -15.2540   20.4180 N   0  0  0  0  0  0  0  0  0  0  0  0
  -24.5740  -15.8910   20.5630 H   0  0  0  0  0  0  0  0  0  0  0  0
  -26.1640  -15.7110   20.0260 H   0  0  0  0  0  0  0  0  0  0  0  0
  -27.9010  -24.1790   20.0760 C   0  0  0  0  0  2  0  0  0  0  0  0
  -28.1070  -25.8300   20.3510 O   0  0  0  0  0  0  0  0  0  0  0  0
  -24.6190  -31.9270   23.2300 C   0  0  0  0  0  0  0  0  0  0  0  0
  -27.1240  -26.9740   20.2320 C   0  0  0  0  0  0  0  0  0  0  0  0
  -23.4090  -30.5350   21.6000 C   0  0  0  0  0  3  0  0  0  0  0  0
  -24.8410  -28.9120   20.1680 C   0  0  0  0  0  0  0  0  0  0  0  0
  -25.9770  -30.7170   21.4440 C   0  0  0  0  0  2  0  0  0  0  0  0
  -26.0340  -29.2980   20.7910 C   0  0  0  0  0  0  0  0  0  0  0  0
  -27.1620  -28.3510   20.8000 C   0  0  0  0  0  3  0  0  0  0  0  0
  -25.9050  -26.7590   19.5450 C   0  0  0  0  0  3  0  0  0  0  0  0
  -24.8060  -27.6650   19.5220 C   0  0  0  0  0  3  0  0  0  0  0  0
  -23.6290  -29.8470   20.2220 C   0  0  0  0  0  2  0  0  0  0  0  0
  -24.6910  -31.0880   22.1460 N   0  0  0  0  0  0  0  0  0  0  0  0
  -23.5350  -32.2270   23.7570 O   0  0  0  0  0  0  0  0  0  0  0  0
  -22.7100  -29.5510   22.5750 C   0  0  0  0  0  0  0  0  0  0  0  0
  -21.3810  -29.3780   22.4470 N   0  0  0  0  0  0  0  0  0  0  0  0
  -23.3720  -28.9420   23.4180 O   0  0  0  0  0  0  0  0  0  0  0  0
  -20.8940  -29.9200   21.7460 H   0  0  0  0  0  0  0  0  0  0  0  0
  -18.0130  -28.1160   22.9320 C   0  0  0  0  0  0  0  0  0  0  0  0
  -20.5630  -28.4410   23.2260 C   0  0  0  0  0  3  0  0  0  0  0  0
  -20.6990  -26.9980   22.6860 C   0  0  0  0  0  2  0  0  0  0  0  0
  -19.6210  -26.6320   21.6620 C   0  0  0  0  0  2  0  0  0  0  0  0
  -18.2270  -26.7600   22.2820 C   0  0  0  0  0  2  0  0  0  0  0  0
  -19.1090  -28.9120   23.3610 C   0  0  0  0  0  0  0  0  0  0  0  0
  -18.8510  -30.1770   23.9340 C   0  0  0  0  0  3  0  0  0  0  0  0
  -17.5330  -30.6480   24.0770 C   0  0  0  0  0  3  0  0  0  0  0  0
  -16.4520  -29.8520   23.6600 C   0  0  0  0  0  3  0  0  0  0  0  0
  -16.6940  -28.5870   23.0950 C   0  0  0  0  0  3  0  0  0  0  0  0
  -25.8970  -32.5670   23.8560 C   0  0  0  0  0  3  0  0  0  0  0  0
  -26.4020  -31.8070   25.1430 C   0  0  1  0  0  0  0  0  0  0  0  0
  -25.3040  -31.5840   26.2100 C   0  0  0  0  0  1  0  0  0  0  0  0
  -26.9830  -30.4220   24.7780 C   0  0  0  0  0  1  0  0  0  0  0  0
  -27.5530  -32.6030   25.8040 C   0  0  0  0  0  1  0  0  0  0  0  0
  -25.5880  -33.9700   24.1880 N   0  0  0  0  0  0  0  0  0  0  0  0
  -25.9170  -35.0300   23.4380 C   0  0  0  0  0  0  0  0  0  0  0  0
  -26.5720  -34.9310   22.3980 O   0  0  0  0  0  0  0  0  0  0  0  0
  -24.9970  -34.1180   24.9920 H   0  0  0  0  0  0  0  0  0  0  0  0
  -24.1880  -36.8410   23.1400 C   0  0  0  0  0  1  0  0  0  0  0  0
  -25.4480  -36.4210   23.9140 C   0  0  0  0  0  3  0  0  0  0  0  0
  -27.6000  -37.3100   24.6990 C   0  0  0  0  0  1  0  0  0  0  0  0
  -26.4820  -37.4700   23.7730 N   0  0  0  0  0  0  0  0  0  0  0  0
  -26.0820  -38.3930   23.9140 H   0  0  0  0  0  0  0  0  0  0  0  0
  1  3  1  0
  2  3  2  0
  3  9  1  0
  4  1  2  0
  5  2  1  0
  6  5  2  0
  6  4  1  0
  7  8  1  0
  9  7  1  0
  9  8  1  0
 10 19  1  0
 10  4  1  0
 11 17  1  0
 11 19  1  0
 12 17  1  0
 13 14  1  0
 13 12  1  0
 15 14  1  0
 15 24  1  0
 15 16  1  0
 17 16  1  0
 18 11  2  0
 19 20  1  0
 21 22  2  0
 22 41  1  0
 23 22  1  0
 23 26  1  0
 24 25  1  0
 24 21  1  0
 25 23  2  0
 26 27  1  0
 27 28  2  0
 29 32  1  0
 29 28  1  0
 30 29  2  0
 31 30  1  0
 31 26  2  0
 32 33  1  0
 33 34  1  0
 34 35  2  0
 36 35  1  0
 36 40  1  0
 37 36  2  0
 38 33  2  0
 38 37  1  0
 39 38  1  0
 41 42  1  0
 42 45  1  0
 42 44  1  0
 43 41  2  0
 46 47  1  0
 46 21  1  0
 48 46  1  0
 49 50  1  0
 49  5  1  0
 51 62  2  0
 52 50  1  0
 52 57  1  0
 53 61  1  0
 53 63  1  0
 54 60  1  0
 54 56  1  0
 55 61  1  0
 56 57  2  0
 56 55  1  0
 58 52  2  0
 59 58  1  0
 59 54  2  0
 60 53  1  0
 61 51  1  0
 63 65  2  0
 64 63  1  0
 66 64  1  0
 67 76  2  0
 67 72  1  0
 68 64  1  0
 68 72  1  0
 69 68  1  0
 70 71  1  0
 70 69  1  0
 71 67  1  0
 72 73  2  0
 73 74  1  0
 75 74  2  0
 76 75  1  0
 77 51  1  0
 77 82  1  0
 77 78  1  0
 78 81  1  1
 78 79  1  0
 80 78  1  0
 82 85  1  0
 83 87  1  0
 83 82  1  0
 84 83  2  0
 87 86  1  0
 89 90  1  0
 89 87  1  0
 89 88  1  0
M  ISO  4  11 100  19 100  49 101  50 101
M  END
>  <TORSDO>  (8) 
F 19

>  <SCORE>  (8) 
-16.495

>  <name>  (8) 
7

>  <ligand_id>  (8) 
7

>  <original_smiles>  (8) 
[H]c1c([H])c([H])c2c(c1[H])C([H])([H])C([H])([H])C([H])([H])C2([H])N([H])C(=O)C1([H])N(C(=O)C([H])(N([H])C(=O)C([H])(N([H])C([H])([H])[H])C([H])([H])[H])C(C([H])([H])[H])(C([H])([H])[H])C([H])([H])[H])C([H])([H])c2c([H])c(OC([H])([H])c3nc(C([H])([H])N([H])C(=O)N4C([H])([H])C([H])([H])C([H])([H])C([H])(n5nc(-c6c([H])c([H])c(Oc7c([H])c([H])c(F)c([H])c7F)c([H])c6[H])c(C(=O)N([H])[H])c5N([H])[H])C4([H])[H])c([H])c(C4([H])C([H])([H])C4([H])[H])c3[H])c([H])c([H])c2C1([H])[H]

>  <smiles>  (8) 
[H]c1c([H])c([H])c2c(c1[H])C([H])([H])C([H])([H])C([H])([H])C2([H])N([H])C(=O)C1([H])N(C(=O)C([H])(N([H])C(=O)C([H])(N([H])C([H])([H])[H])C([H])([H])[H])C(C([H])([H])[H])(C([H])([H])[H])C([H])([H])[H])C([H])([H])c2c([H])c(OC([H])([H])c3nc(C([H])([H])N([H])C(=O)N4C([H])([H])C([H])([H])C([H])([H])C([H])(n5nc(-c6c([H])c([H])c(Oc7c([H])c([H])c(F)c([H])c7F)c([H])c6[H])c(C(=O)N([H])[H])c5N([H])[H])C4([H])[H])c([H])c(C4([H])C([H])([H])C4([H])[H])c3[H])c([H])c([H])c2C1([H])[H]

$$$$
8:0:0
     RDKit          3D

 96105  0  0  1  0  0  0  0  0999 V2000
  -30.5030  -22.2760   20.9710 C   0  0  0  0  0  3  0  0  0  0  0  0
  -32.7550  -21.9500   20.1340 C   0  0  0  0  0  3  0  0  0  0  0  0
  -31.7040  -22.8240   20.4790 C   0  0  0  0  0  0  0  0  0  0  0  0
  -30.3340  -20.8770   21.0930 C   0  0  0  0  0  0  0  0  0  0  0  0
  -32.6120  -20.5510   20.2580 C   0  0  0  0  0  0  0  0  0  0  0  0
  -31.3880  -19.9950   20.7280 C   0  0  0  0  0  0  0  0  0  0  0  0
  -28.9920  -20.3590   21.5850 C   0  0  0  0  0  1  0  0  0  0  0  0
  -33.8000  -19.6780   19.8720 C   0  0  0  0  0  1  0  0  0  0  0  0
  -30.9060  -14.8100   20.3780 C   0  0  0  0  0  0  0  0  0  0  0  0
  -30.5880  -12.6150   19.3080 C   0  0  0  0  0  2  0  0  0  0  0  0
  -29.6620  -12.7740   18.0880 C   0  0  0  0  0  2  0  0  0  0  0  0
  -28.1790  -12.6980   18.5070 C   0  0  0  0  0  2  0  0  0  0  0  0
  -27.8380  -13.5330   19.7730 C   0  0  0  0  0  3  0  0  0  0  0  0
  -28.8990  -13.3610   20.8820 C   0  0  0  0  0  2  0  0  0  0  0  0
  -30.2160  -13.6400   20.2900 N   0  0  0  0  0  0  0  0  0  0  0  0
  -32.0820  -14.9190   20.0190 O   0  0  0  0  0  0  0  0  0  0  0  0
  -31.2600  -17.7530   21.9120 C   0  0  0  0  0  2  0  0  0  0  0  0
  -30.2090  -16.6000   21.8670 C   0  0  0  0  0  2  0  0  0  0  0  0
  -31.0530  -17.9480   19.4300 C   0  0  0  0  0  2  0  0  0  0  0  0
  -29.9140  -16.9180   19.4750 C   0  0  0  0  0  3  0  0  0  0  0  0
  -29.7020  -16.3560   18.0540 C   0  0  0  0  0  1  0  0  0  0  0  0
  -31.1750  -18.5990   20.7200 N   0  0  0  0  0  0  0  0  0  0  0  0
  -30.1500  -15.9200   20.5560 N   0  0  0  0  0  0  0  0  0  0  0  0
  -25.4440  -14.1300   20.4880 C   0  0  0  0  0  0  0  0  0  0  0  0
  -24.3790  -13.3510   20.8500 C   0  0  0  0  0  0  0  0  0  0  0  0
  -24.8470  -12.0010   20.8150 C   0  0  0  0  0  0  0  0  0  0  0  0
  -26.4930  -13.2520   20.2580 N   0  0  0  0  0  0  0  0  0  0  0  0
  -26.1390  -11.9690   20.5140 N   0  0  0  0  0  0  0  0  0  0  0  0
  -24.1290  -10.7330   20.9930 C   0  0  0  0  0  0  0  0  0  0  0  0
  -24.5220   -9.7930   21.9700 C   0  0  0  0  0  3  0  0  0  0  0  0
  -23.8020   -8.5890   22.1340 C   0  0  0  0  0  3  0  0  0  0  0  0
  -22.6750   -8.3190   21.3210 C   0  0  0  0  0  0  0  0  0  0  0  0
  -22.3050   -9.2470   20.3310 C   0  0  0  0  0  3  0  0  0  0  0  0
  -23.0280  -10.4410   20.1640 C   0  0  0  0  0  3  0  0  0  0  0  0
  -21.9290   -7.1670   21.3960 O   0  0  0  0  0  0  0  0  0  0  0  0
  -21.7780   -6.4850   22.5750 C   0  0  0  0  0  0  0  0  0  0  0  0
  -21.1520   -7.0650   23.7010 C   0  0  0  0  0  3  0  0  0  0  0  0
  -20.9500   -6.3000   24.8680 C   0  0  0  0  0  3  0  0  0  0  0  0
  -21.3700   -4.9580   24.9110 C   0  0  0  0  0  0  0  0  0  0  0  0
  -21.9900   -4.3760   23.7910 C   0  0  0  0  0  3  0  0  0  0  0  0
  -22.1900   -5.1370   22.6270 C   0  0  0  0  0  0  0  0  0  0  0  0
  -22.7670   -4.5660   21.5410 F   0  0  0  0  0  0  0  0  0  0  0  0
  -21.1740   -4.2210   26.0290 F   0  0  0  0  0  0  0  0  0  0  0  0
  -22.9770  -13.8160   21.1170 C   0  0  0  0  0  0  0  0  0  0  0  0
  -22.2510  -13.1100   21.9770 N   0  0  0  0  0  0  0  0  0  0  0  0
  -22.5350  -14.8410   20.5970 O   0  0  0  0  0  0  0  0  0  0  0  0
  -22.6210  -12.2740   22.4040 H   0  0  0  0  0  0  0  0  0  0  0  0
  -21.3140  -13.4040   22.2090 H   0  0  0  0  0  0  0  0  0  0  0  0
  -25.6110  -15.5030   20.3140 N   0  0  0  0  0  0  0  0  0  0  0  0
  -24.8570  -16.1730   20.4310 H   0  0  0  0  0  0  0  0  0  0  0  0
  -26.4800  -15.9250   20.0100 H   0  0  0  0  0  0  0  0  0  0  0  0
  -31.8930  -24.3340   20.3770 C   0  0  0  0  0  2  0  0  0  0  0  0
  -30.7820  -25.0100   19.7830 O   0  0  0  0  0  0  0  0  0  0  0  0
  -30.9570  -26.4310   19.7550 C   0  0  0  0  0  2  0  0  0  0  0  0
  -29.6720  -27.1500   19.3000 C   0  0  0  0  0  2  0  0  0  0  0  0
  -28.7050  -26.9550   20.3160 O   0  0  0  0  0  0  0  0  0  0  0  0
  -24.6130  -31.9110   23.2880 C   0  0  0  0  0  0  0  0  0  0  0  0
  -27.5490  -27.6790   20.2110 C   0  0  0  0  0  0  0  0  0  0  0  0
  -23.5250  -30.5010   21.5700 C   0  0  0  0  0  3  0  0  0  0  0  0
  -25.0930  -29.0610   20.1610 C   0  0  0  0  0  0  0  0  0  0  0  0
  -26.0350  -30.9740   21.4720 C   0  0  0  0  0  2  0  0  0  0  0  0
  -26.2030  -29.6260   20.8050 C   0  0  0  0  0  0  0  0  0  0  0  0
  -27.4340  -28.9380   20.8340 C   0  0  0  0  0  3  0  0  0  0  0  0
  -26.4310  -27.1160   19.5660 C   0  0  0  0  0  3  0  0  0  0  0  0
  -25.2010  -27.8050   19.5370 C   0  0  0  0  0  3  0  0  0  0  0  0
  -23.8120  -29.8640   20.1830 C   0  0  0  0  0  2  0  0  0  0  0  0
  -24.7390  -31.1420   22.1700 N   0  0  0  0  0  0  0  0  0  0  0  0
  -23.5030  -32.1290   23.7940 O   0  0  0  0  0  0  0  0  0  0  0  0
  -22.8800  -29.4320   22.4830 C   0  0  0  0  0  0  0  0  0  0  0  0
  -21.5700  -29.2040   22.3010 N   0  0  0  0  0  0  0  0  0  0  0  0
  -23.5560  -28.8160   23.3090 O   0  0  0  0  0  0  0  0  0  0  0  0
  -21.0850  -29.7580   21.6100 H   0  0  0  0  0  0  0  0  0  0  0  0
  -18.2190  -27.9020   22.6690 C   0  0  0  0  0  0  0  0  0  0  0  0
  -20.7600  -28.2190   23.0180 C   0  0  0  0  0  3  0  0  0  0  0  0
  -20.9180  -26.8120   22.3970 C   0  0  0  0  0  2  0  0  0  0  0  0
  -19.8520  -26.4950   21.3430 C   0  0  0  0  0  2  0  0  0  0  0  0
  -18.4510  -26.5810   21.9540 C   0  0  0  0  0  2  0  0  0  0  0  0
  -19.3040  -28.6780   23.1550 C   0  0  0  0  0  0  0  0  0  0  0  0
  -19.0340  -29.9160   23.7790 C   0  0  0  0  0  3  0  0  0  0  0  0
  -17.7120  -30.3760   23.9240 C   0  0  0  0  0  3  0  0  0  0  0  0
  -16.6410  -29.5950   23.4560 C   0  0  0  0  0  3  0  0  0  0  0  0
  -16.8950  -28.3600   22.8340 C   0  0  0  0  0  3  0  0  0  0  0  0
  -25.8500  -32.5750   23.9690 C   0  0  0  0  0  3  0  0  0  0  0  0
  -26.3010  -31.8420   25.2920 C   0  0  1  0  0  0  0  0  0  0  0  0
  -25.1470  -31.6030   26.2940 C   0  0  0  0  0  1  0  0  0  0  0  0
  -26.9330  -30.4690   24.9640 C   0  0  0  0  0  1  0  0  0  0  0  0
  -27.3920  -32.6730   26.0070 C   0  0  0  0  0  1  0  0  0  0  0  0
  -25.5070  -33.9770   24.2420 N   0  0  0  0  0  0  0  0  0  0  0  0
  -25.8830  -35.0130   23.4800 C   0  0  0  0  0  0  0  0  0  0  0  0
  -26.6250  -34.8900   22.5010 O   0  0  0  0  0  0  0  0  0  0  0  0
  -24.8560  -34.1460   24.9950 H   0  0  0  0  0  0  0  0  0  0  0  0
  -24.1850  -36.7860   22.9360 C   0  0  0  0  0  1  0  0  0  0  0  0
  -25.3510  -36.4050   23.8640 C   0  0  0  0  0  3  0  0  0  0  0  0
  -27.3870  -37.3270   24.8770 C   0  0  0  0  0  1  0  0  0  0  0  0
  -26.3850  -37.4630   23.8250 N   0  0  0  0  0  0  0  0  0  0  0  0
  -25.9620  -38.3830   23.9060 H   0  0  0  0  0  0  0  0  0  0  0  0
  1  4  1  0
  2  5  2  0
  2  3  1  0
  3  1  2  0
  4  7  1  0
  5  6  1  0
  6  4  2  0
  8  5  1  0
  9 23  1  0
 10 15  1  0
 11 12  1  0
 11 10  1  0
 13 12  1  0
 13 27  1  0
 13 14  1  0
 15  9  1  0
 15 14  1  0
 16  9  2  0
 18 17  1  0
 19 20  1  0
 19 22  1  0
 20 21  1  0
 20 23  1  0
 22  6  1  0
 22 17  1  0
 23 18  1  0
 24 25  2  0
 25 44  1  0
 26 25  1  0
 26 29  1  0
 27 24  1  0
 27 28  1  0
 28 26  2  0
 29 30  1  0
 30 31  2  0
 32 35  1  0
 32 31  1  0
 33 32  2  0
 34 33  1  0
 34 29  2  0
 35 36  1  0
 36 41  2  0
 36 37  1  0
 37 38  2  0
 38 39  1  0
 39 43  1  0
 40 39  2  0
 41 40  1  0
 42 41  1  0
 44 45  1  0
 45 48  1  0
 45 47  1  0
 46 44  2  0
 49 50  1  0
 49 24  1  0
 51 49  1  0
 52  3  1  0
 53 52  1  0
 54 53  1  0
 55 54  1  0
 55 56  1  0
 57 68  2  0
 58 56  1  0
 58 63  1  0
 59 67  1  0
 59 69  1  0
 60 66  1  0
 60 62  1  0
 61 67  1  0
 62 63  2  0
 62 61  1  0
 64 58  2  0
 65 64  1  0
 65 60  2  0
 66 59  1  0
 67 57  1  0
 69 71  2  0
 70 69  1  0
 72 70  1  0
 73 82  2  0
 73 78  1  0
 74 70  1  0
 74 78  1  0
 75 74  1  0
 76 77  1  0
 76 75  1  0
 77 73  1  0
 78 79  2  0
 79 80  1  0
 81 80  2  0
 82 81  1  0
 83 57  1  0
 83 88  1  0
 83 84  1  0
 84 87  1  1
 84 85  1  0
 86 84  1  0
 88 91  1  0
 89 93  1  0
 89 88  1  0
 90 89  2  0
 93 92  1  0
 95 93  1  0
 95 96  1  0
 95 94  1  0
M  ISO  4   9 100  23 100  55 101  56 101
M  END
>  <TORSDO>  (9) 
F 20

>  <SCORE>  (9) 
-12.752

>  <name>  (9) 
8

>  <ligand_id>  (9) 
8

>  <original_smiles>  (9) 
[H]c1c([H])c([H])c2c(c1[H])C([H])([H])C([H])([H])C([H])([H])C2([H])N([H])C(=O)C1([H])N(C(=O)C([H])(N([H])C(=O)C([H])(N([H])C([H])([H])[H])C([H])([H])[H])C(C([H])([H])[H])(C([H])([H])[H])C([H])([H])[H])C([H])([H])c2c([H])c(OC([H])([H])C([H])([H])OC([H])([H])c3c([H])c(C([H])([H])[H])c(N4C([H])([H])C([H])([H])N(C(=O)N5C([H])([H])C([H])([H])C([H])([H])C([H])(n6nc(-c7c([H])c([H])c(Oc8c([H])c([H])c(F)c([H])c8F)c([H])c7[H])c(C(=O)N([H])[H])c6N([H])[H])C5([H])[H])C([H])(C([H])([H])[H])C4([H])[H])c(C([H])([H])[H])c3[H])c([H])c([H])c2C1([H])[H]

>  <smiles>  (9) 
[H]c1c([H])c([H])c2c(c1[H])C([H])([H])C([H])([H])C([H])([H])C2([H])N([H])C(=O)C1([H])N(C(=O)C([H])(N([H])C(=O)C([H])(N([H])C([H])([H])[H])C([H])([H])[H])C(C([H])([H])[H])(C([H])([H])[H])C([H])([H])[H])C([H])([H])c2c([H])c(OC([H])([H])C([H])([H])OC([H])([H])c3c([H])c(C([H])([H])[H])c(N4C([H])([H])C([H])([H])N(C(=O)N5C([H])([H])C([H])([H])C([H])([H])C([H])(n6nc(-c7c([H])c([H])c(Oc8c([H])c([H])c(F)c([H])c8F)c([H])c7[H])c(C(=O)N([H])[H])c6N([H])[H])C5([H])[H])C([H])(C([H])([H])[H])C4([H])[H])c(C([H])([H])[H])c3[H])c([H])c([H])c2C1([H])[H]

$$$$
9:0:0
     RDKit          3D

104112  0  0  1  0  0  0  0  0999 V2000
  -29.0730  -21.8490   20.2060 C   0  0  0  0  0  3  0  0  0  0  0  0
  -29.8000  -21.2490   21.2000 C   0  0  0  0  0  0  0  0  0  0  0  0
  -30.2040  -22.2870   22.1080 C   0  0  0  0  0  0  0  0  0  0  0  0
  -29.6050  -23.4470   21.6820 C   0  0  0  0  0  0  0  0  0  0  0  0
  -29.5960  -24.8150   22.2900 C   0  0  0  0  0  1  0  0  0  0  0  0
  -28.8640  -23.1730   20.5470 N   0  0  0  0  0  0  0  0  0  0  0  0
  -30.4350  -21.8660   24.6510 C   0  0  0  0  0  1  0  0  0  0  0  0
  -31.1380  -22.1730   23.3140 C   0  0  0  0  0  3  0  0  0  0  0  0
  -32.2010  -21.2010   23.0260 N   0  0  0  0  0  4  0  0  0  0  0  0
  -31.9090  -20.2740   23.2740 H   0  0  0  0  0  0  0  0  0  0  0  0
  -33.0250  -21.3870   23.5820 H   0  0  0  0  0  0  0  0  0  0  0  0
  -32.1720  -19.9200   20.9140 C   0  0  0  0  0  1  0  0  0  0  0  0
  -32.7370  -21.1500   21.6470 C   0  0  0  0  0  3  0  0  0  0  0  0
  -34.9520  -22.4760   21.5500 C   0  0  0  0  0  1  0  0  0  0  0  0
  -34.2850  -21.1030   21.7380 C   0  0  0  0  0  3  0  0  0  0  0  0
  -34.6490  -20.5980   23.0160 O   0  0  0  0  0  0  0  0  0  0  0  0
  -35.5630  -20.3200   22.9840 H   0  0  0  0  0  0  0  0  0  0  0  0
  -30.1360  -19.7730   21.3240 C   0  0  0  0  0  2  0  0  0  0  0  0
  -29.4600  -18.8830   20.3630 N   0  0  0  0  0  4  0  0  0  0  0  0
  -29.9120  -18.9700   19.4700 H   0  0  0  0  0  0  0  0  0  0  0  0
  -28.5020  -19.1780   20.2660 H   0  0  0  0  0  0  0  0  0  0  0  0
  -29.5000  -17.4740   20.8170 C   0  0  0  0  0  2  0  0  0  0  0  0
  -29.7500  -16.4530   19.7020 C   0  0  0  0  0  2  0  0  0  0  0  0
  -30.5170  -14.0980   19.9410 C   0  0  0  0  0  0  0  0  0  0  0  0
  -30.1930  -11.8970   18.9410 C   0  0  0  0  0  2  0  0  0  0  0  0
  -29.1690  -12.0980   17.8040 C   0  0  0  0  0  2  0  0  0  0  0  0
  -27.7230  -11.9800   18.3320 C   0  0  0  0  0  2  0  0  0  0  0  0
  -27.4750  -12.8460   19.5970 C   0  0  0  0  0  3  0  0  0  0  0  0
  -28.6050  -12.6240   20.6320 C   0  0  0  0  0  2  0  0  0  0  0  0
  -29.8950  -12.8960   19.9700 N   0  0  0  0  0  0  0  0  0  0  0  0
  -31.6160  -14.3040   19.4210 O   0  0  0  0  0  0  0  0  0  0  0  0
  -29.6950  -15.1020   20.2550 N   0  0  0  0  0  0  0  0  0  0  0  0
  -28.8330  -14.8120   20.6910 H   0  0  0  0  0  0  0  0  0  0  0  0
  -25.1470  -13.4950   20.4840 C   0  0  0  0  0  0  0  0  0  0  0  0
  -24.0990  -12.7390   20.9270 C   0  0  0  0  0  0  0  0  0  0  0  0
  -24.5380  -11.3790   20.8570 C   0  0  0  0  0  0  0  0  0  0  0  0
  -26.1590  -12.6010   20.1760 N   0  0  0  0  0  0  0  0  0  0  0  0
  -25.7990  -11.3240   20.4500 N   0  0  0  0  0  0  0  0  0  0  0  0
  -23.8180  -10.1250   21.0990 C   0  0  0  0  0  0  0  0  0  0  0  0
  -24.2710   -9.1820   22.0480 C   0  0  0  0  0  3  0  0  0  0  0  0
  -23.5500   -7.9910   22.2760 C   0  0  0  0  0  3  0  0  0  0  0  0
  -22.3610   -7.7320   21.5550 C   0  0  0  0  0  0  0  0  0  0  0  0
  -21.9230   -8.6630   20.5990 C   0  0  0  0  0  3  0  0  0  0  0  0
  -22.6440   -9.8480   20.3700 C   0  0  0  0  0  3  0  0  0  0  0  0
  -21.6120   -6.5880   21.6910 O   0  0  0  0  0  0  0  0  0  0  0  0
  -21.5560   -5.8990   22.8760 C   0  0  0  0  0  0  0  0  0  0  0  0
  -21.1110   -6.5080   24.0680 C   0  0  0  0  0  3  0  0  0  0  0  0
  -21.0020   -5.7470   25.2480 C   0  0  0  0  0  3  0  0  0  0  0  0
  -21.3260   -4.3780   25.2350 C   0  0  0  0  0  0  0  0  0  0  0  0
  -21.7610   -3.7680   24.0460 C   0  0  0  0  0  3  0  0  0  0  0  0
  -21.8730   -4.5260   22.8680 C   0  0  0  0  0  0  0  0  0  0  0  0
  -22.2720   -3.9290   21.7190 F   0  0  0  0  0  0  0  0  0  0  0  0
  -21.2120   -3.6440   26.3670 F   0  0  0  0  0  0  0  0  0  0  0  0
  -22.7330  -13.2270   21.3090 C   0  0  0  0  0  0  0  0  0  0  0  0
  -22.0760  -12.5480   22.2380 N   0  0  0  0  0  0  0  0  0  0  0  0
  -22.2600  -14.2500   20.8090 O   0  0  0  0  0  0  0  0  0  0  0  0
  -22.4700  -11.7180   22.6580 H   0  0  0  0  0  0  0  0  0  0  0  0
  -21.1640  -12.8610   22.5390 H   0  0  0  0  0  0  0  0  0  0  0  0
  -25.3230  -14.8660   20.2920 N   0  0  0  0  0  0  0  0  0  0  0  0
  -24.5800  -15.5360   20.4570 H   0  0  0  0  0  0  0  0  0  0  0  0
  -26.1350  -15.2830   19.8600 H   0  0  0  0  0  0  0  0  0  0  0  0
  -27.8950  -24.0610   19.9070 C   0  0  0  0  0  2  0  0  0  0  0  0
  -28.4260  -25.3780   19.2520 C   0  0  0  0  0  2  0  0  0  0  0  0
  -28.3780  -26.6210   19.9960 O   0  0  0  0  0  0  0  0  0  0  0  0
  -24.7590  -31.7730   23.3740 C   0  0  0  0  0  0  0  0  0  0  0  0
  -27.2190  -27.3830   20.0310 C   0  0  0  0  0  0  0  0  0  0  0  0
  -23.4820  -30.4800   21.6990 C   0  0  0  0  0  3  0  0  0  0  0  0
  -24.8630  -28.9720   20.1810 C   0  0  0  0  0  0  0  0  0  0  0  0
  -26.0100  -30.7760   21.4610 C   0  0  0  0  0  2  0  0  0  0  0  0
  -26.0510  -29.4250   20.7700 C   0  0  0  0  0  0  0  0  0  0  0  0
  -27.2250  -28.6310   20.7100 C   0  0  0  0  0  3  0  0  0  0  0  0
  -26.0120  -26.9650   19.4240 C   0  0  0  0  0  3  0  0  0  0  0  0
  -24.8420  -27.7380   19.5120 C   0  0  0  0  0  3  0  0  0  0  0  0
  -23.6430  -29.8660   20.2850 C   0  0  0  0  0  2  0  0  0  0  0  0
  -24.7710  -31.0190   22.2370 N   0  0  0  0  0  0  0  0  0  0  0  0
  -23.6970  -32.0480   23.9480 O   0  0  0  0  0  0  0  0  0  0  0  0
  -22.8200  -29.4320   22.6200 C   0  0  0  0  0  0  0  0  0  0  0  0
  -21.5040  -29.2340   22.4510 N   0  0  0  0  0  0  0  0  0  0  0  0
  -23.4880  -28.8050   23.4460 O   0  0  0  0  0  0  0  0  0  0  0  0
  -21.0250  -29.7950   21.7590 H   0  0  0  0  0  0  0  0  0  0  0  0
  -18.1560  -27.9140   22.7710 C   0  0  0  0  0  0  0  0  0  0  0  0
  -20.6820  -28.2740   23.1840 C   0  0  0  0  0  3  0  0  0  0  0  0
  -20.8730  -26.8450   22.6300 C   0  0  0  0  0  2  0  0  0  0  0  0
  -19.8440  -26.4660   21.5590 C   0  0  0  0  0  2  0  0  0  0  0  0
  -18.4230  -26.5650   22.1220 C   0  0  0  0  0  2  0  0  0  0  0  0
  -19.2200  -28.7240   23.2550 C   0  0  0  0  0  0  0  0  0  0  0  0
  -18.9220  -29.9810   23.8220 C   0  0  0  0  0  3  0  0  0  0  0  0
  -17.5950  -30.4370   23.9080 C   0  0  0  0  0  3  0  0  0  0  0  0
  -16.5440  -29.6290   23.4380 C   0  0  0  0  0  3  0  0  0  0  0  0
  -16.8240  -28.3700   22.8790 C   0  0  0  0  0  3  0  0  0  0  0  0
  -26.0730  -32.3440   23.9920 C   0  0  0  0  0  3  0  0  0  0  0  0
  -25.7910  -33.7160   24.4350 N   0  0  0  0  0  0  0  0  0  0  0  0
  -26.1200  -34.8180   23.7470 C   0  0  0  0  0  0  0  0  0  0  0  0
  -26.7640  -34.7850   22.6930 O   0  0  0  0  0  0  0  0  0  0  0  0
  -25.2250  -33.8140   25.2630 H   0  0  0  0  0  0  0  0  0  0  0  0
  -24.4050  -36.6520   23.5720 C   0  0  0  0  0  1  0  0  0  0  0  0
  -25.6610  -36.1740   24.3180 C   0  0  0  0  0  3  0  0  0  0  0  0
  -27.8220  -36.9680   25.1660 C   0  0  0  0  0  1  0  0  0  0  0  0
  -26.7030  -37.2220   24.2620 N   0  0  0  0  0  0  0  0  0  0  0  0
  -26.3120  -38.1310   24.4950 H   0  0  0  0  0  0  0  0  0  0  0  0
  -26.6180  -31.4750   25.1890 C   0  0  1  0  0  0  0  0  0  0  0  0
  -25.5480  -31.1700   26.2640 C   0  0  0  0  0  1  0  0  0  0  0  0
  -27.1730  -30.1290   24.6670 C   0  0  0  0  0  1  0  0  0  0  0  0
  -27.7930  -32.2090   25.8760 C   0  0  0  0  0  1  0  0  0  0  0  0
  1  6  1  0
  1  2  2  0
  2 18  1  0
  2  3  1  0
  3  8  1  0
  4  3  2  0
  4  5  1  0
  6  4  1  0
  8  7  1  0
  9 10  1  0
  9  8  1  0
  9 11  1  0
 13 12  1  0
 13 15  1  0
 13  9  1  0
 15 14  1  0
 15 16  1  0
 17 16  1  0
 19 22  1  0
 19 18  1  0
 20 19  1  0
 21 19  1  0
 23 32  1  0
 23 22  1  0
 24 30  1  0
 24 32  1  0
 25 30  1  0
 26 27  1  0
 26 25  1  0
 28 27  1  0
 28 37  1  0
 28 29  1  0
 30 29  1  0
 31 24  2  0
 32 33  1  0
 34 35  2  0
 35 54  1  0
 36 35  1  0
 36 39  1  0
 37 38  1  0
 37 34  1  0
 38 36  2  0
 39 40  1  0
 40 41  2  0
 42 45  1  0
 42 41  1  0
 43 42  2  0
 44 43  1  0
 44 39  2  0
 45 46  1  0
 46 47  1  0
 47 48  2  0
 49 48  1  0
 49 53  1  0
 50 49  2  0
 51 46  2  0
 51 50  1  0
 52 51  1  0
 54 55  1  0
 55 58  1  0
 55 57  1  0
 56 54  2  0
 59 60  1  0
 59 34  1  0
 61 59  1  0
 62  6  1  0
 63 62  1  0
 63 64  1  0
 64 66  1  0
 65 76  2  0
 66 71  1  0
 67 75  1  0
 67 77  1  0
 68 74  1  0
 68 70  1  0
 69 75  1  0
 70 69  1  0
 71 70  2  0
 72 73  1  0
 72 66  2  0
 73 68  2  0
 74 67  1  0
 75 65  1  0
 77 79  2  0
 78 77  1  0
 80 78  1  0
 81 90  2  0
 81 86  1  0
 82 78  1  0
 82 86  1  0
 83 82  1  0
 84 85  1  0
 84 83  1  0
 85 81  1  0
 86 87  2  0
 87 88  1  0
 89 88  2  0
 90 89  1  0
 91 65  1  0
 91 92  1  0
 91101  1  0
 92 95  1  0
 93 97  1  0
 93 92  1  0
 94 93  2  0
 97 96  1  0
 99 97  1  0
 99100  1  0
 99 98  1  0
101104  1  1
101102  1  0
103101  1  0
M  ISO  4  24 100  32 100  63 101  64 101
M  END
>  <TORSDO>  (10) 
F 27

>  <SCORE>  (10) 
-11.166

>  <name>  (10) 
9

>  <ligand_id>  (10) 
9

>  <original_smiles>  (10) 
[H]OC([H])(C([H])([H])[H])C([H])(C([H])([H])[H])[N+]([H])([H])C([H])(c1c(C([H])([H])[N+]([H])([H])C([H])([H])C([H])([H])N([H])C(=O)N2C([H])([H])C([H])([H])C([H])([H])C([H])(n3nc(-c4c([H])c([H])c(Oc5c([H])c([H])c(F)c([H])c5F)c([H])c4[H])c(C(=O)N([H])[H])c3N([H])[H])C2([H])[H])c([H])n(C([H])([H])C([H])([H])Oc2c([H])c([H])c3c(c2[H])C([H])([H])N(C(=O)C([H])(N([H])C(=O)C([H])(N([H])C([H])([H])[H])C([H])([H])[H])C(C([H])([H])[H])(C([H])([H])[H])C([H])([H])[H])C([H])(C(=O)N([H])C2([H])c4c([H])c([H])c([H])c([H])c4C([H])([H])C([H])([H])C2([H])[H])C3([H])[H])c1C([H])([H])[H])C([H])([H])[H]

>  <smiles>  (10) 
[H]OC([H])(C([H])([H])[H])C([H])(C([H])([H])[H])[N+]([H])([H])C([H])(c1c(C([H])([H])[N+]([H])([H])C([H])([H])C([H])([H])N([H])C(=O)N2C([H])([H])C([H])([H])C([H])([H])C([H])(n3nc(-c4c([H])c([H])c(Oc5c([H])c([H])c(F)c([H])c5F)c([H])c4[H])c(C(=O)N([H])[H])c3N([H])[H])C2([H])[H])c([H])n(C([H])([H])C([H])([H])Oc2c([H])c([H])c3c(c2[H])C([H])([H])N(C(=O)C([H])(N([H])C(=O)C([H])(N([H])C([H])([H])[H])C([H])([H])[H])C(C([H])([H])[H])(C([H])([H])[H])C([H])([H])[H])C([H])(C(=O)N([H])C2([H])c4c([H])c([H])c([H])c([H])c4C([H])([H])C([H])([H])C2([H])[H])C3([H])[H])c1C([H])([H])[H])C([H])([H])[H]

$$$$
10:0:0
     RDKit          3D

 96104  0  0  1  0  0  0  0  0999 V2000
  -29.9210  -20.7370   19.8550 C   0  0  0  0  0  2  0  0  0  0  0  0
  -30.6950  -14.6050   19.2120 C   0  0  0  0  0  0  0  0  0  0  0  0
  -29.9870  -12.6150   17.9250 C   0  0  0  0  0  2  0  0  0  0  0  0
  -28.7860  -12.9730   17.0290 C   0  0  0  0  0  2  0  0  0  0  0  0
  -27.4620  -12.7690   17.7940 C   0  0  0  0  0  2  0  0  0  0  0  0
  -27.4800  -13.4460   19.1870 C   0  0  0  0  0  3  0  0  0  0  0  0
  -28.7790  -13.1210   19.9620 C   0  0  0  0  0  2  0  0  0  0  0  0
  -29.9310  -13.4790   19.1140 N   0  0  0  0  0  0  0  0  0  0  0  0
  -31.6530  -14.8340   18.4680 O   0  0  0  0  0  0  0  0  0  0  0  0
  -31.0260  -19.7000   20.1840 C   0  0  0  0  0  0  0  0  0  0  0  0
  -29.3420  -17.8590   20.4020 C   0  0  0  0  0  2  0  0  0  0  0  0
  -29.2680  -16.4670   19.7500 C   0  0  0  0  0  2  0  0  0  0  0  0
  -31.7490  -17.4550   20.8900 C   0  0  0  0  0  2  0  0  0  0  0  0
  -31.2870  -15.9880   21.1370 C   0  0  0  0  0  3  0  0  0  0  0  0
  -30.7040  -18.4020   20.4530 N   0  0  0  0  0  0  0  0  0  0  0  0
  -30.3180  -15.5150   20.1380 N   0  0  0  0  0  0  0  0  0  0  0  0
  -32.2000  -20.0810   20.2150 O   0  0  0  0  0  0  0  0  0  0  0  0
  -25.4170  -13.9750   20.6390 C   0  0  0  0  0  0  0  0  0  0  0  0
  -24.4250  -13.1790   21.1380 C   0  0  0  0  0  0  0  0  0  0  0  0
  -24.7520  -11.8470   20.7310 C   0  0  0  0  0  0  0  0  0  0  0  0
  -26.2880  -13.1270   19.9670 N   0  0  0  0  0  0  0  0  0  0  0  0
  -25.9050  -11.8310   20.0780 N   0  0  0  0  0  0  0  0  0  0  0  0
  -24.0050  -10.5950   20.8710 C   0  0  0  0  0  0  0  0  0  0  0  0
  -24.5250   -9.5040   21.6010 C   0  0  0  0  0  3  0  0  0  0  0  0
  -23.7780   -8.3140   21.7320 C   0  0  0  0  0  3  0  0  0  0  0  0
  -22.5000   -8.2120   21.1370 C   0  0  0  0  0  0  0  0  0  0  0  0
  -21.9980   -9.2930   20.3900 C   0  0  0  0  0  3  0  0  0  0  0  0
  -22.7430  -10.4750   20.2560 C   0  0  0  0  0  3  0  0  0  0  0  0
  -21.7110   -7.0880   21.1930 O   0  0  0  0  0  0  0  0  0  0  0  0
  -21.6830   -6.2850   22.3050 C   0  0  0  0  0  0  0  0  0  0  0  0
  -21.3570   -6.7910   23.5810 C   0  0  0  0  0  3  0  0  0  0  0  0
  -21.2760   -5.9190   24.6840 C   0  0  0  0  0  3  0  0  0  0  0  0
  -21.5070   -4.5410   24.5100 C   0  0  0  0  0  0  0  0  0  0  0  0
  -21.8290   -4.0350   23.2380 C   0  0  0  0  0  3  0  0  0  0  0  0
  -21.9110   -4.9040   22.1370 C   0  0  0  0  0  0  0  0  0  0  0  0
  -22.1990   -4.4070   20.9090 F   0  0  0  0  0  0  0  0  0  0  0  0
  -21.4200   -3.7000   25.5680 F   0  0  0  0  0  0  0  0  0  0  0  0
  -23.1960  -13.6290   21.8740 C   0  0  0  0  0  0  0  0  0  0  0  0
  -22.6880  -12.8010   22.7790 N   0  0  0  0  0  0  0  0  0  0  0  0
  -22.7070  -14.7440   21.6830 O   0  0  0  0  0  0  0  0  0  0  0  0
  -23.1050  -11.8970   22.9430 H   0  0  0  0  0  0  0  0  0  0  0  0
  -21.8750  -13.0700   23.3140 H   0  0  0  0  0  0  0  0  0  0  0  0
  -25.6340  -15.3480   20.6780 N   0  0  0  0  0  0  0  0  0  0  0  0
  -24.9650  -15.9790   21.1020 H   0  0  0  0  0  0  0  0  0  0  0  0
  -26.3580  -15.8230   20.1580 H   0  0  0  0  0  0  0  0  0  0  0  0
  -30.7420  -15.7160   22.5610 C   0  0  0  0  0  2  0  0  0  0  0  0
  -31.4790  -15.6610   25.0240 C   0  0  0  0  0  1  0  0  0  0  0  0
  -31.8680  -15.3980   23.5610 C   0  0  0  0  0  2  0  0  0  0  0  0
  -30.3650  -22.2290   19.9850 C   0  0  0  0  0  2  0  0  0  0  0  0
  -29.2410  -23.1800   20.2220 N   0  0  0  0  0  4  0  0  0  0  0  0
  -28.8950  -23.0460   21.1610 H   0  0  0  0  0  0  0  0  0  0  0  0
  -28.4870  -22.9300   19.5980 H   0  0  0  0  0  0  0  0  0  0  0  0
  -30.1500  -25.2650   21.2970 C   0  0  0  0  0  1  0  0  0  0  0  0
  -29.5390  -24.6360   20.0250 C   0  0  0  0  0  3  0  0  0  0  0  0
  -28.2540  -25.3960   19.6090 C   0  0  0  0  0  2  0  0  0  0  0  0
  -28.3240  -26.8150   19.8500 O   0  0  0  0  0  0  0  0  0  0  0  0
  -24.4430  -31.8180   23.1670 C   0  0  0  0  0  0  0  0  0  0  0  0
  -27.1230  -27.4990   19.9120 C   0  0  0  0  0  0  0  0  0  0  0  0
  -23.2350  -30.4010   21.5450 C   0  0  0  0  0  3  0  0  0  0  0  0
  -24.6860  -28.9360   20.0550 C   0  0  0  0  0  0  0  0  0  0  0  0
  -25.7470  -30.8330   21.2850 C   0  0  0  0  0  2  0  0  0  0  0  0
  -25.8500  -29.4800   20.6080 C   0  0  0  0  0  0  0  0  0  0  0  0
  -27.0730  -28.7700   20.5320 C   0  0  0  0  0  3  0  0  0  0  0  0
  -25.9280  -26.9670   19.3680 C   0  0  0  0  0  3  0  0  0  0  0  0
  -24.7180  -27.6750   19.4410 C   0  0  0  0  0  3  0  0  0  0  0  0
  -23.4240  -29.7580   20.1490 C   0  0  0  0  0  2  0  0  0  0  0  0
  -24.4950  -31.0340   22.0540 N   0  0  0  0  0  0  0  0  0  0  0  0
  -23.3690  -32.0480   23.7400 O   0  0  0  0  0  0  0  0  0  0  0  0
  -22.6500  -29.3400   22.5050 C   0  0  0  0  0  0  0  0  0  0  0  0
  -21.3390  -29.0680   22.3740 N   0  0  0  0  0  0  0  0  0  0  0  0
  -23.3690  -28.7650   23.3280 O   0  0  0  0  0  0  0  0  0  0  0  0
  -20.8170  -29.5890   21.6840 H   0  0  0  0  0  0  0  0  0  0  0  0
  -18.0650  -27.6030   22.8120 C   0  0  0  0  0  0  0  0  0  0  0  0
  -20.5820  -28.0830   23.1460 C   0  0  0  0  0  3  0  0  0  0  0  0
  -20.8200  -26.6510   22.6130 C   0  0  0  0  0  2  0  0  0  0  0  0
  -19.7790  -26.2110   21.5780 C   0  0  0  0  0  2  0  0  0  0  0  0
  -18.3720  -26.2560   22.1820 C   0  0  0  0  0  2  0  0  0  0  0  0
  -19.1020  -28.4680   23.2520 C   0  0  0  0  0  0  0  0  0  0  0  0
  -18.7600  -29.7240   23.7990 C   0  0  0  0  0  3  0  0  0  0  0  0
  -17.4130  -30.1190   23.9110 C   0  0  0  0  0  3  0  0  0  0  0  0
  -16.3890  -29.2510   23.4860 C   0  0  0  0  0  3  0  0  0  0  0  0
  -16.7170  -27.9940   22.9450 C   0  0  0  0  0  3  0  0  0  0  0  0
  -25.7250  -32.4850   23.7560 C   0  0  0  0  0  3  0  0  0  0  0  0
  -26.3000  -31.7250   25.0130 C   0  0  1  0  0  0  0  0  0  0  0  0
  -25.2410  -31.4190   26.0980 C   0  0  0  0  0  1  0  0  0  0  0  0
  -26.9390  -30.3810   24.5940 C   0  0  0  0  0  1  0  0  0  0  0  0
  -27.4290  -32.5620   25.6600 C   0  0  0  0  0  1  0  0  0  0  0  0
  -25.3820  -33.8710   24.1000 N   0  0  0  0  0  0  0  0  0  0  0  0
  -25.6310  -34.9320   23.3210 C   0  0  0  0  0  0  0  0  0  0  0  0
  -26.2460  -34.8500   22.2530 O   0  0  0  0  0  0  0  0  0  0  0  0
  -24.8260  -34.0060   24.9320 H   0  0  0  0  0  0  0  0  0  0  0  0
  -23.8030  -36.6430   23.0720 C   0  0  0  0  0  1  0  0  0  0  0  0
  -25.1140  -36.3020   23.7990 C   0  0  0  0  0  3  0  0  0  0  0  0
  -27.2620  -37.2880   24.4710 C   0  0  0  0  0  1  0  0  0  0  0  0
  -26.0890  -37.3990   23.6070 N   0  0  0  0  0  0  0  0  0  0  0  0
  -25.6550  -38.3010   23.7800 H   0  0  0  0  0  0  0  0  0  0  0  0
  1 49  1  0
  1 10  1  0
  2 16  1  0
  3  8  1  0
  4  5  1  0
  4  3  1  0
  6  5  1  0
  6  7  1  0
  6 21  1  0
  8  2  1  0
  8  7  1  0
  9  2  2  0
 10 17  2  0
 10 15  1  0
 11 15  1  0
 12 16  1  0
 12 11  1  0
 13 14  1  0
 14 46  1  0
 15 13  1  0
 16 14  1  0
 18 43  1  0
 18 19  2  0
 19 38  1  0
 20 23  1  0
 20 19  1  0
 21 22  1  0
 21 18  1  0
 22 20  2  0
 23 24  1  0
 24 25  2  0
 26 29  1  0
 26 25  1  0
 27 26  2  0
 28 27  1  0
 28 23  2  0
 29 30  1  0
 30 31  1  0
 31 32  2  0
 33 32  1  0
 33 37  1  0
 34 33  2  0
 35 30  2  0
 35 34  1  0
 36 35  1  0
 38 39  1  0
 39 41  1  0
 39 42  1  0
 40 38  2  0
 43 44  1  0
 45 43  1  0
 46 48  1  0
 48 47  1  0
 49 50  1  0
 50 51  1  0
 52 50  1  0
 54 50  1  0
 54 53  1  0
 55 56  1  0
 55 54  1  0
 56 58  1  0
 57 68  2  0
 58 63  1  0
 59 67  1  0
 59 69  1  0
 60 66  1  0
 60 62  1  0
 61 67  1  0
 62 61  1  0
 63 62  2  0
 64 65  1  0
 64 58  2  0
 65 60  2  0
 66 59  1  0
 67 57  1  0
 69 71  2  0
 70 69  1  0
 72 70  1  0
 73 82  2  0
 73 78  1  0
 74 70  1  0
 74 78  1  0
 75 74  1  0
 76 77  1  0
 76 75  1  0
 77 73  1  0
 78 79  2  0
 79 80  1  0
 81 80  2  0
 82 81  1  0
 83 57  1  0
 83 88  1  0
 83 84  1  0
 84 87  1  1
 84 85  1  0
 86 84  1  0
 88 91  1  0
 89 93  1  0
 89 88  1  0
 90 89  2  0
 93 92  1  0
 95 96  1  0
 95 93  1  0
 95 94  1  0
M  ISO  4   2 100  16 100  55 101  56 101
M  END
>  <TORSDO>  (11) 
F 22

>  <SCORE>  (11) 
-0.626

>  <name>  (11) 
10

>  <ligand_id>  (11) 
10

>  <original_smiles>  (11) 
[H]c1c([H])c([H])c2c(c1[H])C([H])([H])C([H])([H])C([H])([H])C2([H])N([H])C(=O)C1([H])N(C(=O)C([H])(N([H])C(=O)C([H])(N([H])C([H])([H])[H])C([H])([H])[H])C(C([H])([H])[H])(C([H])([H])[H])C([H])([H])[H])C([H])([H])c2c([H])c(OC([H])([H])C([H])(C([H])([H])[H])[N+]([H])([H])C([H])([H])C([H])([H])C(=O)N3C([H])([H])C([H])([H])N(C(=O)N4C([H])([H])C([H])([H])C([H])([H])C([H])(n5nc(-c6c([H])c([H])c(Oc7c([H])c([H])c(F)c([H])c7F)c([H])c6[H])c(C(=O)N([H])[H])c5N([H])[H])C4([H])[H])C([H])(C([H])([H])C([H])([H])C([H])([H])[H])C3([H])[H])c([H])c([H])c2C1([H])[H]

>  <smiles>  (11) 
[H]c1c([H])c([H])c2c(c1[H])C([H])([H])C([H])([H])C([H])([H])C2([H])N([H])C(=O)C1([H])N(C(=O)C([H])(N([H])C(=O)C([H])(N([H])C([H])([H])[H])C([H])([H])[H])C(C([H])([H])[H])(C([H])([H])[H])C([H])([H])[H])C([H])([H])c2c([H])c(OC([H])([H])C([H])(C([H])([H])[H])[N+]([H])([H])C([H])([H])C([H])([H])C(=O)N3C([H])([H])C([H])([H])N(C(=O)N4C([H])([H])C([H])([H])C([H])([H])C([H])(n5nc(-c6c([H])c([H])c(Oc7c([H])c([H])c(F)c([H])c7F)c([H])c6[H])c(C(=O)N([H])[H])c5N([H])[H])C4([H])[H])C([H])(C([H])([H])C([H])([H])C([H])([H])[H])C3([H])[H])c([H])c([H])c2C1([H])[H]

$$$$
11:0:0
     RDKit          3D

 88 96  0  0  1  0  0  0  0  0999 V2000
  -30.4060  -15.2580   20.3580 C   0  0  0  0  0  0  0  0  0  0  0  0
  -30.4360  -12.8180   19.4910 C   0  0  0  0  0  2  0  0  0  0  0  0
  -29.5310  -12.6320   18.2470 C   0  0  0  0  0  2  0  0  0  0  0  0
  -28.0720  -12.3630   18.6610 C   0  0  0  0  0  2  0  0  0  0  0  0
  -27.6030  -13.3180   19.7870 C   0  0  0  0  0  3  0  0  0  0  0  0
  -28.6330  -13.4420   20.9290 C   0  0  0  0  0  2  0  0  0  0  0  0
  -29.8790  -13.9410   20.3240 N   0  0  0  0  0  0  0  0  0  0  0  0
  -31.6260  -15.3100   20.1300 O   0  0  0  0  0  0  0  0  0  0  0  0
  -30.4210  -20.4720   20.2520 C   0  0  0  0  0  3  0  0  0  0  0  0
  -30.5760  -19.0010   20.2950 C   0  0  0  0  0  3  0  0  0  0  0  0
  -28.1600  -20.2300   20.3660 C   0  0  0  0  0  3  0  0  0  0  0  0
  -29.1860  -21.2540   20.2750 C   0  0  0  0  0  0  0  0  0  0  0  0
  -29.4960  -18.0510   20.3840 C   0  0  0  0  0  0  0  0  0  0  0  0
  -28.3120  -18.8080   20.4170 N   0  0  0  0  0  0  0  0  0  0  0  0
  -29.5450  -16.4460   20.4610 N   0  0  0  0  0  0  0  0  0  0  0  0
  -28.6100  -16.1020   20.6030 H   0  0  0  0  0  0  0  0  0  0  0  0
  -25.2090  -13.8650   20.4830 C   0  0  0  0  0  0  0  0  0  0  0  0
  -24.1490  -13.0820   20.8450 C   0  0  0  0  0  0  0  0  0  0  0  0
  -24.6310  -11.7370   20.8410 C   0  0  0  0  0  0  0  0  0  0  0  0
  -26.2660  -12.9990   20.2720 N   0  0  0  0  0  0  0  0  0  0  0  0
  -25.9300  -11.7130   20.5550 N   0  0  0  0  0  0  0  0  0  0  0  0
  -23.9150  -10.4690   21.0330 C   0  0  0  0  0  0  0  0  0  0  0  0
  -24.3420   -9.5140   21.9810 C   0  0  0  0  0  3  0  0  0  0  0  0
  -23.6230   -8.3120   22.1620 C   0  0  0  0  0  3  0  0  0  0  0  0
  -22.4610   -8.0580   21.3950 C   0  0  0  0  0  0  0  0  0  0  0  0
  -22.0530   -9.0020   20.4360 C   0  0  0  0  0  3  0  0  0  0  0  0
  -22.7730  -10.1940   20.2530 C   0  0  0  0  0  3  0  0  0  0  0  0
  -21.7150   -6.9080   21.4830 O   0  0  0  0  0  0  0  0  0  0  0  0
  -21.6600   -6.1740   22.6410 C   0  0  0  0  0  0  0  0  0  0  0  0
  -21.2120   -6.7320   23.8570 C   0  0  0  0  0  3  0  0  0  0  0  0
  -21.1040   -5.9230   25.0060 C   0  0  0  0  0  3  0  0  0  0  0  0
  -21.4370   -4.5560   24.9390 C   0  0  0  0  0  0  0  0  0  0  0  0
  -21.8780   -3.9980   23.7270 C   0  0  0  0  0  3  0  0  0  0  0  0
  -21.9860   -4.8030   22.5810 C   0  0  0  0  0  0  0  0  0  0  0  0
  -22.3920   -4.2550   21.4110 F   0  0  0  0  0  0  0  0  0  0  0  0
  -21.3270   -3.7780   26.0410 F   0  0  0  0  0  0  0  0  0  0  0  0
  -22.7420  -13.5460   21.0780 C   0  0  0  0  0  0  0  0  0  0  0  0
  -22.0050  -12.8610   21.9440 N   0  0  0  0  0  0  0  0  0  0  0  0
  -22.3030  -14.5550   20.5260 O   0  0  0  0  0  0  0  0  0  0  0  0
  -22.3720  -12.0480   22.4130 H   0  0  0  0  0  0  0  0  0  0  0  0
  -21.0590  -13.1570   22.1430 H   0  0  0  0  0  0  0  0  0  0  0  0
  -25.3540  -15.2360   20.2860 N   0  0  0  0  0  0  0  0  0  0  0  0
  -24.5660  -15.8700   20.3660 H   0  0  0  0  0  0  0  0  0  0  0  0
  -26.1780  -15.6830   19.9060 H   0  0  0  0  0  0  0  0  0  0  0  0
  -30.0480  -23.3760   18.9880 C   0  0  0  0  0  1  0  0  0  0  0  0
  -29.1710  -23.0030   20.1950 C   0  0  0  0  0  3  0  0  0  0  0  0
  -27.9910  -24.3310   20.2370 C   0  0  0  0  0  2  0  0  0  0  0  0
  -28.2180  -25.9540   20.2620 O   0  0  0  0  0  0  0  0  0  0  0  0
  -24.6780  -31.8940   23.2270 C   0  0  0  0  0  0  0  0  0  0  0  0
  -27.1900  -27.0200   20.2160 C   0  0  0  0  0  0  0  0  0  0  0  0
  -23.4630  -30.4980   21.6030 C   0  0  0  0  0  3  0  0  0  0  0  0
  -24.8930  -28.8830   20.1780 C   0  0  0  0  0  0  0  0  0  0  0  0
  -26.0270  -30.7060   21.4330 C   0  0  0  0  0  2  0  0  0  0  0  0
  -26.0860  -29.2960   20.7850 C   0  0  0  0  0  0  0  0  0  0  0  0
  -27.2300  -28.3860   20.7760 C   0  0  0  0  0  3  0  0  0  0  0  0
  -25.9650  -26.7480   19.5670 C   0  0  0  0  0  3  0  0  0  0  0  0
  -24.8540  -27.6300   19.5500 C   0  0  0  0  0  3  0  0  0  0  0  0
  -23.6770  -29.8070   20.2280 C   0  0  0  0  0  2  0  0  0  0  0  0
  -24.7450  -31.0590   22.1420 N   0  0  0  0  0  0  0  0  0  0  0  0
  -23.5950  -32.1910   23.7570 O   0  0  0  0  0  0  0  0  0  0  0  0
  -22.7730  -29.5080   22.5770 C   0  0  0  0  0  0  0  0  0  0  0  0
  -21.4420  -29.3470   22.4580 N   0  0  0  0  0  0  0  0  0  0  0  0
  -23.4400  -28.8860   23.4070 O   0  0  0  0  0  0  0  0  0  0  0  0
  -20.9570  -29.8980   21.7640 H   0  0  0  0  0  0  0  0  0  0  0  0
  -18.0600  -28.1420   22.9740 C   0  0  0  0  0  0  0  0  0  0  0  0
  -20.6190  -28.4170   23.2380 C   0  0  0  0  0  3  0  0  0  0  0  0
  -20.7250  -26.9770   22.6800 C   0  0  0  0  0  2  0  0  0  0  0  0
  -19.6240  -26.6410   21.6680 C   0  0  0  0  0  2  0  0  0  0  0  0
  -18.2410  -26.7870   22.3090 C   0  0  0  0  0  2  0  0  0  0  0  0
  -19.1760  -28.9130   23.3950 C   0  0  0  0  0  0  0  0  0  0  0  0
  -18.9500  -30.1780   23.9790 C   0  0  0  0  0  3  0  0  0  0  0  0
  -17.6420  -30.6730   24.1440 C   0  0  0  0  0  3  0  0  0  0  0  0
  -16.5410  -29.8990   23.7370 C   0  0  0  0  0  3  0  0  0  0  0  0
  -16.7510  -28.6340   23.1580 C   0  0  0  0  0  3  0  0  0  0  0  0
  -25.9580  -32.5300   23.8490 C   0  0  0  0  0  3  0  0  0  0  0  0
  -25.6480  -33.9290   24.1890 N   0  0  0  0  0  0  0  0  0  0  0  0
  -25.9620  -34.9900   23.4330 C   0  0  0  0  0  0  0  0  0  0  0  0
  -26.6040  -34.8940   22.3850 O   0  0  0  0  0  0  0  0  0  0  0  0
  -25.0740  -34.0780   25.0050 H   0  0  0  0  0  0  0  0  0  0  0  0
  -24.2170  -36.7850   23.1550 C   0  0  0  0  0  1  0  0  0  0  0  0
  -25.4890  -36.3780   23.9140 C   0  0  0  0  0  3  0  0  0  0  0  0
  -27.6510  -37.2710   24.6640 C   0  0  0  0  0  1  0  0  0  0  0  0
  -26.5140  -37.4350   23.7640 N   0  0  0  0  0  0  0  0  0  0  0  0
  -26.1100  -38.3540   23.9270 H   0  0  0  0  0  0  0  0  0  0  0  0
  -26.4740  -31.7610   25.1280 C   0  0  1  0  0  0  0  0  0  0  0  0
  -25.3820  -31.5350   26.2020 C   0  0  0  0  0  1  0  0  0  0  0  0
  -27.0470  -30.3770   24.7470 C   0  0  0  0  0  1  0  0  0  0  0  0
  -27.6310  -32.5500   25.7830 C   0  0  0  0  0  1  0  0  0  0  0  0
  1 15  1  0
  2  7  1  0
  3  4  1  0
  3  2  1  0
  5  4  1  0
  5 20  1  0
  5  6  1  0
  7  1  1  0
  7  6  1  0
  8  1  2  0
  9 12  2  0
  9 10  1  0
 10 13  2  0
 11 14  2  0
 12 11  1  0
 13 14  1  0
 13 15  1  0
 15 16  1  0
 17 18  2  0
 18 37  1  0
 19 18  1  0
 19 22  1  0
 20 17  1  0
 20 21  1  0
 21 19  2  0
 22 23  1  0
 23 24  2  0
 25 28  1  0
 25 24  1  0
 26 25  2  0
 27 26  1  0
 27 22  2  0
 28 29  1  0
 29 30  1  0
 30 31  2  0
 32 31  1  0
 32 36  1  0
 33 32  2  0
 34 29  2  0
 34 33  1  0
 35 34  1  0
 37 38  1  0
 38 41  1  0
 38 40  1  0
 39 37  2  0
 42 43  1  0
 42 17  1  0
 44 42  1  0
 46 45  1  0
 46 47  1  0
 46 12  1  0
 47 48  1  0
 49 60  2  0
 50 48  1  0
 50 55  1  0
 51 59  1  0
 51 61  1  0
 52 58  1  0
 52 54  1  0
 53 59  1  0
 54 53  1  0
 55 54  2  0
 56 50  2  0
 57 56  1  0
 57 52  2  0
 58 51  1  0
 59 49  1  0
 61 63  2  0
 62 61  1  0
 64 62  1  0
 65 74  2  0
 65 70  1  0
 66 62  1  0
 66 70  1  0
 67 66  1  0
 68 69  1  0
 68 67  1  0
 69 65  1  0
 70 71  2  0
 71 72  1  0
 73 72  2  0
 74 73  1  0
 75 49  1  0
 75 76  1  0
 75 85  1  0
 76 79  1  0
 77 81  1  0
 77 76  1  0
 78 77  2  0
 81 80  1  0
 83 81  1  0
 83 84  1  0
 83 82  1  0
 85 88  1  1
 85 86  1  0
 87 85  1  0
M  ISO  4   1 100  15 100  47 101  48 101
M  END
>  <TORSDO>  (12) 
F 17

>  <SCORE>  (12) 
-16.130

>  <name>  (12) 
11

>  <ligand_id>  (12) 
11

>  <original_smiles>  (12) 
[H]c1nc(N([H])C(=O)N2C([H])([H])C([H])([H])C([H])([H])C([H])(n3nc(-c4c([H])c([H])c(Oc5c([H])c([H])c(F)c([H])c5F)c([H])c4[H])c(C(=O)N([H])[H])c3N([H])[H])C2([H])[H])c([H])c([H])c1C([H])(C([H])([H])[H])C([H])([H])Oc1c([H])c([H])c2c(c1[H])C([H])([H])N(C(=O)C([H])(N([H])C(=O)C([H])(N([H])C([H])([H])[H])C([H])([H])[H])C(C([H])([H])[H])(C([H])([H])[H])C([H])([H])[H])C([H])(C(=O)N([H])C1([H])c3c([H])c([H])c([H])c([H])c3C([H])([H])C([H])([H])C1([H])[H])C2([H])[H]

>  <smiles>  (12) 
[H]c1nc(N([H])C(=O)N2C([H])([H])C([H])([H])C([H])([H])C([H])(n3nc(-c4c([H])c([H])c(Oc5c([H])c([H])c(F)c([H])c5F)c([H])c4[H])c(C(=O)N([H])[H])c3N([H])[H])C2([H])[H])c([H])c([H])c1C([H])(C([H])([H])[H])C([H])([H])Oc1c([H])c([H])c2c(c1[H])C([H])([H])N(C(=O)C([H])(N([H])C(=O)C([H])(N([H])C([H])([H])[H])C([H])([H])[H])C(C([H])([H])[H])(C([H])([H])[H])C([H])([H])[H])C([H])(C(=O)N([H])C1([H])c3c([H])c([H])c([H])c([H])c3C([H])([H])C([H])([H])C1([H])[H])C2([H])[H]

$$$$
12:0:0
     RDKit          3D

 91 99  0  0  1  0  0  0  0  0999 V2000
  -29.0790  -23.3080   21.7780 C   0  0  0  0  0  1  0  0  0  0  0  0
  -29.6650  -23.5540   20.3710 C   0  0  1  0  0  0  0  0  0  0  0  0
  -31.8380  -24.5770   19.3290 C   0  0  0  0  0  1  0  0  0  0  0  0
  -31.0770  -24.1620   20.6030 C   0  0  0  0  0  2  0  0  0  0  0  0
  -29.9750  -22.0190   19.6140 C   0  0  0  0  0  2  0  0  0  0  0  0
  -27.1370  -19.6770   19.9820 C   0  0  0  0  0  3  0  0  0  0  0  0
  -28.0970  -18.6430   19.9430 C   0  0  0  0  0  3  0  0  0  0  0  0
  -27.7940  -20.8560   19.8420 C   0  0  0  0  0  3  0  0  0  0  0  0
  -29.3570  -19.1550   19.7600 C   0  0  0  0  0  0  0  0  0  0  0  0
  -29.1690  -20.6650   19.7810 N   0  0  0  0  0  0  0  0  0  0  0  0
  -30.5330  -18.0250   19.5940 C   0  0  0  0  0  2  0  0  0  0  0  0
  -31.0280  -15.2720   19.7880 C   0  0  0  0  0  0  0  0  0  0  0  0
  -30.8460  -12.8660   18.9870 C   0  0  0  0  0  2  0  0  0  0  0  0
  -29.8790  -12.7690   17.7830 C   0  0  0  0  0  2  0  0  0  0  0  0
  -28.4250  -12.6090   18.2640 C   0  0  0  0  0  2  0  0  0  0  0  0
  -28.0670  -13.6040   19.3990 C   0  0  0  0  0  3  0  0  0  0  0  0
  -29.1530  -13.6590   20.4950 C   0  0  0  0  0  2  0  0  0  0  0  0
  -30.4130  -14.0180   19.8320 N   0  0  0  0  0  0  0  0  0  0  0  0
  -32.2190  -15.2930   19.4600 O   0  0  0  0  0  0  0  0  0  0  0  0
  -30.2700  -16.4780   19.9020 N   0  0  0  0  0  0  0  0  0  0  0  0
  -29.3110  -16.2950   20.1490 H   0  0  0  0  0  0  0  0  0  0  0  0
  -25.7470  -14.2790   20.2400 C   0  0  0  0  0  0  0  0  0  0  0  0
  -24.6650  -13.5490   20.6430 C   0  0  0  0  0  0  0  0  0  0  0  0
  -25.0650  -12.1790   20.5780 C   0  0  0  0  0  0  0  0  0  0  0  0
  -26.7380  -13.3580   19.9480 N   0  0  0  0  0  0  0  0  0  0  0  0
  -26.3400  -12.0870   20.2170 N   0  0  0  0  0  0  0  0  0  0  0  0
  -24.2870  -10.9490   20.7810 C   0  0  0  0  0  0  0  0  0  0  0  0
  -24.6850   -9.9670   21.7150 C   0  0  0  0  0  3  0  0  0  0  0  0
  -23.9090   -8.8030   21.9060 C   0  0  0  0  0  3  0  0  0  0  0  0
  -22.7190   -8.6130   21.1630 C   0  0  0  0  0  0  0  0  0  0  0  0
  -22.3400   -9.5830   20.2170 C   0  0  0  0  0  3  0  0  0  0  0  0
  -23.1160  -10.7380   20.0250 C   0  0  0  0  0  3  0  0  0  0  0  0
  -21.9160   -7.5030   21.2640 O   0  0  0  0  0  0  0  0  0  0  0  0
  -21.8020   -6.8020   22.4380 C   0  0  0  0  0  0  0  0  0  0  0  0
  -21.3940   -7.4220   23.6390 C   0  0  0  0  0  3  0  0  0  0  0  0
  -21.2210   -6.6500   24.8050 C   0  0  0  0  0  3  0  0  0  0  0  0
  -21.4460   -5.2620   24.7710 C   0  0  0  0  0  0  0  0  0  0  0  0
  -21.8470   -4.6420   23.5750 C   0  0  0  0  0  3  0  0  0  0  0  0
  -22.0210   -5.4110   22.4110 C   0  0  0  0  0  0  0  0  0  0  0  0
  -22.3860   -4.8050   21.2550 F   0  0  0  0  0  0  0  0  0  0  0  0
  -21.2730   -4.5190   25.8900 F   0  0  0  0  0  0  0  0  0  0  0  0
  -23.3020  -14.0870   20.9730 C   0  0  0  0  0  0  0  0  0  0  0  0
  -22.5840  -13.4260   21.8740 N   0  0  0  0  0  0  0  0  0  0  0  0
  -22.8870  -15.1270   20.4640 O   0  0  0  0  0  0  0  0  0  0  0  0
  -22.9340  -12.5850   22.3060 H   0  0  0  0  0  0  0  0  0  0  0  0
  -21.6710  -13.7700   22.1360 H   0  0  0  0  0  0  0  0  0  0  0  0
  -25.9660  -15.6430   20.0710 N   0  0  0  0  0  0  0  0  0  0  0  0
  -25.2300  -16.3240   20.2210 H   0  0  0  0  0  0  0  0  0  0  0  0
  -26.8030  -16.0510   19.6770 H   0  0  0  0  0  0  0  0  0  0  0  0
  -28.7720  -24.8670   19.7350 C   0  0  0  0  0  2  0  0  0  0  0  0
  -28.8340  -26.3740   20.1820 O   0  0  0  0  0  0  0  0  0  0  0  0
  -24.7710  -31.7910   23.1400 C   0  0  0  0  0  0  0  0  0  0  0  0
  -27.7230  -27.3010   20.0870 C   0  0  0  0  0  0  0  0  0  0  0  0
  -23.7090  -30.3650   21.4320 C   0  0  0  0  0  3  0  0  0  0  0  0
  -25.2950  -28.9140   20.0160 C   0  0  0  0  0  0  0  0  0  0  0  0
  -26.2470  -30.7840   21.3550 C   0  0  0  0  0  2  0  0  0  0  0  0
  -26.4260  -29.4140   20.6740 C   0  0  0  0  0  0  0  0  0  0  0  0
  -27.6390  -28.6240   20.6910 C   0  0  0  0  0  3  0  0  0  0  0  0
  -26.5620  -26.9080   19.3850 C   0  0  0  0  0  3  0  0  0  0  0  0
  -25.3770  -27.6770   19.3560 C   0  0  0  0  0  3  0  0  0  0  0  0
  -24.0130  -29.7350   20.0460 C   0  0  0  0  0  2  0  0  0  0  0  0
  -24.9260  -31.0020   22.0320 N   0  0  0  0  0  0  0  0  0  0  0  0
  -23.6540  -31.9960   23.6390 O   0  0  0  0  0  0  0  0  0  0  0  0
  -23.0630  -29.2970   22.3510 C   0  0  0  0  0  0  0  0  0  0  0  0
  -21.7470  -29.0690   22.1970 N   0  0  0  0  0  0  0  0  0  0  0  0
  -23.7510  -28.6770   23.1660 O   0  0  0  0  0  0  0  0  0  0  0  0
  -21.2460  -29.6230   21.5160 H   0  0  0  0  0  0  0  0  0  0  0  0
  -18.4120  -27.7200   22.6320 C   0  0  0  0  0  0  0  0  0  0  0  0
  -20.9580  -28.0690   22.9230 C   0  0  0  0  0  3  0  0  0  0  0  0
  -21.1170  -26.6680   22.2890 C   0  0  0  0  0  2  0  0  0  0  0  0
  -20.0310  -26.3460   21.2560 C   0  0  0  0  0  2  0  0  0  0  0  0
  -18.6430  -26.4100   21.8990 C   0  0  0  0  0  2  0  0  0  0  0  0
  -19.4980  -28.5060   23.0990 C   0  0  0  0  0  0  0  0  0  0  0  0
  -19.2280  -29.7310   23.7470 C   0  0  0  0  0  3  0  0  0  0  0  0
  -17.9040  -30.1710   23.9320 C   0  0  0  0  0  3  0  0  0  0  0  0
  -16.8320  -29.3830   23.4800 C   0  0  0  0  0  3  0  0  0  0  0  0
  -17.0860  -28.1590   22.8370 C   0  0  0  0  0  3  0  0  0  0  0  0
  -25.9870  -32.4880   23.8220 C   0  0  0  0  0  3  0  0  0  0  0  0
  -25.5980  -33.8740   24.1240 N   0  0  0  0  0  0  0  0  0  0  0  0
  -25.9120  -34.9380   23.3710 C   0  0  0  0  0  0  0  0  0  0  0  0
  -26.6240  -34.8580   22.3670 O   0  0  0  0  0  0  0  0  0  0  0  0
  -24.9660  -34.0070   24.8990 H   0  0  0  0  0  0  0  0  0  0  0  0
  -24.1170  -36.6510   22.9460 C   0  0  0  0  0  1  0  0  0  0  0  0
  -25.3490  -36.3080   23.8000 C   0  0  0  0  0  3  0  0  0  0  0  0
  -27.4130  -37.2980   24.6900 C   0  0  0  0  0  1  0  0  0  0  0  0
  -26.3360  -37.4070   23.7100 N   0  0  0  0  0  0  0  0  0  0  0  0
  -25.8830  -38.3090   23.8330 H   0  0  0  0  0  0  0  0  0  0  0  0
  -26.4650  -31.7540   25.1360 C   0  0  1  0  0  0  0  0  0  0  0  0
  -25.3260  -31.4840   26.1480 C   0  0  0  0  0  1  0  0  0  0  0  0
  -27.1260  -30.3970   24.8010 C   0  0  0  0  0  1  0  0  0  0  0  0
  -27.5440  -32.6050   25.8470 C   0  0  0  0  0  1  0  0  0  0  0  0
  2  4  1  0
  2  1  1  1
  3  4  1  0
  5 10  1  0
  5  2  1  0
  7  6  1  0
  8  6  2  0
  9 10  1  0
  9  7  2  0
 10  8  1  0
 11  9  1  0
 11 20  1  0
 12 18  1  0
 12 20  1  0
 13 18  1  0
 14 15  1  0
 14 13  1  0
 16 15  1  0
 16 25  1  0
 16 17  1  0
 18 17  1  0
 19 12  2  0
 20 21  1  0
 22 23  2  0
 23 42  1  0
 24 23  1  0
 24 27  1  0
 25 26  1  0
 25 22  1  0
 26 24  2  0
 27 28  1  0
 28 29  2  0
 30 33  1  0
 30 29  1  0
 31 30  2  0
 32 31  1  0
 32 27  2  0
 33 34  1  0
 34 35  1  0
 35 36  2  0
 37 36  1  0
 37 41  1  0
 38 37  2  0
 39 34  2  0
 39 38  1  0
 40 39  1  0
 42 43  1  0
 43 46  1  0
 43 45  1  0
 44 42  2  0
 47 48  1  0
 47 22  1  0
 49 47  1  0
 50 51  1  0
 50  2  1  0
 52 63  2  0
 53 51  1  0
 53 58  1  0
 54 62  1  0
 54 64  1  0
 55 61  1  0
 55 57  1  0
 56 62  1  0
 57 58  2  0
 57 56  1  0
 59 53  2  0
 60 59  1  0
 60 55  2  0
 61 54  1  0
 62 52  1  0
 64 66  2  0
 65 64  1  0
 67 65  1  0
 68 77  2  0
 68 73  1  0
 69 65  1  0
 69 73  1  0
 70 69  1  0
 71 72  1  0
 71 70  1  0
 72 68  1  0
 73 74  2  0
 74 75  1  0
 76 75  2  0
 77 76  1  0
 78 52  1  0
 78 79  1  0
 78 88  1  0
 79 82  1  0
 80 84  1  0
 80 79  1  0
 81 80  2  0
 84 83  1  0
 86 84  1  0
 86 87  1  0
 86 85  1  0
 88 91  1  1
 88 89  1  0
 90 88  1  0
M  ISO  4  12 100  20 100  50 101  51 101
M  END
>  <TORSDO>  (13) 
F 21

>  <SCORE>  (13) 
-13.356

>  <name>  (13) 
12

>  <ligand_id>  (13) 
12

>  <original_smiles>  (13) 
[H]c1c([H])c([H])c2c(c1[H])C([H])([H])C([H])([H])C([H])([H])C2([H])N([H])C(=O)C1([H])N(C(=O)C([H])(N([H])C(=O)C([H])(N([H])C([H])([H])[H])C([H])([H])[H])C(C([H])([H])[H])(C([H])([H])[H])C([H])([H])[H])C([H])([H])c2c([H])c(OC([H])([H])C(C([H])([H])[H])(C([H])([H])n3c([H])c([H])c([H])c3C([H])([H])N([H])C(=O)N3C([H])([H])C([H])([H])C([H])([H])C([H])(n4nc(-c5c([H])c([H])c(Oc6c([H])c([H])c(F)c([H])c6F)c([H])c5[H])c(C(=O)N([H])[H])c4N([H])[H])C3([H])[H])C([H])([H])C([H])([H])[H])c([H])c([H])c2C1([H])[H]

>  <smiles>  (13) 
[H]c1c([H])c([H])c2c(c1[H])C([H])([H])C([H])([H])C([H])([H])C2([H])N([H])C(=O)C1([H])N(C(=O)C([H])(N([H])C(=O)C([H])(N([H])C([H])([H])[H])C([H])([H])[H])C(C([H])([H])[H])(C([H])([H])[H])C([H])([H])[H])C([H])([H])c2c([H])c(OC([H])([H])C(C([H])([H])[H])(C([H])([H])n3c([H])c([H])c([H])c3C([H])([H])N([H])C(=O)N3C([H])([H])C([H])([H])C([H])([H])C([H])(n4nc(-c5c([H])c([H])c(Oc6c([H])c([H])c(F)c([H])c6F)c([H])c5[H])c(C(=O)N([H])[H])c4N([H])[H])C3([H])[H])C([H])([H])C([H])([H])[H])c([H])c([H])c2C1([H])[H]

$$$$
13:0:0
     RDKit          3D

 96104  0  0  1  0  0  0  0  0999 V2000
  -29.8980  -19.4950   21.1340 N   0  0  0  0  0  4  0  0  0  0  0  0
  -30.8970  -19.5950   21.0620 H   0  0  0  0  0  0  0  0  0  0  0  0
  -29.6640  -19.7180   22.0880 H   0  0  0  0  0  0  0  0  0  0  0  0
  -30.8160  -14.6700   19.9450 C   0  0  0  0  0  0  0  0  0  0  0  0
  -30.4390  -12.5770   18.6720 C   0  0  0  0  0  2  0  0  0  0  0  0
  -29.3850  -12.8370   17.5740 C   0  0  0  0  0  2  0  0  0  0  0  0
  -27.9520  -12.6690   18.1230 C   0  0  0  0  0  2  0  0  0  0  0  0
  -27.7410  -13.3990   19.4780 C   0  0  0  0  0  3  0  0  0  0  0  0
  -28.8940  -13.0560   20.4460 C   0  0  0  0  0  2  0  0  0  0  0  0
  -30.1430  -13.4840   19.8010 N   0  0  0  0  0  0  0  0  0  0  0  0
  -31.8780  -14.8630   19.3480 O   0  0  0  0  0  0  0  0  0  0  0  0
  -29.5590  -17.2780   22.2690 C   0  0  0  0  0  2  0  0  0  0  0  0
  -29.6060  -15.8010   21.8560 C   0  0  0  0  0  2  0  0  0  0  0  0
  -30.3570  -17.1520   20.0150 C   0  0  0  0  0  3  0  0  0  0  0  0
  -29.4920  -18.0540   20.9610 C   0  0  0  0  0  3  0  0  0  0  0  0
  -30.1710  -15.7500   20.4990 N   0  0  0  0  0  0  0  0  0  0  0  0
  -25.4040  -13.9630   20.3890 C   0  0  0  0  0  0  0  0  0  0  0  0
  -24.3780  -13.1710   20.8280 C   0  0  0  0  0  0  0  0  0  0  0  0
  -24.8470  -11.8250   20.7260 C   0  0  0  0  0  0  0  0  0  0  0  0
  -26.4350  -13.0970   20.0540 N   0  0  0  0  0  0  0  0  0  0  0  0
  -26.1060  -11.8050   20.3100 N   0  0  0  0  0  0  0  0  0  0  0  0
  -24.1500  -10.5510   20.9460 C   0  0  0  0  0  0  0  0  0  0  0  0
  -24.6050   -9.6160   21.9020 C   0  0  0  0  0  3  0  0  0  0  0  0
  -23.9080   -8.4070   22.1070 C   0  0  0  0  0  3  0  0  0  0  0  0
  -22.7420   -8.1230   21.3570 C   0  0  0  0  0  0  0  0  0  0  0  0
  -22.3060   -9.0470   20.3910 C   0  0  0  0  0  3  0  0  0  0  0  0
  -23.0050  -10.2480   20.1830 C   0  0  0  0  0  3  0  0  0  0  0  0
  -22.0160   -6.9630   21.4700 O   0  0  0  0  0  0  0  0  0  0  0  0
  -21.8980   -6.3010   22.6670 C   0  0  0  0  0  0  0  0  0  0  0  0
  -21.3550   -6.9230   23.8120 C   0  0  0  0  0  3  0  0  0  0  0  0
  -21.1870   -6.1850   25.0010 C   0  0  0  0  0  3  0  0  0  0  0  0
  -21.5560   -4.8280   25.0460 C   0  0  0  0  0  0  0  0  0  0  0  0
  -22.0930   -4.2040   23.9040 C   0  0  0  0  0  3  0  0  0  0  0  0
  -22.2610   -4.9400   22.7180 C   0  0  0  0  0  0  0  0  0  0  0  0
  -22.7580   -4.3300   21.6150 F   0  0  0  0  0  0  0  0  0  0  0  0
  -21.3890   -4.1150   26.1850 F   0  0  0  0  0  0  0  0  0  0  0  0
  -23.0050  -13.6270   21.2280 C   0  0  0  0  0  0  0  0  0  0  0  0
  -22.3770  -12.9290   22.1700 N   0  0  0  0  0  0  0  0  0  0  0  0
  -22.4990  -14.6370   20.7410 O   0  0  0  0  0  0  0  0  0  0  0  0
  -22.8010  -12.1130   22.5840 H   0  0  0  0  0  0  0  0  0  0  0  0
  -21.4600  -13.2190   22.4800 H   0  0  0  0  0  0  0  0  0  0  0  0
  -25.5420  -15.3390   20.2270 N   0  0  0  0  0  0  0  0  0  0  0  0
  -24.7700  -15.9760   20.3840 H   0  0  0  0  0  0  0  0  0  0  0  0
  -26.3360  -15.7760   19.7750 H   0  0  0  0  0  0  0  0  0  0  0  0
  -29.8330  -17.2810   18.5680 C   0  0  0  0  0  0  0  0  0  0  0  0
  -30.1300  -18.2940   16.3380 C   0  0  0  0  0  1  0  0  0  0  0  0
  -30.5260  -18.0470   17.7190 N   0  0  0  0  0  0  0  0  0  0  0  0
  -28.7970  -16.7040   18.2320 O   0  0  0  0  0  0  0  0  0  0  0  0
  -31.3930  -18.4640   18.0330 H   0  0  0  0  0  0  0  0  0  0  0  0
  -29.2180  -20.5570   20.3230 C   0  0  0  0  0  2  0  0  0  0  0  0
  -29.2230  -21.9640   21.0260 C   0  0  0  0  0  2  0  0  0  0  0  0
  -28.6100  -23.1600   20.2170 C   0  0  0  0  0  2  0  0  0  0  0  0
  -28.0780  -24.3800   21.0490 C   0  0  0  0  0  2  0  0  0  0  0  0
  -28.9780  -26.2610   22.5690 C   0  0  0  0  0  1  0  0  0  0  0  0
  -28.9520  -25.6820   21.1460 C   0  0  0  0  0  3  0  0  0  0  0  0
  -28.7000  -26.7480   20.1920 O   0  0  0  0  0  0  0  0  0  0  0  0
  -24.7320  -31.8600   23.3090 C   0  0  0  0  0  0  0  0  0  0  0  0
  -27.5220  -27.4720   20.2550 C   0  0  0  0  0  0  0  0  0  0  0  0
  -23.5920  -30.4500   21.6280 C   0  0  0  0  0  3  0  0  0  0  0  0
  -25.1060  -28.9540   20.2210 C   0  0  0  0  0  0  0  0  0  0  0  0
  -26.1140  -30.8550   21.4890 C   0  0  0  0  0  2  0  0  0  0  0  0
  -26.2420  -29.4880   20.8440 C   0  0  0  0  0  0  0  0  0  0  0  0
  -27.4550  -28.7550   20.8570 C   0  0  0  0  0  3  0  0  0  0  0  0
  -26.3760  -26.9700   19.6090 C   0  0  0  0  0  3  0  0  0  0  0  0
  -25.1680  -27.6930   19.6010 C   0  0  0  0  0  3  0  0  0  0  0  0
  -23.8450  -29.7900   20.2460 C   0  0  0  0  0  2  0  0  0  0  0  0
  -24.8290  -31.0720   22.1990 N   0  0  0  0  0  0  0  0  0  0  0  0
  -23.6340  -32.1030   23.8300 O   0  0  0  0  0  0  0  0  0  0  0  0
  -22.9410  -29.4060   22.5630 C   0  0  0  0  0  0  0  0  0  0  0  0
  -21.6210  -29.2060   22.4150 N   0  0  0  0  0  0  0  0  0  0  0  0
  -23.6210  -28.7780   23.3780 O   0  0  0  0  0  0  0  0  0  0  0  0
  -21.1320  -29.7670   21.7310 H   0  0  0  0  0  0  0  0  0  0  0  0
  -18.2540  -27.9800   22.8750 C   0  0  0  0  0  0  0  0  0  0  0  0
  -20.8100  -28.2440   23.1610 C   0  0  0  0  0  3  0  0  0  0  0  0
  -20.9220  -26.8290   22.5480 C   0  0  0  0  0  2  0  0  0  0  0  0
  -19.8250  -26.5280   21.5230 C   0  0  0  0  0  2  0  0  0  0  0  0
  -18.4410  -26.6490   22.1660 C   0  0  0  0  0  2  0  0  0  0  0  0
  -19.3670  -28.7350   23.3280 C   0  0  0  0  0  0  0  0  0  0  0  0
  -19.1400  -29.9840   23.9490 C   0  0  0  0  0  3  0  0  0  0  0  0
  -17.8330  -30.4730   24.1250 C   0  0  0  0  0  3  0  0  0  0  0  0
  -16.7330  -29.7130   23.6890 C   0  0  0  0  0  3  0  0  0  0  0  0
  -16.9450  -28.4690   23.0680 C   0  0  0  0  0  3  0  0  0  0  0  0
  -25.9910  -32.5110   23.9620 C   0  0  0  0  0  3  0  0  0  0  0  0
  -25.6380  -33.8900   24.3240 N   0  0  0  0  0  0  0  0  0  0  0  0
  -25.9640  -34.9720   23.6050 C   0  0  0  0  0  0  0  0  0  0  0  0
  -26.6620  -34.9170   22.5890 O   0  0  0  0  0  0  0  0  0  0  0  0
  -25.0210  -34.0060   25.1150 H   0  0  0  0  0  0  0  0  0  0  0  0
  -24.2120  -36.7390   23.2430 C   0  0  0  0  0  1  0  0  0  0  0  0
  -25.4290  -36.3330   24.0890 C   0  0  0  0  0  3  0  0  0  0  0  0
  -27.5080  -37.2340   25.0350 C   0  0  0  0  0  1  0  0  0  0  0  0
  -26.4420  -37.4100   24.0520 N   0  0  0  0  0  0  0  0  0  0  0  0
  -26.0110  -38.3160   24.2120 H   0  0  0  0  0  0  0  0  0  0  0  0
  -26.5160  -31.7200   25.2220 C   0  0  1  0  0  0  0  0  0  0  0  0
  -25.4130  -31.3950   26.2560 C   0  0  0  0  0  1  0  0  0  0  0  0
  -27.1740  -30.3870   24.7940 C   0  0  0  0  0  1  0  0  0  0  0  0
  -27.6130  -32.5430   25.9380 C   0  0  0  0  0  1  0  0  0  0  0  0
  1  3  1  0
  2  1  1  0
  4 16  1  0
  5 10  1  0
  6  7  1  0
  6  5  1  0
  8  7  1  0
  8 20  1  0
  8  9  1  0
 10  4  1  0
 10  9  1  0
 11  4  2  0
 13 12  1  0
 14 45  1  0
 14 16  1  0
 14 15  1  0
 15  1  1  0
 15 12  1  0
 16 13  1  0
 17 18  2  0
 18 37  1  0
 19 18  1  0
 19 22  1  0
 20 21  1  0
 20 17  1  0
 21 19  2  0
 22 23  1  0
 23 24  2  0
 25 28  1  0
 25 24  1  0
 26 25  2  0
 27 26  1  0
 27 22  2  0
 28 29  1  0
 29 34  2  0
 29 30  1  0
 30 31  2  0
 31 32  1  0
 32 36  1  0
 33 32  2  0
 34 33  1  0
 35 34  1  0
 37 38  1  0
 38 41  1  0
 38 40  1  0
 39 37  2  0
 42 43  1  0
 42 17  1  0
 44 42  1  0
 46 47  1  0
 47 49  1  0
 47 45  1  0
 48 45  2  0
 50 51  1  0
 50  1  1  0
 52 51  1  0
 52 53  1  0
 53 55  1  0
 55 54  1  0
 56 58  1  0
 56 55  1  0
 57 68  2  0
 58 63  1  0
 59 67  1  0
 59 69  1  0
 60 66  1  0
 60 62  1  0
 61 67  1  0
 62 63  2  0
 62 61  1  0
 64 58  2  0
 65 64  1  0
 65 60  2  0
 66 59  1  0
 67 57  1  0
 69 71  2  0
 70 69  1  0
 72 70  1  0
 73 82  2  0
 73 78  1  0
 74 70  1  0
 74 78  1  0
 75 74  1  0
 76 77  1  0
 76 75  1  0
 77 73  1  0
 78 79  2  0
 79 80  1  0
 81 80  2  0
 82 81  1  0
 83 57  1  0
 83 84  1  0
 83 93  1  0
 84 87  1  0
 85 89  1  0
 85 84  1  0
 86 85  2  0
 89 88  1  0
 91 89  1  0
 91 92  1  0
 91 90  1  0
 93 96  1  1
 93 94  1  0
 95 93  1  0
M  ISO  4   4 100  16 100  55 101  56 101
M  END
>  <TORSDO>  (14) 
F 22

>  <SCORE>  (14) 
-11.136

>  <name>  (14) 
13

>  <ligand_id>  (14) 
13

>  <original_smiles>  (14) 
[H]c1c([H])c([H])c2c(c1[H])C([H])([H])C([H])([H])C([H])([H])C2([H])N([H])C(=O)C1([H])N(C(=O)C([H])(N([H])C(=O)C([H])(N([H])C([H])([H])[H])C([H])([H])[H])C(C([H])([H])[H])(C([H])([H])[H])C([H])([H])[H])C([H])([H])c2c([H])c(OC([H])(C([H])([H])[H])C([H])([H])C([H])([H])C([H])([H])C([H])([H])[N+]([H])([H])C3([H])C([H])(C(=O)N([H])C([H])([H])[H])N(C(=O)N4C([H])([H])C([H])([H])C([H])([H])C([H])(n5nc(-c6c([H])c([H])c(Oc7c([H])c([H])c(F)c([H])c7F)c([H])c6[H])c(C(=O)N([H])[H])c5N([H])[H])C4([H])[H])C([H])([H])C3([H])[H])c([H])c([H])c2C1([H])[H]

>  <smiles>  (14) 
[H]c1c([H])c([H])c2c(c1[H])C([H])([H])C([H])([H])C([H])([H])C2([H])N([H])C(=O)C1([H])N(C(=O)C([H])(N([H])C(=O)C([H])(N([H])C([H])([H])[H])C([H])([H])[H])C(C([H])([H])[H])(C([H])([H])[H])C([H])([H])[H])C([H])([H])c2c([H])c(OC([H])(C([H])([H])[H])C([H])([H])C([H])([H])C([H])([H])C([H])([H])[N+]([H])([H])C3([H])C([H])(C(=O)N([H])C([H])([H])[H])N(C(=O)N4C([H])([H])C([H])([H])C([H])([H])C([H])(n5nc(-c6c([H])c([H])c(Oc7c([H])c([H])c(F)c([H])c7F)c([H])c6[H])c(C(=O)N([H])[H])c5N([H])[H])C4([H])[H])C([H])([H])C3([H])[H])c([H])c([H])c2C1([H])[H]

$$$$
14:0:0
     RDKit          3D

 94103  0  0  1  0  0  0  0  0999 V2000
  -31.2670  -23.0040   19.8620 C   0  0  0  0  0  3  0  0  0  0  0  0
  -30.5870  -24.1980   19.7980 C   0  0  0  0  0  3  0  0  0  0  0  0
  -29.5750  -22.8870   21.2910 C   0  0  0  0  0  3  0  0  0  0  0  0
  -30.6280  -22.1410   20.8060 C   0  0  0  0  0  0  0  0  0  0  0  0
  -29.5230  -24.1410   20.6770 N   0  0  0  0  0  0  0  0  0  0  0  0
  -32.3540  -20.1680   20.7330 C   0  0  0  0  0  2  0  0  0  0  0  0
  -32.3600  -18.7000   21.2220 C   0  0  0  0  0  2  0  0  0  0  0  0
  -30.1060  -19.5200   20.9340 C   0  0  0  0  0  2  0  0  0  0  0  0
  -31.0350  -20.7190   21.2620 C   0  0  0  0  0  3  0  0  0  0  0  0
  -30.8850  -18.1860   21.2890 C   0  0  2  0  0  0  0  0  0  0  0  0
  -31.3370  -16.4300   23.2030 C   0  0  0  0  0  1  0  0  0  0  0  0
  -30.5690  -18.6960   23.8700 C   0  0  0  0  0  1  0  0  0  0  0  0
  -30.5100  -17.6520   22.7300 C   0  0  0  0  0  3  0  0  0  0  0  0
  -30.6110  -17.0870   20.1670 C   0  0  0  0  0  2  0  0  0  0  0  0
  -31.0310  -14.5800   20.0610 C   0  0  0  0  0  0  0  0  0  0  0  0
  -30.6310  -12.4030   18.9480 C   0  0  0  0  0  2  0  0  0  0  0  0
  -29.6500  -12.6180   17.7750 C   0  0  0  0  0  2  0  0  0  0  0  0
  -28.1940  -12.5140   18.2640 C   0  0  0  0  0  2  0  0  0  0  0  0
  -27.9250  -13.3620   19.5360 C   0  0  0  0  0  3  0  0  0  0  0  0
  -29.0210  -13.1350   20.6040 C   0  0  0  0  0  2  0  0  0  0  0  0
  -30.3260  -13.4110   19.9830 N   0  0  0  0  0  0  0  0  0  0  0  0
  -32.1440  -14.7030   19.5420 O   0  0  0  0  0  0  0  0  0  0  0  0
  -30.3750  -15.6620   20.5490 N   0  0  0  0  0  0  0  0  0  0  0  0
  -29.4920  -15.4670   20.9980 H   0  0  0  0  0  0  0  0  0  0  0  0
  -25.5640  -14.0190   20.3200 C   0  0  0  0  0  0  0  0  0  0  0  0
  -24.4960  -13.2700   20.7370 C   0  0  0  0  0  0  0  0  0  0  0  0
  -24.9320  -11.9100   20.7070 C   0  0  0  0  0  0  0  0  0  0  0  0
  -26.5850  -13.1160   20.0650 N   0  0  0  0  0  0  0  0  0  0  0  0
  -26.2090  -11.8430   20.3550 N   0  0  0  0  0  0  0  0  0  0  0  0
  -24.1870  -10.6650   20.9370 C   0  0  0  0  0  0  0  0  0  0  0  0
  -24.6090   -9.7190   21.8960 C   0  0  0  0  0  3  0  0  0  0  0  0
  -23.8680   -8.5380   22.1130 C   0  0  0  0  0  3  0  0  0  0  0  0
  -22.6870   -8.2950   21.3700 C   0  0  0  0  0  0  0  0  0  0  0  0
  -22.2850   -9.2280   20.3980 C   0  0  0  0  0  3  0  0  0  0  0  0
  -23.0280  -10.4010   20.1800 C   0  0  0  0  0  3  0  0  0  0  0  0
  -21.9190   -7.1620   21.4950 O   0  0  0  0  0  0  0  0  0  0  0  0
  -21.8220   -6.4860   22.6840 C   0  0  0  0  0  0  0  0  0  0  0  0
  -21.3740   -7.1160   23.8650 C   0  0  0  0  0  3  0  0  0  0  0  0
  -21.2220   -6.3680   25.0480 C   0  0  0  0  0  3  0  0  0  0  0  0
  -21.5070   -4.9900   25.0530 C   0  0  0  0  0  0  0  0  0  0  0  0
  -21.9470   -4.3570   23.8760 C   0  0  0  0  0  3  0  0  0  0  0  0
  -22.1000   -5.1050   22.6940 C   0  0  0  0  0  0  0  0  0  0  0  0
  -22.5040   -4.4880   21.5580 F   0  0  0  0  0  0  0  0  0  0  0  0
  -21.3550   -4.2670   26.1870 F   0  0  0  0  0  0  0  0  0  0  0  0
  -23.1190  -13.7770   21.0550 C   0  0  0  0  0  0  0  0  0  0  0  0
  -22.4190  -13.1160   21.9700 N   0  0  0  0  0  0  0  0  0  0  0  0
  -22.6760  -14.7970   20.5280 O   0  0  0  0  0  0  0  0  0  0  0  0
  -22.7930  -12.2900   22.4130 H   0  0  0  0  0  0  0  0  0  0  0  0
  -21.4980  -13.4400   22.2290 H   0  0  0  0  0  0  0  0  0  0  0  0
  -25.7520  -15.3820   20.1180 N   0  0  0  0  0  0  0  0  0  0  0  0
  -25.0050  -16.0560   20.2390 H   0  0  0  0  0  0  0  0  0  0  0  0
  -26.5970  -15.7950   19.7440 H   0  0  0  0  0  0  0  0  0  0  0  0
  -28.4120  -25.1010   20.8350 C   0  0  0  0  0  2  0  0  0  0  0  0
  -28.7300  -26.5020   20.7880 O   0  0  0  0  0  0  0  0  0  0  0  0
  -24.7810  -31.9690   23.3030 C   0  0  0  0  0  0  0  0  0  0  0  0
  -27.6100  -27.3310   20.6220 C   0  0  0  0  0  0  0  0  0  0  0  0
  -23.6750  -30.4600   21.6970 C   0  0  0  0  0  3  0  0  0  0  0  0
  -25.2170  -28.8760   20.4300 C   0  0  0  0  0  0  0  0  0  0  0  0
  -26.2140  -30.8300   21.6050 C   0  0  0  0  0  2  0  0  0  0  0  0
  -26.3520  -29.4230   21.0420 C   0  0  0  0  0  0  0  0  0  0  0  0
  -27.5540  -28.6620   21.1320 C   0  0  0  0  0  3  0  0  0  0  0  0
  -26.4460  -26.8450   19.9740 C   0  0  0  0  0  3  0  0  0  0  0  0
  -25.2650  -27.5900   19.8910 C   0  0  0  0  0  3  0  0  0  0  0  0
  -23.9620  -29.7130   20.3700 C   0  0  0  0  0  2  0  0  0  0  0  0
  -24.9050  -31.1040   22.2570 N   0  0  0  0  0  0  0  0  0  0  0  0
  -23.6710  -32.2520   23.7760 O   0  0  0  0  0  0  0  0  0  0  0  0
  -22.9940  -29.4760   22.6830 C   0  0  0  0  0  0  0  0  0  0  0  0
  -21.6810  -29.2530   22.5010 N   0  0  0  0  0  0  0  0  0  0  0  0
  -23.6480  -28.9140   23.5640 O   0  0  0  0  0  0  0  0  0  0  0  0
  -21.2150  -29.7520   21.7550 H   0  0  0  0  0  0  0  0  0  0  0  0
  -18.3170  -27.9780   22.8790 C   0  0  0  0  0  0  0  0  0  0  0  0
  -20.8450  -28.3450   23.2880 C   0  0  0  0  0  3  0  0  0  0  0  0
  -21.0270  -26.8800   22.8280 C   0  0  0  0  0  2  0  0  0  0  0  0
  -20.0030  -26.4460   21.7760 C   0  0  0  0  0  2  0  0  0  0  0  0
  -18.5780  -26.5900   22.3200 C   0  0  0  0  0  2  0  0  0  0  0  0
  -19.3830  -28.8090   23.3200 C   0  0  0  0  0  0  0  0  0  0  0  0
  -19.0890  -30.1030   23.7980 C   0  0  0  0  0  3  0  0  0  0  0  0
  -17.7630  -30.5700   23.8440 C   0  0  0  0  0  3  0  0  0  0  0  0
  -16.7090  -29.7390   23.4230 C   0  0  0  0  0  3  0  0  0  0  0  0
  -16.9860  -28.4460   22.9440 C   0  0  0  0  0  3  0  0  0  0  0  0
  -26.0260  -32.6600   23.9390 C   0  0  0  0  0  3  0  0  0  0  0  0
  -26.5540  -31.9200   25.2290 C   0  0  1  0  0  0  0  0  0  0  0  0
  -25.4470  -31.6340   26.2710 C   0  0  0  0  0  1  0  0  0  0  0  0
  -27.2140  -30.5720   24.8570 C   0  0  0  0  0  1  0  0  0  0  0  0
  -27.6470  -32.7730   25.9100 C   0  0  0  0  0  1  0  0  0  0  0  0
  -25.6510  -34.0460   24.2520 N   0  0  0  0  0  0  0  0  0  0  0  0
  -25.9980  -35.1110   23.5170 C   0  0  0  0  0  0  0  0  0  0  0  0
  -26.7390  -35.0310   22.5320 O   0  0  0  0  0  0  0  0  0  0  0  0
  -25.0020  -34.1770   25.0120 H   0  0  0  0  0  0  0  0  0  0  0  0
  -24.2450  -36.8480   23.0430 C   0  0  0  0  0  1  0  0  0  0  0  0
  -25.4380  -36.4810   23.9410 C   0  0  0  0  0  3  0  0  0  0  0  0
  -27.4880  -37.4210   24.9110 C   0  0  0  0  0  1  0  0  0  0  0  0
  -26.4420  -37.5690   23.9020 N   0  0  0  0  0  0  0  0  0  0  0  0
  -25.9980  -38.4730   24.0380 H   0  0  0  0  0  0  0  0  0  0  0  0
  1  4  1  0
  2  1  2  0
  2  5  1  0
  4  3  2  0
  5 53  1  0
  5  3  1  0
  6  7  1  0
  6  9  1  0
  7 10  1  0
  8  9  1  0
  8 10  1  0
  9  4  1  0
 10 14  1  6
 10 13  1  0
 13 11  1  0
 13 12  1  0
 14 23  1  0
 15 23  1  0
 16 21  1  0
 17 18  1  0
 17 16  1  0
 19 18  1  0
 19 28  1  0
 19 20  1  0
 21 15  1  0
 21 20  1  0
 22 15  2  0
 23 24  1  0
 25 26  2  0
 26 45  1  0
 27 26  1  0
 27 30  1  0
 28 25  1  0
 28 29  1  0
 29 27  2  0
 30 31  1  0
 31 32  2  0
 33 36  1  0
 33 32  1  0
 34 33  2  0
 35 34  1  0
 35 30  2  0
 36 37  1  0
 37 42  2  0
 37 38  1  0
 38 39  2  0
 39 40  1  0
 40 44  1  0
 41 40  2  0
 42 41  1  0
 43 42  1  0
 45 46  1  0
 46 49  1  0
 46 48  1  0
 47 45  2  0
 50 51  1  0
 50 25  1  0
 52 50  1  0
 54 53  1  0
 55 66  2  0
 56 54  1  0
 56 61  1  0
 57 65  1  0
 57 67  1  0
 58 60  1  0
 59 65  1  0
 60 61  2  0
 60 59  1  0
 62 56  2  0
 63 62  1  0
 63 58  2  0
 64 58  1  0
 64 57  1  0
 65 55  1  0
 67 69  2  0
 68 67  1  0
 70 68  1  0
 71 80  2  0
 71 76  1  0
 72 68  1  0
 72 76  1  0
 73 72  1  0
 74 75  1  0
 74 73  1  0
 75 71  1  0
 76 77  2  0
 77 78  1  0
 79 78  2  0
 80 79  1  0
 81 55  1  0
 81 86  1  0
 81 82  1  0
 82 85  1  1
 82 83  1  0
 84 82  1  0
 86 89  1  0
 87 91  1  0
 87 86  1  0
 88 87  2  0
 91 90  1  0
 93 91  1  0
 93 94  1  0
 93 92  1  0
M  ISO  4  15 100  23 100  53 101  54 101
M  END
>  <TORSDO>  (15) 
F 20

>  <SCORE>  (15) 
-11.635

>  <name>  (15) 
14

>  <ligand_id>  (15) 
14

>  <original_smiles>  (15) 
[H]c1c([H])c([H])c2c(c1[H])C([H])([H])C([H])([H])C([H])([H])C2([H])N([H])C(=O)C1([H])N(C(=O)C([H])(N([H])C(=O)C([H])(N([H])C([H])([H])[H])C([H])([H])[H])C(C([H])([H])[H])(C([H])([H])[H])C([H])([H])[H])C([H])([H])c2c([H])c(OC([H])([H])n3c([H])c([H])c(C4([H])C([H])([H])C([H])([H])C(C([H])([H])N([H])C(=O)N5C([H])([H])C([H])([H])C([H])([H])C([H])(n6nc(-c7c([H])c([H])c(Oc8c([H])c([H])c(F)c([H])c8F)c([H])c7[H])c(C(=O)N([H])[H])c6N([H])[H])C5([H])[H])(C([H])(C([H])([H])[H])C([H])([H])[H])C4([H])[H])c3[H])c([H])c([H])c2C1([H])[H]

>  <smiles>  (15) 
[H]c1c([H])c([H])c2c(c1[H])C([H])([H])C([H])([H])C([H])([H])C2([H])N([H])C(=O)C1([H])N(C(=O)C([H])(N([H])C(=O)C([H])(N([H])C([H])([H])[H])C([H])([H])[H])C(C([H])([H])[H])(C([H])([H])[H])C([H])([H])[H])C([H])([H])c2c([H])c(OC([H])([H])n3c([H])c([H])c(C4([H])C([H])([H])C([H])([H])C(C([H])([H])N([H])C(=O)N5C([H])([H])C([H])([H])C([H])([H])C([H])(n6nc(-c7c([H])c([H])c(Oc8c([H])c([H])c(F)c([H])c8F)c([H])c7[H])c(C(=O)N([H])[H])c6N([H])[H])C5([H])[H])(C([H])(C([H])([H])[H])C([H])([H])[H])C4([H])[H])c3[H])c([H])c([H])c2C1([H])[H]

$$$$
15:0:0
     RDKit          3D

 93101  0  0  1  0  0  0  0  0999 V2000
  -30.1910  -20.9510   21.1700 C   0  0  0  0  0  3  0  0  0  0  0  0
  -30.5340  -19.6400   21.5950 C   0  0  0  0  0  3  0  0  0  0  0  0
  -29.4550  -21.1510   19.9810 C   0  0  0  0  0  0  0  0  0  0  0  0
  -30.1390  -18.5040   20.8510 C   0  0  0  0  0  0  0  0  0  0  0  0
  -29.0900  -19.9380   19.2950 C   0  0  0  0  0  0  0  0  0  0  0  0
  -29.4110  -18.6740   19.7280 N   0  0  0  0  0  0  0  0  0  0  0  0
  -26.9480  -19.2880   18.1010 C   0  0  0  0  0  1  0  0  0  0  0  0
  -29.1740  -19.2590   16.8520 C   0  0  0  0  0  1  0  0  0  0  0  0
  -28.3390  -19.9280   17.9590 C   0  0  0  0  0  3  0  0  0  0  0  0
  -30.1710  -22.9030   18.2950 C   0  0  0  0  0  1  0  0  0  0  0  0
  -29.1560  -22.6020   19.4160 C   0  0  0  0  0  3  0  0  0  0  0  0
  -29.0820  -23.8920   20.3660 C   0  0  0  0  0  2  0  0  0  0  0  0
  -28.1780  -25.0990   19.8290 C   0  0  0  0  0  2  0  0  0  0  0  0
  -28.3210  -26.5040   20.3040 O   0  0  0  0  0  0  0  0  0  0  0  0
  -24.5740  -31.9240   23.2890 C   0  0  0  0  0  0  0  0  0  0  0  0
  -27.2070  -27.3660   20.2280 C   0  0  0  0  0  0  0  0  0  0  0  0
  -23.3800  -30.5210   21.6480 C   0  0  0  0  0  3  0  0  0  0  0  0
  -24.8400  -28.9840   20.2190 C   0  0  0  0  0  0  0  0  0  0  0  0
  -25.9210  -30.8410   21.4760 C   0  0  0  0  0  2  0  0  0  0  0  0
  -26.0040  -29.4630   20.8310 C   0  0  0  0  0  0  0  0  0  0  0  0
  -27.1860  -28.6610   20.8380 C   0  0  0  0  0  3  0  0  0  0  0  0
  -26.0230  -26.9620   19.5630 C   0  0  0  0  0  3  0  0  0  0  0  0
  -24.8530  -27.7390   19.5750 C   0  0  0  0  0  3  0  0  0  0  0  0
  -23.6030  -29.8580   20.2640 C   0  0  0  0  0  2  0  0  0  0  0  0
  -24.6430  -31.1120   22.1940 N   0  0  0  0  0  0  0  0  0  0  0  0
  -23.4880  -32.1980   23.8210 O   0  0  0  0  0  0  0  0  0  0  0  0
  -22.7210  -29.4980   22.6050 C   0  0  0  0  0  0  0  0  0  0  0  0
  -21.3980  -29.3040   22.4680 N   0  0  0  0  0  0  0  0  0  0  0  0
  -23.3990  -28.8850   23.4350 O   0  0  0  0  0  0  0  0  0  0  0  0
  -20.9070  -29.8560   21.7770 H   0  0  0  0  0  0  0  0  0  0  0  0
  -18.0300  -28.0750   22.9540 C   0  0  0  0  0  0  0  0  0  0  0  0
  -20.5840  -28.3620   23.2380 C   0  0  0  0  0  3  0  0  0  0  0  0
  -20.7050  -26.9280   22.6710 C   0  0  0  0  0  2  0  0  0  0  0  0
  -19.6120  -26.5900   21.6520 C   0  0  0  0  0  2  0  0  0  0  0  0
  -18.2250  -26.7250   22.2860 C   0  0  0  0  0  2  0  0  0  0  0  0
  -19.1390  -28.8500   23.3880 C   0  0  0  0  0  0  0  0  0  0  0  0
  -18.9060  -30.1130   23.9740 C   0  0  0  0  0  3  0  0  0  0  0  0
  -17.5960  -30.6040   24.1300 C   0  0  0  0  0  3  0  0  0  0  0  0
  -16.5010  -29.8270   23.7110 C   0  0  0  0  0  3  0  0  0  0  0  0
  -16.7190  -28.5650   23.1290 C   0  0  0  0  0  3  0  0  0  0  0  0
  -25.8530  -32.5630   23.9110 C   0  0  0  0  0  3  0  0  0  0  0  0
  -25.5480  -33.9690   24.2080 N   0  0  0  0  0  0  0  0  0  0  0  0
  -25.8920  -35.0060   23.4310 C   0  0  0  0  0  0  0  0  0  0  0  0
  -26.5750  -34.8770   22.4110 O   0  0  0  0  0  0  0  0  0  0  0  0
  -24.9460  -34.1430   24.9990 H   0  0  0  0  0  0  0  0  0  0  0  0
  -24.1890  -36.8080   23.0080 C   0  0  0  0  0  1  0  0  0  0  0  0
  -25.4060  -36.4060   23.8550 C   0  0  0  0  0  3  0  0  0  0  0  0
  -27.5250  -37.2940   24.7250 C   0  0  0  0  0  1  0  0  0  0  0  0
  -26.4490  -37.4490   23.7490 N   0  0  0  0  0  0  0  0  0  0  0  0
  -26.0460  -38.3740   23.8660 H   0  0  0  0  0  0  0  0  0  0  0  0
  -26.3520  -31.8150   25.2100 C   0  0  1  0  0  0  0  0  0  0  0  0
  -25.2450  -31.6030   26.2690 C   0  0  0  0  0  1  0  0  0  0  0  0
  -26.9360  -30.4280   24.8550 C   0  0  0  0  0  1  0  0  0  0  0  0
  -27.4930  -32.6210   25.8740 C   0  0  0  0  0  1  0  0  0  0  0  0
  -30.6340  -17.0790   21.2790 C   0  0  0  0  0  2  0  0  0  0  0  0
  -30.6920  -14.7040   20.3640 C   0  0  0  0  0  0  0  0  0  0  0  0
  -30.4010  -12.5120   19.2270 C   0  0  0  0  0  2  0  0  0  0  0  0
  -29.4530  -12.6680   18.0210 C   0  0  0  0  0  2  0  0  0  0  0  0
  -27.9820  -12.5150   18.4560 C   0  0  0  0  0  2  0  0  0  0  0  0
  -27.6380  -13.3490   19.7220 C   0  0  0  0  0  3  0  0  0  0  0  0
  -28.7080  -13.1890   20.8220 C   0  0  0  0  0  2  0  0  0  0  0  0
  -30.0080  -13.5250   20.2260 N   0  0  0  0  0  0  0  0  0  0  0  0
  -31.8620  -14.8040   19.9920 O   0  0  0  0  0  0  0  0  0  0  0  0
  -30.0100  -15.8050   20.7930 N   0  0  0  0  0  0  0  0  0  0  0  0
  -29.0210  -15.7070   20.9540 H   0  0  0  0  0  0  0  0  0  0  0  0
  -25.2460  -13.9210   20.4590 C   0  0  0  0  0  0  0  0  0  0  0  0
  -24.1880  -13.1380   20.8330 C   0  0  0  0  0  0  0  0  0  0  0  0
  -24.6620  -11.7910   20.8000 C   0  0  0  0  0  0  0  0  0  0  0  0
  -26.2970  -13.0510   20.2180 N   0  0  0  0  0  0  0  0  0  0  0  0
  -25.9520  -11.7630   20.4830 N   0  0  0  0  0  0  0  0  0  0  0  0
  -23.9460  -10.5230   20.9950 C   0  0  0  0  0  0  0  0  0  0  0  0
  -24.3750   -9.5700   21.9450 C   0  0  0  0  0  3  0  0  0  0  0  0
  -23.6590   -8.3680   22.1250 C   0  0  0  0  0  3  0  0  0  0  0  0
  -22.4980   -8.1100   21.3580 C   0  0  0  0  0  0  0  0  0  0  0  0
  -22.0880   -9.0510   20.3990 C   0  0  0  0  0  3  0  0  0  0  0  0
  -22.8040  -10.2460   20.2160 C   0  0  0  0  0  3  0  0  0  0  0  0
  -21.7540   -6.9580   21.4490 O   0  0  0  0  0  0  0  0  0  0  0  0
  -21.6800   -6.2360   22.6140 C   0  0  0  0  0  0  0  0  0  0  0  0
  -21.1890   -6.8000   23.8100 C   0  0  0  0  0  3  0  0  0  0  0  0
  -21.0660   -6.0040   24.9660 C   0  0  0  0  0  3  0  0  0  0  0  0
  -21.4250   -4.6440   24.9250 C   0  0  0  0  0  0  0  0  0  0  0  0
  -21.9070   -4.0770   23.7330 C   0  0  0  0  0  3  0  0  0  0  0  0
  -22.0320   -4.8720   22.5790 C   0  0  0  0  0  0  0  0  0  0  0  0
  -22.4790   -4.3170   21.4270 F   0  0  0  0  0  0  0  0  0  0  0  0
  -21.2990   -3.8760   26.0330 F   0  0  0  0  0  0  0  0  0  0  0  0
  -22.7880  -13.6050   21.1080 C   0  0  0  0  0  0  0  0  0  0  0  0
  -22.0630  -12.9000   21.9700 N   0  0  0  0  0  0  0  0  0  0  0  0
  -22.3440  -14.6300   20.5930 O   0  0  0  0  0  0  0  0  0  0  0  0
  -22.4340  -12.0710   22.4110 H   0  0  0  0  0  0  0  0  0  0  0  0
  -21.1220  -13.1940   22.1900 H   0  0  0  0  0  0  0  0  0  0  0  0
  -25.3960  -15.2930   20.2790 N   0  0  0  0  0  0  0  0  0  0  0  0
  -24.6180  -15.9350   20.3880 H   0  0  0  0  0  0  0  0  0  0  0  0
  -26.2340  -15.7470   19.9360 H   0  0  0  0  0  0  0  0  0  0  0  0
  1  2  1  0
  3  1  2  0
  4 55  1  0
  4  2  2  0
  5  6  2  0
  5  3  1  0
  6  4  1  0
  8  9  1  0
  9  7  1  0
  9  5  1  0
 11 10  1  0
 11  3  1  0
 11 12  1  0
 13 14  1  0
 13 12  1  0
 15 26  2  0
 16 14  1  0
 16 21  1  0
 17 25  1  0
 17 27  1  0
 18 24  1  0
 18 20  1  0
 19 25  1  0
 20 21  2  0
 20 19  1  0
 22 23  1  0
 22 16  2  0
 23 18  2  0
 24 17  1  0
 25 15  1  0
 27 29  2  0
 28 27  1  0
 30 28  1  0
 31 40  2  0
 31 36  1  0
 32 28  1  0
 32 36  1  0
 33 32  1  0
 34 35  1  0
 34 33  1  0
 35 31  1  0
 36 37  2  0
 37 38  1  0
 39 38  2  0
 40 39  1  0
 41 15  1  0
 41 42  1  0
 41 51  1  0
 42 45  1  0
 43 47  1  0
 43 42  1  0
 44 43  2  0
 47 46  1  0
 49 47  1  0
 49 50  1  0
 49 48  1  0
 51 54  1  1
 51 52  1  0
 53 51  1  0
 56 64  1  0
 57 62  1  0
 58 59  1  0
 58 57  1  0
 60 59  1  0
 60 69  1  0
 60 61  1  0
 62 56  1  0
 62 61  1  0
 63 56  2  0
 64 65  1  0
 64 55  1  0
 66 67  2  0
 67 86  1  0
 68 67  1  0
 68 71  1  0
 69 66  1  0
 69 70  1  0
 70 68  2  0
 71 72  1  0
 72 73  2  0
 74 77  1  0
 74 73  1  0
 75 74  2  0
 76 75  1  0
 76 71  2  0
 77 78  1  0
 78 79  1  0
 79 80  2  0
 81 80  1  0
 81 85  1  0
 82 81  2  0
 83 78  2  0
 83 82  1  0
 84 83  1  0
 86 87  1  0
 87 90  1  0
 87 89  1  0
 88 86  2  0
 91 92  1  0
 91 66  1  0
 93 91  1  0
M  ISO  4  13 101  14 101  56 100  64 100
M  END
>  <TORSDO>  (16) 
F 21

>  <SCORE>  (16) 
-13.594

>  <name>  (16) 
15

>  <ligand_id>  (16) 
15

>  <original_smiles>  (16) 
[H]c1c(C([H])([H])N([H])C(=O)N2C([H])([H])C([H])([H])C([H])([H])C([H])(n3nc(-c4c([H])c([H])c(Oc5c([H])c([H])c(F)c([H])c5F)c([H])c4[H])c(C(=O)N([H])[H])c3N([H])[H])C2([H])[H])nc(C([H])(C([H])([H])[H])C([H])([H])[H])c(C([H])(C([H])([H])[H])C([H])([H])C([H])([H])Oc2c([H])c([H])c3c(c2[H])C([H])([H])N(C(=O)C([H])(N([H])C(=O)C([H])(N([H])C([H])([H])[H])C([H])([H])[H])C(C([H])([H])[H])(C([H])([H])[H])C([H])([H])[H])C([H])(C(=O)N([H])C2([H])c4c([H])c([H])c([H])c([H])c4C([H])([H])C([H])([H])C2([H])[H])C3([H])[H])c1[H]

>  <smiles>  (16) 
[H]c1c(C([H])([H])N([H])C(=O)N2C([H])([H])C([H])([H])C([H])([H])C([H])(n3nc(-c4c([H])c([H])c(Oc5c([H])c([H])c(F)c([H])c5F)c([H])c4[H])c(C(=O)N([H])[H])c3N([H])[H])C2([H])[H])nc(C([H])(C([H])([H])[H])C([H])([H])[H])c(C([H])(C([H])([H])[H])C([H])([H])C([H])([H])Oc2c([H])c([H])c3c(c2[H])C([H])([H])N(C(=O)C([H])(N([H])C(=O)C([H])(N([H])C([H])([H])[H])C([H])([H])[H])C(C([H])([H])[H])(C([H])([H])[H])C([H])([H])[H])C([H])(C(=O)N([H])C2([H])c4c([H])c([H])c([H])c([H])c4C([H])([H])C([H])([H])C2([H])[H])C3([H])[H])c1[H]

$$$$
16:0:0
     RDKit          3D

 90 98  0  0  1  0  0  0  0  0999 V2000
  -28.1290  -19.4720   19.5010 C   0  0  0  0  0  3  0  0  0  0  0  0
  -29.3290  -21.3310   21.0310 C   0  0  0  0  0  3  0  0  0  0  0  0
  -29.2440  -19.0180   20.2940 C   0  0  0  0  0  0  0  0  0  0  0  0
  -28.2350  -21.7990   20.2360 C   0  0  0  0  0  0  0  0  0  0  0  0
  -29.8070  -20.0220   21.0520 N   0  0  0  0  0  0  0  0  0  0  0  0
  -27.6370  -20.7900   19.4950 N   0  0  0  0  0  0  0  0  0  0  0  0
  -30.0910  -17.6020   20.1970 C   0  0  0  0  0  2  0  0  0  0  0  0
  -30.4690  -14.9440   20.2740 C   0  0  0  0  0  0  0  0  0  0  0  0
  -30.3620  -12.6150   19.3160 C   0  0  0  0  0  2  0  0  0  0  0  0
  -29.4080  -12.5900   18.1000 C   0  0  0  0  0  2  0  0  0  0  0  0
  -27.9600  -12.3680   18.5720 C   0  0  0  0  0  2  0  0  0  0  0  0
  -27.5680  -13.2980   19.7480 C   0  0  0  0  0  3  0  0  0  0  0  0
  -28.6360  -13.2850   20.8580 C   0  0  0  0  0  2  0  0  0  0  0  0
  -29.8910  -13.6890   20.2270 N   0  0  0  0  0  0  0  0  0  0  0  0
  -31.6830  -15.0270   20.0610 O   0  0  0  0  0  0  0  0  0  0  0  0
  -29.6590  -16.1030   20.3270 N   0  0  0  0  0  0  0  0  0  0  0  0
  -28.6670  -15.9390   20.3560 H   0  0  0  0  0  0  0  0  0  0  0  0
  -25.2060  -13.8900   20.5190 C   0  0  0  0  0  0  0  0  0  0  0  0
  -24.1410  -13.1170   20.8950 C   0  0  0  0  0  0  0  0  0  0  0  0
  -24.6030  -11.7680   20.8630 C   0  0  0  0  0  0  0  0  0  0  0  0
  -26.2410  -13.0080   20.2650 N   0  0  0  0  0  0  0  0  0  0  0  0
  -25.8910  -11.7250   20.5410 N   0  0  0  0  0  0  0  0  0  0  0  0
  -23.8770  -10.5040   21.0560 C   0  0  0  0  0  0  0  0  0  0  0  0
  -24.3170   -9.5330   21.9830 C   0  0  0  0  0  3  0  0  0  0  0  0
  -23.5930   -8.3330   22.1610 C   0  0  0  0  0  3  0  0  0  0  0  0
  -22.4160   -8.1000   21.4110 C   0  0  0  0  0  0  0  0  0  0  0  0
  -21.9940   -9.0600   20.4760 C   0  0  0  0  0  3  0  0  0  0  0  0
  -22.7170  -10.2520   20.2970 C   0  0  0  0  0  3  0  0  0  0  0  0
  -21.6620   -6.9520   21.4990 O   0  0  0  0  0  0  0  0  0  0  0  0
  -21.6250   -6.2040   22.6470 C   0  0  0  0  0  0  0  0  0  0  0  0
  -21.1850   -6.7480   23.8740 C   0  0  0  0  0  3  0  0  0  0  0  0
  -21.0920   -5.9260   25.0140 C   0  0  0  0  0  3  0  0  0  0  0  0
  -21.4270   -4.5620   24.9320 C   0  0  0  0  0  0  0  0  0  0  0  0
  -21.8610   -4.0180   23.7080 C   0  0  0  0  0  3  0  0  0  0  0  0
  -21.9550   -4.8360   22.5690 C   0  0  0  0  0  0  0  0  0  0  0  0
  -22.3520   -4.3040   21.3900 F   0  0  0  0  0  0  0  0  0  0  0  0
  -21.3320   -3.7700   26.0230 F   0  0  0  0  0  0  0  0  0  0  0  0
  -22.7460  -13.6030   21.1670 C   0  0  0  0  0  0  0  0  0  0  0  0
  -22.0190  -12.9100   22.0360 N   0  0  0  0  0  0  0  0  0  0  0  0
  -22.3070  -14.6280   20.6500 O   0  0  0  0  0  0  0  0  0  0  0  0
  -22.3820  -12.0790   22.4770 H   0  0  0  0  0  0  0  0  0  0  0  0
  -21.0860  -13.2270   22.2610 H   0  0  0  0  0  0  0  0  0  0  0  0
  -25.3600  -15.2590   20.3380 N   0  0  0  0  0  0  0  0  0  0  0  0
  -24.5840  -15.8940   20.4740 H   0  0  0  0  0  0  0  0  0  0  0  0
  -26.1770  -15.7040   19.9490 H   0  0  0  0  0  0  0  0  0  0  0  0
  -27.5610  -23.3100   20.3790 C   0  0  0  0  0  3  0  0  0  0  0  0
  -25.5690  -24.2390   21.8130 C   0  0  0  0  0  1  0  0  0  0  0  0
  -26.8500  -23.3870   21.7600 C   0  0  0  0  0  2  0  0  0  0  0  0
  -28.3200  -24.7360   19.9000 C   0  0  0  0  0  2  0  0  0  0  0  0
  -28.2280  -26.2350   20.3250 O   0  0  0  0  0  0  0  0  0  0  0  0
  -24.6050  -31.8660   23.2220 C   0  0  0  0  0  0  0  0  0  0  0  0
  -27.1680  -27.1810   20.1830 C   0  0  0  0  0  0  0  0  0  0  0  0
  -23.4120  -30.4750   21.5720 C   0  0  0  0  0  3  0  0  0  0  0  0
  -24.8510  -28.9060   20.1400 C   0  0  0  0  0  0  0  0  0  0  0  0
  -25.9570  -30.7570   21.4030 C   0  0  0  0  0  2  0  0  0  0  0  0
  -26.0260  -29.3670   20.7460 C   0  0  0  0  0  0  0  0  0  0  0  0
  -27.1870  -28.5160   20.7490 C   0  0  0  0  0  3  0  0  0  0  0  0
  -25.9750  -26.8060   19.5450 C   0  0  0  0  0  3  0  0  0  0  0  0
  -24.8340  -27.6390   19.5300 C   0  0  0  0  0  3  0  0  0  0  0  0
  -23.6280  -29.8050   20.1870 C   0  0  0  0  0  2  0  0  0  0  0  0
  -24.6790  -31.0560   22.1200 N   0  0  0  0  0  0  0  0  0  0  0  0
  -23.5180  -32.1430   23.7550 O   0  0  0  0  0  0  0  0  0  0  0  0
  -22.7330  -29.4630   22.5280 C   0  0  0  0  0  0  0  0  0  0  0  0
  -21.4040  -29.2940   22.4030 N   0  0  0  0  0  0  0  0  0  0  0  0
  -23.4080  -28.8310   23.3440 O   0  0  0  0  0  0  0  0  0  0  0  0
  -20.9200  -29.8420   21.7030 H   0  0  0  0  0  0  0  0  0  0  0  0
  -18.0260  -28.0920   22.9180 C   0  0  0  0  0  0  0  0  0  0  0  0
  -20.5880  -28.3480   23.1670 C   0  0  0  0  0  3  0  0  0  0  0  0
  -20.6900  -26.9240   22.5740 C   0  0  0  0  0  2  0  0  0  0  0  0
  -19.5700  -26.6000   21.5780 C   0  0  0  0  0  2  0  0  0  0  0  0
  -18.1970  -26.7430   22.2410 C   0  0  0  0  0  2  0  0  0  0  0  0
  -19.1490  -28.8500   23.3440 C   0  0  0  0  0  0  0  0  0  0  0  0
  -18.9340  -30.1090   23.9450 C   0  0  0  0  0  3  0  0  0  0  0  0
  -17.6300  -30.6060   24.1360 C   0  0  0  0  0  3  0  0  0  0  0  0
  -16.5230  -29.8430   23.7310 C   0  0  0  0  0  3  0  0  0  0  0  0
  -16.7220  -28.5890   23.1250 C   0  0  0  0  0  3  0  0  0  0  0  0
  -25.8820  -32.4950   23.8600 C   0  0  0  0  0  3  0  0  0  0  0  0
  -26.3790  -31.7170   25.1420 C   0  0  1  0  0  0  0  0  0  0  0  0
  -25.2900  -31.4970   26.2160 C   0  0  0  0  0  1  0  0  0  0  0  0
  -26.9380  -30.3280   24.7570 C   0  0  0  0  0  1  0  0  0  0  0  0
  -27.5360  -32.4970   25.8050 C   0  0  0  0  0  1  0  0  0  0  0  0
  -25.5780  -33.8950   24.1920 N   0  0  0  0  0  0  0  0  0  0  0  0
  -25.9020  -34.9470   23.4310 C   0  0  0  0  0  0  0  0  0  0  0  0
  -26.5630  -34.8400   22.3940 O   0  0  0  0  0  0  0  0  0  0  0  0
  -25.0040  -34.0470   25.0080 H   0  0  0  0  0  0  0  0  0  0  0  0
  -24.1830  -36.7490   23.0720 C   0  0  0  0  0  1  0  0  0  0  0  0
  -25.4200  -36.3380   23.8880 C   0  0  0  0  0  3  0  0  0  0  0  0
  -27.5540  -37.2260   24.7200 C   0  0  0  0  0  1  0  0  0  0  0  0
  -26.4550  -37.3880   23.7720 N   0  0  0  0  0  0  0  0  0  0  0  0
  -26.0500  -38.3100   23.9130 H   0  0  0  0  0  0  0  0  0  0  0  0
  1  3  1  0
  2  5  1  0
  3  5  2  0
  4 46  1  0
  4  2  2  0
  6  1  2  0
  6  4  1  0
  7  3  1  0
  7 16  1  0
  8 16  1  0
  9 14  1  0
 10 11  1  0
 10  9  1  0
 12 11  1  0
 12 21  1  0
 12 13  1  0
 14  8  1  0
 14 13  1  0
 15  8  2  0
 16 17  1  0
 18 19  2  0
 19 38  1  0
 20 19  1  0
 20 23  1  0
 21 18  1  0
 21 22  1  0
 22 20  2  0
 23 24  1  0
 24 25  2  0
 26 29  1  0
 26 25  1  0
 27 26  2  0
 28 27  1  0
 28 23  2  0
 29 30  1  0
 30 31  1  0
 31 32  2  0
 33 32  1  0
 33 37  1  0
 34 33  2  0
 35 30  2  0
 35 34  1  0
 36 35  1  0
 38 39  1  0
 39 42  1  0
 39 41  1  0
 40 38  2  0
 43 44  1  0
 43 18  1  0
 45 43  1  0
 46 49  1  0
 46 48  1  0
 48 47  1  0
 49 50  1  0
 51 62  2  0
 52 50  1  0
 52 57  1  0
 53 61  1  0
 53 63  1  0
 54 60  1  0
 54 56  1  0
 55 61  1  0
 56 57  2  0
 56 55  1  0
 58 52  2  0
 59 58  1  0
 59 54  2  0
 60 53  1  0
 61 51  1  0
 63 65  2  0
 64 63  1  0
 66 64  1  0
 67 76  2  0
 67 72  1  0
 68 64  1  0
 68 72  1  0
 69 68  1  0
 70 71  1  0
 70 69  1  0
 71 67  1  0
 72 73  2  0
 73 74  1  0
 75 74  2  0
 76 75  1  0
 77 51  1  0
 77 82  1  0
 77 78  1  0
 78 81  1  1
 78 79  1  0
 80 78  1  0
 82 85  1  0
 83 87  1  0
 83 82  1  0
 84 83  2  0
 87 86  1  0
 89 87  1  0
 89 90  1  0
 89 88  1  0
M  ISO  4   8 100  16 100  49 101  50 101
M  END
>  <TORSDO>  (17) 
F 20

>  <SCORE>  (17) 
-14.002

>  <name>  (17) 
16

>  <ligand_id>  (17) 
16

>  <original_smiles>  (17) 
[H]c1nc(C([H])(C([H])([H])Oc2c([H])c([H])c3c(c2[H])C([H])([H])N(C(=O)C([H])(N([H])C(=O)C([H])(N([H])C([H])([H])[H])C([H])([H])[H])C(C([H])([H])[H])(C([H])([H])[H])C([H])([H])[H])C([H])(C(=O)N([H])C2([H])c4c([H])c([H])c([H])c([H])c4C([H])([H])C([H])([H])C2([H])[H])C3([H])[H])C([H])([H])C([H])([H])[H])c([H])nc1C([H])([H])N([H])C(=O)N1C([H])([H])C([H])([H])C([H])([H])C([H])(n2nc(-c3c([H])c([H])c(Oc4c([H])c([H])c(F)c([H])c4F)c([H])c3[H])c(C(=O)N([H])[H])c2N([H])[H])C1([H])[H]

>  <smiles>  (17) 
[H]c1nc(C([H])(C([H])([H])Oc2c([H])c([H])c3c(c2[H])C([H])([H])N(C(=O)C([H])(N([H])C(=O)C([H])(N([H])C([H])([H])[H])C([H])([H])[H])C(C([H])([H])[H])(C([H])([H])[H])C([H])([H])[H])C([H])(C(=O)N([H])C2([H])c4c([H])c([H])c([H])c([H])c4C([H])([H])C([H])([H])C2([H])[H])C3([H])[H])C([H])([H])C([H])([H])[H])c([H])nc1C([H])([H])N([H])C(=O)N1C([H])([H])C([H])([H])C([H])([H])C([H])(n2nc(-c3c([H])c([H])c(Oc4c([H])c([H])c(F)c([H])c4F)c([H])c3[H])c(C(=O)N([H])[H])c2N([H])[H])C1([H])[H]

$$$$
17:0:0
     RDKit          3D

 95103  0  0  1  0  0  0  0  0999 V2000
  -29.0730  -21.5870   20.4910 N   0  0  0  0  0  4  0  0  0  0  0  0
  -29.8560  -21.6000   21.1220 H   0  0  0  0  0  0  0  0  0  0  0  0
  -28.2370  -21.6120   21.0510 H   0  0  0  0  0  0  0  0  0  0  0  0
  -30.4800  -22.8850   18.8810 C   0  0  0  0  0  1  0  0  0  0  0  0
  -29.1200  -22.8090   19.6150 C   0  0  0  0  0  3  0  0  0  0  0  0
  -29.7340  -24.4330   21.5510 C   0  0  0  0  0  1  0  0  0  0  0  0
  -28.7630  -24.1540   20.3920 C   0  0  0  0  0  3  0  0  0  0  0  0
  -28.6310  -25.4420   19.4930 C   0  0  0  0  0  2  0  0  0  0  0  0
  -28.4200  -26.6960   20.2050 O   0  0  0  0  0  0  0  0  0  0  0  0
  -24.5950  -31.9110   23.2530 C   0  0  0  0  0  0  0  0  0  0  0  0
  -27.2300  -27.4150   20.1670 C   0  0  0  0  0  0  0  0  0  0  0  0
  -23.3880  -30.5090   21.6130 C   0  0  0  0  0  3  0  0  0  0  0  0
  -24.8400  -28.9630   20.1940 C   0  0  0  0  0  0  0  0  0  0  0  0
  -25.9230  -30.8490   21.4240 C   0  0  0  0  0  2  0  0  0  0  0  0
  -26.0040  -29.4760   20.7770 C   0  0  0  0  0  0  0  0  0  0  0  0
  -27.1960  -28.7110   20.7560 C   0  0  0  0  0  3  0  0  0  0  0  0
  -26.0350  -26.9200   19.5950 C   0  0  0  0  0  3  0  0  0  0  0  0
  -24.8530  -27.6880   19.6040 C   0  0  0  0  0  3  0  0  0  0  0  0
  -23.6010  -29.8290   20.2330 C   0  0  0  0  0  2  0  0  0  0  0  0
  -24.6530  -31.1080   22.1520 N   0  0  0  0  0  0  0  0  0  0  0  0
  -23.5140  -32.1910   23.7870 O   0  0  0  0  0  0  0  0  0  0  0  0
  -22.7380  -29.4890   22.5750 C   0  0  0  0  0  0  0  0  0  0  0  0
  -21.4170  -29.2930   22.4370 N   0  0  0  0  0  0  0  0  0  0  0  0
  -23.4210  -28.8800   23.4040 O   0  0  0  0  0  0  0  0  0  0  0  0
  -20.9330  -29.8390   21.7390 H   0  0  0  0  0  0  0  0  0  0  0  0
  -18.0510  -28.0470   22.8920 C   0  0  0  0  0  0  0  0  0  0  0  0
  -20.6000  -28.3540   23.2070 C   0  0  0  0  0  3  0  0  0  0  0  0
  -20.7370  -26.9140   22.6590 C   0  0  0  0  0  2  0  0  0  0  0  0
  -19.6620  -26.5560   21.6290 C   0  0  0  0  0  2  0  0  0  0  0  0
  -18.2650  -26.6890   22.2420 C   0  0  0  0  0  2  0  0  0  0  0  0
  -19.1500  -28.8340   23.3290 C   0  0  0  0  0  0  0  0  0  0  0  0
  -18.8980  -30.1040   23.8950 C   0  0  0  0  0  3  0  0  0  0  0  0
  -17.5830  -30.5860   24.0280 C   0  0  0  0  0  3  0  0  0  0  0  0
  -16.4990  -29.7960   23.6050 C   0  0  0  0  0  3  0  0  0  0  0  0
  -16.7340  -28.5280   23.0440 C   0  0  0  0  0  3  0  0  0  0  0  0
  -25.8820  -32.5410   23.8720 C   0  0  0  0  0  3  0  0  0  0  0  0
  -25.5750  -33.9390   24.1980 N   0  0  0  0  0  0  0  0  0  0  0  0
  -25.9040  -34.9890   23.4330 C   0  0  0  0  0  0  0  0  0  0  0  0
  -26.5720  -34.8840   22.4020 O   0  0  0  0  0  0  0  0  0  0  0  0
  -24.9910  -34.0970   25.0060 H   0  0  0  0  0  0  0  0  0  0  0  0
  -24.1710  -36.7800   23.0790 C   0  0  0  0  0  1  0  0  0  0  0  0
  -25.4140  -36.3780   23.8890 C   0  0  0  0  0  3  0  0  0  0  0  0
  -27.5480  -37.2680   24.7160 C   0  0  0  0  0  1  0  0  0  0  0  0
  -26.4430  -37.4330   23.7760 N   0  0  0  0  0  0  0  0  0  0  0  0
  -26.0320  -38.3490   23.9330 H   0  0  0  0  0  0  0  0  0  0  0  0
  -26.4060  -31.7740   25.1500 C   0  0  1  0  0  0  0  0  0  0  0  0
  -25.3140  -31.5410   26.2210 C   0  0  0  0  0  1  0  0  0  0  0  0
  -26.9930  -30.3950   24.7600 C   0  0  0  0  0  1  0  0  0  0  0  0
  -27.5530  -32.5770   25.8090 C   0  0  0  0  0  1  0  0  0  0  0  0
  -29.0810  -20.2290   19.8590 C   0  0  0  0  0  2  0  0  0  0  0  0
  -31.1230  -18.4350   22.5970 C   0  0  0  0  0  3  0  0  0  0  0  0
  -30.5070  -19.4610   21.8630 C   0  0  0  0  0  3  0  0  0  0  0  0
  -30.9360  -17.0980   22.2040 C   0  0  0  0  0  0  0  0  0  0  0  0
  -29.7220  -19.1300   20.7400 C   0  0  0  0  0  0  0  0  0  0  0  0
  -30.1400  -16.8190   21.0650 C   0  0  0  0  0  0  0  0  0  0  0  0
  -31.5840  -15.9970   23.0320 C   0  0  0  0  0  1  0  0  0  0  0  0
  -29.5400  -17.8290   20.3720 N   0  0  0  0  0  0  0  0  0  0  0  0
  -30.5430  -14.5150   20.1390 C   0  0  0  0  0  0  0  0  0  0  0  0
  -30.2080  -12.3880   18.9110 C   0  0  0  0  0  2  0  0  0  0  0  0
  -29.1980  -12.6380   17.7710 C   0  0  0  0  0  2  0  0  0  0  0  0
  -27.7500  -12.4920   18.2800 C   0  0  0  0  0  2  0  0  0  0  0  0
  -27.4910  -13.2790   19.5910 C   0  0  0  0  0  3  0  0  0  0  0  0
  -28.6010  -12.9890   20.6260 C   0  0  0  0  0  2  0  0  0  0  0  0
  -29.8920  -13.3260   19.9990 N   0  0  0  0  0  0  0  0  0  0  0  0
  -31.6380  -14.7370   19.6050 O   0  0  0  0  0  0  0  0  0  0  0  0
  -29.8290  -15.4600   20.7880 N   0  0  0  0  0  0  0  0  0  0  0  0
  -28.9290  -15.1550   21.1170 H   0  0  0  0  0  0  0  0  0  0  0  0
  -25.1320  -13.9020   20.4050 C   0  0  0  0  0  0  0  0  0  0  0  0
  -24.0760  -13.1340   20.8200 C   0  0  0  0  0  0  0  0  0  0  0  0
  -24.5250  -11.7800   20.7610 C   0  0  0  0  0  0  0  0  0  0  0  0
  -26.1580  -13.0130   20.1270 N   0  0  0  0  0  0  0  0  0  0  0  0
  -25.7990  -11.7310   20.3940 N   0  0  0  0  0  0  0  0  0  0  0  0
  -23.7960  -10.5230   20.9790 C   0  0  0  0  0  0  0  0  0  0  0  0
  -24.2600   -9.5530   21.8950 C   0  0  0  0  0  3  0  0  0  0  0  0
  -23.5390   -8.3580   22.0980 C   0  0  0  0  0  3  0  0  0  0  0  0
  -22.3360   -8.1250   21.3880 C   0  0  0  0  0  0  0  0  0  0  0  0
  -21.8890   -9.0840   20.4620 C   0  0  0  0  0  3  0  0  0  0  0  0
  -22.6120  -10.2720   20.2560 C   0  0  0  0  0  3  0  0  0  0  0  0
  -21.5820   -6.9830   21.5010 O   0  0  0  0  0  0  0  0  0  0  0  0
  -21.5710   -6.2400   22.6540 C   0  0  0  0  0  0  0  0  0  0  0  0
  -21.2040   -6.8000   23.8960 C   0  0  0  0  0  3  0  0  0  0  0  0
  -21.1390   -5.9850   25.0440 C   0  0  0  0  0  3  0  0  0  0  0  0
  -21.4290   -4.6100   24.9510 C   0  0  0  0  0  0  0  0  0  0  0  0
  -21.7910   -4.0500   23.7130 C   0  0  0  0  0  3  0  0  0  0  0  0
  -21.8580   -4.8630   22.5680 C   0  0  0  0  0  0  0  0  0  0  0  0
  -22.1850   -4.3140   21.3730 F   0  0  0  0  0  0  0  0  0  0  0  0
  -21.3600   -3.8250   26.0520 F   0  0  0  0  0  0  0  0  0  0  0  0
  -22.6960  -13.6220   21.1570 C   0  0  0  0  0  0  0  0  0  0  0  0
  -22.0020  -12.9260   22.0500 N   0  0  0  0  0  0  0  0  0  0  0  0
  -22.2420  -14.6530   20.6630 O   0  0  0  0  0  0  0  0  0  0  0  0
  -22.3830  -12.0930   22.4730 H   0  0  0  0  0  0  0  0  0  0  0  0
  -21.0780  -13.2350   22.3120 H   0  0  0  0  0  0  0  0  0  0  0  0
  -25.3000  -15.2720   20.2310 N   0  0  0  0  0  0  0  0  0  0  0  0
  -24.5380  -15.9280   20.3570 H   0  0  0  0  0  0  0  0  0  0  0  0
  -26.1350  -15.7050   19.8550 H   0  0  0  0  0  0  0  0  0  0  0  0
  1  3  1  0
  1  2  1  0
  5  4  1  0
  5  7  1  0
  5  1  1  0
  7  6  1  0
  8  9  1  0
  8  7  1  0
 10 21  2  0
 11  9  1  0
 11 16  1  0
 12 20  1  0
 12 22  1  0
 13 19  1  0
 13 15  1  0
 14 20  1  0
 15 14  1  0
 16 15  2  0
 17 18  1  0
 17 11  2  0
 18 13  2  0
 19 12  1  0
 20 10  1  0
 22 24  2  0
 23 22  1  0
 25 23  1  0
 26 35  2  0
 26 31  1  0
 27 23  1  0
 27 31  1  0
 28 27  1  0
 29 30  1  0
 29 28  1  0
 30 26  1  0
 31 32  2  0
 32 33  1  0
 34 33  2  0
 35 34  1  0
 36 10  1  0
 36 37  1  0
 36 46  1  0
 37 40  1  0
 38 42  1  0
 38 37  1  0
 39 38  2  0
 42 41  1  0
 44 42  1  0
 44 45  1  0
 44 43  1  0
 46 49  1  1
 46 47  1  0
 48 46  1  0
 50  1  1  0
 50 54  1  0
 52 51  2  0
 53 51  1  0
 53 56  1  0
 54 52  1  0
 55 53  2  0
 57 54  2  0
 57 55  1  0
 58 66  1  0
 59 64  1  0
 60 61  1  0
 60 59  1  0
 62 61  1  0
 62 71  1  0
 62 63  1  0
 64 58  1  0
 64 63  1  0
 65 58  2  0
 66 55  1  0
 66 67  1  0
 68 69  2  0
 69 88  1  0
 70 69  1  0
 70 73  1  0
 71 72  1  0
 71 68  1  0
 72 70  2  0
 73 74  1  0
 74 75  2  0
 76 79  1  0
 76 75  1  0
 77 76  2  0
 78 77  1  0
 78 73  2  0
 79 80  1  0
 80 81  1  0
 81 82  2  0
 83 82  1  0
 83 87  1  0
 84 83  2  0
 85 80  2  0
 85 84  1  0
 86 85  1  0
 88 89  1  0
 89 92  1  0
 89 91  1  0
 90 88  2  0
 93 94  1  0
 93 68  1  0
 95 93  1  0
M  ISO  4   8 101   9 101  58 100  66 100
M  END
>  <TORSDO>  (18) 
F 21

>  <SCORE>  (18) 
-11.635

>  <name>  (18) 
17

>  <ligand_id>  (18) 
17

>  <original_smiles>  (18) 
[H]c1c(C([H])([H])[N+]([H])([H])C([H])(C([H])([H])[H])C([H])(C([H])([H])[H])C([H])([H])Oc2c([H])c([H])c3c(c2[H])C([H])([H])N(C(=O)C([H])(N([H])C(=O)C([H])(N([H])C([H])([H])[H])C([H])([H])[H])C(C([H])([H])[H])(C([H])([H])[H])C([H])([H])[H])C([H])(C(=O)N([H])C2([H])c4c([H])c([H])c([H])c([H])c4C([H])([H])C([H])([H])C2([H])[H])C3([H])[H])nc(N([H])C(=O)N2C([H])([H])C([H])([H])C([H])([H])C([H])(n3nc(-c4c([H])c([H])c(Oc5c([H])c([H])c(F)c([H])c5F)c([H])c4[H])c(C(=O)N([H])[H])c3N([H])[H])C2([H])[H])c(C([H])([H])[H])c1[H]

>  <smiles>  (18) 
[H]c1c(C([H])([H])[N+]([H])([H])C([H])(C([H])([H])[H])C([H])(C([H])([H])[H])C([H])([H])Oc2c([H])c([H])c3c(c2[H])C([H])([H])N(C(=O)C([H])(N([H])C(=O)C([H])(N([H])C([H])([H])[H])C([H])([H])[H])C(C([H])([H])[H])(C([H])([H])[H])C([H])([H])[H])C([H])(C(=O)N([H])C2([H])c4c([H])c([H])c([H])c([H])c4C([H])([H])C([H])([H])C2([H])[H])C3([H])[H])nc(N([H])C(=O)N2C([H])([H])C([H])([H])C([H])([H])C([H])(n3nc(-c4c([H])c([H])c(Oc5c([H])c([H])c(F)c([H])c5F)c([H])c4[H])c(C(=O)N([H])[H])c3N([H])[H])C2([H])[H])c(C([H])([H])[H])c1[H]

$$$$
18:0:0
     RDKit          3D

101109  0  0  1  0  0  0  0  0999 V2000
  -29.9640  -22.7680   19.0360 C   0  0  0  0  0  2  0  0  0  0  0  0
  -30.1680  -21.3150   19.4810 C   0  0  0  0  0  2  0  0  0  0  0  0
  -30.7450  -21.2770   20.7880 O   0  0  0  0  0  0  0  0  0  0  0  0
  -30.9420  -18.7300   23.4580 C   0  0  0  0  0  3  0  0  0  0  0  0
  -30.6650  -17.5910   22.6780 C   0  0  0  0  0  3  0  0  0  0  0  0
  -30.9870  -20.0000   22.8390 C   0  0  0  0  0  0  0  0  0  0  0  0
  -30.4610  -17.7590   21.2990 C   0  0  0  0  0  0  0  0  0  0  0  0
  -30.7480  -20.0640   21.4490 C   0  0  0  0  0  0  0  0  0  0  0  0
  -30.5020  -18.9640   20.7090 N   0  0  0  0  0  0  0  0  0  0  0  0
  -32.8030  -21.4680   23.7970 C   0  0  0  0  0  1  0  0  0  0  0  0
  -30.5720  -21.3260   25.0010 C   0  0  0  0  0  1  0  0  0  0  0  0
  -31.2880  -21.2690   23.6390 C   0  0  0  0  0  3  0  0  0  0  0  0
  -30.1120  -16.6310   20.3480 C   0  0  0  0  0  2  0  0  0  0  0  0
  -30.8800  -14.3090   20.2970 C   0  0  0  0  0  0  0  0  0  0  0  0
  -30.5130  -12.2060   19.0720 C   0  0  0  0  0  2  0  0  0  0  0  0
  -29.5630  -12.5070   17.8900 C   0  0  0  0  0  2  0  0  0  0  0  0
  -28.0840  -12.4290   18.3290 C   0  0  0  0  0  2  0  0  0  0  0  0
  -27.8060  -13.2280   19.6290 C   0  0  0  0  0  3  0  0  0  0  0  0
  -28.8540  -12.8800   20.7110 C   0  0  0  0  0  2  0  0  0  0  0  0
  -30.1950  -13.1440   20.1580 N   0  0  0  0  0  0  0  0  0  0  0  0
  -31.9690  -14.5300   19.7530 O   0  0  0  0  0  0  0  0  0  0  0  0
  -30.1760  -15.2770   20.8890 N   0  0  0  0  0  0  0  0  0  0  0  0
  -29.3560  -14.9790   21.3940 H   0  0  0  0  0  0  0  0  0  0  0  0
  -25.4300  -13.9350   20.3350 C   0  0  0  0  0  0  0  0  0  0  0  0
  -24.3370  -13.2050   20.7230 C   0  0  0  0  0  0  0  0  0  0  0  0
  -24.7480  -11.8390   20.7030 C   0  0  0  0  0  0  0  0  0  0  0  0
  -26.4420  -13.0140   20.1110 N   0  0  0  0  0  0  0  0  0  0  0  0
  -26.0330  -11.7480   20.3850 N   0  0  0  0  0  0  0  0  0  0  0  0
  -23.9810  -10.6040   20.9170 C   0  0  0  0  0  0  0  0  0  0  0  0
  -24.3920   -9.6350   21.8580 C   0  0  0  0  0  3  0  0  0  0  0  0
  -23.6330   -8.4630   22.0560 C   0  0  0  0  0  3  0  0  0  0  0  0
  -22.4450   -8.2540   21.3170 C   0  0  0  0  0  0  0  0  0  0  0  0
  -22.0530   -9.2110   20.3640 C   0  0  0  0  0  3  0  0  0  0  0  0
  -22.8130  -10.3750   20.1630 C   0  0  0  0  0  3  0  0  0  0  0  0
  -21.6530   -7.1370   21.4260 O   0  0  0  0  0  0  0  0  0  0  0  0
  -21.5870   -6.4140   22.5900 C   0  0  0  0  0  0  0  0  0  0  0  0
  -21.2110   -7.0070   23.8160 C   0  0  0  0  0  3  0  0  0  0  0  0
  -21.0900   -6.2130   24.9730 C   0  0  0  0  0  3  0  0  0  0  0  0
  -21.3300   -4.8260   24.9050 C   0  0  0  0  0  0  0  0  0  0  0  0
  -21.6990   -4.2340   23.6840 C   0  0  0  0  0  3  0  0  0  0  0  0
  -21.8230   -5.0270   22.5290 C   0  0  0  0  0  0  0  0  0  0  0  0
  -22.1580   -4.4480   21.3510 F   0  0  0  0  0  0  0  0  0  0  0  0
  -21.2050   -4.0610   26.0140 F   0  0  0  0  0  0  0  0  0  0  0  0
  -22.9600  -13.7340   21.0030 C   0  0  0  0  0  0  0  0  0  0  0  0
  -22.2220  -13.0820   21.8970 N   0  0  0  0  0  0  0  0  0  0  0  0
  -22.5470  -14.7600   20.4630 O   0  0  0  0  0  0  0  0  0  0  0  0
  -22.5690  -12.2550   22.3590 H   0  0  0  0  0  0  0  0  0  0  0  0
  -21.2990  -13.4200   22.1280 H   0  0  0  0  0  0  0  0  0  0  0  0
  -25.6440  -15.2960   20.1360 N   0  0  0  0  0  0  0  0  0  0  0  0
  -24.8980  -15.9780   20.2210 H   0  0  0  0  0  0  0  0  0  0  0  0
  -26.5070  -15.6930   19.7850 H   0  0  0  0  0  0  0  0  0  0  0  0
  -31.2560  -23.4450   18.5370 C   0  0  0  0  0  2  0  0  0  0  0  0
  -31.1010  -24.9070   18.3930 N   0  0  0  0  0  4  0  0  0  0  0  0
  -30.2540  -25.0990   17.8840 H   0  0  0  0  0  0  0  0  0  0  0  0
  -31.8700  -25.2440   17.8330 H   0  0  0  0  0  0  0  0  0  0  0  0
  -31.1080  -25.6440   19.6790 C   0  0  0  0  0  2  0  0  0  0  0  0
  -31.7220  -27.8550   18.5900 C   0  0  0  0  0  1  0  0  0  0  0  0
  -30.8620  -27.8160   20.9280 C   0  0  0  0  0  1  0  0  0  0  0  0
  -30.7440  -27.1450   19.5440 C   0  0  2  0  0  0  0  0  0  0  0  0
  -29.2950  -27.3320   19.0400 C   0  0  0  0  0  2  0  0  0  0  0  0
  -28.3680  -26.7610   19.9610 O   0  0  0  0  0  0  0  0  0  0  0  0
  -24.6020  -31.8690   23.2070 C   0  0  0  0  0  0  0  0  0  0  0  0
  -27.2010  -27.4690   20.0590 C   0  0  0  0  0  0  0  0  0  0  0  0
  -23.3690  -30.4750   21.5760 C   0  0  0  0  0  3  0  0  0  0  0  0
  -24.8020  -28.9380   20.1300 C   0  0  0  0  0  0  0  0  0  0  0  0
  -25.8890  -30.8370   21.3420 C   0  0  0  0  0  2  0  0  0  0  0  0
  -25.9630  -29.4670   20.7070 C   0  0  0  0  0  0  0  0  0  0  0  0
  -27.1670  -28.7350   20.6810 C   0  0  0  0  0  3  0  0  0  0  0  0
  -26.0250  -26.9320   19.5020 C   0  0  0  0  0  3  0  0  0  0  0  0
  -24.8230  -27.6640   19.5330 C   0  0  0  0  0  3  0  0  0  0  0  0
  -23.5600  -29.7960   20.1920 C   0  0  0  0  0  2  0  0  0  0  0  0
  -24.6390  -31.0750   22.1000 N   0  0  0  0  0  0  0  0  0  0  0  0
  -23.5290  -32.1410   23.7630 O   0  0  0  0  0  0  0  0  0  0  0  0
  -22.7330  -29.4480   22.5410 C   0  0  0  0  0  0  0  0  0  0  0  0
  -21.4080  -29.2670   22.4270 N   0  0  0  0  0  0  0  0  0  0  0  0
  -23.4270  -28.8210   23.3440 O   0  0  0  0  0  0  0  0  0  0  0  0
  -20.9110  -29.8250   21.7470 H   0  0  0  0  0  0  0  0  0  0  0  0
  -18.0390  -28.0720   22.9450 C   0  0  0  0  0  0  0  0  0  0  0  0
  -20.5970  -28.3290   23.2030 C   0  0  0  0  0  3  0  0  0  0  0  0
  -20.6960  -26.8990   22.6260 C   0  0  0  0  0  2  0  0  0  0  0  0
  -19.5890  -26.5770   21.6160 C   0  0  0  0  0  2  0  0  0  0  0  0
  -18.2100  -26.7220   22.2690 C   0  0  0  0  0  2  0  0  0  0  0  0
  -19.1610  -28.8340   23.3690 C   0  0  0  0  0  0  0  0  0  0  0  0
  -18.9460  -30.0980   23.9600 C   0  0  0  0  0  3  0  0  0  0  0  0
  -17.6440  -30.6020   24.1310 C   0  0  0  0  0  3  0  0  0  0  0  0
  -16.5360  -29.8370   23.7240 C   0  0  0  0  0  3  0  0  0  0  0  0
  -16.7350  -28.5740   23.1380 C   0  0  0  0  0  3  0  0  0  0  0  0
  -25.8990  -32.4930   23.8110 C   0  0  0  0  0  3  0  0  0  0  0  0
  -26.4400  -31.7080   25.0690 C   0  0  1  0  0  0  0  0  0  0  0  0
  -25.3700  -31.4670   26.1590 C   0  0  0  0  0  1  0  0  0  0  0  0
  -27.0060  -30.3320   24.6470 C   0  0  0  0  0  1  0  0  0  0  0  0
  -27.6090  -32.4920   25.7110 C   0  0  0  0  0  1  0  0  0  0  0  0
  -25.5980  -33.8880   24.1570 N   0  0  0  0  0  0  0  0  0  0  0  0
  -25.9260  -34.9460   23.4040 C   0  0  0  0  0  0  0  0  0  0  0  0
  -26.5870  -34.8500   22.3660 O   0  0  0  0  0  0  0  0  0  0  0  0
  -25.0040  -34.0360   24.9600 H   0  0  0  0  0  0  0  0  0  0  0  0
  -24.1980  -36.7430   23.0750 C   0  0  0  0  0  1  0  0  0  0  0  0
  -25.4430  -36.3290   23.8760 C   0  0  0  0  0  3  0  0  0  0  0  0
  -27.5920  -37.1920   24.6940 C   0  0  0  0  0  1  0  0  0  0  0  0
  -26.4750  -37.3850   23.7730 N   0  0  0  0  0  0  0  0  0  0  0  0
  -26.0710  -38.3000   23.9530 H   0  0  0  0  0  0  0  0  0  0  0  0
  1  2  1  0
  2  3  1  0
  3  8  1  0
  5  4  1  0
  6  4  2  0
  6 12  1  0
  7  5  2  0
  8  6  1  0
  9  7  1  0
  9  8  2  0
 12 10  1  0
 12 11  1  0
 13 22  1  0
 13  7  1  0
 14 22  1  0
 15 20  1  0
 16 17  1  0
 16 15  1  0
 18 17  1  0
 18 27  1  0
 18 19  1  0
 20 14  1  0
 20 19  1  0
 21 14  2  0
 22 23  1  0
 24 25  2  0
 25 44  1  0
 26 25  1  0
 26 29  1  0
 27 24  1  0
 27 28  1  0
 28 26  2  0
 29 30  1  0
 30 31  2  0
 32 35  1  0
 32 31  1  0
 33 32  2  0
 34 33  1  0
 34 29  2  0
 35 36  1  0
 36 37  1  0
 37 38  2  0
 39 38  1  0
 39 43  1  0
 40 39  2  0
 41 36  2  0
 41 40  1  0
 42 41  1  0
 44 45  1  0
 45 48  1  0
 45 47  1  0
 46 44  2  0
 49 50  1  0
 49 24  1  0
 51 49  1  0
 52  1  1  0
 53 52  1  0
 53 56  1  0
 54 53  1  0
 55 53  1  0
 59 57  1  6
 59 56  1  0
 59 58  1  0
 60 59  1  0
 60 61  1  0
 61 63  1  0
 62 73  2  0
 63 68  1  0
 64 72  1  0
 64 74  1  0
 65 71  1  0
 65 67  1  0
 66 72  1  0
 67 66  1  0
 68 67  2  0
 69 70  1  0
 69 63  2  0
 70 65  2  0
 71 64  1  0
 72 62  1  0
 74 76  2  0
 75 74  1  0
 77 75  1  0
 78 87  2  0
 78 83  1  0
 79 75  1  0
 79 83  1  0
 80 79  1  0
 81 82  1  0
 81 80  1  0
 82 78  1  0
 83 84  2  0
 84 85  1  0
 86 85  2  0
 87 86  1  0
 88 62  1  0
 88 93  1  0
 88 89  1  0
 89 92  1  1
 89 90  1  0
 91 89  1  0
 93 96  1  0
 94 98  1  0
 94 93  1  0
 95 94  2  0
 98 97  1  0
100 98  1  0
100101  1  0
100 99  1  0
M  ISO  4  14 100  22 100  60 101  61 101
M  END
>  <TORSDO>  (19) 
F 26

>  <SCORE>  (19) 
-11.532

>  <name>  (19) 
18

>  <ligand_id>  (19) 
18

>  <original_smiles>  (19) 
[H]c1c(C([H])([H])N([H])C(=O)N2C([H])([H])C([H])([H])C([H])([H])C([H])(n3nc(-c4c([H])c([H])c(Oc5c([H])c([H])c(F)c([H])c5F)c([H])c4[H])c(C(=O)N([H])[H])c3N([H])[H])C2([H])[H])nc(OC([H])([H])C([H])([H])C([H])([H])[N+]([H])([H])C([H])([H])C(C([H])([H])[H])(C([H])([H])[H])C([H])([H])Oc2c([H])c([H])c3c(c2[H])C([H])([H])N(C(=O)C([H])(N([H])C(=O)C([H])(N([H])C([H])([H])[H])C([H])([H])[H])C(C([H])([H])[H])(C([H])([H])[H])C([H])([H])[H])C([H])(C(=O)N([H])C2([H])c4c([H])c([H])c([H])c([H])c4C([H])([H])C([H])([H])C2([H])[H])C3([H])[H])c(C([H])(C([H])([H])[H])C([H])([H])[H])c1[H]

>  <smiles>  (19) 
[H]c1c(C([H])([H])N([H])C(=O)N2C([H])([H])C([H])([H])C([H])([H])C([H])(n3nc(-c4c([H])c([H])c(Oc5c([H])c([H])c(F)c([H])c5F)c([H])c4[H])c(C(=O)N([H])[H])c3N([H])[H])C2([H])[H])nc(OC([H])([H])C([H])([H])C([H])([H])[N+]([H])([H])C([H])([H])C(C([H])([H])[H])(C([H])([H])[H])C([H])([H])Oc2c([H])c([H])c3c(c2[H])C([H])([H])N(C(=O)C([H])(N([H])C(=O)C([H])(N([H])C([H])([H])[H])C([H])([H])[H])C(C([H])([H])[H])(C([H])([H])[H])C([H])([H])[H])C([H])(C(=O)N([H])C2([H])c4c([H])c([H])c([H])c([H])c4C([H])([H])C([H])([H])C2([H])[H])C3([H])[H])c(C([H])(C([H])([H])[H])C([H])([H])[H])c1[H]

$$$$
19:0:0
     RDKit          3D

 93101  0  0  1  0  0  0  0  0999 V2000
  -30.1730  -22.1290   20.8920 C   0  0  0  0  0  3  0  0  0  0  0  0
  -28.0220  -21.4790   20.0570 C   0  0  0  0  0  3  0  0  0  0  0  0
  -29.9130  -23.4880   20.5060 C   0  0  0  0  0  3  0  0  0  0  0  0
  -27.7590  -22.8320   19.6810 C   0  0  0  0  0  3  0  0  0  0  0  0
  -29.2350  -21.0790   20.6760 C   0  0  0  0  0  0  0  0  0  0  0  0
  -28.6910  -23.8810   19.8920 C   0  0  0  0  0  0  0  0  0  0  0  0
  -29.3860  -19.6390   21.3100 C   0  0  0  0  0  2  0  0  0  0  0  0
  -31.4630  -18.1740   21.6940 C   0  0  0  0  0  1  0  0  0  0  0  0
  -30.2980  -18.4450   20.7200 C   0  0  0  0  0  3  0  0  0  0  0  0
  -29.5220  -17.0690   20.3720 C   0  0  0  0  0  3  0  0  0  0  0  0
  -30.7500  -14.7380   20.8160 C   0  0  0  0  0  0  0  0  0  0  0  0
  -30.5010  -12.4770   19.8440 C   0  0  0  0  0  2  0  0  0  0  0  0
  -29.6200  -12.5570   18.5850 C   0  0  0  0  0  2  0  0  0  0  0  0
  -28.1440  -12.3580   18.9750 C   0  0  0  0  0  2  0  0  0  0  0  0
  -27.7120  -13.2400   20.1780 C   0  0  0  0  0  3  0  0  0  0  0  0
  -28.7410  -13.2410   21.3260 C   0  0  0  0  0  2  0  0  0  0  0  0
  -30.0390  -13.5670   20.7210 N   0  0  0  0  0  0  0  0  0  0  0  0
  -31.9670  -14.6580   20.9910 O   0  0  0  0  0  0  0  0  0  0  0  0
  -31.1570  -16.0480   18.8110 C   0  0  0  0  0  1  0  0  0  0  0  0
  -30.3320  -15.8110   20.0190 N   0  0  0  0  0  0  0  0  0  0  0  0
  -25.2820  -13.8050   20.7960 C   0  0  0  0  0  0  0  0  0  0  0  0
  -24.2020  -13.0160   21.0730 C   0  0  0  0  0  0  0  0  0  0  0  0
  -24.6880  -11.6730   21.0710 C   0  0  0  0  0  0  0  0  0  0  0  0
  -26.3510  -12.9420   20.6120 N   0  0  0  0  0  0  0  0  0  0  0  0
  -25.9950  -11.6550   20.8500 N   0  0  0  0  0  0  0  0  0  0  0  0
  -23.9730  -10.4000   21.2190 C   0  0  0  0  0  0  0  0  0  0  0  0
  -24.3690   -9.4390   22.1770 C   0  0  0  0  0  3  0  0  0  0  0  0
  -23.6540   -8.2310   22.3120 C   0  0  0  0  0  3  0  0  0  0  0  0
  -22.5290   -7.9770   21.4890 C   0  0  0  0  0  0  0  0  0  0  0  0
  -22.1550   -8.9270   20.5230 C   0  0  0  0  0  3  0  0  0  0  0  0
  -22.8710  -10.1280   20.3860 C   0  0  0  0  0  3  0  0  0  0  0  0
  -21.7910   -6.8210   21.5350 O   0  0  0  0  0  0  0  0  0  0  0  0
  -21.6980   -6.0690   22.6790 C   0  0  0  0  0  0  0  0  0  0  0  0
  -21.2040   -6.6070   23.8880 C   0  0  0  0  0  3  0  0  0  0  0  0
  -21.0590   -5.7820   25.0190 C   0  0  0  0  0  3  0  0  0  0  0  0
  -21.3980   -4.4170   24.9470 C   0  0  0  0  0  0  0  0  0  0  0  0
  -21.8860   -3.8780   23.7440 C   0  0  0  0  0  3  0  0  0  0  0  0
  -22.0330   -4.7010   22.6140 C   0  0  0  0  0  0  0  0  0  0  0  0
  -22.4820   -4.1700   21.4500 F   0  0  0  0  0  0  0  0  0  0  0  0
  -21.2520   -3.6210   26.0310 F   0  0  0  0  0  0  0  0  0  0  0  0
  -22.7820  -13.4710   21.2550 C   0  0  0  0  0  0  0  0  0  0  0  0
  -22.0090  -12.7690   22.0730 N   0  0  0  0  0  0  0  0  0  0  0  0
  -22.3620  -14.4890   20.7040 O   0  0  0  0  0  0  0  0  0  0  0  0
  -22.3540  -11.9430   22.5420 H   0  0  0  0  0  0  0  0  0  0  0  0
  -21.0580  -13.0650   22.2390 H   0  0  0  0  0  0  0  0  0  0  0  0
  -25.4390  -15.1810   20.6750 N   0  0  0  0  0  0  0  0  0  0  0  0
  -24.6850  -15.8410   20.8140 H   0  0  0  0  0  0  0  0  0  0  0  0
  -26.3400  -15.6260   20.5580 H   0  0  0  0  0  0  0  0  0  0  0  0
  -27.4710  -16.2430   18.8940 C   0  0  0  0  0  1  0  0  0  0  0  0
  -28.7550  -18.2170   18.0660 C   0  0  0  0  0  1  0  0  0  0  0  0
  -28.3710  -17.4070   19.3340 C   0  0  0  0  0  3  0  0  0  0  0  0
  -28.4540  -25.3070   19.2590 C   0  0  0  0  0  2  0  0  0  0  0  0
  -28.3350  -26.5320   20.0730 O   0  0  0  0  0  0  0  0  0  0  0  0
  -24.6370  -31.8790   23.1810 C   0  0  0  0  0  0  0  0  0  0  0  0
  -27.1890  -27.3460   20.0310 C   0  0  0  0  0  0  0  0  0  0  0  0
  -23.3960  -30.4860   21.5650 C   0  0  0  0  0  3  0  0  0  0  0  0
  -24.8110  -28.9440   20.0960 C   0  0  0  0  0  0  0  0  0  0  0  0
  -25.9280  -30.8120   21.3190 C   0  0  0  0  0  2  0  0  0  0  0  0
  -25.9920  -29.4370   20.6640 C   0  0  0  0  0  0  0  0  0  0  0  0
  -27.1790  -28.6480   20.6260 C   0  0  0  0  0  3  0  0  0  0  0  0
  -25.9720  -26.8920   19.4700 C   0  0  0  0  0  3  0  0  0  0  0  0
  -24.8020  -27.6770   19.4920 C   0  0  0  0  0  3  0  0  0  0  0  0
  -23.5700  -29.8110   20.1800 C   0  0  0  0  0  2  0  0  0  0  0  0
  -24.6740  -31.0760   22.0780 N   0  0  0  0  0  0  0  0  0  0  0  0
  -23.5670  -32.1530   23.7440 O   0  0  0  0  0  0  0  0  0  0  0  0
  -22.7580  -29.4670   22.5370 C   0  0  0  0  0  0  0  0  0  0  0  0
  -21.4300  -29.2860   22.4370 N   0  0  0  0  0  0  0  0  0  0  0  0
  -23.4530  -28.8390   23.3390 O   0  0  0  0  0  0  0  0  0  0  0  0
  -20.9240  -29.8500   21.7680 H   0  0  0  0  0  0  0  0  0  0  0  0
  -18.0770  -28.0460   22.9760 C   0  0  0  0  0  0  0  0  0  0  0  0
  -20.6330  -28.3420   23.2230 C   0  0  0  0  0  3  0  0  0  0  0  0
  -20.7500  -26.9090   22.6540 C   0  0  0  0  0  2  0  0  0  0  0  0
  -19.6440  -26.5750   21.6460 C   0  0  0  0  0  2  0  0  0  0  0  0
  -18.2680  -26.6970   22.3040 C   0  0  0  0  0  2  0  0  0  0  0  0
  -19.1870  -28.8260   23.3930 C   0  0  0  0  0  0  0  0  0  0  0  0
  -18.9560  -30.0900   23.9780 C   0  0  0  0  0  3  0  0  0  0  0  0
  -17.6450  -30.5760   24.1450 C   0  0  0  0  0  3  0  0  0  0  0  0
  -16.5470  -29.7920   23.7480 C   0  0  0  0  0  3  0  0  0  0  0  0
  -16.7650  -28.5280   23.1710 C   0  0  0  0  0  3  0  0  0  0  0  0
  -25.9340  -32.5080   23.7760 C   0  0  0  0  0  3  0  0  0  0  0  0
  -25.6200  -33.8920   24.1570 N   0  0  0  0  0  0  0  0  0  0  0  0
  -25.9280  -34.9720   23.4260 C   0  0  0  0  0  0  0  0  0  0  0  0
  -26.5770  -34.9060   22.3780 O   0  0  0  0  0  0  0  0  0  0  0  0
  -25.0440  -34.0160   24.9760 H   0  0  0  0  0  0  0  0  0  0  0  0
  -24.1830  -36.7630   23.1630 C   0  0  0  0  0  1  0  0  0  0  0  0
  -25.4400  -36.3400   23.9380 C   0  0  0  0  0  3  0  0  0  0  0  0
  -27.5820  -37.2110   24.7600 C   0  0  0  0  0  1  0  0  0  0  0  0
  -26.4630  -37.4040   23.8430 N   0  0  0  0  0  0  0  0  0  0  0  0
  -26.0540  -38.3140   24.0290 H   0  0  0  0  0  0  0  0  0  0  0  0
  -26.5050  -31.7090   25.0130 C   0  0  1  0  0  0  0  0  0  0  0  0
  -25.4550  -31.4300   26.1130 C   0  0  0  0  0  1  0  0  0  0  0  0
  -27.0850  -30.3470   24.5640 C   0  0  0  0  0  1  0  0  0  0  0  0
  -27.6740  -32.4940   25.6520 C   0  0  0  0  0  1  0  0  0  0  0  0
  2  5  2  0
  3  1  2  0
  4  6  2  0
  4  2  1  0
  5  1  1  0
  5  7  1  0
  6  3  1  0
  9  7  1  0
  9  8  1  0
 10 51  1  0
 10  9  1  0
 11 18  2  0
 12 17  1  0
 13 14  1  0
 13 12  1  0
 15 14  1  0
 15 24  1  0
 15 16  1  0
 17 11  1  0
 17 16  1  0
 19 20  1  0
 20 10  1  0
 20 11  1  0
 21 22  2  0
 22 41  1  0
 23 22  1  0
 23 26  1  0
 24 21  1  0
 24 25  1  0
 25 23  2  0
 26 27  1  0
 27 28  2  0
 29 32  1  0
 29 28  1  0
 30 29  2  0
 31 30  1  0
 31 26  2  0
 32 33  1  0
 33 34  1  0
 34 35  2  0
 36 35  1  0
 36 40  1  0
 37 36  2  0
 38 33  2  0
 38 37  1  0
 39 38  1  0
 41 42  1  0
 42 45  1  0
 42 44  1  0
 43 41  2  0
 46 21  1  0
 46 47  1  0
 48 46  1  0
 49 51  1  0
 50 51  1  0
 52  6  1  0
 52 53  1  0
 54 65  2  0
 55 53  1  0
 55 60  1  0
 56 64  1  0
 56 66  1  0
 57 63  1  0
 57 59  1  0
 58 64  1  0
 59 58  1  0
 60 59  2  0
 61 62  1  0
 61 55  2  0
 62 57  2  0
 63 56  1  0
 64 54  1  0
 66 68  2  0
 67 66  1  0
 69 67  1  0
 70 79  2  0
 70 75  1  0
 71 67  1  0
 71 75  1  0
 72 71  1  0
 73 74  1  0
 73 72  1  0
 74 70  1  0
 75 76  2  0
 76 77  1  0
 78 77  2  0
 79 78  1  0
 80 54  1  0
 80 81  1  0
 80 90  1  0
 81 84  1  0
 82 86  1  0
 82 81  1  0
 83 82  2  0
 86 85  1  0
 88 86  1  0
 88 89  1  0
 88 87  1  0
 90 93  1  1
 90 91  1  0
 92 90  1  0
M  ISO  4  11 100  20 100  52 101  53 101
M  END
>  <TORSDO>  (20) 
F 21

>  <SCORE>  (20) 
-13.278

>  <name>  (20) 
19

>  <ligand_id>  (20) 
19

>  <original_smiles>  (20) 
[H]c1c([H])c([H])c2c(c1[H])C([H])([H])C([H])([H])C([H])([H])C2([H])N([H])C(=O)C1([H])N(C(=O)C([H])(N([H])C(=O)C([H])(N([H])C([H])([H])[H])C([H])([H])[H])C(C([H])([H])[H])(C([H])([H])[H])C([H])([H])[H])C([H])([H])c2c([H])c(OC([H])([H])c3c([H])c([H])c(C([H])([H])C([H])(C([H])([H])[H])C([H])(N(C(=O)N4C([H])([H])C([H])([H])C([H])([H])C([H])(n5nc(-c6c([H])c([H])c(Oc7c([H])c([H])c(F)c([H])c7F)c([H])c6[H])c(C(=O)N([H])[H])c5N([H])[H])C4([H])[H])C([H])([H])[H])C([H])(C([H])([H])[H])C([H])([H])[H])c([H])c3[H])c([H])c([H])c2C1([H])[H]

>  <smiles>  (20) 
[H]c1c([H])c([H])c2c(c1[H])C([H])([H])C([H])([H])C([H])([H])C2([H])N([H])C(=O)C1([H])N(C(=O)C([H])(N([H])C(=O)C([H])(N([H])C([H])([H])[H])C([H])([H])[H])C(C([H])([H])[H])(C([H])([H])[H])C([H])([H])[H])C([H])([H])c2c([H])c(OC([H])([H])c3c([H])c([H])c(C([H])([H])C([H])(C([H])([H])[H])C([H])(N(C(=O)N4C([H])([H])C([H])([H])C([H])([H])C([H])(n5nc(-c6c([H])c([H])c(Oc7c([H])c([H])c(F)c([H])c7F)c([H])c6[H])c(C(=O)N([H])[H])c5N([H])[H])C4([H])[H])C([H])([H])[H])C([H])(C([H])([H])[H])C([H])([H])[H])c([H])c3[H])c([H])c([H])c2C1([H])[H]

$$$$
20:0:0
     RDKit          3D

 97105  0  0  1  0  0  0  0  0999 V2000
  -31.2700  -19.4870   19.3020 C   0  0  0  0  0  3  0  0  0  0  0  0
  -29.4170  -19.3770   20.5020 C   0  0  0  0  0  3  0  0  0  0  0  0
  -30.2320  -20.2910   19.8890 C   0  0  0  0  0  0  0  0  0  0  0  0
  -31.1330  -18.1560   19.6560 C   0  0  0  0  0  0  0  0  0  0  0  0
  -29.9500  -18.0960   20.3930 N   0  0  0  0  0  0  0  0  0  0  0  0
  -27.8930  -16.7600   20.6000 C   0  0  0  0  0  1  0  0  0  0  0  0
  -29.5100  -16.9790   22.5540 C   0  0  0  0  0  1  0  0  0  0  0  0
  -29.3570  -16.9180   21.0250 C   0  0  0  0  0  3  0  0  0  0  0  0
  -30.0890  -21.8340   19.8780 C   0  0  0  0  0  3  0  0  0  0  0  0
  -30.1050  -22.3360   18.5580 O   0  0  0  0  0  0  0  0  0  0  0  0
  -29.3840  -21.9250   18.0920 H   0  0  0  0  0  0  0  0  0  0  0  0
  -28.8290  -22.4050   20.6190 C   0  0  0  0  0  2  0  0  0  0  0  0
  -27.5860  -24.1370   22.0020 C   0  0  0  0  0  1  0  0  0  0  0  0
  -28.7450  -23.9370   21.0010 C   0  0  0  0  0  3  0  0  0  0  0  0
  -28.5870  -24.9490   19.8170 C   0  0  0  0  0  2  0  0  0  0  0  0
  -28.5700  -26.3610   20.2090 O   0  0  0  0  0  0  0  0  0  0  0  0
  -24.7520  -31.6130   23.2360 C   0  0  0  0  0  0  0  0  0  0  0  0
  -27.3990  -27.1170   20.1760 C   0  0  0  0  0  0  0  0  0  0  0  0
  -23.5640  -30.2320   21.5690 C   0  0  0  0  0  3  0  0  0  0  0  0
  -25.0250  -28.6930   20.1560 C   0  0  0  0  0  0  0  0  0  0  0  0
  -26.1010  -30.5580   21.4180 C   0  0  0  0  0  2  0  0  0  0  0  0
  -26.1840  -29.1860   20.7690 C   0  0  0  0  0  0  0  0  0  0  0  0
  -27.3710  -28.4090   20.7690 C   0  0  0  0  0  3  0  0  0  0  0  0
  -26.2140  -26.6600   19.5470 C   0  0  0  0  0  3  0  0  0  0  0  0
  -25.0400  -27.4320   19.5440 C   0  0  0  0  0  3  0  0  0  0  0  0
  -23.7900  -29.5660   20.1870 C   0  0  0  0  0  2  0  0  0  0  0  0
  -24.8230  -30.8190   22.1310 N   0  0  0  0  0  0  0  0  0  0  0  0
  -23.6620  -31.8900   23.7580 O   0  0  0  0  0  0  0  0  0  0  0  0
  -22.8890  -29.2070   22.5110 C   0  0  0  0  0  0  0  0  0  0  0  0
  -21.5680  -29.0200   22.3470 N   0  0  0  0  0  0  0  0  0  0  0  0
  -23.5500  -28.5860   23.3470 O   0  0  0  0  0  0  0  0  0  0  0  0
  -21.0940  -29.5810   21.6530 H   0  0  0  0  0  0  0  0  0  0  0  0
  -18.1800  -27.8340   22.7710 C   0  0  0  0  0  0  0  0  0  0  0  0
  -20.7340  -28.0750   23.0900 C   0  0  0  0  0  3  0  0  0  0  0  0
  -20.8390  -26.6500   22.4960 C   0  0  0  0  0  2  0  0  0  0  0  0
  -19.7540  -26.3480   21.4590 C   0  0  0  0  0  2  0  0  0  0  0  0
  -18.3630  -26.4900   22.0840 C   0  0  0  0  0  2  0  0  0  0  0  0
  -19.2950  -28.5860   23.2290 C   0  0  0  0  0  0  0  0  0  0  0  0
  -19.0710  -29.8450   23.8260 C   0  0  0  0  0  3  0  0  0  0  0  0
  -17.7650  -30.3490   23.9780 C   0  0  0  0  0  3  0  0  0  0  0  0
  -16.6660  -29.5930   23.5360 C   0  0  0  0  0  3  0  0  0  0  0  0
  -16.8740  -28.3380   22.9370 C   0  0  0  0  0  3  0  0  0  0  0  0
  -26.0300  -32.2350   23.8800 C   0  0  0  0  0  3  0  0  0  0  0  0
  -25.7280  -33.6350   24.2010 N   0  0  0  0  0  0  0  0  0  0  0  0
  -26.0780  -34.6850   23.4440 C   0  0  0  0  0  0  0  0  0  0  0  0
  -26.7580  -34.5730   22.4210 O   0  0  0  0  0  0  0  0  0  0  0  0
  -25.1310  -33.7980   24.9990 H   0  0  0  0  0  0  0  0  0  0  0  0
  -24.3640  -36.4870   23.0670 C   0  0  0  0  0  1  0  0  0  0  0  0
  -25.5960  -36.0780   23.8920 C   0  0  0  0  0  3  0  0  0  0  0  0
  -27.7220  -36.9590   24.7460 C   0  0  0  0  0  1  0  0  0  0  0  0
  -26.6350  -37.1240   23.7840 N   0  0  0  0  0  0  0  0  0  0  0  0
  -26.2330  -38.0480   23.9150 H   0  0  0  0  0  0  0  0  0  0  0  0
  -26.5140  -31.4620   25.1680 C   0  0  1  0  0  0  0  0  0  0  0  0
  -25.3910  -31.2030   26.2000 C   0  0  0  0  0  1  0  0  0  0  0  0
  -27.1270  -30.0930   24.7860 C   0  0  0  0  0  1  0  0  0  0  0  0
  -27.6340  -32.2660   25.8710 C   0  0  0  0  0  1  0  0  0  0  0  0
  -32.0820  -16.9480   19.4970 C   0  0  0  0  0  0  0  0  0  0  0  0
  -31.9440  -14.4060   18.9440 C   0  0  0  0  0  0  0  0  0  0  0  0
  -31.5170  -12.0010   18.5010 C   0  0  0  0  0  2  0  0  0  0  0  0
  -30.4210  -11.8350   17.4310 C   0  0  0  0  0  2  0  0  0  0  0  0
  -29.0280  -11.8160   18.0860 C   0  0  0  0  0  2  0  0  0  0  0  0
  -28.8280  -12.9810   19.0930 C   0  0  0  0  0  3  0  0  0  0  0  0
  -30.0360  -13.1330   20.0470 C   0  0  0  0  0  2  0  0  0  0  0  0
  -31.2530  -13.2590   19.2290 N   0  0  0  0  0  0  0  0  0  0  0  0
  -32.9540  -14.3640   18.2400 O   0  0  0  0  0  0  0  0  0  0  0  0
  -31.4490  -15.5880   19.4050 N   0  0  0  0  0  4  0  0  0  0  0  0
  -30.5630  -15.5050   19.8780 H   0  0  0  0  0  0  0  0  0  0  0  0
  -26.7560  -13.8290   20.3500 C   0  0  0  0  0  0  0  0  0  0  0  0
  -25.6670  -13.1860   20.8700 C   0  0  0  0  0  0  0  0  0  0  0  0
  -25.8650  -11.7960   20.5990 C   0  0  0  0  0  0  0  0  0  0  0  0
  -27.5700  -12.8410   19.8210 N   0  0  0  0  0  0  0  0  0  0  0  0
  -27.0450  -11.6030   20.0240 N   0  0  0  0  0  0  0  0  0  0  0  0
  -24.9740  -10.6470   20.8070 C   0  0  0  0  0  0  0  0  0  0  0  0
  -25.3100   -9.6030   21.6970 C   0  0  0  0  0  3  0  0  0  0  0  0
  -24.4270   -8.5220   21.8990 C   0  0  0  0  0  3  0  0  0  0  0  0
  -23.1920   -8.4750   21.2080 C   0  0  0  0  0  0  0  0  0  0  0  0
  -22.8720   -9.5050   20.3070 C   0  0  0  0  0  3  0  0  0  0  0  0
  -23.7540  -10.5790   20.1030 C   0  0  0  0  0  3  0  0  0  0  0  0
  -22.2840   -7.4500   21.3210 O   0  0  0  0  0  0  0  0  0  0  0  0
  -22.0420   -6.8310   22.5200 C   0  0  0  0  0  0  0  0  0  0  0  0
  -21.5380   -7.5360   23.6350 C   0  0  0  0  0  3  0  0  0  0  0  0
  -21.2380   -6.8470   24.8280 C   0  0  0  0  0  3  0  0  0  0  0  0
  -21.4320   -5.4540   24.9050 C   0  0  0  0  0  0  0  0  0  0  0  0
  -21.9280   -4.7500   23.7940 C   0  0  0  0  0  3  0  0  0  0  0  0
  -22.2300   -5.4370   22.6050 C   0  0  0  0  0  0  0  0  0  0  0  0
  -22.6890   -4.7490   21.5300 F   0  0  0  0  0  0  0  0  0  0  0  0
  -21.1370   -4.7910   26.0480 F   0  0  0  0  0  0  0  0  0  0  0  0
  -24.4580  -13.8300   21.4840 C   0  0  0  0  0  0  0  0  0  0  0  0
  -23.8130  -13.1510   22.4260 N   0  0  0  0  0  0  0  0  0  0  0  0
  -24.1040  -14.9640   21.1630 O   0  0  0  0  0  0  0  0  0  0  0  0
  -24.1150  -12.2290   22.7090 H   0  0  0  0  0  0  0  0  0  0  0  0
  -23.0080  -13.5600   22.8770 H   0  0  0  0  0  0  0  0  0  0  0  0
  -27.1060  -15.1710   20.2600 N   0  0  0  0  0  0  0  0  0  0  0  0
  -26.4760  -15.9040   20.5620 H   0  0  0  0  0  0  0  0  0  0  0  0
  -27.9130  -15.5200   19.7580 H   0  0  0  0  0  0  0  0  0  0  0  0
  -33.7820  -18.6700   18.5340 C   0  0  0  0  0  1  0  0  0  0  0  0
  -33.2310  -17.2320   18.4900 C   0  0  0  0  0  2  0  0  0  0  0  0
  1  4  2  0
  1  3  1  0
  3  2  2  0
  4  5  1  0
  5  2  1  0
  5  8  1  0
  6  8  1  0
  8  7  1  0
  9  3  1  0
  9 12  1  0
 10  9  1  0
 11 10  1  0
 12 14  1  0
 14 13  1  0
 15 16  1  0
 15 14  1  0
 17 28  2  0
 18 16  1  0
 18 23  1  0
 19 27  1  0
 19 29  1  0
 20 26  1  0
 20 22  1  0
 21 27  1  0
 22 23  2  0
 22 21  1  0
 24 18  2  0
 25 24  1  0
 25 20  2  0
 26 19  1  0
 27 17  1  0
 29 31  2  0
 30 29  1  0
 32 30  1  0
 33 42  2  0
 33 38  1  0
 34 30  1  0
 34 38  1  0
 35 34  1  0
 36 37  1  0
 36 35  1  0
 37 33  1  0
 38 39  2  0
 39 40  1  0
 41 40  2  0
 42 41  1  0
 43 17  1  0
 43 44  1  0
 43 53  1  0
 44 47  1  0
 45 49  1  0
 45 44  1  0
 46 45  2  0
 49 48  1  0
 51 49  1  0
 51 52  1  0
 51 50  1  0
 53 56  1  1
 53 54  1  0
 55 53  1  0
 57  4  1  0
 58 64  1  0
 58 66  1  0
 59 64  1  0
 60 61  1  0
 60 59  1  0
 62 61  1  0
 62 71  1  0
 62 63  1  0
 64 63  1  0
 65 58  2  0
 66 57  2  0
 66 67  1  0
 68 69  2  0
 69 88  1  0
 70 73  1  0
 70 69  1  0
 71 72  1  0
 71 68  1  0
 72 70  2  0
 73 74  1  0
 74 75  2  0
 76 79  1  0
 76 75  1  0
 77 76  2  0
 78 77  1  0
 78 73  2  0
 79 80  1  0
 80 85  2  0
 80 81  1  0
 81 82  2  0
 82 83  1  0
 83 87  1  0
 84 83  2  0
 85 84  1  0
 86 85  1  0
 88 89  1  0
 89 91  1  0
 89 92  1  0
 90 88  2  0
 93 68  1  0
 93 94  1  0
 95 93  1  0
 97 96  1  0
 97 57  1  0
M  ISO  4  15 101  16 101  58 100  66 100
M  END
>  <TORSDO>  (21) 
F 24

>  <SCORE>  (21) 
-9.200

>  <name>  (21) 
20

>  <ligand_id>  (21) 
20

>  <original_smiles>  (21) 
[H]OC([H])(c1c([H])c(C([H])(N([H])C(=O)N2C([H])([H])C([H])([H])C([H])([H])C([H])(n3nc(-c4c([H])c([H])c(Oc5c([H])c([H])c(F)c([H])c5F)c([H])c4[H])c(C(=O)N([H])[H])c3N([H])[H])C2([H])[H])C([H])([H])C([H])([H])[H])n(C([H])(C([H])([H])[H])C([H])([H])[H])c1[H])C([H])([H])C([H])(C([H])([H])[H])C([H])([H])Oc1c([H])c([H])c2c(c1[H])C([H])([H])N(C(=O)C([H])(N([H])C(=O)C([H])(N([H])C([H])([H])[H])C([H])([H])[H])C(C([H])([H])[H])(C([H])([H])[H])C([H])([H])[H])C([H])(C(=O)N([H])C1([H])c3c([H])c([H])c([H])c([H])c3C([H])([H])C([H])([H])C1([H])[H])C2([H])[H]

>  <smiles>  (21) 
[H]OC([H])(c1c([H])c(C([H])(N([H])C(=O)N2C([H])([H])C([H])([H])C([H])([H])C([H])(n3nc(-c4c([H])c([H])c(Oc5c([H])c([H])c(F)c([H])c5F)c([H])c4[H])c(C(=O)N([H])[H])c3N([H])[H])C2([H])[H])C([H])([H])C([H])([H])[H])n(C([H])(C([H])([H])[H])C([H])([H])[H])c1[H])C([H])([H])C([H])(C([H])([H])[H])C([H])([H])Oc1c([H])c([H])c2c(c1[H])C([H])([H])N(C(=O)C([H])(N([H])C(=O)C([H])(N([H])C([H])([H])[H])C([H])([H])[H])C(C([H])([H])[H])(C([H])([H])[H])C([H])([H])[H])C([H])(C(=O)N([H])C1([H])c3c([H])c([H])c([H])c([H])c3C([H])([H])C([H])([H])C1([H])[H])C2([H])[H]

$$$$
22:0:0
     RDKit          3D

 93101  0  0  1  0  0  0  0  0999 V2000
  -28.8790  -20.4260   20.0430 C   0  0  0  0  0  3  0  0  0  0  0  0
  -31.3440  -18.0440   19.2490 C   0  0  0  0  0  2  0  0  0  0  0  0
  -32.0450  -18.7200   20.4310 C   0  0  0  0  0  2  0  0  0  0  0  0
  -29.9940  -17.6300   19.8490 C   0  0  0  0  0  3  0  0  0  0  0  0
  -29.6760  -19.0750   20.6790 C   0  0  0  0  0  3  0  0  0  0  0  0
  -31.0170  -19.5550   21.0720 N   0  0  0  0  0  4  0  0  0  0  0  0
  -31.1200  -20.5050   20.7510 H   0  0  0  0  0  0  0  0  0  0  0  0
  -31.1320  -19.5550   22.0730 H   0  0  0  0  0  0  0  0  0  0  0  0
  -30.7220  -14.9510   20.0350 C   0  0  0  0  0  0  0  0  0  0  0  0
  -30.4690  -12.6590   18.9590 C   0  0  0  0  0  2  0  0  0  0  0  0
  -29.4770  -12.6870   17.7740 C   0  0  0  0  0  2  0  0  0  0  0  0
  -28.0350  -12.4830   18.2730 C   0  0  0  0  0  2  0  0  0  0  0  0
  -27.7130  -13.3520   19.5150 C   0  0  0  0  0  3  0  0  0  0  0  0
  -28.8200  -13.2840   20.5810 C   0  0  0  0  0  2  0  0  0  0  0  0
  -30.0710  -13.7160   19.9410 N   0  0  0  0  0  0  0  0  0  0  0  0
  -31.8600  -14.9940   19.5550 O   0  0  0  0  0  0  0  0  0  0  0  0
  -29.6930  -16.1810   21.8910 C   0  0  0  0  0  1  0  0  0  0  0  0
  -30.0610  -16.1530   20.4710 N   0  0  0  0  0  0  0  0  0  0  0  0
  -25.3780  -13.9150   20.3930 C   0  0  0  0  0  0  0  0  0  0  0  0
  -24.3370  -13.1270   20.8040 C   0  0  0  0  0  0  0  0  0  0  0  0
  -24.8030  -11.7790   20.7240 C   0  0  0  0  0  0  0  0  0  0  0  0
  -26.4060  -13.0430   20.0750 N   0  0  0  0  0  0  0  0  0  0  0  0
  -26.0740  -11.7530   20.3410 N   0  0  0  0  0  0  0  0  0  0  0  0
  -24.0920  -10.5110   20.9310 C   0  0  0  0  0  0  0  0  0  0  0  0
  -24.5410   -9.5610   21.8740 C   0  0  0  0  0  3  0  0  0  0  0  0
  -23.8310   -8.3570   22.0710 C   0  0  0  0  0  3  0  0  0  0  0  0
  -22.6590   -8.0950   21.3230 C   0  0  0  0  0  0  0  0  0  0  0  0
  -22.2280   -9.0350   20.3700 C   0  0  0  0  0  3  0  0  0  0  0  0
  -22.9390  -10.2310   20.1730 C   0  0  0  0  0  3  0  0  0  0  0  0
  -21.9210   -6.9410   21.4230 O   0  0  0  0  0  0  0  0  0  0  0  0
  -21.8290   -6.2450   22.6020 C   0  0  0  0  0  0  0  0  0  0  0  0
  -21.3300   -6.8410   23.7810 C   0  0  0  0  0  3  0  0  0  0  0  0
  -21.1860   -6.0730   24.9530 C   0  0  0  0  0  3  0  0  0  0  0  0
  -21.5330   -4.7080   24.9470 C   0  0  0  0  0  0  0  0  0  0  0  0
  -22.0240   -4.1110   23.7730 C   0  0  0  0  0  3  0  0  0  0  0  0
  -22.1680   -4.8760   22.6030 C   0  0  0  0  0  0  0  0  0  0  0  0
  -22.6220   -4.2920   21.4680 F   0  0  0  0  0  0  0  0  0  0  0  0
  -21.3880   -3.9670   26.0690 F   0  0  0  0  0  0  0  0  0  0  0  0
  -22.9560  -13.5970   21.1570 C   0  0  0  0  0  0  0  0  0  0  0  0
  -22.2810  -12.8850   22.0520 N   0  0  0  0  0  0  0  0  0  0  0  0
  -22.4890  -14.6290   20.6780 O   0  0  0  0  0  0  0  0  0  0  0  0
  -22.6760  -12.0500   22.4560 H   0  0  0  0  0  0  0  0  0  0  0  0
  -21.3580  -13.1810   22.3330 H   0  0  0  0  0  0  0  0  0  0  0  0
  -25.5320  -15.2870   20.2400 N   0  0  0  0  0  0  0  0  0  0  0  0
  -24.7750  -15.9380   20.4210 H   0  0  0  0  0  0  0  0  0  0  0  0
  -26.3690  -15.7380   19.8900 H   0  0  0  0  0  0  0  0  0  0  0  0
  -27.4890  -20.2070   20.2050 O   0  0  0  0  0  0  0  0  0  0  0  0
  -27.2340  -19.4950   19.6240 H   0  0  0  0  0  0  0  0  0  0  0  0
  -29.1400  -22.0320   20.4970 C   0  0  0  0  0  2  0  0  0  0  0  0
  -27.2890  -23.5380   21.6150 C   0  0  0  0  0  1  0  0  0  0  0  0
  -28.1030  -23.3460   20.3250 C   0  0  0  0  0  3  0  0  0  0  0  0
  -28.5060  -24.8600   19.7240 C   0  0  0  0  0  2  0  0  0  0  0  0
  -28.3610  -26.2750   20.3200 O   0  0  0  0  0  0  0  0  0  0  0  0
  -24.6480  -31.8720   23.1840 C   0  0  0  0  0  0  0  0  0  0  0  0
  -27.2700  -27.1910   20.1790 C   0  0  0  0  0  0  0  0  0  0  0  0
  -23.4610  -30.4580   21.5460 C   0  0  0  0  0  3  0  0  0  0  0  0
  -24.9240  -28.8880   20.1260 C   0  0  0  0  0  0  0  0  0  0  0  0
  -26.0080  -30.7470   21.3890 C   0  0  0  0  0  2  0  0  0  0  0  0
  -26.0910  -29.3560   20.7420 C   0  0  0  0  0  0  0  0  0  0  0  0
  -27.2610  -28.5180   20.7570 C   0  0  0  0  0  3  0  0  0  0  0  0
  -26.0810  -26.8060   19.5250 C   0  0  0  0  0  3  0  0  0  0  0  0
  -24.9300  -27.6280   19.5020 C   0  0  0  0  0  3  0  0  0  0  0  0
  -23.6890  -29.7740   20.1690 C   0  0  0  0  0  2  0  0  0  0  0  0
  -24.7250  -31.0490   22.0950 N   0  0  0  0  0  0  0  0  0  0  0  0
  -23.5590  -32.1510   23.7080 O   0  0  0  0  0  0  0  0  0  0  0  0
  -22.7890  -29.4510   22.5100 C   0  0  0  0  0  0  0  0  0  0  0  0
  -21.4600  -29.2850   22.3920 N   0  0  0  0  0  0  0  0  0  0  0  0
  -23.4670  -28.8240   23.3310 O   0  0  0  0  0  0  0  0  0  0  0  0
  -20.9720  -29.8480   21.7090 H   0  0  0  0  0  0  0  0  0  0  0  0
  -18.0740  -28.1050   22.9280 C   0  0  0  0  0  0  0  0  0  0  0  0
  -20.6390  -28.3490   23.1660 C   0  0  0  0  0  3  0  0  0  0  0  0
  -20.7220  -26.9190   22.5830 C   0  0  0  0  0  2  0  0  0  0  0  0
  -19.6060  -26.6080   21.5800 C   0  0  0  0  0  2  0  0  0  0  0  0
  -18.2340  -26.7580   22.2410 C   0  0  0  0  0  2  0  0  0  0  0  0
  -19.2040  -28.8580   23.3480 C   0  0  0  0  0  0  0  0  0  0  0  0
  -18.9990  -30.1170   23.9530 C   0  0  0  0  0  3  0  0  0  0  0  0
  -17.7000  -30.6250   24.1410 C   0  0  0  0  0  3  0  0  0  0  0  0
  -16.5850  -29.8690   23.7360 C   0  0  0  0  0  3  0  0  0  0  0  0
  -16.7740  -28.6120   23.1360 C   0  0  0  0  0  3  0  0  0  0  0  0
  -25.9210  -32.5170   23.8140 C   0  0  0  0  0  3  0  0  0  0  0  0
  -25.5920  -33.9110   24.1480 N   0  0  0  0  0  0  0  0  0  0  0  0
  -25.9190  -34.9750   23.4000 C   0  0  0  0  0  0  0  0  0  0  0  0
  -26.5940  -34.8850   22.3720 O   0  0  0  0  0  0  0  0  0  0  0  0
  -24.9830  -34.0490   24.9420 H   0  0  0  0  0  0  0  0  0  0  0  0
  -24.1830  -36.7660   23.0530 C   0  0  0  0  0  1  0  0  0  0  0  0
  -25.4240  -36.3580   23.8670 C   0  0  0  0  0  3  0  0  0  0  0  0
  -27.5520  -37.2500   24.7180 C   0  0  0  0  0  1  0  0  0  0  0  0
  -26.4520  -37.4180   23.7690 N   0  0  0  0  0  0  0  0  0  0  0  0
  -26.0410  -38.3360   23.9170 H   0  0  0  0  0  0  0  0  0  0  0  0
  -26.4410  -31.7520   25.0940 C   0  0  1  0  0  0  0  0  0  0  0  0
  -25.3440  -31.5010   26.1570 C   0  0  0  0  0  1  0  0  0  0  0  0
  -27.0440  -30.3810   24.7110 C   0  0  0  0  0  1  0  0  0  0  0  0
  -27.5800  -32.5590   25.7550 C   0  0  0  0  0  1  0  0  0  0  0  0
  1 47  1  0
  1 49  1  0
  2  4  1  0
  2  3  1  0
  3  6  1  0
  4 18  1  0
  4  5  1  0
  5  1  1  0
  5  6  1  0
  6  8  1  0
  7  6  1  0
  9 18  1  0
 10 15  1  0
 11 12  1  0
 11 10  1  0
 13 12  1  0
 13 22  1  0
 13 14  1  0
 15  9  1  0
 15 14  1  0
 16  9  2  0
 18 17  1  0
 19 20  2  0
 20 39  1  0
 21 20  1  0
 21 24  1  0
 22 23  1  0
 22 19  1  0
 23 21  2  0
 24 25  1  0
 25 26  2  0
 27 30  1  0
 27 26  1  0
 28 27  2  0
 29 28  1  0
 29 24  2  0
 30 31  1  0
 31 36  2  0
 31 32  1  0
 32 33  2  0
 34 33  1  0
 34 38  1  0
 35 34  2  0
 36 35  1  0
 37 36  1  0
 39 40  1  0
 40 43  1  0
 40 42  1  0
 41 39  2  0
 44 19  1  0
 44 45  1  0
 46 44  1  0
 48 47  1  0
 51 49  1  0
 51 50  1  0
 52 53  1  0
 52 51  1  0
 54 65  2  0
 55 53  1  0
 55 60  1  0
 56 64  1  0
 56 66  1  0
 57 63  1  0
 57 59  1  0
 58 64  1  0
 59 60  2  0
 59 58  1  0
 61 55  2  0
 62 61  1  0
 62 57  2  0
 63 56  1  0
 64 54  1  0
 66 68  2  0
 67 66  1  0
 69 67  1  0
 70 79  2  0
 70 75  1  0
 71 67  1  0
 71 75  1  0
 72 71  1  0
 73 74  1  0
 73 72  1  0
 74 70  1  0
 75 76  2  0
 76 77  1  0
 78 77  2  0
 79 78  1  0
 80 54  1  0
 80 81  1  0
 80 90  1  0
 81 84  1  0
 82 86  1  0
 82 81  1  0
 83 82  2  0
 86 85  1  0
 88 86  1  0
 88 89  1  0
 88 87  1  0
 90 93  1  1
 90 91  1  0
 92 90  1  0
M  ISO  4   9 100  18 100  52 101  53 101
M  END
>  <TORSDO>  (22) 
F 21

>  <SCORE>  (22) 
-13.411

>  <name>  (22) 
22

>  <ligand_id>  (22) 
22

>  <original_smiles>  (22) 
[H]OC([H])(C([H])([H])C([H])(C([H])([H])[H])C([H])([H])Oc1c([H])c([H])c2c(c1[H])C([H])([H])N(C(=O)C([H])(N([H])C(=O)C([H])(N([H])C([H])([H])[H])C([H])([H])[H])C(C([H])([H])[H])(C([H])([H])[H])C([H])([H])[H])C([H])(C(=O)N([H])C1([H])c3c([H])c([H])c([H])c([H])c3C([H])([H])C([H])([H])C1([H])[H])C2([H])[H])C1([H])C([H])(N(C(=O)N2C([H])([H])C([H])([H])C([H])([H])C([H])(n3nc(-c4c([H])c([H])c(Oc5c([H])c([H])c(F)c([H])c5F)c([H])c4[H])c(C(=O)N([H])[H])c3N([H])[H])C2([H])[H])C([H])([H])[H])C([H])([H])C([H])([H])[N+]1([H])[H]

>  <smiles>  (22) 
[H]OC([H])(C([H])([H])C([H])(C([H])([H])[H])C([H])([H])Oc1c([H])c([H])c2c(c1[H])C([H])([H])N(C(=O)C([H])(N([H])C(=O)C([H])(N([H])C([H])([H])[H])C([H])([H])[H])C(C([H])([H])[H])(C([H])([H])[H])C([H])([H])[H])C([H])(C(=O)N([H])C1([H])c3c([H])c([H])c([H])c([H])c3C([H])([H])C([H])([H])C1([H])[H])C2([H])[H])C1([H])C([H])(N(C(=O)N2C([H])([H])C([H])([H])C([H])([H])C([H])(n3nc(-c4c([H])c([H])c(Oc5c([H])c([H])c(F)c([H])c5F)c([H])c4[H])c(C(=O)N([H])[H])c3N([H])[H])C2([H])[H])C([H])([H])[H])C([H])([H])C([H])([H])[N+]1([H])[H]

$$$$
23:0:0
     RDKit          3D

 96104  0  0  1  0  0  0  0  0999 V2000
  -31.7730  -18.3610   21.1180 C   0  0  0  0  0  2  0  0  0  0  0  0
  -30.6030  -20.7730   21.7430 C   0  0  0  0  0  2  0  0  0  0  0  0
  -31.7380  -18.1160   22.6410 C   0  0  0  0  0  2  0  0  0  0  0  0
  -30.5890  -20.2780   23.1950 C   0  0  0  0  0  2  0  0  0  0  0  0
  -30.4000  -18.6250   20.4390 C   0  0  0  0  0  3  0  0  0  0  0  0
  -29.7800  -20.0010   20.7820 N   0  0  0  0  0  0  0  0  0  0  0  0
  -30.6170  -18.8020   23.3420 N   0  0  2  0  0  4  0  0  0  0  0  0
  -29.7950  -18.5060   22.8360 H   0  0  0  0  0  0  0  0  0  0  0  0
  -28.9980  -18.5910   25.2410 C   0  0  0  0  0  1  0  0  0  0  0  0
  -31.4690  -18.9210   25.7350 C   0  0  0  0  0  1  0  0  0  0  0  0
  -30.4330  -18.3350   24.7500 C   0  0  0  0  0  3  0  0  0  0  0  0
  -29.4380  -17.3290   20.5280 C   0  0  0  0  0  2  0  0  0  0  0  0
  -30.5740  -14.8530   20.3230 C   0  0  0  0  0  0  0  0  0  0  0  0
  -30.4470  -12.5410   19.3680 C   0  0  0  0  0  2  0  0  0  0  0  0
  -29.4980  -12.5470   18.1460 C   0  0  0  0  0  2  0  0  0  0  0  0
  -28.0330  -12.3470   18.5880 C   0  0  0  0  0  2  0  0  0  0  0  0
  -27.6440  -13.2810   19.7630 C   0  0  0  0  0  3  0  0  0  0  0  0
  -28.7020  -13.2260   20.8910 C   0  0  0  0  0  2  0  0  0  0  0  0
  -30.0070  -13.5980   20.3120 N   0  0  0  0  0  0  0  0  0  0  0  0
  -31.6650  -15.0510   19.7850 O   0  0  0  0  0  0  0  0  0  0  0  0
  -29.8140  -15.8760   20.8580 N   0  0  0  0  0  0  0  0  0  0  0  0
  -29.0810  -15.4570   21.4130 H   0  0  0  0  0  0  0  0  0  0  0  0
  -25.2720  -13.8820   20.5500 C   0  0  0  0  0  0  0  0  0  0  0  0
  -24.2030  -13.1110   20.9130 C   0  0  0  0  0  0  0  0  0  0  0  0
  -24.6480  -11.7550   20.8230 C   0  0  0  0  0  0  0  0  0  0  0  0
  -26.3010  -12.9980   20.2610 N   0  0  0  0  0  0  0  0  0  0  0  0
  -25.9310  -11.7120   20.4870 N   0  0  0  0  0  0  0  0  0  0  0  0
  -23.9090  -10.4960   20.9830 C   0  0  0  0  0  0  0  0  0  0  0  0
  -24.3540   -9.4860   21.8650 C   0  0  0  0  0  3  0  0  0  0  0  0
  -23.6180   -8.2890   22.0140 C   0  0  0  0  0  3  0  0  0  0  0  0
  -22.4230   -8.0960   21.2830 C   0  0  0  0  0  0  0  0  0  0  0  0
  -21.9960   -9.0940   20.3930 C   0  0  0  0  0  3  0  0  0  0  0  0
  -22.7320  -10.2810   20.2400 C   0  0  0  0  0  3  0  0  0  0  0  0
  -21.6560   -6.9560   21.3460 O   0  0  0  0  0  0  0  0  0  0  0  0
  -21.6430   -6.1590   22.4610 C   0  0  0  0  0  0  0  0  0  0  0  0
  -21.2780   -6.6580   23.7310 C   0  0  0  0  0  3  0  0  0  0  0  0
  -21.2120   -5.7870   24.8380 C   0  0  0  0  0  3  0  0  0  0  0  0
  -21.5000   -4.4180   24.6750 C   0  0  0  0  0  0  0  0  0  0  0  0
  -21.8600   -3.9200   23.4100 C   0  0  0  0  0  3  0  0  0  0  0  0
  -21.9290   -4.7880   22.3070 C   0  0  0  0  0  0  0  0  0  0  0  0
  -22.2570   -4.3000   21.0860 F   0  0  0  0  0  0  0  0  0  0  0  0
  -21.4280   -3.5790   25.7350 F   0  0  0  0  0  0  0  0  0  0  0  0
  -22.8180  -13.5960   21.2300 C   0  0  0  0  0  0  0  0  0  0  0  0
  -22.0990  -12.8860   22.0940 N   0  0  0  0  0  0  0  0  0  0  0  0
  -22.3810  -14.6400   20.7490 O   0  0  0  0  0  0  0  0  0  0  0  0
  -22.4670  -12.0450   22.5130 H   0  0  0  0  0  0  0  0  0  0  0  0
  -21.1690  -13.1880   22.3390 H   0  0  0  0  0  0  0  0  0  0  0  0
  -25.4480  -15.2550   20.4190 N   0  0  0  0  0  0  0  0  0  0  0  0
  -24.6810  -15.9040   20.5690 H   0  0  0  0  0  0  0  0  0  0  0  0
  -26.2880  -15.7030   20.0770 H   0  0  0  0  0  0  0  0  0  0  0  0
  -29.5540  -21.0130   19.6680 C   0  0  0  0  0  2  0  0  0  0  0  0
  -28.5580  -22.2890   19.9080 C   0  0  0  0  0  2  0  0  0  0  0  0
  -30.3010  -24.1970   19.8920 C   0  0  0  0  0  1  0  0  0  0  0  0
  -28.9000  -23.7970   19.4060 C   0  0  0  0  0  3  0  0  0  0  0  0
  -27.8560  -24.9800   19.7780 C   0  0  0  0  0  2  0  0  0  0  0  0
  -28.1210  -26.4280   19.4650 O   0  0  0  0  0  0  0  0  0  0  0  0
  -24.7240  -31.5990   23.2760 C   0  0  0  0  0  0  0  0  0  0  0  0
  -27.0580  -27.3530   19.5790 C   0  0  0  0  0  0  0  0  0  0  0  0
  -23.4300  -30.5020   21.4830 C   0  0  0  0  0  3  0  0  0  0  0  0
  -24.7820  -29.0890   19.8310 C   0  0  0  0  0  0  0  0  0  0  0  0
  -25.9830  -30.7090   21.3000 C   0  0  0  0  0  2  0  0  0  0  0  0
  -25.9840  -29.4270   20.4670 C   0  0  0  0  0  0  0  0  0  0  0  0
  -27.1250  -28.5750   20.3290 C   0  0  0  0  0  3  0  0  0  0  0  0
  -25.8390  -27.0920   18.9120 C   0  0  0  0  0  3  0  0  0  0  0  0
  -24.7140  -27.9280   19.0470 C   0  0  0  0  0  3  0  0  0  0  0  0
  -23.5940  -30.0120   20.0210 C   0  0  0  0  0  2  0  0  0  0  0  0
  -24.7330  -30.9450   22.0780 N   0  0  0  0  0  0  0  0  0  0  0  0
  -23.6620  -31.8540   23.8640 O   0  0  0  0  0  0  0  0  0  0  0  0
  -22.7260  -29.3980   22.3080 C   0  0  0  0  0  0  0  0  0  0  0  0
  -21.3900  -29.3070   22.1850 N   0  0  0  0  0  0  0  0  0  0  0  0
  -23.3810  -28.6330   23.0220 O   0  0  0  0  0  0  0  0  0  0  0  0
  -20.9230  -29.9750   21.5860 H   0  0  0  0  0  0  0  0  0  0  0  0
  -17.9630  -28.2140   22.5760 C   0  0  0  0  0  0  0  0  0  0  0  0
  -20.5340  -28.3140   22.8350 C   0  0  0  0  0  3  0  0  0  0  0  0
  -20.5600  -26.9710   22.0710 C   0  0  0  0  0  2  0  0  0  0  0  0
  -19.4330  -26.8390   21.0410 C   0  0  0  0  0  2  0  0  0  0  0  0
  -18.0660  -26.9630   21.7200 C   0  0  0  0  0  2  0  0  0  0  0  0
  -19.1220  -28.8570   23.0860 C   0  0  0  0  0  0  0  0  0  0  0  0
  -18.9720  -30.0360   23.8480 C   0  0  0  0  0  3  0  0  0  0  0  0
  -17.6950  -30.5710   24.1030 C   0  0  0  0  0  3  0  0  0  0  0  0
  -16.5510  -29.9220   23.6080 C   0  0  0  0  0  3  0  0  0  0  0  0
  -16.6850  -28.7450   22.8500 C   0  0  0  0  0  3  0  0  0  0  0  0
  -26.0440  -32.0770   23.9540 C   0  0  0  0  0  3  0  0  0  0  0  0
  -25.8100  -33.4300   24.4800 N   0  0  0  0  0  0  0  0  0  0  0  0
  -26.1970  -34.5600   23.8760 C   0  0  0  0  0  0  0  0  0  0  0  0
  -26.8560  -34.5690   22.8330 O   0  0  0  0  0  0  0  0  0  0  0  0
  -25.2260  -33.5000   25.3010 H   0  0  0  0  0  0  0  0  0  0  0  0
  -24.5630  -36.4720   23.8020 C   0  0  0  0  0  1  0  0  0  0  0  0
  -25.7860  -35.8930   24.5300 C   0  0  0  0  0  3  0  0  0  0  0  0
  -27.9700  -36.5430   25.4480 C   0  0  0  0  0  1  0  0  0  0  0  0
  -26.8720  -36.8970   24.5520 N   0  0  0  0  0  0  0  0  0  0  0  0
  -26.5160  -37.8070   24.8300 H   0  0  0  0  0  0  0  0  0  0  0  0
  -26.5350  -31.1140   25.1040 C   0  0  1  0  0  0  0  0  0  0  0  0
  -25.4460  -30.7990   26.1570 C   0  0  0  0  0  1  0  0  0  0  0  0
  -27.0310  -29.7680   24.5220 C   0  0  0  0  0  1  0  0  0  0  0  0
  -27.7400  -31.7470   25.8390 C   0  0  0  0  0  1  0  0  0  0  0  0
  1  3  1  0
  2  4  1  0
  3  7  1  0
  4  7  1  0
  5 12  1  0
  5  6  1  0
  5  1  1  0
  6  2  1  0
  7 11  1  0
  7  8  1  6
 11  9  1  0
 11 10  1  0
 12 21  1  0
 13 21  1  0
 14 19  1  0
 15 16  1  0
 15 14  1  0
 17 16  1  0
 17 26  1  0
 17 18  1  0
 19 13  1  0
 19 18  1  0
 20 13  2  0
 21 22  1  0
 23 24  2  0
 24 43  1  0
 25 24  1  0
 25 28  1  0
 26 27  1  0
 26 23  1  0
 27 25  2  0
 28 29  1  0
 29 30  2  0
 31 34  1  0
 31 30  1  0
 32 31  2  0
 33 32  1  0
 33 28  2  0
 34 35  1  0
 35 36  1  0
 36 37  2  0
 38 37  1  0
 38 42  1  0
 39 38  2  0
 40 35  2  0
 40 39  1  0
 41 40  1  0
 43 44  1  0
 44 47  1  0
 44 46  1  0
 45 43  2  0
 48 23  1  0
 48 49  1  0
 50 48  1  0
 51 52  1  0
 51  6  1  0
 54 55  1  0
 54 53  1  0
 54 52  1  0
 56 58  1  0
 56 55  1  0
 57 68  2  0
 58 63  1  0
 59 67  1  0
 59 69  1  0
 60 66  1  0
 60 62  1  0
 61 67  1  0
 62 61  1  0
 63 62  2  0
 64 65  1  0
 64 58  2  0
 65 60  2  0
 66 59  1  0
 67 57  1  0
 69 71  2  0
 70 69  1  0
 72 70  1  0
 73 82  2  0
 73 78  1  0
 74 70  1  0
 74 78  1  0
 75 74  1  0
 76 77  1  0
 76 75  1  0
 77 73  1  0
 78 79  2  0
 79 80  1  0
 81 80  2  0
 82 81  1  0
 83 57  1  0
 83 84  1  0
 83 93  1  0
 84 87  1  0
 85 84  1  0
 85 89  1  0
 86 85  2  0
 89 88  1  0
 89 91  1  0
 91 92  1  0
 91 90  1  0
 93 96  1  1
 93 94  1  0
 95 93  1  0
M  ISO  4  13 100  21 100  55 101  56 101
M  END
>  <TORSDO>  (23) 
F 22

>  <SCORE>  (23) 
-3.424

>  <name>  (23) 
23

>  <ligand_id>  (23) 
23

>  <original_smiles>  (23) 
[H]c1c([H])c([H])c2c(c1[H])C([H])([H])C([H])([H])C([H])([H])C2([H])N([H])C(=O)C1([H])N(C(=O)C([H])(N([H])C(=O)C([H])(N([H])C([H])([H])[H])C([H])([H])[H])C(C([H])([H])[H])(C([H])([H])[H])C([H])([H])[H])C([H])([H])c2c([H])c(OC([H])([H])C([H])(C([H])([H])[H])C([H])([H])C([H])([H])N3C([H])([H])C([H])([H])[N+]([H])(C([H])(C([H])([H])[H])C([H])([H])[H])C([H])([H])C([H])([H])C3([H])C([H])([H])N([H])C(=O)N3C([H])([H])C([H])([H])C([H])([H])C([H])(n4nc(-c5c([H])c([H])c(Oc6c([H])c([H])c(F)c([H])c6F)c([H])c5[H])c(C(=O)N([H])[H])c4N([H])[H])C3([H])[H])c([H])c([H])c2C1([H])[H]

>  <smiles>  (23) 
[H]c1c([H])c([H])c2c(c1[H])C([H])([H])C([H])([H])C([H])([H])C2([H])N([H])C(=O)C1([H])N(C(=O)C([H])(N([H])C(=O)C([H])(N([H])C([H])([H])[H])C([H])([H])[H])C(C([H])([H])[H])(C([H])([H])[H])C([H])([H])[H])C([H])([H])c2c([H])c(OC([H])([H])C([H])(C([H])([H])[H])C([H])([H])C([H])([H])N3C([H])([H])C([H])([H])[N+]([H])(C([H])(C([H])([H])[H])C([H])([H])[H])C([H])([H])C([H])([H])C3([H])C([H])([H])N([H])C(=O)N3C([H])([H])C([H])([H])C([H])([H])C([H])(n4nc(-c5c([H])c([H])c(Oc6c([H])c([H])c(F)c([H])c6F)c([H])c5[H])c(C(=O)N([H])[H])c4N([H])[H])C3([H])[H])c([H])c([H])c2C1([H])[H]

$$$$
24:0:0
     RDKit          3D

 98106  0  0  1  0  0  0  0  0999 V2000
  -27.9670  -18.7230   19.9010 C   0  0  0  0  0  0  0  0  0  0  0  0
  -28.6820  -17.8860   20.6670 N   0  0  0  0  0  0  0  0  0  0  0  0
  -27.5610  -18.4120   18.7810 O   0  0  0  0  0  0  0  0  0  0  0  0
  -28.9610  -18.2350   21.5760 H   0  0  0  0  0  0  0  0  0  0  0  0
  -27.6320  -20.0940   20.4950 C   0  0  0  0  0  2  0  0  0  0  0  0
  -28.7120  -21.1800   20.2710 C   0  0  0  0  0  2  0  0  0  0  0  0
  -28.3600  -22.1860   19.2390 N   0  0  0  0  0  4  0  0  0  0  0  0
  -27.3740  -22.3760   19.3160 H   0  0  0  0  0  0  0  0  0  0  0  0
  -28.5300  -21.8150   18.3160 H   0  0  0  0  0  0  0  0  0  0  0  0
  -29.0930  -23.4680   19.3880 C   0  0  0  0  0  2  0  0  0  0  0  0
  -28.4810  -24.6050   18.5480 C   0  0  0  0  0  2  0  0  0  0  0  0
  -29.0340  -25.9950   18.9340 C   0  0  0  0  0  2  0  0  0  0  0  0
  -28.6150  -27.0230   18.0340 O   0  0  0  0  0  0  0  0  0  0  0  0
  -24.5540  -30.7340   22.5500 C   0  0  0  0  0  0  0  0  0  0  0  0
  -27.3830  -27.5570   18.3130 C   0  0  0  0  0  0  0  0  0  0  0  0
  -23.3670  -29.6340   20.6780 C   0  0  0  0  0  3  0  0  0  0  0  0
  -24.8490  -28.6780   18.8380 C   0  0  0  0  0  0  0  0  0  0  0  0
  -25.8110  -30.3450   20.4360 C   0  0  0  0  0  2  0  0  0  0  0  0
  -25.9870  -29.1890   19.4770 C   0  0  0  0  0  0  0  0  0  0  0  0
  -27.2570  -28.6320   19.2180 C   0  0  0  0  0  3  0  0  0  0  0  0
  -26.2360  -27.0620   17.6630 C   0  0  0  0  0  3  0  0  0  0  0  0
  -24.9670  -27.6090   17.9300 C   0  0  0  0  0  3  0  0  0  0  0  0
  -23.5280  -29.3370   19.1640 C   0  0  0  0  0  2  0  0  0  0  0  0
  -24.5990  -30.2410   21.2810 N   0  0  0  0  0  0  0  0  0  0  0  0
  -23.5010  -30.7300   23.2010 O   0  0  0  0  0  0  0  0  0  0  0  0
  -22.9130  -28.3370   21.3880 C   0  0  0  0  0  0  0  0  0  0  0  0
  -21.6160  -28.0110   21.2650 N   0  0  0  0  0  0  0  0  0  0  0  0
  -23.7210  -27.6370   22.0030 O   0  0  0  0  0  0  0  0  0  0  0  0
  -21.0170  -28.6420   20.7510 H   0  0  0  0  0  0  0  0  0  0  0  0
  -18.4690  -26.2550   21.5130 C   0  0  0  0  0  0  0  0  0  0  0  0
  -20.9740  -26.8180   21.8150 C   0  0  0  0  0  3  0  0  0  0  0  0
  -21.2530  -25.5780   20.9350 C   0  0  0  0  0  2  0  0  0  0  0  0
  -20.1670  -25.3260   19.8840 C   0  0  0  0  0  2  0  0  0  0  0  0
  -18.8060  -25.1250   20.5550 C   0  0  0  0  0  2  0  0  0  0  0  0
  -19.4850  -27.0600   22.0930 C   0  0  0  0  0  0  0  0  0  0  0  0
  -19.1160  -28.1190   22.9490 C   0  0  0  0  0  3  0  0  0  0  0  0
  -17.7610  -28.3760   23.2320 C   0  0  0  0  0  3  0  0  0  0  0  0
  -16.7600  -27.5670   22.6690 C   0  0  0  0  0  3  0  0  0  0  0  0
  -17.1150  -26.5080   21.8150 C   0  0  0  0  0  3  0  0  0  0  0  0
  -25.8160  -31.3490   23.2340 C   0  0  0  0  0  3  0  0  0  0  0  0
  -25.4030  -32.6100   23.8630 N   0  0  0  0  0  0  0  0  0  0  0  0
  -25.6320  -33.8260   23.3490 C   0  0  0  0  0  0  0  0  0  0  0  0
  -26.2860  -34.0060   22.3180 O   0  0  0  0  0  0  0  0  0  0  0  0
  -24.8210  -32.5380   24.6840 H   0  0  0  0  0  0  0  0  0  0  0  0
  -23.7670  -35.5120   23.3930 C   0  0  0  0  0  1  0  0  0  0  0  0
  -25.0450  -35.0370   24.1020 C   0  0  0  0  0  3  0  0  0  0  0  0
  -27.1120  -35.8800   25.1220 C   0  0  0  0  0  1  0  0  0  0  0  0
  -25.9910  -36.1660   24.2310 N   0  0  0  0  0  0  0  0  0  0  0  0
  -25.5160  -36.9970   24.5740 H   0  0  0  0  0  0  0  0  0  0  0  0
  -26.4820  -30.3880   24.2930 C   0  0  1  0  0  0  0  0  0  0  0  0
  -25.4890  -29.8360   25.3430 C   0  0  0  0  0  1  0  0  0  0  0  0
  -27.1470  -29.1800   23.5930 C   0  0  0  0  0  1  0  0  0  0  0  0
  -27.6040  -31.1380   25.0480 C   0  0  0  0  0  1  0  0  0  0  0  0
  -28.8990  -16.4550   20.4490 C   0  0  0  0  0  2  0  0  0  0  0  0
  -31.1640  -13.9680   19.0890 C   0  0  0  0  0  0  0  0  0  0  0  0
  -30.7720  -11.6030   18.5110 C   0  0  0  0  0  2  0  0  0  0  0  0
  -29.6890  -11.4670   17.4270 C   0  0  0  0  0  2  0  0  0  0  0  0
  -28.2840  -11.4290   18.0580 C   0  0  0  0  0  2  0  0  0  0  0  0
  -28.0560  -12.5750   19.0800 C   0  0  0  0  0  3  0  0  0  0  0  0
  -29.2380  -12.6660   20.0740 C   0  0  0  0  0  2  0  0  0  0  0  0
  -30.4840  -12.8100   19.3010 N   0  0  0  0  0  0  0  0  0  0  0  0
  -32.0830  -14.0780   18.2720 O   0  0  0  0  0  0  0  0  0  0  0  0
  -31.9140  -15.4900   20.7960 C   0  0  0  0  0  2  0  0  0  0  0  0
  -32.7520  -16.6070   20.1380 C   0  0  0  0  0  2  0  0  0  0  0  0
  -30.8060  -17.2040   18.7480 C   0  0  0  0  0  2  0  0  0  0  0  0
  -29.9680  -16.0620   19.3870 C   0  0  0  0  0  3  0  0  0  0  0  0
  -32.6730  -18.7820   18.9850 C   0  0  0  0  0  1  0  0  0  0  0  0
  -30.8520  -14.9950   19.9040 N   0  0  0  0  0  0  0  0  0  0  0  0
  -31.8920  -17.7000   19.6280 N   0  0  2  0  0  4  0  0  0  0  0  0
  -31.4500  -18.1180   20.4330 H   0  0  0  0  0  0  0  0  0  0  0  0
  -25.8930  -13.3900   20.2140 C   0  0  0  0  0  0  0  0  0  0  0  0
  -24.8210  -12.7150   20.7320 C   0  0  0  0  0  0  0  0  0  0  0  0
  -25.1090  -11.3260   20.5610 C   0  0  0  0  0  0  0  0  0  0  0  0
  -26.7780  -12.4200   19.7720 N   0  0  0  0  0  0  0  0  0  0  0  0
  -26.3170  -11.1700   20.0330 N   0  0  0  0  0  0  0  0  0  0  0  0
  -24.2830  -10.1400   20.8180 C   0  0  0  0  0  0  0  0  0  0  0  0
  -24.6530   -9.1780   21.7820 C   0  0  0  0  0  3  0  0  0  0  0  0
  -23.8330   -8.0540   22.0250 C   0  0  0  0  0  3  0  0  0  0  0  0
  -22.6270   -7.8870   21.3050 C   0  0  0  0  0  0  0  0  0  0  0  0
  -22.2740   -8.8360   20.3290 C   0  0  0  0  0  3  0  0  0  0  0  0
  -23.0940   -9.9500   20.0850 C   0  0  0  0  0  3  0  0  0  0  0  0
  -21.7820   -6.8150   21.4550 O   0  0  0  0  0  0  0  0  0  0  0  0
  -21.5880   -6.2160   22.6740 C   0  0  0  0  0  0  0  0  0  0  0  0
  -21.0550   -6.9220   23.7750 C   0  0  0  0  0  3  0  0  0  0  0  0
  -20.8100   -6.2500   24.9890 C   0  0  0  0  0  3  0  0  0  0  0  0
  -21.0850   -4.8740   25.1020 C   0  0  0  0  0  0  0  0  0  0  0  0
  -21.6100   -4.1690   24.0050 C   0  0  0  0  0  3  0  0  0  0  0  0
  -21.8580   -4.8380   22.7940 C   0  0  0  0  0  0  0  0  0  0  0  0
  -22.3450   -4.1500   21.7330 F   0  0  0  0  0  0  0  0  0  0  0  0
  -20.8420   -4.2260   26.2650 F   0  0  0  0  0  0  0  0  0  0  0  0
  -23.5550  -13.3200   21.2660 C   0  0  0  0  0  0  0  0  0  0  0  0
  -22.9300  -12.6740   22.2430 N   0  0  0  0  0  0  0  0  0  0  0  0
  -23.1380  -14.4010   20.8500 O   0  0  0  0  0  0  0  0  0  0  0  0
  -23.2820  -11.7990   22.6000 H   0  0  0  0  0  0  0  0  0  0  0  0
  -22.0890  -13.0660   22.6440 H   0  0  0  0  0  0  0  0  0  0  0  0
  -26.1770  -14.7450   20.0670 N   0  0  0  0  0  0  0  0  0  0  0  0
  -25.4950  -15.4540   20.3090 H   0  0  0  0  0  0  0  0  0  0  0  0
  -26.9920  -15.1260   19.6030 H   0  0  0  0  0  0  0  0  0  0  0  0
  1  5  1  0
  1  2  1  0
  2  4  1  0
  3  1  2  0
  6  5  1  0
  7  8  1  0
  7 10  1  0
  7  6  1  0
  9  7  1  0
 11 12  1  0
 11 10  1  0
 13 15  1  0
 13 12  1  0
 14 25  2  0
 15 20  1  0
 16 24  1  0
 16 26  1  0
 17 23  1  0
 17 19  1  0
 18 24  1  0
 19 18  1  0
 20 19  2  0
 21 22  1  0
 21 15  2  0
 22 17  2  0
 23 16  1  0
 24 14  1  0
 26 28  2  0
 27 26  1  0
 29 27  1  0
 30 39  2  0
 30 35  1  0
 31 27  1  0
 31 35  1  0
 32 31  1  0
 33 34  1  0
 33 32  1  0
 34 30  1  0
 35 36  2  0
 36 37  1  0
 38 37  2  0
 39 38  1  0
 40 14  1  0
 40 41  1  0
 40 50  1  0
 41 44  1  0
 42 41  1  0
 42 46  1  0
 43 42  2  0
 46 45  1  0
 46 48  1  0
 48 49  1  0
 48 47  1  0
 50 53  1  1
 50 51  1  0
 52 50  1  0
 54  2  1  0
 55 61  1  0
 55 68  1  0
 56 61  1  0
 57 58  1  0
 57 56  1  0
 59 58  1  0
 59 74  1  0
 59 60  1  0
 61 60  1  0
 62 55  2  0
 64 63  1  0
 65 66  1  0
 65 69  1  0
 66 68  1  0
 66 54  1  0
 67 69  1  0
 68 63  1  0
 69 64  1  0
 69 70  1  1
 71 72  2  0
 72 91  1  0
 73 72  1  0
 73 76  1  0
 74 75  1  0
 74 71  1  0
 75 73  2  0
 76 77  1  0
 77 78  2  0
 79 82  1  0
 79 78  1  0
 80 79  2  0
 81 80  1  0
 81 76  2  0
 82 83  1  0
 83 88  2  0
 83 84  1  0
 84 85  2  0
 85 86  1  0
 86 90  1  0
 87 86  2  0
 88 87  1  0
 89 88  1  0
 91 92  1  0
 92 94  1  0
 92 95  1  0
 93 91  2  0
 96 71  1  0
 96 97  1  0
 98 96  1  0
M  ISO  4  12 101  13 101  55 100  68 100
M  END
>  <TORSDO>  (24) 
F 23

>  <SCORE>  (24) 
-7.994

>  <name>  (24) 
24

>  <ligand_id>  (24) 
24

>  <original_smiles>  (24) 
[H]c1c([H])c([H])c2c(c1[H])C([H])([H])C([H])([H])C([H])([H])C2([H])N([H])C(=O)C1([H])N(C(=O)C([H])(N([H])C(=O)C([H])(N([H])C([H])([H])[H])C([H])([H])[H])C(C([H])([H])[H])(C([H])([H])[H])C([H])([H])[H])C([H])([H])c2c([H])c(OC([H])([H])C([H])([H])C([H])([H])[N+]([H])([H])C([H])([H])C([H])([H])C(=O)N([H])C([H])([H])C3([H])N(C(=O)N4C([H])([H])C([H])([H])C([H])([H])C([H])(n5nc(-c6c([H])c([H])c(Oc7c([H])c([H])c(F)c([H])c7F)c([H])c6[H])c(C(=O)N([H])[H])c5N([H])[H])C4([H])[H])C([H])([H])C([H])([H])[N+]([H])(C([H])([H])[H])C3([H])[H])c([H])c([H])c2C1([H])[H]

>  <smiles>  (24) 
[H]c1c([H])c([H])c2c(c1[H])C([H])([H])C([H])([H])C([H])([H])C2([H])N([H])C(=O)C1([H])N(C(=O)C([H])(N([H])C(=O)C([H])(N([H])C([H])([H])[H])C([H])([H])[H])C(C([H])([H])[H])(C([H])([H])[H])C([H])([H])[H])C([H])([H])c2c([H])c(OC([H])([H])C([H])([H])C([H])([H])[N+]([H])([H])C([H])([H])C([H])([H])C(=O)N([H])C([H])([H])C3([H])N(C(=O)N4C([H])([H])C([H])([H])C([H])([H])C([H])(n5nc(-c6c([H])c([H])c(Oc7c([H])c([H])c(F)c([H])c7F)c([H])c6[H])c(C(=O)N([H])[H])c5N([H])[H])C4([H])[H])C([H])([H])C([H])([H])[N+]([H])(C([H])([H])[H])C3([H])[H])c([H])c([H])c2C1([H])[H]

$$$$
25:0:0
     RDKit          3D

 95103  0  0  1  0  0  0  0  0999 V2000
  -29.1450  -23.4980   21.2750 C   0  0  0  0  0  3  0  0  0  0  0  0
  -28.4400  -21.9970   19.5310 C   0  0  0  0  0  3  0  0  0  0  0  0
  -28.4900  -23.3460   20.0470 C   0  0  0  0  0  0  0  0  0  0  0  0
  -29.6520  -22.3650   21.9550 C   0  0  0  0  0  0  0  0  0  0  0  0
  -28.9460  -20.8740   20.2720 C   0  0  0  0  0  0  0  0  0  0  0  0
  -29.5210  -21.0890   21.4740 N   0  0  0  0  0  0  0  0  0  0  0  0
  -29.4600  -21.9270   24.4320 C   0  0  0  0  0  1  0  0  0  0  0  0
  -30.6110  -24.0070   23.6970 C   0  0  0  0  0  1  0  0  0  0  0  0
  -31.7150  -21.8090   23.2750 C   0  0  0  0  0  1  0  0  0  0  0  0
  -30.3480  -22.5240   23.3220 C   0  0  2  0  0  0  0  0  0  0  0  0
  -26.1960  -24.1690   19.8130 C   0  0  0  0  0  1  0  0  0  0  0  0
  -27.6630  -24.5500   19.4490 C   0  0  0  0  0  3  0  0  0  0  0  0
  -28.0280  -25.9760   19.8210 O   0  0  0  0  0  0  0  0  0  0  0  0
  -24.5340  -31.4080   23.0720 C   0  0  0  0  0  0  0  0  0  0  0  0
  -27.0390  -26.9800   19.7140 C   0  0  0  0  0  0  0  0  0  0  0  0
  -23.3120  -30.1380   21.3440 C   0  0  0  0  0  3  0  0  0  0  0  0
  -24.7480  -28.7010   19.7790 C   0  0  0  0  0  0  0  0  0  0  0  0
  -25.8600  -30.4080   21.2020 C   0  0  0  0  0  2  0  0  0  0  0  0
  -25.9150  -29.0800   20.4550 C   0  0  0  0  0  0  0  0  0  0  0  0
  -27.0620  -28.2240   20.4300 C   0  0  0  0  0  3  0  0  0  0  0  0
  -25.9040  -26.7520   18.9050 C   0  0  0  0  0  3  0  0  0  0  0  0
  -24.7580  -27.5600   18.9720 C   0  0  0  0  0  3  0  0  0  0  0  0
  -23.5160  -29.5740   19.9120 C   0  0  0  0  0  2  0  0  0  0  0  0
  -24.5870  -30.6660   21.9280 N   0  0  0  0  0  0  0  0  0  0  0  0
  -23.4530  -31.6740   23.6170 O   0  0  0  0  0  0  0  0  0  0  0  0
  -22.6330  -29.0690   22.2320 C   0  0  0  0  0  0  0  0  0  0  0  0
  -21.3010  -28.9350   22.1100 N   0  0  0  0  0  0  0  0  0  0  0  0
  -23.3010  -28.3680   22.9980 O   0  0  0  0  0  0  0  0  0  0  0  0
  -20.8190  -29.5570   21.4740 H   0  0  0  0  0  0  0  0  0  0  0  0
  -17.8860  -27.8540   22.6260 C   0  0  0  0  0  0  0  0  0  0  0  0
  -20.4620  -27.9680   22.8210 C   0  0  0  0  0  3  0  0  0  0  0  0
  -20.4720  -26.5940   22.1110 C   0  0  0  0  0  2  0  0  0  0  0  0
  -19.3200  -26.4210   21.1140 C   0  0  0  0  0  2  0  0  0  0  0  0
  -17.9710  -26.5700   21.8220 C   0  0  0  0  0  2  0  0  0  0  0  0
  -19.0550  -28.5200   23.0810 C   0  0  0  0  0  0  0  0  0  0  0  0
  -18.9170  -29.7310   23.7940 C   0  0  0  0  0  3  0  0  0  0  0  0
  -17.6430  -30.2720   24.0550 C   0  0  0  0  0  3  0  0  0  0  0  0
  -16.4900  -29.6000   23.6130 C   0  0  0  0  0  3  0  0  0  0  0  0
  -16.6140  -28.3930   22.9050 C   0  0  0  0  0  3  0  0  0  0  0  0
  -25.8240  -31.9770   23.7340 C   0  0  0  0  0  3  0  0  0  0  0  0
  -25.5630  -33.3830   24.0780 N   0  0  0  0  0  0  0  0  0  0  0  0
  -25.9220  -34.4320   23.3260 C   0  0  0  0  0  0  0  0  0  0  0  0
  -26.5760  -34.3160   22.2870 O   0  0  0  0  0  0  0  0  0  0  0  0
  -24.9780  -33.5510   24.8840 H   0  0  0  0  0  0  0  0  0  0  0  0
  -24.2360  -36.2750   23.0230 C   0  0  0  0  0  1  0  0  0  0  0  0
  -25.4850  -35.8290   23.8030 C   0  0  0  0  0  3  0  0  0  0  0  0
  -27.6570  -36.6560   24.5940 C   0  0  0  0  0  1  0  0  0  0  0  0
  -26.5410  -36.8550   23.6710 N   0  0  0  0  0  0  0  0  0  0  0  0
  -26.1620  -37.7840   23.8280 H   0  0  0  0  0  0  0  0  0  0  0  0
  -26.2770  -31.1660   25.0100 C   0  0  1  0  0  0  0  0  0  0  0  0
  -25.1460  -30.9540   26.0440 C   0  0  0  0  0  1  0  0  0  0  0  0
  -26.8150  -29.7710   24.6110 C   0  0  0  0  0  1  0  0  0  0  0  0
  -27.4370  -31.9050   25.7160 C   0  0  0  0  0  1  0  0  0  0  0  0
  -28.8620  -19.5200   19.7770 N   0  0  0  0  0  0  0  0  0  0  0  0
  -28.2690  -19.4210   18.9610 H   0  0  0  0  0  0  0  0  0  0  0  0
  -29.2170  -18.2170   20.4710 C   0  0  0  0  0  3  0  0  0  0  0  0
  -29.4670  -16.9190   19.5260 C   0  0  0  0  0  3  0  0  0  0  0  0
  -30.1540  -14.3740   19.5980 C   0  0  0  0  0  0  0  0  0  0  0  0
  -29.8650  -12.1180   18.5540 C   0  0  0  0  0  2  0  0  0  0  0  0
  -28.7670  -12.2130   17.4700 C   0  0  0  0  0  2  0  0  0  0  0  0
  -27.3720  -11.9970   18.0870 C   0  0  0  0  0  2  0  0  0  0  0  0
  -27.1560  -12.8260   19.3820 C   0  0  0  0  0  3  0  0  0  0  0  0
  -28.3600  -12.7260   20.3470 C   0  0  0  0  0  2  0  0  0  0  0  0
  -29.5600  -13.1280   19.6000 N   0  0  0  0  0  0  0  0  0  0  0  0
  -31.2360  -14.5330   19.0330 O   0  0  0  0  0  0  0  0  0  0  0  0
  -29.4180  -15.4720   20.0320 N   0  0  0  0  0  0  0  0  0  0  0  0
  -28.5680  -15.2300   20.5220 H   0  0  0  0  0  0  0  0  0  0  0  0
  -24.8650  -13.3310   20.4190 C   0  0  0  0  0  0  0  0  0  0  0  0
  -23.8770  -12.5210   20.9130 C   0  0  0  0  0  0  0  0  0  0  0  0
  -24.3660  -11.1860   20.7940 C   0  0  0  0  0  0  0  0  0  0  0  0
  -25.8920  -12.4860   20.0320 N   0  0  0  0  0  0  0  0  0  0  0  0
  -25.6060  -11.1870   20.3160 N   0  0  0  0  0  0  0  0  0  0  0  0
  -23.7020   -9.9010   21.0550 C   0  0  0  0  0  0  0  0  0  0  0  0
  -24.2280   -8.9680   21.9780 C   0  0  0  0  0  3  0  0  0  0  0  0
  -23.5570   -7.7500   22.2260 C   0  0  0  0  0  3  0  0  0  0  0  0
  -22.3480   -7.4560   21.5520 C   0  0  0  0  0  0  0  0  0  0  0  0
  -21.8420   -8.3740   20.6170 C   0  0  0  0  0  3  0  0  0  0  0  0
  -22.5130   -9.5830   20.3670 C   0  0  0  0  0  3  0  0  0  0  0  0
  -21.6430   -6.2870   21.7110 O   0  0  0  0  0  0  0  0  0  0  0  0
  -21.6500   -5.5990   22.8950 C   0  0  0  0  0  0  0  0  0  0  0  0
  -21.2020   -6.1840   24.0990 C   0  0  0  0  0  3  0  0  0  0  0  0
  -21.1590   -5.4180   25.2810 C   0  0  0  0  0  3  0  0  0  0  0  0
  -21.5570   -4.0680   25.2610 C   0  0  0  0  0  0  0  0  0  0  0  0
  -21.9970   -3.4810   24.0620 C   0  0  0  0  0  3  0  0  0  0  0  0
  -22.0370   -4.2430   22.8820 C   0  0  0  0  0  0  0  0  0  0  0  0
  -22.4470   -3.6670   21.7240 F   0  0  0  0  0  0  0  0  0  0  0  0
  -21.5090   -3.3310   26.3950 F   0  0  0  0  0  0  0  0  0  0  0  0
  -22.5160  -12.9570   21.3770 C   0  0  0  0  0  0  0  0  0  0  0  0
  -21.9330  -12.2240   22.3200 N   0  0  0  0  0  0  0  0  0  0  0  0
  -21.9900  -13.9820   20.9460 O   0  0  0  0  0  0  0  0  0  0  0  0
  -22.3820  -11.3970   22.6830 H   0  0  0  0  0  0  0  0  0  0  0  0
  -21.0290  -12.4910   22.6850 H   0  0  0  0  0  0  0  0  0  0  0  0
  -24.9660  -14.7060   20.2490 N   0  0  0  0  0  0  0  0  0  0  0  0
  -24.2050  -15.3400   20.4710 H   0  0  0  0  0  0  0  0  0  0  0  0
  -25.7530  -15.1720   19.8170 H   0  0  0  0  0  0  0  0  0  0  0  0
  1  4  1  0
  2  3  1  0
  2  5  2  0
  3  1  2  0
  4 10  1  0
  5  6  1  0
  6  4  2  0
 10  9  1  6
 10  8  1  0
 10  7  1  0
 12 11  1  0
 12 13  1  0
 12  3  1  0
 14 25  2  0
 15 13  1  0
 15 20  1  0
 16 24  1  0
 16 26  1  0
 17 23  1  0
 17 19  1  0
 18 24  1  0
 19 18  1  0
 20 19  2  0
 21 22  1  0
 21 15  2  0
 22 17  2  0
 23 16  1  0
 24 14  1  0
 26 28  2  0
 27 26  1  0
 29 27  1  0
 30 39  2  0
 30 35  1  0
 31 27  1  0
 31 35  1  0
 32 31  1  0
 33 34  1  0
 33 32  1  0
 34 30  1  0
 35 36  2  0
 36 37  1  0
 38 37  2  0
 39 38  1  0
 40 14  1  0
 40 41  1  0
 40 50  1  0
 41 44  1  0
 42 46  1  0
 42 41  1  0
 43 42  2  0
 46 45  1  0
 48 46  1  0
 48 49  1  0
 48 47  1  0
 50 53  1  1
 50 51  1  0
 52 50  1  0
 54  5  1  0
 54 56  1  0
 55 54  1  0
 57 66  1  0
 57 56  2  0
 58 64  1  0
 58 66  1  0
 59 64  1  0
 60 61  1  0
 60 59  1  0
 62 61  1  0
 62 71  1  0
 62 63  1  0
 64 63  1  0
 65 58  2  0
 66 67  1  0
 68 69  2  0
 69 88  1  0
 70 69  1  0
 70 73  1  0
 71 72  1  0
 71 68  1  0
 72 70  2  0
 73 74  1  0
 74 75  2  0
 76 79  1  0
 76 75  1  0
 77 76  2  0
 78 77  1  0
 78 73  2  0
 79 80  1  0
 80 81  1  0
 81 82  2  0
 83 82  1  0
 83 87  1  0
 84 83  2  0
 85 80  2  0
 85 84  1  0
 86 85  1  0
 88 89  1  0
 89 91  1  0
 89 92  1  0
 90 88  2  0
 93 68  1  0
 93 94  1  0
 95 93  1  0
M  ISO  4  12 101  13 101  58 100  66 100
M  END
>  <TORSDO>  (25) 
F 21

>  <SCORE>  (25) 
-9.886

>  <name>  (25) 
25

>  <ligand_id>  (25) 
25

>  <original_smiles>  (25) 
[H]c1c([H])c([H])c2c(c1[H])C([H])([H])C([H])([H])C([H])([H])C2([H])N([H])C(=O)C1([H])N(C(=O)C([H])(N([H])C(=O)C([H])(N([H])C([H])([H])[H])C([H])([H])[H])C(C([H])([H])[H])(C([H])([H])[H])C([H])([H])[H])C([H])([H])c2c([H])c(OC([H])(c3c([H])c(N([H])C([H])([H])C([H])([H])N([H])C(=O)N4C([H])([H])C([H])([H])C([H])([H])C([H])(n5nc(-c6c([H])c([H])c(Oc7c([H])c([H])c(F)c([H])c7F)c([H])c6[H])c(C(=O)N([H])[H])c5N([H])[H])C4([H])[H])nc(C(C([H])([H])[H])(C([H])([H])[H])C([H])([H])[H])c3[H])C([H])([H])[H])c([H])c([H])c2C1([H])[H]

>  <smiles>  (25) 
[H]c1c([H])c([H])c2c(c1[H])C([H])([H])C([H])([H])C([H])([H])C2([H])N([H])C(=O)C1([H])N(C(=O)C([H])(N([H])C(=O)C([H])(N([H])C([H])([H])[H])C([H])([H])[H])C(C([H])([H])[H])(C([H])([H])[H])C([H])([H])[H])C([H])([H])c2c([H])c(OC([H])(c3c([H])c(N([H])C([H])([H])C([H])([H])N([H])C(=O)N4C([H])([H])C([H])([H])C([H])([H])C([H])(n5nc(-c6c([H])c([H])c(Oc7c([H])c([H])c(F)c([H])c7F)c([H])c6[H])c(C(=O)N([H])[H])c5N([H])[H])C4([H])[H])nc(C(C([H])([H])[H])(C([H])([H])[H])C([H])([H])[H])c3[H])C([H])([H])[H])c([H])c([H])c2C1([H])[H]

$$$$
26:0:0
     RDKit          3D

 97105  0  0  1  0  0  0  0  0999 V2000
  -29.1900  -21.1050   19.4140 C   0  0  0  0  0  3  0  0  0  0  0  0
  -31.2850  -20.1170   20.5490 C   0  0  0  0  0  3  0  0  0  0  0  0
  -31.6110  -17.7410   20.9010 C   0  0  0  0  0  3  0  0  0  0  0  0
  -32.1040  -19.0550   20.9760 C   0  0  0  0  0  0  0  0  0  0  0  0
  -29.9840  -19.8570   20.0680 C   0  0  0  0  0  0  0  0  0  0  0  0
  -30.3220  -17.4450   20.4260 C   0  0  0  0  0  0  0  0  0  0  0  0
  -29.5250  -18.5310   20.0500 N   0  0  0  0  0  0  0  0  0  0  0  0
  -30.6720  -14.8440   20.2820 C   0  0  0  0  0  0  0  0  0  0  0  0
  -30.4540  -12.5420   19.3410 C   0  0  0  0  0  2  0  0  0  0  0  0
  -29.5300  -12.6140   18.1100 C   0  0  0  0  0  2  0  0  0  0  0  0
  -28.0530  -12.4600   18.5300 C   0  0  0  0  0  2  0  0  0  0  0  0
  -27.6760  -13.3400   19.7540 C   0  0  0  0  0  3  0  0  0  0  0  0
  -28.7420  -13.2720   20.8720 C   0  0  0  0  0  2  0  0  0  0  0  0
  -30.0330  -13.6210   20.2630 N   0  0  0  0  0  0  0  0  0  0  0  0
  -31.8600  -14.8850   19.9530 O   0  0  0  0  0  0  0  0  0  0  0  0
  -29.9190  -16.0090   20.4260 N   0  0  0  0  0  0  0  0  0  0  0  0
  -28.9280  -15.8580   20.5430 H   0  0  0  0  0  0  0  0  0  0  0  0
  -25.2910  -13.9090   20.5050 C   0  0  0  0  0  0  0  0  0  0  0  0
  -24.2310  -13.1310   20.8880 C   0  0  0  0  0  0  0  0  0  0  0  0
  -24.6990  -11.7810   20.8490 C   0  0  0  0  0  0  0  0  0  0  0  0
  -26.3360  -13.0370   20.2540 N   0  0  0  0  0  0  0  0  0  0  0  0
  -25.9880  -11.7510   20.5230 N   0  0  0  0  0  0  0  0  0  0  0  0
  -23.9770  -10.5170   21.0360 C   0  0  0  0  0  0  0  0  0  0  0  0
  -24.4170   -9.5450   21.9620 C   0  0  0  0  0  3  0  0  0  0  0  0
  -23.6920   -8.3460   22.1420 C   0  0  0  0  0  3  0  0  0  0  0  0
  -22.5150   -8.1100   21.3970 C   0  0  0  0  0  0  0  0  0  0  0  0
  -22.0930   -9.0720   20.4620 C   0  0  0  0  0  3  0  0  0  0  0  0
  -22.8190  -10.2600   20.2790 C   0  0  0  0  0  3  0  0  0  0  0  0
  -21.7600   -6.9650   21.4900 O   0  0  0  0  0  0  0  0  0  0  0  0
  -21.7120   -6.2210   22.6430 C   0  0  0  0  0  0  0  0  0  0  0  0
  -21.2750   -6.7720   23.8650 C   0  0  0  0  0  3  0  0  0  0  0  0
  -21.1790   -5.9540   25.0100 C   0  0  0  0  0  3  0  0  0  0  0  0
  -21.5070   -4.5870   24.9310 C   0  0  0  0  0  0  0  0  0  0  0  0
  -21.9370   -4.0380   23.7130 C   0  0  0  0  0  3  0  0  0  0  0  0
  -22.0340   -4.8490   22.5680 C   0  0  0  0  0  0  0  0  0  0  0  0
  -22.4280   -4.3100   21.3890 F   0  0  0  0  0  0  0  0  0  0  0  0
  -21.4090   -3.7990   26.0270 F   0  0  0  0  0  0  0  0  0  0  0  0
  -22.8380  -13.6040   21.1720 C   0  0  0  0  0  0  0  0  0  0  0  0
  -22.1080  -12.9060   22.0370 N   0  0  0  0  0  0  0  0  0  0  0  0
  -22.3960  -14.6320   20.6540 O   0  0  0  0  0  0  0  0  0  0  0  0
  -22.4670  -12.0760   22.4850 H   0  0  0  0  0  0  0  0  0  0  0  0
  -21.1720  -13.2120   22.2590 H   0  0  0  0  0  0  0  0  0  0  0  0
  -25.4500  -15.2810   20.3290 N   0  0  0  0  0  0  0  0  0  0  0  0
  -24.6830  -15.9350   20.4430 H   0  0  0  0  0  0  0  0  0  0  0  0
  -26.2870  -15.7140   19.9580 H   0  0  0  0  0  0  0  0  0  0  0  0
  -33.6060  -20.4440   22.4930 C   0  0  0  0  0  1  0  0  0  0  0  0
  -34.5490  -19.3920   20.3840 C   0  0  0  0  0  1  0  0  0  0  0  0
  -33.5180  -19.2700   21.5130 C   0  0  0  0  0  3  0  0  0  0  0  0
  -28.5700  -20.0070   17.1400 C   0  0  0  0  0  1  0  0  0  0  0  0
  -26.8510  -19.9450   19.0080 C   0  0  0  0  0  1  0  0  0  0  0  0
  -28.0490  -20.7180   18.4090 C   0  0  0  0  0  3  0  0  0  0  0  0
  -28.8590  -22.3620   20.2570 N   0  0  0  0  0  4  0  0  0  0  0  0
  -28.0360  -22.1590   20.8010 H   0  0  0  0  0  0  0  0  0  0  0  0
  -29.6100  -22.4420   20.9210 H   0  0  0  0  0  0  0  0  0  0  0  0
  -28.7090  -23.7650   19.5980 C   0  0  0  0  0  3  0  0  0  0  0  0
  -28.1660  -25.0100   20.4960 C   0  0  0  0  0  3  0  0  0  0  0  0
  -28.3170  -26.4640   20.1160 O   0  0  0  0  0  0  0  0  0  0  0  0
  -24.6160  -31.9360   23.2520 C   0  0  0  0  0  0  0  0  0  0  0  0
  -27.2040  -27.3380   20.1530 C   0  0  0  0  0  0  0  0  0  0  0  0
  -23.4040  -30.5430   21.6160 C   0  0  0  0  0  3  0  0  0  0  0  0
  -24.8420  -28.9810   20.1830 C   0  0  0  0  0  0  0  0  0  0  0  0
  -25.9450  -30.8420   21.4210 C   0  0  0  0  0  2  0  0  0  0  0  0
  -26.0180  -29.4530   20.7790 C   0  0  0  0  0  0  0  0  0  0  0  0
  -27.2020  -28.6420   20.7610 C   0  0  0  0  0  3  0  0  0  0  0  0
  -26.0030  -26.9340   19.5270 C   0  0  0  0  0  3  0  0  0  0  0  0
  -24.8350  -27.7260   19.5540 C   0  0  0  0  0  3  0  0  0  0  0  0
  -23.6130  -29.8740   20.2350 C   0  0  0  0  0  2  0  0  0  0  0  0
  -24.6750  -31.1260   22.1540 N   0  0  0  0  0  0  0  0  0  0  0  0
  -23.5320  -32.2180   23.7880 O   0  0  0  0  0  0  0  0  0  0  0  0
  -22.7450  -29.5250   22.5760 C   0  0  0  0  0  0  0  0  0  0  0  0
  -21.4170  -29.3480   22.4550 N   0  0  0  0  0  0  0  0  0  0  0  0
  -23.4270  -28.9010   23.3930 O   0  0  0  0  0  0  0  0  0  0  0  0
  -20.9280  -29.9090   21.7700 H   0  0  0  0  0  0  0  0  0  0  0  0
  -18.0420  -28.1470   22.9640 C   0  0  0  0  0  0  0  0  0  0  0  0
  -20.6000  -28.4140   23.2310 C   0  0  0  0  0  3  0  0  0  0  0  0
  -20.7070  -26.9800   22.6600 C   0  0  0  0  0  2  0  0  0  0  0  0
  -19.6030  -26.6510   21.6520 C   0  0  0  0  0  2  0  0  0  0  0  0
  -18.2200  -26.7970   22.2920 C   0  0  0  0  0  2  0  0  0  0  0  0
  -19.1570  -28.9130   23.3930 C   0  0  0  0  0  0  0  0  0  0  0  0
  -18.9350  -30.1760   23.9810 C   0  0  0  0  0  3  0  0  0  0  0  0
  -17.6260  -30.6710   24.1470 C   0  0  0  0  0  3  0  0  0  0  0  0
  -16.5250  -29.9010   23.7310 C   0  0  0  0  0  3  0  0  0  0  0  0
  -16.7340  -28.6430   23.1420 C   0  0  0  0  0  3  0  0  0  0  0  0
  -25.9030  -32.5610   23.8750 C   0  0  0  0  0  3  0  0  0  0  0  0
  -25.6030  -33.9640   24.1990 N   0  0  0  0  0  0  0  0  0  0  0  0
  -25.9350  -35.0110   23.4330 C   0  0  0  0  0  0  0  0  0  0  0  0
  -26.5960  -34.9000   22.3970 O   0  0  0  0  0  0  0  0  0  0  0  0
  -25.0100  -34.1230   24.9990 H   0  0  0  0  0  0  0  0  0  0  0  0
  -24.2220  -36.8190   23.0710 C   0  0  0  0  0  1  0  0  0  0  0  0
  -25.4550  -36.4030   23.8880 C   0  0  0  0  0  3  0  0  0  0  0  0
  -27.5910  -37.2780   24.7180 C   0  0  0  0  0  1  0  0  0  0  0  0
  -26.4910  -37.4500   23.7730 N   0  0  0  0  0  0  0  0  0  0  0  0
  -26.0880  -38.3710   23.9170 H   0  0  0  0  0  0  0  0  0  0  0  0
  -26.4140  -31.7940   25.1550 C   0  0  1  0  0  0  0  0  0  0  0  0
  -25.3190  -31.5710   26.2260 C   0  0  0  0  0  1  0  0  0  0  0  0
  -26.9870  -30.4110   24.7660 C   0  0  0  0  0  1  0  0  0  0  0  0
  -27.5720  -32.5800   25.8160 C   0  0  0  0  0  1  0  0  0  0  0  0
  1 51  1  0
  1  5  1  0
  1 52  1  0
  2  4  1  0
  3  4  2  0
  4 48  1  0
  5  2  2  0
  6  3  1  0
  7  5  1  0
  7  6  2  0
  8 16  1  0
  9 14  1  0
 10 11  1  0
 10  9  1  0
 12 11  1  0
 12 21  1  0
 12 13  1  0
 14  8  1  0
 14 13  1  0
 15  8  2  0
 16  6  1  0
 16 17  1  0
 18 19  2  0
 19 38  1  0
 20 19  1  0
 20 23  1  0
 21 18  1  0
 21 22  1  0
 22 20  2  0
 23 24  1  0
 24 25  2  0
 26 29  1  0
 26 25  1  0
 27 26  2  0
 28 27  1  0
 28 23  2  0
 29 30  1  0
 30 31  1  0
 31 32  2  0
 33 32  1  0
 33 37  1  0
 34 33  2  0
 35 30  2  0
 35 34  1  0
 36 35  1  0
 38 39  1  0
 39 42  1  0
 39 41  1  0
 40 38  2  0
 43 44  1  0
 43 18  1  0
 45 43  1  0
 47 48  1  0
 48 46  1  0
 49 51  1  0
 51 50  1  0
 52 53  1  0
 52 54  1  0
 55 52  1  0
 55 56  2  0
 57 59  1  0
 57 56  1  0
 58 69  2  0
 59 64  1  0
 60 68  1  0
 60 70  1  0
 61 67  1  0
 61 63  1  0
 62 68  1  0
 63 62  1  0
 64 63  2  0
 65 66  1  0
 65 59  2  0
 66 61  2  0
 67 60  1  0
 68 58  1  0
 70 72  2  0
 71 70  1  0
 73 71  1  0
 74 83  2  0
 74 79  1  0
 75 71  1  0
 75 79  1  0
 76 75  1  0
 77 78  1  0
 77 76  1  0
 78 74  1  0
 79 80  2  0
 80 81  1  0
 82 81  2  0
 83 82  1  0
 84 58  1  0
 84 85  1  0
 84 94  1  0
 85 88  1  0
 86 90  1  0
 86 85  1  0
 87 86  2  0
 90 89  1  0
 92 90  1  0
 92 93  1  0
 92 91  1  0
 94 97  1  1
 94 95  1  0
 96 94  1  0
M  ISO  4   8 100  16 100  56 101  57 101
M  END
>  <TORSDO>  (26) 
F 22

>  <SCORE>  (26) 
-13.554

>  <name>  (26) 
26

>  <ligand_id>  (26) 
26

>  <original_smiles>  (26) 
[H]c1c([H])c([H])c2c(c1[H])C([H])([H])C([H])([H])C([H])([H])C2([H])N([H])C(=O)C1([H])N(C(=O)C([H])(N([H])C(=O)C([H])(N([H])C([H])([H])[H])C([H])([H])[H])C(C([H])([H])[H])(C([H])([H])[H])C([H])([H])[H])C([H])([H])c2c([H])c(OC([H])([H])C([H])([H])[N+]([H])([H])C([H])(c3nc(N([H])C(=O)N4C([H])([H])C([H])([H])C([H])([H])C([H])(n5nc(-c6c([H])c([H])c(Oc7c([H])c([H])c(F)c([H])c7F)c([H])c6[H])c(C(=O)N([H])[H])c5N([H])[H])C4([H])[H])c([H])c(C([H])(C([H])([H])[H])C([H])([H])[H])c3[H])C([H])(C([H])([H])[H])C([H])([H])[H])c([H])c([H])c2C1([H])[H]

>  <smiles>  (26) 
[H]c1c([H])c([H])c2c(c1[H])C([H])([H])C([H])([H])C([H])([H])C2([H])N([H])C(=O)C1([H])N(C(=O)C([H])(N([H])C(=O)C([H])(N([H])C([H])([H])[H])C([H])([H])[H])C(C([H])([H])[H])(C([H])([H])[H])C([H])([H])[H])C([H])([H])c2c([H])c(OC([H])([H])C([H])([H])[N+]([H])([H])C([H])(c3nc(N([H])C(=O)N4C([H])([H])C([H])([H])C([H])([H])C([H])(n5nc(-c6c([H])c([H])c(Oc7c([H])c([H])c(F)c([H])c7F)c([H])c6[H])c(C(=O)N([H])[H])c5N([H])[H])C4([H])[H])c([H])c(C([H])(C([H])([H])[H])C([H])([H])[H])c3[H])C([H])(C([H])([H])[H])C([H])([H])[H])c([H])c([H])c2C1([H])[H]

$$$$
27:0:0
     RDKit          3D

 92101  0  0  1  0  0  0  0  0999 V2000
  -29.6930  -20.8980   19.0590 C   0  0  0  0  0  3  0  0  0  0  0  0
  -30.0280  -19.5400   18.8020 C   0  0  0  0  0  3  0  0  0  0  0  0
  -28.8310  -20.1730   21.1650 C   0  0  0  0  0  3  0  0  0  0  0  0
  -29.1330  -21.2650   20.3040 C   0  0  0  0  0  0  0  0  0  0  0  0
  -29.8120  -18.5370   19.7810 C   0  0  0  0  0  0  0  0  0  0  0  0
  -29.1490  -18.8670   20.9180 N   0  0  0  0  0  0  0  0  0  0  0  0
  -30.7440  -14.7320   19.6330 C   0  0  0  0  0  0  0  0  0  0  0  0
  -30.3000  -12.5190   18.5910 C   0  0  0  0  0  2  0  0  0  0  0  0
  -29.2370  -12.6580   17.4850 C   0  0  0  0  0  2  0  0  0  0  0  0
  -27.8260  -12.5040   18.0820 C   0  0  0  0  0  2  0  0  0  0  0  0
  -27.6160  -13.3670   19.3540 C   0  0  0  0  0  3  0  0  0  0  0  0
  -28.7950  -13.2450   20.3430 C   0  0  0  0  0  2  0  0  0  0  0  0
  -30.0300  -13.5590   19.6120 N   0  0  0  0  0  0  0  0  0  0  0  0
  -31.7900  -14.8130   18.9810 O   0  0  0  0  0  0  0  0  0  0  0  0
  -31.5840  -16.8830   21.9660 C   0  0  0  0  0  2  0  0  0  0  0  0
  -31.9280  -17.4940   20.6080 C   0  0  0  0  0  2  0  0  0  0  0  0
  -30.4160  -15.9140   21.6970 C   0  0  0  0  0  2  0  0  0  0  0  0
  -30.6840  -17.2240   19.7480 C   0  0  0  0  0  3  0  0  0  0  0  0
  -30.2260  -15.8640   20.2380 N   0  0  0  0  0  0  0  0  0  0  0  0
  -25.3620  -13.9480   20.4350 C   0  0  0  0  0  0  0  0  0  0  0  0
  -24.3300  -13.1680   20.8810 C   0  0  0  0  0  0  0  0  0  0  0  0
  -24.7440  -11.8150   20.6840 C   0  0  0  0  0  0  0  0  0  0  0  0
  -26.3380  -13.0710   19.9960 N   0  0  0  0  0  0  0  0  0  0  0  0
  -25.9810  -11.7770   20.2050 N   0  0  0  0  0  0  0  0  0  0  0  0
  -24.0110  -10.5540   20.8710 C   0  0  0  0  0  0  0  0  0  0  0  0
  -24.4880   -9.5410   21.7310 C   0  0  0  0  0  3  0  0  0  0  0  0
  -23.7530   -8.3480   21.9070 C   0  0  0  0  0  3  0  0  0  0  0  0
  -22.5310   -8.1590   21.2210 C   0  0  0  0  0  0  0  0  0  0  0  0
  -22.0720   -9.1620   20.3480 C   0  0  0  0  0  3  0  0  0  0  0  0
  -22.8070  -10.3470   20.1700 C   0  0  0  0  0  3  0  0  0  0  0  0
  -21.7630   -7.0230   21.3100 O   0  0  0  0  0  0  0  0  0  0  0  0
  -21.7220   -6.2690   22.4560 C   0  0  0  0  0  0  0  0  0  0  0  0
  -21.2780   -6.8060   23.6840 C   0  0  0  0  0  3  0  0  0  0  0  0
  -21.1860   -5.9780   24.8210 C   0  0  0  0  0  3  0  0  0  0  0  0
  -21.5310   -4.6160   24.7320 C   0  0  0  0  0  0  0  0  0  0  0  0
  -21.9700   -4.0790   23.5090 C   0  0  0  0  0  3  0  0  0  0  0  0
  -22.0630   -4.9040   22.3730 C   0  0  0  0  0  0  0  0  0  0  0  0
  -22.4660   -4.3780   21.1910 F   0  0  0  0  0  0  0  0  0  0  0  0
  -21.4380   -3.8190   25.8220 F   0  0  0  0  0  0  0  0  0  0  0  0
  -22.9960  -13.6490   21.3750 C   0  0  0  0  0  0  0  0  0  0  0  0
  -22.3660  -12.8960   22.2700 N   0  0  0  0  0  0  0  0  0  0  0  0
  -22.5270  -14.7250   21.0040 O   0  0  0  0  0  0  0  0  0  0  0  0
  -22.7600  -12.0230   22.5880 H   0  0  0  0  0  0  0  0  0  0  0  0
  -21.4780  -13.2000   22.6430 H   0  0  0  0  0  0  0  0  0  0  0  0
  -25.5450  -15.3250   20.3450 N   0  0  0  0  0  0  0  0  0  0  0  0
  -24.8280  -15.9880   20.6190 H   0  0  0  0  0  0  0  0  0  0  0  0
  -26.3740  -15.7720   19.9760 H   0  0  0  0  0  0  0  0  0  0  0  0
  -29.1030  -22.7460   20.8450 C   0  0  0  0  0  2  0  0  0  0  0  0
  -28.3940  -23.9840   20.1270 C   0  0  0  0  0  2  0  0  0  0  0  0
  -27.8550  -25.4650   22.2420 C   0  0  0  0  0  1  0  0  0  0  0  0
  -28.5830  -25.3860   20.8810 C   0  0  0  0  0  3  0  0  0  0  0  0
  -28.4840  -26.6680   20.1530 O   0  0  0  0  0  0  0  0  0  0  0  0
  -24.5610  -31.9180   23.1640 C   0  0  0  0  0  0  0  0  0  0  0  0
  -27.3170  -27.4360   20.1650 C   0  0  0  0  0  0  0  0  0  0  0  0
  -23.4080  -30.4900   21.5050 C   0  0  0  0  0  3  0  0  0  0  0  0
  -24.9120  -28.9620   20.1120 C   0  0  0  0  0  0  0  0  0  0  0  0
  -25.9390  -30.8680   21.3600 C   0  0  0  0  0  2  0  0  0  0  0  0
  -26.0580  -29.4910   20.7220 C   0  0  0  0  0  0  0  0  0  0  0  0
  -27.2650  -28.7400   20.7360 C   0  0  0  0  0  3  0  0  0  0  0  0
  -26.1550  -26.9400   19.5390 C   0  0  0  0  0  3  0  0  0  0  0  0
  -24.9600  -27.6910   19.5110 C   0  0  0  0  0  3  0  0  0  0  0  0
  -23.6590  -29.8110   20.1320 C   0  0  0  0  0  2  0  0  0  0  0  0
  -24.6520  -31.1100   22.0670 N   0  0  0  0  0  0  0  0  0  0  0  0
  -23.4660  -32.1770   23.6850 O   0  0  0  0  0  0  0  0  0  0  0  0
  -22.7520  -29.4650   22.4620 C   0  0  0  0  0  0  0  0  0  0  0  0
  -21.4260  -29.2850   22.3380 N   0  0  0  0  0  0  0  0  0  0  0  0
  -23.4340  -28.8330   23.2720 O   0  0  0  0  0  0  0  0  0  0  0  0
  -20.9340  -29.8520   21.6620 H   0  0  0  0  0  0  0  0  0  0  0  0
  -18.0440  -28.1140   22.8790 C   0  0  0  0  0  0  0  0  0  0  0  0
  -20.6110  -28.3380   23.1020 C   0  0  0  0  0  3  0  0  0  0  0  0
  -20.6820  -26.9190   22.4900 C   0  0  0  0  0  2  0  0  0  0  0  0
  -19.5570  -26.6360   21.4900 C   0  0  0  0  0  2  0  0  0  0  0  0
  -18.1890  -26.7800   22.1660 C   0  0  0  0  0  2  0  0  0  0  0  0
  -19.1810  -28.8530   23.3030 C   0  0  0  0  0  0  0  0  0  0  0  0
  -18.9900  -30.1050   23.9310 C   0  0  0  0  0  3  0  0  0  0  0  0
  -17.6950  -30.6170   24.1360 C   0  0  0  0  0  3  0  0  0  0  0  0
  -16.5730  -29.8740   23.7280 C   0  0  0  0  0  3  0  0  0  0  0  0
  -16.7480  -28.6250   23.1060 C   0  0  0  0  0  3  0  0  0  0  0  0
  -25.8230  -32.5750   23.8030 C   0  0  0  0  0  3  0  0  0  0  0  0
  -26.3390  -31.8200   25.0900 C   0  0  1  0  0  0  0  0  0  0  0  0
  -25.2330  -31.5510   26.1390 C   0  0  0  0  0  1  0  0  0  0  0  0
  -26.9690  -30.4590   24.7160 C   0  0  0  0  0  1  0  0  0  0  0  0
  -27.4590  -32.6460   25.7680 C   0  0  0  0  0  1  0  0  0  0  0  0
  -25.4870  -33.9700   24.1230 N   0  0  0  0  0  0  0  0  0  0  0  0
  -25.8010  -35.0260   23.3600 C   0  0  0  0  0  0  0  0  0  0  0  0
  -26.4770  -34.9290   22.3320 O   0  0  0  0  0  0  0  0  0  0  0  0
  -24.8960  -34.1190   24.9270 H   0  0  0  0  0  0  0  0  0  0  0  0
  -24.0430  -36.7840   22.9820 C   0  0  0  0  0  1  0  0  0  0  0  0
  -25.2830  -36.4060   23.8090 C   0  0  0  0  0  3  0  0  0  0  0  0
  -27.3870  -37.3380   24.6640 C   0  0  0  0  0  1  0  0  0  0  0  0
  -26.2950  -37.4790   23.7050 N   0  0  0  0  0  0  0  0  0  0  0  0
  -25.8690  -38.3910   23.8450 H   0  0  0  0  0  0  0  0  0  0  0  0
  1  4  1  0
  2  1  2  0
  2  5  1  0
  4 48  1  0
  4  3  2  0
  5  6  2  0
  6  3  1  0
  7 19  1  0
  8 13  1  0
  9 10  1  0
  9  8  1  0
 11 10  1  0
 11 23  1  0
 11 12  1  0
 13  7  1  0
 13 12  1  0
 14  7  2  0
 16 15  1  0
 17 15  1  0
 18  5  1  0
 18 19  1  0
 18 16  1  0
 19 17  1  0
 20 21  2  0
 21 40  1  0
 22 25  1  0
 22 21  1  0
 23 24  1  0
 23 20  1  0
 24 22  2  0
 25 26  1  0
 26 27  2  0
 28 31  1  0
 28 27  1  0
 29 28  2  0
 30 29  1  0
 30 25  2  0
 31 32  1  0
 32 33  1  0
 33 34  2  0
 35 34  1  0
 35 39  1  0
 36 35  2  0
 37 32  2  0
 37 36  1  0
 38 37  1  0
 40 41  1  0
 41 43  1  0
 41 44  1  0
 42 40  2  0
 45 20  1  0
 45 46  1  0
 47 45  1  0
 49 48  1  0
 49 51  1  0
 51 50  1  0
 52 54  1  0
 52 51  1  0
 53 64  2  0
 54 59  1  0
 55 63  1  0
 55 65  1  0
 56 62  1  0
 56 58  1  0
 57 63  1  0
 58 59  2  0
 58 57  1  0
 60 54  2  0
 61 60  1  0
 61 56  2  0
 62 55  1  0
 63 53  1  0
 65 67  2  0
 66 65  1  0
 68 66  1  0
 69 78  2  0
 69 74  1  0
 70 66  1  0
 70 74  1  0
 71 70  1  0
 72 73  1  0
 72 71  1  0
 73 69  1  0
 74 75  2  0
 75 76  1  0
 77 76  2  0
 78 77  1  0
 79 53  1  0
 79 84  1  0
 79 80  1  0
 80 83  1  1
 80 81  1  0
 82 80  1  0
 84 87  1  0
 85 89  1  0
 85 84  1  0
 86 85  2  0
 89 88  1  0
 91 89  1  0
 91 92  1  0
 91 90  1  0
M  ISO  4   7 100  19 100  51 101  52 101
M  END
>  <TORSDO>  (27) 
F 19

>  <SCORE>  (27) 
-13.078

>  <name>  (27) 
27

>  <ligand_id>  (27) 
27

>  <original_smiles>  (27) 
[H]c1nc(C2([H])N(C(=O)N3C([H])([H])C([H])([H])C([H])([H])C([H])(n4nc(-c5c([H])c([H])c(Oc6c([H])c([H])c(F)c([H])c6F)c([H])c5[H])c(C(=O)N([H])[H])c4N([H])[H])C3([H])[H])C([H])([H])C([H])([H])C2([H])[H])c([H])c([H])c1C([H])([H])C([H])([H])C([H])(Oc1c([H])c([H])c2c(c1[H])C([H])([H])N(C(=O)C([H])(N([H])C(=O)C([H])(N([H])C([H])([H])[H])C([H])([H])[H])C(C([H])([H])[H])(C([H])([H])[H])C([H])([H])[H])C([H])(C(=O)N([H])C1([H])c3c([H])c([H])c([H])c([H])c3C([H])([H])C([H])([H])C1([H])[H])C2([H])[H])C([H])([H])[H]

>  <smiles>  (27) 
[H]c1nc(C2([H])N(C(=O)N3C([H])([H])C([H])([H])C([H])([H])C([H])(n4nc(-c5c([H])c([H])c(Oc6c([H])c([H])c(F)c([H])c6F)c([H])c5[H])c(C(=O)N([H])[H])c4N([H])[H])C3([H])[H])C([H])([H])C([H])([H])C2([H])[H])c([H])c([H])c1C([H])([H])C([H])([H])C([H])(Oc1c([H])c([H])c2c(c1[H])C([H])([H])N(C(=O)C([H])(N([H])C(=O)C([H])(N([H])C([H])([H])[H])C([H])([H])[H])C(C([H])([H])[H])(C([H])([H])[H])C([H])([H])[H])C([H])(C(=O)N([H])C1([H])c3c([H])c([H])c([H])c([H])c3C([H])([H])C([H])([H])C1([H])[H])C2([H])[H])C([H])([H])[H]

$$$$
28:0:0
     RDKit          3D

 92100  0  0  1  0  0  0  0  0999 V2000
  -29.5150  -19.8020   21.1030 C   0  0  0  0  0  3  0  0  0  0  0  0
  -29.5190  -19.1070   19.0350 C   0  0  0  0  0  0  0  0  0  0  0  0
  -29.7460  -18.5520   20.3620 C   0  0  0  0  0  0  0  0  0  0  0  0
  -29.3050  -20.5140   19.0630 C   0  0  0  0  0  0  0  0  0  0  0  0
  -29.1150  -21.4210   17.8850 C   0  0  0  0  0  1  0  0  0  0  0  0
  -29.2350  -21.0940   20.3510 N   0  0  0  0  0  0  0  0  0  0  0  0
  -30.6600  -15.6720   20.5460 C   0  0  0  0  0  0  0  0  0  0  0  0
  -30.7570  -13.1860   19.7210 C   0  0  0  0  0  2  0  0  0  0  0  0
  -29.9090  -12.9340   18.4470 C   0  0  0  0  0  2  0  0  0  0  0  0
  -28.4500  -12.6180   18.8150 C   0  0  0  0  0  2  0  0  0  0  0  0
  -27.9230  -13.5720   19.9120 C   0  0  0  0  0  3  0  0  0  0  0  0
  -28.9080  -13.7710   21.0840 C   0  0  0  0  0  2  0  0  0  0  0  0
  -30.1470  -14.3300   20.5110 N   0  0  0  0  0  0  0  0  0  0  0  0
  -31.8830  -15.6830   20.3240 O   0  0  0  0  0  0  0  0  0  0  0  0
  -29.8540  -16.9360   20.7370 N   0  0  0  0  0  0  0  0  0  0  0  0
  -28.9720  -16.6350   21.1250 H   0  0  0  0  0  0  0  0  0  0  0  0
  -25.5180  -14.0930   20.5600 C   0  0  0  0  0  0  0  0  0  0  0  0
  -24.4520  -13.3020   20.8800 C   0  0  0  0  0  0  0  0  0  0  0  0
  -24.9360  -11.9590   20.8680 C   0  0  0  0  0  0  0  0  0  0  0  0
  -26.5810  -13.2310   20.3600 N   0  0  0  0  0  0  0  0  0  0  0  0
  -26.2420  -11.9400   20.6140 N   0  0  0  0  0  0  0  0  0  0  0  0
  -24.2140  -10.6900   21.0260 C   0  0  0  0  0  0  0  0  0  0  0  0
  -24.5990   -9.7360   21.9930 C   0  0  0  0  0  3  0  0  0  0  0  0
  -23.8770   -8.5330   22.1390 C   0  0  0  0  0  3  0  0  0  0  0  0
  -22.7550   -8.2740   21.3150 C   0  0  0  0  0  0  0  0  0  0  0  0
  -22.3900   -9.2170   20.3360 C   0  0  0  0  0  3  0  0  0  0  0  0
  -23.1130  -10.4120   20.1900 C   0  0  0  0  0  3  0  0  0  0  0  0
  -22.0090   -7.1220   21.3680 O   0  0  0  0  0  0  0  0  0  0  0  0
  -21.8630   -6.4090   22.5330 C   0  0  0  0  0  0  0  0  0  0  0  0
  -21.2910   -6.9820   23.6910 C   0  0  0  0  0  3  0  0  0  0  0  0
  -21.0980   -6.1950   24.8440 C   0  0  0  0  0  3  0  0  0  0  0  0
  -21.4650   -4.8360   24.8410 C   0  0  0  0  0  0  0  0  0  0  0  0
  -22.0260   -4.2620   23.6870 C   0  0  0  0  0  3  0  0  0  0  0  0
  -22.2220   -5.0460   22.5360 C   0  0  0  0  0  0  0  0  0  0  0  0
  -22.7460   -4.4810   21.4210 F   0  0  0  0  0  0  0  0  0  0  0  0
  -21.2690   -4.0790   25.9460 F   0  0  0  0  0  0  0  0  0  0  0  0
  -23.0390  -13.7630   21.0840 C   0  0  0  0  0  0  0  0  0  0  0  0
  -22.2910  -13.0860   21.9470 N   0  0  0  0  0  0  0  0  0  0  0  0
  -22.6070  -14.7640   20.5110 O   0  0  0  0  0  0  0  0  0  0  0  0
  -22.6540  -12.2810   22.4350 H   0  0  0  0  0  0  0  0  0  0  0  0
  -21.3400  -13.3770   22.1200 H   0  0  0  0  0  0  0  0  0  0  0  0
  -25.6690  -15.4670   20.3910 N   0  0  0  0  0  0  0  0  0  0  0  0
  -24.8790  -16.1000   20.4520 H   0  0  0  0  0  0  0  0  0  0  0  0
  -26.5090  -15.9160   20.0550 H   0  0  0  0  0  0  0  0  0  0  0  0
  -28.3220  -17.2470   17.8100 C   0  0  0  0  0  1  0  0  0  0  0  0
  -29.4480  -18.2880   17.7450 C   0  0  0  0  0  3  0  0  0  0  0  0
  -30.7910  -17.6540   17.3310 C   0  0  0  0  0  2  0  0  0  0  0  0
  -33.2500  -17.9750   16.7810 C   0  0  0  0  0  1  0  0  0  0  0  0
  -31.9020  -18.6680   17.0190 C   0  0  0  0  0  2  0  0  0  0  0  0
  -29.0650  -22.7610   20.7910 C   0  0  0  0  0  3  0  0  0  0  0  0
  -28.2170  -24.2930   20.1760 C   0  0  0  0  0  3  0  0  0  0  0  0
  -28.3200  -25.9600   20.4630 O   0  0  0  0  0  0  0  0  0  0  0  0
  -24.6440  -32.0100   23.2810 C   0  0  0  0  0  0  0  0  0  0  0  0
  -27.3010  -27.0730   20.3520 C   0  0  0  0  0  0  0  0  0  0  0  0
  -23.4880  -30.5680   21.6550 C   0  0  0  0  0  3  0  0  0  0  0  0
  -24.9750  -28.9560   20.2650 C   0  0  0  0  0  0  0  0  0  0  0  0
  -26.0580  -30.8020   21.5330 C   0  0  0  0  0  2  0  0  0  0  0  0
  -26.1530  -29.3780   20.8950 C   0  0  0  0  0  0  0  0  0  0  0  0
  -27.3050  -28.4560   20.9110 C   0  0  0  0  0  3  0  0  0  0  0  0
  -26.0920  -26.8230   19.6630 C   0  0  0  0  0  3  0  0  0  0  0  0
  -24.9750  -27.7050   19.6280 C   0  0  0  0  0  3  0  0  0  0  0  0
  -23.7420  -29.8630   20.2920 C   0  0  0  0  0  2  0  0  0  0  0  0
  -24.7510  -31.1580   22.2070 N   0  0  0  0  0  0  0  0  0  0  0  0
  -23.5450  -32.2890   23.7900 O   0  0  0  0  0  0  0  0  0  0  0  0
  -22.8000  -29.5800   22.6340 C   0  0  0  0  0  0  0  0  0  0  0  0
  -21.4810  -29.3590   22.4740 N   0  0  0  0  0  0  0  0  0  0  0  0
  -23.4610  -29.0110   23.5050 O   0  0  0  0  0  0  0  0  0  0  0  0
  -21.0030  -29.8660   21.7420 H   0  0  0  0  0  0  0  0  0  0  0  0
  -18.1390  -28.0080   22.9050 C   0  0  0  0  0  0  0  0  0  0  0  0
  -20.6720  -28.4140   23.2500 C   0  0  0  0  0  3  0  0  0  0  0  0
  -20.8650  -26.9670   22.7360 C   0  0  0  0  0  2  0  0  0  0  0  0
  -19.8190  -26.5540   21.6950 C   0  0  0  0  0  2  0  0  0  0  0  0
  -18.4080  -26.6490   22.2810 C   0  0  0  0  0  2  0  0  0  0  0  0
  -19.2020  -28.8430   23.3450 C   0  0  0  0  0  0  0  0  0  0  0  0
  -18.8950  -30.1080   23.8910 C   0  0  0  0  0  3  0  0  0  0  0  0
  -17.5600  -30.5410   23.9980 C   0  0  0  0  0  3  0  0  0  0  0  0
  -16.5120  -29.7050   23.5740 C   0  0  0  0  0  3  0  0  0  0  0  0
  -16.8020  -28.4410   23.0330 C   0  0  0  0  0  3  0  0  0  0  0  0
  -25.8970  -32.6860   23.9170 C   0  0  0  0  0  3  0  0  0  0  0  0
  -25.5540  -34.0880   24.2200 N   0  0  0  0  0  0  0  0  0  0  0  0
  -25.8790  -35.1420   23.4580 C   0  0  0  0  0  0  0  0  0  0  0  0
  -26.5570  -35.0360   22.4340 O   0  0  0  0  0  0  0  0  0  0  0  0
  -24.9510  -34.2430   25.0160 H   0  0  0  0  0  0  0  0  0  0  0  0
  -24.1260  -36.9110   23.0850 C   0  0  0  0  0  1  0  0  0  0  0  0
  -25.3730  -36.5320   23.9000 C   0  0  0  0  0  3  0  0  0  0  0  0
  -27.4890  -37.4650   24.7250 C   0  0  0  0  0  1  0  0  0  0  0  0
  -26.3910  -37.5980   23.7730 N   0  0  0  0  0  0  0  0  0  0  0  0
  -25.9690  -38.5150   23.9040 H   0  0  0  0  0  0  0  0  0  0  0  0
  -26.3980  -31.9580   25.2270 C   0  0  1  0  0  0  0  0  0  0  0  0
  -25.2770  -31.6920   26.2590 C   0  0  0  0  0  1  0  0  0  0  0  0
  -27.0490  -30.5980   24.8910 C   0  0  0  0  0  1  0  0  0  0  0  0
  -27.4900  -32.8100   25.9140 C   0  0  0  0  0  1  0  0  0  0  0  0
  2  4  2  0
  2  3  1  0
  3 15  1  0
  3  1  2  0
  4  6  1  0
  5  4  1  0
  6 50  1  0
  6  1  1  0
  7 15  1  0
  8 13  1  0
  9 10  1  0
  9  8  1  0
 11 10  1  0
 11 20  1  0
 11 12  1  0
 13  7  1  0
 13 12  1  0
 14  7  2  0
 15 16  1  0
 17 18  2  0
 18 37  1  0
 19 18  1  0
 19 22  1  0
 20 17  1  0
 20 21  1  0
 21 19  2  0
 22 23  1  0
 23 24  2  0
 25 28  1  0
 25 24  1  0
 26 25  2  0
 27 26  1  0
 27 22  2  0
 28 29  1  0
 29 34  2  0
 29 30  1  0
 30 31  2  0
 32 31  1  0
 32 36  1  0
 33 32  2  0
 34 33  1  0
 35 34  1  0
 37 38  1  0
 38 41  1  0
 38 40  1  0
 39 37  2  0
 42 43  1  0
 42 17  1  0
 44 42  1  0
 46 45  1  0
 46  2  1  0
 47 46  1  0
 48 49  1  0
 49 47  1  0
 51 52  1  0
 51 50  2  0
 53 64  2  0
 54 52  1  0
 54 59  1  0
 55 63  1  0
 55 65  1  0
 56 62  1  0
 56 58  1  0
 57 63  1  0
 58 59  2  0
 58 57  1  0
 60 54  2  0
 61 60  1  0
 61 56  2  0
 62 55  1  0
 63 53  1  0
 65 67  2  0
 66 65  1  0
 68 66  1  0
 69 78  2  0
 69 74  1  0
 70 66  1  0
 70 74  1  0
 71 70  1  0
 72 73  1  0
 72 71  1  0
 73 69  1  0
 74 75  2  0
 75 76  1  0
 77 76  2  0
 78 77  1  0
 79 53  1  0
 79 80  1  0
 79 89  1  0
 80 83  1  0
 81 85  1  0
 81 80  1  0
 82 81  2  0
 85 84  1  0
 87 85  1  0
 87 88  1  0
 87 86  1  0
 89 92  1  1
 89 90  1  0
 91 89  1  0
M  ISO  4   7 100  15 100  51 101  52 101
M  END
>  <TORSDO>  (28) 
F 21

>  <SCORE>  (28) 
-13.864

>  <name>  (28) 
28

>  <ligand_id>  (28) 
28

>  <original_smiles>  (28) 
[H]c1c([H])c([H])c2c(c1[H])C([H])([H])C([H])([H])C([H])([H])C2([H])N([H])C(=O)C1([H])N(C(=O)C([H])(N([H])C(=O)C([H])(N([H])C([H])([H])[H])C([H])([H])[H])C(C([H])([H])[H])(C([H])([H])[H])C([H])([H])[H])C([H])([H])c2c([H])c(OC([H])([H])C([H])([H])n3c([H])c(N([H])C(=O)N4C([H])([H])C([H])([H])C([H])([H])C([H])(n5nc(-c6c([H])c([H])c(Oc7c([H])c([H])c(F)c([H])c7F)c([H])c6[H])c(C(=O)N([H])[H])c5N([H])[H])C4([H])[H])c(C([H])(C([H])([H])[H])C([H])([H])C([H])([H])C([H])([H])[H])c3C([H])([H])[H])c([H])c([H])c2C1([H])[H]

>  <smiles>  (28) 
[H]c1c([H])c([H])c2c(c1[H])C([H])([H])C([H])([H])C([H])([H])C2([H])N([H])C(=O)C1([H])N(C(=O)C([H])(N([H])C(=O)C([H])(N([H])C([H])([H])[H])C([H])([H])[H])C(C([H])([H])[H])(C([H])([H])[H])C([H])([H])[H])C([H])([H])c2c([H])c(OC([H])([H])C([H])([H])n3c([H])c(N([H])C(=O)N4C([H])([H])C([H])([H])C([H])([H])C([H])(n5nc(-c6c([H])c([H])c(Oc7c([H])c([H])c(F)c([H])c7F)c([H])c6[H])c(C(=O)N([H])[H])c5N([H])[H])C4([H])[H])c(C([H])(C([H])([H])[H])C([H])([H])C([H])([H])C([H])([H])[H])c3C([H])([H])[H])c([H])c([H])c2C1([H])[H]

$$$$
29:0:0
     RDKit          3D

 93102  0  0  1  0  0  0  0  0999 V2000
  -28.2670  -21.6590   21.2130 C   0  0  0  0  0  3  0  0  0  0  0  0
  -29.6430  -22.9240   19.7180 C   0  0  0  0  0  3  0  0  0  0  0  0
  -29.4030  -21.6540   20.3780 C   0  0  0  0  0  0  0  0  0  0  0  0
  -27.4810  -22.8270   21.3540 C   0  0  0  0  0  0  0  0  0  0  0  0
  -28.8050  -24.0840   19.9060 C   0  0  0  0  0  0  0  0  0  0  0  0
  -26.2800  -22.8280   22.2740 C   0  0  0  0  0  1  0  0  0  0  0  0
  -27.7320  -24.0000   20.7220 N   0  0  0  0  0  0  0  0  0  0  0  0
  -32.5610  -20.2500   20.0400 C   0  0  0  0  0  2  0  0  0  0  0  0
  -31.3500  -20.3510   19.1090 C   0  0  0  0  0  2  0  0  0  0  0  0
  -31.6480  -20.7410   21.1600 C   0  0  0  0  0  2  0  0  0  0  0  0
  -30.3890  -20.3900   20.3310 C   0  0  1  0  0  0  0  0  0  0  0  0
  -29.7650  -18.9210   20.6770 C   0  0  0  0  0  3  0  0  0  0  0  0
  -30.7470  -17.6290   20.6290 C   0  0  0  0  0  3  0  0  0  0  0  0
  -30.9940  -15.0580   20.5910 C   0  0  0  0  0  0  0  0  0  0  0  0
  -30.7890  -12.8140   19.5300 C   0  0  0  0  0  2  0  0  0  0  0  0
  -29.9030  -12.9300   18.2710 C   0  0  0  0  0  2  0  0  0  0  0  0
  -28.4180  -12.7610   18.6450 C   0  0  0  0  0  2  0  0  0  0  0  0
  -28.0070  -13.6430   19.8550 C   0  0  0  0  0  3  0  0  0  0  0  0
  -29.0150  -13.5220   21.0190 C   0  0  0  0  0  2  0  0  0  0  0  0
  -30.3440  -13.8530   20.4880 N   0  0  0  0  0  0  0  0  0  0  0  0
  -32.1800  -15.1530   20.2670 O   0  0  0  0  0  0  0  0  0  0  0  0
  -30.2590  -16.2000   20.8470 N   0  0  0  0  0  0  0  0  0  0  0  0
  -29.2950  -16.0700   21.1160 H   0  0  0  0  0  0  0  0  0  0  0  0
  -25.5970  -14.2510   20.4860 C   0  0  0  0  0  0  0  0  0  0  0  0
  -24.5100  -13.4840   20.8060 C   0  0  0  0  0  0  0  0  0  0  0  0
  -24.9620  -12.1280   20.7760 C   0  0  0  0  0  0  0  0  0  0  0  0
  -26.6410  -13.3630   20.2830 N   0  0  0  0  0  0  0  0  0  0  0  0
  -26.2640  -12.0810   20.5200 N   0  0  0  0  0  0  0  0  0  0  0  0
  -24.2180  -10.8720   20.9220 C   0  0  0  0  0  0  0  0  0  0  0  0
  -24.6060   -9.8890   21.8590 C   0  0  0  0  0  3  0  0  0  0  0  0
  -23.8630   -8.6960   21.9940 C   0  0  0  0  0  3  0  0  0  0  0  0
  -22.7180   -8.4790   21.1910 C   0  0  0  0  0  0  0  0  0  0  0  0
  -22.3520   -9.4490   20.2410 C   0  0  0  0  0  3  0  0  0  0  0  0
  -23.0950  -10.6330   20.1050 C   0  0  0  0  0  3  0  0  0  0  0  0
  -21.9510   -7.3410   21.2330 O   0  0  0  0  0  0  0  0  0  0  0  0
  -21.8540   -6.5800   22.3690 C   0  0  0  0  0  0  0  0  0  0  0  0
  -21.3690   -7.1150   23.5840 C   0  0  0  0  0  3  0  0  0  0  0  0
  -21.2210   -6.2790   24.7100 C   0  0  0  0  0  3  0  0  0  0  0  0
  -21.5460   -4.9130   24.6230 C   0  0  0  0  0  0  0  0  0  0  0  0
  -22.0220   -4.3780   23.4130 C   0  0  0  0  0  3  0  0  0  0  0  0
  -22.1720   -5.2080   22.2890 C   0  0  0  0  0  0  0  0  0  0  0  0
  -22.6120   -4.6850   21.1190 F   0  0  0  0  0  0  0  0  0  0  0  0
  -21.3960   -4.1100   25.7020 F   0  0  0  0  0  0  0  0  0  0  0  0
  -23.1090  -13.9700   21.0330 C   0  0  0  0  0  0  0  0  0  0  0  0
  -22.3470  -13.2700   21.8670 N   0  0  0  0  0  0  0  0  0  0  0  0
  -22.6990  -15.0040   20.5080 O   0  0  0  0  0  0  0  0  0  0  0  0
  -22.6950  -12.4350   22.3120 H   0  0  0  0  0  0  0  0  0  0  0  0
  -21.4040  -13.5750   22.0650 H   0  0  0  0  0  0  0  0  0  0  0  0
  -25.7830  -15.6210   20.3290 N   0  0  0  0  0  0  0  0  0  0  0  0
  -25.0150  -16.2810   20.3970 H   0  0  0  0  0  0  0  0  0  0  0  0
  -26.6500  -16.0530   20.0360 H   0  0  0  0  0  0  0  0  0  0  0  0
  -29.0160  -25.4490   19.1250 C   0  0  0  0  0  2  0  0  0  0  0  0
  -28.8150  -26.7830   19.7680 O   0  0  0  0  0  0  0  0  0  0  0  0
  -24.6320  -31.7000   23.0060 C   0  0  0  0  0  0  0  0  0  0  0  0
  -27.6130  -27.5180   19.7240 C   0  0  0  0  0  0  0  0  0  0  0  0
  -23.5550  -30.3020   21.2780 C   0  0  0  0  0  3  0  0  0  0  0  0
  -25.1270  -28.9450   19.7790 C   0  0  0  0  0  0  0  0  0  0  0  0
  -26.0620  -30.8240   21.1370 C   0  0  0  0  0  2  0  0  0  0  0  0
  -26.2490  -29.4920   20.4140 C   0  0  0  0  0  0  0  0  0  0  0  0
  -27.4920  -28.7890   20.3790 C   0  0  0  0  0  3  0  0  0  0  0  0
  -26.4610  -27.0260   19.0740 C   0  0  0  0  0  3  0  0  0  0  0  0
  -25.2340  -27.7200   19.1020 C   0  0  0  0  0  3  0  0  0  0  0  0
  -23.8250  -29.7180   19.8640 C   0  0  0  0  0  2  0  0  0  0  0  0
  -24.7660  -30.9610   21.8630 N   0  0  0  0  0  0  0  0  0  0  0  0
  -23.5260  -31.8570   23.5430 O   0  0  0  0  0  0  0  0  0  0  0  0
  -22.9710  -29.1870   22.1780 C   0  0  0  0  0  0  0  0  0  0  0  0
  -21.6550  -28.9380   22.0610 N   0  0  0  0  0  0  0  0  0  0  0  0
  -23.7010  -28.5470   22.9410 O   0  0  0  0  0  0  0  0  0  0  0  0
  -21.1170  -29.5230   21.4340 H   0  0  0  0  0  0  0  0  0  0  0  0
  -18.3550  -27.5440   22.5690 C   0  0  0  0  0  0  0  0  0  0  0  0
  -20.9090  -27.8990   22.7710 C   0  0  0  0  0  3  0  0  0  0  0  0
  -21.0500  -26.5260   22.0740 C   0  0  0  0  0  2  0  0  0  0  0  0
  -19.9250  -26.2340   21.0750 C   0  0  0  0  0  2  0  0  0  0  0  0
  -18.5620  -26.2670   21.7720 C   0  0  0  0  0  2  0  0  0  0  0  0
  -19.4550  -28.3200   23.0220 C   0  0  0  0  0  0  0  0  0  0  0  0
  -19.2010  -29.5200   23.7220 C   0  0  0  0  0  3  0  0  0  0  0  0
  -17.8820  -29.9430   23.9740 C   0  0  0  0  0  3  0  0  0  0  0  0
  -16.7980  -29.1630   23.5360 C   0  0  0  0  0  3  0  0  0  0  0  0
  -17.0360  -27.9650   22.8390 C   0  0  0  0  0  3  0  0  0  0  0  0
  -25.8560  -32.4000   23.6740 C   0  0  0  0  0  3  0  0  0  0  0  0
  -26.4020  -31.6290   24.9390 C   0  0  1  0  0  0  0  0  0  0  0  0
  -25.3140  -31.2980   25.9860 C   0  0  0  0  0  1  0  0  0  0  0  0
  -27.0820  -30.3070   24.5180 C   0  0  0  0  0  1  0  0  0  0  0  0
  -27.4880  -32.4790   25.6420 C   0  0  0  0  0  1  0  0  0  0  0  0
  -25.4450  -33.7620   24.0440 N   0  0  0  0  0  0  0  0  0  0  0  0
  -25.7290  -34.8620   23.3370 C   0  0  0  0  0  0  0  0  0  0  0  0
  -26.4330  -34.8430   22.3240 O   0  0  0  0  0  0  0  0  0  0  0  0
  -24.8360  -33.8510   24.8450 H   0  0  0  0  0  0  0  0  0  0  0  0
  -23.8990  -36.5510   22.9950 C   0  0  0  0  0  1  0  0  0  0  0  0
  -25.1380  -36.1950   23.8320 C   0  0  0  0  0  3  0  0  0  0  0  0
  -27.1780  -37.1800   24.7770 C   0  0  0  0  0  1  0  0  0  0  0  0
  -26.1020  -37.3160   23.8010 N   0  0  0  0  0  0  0  0  0  0  0  0
  -25.6270  -38.1980   23.9700 H   0  0  0  0  0  0  0  0  0  0  0  0
  1  4  1  0
  2  5  2  0
  2  3  1  0
  3  1  2  0
  4  6  1  0
  5  7  1  0
  7  4  2  0
  8 10  1  0
  9  8  1  0
  9 11  1  0
 11  3  1  0
 11 12  1  1
 11 10  1  0
 13 12  2  0
 13 22  1  0
 14 22  1  0
 15 20  1  0
 16 17  1  0
 16 15  1  0
 18 17  1  0
 18 27  1  0
 18 19  1  0
 20 14  1  0
 20 19  1  0
 21 14  2  0
 22 23  1  0
 24 25  2  0
 25 44  1  0
 26 25  1  0
 26 29  1  0
 27 24  1  0
 27 28  1  0
 28 26  2  0
 29 30  1  0
 30 31  2  0
 32 35  1  0
 32 31  1  0
 33 32  2  0
 34 33  1  0
 34 29  2  0
 35 36  1  0
 36 37  1  0
 37 38  2  0
 39 38  1  0
 39 43  1  0
 40 39  2  0
 41 36  2  0
 41 40  1  0
 42 41  1  0
 44 45  1  0
 45 48  1  0
 45 47  1  0
 46 44  2  0
 49 50  1  0
 49 24  1  0
 51 49  1  0
 52 53  1  0
 52  5  1  0
 54 65  2  0
 55 53  1  0
 55 60  1  0
 56 64  1  0
 56 66  1  0
 57 63  1  0
 57 59  1  0
 58 64  1  0
 59 58  1  0
 60 59  2  0
 61 62  1  0
 61 55  2  0
 62 57  2  0
 63 56  1  0
 64 54  1  0
 66 68  2  0
 67 66  1  0
 69 67  1  0
 70 79  2  0
 70 75  1  0
 71 67  1  0
 71 75  1  0
 72 71  1  0
 73 74  1  0
 73 72  1  0
 74 70  1  0
 75 76  2  0
 76 77  1  0
 78 77  2  0
 79 78  1  0
 80 54  1  0
 80 85  1  0
 80 81  1  0
 81 84  1  1
 81 82  1  0
 83 81  1  0
 85 88  1  0
 86 90  1  0
 86 85  1  0
 87 86  2  0
 90 89  1  0
 92 90  1  0
 92 93  1  0
 92 91  1  0
M  ISO  4  14 100  22 100  52 101  53 101
M  END
>  <TORSDO>  (29) 
F 20

>  <SCORE>  (29) 
-12.122

>  <name>  (29) 
29

>  <ligand_id>  (29) 
29

>  <original_smiles>  (29) 
[H]c1c([H])c([H])c2c(c1[H])C([H])([H])C([H])([H])C([H])([H])C2([H])N([H])C(=O)C1([H])N(C(=O)C([H])(N([H])C(=O)C([H])(N([H])C([H])([H])[H])C([H])([H])[H])C(C([H])([H])[H])(C([H])([H])[H])C([H])([H])[H])C([H])([H])c2c([H])c(OC([H])([H])c3nc(C([H])([H])[H])c([H])c(C4(C([H])([H])C([H])([H])N([H])C(=O)N5C([H])([H])C([H])([H])C([H])([H])C([H])(n6nc(-c7c([H])c([H])c(Oc8c([H])c([H])c(F)c([H])c8F)c([H])c7[H])c(C(=O)N([H])[H])c6N([H])[H])C5([H])[H])C([H])([H])C([H])([H])C4([H])[H])c3[H])c([H])c([H])c2C1([H])[H]

>  <smiles>  (29) 
[H]c1c([H])c([H])c2c(c1[H])C([H])([H])C([H])([H])C([H])([H])C2([H])N([H])C(=O)C1([H])N(C(=O)C([H])(N([H])C(=O)C([H])(N([H])C([H])([H])[H])C([H])([H])[H])C(C([H])([H])[H])(C([H])([H])[H])C([H])([H])[H])C([H])([H])c2c([H])c(OC([H])([H])c3nc(C([H])([H])[H])c([H])c(C4(C([H])([H])C([H])([H])N([H])C(=O)N5C([H])([H])C([H])([H])C([H])([H])C([H])(n6nc(-c7c([H])c([H])c(Oc8c([H])c([H])c(F)c([H])c8F)c([H])c7[H])c(C(=O)N([H])[H])c6N([H])[H])C5([H])[H])C([H])([H])C([H])([H])C4([H])[H])c3[H])c([H])c([H])c2C1([H])[H]

$$$$
30:0:0
     RDKit          3D

 97106  0  0  1  0  0  0  0  0999 V2000
  -29.2310  -17.2650   21.5020 C   0  0  0  0  0  3  0  0  0  0  0  0
  -30.5380  -16.7850   21.7340 C   0  0  0  0  0  3  0  0  0  0  0  0
  -29.8520  -17.9040   19.2180 C   0  0  0  0  0  0  0  0  0  0  0  0
  -31.1870  -17.6520   19.6220 C   0  0  0  0  0  3  0  0  0  0  0  0
  -28.8430  -17.6800   20.2030 C   0  0  0  0  0  0  0  0  0  0  0  0
  -31.3110  -16.5120   20.5910 C   0  0  0  0  0  3  0  0  0  0  0  0
  -29.4880  -18.4460   17.8490 C   0  0  0  0  0  0  0  0  0  0  0  0
  -32.1100  -19.0100   19.5900 C   0  0  0  0  0  2  0  0  0  0  0  0
  -31.6480  -20.4460   18.8530 C   0  0  0  0  0  3  0  0  0  0  0  0
  -27.3660  -17.9440   19.9410 C   0  0  0  0  0  1  0  0  0  0  0  0
  -29.9160  -19.6790   17.4650 N   0  0  0  0  0  0  0  0  0  0  0  0
  -28.6950  -17.7900   17.1680 O   0  0  0  0  0  0  0  0  0  0  0  0
  -31.2950  -19.9640   17.5660 O   0  0  0  0  0  0  0  0  0  0  0  0
  -31.7240  -13.8190   20.5740 C   0  0  0  0  0  0  0  0  0  0  0  0
  -31.5100  -11.3610   19.9780 C   0  0  0  0  0  2  0  0  0  0  0  0
  -30.7200  -11.1830   18.6610 C   0  0  0  0  0  2  0  0  0  0  0  0
  -29.2000  -11.1640   18.9250 C   0  0  0  0  0  2  0  0  0  0  0  0
  -28.7480  -12.2890   19.8940 C   0  0  0  0  0  3  0  0  0  0  0  0
  -29.6670  -12.4050   21.1260 C   0  0  0  0  0  2  0  0  0  0  0  0
  -31.0270  -12.6160   20.6150 N   0  0  0  0  0  0  0  0  0  0  0  0
  -32.9560  -13.7580   20.5060 O   0  0  0  0  0  0  0  0  0  0  0  0
  -31.0310  -15.0350   20.3030 N   0  0  0  0  0  0  0  0  0  0  0  0
  -30.0660  -14.8630   20.0730 H   0  0  0  0  0  0  0  0  0  0  0  0
  -26.3930  -13.1740   20.3490 C   0  0  0  0  0  0  0  0  0  0  0  0
  -25.2120  -12.5480   20.6390 C   0  0  0  0  0  0  0  0  0  0  0  0
  -25.5140  -11.1540   20.7200 C   0  0  0  0  0  0  0  0  0  0  0  0
  -27.3430  -12.1710   20.2630 N   0  0  0  0  0  0  0  0  0  0  0  0
  -26.8160  -10.9520   20.5510 N   0  0  0  0  0  0  0  0  0  0  0  0
  -24.6250   -9.9970   20.8880 C   0  0  0  0  0  0  0  0  0  0  0  0
  -24.8830   -8.9990   21.8540 C   0  0  0  0  0  3  0  0  0  0  0  0
  -24.0020   -7.9070   22.0080 C   0  0  0  0  0  3  0  0  0  0  0  0
  -22.8480   -7.8050   21.1940 C   0  0  0  0  0  0  0  0  0  0  0  0
  -22.6090   -8.7890   20.2180 C   0  0  0  0  0  3  0  0  0  0  0  0
  -23.4900   -9.8720   20.0630 C   0  0  0  0  0  3  0  0  0  0  0  0
  -21.9500   -6.7670   21.2550 O   0  0  0  0  0  0  0  0  0  0  0  0
  -21.5870   -6.2000   22.4510 C   0  0  0  0  0  0  0  0  0  0  0  0
  -21.0300   -6.9640   23.5000 C   0  0  0  0  0  3  0  0  0  0  0  0
  -20.6050   -6.3310   24.6840 C   0  0  0  0  0  3  0  0  0  0  0  0
  -20.7280   -4.9350   24.8210 C   0  0  0  0  0  0  0  0  0  0  0  0
  -21.2800   -4.1710   23.7770 C   0  0  0  0  0  3  0  0  0  0  0  0
  -21.7050   -4.8030   22.5940 C   0  0  0  0  0  0  0  0  0  0  0  0
  -22.2140   -4.0600   21.5820 F   0  0  0  0  0  0  0  0  0  0  0  0
  -20.3160   -4.3240   25.9550 F   0  0  0  0  0  0  0  0  0  0  0  0
  -23.8630  -13.1980   20.7340 C   0  0  0  0  0  0  0  0  0  0  0  0
  -22.9860  -12.6670   21.5780 N   0  0  0  0  0  0  0  0  0  0  0  0
  -23.5950  -14.2120   20.0920 O   0  0  0  0  0  0  0  0  0  0  0  0
  -23.2130  -11.8460   22.1200 H   0  0  0  0  0  0  0  0  0  0  0  0
  -22.0760  -13.0880   21.6850 H   0  0  0  0  0  0  0  0  0  0  0  0
  -26.7340  -14.5040   20.1230 N   0  0  0  0  0  0  0  0  0  0  0  0
  -26.0470  -15.2520   20.1190 H   0  0  0  0  0  0  0  0  0  0  0  0
  -27.6510  -14.8270   19.8410 H   0  0  0  0  0  0  0  0  0  0  0  0
  -27.8160  -20.6730   16.5150 C   0  0  0  0  0  1  0  0  0  0  0  0
  -29.7780  -20.0310   15.0030 C   0  0  0  0  0  1  0  0  0  0  0  0
  -29.3460  -20.5180   16.3980 C   0  0  0  0  0  3  0  0  0  0  0  0
  -32.5870  -21.8480   18.6740 C   0  0  0  0  0  2  0  0  0  0  0  0
  -32.0680  -23.3560   18.1070 C   0  0  0  0  0  2  0  0  0  0  0  0
  -32.0390  -24.7490   18.8300 O   0  0  0  0  0  0  0  0  0  0  0  0
  -26.5580  -28.3840   22.2030 C   0  0  0  0  0  0  0  0  0  0  0  0
  -30.8860  -25.6200   18.7760 C   0  0  0  0  0  0  0  0  0  0  0  0
  -26.2870  -27.8130   19.8390 C   0  0  0  0  0  3  0  0  0  0  0  0
  -28.3980  -27.1130   18.5610 C   0  0  0  0  0  0  0  0  0  0  0  0
  -28.6360  -28.2340   20.7720 C   0  0  0  0  0  2  0  0  0  0  0  0
  -29.1980  -27.2830   19.6990 C   0  0  0  0  0  0  0  0  0  0  0  0
  -30.4480  -26.5620   19.7960 C   0  0  0  0  0  3  0  0  0  0  0  0
  -30.0540  -25.5690   17.6350 C   0  0  0  0  0  3  0  0  0  0  0  0
  -28.8410  -26.2800   17.5260 C   0  0  0  0  0  3  0  0  0  0  0  0
  -27.0650  -27.8400   18.4980 C   0  0  0  0  0  2  0  0  0  0  0  0
  -27.1580  -28.1390   21.0010 N   0  0  0  0  0  0  0  0  0  0  0  0
  -25.3240  -28.3560   22.3350 O   0  0  0  0  0  0  0  0  0  0  0  0
  -25.5550  -26.4600   19.9840 C   0  0  0  0  0  0  0  0  0  0  0  0
  -24.4470  -26.3720   19.2550 N   0  0  0  0  0  0  0  0  0  0  0  0
  -25.9930  -25.5480   20.6870 O   0  0  0  0  0  0  0  0  0  0  0  0
  -24.1900  -27.2320   18.7850 H   0  0  0  0  0  0  0  0  0  0  0  0
  -21.4250  -24.6840   17.8320 C   0  0  0  0  0  0  0  0  0  0  0  0
  -23.6680  -25.2380   18.8190 C   0  0  0  0  0  3  0  0  0  0  0  0
  -24.2980  -24.0540   18.0740 C   0  0  0  0  0  2  0  0  0  0  0  0
  -23.6430  -23.9600   16.6770 C   0  0  0  0  0  2  0  0  0  0  0  0
  -22.1060  -23.8300   16.7620 C   0  0  0  0  0  2  0  0  0  0  0  0
  -22.1600  -25.2810   18.8860 C   0  0  0  0  0  0  0  0  0  0  0  0
  -21.5010  -26.0560   19.8620 C   0  0  0  0  0  3  0  0  0  0  0  0
  -20.1150  -26.2800   19.7600 C   0  0  0  0  0  3  0  0  0  0  0  0
  -19.3870  -25.7190   18.6960 C   0  0  0  0  0  3  0  0  0  0  0  0
  -20.0360  -24.9100   17.7460 C   0  0  0  0  0  3  0  0  0  0  0  0
  -27.3960  -28.7280   23.4690 C   0  0  0  0  0  3  0  0  0  0  0  0
  -27.6410  -27.4780   24.4000 C   0  0  1  0  0  0  0  0  0  0  0  0
  -26.3520  -26.6990   24.7540 C   0  0  0  0  0  1  0  0  0  0  0  0
  -28.6220  -26.4820   23.7390 C   0  0  0  0  0  1  0  0  0  0  0  0
  -28.3020  -27.9370   25.7210 C   0  0  0  0  0  1  0  0  0  0  0  0
  -26.6810  -29.7840   24.2020 N   0  0  0  0  0  0  0  0  0  0  0  0
  -26.9860  -31.0880   24.1510 C   0  0  0  0  0  0  0  0  0  0  0  0
  -27.9530  -31.5220   23.5210 O   0  0  0  0  0  0  0  0  0  0  0  0
  -25.8450  -29.5050   24.6940 H   0  0  0  0  0  0  0  0  0  0  0  0
  -25.1100  -32.7530   23.9460 C   0  0  0  0  0  1  0  0  0  0  0  0
  -26.0750  -32.0640   24.9240 C   0  0  0  0  0  3  0  0  0  0  0  0
  -27.5470  -32.5380   26.8320 C   0  0  0  0  0  1  0  0  0  0  0  0
  -26.8220  -33.0860   25.6880 N   0  0  0  0  0  0  0  0  0  0  0  0
  -26.1960  -33.8110   26.0280 H   0  0  0  0  0  0  0  0  0  0  0  0
  1  2  2  0
  3  4  1  0
  3  5  2  0
  4  8  1  0
  4  6  1  0
  5  1  1  0
  6 22  1  0
  6  2  1  0
  7  3  1  0
  9 55  1  0
  9  8  1  0
 10  5  1  0
 11 13  1  0
 11  7  1  0
 12  7  2  0
 13  9  1  0
 14 20  1  0
 15 20  1  0
 16 17  1  0
 16 15  1  0
 18 17  1  0
 18 27  1  0
 18 19  1  0
 20 19  1  0
 21 14  2  0
 22 14  1  0
 23 22  1  0
 24 25  2  0
 25 26  1  0
 25 44  1  0
 26 29  1  0
 27 24  1  0
 27 28  1  0
 28 26  2  0
 29 30  1  0
 30 31  2  0
 32 35  1  0
 32 31  1  0
 33 32  2  0
 34 33  1  0
 34 29  2  0
 35 36  1  0
 36 41  2  0
 36 37  1  0
 37 38  2  0
 38 39  1  0
 39 43  1  0
 40 39  2  0
 41 40  1  0
 42 41  1  0
 44 45  1  0
 45 48  1  0
 45 47  1  0
 46 44  2  0
 49 24  1  0
 50 49  1  0
 51 49  1  0
 53 54  1  0
 54 52  1  0
 54 11  1  0
 56 55  1  0
 56 57  1  0
 58 69  2  0
 59 57  1  0
 59 64  1  0
 60 70  1  0
 60 68  1  0
 61 63  1  0
 62 68  1  0
 63 64  2  0
 63 62  1  0
 65 59  2  0
 66 65  1  0
 66 61  2  0
 67 61  1  0
 67 60  1  0
 68 58  1  0
 70 72  2  0
 71 70  1  0
 73 71  1  0
 74 79  1  0
 75 79  1  0
 75 71  1  0
 76 75  1  0
 77 78  1  0
 77 76  1  0
 78 74  1  0
 79 80  2  0
 81 80  1  0
 82 81  2  0
 83 74  2  0
 83 82  1  0
 84 58  1  0
 84 89  1  0
 84 85  1  0
 85 86  1  1
 85 88  1  0
 87 85  1  0
 89 92  1  0
 90 89  1  0
 90 94  1  0
 91 90  2  0
 94 93  1  0
 94 96  1  0
 96 97  1  0
 96 95  1  0
M  ISO  4  14 100  22 100  56 101  57 101
M  END
>  <TORSDO>  (30) 
F 19

>  <SCORE>  (30) 
-8.741

>  <name>  (30) 
30

>  <ligand_id>  (30) 
30

>  <original_smiles>  (30) 
[H]c1c([H])c([H])c2c(c1[H])C([H])([H])C([H])([H])C([H])([H])C2([H])N([H])C(=O)C1([H])N(C(=O)C([H])(N([H])C(=O)C([H])(N([H])C([H])([H])[H])C([H])([H])[H])C(C([H])([H])[H])(C([H])([H])[H])C([H])([H])[H])C([H])([H])c2c([H])c(OC([H])([H])C([H])([H])C3([H])ON(C([H])(C([H])([H])[H])C([H])([H])[H])C(=O)c4c(C([H])([H])[H])c([H])c([H])c(N([H])C(=O)N5C([H])([H])C([H])([H])C([H])([H])C([H])(n6nc(-c7c([H])c([H])c(Oc8c([H])c([H])c(F)c([H])c8F)c([H])c7[H])c(C(=O)N([H])[H])c6N([H])[H])C5([H])[H])c4C3([H])[H])c([H])c([H])c2C1([H])[H]

>  <smiles>  (30) 
[H]c1c([H])c([H])c2c(c1[H])C([H])([H])C([H])([H])C([H])([H])C2([H])N([H])C(=O)C1([H])N(C(=O)C([H])(N([H])C(=O)C([H])(N([H])C([H])([H])[H])C([H])([H])[H])C(C([H])([H])[H])(C([H])([H])[H])C([H])([H])[H])C([H])([H])c2c([H])c(OC([H])([H])C([H])([H])C3([H])ON(C([H])(C([H])([H])[H])C([H])([H])[H])C(=O)c4c(C([H])([H])[H])c([H])c([H])c(N([H])C(=O)N5C([H])([H])C([H])([H])C([H])([H])C([H])(n6nc(-c7c([H])c([H])c(Oc8c([H])c([H])c(F)c([H])c8F)c([H])c7[H])c(C(=O)N([H])[H])c6N([H])[H])C5([H])[H])c4C3([H])[H])c([H])c([H])c2C1([H])[H]

$$$$
31:0:0
     RDKit          3D

 97106  0  0  1  0  0  0  0  0999 V2000
  -29.5640  -21.4590   20.8380 C   0  0  0  0  0  3  0  0  0  0  0  0
  -28.6580  -22.1890   18.9510 C   0  0  0  0  0  3  0  0  0  0  0  0
  -29.1470  -22.6560   20.1380 C   0  0  0  0  0  0  0  0  0  0  0  0
  -29.3680  -20.3300   20.0570 C   0  0  0  0  0  0  0  0  0  0  0  0
  -28.7850  -20.8080   18.8790 N   0  0  0  0  0  0  0  0  0  0  0  0
  -30.7350  -14.6610   20.4280 C   0  0  0  0  0  0  0  0  0  0  0  0
  -30.3940  -12.4440   19.3610 C   0  0  0  0  0  2  0  0  0  0  0  0
  -29.4640  -12.5510   18.1380 C   0  0  0  0  0  2  0  0  0  0  0  0
  -27.9990  -12.3680   18.5690 C   0  0  0  0  0  2  0  0  0  0  0  0
  -27.6290  -13.2520   19.7870 C   0  0  0  0  0  3  0  0  0  0  0  0
  -28.6940  -13.1750   20.9110 C   0  0  0  0  0  2  0  0  0  0  0  0
  -29.9940  -13.5060   20.3140 N   0  0  0  0  0  0  0  0  0  0  0  0
  -31.9190  -14.6350   20.0810 O   0  0  0  0  0  0  0  0  0  0  0  0
  -30.6690  -18.4380   21.3540 C   0  0  0  0  0  2  0  0  0  0  0  0
  -28.5180  -17.8790   20.4780 C   0  0  0  0  0  2  0  0  0  0  0  0
  -31.1490  -16.9500   21.2620 C   0  0  0  0  0  2  0  0  0  0  0  0
  -28.8680  -16.3610   20.3440 C   0  0  0  0  0  2  0  0  0  0  0  0
  -29.7050  -18.8260   20.2280 C   0  0  0  0  0  3  0  0  0  0  0  0
  -30.1880  -15.8760   20.8310 N   0  0  0  0  0  0  0  0  0  0  0  0
  -25.2410  -13.8530   20.5080 C   0  0  0  0  0  0  0  0  0  0  0  0
  -24.1760  -13.0790   20.8790 C   0  0  0  0  0  0  0  0  0  0  0  0
  -24.6430  -11.7290   20.8550 C   0  0  0  0  0  0  0  0  0  0  0  0
  -26.2870  -12.9720   20.2810 N   0  0  0  0  0  0  0  0  0  0  0  0
  -25.9340  -11.6910   20.5510 N   0  0  0  0  0  0  0  0  0  0  0  0
  -23.9200  -10.4660   21.0450 C   0  0  0  0  0  0  0  0  0  0  0  0
  -24.3570   -9.5000   21.9760 C   0  0  0  0  0  3  0  0  0  0  0  0
  -23.6340   -8.3000   22.1540 C   0  0  0  0  0  3  0  0  0  0  0  0
  -22.4610   -8.0600   21.3990 C   0  0  0  0  0  0  0  0  0  0  0  0
  -22.0460   -9.0160   20.4550 C   0  0  0  0  0  3  0  0  0  0  0  0
  -22.7690  -10.2070   20.2750 C   0  0  0  0  0  3  0  0  0  0  0  0
  -21.7090   -6.9150   21.4860 O   0  0  0  0  0  0  0  0  0  0  0  0
  -21.6620   -6.1710   22.6380 C   0  0  0  0  0  0  0  0  0  0  0  0
  -21.2240   -6.7220   23.8620 C   0  0  0  0  0  3  0  0  0  0  0  0
  -21.1260   -5.9040   25.0070 C   0  0  0  0  0  3  0  0  0  0  0  0
  -21.4560   -4.5380   24.9270 C   0  0  0  0  0  0  0  0  0  0  0  0
  -21.8880   -3.9870   23.7070 C   0  0  0  0  0  3  0  0  0  0  0  0
  -21.9880   -4.8020   22.5650 C   0  0  0  0  0  0  0  0  0  0  0  0
  -22.3850   -4.2620   21.3880 F   0  0  0  0  0  0  0  0  0  0  0  0
  -21.3540   -3.7500   26.0230 F   0  0  0  0  0  0  0  0  0  0  0  0
  -22.7770  -13.5530   21.1420 C   0  0  0  0  0  0  0  0  0  0  0  0
  -22.0470  -12.8580   22.0070 N   0  0  0  0  0  0  0  0  0  0  0  0
  -22.3390  -14.5770   20.6170 O   0  0  0  0  0  0  0  0  0  0  0  0
  -22.4160  -12.0320   22.4540 H   0  0  0  0  0  0  0  0  0  0  0  0
  -21.1080  -13.1570   22.2280 H   0  0  0  0  0  0  0  0  0  0  0  0
  -25.3950  -15.2230   20.3210 N   0  0  0  0  0  0  0  0  0  0  0  0
  -24.6190  -15.8660   20.4270 H   0  0  0  0  0  0  0  0  0  0  0  0
  -26.2370  -15.6690   19.9830 H   0  0  0  0  0  0  0  0  0  0  0  0
  -29.2970  -20.3730   16.5020 C   0  0  0  0  0  1  0  0  0  0  0  0
  -26.9080  -20.2320   17.3750 C   0  0  0  0  0  1  0  0  0  0  0  0
  -28.3960  -20.0320   17.6990 C   0  0  0  0  0  3  0  0  0  0  0  0
  -29.2710  -24.1520   20.5580 C   0  0  0  0  0  3  0  0  0  0  0  0
  -30.6160  -24.6240   20.1960 N   0  0  0  0  0  4  0  0  0  0  0  0
  -30.7550  -24.5880   19.2020 H   0  0  0  0  0  0  0  0  0  0  0  0
  -31.3150  -24.0540   20.6380 H   0  0  0  0  0  0  0  0  0  0  0  0
  -30.7380  -25.5760   20.5010 H   0  0  0  0  0  0  0  0  0  0  0  0
  -28.1840  -25.1340   19.9730 C   0  0  0  0  0  2  0  0  0  0  0  0
  -28.3480  -26.5670   20.2620 O   0  0  0  0  0  0  0  0  0  0  0  0
  -24.6130  -31.9210   23.2340 C   0  0  0  0  0  0  0  0  0  0  0  0
  -27.2160  -27.3830   20.1840 C   0  0  0  0  0  0  0  0  0  0  0  0
  -23.4010  -30.5220   21.5980 C   0  0  0  0  0  3  0  0  0  0  0  0
  -24.8460  -28.9720   20.1720 C   0  0  0  0  0  0  0  0  0  0  0  0
  -25.9380  -30.8430   21.4090 C   0  0  0  0  0  2  0  0  0  0  0  0
  -26.0130  -29.4680   20.7670 C   0  0  0  0  0  0  0  0  0  0  0  0
  -27.1990  -28.6820   20.7690 C   0  0  0  0  0  3  0  0  0  0  0  0
  -26.0280  -26.9390   19.5520 C   0  0  0  0  0  3  0  0  0  0  0  0
  -24.8550  -27.7120   19.5570 C   0  0  0  0  0  3  0  0  0  0  0  0
  -23.6100  -29.8440   20.2190 C   0  0  0  0  0  2  0  0  0  0  0  0
  -24.6700  -31.1120   22.1370 N   0  0  0  0  0  0  0  0  0  0  0  0
  -23.5310  -32.2020   23.7700 O   0  0  0  0  0  0  0  0  0  0  0  0
  -22.7410  -29.5070   22.5600 C   0  0  0  0  0  0  0  0  0  0  0  0
  -21.4140  -29.3360   22.4370 N   0  0  0  0  0  0  0  0  0  0  0  0
  -23.4200  -28.8760   23.3760 O   0  0  0  0  0  0  0  0  0  0  0  0
  -20.9270  -29.8970   21.7520 H   0  0  0  0  0  0  0  0  0  0  0  0
  -18.0290  -28.1740   22.9560 C   0  0  0  0  0  0  0  0  0  0  0  0
  -20.5920  -28.4060   23.2110 C   0  0  0  0  0  3  0  0  0  0  0  0
  -20.6750  -26.9740   22.6330 C   0  0  0  0  0  2  0  0  0  0  0  0
  -19.5640  -26.6650   21.6250 C   0  0  0  0  0  2  0  0  0  0  0  0
  -18.1880  -26.8240   22.2770 C   0  0  0  0  0  2  0  0  0  0  0  0
  -19.1580  -28.9240   23.3810 C   0  0  0  0  0  0  0  0  0  0  0  0
  -18.9570  -30.1880   23.9740 C   0  0  0  0  0  3  0  0  0  0  0  0
  -17.6580  -30.7040   24.1490 C   0  0  0  0  0  3  0  0  0  0  0  0
  -16.5440  -29.9510   23.7400 C   0  0  0  0  0  3  0  0  0  0  0  0
  -16.7300  -28.6870   23.1500 C   0  0  0  0  0  3  0  0  0  0  0  0
  -25.9010  -32.5490   23.8520 C   0  0  0  0  0  3  0  0  0  0  0  0
  -26.4230  -31.7710   25.1210 C   0  0  1  0  0  0  0  0  0  0  0  0
  -25.3360  -31.5240   26.1920 C   0  0  0  0  0  1  0  0  0  0  0  0
  -27.0060  -30.3960   24.7170 C   0  0  0  0  0  1  0  0  0  0  0  0
  -27.5760  -32.5620   25.7830 C   0  0  0  0  0  1  0  0  0  0  0  0
  -25.5930  -33.9450   24.1910 N   0  0  0  0  0  0  0  0  0  0  0  0
  -25.9130  -35.0020   23.4310 C   0  0  0  0  0  0  0  0  0  0  0  0
  -26.5680  -34.9020   22.3900 O   0  0  0  0  0  0  0  0  0  0  0  0
  -25.0100  -34.0970   25.0010 H   0  0  0  0  0  0  0  0  0  0  0  0
  -24.1750  -36.7900   23.1070 C   0  0  0  0  0  1  0  0  0  0  0  0
  -25.4280  -36.3870   23.8990 C   0  0  0  0  0  3  0  0  0  0  0  0
  -27.5710  -37.2760   24.7030 C   0  0  0  0  0  1  0  0  0  0  0  0
  -26.4570  -37.4430   23.7740 N   0  0  0  0  0  0  0  0  0  0  0  0
  -26.0500  -38.3620   23.9270 H   0  0  0  0  0  0  0  0  0  0  0  0
  2  3  2  0
  3 51  1  0
  3  1  1  0
  4  1  2  0
  5  2  1  0
  5  4  1  0
  6 19  1  0
  7 12  1  0
  8  9  1  0
  8  7  1  0
 10  9  1  0
 10 23  1  0
 10 11  1  0
 12  6  1  0
 12 11  1  0
 13  6  2  0
 16 14  1  0
 17 15  1  0
 17 19  1  0
 18  4  1  0
 18 15  1  0
 18 14  1  0
 19 16  1  0
 20 21  2  0
 21 40  1  0
 22 21  1  0
 22 25  1  0
 23 20  1  0
 23 24  1  0
 24 22  2  0
 25 26  1  0
 26 27  2  0
 28 31  1  0
 28 27  1  0
 29 28  2  0
 30 29  1  0
 30 25  2  0
 31 32  1  0
 32 33  1  0
 33 34  2  0
 35 34  1  0
 35 39  1  0
 36 35  2  0
 37 32  2  0
 37 36  1  0
 38 37  1  0
 40 41  1  0
 41 44  1  0
 41 43  1  0
 42 40  2  0
 45 46  1  0
 45 20  1  0
 47 45  1  0
 48 50  1  0
 49 50  1  0
 50  5  1  0
 51 56  1  0
 52 55  1  0
 52 51  1  0
 52 54  1  0
 53 52  1  0
 56 57  1  0
 58 69  2  0
 59 57  1  0
 59 64  1  0
 60 68  1  0
 60 70  1  0
 61 67  1  0
 61 63  1  0
 62 68  1  0
 63 64  2  0
 63 62  1  0
 65 66  1  0
 65 59  2  0
 66 61  2  0
 67 60  1  0
 68 58  1  0
 70 72  2  0
 71 70  1  0
 73 71  1  0
 74 83  2  0
 74 79  1  0
 75 71  1  0
 75 79  1  0
 76 75  1  0
 77 78  1  0
 77 76  1  0
 78 74  1  0
 79 80  2  0
 80 81  1  0
 82 81  2  0
 83 82  1  0
 84 58  1  0
 84 89  1  0
 84 85  1  0
 85 88  1  1
 85 86  1  0
 87 85  1  0
 89 92  1  0
 90 94  1  0
 90 89  1  0
 91 90  2  0
 94 93  1  0
 96 94  1  0
 96 97  1  0
 96 95  1  0
M  ISO  4   6 100  19 100  56 101  57 101
M  END
>  <TORSDO>  (31) 
F 20

>  <SCORE>  (31) 
-14.606

>  <name>  (31) 
31

>  <ligand_id>  (31) 
31

>  <original_smiles>  (31) 
[H]c1c([H])c([H])c2c(c1[H])C([H])([H])C([H])([H])C([H])([H])C2([H])N([H])C(=O)C1([H])N(C(=O)C([H])(N([H])C(=O)C([H])(N([H])C([H])([H])[H])C([H])([H])[H])C(C([H])([H])[H])(C([H])([H])[H])C([H])([H])[H])C([H])([H])c2c([H])c(OC([H])([H])C([H])(c3c([H])c(C4([H])C([H])([H])C([H])([H])N(C(=O)N5C([H])([H])C([H])([H])C([H])([H])C([H])(n6nc(-c7c([H])c([H])c(Oc8c([H])c([H])c(F)c([H])c8F)c([H])c7[H])c(C(=O)N([H])[H])c6N([H])[H])C5([H])[H])C([H])([H])C4([H])[H])n(C([H])(C([H])([H])[H])C([H])([H])[H])c3[H])[N+]([H])([H])[H])c([H])c([H])c2C1([H])[H]

>  <smiles>  (31) 
[H]c1c([H])c([H])c2c(c1[H])C([H])([H])C([H])([H])C([H])([H])C2([H])N([H])C(=O)C1([H])N(C(=O)C([H])(N([H])C(=O)C([H])(N([H])C([H])([H])[H])C([H])([H])[H])C(C([H])([H])[H])(C([H])([H])[H])C([H])([H])[H])C([H])([H])c2c([H])c(OC([H])([H])C([H])(c3c([H])c(C4([H])C([H])([H])C([H])([H])N(C(=O)N5C([H])([H])C([H])([H])C([H])([H])C([H])(n6nc(-c7c([H])c([H])c(Oc8c([H])c([H])c(F)c([H])c8F)c([H])c7[H])c(C(=O)N([H])[H])c6N([H])[H])C5([H])[H])C([H])([H])C4([H])[H])n(C([H])(C([H])([H])[H])C([H])([H])[H])c3[H])[N+]([H])([H])[H])c([H])c([H])c2C1([H])[H]

$$$$
32:0:0
     RDKit          3D

 96104  0  0  1  0  0  0  0  0999 V2000
  -29.6040  -21.8570   19.8100 N   0  0  0  0  0  4  0  0  0  0  0  0
  -30.5060  -21.9100   19.3660 H   0  0  0  0  0  0  0  0  0  0  0  0
  -28.9160  -21.9090   19.0750 H   0  0  0  0  0  0  0  0  0  0  0  0
  -30.3280  -24.2190   20.2010 C   0  0  0  0  0  2  0  0  0  0  0  0
  -27.9620  -23.5640   20.7140 C   0  0  0  0  0  2  0  0  0  0  0  0
  -30.1830  -25.4820   21.0800 C   0  0  0  0  0  2  0  0  0  0  0  0
  -27.8060  -24.8110   21.6120 C   0  0  0  0  0  2  0  0  0  0  0  0
  -29.4250  -23.0560   20.6790 C   0  0  0  0  0  3  0  0  0  0  0  0
  -28.7290  -25.9830   21.1970 C   0  0  0  0  0  3  0  0  0  0  0  0
  -28.3330  -26.5770   19.9550 O   0  0  0  0  0  0  0  0  0  0  0  0
  -24.4900  -31.6780   23.1620 C   0  0  0  0  0  0  0  0  0  0  0  0
  -27.1840  -27.3340   20.0030 C   0  0  0  0  0  0  0  0  0  0  0  0
  -23.2970  -30.2910   21.4950 C   0  0  0  0  0  3  0  0  0  0  0  0
  -24.7700  -28.7970   20.0410 C   0  0  0  0  0  0  0  0  0  0  0  0
  -25.8160  -30.6860   21.3020 C   0  0  0  0  0  2  0  0  0  0  0  0
  -25.9190  -29.3270   20.6440 C   0  0  0  0  0  0  0  0  0  0  0  0
  -27.1300  -28.5980   20.6320 C   0  0  0  0  0  3  0  0  0  0  0  0
  -26.0270  -26.8220   19.3840 C   0  0  0  0  0  3  0  0  0  0  0  0
  -24.8170  -27.5410   19.4100 C   0  0  0  0  0  3  0  0  0  0  0  0
  -23.5140  -29.6380   20.1030 C   0  0  0  0  0  2  0  0  0  0  0  0
  -24.5520  -30.8990   22.0450 N   0  0  0  0  0  0  0  0  0  0  0  0
  -23.4060  -31.9280   23.7080 O   0  0  0  0  0  0  0  0  0  0  0  0
  -22.6590  -29.2460   22.4370 C   0  0  0  0  0  0  0  0  0  0  0  0
  -21.3400  -29.0390   22.2950 N   0  0  0  0  0  0  0  0  0  0  0  0
  -23.3490  -28.6240   23.2500 O   0  0  0  0  0  0  0  0  0  0  0  0
  -20.8450  -29.5940   21.6110 H   0  0  0  0  0  0  0  0  0  0  0  0
  -17.9920  -27.7520   22.7210 C   0  0  0  0  0  0  0  0  0  0  0  0
  -20.5360  -28.0760   23.0450 C   0  0  0  0  0  3  0  0  0  0  0  0
  -20.6880  -26.6510   22.4650 C   0  0  0  0  0  2  0  0  0  0  0  0
  -19.6150  -26.3040   21.4270 C   0  0  0  0  0  2  0  0  0  0  0  0
  -18.2180  -26.4100   22.0450 C   0  0  0  0  0  2  0  0  0  0  0  0
  -19.0810  -28.5410   23.1780 C   0  0  0  0  0  0  0  0  0  0  0  0
  -18.8180  -29.7950   23.7670 C   0  0  0  0  0  3  0  0  0  0  0  0
  -17.4970  -30.2630   23.9090 C   0  0  0  0  0  3  0  0  0  0  0  0
  -16.4220  -29.4700   23.4710 C   0  0  0  0  0  3  0  0  0  0  0  0
  -16.6700  -28.2170   22.8830 C   0  0  0  0  0  3  0  0  0  0  0  0
  -25.7700  -32.3100   23.7910 C   0  0  0  0  0  3  0  0  0  0  0  0
  -25.4430  -33.6930   24.1630 N   0  0  0  0  0  0  0  0  0  0  0  0
  -25.7620  -34.7710   23.4340 C   0  0  0  0  0  0  0  0  0  0  0  0
  -26.4330  -34.7060   22.4000 O   0  0  0  0  0  0  0  0  0  0  0  0
  -24.8480  -33.8180   24.9690 H   0  0  0  0  0  0  0  0  0  0  0  0
  -24.0150  -36.5530   23.1190 C   0  0  0  0  0  1  0  0  0  0  0  0
  -25.2540  -36.1390   23.9290 C   0  0  0  0  0  3  0  0  0  0  0  0
  -27.3700  -37.0220   24.8080 C   0  0  0  0  0  1  0  0  0  0  0  0
  -26.2750  -37.2060   23.8580 N   0  0  0  0  0  0  0  0  0  0  0  0
  -25.8570  -38.1170   24.0310 H   0  0  0  0  0  0  0  0  0  0  0  0
  -26.3110  -31.5090   25.0390 C   0  0  1  0  0  0  0  0  0  0  0  0
  -25.2290  -31.2070   26.1010 C   0  0  0  0  0  1  0  0  0  0  0  0
  -26.9280  -30.1610   24.5960 C   0  0  0  0  0  1  0  0  0  0  0  0
  -27.4430  -32.3090   25.7260 C   0  0  0  0  0  1  0  0  0  0  0  0
  -28.4160  -19.6790   19.7320 C   0  0  0  0  0  1  0  0  0  0  0  0
  -29.4870  -20.5160   20.4540 C   0  0  0  0  0  3  0  0  0  0  0  0
  -30.8430  -19.7520   20.5020 C   0  0  0  0  0  2  0  0  0  0  0  0
  -31.2400  -17.3370   21.3130 C   0  0  0  0  0  3  0  0  0  0  0  0
  -30.9090  -18.6290   21.5480 C   0  0  0  0  0  0  0  0  0  0  0  0
  -30.5980  -19.0700   22.9710 C   0  0  0  0  0  1  0  0  0  0  0  0
  -33.1410  -16.7240   19.8070 C   0  0  0  0  0  1  0  0  0  0  0  0
  -31.6150  -16.6550   20.0000 C   0  0  0  0  0  3  0  0  0  0  0  0
  -31.6110  -14.2070   19.3310 C   0  0  0  0  0  0  0  0  0  0  0  0
  -31.0790  -11.9310   18.5280 C   0  0  0  0  0  2  0  0  0  0  0  0
  -30.0210  -12.0040   17.4080 C   0  0  0  0  0  2  0  0  0  0  0  0
  -28.5970  -12.0270   17.9980 C   0  0  0  0  0  2  0  0  0  0  0  0
  -28.4380  -13.0720   19.1350 C   0  0  0  0  0  3  0  0  0  0  0  0
  -29.5890  -12.9430   20.1580 C   0  0  0  0  0  2  0  0  0  0  0  0
  -30.8660  -13.0730   19.4310 N   0  0  0  0  0  0  0  0  0  0  0  0
  -32.6150  -14.2910   18.6170 O   0  0  0  0  0  0  0  0  0  0  0  0
  -31.1400  -15.2610   20.0210 N   0  0  0  0  0  0  0  0  0  0  0  0
  -30.3120  -15.0750   20.5650 H   0  0  0  0  0  0  0  0  0  0  0  0
  -26.2660  -13.9760   20.1820 C   0  0  0  0  0  0  0  0  0  0  0  0
  -25.1480  -13.3430   20.6590 C   0  0  0  0  0  0  0  0  0  0  0  0
  -25.3920  -11.9440   20.5050 C   0  0  0  0  0  0  0  0  0  0  0  0
  -27.1290  -12.9690   19.7760 N   0  0  0  0  0  0  0  0  0  0  0  0
  -26.6110  -11.7380   20.0230 N   0  0  0  0  0  0  0  0  0  0  0  0
  -24.5140  -10.7890   20.7380 C   0  0  0  0  0  0  0  0  0  0  0  0
  -24.8710   -9.7600   21.6360 C   0  0  0  0  0  3  0  0  0  0  0  0
  -24.0020   -8.6700   21.8550 C   0  0  0  0  0  3  0  0  0  0  0  0
  -22.7620   -8.6020   21.1760 C   0  0  0  0  0  0  0  0  0  0  0  0
  -22.4230   -9.6170   20.2670 C   0  0  0  0  0  3  0  0  0  0  0  0
  -23.2910  -10.7000   20.0450 C   0  0  0  0  0  3  0  0  0  0  0  0
  -21.8670   -7.5670   21.3080 O   0  0  0  0  0  0  0  0  0  0  0  0
  -21.7420   -6.8670   22.4810 C   0  0  0  0  0  0  0  0  0  0  0  0
  -21.4060   -7.5030   23.6960 C   0  0  0  0  0  3  0  0  0  0  0  0
  -21.2200   -6.7350   24.8630 C   0  0  0  0  0  3  0  0  0  0  0  0
  -21.3600   -5.3350   24.8160 C   0  0  0  0  0  0  0  0  0  0  0  0
  -21.6900   -4.7010   23.6050 C   0  0  0  0  0  3  0  0  0  0  0  0
  -21.8770   -5.4640   22.4410 C   0  0  0  0  0  0  0  0  0  0  0  0
  -22.1740   -4.8460   21.2730 F   0  0  0  0  0  0  0  0  0  0  0  0
  -21.1740   -4.5970   25.9360 F   0  0  0  0  0  0  0  0  0  0  0  0
  -23.8860  -13.9980   21.1400 C   0  0  0  0  0  0  0  0  0  0  0  0
  -23.2000  -13.3790   22.0960 N   0  0  0  0  0  0  0  0  0  0  0  0
  -23.5260  -15.0900   20.7050 O   0  0  0  0  0  0  0  0  0  0  0  0
  -23.5070  -12.4920   22.4680 H   0  0  0  0  0  0  0  0  0  0  0  0
  -22.3570  -13.7980   22.4600 H   0  0  0  0  0  0  0  0  0  0  0  0
  -26.6120  -15.3160   20.0450 N   0  0  0  0  0  0  0  0  0  0  0  0
  -25.9770  -16.0670   20.2870 H   0  0  0  0  0  0  0  0  0  0  0  0
  -27.4770  -15.6460   19.6340 H   0  0  0  0  0  0  0  0  0  0  0  0
  1 52  1  0
  2  1  1  0
  3  1  1  0
  4  8  1  0
  4  6  1  0
  5  7  1  0
  6  9  1  0
  8  1  1  0
  8  5  1  0
  9 10  1  0
  9  7  1  0
 10 12  1  0
 11 22  2  0
 12 17  1  0
 13 21  1  0
 13 23  1  0
 14 20  1  0
 14 16  1  0
 15 21  1  0
 16 15  1  0
 17 16  2  0
 18 19  1  0
 18 12  2  0
 19 14  2  0
 20 13  1  0
 21 11  1  0
 23 25  2  0
 24 23  1  0
 26 24  1  0
 27 36  2  0
 27 32  1  0
 28 24  1  0
 28 32  1  0
 29 28  1  0
 30 31  1  0
 30 29  1  0
 31 27  1  0
 32 33  2  0
 33 34  1  0
 35 34  2  0
 36 35  1  0
 37 11  1  0
 37 38  1  0
 37 47  1  0
 38 41  1  0
 39 43  1  0
 39 38  1  0
 40 39  2  0
 43 42  1  0
 45 43  1  0
 45 46  1  0
 45 44  1  0
 47 50  1  1
 47 48  1  0
 49 47  1  0
 52 51  1  0
 52 53  1  0
 53 55  1  0
 54 55  2  0
 55 56  1  0
 58 57  1  0
 58 67  1  0
 58 54  1  0
 59 65  1  0
 59 67  1  0
 60 65  1  0
 61 62  1  0
 61 60  1  0
 63 62  1  0
 63 72  1  0
 63 64  1  0
 65 64  1  0
 66 59  2  0
 67 68  1  0
 69 70  2  0
 70 89  1  0
 71 70  1  0
 71 74  1  0
 72 73  1  0
 72 69  1  0
 73 71  2  0
 74 75  1  0
 75 76  2  0
 77 80  1  0
 77 76  1  0
 78 77  2  0
 79 78  1  0
 79 74  2  0
 80 81  1  0
 81 82  1  0
 82 83  2  0
 84 83  1  0
 84 88  1  0
 85 84  2  0
 86 81  2  0
 86 85  1  0
 87 86  1  0
 89 90  1  0
 90 93  1  0
 90 92  1  0
 91 89  2  0
 94 69  1  0
 94 95  1  0
 96 94  1  0
M  ISO  4   9 101  10 101  59 100  67 100
M  END
>  <TORSDO>  (32) 
F 21

>  <SCORE>  (32) 
-11.908

>  <name>  (32) 
32

>  <ligand_id>  (32) 
32

>  <original_smiles>  (32) 
[H]C(=C(C([H])([H])[H])C([H])([H])C([H])(C([H])([H])[H])[N+]([H])([H])C1([H])C([H])([H])C([H])([H])C([H])(Oc2c([H])c([H])c3c(c2[H])C([H])([H])N(C(=O)C([H])(N([H])C(=O)C([H])(N([H])C([H])([H])[H])C([H])([H])[H])C(C([H])([H])[H])(C([H])([H])[H])C([H])([H])[H])C([H])(C(=O)N([H])C2([H])c4c([H])c([H])c([H])c([H])c4C([H])([H])C([H])([H])C2([H])[H])C3([H])[H])C([H])([H])C1([H])[H])C([H])(N([H])C(=O)N1C([H])([H])C([H])([H])C([H])([H])C([H])(n2nc(-c3c([H])c([H])c(Oc4c([H])c([H])c(F)c([H])c4F)c([H])c3[H])c(C(=O)N([H])[H])c2N([H])[H])C1([H])[H])C([H])([H])[H]

>  <smiles>  (32) 
[H]C(=C(C([H])([H])[H])C([H])([H])C([H])(C([H])([H])[H])[N+]([H])([H])C1([H])C([H])([H])C([H])([H])C([H])(Oc2c([H])c([H])c3c(c2[H])C([H])([H])N(C(=O)C([H])(N([H])C(=O)C([H])(N([H])C([H])([H])[H])C([H])([H])[H])C(C([H])([H])[H])(C([H])([H])[H])C([H])([H])[H])C([H])(C(=O)N([H])C2([H])c4c([H])c([H])c([H])c([H])c4C([H])([H])C([H])([H])C2([H])[H])C3([H])[H])C([H])([H])C1([H])[H])C([H])(N([H])C(=O)N1C([H])([H])C([H])([H])C([H])([H])C([H])(n2nc(-c3c([H])c([H])c(Oc4c([H])c([H])c(F)c([H])c4F)c([H])c3[H])c(C(=O)N([H])[H])c2N([H])[H])C1([H])[H])C([H])([H])[H]

$$$$
33:0:0
     RDKit          3D

 90 98  0  0  1  0  0  0  0  0999 V2000
  -28.9910  -21.6310   20.2490 C   0  0  0  0  0  3  0  0  0  0  0  0
  -32.0590  -19.9220   21.6980 C   0  0  0  0  0  3  0  0  0  0  0  0
  -31.4020  -18.7330   21.3490 C   0  0  0  0  0  3  0  0  0  0  0  0
  -31.3000  -20.9770   21.2960 C   0  0  0  0  0  0  0  0  0  0  0  0
  -30.2380  -19.0190   20.6960 C   0  0  0  0  0  0  0  0  0  0  0  0
  -31.7730  -22.3850   21.4840 C   0  0  0  0  0  1  0  0  0  0  0  0
  -30.0820  -20.5390   20.7100 N   0  0  0  0  0  0  0  0  0  0  0  0
  -29.5010  -17.6960   20.0980 C   0  0  0  0  0  2  0  0  0  0  0  0
  -30.4630  -15.0180   20.2870 C   0  0  0  0  0  0  0  0  0  0  0  0
  -30.3580  -12.6500   19.3680 C   0  0  0  0  0  2  0  0  0  0  0  0
  -29.4120  -12.5940   18.1440 C   0  0  0  0  0  2  0  0  0  0  0  0
  -27.9540  -12.3730   18.5830 C   0  0  0  0  0  2  0  0  0  0  0  0
  -27.5550  -13.2850   19.7740 C   0  0  0  0  0  3  0  0  0  0  0  0
  -28.6230  -13.3070   20.8920 C   0  0  0  0  0  2  0  0  0  0  0  0
  -29.8910  -13.7390   20.2820 N   0  0  0  0  0  0  0  0  0  0  0  0
  -31.6240  -15.1060   19.8750 O   0  0  0  0  0  0  0  0  0  0  0  0
  -29.6800  -16.1780   20.5860 N   0  0  0  0  0  0  0  0  0  0  0  0
  -28.8400  -15.8880   21.0620 H   0  0  0  0  0  0  0  0  0  0  0  0
  -25.1830  -13.8470   20.5470 C   0  0  0  0  0  0  0  0  0  0  0  0
  -24.1250  -13.0660   20.9250 C   0  0  0  0  0  0  0  0  0  0  0  0
  -24.5920  -11.7180   20.8760 C   0  0  0  0  0  0  0  0  0  0  0  0
  -26.2240  -12.9740   20.2850 N   0  0  0  0  0  0  0  0  0  0  0  0
  -25.8790  -11.6870   20.5490 N   0  0  0  0  0  0  0  0  0  0  0  0
  -23.8690  -10.4530   21.0680 C   0  0  0  0  0  0  0  0  0  0  0  0
  -24.3190   -9.4740   21.9820 C   0  0  0  0  0  3  0  0  0  0  0  0
  -23.5930   -8.2750   22.1610 C   0  0  0  0  0  3  0  0  0  0  0  0
  -22.4050   -8.0490   21.4290 C   0  0  0  0  0  0  0  0  0  0  0  0
  -21.9740   -9.0160   20.5040 C   0  0  0  0  0  3  0  0  0  0  0  0
  -22.6990  -10.2050   20.3210 C   0  0  0  0  0  3  0  0  0  0  0  0
  -21.6480   -6.9050   21.5200 O   0  0  0  0  0  0  0  0  0  0  0  0
  -21.6280   -6.1440   22.6610 C   0  0  0  0  0  0  0  0  0  0  0  0
  -21.2340   -6.6800   23.9070 C   0  0  0  0  0  3  0  0  0  0  0  0
  -21.1600   -5.8460   25.0410 C   0  0  0  0  0  3  0  0  0  0  0  0
  -21.4710   -4.4770   24.9310 C   0  0  0  0  0  0  0  0  0  0  0  0
  -21.8600   -3.9410   23.6900 C   0  0  0  0  0  3  0  0  0  0  0  0
  -21.9340   -4.7710   22.5580 C   0  0  0  0  0  0  0  0  0  0  0  0
  -22.2880   -4.2460   21.3610 F   0  0  0  0  0  0  0  0  0  0  0  0
  -21.3940   -3.6730   26.0170 F   0  0  0  0  0  0  0  0  0  0  0  0
  -22.7310  -13.5410   21.2200 C   0  0  0  0  0  0  0  0  0  0  0  0
  -22.0140  -12.8360   22.0880 N   0  0  0  0  0  0  0  0  0  0  0  0
  -22.2880  -14.5700   20.7140 O   0  0  0  0  0  0  0  0  0  0  0  0
  -22.3880  -12.0040   22.5200 H   0  0  0  0  0  0  0  0  0  0  0  0
  -21.0790  -13.1330   22.3250 H   0  0  0  0  0  0  0  0  0  0  0  0
  -25.3400  -15.2200   20.3780 N   0  0  0  0  0  0  0  0  0  0  0  0
  -24.5680  -15.8680   20.4930 H   0  0  0  0  0  0  0  0  0  0  0  0
  -26.1760  -15.6630   20.0190 H   0  0  0  0  0  0  0  0  0  0  0  0
  -29.1020  -23.3440   20.4580 C   0  0  0  0  0  3  0  0  0  0  0  0
  -26.9250  -24.3000   21.4630 C   0  0  0  0  0  1  0  0  0  0  0  0
  -27.9290  -24.5630   20.3190 C   0  0  0  0  0  3  0  0  0  0  0  0
  -28.2020  -26.1150   20.3170 O   0  0  0  0  0  0  0  0  0  0  0  0
  -24.6210  -31.8810   23.2130 C   0  0  0  0  0  0  0  0  0  0  0  0
  -27.1650  -27.1240   20.2110 C   0  0  0  0  0  0  0  0  0  0  0  0
  -23.4120  -30.4880   21.5760 C   0  0  0  0  0  3  0  0  0  0  0  0
  -24.8550  -28.8990   20.1530 C   0  0  0  0  0  0  0  0  0  0  0  0
  -25.9690  -30.7300   21.4160 C   0  0  0  0  0  2  0  0  0  0  0  0
  -26.0330  -29.3340   20.7700 C   0  0  0  0  0  0  0  0  0  0  0  0
  -27.1870  -28.4600   20.7870 C   0  0  0  0  0  3  0  0  0  0  0  0
  -25.9710  -26.8080   19.5260 C   0  0  0  0  0  3  0  0  0  0  0  0
  -24.8380  -27.6510   19.5140 C   0  0  0  0  0  3  0  0  0  0  0  0
  -23.6320  -29.8060   20.1980 C   0  0  0  0  0  2  0  0  0  0  0  0
  -24.6870  -31.0550   22.1220 N   0  0  0  0  0  0  0  0  0  0  0  0
  -23.5370  -32.1760   23.7390 O   0  0  0  0  0  0  0  0  0  0  0  0
  -22.7280  -29.4880   22.5420 C   0  0  0  0  0  0  0  0  0  0  0  0
  -21.3970  -29.3290   22.4200 N   0  0  0  0  0  0  0  0  0  0  0  0
  -23.3960  -28.8580   23.3660 O   0  0  0  0  0  0  0  0  0  0  0  0
  -20.9140  -29.8890   21.7310 H   0  0  0  0  0  0  0  0  0  0  0  0
  -18.0090  -28.1590   22.9330 C   0  0  0  0  0  0  0  0  0  0  0  0
  -20.5700  -28.4000   23.1980 C   0  0  0  0  0  3  0  0  0  0  0  0
  -20.6580  -26.9640   22.6280 C   0  0  0  0  0  2  0  0  0  0  0  0
  -19.5520  -26.6480   21.6160 C   0  0  0  0  0  2  0  0  0  0  0  0
  -18.1730  -26.8060   22.2620 C   0  0  0  0  0  2  0  0  0  0  0  0
  -19.1340  -28.9130   23.3590 C   0  0  0  0  0  0  0  0  0  0  0  0
  -18.9260  -30.1770   23.9510 C   0  0  0  0  0  3  0  0  0  0  0  0
  -17.6250  -30.6870   24.1220 C   0  0  0  0  0  3  0  0  0  0  0  0
  -16.5140  -29.9290   23.7110 C   0  0  0  0  0  3  0  0  0  0  0  0
  -16.7060  -28.6680   23.1200 C   0  0  0  0  0  3  0  0  0  0  0  0
  -25.9050  -32.5090   23.8390 C   0  0  0  0  0  3  0  0  0  0  0  0
  -26.4140  -31.7330   25.1160 C   0  0  1  0  0  0  0  0  0  0  0  0
  -25.3160  -31.5020   26.1820 C   0  0  0  0  0  1  0  0  0  0  0  0
  -26.9900  -30.3510   24.7270 C   0  0  0  0  0  1  0  0  0  0  0  0
  -27.5700  -32.5160   25.7820 C   0  0  0  0  0  1  0  0  0  0  0  0
  -25.5990  -33.9070   24.1790 N   0  0  0  0  0  0  0  0  0  0  0  0
  -25.9180  -34.9670   23.4230 C   0  0  0  0  0  0  0  0  0  0  0  0
  -26.5710  -34.8670   22.3810 O   0  0  0  0  0  0  0  0  0  0  0  0
  -25.0210  -34.0580   24.9910 H   0  0  0  0  0  0  0  0  0  0  0  0
  -24.1810  -36.7630   23.1190 C   0  0  0  0  0  1  0  0  0  0  0  0
  -25.4420  -36.3530   23.8990 C   0  0  0  0  0  3  0  0  0  0  0  0
  -27.5920  -37.2390   24.6850 C   0  0  0  0  0  1  0  0  0  0  0  0
  -26.4700  -37.4080   23.7650 N   0  0  0  0  0  0  0  0  0  0  0  0
  -26.0650  -38.3270   23.9280 H   0  0  0  0  0  0  0  0  0  0  0  0
  1 47  2  0
  1  7  1  0
  3  2  1  0
  4  6  1  0
  4  2  2  0
  5  7  1  0
  5  3  2  0
  7  4  1  0
  8 17  1  0
  8  5  1  0
  9 17  1  0
 10 15  1  0
 11 12  1  0
 11 10  1  0
 13 12  1  0
 13 22  1  0
 13 14  1  0
 15  9  1  0
 15 14  1  0
 16  9  2  0
 17 18  1  0
 19 20  2  0
 20 39  1  0
 21 20  1  0
 21 24  1  0
 22 19  1  0
 22 23  1  0
 23 21  2  0
 24 25  1  0
 25 26  2  0
 27 30  1  0
 27 26  1  0
 28 27  2  0
 29 28  1  0
 29 24  2  0
 30 31  1  0
 31 32  1  0
 32 33  2  0
 34 33  1  0
 34 38  1  0
 35 34  2  0
 36 31  2  0
 36 35  1  0
 37 36  1  0
 39 40  1  0
 40 43  1  0
 40 42  1  0
 41 39  2  0
 44 45  1  0
 44 19  1  0
 46 44  1  0
 49 47  1  0
 49 48  1  0
 50 49  1  0
 51 62  2  0
 52 50  1  0
 52 57  1  0
 53 61  1  0
 53 63  1  0
 54 60  1  0
 54 56  1  0
 55 61  1  0
 56 57  2  0
 56 55  1  0
 58 52  2  0
 59 58  1  0
 59 54  2  0
 60 53  1  0
 61 51  1  0
 63 65  2  0
 64 63  1  0
 66 64  1  0
 67 76  2  0
 67 72  1  0
 68 64  1  0
 68 72  1  0
 69 68  1  0
 70 71  1  0
 70 69  1  0
 71 67  1  0
 72 73  2  0
 73 74  1  0
 75 74  2  0
 76 75  1  0
 77 51  1  0
 77 82  1  0
 77 78  1  0
 78 81  1  1
 78 79  1  0
 80 78  1  0
 82 85  1  0
 83 87  1  0
 83 82  1  0
 84 83  2  0
 87 86  1  0
 89 87  1  0
 89 90  1  0
 89 88  1  0
M  ISO  4   9 100  17 100  49 101  50 101
M  END
>  <TORSDO>  (33) 
F 20

>  <SCORE>  (33) 
-14.795

>  <name>  (33) 
33

>  <ligand_id>  (33) 
33

>  <original_smiles>  (33) 
[H]c1c([H])c([H])c2c(c1[H])C([H])([H])C([H])([H])C([H])([H])C2([H])N([H])C(=O)C1([H])N(C(=O)C([H])(N([H])C(=O)C([H])(N([H])C([H])([H])[H])C([H])([H])[H])C(C([H])([H])[H])(C([H])([H])[H])C([H])([H])[H])C([H])([H])c2c([H])c(OC([H])(C([H])([H])[H])C([H])([H])C([H])([H])n3c(C([H])([H])[H])c([H])c([H])c3C([H])([H])N([H])C(=O)N3C([H])([H])C([H])([H])C([H])([H])C([H])(n4nc(-c5c([H])c([H])c(Oc6c([H])c([H])c(F)c([H])c6F)c([H])c5[H])c(C(=O)N([H])[H])c4N([H])[H])C3([H])[H])c([H])c([H])c2C1([H])[H]

>  <smiles>  (33) 
[H]c1c([H])c([H])c2c(c1[H])C([H])([H])C([H])([H])C([H])([H])C2([H])N([H])C(=O)C1([H])N(C(=O)C([H])(N([H])C(=O)C([H])(N([H])C([H])([H])[H])C([H])([H])[H])C(C([H])([H])[H])(C([H])([H])[H])C([H])([H])[H])C([H])([H])c2c([H])c(OC([H])(C([H])([H])[H])C([H])([H])C([H])([H])n3c(C([H])([H])[H])c([H])c([H])c3C([H])([H])N([H])C(=O)N3C([H])([H])C([H])([H])C([H])([H])C([H])(n4nc(-c5c([H])c([H])c(Oc6c([H])c([H])c(F)c([H])c6F)c([H])c5[H])c(C(=O)N([H])[H])c4N([H])[H])C3([H])[H])c([H])c([H])c2C1([H])[H]

$$$$
34:0:0
     RDKit          3D

 96 95  0  0  1  0  0  0  0  0999 V2000
  -30.9320  -19.4340   20.5830 C   0  0  0  0  0 15  0  0  0  0  0  0
  -28.6500  -17.2090   18.3010 C   0  0  0  0  0 15  0  0  0  0  0  0
  -31.9230  -18.0400   19.4660 C   0  0  0  0  0  1  0  0  0  0  0  0
  -30.7380  -16.9380   18.1300 C   0  0  0  0  0  1  0  0  0  0  0  0
  -29.0630  -20.0510   20.3240 C   0  0  0  0  0 15  0  0  0  0  0  0
  -28.0380  -18.6390   19.5060 N   0  0  0  0  0 15  0  0  0  0  0  0
  -31.0990  -17.5190   16.8340 C   0  0  0  0  0  2  0  0  0  0  0  0
  -30.5850  -18.9010   17.2570 C   0  0  0  0  0  2  0  0  0  0  0  0
  -29.7410  -16.9650   20.2460 C   0  0  0  0  0  2  0  0  0  0  0  0
  -30.2230  -14.0840   19.4490 C   0  0  0  0  0  2  0  0  0  0  0  0
  -29.5020  -13.1420   18.3860 C   0  0  0  0  0  2  0  0  0  0  0  0
  -28.1860  -12.5360   18.8940 C   0  0  0  0  0  2  0  0  0  0  0  0
  -27.4940  -13.5780   19.7760 C   0  0  0  0  0  3  0  0  0  0  0  0
  -28.4480  -14.3790   20.7580 C   0  0  0  0  0  2  0  0  0  0  0  0
  -29.3990  -15.3650   19.9960 N   0  0  0  0  0  0  0  0  0  0  0  0
  -30.6770  -16.3880   20.9290 O   0  0  0  0  0  1  0  0  0  0  0  0
  -29.9850  -18.7920   18.6470 N   0  0  0  0  0  2  0  0  0  0  0  0
  -30.2980  -19.5550   19.2370 H   0  0  0  0  0  0  0  0  0  0  0  0
  -25.1150  -13.9540   20.5350 C   0  0  0  0  0  0  0  0  0  0  0  0
  -24.0750  -13.1390   20.8820 C   0  0  0  0  0  0  0  0  0  0  0  0
  -24.5870  -11.8050   20.8640 C   0  0  0  0  0  0  0  0  0  0  0  0
  -26.2070  -13.1350   20.3280 N   0  0  0  0  0  0  0  0  0  0  0  0
  -25.8930  -11.8230   20.5710 N   0  0  0  0  0  0  0  0  0  0  0  0
  -23.8720  -10.5270   21.0510 C   0  0  0  0  0  0  0  0  0  0  0  0
  -24.2810   -9.5730   22.0110 C   0  0  0  0  0  3  0  0  0  0  0  0
  -23.5560   -8.3730   22.1930 C   0  0  0  0  0  3  0  0  0  0  0  0
  -22.4000   -8.1160   21.4160 C   0  0  0  0  0  0  0  0  0  0  0  0
  -22.0070   -9.0550   20.4460 C   0  0  0  0  0  3  0  0  0  0  0  0
  -22.7340  -10.2450   20.2640 C   0  0  0  0  0  3  0  0  0  0  0  0
  -21.6490   -6.9660   21.5010 O   0  0  0  0  0  0  0  0  0  0  0  0
  -21.5810   -6.2340   22.6600 C   0  0  0  0  0  0  0  0  0  0  0  0
  -21.1160   -6.7950   23.8700 C   0  0  0  0  0  3  0  0  0  0  0  0
  -21.0020   -5.9890   25.0210 C   0  0  0  0  0  3  0  0  0  0  0  0
  -21.3380   -4.6250   24.9620 C   0  0  0  0  0  0  0  0  0  0  0  0
  -21.7890   -4.0620   23.7560 C   0  0  0  0  0  3  0  0  0  0  0  0
  -21.9100   -4.8630   22.6080 C   0  0  0  0  0  0  0  0  0  0  0  0
  -22.3280   -4.3120   21.4440 F   0  0  0  0  0  0  0  0  0  0  0  0
  -21.2220   -3.8490   26.0660 F   0  0  0  0  0  0  0  0  0  0  0  0
  -22.6610  -13.5850   21.1110 C   0  0  0  0  0  0  0  0  0  0  0  0
  -21.9330  -12.8890   21.9750 N   0  0  0  0  0  0  0  0  0  0  0  0
  -22.2130  -14.5940   20.5670 O   0  0  0  0  0  0  0  0  0  0  0  0
  -22.3130  -12.0730   22.4340 H   0  0  0  0  0  0  0  0  0  0  0  0
  -20.9870  -13.1750   22.1800 H   0  0  0  0  0  0  0  0  0  0  0  0
  -25.2190  -15.3270   20.3420 N   0  0  0  0  0  0  0  0  0  0  0  0
  -24.4220  -15.9450   20.4460 H   0  0  0  0  0  0  0  0  0  0  0  0
  -26.0660  -15.8070   20.0670 H   0  0  0  0  0  0  0  0  0  0  0  0
  -33.3150  -17.5610   19.8750 C   0  0  0  0  0  2  0  0  0  0  0  0
  -35.0610  -16.2190   18.7730 C   0  0  0  0  0  1  0  0  0  0  0  0
  -34.3350  -17.5170   18.7850 N   0  0  2  0  0  4  0  0  0  0  0  0
  -33.7920  -17.4760   17.9370 H   0  0  0  0  0  0  0  0  0  0  0  0
  -34.4450  -19.8730   18.0210 C   0  0  0  0  0  1  0  0  0  0  0  0
  -35.7610  -19.1470   20.0770 C   0  0  0  0  0  1  0  0  0  0  0  0
  -36.4860  -18.4750   17.8120 C   0  0  0  0  0  1  0  0  0  0  0  0
  -35.2280  -18.7270   18.6870 C   0  0  1  0  0  0  0  0  0  0  0  0
  -28.2080  -22.2110   20.3800 C   0  0  0  0  0 15  0  0  0  0  0  0
  -28.1650  -24.4170   20.4350 O   0  0  0  0  0  1  0  0  0  0  0  0
  -24.5620  -31.7640   23.1160 C   0  0  0  0  0  0  0  0  0  0  0  0
  -27.2440  -25.9730   20.3820 C   0  0  0  0  0  0  0  0  0  0  0  0
  -23.4740  -30.2880   21.4890 C   0  0  0  0  0  3  0  0  0  0  0  0
  -24.9980  -28.4700   20.2140 C   0  0  0  0  0  0  0  0  0  0  0  0
  -26.0800  -30.2370   21.5380 C   0  0  0  0  0  2  0  0  0  0  0  0
  -26.1840  -28.7060   20.9140 C   0  0  0  0  0  0  0  0  0  0  0  0
  -27.2430  -27.5180   20.9420 C   0  0  0  0  0  3  0  0  0  0  0  0
  -26.0060  -26.1560   19.6160 C   0  0  0  0  0  3  0  0  0  0  0  0
  -24.9940  -27.2210   19.5440 C   0  0  0  0  0  3  0  0  0  0  0  0
  -23.8060  -29.4950   20.1790 C   0  0  0  0  0  2  0  0  0  0  0  0
  -24.7400  -30.8160   22.1000 N   0  0  0  0  0  0  0  0  0  0  0  0
  -23.4340  -32.0990   23.5340 O   0  0  0  0  0  0  0  0  0  0  0  0
  -22.6590  -29.4050   22.4790 C   0  0  0  0  0  0  0  0  0  0  0  0
  -21.3210  -29.3000   22.3330 N   0  0  0  0  0  0  0  0  0  0  0  0
  -23.2620  -28.7990   23.3670 O   0  0  0  0  0  0  0  0  0  0  0  0
  -20.8760  -29.8290   21.5960 H   0  0  0  0  0  0  0  0  0  0  0  0
  -17.8970  -28.1350   22.8380 C   0  0  0  0  0  0  0  0  0  0  0  0
  -20.4610  -28.3860   23.1040 C   0  0  0  0  0  3  0  0  0  0  0  0
  -20.5480  -26.9500   22.5360 C   0  0  0  0  0  2  0  0  0  0  0  0
  -19.4500  -26.6380   21.5150 C   0  0  0  0  0  2  0  0  0  0  0  0
  -18.0650  -26.7910   22.1500 C   0  0  0  0  0  2  0  0  0  0  0  0
  -19.0200  -28.8930   23.2690 C   0  0  0  0  0  0  0  0  0  0  0  0
  -18.8000  -30.1470   23.8800 C   0  0  0  0  0  3  0  0  0  0  0  0
  -17.4950  -30.6430   24.0590 C   0  0  0  0  0  3  0  0  0  0  0  0
  -16.3880  -29.8830   23.6380 C   0  0  0  0  0  3  0  0  0  0  0  0
  -16.5910  -28.6320   23.0330 C   0  0  0  0  0  3  0  0  0  0  0  0
  -25.7550  -32.4930   23.8160 C   0  0  0  0  0  3  0  0  0  0  0  0
  -25.3660  -33.8940   24.1280 N   0  0  0  0  0  0  0  0  0  0  0  0
  -25.7340  -34.9850   23.4380 C   0  0  0  0  0  0  0  0  0  0  0  0
  -26.4670  -34.9190   22.4490 O   0  0  0  0  0  0  0  0  0  0  0  0
  -24.7140  -34.0180   24.8870 H   0  0  0  0  0  0  0  0  0  0  0  0
  -24.0130  -36.7930   23.0510 C   0  0  0  0  0  1  0  0  0  0  0  0
  -25.2150  -36.3670   23.9110 C   0  0  0  0  0  3  0  0  0  0  0  0
  -27.2960  -37.2590   24.8720 C   0  0  0  0  0  1  0  0  0  0  0  0
  -26.2420  -37.4350   23.8770 N   0  0  0  0  0  0  0  0  0  0  0  0
  -25.8170  -38.3480   24.0210 H   0  0  0  0  0  0  0  0  0  0  0  0
  -26.2000  -31.7830   25.1550 C   0  0  1  0  0  0  0  0  0  0  0  0
  -25.0460  -31.5630   26.1640 C   0  0  0  0  0  1  0  0  0  0  0  0
  -26.8290  -30.4040   24.8800 C   0  0  0  0  0  1  0  0  0  0  0  0
  -27.3050  -32.6210   25.8490 C   0  0  0  0  0  1  0  0  0  0  0  0
  3 47  1  0
  7  8  1  0
  7  4  1  0
  8 17  1  0
  9 16  1  0
 10 15  1  0
 11 12  1  0
 11 10  1  0
 13 12  1  0
 13 22  1  0
 13 14  1  0
 15  9  1  0
 15 14  1  0
 17 18  1  0
 19 20  2  0
 20 39  1  0
 21 20  1  0
 21 24  1  0
 22 19  1  0
 22 23  1  0
 23 21  2  0
 24 25  1  0
 25 26  2  0
 27 30  1  0
 27 26  1  0
 28 27  2  0
 29 28  1  0
 29 24  2  0
 30 31  1  0
 31 32  1  0
 32 33  2  0
 34 33  1  0
 34 38  1  0
 35 34  2  0
 36 31  2  0
 36 35  1  0
 37 36  1  0
 39 40  1  0
 40 43  1  0
 40 42  1  0
 41 39  2  0
 44 45  1  0
 44 19  1  0
 46 44  1  0
 48 49  1  0
 49 47  1  0
 49 50  1  6
 54 51  1  6
 53 54  1  0
 54 49  1  0
 54 52  1  0
 57 68  2  0
 58 56  1  0
 58 63  1  0
 59 67  1  0
 59 69  1  0
 60 62  1  0
 61 67  1  0
 62 63  2  0
 62 61  1  0
 64 58  2  0
 65 64  1  0
 65 60  2  0
 66 60  1  0
 66 59  1  0
 67 57  1  0
 69 71  2  0
 70 69  1  0
 72 70  1  0
 73 82  2  0
 73 78  1  0
 74 70  1  0
 74 78  1  0
 75 74  1  0
 76 77  1  0
 76 75  1  0
 77 73  1  0
 78 79  2  0
 79 80  1  0
 81 80  2  0
 82 81  1  0
 83 57  1  0
 83 84  1  0
 83 93  1  0
 84 87  1  0
 85 89  1  0
 85 84  1  0
 86 85  2  0
 89 88  1  0
 91 89  1  0
 91 92  1  0
 91 90  1  0
 93 96  1  1
 93 94  1  0
 95 93  1  0
M  ISO  4   9 100  17 100  55 101  56 101
M  END
>  <TORSDO>  (34) 
F 22

>  <SCORE>  (34) 
-14.045

>  <name>  (34) 
34

>  <ligand_id>  (34) 
34

>  <original_smiles>  (34) 
[H]c1nc(C([H])([H])Oc2c([H])c([H])c3c(c2[H])C([H])([H])N(C(=O)C([H])(N([H])C(=O)C([H])(N([H])C([H])([H])[H])C([H])([H])[H])C(C([H])([H])[H])(C([H])([H])[H])C([H])([H])[H])C([H])(C(=O)N([H])C2([H])c4c([H])c([H])c([H])c([H])c4C([H])([H])C([H])([H])C2([H])[H])C3([H])[H])c([H])c(C([H])([H])[N+]([H])(C([H])([H])[H])C(C([H])([H])[H])(C([H])([H])[H])C([H])([H])[H])c1C([H])([H])C([H])([H])N([H])C(=O)N1C([H])([H])C([H])([H])C([H])([H])C([H])(n2nc(-c3c([H])c([H])c(Oc4c([H])c([H])c(F)c([H])c4F)c([H])c3[H])c(C(=O)N([H])[H])c2N([H])[H])C1([H])[H]

>  <smiles>  (34) 
[H]c1nc(C([H])([H])Oc2c([H])c([H])c3c(c2[H])C([H])([H])N(C(=O)C([H])(N([H])C(=O)C([H])(N([H])C([H])([H])[H])C([H])([H])[H])C(C([H])([H])[H])(C([H])([H])[H])C([H])([H])[H])C([H])(C(=O)N([H])C2([H])c4c([H])c([H])c([H])c([H])c4C([H])([H])C([H])([H])C2([H])[H])C3([H])[H])c([H])c(C([H])([H])[N+]([H])(C([H])([H])[H])C(C([H])([H])[H])(C([H])([H])[H])C([H])([H])[H])c1C([H])([H])C([H])([H])N([H])C(=O)N1C([H])([H])C([H])([H])C([H])([H])C([H])(n2nc(-c3c([H])c([H])c(Oc4c([H])c([H])c(F)c([H])c4F)c([H])c3[H])c(C(=O)N([H])[H])c2N([H])[H])C1([H])[H]

$$$$
35:0:0
     RDKit          3D

 93102  0  0  1  0  0  0  0  0999 V2000
  -30.1840  -21.7150   22.1770 C   0  0  0  0  0  3  0  0  0  0  0  0
  -29.5320  -22.8330   21.6040 C   0  0  0  0  0  3  0  0  0  0  0  0
  -30.1660  -20.3830   21.6570 C   0  0  0  0  0  0  0  0  0  0  0  0
  -28.7590  -22.7260   20.4430 C   0  0  0  0  0  0  0  0  0  0  0  0
  -29.4440  -20.0920   20.4630 C   0  0  0  0  0  0  0  0  0  0  0  0
  -28.7610  -21.3160   19.9290 N   0  0  0  0  0  0  0  0  0  0  0  0
  -31.0280  -19.2980   23.9050 C   0  0  0  0  0  2  0  0  0  0  0  0
  -32.2700  -19.5790   23.0890 C   0  0  0  0  0  2  0  0  0  0  0  0
  -30.9500  -19.3140   22.3940 C   0  0  0  0  0  3  0  0  0  0  0  0
  -27.6700  -24.0830   18.4810 C   0  0  0  0  0  1  0  0  0  0  0  0
  -26.4580  -23.7810   20.7250 C   0  0  0  0  0  1  0  0  0  0  0  0
  -27.7770  -24.1500   20.0110 C   0  0  1  0  0  0  0  0  0  0  0  0
  -27.9780  -25.8220   20.2650 O   0  0  0  0  0  0  0  0  0  0  0  0
  -24.5370  -31.9770   23.1620 C   0  0  0  0  0  0  0  0  0  0  0  0
  -27.0020  -26.9870   20.1480 C   0  0  0  0  0  0  0  0  0  0  0  0
  -23.2990  -30.5470   21.5910 C   0  0  0  0  0  3  0  0  0  0  0  0
  -24.7100  -28.9260   20.1400 C   0  0  0  0  0  0  0  0  0  0  0  0
  -25.8640  -30.7400   21.3700 C   0  0  0  0  0  2  0  0  0  0  0  0
  -25.9160  -29.3130   20.7350 C   0  0  0  0  0  0  0  0  0  0  0  0
  -27.0450  -28.3640   20.7260 C   0  0  0  0  0  3  0  0  0  0  0  0
  -25.7840  -26.8140   19.4420 C   0  0  0  0  0  3  0  0  0  0  0  0
  -24.6750  -27.6980   19.4670 C   0  0  0  0  0  3  0  0  0  0  0  0
  -23.4900  -29.8460   20.2170 C   0  0  0  0  0  2  0  0  0  0  0  0
  -24.5900  -31.1180   22.0910 N   0  0  0  0  0  0  0  0  0  0  0  0
  -23.4630  -32.2730   23.7110 O   0  0  0  0  0  0  0  0  0  0  0  0
  -22.6380  -29.5660   22.5960 C   0  0  0  0  0  0  0  0  0  0  0  0
  -21.3180  -29.3340   22.4690 N   0  0  0  0  0  0  0  0  0  0  0  0
  -23.3220  -29.0150   23.4610 O   0  0  0  0  0  0  0  0  0  0  0  0
  -20.8150  -29.8300   21.7470 H   0  0  0  0  0  0  0  0  0  0  0  0
  -18.0050  -27.9380   22.9730 C   0  0  0  0  0  0  0  0  0  0  0  0
  -20.5340  -28.3940   23.2800 C   0  0  0  0  0  3  0  0  0  0  0  0
  -20.7440  -26.9380   22.8030 C   0  0  0  0  0  2  0  0  0  0  0  0
  -19.6960  -26.4780   21.7850 C   0  0  0  0  0  2  0  0  0  0  0  0
  -18.2900  -26.5660   22.3850 C   0  0  0  0  0  2  0  0  0  0  0  0
  -19.0580  -28.8020   23.3780 C   0  0  0  0  0  0  0  0  0  0  0  0
  -18.7350  -30.0780   23.8910 C   0  0  0  0  0  3  0  0  0  0  0  0
  -17.3940  -30.4920   24.0010 C   0  0  0  0  0  3  0  0  0  0  0  0
  -16.3570  -29.6290   23.6090 C   0  0  0  0  0  3  0  0  0  0  0  0
  -16.6620  -28.3530   23.1030 C   0  0  0  0  0  3  0  0  0  0  0  0
  -25.8230  -32.6410   23.7400 C   0  0  0  0  0  3  0  0  0  0  0  0
  -26.3950  -31.8830   25.0020 C   0  0  1  0  0  0  0  0  0  0  0  0
  -25.3350  -31.5930   26.0910 C   0  0  0  0  0  1  0  0  0  0  0  0
  -27.0290  -30.5310   24.5990 C   0  0  0  0  0  1  0  0  0  0  0  0
  -27.5250  -32.7200   25.6470 C   0  0  0  0  0  1  0  0  0  0  0  0
  -25.4960  -34.0340   24.0950 N   0  0  0  0  0  0  0  0  0  0  0  0
  -25.8080  -35.1090   23.3580 C   0  0  0  0  0  0  0  0  0  0  0  0
  -26.4620  -35.0330   22.3160 O   0  0  0  0  0  0  0  0  0  0  0  0
  -24.9100  -34.1650   24.9070 H   0  0  0  0  0  0  0  0  0  0  0  0
  -24.0870  -36.9240   23.0470 C   0  0  0  0  0  1  0  0  0  0  0  0
  -25.3200  -36.4860   23.8550 C   0  0  0  0  0  3  0  0  0  0  0  0
  -27.4390  -37.3540   24.7450 C   0  0  0  0  0  1  0  0  0  0  0  0
  -26.3540  -37.5420   23.7840 N   0  0  0  0  0  0  0  0  0  0  0  0
  -25.9460  -38.4590   23.9440 H   0  0  0  0  0  0  0  0  0  0  0  0
  -28.6360  -18.4340   18.5700 C   0  0  0  0  0  1  0  0  0  0  0  0
  -29.6390  -18.4740   19.7320 C   0  0  0  0  0  0  0  0  0  0  0  0
  -30.4710  -15.5770   20.0370 C   0  0  0  0  0  0  0  0  0  0  0  0
  -30.4780  -13.1010   19.1920 C   0  0  0  0  0  2  0  0  0  0  0  0
  -29.5260  -12.8540   17.9930 C   0  0  0  0  0  2  0  0  0  0  0  0
  -28.1010  -12.5450   18.4800 C   0  0  0  0  0  2  0  0  0  0  0  0
  -27.6690  -13.4960   19.6230 C   0  0  0  0  0  3  0  0  0  0  0  0
  -28.7520  -13.6880   20.7100 C   0  0  0  0  0  2  0  0  0  0  0  0
  -29.9440  -14.2400   20.0410 N   0  0  0  0  0  0  0  0  0  0  0  0
  -31.6550  -15.5890   19.6670 O   0  0  0  0  0  0  0  0  0  0  0  0
  -29.7050  -16.8510   20.2580 N   0  0  0  0  0  4  0  0  0  0  0  0
  -28.8330  -16.6220   20.7100 H   0  0  0  0  0  0  0  0  0  0  0  0
  -25.3350  -14.0030   20.5070 C   0  0  0  0  0  0  0  0  0  0  0  0
  -24.2940  -13.2070   20.8930 C   0  0  0  0  0  0  0  0  0  0  0  0
  -24.7620  -11.8610   20.7820 C   0  0  0  0  0  0  0  0  0  0  0  0
  -26.3680  -13.1450   20.1780 N   0  0  0  0  0  0  0  0  0  0  0  0
  -26.0390  -11.8460   20.4090 N   0  0  0  0  0  0  0  0  0  0  0  0
  -24.0450  -10.5890   20.9510 C   0  0  0  0  0  0  0  0  0  0  0  0
  -24.4700   -9.6170   21.8850 C   0  0  0  0  0  3  0  0  0  0  0  0
  -23.7480   -8.4150   22.0450 C   0  0  0  0  0  3  0  0  0  0  0  0
  -22.5880   -8.1740   21.2720 C   0  0  0  0  0  0  0  0  0  0  0  0
  -22.1830   -9.1340   20.3270 C   0  0  0  0  0  3  0  0  0  0  0  0
  -22.9050  -10.3280   20.1650 C   0  0  0  0  0  3  0  0  0  0  0  0
  -21.8400   -7.0230   21.3400 O   0  0  0  0  0  0  0  0  0  0  0  0
  -21.7200   -6.3110   22.5060 C   0  0  0  0  0  0  0  0  0  0  0  0
  -21.1410   -6.8710   23.6660 C   0  0  0  0  0  3  0  0  0  0  0  0
  -20.9740   -6.0820   24.8220 C   0  0  0  0  0  3  0  0  0  0  0  0
  -21.3760   -4.7330   24.8180 C   0  0  0  0  0  0  0  0  0  0  0  0
  -21.9460   -4.1710   23.6630 C   0  0  0  0  0  3  0  0  0  0  0  0
  -22.1150   -4.9570   22.5100 C   0  0  0  0  0  0  0  0  0  0  0  0
  -22.6460   -4.4050   21.3920 F   0  0  0  0  0  0  0  0  0  0  0  0
  -21.2080   -3.9730   25.9260 F   0  0  0  0  0  0  0  0  0  0  0  0
  -22.9100  -13.6680   21.2450 C   0  0  0  0  0  0  0  0  0  0  0  0
  -22.2180  -12.9280   22.1020 N   0  0  0  0  0  0  0  0  0  0  0  0
  -22.4550  -14.7200   20.7960 O   0  0  0  0  0  0  0  0  0  0  0  0
  -22.6020  -12.0770   22.4860 H   0  0  0  0  0  0  0  0  0  0  0  0
  -21.2900  -13.2170   22.3790 H   0  0  0  0  0  0  0  0  0  0  0  0
  -25.4850  -15.3810   20.3800 N   0  0  0  0  0  0  0  0  0  0  0  0
  -24.7190  -16.0230   20.5500 H   0  0  0  0  0  0  0  0  0  0  0  0
  -26.3000  -15.8350   19.9890 H   0  0  0  0  0  0  0  0  0  0  0  0
  2  1  2  0
  3  1  1  0
  3  9  1  0
  4  2  1  0
  5  3  2  0
  6  4  2  0
  6  5  1  0
  8  7  1  0
  9  8  1  0
  9  7  1  0
 12 10  1  6
 12 13  1  0
 12  4  1  0
 12 11  1  0
 14 25  2  0
 15 13  1  0
 15 20  1  0
 16 24  1  0
 16 26  1  0
 17 23  1  0
 17 19  1  0
 18 24  1  0
 19 18  1  0
 20 19  2  0
 21 22  1  0
 21 15  2  0
 22 17  2  0
 23 16  1  0
 24 14  1  0
 26 28  2  0
 27 26  1  0
 29 27  1  0
 30 39  2  0
 30 35  1  0
 31 27  1  0
 31 35  1  0
 32 31  1  0
 33 34  1  0
 33 32  1  0
 34 30  1  0
 35 36  2  0
 36 37  1  0
 38 37  2  0
 39 38  1  0
 40 14  1  0
 40 45  1  0
 40 41  1  0
 41 44  1  1
 41 42  1  0
 43 41  1  0
 45 48  1  0
 46 50  1  0
 46 45  1  0
 47 46  2  0
 50 49  1  0
 52 50  1  0
 52 53  1  0
 52 51  1  0
 54 55  1  0
 55 64  2  3
 55  5  1  0
 56 62  1  0
 56 64  1  0
 57 62  1  0
 58 59  1  0
 58 57  1  0
 60 59  1  0
 60 69  1  0
 60 61  1  0
 62 61  1  0
 63 56  2  0
 64 65  1  0
 66 67  2  0
 67 86  1  0
 68 67  1  0
 68 71  1  0
 69 70  1  0
 69 66  1  0
 70 68  2  0
 71 72  1  0
 72 73  2  0
 74 77  1  0
 74 73  1  0
 75 74  2  0
 76 75  1  0
 76 71  2  0
 77 78  1  0
 78 83  2  0
 78 79  1  0
 79 80  2  0
 81 80  1  0
 81 85  1  0
 82 81  2  0
 83 82  1  0
 84 83  1  0
 86 87  1  0
 87 90  1  0
 87 89  1  0
 88 86  2  0
 91 66  1  0
 91 92  1  0
 93 91  1  0
M  ISO  4  12 101  13 101  56 100  64 100
M  END
>  <TORSDO>  (35) 
F 19

>  <SCORE>  (35) 
-15.980

>  <name>  (35) 
35

>  <ligand_id>  (35) 
35

>  <original_smiles>  (35) 
[H]c1c(C(Oc2c([H])c([H])c3c(c2[H])C([H])([H])N(C(=O)C([H])(N([H])C(=O)C([H])(N([H])C([H])([H])[H])C([H])([H])[H])C(C([H])([H])[H])(C([H])([H])[H])C([H])([H])[H])C([H])(C(=O)N([H])C2([H])c4c([H])c([H])c([H])c([H])c4C([H])([H])C([H])([H])C2([H])[H])C3([H])[H])(C([H])([H])[H])C([H])([H])[H])nc(C([H])(N([H])C(=O)N2C([H])([H])C([H])([H])C([H])([H])C([H])(n3nc(-c4c([H])c([H])c(Oc5c([H])c([H])c(F)c([H])c5F)c([H])c4[H])c(C(=O)N([H])[H])c3N([H])[H])C2([H])[H])C([H])([H])[H])c(C2([H])C([H])([H])C2([H])[H])c1[H]

>  <smiles>  (35) 
[H]c1c(C(Oc2c([H])c([H])c3c(c2[H])C([H])([H])N(C(=O)C([H])(N([H])C(=O)C([H])(N([H])C([H])([H])[H])C([H])([H])[H])C(C([H])([H])[H])(C([H])([H])[H])C([H])([H])[H])C([H])(C(=O)N([H])C2([H])c4c([H])c([H])c([H])c([H])c4C([H])([H])C([H])([H])C2([H])[H])C3([H])[H])(C([H])([H])[H])C([H])([H])[H])nc(C([H])(N([H])C(=O)N2C([H])([H])C([H])([H])C([H])([H])C([H])(n3nc(-c4c([H])c([H])c(Oc5c([H])c([H])c(F)c([H])c5F)c([H])c4[H])c(C(=O)N([H])[H])c3N([H])[H])C2([H])[H])C([H])([H])[H])c(C2([H])C([H])([H])C2([H])[H])c1[H]

$$$$
36:0:0
     RDKit          3D

 94103  0  0  1  0  0  0  0  0999 V2000
  -29.0040  -22.6890   18.5400 C   0  0  0  0  0  3  0  0  0  0  0  0
  -29.7230  -23.2430   19.6320 C   0  0  0  0  0  0  0  0  0  0  0  0
  -29.2650  -21.3550   18.4680 C   0  0  0  0  0  0  0  0  0  0  0  0
  -30.4280  -22.2130   20.2030 C   0  0  0  0  0  0  0  0  0  0  0  0
  -28.7210  -20.3740   17.4810 C   0  0  0  0  0  1  0  0  0  0  0  0
  -31.3660  -22.2540   21.3750 C   0  0  0  0  0  1  0  0  0  0  0  0
  -30.1710  -21.0430   19.4810 N   0  0  0  0  0  0  0  0  0  0  0  0
  -30.9750  -25.3960   19.4770 C   0  0  0  0  0  1  0  0  0  0  0  0
  -29.7240  -24.7030   20.0400 C   0  0  0  0  0  3  0  0  0  0  0  0
  -28.4220  -25.4140   19.6270 C   0  0  0  0  0  2  0  0  0  0  0  0
  -28.3770  -26.7290   20.1780 O   0  0  0  0  0  0  0  0  0  0  0  0
  -24.5210  -31.8380   23.2470 C   0  0  0  0  0  0  0  0  0  0  0  0
  -27.1790  -27.4100   20.1590 C   0  0  0  0  0  0  0  0  0  0  0  0
  -23.3230  -30.4510   21.5880 C   0  0  0  0  0  3  0  0  0  0  0  0
  -24.7790  -28.9100   20.1660 C   0  0  0  0  0  0  0  0  0  0  0  0
  -25.8480  -30.7940   21.4130 C   0  0  0  0  0  2  0  0  0  0  0  0
  -25.9300  -29.4250   20.7750 C   0  0  0  0  0  0  0  0  0  0  0  0
  -27.1230  -28.6720   20.7830 C   0  0  0  0  0  3  0  0  0  0  0  0
  -26.0040  -26.9040   19.5460 C   0  0  0  0  0  3  0  0  0  0  0  0
  -24.8100  -27.6440   19.5550 C   0  0  0  0  0  3  0  0  0  0  0  0
  -23.5370  -29.7720   20.2080 C   0  0  0  0  0  2  0  0  0  0  0  0
  -24.5840  -31.0410   22.1420 N   0  0  0  0  0  0  0  0  0  0  0  0
  -23.4360  -32.1160   23.7740 O   0  0  0  0  0  0  0  0  0  0  0  0
  -22.6570  -29.4290   22.5350 C   0  0  0  0  0  0  0  0  0  0  0  0
  -21.3330  -29.2540   22.3880 N   0  0  0  0  0  0  0  0  0  0  0  0
  -23.3270  -28.7940   23.3530 O   0  0  0  0  0  0  0  0  0  0  0  0
  -20.8530  -29.8160   21.7000 H   0  0  0  0  0  0  0  0  0  0  0  0
  -17.9430  -28.1160   22.8670 C   0  0  0  0  0  0  0  0  0  0  0  0
  -20.5050  -28.3170   23.1440 C   0  0  0  0  0  3  0  0  0  0  0  0
  -20.5820  -26.8980   22.5360 C   0  0  0  0  0  2  0  0  0  0  0  0
  -19.4730  -26.6170   21.5170 C   0  0  0  0  0  2  0  0  0  0  0  0
  -18.0950  -26.7770   22.1670 C   0  0  0  0  0  2  0  0  0  0  0  0
  -19.0770  -28.8470   23.3120 C   0  0  0  0  0  0  0  0  0  0  0  0
  -18.8850  -30.1030   23.9250 C   0  0  0  0  0  3  0  0  0  0  0  0
  -17.5900  -30.6280   24.1020 C   0  0  0  0  0  3  0  0  0  0  0  0
  -16.4710  -29.8920   23.6770 C   0  0  0  0  0  3  0  0  0  0  0  0
  -16.6480  -28.6400   23.0630 C   0  0  0  0  0  3  0  0  0  0  0  0
  -25.8020  -32.4570   23.8840 C   0  0  0  0  0  3  0  0  0  0  0  0
  -26.2930  -31.6860   25.1700 C   0  0  1  0  0  0  0  0  0  0  0  0
  -25.1850  -31.4570   26.2240 C   0  0  0  0  0  1  0  0  0  0  0  0
  -26.8680  -30.3040   24.7840 C   0  0  0  0  0  1  0  0  0  0  0  0
  -27.4430  -32.4710   25.8430 C   0  0  0  0  0  1  0  0  0  0  0  0
  -25.5080  -33.8620   24.2000 N   0  0  0  0  0  0  0  0  0  0  0  0
  -25.8650  -34.9030   23.4370 C   0  0  0  0  0  0  0  0  0  0  0  0
  -26.5470  -34.7820   22.4160 O   0  0  0  0  0  0  0  0  0  0  0  0
  -24.9050  -34.0330   24.9910 H   0  0  0  0  0  0  0  0  0  0  0  0
  -24.1670  -36.7120   23.0350 C   0  0  0  0  0  1  0  0  0  0  0  0
  -25.3870  -36.3000   23.8750 C   0  0  0  0  0  3  0  0  0  0  0  0
  -27.5140  -37.1620   24.7450 C   0  0  0  0  0  1  0  0  0  0  0  0
  -26.4360  -37.3370   23.7760 N   0  0  0  0  0  0  0  0  0  0  0  0
  -26.0400  -38.2650   23.9070 H   0  0  0  0  0  0  0  0  0  0  0  0
  -30.8150  -19.7370   19.6870 C   0  0  0  0  0  2  0  0  0  0  0  0
  -30.7180  -14.4360   20.4020 C   0  0  0  0  0  0  0  0  0  0  0  0
  -30.3280  -12.2680   19.3090 C   0  0  0  0  0  2  0  0  0  0  0  0
  -29.3920  -12.4780   18.1040 C   0  0  0  0  0  2  0  0  0  0  0  0
  -27.9130  -12.3730   18.5300 C   0  0  0  0  0  2  0  0  0  0  0  0
  -27.5850  -13.1970   19.8080 C   0  0  0  0  0  3  0  0  0  0  0  0
  -28.6680  -13.0280   20.9030 C   0  0  0  0  0  2  0  0  0  0  0  0
  -29.9830  -13.2930   20.3030 N   0  0  0  0  0  0  0  0  0  0  0  0
  -31.8980  -14.5000   20.0450 O   0  0  0  0  0  0  0  0  0  0  0  0
  -30.1080  -18.0040   21.5230 C   0  0  0  0  0  2  0  0  0  0  0  0
  -29.8810  -17.4530   19.0660 C   0  0  0  0  0  2  0  0  0  0  0  0
  -30.7610  -16.5960   21.5370 C   0  0  0  0  0  2  0  0  0  0  0  0
  -29.2520  -16.1700   19.6220 C   0  0  0  0  0  2  0  0  0  0  0  0
  -29.8570  -18.5850   20.1060 C   0  0  0  0  0  3  0  0  0  0  0  0
  -30.0590  -15.5810   20.7100 N   0  0  0  0  0  0  0  0  0  0  0  0
  -25.2080  -13.8140   20.5550 C   0  0  0  0  0  0  0  0  0  0  0  0
  -24.1390  -13.0460   20.9240 C   0  0  0  0  0  0  0  0  0  0  0  0
  -24.5910  -11.6920   20.8760 C   0  0  0  0  0  0  0  0  0  0  0  0
  -26.2440  -12.9240   20.3060 N   0  0  0  0  0  0  0  0  0  0  0  0
  -25.8790  -11.6430   20.5600 N   0  0  0  0  0  0  0  0  0  0  0  0
  -23.8580  -10.4340   21.0560 C   0  0  0  0  0  0  0  0  0  0  0  0
  -24.2840   -9.4630   21.9900 C   0  0  0  0  0  3  0  0  0  0  0  0
  -23.5530   -8.2680   22.1610 C   0  0  0  0  0  3  0  0  0  0  0  0
  -22.3830   -8.0350   21.3990 C   0  0  0  0  0  0  0  0  0  0  0  0
  -21.9750   -8.9940   20.4550 C   0  0  0  0  0  3  0  0  0  0  0  0
  -22.7080  -10.1820   20.2810 C   0  0  0  0  0  3  0  0  0  0  0  0
  -21.6230   -6.8920   21.4810 O   0  0  0  0  0  0  0  0  0  0  0  0
  -21.5530   -6.1560   22.6370 C   0  0  0  0  0  0  0  0  0  0  0  0
  -21.0740   -6.7080   23.8450 C   0  0  0  0  0  3  0  0  0  0  0  0
  -20.9520   -5.8950   24.9890 C   0  0  0  0  0  3  0  0  0  0  0  0
  -21.3030   -4.5320   24.9260 C   0  0  0  0  0  0  0  0  0  0  0  0
  -21.7780   -3.9810   23.7240 C   0  0  0  0  0  3  0  0  0  0  0  0
  -21.9020   -4.7920   22.5820 C   0  0  0  0  0  0  0  0  0  0  0  0
  -22.3380   -4.2510   21.4180 F   0  0  0  0  0  0  0  0  0  0  0  0
  -21.1810   -3.7480   26.0240 F   0  0  0  0  0  0  0  0  0  0  0  0
  -22.7460  -13.5310   21.2080 C   0  0  0  0  0  0  0  0  0  0  0  0
  -22.0170  -12.8340   22.0700 N   0  0  0  0  0  0  0  0  0  0  0  0
  -22.3110  -14.5640   20.7000 O   0  0  0  0  0  0  0  0  0  0  0  0
  -22.3770  -11.9960   22.5070 H   0  0  0  0  0  0  0  0  0  0  0  0
  -21.0820  -13.1380   22.2980 H   0  0  0  0  0  0  0  0  0  0  0  0
  -25.3790  -15.1860   20.3910 N   0  0  0  0  0  0  0  0  0  0  0  0
  -24.6200  -15.8430   20.5200 H   0  0  0  0  0  0  0  0  0  0  0  0
  -26.2390  -15.6310   20.0970 H   0  0  0  0  0  0  0  0  0  0  0  0
  1  2  1  0
  2  9  1  0
  2  4  2  0
  3  1  2  0
  3  7  1  0
  4  6  1  0
  5  3  1  0
  7 52  1  0
  7  4  1  0
  9  8  1  0
 10  9  1  0
 10 11  1  0
 12 23  2  0
 13 11  1  0
 13 18  1  0
 14 22  1  0
 14 24  1  0
 15 21  1  0
 15 17  1  0
 16 22  1  0
 17 18  2  0
 17 16  1  0
 19 20  1  0
 19 13  2  0
 20 15  2  0
 21 14  1  0
 22 12  1  0
 24 26  2  0
 25 24  1  0
 27 25  1  0
 28 37  2  0
 28 33  1  0
 29 25  1  0
 29 33  1  0
 30 29  1  0
 31 32  1  0
 31 30  1  0
 32 28  1  0
 33 34  2  0
 34 35  1  0
 36 35  2  0
 37 36  1  0
 38 12  1  0
 38 43  1  0
 38 39  1  0
 39 42  1  1
 39 40  1  0
 41 39  1  0
 43 46  1  0
 44 48  1  0
 44 43  1  0
 45 44  2  0
 48 47  1  0
 50 48  1  0
 50 51  1  0
 50 49  1  0
 53 66  1  0
 54 59  1  0
 55 56  1  0
 55 54  1  0
 57 56  1  0
 57 70  1  0
 57 58  1  0
 59 53  1  0
 59 58  1  0
 60 53  2  0
 61 63  1  0
 62 64  1  0
 62 65  1  0
 64 66  1  0
 65 52  1  0
 65 61  1  0
 66 63  1  0
 67 68  2  0
 68 87  1  0
 69 68  1  0
 69 72  1  0
 70 67  1  0
 70 71  1  0
 71 69  2  0
 72 73  1  0
 73 74  2  0
 75 78  1  0
 75 74  1  0
 76 75  2  0
 77 76  1  0
 77 72  2  0
 78 79  1  0
 79 80  1  0
 80 81  2  0
 82 81  1  0
 82 86  1  0
 83 82  2  0
 84 79  2  0
 84 83  1  0
 85 84  1  0
 87 88  1  0
 88 91  1  0
 88 90  1  0
 89 87  2  0
 92 93  1  0
 92 67  1  0
 94 92  1  0
M  ISO  4  10 101  11 101  53 100  66 100
M  END
>  <TORSDO>  (36) 
F 19

>  <SCORE>  (36) 
-14.411

>  <name>  (36) 
36

>  <ligand_id>  (36) 
36

>  <original_smiles>  (36) 
[H]c1c([H])c([H])c2c(c1[H])C([H])([H])C([H])([H])C([H])([H])C2([H])N([H])C(=O)C1([H])N(C(=O)C([H])(N([H])C(=O)C([H])(N([H])C([H])([H])[H])C([H])([H])[H])C(C([H])([H])[H])(C([H])([H])[H])C([H])([H])[H])C([H])([H])c2c([H])c(OC([H])([H])C([H])(c3c([H])c(C([H])([H])[H])n(C([H])([H])C4([H])C([H])([H])C([H])([H])N(C(=O)N5C([H])([H])C([H])([H])C([H])([H])C([H])(n6nc(-c7c([H])c([H])c(Oc8c([H])c([H])c(F)c([H])c8F)c([H])c7[H])c(C(=O)N([H])[H])c6N([H])[H])C5([H])[H])C([H])([H])C4([H])[H])c3C([H])([H])[H])C([H])([H])[H])c([H])c([H])c2C1([H])[H]

>  <smiles>  (36) 
[H]c1c([H])c([H])c2c(c1[H])C([H])([H])C([H])([H])C([H])([H])C2([H])N([H])C(=O)C1([H])N(C(=O)C([H])(N([H])C(=O)C([H])(N([H])C([H])([H])[H])C([H])([H])[H])C(C([H])([H])[H])(C([H])([H])[H])C([H])([H])[H])C([H])([H])c2c([H])c(OC([H])([H])C([H])(c3c([H])c(C([H])([H])[H])n(C([H])([H])C4([H])C([H])([H])C([H])([H])N(C(=O)N5C([H])([H])C([H])([H])C([H])([H])C([H])(n6nc(-c7c([H])c([H])c(Oc8c([H])c([H])c(F)c([H])c8F)c([H])c7[H])c(C(=O)N([H])[H])c6N([H])[H])C5([H])[H])C([H])([H])C4([H])[H])c3C([H])([H])[H])C([H])([H])[H])c([H])c([H])c2C1([H])[H]

$$$$
37:0:0
     RDKit          3D

 96104  0  0  1  0  0  0  0  0999 V2000
  -29.9530  -19.3850   19.9570 C   0  0  0  0  0  3  0  0  0  0  0  0
  -34.3970  -19.2100   20.4380 C   0  0  0  0  0  2  0  0  0  0  0  0
  -33.5510  -19.5060   21.6860 C   0  0  0  0  0  2  0  0  0  0  0  0
  -33.8130  -19.9710   19.2430 C   0  0  0  0  0  2  0  0  0  0  0  0
  -32.0820  -19.0810   21.4730 C   0  0  0  0  0  2  0  0  0  0  0  0
  -32.3600  -19.5280   18.9900 C   0  0  0  0  0  2  0  0  0  0  0  0
  -31.4480  -19.7520   20.2330 C   0  0  0  0  0  3  0  0  0  0  0  0
  -28.8590  -20.6500   20.2620 C   0  0  0  0  0  2  0  0  0  0  0  0
  -29.8110  -22.4590   18.6610 C   0  0  0  0  0  1  0  0  0  0  0  0
  -29.1000  -22.3010   20.0110 C   0  0  0  0  0  3  0  0  0  0  0  0
  -27.8890  -23.4840   20.0150 C   0  0  0  0  0  2  0  0  0  0  0  0
  -29.1370  -25.1670   21.5760 C   0  0  0  0  0  1  0  0  0  0  0  0
  -27.9290  -25.0530   20.6470 C   0  0  0  0  0  3  0  0  0  0  0  0
  -27.8800  -26.4290   19.9410 O   0  0  0  0  0  0  0  0  0  0  0  0
  -24.4870  -32.0480   23.3070 C   0  0  0  0  0  0  0  0  0  0  0  0
  -26.8040  -27.3680   20.0690 C   0  0  0  0  0  0  0  0  0  0  0  0
  -23.1630  -30.7040   21.7170 C   0  0  0  0  0  3  0  0  0  0  0  0
  -24.4970  -29.1170   20.1930 C   0  0  0  0  0  0  0  0  0  0  0  0
  -25.7030  -30.9340   21.4020 C   0  0  0  0  0  2  0  0  0  0  0  0
  -25.7140  -29.5500   20.7350 C   0  0  0  0  0  0  0  0  0  0  0  0
  -26.8700  -28.6930   20.6550 C   0  0  0  0  0  3  0  0  0  0  0  0
  -25.5590  -27.0190   19.5030 C   0  0  0  0  0  3  0  0  0  0  0  0
  -24.4250  -27.8620   19.5660 C   0  0  0  0  0  3  0  0  0  0  0  0
  -23.2890  -30.0350   20.3200 C   0  0  0  0  0  2  0  0  0  0  0  0
  -24.4750  -31.2540   22.1950 N   0  0  0  0  0  0  0  0  0  0  0  0
  -23.4420  -32.3380   23.9110 O   0  0  0  0  0  0  0  0  0  0  0  0
  -22.5290  -29.6940   22.7020 C   0  0  0  0  0  0  0  0  0  0  0  0
  -21.2070  -29.4760   22.5910 N   0  0  0  0  0  0  0  0  0  0  0  0
  -23.2300  -29.1040   23.5300 O   0  0  0  0  0  0  0  0  0  0  0  0
  -20.6950  -30.0030   21.8950 H   0  0  0  0  0  0  0  0  0  0  0  0
  -17.8940  -28.0920   23.0760 C   0  0  0  0  0  0  0  0  0  0  0  0
  -20.4260  -28.5240   23.3860 C   0  0  0  0  0  3  0  0  0  0  0  0
  -20.6270  -27.0770   22.8810 C   0  0  0  0  0  2  0  0  0  0  0  0
  -19.5720  -26.6410   21.8590 C   0  0  0  0  0  2  0  0  0  0  0  0
  -18.1680  -26.7300   22.4640 C   0  0  0  0  0  2  0  0  0  0  0  0
  -18.9530  -28.9400   23.4950 C   0  0  0  0  0  0  0  0  0  0  0  0
  -18.6430  -30.2090   24.0250 C   0  0  0  0  0  3  0  0  0  0  0  0
  -17.3080  -30.6370   24.1440 C   0  0  0  0  0  3  0  0  0  0  0  0
  -16.2620  -29.7890   23.7430 C   0  0  0  0  0  3  0  0  0  0  0  0
  -16.5550  -28.5190   23.2160 C   0  0  0  0  0  3  0  0  0  0  0  0
  -25.8130  -32.6490   23.8650 C   0  0  0  0  0  3  0  0  0  0  0  0
  -25.5520  -34.0540   24.2220 N   0  0  0  0  0  0  0  0  0  0  0  0
  -25.8710  -35.1080   23.4620 C   0  0  0  0  0  0  0  0  0  0  0  0
  -26.4860  -35.0050   22.3980 O   0  0  0  0  0  0  0  0  0  0  0  0
  -25.0000  -34.2080   25.0520 H   0  0  0  0  0  0  0  0  0  0  0  0
  -24.1670  -36.9490   23.2290 C   0  0  0  0  0  1  0  0  0  0  0  0
  -25.4420  -36.5040   23.9630 C   0  0  0  0  0  3  0  0  0  0  0  0
  -27.6350  -37.3380   24.6850 C   0  0  0  0  0  1  0  0  0  0  0  0
  -26.4890  -37.5350   23.8030 N   0  0  0  0  0  0  0  0  0  0  0  0
  -26.1110  -38.4630   23.9780 H   0  0  0  0  0  0  0  0  0  0  0  0
  -26.3780  -31.8620   25.1110 C   0  0  1  0  0  0  0  0  0  0  0  0
  -25.3340  -31.6310   26.2280 C   0  0  0  0  0  1  0  0  0  0  0  0
  -26.9280  -30.4810   24.6880 C   0  0  0  0  0  1  0  0  0  0  0  0
  -27.5690  -32.6380   25.7250 C   0  0  0  0  0  1  0  0  0  0  0  0
  -29.5950  -17.7190   19.8570 C   0  0  0  0  0  0  0  0  0  0  0  0
  -30.6470  -15.3740   20.7980 C   0  0  0  0  0  0  0  0  0  0  0  0
  -30.7300  -12.9070   20.2590 C   0  0  0  0  0  2  0  0  0  0  0  0
  -29.9690  -12.6480   18.9390 C   0  0  0  0  0  2  0  0  0  0  0  0
  -28.4710  -12.4080   19.2010 C   0  0  0  0  0  2  0  0  0  0  0  0
  -27.8750  -13.4430   20.1870 C   0  0  0  0  0  3  0  0  0  0  0  0
  -28.7880  -13.6950   21.4160 C   0  0  0  0  0  2  0  0  0  0  0  0
  -30.1170  -14.0880   20.9290 N   0  0  0  0  0  0  0  0  0  0  0  0
  -31.8300  -15.4830   20.4740 O   0  0  0  0  0  0  0  0  0  0  0  0
  -29.8250  -16.5210   20.8560 N   0  0  0  0  0  4  0  0  0  0  0  0
  -28.9940  -16.3260   21.3990 H   0  0  0  0  0  0  0  0  0  0  0  0
  -25.4230  -13.9790   20.7030 C   0  0  0  0  0  0  0  0  0  0  0  0
  -24.3470  -13.1880   20.9930 C   0  0  0  0  0  0  0  0  0  0  0  0
  -24.8370  -11.8490   21.0200 C   0  0  0  0  0  0  0  0  0  0  0  0
  -26.5000  -13.1210   20.5630 N   0  0  0  0  0  0  0  0  0  0  0  0
  -26.1510  -11.8330   20.8230 N   0  0  0  0  0  0  0  0  0  0  0  0
  -24.1140  -10.5780   21.1620 C   0  0  0  0  0  0  0  0  0  0  0  0
  -24.4780   -9.6330   22.1460 C   0  0  0  0  0  3  0  0  0  0  0  0
  -23.7570   -8.4250   22.2790 C   0  0  0  0  0  3  0  0  0  0  0  0
  -22.6630   -8.1510   21.4190 C   0  0  0  0  0  0  0  0  0  0  0  0
  -22.3230   -9.0890   20.4310 C   0  0  0  0  0  3  0  0  0  0  0  0
  -23.0410  -10.2880   20.2930 C   0  0  0  0  0  3  0  0  0  0  0  0
  -21.9200   -6.9950   21.4540 O   0  0  0  0  0  0  0  0  0  0  0  0
  -21.7620   -6.2810   22.6160 C   0  0  0  0  0  0  0  0  0  0  0  0
  -21.1510   -6.8420   23.7590 C   0  0  0  0  0  3  0  0  0  0  0  0
  -20.9440   -6.0490   24.9080 C   0  0  0  0  0  3  0  0  0  0  0  0
  -21.3330   -4.6960   24.9110 C   0  0  0  0  0  0  0  0  0  0  0  0
  -21.9340   -4.1360   23.7730 C   0  0  0  0  0  3  0  0  0  0  0  0
  -22.1460   -4.9240   22.6270 C   0  0  0  0  0  0  0  0  0  0  0  0
  -22.7030   -4.3700   21.5260 F   0  0  0  0  0  0  0  0  0  0  0  0
  -21.1280   -3.9330   26.0110 F   0  0  0  0  0  0  0  0  0  0  0  0
  -22.9210  -13.6450   21.1310 C   0  0  0  0  0  0  0  0  0  0  0  0
  -22.1310  -12.9560   21.9420 N   0  0  0  0  0  0  0  0  0  0  0  0
  -22.5140  -14.6440   20.5430 O   0  0  0  0  0  0  0  0  0  0  0  0
  -22.4730  -12.1510   22.4430 H   0  0  0  0  0  0  0  0  0  0  0  0
  -21.1720  -13.2480   22.0680 H   0  0  0  0  0  0  0  0  0  0  0  0
  -25.5750  -15.3530   20.5220 N   0  0  0  0  0  0  0  0  0  0  0  0
  -24.7770  -15.9770   20.5230 H   0  0  0  0  0  0  0  0  0  0  0  0
  -26.4200  -15.7800   20.1690 H   0  0  0  0  0  0  0  0  0  0  0  0
  -28.1330  -17.5600   19.3980 C   0  0  0  0  0  2  0  0  0  0  0  0
  -27.9400  -17.9350   18.0530 O   0  0  0  0  0  0  0  0  0  0  0  0
  -27.0100  -18.1080   17.9380 H   0  0  0  0  0  0  0  0  0  0  0  0
  1  7  1  0
  1  8  1  0
  2  3  1  0
  4  2  1  0
  5  3  1  0
  6  4  1  0
  6  7  1  0
  7  5  1  0
 10  9  1  0
 10 11  1  0
 10  8  1  0
 11 13  1  0
 13 12  1  0
 14 16  1  0
 14 13  1  0
 15 26  2  0
 16 21  1  0
 17 25  1  0
 17 27  1  0
 18 24  1  0
 18 20  1  0
 19 25  1  0
 20 19  1  0
 21 20  2  0
 22 23  1  0
 22 16  2  0
 23 18  2  0
 24 17  1  0
 25 15  1  0
 27 29  2  0
 28 27  1  0
 30 28  1  0
 31 40  2  0
 31 36  1  0
 32 28  1  0
 32 36  1  0
 33 32  1  0
 34 35  1  0
 34 33  1  0
 35 31  1  0
 36 37  2  0
 37 38  1  0
 39 38  2  0
 40 39  1  0
 41 15  1  0
 41 42  1  0
 41 51  1  0
 42 45  1  0
 43 47  1  0
 43 42  1  0
 44 43  2  0
 47 46  1  0
 49 47  1  0
 49 50  1  0
 49 48  1  0
 51 54  1  1
 51 52  1  0
 53 51  1  0
 55  1  1  0
 55 64  2  3
 56 64  1  0
 56 62  1  0
 57 62  1  0
 58 59  1  0
 58 57  1  0
 60 59  1  0
 60 69  1  0
 60 61  1  0
 62 61  1  0
 63 56  2  0
 64 65  1  0
 66 67  2  0
 67 68  1  0
 67 86  1  0
 68 71  1  0
 69 66  1  0
 69 70  1  0
 70 68  2  0
 71 72  1  0
 72 73  2  0
 74 77  1  0
 74 73  1  0
 75 74  2  0
 76 75  1  0
 76 71  2  0
 77 78  1  0
 78 83  2  0
 78 79  1  0
 79 80  2  0
 80 81  1  0
 81 85  1  0
 82 81  2  0
 83 82  1  0
 84 83  1  0
 86 87  1  0
 87 90  1  0
 87 89  1  0
 88 86  2  0
 91 92  1  0
 91 66  1  0
 93 91  1  0
 94 55  1  0
 95 94  1  0
 96 95  1  0
M  ISO  4  13 101  14 101  56 100  64 100
M  END
>  <TORSDO>  (37) 
F 24

>  <SCORE>  (37) 
-13.465

>  <name>  (37) 
37

>  <ligand_id>  (37) 
37

>  <original_smiles>  (37) 
[H]OC([H])([H])C([H])(N([H])C(=O)N1C([H])([H])C([H])([H])C([H])([H])C([H])(n2nc(-c3c([H])c([H])c(Oc4c([H])c([H])c(F)c([H])c4F)c([H])c3[H])c(C(=O)N([H])[H])c2N([H])[H])C1([H])[H])C([H])(C([H])([H])C([H])(C([H])([H])[H])C([H])([H])C([H])(Oc1c([H])c([H])c2c(c1[H])C([H])([H])N(C(=O)C([H])(N([H])C(=O)C([H])(N([H])C([H])([H])[H])C([H])([H])[H])C(C([H])([H])[H])(C([H])([H])[H])C([H])([H])[H])C([H])(C(=O)N([H])C1([H])c3c([H])c([H])c([H])c([H])c3C([H])([H])C([H])([H])C1([H])[H])C2([H])[H])C([H])([H])[H])C1([H])C([H])([H])C([H])([H])C([H])([H])C([H])([H])C1([H])[H]

>  <smiles>  (37) 
[H]OC([H])([H])C([H])(N([H])C(=O)N1C([H])([H])C([H])([H])C([H])([H])C([H])(n2nc(-c3c([H])c([H])c(Oc4c([H])c([H])c(F)c([H])c4F)c([H])c3[H])c(C(=O)N([H])[H])c2N([H])[H])C1([H])[H])C([H])(C([H])([H])C([H])(C([H])([H])[H])C([H])([H])C([H])(Oc1c([H])c([H])c2c(c1[H])C([H])([H])N(C(=O)C([H])(N([H])C(=O)C([H])(N([H])C([H])([H])[H])C([H])([H])[H])C(C([H])([H])[H])(C([H])([H])[H])C([H])([H])[H])C([H])(C(=O)N([H])C1([H])c3c([H])c([H])c([H])c([H])c3C([H])([H])C([H])([H])C1([H])[H])C2([H])[H])C([H])([H])[H])C1([H])C([H])([H])C([H])([H])C([H])([H])C([H])([H])C1([H])[H]

$$$$
38:0:0
     RDKit          3D

 90 98  0  0  1  0  0  0  0  0999 V2000
  -29.3550  -20.8790   21.1840 C   0  0  0  0  0  3  0  0  0  0  0  0
  -29.0440  -21.3660   19.1520 C   0  0  0  0  0  3  0  0  0  0  0  0
  -29.4290  -20.1630   19.9240 C   0  0  0  0  0  0  0  0  0  0  0  0
  -28.9950  -22.2480   21.1220 C   0  0  0  0  0  0  0  0  0  0  0  0
  -28.7520  -22.7080   19.8150 N   0  0  0  0  0  0  0  0  0  0  0  0
  -28.8180  -23.2050   22.2660 C   0  0  1  0  0  0  0  0  0  0  0  0
  -29.2400  -22.6780   23.4160 F   0  0  0  0  0  0  0  0  0  0  0  0
  -29.5050  -24.3310   22.0730 F   0  0  0  0  0  0  0  0  0  0  0  0
  -27.5360  -23.5360   22.4330 F   0  0  0  0  0  0  0  0  0  0  0  0
  -30.0030  -18.4640   19.5630 C   0  0  0  0  0  2  0  0  0  0  0  0
  -30.5130  -15.5120   19.9680 C   0  0  0  0  0  0  0  0  0  0  0  0
  -30.5070  -12.9830   19.2640 C   0  0  0  0  0  2  0  0  0  0  0  0
  -29.5820  -12.6510   18.0620 C   0  0  0  0  0  2  0  0  0  0  0  0
  -28.1460  -12.3810   18.5360 C   0  0  0  0  0  2  0  0  0  0  0  0
  -27.6920  -13.4120   19.5970 C   0  0  0  0  0  3  0  0  0  0  0  0
  -28.7480  -13.6790   20.6930 C   0  0  0  0  0  2  0  0  0  0  0  0
  -29.9540  -14.1860   20.0130 N   0  0  0  0  0  0  0  0  0  0  0  0
  -31.7230  -15.4660   19.6930 O   0  0  0  0  0  0  0  0  0  0  0  0
  -29.7760  -16.8330   20.0320 N   0  0  0  0  0  0  0  0  0  0  0  0
  -28.8190  -16.6760   20.3130 H   0  0  0  0  0  0  0  0  0  0  0  0
  -25.3620  -14.0090   20.4240 C   0  0  0  0  0  0  0  0  0  0  0  0
  -24.2930  -13.2520   20.8150 C   0  0  0  0  0  0  0  0  0  0  0  0
  -24.7280  -11.8920   20.7630 C   0  0  0  0  0  0  0  0  0  0  0  0
  -26.3770  -13.1130   20.1440 N   0  0  0  0  0  0  0  0  0  0  0  0
  -26.0120  -11.8320   20.4160 N   0  0  0  0  0  0  0  0  0  0  0  0
  -23.9770  -10.6460   20.9640 C   0  0  0  0  0  0  0  0  0  0  0  0
  -24.4120   -9.6570   21.8740 C   0  0  0  0  0  3  0  0  0  0  0  0
  -23.6590   -8.4790   22.0670 C   0  0  0  0  0  3  0  0  0  0  0  0
  -22.4560   -8.2790   21.3480 C   0  0  0  0  0  0  0  0  0  0  0  0
  -22.0400   -9.2560   20.4250 C   0  0  0  0  0  3  0  0  0  0  0  0
  -22.7930  -10.4260   20.2320 C   0  0  0  0  0  3  0  0  0  0  0  0
  -21.6730   -7.1550   21.4510 O   0  0  0  0  0  0  0  0  0  0  0  0
  -21.6650   -6.3840   22.5850 C   0  0  0  0  0  0  0  0  0  0  0  0
  -21.2770   -6.9070   23.8380 C   0  0  0  0  0  3  0  0  0  0  0  0
  -21.2160   -6.0620   24.9650 C   0  0  0  0  0  3  0  0  0  0  0  0
  -21.5330   -4.6970   24.8400 C   0  0  0  0  0  0  0  0  0  0  0  0
  -21.9130   -4.1730   23.5920 C   0  0  0  0  0  3  0  0  0  0  0  0
  -21.9770   -5.0150   22.4680 C   0  0  0  0  0  0  0  0  0  0  0  0
  -22.3230   -4.5000   21.2620 F   0  0  0  0  0  0  0  0  0  0  0  0
  -21.4680   -3.8840   25.9200 F   0  0  0  0  0  0  0  0  0  0  0  0
  -22.9150  -13.7600   21.1220 C   0  0  0  0  0  0  0  0  0  0  0  0
  -22.1920  -13.0760   22.0010 N   0  0  0  0  0  0  0  0  0  0  0  0
  -22.4920  -14.8000   20.6190 O   0  0  0  0  0  0  0  0  0  0  0  0
  -22.5490  -12.2350   22.4270 H   0  0  0  0  0  0  0  0  0  0  0  0
  -21.2670  -13.3980   22.2490 H   0  0  0  0  0  0  0  0  0  0  0  0
  -25.5500  -15.3770   20.2500 N   0  0  0  0  0  0  0  0  0  0  0  0
  -24.8000  -16.0470   20.3810 H   0  0  0  0  0  0  0  0  0  0  0  0
  -26.3870  -15.7930   19.8640 H   0  0  0  0  0  0  0  0  0  0  0  0
  -28.0690  -24.2140   19.3040 C   0  0  0  0  0  2  0  0  0  0  0  0
  -28.3180  -25.7920   19.7330 O   0  0  0  0  0  0  0  0  0  0  0  0
  -24.6590  -31.6580   22.9600 C   0  0  0  0  0  0  0  0  0  0  0  0
  -27.3040  -26.9220   19.6900 C   0  0  0  0  0  0  0  0  0  0  0  0
  -23.4810  -30.2930   21.2850 C   0  0  0  0  0  3  0  0  0  0  0  0
  -24.9550  -28.7890   19.7650 C   0  0  0  0  0  0  0  0  0  0  0  0
  -26.0420  -30.5670   21.1130 C   0  0  0  0  0  2  0  0  0  0  0  0
  -26.1420  -29.1820   20.3930 C   0  0  0  0  0  0  0  0  0  0  0  0
  -27.3020  -28.2700   20.3350 C   0  0  0  0  0  3  0  0  0  0  0  0
  -26.0830  -26.7180   19.0010 C   0  0  0  0  0  3  0  0  0  0  0  0
  -24.9560  -27.5830   19.0460 C   0  0  0  0  0  3  0  0  0  0  0  0
  -23.7090  -29.6740   19.8780 C   0  0  0  0  0  2  0  0  0  0  0  0
  -24.7500  -30.8670   21.8400 N   0  0  0  0  0  0  0  0  0  0  0  0
  -23.5690  -31.8930   23.5090 O   0  0  0  0  0  0  0  0  0  0  0  0
  -22.8310  -29.2410   22.2220 C   0  0  0  0  0  0  0  0  0  0  0  0
  -21.5020  -29.0500   22.1230 N   0  0  0  0  0  0  0  0  0  0  0  0
  -23.5310  -28.5970   23.0080 O   0  0  0  0  0  0  0  0  0  0  0  0
  -20.9880  -29.6210   21.4660 H   0  0  0  0  0  0  0  0  0  0  0  0
  -18.1630  -27.7320   22.6720 C   0  0  0  0  0  0  0  0  0  0  0  0
  -20.7230  -28.0560   22.8710 C   0  0  0  0  0  3  0  0  0  0  0  0
  -20.8420  -26.6560   22.2230 C   0  0  0  0  0  2  0  0  0  0  0  0
  -19.7180  -26.3560   21.2260 C   0  0  0  0  0  2  0  0  0  0  0  0
  -18.3540  -26.4280   21.9180 C   0  0  0  0  0  2  0  0  0  0  0  0
  -19.2750  -28.5050   23.1040 C   0  0  0  0  0  0  0  0  0  0  0  0
  -19.0390  -29.7250   23.7750 C   0  0  0  0  0  3  0  0  0  0  0  0
  -17.7260  -30.1740   24.0130 C   0  0  0  0  0  3  0  0  0  0  0  0
  -16.6310  -29.4000   23.5920 C   0  0  0  0  0  3  0  0  0  0  0  0
  -16.8500  -28.1810   22.9280 C   0  0  0  0  0  3  0  0  0  0  0  0
  -25.9180  -32.3180   23.6000 C   0  0  0  0  0  3  0  0  0  0  0  0
  -26.4730  -31.5150   24.8420 C   0  0  1  0  0  0  0  0  0  0  0  0
  -25.4020  -31.2090   25.9170 C   0  0  0  0  0  1  0  0  0  0  0  0
  -27.0880  -30.1680   24.4020 C   0  0  0  0  0  1  0  0  0  0  0  0
  -27.6120  -32.3170   25.5160 C   0  0  0  0  0  1  0  0  0  0  0  0
  -25.5570  -33.6880   24.0080 N   0  0  0  0  0  0  0  0  0  0  0  0
  -25.8540  -34.8000   23.3200 C   0  0  0  0  0  0  0  0  0  0  0  0
  -26.5200  -34.7800   22.2830 O   0  0  0  0  0  0  0  0  0  0  0  0
  -24.9610  -33.7740   24.8180 H   0  0  0  0  0  0  0  0  0  0  0  0
  -24.0650  -36.5610   23.1010 C   0  0  0  0  0  1  0  0  0  0  0  0
  -25.3310  -36.1450   23.8670 C   0  0  0  0  0  3  0  0  0  0  0  0
  -27.4430  -37.0580   24.7290 C   0  0  0  0  0  1  0  0  0  0  0  0
  -26.3290  -37.2370   23.8020 N   0  0  0  0  0  0  0  0  0  0  0  0
  -25.8950  -38.1350   23.9980 H   0  0  0  0  0  0  0  0  0  0  0  0
  2  5  1  0
  2  3  2  0
  3  1  1  0
  4  1  2  0
  4  6  1  0
  5  4  1  0
  6  9  1  1
  6  7  1  0
  8  6  1  0
 10  3  1  0
 10 19  1  0
 11 17  1  0
 11 19  1  0
 12 17  1  0
 13 14  1  0
 13 12  1  0
 15 14  1  0
 15 24  1  0
 15 16  1  0
 17 16  1  0
 18 11  2  0
 19 20  1  0
 21 22  2  0
 22 41  1  0
 23 22  1  0
 23 26  1  0
 24 25  1  0
 24 21  1  0
 25 23  2  0
 26 27  1  0
 27 28  2  0
 29 32  1  0
 29 28  1  0
 30 29  2  0
 31 30  1  0
 31 26  2  0
 32 33  1  0
 33 34  1  0
 34 35  2  0
 36 35  1  0
 36 40  1  0
 37 36  2  0
 38 33  2  0
 38 37  1  0
 39 38  1  0
 41 42  1  0
 42 45  1  0
 42 44  1  0
 43 41  2  0
 46 47  1  0
 46 21  1  0
 48 46  1  0
 49 50  1  0
 49  5  1  0
 51 62  2  0
 52 50  1  0
 52 57  1  0
 53 61  1  0
 53 63  1  0
 54 60  1  0
 54 56  1  0
 55 61  1  0
 56 55  1  0
 57 56  2  0
 58 59  1  0
 58 52  2  0
 59 54  2  0
 60 53  1  0
 61 51  1  0
 63 65  2  0
 64 63  1  0
 66 64  1  0
 67 76  2  0
 67 72  1  0
 68 64  1  0
 68 72  1  0
 69 68  1  0
 70 71  1  0
 70 69  1  0
 71 67  1  0
 72 73  2  0
 73 74  1  0
 75 74  2  0
 76 75  1  0
 77 51  1  0
 77 82  1  0
 77 78  1  0
 78 81  1  1
 78 79  1  0
 80 78  1  0
 82 85  1  0
 83 87  1  0
 83 82  1  0
 84 83  2  0
 87 86  1  0
 89 87  1  0
 89 90  1  0
 89 88  1  0
M  ISO  4  11 100  19 100  49 101  50 101
M  END
>  <TORSDO>  (38) 
F 19

>  <SCORE>  (38) 
-15.449

>  <name>  (38) 
38

>  <ligand_id>  (38) 
38

>  <original_smiles>  (38) 
[H]c1c([H])c([H])c2c(c1[H])C([H])([H])C([H])([H])C([H])([H])C2([H])N([H])C(=O)C1([H])N(C(=O)C([H])(N([H])C(=O)C([H])(N([H])C([H])([H])[H])C([H])([H])[H])C(C([H])([H])[H])(C([H])([H])[H])C([H])([H])[H])C([H])([H])c2c([H])c(OC([H])([H])n3c([H])c(C([H])([H])N([H])C(=O)N4C([H])([H])C([H])([H])C([H])([H])C([H])(n5nc(-c6c([H])c([H])c(Oc7c([H])c([H])c(F)c([H])c7F)c([H])c6[H])c(C(=O)N([H])[H])c5N([H])[H])C4([H])[H])c([H])c3C(F)(F)F)c([H])c([H])c2C1([H])[H]

>  <smiles>  (38) 
[H]c1c([H])c([H])c2c(c1[H])C([H])([H])C([H])([H])C([H])([H])C2([H])N([H])C(=O)C1([H])N(C(=O)C([H])(N([H])C(=O)C([H])(N([H])C([H])([H])[H])C([H])([H])[H])C(C([H])([H])[H])(C([H])([H])[H])C([H])([H])[H])C([H])([H])c2c([H])c(OC([H])([H])n3c([H])c(C([H])([H])N([H])C(=O)N4C([H])([H])C([H])([H])C([H])([H])C([H])(n5nc(-c6c([H])c([H])c(Oc7c([H])c([H])c(F)c([H])c7F)c([H])c6[H])c(C(=O)N([H])[H])c5N([H])[H])C4([H])[H])c([H])c3C(F)(F)F)c([H])c([H])c2C1([H])[H]

$$$$
39:0:0
     RDKit          3D

 88 96  0  0  1  0  0  0  0  0999 V2000
  -27.4860  -21.2990   20.0150 C   0  0  0  0  0  3  0  0  0  0  0  0
  -29.7320  -20.5830   20.3730 C   0  0  0  0  0  3  0  0  0  0  0  0
  -27.1700  -19.9190   19.9170 C   0  0  0  0  0  3  0  0  0  0  0  0
  -28.8020  -21.7390   20.2570 C   0  0  0  0  0  0  0  0  0  0  0  0
  -29.3530  -19.1490   20.2610 C   0  0  0  0  0  0  0  0  0  0  0  0
  -28.0490  -18.8840   20.0330 N   0  0  0  0  0  0  0  0  0  0  0  0
  -29.1300  -23.3660   20.3990 C   0  0  0  0  0  3  0  0  0  0  0  0
  -28.0750  -24.6800   20.1720 C   0  0  0  0  0  3  0  0  0  0  0  0
  -28.3420  -26.2180   20.3760 O   0  0  0  0  0  0  0  0  0  0  0  0
  -24.6840  -31.9390   23.3130 C   0  0  0  0  0  0  0  0  0  0  0  0
  -27.2920  -27.2140   20.3030 C   0  0  0  0  0  0  0  0  0  0  0  0
  -23.5070  -30.5510   21.6520 C   0  0  0  0  0  3  0  0  0  0  0  0
  -24.9710  -28.9770   20.2430 C   0  0  0  0  0  0  0  0  0  0  0  0
  -26.0650  -30.8080   21.5240 C   0  0  0  0  0  2  0  0  0  0  0  0
  -26.1460  -29.4160   20.8680 C   0  0  0  0  0  0  0  0  0  0  0  0
  -27.3070  -28.5520   20.8800 C   0  0  0  0  0  3  0  0  0  0  0  0
  -26.0910  -26.8810   19.6420 C   0  0  0  0  0  3  0  0  0  0  0  0
  -24.9580  -27.7230   19.6160 C   0  0  0  0  0  3  0  0  0  0  0  0
  -23.7460  -29.8790   20.2740 C   0  0  0  0  0  2  0  0  0  0  0  0
  -24.7710  -31.1200   22.2170 N   0  0  0  0  0  0  0  0  0  0  0  0
  -23.5910  -32.2240   23.8240 O   0  0  0  0  0  0  0  0  0  0  0  0
  -22.8110  -29.5440   22.6010 C   0  0  0  0  0  0  0  0  0  0  0  0
  -21.4850  -29.3700   22.4500 N   0  0  0  0  0  0  0  0  0  0  0  0
  -23.4660  -28.9180   23.4380 O   0  0  0  0  0  0  0  0  0  0  0  0
  -21.0110  -29.9270   21.7520 H   0  0  0  0  0  0  0  0  0  0  0  0
  -18.0930  -28.1860   22.9130 C   0  0  0  0  0  0  0  0  0  0  0  0
  -20.6510  -28.4320   23.2060 C   0  0  0  0  0  3  0  0  0  0  0  0
  -20.7500  -27.0030   22.6230 C   0  0  0  0  0  2  0  0  0  0  0  0
  -19.6560  -26.6950   21.5950 C   0  0  0  0  0  2  0  0  0  0  0  0
  -18.2680  -26.8420   22.2260 C   0  0  0  0  0  2  0  0  0  0  0  0
  -19.2110  -28.9400   23.3580 C   0  0  0  0  0  0  0  0  0  0  0  0
  -18.9900  -30.1960   23.9610 C   0  0  0  0  0  3  0  0  0  0  0  0
  -17.6870  -30.7010   24.1210 C   0  0  0  0  0  3  0  0  0  0  0  0
  -16.5840  -29.9450   23.6890 C   0  0  0  0  0  3  0  0  0  0  0  0
  -16.7860  -28.6890   23.0910 C   0  0  0  0  0  3  0  0  0  0  0  0
  -25.9540  -32.5710   23.9610 C   0  0  0  0  0  3  0  0  0  0  0  0
  -26.4280  -31.8120   25.2610 C   0  0  1  0  0  0  0  0  0  0  0  0
  -25.3050  -31.5940   26.3020 C   0  0  0  0  0  1  0  0  0  0  0  0
  -27.0140  -30.4270   24.9090 C   0  0  0  0  0  1  0  0  0  0  0  0
  -27.5620  -32.6100   25.9470 C   0  0  0  0  0  1  0  0  0  0  0  0
  -25.6450  -33.9760   24.2730 N   0  0  0  0  0  0  0  0  0  0  0  0
  -25.9600  -35.0210   23.4970 C   0  0  0  0  0  0  0  0  0  0  0  0
  -26.6090  -34.9040   22.4530 O   0  0  0  0  0  0  0  0  0  0  0  0
  -25.0640  -34.1400   25.0830 H   0  0  0  0  0  0  0  0  0  0  0  0
  -24.2090  -36.8020   23.1750 C   0  0  0  0  0  1  0  0  0  0  0  0
  -25.4820  -36.4170   23.9460 C   0  0  0  0  0  3  0  0  0  0  0  0
  -27.6320  -37.3400   24.6890 C   0  0  0  0  0  1  0  0  0  0  0  0
  -26.5020  -37.4730   23.7730 N   0  0  0  0  0  0  0  0  0  0  0  0
  -26.0950  -38.3940   23.9060 H   0  0  0  0  0  0  0  0  0  0  0  0
  -30.3310  -17.8140   20.3540 C   0  0  0  0  0  2  0  0  0  0  0  0
  -30.6640  -15.0900   20.2620 C   0  0  0  0  0  0  0  0  0  0  0  0
  -30.5360  -12.7440   19.3010 C   0  0  0  0  0  2  0  0  0  0  0  0
  -29.5800  -12.6940   18.0880 C   0  0  0  0  0  2  0  0  0  0  0  0
  -28.1250  -12.4770   18.5460 C   0  0  0  0  0  2  0  0  0  0  0  0
  -27.7370  -13.3840   19.7450 C   0  0  0  0  0  3  0  0  0  0  0  0
  -28.8160  -13.3990   20.8450 C   0  0  0  0  0  2  0  0  0  0  0  0
  -30.0650  -13.8310   20.2090 N   0  0  0  0  0  0  0  0  0  0  0  0
  -31.8670  -15.1440   19.9810 O   0  0  0  0  0  0  0  0  0  0  0  0
  -29.9080  -16.2880   20.4180 N   0  0  0  0  0  0  0  0  0  0  0  0
  -28.9190  -16.1580   20.5720 H   0  0  0  0  0  0  0  0  0  0  0  0
  -25.3730  -13.9330   20.5540 C   0  0  0  0  0  0  0  0  0  0  0  0
  -24.3200  -13.1450   20.9290 C   0  0  0  0  0  0  0  0  0  0  0  0
  -24.7890  -11.7980   20.8540 C   0  0  0  0  0  0  0  0  0  0  0  0
  -26.4130  -13.0660   20.2680 N   0  0  0  0  0  0  0  0  0  0  0  0
  -26.0740  -11.7740   20.5150 N   0  0  0  0  0  0  0  0  0  0  0  0
  -24.0710  -10.5280   21.0270 C   0  0  0  0  0  0  0  0  0  0  0  0
  -24.4890   -9.5620   21.9690 C   0  0  0  0  0  3  0  0  0  0  0  0
  -23.7660   -8.3610   22.1320 C   0  0  0  0  0  3  0  0  0  0  0  0
  -22.6110   -8.1150   21.3510 C   0  0  0  0  0  0  0  0  0  0  0  0
  -22.2130   -9.0690   20.4000 C   0  0  0  0  0  3  0  0  0  0  0  0
  -22.9360  -10.2630   20.2350 C   0  0  0  0  0  3  0  0  0  0  0  0
  -21.8640   -6.9640   21.4220 O   0  0  0  0  0  0  0  0  0  0  0  0
  -21.7370   -6.2580   22.5920 C   0  0  0  0  0  0  0  0  0  0  0  0
  -21.1620   -6.8280   23.7490 C   0  0  0  0  0  3  0  0  0  0  0  0
  -20.9900   -6.0440   24.9080 C   0  0  0  0  0  3  0  0  0  0  0  0
  -21.3830   -4.6930   24.9080 C   0  0  0  0  0  0  0  0  0  0  0  0
  -21.9500   -4.1230   23.7550 C   0  0  0  0  0  3  0  0  0  0  0  0
  -22.1240   -4.9030   22.5990 C   0  0  0  0  0  0  0  0  0  0  0  0
  -22.6520   -4.3430   21.4840 F   0  0  0  0  0  0  0  0  0  0  0  0
  -21.2100   -3.9380   26.0180 F   0  0  0  0  0  0  0  0  0  0  0  0
  -22.9270  -13.6110   21.2400 C   0  0  0  0  0  0  0  0  0  0  0  0
  -22.2230  -12.9020   22.1140 N   0  0  0  0  0  0  0  0  0  0  0  0
  -22.4730  -14.6400   20.7400 O   0  0  0  0  0  0  0  0  0  0  0  0
  -22.6020  -12.0690   22.5410 H   0  0  0  0  0  0  0  0  0  0  0  0
  -21.2890  -13.1980   22.3590 H   0  0  0  0  0  0  0  0  0  0  0  0
  -25.5240  -15.3080   20.4090 N   0  0  0  0  0  0  0  0  0  0  0  0
  -24.7560  -15.9490   20.5740 H   0  0  0  0  0  0  0  0  0  0  0  0
  -26.3530  -15.7710   20.0580 H   0  0  0  0  0  0  0  0  0  0  0  0
  1  4  1  0
  3  1  2  0
  3  6  1  0
  4  2  2  0
  4  7  1  0
  5 50  1  0
  5  2  1  0
  6  5  2  0
  8  9  1  0
  8  7  2  0
 10 21  2  0
 11  9  1  0
 11 16  1  0
 12 20  1  0
 12 22  1  0
 13 19  1  0
 13 15  1  0
 14 20  1  0
 15 16  2  0
 15 14  1  0
 17 11  2  0
 18 17  1  0
 18 13  2  0
 19 12  1  0
 20 10  1  0
 22 24  2  0
 23 22  1  0
 25 23  1  0
 26 35  2  0
 26 31  1  0
 27 23  1  0
 27 31  1  0
 28 27  1  0
 29 30  1  0
 29 28  1  0
 30 26  1  0
 31 32  2  0
 32 33  1  0
 34 33  2  0
 35 34  1  0
 36 10  1  0
 36 41  1  0
 36 37  1  0
 37 40  1  1
 37 38  1  0
 39 37  1  0
 41 44  1  0
 42 46  1  0
 42 41  1  0
 43 42  2  0
 46 45  1  0
 48 49  1  0
 48 46  1  0
 48 47  1  0
 50 59  1  0
 51 59  1  0
 52 57  1  0
 53 54  1  0
 53 52  1  0
 55 54  1  0
 55 64  1  0
 55 56  1  0
 57 51  1  0
 57 56  1  0
 58 51  2  0
 59 60  1  0
 61 62  2  0
 62 81  1  0
 63 62  1  0
 63 66  1  0
 64 65  1  0
 64 61  1  0
 65 63  2  0
 66 67  1  0
 67 68  2  0
 69 72  1  0
 69 68  1  0
 70 69  2  0
 71 70  1  0
 71 66  2  0
 72 73  1  0
 73 78  2  0
 73 74  1  0
 74 75  2  0
 75 76  1  0
 76 80  1  0
 77 76  2  0
 78 77  1  0
 79 78  1  0
 81 82  1  0
 82 85  1  0
 82 84  1  0
 83 81  2  0
 86 61  1  0
 86 87  1  0
 88 86  1  0
M  ISO  4   8 101   9 101  51 100  59 100
M  END
>  <TORSDO>  (39) 
F 19

>  <SCORE>  (39) 
-14.389

>  <name>  (39) 
39

>  <ligand_id>  (39) 
39

>  <original_smiles>  (39) 
[H]c1nc(C([H])([H])N([H])C(=O)N2C([H])([H])C([H])([H])C([H])([H])C([H])(n3nc(-c4c([H])c([H])c(Oc5c([H])c([H])c(F)c([H])c5F)c([H])c4[H])c(C(=O)N([H])[H])c3N([H])[H])C2([H])[H])c([H])c(C([H])([H])C([H])([H])Oc2c([H])c([H])c3c(c2[H])C([H])([H])N(C(=O)C([H])(N([H])C(=O)C([H])(N([H])C([H])([H])[H])C([H])([H])[H])C(C([H])([H])[H])(C([H])([H])[H])C([H])([H])[H])C([H])(C(=O)N([H])C2([H])c4c([H])c([H])c([H])c([H])c4C([H])([H])C([H])([H])C2([H])[H])C3([H])[H])c1[H]

>  <smiles>  (39) 
[H]c1nc(C([H])([H])N([H])C(=O)N2C([H])([H])C([H])([H])C([H])([H])C([H])(n3nc(-c4c([H])c([H])c(Oc5c([H])c([H])c(F)c([H])c5F)c([H])c4[H])c(C(=O)N([H])[H])c3N([H])[H])C2([H])[H])c([H])c(C([H])([H])C([H])([H])Oc2c([H])c([H])c3c(c2[H])C([H])([H])N(C(=O)C([H])(N([H])C(=O)C([H])(N([H])C([H])([H])[H])C([H])([H])[H])C(C([H])([H])[H])(C([H])([H])[H])C([H])([H])[H])C([H])(C(=O)N([H])C2([H])c4c([H])c([H])c([H])c([H])c4C([H])([H])C([H])([H])C2([H])[H])C3([H])[H])c1[H]

$$$$
40:0:0
     RDKit          3D

 99107  0  0  1  0  0  0  0  0999 V2000
  -25.4090  -18.2180   19.6960 C   0  0  0  0  0  1  0  0  0  0  0  0
  -26.9370  -19.6050   20.9180 C   0  0  0  0  0  1  0  0  0  0  0  0
  -26.7960  -18.8980   19.5500 C   0  0  1  0  0  0  0  0  0  0  0  0
  -27.8780  -17.7430   19.2200 C   0  0  0  0  0  2  0  0  0  0  0  0
  -31.3210  -13.8690   19.3490 C   0  0  0  0  0  0  0  0  0  0  0  0
  -30.9850  -11.4850   18.7690 C   0  0  0  0  0  2  0  0  0  0  0  0
  -29.9380  -11.4210   17.6420 C   0  0  0  0  0  2  0  0  0  0  0  0
  -28.4890  -11.4290   18.2020 C   0  0  0  0  0  2  0  0  0  0  0  0
  -28.2970  -12.5320   19.2860 C   0  0  0  0  0  3  0  0  0  0  0  0
  -29.4350  -12.4600   20.3420 C   0  0  0  0  0  2  0  0  0  0  0  0
  -30.6740  -12.6850   19.5930 N   0  0  0  0  0  0  0  0  0  0  0  0
  -32.3810  -13.7730   18.7140 O   0  0  0  0  0  0  0  0  0  0  0  0
  -31.2900  -17.6120   19.6880 C   0  0  0  0  0  0  0  0  0  0  0  0
  -29.4010  -15.6070   19.7660 C   0  0  0  0  0  2  0  0  0  0  0  0
  -31.7850  -16.2360   20.1490 C   0  0  0  0  0  3  0  0  0  0  0  0
  -28.9820  -17.1090   20.1940 C   0  0  0  0  0  3  0  0  0  0  0  0
  -33.2660  -16.1460   19.7020 C   0  0  0  0  0  1  0  0  0  0  0  0
  -30.1540  -17.9900   20.3090 N   0  0  0  0  0  0  0  0  0  0  0  0
  -30.8510  -15.1080   19.8120 N   0  0  0  0  0  0  0  0  0  0  0  0
  -31.9190  -18.3460   18.9190 O   0  0  0  0  0  0  0  0  0  0  0  0
  -26.1230  -13.5540   20.2170 C   0  0  0  0  0  0  0  0  0  0  0  0
  -25.0030  -12.9770   20.7470 C   0  0  0  0  0  0  0  0  0  0  0  0
  -25.2200  -11.5690   20.6630 C   0  0  0  0  0  0  0  0  0  0  0  0
  -26.9760  -12.5010   19.8970 N   0  0  0  0  0  0  0  0  0  0  0  0
  -26.4410  -11.3020   20.2150 N   0  0  0  0  0  0  0  0  0  0  0  0
  -24.3090  -10.4530   20.9210 C   0  0  0  0  0  0  0  0  0  0  0  0
  -24.6630   -9.3960   21.7870 C   0  0  0  0  0  3  0  0  0  0  0  0
  -23.7610   -8.3380   22.0280 C   0  0  0  0  0  3  0  0  0  0  0  0
  -22.4880   -8.3400   21.4110 C   0  0  0  0  0  0  0  0  0  0  0  0
  -22.1480   -9.3820   20.5360 C   0  0  0  0  0  3  0  0  0  0  0  0
  -23.0470  -10.4320   20.2910 C   0  0  0  0  0  3  0  0  0  0  0  0
  -21.5510   -7.3490   21.5780 O   0  0  0  0  0  0  0  0  0  0  0  0
  -21.5610   -6.5380   22.6830 C   0  0  0  0  0  0  0  0  0  0  0  0
  -21.4120   -7.0560   23.9880 C   0  0  0  0  0  3  0  0  0  0  0  0
  -21.3510   -6.1790   25.0890 C   0  0  0  0  0  3  0  0  0  0  0  0
  -21.4400   -4.7880   24.8870 C   0  0  0  0  0  0  0  0  0  0  0  0
  -21.5860   -4.2720   23.5880 C   0  0  0  0  0  3  0  0  0  0  0  0
  -21.6500   -5.1440   22.4880 C   0  0  0  0  0  0  0  0  0  0  0  0
  -21.7740   -4.6460   21.2360 F   0  0  0  0  0  0  0  0  0  0  0  0
  -21.3730   -3.9440   25.9430 F   0  0  0  0  0  0  0  0  0  0  0  0
  -23.7620  -13.6900   21.1800 C   0  0  0  0  0  0  0  0  0  0  0  0
  -23.0220  -13.1070   22.1150 N   0  0  0  0  0  0  0  0  0  0  0  0
  -23.4520  -14.7850   20.7210 O   0  0  0  0  0  0  0  0  0  0  0  0
  -23.2550  -12.2050   22.4970 H   0  0  0  0  0  0  0  0  0  0  0  0
  -22.1950  -13.5870   22.4330 H   0  0  0  0  0  0  0  0  0  0  0  0
  -26.4760  -14.8580   19.9540 N   0  0  0  0  0  0  0  0  0  0  0  0
  -25.7800  -15.5880   19.9980 H   0  0  0  0  0  0  0  0  0  0  0  0
  -27.1520  -15.0660   19.2310 H   0  0  0  0  0  0  0  0  0  0  0  0
  -30.1870  -20.4540   20.4020 C   0  0  0  0  0  1  0  0  0  0  0  0
  -31.1200  -19.1540   22.3570 C   0  0  0  0  0  1  0  0  0  0  0  0
  -30.1160  -19.1560   21.1950 C   0  0  0  0  0  3  0  0  0  0  0  0
  -26.5270  -19.9890   18.4020 C   0  0  0  0  0  2  0  0  0  0  0  0
  -27.6350  -20.8990   17.9700 N   0  0  0  0  0  4  0  0  0  0  0  0
  -28.4780  -20.5820   18.4110 H   0  0  0  0  0  0  0  0  0  0  0  0
  -27.7520  -20.7400   16.9800 H   0  0  0  0  0  0  0  0  0  0  0  0
  -27.5060  -22.3870   18.2300 C   0  0  0  0  0  2  0  0  0  0  0  0
  -28.8650  -23.2080   18.2100 C   0  0  0  0  0  2  0  0  0  0  0  0
  -28.9150  -24.7790   17.8940 C   0  0  0  0  0  2  0  0  0  0  0  0
  -29.0460  -25.8580   18.9110 O   0  0  0  0  0  0  0  0  0  0  0  0
  -25.4610  -29.8920   23.6820 C   0  0  0  0  0  0  0  0  0  0  0  0
  -28.0160  -26.7720   19.1540 C   0  0  0  0  0  0  0  0  0  0  0  0
  -24.3160  -29.3330   21.5820 C   0  0  0  0  0  3  0  0  0  0  0  0
  -25.7790  -28.4210   19.7040 C   0  0  0  0  0  0  0  0  0  0  0  0
  -26.8780  -29.5410   21.6370 C   0  0  0  0  0  2  0  0  0  0  0  0
  -26.9280  -28.5450   20.4900 C   0  0  0  0  0  0  0  0  0  0  0  0
  -28.0660  -27.7390   20.1940 C   0  0  0  0  0  3  0  0  0  0  0  0
  -26.8350  -26.6990   18.3850 C   0  0  0  0  0  3  0  0  0  0  0  0
  -25.7350  -27.5190   18.6420 C   0  0  0  0  0  3  0  0  0  0  0  0
  -24.5890  -29.2810   20.0600 C   0  0  0  0  0  2  0  0  0  0  0  0
  -25.5720  -29.5870   22.3550 N   0  0  0  0  0  0  0  0  0  0  0  0
  -24.3600  -29.9730   24.2480 O   0  0  0  0  0  0  0  0  0  0  0  0
  -23.5830  -28.0380   22.0000 C   0  0  0  0  0  0  0  0  0  0  0  0
  -22.2780  -27.9560   21.7080 N   0  0  0  0  0  0  0  0  0  0  0  0
  -24.1960  -27.1260   22.5620 O   0  0  0  0  0  0  0  0  0  0  0  0
  -21.8400  -28.7930   21.3540 H   0  0  0  0  0  0  0  0  0  0  0  0
  -18.9600  -26.6260   21.1600 C   0  0  0  0  0  0  0  0  0  0  0  0
  -21.4050  -26.8000   21.9660 C   0  0  0  0  0  3  0  0  0  0  0  0
  -21.6890  -25.6430   20.9940 C   0  0  0  0  0  2  0  0  0  0  0  0
  -20.7980  -25.6790   19.7510 C   0  0  0  0  0  2  0  0  0  0  0  0
  -19.3250  -25.5720   20.1380 C   0  0  0  0  0  2  0  0  0  0  0  0
  -19.9370  -27.1970   22.0130 C   0  0  0  0  0  0  0  0  0  0  0  0
  -19.5450  -28.2380   22.8930 C   0  0  0  0  0  3  0  0  0  0  0  0
  -18.2220  -28.6500   22.9630 C   0  0  0  0  0  3  0  0  0  0  0  0
  -17.2330  -28.0580   22.1490 C   0  0  0  0  0  3  0  0  0  0  0  0
  -17.6130  -27.0560   21.2390 C   0  0  0  0  0  3  0  0  0  0  0  0
  -26.7330  -30.1540   24.5490 C   0  0  0  0  0  3  0  0  0  0  0  0
  -26.5120  -31.4180   25.2790 N   0  0  0  0  0  0  0  0  0  0  0  0
  -27.0970  -32.5820   24.9700 C   0  0  0  0  0  0  0  0  0  0  0  0
  -27.9440  -32.7020   24.0820 O   0  0  0  0  0  0  0  0  0  0  0  0
  -25.7550  -31.4060   25.9510 H   0  0  0  0  0  0  0  0  0  0  0  0
  -25.7400  -34.6940   24.9240 C   0  0  0  0  0  1  0  0  0  0  0  0
  -26.6710  -33.8200   25.7760 C   0  0  0  0  0  3  0  0  0  0  0  0
  -28.5910  -33.9550   27.3030 C   0  0  0  0  0  1  0  0  0  0  0  0
  -27.8140  -34.6250   26.2580 N   0  0  0  0  0  0  0  0  0  0  0  0
  -27.4930  -35.5220   26.6240 H   0  0  0  0  0  0  0  0  0  0  0  0
  -27.0560  -28.9800   25.5490 C   0  0  1  0  0  0  0  0  0  0  0  0
  -25.8550  -28.5700   26.4300 C   0  0  0  0  0  1  0  0  0  0  0  0
  -27.5280  -27.7180   24.7960 C   0  0  0  0  0  1  0  0  0  0  0  0
  -28.2250  -29.3850   26.4730 C   0  0  0  0  0  1  0  0  0  0  0  0
  3  1  1  1
  3  2  1  0
  4  3  1  0
  5 11  1  0
  5 19  1  0
  6 11  1  0
  7  8  1  0
  7  6  1  0
  9  8  1  0
  9 24  1  0
  9 10  1  0
 11 10  1  0
 12  5  2  0
 13 15  1  0
 13 18  1  0
 14 19  1  0
 14 16  1  0
 15 17  1  0
 16  4  1  0
 16 18  1  0
 18 51  1  0
 19 15  1  0
 20 13  2  0
 21 22  2  0
 22 41  1  0
 23 22  1  0
 23 26  1  0
 24 25  1  0
 24 21  1  0
 25 23  2  0
 26 27  1  0
 27 28  2  0
 29 32  1  0
 29 28  1  0
 30 29  2  0
 31 30  1  0
 31 26  2  0
 32 33  1  0
 33 34  1  0
 34 35  2  0
 36 35  1  0
 36 40  1  0
 37 36  2  0
 38 33  2  0
 38 37  1  0
 39 38  1  0
 41 42  1  0
 42 45  1  0
 42 44  1  0
 43 41  2  0
 46 47  1  0
 46 21  1  0
 48 46  1  0
 49 51  1  0
 51 50  1  0
 52  3  1  0
 53 56  1  0
 53 52  1  0
 53 54  1  0
 55 53  1  0
 57 56  1  0
 58 57  1  0
 58 59  1  0
 59 61  1  0
 60 71  2  0
 61 66  1  0
 62 72  1  0
 62 70  1  0
 63 69  1  0
 63 65  1  0
 64 70  1  0
 65 64  1  0
 66 65  2  0
 67 68  1  0
 67 61  2  0
 68 63  2  0
 69 62  1  0
 70 60  1  0
 72 74  2  0
 73 72  1  0
 75 73  1  0
 76 85  2  0
 76 81  1  0
 77 73  1  0
 77 81  1  0
 78 77  1  0
 79 80  1  0
 79 78  1  0
 80 76  1  0
 81 82  2  0
 82 83  1  0
 84 83  2  0
 85 84  1  0
 86 60  1  0
 86 87  1  0
 86 96  1  0
 87 90  1  0
 88 87  1  0
 88 92  1  0
 89 88  2  0
 92 91  1  0
 92 94  1  0
 94 95  1  0
 94 93  1  0
 96 97  1  1
 96 99  1  0
 98 96  1  0
M  ISO  4   5 100  19 100  58 101  59 101
M  END
>  <TORSDO>  (40) 
F 23

>  <SCORE>  (40) 
-7.545

>  <name>  (40) 
40

>  <ligand_id>  (40) 
40

>  <original_smiles>  (40) 
[H]c1c([H])c([H])c2c(c1[H])C([H])([H])C([H])([H])C([H])([H])C2([H])N([H])C(=O)C1([H])N(C(=O)C([H])(N([H])C(=O)C([H])(N([H])C([H])([H])[H])C([H])([H])[H])C(C([H])([H])[H])(C([H])([H])[H])C([H])([H])[H])C([H])([H])c2c([H])c(OC([H])([H])C([H])([H])C([H])([H])[N+]([H])([H])C([H])([H])C(C([H])([H])[H])(C([H])([H])[H])C([H])([H])C3([H])N(C([H])(C([H])([H])[H])C([H])([H])[H])C(=O)C([H])(C([H])([H])[H])N(C(=O)N4C([H])([H])C([H])([H])C([H])([H])C([H])(n5nc(-c6c([H])c([H])c(Oc7c([H])c([H])c(F)c([H])c7F)c([H])c6[H])c(C(=O)N([H])[H])c5N([H])[H])C4([H])[H])C3([H])[H])c([H])c([H])c2C1([H])[H]

>  <smiles>  (40) 
[H]c1c([H])c([H])c2c(c1[H])C([H])([H])C([H])([H])C([H])([H])C2([H])N([H])C(=O)C1([H])N(C(=O)C([H])(N([H])C(=O)C([H])(N([H])C([H])([H])[H])C([H])([H])[H])C(C([H])([H])[H])(C([H])([H])[H])C([H])([H])[H])C([H])([H])c2c([H])c(OC([H])([H])C([H])([H])C([H])([H])[N+]([H])([H])C([H])([H])C(C([H])([H])[H])(C([H])([H])[H])C([H])([H])C3([H])N(C([H])(C([H])([H])[H])C([H])([H])[H])C(=O)C([H])(C([H])([H])[H])N(C(=O)N4C([H])([H])C([H])([H])C([H])([H])C([H])(n5nc(-c6c([H])c([H])c(Oc7c([H])c([H])c(F)c([H])c7F)c([H])c6[H])c(C(=O)N([H])[H])c5N([H])[H])C4([H])[H])C3([H])[H])c([H])c([H])c2C1([H])[H]

$$$$
41:0:0
     RDKit          3D

 99107  0  0  1  0  0  0  0  0999 V2000
  -29.8530  -22.1280   22.7800 C   0  0  0  0  0  3  0  0  0  0  0  0
  -30.1450  -23.4580   22.7710 C   0  0  0  0  0  3  0  0  0  0  0  0
  -28.7070  -21.9130   21.9580 C   0  0  0  0  0  0  0  0  0  0  0  0
  -28.3710  -23.1380   21.4170 C   0  0  0  0  0  0  0  0  0  0  0  0
  -29.2260  -24.1020   21.9660 N   0  0  0  0  0  0  0  0  0  0  0  0
  -27.2780  -23.5070   20.4950 C   0  0  0  0  0  0  0  0  0  0  0  0
  -26.5430  -24.4780   20.6900 O   0  0  0  0  0  0  0  0  0  0  0  0
  -26.7270  -23.5300   17.9830 C   0  0  0  0  0  1  0  0  0  0  0  0
  -27.1110  -22.6870   19.2130 C   0  0  0  0  0  2  0  0  0  0  0  0
  -27.9770  -20.5940   21.8100 C   0  0  0  0  0  2  0  0  0  0  0  0
  -28.5260  -19.6370   20.7360 C   0  0  0  0  0  2  0  0  0  0  0  0
  -29.8000  -18.9790   21.1120 N   0  0  0  0  0  4  0  0  0  0  0  0
  -29.8750  -18.9860   22.1160 H   0  0  0  0  0  0  0  0  0  0  0  0
  -30.5760  -19.4980   20.7350 H   0  0  0  0  0  0  0  0  0  0  0  0
  -29.8550  -17.5720   20.6570 C   0  0  0  0  0  2  0  0  0  0  0  0
  -31.6950  -17.0840   22.3990 C   0  0  0  0  0  1  0  0  0  0  0  0
  -31.1710  -16.8210   20.9720 C   0  0  0  0  0  3  0  0  0  0  0  0
  -31.3130  -14.5220   19.9140 C   0  0  0  0  0  0  0  0  0  0  0  0
  -30.8960  -12.2840   18.9530 C   0  0  0  0  0  2  0  0  0  0  0  0
  -29.9080  -12.3560   17.7720 C   0  0  0  0  0  2  0  0  0  0  0  0
  -28.4470  -12.3160   18.2660 C   0  0  0  0  0  2  0  0  0  0  0  0
  -28.1820  -13.3260   19.4110 C   0  0  0  0  0  3  0  0  0  0  0  0
  -29.2610  -13.1880   20.5080 C   0  0  0  0  0  2  0  0  0  0  0  0
  -30.5900  -13.3750   19.8850 N   0  0  0  0  0  0  0  0  0  0  0  0
  -32.2850  -14.7460   19.1850 O   0  0  0  0  0  0  0  0  0  0  0  0
  -30.8740  -15.3980   20.8250 N   0  0  0  0  0  0  0  0  0  0  0  0
  -30.1170  -15.0430   21.3930 H   0  0  0  0  0  0  0  0  0  0  0  0
  -25.9000  -14.1400   20.2920 C   0  0  0  0  0  0  0  0  0  0  0  0
  -24.7840  -13.4610   20.7060 C   0  0  0  0  0  0  0  0  0  0  0  0
  -25.1050  -12.0730   20.5930 C   0  0  0  0  0  0  0  0  0  0  0  0
  -26.8350  -13.1710   19.9620 N   0  0  0  0  0  0  0  0  0  0  0  0
  -26.3600  -11.9210   20.1930 N   0  0  0  0  0  0  0  0  0  0  0  0
  -24.2700  -10.8810   20.7840 C   0  0  0  0  0  0  0  0  0  0  0  0
  -24.6690   -9.8300   21.6400 C   0  0  0  0  0  3  0  0  0  0  0  0
  -23.8410   -8.7010   21.8220 C   0  0  0  0  0  3  0  0  0  0  0  0
  -22.6000   -8.6160   21.1480 C   0  0  0  0  0  0  0  0  0  0  0  0
  -22.2190   -9.6530   20.2790 C   0  0  0  0  0  3  0  0  0  0  0  0
  -23.0470  -10.7740   20.0950 C   0  0  0  0  0  3  0  0  0  0  0  0
  -21.7440   -7.5460   21.2430 O   0  0  0  0  0  0  0  0  0  0  0  0
  -21.7000   -6.7550   22.3630 C   0  0  0  0  0  0  0  0  0  0  0  0
  -21.4460   -7.2920   23.6450 C   0  0  0  0  0  3  0  0  0  0  0  0
  -21.3410   -6.4350   24.7590 C   0  0  0  0  0  3  0  0  0  0  0  0
  -21.4800   -5.0440   24.5930 C   0  0  0  0  0  0  0  0  0  0  0  0
  -21.7300   -4.5070   23.3170 C   0  0  0  0  0  3  0  0  0  0  0  0
  -21.8370   -5.3620   22.2060 C   0  0  0  0  0  0  0  0  0  0  0  0
  -22.0550   -4.8380   20.9750 F   0  0  0  0  0  0  0  0  0  0  0  0
  -21.3720   -4.2190   25.6610 F   0  0  0  0  0  0  0  0  0  0  0  0
  -23.4640  -14.0600   21.0920 C   0  0  0  0  0  0  0  0  0  0  0  0
  -22.7330  -13.4050   21.9900 N   0  0  0  0  0  0  0  0  0  0  0  0
  -23.0930  -15.1400   20.6360 O   0  0  0  0  0  0  0  0  0  0  0  0
  -23.0470  -12.5290   22.3790 H   0  0  0  0  0  0  0  0  0  0  0  0
  -21.8480  -13.7880   22.2920 H   0  0  0  0  0  0  0  0  0  0  0  0
  -26.1890  -15.4930   20.1500 N   0  0  0  0  0  0  0  0  0  0  0  0
  -25.4760  -16.2030   20.2810 H   0  0  0  0  0  0  0  0  0  0  0  0
  -27.0250  -15.8510   19.7060 H   0  0  0  0  0  0  0  0  0  0  0  0
  -29.2020  -25.5550   21.7930 C   0  0  0  0  0  2  0  0  0  0  0  0
  -31.0130  -25.7580   19.9750 C   0  0  0  0  0  1  0  0  0  0  0  0
  -29.5550  -26.0300   20.3700 C   0  0  0  0  0  3  0  0  0  0  0  0
  -29.3990  -27.4450   20.3330 O   0  0  0  0  0  0  0  0  0  0  0  0
  -24.8220  -31.9550   23.3620 C   0  0  0  0  0  0  0  0  0  0  0  0
  -28.1280  -27.9680   20.3210 C   0  0  0  0  0  0  0  0  0  0  0  0
  -23.8830  -30.5070   21.5890 C   0  0  0  0  0  3  0  0  0  0  0  0
  -25.5830  -29.1870   20.2240 C   0  0  0  0  0  0  0  0  0  0  0  0
  -26.3620  -31.1370   21.5840 C   0  0  0  0  0  2  0  0  0  0  0  0
  -26.6330  -29.8100   20.9080 C   0  0  0  0  0  0  0  0  0  0  0  0
  -27.9070  -29.2070   20.9550 C   0  0  0  0  0  3  0  0  0  0  0  0
  -27.0600  -27.3460   19.6340 C   0  0  0  0  0  3  0  0  0  0  0  0
  -25.7900  -27.9500   19.5880 C   0  0  0  0  0  3  0  0  0  0  0  0
  -24.2570  -29.9110   20.2060 C   0  0  0  0  0  2  0  0  0  0  0  0
  -25.0360  -31.2130   22.2380 N   0  0  0  0  0  0  0  0  0  0  0  0
  -23.6840  -32.0930   23.8310 O   0  0  0  0  0  0  0  0  0  0  0  0
  -23.2830  -29.3820   22.4620 C   0  0  0  0  0  0  0  0  0  0  0  0
  -21.9850  -29.0980   22.2600 N   0  0  0  0  0  0  0  0  0  0  0  0
  -23.9820  -28.7710   23.2750 O   0  0  0  0  0  0  0  0  0  0  0  0
  -21.4800  -29.6510   21.5820 H   0  0  0  0  0  0  0  0  0  0  0  0
  -18.6890  -27.6600   22.5780 C   0  0  0  0  0  0  0  0  0  0  0  0
  -21.2150  -28.0590   22.9420 C   0  0  0  0  0  3  0  0  0  0  0  0
  -21.4260  -26.6800   22.2770 C   0  0  0  0  0  2  0  0  0  0  0  0
  -20.3730  -26.3550   21.2110 C   0  0  0  0  0  2  0  0  0  0  0  0
  -18.9690  -26.3720   21.8210 C   0  0  0  0  0  2  0  0  0  0  0  0
  -19.7440  -28.4600   23.0910 C   0  0  0  0  0  0  0  0  0  0  0  0
  -19.4280  -29.6630   23.7580 C   0  0  0  0  0  3  0  0  0  0  0  0
  -18.0890  -30.0680   23.9190 C   0  0  0  0  0  3  0  0  0  0  0  0
  -17.0490  -29.2640   23.4200 C   0  0  0  0  0  3  0  0  0  0  0  0
  -17.3500  -28.0610   22.7580 C   0  0  0  0  0  3  0  0  0  0  0  0
  -25.9910  -32.6850   24.0960 C   0  0  0  0  0  3  0  0  0  0  0  0
  -26.4260  -31.9740   25.4350 C   0  0  1  0  0  0  0  0  0  0  0  0
  -25.2450  -31.6610   26.3840 C   0  0  0  0  0  1  0  0  0  0  0  0
  -27.1560  -30.6430   25.1340 C   0  0  0  0  0  1  0  0  0  0  0  0
  -27.4310  -32.8660   26.2000 C   0  0  0  0  0  1  0  0  0  0  0  0
  -25.5530  -34.0630   24.3580 N   0  0  0  0  0  0  0  0  0  0  0  0
  -25.8840  -35.1210   23.6050 C   0  0  0  0  0  0  0  0  0  0  0  0
  -26.6590  -35.0450   22.6480 O   0  0  0  0  0  0  0  0  0  0  0  0
  -24.8690  -34.1910   25.0890 H   0  0  0  0  0  0  0  0  0  0  0  0
  -24.0700  -36.7680   23.0390 C   0  0  0  0  0  1  0  0  0  0  0  0
  -25.2550  -36.4780   23.9730 C   0  0  0  0  0  3  0  0  0  0  0  0
  -27.2430  -37.5290   24.9600 C   0  0  0  0  0  1  0  0  0  0  0  0
  -26.2150  -37.6020   23.9240 N   0  0  0  0  0  0  0  0  0  0  0  0
  -25.7330  -38.4920   24.0160 H   0  0  0  0  0  0  0  0  0  0  0  0
  2  1  2  0
  3  1  1  0
  4  3  2  0
  4  5  1  0
  5  2  1  0
  6  7  2  0
  6  4  1  0
  8  9  1  0
  9  6  1  0
 10  3  1  0
 11 12  1  0
 11 10  1  0
 12 13  1  0
 14 12  1  0
 15 17  1  0
 15 12  1  0
 17 16  1  0
 18 26  1  0
 19 24  1  0
 20 21  1  0
 20 19  1  0
 22 21  1  0
 22 31  1  0
 22 23  1  0
 24 18  1  0
 24 23  1  0
 25 18  2  0
 26 17  1  0
 26 27  1  0
 28 29  2  0
 29 48  1  0
 30 29  1  0
 30 33  1  0
 31 32  1  0
 31 28  1  0
 32 30  2  0
 33 34  1  0
 34 35  2  0
 36 39  1  0
 36 35  1  0
 37 36  2  0
 38 37  1  0
 38 33  2  0
 39 40  1  0
 40 41  1  0
 41 42  2  0
 43 42  1  0
 43 47  1  0
 44 43  2  0
 45 40  2  0
 45 44  1  0
 46 45  1  0
 48 49  1  0
 49 52  1  0
 49 51  1  0
 50 48  2  0
 53 54  1  0
 53 28  1  0
 55 53  1  0
 56  5  1  0
 58 57  1  0
 58 56  1  0
 59 58  1  0
 60 71  2  0
 61 59  1  0
 61 66  1  0
 62 70  1  0
 62 72  1  0
 63 65  1  0
 64 70  1  0
 65 66  2  0
 65 64  1  0
 67 61  2  0
 68 67  1  0
 68 63  2  0
 69 63  1  0
 69 62  1  0
 70 60  1  0
 72 74  2  0
 73 72  1  0
 75 73  1  0
 76 85  2  0
 76 81  1  0
 77 73  1  0
 77 81  1  0
 78 77  1  0
 79 80  1  0
 79 78  1  0
 80 76  1  0
 81 82  2  0
 82 83  1  0
 84 83  2  0
 85 84  1  0
 86 60  1  0
 86 91  1  0
 86 87  1  0
 87 90  1  1
 87 88  1  0
 89 87  1  0
 91 94  1  0
 92 96  1  0
 92 91  1  0
 93 92  2  0
 96 95  1  0
 98 96  1  0
 98 99  1  0
 98 97  1  0
M  ISO  4  18 100  26 100  58 101  59 101
M  END
>  <TORSDO>  (41) 
F 25

>  <SCORE>  (41) 
-9.441

>  <name>  (41) 
41

>  <ligand_id>  (41) 
41

>  <original_smiles>  (41) 
[H]c1c([H])c([H])c2c(c1[H])C([H])([H])C([H])([H])C([H])([H])C2([H])N([H])C(=O)C1([H])N(C(=O)C([H])(N([H])C(=O)C([H])(N([H])C([H])([H])[H])C([H])([H])[H])C(C([H])([H])[H])(C([H])([H])[H])C([H])([H])[H])C([H])([H])c2c([H])c(OC([H])(C([H])([H])[H])C([H])([H])n3c([H])c([H])c(C([H])([H])C([H])([H])[N+]([H])([H])C([H])([H])C([H])(N([H])C(=O)N4C([H])([H])C([H])([H])C([H])([H])C([H])(n5nc(-c6c([H])c([H])c(Oc7c([H])c([H])c(F)c([H])c7F)c([H])c6[H])c(C(=O)N([H])[H])c5N([H])[H])C4([H])[H])C([H])([H])[H])c3C(=O)C([H])([H])C([H])([H])[H])c([H])c([H])c2C1([H])[H]

>  <smiles>  (41) 
[H]c1c([H])c([H])c2c(c1[H])C([H])([H])C([H])([H])C([H])([H])C2([H])N([H])C(=O)C1([H])N(C(=O)C([H])(N([H])C(=O)C([H])(N([H])C([H])([H])[H])C([H])([H])[H])C(C([H])([H])[H])(C([H])([H])[H])C([H])([H])[H])C([H])([H])c2c([H])c(OC([H])(C([H])([H])[H])C([H])([H])n3c([H])c([H])c(C([H])([H])C([H])([H])[N+]([H])([H])C([H])([H])C([H])(N([H])C(=O)N4C([H])([H])C([H])([H])C([H])([H])C([H])(n5nc(-c6c([H])c([H])c(Oc7c([H])c([H])c(F)c([H])c7F)c([H])c6[H])c(C(=O)N([H])[H])c5N([H])[H])C4([H])[H])C([H])([H])[H])c3C(=O)C([H])([H])C([H])([H])[H])c([H])c([H])c2C1([H])[H]

$$$$
42:0:0
     RDKit          3D

 95103  0  0  1  0  0  0  0  0999 V2000
  -27.8620  -22.3100   21.0240 C   0  0  0  0  0  2  0  0  0  0  0  0
  -28.2230  -20.8650   21.4090 C   0  0  0  0  0  2  0  0  0  0  0  0
  -30.0470  -21.6900   20.3070 C   0  0  0  0  0  2  0  0  0  0  0  0
  -28.9570  -22.7750   20.0620 C   0  0  0  0  0  3  0  0  0  0  0  0
  -29.2750  -20.4410   20.4820 N   0  0  0  0  0  0  0  0  0  0  0  0
  -29.9620  -19.2360   21.0240 C   0  0  0  0  0  2  0  0  0  0  0  0
  -30.6310  -18.2490   19.9970 C   0  0  0  0  0  3  0  0  0  0  0  0
  -31.9900  -17.8690   20.4190 N   0  0  0  0  0  4  0  0  0  0  0  0
  -32.4200  -17.3030   19.7070 H   0  0  0  0  0  0  0  0  0  0  0  0
  -31.9560  -17.3340   21.2680 H   0  0  0  0  0  0  0  0  0  0  0  0
  -32.5600  -18.6830   20.5660 H   0  0  0  0  0  0  0  0  0  0  0  0
  -29.7900  -16.9780   19.6260 C   0  0  0  0  0  2  0  0  0  0  0  0
  -30.7390  -14.6740   19.9950 C   0  0  0  0  0  0  0  0  0  0  0  0
  -30.4750  -12.4370   18.9880 C   0  0  0  0  0  2  0  0  0  0  0  0
  -29.4810  -12.5720   17.8140 C   0  0  0  0  0  2  0  0  0  0  0  0
  -28.0250  -12.4270   18.3060 C   0  0  0  0  0  2  0  0  0  0  0  0
  -27.7250  -13.3000   19.5540 C   0  0  0  0  0  3  0  0  0  0  0  0
  -28.8320  -13.1450   20.6250 C   0  0  0  0  0  2  0  0  0  0  0  0
  -30.1260  -13.4560   19.9930 N   0  0  0  0  0  0  0  0  0  0  0  0
  -31.8320  -14.8820   19.4630 O   0  0  0  0  0  0  0  0  0  0  0  0
  -29.9720  -15.7140   20.3950 N   0  0  0  0  0  0  0  0  0  0  0  0
  -29.1640  -15.4330   20.9320 H   0  0  0  0  0  0  0  0  0  0  0  0
  -25.3670  -13.8970   20.3940 C   0  0  0  0  0  0  0  0  0  0  0  0
  -24.3190  -13.1200   20.8120 C   0  0  0  0  0  0  0  0  0  0  0  0
  -24.7760  -11.7690   20.7390 C   0  0  0  0  0  0  0  0  0  0  0  0
  -26.3990  -13.0180   20.1000 N   0  0  0  0  0  0  0  0  0  0  0  0
  -26.0490  -11.7330   20.3640 N   0  0  0  0  0  0  0  0  0  0  0  0
  -24.0590  -10.5050   20.9520 C   0  0  0  0  0  0  0  0  0  0  0  0
  -24.5030   -9.5580   21.9020 C   0  0  0  0  0  3  0  0  0  0  0  0
  -23.7870   -8.3570   22.1040 C   0  0  0  0  0  3  0  0  0  0  0  0
  -22.6140   -8.0960   21.3560 C   0  0  0  0  0  0  0  0  0  0  0  0
  -22.1910   -9.0310   20.3960 C   0  0  0  0  0  3  0  0  0  0  0  0
  -22.9050  -10.2230   20.1930 C   0  0  0  0  0  3  0  0  0  0  0  0
  -21.8690   -6.9480   21.4670 O   0  0  0  0  0  0  0  0  0  0  0  0
  -21.7800   -6.2580   22.6490 C   0  0  0  0  0  0  0  0  0  0  0  0
  -21.2730   -6.8550   23.8240 C   0  0  0  0  0  3  0  0  0  0  0  0
  -21.1360   -6.0890   24.9990 C   0  0  0  0  0  3  0  0  0  0  0  0
  -21.4920   -4.7270   24.9990 C   0  0  0  0  0  0  0  0  0  0  0  0
  -21.9900   -4.1300   23.8280 C   0  0  0  0  0  3  0  0  0  0  0  0
  -22.1310   -4.8930   22.6560 C   0  0  0  0  0  0  0  0  0  0  0  0
  -22.5920   -4.3070   21.5250 F   0  0  0  0  0  0  0  0  0  0  0  0
  -21.3520   -3.9900   26.1250 F   0  0  0  0  0  0  0  0  0  0  0  0
  -22.9390  -13.5940   21.1640 C   0  0  0  0  0  0  0  0  0  0  0  0
  -22.2590  -12.8880   22.0620 N   0  0  0  0  0  0  0  0  0  0  0  0
  -22.4730  -14.6230   20.6780 O   0  0  0  0  0  0  0  0  0  0  0  0
  -22.6530  -12.0550   22.4770 H   0  0  0  0  0  0  0  0  0  0  0  0
  -21.3350  -13.1840   22.3380 H   0  0  0  0  0  0  0  0  0  0  0  0
  -25.5250  -15.2680   20.2210 N   0  0  0  0  0  0  0  0  0  0  0  0
  -24.7620  -15.9210   20.3620 H   0  0  0  0  0  0  0  0  0  0  0  0
  -26.3510  -15.7030   19.8300 H   0  0  0  0  0  0  0  0  0  0  0  0
  -29.3490  -24.3010   20.1750 C   0  0  0  0  0  3  0  0  0  0  0  0
  -31.1560  -25.6590   19.3580 C   0  0  0  0  0  1  0  0  0  0  0  0
  -30.4080  -24.4570   19.2320 O   0  0  0  0  0  0  0  0  0  0  0  0
  -28.1610  -25.2810   19.8320 C   0  0  0  0  0  2  0  0  0  0  0  0
  -28.3210  -26.7090   20.1030 O   0  0  0  0  0  0  0  0  0  0  0  0
  -24.6050  -31.9470   23.2840 C   0  0  0  0  0  0  0  0  0  0  0  0
  -27.1690  -27.4970   20.0910 C   0  0  0  0  0  0  0  0  0  0  0  0
  -23.3610  -30.5610   21.6630 C   0  0  0  0  0  3  0  0  0  0  0  0
  -24.7790  -29.0470   20.1770 C   0  0  0  0  0  0  0  0  0  0  0  0
  -25.8860  -30.9170   21.4040 C   0  0  0  0  0  2  0  0  0  0  0  0
  -25.9580  -29.5530   20.7390 C   0  0  0  0  0  0  0  0  0  0  0  0
  -27.1560  -28.7880   20.6870 C   0  0  0  0  0  3  0  0  0  0  0  0
  -25.9640  -27.0310   19.5120 C   0  0  0  0  0  3  0  0  0  0  0  0
  -24.7800  -27.7880   19.5590 C   0  0  0  0  0  3  0  0  0  0  0  0
  -23.5370  -29.9050   20.2680 C   0  0  0  0  0  2  0  0  0  0  0  0
  -24.6370  -31.1570   22.1730 N   0  0  0  0  0  0  0  0  0  0  0  0
  -23.5370  -32.2090   23.8570 O   0  0  0  0  0  0  0  0  0  0  0  0
  -22.7380  -29.5240   22.6280 C   0  0  0  0  0  0  0  0  0  0  0  0
  -21.4180  -29.3040   22.5080 N   0  0  0  0  0  0  0  0  0  0  0  0
  -23.4410  -28.9220   23.4440 O   0  0  0  0  0  0  0  0  0  0  0  0
  -20.9110  -29.8440   21.8220 H   0  0  0  0  0  0  0  0  0  0  0  0
  -18.0880  -27.9880   22.9980 C   0  0  0  0  0  0  0  0  0  0  0  0
  -20.6320  -28.3480   23.2860 C   0  0  0  0  0  3  0  0  0  0  0  0
  -20.7920  -26.9130   22.7330 C   0  0  0  0  0  2  0  0  0  0  0  0
  -19.7130  -26.5330   21.7150 C   0  0  0  0  0  2  0  0  0  0  0  0
  -18.3210  -26.6350   22.3440 C   0  0  0  0  0  2  0  0  0  0  0  0
  -19.1720  -28.7980   23.4260 C   0  0  0  0  0  0  0  0  0  0  0  0
  -18.9000  -30.0600   23.9960 C   0  0  0  0  0  3  0  0  0  0  0  0
  -17.5750  -30.5140   24.1420 C   0  0  0  0  0  3  0  0  0  0  0  0
  -16.5050  -29.7010   23.7310 C   0  0  0  0  0  3  0  0  0  0  0  0
  -16.7620  -28.4400   23.1640 C   0  0  0  0  0  3  0  0  0  0  0  0
  -25.9030  -32.5800   23.8740 C   0  0  0  0  0  3  0  0  0  0  0  0
  -26.4360  -31.8260   25.1550 C   0  0  1  0  0  0  0  0  0  0  0  0
  -25.3580  -31.6090   26.2420 C   0  0  0  0  0  1  0  0  0  0  0  0
  -27.0060  -30.4390   24.7740 C   0  0  0  0  0  1  0  0  0  0  0  0
  -27.5990  -32.6240   25.7870 C   0  0  0  0  0  1  0  0  0  0  0  0
  -25.6100  -33.9860   24.1850 N   0  0  0  0  0  0  0  0  0  0  0  0
  -25.9520  -35.0240   23.4110 C   0  0  0  0  0  0  0  0  0  0  0  0
  -26.6200  -34.8980   22.3800 O   0  0  0  0  0  0  0  0  0  0  0  0
  -25.0170  -34.1560   24.9850 H   0  0  0  0  0  0  0  0  0  0  0  0
  -24.2580  -36.8390   23.0140 C   0  0  0  0  0  1  0  0  0  0  0  0
  -25.4790  -36.4240   23.8490 C   0  0  0  0  0  3  0  0  0  0  0  0
  -27.6120  -37.2830   24.7080 C   0  0  0  0  0  1  0  0  0  0  0  0
  -26.5290  -37.4600   23.7440 N   0  0  0  0  0  0  0  0  0  0  0  0
  -26.1350  -38.3870   23.8760 H   0  0  0  0  0  0  0  0  0  0  0  0
  1  2  1  0
  3  5  1  0
  4 51  1  0
  4  3  1  0
  4  1  1  0
  5  6  1  0
  5  2  1  0
  7 12  1  0
  7  8  1  0
  7  6  1  0
  8 11  1  0
  8 10  1  0
  9  8  1  0
 12 21  1  0
 13 21  1  0
 14 19  1  0
 15 16  1  0
 15 14  1  0
 17 16  1  0
 17 26  1  0
 17 18  1  0
 19 13  1  0
 19 18  1  0
 20 13  2  0
 21 22  1  0
 23 24  2  0
 24 43  1  0
 25 24  1  0
 25 28  1  0
 26 27  1  0
 26 23  1  0
 27 25  2  0
 28 29  1  0
 29 30  2  0
 31 34  1  0
 31 30  1  0
 32 31  2  0
 33 32  1  0
 33 28  2  0
 34 35  1  0
 35 40  2  0
 35 36  1  0
 36 37  2  0
 38 37  1  0
 38 42  1  0
 39 38  2  0
 40 39  1  0
 41 40  1  0
 43 44  1  0
 44 47  1  0
 44 46  1  0
 45 43  2  0
 48 49  1  0
 48 23  1  0
 50 48  1  0
 51 54  1  0
 53 52  1  0
 53 51  1  0
 54 55  1  0
 56 67  2  0
 57 55  1  0
 57 62  1  0
 58 66  1  0
 58 68  1  0
 59 65  1  0
 59 61  1  0
 60 66  1  0
 61 60  1  0
 62 61  2  0
 63 64  1  0
 63 57  2  0
 64 59  2  0
 65 58  1  0
 66 56  1  0
 68 70  2  0
 69 68  1  0
 71 69  1  0
 72 81  2  0
 72 77  1  0
 73 69  1  0
 73 77  1  0
 74 73  1  0
 75 76  1  0
 75 74  1  0
 76 72  1  0
 77 78  2  0
 78 79  1  0
 80 79  2  0
 81 80  1  0
 82 56  1  0
 82 87  1  0
 82 83  1  0
 83 86  1  1
 83 84  1  0
 85 83  1  0
 87 90  1  0
 88 92  1  0
 88 87  1  0
 89 88  2  0
 92 91  1  0
 94 92  1  0
 94 95  1  0
 94 93  1  0
M  ISO  4  13 100  21 100  54 101  55 101
M  END
>  <TORSDO>  (42) 
F 23

>  <SCORE>  (42) 
-12.475

>  <name>  (42) 
42

>  <ligand_id>  (42) 
42

>  <original_smiles>  (42) 
[H]c1c([H])c([H])c2c(c1[H])C([H])([H])C([H])([H])C([H])([H])C2([H])N([H])C(=O)C1([H])N(C(=O)C([H])(N([H])C(=O)C([H])(N([H])C([H])([H])[H])C([H])([H])[H])C(C([H])([H])[H])(C([H])([H])[H])C([H])([H])[H])C([H])([H])c2c([H])c(OC([H])([H])C([H])(OC([H])([H])[H])C3([H])C([H])([H])N(C([H])([H])C([H])(C([H])([H])N([H])C(=O)N4C([H])([H])C([H])([H])C([H])([H])C([H])(n5nc(-c6c([H])c([H])c(Oc7c([H])c([H])c(F)c([H])c7F)c([H])c6[H])c(C(=O)N([H])[H])c5N([H])[H])C4([H])[H])[N+]([H])([H])[H])C([H])([H])C3([H])[H])c([H])c([H])c2C1([H])[H]

>  <smiles>  (42) 
[H]c1c([H])c([H])c2c(c1[H])C([H])([H])C([H])([H])C([H])([H])C2([H])N([H])C(=O)C1([H])N(C(=O)C([H])(N([H])C(=O)C([H])(N([H])C([H])([H])[H])C([H])([H])[H])C(C([H])([H])[H])(C([H])([H])[H])C([H])([H])[H])C([H])([H])c2c([H])c(OC([H])([H])C([H])(OC([H])([H])[H])C3([H])C([H])([H])N(C([H])([H])C([H])(C([H])([H])N([H])C(=O)N4C([H])([H])C([H])([H])C([H])([H])C([H])(n5nc(-c6c([H])c([H])c(Oc7c([H])c([H])c(F)c([H])c7F)c([H])c6[H])c(C(=O)N([H])[H])c5N([H])[H])C4([H])[H])[N+]([H])([H])[H])C([H])([H])C3([H])[H])c([H])c([H])c2C1([H])[H]

$$$$
43:0:0
     RDKit          3D

 96105  0  0  1  0  0  0  0  0999 V2000
  -28.7730  -21.8870   20.5950 C   0  0  0  0  0  3  0  0  0  0  0  0
  -28.8930  -20.4630   20.6430 C   0  0  0  0  0  3  0  0  0  0  0  0
  -28.6310  -21.7650   18.2110 C   0  0  0  0  0  3  0  0  0  0  0  0
  -28.6420  -22.5790   19.3660 C   0  0  0  0  0  0  0  0  0  0  0  0
  -28.9010  -19.6410   19.4780 C   0  0  0  0  0  0  0  0  0  0  0  0
  -28.7760  -20.3450   18.2340 C   0  0  0  0  0  0  0  0  0  0  0  0
  -28.5740  -24.1400   19.1870 C   0  0  0  0  0  3  0  0  0  0  0  0
  -28.1680  -25.1000   20.3740 C   0  0  0  0  0  3  0  0  0  0  0  0
  -28.3300  -26.5530   20.1450 O   0  0  0  0  0  0  0  0  0  0  0  0
  -24.5930  -31.9010   23.2390 C   0  0  0  0  0  0  0  0  0  0  0  0
  -27.1960  -27.3670   20.1540 C   0  0  0  0  0  0  0  0  0  0  0  0
  -23.3850  -30.4960   21.6100 C   0  0  0  0  0  3  0  0  0  0  0  0
  -24.8230  -28.9430   20.1810 C   0  0  0  0  0  0  0  0  0  0  0  0
  -25.9180  -30.8280   21.4050 C   0  0  0  0  0  2  0  0  0  0  0  0
  -25.9980  -29.4500   20.7570 C   0  0  0  0  0  0  0  0  0  0  0  0
  -27.1900  -28.6720   20.7300 C   0  0  0  0  0  3  0  0  0  0  0  0
  -26.0000  -26.9020   19.5660 C   0  0  0  0  0  3  0  0  0  0  0  0
  -24.8230  -27.6680   19.5910 C   0  0  0  0  0  3  0  0  0  0  0  0
  -23.5860  -29.8140   20.2340 C   0  0  0  0  0  2  0  0  0  0  0  0
  -24.6510  -31.0900   22.1430 N   0  0  0  0  0  0  0  0  0  0  0  0
  -23.5120  -32.1800   23.7770 O   0  0  0  0  0  0  0  0  0  0  0  0
  -22.7270  -29.4800   22.5750 C   0  0  0  0  0  0  0  0  0  0  0  0
  -21.4010  -29.3040   22.4500 N   0  0  0  0  0  0  0  0  0  0  0  0
  -23.4060  -28.8580   23.3940 O   0  0  0  0  0  0  0  0  0  0  0  0
  -20.9160  -29.8570   21.7600 H   0  0  0  0  0  0  0  0  0  0  0  0
  -18.0200  -28.1210   22.9590 C   0  0  0  0  0  0  0  0  0  0  0  0
  -20.5810  -28.3700   23.2220 C   0  0  0  0  0  3  0  0  0  0  0  0
  -20.6770  -26.9380   22.6470 C   0  0  0  0  0  2  0  0  0  0  0  0
  -19.5690  -26.6220   21.6360 C   0  0  0  0  0  2  0  0  0  0  0  0
  -18.1880  -26.7710   22.2820 C   0  0  0  0  0  2  0  0  0  0  0  0
  -19.1430  -28.8780   23.3850 C   0  0  0  0  0  0  0  0  0  0  0  0
  -18.9330  -30.1430   23.9760 C   0  0  0  0  0  3  0  0  0  0  0  0
  -17.6320  -30.6520   24.1440 C   0  0  0  0  0  3  0  0  0  0  0  0
  -16.5220  -29.8910   23.7390 C   0  0  0  0  0  3  0  0  0  0  0  0
  -16.7160  -28.6270   23.1510 C   0  0  0  0  0  3  0  0  0  0  0  0
  -25.8770  -32.5350   23.8540 C   0  0  0  0  0  3  0  0  0  0  0  0
  -25.5690  -33.9320   24.1810 N   0  0  0  0  0  0  0  0  0  0  0  0
  -25.9070  -34.9830   23.4210 C   0  0  0  0  0  0  0  0  0  0  0  0
  -26.5790  -34.8770   22.3920 O   0  0  0  0  0  0  0  0  0  0  0  0
  -24.9620  -34.0860   24.9720 H   0  0  0  0  0  0  0  0  0  0  0  0
  -24.1830  -36.7810   23.0610 C   0  0  0  0  0  1  0  0  0  0  0  0
  -25.4210  -36.3720   23.8760 C   0  0  0  0  0  3  0  0  0  0  0  0
  -27.5550  -37.2510   24.7110 C   0  0  0  0  0  1  0  0  0  0  0  0
  -26.4580  -37.4240   23.7640 N   0  0  0  0  0  0  0  0  0  0  0  0
  -26.0540  -38.3450   23.9120 H   0  0  0  0  0  0  0  0  0  0  0  0
  -26.3940  -31.7670   25.1320 C   0  0  1  0  0  0  0  0  0  0  0  0
  -25.3000  -31.5270   26.2020 C   0  0  0  0  0  1  0  0  0  0  0  0
  -26.9770  -30.3880   24.7400 C   0  0  0  0  0  1  0  0  0  0  0  0
  -27.5480  -32.5580   25.7870 C   0  0  0  0  0  1  0  0  0  0  0  0
  -28.8540  -18.0650   19.6160 C   0  0  0  0  0  2  0  0  0  0  0  0
  -30.0470  -17.2290   20.2560 C   0  0  0  0  0  2  0  0  0  0  0  0
  -30.5910  -14.6710   20.3030 C   0  0  0  0  0  0  0  0  0  0  0  0
  -30.3850  -12.4180   19.3000 C   0  0  0  0  0  2  0  0  0  0  0  0
  -29.4250  -12.5160   18.0940 C   0  0  0  0  0  2  0  0  0  0  0  0
  -27.9550  -12.3660   18.5380 C   0  0  0  0  0  2  0  0  0  0  0  0
  -27.6010  -13.2510   19.7630 C   0  0  0  0  0  3  0  0  0  0  0  0
  -28.6720  -13.1300   20.8690 C   0  0  0  0  0  2  0  0  0  0  0  0
  -29.9740  -13.4510   20.2690 N   0  0  0  0  0  0  0  0  0  0  0  0
  -31.7790  -14.8060   20.0000 O   0  0  0  0  0  0  0  0  0  0  0  0
  -29.7660  -15.7560   20.4330 N   0  0  0  0  0  0  0  0  0  0  0  0
  -28.8070  -15.5200   20.6330 H   0  0  0  0  0  0  0  0  0  0  0  0
  -25.2130  -13.8440   20.4960 C   0  0  0  0  0  0  0  0  0  0  0  0
  -24.1520  -13.0670   20.8760 C   0  0  0  0  0  0  0  0  0  0  0  0
  -24.6220  -11.7190   20.8490 C   0  0  0  0  0  0  0  0  0  0  0  0
  -26.2600  -12.9680   20.2610 N   0  0  0  0  0  0  0  0  0  0  0  0
  -25.9110  -11.6860   20.5370 N   0  0  0  0  0  0  0  0  0  0  0  0
  -23.9060  -10.4530   21.0430 C   0  0  0  0  0  0  0  0  0  0  0  0
  -24.3460   -9.4850   21.9730 C   0  0  0  0  0  3  0  0  0  0  0  0
  -23.6260   -8.2850   22.1510 C   0  0  0  0  0  3  0  0  0  0  0  0
  -22.4510   -8.0440   21.4010 C   0  0  0  0  0  0  0  0  0  0  0  0
  -22.0300   -9.0000   20.4600 C   0  0  0  0  0  3  0  0  0  0  0  0
  -22.7520  -10.1910   20.2790 C   0  0  0  0  0  3  0  0  0  0  0  0
  -21.6990   -6.8980   21.4970 O   0  0  0  0  0  0  0  0  0  0  0  0
  -21.6630   -6.1520   22.6480 C   0  0  0  0  0  0  0  0  0  0  0  0
  -21.2430   -6.7000   23.8790 C   0  0  0  0  0  3  0  0  0  0  0  0
  -21.1560   -5.8810   25.0200 C   0  0  0  0  0  3  0  0  0  0  0  0
  -21.4780   -4.5120   24.9320 C   0  0  0  0  0  0  0  0  0  0  0  0
  -21.8920   -3.9630   23.7060 C   0  0  0  0  0  3  0  0  0  0  0  0
  -21.9800   -4.7810   22.5650 C   0  0  0  0  0  0  0  0  0  0  0  0
  -22.3580   -4.2420   21.3800 F   0  0  0  0  0  0  0  0  0  0  0  0
  -21.3870   -3.7230   26.0280 F   0  0  0  0  0  0  0  0  0  0  0  0
  -22.7520  -13.5360   21.1470 C   0  0  0  0  0  0  0  0  0  0  0  0
  -22.0310  -12.8340   22.0150 N   0  0  0  0  0  0  0  0  0  0  0  0
  -22.3090  -14.5580   20.6270 O   0  0  0  0  0  0  0  0  0  0  0  0
  -22.4060  -12.0080   22.4570 H   0  0  0  0  0  0  0  0  0  0  0  0
  -21.0900  -13.1270   22.2420 H   0  0  0  0  0  0  0  0  0  0  0  0
  -25.3670  -15.2150   20.3130 N   0  0  0  0  0  0  0  0  0  0  0  0
  -24.5920  -15.8600   20.4260 H   0  0  0  0  0  0  0  0  0  0  0  0
  -26.1930  -15.6580   19.9320 H   0  0  0  0  0  0  0  0  0  0  0  0
  -28.8010  -19.6610   16.8590 C   0  0  0  0  0  2  0  0  0  0  0  0
  -31.8010  -20.6850   14.9350 C   0  0  0  0  0  2  0  0  0  0  0  0
  -31.0480  -19.6810   14.0690 C   0  0  0  0  0  2  0  0  0  0  0  0
  -30.8390  -20.8860   16.0980 C   0  0  0  0  0  2  0  0  0  0  0  0
  -30.3390  -18.7760   15.0860 C   0  0  0  0  0  2  0  0  0  0  0  0
  -30.1870  -19.5730   16.3300 N   0  0  2  0  0  4  0  0  0  0  0  0
  -30.7230  -19.0950   17.0400 H   0  0  0  0  0  0  0  0  0  0  0  0
  1  2  1  0
  3  6  2  0
  3  4  1  0
  4  1  2  0
  5 50  1  0
  5  2  2  0
  6  5  1  0
  7  4  1  0
  7  8  2  0
  9 11  1  0
  9  8  1  0
 10 21  2  0
 11 16  1  0
 12 20  1  0
 12 22  1  0
 13 19  1  0
 13 15  1  0
 14 20  1  0
 15 14  1  0
 16 15  2  0
 17 18  1  0
 17 11  2  0
 18 13  2  0
 19 12  1  0
 20 10  1  0
 22 24  2  0
 23 22  1  0
 25 23  1  0
 26 35  2  0
 26 31  1  0
 27 23  1  0
 27 31  1  0
 28 27  1  0
 29 30  1  0
 29 28  1  0
 30 26  1  0
 31 32  2  0
 32 33  1  0
 34 33  2  0
 35 34  1  0
 36 10  1  0
 36 37  1  0
 36 46  1  0
 37 40  1  0
 38 42  1  0
 38 37  1  0
 39 38  2  0
 42 41  1  0
 44 42  1  0
 44 45  1  0
 44 43  1  0
 46 49  1  1
 46 47  1  0
 48 46  1  0
 50 51  1  0
 51 60  1  0
 52 60  1  0
 53 58  1  0
 54 55  1  0
 54 53  1  0
 56 55  1  0
 56 65  1  0
 56 57  1  0
 58 52  1  0
 58 57  1  0
 59 52  2  0
 60 61  1  0
 62 63  2  0
 63 82  1  0
 64 63  1  0
 64 67  1  0
 65 62  1  0
 65 66  1  0
 66 64  2  0
 67 68  1  0
 68 69  2  0
 70 73  1  0
 70 69  1  0
 71 70  2  0
 72 71  1  0
 72 67  2  0
 73 74  1  0
 74 75  1  0
 75 76  2  0
 77 76  1  0
 77 81  1  0
 78 77  2  0
 79 74  2  0
 79 78  1  0
 80 79  1  0
 82 83  1  0
 83 86  1  0
 83 85  1  0
 84 82  2  0
 87 88  1  0
 87 62  1  0
 89 87  1  0
 90  6  1  0
 91 93  1  0
 92 91  1  0
 92 94  1  0
 93 95  1  0
 94 95  1  0
 95 90  1  0
 95 96  1  1
M  ISO  4   8 101   9 101  52 100  60 100
M  END
>  <TORSDO>  (43) 
F 22

>  <SCORE>  (43) 
-13.386

>  <name>  (43) 
43

>  <ligand_id>  (43) 
43

>  <original_smiles>  (43) 
[H]c1c([H])c([H])c2c(c1[H])C([H])([H])C([H])([H])C([H])([H])C2([H])N([H])C(=O)C1([H])N(C(=O)C([H])(N([H])C(=O)C([H])(N([H])C([H])([H])[H])C([H])([H])[H])C(C([H])([H])[H])(C([H])([H])[H])C([H])([H])[H])C([H])([H])c2c([H])c(OC([H])([H])C([H])([H])c3c([H])c([H])c(C([H])([H])C([H])([H])N([H])C(=O)N4C([H])([H])C([H])([H])C([H])([H])C([H])(n5nc(-c6c([H])c([H])c(Oc7c([H])c([H])c(F)c([H])c7F)c([H])c6[H])c(C(=O)N([H])[H])c5N([H])[H])C4([H])[H])c(C([H])([H])[N+]4([H])C([H])([H])C([H])([H])C([H])([H])C4([H])[H])c3[H])c([H])c([H])c2C1([H])[H]

>  <smiles>  (43) 
[H]c1c([H])c([H])c2c(c1[H])C([H])([H])C([H])([H])C([H])([H])C2([H])N([H])C(=O)C1([H])N(C(=O)C([H])(N([H])C(=O)C([H])(N([H])C([H])([H])[H])C([H])([H])[H])C(C([H])([H])[H])(C([H])([H])[H])C([H])([H])[H])C([H])([H])c2c([H])c(OC([H])([H])C([H])([H])c3c([H])c([H])c(C([H])([H])C([H])([H])N([H])C(=O)N4C([H])([H])C([H])([H])C([H])([H])C([H])(n5nc(-c6c([H])c([H])c(Oc7c([H])c([H])c(F)c([H])c7F)c([H])c6[H])c(C(=O)N([H])[H])c5N([H])[H])C4([H])[H])c(C([H])([H])[N+]4([H])C([H])([H])C([H])([H])C([H])([H])C4([H])[H])c3[H])c([H])c([H])c2C1([H])[H]

$$$$
44:0:0
     RDKit          3D

 96104  0  0  1  0  0  0  0  0999 V2000
  -29.0970  -20.3970   20.7560 C   0  0  0  0  0  3  0  0  0  0  0  0
  -29.3600  -21.7730   20.2250 C   0  0  0  0  0  0  0  0  0  0  0  0
  -29.9590  -19.3500   20.3170 C   0  0  0  0  0  0  0  0  0  0  0  0
  -30.3500  -21.4660   19.2960 C   0  0  0  0  0  0  0  0  0  0  0  0
  -30.7840  -20.1040   19.4500 N   0  0  0  0  0  0  0  0  0  0  0  0
  -31.9260  -23.4810   18.9810 C   0  0  0  0  0  1  0  0  0  0  0  0
  -30.1480  -22.9470   17.2100 C   0  0  0  0  0  1  0  0  0  0  0  0
  -31.0580  -22.3960   18.3180 C   0  0  0  0  0  3  0  0  0  0  0  0
  -31.7960  -18.7080   17.6140 C   0  0  0  0  0  1  0  0  0  0  0  0
  -32.0230  -19.5590   18.8710 C   0  0  0  0  0  2  0  0  0  0  0  0
  -30.3560  -17.7940   20.8210 C   0  0  0  0  0  2  0  0  0  0  0  0
  -30.5490  -15.0970   20.2850 C   0  0  0  0  0  0  0  0  0  0  0  0
  -30.4080  -12.7520   19.3230 C   0  0  0  0  0  2  0  0  0  0  0  0
  -29.4590  -12.6570   18.1060 C   0  0  0  0  0  2  0  0  0  0  0  0
  -27.9920  -12.4440   18.5470 C   0  0  0  0  0  2  0  0  0  0  0  0
  -27.5870  -13.3520   19.7440 C   0  0  0  0  0  3  0  0  0  0  0  0
  -28.6700  -13.3930   20.8440 C   0  0  0  0  0  2  0  0  0  0  0  0
  -29.9120  -13.8530   20.1960 N   0  0  0  0  0  0  0  0  0  0  0  0
  -31.7680  -15.0970   20.0810 O   0  0  0  0  0  0  0  0  0  0  0  0
  -29.8530  -16.3430   20.3940 N   0  0  0  0  0  0  0  0  0  0  0  0
  -28.8470  -16.2610   20.3740 H   0  0  0  0  0  0  0  0  0  0  0  0
  -25.2120  -13.8830   20.5400 C   0  0  0  0  0  0  0  0  0  0  0  0
  -24.1600  -13.0920   20.9170 C   0  0  0  0  0  0  0  0  0  0  0  0
  -24.6400  -11.7450   20.8630 C   0  0  0  0  0  0  0  0  0  0  0  0
  -26.2640  -13.0240   20.2700 N   0  0  0  0  0  0  0  0  0  0  0  0
  -25.9280  -11.7310   20.5300 N   0  0  0  0  0  0  0  0  0  0  0  0
  -23.9260  -10.4740   21.0470 C   0  0  0  0  0  0  0  0  0  0  0  0
  -24.3730   -9.5080   21.9750 C   0  0  0  0  0  3  0  0  0  0  0  0
  -23.6620   -8.2990   22.1480 C   0  0  0  0  0  3  0  0  0  0  0  0
  -22.4870   -8.0530   21.3960 C   0  0  0  0  0  0  0  0  0  0  0  0
  -22.0600   -9.0100   20.4580 C   0  0  0  0  0  3  0  0  0  0  0  0
  -22.7710  -10.2090   20.2810 C   0  0  0  0  0  3  0  0  0  0  0  0
  -21.7410   -6.9020   21.4830 O   0  0  0  0  0  0  0  0  0  0  0  0
  -21.7000   -6.1580   22.6350 C   0  0  0  0  0  0  0  0  0  0  0  0
  -21.2360   -6.6970   23.8550 C   0  0  0  0  0  3  0  0  0  0  0  0
  -21.1420   -5.8770   24.9970 C   0  0  0  0  0  3  0  0  0  0  0  0
  -21.4960   -4.5170   24.9230 C   0  0  0  0  0  0  0  0  0  0  0  0
  -21.9520   -3.9750   23.7090 C   0  0  0  0  0  3  0  0  0  0  0  0
  -22.0510   -4.7930   22.5690 C   0  0  0  0  0  0  0  0  0  0  0  0
  -22.4700   -4.2590   21.3960 F   0  0  0  0  0  0  0  0  0  0  0  0
  -21.4000   -3.7300   26.0210 F   0  0  0  0  0  0  0  0  0  0  0  0
  -22.7600  -13.5540   21.2090 C   0  0  0  0  0  0  0  0  0  0  0  0
  -22.0400  -12.8390   22.0650 N   0  0  0  0  0  0  0  0  0  0  0  0
  -22.3140  -14.5880   20.7110 O   0  0  0  0  0  0  0  0  0  0  0  0
  -22.4080  -12.0110   22.5070 H   0  0  0  0  0  0  0  0  0  0  0  0
  -21.0980  -13.1290   22.2890 H   0  0  0  0  0  0  0  0  0  0  0  0
  -25.3570  -15.2570   20.3760 N   0  0  0  0  0  0  0  0  0  0  0  0
  -24.5850  -15.8980   20.5140 H   0  0  0  0  0  0  0  0  0  0  0  0
  -26.1820  -15.7160   20.0150 H   0  0  0  0  0  0  0  0  0  0  0  0
  -28.8250  -23.2930   20.7490 C   0  0  0  0  0  3  0  0  0  0  0  0
  -29.8160  -23.6920   21.7620 N   0  0  0  0  0  4  0  0  0  0  0  0
  -30.6980  -23.9050   21.3300 H   0  0  0  0  0  0  0  0  0  0  0  0
  -29.9640  -22.9360   22.4110 H   0  0  0  0  0  0  0  0  0  0  0  0
  -29.5000  -24.5000   22.2670 H   0  0  0  0  0  0  0  0  0  0  0  0
  -28.3720  -24.7110   19.8880 C   0  0  0  0  0  2  0  0  0  0  0  0
  -28.2990  -26.2060   20.3960 O   0  0  0  0  0  0  0  0  0  0  0  0
  -24.6070  -31.9170   23.2570 C   0  0  0  0  0  0  0  0  0  0  0  0
  -27.2200  -27.1740   20.2630 C   0  0  0  0  0  0  0  0  0  0  0  0
  -23.4170  -30.5080   21.6230 C   0  0  0  0  0  3  0  0  0  0  0  0
  -24.8790  -28.9340   20.2000 C   0  0  0  0  0  0  0  0  0  0  0  0
  -25.9700  -30.7750   21.4650 C   0  0  0  0  0  2  0  0  0  0  0  0
  -26.0510  -29.3780   20.8240 C   0  0  0  0  0  0  0  0  0  0  0  0
  -27.2130  -28.5150   20.8390 C   0  0  0  0  0  3  0  0  0  0  0  0
  -26.0190  -26.8390   19.5900 C   0  0  0  0  0  3  0  0  0  0  0  0
  -24.8800  -27.6820   19.5650 C   0  0  0  0  0  3  0  0  0  0  0  0
  -23.6460  -29.8260   20.2460 C   0  0  0  0  0  2  0  0  0  0  0  0
  -24.6870  -31.0880   22.1740 N   0  0  0  0  0  0  0  0  0  0  0  0
  -23.5160  -32.2050   23.7790 O   0  0  0  0  0  0  0  0  0  0  0  0
  -22.7340  -29.5040   22.5830 C   0  0  0  0  0  0  0  0  0  0  0  0
  -21.4080  -29.3340   22.4520 N   0  0  0  0  0  0  0  0  0  0  0  0
  -23.4040  -28.8760   23.4090 O   0  0  0  0  0  0  0  0  0  0  0  0
  -20.9260  -29.8780   21.7510 H   0  0  0  0  0  0  0  0  0  0  0  0
  -18.0200  -28.1700   22.9500 C   0  0  0  0  0  0  0  0  0  0  0  0
  -20.5810  -28.4040   23.2220 C   0  0  0  0  0  3  0  0  0  0  0  0
  -20.6720  -26.9740   22.6350 C   0  0  0  0  0  2  0  0  0  0  0  0
  -19.5650  -26.6700   21.6220 C   0  0  0  0  0  2  0  0  0  0  0  0
  -18.1860  -26.8240   22.2650 C   0  0  0  0  0  2  0  0  0  0  0  0
  -19.1450  -28.9210   23.3830 C   0  0  0  0  0  0  0  0  0  0  0  0
  -18.9320  -30.1860   23.9740 C   0  0  0  0  0  3  0  0  0  0  0  0
  -17.6290  -30.6940   24.1440 C   0  0  0  0  0  3  0  0  0  0  0  0
  -16.5190  -29.9330   23.7370 C   0  0  0  0  0  3  0  0  0  0  0  0
  -16.7170  -28.6760   23.1410 C   0  0  0  0  0  3  0  0  0  0  0  0
  -25.8800  -32.5600   23.8870 C   0  0  0  0  0  3  0  0  0  0  0  0
  -25.5690  -33.9610   24.2110 N   0  0  0  0  0  0  0  0  0  0  0  0
  -25.8980  -35.0130   23.4490 C   0  0  0  0  0  0  0  0  0  0  0  0
  -26.5590  -34.9060   22.4150 O   0  0  0  0  0  0  0  0  0  0  0  0
  -24.9840  -34.1180   25.0160 H   0  0  0  0  0  0  0  0  0  0  0  0
  -24.1680  -36.8080   23.1000 C   0  0  0  0  0  1  0  0  0  0  0  0
  -25.4130  -36.4040   23.9060 C   0  0  0  0  0  3  0  0  0  0  0  0
  -27.5480  -37.2960   24.7300 C   0  0  0  0  0  1  0  0  0  0  0  0
  -26.4450  -37.4580   23.7870 N   0  0  0  0  0  0  0  0  0  0  0  0
  -26.0410  -38.3770   23.9380 H   0  0  0  0  0  0  0  0  0  0  0  0
  -26.3810  -31.7990   25.1770 C   0  0  1  0  0  0  0  0  0  0  0  0
  -25.2740  -31.5690   26.2310 C   0  0  0  0  0  1  0  0  0  0  0  0
  -26.9670  -30.4200   24.7980 C   0  0  0  0  0  1  0  0  0  0  0  0
  -27.5250  -32.5930   25.8510 C   0  0  0  0  0  1  0  0  0  0  0  0
  2 50  1  0
  2  1  1  0
  3  1  2  0
  3 11  1  0
  4  5  1  0
  4  2  2  0
  5  3  1  0
  7  8  1  0
  8  6  1  0
  8  4  1  0
  9 10  1  0
 10  5  1  0
 12 20  1  0
 13 18  1  0
 14 15  1  0
 14 13  1  0
 16 15  1  0
 16 25  1  0
 16 17  1  0
 18 12  1  0
 18 17  1  0
 19 12  2  0
 20 11  1  0
 21 20  1  0
 22 23  2  0
 23 42  1  0
 24 23  1  0
 24 27  1  0
 25 26  1  0
 25 22  1  0
 26 24  2  0
 27 28  1  0
 28 29  2  0
 30 33  1  0
 30 29  1  0
 31 30  2  0
 32 31  1  0
 32 27  2  0
 33 34  1  0
 34 35  1  0
 35 36  2  0
 37 36  1  0
 37 41  1  0
 38 37  2  0
 39 34  2  0
 39 38  1  0
 40 39  1  0
 42 43  1  0
 43 46  1  0
 43 45  1  0
 44 42  2  0
 47 48  1  0
 47 22  1  0
 49 47  1  0
 50 55  1  0
 50 51  1  0
 51 54  1  0
 51 53  1  0
 52 51  1  0
 55 56  1  0
 57 68  2  0
 58 56  1  0
 58 63  1  0
 59 67  1  0
 59 69  1  0
 60 66  1  0
 60 62  1  0
 61 67  1  0
 62 63  2  0
 62 61  1  0
 64 58  2  0
 65 64  1  0
 65 60  2  0
 66 59  1  0
 67 57  1  0
 69 71  2  0
 70 69  1  0
 72 70  1  0
 73 82  2  0
 73 78  1  0
 74 70  1  0
 74 78  1  0
 75 74  1  0
 76 77  1  0
 76 75  1  0
 77 73  1  0
 78 79  2  0
 79 80  1  0
 81 80  2  0
 82 81  1  0
 83 57  1  0
 83 84  1  0
 83 93  1  0
 84 87  1  0
 85 89  1  0
 85 84  1  0
 86 85  2  0
 89 88  1  0
 91 89  1  0
 91 92  1  0
 91 90  1  0
 93 96  1  1
 93 94  1  0
 95 93  1  0
M  ISO  4  12 100  20 100  55 101  56 101
M  END
>  <TORSDO>  (44) 
F 22

>  <SCORE>  (44) 
-13.969

>  <name>  (44) 
44

>  <ligand_id>  (44) 
44

>  <original_smiles>  (44) 
[H]c1c([H])c([H])c2c(c1[H])C([H])([H])C([H])([H])C([H])([H])C2([H])N([H])C(=O)C1([H])N(C(=O)C([H])(N([H])C(=O)C([H])(N([H])C([H])([H])[H])C([H])([H])[H])C(C([H])([H])[H])(C([H])([H])[H])C([H])([H])[H])C([H])([H])c2c([H])c(OC([H])([H])C([H])(c3c([H])c(C([H])([H])N([H])C(=O)N4C([H])([H])C([H])([H])C([H])([H])C([H])(n5nc(-c6c([H])c([H])c(Oc7c([H])c([H])c(F)c([H])c7F)c([H])c6[H])c(C(=O)N([H])[H])c5N([H])[H])C4([H])[H])n(C([H])([H])C([H])([H])[H])c3C([H])(C([H])([H])[H])C([H])([H])[H])[N+]([H])([H])[H])c([H])c([H])c2C1([H])[H]

>  <smiles>  (44) 
[H]c1c([H])c([H])c2c(c1[H])C([H])([H])C([H])([H])C([H])([H])C2([H])N([H])C(=O)C1([H])N(C(=O)C([H])(N([H])C(=O)C([H])(N([H])C([H])([H])[H])C([H])([H])[H])C(C([H])([H])[H])(C([H])([H])[H])C([H])([H])[H])C([H])([H])c2c([H])c(OC([H])([H])C([H])(c3c([H])c(C([H])([H])N([H])C(=O)N4C([H])([H])C([H])([H])C([H])([H])C([H])(n5nc(-c6c([H])c([H])c(Oc7c([H])c([H])c(F)c([H])c7F)c([H])c6[H])c(C(=O)N([H])[H])c5N([H])[H])C4([H])[H])n(C([H])([H])C([H])([H])[H])c3C([H])(C([H])([H])[H])C([H])([H])[H])[N+]([H])([H])[H])c([H])c([H])c2C1([H])[H]

$$$$
45:0:0
     RDKit          3D

 96104  0  0  1  0  0  0  0  0999 V2000
  -30.5160  -22.2430   21.1670 C   0  0  0  0  0  2  0  0  0  0  0  0
  -29.3620  -23.1810   21.0320 N   0  0  0  0  0  4  0  0  0  0  0  0
  -28.8680  -23.1770   21.9130 H   0  0  0  0  0  0  0  0  0  0  0  0
  -28.7320  -22.7790   20.3540 H   0  0  0  0  0  0  0  0  0  0  0  0
  -30.3230  -25.3560   21.8210 C   0  0  0  0  0  1  0  0  0  0  0  0
  -30.5220  -24.7090   19.3940 C   0  0  0  0  0  1  0  0  0  0  0  0
  -29.6260  -24.6190   20.6510 C   0  0  1  0  0  0  0  0  0  0  0  0
  -28.2610  -25.3190   20.3430 C   0  0  0  0  0  2  0  0  0  0  0  0
  -28.3780  -26.7400   20.1220 O   0  0  0  0  0  0  0  0  0  0  0  0
  -24.5180  -31.8910   23.1680 C   0  0  0  0  0  0  0  0  0  0  0  0
  -27.1960  -27.4620   20.0930 C   0  0  0  0  0  0  0  0  0  0  0  0
  -23.3240  -30.4830   21.5230 C   0  0  0  0  0  3  0  0  0  0  0  0
  -24.7890  -28.9620   20.0940 C   0  0  0  0  0  0  0  0  0  0  0  0
  -25.8490  -30.8590   21.3290 C   0  0  0  0  0  2  0  0  0  0  0  0
  -25.9440  -29.4910   20.6840 C   0  0  0  0  0  0  0  0  0  0  0  0
  -27.1500  -28.7510   20.6730 C   0  0  0  0  0  3  0  0  0  0  0  0
  -26.0210  -26.9490   19.4970 C   0  0  0  0  0  3  0  0  0  0  0  0
  -24.8230  -27.6900   19.4970 C   0  0  0  0  0  3  0  0  0  0  0  0
  -23.5390  -29.8110   20.1420 C   0  0  0  0  0  2  0  0  0  0  0  0
  -24.5810  -31.0920   22.0650 N   0  0  0  0  0  0  0  0  0  0  0  0
  -23.4340  -32.1530   23.7080 O   0  0  0  0  0  0  0  0  0  0  0  0
  -22.6810  -29.4540   22.4820 C   0  0  0  0  0  0  0  0  0  0  0  0
  -21.3540  -29.2810   22.3730 N   0  0  0  0  0  0  0  0  0  0  0  0
  -23.3740  -28.8160   23.2780 O   0  0  0  0  0  0  0  0  0  0  0  0
  -20.8540  -29.8480   21.7000 H   0  0  0  0  0  0  0  0  0  0  0  0
  -17.9770  -28.1140   22.9140 C   0  0  0  0  0  0  0  0  0  0  0  0
  -20.5430  -28.3390   23.1440 C   0  0  0  0  0  3  0  0  0  0  0  0
  -20.6190  -26.9150   22.5420 C   0  0  0  0  0  2  0  0  0  0  0  0
  -19.4960  -26.6210   21.5450 C   0  0  0  0  0  2  0  0  0  0  0  0
  -18.1260  -26.7740   22.2140 C   0  0  0  0  0  2  0  0  0  0  0  0
  -19.1120  -28.8560   23.3360 C   0  0  0  0  0  0  0  0  0  0  0  0
  -18.9180  -30.1130   23.9480 C   0  0  0  0  0  3  0  0  0  0  0  0
  -17.6230  -30.6270   24.1440 C   0  0  0  0  0  3  0  0  0  0  0  0
  -16.5020  -29.8800   23.7380 C   0  0  0  0  0  3  0  0  0  0  0  0
  -16.6810  -28.6260   23.1290 C   0  0  0  0  0  3  0  0  0  0  0  0
  -25.7990  -32.5300   23.7880 C   0  0  0  0  0  3  0  0  0  0  0  0
  -25.4750  -33.9190   24.1350 N   0  0  0  0  0  0  0  0  0  0  0  0
  -25.8050  -34.9840   23.3910 C   0  0  0  0  0  0  0  0  0  0  0  0
  -26.4840  -34.9000   22.3640 O   0  0  0  0  0  0  0  0  0  0  0  0
  -24.8710  -34.0590   24.9310 H   0  0  0  0  0  0  0  0  0  0  0  0
  -24.0750  -36.7710   23.0320 C   0  0  0  0  0  1  0  0  0  0  0  0
  -25.3010  -36.3620   23.8630 C   0  0  0  0  0  3  0  0  0  0  0  0
  -27.4150  -37.2420   24.7490 C   0  0  0  0  0  1  0  0  0  0  0  0
  -26.3300  -37.4220   23.7880 N   0  0  0  0  0  0  0  0  0  0  0  0
  -25.9180  -38.3380   23.9420 H   0  0  0  0  0  0  0  0  0  0  0  0
  -26.3310  -31.7500   25.0510 C   0  0  1  0  0  0  0  0  0  0  0  0
  -25.2470  -31.4890   26.1220 C   0  0  0  0  0  1  0  0  0  0  0  0
  -26.9280  -30.3840   24.6370 C   0  0  0  0  0  1  0  0  0  0  0  0
  -27.4770  -32.5490   25.7140 C   0  0  0  0  0  1  0  0  0  0  0  0
  -30.8320  -20.6800   23.1560 C   0  0  0  0  0  1  0  0  0  0  0  0
  -30.1240  -20.8560   21.7990 C   0  0  0  0  0  3  0  0  0  0  0  0
  -29.5510  -19.7710   19.5710 C   0  0  0  0  0  2  0  0  0  0  0  0
  -29.8070  -18.6230   18.5960 C   0  0  0  0  0  2  0  0  0  0  0  0
  -30.1180  -18.2160   21.4970 C   0  0  0  0  0  2  0  0  0  0  0  0
  -30.3860  -19.6270   20.8600 C   0  0  0  0  0  3  0  0  0  0  0  0
  -29.4910  -17.2580   19.2320 C   0  0  0  0  0  3  0  0  0  0  0  0
  -30.3450  -17.0320   20.5110 C   0  0  0  0  0  3  0  0  0  0  0  0
  -29.6700  -16.1680   18.1670 C   0  0  0  0  0  1  0  0  0  0  0  0
  -30.8710  -14.6220   21.0860 C   0  0  0  0  0  0  0  0  0  0  0  0
  -30.7530  -12.3230   20.2120 C   0  0  0  0  0  2  0  0  0  0  0  0
  -29.9700  -12.3510   18.8820 C   0  0  0  0  0  2  0  0  0  0  0  0
  -28.4470  -12.2600   19.1360 C   0  0  0  0  0  2  0  0  0  0  0  0
  -27.9430  -13.2030   20.2660 C   0  0  0  0  0  3  0  0  0  0  0  0
  -28.8670  -13.1430   21.5040 C   0  0  0  0  0  2  0  0  0  0  0  0
  -30.2410  -13.4150   21.0570 N   0  0  0  0  0  0  0  0  0  0  0  0
  -32.0730  -14.7480   20.8400 O   0  0  0  0  0  0  0  0  0  0  0  0
  -30.0570  -15.7030   21.1170 N   0  0  0  0  0  0  0  0  0  0  0  0
  -29.0940  -15.5150   21.3500 H   0  0  0  0  0  0  0  0  0  0  0  0
  -25.4840  -13.8200   20.7080 C   0  0  0  0  0  0  0  0  0  0  0  0
  -24.3840  -13.0550   20.9870 C   0  0  0  0  0  0  0  0  0  0  0  0
  -24.8490  -11.7050   21.0450 C   0  0  0  0  0  0  0  0  0  0  0  0
  -26.5490  -12.9360   20.6130 N   0  0  0  0  0  0  0  0  0  0  0  0
  -26.1640  -11.6630   20.8760 N   0  0  0  0  0  0  0  0  0  0  0  0
  -24.1090  -10.4460   21.1940 C   0  0  0  0  0  0  0  0  0  0  0  0
  -24.4630   -9.4960   22.1780 C   0  0  0  0  0  3  0  0  0  0  0  0
  -23.7260   -8.2990   22.3150 C   0  0  0  0  0  3  0  0  0  0  0  0
  -22.6220   -8.0450   21.4660 C   0  0  0  0  0  0  0  0  0  0  0  0
  -22.2900   -8.9840   20.4740 C   0  0  0  0  0  3  0  0  0  0  0  0
  -23.0260  -10.1720   20.3350 C   0  0  0  0  0  3  0  0  0  0  0  0
  -21.8650   -6.8990   21.5080 O   0  0  0  0  0  0  0  0  0  0  0  0
  -21.7340   -6.1650   22.6590 C   0  0  0  0  0  0  0  0  0  0  0  0
  -21.2210   -6.7280   23.8500 C   0  0  0  0  0  3  0  0  0  0  0  0
  -21.0420   -5.9190   24.9900 C   0  0  0  0  0  3  0  0  0  0  0  0
  -21.3640   -4.5500   24.9400 C   0  0  0  0  0  0  0  0  0  0  0  0
  -21.8680   -3.9880   23.7550 C   0  0  0  0  0  3  0  0  0  0  0  0
  -22.0510   -4.7930   22.6190 C   0  0  0  0  0  0  0  0  0  0  0  0
  -22.5190   -4.2420   21.4720 F   0  0  0  0  0  0  0  0  0  0  0  0
  -21.1840   -3.7720   26.0330 F   0  0  0  0  0  0  0  0  0  0  0  0
  -22.9650  -13.5340   21.0930 C   0  0  0  0  0  0  0  0  0  0  0  0
  -22.1500  -12.8630   21.8980 N   0  0  0  0  0  0  0  0  0  0  0  0
  -22.5840  -14.5400   20.4960 O   0  0  0  0  0  0  0  0  0  0  0  0
  -22.4680  -12.0510   22.4090 H   0  0  0  0  0  0  0  0  0  0  0  0
  -21.1920  -13.1650   22.0070 H   0  0  0  0  0  0  0  0  0  0  0  0
  -25.6630  -15.1860   20.5060 N   0  0  0  0  0  0  0  0  0  0  0  0
  -24.8800  -15.8310   20.5080 H   0  0  0  0  0  0  0  0  0  0  0  0
  -26.5300  -15.6170   20.2130 H   0  0  0  0  0  0  0  0  0  0  0  0
  1 51  1  0
  2  1  1  0
  2  3  1  0
  4  2  1  0
  7  6  1  6
  7  2  1  0
  7  5  1  0
  8  7  1  0
  9  8  1  0
 10 21  2  0
 11  9  1  0
 11 16  1  0
 12 20  1  0
 12 22  1  0
 13 19  1  0
 13 15  1  0
 14 20  1  0
 15 14  1  0
 16 15  2  0
 17 11  2  0
 18 17  1  0
 18 13  2  0
 19 12  1  0
 20 10  1  0
 22 24  2  0
 23 22  1  0
 25 23  1  0
 26 35  2  0
 26 31  1  0
 27 23  1  0
 27 31  1  0
 28 27  1  0
 29 30  1  0
 29 28  1  0
 30 26  1  0
 31 32  2  0
 32 33  1  0
 34 33  2  0
 35 34  1  0
 36 10  1  0
 36 37  1  0
 36 46  1  0
 37 40  1  0
 38 42  1  0
 38 37  1  0
 39 38  2  0
 42 41  1  0
 44 42  1  0
 44 45  1  0
 44 43  1  0
 46 49  1  1
 46 47  1  0
 48 46  1  0
 51 50  1  0
 52 55  1  0
 53 56  1  0
 53 52  1  0
 55 54  1  0
 55 51  1  0
 56 58  1  0
 56 57  1  0
 57 67  1  0
 57 54  1  0
 59 67  1  0
 60 65  1  0
 61 62  1  0
 61 60  1  0
 63 62  1  0
 63 72  1  0
 63 64  1  0
 65 59  1  0
 65 64  1  0
 66 59  2  0
 67 68  1  0
 69 70  2  0
 70 71  1  0
 70 89  1  0
 71 74  1  0
 72 69  1  0
 72 73  1  0
 73 71  2  0
 74 75  1  0
 75 76  2  0
 77 80  1  0
 77 76  1  0
 78 77  2  0
 79 78  1  0
 79 74  2  0
 80 81  1  0
 81 82  1  0
 82 83  2  0
 84 83  1  0
 84 88  1  0
 85 84  2  0
 86 81  2  0
 86 85  1  0
 87 86  1  0
 89 90  1  0
 90 93  1  0
 90 92  1  0
 91 89  2  0
 94 95  1  0
 94 69  1  0
 96 94  1  0
M  ISO  4   8 101   9 101  59 100  67 100
M  END
>  <TORSDO>  (45) 
F 21

>  <SCORE>  (45) 
-12.571

>  <name>  (45) 
45

>  <ligand_id>  (45) 
45

>  <original_smiles>  (45) 
[H]c1c([H])c([H])c2c(c1[H])C([H])([H])C([H])([H])C([H])([H])C2([H])N([H])C(=O)C1([H])N(C(=O)C([H])(N([H])C(=O)C([H])(N([H])C([H])([H])[H])C([H])([H])[H])C(C([H])([H])[H])(C([H])([H])[H])C([H])([H])[H])C([H])([H])c2c([H])c(OC([H])([H])C(C([H])([H])[H])(C([H])([H])[H])[N+]([H])([H])C([H])([H])C([H])(C([H])([H])[H])C3([H])C([H])([H])C([H])([H])C([H])(C([H])([H])[H])C([H])(N([H])C(=O)N4C([H])([H])C([H])([H])C([H])([H])C([H])(n5nc(-c6c([H])c([H])c(Oc7c([H])c([H])c(F)c([H])c7F)c([H])c6[H])c(C(=O)N([H])[H])c5N([H])[H])C4([H])[H])C3([H])[H])c([H])c([H])c2C1([H])[H]

>  <smiles>  (45) 
[H]c1c([H])c([H])c2c(c1[H])C([H])([H])C([H])([H])C([H])([H])C2([H])N([H])C(=O)C1([H])N(C(=O)C([H])(N([H])C(=O)C([H])(N([H])C([H])([H])[H])C([H])([H])[H])C(C([H])([H])[H])(C([H])([H])[H])C([H])([H])[H])C([H])([H])c2c([H])c(OC([H])([H])C(C([H])([H])[H])(C([H])([H])[H])[N+]([H])([H])C([H])([H])C([H])(C([H])([H])[H])C3([H])C([H])([H])C([H])([H])C([H])(C([H])([H])[H])C([H])(N([H])C(=O)N4C([H])([H])C([H])([H])C([H])([H])C([H])(n5nc(-c6c([H])c([H])c(Oc7c([H])c([H])c(F)c([H])c7F)c([H])c6[H])c(C(=O)N([H])[H])c5N([H])[H])C4([H])[H])C3([H])[H])c([H])c([H])c2C1([H])[H]

$$$$
46:0:0
     RDKit          3D

 98106  0  0  1  0  0  0  0  0999 V2000
  -27.7110  -21.2880   19.3650 C   0  0  0  0  0  2  0  0  0  0  0  0
  -29.4560  -18.8980   16.9090 C   0  0  0  0  0  3  0  0  0  0  0  0
  -29.5780  -17.7210   17.6630 C   0  0  0  0  0  3  0  0  0  0  0  0
  -28.8640  -20.0310   17.4810 C   0  0  0  0  0  3  0  0  0  0  0  0
  -29.0840  -17.6550   18.9820 C   0  0  0  0  0  0  0  0  0  0  0  0
  -28.4000  -20.0230   18.8170 C   0  0  0  0  0  0  0  0  0  0  0  0
  -28.5050  -18.8130   19.5780 C   0  0  0  0  0  0  0  0  0  0  0  0
  -27.9430  -18.7640   20.9940 C   0  0  0  0  0  1  0  0  0  0  0  0
  -29.0610  -16.2610   19.6210 C   0  0  0  0  0  2  0  0  0  0  0  0
  -30.8360  -14.6010   19.9410 C   0  0  0  0  0  0  0  0  0  0  0  0
  -30.4510  -12.3610   18.9760 C   0  0  0  0  0  2  0  0  0  0  0  0
  -29.4810  -12.4470   17.7820 C   0  0  0  0  0  2  0  0  0  0  0  0
  -28.0290  -12.2800   18.2630 C   0  0  0  0  0  2  0  0  0  0  0  0
  -27.6860  -13.2330   19.4330 C   0  0  0  0  0  3  0  0  0  0  0  0
  -28.7830  -13.2160   20.5330 C   0  0  0  0  0  2  0  0  0  0  0  0
  -30.0950  -13.4480   19.9020 N   0  0  0  0  0  0  0  0  0  0  0  0
  -32.0000  -14.6270   19.5350 O   0  0  0  0  0  0  0  0  0  0  0  0
  -30.2320  -15.7480   20.3680 N   0  0  0  0  0  0  0  0  0  0  0  0
  -25.3540  -13.9430   20.2260 C   0  0  0  0  0  0  0  0  0  0  0  0
  -24.2770  -13.2120   20.6420 C   0  0  0  0  0  0  0  0  0  0  0  0
  -24.7020  -11.8490   20.6150 C   0  0  0  0  0  0  0  0  0  0  0  0
  -26.3600  -13.0200   19.9730 N   0  0  0  0  0  0  0  0  0  0  0  0
  -25.9770  -11.7600   20.2760 N   0  0  0  0  0  0  0  0  0  0  0  0
  -23.9470  -10.6130   20.8330 C   0  0  0  0  0  0  0  0  0  0  0  0
  -24.3560   -9.6660   21.7960 C   0  0  0  0  0  3  0  0  0  0  0  0
  -23.6090   -8.4880   22.0010 C   0  0  0  0  0  3  0  0  0  0  0  0
  -22.4380   -8.2500   21.2440 C   0  0  0  0  0  0  0  0  0  0  0  0
  -22.0470   -9.1860   20.2710 C   0  0  0  0  0  3  0  0  0  0  0  0
  -22.7940  -10.3560   20.0630 C   0  0  0  0  0  3  0  0  0  0  0  0
  -21.6590   -7.1250   21.3630 O   0  0  0  0  0  0  0  0  0  0  0  0
  -21.5670   -6.4350   22.5480 C   0  0  0  0  0  0  0  0  0  0  0  0
  -21.1230   -7.0510   23.7370 C   0  0  0  0  0  3  0  0  0  0  0  0
  -20.9720   -6.2870   24.9100 C   0  0  0  0  0  3  0  0  0  0  0  0
  -21.2620   -4.9090   24.8980 C   0  0  0  0  0  0  0  0  0  0  0  0
  -21.7000   -4.2950   23.7120 C   0  0  0  0  0  3  0  0  0  0  0  0
  -21.8500   -5.0550   22.5410 C   0  0  0  0  0  0  0  0  0  0  0  0
  -22.2530   -4.4530   21.3950 F   0  0  0  0  0  0  0  0  0  0  0  0
  -21.1090   -4.1750   26.0240 F   0  0  0  0  0  0  0  0  0  0  0  0
  -22.9010  -13.7350   20.9380 C   0  0  0  0  0  0  0  0  0  0  0  0
  -22.1730  -13.0790   21.8360 N   0  0  0  0  0  0  0  0  0  0  0  0
  -22.4770  -14.7590   20.4030 O   0  0  0  0  0  0  0  0  0  0  0  0
  -22.5180  -12.2540   22.3000 H   0  0  0  0  0  0  0  0  0  0  0  0
  -21.2520  -13.4200   22.0680 H   0  0  0  0  0  0  0  0  0  0  0  0
  -25.5440  -15.3050   20.0140 N   0  0  0  0  0  0  0  0  0  0  0  0
  -24.7810  -15.9670   20.1170 H   0  0  0  0  0  0  0  0  0  0  0  0
  -26.3540  -15.7100   19.5630 H   0  0  0  0  0  0  0  0  0  0  0  0
  -31.3730  -16.1070   22.5800 C   0  0  0  0  0  1  0  0  0  0  0  0
  -32.0050  -17.5560   20.5790 C   0  0  0  0  0  1  0  0  0  0  0  0
  -30.8830  -16.7390   21.2620 C   0  0  0  0  0  3  0  0  0  0  0  0
  -28.5430  -22.5150   19.2890 N   0  0  0  0  0  4  0  0  0  0  0  0
  -29.5150  -22.2430   19.2800 H   0  0  0  0  0  0  0  0  0  0  0  0
  -28.3810  -23.0290   20.1420 H   0  0  0  0  0  0  0  0  0  0  0  0
  -28.2190  -23.4180   18.1520 C   0  0  0  0  0  2  0  0  0  0  0  0
  -30.6010  -23.3630   17.2250 C   0  0  0  0  0  1  0  0  0  0  0  0
  -29.4130  -24.2600   17.6350 C   0  0  0  0  0  3  0  0  0  0  0  0
  -29.8710  -25.4340   18.5460 C   0  0  0  0  0  2  0  0  0  0  0  0
  -28.9040  -26.6430   18.6460 C   0  0  0  0  0  2  0  0  0  0  0  0
  -28.4090  -26.8470   19.9800 O   0  0  0  0  0  0  0  0  0  0  0  0
  -24.5320  -31.9360   23.2300 C   0  0  0  0  0  0  0  0  0  0  0  0
  -27.2320  -27.5610   20.0570 C   0  0  0  0  0  0  0  0  0  0  0  0
  -23.3460  -30.5490   21.5610 C   0  0  0  0  0  3  0  0  0  0  0  0
  -24.8170  -29.0290   20.1350 C   0  0  0  0  0  0  0  0  0  0  0  0
  -25.8770  -30.9080   21.4030 C   0  0  0  0  0  2  0  0  0  0  0  0
  -25.9720  -29.5490   20.7370 C   0  0  0  0  0  0  0  0  0  0  0  0
  -27.1800  -28.8150   20.7090 C   0  0  0  0  0  3  0  0  0  0  0  0
  -26.0530  -27.0410   19.4820 C   0  0  0  0  0  3  0  0  0  0  0  0
  -24.8510  -27.7690   19.5140 C   0  0  0  0  0  3  0  0  0  0  0  0
  -23.5720  -29.8860   20.1780 C   0  0  0  0  0  2  0  0  0  0  0  0
  -24.6010  -31.1470   22.1200 N   0  0  0  0  0  0  0  0  0  0  0  0
  -23.4440  -32.2000   23.7620 O   0  0  0  0  0  0  0  0  0  0  0  0
  -22.6870  -29.5160   22.5040 C   0  0  0  0  0  0  0  0  0  0  0  0
  -21.3660  -29.3240   22.3560 N   0  0  0  0  0  0  0  0  0  0  0  0
  -23.3640  -28.8890   23.3230 O   0  0  0  0  0  0  0  0  0  0  0  0
  -20.8840  -29.8810   21.6640 H   0  0  0  0  0  0  0  0  0  0  0  0
  -17.9930  -28.1070   22.7980 C   0  0  0  0  0  0  0  0  0  0  0  0
  -20.5450  -28.3780   23.1080 C   0  0  0  0  0  3  0  0  0  0  0  0
  -20.6630  -26.9510   22.5220 C   0  0  0  0  0  2  0  0  0  0  0  0
  -19.5790  -26.6310   21.4890 C   0  0  0  0  0  2  0  0  0  0  0  0
  -18.1870  -26.7650   22.1140 C   0  0  0  0  0  2  0  0  0  0  0  0
  -19.1010  -28.8720   23.2490 C   0  0  0  0  0  0  0  0  0  0  0  0
  -18.8660  -30.1300   23.8450 C   0  0  0  0  0  3  0  0  0  0  0  0
  -17.5570  -30.6230   23.9970 C   0  0  0  0  0  3  0  0  0  0  0  0
  -16.4630  -29.8550   23.5630 C   0  0  0  0  0  3  0  0  0  0  0  0
  -16.6820  -28.5990   22.9680 C   0  0  0  0  0  3  0  0  0  0  0  0
  -25.8110  -32.5640   23.8650 C   0  0  0  0  0  3  0  0  0  0  0  0
  -25.5060  -33.9660   24.1800 N   0  0  0  0  0  0  0  0  0  0  0  0
  -25.8660  -35.0120   23.4240 C   0  0  0  0  0  0  0  0  0  0  0  0
  -26.5610  -34.8990   22.4110 O   0  0  0  0  0  0  0  0  0  0  0  0
  -24.8930  -34.1290   24.9660 H   0  0  0  0  0  0  0  0  0  0  0  0
  -24.1660  -36.8190   23.0090 C   0  0  0  0  0  1  0  0  0  0  0  0
  -25.3760  -36.4060   23.8620 C   0  0  0  0  0  3  0  0  0  0  0  0
  -27.4920  -37.2720   24.7580 C   0  0  0  0  0  1  0  0  0  0  0  0
  -26.4220  -37.4500   23.7810 N   0  0  0  0  0  0  0  0  0  0  0  0
  -26.0200  -38.3740   23.9170 H   0  0  0  0  0  0  0  0  0  0  0  0
  -26.3070  -31.7990   25.1540 C   0  0  1  0  0  0  0  0  0  0  0  0
  -25.1970  -31.5740   26.2080 C   0  0  0  0  0  1  0  0  0  0  0  0
  -26.8880  -30.4150   24.7830 C   0  0  0  0  0  1  0  0  0  0  0  0
  -27.4500  -32.5940   25.8280 C   0  0  0  0  0  1  0  0  0  0  0  0
  2  4  2  0
  2  3  1  0
  3  5  2  0
  4  6  1  0
  5  7  1  0
  5  9  1  0
  6  1  1  0
  6  7  2  0
  7  8  1  0
  9 18  1  0
 10 18  1  0
 11 16  1  0
 12 13  1  0
 12 11  1  0
 14 13  1  0
 14 22  1  0
 14 15  1  0
 16 10  1  0
 16 15  1  0
 17 10  2  0
 18 49  1  0
 19 20  2  0
 20 39  1  0
 21 20  1  0
 21 24  1  0
 22 19  1  0
 22 23  1  0
 23 21  2  0
 24 25  1  0
 25 26  2  0
 27 30  1  0
 27 26  1  0
 28 27  2  0
 29 28  1  0
 29 24  2  0
 30 31  1  0
 31 32  1  0
 32 33  2  0
 34 33  1  0
 34 38  1  0
 35 34  2  0
 36 31  2  0
 36 35  1  0
 37 36  1  0
 39 40  1  0
 40 43  1  0
 40 42  1  0
 41 39  2  0
 44 45  1  0
 44 19  1  0
 46 44  1  0
 48 49  1  0
 49 47  1  0
 50  1  1  0
 50 52  1  0
 51 50  1  0
 53 50  1  0
 55 54  1  0
 55 53  1  0
 55 56  1  0
 56 57  1  0
 57 58  1  0
 58 60  1  0
 59 70  2  0
 60 65  1  0
 61 69  1  0
 61 71  1  0
 62 68  1  0
 62 64  1  0
 63 69  1  0
 64 63  1  0
 65 64  2  0
 66 67  1  0
 66 60  2  0
 67 62  2  0
 68 61  1  0
 69 59  1  0
 71 73  2  0
 72 71  1  0
 74 72  1  0
 75 84  2  0
 75 80  1  0
 76 72  1  0
 76 80  1  0
 77 76  1  0
 78 79  1  0
 78 77  1  0
 79 75  1  0
 80 81  2  0
 81 82  1  0
 83 82  2  0
 84 83  1  0
 85 59  1  0
 85 86  1  0
 85 95  1  0
 86 89  1  0
 87 91  1  0
 87 86  1  0
 88 87  2  0
 91 90  1  0
 93 91  1  0
 93 94  1  0
 93 92  1  0
 95 98  1  1
 95 96  1  0
 97 95  1  0
M  ISO  4  10 100  18 100  57 101  58 101
M  END
>  <TORSDO>  (46) 
F 24

>  <SCORE>  (46) 
-11.182

>  <name>  (46) 
46

>  <ligand_id>  (46) 
46

>  <original_smiles>  (46) 
[H]c1c([H])c([H])c2c(c1[H])C([H])([H])C([H])([H])C([H])([H])C2([H])N([H])C(=O)C1([H])N(C(=O)C([H])(N([H])C(=O)C([H])(N([H])C([H])([H])[H])C([H])([H])[H])C(C([H])([H])[H])(C([H])([H])[H])C([H])([H])[H])C([H])([H])c2c([H])c(OC([H])([H])C([H])([H])C([H])(C([H])([H])[H])C([H])([H])[N+]([H])([H])C([H])([H])c3c([H])c([H])c([H])c(C([H])([H])N(C(=O)N4C([H])([H])C([H])([H])C([H])([H])C([H])(n5nc(-c6c([H])c([H])c(Oc7c([H])c([H])c(F)c([H])c7F)c([H])c6[H])c(C(=O)N([H])[H])c5N([H])[H])C4([H])[H])C([H])(C([H])([H])[H])C([H])([H])[H])c3C([H])([H])[H])c([H])c([H])c2C1([H])[H]

>  <smiles>  (46) 
[H]c1c([H])c([H])c2c(c1[H])C([H])([H])C([H])([H])C([H])([H])C2([H])N([H])C(=O)C1([H])N(C(=O)C([H])(N([H])C(=O)C([H])(N([H])C([H])([H])[H])C([H])([H])[H])C(C([H])([H])[H])(C([H])([H])[H])C([H])([H])[H])C([H])([H])c2c([H])c(OC([H])([H])C([H])([H])C([H])(C([H])([H])[H])C([H])([H])[N+]([H])([H])C([H])([H])c3c([H])c([H])c([H])c(C([H])([H])N(C(=O)N4C([H])([H])C([H])([H])C([H])([H])C([H])(n5nc(-c6c([H])c([H])c(Oc7c([H])c([H])c(F)c([H])c7F)c([H])c6[H])c(C(=O)N([H])[H])c5N([H])[H])C4([H])[H])C([H])(C([H])([H])[H])C([H])([H])[H])c3C([H])([H])[H])c([H])c([H])c2C1([H])[H]

$$$$
47:0:0
     RDKit          3D

 91 99  0  0  1  0  0  0  0  0999 V2000
  -29.3630  -21.3360   20.2740 N   0  0  0  0  0  4  0  0  0  0  0  0
  -30.3070  -21.4380   20.6130 H   0  0  0  0  0  0  0  0  0  0  0  0
  -28.8080  -21.2330   21.1100 H   0  0  0  0  0  0  0  0  0  0  0  0
  -29.2500  -19.9570   18.0590 C   0  0  0  0  0  1  0  0  0  0  0  0
  -29.2790  -19.8130   19.5850 C   0  0  0  0  0  3  0  0  0  0  0  0
  -30.5860  -15.3810   19.4710 C   0  0  0  0  0  0  0  0  0  0  0  0
  -30.4500  -12.9750   18.4520 C   0  0  0  0  0  2  0  0  0  0  0  0
  -29.3420  -12.7440   17.3900 C   0  0  0  0  0  2  0  0  0  0  0  0
  -27.9940  -12.4020   18.0510 C   0  0  0  0  0  2  0  0  0  0  0  0
  -27.7060  -13.3280   19.2530 C   0  0  0  0  0  3  0  0  0  0  0  0
  -28.9290  -13.4330   20.2000 C   0  0  0  0  0  2  0  0  0  0  0  0
  -30.0100  -14.0630   19.4080 N   0  0  0  0  0  0  0  0  0  0  0  0
  -31.7680  -15.3680   19.0930 O   0  0  0  0  0  0  0  0  0  0  0  0
  -28.5350  -16.6830   20.3170 C   0  0  0  0  0  2  0  0  0  0  0  0
  -28.6230  -16.9330   21.8380 C   0  0  0  0  0  2  0  0  0  0  0  0
  -30.5040  -18.3560   21.4600 C   0  0  0  0  0  2  0  0  0  0  0  0
  -30.2300  -18.3090   19.9500 C   0  0  0  0  0  3  0  0  0  0  0  0
  -29.8680  -16.6870   19.7240 N   0  0  0  0  0  0  0  0  0  0  0  0
  -29.2530  -18.1840   22.1240 O   0  0  0  0  0  0  0  0  0  0  0  0
  -25.5090  -13.8710   20.4470 C   0  0  0  0  0  0  0  0  0  0  0  0
  -24.5030  -13.0830   20.9250 C   0  0  0  0  0  0  0  0  0  0  0  0
  -24.9070  -11.7370   20.6760 C   0  0  0  0  0  0  0  0  0  0  0  0
  -26.4700  -13.0030   19.9490 N   0  0  0  0  0  0  0  0  0  0  0  0
  -26.1270  -11.7060   20.1500 N   0  0  0  0  0  0  0  0  0  0  0  0
  -24.1720  -10.4800   20.8490 C   0  0  0  0  0  0  0  0  0  0  0  0
  -24.6890   -9.4250   21.6310 C   0  0  0  0  0  3  0  0  0  0  0  0
  -23.9520   -8.2340   21.7980 C   0  0  0  0  0  3  0  0  0  0  0  0
  -22.6840   -8.0920   21.1850 C   0  0  0  0  0  0  0  0  0  0  0  0
  -22.1840   -9.1370   20.3890 C   0  0  0  0  0  3  0  0  0  0  0  0
  -22.9220  -10.3210   20.2190 C   0  0  0  0  0  3  0  0  0  0  0  0
  -21.9100   -6.9620   21.2740 O   0  0  0  0  0  0  0  0  0  0  0  0
  -21.9550   -6.1460   22.3750 C   0  0  0  0  0  0  0  0  0  0  0  0
  -21.6930   -6.6320   23.6750 C   0  0  0  0  0  3  0  0  0  0  0  0
  -21.6800   -5.7440   24.7690 C   0  0  0  0  0  3  0  0  0  0  0  0
  -21.9200   -4.3720   24.5660 C   0  0  0  0  0  0  0  0  0  0  0  0
  -22.1770   -3.8860   23.2720 C   0  0  0  0  0  3  0  0  0  0  0  0
  -22.1910   -4.7700   22.1800 C   0  0  0  0  0  0  0  0  0  0  0  0
  -22.4170   -4.2920   20.9320 F   0  0  0  0  0  0  0  0  0  0  0  0
  -21.8990   -3.5170   25.6150 F   0  0  0  0  0  0  0  0  0  0  0  0
  -23.1900  -13.5630   21.4700 C   0  0  0  0  0  0  0  0  0  0  0  0
  -22.5940  -12.8090   22.3870 N   0  0  0  0  0  0  0  0  0  0  0  0
  -22.7080  -14.6400   21.1210 O   0  0  0  0  0  0  0  0  0  0  0  0
  -23.0000  -11.9360   22.6930 H   0  0  0  0  0  0  0  0  0  0  0  0
  -21.7190  -13.1090   22.7920 H   0  0  0  0  0  0  0  0  0  0  0  0
  -25.6530  -15.2500   20.3620 N   0  0  0  0  0  0  0  0  0  0  0  0
  -24.8710  -15.8530   20.5930 H   0  0  0  0  0  0  0  0  0  0  0  0
  -26.3340  -15.6990   19.7660 H   0  0  0  0  0  0  0  0  0  0  0  0
  -30.0420  -23.3380   18.7420 C   0  0  0  0  0  1  0  0  0  0  0  0
  -28.9360  -22.8500   19.6960 C   0  0  0  0  0  3  0  0  0  0  0  0
  -28.4200  -24.3090   20.6010 C   0  0  0  0  0  2  0  0  0  0  0  0
  -28.4540  -25.9330   20.3470 O   0  0  0  0  0  0  0  0  0  0  0  0
  -24.4750  -31.7170   23.1470 C   0  0  0  0  0  0  0  0  0  0  0  0
  -27.3510  -26.9250   20.3280 C   0  0  0  0  0  0  0  0  0  0  0  0
  -23.4000  -30.2410   21.4940 C   0  0  0  0  0  3  0  0  0  0  0  0
  -24.9630  -28.6690   20.1680 C   0  0  0  0  0  0  0  0  0  0  0  0
  -25.9550  -30.5690   21.4280 C   0  0  0  0  0  2  0  0  0  0  0  0
  -26.1100  -29.1520   20.8110 C   0  0  0  0  0  0  0  0  0  0  0  0
  -27.3010  -28.3020   20.8580 C   0  0  0  0  0  3  0  0  0  0  0  0
  -26.1640  -26.5760   19.6480 C   0  0  0  0  0  3  0  0  0  0  0  0
  -25.0110  -27.3990   19.5680 C   0  0  0  0  0  3  0  0  0  0  0  0
  -23.7060  -29.5360   20.1440 C   0  0  0  0  0  2  0  0  0  0  0  0
  -24.6290  -30.8700   22.0770 N   0  0  0  0  0  0  0  0  0  0  0  0
  -23.3560  -31.9700   23.6230 O   0  0  0  0  0  0  0  0  0  0  0  0
  -22.7120  -29.2360   22.4550 C   0  0  0  0  0  0  0  0  0  0  0  0
  -21.3940  -29.0180   22.2890 N   0  0  0  0  0  0  0  0  0  0  0  0
  -23.3730  -28.6510   23.3180 O   0  0  0  0  0  0  0  0  0  0  0  0
  -20.9120  -29.5470   21.5740 H   0  0  0  0  0  0  0  0  0  0  0  0
  -18.0470  -27.6810   22.6990 C   0  0  0  0  0  0  0  0  0  0  0  0
  -20.5820  -28.0610   23.0500 C   0  0  0  0  0  3  0  0  0  0  0  0
  -20.7640  -26.6240   22.5100 C   0  0  0  0  0  2  0  0  0  0  0  0
  -19.7160  -26.2340   21.4640 C   0  0  0  0  0  2  0  0  0  0  0  0
  -18.3060  -26.3300   22.0540 C   0  0  0  0  0  2  0  0  0  0  0  0
  -19.1160  -28.5000   23.1530 C   0  0  0  0  0  0  0  0  0  0  0  0
  -18.8200  -29.7590   23.7180 C   0  0  0  0  0  3  0  0  0  0  0  0
  -17.4900  -30.2020   23.8340 C   0  0  0  0  0  3  0  0  0  0  0  0
  -16.4350  -29.3810   23.3970 C   0  0  0  0  0  3  0  0  0  0  0  0
  -16.7150  -28.1230   22.8360 C   0  0  0  0  0  3  0  0  0  0  0  0
  -25.6950  -32.4220   23.8140 C   0  0  0  0  0  3  0  0  0  0  0  0
  -26.1590  -31.7270   25.1540 C   0  0  1  0  0  0  0  0  0  0  0  0
  -25.0120  -31.4970   26.1680 C   0  0  0  0  0  1  0  0  0  0  0  0
  -26.8090  -30.3550   24.8650 C   0  0  0  0  0  1  0  0  0  0  0  0
  -27.2440  -32.5860   25.8430 C   0  0  0  0  0  1  0  0  0  0  0  0
  -25.3230  -33.8240   24.0770 N   0  0  0  0  0  0  0  0  0  0  0  0
  -25.6520  -34.8640   23.2980 C   0  0  0  0  0  0  0  0  0  0  0  0
  -26.3630  -34.7480   22.2970 O   0  0  0  0  0  0  0  0  0  0  0  0
  -24.6980  -33.9880   24.8520 H   0  0  0  0  0  0  0  0  0  0  0  0
  -23.8830  -36.5930   22.8240 C   0  0  0  0  0  1  0  0  0  0  0  0
  -25.1050  -36.2520   23.6910 C   0  0  0  0  0  3  0  0  0  0  0  0
  -27.1850  -37.2300   24.5580 C   0  0  0  0  0  1  0  0  0  0  0  0
  -26.1060  -37.3360   23.5790 N   0  0  0  0  0  0  0  0  0  0  0  0
  -25.6640  -38.2430   23.6920 H   0  0  0  0  0  0  0  0  0  0  0  0
  1  2  1  0
  1  3  1  0
  5  4  1  0
  5  1  1  0
  6 18  1  0
  7 12  1  0
  8  9  1  0
  8  7  1  0
 10  9  1  0
 10 23  1  0
 10 11  1  0
 12  6  1  0
 12 11  1  0
 13  6  2  0
 14 15  1  0
 15 19  1  0
 16 19  1  0
 17  5  1  0
 17 16  1  0
 18 17  1  0
 18 14  1  0
 20 21  2  0
 21 40  1  0
 22 25  1  0
 22 21  1  0
 23 24  1  0
 23 20  1  0
 24 22  2  0
 25 26  1  0
 26 27  2  0
 28 31  1  0
 28 27  1  0
 29 28  2  0
 30 29  1  0
 30 25  2  0
 31 32  1  0
 32 33  1  0
 33 34  2  0
 35 34  1  0
 35 39  1  0
 36 35  2  0
 37 32  2  0
 37 36  1  0
 38 37  1  0
 40 41  1  0
 41 43  1  0
 41 44  1  0
 42 40  2  0
 45 20  1  0
 45 46  1  0
 47 45  1  0
 49 48  1  0
 49  1  1  0
 49 50  1  0
 51 50  1  0
 52 63  2  0
 53 51  1  0
 53 58  1  0
 54 62  1  0
 54 64  1  0
 55 57  1  0
 56 62  1  0
 57 58  2  0
 57 56  1  0
 59 53  2  0
 60 59  1  0
 60 55  2  0
 61 55  1  0
 61 54  1  0
 62 52  1  0
 64 66  2  0
 65 64  1  0
 67 65  1  0
 68 77  2  0
 68 73  1  0
 69 65  1  0
 69 73  1  0
 70 69  1  0
 71 72  1  0
 71 70  1  0
 72 68  1  0
 73 74  2  0
 74 75  1  0
 76 75  2  0
 77 76  1  0
 78 52  1  0
 78 83  1  0
 78 79  1  0
 79 82  1  1
 79 80  1  0
 81 79  1  0
 83 86  1  0
 84 88  1  0
 84 83  1  0
 85 84  2  0
 88 87  1  0
 90 88  1  0
 90 91  1  0
 90 89  1  0
M  ISO  4   6 100  18 100  50 101  51 101
M  END
>  <TORSDO>  (47) 
F 19

>  <SCORE>  (47) 
-11.483

>  <name>  (47) 
47

>  <ligand_id>  (47) 
47

>  <original_smiles>  (47) 
[H]c1c([H])c([H])c2c(c1[H])C([H])([H])C([H])([H])C([H])([H])C2([H])N([H])C(=O)C1([H])N(C(=O)C([H])(N([H])C(=O)C([H])(N([H])C([H])([H])[H])C([H])([H])[H])C(C([H])([H])[H])(C([H])([H])[H])C([H])([H])[H])C([H])([H])c2c([H])c(OC([H])([H])C([H])(C([H])([H])[H])[N+]([H])([H])C([H])(C([H])([H])[H])C3([H])N(C(=O)N4C([H])([H])C([H])([H])C([H])([H])C([H])(n5nc(-c6c([H])c([H])c(Oc7c([H])c([H])c(F)c([H])c7F)c([H])c6[H])c(C(=O)N([H])[H])c5N([H])[H])C4([H])[H])C([H])([H])C([H])([H])OC3([H])[H])c([H])c([H])c2C1([H])[H]

>  <smiles>  (47) 
[H]c1c([H])c([H])c2c(c1[H])C([H])([H])C([H])([H])C([H])([H])C2([H])N([H])C(=O)C1([H])N(C(=O)C([H])(N([H])C(=O)C([H])(N([H])C([H])([H])[H])C([H])([H])[H])C(C([H])([H])[H])(C([H])([H])[H])C([H])([H])[H])C([H])([H])c2c([H])c(OC([H])([H])C([H])(C([H])([H])[H])[N+]([H])([H])C([H])(C([H])([H])[H])C3([H])N(C(=O)N4C([H])([H])C([H])([H])C([H])([H])C([H])(n5nc(-c6c([H])c([H])c(Oc7c([H])c([H])c(F)c([H])c7F)c([H])c6[H])c(C(=O)N([H])[H])c5N([H])[H])C4([H])[H])C([H])([H])C([H])([H])OC3([H])[H])c([H])c([H])c2C1([H])[H]

$$$$
48:0:0
     RDKit          3D

 91 99  0  0  1  0  0  0  0  0999 V2000
  -29.1200  -22.0090   20.4870 C   0  0  0  0  0  3  0  0  0  0  0  0
  -28.8770  -20.6400   19.9340 C   0  0  0  0  0  0  0  0  0  0  0  0
  -27.7400  -20.6380   19.0700 C   0  0  0  0  0  0  0  0  0  0  0  0
  -28.3210  -23.2380   20.1740 C   0  0  0  0  0  0  0  0  0  0  0  0
  -27.0110  -21.8410   18.8110 C   0  0  0  0  0  0  0  0  0  0  0  0
  -25.7980  -21.8620   17.8940 C   0  0  0  0  0  1  0  0  0  0  0  0
  -27.2950  -23.0620   19.3250 N   0  0  0  0  0  0  0  0  0  0  0  0
  -27.8890  -19.1890   16.9630 C   0  0  0  0  0  1  0  0  0  0  0  0
  -27.3100  -19.3410   18.3770 C   0  0  0  0  0  2  0  0  0  0  0  0
  -29.8270  -19.2490   19.9820 C   0  0  0  0  0  2  0  0  0  0  0  0
  -29.6120  -17.7520   20.7740 C   0  0  0  0  0  2  0  0  0  0  0  0
  -30.4910  -15.0740   20.1940 C   0  0  0  0  0  0  0  0  0  0  0  0
  -30.4030  -12.7280   19.1900 C   0  0  0  0  0  2  0  0  0  0  0  0
  -29.4290  -12.6610   17.9890 C   0  0  0  0  0  2  0  0  0  0  0  0
  -27.9800  -12.4320   18.4610 C   0  0  0  0  0  2  0  0  0  0  0  0
  -27.5940  -13.3420   19.6570 C   0  0  0  0  0  3  0  0  0  0  0  0
  -28.6820  -13.3480   20.7490 C   0  0  0  0  0  2  0  0  0  0  0  0
  -29.9200  -13.8020   20.1010 N   0  0  0  0  0  0  0  0  0  0  0  0
  -31.7110  -15.1530   20.0150 O   0  0  0  0  0  0  0  0  0  0  0  0
  -29.6460  -16.2300   20.2570 N   0  0  0  0  0  0  0  0  0  0  0  0
  -28.6970  -15.9070   20.1390 H   0  0  0  0  0  0  0  0  0  0  0  0
  -25.2300  -13.9060   20.4530 C   0  0  0  0  0  0  0  0  0  0  0  0
  -24.1770  -13.1240   20.8410 C   0  0  0  0  0  0  0  0  0  0  0  0
  -24.6480  -11.7760   20.7960 C   0  0  0  0  0  0  0  0  0  0  0  0
  -26.2720  -13.0340   20.1870 N   0  0  0  0  0  0  0  0  0  0  0  0
  -25.9340  -11.7480   20.4620 N   0  0  0  0  0  0  0  0  0  0  0  0
  -23.9330  -10.5090   20.9920 C   0  0  0  0  0  0  0  0  0  0  0  0
  -24.3690   -9.5500   21.9310 C   0  0  0  0  0  3  0  0  0  0  0  0
  -23.6500   -8.3490   22.1140 C   0  0  0  0  0  3  0  0  0  0  0  0
  -22.4810   -8.0980   21.3560 C   0  0  0  0  0  0  0  0  0  0  0  0
  -22.0650   -9.0460   20.4050 C   0  0  0  0  0  3  0  0  0  0  0  0
  -22.7850  -10.2390   20.2220 C   0  0  0  0  0  3  0  0  0  0  0  0
  -21.7330   -6.9500   21.4490 O   0  0  0  0  0  0  0  0  0  0  0  0
  -21.6690   -6.2250   22.6120 C   0  0  0  0  0  0  0  0  0  0  0  0
  -21.1830   -6.7850   23.8150 C   0  0  0  0  0  3  0  0  0  0  0  0
  -21.0690   -5.9840   24.9680 C   0  0  0  0  0  3  0  0  0  0  0  0
  -21.4320   -4.6250   24.9210 C   0  0  0  0  0  0  0  0  0  0  0  0
  -21.9100   -4.0640   23.7240 C   0  0  0  0  0  3  0  0  0  0  0  0
  -22.0260   -4.8620   22.5730 C   0  0  0  0  0  0  0  0  0  0  0  0
  -22.4680   -4.3110   21.4160 F   0  0  0  0  0  0  0  0  0  0  0  0
  -21.3150   -3.8540   26.0290 F   0  0  0  0  0  0  0  0  0  0  0  0
  -22.7820  -13.5930   21.1360 C   0  0  0  0  0  0  0  0  0  0  0  0
  -22.0690  -12.8860   22.0060 N   0  0  0  0  0  0  0  0  0  0  0  0
  -22.3340  -14.6220   20.6300 O   0  0  0  0  0  0  0  0  0  0  0  0
  -22.4440  -12.0550   22.4370 H   0  0  0  0  0  0  0  0  0  0  0  0
  -21.1340  -13.1840   22.2460 H   0  0  0  0  0  0  0  0  0  0  0  0
  -25.3790  -15.2790   20.2750 N   0  0  0  0  0  0  0  0  0  0  0  0
  -24.6040  -15.9200   20.3990 H   0  0  0  0  0  0  0  0  0  0  0  0
  -26.1960  -15.7220   19.8780 H   0  0  0  0  0  0  0  0  0  0  0  0
  -28.3150  -24.7480   20.8920 C   0  0  0  0  0  2  0  0  0  0  0  0
  -28.3110  -26.1850   20.2520 O   0  0  0  0  0  0  0  0  0  0  0  0
  -24.6070  -31.8950   23.2710 C   0  0  0  0  0  0  0  0  0  0  0  0
  -27.2270  -27.1410   20.3060 C   0  0  0  0  0  0  0  0  0  0  0  0
  -23.4240  -30.4780   21.6360 C   0  0  0  0  0  3  0  0  0  0  0  0
  -24.8880  -28.8850   20.2420 C   0  0  0  0  0  0  0  0  0  0  0  0
  -25.9780  -30.7490   21.4830 C   0  0  0  0  0  2  0  0  0  0  0  0
  -26.0640  -29.3450   20.8490 C   0  0  0  0  0  0  0  0  0  0  0  0
  -27.2370  -28.4930   20.8540 C   0  0  0  0  0  3  0  0  0  0  0  0
  -26.0200  -26.7810   19.6730 C   0  0  0  0  0  3  0  0  0  0  0  0
  -24.8800  -27.6170   19.6380 C   0  0  0  0  0  3  0  0  0  0  0  0
  -23.6580  -29.7820   20.2680 C   0  0  0  0  0  2  0  0  0  0  0  0
  -24.6900  -31.0650   22.1850 N   0  0  0  0  0  0  0  0  0  0  0  0
  -23.5160  -32.1790   23.7890 O   0  0  0  0  0  0  0  0  0  0  0  0
  -22.7400  -29.4800   22.6050 C   0  0  0  0  0  0  0  0  0  0  0  0
  -21.4140  -29.2970   22.4640 N   0  0  0  0  0  0  0  0  0  0  0  0
  -23.4070  -28.8710   23.4440 O   0  0  0  0  0  0  0  0  0  0  0  0
  -20.9340  -29.8420   21.7620 H   0  0  0  0  0  0  0  0  0  0  0  0
  -18.0410  -28.0650   22.9410 C   0  0  0  0  0  0  0  0  0  0  0  0
  -20.5920  -28.3600   23.2360 C   0  0  0  0  0  3  0  0  0  0  0  0
  -20.7160  -26.9230   22.6810 C   0  0  0  0  0  2  0  0  0  0  0  0
  -19.6310  -26.5740   21.6570 C   0  0  0  0  0  2  0  0  0  0  0  0
  -18.2400  -26.7110   22.2820 C   0  0  0  0  0  2  0  0  0  0  0  0
  -19.1450  -28.8460   23.3750 C   0  0  0  0  0  0  0  0  0  0  0  0
  -18.9040  -30.1110   23.9520 C   0  0  0  0  0  3  0  0  0  0  0  0
  -17.5910  -30.5980   24.0990 C   0  0  0  0  0  3  0  0  0  0  0  0
  -16.5010  -29.8150   23.6820 C   0  0  0  0  0  3  0  0  0  0  0  0
  -16.7260  -28.5510   23.1090 C   0  0  0  0  0  3  0  0  0  0  0  0
  -25.8750  -32.5430   23.9030 C   0  0  0  0  0  3  0  0  0  0  0  0
  -26.3670  -31.8010   25.2080 C   0  0  1  0  0  0  0  0  0  0  0  0
  -25.2530  -31.5890   26.2610 C   0  0  0  0  0  1  0  0  0  0  0  0
  -26.9570  -30.4150   24.8610 C   0  0  0  0  0  1  0  0  0  0  0  0
  -27.5050  -32.6100   25.8710 C   0  0  0  0  0  1  0  0  0  0  0  0
  -25.5610  -33.9500   24.2050 N   0  0  0  0  0  0  0  0  0  0  0  0
  -25.9040  -34.9930   23.4390 C   0  0  0  0  0  0  0  0  0  0  0  0
  -26.5850  -34.8730   22.4170 O   0  0  0  0  0  0  0  0  0  0  0  0
  -24.9580  -34.1170   24.9980 H   0  0  0  0  0  0  0  0  0  0  0  0
  -24.1910  -36.7930   23.0350 C   0  0  0  0  0  1  0  0  0  0  0  0
  -25.4160  -36.3900   23.8720 C   0  0  0  0  0  3  0  0  0  0  0  0
  -27.5360  -37.2790   24.7340 C   0  0  0  0  0  1  0  0  0  0  0  0
  -26.4550  -37.4370   23.7650 N   0  0  0  0  0  0  0  0  0  0  0  0
  -26.0500  -38.3620   23.8900 H   0  0  0  0  0  0  0  0  0  0  0  0
  2 10  1  0
  2  1  2  0
  3  2  1  0
  4  1  1  0
  4 50  1  0
  5  3  2  0
  5  7  1  0
  6  5  1  0
  7  4  2  0
  8  9  1  0
  9  3  1  0
 10 11  1  0
 12 20  1  0
 13 18  1  0
 14 15  1  0
 14 13  1  0
 16 15  1  0
 16 25  1  0
 16 17  1  0
 18 12  1  0
 18 17  1  0
 19 12  2  0
 20 11  1  0
 21 20  1  0
 22 23  2  0
 23 42  1  0
 24 23  1  0
 24 27  1  0
 25 22  1  0
 25 26  1  0
 26 24  2  0
 27 28  1  0
 28 29  2  0
 30 33  1  0
 30 29  1  0
 31 30  2  0
 32 31  1  0
 32 27  2  0
 33 34  1  0
 34 35  1  0
 35 36  2  0
 37 36  1  0
 37 41  1  0
 38 37  2  0
 39 34  2  0
 39 38  1  0
 40 39  1  0
 42 43  1  0
 43 46  1  0
 43 45  1  0
 44 42  2  0
 47 48  1  0
 47 22  1  0
 49 47  1  0
 51 53  1  0
 51 50  1  0
 52 63  2  0
 53 58  1  0
 54 62  1  0
 54 64  1  0
 55 61  1  0
 55 57  1  0
 56 62  1  0
 57 58  2  0
 57 56  1  0
 59 53  2  0
 60 59  1  0
 60 55  2  0
 61 54  1  0
 62 52  1  0
 64 66  2  0
 65 64  1  0
 67 65  1  0
 68 77  2  0
 68 73  1  0
 69 65  1  0
 69 73  1  0
 70 69  1  0
 71 72  1  0
 71 70  1  0
 72 68  1  0
 73 74  2  0
 74 75  1  0
 76 75  2  0
 77 76  1  0
 78 52  1  0
 78 83  1  0
 78 79  1  0
 79 82  1  1
 79 80  1  0
 81 79  1  0
 83 86  1  0
 84 88  1  0
 84 83  1  0
 85 84  2  0
 88 87  1  0
 90 88  1  0
 90 91  1  0
 90 89  1  0
M  ISO  4  12 100  20 100  50 101  51 101
M  END
>  <TORSDO>  (48) 
F 20

>  <SCORE>  (48) 
-14.891

>  <name>  (48) 
48

>  <ligand_id>  (48) 
48

>  <original_smiles>  (48) 
[H]c1c([H])c([H])c2c(c1[H])C([H])([H])C([H])([H])C([H])([H])C2([H])N([H])C(=O)C1([H])N(C(=O)C([H])(N([H])C(=O)C([H])(N([H])C([H])([H])[H])C([H])([H])[H])C(C([H])([H])[H])(C([H])([H])[H])C([H])([H])[H])C([H])([H])c2c([H])c(OC([H])([H])c3nc(C([H])([H])[H])c(C([H])([H])C([H])([H])[H])c(C([H])([H])C([H])([H])N([H])C(=O)N4C([H])([H])C([H])([H])C([H])([H])C([H])(n5nc(-c6c([H])c([H])c(Oc7c([H])c([H])c(F)c([H])c7F)c([H])c6[H])c(C(=O)N([H])[H])c5N([H])[H])C4([H])[H])c3[H])c([H])c([H])c2C1([H])[H]

>  <smiles>  (48) 
[H]c1c([H])c([H])c2c(c1[H])C([H])([H])C([H])([H])C([H])([H])C2([H])N([H])C(=O)C1([H])N(C(=O)C([H])(N([H])C(=O)C([H])(N([H])C([H])([H])[H])C([H])([H])[H])C(C([H])([H])[H])(C([H])([H])[H])C([H])([H])[H])C([H])([H])c2c([H])c(OC([H])([H])c3nc(C([H])([H])[H])c(C([H])([H])C([H])([H])[H])c(C([H])([H])C([H])([H])N([H])C(=O)N4C([H])([H])C([H])([H])C([H])([H])C([H])(n5nc(-c6c([H])c([H])c(Oc7c([H])c([H])c(F)c([H])c7F)c([H])c6[H])c(C(=O)N([H])[H])c5N([H])[H])C4([H])[H])c3[H])c([H])c([H])c2C1([H])[H]

$$$$
49:0:0
     RDKit          3D

 97105  0  0  1  0  0  0  0  0999 V2000
  -27.7100  -20.3900   21.2590 C   0  0  0  0  0  1  0  0  0  0  0  0
  -28.9390  -21.3100   21.3520 C   0  0  0  0  0  3  0  0  0  0  0  0
  -30.2490  -20.4940   21.5970 C   0  0  0  0  0  2  0  0  0  0  0  0
  -29.9830  -18.0190   21.1330 C   0  0  0  0  0  3  0  0  0  0  0  0
  -31.0440  -17.8640   19.1250 C   0  0  0  0  0  0  0  0  0  0  0  0
  -30.4150  -17.1320   20.1880 C   0  0  0  0  0  0  0  0  0  0  0  0
  -31.1610  -19.1580   19.5910 C   0  0  0  0  0  0  0  0  0  0  0  0
  -31.9180  -20.3110   18.9990 C   0  0  0  0  0  1  0  0  0  0  0  0
  -30.4410  -19.2800   20.7810 N   0  0  0  0  0  0  0  0  0  0  0  0
  -30.9260  -14.6650   19.9230 C   0  0  0  0  0  0  0  0  0  0  0  0
  -30.6600  -12.4050   18.9700 C   0  0  0  0  0  2  0  0  0  0  0  0
  -29.6910  -12.4990   17.7730 C   0  0  0  0  0  2  0  0  0  0  0  0
  -28.2260  -12.3710   18.2430 C   0  0  0  0  0  2  0  0  0  0  0  0
  -27.9010  -13.3060   19.4400 C   0  0  0  0  0  3  0  0  0  0  0  0
  -28.9800  -13.1880   20.5390 C   0  0  0  0  0  2  0  0  0  0  0  0
  -30.2840  -13.4660   19.9180 N   0  0  0  0  0  0  0  0  0  0  0  0
  -32.0790  -14.7870   19.5000 O   0  0  0  0  0  0  0  0  0  0  0  0
  -30.1600  -15.7230   20.2830 N   0  0  0  0  0  0  0  0  0  0  0  0
  -29.2780  -15.4670   20.7030 H   0  0  0  0  0  0  0  0  0  0  0  0
  -25.5400  -13.9540   20.2280 C   0  0  0  0  0  0  0  0  0  0  0  0
  -24.4760  -13.2010   20.6440 C   0  0  0  0  0  0  0  0  0  0  0  0
  -24.9160  -11.8420   20.6090 C   0  0  0  0  0  0  0  0  0  0  0  0
  -26.5630  -13.0570   19.9700 N   0  0  0  0  0  0  0  0  0  0  0  0
  -26.1940  -11.7810   20.2590 N   0  0  0  0  0  0  0  0  0  0  0  0
  -24.1800  -10.5930   20.8390 C   0  0  0  0  0  0  0  0  0  0  0  0
  -24.5840   -9.6680   21.8260 C   0  0  0  0  0  3  0  0  0  0  0  0
  -23.8490   -8.4830   22.0410 C   0  0  0  0  0  3  0  0  0  0  0  0
  -22.6960   -8.2110   21.2660 C   0  0  0  0  0  0  0  0  0  0  0  0
  -22.3110   -9.1250   20.2690 C   0  0  0  0  0  3  0  0  0  0  0  0
  -23.0460  -10.3030   20.0540 C   0  0  0  0  0  3  0  0  0  0  0  0
  -21.9350   -7.0740   21.3840 O   0  0  0  0  0  0  0  0  0  0  0  0
  -21.7930   -6.4250   22.5840 C   0  0  0  0  0  0  0  0  0  0  0  0
  -21.2520   -7.0680   23.7190 C   0  0  0  0  0  3  0  0  0  0  0  0
  -21.0590   -6.3420   24.9120 C   0  0  0  0  0  3  0  0  0  0  0  0
  -21.4000   -4.9770   24.9690 C   0  0  0  0  0  0  0  0  0  0  0  0
  -21.9350   -4.3360   23.8390 C   0  0  0  0  0  3  0  0  0  0  0  0
  -22.1290   -5.0580   22.6490 C   0  0  0  0  0  0  0  0  0  0  0  0
  -22.6240   -4.4300   21.5540 F   0  0  0  0  0  0  0  0  0  0  0  0
  -21.2070   -4.2780   26.1120 F   0  0  0  0  0  0  0  0  0  0  0  0
  -23.0970  -13.7000   20.9610 C   0  0  0  0  0  0  0  0  0  0  0  0
  -22.3910  -13.0240   21.8610 N   0  0  0  0  0  0  0  0  0  0  0  0
  -22.6550  -14.7280   20.4490 O   0  0  0  0  0  0  0  0  0  0  0  0
  -22.7630  -12.1930   22.2960 H   0  0  0  0  0  0  0  0  0  0  0  0
  -21.4700  -13.3460   22.1220 H   0  0  0  0  0  0  0  0  0  0  0  0
  -25.7160  -15.3210   20.0280 N   0  0  0  0  0  0  0  0  0  0  0  0
  -24.9530  -15.9790   20.1410 H   0  0  0  0  0  0  0  0  0  0  0  0
  -26.5570  -15.7460   19.6600 H   0  0  0  0  0  0  0  0  0  0  0  0
  -31.2000  -18.2380   16.5760 C   0  0  0  0  0  1  0  0  0  0  0  0
  -31.5120  -17.3320   17.7800 C   0  0  0  0  0  2  0  0  0  0  0  0
  -28.9660  -22.3010   20.1490 C   0  0  0  0  0  2  0  0  0  0  0  0
  -29.7460  -23.5460   20.3960 N   0  0  0  0  0  4  0  0  0  0  0  0
  -30.3990  -23.6660   19.6400 H   0  0  0  0  0  0  0  0  0  0  0  0
  -30.2970  -23.4140   21.2290 H   0  0  0  0  0  0  0  0  0  0  0  0
  -28.9870  -24.8240   20.5620 C   0  0  0  0  0  2  0  0  0  0  0  0
  -29.4720  -25.3600   18.0690 C   0  0  0  0  0  1  0  0  0  0  0  0
  -28.4970  -25.5010   19.2480 C   0  0  0  0  0  3  0  0  0  0  0  0
  -28.3990  -26.9240   19.4640 O   0  0  0  0  0  0  0  0  0  0  0  0
  -24.6360  -31.7070   23.1330 C   0  0  0  0  0  0  0  0  0  0  0  0
  -27.1840  -27.5800   19.5640 C   0  0  0  0  0  0  0  0  0  0  0  0
  -23.3680  -30.4340   21.4320 C   0  0  0  0  0  3  0  0  0  0  0  0
  -24.7680  -29.0490   19.8150 C   0  0  0  0  0  0  0  0  0  0  0  0
  -25.8740  -30.8520   21.1440 C   0  0  0  0  0  2  0  0  0  0  0  0
  -25.9450  -29.5390   20.3900 C   0  0  0  0  0  0  0  0  0  0  0  0
  -27.1500  -28.8120   20.2630 C   0  0  0  0  0  3  0  0  0  0  0  0
  -25.9840  -27.1100   18.9770 C   0  0  0  0  0  3  0  0  0  0  0  0
  -24.7830  -27.8350   19.1070 C   0  0  0  0  0  3  0  0  0  0  0  0
  -23.5170  -29.8820   19.9900 C   0  0  0  0  0  2  0  0  0  0  0  0
  -24.6470  -31.0080   21.9620 N   0  0  0  0  0  0  0  0  0  0  0  0
  -23.5780  -31.9120   23.7450 O   0  0  0  0  0  0  0  0  0  0  0  0
  -22.7790  -29.3210   22.3290 C   0  0  0  0  0  0  0  0  0  0  0  0
  -21.4590  -29.1030   22.2200 N   0  0  0  0  0  0  0  0  0  0  0  0
  -23.5050  -28.6610   23.0780 O   0  0  0  0  0  0  0  0  0  0  0  0
  -20.9310  -29.6920   21.5910 H   0  0  0  0  0  0  0  0  0  0  0  0
  -18.1480  -27.7260   22.6660 C   0  0  0  0  0  0  0  0  0  0  0  0
  -20.6940  -28.0810   22.9360 C   0  0  0  0  0  3  0  0  0  0  0  0
  -20.8550  -26.6940   22.2700 C   0  0  0  0  0  2  0  0  0  0  0  0
  -19.7570  -26.3870   21.2460 C   0  0  0  0  0  2  0  0  0  0  0  0
  -18.3780  -26.4300   21.9060 C   0  0  0  0  0  2  0  0  0  0  0  0
  -19.2360  -28.5090   23.1350 C   0  0  0  0  0  0  0  0  0  0  0  0
  -18.9680  -29.7230   23.8050 C   0  0  0  0  0  3  0  0  0  0  0  0
  -17.6440  -30.1540   24.0110 C   0  0  0  0  0  3  0  0  0  0  0  0
  -16.5710  -29.3690   23.5570 C   0  0  0  0  0  3  0  0  0  0  0  0
  -16.8230  -28.1560   22.8900 C   0  0  0  0  0  3  0  0  0  0  0  0
  -25.9420  -32.3030   23.7460 C   0  0  0  0  0  3  0  0  0  0  0  0
  -25.6440  -33.6750   24.1750 N   0  0  0  0  0  0  0  0  0  0  0  0
  -25.9560  -34.7770   23.4810 C   0  0  0  0  0  0  0  0  0  0  0  0
  -26.6000  -34.7440   22.4290 O   0  0  0  0  0  0  0  0  0  0  0  0
  -25.0730  -33.7750   25.0040 H   0  0  0  0  0  0  0  0  0  0  0  0
  -24.2150  -36.5800   23.2880 C   0  0  0  0  0  1  0  0  0  0  0  0
  -25.4770  -36.1300   24.0410 C   0  0  0  0  0  3  0  0  0  0  0  0
  -27.6270  -36.9640   24.8810 C   0  0  0  0  0  1  0  0  0  0  0  0
  -26.5050  -37.1910   23.9740 N   0  0  0  0  0  0  0  0  0  0  0  0
  -26.1000  -38.0980   24.1940 H   0  0  0  0  0  0  0  0  0  0  0  0
  -26.5100  -31.4520   24.9470 C   0  0  1  0  0  0  0  0  0  0  0  0
  -25.4610  -31.1460   26.0420 C   0  0  0  0  0  1  0  0  0  0  0  0
  -27.0740  -30.1050   24.4400 C   0  0  0  0  0  1  0  0  0  0  0  0
  -27.6860  -32.2030   25.6150 C   0  0  0  0  0  1  0  0  0  0  0  0
  2  1  1  0
  2  3  1  0
  5  7  2  0
  5  6  1  0
  6 18  1  0
  6  4  2  0
  7  9  1  0
  8  7  1  0
  9  4  1  0
  9  3  1  0
 10 18  1  0
 11 16  1  0
 12 13  1  0
 12 11  1  0
 14 13  1  0
 14 23  1  0
 14 15  1  0
 16 10  1  0
 16 15  1  0
 17 10  2  0
 18 19  1  0
 20 21  2  0
 21 40  1  0
 22 21  1  0
 22 25  1  0
 23 20  1  0
 23 24  1  0
 24 22  2  0
 25 26  1  0
 26 27  2  0
 28 31  1  0
 28 27  1  0
 29 28  2  0
 30 29  1  0
 30 25  2  0
 31 32  1  0
 32 37  2  0
 32 33  1  0
 33 34  2  0
 34 35  1  0
 35 39  1  0
 36 35  2  0
 37 36  1  0
 38 37  1  0
 40 41  1  0
 41 44  1  0
 41 43  1  0
 42 40  2  0
 45 46  1  0
 45 20  1  0
 47 45  1  0
 48 49  1  0
 49  5  1  0
 50 51  1  0
 50  2  1  0
 51 54  1  0
 51 53  1  0
 52 51  1  0
 56 55  1  0
 56 57  1  0
 56 54  1  0
 57 59  1  0
 58 69  2  0
 59 64  1  0
 60 68  1  0
 60 70  1  0
 61 67  1  0
 61 63  1  0
 62 68  1  0
 63 62  1  0
 64 63  2  0
 65 66  1  0
 65 59  2  0
 66 61  2  0
 67 60  1  0
 68 58  1  0
 70 72  2  0
 71 70  1  0
 73 71  1  0
 74 83  2  0
 74 79  1  0
 75 71  1  0
 75 79  1  0
 76 75  1  0
 77 78  1  0
 77 76  1  0
 78 74  1  0
 79 80  2  0
 80 81  1  0
 82 81  2  0
 83 82  1  0
 84 58  1  0
 84 85  1  0
 84 94  1  0
 85 88  1  0
 86 90  1  0
 86 85  1  0
 87 86  2  0
 90 89  1  0
 92 90  1  0
 92 93  1  0
 92 91  1  0
 94 97  1  1
 94 95  1  0
 96 94  1  0
M  ISO  4  10 100  18 100  56 101  57 101
M  END
>  <TORSDO>  (49) 
F 23

>  <SCORE>  (49) 
-11.358

>  <name>  (49) 
49

>  <ligand_id>  (49) 
49

>  <original_smiles>  (49) 
[H]c1c([H])c([H])c2c(c1[H])C([H])([H])C([H])([H])C([H])([H])C2([H])N([H])C(=O)C1([H])N(C(=O)C([H])(N([H])C(=O)C([H])(N([H])C([H])([H])[H])C([H])([H])[H])C(C([H])([H])[H])(C([H])([H])[H])C([H])([H])[H])C([H])([H])c2c([H])c(OC([H])(C([H])([H])[H])C([H])([H])[N+]([H])([H])C([H])([H])C([H])(C([H])([H])[H])C([H])([H])n3c([H])c(N([H])C(=O)N4C([H])([H])C([H])([H])C([H])([H])C([H])(n5nc(-c6c([H])c([H])c(Oc7c([H])c([H])c(F)c([H])c7F)c([H])c6[H])c(C(=O)N([H])[H])c5N([H])[H])C4([H])[H])c(C([H])([H])C([H])([H])[H])c3C([H])([H])[H])c([H])c([H])c2C1([H])[H]

>  <smiles>  (49) 
[H]c1c([H])c([H])c2c(c1[H])C([H])([H])C([H])([H])C([H])([H])C2([H])N([H])C(=O)C1([H])N(C(=O)C([H])(N([H])C(=O)C([H])(N([H])C([H])([H])[H])C([H])([H])[H])C(C([H])([H])[H])(C([H])([H])[H])C([H])([H])[H])C([H])([H])c2c([H])c(OC([H])(C([H])([H])[H])C([H])([H])[N+]([H])([H])C([H])([H])C([H])(C([H])([H])[H])C([H])([H])n3c([H])c(N([H])C(=O)N4C([H])([H])C([H])([H])C([H])([H])C([H])(n5nc(-c6c([H])c([H])c(Oc7c([H])c([H])c(F)c([H])c7F)c([H])c6[H])c(C(=O)N([H])[H])c5N([H])[H])C4([H])[H])c(C([H])([H])C([H])([H])[H])c3C([H])([H])[H])c([H])c([H])c2C1([H])[H]

$$$$
50:0:0
     RDKit          3D

 92100  0  0  1  0  0  0  0  0999 V2000
  -29.0130  -23.4210   20.0910 C   0  0  0  0  0  3  0  0  0  0  0  0
  -28.7330  -21.7860   20.5040 C   0  0  0  0  0  3  0  0  0  0  0  0
  -29.6520  -20.5580   20.0770 N   0  0  0  0  0  4  0  0  0  0  0  0
  -29.7150  -20.5590   19.0730 H   0  0  0  0  0  0  0  0  0  0  0  0
  -30.5770  -20.7980   20.4040 H   0  0  0  0  0  0  0  0  0  0  0  0
  -30.5400  -15.0990   20.2470 C   0  0  0  0  0  0  0  0  0  0  0  0
  -30.3610  -12.7350   19.3180 C   0  0  0  0  0  2  0  0  0  0  0  0
  -29.4340  -12.6410   18.0880 C   0  0  0  0  0  2  0  0  0  0  0  0
  -27.9790  -12.3990   18.5260 C   0  0  0  0  0  2  0  0  0  0  0  0
  -27.5560  -13.3400   19.6790 C   0  0  0  0  0  3  0  0  0  0  0  0
  -28.6160  -13.4410   20.8000 C   0  0  0  0  0  2  0  0  0  0  0  0
  -29.8740  -13.8650   20.1680 N   0  0  0  0  0  0  0  0  0  0  0  0
  -31.7610  -15.0540   20.0520 O   0  0  0  0  0  0  0  0  0  0  0  0
  -28.2310  -18.2790   19.9590 C   0  0  0  0  0  2  0  0  0  0  0  0
  -28.4640  -16.7360   20.2010 C   0  0  0  0  0  2  0  0  0  0  0  0
  -30.5150  -17.8250   20.2910 C   0  0  0  0  0  2  0  0  0  0  0  0
  -29.4310  -19.0420   20.5280 C   0  0  0  0  0  3  0  0  0  0  0  0
  -29.8990  -16.3960   20.3210 N   0  0  0  0  0  0  0  0  0  0  0  0
  -25.1840  -13.9480   20.4190 C   0  0  0  0  0  0  0  0  0  0  0  0
  -24.1170  -13.1840   20.7950 C   0  0  0  0  0  0  0  0  0  0  0  0
  -24.5750  -11.8310   20.7830 C   0  0  0  0  0  0  0  0  0  0  0  0
  -26.2230  -13.0590   20.1900 N   0  0  0  0  0  0  0  0  0  0  0  0
  -25.8660  -11.7820   20.4760 N   0  0  0  0  0  0  0  0  0  0  0  0
  -23.8440  -10.5740   20.9840 C   0  0  0  0  0  0  0  0  0  0  0  0
  -24.2650   -9.6190   21.9360 C   0  0  0  0  0  3  0  0  0  0  0  0
  -23.5330   -8.4280   22.1230 C   0  0  0  0  0  3  0  0  0  0  0  0
  -22.3670   -8.1840   21.3600 C   0  0  0  0  0  0  0  0  0  0  0  0
  -21.9670   -9.1250   20.3950 C   0  0  0  0  0  3  0  0  0  0  0  0
  -22.6990  -10.3090   20.2050 C   0  0  0  0  0  3  0  0  0  0  0  0
  -21.6070   -7.0420   21.4570 O   0  0  0  0  0  0  0  0  0  0  0  0
  -21.5440   -6.3170   22.6190 C   0  0  0  0  0  0  0  0  0  0  0  0
  -21.1010   -6.8880   23.8330 C   0  0  0  0  0  3  0  0  0  0  0  0
  -20.9900   -6.0900   24.9880 C   0  0  0  0  0  3  0  0  0  0  0  0
  -21.3060   -4.7190   24.9300 C   0  0  0  0  0  0  0  0  0  0  0  0
  -21.7420   -4.1460   23.7210 C   0  0  0  0  0  3  0  0  0  0  0  0
  -21.8580   -4.9430   22.5680 C   0  0  0  0  0  0  0  0  0  0  0  0
  -22.2590   -4.3830   21.4020 F   0  0  0  0  0  0  0  0  0  0  0  0
  -21.1910   -3.9490   26.0360 F   0  0  0  0  0  0  0  0  0  0  0  0
  -22.7200  -13.6680   21.0500 C   0  0  0  0  0  0  0  0  0  0  0  0
  -21.9830  -12.9860   21.9190 N   0  0  0  0  0  0  0  0  0  0  0  0
  -22.2880  -14.6880   20.5110 O   0  0  0  0  0  0  0  0  0  0  0  0
  -22.3460  -12.1650   22.3820 H   0  0  0  0  0  0  0  0  0  0  0  0
  -21.0410  -13.2850   22.1240 H   0  0  0  0  0  0  0  0  0  0  0  0
  -25.3580  -15.3160   20.2230 N   0  0  0  0  0  0  0  0  0  0  0  0
  -24.5990  -15.9800   20.3150 H   0  0  0  0  0  0  0  0  0  0  0  0
  -26.2120  -15.7340   19.8820 H   0  0  0  0  0  0  0  0  0  0  0  0
  -28.2800  -24.8270   20.7390 C   0  0  0  0  0  3  0  0  0  0  0  0
  -28.8100  -23.8330   23.0910 C   0  0  0  0  0  1  0  0  0  0  0  0
  -30.2430  -25.6710   22.1670 C   0  0  0  0  0  1  0  0  0  0  0  0
  -27.9380  -26.1290   22.9720 C   0  0  0  0  0  1  0  0  0  0  0  0
  -28.8080  -25.1010   22.2090 C   0  0  1  0  0  0  0  0  0  0  0  0
  -28.3390  -26.2520   20.0890 O   0  0  0  0  0  0  0  0  0  0  0  0
  -24.5250  -31.8200   23.0760 C   0  0  0  0  0  0  0  0  0  0  0  0
  -27.2350  -27.1850   20.0580 C   0  0  0  0  0  0  0  0  0  0  0  0
  -23.3610  -30.3890   21.4380 C   0  0  0  0  0  3  0  0  0  0  0  0
  -24.8510  -28.8490   20.0140 C   0  0  0  0  0  0  0  0  0  0  0  0
  -25.9040  -30.7340   21.2600 C   0  0  0  0  0  2  0  0  0  0  0  0
  -26.0160  -29.3420   20.6140 C   0  0  0  0  0  0  0  0  0  0  0  0
  -27.2110  -28.5310   20.6040 C   0  0  0  0  0  3  0  0  0  0  0  0
  -26.0400  -26.7840   19.4260 C   0  0  0  0  0  3  0  0  0  0  0  0
  -24.8750  -27.5840   19.4030 C   0  0  0  0  0  3  0  0  0  0  0  0
  -23.5990  -29.7130   20.0610 C   0  0  0  0  0  2  0  0  0  0  0  0
  -24.6170  -31.0050   21.9800 N   0  0  0  0  0  0  0  0  0  0  0  0
  -23.4330  -32.0720   23.6050 O   0  0  0  0  0  0  0  0  0  0  0  0
  -22.7120  -29.3660   22.4020 C   0  0  0  0  0  0  0  0  0  0  0  0
  -21.3900  -29.1570   22.2710 N   0  0  0  0  0  0  0  0  0  0  0  0
  -23.4000  -28.7620   23.2290 O   0  0  0  0  0  0  0  0  0  0  0  0
  -20.8910  -29.6990   21.5800 H   0  0  0  0  0  0  0  0  0  0  0  0
  -18.0460  -27.8400   22.7420 C   0  0  0  0  0  0  0  0  0  0  0  0
  -20.5920  -28.1980   23.0390 C   0  0  0  0  0  3  0  0  0  0  0  0
  -20.7520  -26.7640   22.4790 C   0  0  0  0  0  2  0  0  0  0  0  0
  -19.6740  -26.3940   21.4540 C   0  0  0  0  0  2  0  0  0  0  0  0
  -18.2800  -26.4940   22.0780 C   0  0  0  0  0  2  0  0  0  0  0  0
  -19.1310  -28.6470   23.1790 C   0  0  0  0  0  0  0  0  0  0  0  0
  -18.8570  -29.9040   23.7590 C   0  0  0  0  0  3  0  0  0  0  0  0
  -17.5330  -30.3570   23.9080 C   0  0  0  0  0  3  0  0  0  0  0  0
  -16.4630  -29.5470   23.4870 C   0  0  0  0  0  3  0  0  0  0  0  0
  -16.7210  -28.2910   22.9100 C   0  0  0  0  0  3  0  0  0  0  0  0
  -25.7840  -32.4890   23.7040 C   0  0  0  0  0  3  0  0  0  0  0  0
  -26.3320  -31.7150   24.9660 C   0  0  1  0  0  0  0  0  0  0  0  0
  -25.2540  -31.4300   26.0380 C   0  0  0  0  0  1  0  0  0  0  0  0
  -26.9530  -30.3620   24.5490 C   0  0  0  0  0  1  0  0  0  0  0  0
  -27.4630  -32.5360   25.6310 C   0  0  0  0  0  1  0  0  0  0  0  0
  -25.4270  -33.8710   24.0640 N   0  0  0  0  0  0  0  0  0  0  0  0
  -25.7390  -34.9540   23.3410 C   0  0  0  0  0  0  0  0  0  0  0  0
  -26.4250  -34.8980   22.3160 O   0  0  0  0  0  0  0  0  0  0  0  0
  -24.8190  -33.9850   24.8630 H   0  0  0  0  0  0  0  0  0  0  0  0
  -23.9760  -36.7200   23.0050 C   0  0  0  0  0  1  0  0  0  0  0  0
  -25.2090  -36.3170   23.8310 C   0  0  0  0  0  3  0  0  0  0  0  0
  -27.3040  -37.2240   24.7380 C   0  0  0  0  0  1  0  0  0  0  0  0
  -26.2190  -37.3970   23.7750 N   0  0  0  0  0  0  0  0  0  0  0  0
  -25.7900  -38.3020   23.9410 H   0  0  0  0  0  0  0  0  0  0  0  0
  1  2  2  0
  3  5  1  0
  3  2  1  0
  4  3  1  0
  6 18  1  0
  7 12  1  0
  8  9  1  0
  8  7  1  0
 10  9  1  0
 10 22  1  0
 10 11  1  0
 12  6  1  0
 12 11  1  0
 13  6  2  0
 14 15  1  0
 14 17  1  0
 15 18  1  0
 16 18  1  0
 16 17  1  0
 17  3  1  0
 19 20  2  0
 20 39  1  0
 21 20  1  0
 21 24  1  0
 22 19  1  0
 22 23  1  0
 23 21  2  0
 24 25  1  0
 25 26  2  0
 27 30  1  0
 27 26  1  0
 28 27  2  0
 29 28  1  0
 29 24  2  0
 30 31  1  0
 31 32  1  0
 32 33  2  0
 34 33  1  0
 34 38  1  0
 35 34  2  0
 36 31  2  0
 36 35  1  0
 37 36  1  0
 39 40  1  0
 40 43  1  0
 40 42  1  0
 41 39  2  0
 44 45  1  0
 44 19  1  0
 46 44  1  0
 47  1  1  0
 47 51  1  0
 51 49  1  6
 51 50  1  0
 51 48  1  0
 52 47  1  0
 53 64  2  0
 54 52  1  0
 54 59  1  0
 55 63  1  0
 55 65  1  0
 56 62  1  0
 56 58  1  0
 57 63  1  0
 58 57  1  0
 59 58  2  0
 60 54  2  0
 61 60  1  0
 61 56  2  0
 62 55  1  0
 63 53  1  0
 65 67  2  0
 66 65  1  0
 68 66  1  0
 69 78  2  0
 69 74  1  0
 70 66  1  0
 70 74  1  0
 71 70  1  0
 72 73  1  0
 72 71  1  0
 73 69  1  0
 74 75  2  0
 75 76  1  0
 77 76  2  0
 78 77  1  0
 79 53  1  0
 79 84  1  0
 79 80  1  0
 80 83  1  1
 80 81  1  0
 82 80  1  0
 84 87  1  0
 85 89  1  0
 85 84  1  0
 86 85  2  0
 89 88  1  0
 91 89  1  0
 91 92  1  0
 91 90  1  0
M  ISO  4   6 100  18 100  47 101  52 101
M  END
>  <TORSDO>  (50) 
F 20

>  <SCORE>  (50) 
-14.472

>  <name>  (50) 
50

>  <ligand_id>  (50) 
50

>  <original_smiles>  (50) 
[H]c1c([H])c([H])c2c(c1[H])C([H])([H])C([H])([H])C([H])([H])C2([H])N([H])C(=O)C1([H])N(C(=O)C([H])(N([H])C(=O)C([H])(N([H])C([H])([H])[H])C([H])([H])[H])C(C([H])([H])[H])(C([H])([H])[H])C([H])([H])[H])C([H])([H])c2c([H])c(OC([H])(C([H])([H])C([H])([H])[N+]([H])([H])C3([H])C([H])([H])N(C(=O)N4C([H])([H])C([H])([H])C([H])([H])C([H])(n5nc(-c6c([H])c([H])c(Oc7c([H])c([H])c(F)c([H])c7F)c([H])c6[H])c(C(=O)N([H])[H])c5N([H])[H])C4([H])[H])C([H])([H])C3([H])[H])C(C([H])([H])[H])(C([H])([H])[H])C([H])([H])[H])c([H])c([H])c2C1([H])[H]

>  <smiles>  (50) 
[H]c1c([H])c([H])c2c(c1[H])C([H])([H])C([H])([H])C([H])([H])C2([H])N([H])C(=O)C1([H])N(C(=O)C([H])(N([H])C(=O)C([H])(N([H])C([H])([H])[H])C([H])([H])[H])C(C([H])([H])[H])(C([H])([H])[H])C([H])([H])[H])C([H])([H])c2c([H])c(OC([H])(C([H])([H])C([H])([H])[N+]([H])([H])C3([H])C([H])([H])N(C(=O)N4C([H])([H])C([H])([H])C([H])([H])C([H])(n5nc(-c6c([H])c([H])c(Oc7c([H])c([H])c(F)c([H])c7F)c([H])c6[H])c(C(=O)N([H])[H])c5N([H])[H])C4([H])[H])C([H])([H])C3([H])[H])C(C([H])([H])[H])(C([H])([H])[H])C([H])([H])[H])c([H])c([H])c2C1([H])[H]

$$$$
51:0:0
     RDKit          3D

 93101  0  0  1  0  0  0  0  0999 V2000
  -29.0200  -21.7350   19.5220 C   0  0  0  0  0  2  0  0  0  0  0  0
  -29.6780  -20.2970   19.5700 C   0  0  0  0  0  2  0  0  0  0  0  0
  -30.1580  -20.6560   21.8950 C   0  0  0  0  0  2  0  0  0  0  0  0
  -29.5380  -22.1000   21.8390 C   0  0  0  0  0  3  0  0  0  0  0  0
  -30.2680  -22.9660   22.8880 C   0  0  0  0  0  1  0  0  0  0  0  0
  -29.6310  -22.6890   20.4790 N   0  0  0  0  0  0  0  0  0  0  0  0
  -29.5840  -19.6760   20.9230 N   0  0  2  0  0  4  0  0  0  0  0  0
  -28.5990  -19.6230   21.1290 H   0  0  0  0  0  0  0  0  0  0  0  0
  -30.2220  -24.5050   18.9240 C   0  0  0  0  0  1  0  0  0  0  0  0
  -29.5170  -24.1910   20.2560 C   0  0  0  0  0  3  0  0  0  0  0  0
  -27.3850  -24.7290   21.6390 C   0  0  0  0  0  1  0  0  0  0  0  0
  -28.1400  -25.0010   20.3240 C   0  0  0  0  0  3  0  0  0  0  0  0
  -28.3080  -26.4750   20.1990 O   0  0  0  0  0  0  0  0  0  0  0  0
  -24.5760  -31.8650   23.1980 C   0  0  0  0  0  0  0  0  0  0  0  0
  -27.1780  -27.3090   20.1420 C   0  0  0  0  0  0  0  0  0  0  0  0
  -23.3650  -30.4630   21.5670 C   0  0  0  0  0  3  0  0  0  0  0  0
  -24.8090  -28.9110   20.1390 C   0  0  0  0  0  0  0  0  0  0  0  0
  -25.9030  -30.7820   21.3710 C   0  0  0  0  0  2  0  0  0  0  0  0
  -25.9790  -29.4040   20.7270 C   0  0  0  0  0  0  0  0  0  0  0  0
  -27.1670  -28.6160   20.7150 C   0  0  0  0  0  3  0  0  0  0  0  0
  -25.9840  -26.8660   19.5270 C   0  0  0  0  0  3  0  0  0  0  0  0
  -24.8120  -27.6470   19.5300 C   0  0  0  0  0  3  0  0  0  0  0  0
  -23.5710  -29.7840   20.1880 C   0  0  0  0  0  2  0  0  0  0  0  0
  -24.6340  -31.0530   22.1030 N   0  0  0  0  0  0  0  0  0  0  0  0
  -23.4940  -32.1460   23.7370 O   0  0  0  0  0  0  0  0  0  0  0  0
  -22.7040  -29.4490   22.5320 C   0  0  0  0  0  0  0  0  0  0  0  0
  -21.3760  -29.2830   22.4180 N   0  0  0  0  0  0  0  0  0  0  0  0
  -23.3860  -28.8170   23.3440 O   0  0  0  0  0  0  0  0  0  0  0  0
  -20.8860  -29.8440   21.7350 H   0  0  0  0  0  0  0  0  0  0  0  0
  -17.9920  -28.1270   22.9540 C   0  0  0  0  0  0  0  0  0  0  0  0
  -20.5550  -28.3540   23.1960 C   0  0  0  0  0  3  0  0  0  0  0  0
  -20.6340  -26.9230   22.6150 C   0  0  0  0  0  2  0  0  0  0  0  0
  -19.5170  -26.6170   21.6130 C   0  0  0  0  0  2  0  0  0  0  0  0
  -18.1440  -26.7770   22.2730 C   0  0  0  0  0  2  0  0  0  0  0  0
  -19.1240  -28.8740   23.3740 C   0  0  0  0  0  0  0  0  0  0  0  0
  -18.9270  -30.1380   23.9720 C   0  0  0  0  0  3  0  0  0  0  0  0
  -17.6300  -30.6540   24.1540 C   0  0  0  0  0  3  0  0  0  0  0  0
  -16.5120  -29.9030   23.7500 C   0  0  0  0  0  3  0  0  0  0  0  0
  -16.6930  -28.6420   23.1570 C   0  0  0  0  0  3  0  0  0  0  0  0
  -25.8620  -32.4960   23.8150 C   0  0  0  0  0  3  0  0  0  0  0  0
  -26.3920  -31.7180   25.0810 C   0  0  1  0  0  0  0  0  0  0  0  0
  -25.3080  -31.4730   26.1580 C   0  0  0  0  0  1  0  0  0  0  0  0
  -26.9740  -30.3440   24.6760 C   0  0  0  0  0  1  0  0  0  0  0  0
  -27.5470  -32.5100   25.7370 C   0  0  0  0  0  1  0  0  0  0  0  0
  -25.5500  -33.8910   24.1570 N   0  0  0  0  0  0  0  0  0  0  0  0
  -25.8770  -34.9510   23.4070 C   0  0  0  0  0  0  0  0  0  0  0  0
  -26.5420  -34.8590   22.3710 O   0  0  0  0  0  0  0  0  0  0  0  0
  -24.9560  -34.0370   24.9600 H   0  0  0  0  0  0  0  0  0  0  0  0
  -24.1440  -36.7450   23.0770 C   0  0  0  0  0  1  0  0  0  0  0  0
  -25.3890  -36.3350   23.8790 C   0  0  0  0  0  3  0  0  0  0  0  0
  -27.5280  -37.2150   24.7070 C   0  0  0  0  0  1  0  0  0  0  0  0
  -26.4200  -37.3910   23.7710 N   0  0  0  0  0  0  0  0  0  0  0  0
  -26.0140  -38.3090   23.9310 H   0  0  0  0  0  0  0  0  0  0  0  0
  -30.1400  -18.2660   21.1520 C   0  0  0  0  0  2  0  0  0  0  0  0
  -29.7000  -17.0710   20.2090 C   0  0  0  0  0  2  0  0  0  0  0  0
  -30.5760  -14.6120   20.4030 C   0  0  0  0  0  0  0  0  0  0  0  0
  -30.3650  -12.3710   19.3600 C   0  0  0  0  0  2  0  0  0  0  0  0
  -29.4230  -12.5090   18.1410 C   0  0  0  0  0  2  0  0  0  0  0  0
  -27.9490  -12.3580   18.5660 C   0  0  0  0  0  2  0  0  0  0  0  0
  -27.5940  -13.2210   19.8060 C   0  0  0  0  0  3  0  0  0  0  0  0
  -28.6490  -13.0550   20.9250 C   0  0  0  0  0  2  0  0  0  0  0  0
  -29.9650  -13.3860   20.3560 N   0  0  0  0  0  0  0  0  0  0  0  0
  -31.7130  -14.7880   19.9560 O   0  0  0  0  0  0  0  0  0  0  0  0
  -29.7750  -15.6620   20.7510 N   0  0  0  0  0  0  0  0  0  0  0  0
  -28.9220  -15.3580   21.1980 H   0  0  0  0  0  0  0  0  0  0  0  0
  -25.1970  -13.8370   20.5080 C   0  0  0  0  0  0  0  0  0  0  0  0
  -24.1260  -13.0710   20.8800 C   0  0  0  0  0  0  0  0  0  0  0  0
  -24.5820  -11.7180   20.8590 C   0  0  0  0  0  0  0  0  0  0  0  0
  -26.2400  -12.9500   20.2850 N   0  0  0  0  0  0  0  0  0  0  0  0
  -25.8730  -11.6720   20.5530 N   0  0  0  0  0  0  0  0  0  0  0  0
  -23.8520  -10.4590   21.0530 C   0  0  0  0  0  0  0  0  0  0  0  0
  -24.2900   -9.4860   21.9780 C   0  0  0  0  0  3  0  0  0  0  0  0
  -23.5590   -8.2930   22.1630 C   0  0  0  0  0  3  0  0  0  0  0  0
  -22.3750   -8.0630   21.4210 C   0  0  0  0  0  0  0  0  0  0  0  0
  -21.9550   -9.0250   20.4860 C   0  0  0  0  0  3  0  0  0  0  0  0
  -22.6870  -10.2090   20.2990 C   0  0  0  0  0  3  0  0  0  0  0  0
  -21.6170   -6.9220   21.5130 O   0  0  0  0  0  0  0  0  0  0  0  0
  -21.5910   -6.1650   22.6580 C   0  0  0  0  0  0  0  0  0  0  0  0
  -21.2090   -6.7100   23.9020 C   0  0  0  0  0  3  0  0  0  0  0  0
  -21.1280   -5.8810   25.0390 C   0  0  0  0  0  3  0  0  0  0  0  0
  -21.4190   -4.5080   24.9330 C   0  0  0  0  0  0  0  0  0  0  0  0
  -21.7950   -3.9620   23.6930 C   0  0  0  0  0  3  0  0  0  0  0  0
  -21.8770   -4.7880   22.5570 C   0  0  0  0  0  0  0  0  0  0  0  0
  -22.2190   -4.2530   21.3610 F   0  0  0  0  0  0  0  0  0  0  0  0
  -21.3350   -3.7100   26.0220 F   0  0  0  0  0  0  0  0  0  0  0  0
  -22.7290  -13.5560   21.1460 C   0  0  0  0  0  0  0  0  0  0  0  0
  -21.9970  -12.8680   22.0150 N   0  0  0  0  0  0  0  0  0  0  0  0
  -22.2970  -14.5790   20.6180 O   0  0  0  0  0  0  0  0  0  0  0  0
  -22.3610  -12.0430   22.4680 H   0  0  0  0  0  0  0  0  0  0  0  0
  -21.0600  -13.1760   22.2350 H   0  0  0  0  0  0  0  0  0  0  0  0
  -25.3680  -15.2060   20.3210 N   0  0  0  0  0  0  0  0  0  0  0  0
  -24.6000  -15.8620   20.4140 H   0  0  0  0  0  0  0  0  0  0  0  0
  -26.2100  -15.6330   19.9570 H   0  0  0  0  0  0  0  0  0  0  0  0
  1  2  1  0
  1  6  1  0
  2  7  1  0
  4  3  1  0
  4  5  1  0
  6  4  1  0
  7  8  1  1
  7 54  1  0
  7  3  1  0
 10  9  1  0
 10 12  1  0
 10  6  1  0
 12 11  1  0
 13 12  1  0
 14 25  2  0
 15 13  1  0
 15 20  1  0
 16 24  1  0
 16 26  1  0
 17 23  1  0
 17 19  1  0
 18 24  1  0
 19 18  1  0
 20 19  2  0
 21 22  1  0
 21 15  2  0
 22 17  2  0
 23 16  1  0
 24 14  1  0
 26 28  2  0
 27 26  1  0
 29 27  1  0
 30 39  2  0
 30 35  1  0
 31 27  1  0
 31 35  1  0
 32 31  1  0
 33 34  1  0
 33 32  1  0
 34 30  1  0
 35 36  2  0
 36 37  1  0
 38 37  2  0
 39 38  1  0
 40 14  1  0
 40 45  1  0
 40 41  1  0
 41 44  1  1
 41 42  1  0
 43 41  1  0
 45 48  1  0
 46 50  1  0
 46 45  1  0
 47 46  2  0
 50 49  1  0
 52 50  1  0
 52 53  1  0
 52 51  1  0
 55 64  1  0
 55 54  1  0
 56 64  1  0
 57 62  1  0
 58 59  1  0
 58 57  1  0
 60 59  1  0
 60 69  1  0
 60 61  1  0
 62 56  1  0
 62 61  1  0
 63 56  2  0
 64 65  1  0
 66 67  2  0
 67 86  1  0
 68 67  1  0
 68 71  1  0
 69 66  1  0
 69 70  1  0
 70 68  2  0
 71 72  1  0
 72 73  2  0
 74 77  1  0
 74 73  1  0
 75 74  2  0
 76 75  1  0
 76 71  2  0
 77 78  1  0
 78 79  1  0
 79 80  2  0
 81 80  1  0
 81 85  1  0
 82 81  2  0
 83 78  2  0
 83 82  1  0
 84 83  1  0
 86 87  1  0
 87 90  1  0
 87 89  1  0
 88 86  2  0
 91 92  1  0
 91 66  1  0
 93 91  1  0
M  ISO  4  12 101  13 101  56 100  64 100
M  END
>  <TORSDO>  (51) 
F 20

>  <SCORE>  (51) 
-13.986

>  <name>  (51) 
51

>  <ligand_id>  (51) 
51

>  <original_smiles>  (51) 
[H]c1c([H])c([H])c2c(c1[H])C([H])([H])C([H])([H])C([H])([H])C2([H])N([H])C(=O)C1([H])N(C(=O)C([H])(N([H])C(=O)C([H])(N([H])C([H])([H])[H])C([H])([H])[H])C(C([H])([H])[H])(C([H])([H])[H])C([H])([H])[H])C([H])([H])c2c([H])c(OC([H])(C([H])([H])[H])C([H])(N3C([H])([H])C([H])([H])[N+]([H])(C([H])([H])C([H])([H])N([H])C(=O)N4C([H])([H])C([H])([H])C([H])([H])C([H])(n5nc(-c6c([H])c([H])c(Oc7c([H])c([H])c(F)c([H])c7F)c([H])c6[H])c(C(=O)N([H])[H])c5N([H])[H])C4([H])[H])C([H])([H])C3([H])C([H])([H])[H])C([H])([H])[H])c([H])c([H])c2C1([H])[H]

>  <smiles>  (51) 
[H]c1c([H])c([H])c2c(c1[H])C([H])([H])C([H])([H])C([H])([H])C2([H])N([H])C(=O)C1([H])N(C(=O)C([H])(N([H])C(=O)C([H])(N([H])C([H])([H])[H])C([H])([H])[H])C(C([H])([H])[H])(C([H])([H])[H])C([H])([H])[H])C([H])([H])c2c([H])c(OC([H])(C([H])([H])[H])C([H])(N3C([H])([H])C([H])([H])[N+]([H])(C([H])([H])C([H])([H])N([H])C(=O)N4C([H])([H])C([H])([H])C([H])([H])C([H])(n5nc(-c6c([H])c([H])c(Oc7c([H])c([H])c(F)c([H])c7F)c([H])c6[H])c(C(=O)N([H])[H])c5N([H])[H])C4([H])[H])C([H])([H])C3([H])C([H])([H])[H])C([H])([H])[H])c([H])c([H])c2C1([H])[H]

$$$$
52:0:0
     RDKit          3D

 98107  0  0  1  0  0  0  0  0999 V2000
  -29.2340  -22.1350   21.6480 C   0  0  0  0  0  3  0  0  0  0  0  0
  -28.3000  -23.6230   20.0020 C   0  0  0  0  0  3  0  0  0  0  0  0
  -28.9900  -21.0450   20.7840 C   0  0  0  0  0  0  0  0  0  0  0  0
  -28.9210  -23.4460   21.2460 C   0  0  0  0  0  0  0  0  0  0  0  0
  -28.4800  -21.3560   19.4870 C   0  0  0  0  0  0  0  0  0  0  0  0
  -28.4350  -20.3930   18.3040 C   0  0  0  0  0  1  0  0  0  0  0  0
  -28.1040  -22.6090   19.1400 N   0  0  0  0  0  0  0  0  0  0  0  0
  -29.4170  -19.6740   21.2520 C   0  0  0  0  0  0  0  0  0  0  0  0
  -28.6830  -18.6130   20.8870 N   0  0  0  0  0  0  0  0  0  0  0  0
  -30.4230  -19.5540   21.9560 O   0  0  0  0  0  0  0  0  0  0  0  0
  -27.7870  -18.7850   20.4490 H   0  0  0  0  0  0  0  0  0  0  0  0
  -29.1150  -17.2090   20.9530 C   0  0  0  0  0  2  0  0  0  0  0  0
  -31.0710  -14.5280   20.1250 C   0  0  0  0  0  0  0  0  0  0  0  0
  -30.7270  -12.3100   19.1960 C   0  0  0  0  0  2  0  0  0  0  0  0
  -29.7810  -12.4150   17.9780 C   0  0  0  0  0  2  0  0  0  0  0  0
  -28.3030  -12.3740   18.4040 C   0  0  0  0  0  2  0  0  0  0  0  0
  -27.9690  -13.2920   19.6150 C   0  0  0  0  0  3  0  0  0  0  0  0
  -29.0330  -13.1890   20.7330 C   0  0  0  0  0  2  0  0  0  0  0  0
  -30.3570  -13.3790   20.1250 N   0  0  0  0  0  0  0  0  0  0  0  0
  -32.3000  -14.5720   20.0490 O   0  0  0  0  0  0  0  0  0  0  0  0
  -31.4500  -17.0320   17.9660 C   0  0  0  0  0  2  0  0  0  0  0  0
  -30.7840  -17.8600   19.0270 C   0  0  0  0  0  2  0  0  0  0  0  0
  -30.6970  -15.7250   18.1130 C   0  0  0  0  0  2  0  0  0  0  0  0
  -30.4310  -16.8910   20.1720 C   0  0  0  0  0  3  0  0  0  0  0  0
  -30.4010  -15.5520   19.5550 N   0  0  0  0  0  0  0  0  0  0  0  0
  -25.5830  -13.9270   20.3340 C   0  0  0  0  0  0  0  0  0  0  0  0
  -24.5100  -13.1700   20.7130 C   0  0  0  0  0  0  0  0  0  0  0  0
  -24.9570  -11.8130   20.6950 C   0  0  0  0  0  0  0  0  0  0  0  0
  -26.6200  -13.0360   20.1150 N   0  0  0  0  0  0  0  0  0  0  0  0
  -26.2490  -11.7600   20.3960 N   0  0  0  0  0  0  0  0  0  0  0  0
  -24.2200  -10.5580   20.8910 C   0  0  0  0  0  0  0  0  0  0  0  0
  -24.5980   -9.6240   21.8800 C   0  0  0  0  0  3  0  0  0  0  0  0
  -23.8600   -8.4350   22.0630 C   0  0  0  0  0  3  0  0  0  0  0  0
  -22.7280   -8.1690   21.2550 C   0  0  0  0  0  0  0  0  0  0  0  0
  -22.3700   -9.0920   20.2560 C   0  0  0  0  0  3  0  0  0  0  0  0
  -23.1100  -10.2720   20.0720 C   0  0  0  0  0  3  0  0  0  0  0  0
  -21.9670   -7.0280   21.3440 O   0  0  0  0  0  0  0  0  0  0  0  0
  -21.7850   -6.3770   22.5380 C   0  0  0  0  0  0  0  0  0  0  0  0
  -21.2100   -7.0180   23.6570 C   0  0  0  0  0  3  0  0  0  0  0  0
  -20.9770   -6.2910   24.8420 C   0  0  0  0  0  3  0  0  0  0  0  0
  -21.3090   -4.9250   24.9070 C   0  0  0  0  0  0  0  0  0  0  0  0
  -21.8750   -4.2840   23.7920 C   0  0  0  0  0  3  0  0  0  0  0  0
  -22.1090   -5.0070   22.6100 C   0  0  0  0  0  0  0  0  0  0  0  0
  -22.6370   -4.3790   21.5310 F   0  0  0  0  0  0  0  0  0  0  0  0
  -21.0790   -4.2260   26.0420 F   0  0  0  0  0  0  0  0  0  0  0  0
  -23.1160  -13.6620   20.9850 C   0  0  0  0  0  0  0  0  0  0  0  0
  -22.3940  -12.9900   21.8730 N   0  0  0  0  0  0  0  0  0  0  0  0
  -22.6820  -14.6810   20.4490 O   0  0  0  0  0  0  0  0  0  0  0  0
  -22.7660  -12.1690   22.3290 H   0  0  0  0  0  0  0  0  0  0  0  0
  -21.4640  -13.3010   22.1090 H   0  0  0  0  0  0  0  0  0  0  0  0
  -25.7670  -15.2920   20.1300 N   0  0  0  0  0  0  0  0  0  0  0  0
  -25.0170  -15.9710   20.2090 H   0  0  0  0  0  0  0  0  0  0  0  0
  -26.6150  -15.6820   19.7400 H   0  0  0  0  0  0  0  0  0  0  0  0
  -29.2740  -24.6270   22.1390 C   0  0  0  0  0  2  0  0  0  0  0  0
  -30.2390  -25.6390   21.4830 C   0  0  0  0  0  2  0  0  0  0  0  0
  -30.7010  -28.0160   20.7450 C   0  0  0  0  0  1  0  0  0  0  0  0
  -29.6250  -27.0240   21.2060 C   0  0  0  0  0  3  0  0  0  0  0  0
  -28.6590  -26.8730   20.1730 O   0  0  0  0  0  0  0  0  0  0  0  0
  -24.6790  -31.9590   23.2350 C   0  0  0  0  0  0  0  0  0  0  0  0
  -27.5080  -27.6270   20.2150 C   0  0  0  0  0  0  0  0  0  0  0  0
  -23.5400  -30.5310   21.5660 C   0  0  0  0  0  3  0  0  0  0  0  0
  -25.0620  -29.0420   20.1700 C   0  0  0  0  0  0  0  0  0  0  0  0
  -26.0560  -30.9720   21.4190 C   0  0  0  0  0  2  0  0  0  0  0  0
  -26.1890  -29.6060   20.7820 C   0  0  0  0  0  0  0  0  0  0  0  0
  -27.4090  -28.9060   20.8130 C   0  0  0  0  0  3  0  0  0  0  0  0
  -26.3680  -27.0740   19.6020 C   0  0  0  0  0  3  0  0  0  0  0  0
  -25.1440  -27.7690   19.5820 C   0  0  0  0  0  3  0  0  0  0  0  0
  -23.7940  -29.8620   20.1880 C   0  0  0  0  0  2  0  0  0  0  0  0
  -24.7760  -31.1680   22.1300 N   0  0  0  0  0  0  0  0  0  0  0  0
  -23.5810  -32.2030   23.7540 O   0  0  0  0  0  0  0  0  0  0  0  0
  -22.8990  -29.4900   22.5080 C   0  0  0  0  0  0  0  0  0  0  0  0
  -21.5770  -29.3030   22.3680 N   0  0  0  0  0  0  0  0  0  0  0  0
  -23.5840  -28.8570   23.3140 O   0  0  0  0  0  0  0  0  0  0  0  0
  -21.0970  -29.8610   21.6780 H   0  0  0  0  0  0  0  0  0  0  0  0
  -18.1960  -28.1290   22.8670 C   0  0  0  0  0  0  0  0  0  0  0  0
  -20.7600  -28.3530   23.1180 C   0  0  0  0  0  3  0  0  0  0  0  0
  -20.8400  -26.9400   22.4990 C   0  0  0  0  0  2  0  0  0  0  0  0
  -19.7230  -26.6530   21.4880 C   0  0  0  0  0  2  0  0  0  0  0  0
  -18.3500  -26.7960   22.1520 C   0  0  0  0  0  2  0  0  0  0  0  0
  -19.3290  -28.8660   23.3060 C   0  0  0  0  0  0  0  0  0  0  0  0
  -19.1320  -30.1130   23.9380 C   0  0  0  0  0  3  0  0  0  0  0  0
  -17.8380  -30.6270   24.1330 C   0  0  0  0  0  3  0  0  0  0  0  0
  -16.7200  -29.8870   23.7130 C   0  0  0  0  0  3  0  0  0  0  0  0
  -16.8980  -28.6370   23.0890 C   0  0  0  0  0  3  0  0  0  0  0  0
  -25.9390  -32.6160   23.8850 C   0  0  0  0  0  3  0  0  0  0  0  0
  -25.5960  -34.0090   24.2010 N   0  0  0  0  0  0  0  0  0  0  0  0
  -25.9340  -35.0660   23.4510 C   0  0  0  0  0  0  0  0  0  0  0  0
  -26.6390  -34.9740   22.4420 O   0  0  0  0  0  0  0  0  0  0  0  0
  -24.9770  -34.1530   24.9850 H   0  0  0  0  0  0  0  0  0  0  0  0
  -24.1830  -36.8210   23.0310 C   0  0  0  0  0  1  0  0  0  0  0  0
  -25.4020  -36.4430   23.8870 C   0  0  0  0  0  3  0  0  0  0  0  0
  -27.4870  -37.3710   24.7950 C   0  0  0  0  0  1  0  0  0  0  0  0
  -26.4150  -37.5200   23.8150 N   0  0  0  0  0  0  0  0  0  0  0  0
  -25.9810  -38.4290   23.9600 H   0  0  0  0  0  0  0  0  0  0  0  0
  -26.4410  -31.8540   25.1720 C   0  0  1  0  0  0  0  0  0  0  0  0
  -25.3180  -31.5630   26.1960 C   0  0  0  0  0  1  0  0  0  0  0  0
  -27.0900  -30.5020   24.7840 C   0  0  0  0  0  1  0  0  0  0  0  0
  -27.5260  -32.6920   25.8900 C   0  0  0  0  0  1  0  0  0  0  0  0
  2  4  2  0
  3  8  1  0
  3  1  2  0
  4  1  1  0
  4 54  1  0
  5  3  1  0
  6  5  1  0
  7  5  2  0
  7  2  1  0
  8 10  2  0
  9 12  1  0
  9  8  1  0
 11  9  1  0
 13 19  1  0
 14 19  1  0
 15 16  1  0
 15 14  1  0
 17 16  1  0
 17 29  1  0
 17 18  1  0
 19 18  1  0
 20 13  2  0
 21 23  1  0
 21 22  1  0
 22 24  1  0
 23 25  1  0
 24 12  1  0
 25 13  1  0
 25 24  1  0
 26 27  2  0
 27 46  1  0
 28 27  1  0
 28 31  1  0
 29 26  1  0
 29 30  1  0
 30 28  2  0
 31 32  1  0
 32 33  2  0
 34 37  1  0
 34 33  1  0
 35 34  2  0
 36 35  1  0
 36 31  2  0
 37 38  1  0
 38 43  2  0
 38 39  1  0
 39 40  2  0
 40 41  1  0
 41 45  1  0
 42 41  2  0
 43 42  1  0
 44 43  1  0
 46 47  1  0
 47 50  1  0
 47 49  1  0
 48 46  2  0
 51 52  1  0
 51 26  1  0
 53 51  1  0
 55 54  1  0
 57 56  1  0
 57 55  1  0
 58 60  1  0
 58 57  1  0
 59 70  2  0
 60 65  1  0
 61 69  1  0
 61 71  1  0
 62 68  1  0
 62 64  1  0
 63 69  1  0
 64 65  2  0
 64 63  1  0
 66 60  2  0
 67 66  1  0
 67 62  2  0
 68 61  1  0
 69 59  1  0
 71 73  2  0
 72 71  1  0
 74 72  1  0
 75 84  2  0
 75 80  1  0
 76 72  1  0
 76 80  1  0
 77 76  1  0
 78 79  1  0
 78 77  1  0
 79 75  1  0
 80 81  2  0
 81 82  1  0
 83 82  2  0
 84 83  1  0
 85 59  1  0
 85 86  1  0
 85 95  1  0
 86 89  1  0
 87 91  1  0
 87 86  1  0
 88 87  2  0
 91 90  1  0
 93 91  1  0
 93 94  1  0
 93 92  1  0
 95 98  1  1
 95 96  1  0
 97 95  1  0
M  ISO  4  13 100  25 100  57 101  58 101
M  END
>  <TORSDO>  (52) 
F 21

>  <SCORE>  (52) 
-13.295

>  <name>  (52) 
52

>  <ligand_id>  (52) 
52

>  <original_smiles>  (52) 
[H]c1nc(C([H])([H])[H])c(C(=O)N([H])C([H])([H])C2([H])N(C(=O)N3C([H])([H])C([H])([H])C([H])([H])C([H])(n4nc(-c5c([H])c([H])c(Oc6c([H])c([H])c(F)c([H])c6F)c([H])c5[H])c(C(=O)N([H])[H])c4N([H])[H])C3([H])[H])C([H])([H])C([H])([H])C2([H])[H])c([H])c1C([H])([H])C([H])([H])C([H])(Oc1c([H])c([H])c2c(c1[H])C([H])([H])N(C(=O)C([H])(N([H])C(=O)C([H])(N([H])C([H])([H])[H])C([H])([H])[H])C(C([H])([H])[H])(C([H])([H])[H])C([H])([H])[H])C([H])(C(=O)N([H])C1([H])c3c([H])c([H])c([H])c([H])c3C([H])([H])C([H])([H])C1([H])[H])C2([H])[H])C([H])([H])[H]

>  <smiles>  (52) 
[H]c1nc(C([H])([H])[H])c(C(=O)N([H])C([H])([H])C2([H])N(C(=O)N3C([H])([H])C([H])([H])C([H])([H])C([H])(n4nc(-c5c([H])c([H])c(Oc6c([H])c([H])c(F)c([H])c6F)c([H])c5[H])c(C(=O)N([H])[H])c4N([H])[H])C3([H])[H])C([H])([H])C([H])([H])C2([H])[H])c([H])c1C([H])([H])C([H])([H])C([H])(Oc1c([H])c([H])c2c(c1[H])C([H])([H])N(C(=O)C([H])(N([H])C(=O)C([H])(N([H])C([H])([H])[H])C([H])([H])[H])C(C([H])([H])[H])(C([H])([H])[H])C([H])([H])[H])C([H])(C(=O)N([H])C1([H])c3c([H])c([H])c([H])c([H])c3C([H])([H])C([H])([H])C1([H])[H])C2([H])[H])C([H])([H])[H]

$$$$
53:0:0
     RDKit          3D

101110  0  0  1  0  0  0  0  0999 V2000
  -30.4380  -20.9830   20.6960 C   0  0  0  0  0  3  0  0  0  0  0  0
  -30.7660  -20.9000   23.4000 C   0  0  0  0  0  3  0  0  0  0  0  0
  -30.4590  -19.6950   21.2990 C   0  0  0  0  0  0  0  0  0  0  0  0
  -30.6300  -19.6760   22.7080 C   0  0  0  0  0  0  0  0  0  0  0  0
  -30.4840  -22.1610   21.4780 C   0  0  0  0  0  0  0  0  0  0  0  0
  -30.6300  -18.3850   23.5190 C   0  0  0  0  0  1  0  0  0  0  0  0
  -30.6870  -22.1100   22.8080 N   0  0  0  0  0  0  0  0  0  0  0  0
  -31.2710  -14.7150   19.9920 C   0  0  0  0  0  0  0  0  0  0  0  0
  -30.8970  -12.4650   19.0320 C   0  0  0  0  0  2  0  0  0  0  0  0
  -29.9050  -12.5430   17.8520 C   0  0  0  0  0  2  0  0  0  0  0  0
  -28.4490  -12.4300   18.3540 C   0  0  0  0  0  2  0  0  0  0  0  0
  -28.1450  -13.3440   19.5650 C   0  0  0  0  0  3  0  0  0  0  0  0
  -29.2640  -13.3000   20.6330 C   0  0  0  0  0  2  0  0  0  0  0  0
  -30.5490  -13.5500   19.9630 N   0  0  0  0  0  0  0  0  0  0  0  0
  -32.4890  -14.7140   19.8090 O   0  0  0  0  0  0  0  0  0  0  0  0
  -29.7640  -17.4940   18.1490 C   0  0  0  0  0  2  0  0  0  0  0  0
  -29.5960  -16.1750   18.9080 C   0  0  0  0  0  2  0  0  0  0  0  0
  -31.1460  -17.1880   20.5440 C   0  0  0  0  0  2  0  0  0  0  0  0
  -30.1240  -18.3960   20.5060 C   0  0  0  0  0  3  0  0  0  0  0  0
  -29.5950  -18.7080   19.0720 C   0  0  0  0  0  3  0  0  0  0  0  0
  -30.5810  -15.9130   19.9850 N   0  0  0  0  0  0  0  0  0  0  0  0
  -25.8430  -14.0840   20.4200 C   0  0  0  0  0  0  0  0  0  0  0  0
  -24.7500  -13.3660   20.8150 C   0  0  0  0  0  0  0  0  0  0  0  0
  -25.1430  -11.9930   20.7490 C   0  0  0  0  0  0  0  0  0  0  0  0
  -26.8220  -13.1440   20.1280 N   0  0  0  0  0  0  0  0  0  0  0  0
  -26.4130  -11.8850   20.3930 N   0  0  0  0  0  0  0  0  0  0  0  0
  -24.3710  -10.7670   20.9430 C   0  0  0  0  0  0  0  0  0  0  0  0
  -24.7720   -9.7860   21.8760 C   0  0  0  0  0  3  0  0  0  0  0  0
  -24.0030   -8.6170   22.0540 C   0  0  0  0  0  3  0  0  0  0  0  0
  -22.8240   -8.4240   21.2990 C   0  0  0  0  0  0  0  0  0  0  0  0
  -22.4430   -9.3920   20.3520 C   0  0  0  0  0  3  0  0  0  0  0  0
  -23.2130  -10.5520   20.1710 C   0  0  0  0  0  3  0  0  0  0  0  0
  -22.0240   -7.3110   21.3920 O   0  0  0  0  0  0  0  0  0  0  0  0
  -21.9080   -6.6060   22.5640 C   0  0  0  0  0  0  0  0  0  0  0  0
  -21.4580   -7.2140   23.7560 C   0  0  0  0  0  3  0  0  0  0  0  0
  -21.2870   -6.4360   24.9190 C   0  0  0  0  0  3  0  0  0  0  0  0
  -21.5580   -5.0540   24.8890 C   0  0  0  0  0  0  0  0  0  0  0  0
  -22.0040   -4.4490   23.7010 C   0  0  0  0  0  3  0  0  0  0  0  0
  -22.1740   -5.2230   22.5410 C   0  0  0  0  0  0  0  0  0  0  0  0
  -22.5840   -4.6320   21.3920 F   0  0  0  0  0  0  0  0  0  0  0  0
  -21.3860   -4.3060   26.0030 F   0  0  0  0  0  0  0  0  0  0  0  0
  -23.3900  -13.9100   21.1380 C   0  0  0  0  0  0  0  0  0  0  0  0
  -22.6590  -13.2440   22.0260 N   0  0  0  0  0  0  0  0  0  0  0  0
  -22.9850  -14.9590   20.6380 O   0  0  0  0  0  0  0  0  0  0  0  0
  -22.9970  -12.3950   22.4530 H   0  0  0  0  0  0  0  0  0  0  0  0
  -21.7470  -13.5950   22.2860 H   0  0  0  0  0  0  0  0  0  0  0  0
  -26.0740  -15.4490   20.2650 N   0  0  0  0  0  0  0  0  0  0  0  0
  -25.3590  -16.1420   20.4570 H   0  0  0  0  0  0  0  0  0  0  0  0
  -26.9620  -15.8420   19.9930 H   0  0  0  0  0  0  0  0  0  0  0  0
  -28.1960  -19.2270   19.1400 N   0  0  0  0  0  4  0  0  0  0  0  0
  -28.0800  -19.6760   20.0350 H   0  0  0  0  0  0  0  0  0  0  0  0
  -27.5630  -18.4420   19.1210 H   0  0  0  0  0  0  0  0  0  0  0  0
  -28.4550  -21.5700   18.2910 C   0  0  0  0  0  1  0  0  0  0  0  0
  -27.7450  -20.2100   18.1170 C   0  0  0  0  0  3  0  0  0  0  0  0
  -26.1990  -20.3420   18.2020 C   0  0  0  0  0  2  0  0  0  0  0  0
  -25.5400  -21.3430   17.2310 C   0  0  0  0  0  2  0  0  0  0  0  0
  -25.4550  -22.9830   17.9350 Cl  0  0  0  0  0  0  0  0  0  0  0  0
  -30.4290  -23.5510   20.8200 C   0  0  0  0  0  2  0  0  0  0  0  0
  -29.4410  -24.6130   21.4090 C   0  0  0  0  0  2  0  0  0  0  0  0
  -28.3440  -25.1870   20.4660 C   0  0  0  0  0  2  0  0  0  0  0  0
  -28.3420  -26.6310   20.5300 O   0  0  0  0  0  0  0  0  0  0  0  0
  -24.5440  -31.9650   23.2920 C   0  0  0  0  0  0  0  0  0  0  0  0
  -27.1600  -27.3460   20.4450 C   0  0  0  0  0  0  0  0  0  0  0  0
  -23.3340  -30.5100   21.6940 C   0  0  0  0  0  3  0  0  0  0  0  0
  -24.7820  -28.8930   20.3490 C   0  0  0  0  0  0  0  0  0  0  0  0
  -25.8660  -30.8260   21.5100 C   0  0  0  0  0  2  0  0  0  0  0  0
  -25.9380  -29.4260   20.9310 C   0  0  0  0  0  0  0  0  0  0  0  0
  -27.1270  -28.6600   20.9730 C   0  0  0  0  0  3  0  0  0  0  0  0
  -25.9860  -26.8340   19.8420 C   0  0  0  0  0  3  0  0  0  0  0  0
  -24.8050  -27.6000   19.7980 C   0  0  0  0  0  3  0  0  0  0  0  0
  -23.5490  -29.7700   20.3450 C   0  0  0  0  0  2  0  0  0  0  0  0
  -24.5990  -31.1180   22.2230 N   0  0  0  0  0  0  0  0  0  0  0  0
  -23.4620  -32.2740   23.8100 O   0  0  0  0  0  0  0  0  0  0  0  0
  -22.6600  -29.5420   22.6900 C   0  0  0  0  0  0  0  0  0  0  0  0
  -21.3440  -29.3320   22.5230 N   0  0  0  0  0  0  0  0  0  0  0  0
  -23.3170  -28.9790   23.5700 O   0  0  0  0  0  0  0  0  0  0  0  0
  -20.8760  -29.8370   21.7830 H   0  0  0  0  0  0  0  0  0  0  0  0
  -17.9820  -28.0650   22.9090 C   0  0  0  0  0  0  0  0  0  0  0  0
  -20.5090  -28.4290   23.3140 C   0  0  0  0  0  3  0  0  0  0  0  0
  -20.6900  -26.9630   22.8560 C   0  0  0  0  0  2  0  0  0  0  0  0
  -19.6630  -26.5270   21.8080 C   0  0  0  0  0  2  0  0  0  0  0  0
  -18.2410  -26.6740   22.3540 C   0  0  0  0  0  2  0  0  0  0  0  0
  -19.0500  -28.8950   23.3440 C   0  0  0  0  0  0  0  0  0  0  0  0
  -18.7570  -30.1920   23.8180 C   0  0  0  0  0  3  0  0  0  0  0  0
  -17.4320  -30.6600   23.8640 C   0  0  0  0  0  3  0  0  0  0  0  0
  -16.3770  -29.8280   23.4490 C   0  0  0  0  0  3  0  0  0  0  0  0
  -16.6550  -28.5330   22.9760 C   0  0  0  0  0  3  0  0  0  0  0  0
  -25.8330  -32.6020   23.8990 C   0  0  0  0  0  3  0  0  0  0  0  0
  -25.5260  -34.0020   24.2220 N   0  0  0  0  0  0  0  0  0  0  0  0
  -25.8590  -35.0490   23.4550 C   0  0  0  0  0  0  0  0  0  0  0  0
  -26.5280  -34.9390   22.4240 O   0  0  0  0  0  0  0  0  0  0  0  0
  -24.9260  -34.1610   25.0170 H   0  0  0  0  0  0  0  0  0  0  0  0
  -24.1250  -36.8370   23.0960 C   0  0  0  0  0  1  0  0  0  0  0  0
  -25.3710  -36.4410   23.9040 C   0  0  0  0  0  3  0  0  0  0  0  0
  -27.5100  -37.3350   24.7140 C   0  0  0  0  0  1  0  0  0  0  0  0
  -26.4020  -37.4950   23.7760 N   0  0  0  0  0  0  0  0  0  0  0  0
  -25.9950  -38.4150   23.9210 H   0  0  0  0  0  0  0  0  0  0  0  0
  -26.3630  -31.8380   25.1740 C   0  0  1  0  0  0  0  0  0  0  0  0
  -25.2750  -31.5840   26.2440 C   0  0  0  0  0  1  0  0  0  0  0  0
  -26.9660  -30.4690   24.7820 C   0  0  0  0  0  1  0  0  0  0  0  0
  -27.5020  -32.6500   25.8350 C   0  0  0  0  0  1  0  0  0  0  0  0
  1  3  2  0
  1  5  1  0
  3  4  1  0
  4  2  2  0
  4  6  1  0
  5  7  2  0
  7  2  1  0
  9 14  1  0
 10 11  1  0
 10  9  1  0
 12 11  1  0
 12 25  1  0
 12 13  1  0
 14  8  1  0
 14 13  1  0
 15  8  2  0
 16 17  1  0
 16 20  1  0
 17 21  1  0
 19 18  1  0
 19  3  1  0
 20 50  1  0
 20 19  1  0
 21  8  1  0
 21 18  1  0
 22 23  2  0
 23 42  1  0
 24 23  1  0
 24 27  1  0
 25 26  1  0
 25 22  1  0
 26 24  2  0
 27 28  1  0
 28 29  2  0
 30 33  1  0
 30 29  1  0
 31 30  2  0
 32 31  1  0
 32 27  2  0
 33 34  1  0
 34 35  1  0
 35 36  2  0
 37 36  1  0
 37 41  1  0
 38 37  2  0
 39 34  2  0
 39 38  1  0
 40 39  1  0
 42 43  1  0
 43 46  1  0
 43 45  1  0
 44 42  2  0
 47 22  1  0
 47 48  1  0
 49 47  1  0
 50 51  1  0
 52 50  1  0
 54 55  1  0
 54 53  1  0
 54 50  1  0
 56 57  1  0
 56 55  1  0
 58 59  1  0
 58  5  1  0
 60 61  1  0
 60 59  1  0
 62 73  2  0
 63 61  1  0
 63 68  1  0
 64 72  1  0
 64 74  1  0
 65 67  1  0
 66 72  1  0
 67 68  2  0
 67 66  1  0
 69 63  2  0
 70 69  1  0
 70 65  2  0
 71 65  1  0
 71 64  1  0
 72 62  1  0
 74 76  2  0
 75 74  1  0
 77 75  1  0
 78 87  2  0
 78 83  1  0
 79 75  1  0
 79 83  1  0
 80 79  1  0
 81 82  1  0
 81 80  1  0
 82 78  1  0
 83 84  2  0
 84 85  1  0
 86 85  2  0
 87 86  1  0
 88 62  1  0
 88 89  1  0
 88 98  1  0
 89 92  1  0
 90 94  1  0
 90 89  1  0
 91 90  2  0
 94 93  1  0
 96 94  1  0
 96 97  1  0
 96 95  1  0
 98101  1  1
 98 99  1  0
100 98  1  0
M  ISO  4   8 100  21 100  60 101  61 101
M  END
>  <TORSDO>  (53) 
F 23

>  <SCORE>  (53) 
-12.089

>  <name>  (53) 
53

>  <ligand_id>  (53) 
53

>  <original_smiles>  (53) 
[H]c1nc(C([H])([H])C([H])([H])C([H])([H])Oc2c([H])c([H])c3c(c2[H])C([H])([H])N(C(=O)C([H])(N([H])C(=O)C([H])(N([H])C([H])([H])[H])C([H])([H])[H])C(C([H])([H])[H])(C([H])([H])[H])C([H])([H])[H])C([H])(C(=O)N([H])C2([H])c4c([H])c([H])c([H])c([H])c4C([H])([H])C([H])([H])C2([H])[H])C3([H])[H])c([H])c(C2([H])C([H])([H])N(C(=O)N3C([H])([H])C([H])([H])C([H])([H])C([H])(n4nc(-c5c([H])c([H])c(Oc6c([H])c([H])c(F)c([H])c6F)c([H])c5[H])c(C(=O)N([H])[H])c4N([H])[H])C3([H])[H])C([H])([H])C([H])([H])C2([H])[N+]([H])([H])C([H])(C([H])([H])[H])C([H])([H])C([H])([H])Cl)c1C([H])([H])[H]

>  <smiles>  (53) 
[H]c1nc(C([H])([H])C([H])([H])C([H])([H])Oc2c([H])c([H])c3c(c2[H])C([H])([H])N(C(=O)C([H])(N([H])C(=O)C([H])(N([H])C([H])([H])[H])C([H])([H])[H])C(C([H])([H])[H])(C([H])([H])[H])C([H])([H])[H])C([H])(C(=O)N([H])C2([H])c4c([H])c([H])c([H])c([H])c4C([H])([H])C([H])([H])C2([H])[H])C3([H])[H])c([H])c(C2([H])C([H])([H])N(C(=O)N3C([H])([H])C([H])([H])C([H])([H])C([H])(n4nc(-c5c([H])c([H])c(Oc6c([H])c([H])c(F)c([H])c6F)c([H])c5[H])c(C(=O)N([H])[H])c4N([H])[H])C3([H])[H])C([H])([H])C([H])([H])C2([H])[N+]([H])([H])C([H])(C([H])([H])[H])C([H])([H])C([H])([H])Cl)c1C([H])([H])[H]

$$$$
54:0:0
     RDKit          3D

 95 98  0  0  1  0  0  0  0  0999 V2000
  -22.8260  -26.7520   18.8830 C   0  0  0  0  0  1  0  0  0  0  0  0
  -23.8280  -27.7550   17.8630 C   0  0  0  0  0  1  0  0  0  0  0  0
  -24.9230  -25.6100   20.9420 C   0  0  0  0  0  3  0  0  0  0  0  0
  -23.3440  -25.8310   20.2610 C   0  0  0  0  0  3  0  0  0  0  0  0
  -26.0710  -26.1480   20.1790 C   0  0  0  0  0  2  0  0  0  0  0  0
  -25.4950  -27.8500   18.1940 N   0  0  0  0  0  1  0  0  0  0  0  0
  -26.9460  -24.4350   20.1010 N   0  0  0  0  0  1  0  0  0  0  0  0
  -27.5390  -24.6030   19.2960 H   0  0  0  0  0  0  0  0  0  0  0  0
  -22.4800  -24.2730   21.8990 C   0  0  0  0  0  1  0  0  0  0  0  0
  -22.3090  -25.0370   20.7110 O   0  0  0  0  0  0  0  0  0  0  0  0
  -26.1790  -26.2900   21.9130 C   0  0  0  0  0  3  0  0  0  0  0  0
  -28.0090  -26.2770   21.5700 C   0  0  0  0  0  3  0  0  0  0  0  0
  -28.5870  -27.1160   23.9910 C   0  0  0  0  0  1  0  0  0  0  0  0
  -29.0660  -26.6560   22.6340 C   0  0  0  0  0  2  0  0  0  0  0  0
  -28.6470  -26.7030   20.1490 O   0  0  0  0  0  0  0  0  0  0  0  0
  -24.8810  -31.4630   23.9950 C   0  0  0  0  0  0  0  0  0  0  0  0
  -28.1020  -27.7050   19.3040 C   0  0  0  0  0  3  0  0  0  0  0  0
  -23.7380  -30.5010   22.0480 C   0  0  0  0  0  3  0  0  0  0  0  0
  -24.9260  -28.3850   20.4200 C   0  0  0  0  0  2  0  0  0  0  0  0
  -26.2230  -30.3680   22.0430 C   0  0  0  0  0  2  0  0  0  0  0  0
  -26.2390  -29.0010   21.1470 C   0  0  0  0  0  3  0  0  0  0  0  0
  -27.6610  -28.6280   20.5890 C   0  0  0  0  0  2  0  0  0  0  0  0
  -27.1280  -27.0710   17.9440 C   0  0  0  0  0  2  0  0  0  0  0  0
  -25.3150  -27.0760   18.1120 C   0  0  0  0  0  3  0  0  0  0  0  0
  -23.9780  -29.7820   20.7010 C   0  0  0  0  0  2  0  0  0  0  0  0
  -24.9820  -30.8040   22.7750 N   0  0  0  0  0  0  0  0  0  0  0  0
  -23.7780  -31.7740   24.4720 O   0  0  0  0  0  0  0  0  0  0  0  0
  -22.8100  -29.5390   22.7420 C   0  0  0  0  0  0  0  0  0  0  0  0
  -21.5230  -29.5710   22.3680 N   0  0  0  0  0  0  0  0  0  0  0  0
  -23.2910  -28.7010   23.4970 O   0  0  0  0  0  0  0  0  0  0  0  0
  -21.1800  -30.3100   21.7710 H   0  0  0  0  0  0  0  0  0  0  0  0
  -18.0290  -28.6650   22.2620 C   0  0  0  0  0  0  0  0  0  0  0  0
  -20.5600  -28.5380   22.7060 C   0  0  0  0  0  3  0  0  0  0  0  0
  -20.5880  -27.3990   21.6680 C   0  0  0  0  0  2  0  0  0  0  0  0
  -19.5330  -27.5290   20.5630 C   0  0  0  0  0  2  0  0  0  0  0  0
  -18.1280  -27.6010   21.1790 C   0  0  0  0  0  2  0  0  0  0  0  0
  -19.1780  -29.1250   22.9540 C   0  0  0  0  0  0  0  0  0  0  0  0
  -19.0460  -30.1420   23.9230 C   0  0  0  0  0  3  0  0  0  0  0  0
  -17.7820  -30.6680   24.2380 C   0  0  0  0  0  3  0  0  0  0  0  0
  -16.6410  -30.1960   23.5710 C   0  0  0  0  0  3  0  0  0  0  0  0
  -16.7650  -29.2090   22.5770 C   0  0  0  0  0  3  0  0  0  0  0  0
  -26.1140  -31.8330   24.8870 C   0  0  0  0  0  3  0  0  0  0  0  0
  -26.0250  -33.2510   25.2980 N   0  0  0  0  0  0  0  0  0  0  0  0
  -26.6270  -34.2820   24.6890 C   0  0  0  0  0  0  0  0  0  0  0  0
  -27.3410  -34.1400   23.6950 O   0  0  0  0  0  0  0  0  0  0  0  0
  -25.4010  -33.4590   26.0670 H   0  0  0  0  0  0  0  0  0  0  0  0
  -25.2710  -36.4020   24.5130 C   0  0  0  0  0  1  0  0  0  0  0  0
  -26.3970  -35.6910   25.2810 C   0  0  0  0  0  3  0  0  0  0  0  0
  -28.6140  -36.1230   26.2500 C   0  0  0  0  0  1  0  0  0  0  0  0
  -27.6060  -36.5430   25.2800 N   0  0  0  0  0  0  0  0  0  0  0  0
  -27.3610  -37.5080   25.4850 H   0  0  0  0  0  0  0  0  0  0  0  0
  -26.2150  -30.9570   26.1970 C   0  0  1  0  0  0  0  0  0  0  0  0
  -24.8710  -30.7180   26.9180 C   0  0  0  0  0  1  0  0  0  0  0  0
  -26.7670  -29.6000   25.8410 C   0  0  0  0  0  1  0  0  0  0  0  0
  -27.2200  -31.5620   27.2080 C   0  0  0  0  0  1  0  0  0  0  0  0
  -27.2620  -22.4500   20.3590 C   0  0  0  0  0 15  0  0  0  0  0  0
  -28.5710  -20.5060   20.1730 C   0  0  0  0  0 15  0  0  0  0  0  0
  -29.7440  -16.8500   19.9230 C   0  0  0  0  0  0  0  0  0  0  0  0
  -30.2520  -14.1140   19.1360 C   0  0  0  0  0  2  0  0  0  0  0  0
  -29.4910  -13.2380   18.0530 C   0  0  0  0  0  2  0  0  0  0  0  0
  -28.1970  -12.6380   18.6040 C   0  0  0  0  0  2  0  0  0  0  0  0
  -27.5620  -13.6760   19.5360 C   0  0  0  0  0  3  0  0  0  0  0  0
  -28.5130  -14.3600   20.5700 C   0  0  0  0  0  2  0  0  0  0  0  0
  -29.4280  -15.3080   19.8290 N   0  0  0  0  0  0  0  0  0  0  0  0
  -31.0010  -16.6950   19.7770 O   0  0  0  0  0  0  0  0  0  0  0  0
  -28.9160  -18.4320   19.9860 N   0  0  0  0  0  2  0  0  0  0  0  0
  -29.7130  -18.7100   19.4230 H   0  0  0  0  0  0  0  0  0  0  0  0
  -25.2820  -14.1280   20.4500 C   0  0  0  0  0  0  0  0  0  0  0  0
  -24.2540  -13.3350   20.8590 C   0  0  0  0  0  0  0  0  0  0  0  0
  -24.7250  -11.9870   20.7560 C   0  0  0  0  0  0  0  0  0  0  0  0
  -26.3050  -13.2700   20.1220 N   0  0  0  0  0  0  0  0  0  0  0  0
  -25.9980  -11.9680   20.3610 N   0  0  0  0  0  0  0  0  0  0  0  0
  -24.0060  -10.7210   20.9530 C   0  0  0  0  0  0  0  0  0  0  0  0
  -24.4890   -9.7190   21.8230 C   0  0  0  0  0  3  0  0  0  0  0  0
  -23.7580   -8.5250   22.0150 C   0  0  0  0  0  3  0  0  0  0  0  0
  -22.5330   -8.3260   21.3360 C   0  0  0  0  0  0  0  0  0  0  0  0
  -22.0680   -9.3160   20.4540 C   0  0  0  0  0  3  0  0  0  0  0  0
  -22.7990  -10.5010   20.2600 C   0  0  0  0  0  3  0  0  0  0  0  0
  -21.7710   -7.1870   21.4400 O   0  0  0  0  0  0  0  0  0  0  0  0
  -21.7040   -6.4680   22.6080 C   0  0  0  0  0  0  0  0  0  0  0  0
  -21.1550   -7.0150   23.7870 C   0  0  0  0  0  3  0  0  0  0  0  0
  -21.0420   -6.2200   24.9450 C   0  0  0  0  0  3  0  0  0  0  0  0
  -21.4660   -4.8780   24.9240 C   0  0  0  0  0  0  0  0  0  0  0  0
  -22.0090   -4.3300   23.7470 C   0  0  0  0  0  3  0  0  0  0  0  0
  -22.1230   -5.1220   22.5910 C   0  0  0  0  0  0  0  0  0  0  0  0
  -22.6240   -4.5840   21.4530 F   0  0  0  0  0  0  0  0  0  0  0  0
  -21.3510   -4.1100   26.0310 F   0  0  0  0  0  0  0  0  0  0  0  0
  -22.8800  -13.8070   21.2200 C   0  0  0  0  0  0  0  0  0  0  0  0
  -22.2150  -13.1150   22.1340 N   0  0  0  0  0  0  0  0  0  0  0  0
  -22.4090  -14.8290   20.7230 O   0  0  0  0  0  0  0  0  0  0  0  0
  -22.6100  -12.2890   22.5600 H   0  0  0  0  0  0  0  0  0  0  0  0
  -21.2940  -13.4170   22.4160 H   0  0  0  0  0  0  0  0  0  0  0  0
  -25.4290  -15.5050   20.2950 N   0  0  0  0  0  0  0  0  0  0  0  0
  -24.6820  -16.1670   20.4850 H   0  0  0  0  0  0  0  0  0  0  0  0
  -26.2680  -15.9520   19.9520 H   0  0  0  0  0  0  0  0  0  0  0  0
  3  4  1  0
  3 11  1  0
  4  1  1  0
  4 10  1  0
  5  3  1  0
  5 11  1  0
  8  7  1  0
 10  9  1  0
 11 12  1  0
 12 14  1  0
 14 13  1  0
 15 12  1  0
 16 27  2  0
 17 23  1  0
 17 15  1  0
 17 22  1  0
 18 28  1  0
 18 26  1  0
 19 25  1  0
 19 21  1  0
 20 26  1  0
 21 22  1  0
 21 20  1  0
 23 24  1  0
 24  2  1  0
 24  6  1  0
 25 18  1  0
 26 16  1  0
 28 30  2  0
 29 28  1  0
 31 29  1  0
 32 41  2  0
 32 37  1  0
 33 29  1  0
 33 37  1  0
 34 33  1  0
 35 36  1  0
 35 34  1  0
 36 32  1  0
 37 38  2  0
 38 39  1  0
 40 39  2  0
 41 40  1  0
 42 16  1  0
 42 43  1  0
 42 52  1  0
 43 46  1  0
 44 48  1  0
 44 43  1  0
 45 44  2  0
 48 47  1  0
 50 48  1  0
 50 51  1  0
 50 49  1  0
 52 53  1  1
 52 55  1  0
 54 52  1  0
 58 66  1  0
 59 64  1  0
 60 61  1  0
 60 59  1  0
 62 61  1  0
 62 71  1  0
 62 63  1  0
 64 58  1  0
 64 63  1  0
 65 58  2  0
 67 66  1  0
 68 69  2  0
 69 88  1  0
 70 69  1  0
 70 73  1  0
 71 72  1  0
 71 68  1  0
 72 70  2  0
 73 74  1  0
 74 75  2  0
 76 79  1  0
 76 75  1  0
 77 76  2  0
 78 77  1  0
 78 73  2  0
 79 80  1  0
 80 81  1  0
 81 82  2  0
 83 82  1  0
 83 87  1  0
 84 83  2  0
 85 80  2  0
 85 84  1  0
 86 85  1  0
 88 89  1  0
 89 92  1  0
 89 91  1  0
 90 88  2  0
 93 68  1  0
 93 94  1  0
 95 93  1  0
M  ISO  4  12 101  15 101  58 100  66 100
M  END
>  <TORSDO>  (54) 
F 22

>  <SCORE>  (54) 
-12.847

>  <name>  (54) 
54

>  <ligand_id>  (54) 
54

>  <original_smiles>  (54) 
[H]c1nc(N([H])C([H])([H])C([H])([H])N([H])C(=O)N2C([H])([H])C([H])([H])C([H])([H])C([H])(n3nc(-c4c([H])c([H])c(Oc5c([H])c([H])c(F)c([H])c5F)c([H])c4[H])c(C(=O)N([H])[H])c3N([H])[H])C2([H])[H])c(C([H])([H])C([H])(Oc2c([H])c([H])c3c(c2[H])C([H])([H])N(C(=O)C([H])(N([H])C(=O)C([H])(N([H])C([H])([H])[H])C([H])([H])[H])C(C([H])([H])[H])(C([H])([H])[H])C([H])([H])[H])C([H])(C(=O)N([H])C2([H])c4c([H])c([H])c([H])c([H])c4C([H])([H])C([H])([H])C2([H])[H])C3([H])[H])C([H])([H])C([H])([H])[H])c(OC([H])([H])[H])c1[H]

>  <smiles>  (54) 
[H]c1nc(N([H])C([H])([H])C([H])([H])N([H])C(=O)N2C([H])([H])C([H])([H])C([H])([H])C([H])(n3nc(-c4c([H])c([H])c(Oc5c([H])c([H])c(F)c([H])c5F)c([H])c4[H])c(C(=O)N([H])[H])c3N([H])[H])C2([H])[H])c(C([H])([H])C([H])(Oc2c([H])c([H])c3c(c2[H])C([H])([H])N(C(=O)C([H])(N([H])C(=O)C([H])(N([H])C([H])([H])[H])C([H])([H])[H])C(C([H])([H])[H])(C([H])([H])[H])C([H])([H])[H])C([H])(C(=O)N([H])C2([H])c4c([H])c([H])c([H])c([H])c4C([H])([H])C([H])([H])C2([H])[H])C3([H])[H])C([H])([H])C([H])([H])[H])c(OC([H])([H])[H])c1[H]

$$$$
55:0:0
     RDKit          3D

 99108  0  0  1  0  0  0  0  0999 V2000
  -31.1070  -22.0870   21.1660 C   0  0  0  0  0  3  0  0  0  0  0  0
  -30.1070  -23.0530   20.9910 C   0  0  0  0  0  3  0  0  0  0  0  0
  -31.0730  -20.7560   20.6540 C   0  0  0  0  0  0  0  0  0  0  0  0
  -29.8620  -20.0790   20.2300 C   0  0  0  0  0  0  0  0  0  0  0  0
  -28.9100  -22.7660   20.3380 C   0  0  0  0  0  0  0  0  0  0  0  0
  -28.7900  -21.2220   20.0720 C   0  0  0  0  0  0  0  0  0  0  0  0
  -31.5920  -18.1400   19.4160 C   0  0  0  0  0  2  0  0  0  0  0  0
  -32.4570  -20.1320   20.4020 C   0  0  0  0  0  3  0  0  0  0  0  0
  -30.0680  -18.3440   19.6740 C   0  0  1  0  0  0  0  0  0  0  0  0
  -27.4150  -20.7980   19.5960 C   0  0  0  0  0  1  0  0  0  0  0  0
  -32.3460  -19.3560   19.1680 N   0  0  0  0  0  4  0  0  0  0  0  0
  -31.8990  -19.9050   18.4520 H   0  0  0  0  0  0  0  0  0  0  0  0
  -33.2770  -19.1100   18.8700 H   0  0  0  0  0  0  0  0  0  0  0  0
  -30.4760  -15.3940   20.1320 C   0  0  0  0  0  0  0  0  0  0  0  0
  -30.3650  -12.9390   19.2620 C   0  0  0  0  0  2  0  0  0  0  0  0
  -29.4190  -12.7330   18.0510 C   0  0  0  0  0  2  0  0  0  0  0  0
  -27.9840  -12.4660   18.5290 C   0  0  0  0  0  2  0  0  0  0  0  0
  -27.5680  -13.4230   19.6730 C   0  0  0  0  0  3  0  0  0  0  0  0
  -28.6470  -13.5910   20.7680 C   0  0  0  0  0  2  0  0  0  0  0  0
  -29.8590  -14.1000   20.1020 N   0  0  0  0  0  0  0  0  0  0  0  0
  -31.6760  -15.2910   19.8360 O   0  0  0  0  0  0  0  0  0  0  0  0
  -29.8250  -16.7560   20.2720 N   0  0  0  0  0  0  0  0  0  0  0  0
  -28.8890  -16.6530   20.6340 H   0  0  0  0  0  0  0  0  0  0  0  0
  -25.2290  -13.9790   20.5060 C   0  0  0  0  0  0  0  0  0  0  0  0
  -24.1730  -13.2040   20.8930 C   0  0  0  0  0  0  0  0  0  0  0  0
  -24.6290  -11.8500   20.8280 C   0  0  0  0  0  0  0  0  0  0  0  0
  -26.2570  -13.1010   20.2180 N   0  0  0  0  0  0  0  0  0  0  0  0
  -25.9120  -11.8130   20.4800 N   0  0  0  0  0  0  0  0  0  0  0  0
  -23.8960  -10.5910   21.0170 C   0  0  0  0  0  0  0  0  0  0  0  0
  -24.3330   -9.6120   21.9380 C   0  0  0  0  0  3  0  0  0  0  0  0
  -23.5960   -8.4210   22.1190 C   0  0  0  0  0  3  0  0  0  0  0  0
  -22.4080   -8.2010   21.3800 C   0  0  0  0  0  0  0  0  0  0  0  0
  -21.9910   -9.1690   20.4500 C   0  0  0  0  0  3  0  0  0  0  0  0
  -22.7270  -10.3500   20.2670 C   0  0  0  0  0  3  0  0  0  0  0  0
  -21.6440   -7.0620   21.4700 O   0  0  0  0  0  0  0  0  0  0  0  0
  -21.5960   -6.3150   22.6200 C   0  0  0  0  0  0  0  0  0  0  0  0
  -21.1600   -6.8630   23.8460 C   0  0  0  0  0  3  0  0  0  0  0  0
  -21.0610   -6.0450   24.9890 C   0  0  0  0  0  3  0  0  0  0  0  0
  -21.3850   -4.6770   24.9060 C   0  0  0  0  0  0  0  0  0  0  0  0
  -21.8120   -4.1270   23.6840 C   0  0  0  0  0  3  0  0  0  0  0  0
  -21.9150   -4.9440   22.5440 C   0  0  0  0  0  0  0  0  0  0  0  0
  -22.3070   -4.4050   21.3650 F   0  0  0  0  0  0  0  0  0  0  0  0
  -21.2820   -3.8890   26.0000 F   0  0  0  0  0  0  0  0  0  0  0  0
  -22.7880  -13.6870   21.2070 C   0  0  0  0  0  0  0  0  0  0  0  0
  -22.0770  -12.9850   22.0800 N   0  0  0  0  0  0  0  0  0  0  0  0
  -22.3480  -14.7250   20.7120 O   0  0  0  0  0  0  0  0  0  0  0  0
  -22.4480  -12.1480   22.5040 H   0  0  0  0  0  0  0  0  0  0  0  0
  -21.1460  -13.2890   22.3290 H   0  0  0  0  0  0  0  0  0  0  0  0
  -25.3970  -15.3510   20.3420 N   0  0  0  0  0  0  0  0  0  0  0  0
  -24.6390  -16.0080   20.4820 H   0  0  0  0  0  0  0  0  0  0  0  0
  -26.2280  -15.7820   19.9600 H   0  0  0  0  0  0  0  0  0  0  0  0
  -35.0070  -20.2970   20.0860 C   0  0  0  0  0  1  0  0  0  0  0  0
  -33.5750  -22.1100   19.0750 C   0  0  0  0  0  1  0  0  0  0  0  0
  -33.6900  -21.0860   20.2310 C   0  0  0  0  0  3  0  0  0  0  0  0
  -27.9070  -24.1940   20.0830 C   0  0  0  0  0  2  0  0  0  0  0  0
  -28.1870  -25.8270   20.2710 O   0  0  0  0  0  0  0  0  0  0  0  0
  -24.6400  -31.8440   23.2250 C   0  0  0  0  0  0  0  0  0  0  0  0
  -27.1900  -26.9470   20.2020 C   0  0  0  0  0  0  0  0  0  0  0  0
  -23.4460  -30.4500   21.5850 C   0  0  0  0  0  3  0  0  0  0  0  0
  -24.8950  -28.8470   20.1560 C   0  0  0  0  0  0  0  0  0  0  0  0
  -26.0130  -30.6570   21.4400 C   0  0  0  0  0  2  0  0  0  0  0  0
  -26.0840  -29.2460   20.7790 C   0  0  0  0  0  0  0  0  0  0  0  0
  -27.2250  -28.3180   20.7740 C   0  0  0  0  0  3  0  0  0  0  0  0
  -25.9710  -26.7100   19.5280 C   0  0  0  0  0  3  0  0  0  0  0  0
  -24.8640  -27.6000   19.5100 C   0  0  0  0  0  3  0  0  0  0  0  0
  -23.6750  -29.7690   20.2080 C   0  0  0  0  0  2  0  0  0  0  0  0
  -24.7210  -31.0110   22.1370 N   0  0  0  0  0  0  0  0  0  0  0  0
  -23.5500  -32.1330   23.7460 O   0  0  0  0  0  0  0  0  0  0  0  0
  -22.7510  -29.4540   22.5510 C   0  0  0  0  0  0  0  0  0  0  0  0
  -21.4210  -29.2890   22.4290 N   0  0  0  0  0  0  0  0  0  0  0  0
  -23.4180  -28.8280   23.3800 O   0  0  0  0  0  0  0  0  0  0  0  0
  -20.9340  -29.8450   21.7380 H   0  0  0  0  0  0  0  0  0  0  0  0
  -18.0400  -28.0720   22.9420 C   0  0  0  0  0  0  0  0  0  0  0  0
  -20.6000  -28.3480   23.2000 C   0  0  0  0  0  3  0  0  0  0  0  0
  -20.7050  -26.9170   22.6240 C   0  0  0  0  0  2  0  0  0  0  0  0
  -19.6020  -26.5920   21.6110 C   0  0  0  0  0  2  0  0  0  0  0  0
  -18.2220  -26.7280   22.2590 C   0  0  0  0  0  2  0  0  0  0  0  0
  -19.1570  -28.8410   23.3700 C   0  0  0  0  0  0  0  0  0  0  0  0
  -18.9310  -30.0970   23.9720 C   0  0  0  0  0  3  0  0  0  0  0  0
  -17.6230  -30.5880   24.1480 C   0  0  0  0  0  3  0  0  0  0  0  0
  -16.5220  -29.8180   23.7340 C   0  0  0  0  0  3  0  0  0  0  0  0
  -16.7310  -28.5620   23.1380 C   0  0  0  0  0  3  0  0  0  0  0  0
  -25.9100  -32.4890   23.8580 C   0  0  0  0  0  3  0  0  0  0  0  0
  -26.4160  -31.7240   25.1440 C   0  0  1  0  0  0  0  0  0  0  0  0
  -25.3150  -31.4910   26.2060 C   0  0  0  0  0  1  0  0  0  0  0  0
  -27.0030  -30.3430   24.7720 C   0  0  0  0  0  1  0  0  0  0  0  0
  -27.5600  -32.5230   25.8110 C   0  0  0  0  0  1  0  0  0  0  0  0
  -25.5880  -33.8880   24.1970 N   0  0  0  0  0  0  0  0  0  0  0  0
  -25.8960  -34.9520   23.4420 C   0  0  0  0  0  0  0  0  0  0  0  0
  -26.5430  -34.8590   22.3940 O   0  0  0  0  0  0  0  0  0  0  0  0
  -25.0120  -34.0330   25.0120 H   0  0  0  0  0  0  0  0  0  0  0  0
  -24.1410  -36.7360   23.1620 C   0  0  0  0  0  1  0  0  0  0  0  0
  -25.4160  -36.3360   23.9220 C   0  0  0  0  0  3  0  0  0  0  0  0
  -27.5680  -37.2490   24.6780 C   0  0  0  0  0  1  0  0  0  0  0  0
  -26.4340  -37.4000   23.7720 N   0  0  0  0  0  0  0  0  0  0  0  0
  -26.0230  -38.3160   23.9290 H   0  0  0  0  0  0  0  0  0  0  0  0
  -29.3220  -18.2630   18.2940 C   0  0  0  0  0  2  0  0  0  0  0  0
  -30.0130  -20.3970   16.8770 C   0  0  0  0  0  1  0  0  0  0  0  0
  -29.9580  -18.8660   17.0090 C   0  0  0  0  0  2  0  0  0  0  0  0
  2  1  1  0
  3  1  2  0
  4  3  1  0
  5  2  2  0
  6  4  2  0
  6  5  1  0
  7  9  1  0
  8 54  1  0
  8  3  1  0
  9 97  1  6
  9  4  1  0
  9 22  1  0
 10  6  1  0
 11  7  1  0
 11  8  1  0
 12 11  1  0
 13 11  1  0
 14 22  1  0
 15 20  1  0
 16 17  1  0
 16 15  1  0
 18 17  1  0
 18 27  1  0
 18 19  1  0
 20 14  1  0
 20 19  1  0
 21 14  2  0
 22 23  1  0
 24 25  2  0
 25 44  1  0
 26 25  1  0
 26 29  1  0
 27 28  1  0
 27 24  1  0
 28 26  2  0
 29 30  1  0
 30 31  2  0
 32 35  1  0
 32 31  1  0
 33 32  2  0
 34 33  1  0
 34 29  2  0
 35 36  1  0
 36 37  1  0
 37 38  2  0
 39 38  1  0
 39 43  1  0
 40 39  2  0
 41 36  2  0
 41 40  1  0
 42 41  1  0
 44 45  1  0
 45 48  1  0
 45 47  1  0
 46 44  2  0
 49 50  1  0
 49 24  1  0
 51 49  1  0
 52 54  1  0
 53 54  1  0
 55 56  1  0
 55  5  1  0
 57 68  2  0
 58 56  1  0
 58 63  1  0
 59 67  1  0
 59 69  1  0
 60 66  1  0
 60 62  1  0
 61 67  1  0
 62 61  1  0
 63 62  2  0
 64 58  2  0
 65 64  1  0
 65 60  2  0
 66 59  1  0
 67 57  1  0
 69 71  2  0
 70 69  1  0
 72 70  1  0
 73 82  2  0
 73 78  1  0
 74 70  1  0
 74 78  1  0
 75 74  1  0
 76 77  1  0
 76 75  1  0
 77 73  1  0
 78 79  2  0
 79 80  1  0
 81 80  2  0
 82 81  1  0
 83 57  1  0
 83 88  1  0
 83 84  1  0
 84 87  1  1
 84 85  1  0
 86 84  1  0
 88 91  1  0
 89 93  1  0
 89 88  1  0
 90 89  2  0
 93 92  1  0
 95 93  1  0
 95 96  1  0
 95 94  1  0
 98 99  1  0
 99 97  1  0
M  ISO  4  14 100  22 100  55 101  56 101
M  END
>  <TORSDO>  (55) 
F 20

>  <SCORE>  (55) 
-15.530

>  <name>  (55) 
55

>  <ligand_id>  (55) 
55

>  <original_smiles>  (55) 
[H]c1c([H])c([H])c2c(c1[H])C([H])([H])C([H])([H])C([H])([H])C2([H])N([H])C(=O)C1([H])N(C(=O)C([H])(N([H])C(=O)C([H])(N([H])C([H])([H])[H])C([H])([H])[H])C(C([H])([H])[H])(C([H])([H])[H])C([H])([H])[H])C([H])([H])c2c([H])c(OC([H])([H])c3c([H])c([H])c4c(c3C([H])([H])[H])C(N([H])C(=O)N3C([H])([H])C([H])([H])C([H])([H])C([H])(n5nc(-c6c([H])c([H])c(Oc7c([H])c([H])c(F)c([H])c7F)c([H])c6[H])c(C(=O)N([H])[H])c5N([H])[H])C3([H])[H])(C([H])([H])C([H])([H])C([H])([H])[H])C([H])([H])[N+]([H])([H])C4([H])C([H])(C([H])([H])[H])C([H])([H])[H])c([H])c([H])c2C1([H])[H]

>  <smiles>  (55) 
[H]c1c([H])c([H])c2c(c1[H])C([H])([H])C([H])([H])C([H])([H])C2([H])N([H])C(=O)C1([H])N(C(=O)C([H])(N([H])C(=O)C([H])(N([H])C([H])([H])[H])C([H])([H])[H])C(C([H])([H])[H])(C([H])([H])[H])C([H])([H])[H])C([H])([H])c2c([H])c(OC([H])([H])c3c([H])c([H])c4c(c3C([H])([H])[H])C(N([H])C(=O)N3C([H])([H])C([H])([H])C([H])([H])C([H])(n5nc(-c6c([H])c([H])c(Oc7c([H])c([H])c(F)c([H])c7F)c([H])c6[H])c(C(=O)N([H])[H])c5N([H])[H])C3([H])[H])(C([H])([H])C([H])([H])C([H])([H])[H])C([H])([H])[N+]([H])([H])C4([H])C([H])(C([H])([H])[H])C([H])([H])[H])c([H])c([H])c2C1([H])[H]

$$$$
56:0:0
     RDKit          3D

 86 94  0  0  1  0  0  0  0  0999 V2000
  -28.2400  -22.5600   18.4910 C   0  0  0  0  0  1  0  0  0  0  0  0
  -28.7910  -22.7350   19.9100 C   0  0  0  0  0  3  0  0  0  0  0  0
  -28.9070  -21.0770   20.6040 C   0  0  0  0  0  2  0  0  0  0  0  0
  -30.4720  -15.2590   20.1370 C   0  0  0  0  0  0  0  0  0  0  0  0
  -30.3590  -12.8370   19.2150 C   0  0  0  0  0  2  0  0  0  0  0  0
  -29.4160  -12.6280   18.0100 C   0  0  0  0  0  2  0  0  0  0  0  0
  -27.9780  -12.3620   18.4890 C   0  0  0  0  0  2  0  0  0  0  0  0
  -27.5540  -13.3260   19.6250 C   0  0  0  0  0  3  0  0  0  0  0  0
  -28.6310  -13.4910   20.7170 C   0  0  0  0  0  2  0  0  0  0  0  0
  -29.8330  -13.9920   20.0330 N   0  0  0  0  0  0  0  0  0  0  0  0
  -31.7000  -15.1530   19.9730 O   0  0  0  0  0  0  0  0  0  0  0  0
  -30.3450  -19.0370   19.0770 C   0  0  0  0  0  2  0  0  0  0  0  0
  -30.3570  -17.4600   18.7990 C   0  0  0  0  0  2  0  0  0  0  0  0
  -29.2970  -17.8640   20.7530 C   0  0  0  0  0  2  0  0  0  0  0  0
  -29.1530  -19.4000   19.9760 C   0  0  0  0  0  3  0  0  0  0  0  0
  -29.8460  -16.6010   19.9180 N   0  0  0  0  0  0  0  0  0  0  0  0
  -25.2050  -13.8770   20.4350 C   0  0  0  0  0  0  0  0  0  0  0  0
  -24.1510  -13.0960   20.8190 C   0  0  0  0  0  0  0  0  0  0  0  0
  -24.6200  -11.7470   20.7770 C   0  0  0  0  0  0  0  0  0  0  0  0
  -26.2430  -13.0050   20.1690 N   0  0  0  0  0  0  0  0  0  0  0  0
  -25.9060  -11.7170   20.4440 N   0  0  0  0  0  0  0  0  0  0  0  0
  -23.8980  -10.4830   20.9750 C   0  0  0  0  0  0  0  0  0  0  0  0
  -24.3330   -9.5210   21.9130 C   0  0  0  0  0  3  0  0  0  0  0  0
  -23.6080   -8.3230   22.1000 C   0  0  0  0  0  3  0  0  0  0  0  0
  -22.4330   -8.0800   21.3490 C   0  0  0  0  0  0  0  0  0  0  0  0
  -22.0170   -9.0310   20.4000 C   0  0  0  0  0  3  0  0  0  0  0  0
  -22.7430  -10.2190   20.2110 C   0  0  0  0  0  3  0  0  0  0  0  0
  -21.6790   -6.9360   21.4450 O   0  0  0  0  0  0  0  0  0  0  0  0
  -21.6220   -6.2080   22.6060 C   0  0  0  0  0  0  0  0  0  0  0  0
  -21.1650   -6.7720   23.8170 C   0  0  0  0  0  3  0  0  0  0  0  0
  -21.0560   -5.9700   24.9700 C   0  0  0  0  0  3  0  0  0  0  0  0
  -21.3920   -4.6040   24.9140 C   0  0  0  0  0  0  0  0  0  0  0  0
  -21.8420   -4.0390   23.7080 C   0  0  0  0  0  3  0  0  0  0  0  0
  -21.9530   -4.8380   22.5560 C   0  0  0  0  0  0  0  0  0  0  0  0
  -22.3660   -4.2840   21.3910 F   0  0  0  0  0  0  0  0  0  0  0  0
  -21.2800   -3.8310   26.0190 F   0  0  0  0  0  0  0  0  0  0  0  0
  -22.7570  -13.5700   21.1120 C   0  0  0  0  0  0  0  0  0  0  0  0
  -22.0430  -12.8690   21.9840 N   0  0  0  0  0  0  0  0  0  0  0  0
  -22.3130  -14.5970   20.6010 O   0  0  0  0  0  0  0  0  0  0  0  0
  -22.4180  -12.0400   22.4190 H   0  0  0  0  0  0  0  0  0  0  0  0
  -21.1080  -13.1680   22.2220 H   0  0  0  0  0  0  0  0  0  0  0  0
  -25.3640  -15.2490   20.2620 N   0  0  0  0  0  0  0  0  0  0  0  0
  -24.6040  -15.9060   20.3980 H   0  0  0  0  0  0  0  0  0  0  0  0
  -26.2150  -15.6890   19.9340 H   0  0  0  0  0  0  0  0  0  0  0  0
  -28.0800  -24.2750   20.5220 C   0  0  0  0  0  2  0  0  0  0  0  0
  -28.2770  -25.8840   20.2380 O   0  0  0  0  0  0  0  0  0  0  0  0
  -24.6390  -31.8240   23.1860 C   0  0  0  0  0  0  0  0  0  0  0  0
  -27.2430  -26.9540   20.2280 C   0  0  0  0  0  0  0  0  0  0  0  0
  -23.4670  -30.4160   21.5420 C   0  0  0  0  0  3  0  0  0  0  0  0
  -24.9350  -28.8110   20.1460 C   0  0  0  0  0  0  0  0  0  0  0  0
  -26.0330  -30.6430   21.4170 C   0  0  0  0  0  2  0  0  0  0  0  0
  -26.1160  -29.2300   20.7730 C   0  0  0  0  0  0  0  0  0  0  0  0
  -27.2690  -28.3260   20.7820 C   0  0  0  0  0  3  0  0  0  0  0  0
  -26.0310  -26.6780   19.5590 C   0  0  0  0  0  3  0  0  0  0  0  0
  -24.9170  -27.5550   19.5190 C   0  0  0  0  0  3  0  0  0  0  0  0
  -23.7130  -29.7270   20.1720 C   0  0  0  0  0  2  0  0  0  0  0  0
  -24.7350  -30.9880   22.1030 N   0  0  0  0  0  0  0  0  0  0  0  0
  -23.5430  -32.1130   23.6950 O   0  0  0  0  0  0  0  0  0  0  0  0
  -22.7670  -29.4220   22.5050 C   0  0  0  0  0  0  0  0  0  0  0  0
  -21.4360  -29.2690   22.3820 N   0  0  0  0  0  0  0  0  0  0  0  0
  -23.4300  -28.7880   23.3310 O   0  0  0  0  0  0  0  0  0  0  0  0
  -20.9560  -29.8320   21.6940 H   0  0  0  0  0  0  0  0  0  0  0  0
  -18.0410  -28.1020   22.9060 C   0  0  0  0  0  0  0  0  0  0  0  0
  -20.6060  -28.3360   23.1500 C   0  0  0  0  0  3  0  0  0  0  0  0
  -20.6850  -26.9080   22.5620 C   0  0  0  0  0  2  0  0  0  0  0  0
  -19.5710  -26.6070   21.5540 C   0  0  0  0  0  2  0  0  0  0  0  0
  -18.1970  -26.7600   22.2120 C   0  0  0  0  0  2  0  0  0  0  0  0
  -19.1710  -28.8490   23.3320 C   0  0  0  0  0  0  0  0  0  0  0  0
  -18.9700  -30.1050   23.9460 C   0  0  0  0  0  3  0  0  0  0  0  0
  -17.6710  -30.6140   24.1340 C   0  0  0  0  0  3  0  0  0  0  0  0
  -16.5550  -29.8660   23.7220 C   0  0  0  0  0  3  0  0  0  0  0  0
  -16.7420  -28.6110   23.1140 C   0  0  0  0  0  3  0  0  0  0  0  0
  -25.9020  -32.4750   23.8290 C   0  0  0  0  0  3  0  0  0  0  0  0
  -25.5770  -33.8750   24.1530 N   0  0  0  0  0  0  0  0  0  0  0  0
  -25.9170  -34.9350   23.4060 C   0  0  0  0  0  0  0  0  0  0  0  0
  -26.6000  -34.8360   22.3840 O   0  0  0  0  0  0  0  0  0  0  0  0
  -24.9700  -34.0240   24.9450 H   0  0  0  0  0  0  0  0  0  0  0  0
  -24.1930  -36.7340   23.0390 C   0  0  0  0  0  1  0  0  0  0  0  0
  -25.4230  -36.3230   23.8630 C   0  0  0  0  0  3  0  0  0  0  0  0
  -27.5440  -37.2090   24.7290 C   0  0  0  0  0  1  0  0  0  0  0  0
  -26.4580  -37.3770   23.7690 N   0  0  0  0  0  0  0  0  0  0  0  0
  -26.0500  -38.2970   23.9100 H   0  0  0  0  0  0  0  0  0  0  0  0
  -26.3940  -31.7200   25.1260 C   0  0  1  0  0  0  0  0  0  0  0  0
  -25.2810  -31.4930   26.1770 C   0  0  0  0  0  1  0  0  0  0  0  0
  -26.9870  -30.3380   24.7690 C   0  0  0  0  0  1  0  0  0  0  0  0
  -27.5310  -32.5230   25.8000 C   0  0  0  0  0  1  0  0  0  0  0  0
  2  1  1  0
  2 45  1  0
  2  3  1  0
  5 10  1  0
  6  7  1  0
  6  5  1  0
  8  7  1  0
  8 20  1  0
  8  9  1  0
 10  4  1  0
 10  9  1  0
 11  4  2  0
 12 15  1  0
 13 12  1  0
 13 16  1  0
 15  3  1  0
 15 14  1  0
 16  4  1  0
 16 14  1  0
 17 18  2  0
 18 37  1  0
 19 18  1  0
 19 22  1  0
 20 17  1  0
 20 21  1  0
 21 19  2  0
 22 23  1  0
 23 24  2  0
 25 28  1  0
 25 24  1  0
 26 25  2  0
 27 26  1  0
 27 22  2  0
 28 29  1  0
 29 30  1  0
 30 31  2  0
 32 31  1  0
 32 36  1  0
 33 32  2  0
 34 29  2  0
 34 33  1  0
 35 34  1  0
 37 38  1  0
 38 41  1  0
 38 40  1  0
 39 37  2  0
 42 43  1  0
 42 17  1  0
 44 42  1  0
 46 45  1  0
 47 58  2  0
 48 46  1  0
 48 53  1  0
 49 57  1  0
 49 59  1  0
 50 56  1  0
 50 52  1  0
 51 57  1  0
 52 53  2  0
 52 51  1  0
 54 48  2  0
 55 54  1  0
 55 50  2  0
 56 49  1  0
 57 47  1  0
 59 61  2  0
 60 59  1  0
 62 60  1  0
 63 72  2  0
 63 68  1  0
 64 60  1  0
 64 68  1  0
 65 64  1  0
 66 67  1  0
 66 65  1  0
 67 63  1  0
 68 69  2  0
 69 70  1  0
 71 70  2  0
 72 71  1  0
 73 47  1  0
 73 74  1  0
 73 83  1  0
 74 77  1  0
 75 79  1  0
 75 74  1  0
 76 75  2  0
 79 78  1  0
 81 79  1  0
 81 82  1  0
 81 80  1  0
 83 86  1  1
 83 84  1  0
 85 83  1  0
M  ISO  4   4 100  16 100  45 101  46 101
M  END
>  <TORSDO>  (56) 
F 18

>  <SCORE>  (56) 
-16.123

>  <name>  (56) 
56

>  <ligand_id>  (56) 
56

>  <original_smiles>  (56) 
[H]c1c([H])c([H])c2c(c1[H])C([H])([H])C([H])([H])C([H])([H])C2([H])N([H])C(=O)C1([H])N(C(=O)C([H])(N([H])C(=O)C([H])(N([H])C([H])([H])[H])C([H])([H])[H])C(C([H])([H])[H])(C([H])([H])[H])C([H])([H])[H])C([H])([H])c2c([H])c(OC([H])([H])C([H])(C([H])([H])[H])C([H])([H])C3([H])C([H])([H])N(C(=O)N4C([H])([H])C([H])([H])C([H])([H])C([H])(n5nc(-c6c([H])c([H])c(Oc7c([H])c([H])c(F)c([H])c7F)c([H])c6[H])c(C(=O)N([H])[H])c5N([H])[H])C4([H])[H])C([H])([H])C3([H])[H])c([H])c([H])c2C1([H])[H]

>  <smiles>  (56) 
[H]c1c([H])c([H])c2c(c1[H])C([H])([H])C([H])([H])C([H])([H])C2([H])N([H])C(=O)C1([H])N(C(=O)C([H])(N([H])C(=O)C([H])(N([H])C([H])([H])[H])C([H])([H])[H])C(C([H])([H])[H])(C([H])([H])[H])C([H])([H])[H])C([H])([H])c2c([H])c(OC([H])([H])C([H])(C([H])([H])[H])C([H])([H])C3([H])C([H])([H])N(C(=O)N4C([H])([H])C([H])([H])C([H])([H])C([H])(n5nc(-c6c([H])c([H])c(Oc7c([H])c([H])c(F)c([H])c7F)c([H])c6[H])c(C(=O)N([H])[H])c5N([H])[H])C4([H])[H])C([H])([H])C3([H])[H])c([H])c([H])c2C1([H])[H]

$$$$
57:0:0
     RDKit          3D

 96105  0  0  1  0  0  0  0  0999 V2000
  -29.6570  -20.4830   20.4630 C   0  0  0  0  0  0  0  0  0  0  0  0
  -30.7720  -20.5310   19.9410 O   0  0  0  0  0  0  0  0  0  0  0  0
  -30.8410  -14.8820   20.0450 C   0  0  0  0  0  0  0  0  0  0  0  0
  -30.5580  -12.6620   18.9410 C   0  0  0  0  0  2  0  0  0  0  0  0
  -29.5550  -12.7910   17.7760 C   0  0  0  0  0  2  0  0  0  0  0  0
  -28.1110  -12.6010   18.2790 C   0  0  0  0  0  2  0  0  0  0  0  0
  -27.8080  -13.4380   19.5520 C   0  0  0  0  0  3  0  0  0  0  0  0
  -28.9250  -13.3140   20.6080 C   0  0  0  0  0  2  0  0  0  0  0  0
  -30.1820  -13.6800   19.9480 N   0  0  0  0  0  0  0  0  0  0  0  0
  -32.0230  -14.9560   19.6860 O   0  0  0  0  0  0  0  0  0  0  0  0
  -29.8230  -18.1480   21.8160 C   0  0  0  0  0  2  0  0  0  0  0  0
  -30.7900  -17.0630   21.2220 C   0  0  0  0  0  2  0  0  0  0  0  0
  -29.5600  -16.8750   19.2470 C   0  0  0  0  0  2  0  0  0  0  0  0
  -29.0370  -19.0440   20.8010 C   0  0  0  0  0  3  0  0  0  0  0  0
  -28.5630  -18.0520   19.6570 C   0  0  0  0  0  3  0  0  0  0  0  0
  -30.1320  -16.0460   20.3540 N   0  0  0  0  0  0  0  0  0  0  0  0
  -25.4560  -13.9930   20.4120 C   0  0  0  0  0  0  0  0  0  0  0  0
  -24.4180  -13.2100   20.8240 C   0  0  0  0  0  0  0  0  0  0  0  0
  -24.8850  -11.8620   20.7310 C   0  0  0  0  0  0  0  0  0  0  0  0
  -26.4920  -13.1290   20.0990 N   0  0  0  0  0  0  0  0  0  0  0  0
  -26.1570  -11.8400   20.3540 N   0  0  0  0  0  0  0  0  0  0  0  0
  -24.1720  -10.5940   20.9130 C   0  0  0  0  0  0  0  0  0  0  0  0
  -24.5840   -9.6500   21.8810 C   0  0  0  0  0  3  0  0  0  0  0  0
  -23.8680   -8.4450   22.0520 C   0  0  0  0  0  3  0  0  0  0  0  0
  -22.7290   -8.1760   21.2590 C   0  0  0  0  0  0  0  0  0  0  0  0
  -22.3380   -9.1070   20.2800 C   0  0  0  0  0  3  0  0  0  0  0  0
  -23.0540  -10.3030   20.1050 C   0  0  0  0  0  3  0  0  0  0  0  0
  -21.9900   -7.0210   21.3380 O   0  0  0  0  0  0  0  0  0  0  0  0
  -21.8120   -6.3630   22.5270 C   0  0  0  0  0  0  0  0  0  0  0  0
  -21.1840   -6.9770   23.6330 C   0  0  0  0  0  3  0  0  0  0  0  0
  -20.9620   -6.2420   24.8130 C   0  0  0  0  0  3  0  0  0  0  0  0
  -21.3600   -4.8940   24.8900 C   0  0  0  0  0  0  0  0  0  0  0  0
  -21.9820   -4.2800   23.7880 C   0  0  0  0  0  3  0  0  0  0  0  0
  -22.2030   -5.0130   22.6090 C   0  0  0  0  0  0  0  0  0  0  0  0
  -22.7820   -4.4110   21.5430 F   0  0  0  0  0  0  0  0  0  0  0  0
  -21.1420   -4.1840   26.0210 F   0  0  0  0  0  0  0  0  0  0  0  0
  -23.0320  -13.6750   21.1660 C   0  0  0  0  0  0  0  0  0  0  0  0
  -22.3420  -12.9580   22.0430 N   0  0  0  0  0  0  0  0  0  0  0  0
  -22.5750  -14.7150   20.6840 O   0  0  0  0  0  0  0  0  0  0  0  0
  -22.7320  -12.1220   22.4540 H   0  0  0  0  0  0  0  0  0  0  0  0
  -21.4140  -13.2510   22.3150 H   0  0  0  0  0  0  0  0  0  0  0  0
  -25.5850  -15.3650   20.2300 N   0  0  0  0  0  0  0  0  0  0  0  0
  -24.6960  -15.8460   20.3190 H   0  0  0  0  0  0  0  0  0  0  0  0
  -26.0430  -15.5930   19.3590 H   0  0  0  0  0  0  0  0  0  0  0  0
  -27.9760  -18.7790   18.4100 C   0  0  0  0  0  2  0  0  0  0  0  0
  -26.8180  -18.0870   17.8060 N   0  0  0  0  0  4  0  0  0  0  0  0
  -27.0140  -17.1260   17.6010 H   0  0  0  0  0  0  0  0  0  0  0  0
  -26.5730  -18.5350   16.9390 H   0  0  0  0  0  0  0  0  0  0  0  0
  -26.0120  -18.1400   18.4040 H   0  0  0  0  0  0  0  0  0  0  0  0
  -28.1280  -22.5850   19.6590 C   0  0  0  0  0  2  0  0  0  0  0  0
  -29.6870  -22.9230   21.6900 C   0  0  0  0  0  2  0  0  0  0  0  0
  -28.4760  -24.0870   19.3080 C   0  0  0  0  0  2  0  0  0  0  0  0
  -29.5950  -24.4870   21.4010 C   0  0  0  0  0  2  0  0  0  0  0  0
  -28.9000  -21.8590   20.8240 C   0  0  0  0  0  3  0  0  0  0  0  0
  -28.4250  -25.0490   20.5340 C   0  0  0  0  0  3  0  0  0  0  0  0
  -28.5450  -26.5340   20.3010 O   0  0  0  0  0  0  0  0  0  0  0  0
  -24.6630  -31.9210   23.2310 C   0  0  0  0  0  0  0  0  0  0  0  0
  -27.4050  -27.3650   20.2520 C   0  0  0  0  0  0  0  0  0  0  0  0
  -23.5070  -30.5010   21.5730 C   0  0  0  0  0  3  0  0  0  0  0  0
  -25.0100  -28.9580   20.1770 C   0  0  0  0  0  0  0  0  0  0  0  0
  -26.0440  -30.8580   21.4220 C   0  0  0  0  0  2  0  0  0  0  0  0
  -26.1610  -29.4710   20.7900 C   0  0  0  0  0  0  0  0  0  0  0  0
  -27.3590  -28.6890   20.8070 C   0  0  0  0  0  3  0  0  0  0  0  0
  -26.2230  -26.9070   19.6290 C   0  0  0  0  0  3  0  0  0  0  0  0
  -25.0470  -27.6850   19.5840 C   0  0  0  0  0  3  0  0  0  0  0  0
  -23.7580  -29.8180   20.1980 C   0  0  0  0  0  2  0  0  0  0  0  0
  -24.7570  -31.1100   22.1350 N   0  0  0  0  0  0  0  0  0  0  0  0
  -23.5660  -32.1790   23.7490 O   0  0  0  0  0  0  0  0  0  0  0  0
  -22.8450  -29.4800   22.5310 C   0  0  0  0  0  0  0  0  0  0  0  0
  -21.5210  -29.2860   22.3870 N   0  0  0  0  0  0  0  0  0  0  0  0
  -23.5180  -28.8650   23.3600 O   0  0  0  0  0  0  0  0  0  0  0  0
  -21.0310  -29.8390   21.6960 H   0  0  0  0  0  0  0  0  0  0  0  0
  -18.1460  -28.0730   22.8850 C   0  0  0  0  0  0  0  0  0  0  0  0
  -20.7070  -28.3360   23.1500 C   0  0  0  0  0  3  0  0  0  0  0  0
  -20.8090  -26.9120   22.5560 C   0  0  0  0  0  2  0  0  0  0  0  0
  -19.7060  -26.6010   21.5400 C   0  0  0  0  0  2  0  0  0  0  0  0
  -18.3260  -26.7340   22.1890 C   0  0  0  0  0  2  0  0  0  0  0  0
  -19.2650  -28.8310   23.3220 C   0  0  0  0  0  0  0  0  0  0  0  0
  -19.0460  -30.0860   23.9340 C   0  0  0  0  0  3  0  0  0  0  0  0
  -17.7400  -30.5810   24.1120 C   0  0  0  0  0  3  0  0  0  0  0  0
  -16.6360  -29.8200   23.6880 C   0  0  0  0  0  3  0  0  0  0  0  0
  -16.8410  -28.5660   23.0820 C   0  0  0  0  0  3  0  0  0  0  0  0
  -25.9230  -32.5830   23.8740 C   0  0  0  0  0  3  0  0  0  0  0  0
  -26.4170  -31.8320   25.1710 C   0  0  1  0  0  0  0  0  0  0  0  0
  -25.3030  -31.5880   26.2150 C   0  0  0  0  0  1  0  0  0  0  0  0
  -27.0280  -30.4600   24.8030 C   0  0  0  0  0  1  0  0  0  0  0  0
  -27.5440  -32.6440   25.8490 C   0  0  0  0  0  1  0  0  0  0  0  0
  -25.5900  -33.9810   24.1820 N   0  0  0  0  0  0  0  0  0  0  0  0
  -25.9090  -35.0280   23.4120 C   0  0  0  0  0  0  0  0  0  0  0  0
  -26.5850  -34.9240   22.3870 O   0  0  0  0  0  0  0  0  0  0  0  0
  -24.9990  -34.1400   24.9850 H   0  0  0  0  0  0  0  0  0  0  0  0
  -24.1530  -36.7850   23.0200 C   0  0  0  0  0  1  0  0  0  0  0  0
  -25.3920  -36.4130   23.8490 C   0  0  0  0  0  3  0  0  0  0  0  0
  -27.5110  -37.3370   24.6770 C   0  0  0  0  0  1  0  0  0  0  0  0
  -26.4000  -37.4910   23.7420 N   0  0  0  0  0  0  0  0  0  0  0  0
  -25.9690  -38.3960   23.9160 H   0  0  0  0  0  0  0  0  0  0  0  0
  2  1  2  0
  3 16  1  0
  4  9  1  0
  5  6  1  0
  5  4  1  0
  7  6  1  0
  7 20  1  0
  7  8  1  0
  9  3  1  0
  9  8  1  0
 10  3  2  0
 12 11  1  0
 13 15  1  0
 13 16  1  0
 14  1  1  0
 14 11  1  0
 15 45  1  0
 15 14  1  0
 16 12  1  0
 17 18  2  0
 18 37  1  0
 19 18  1  0
 19 22  1  0
 20 21  1  0
 20 17  1  0
 21 19  2  0
 22 23  1  0
 23 24  2  0
 25 28  1  0
 25 24  1  0
 26 25  2  0
 27 26  1  0
 27 22  2  0
 28 29  1  0
 29 34  2  0
 29 30  1  0
 30 31  2  0
 31 32  1  0
 32 36  1  0
 33 32  2  0
 34 33  1  0
 35 34  1  0
 37 38  1  0
 38 41  1  0
 38 40  1  0
 39 37  2  0
 42 43  1  0
 42 17  1  0
 44 42  1  0
 46 49  1  0
 46 45  1  0
 47 46  1  0
 48 46  1  0
 50 54  1  0
 52 50  1  0
 52 55  1  0
 53 51  1  0
 54  1  1  0
 54 51  1  0
 55 56  1  0
 55 53  1  0
 57 68  2  0
 58 56  1  0
 58 63  1  0
 59 67  1  0
 59 69  1  0
 60 66  1  0
 60 62  1  0
 61 67  1  0
 62 63  2  0
 62 61  1  0
 64 58  2  0
 65 64  1  0
 65 60  2  0
 66 59  1  0
 67 57  1  0
 69 71  2  0
 70 69  1  0
 72 70  1  0
 73 82  2  0
 73 78  1  0
 74 70  1  0
 74 78  1  0
 75 74  1  0
 76 77  1  0
 76 75  1  0
 77 73  1  0
 78 79  2  0
 79 80  1  0
 81 80  2  0
 82 81  1  0
 83 57  1  0
 83 88  1  0
 83 84  1  0
 84 87  1  1
 84 85  1  0
 86 84  1  0
 88 91  1  0
 89 93  1  0
 89 88  1  0
 90 89  2  0
 93 92  1  0
 95 93  1  0
 95 96  1  0
 95 94  1  0
M  ISO  4   3 100  16 100  55 101  56 101
M  END
>  <TORSDO>  (57) 
F 19

>  <SCORE>  (57) 
-13.188

>  <name>  (57) 
57

>  <ligand_id>  (57) 
57

>  <original_smiles>  (57) 
[H]c1c([H])c([H])c2c(c1[H])C([H])([H])C([H])([H])C([H])([H])C2([H])N([H])C(=O)C1([H])N(C(=O)C([H])(N([H])C(=O)C([H])(N([H])C([H])([H])[H])C([H])([H])[H])C(C([H])([H])[H])(C([H])([H])[H])C([H])([H])[H])C([H])([H])c2c([H])c(OC3([H])C([H])([H])C([H])([H])C([H])(C(=O)C4([H])C([H])([H])C([H])([H])N(C(=O)N5C([H])([H])C([H])([H])C([H])([H])C([H])(n6nc(-c7c([H])c([H])c(Oc8c([H])c([H])c(F)c([H])c8F)c([H])c7[H])c(C(=O)N([H])[H])c6N([H])[H])C5([H])[H])C([H])([H])C4([H])C([H])([H])[N+]([H])([H])[H])C([H])([H])C3([H])[H])c([H])c([H])c2C1([H])[H]

>  <smiles>  (57) 
[H]c1c([H])c([H])c2c(c1[H])C([H])([H])C([H])([H])C([H])([H])C2([H])N([H])C(=O)C1([H])N(C(=O)C([H])(N([H])C(=O)C([H])(N([H])C([H])([H])[H])C([H])([H])[H])C(C([H])([H])[H])(C([H])([H])[H])C([H])([H])[H])C([H])([H])c2c([H])c(OC3([H])C([H])([H])C([H])([H])C([H])(C(=O)C4([H])C([H])([H])C([H])([H])N(C(=O)N5C([H])([H])C([H])([H])C([H])([H])C([H])(n6nc(-c7c([H])c([H])c(Oc8c([H])c([H])c(F)c([H])c8F)c([H])c7[H])c(C(=O)N([H])[H])c6N([H])[H])C5([H])[H])C([H])([H])C4([H])C([H])([H])[N+]([H])([H])[H])C([H])([H])C3([H])[H])c([H])c([H])c2C1([H])[H]

$$$$
58:0:0
     RDKit          3D

 96104  0  0  1  0  0  0  0  0999 V2000
  -30.6600  -20.0310   19.3630 C   0  0  0  0  0  3  0  0  0  0  0  0
  -27.6440  -17.8930   19.7390 C   0  0  0  0  0  2  0  0  0  0  0  0
  -28.7570  -17.0930   19.0840 C   0  0  0  0  0  2  0  0  0  0  0  0
  -28.2940  -19.2680   19.8070 C   0  0  0  0  0  2  0  0  0  0  0  0
  -30.0070  -17.5920   19.8270 C   0  0  0  0  0  3  0  0  0  0  0  0
  -29.7480  -19.0560   20.0610 N   0  0  1  0  0  4  0  0  0  0  0  0
  -29.9330  -19.2150   21.0430 H   0  0  0  0  0  0  0  0  0  0  0  0
  -30.2600  -16.8370   21.1770 C   0  0  0  0  0  2  0  0  0  0  0  0
  -30.6740  -14.4410   20.4680 C   0  0  0  0  0  0  0  0  0  0  0  0
  -30.3400  -12.3330   19.2260 C   0  0  0  0  0  2  0  0  0  0  0  0
  -29.3730  -12.5950   18.0520 C   0  0  0  0  0  2  0  0  0  0  0  0
  -27.9040  -12.4470   18.4980 C   0  0  0  0  0  2  0  0  0  0  0  0
  -27.5940  -13.2140   19.8100 C   0  0  0  0  0  3  0  0  0  0  0  0
  -28.6780  -12.9440   20.8820 C   0  0  0  0  0  2  0  0  0  0  0  0
  -29.9980  -13.2690   20.3070 N   0  0  0  0  0  0  0  0  0  0  0  0
  -31.7480  -14.6930   19.9200 O   0  0  0  0  0  0  0  0  0  0  0  0
  -30.0050  -15.3850   21.1430 N   0  0  0  0  0  0  0  0  0  0  0  0
  -29.1540  -15.0670   21.5870 H   0  0  0  0  0  0  0  0  0  0  0  0
  -25.2020  -13.8200   20.5370 C   0  0  0  0  0  0  0  0  0  0  0  0
  -24.1420  -13.0440   20.9180 C   0  0  0  0  0  0  0  0  0  0  0  0
  -24.6070  -11.6940   20.8750 C   0  0  0  0  0  0  0  0  0  0  0  0
  -26.2480  -12.9410   20.2980 N   0  0  0  0  0  0  0  0  0  0  0  0
  -25.8940  -11.6580   20.5520 N   0  0  0  0  0  0  0  0  0  0  0  0
  -23.8890  -10.4280   21.0650 C   0  0  0  0  0  0  0  0  0  0  0  0
  -24.3440   -9.4530   21.9810 C   0  0  0  0  0  3  0  0  0  0  0  0
  -23.6260   -8.2520   22.1590 C   0  0  0  0  0  3  0  0  0  0  0  0
  -22.4430   -8.0160   21.4210 C   0  0  0  0  0  0  0  0  0  0  0  0
  -22.0070   -8.9790   20.4940 C   0  0  0  0  0  3  0  0  0  0  0  0
  -22.7260  -10.1730   20.3140 C   0  0  0  0  0  3  0  0  0  0  0  0
  -21.6980   -6.8660   21.5090 O   0  0  0  0  0  0  0  0  0  0  0  0
  -21.6800   -6.1040   22.6500 C   0  0  0  0  0  0  0  0  0  0  0  0
  -21.2860   -6.6390   23.8950 C   0  0  0  0  0  3  0  0  0  0  0  0
  -21.2160   -5.8050   25.0280 C   0  0  0  0  0  3  0  0  0  0  0  0
  -21.5320   -4.4370   24.9180 C   0  0  0  0  0  0  0  0  0  0  0  0
  -21.9220   -3.9020   23.6770 C   0  0  0  0  0  3  0  0  0  0  0  0
  -21.9920   -4.7330   22.5450 C   0  0  0  0  0  0  0  0  0  0  0  0
  -22.3490   -4.2090   21.3490 F   0  0  0  0  0  0  0  0  0  0  0  0
  -21.4540   -3.6330   26.0040 F   0  0  0  0  0  0  0  0  0  0  0  0
  -22.7460  -13.5160   21.2080 C   0  0  0  0  0  0  0  0  0  0  0  0
  -22.0310  -12.8120   22.0780 N   0  0  0  0  0  0  0  0  0  0  0  0
  -22.2990  -14.5430   20.6990 O   0  0  0  0  0  0  0  0  0  0  0  0
  -22.4040  -11.9790   22.5080 H   0  0  0  0  0  0  0  0  0  0  0  0
  -21.0960  -13.1120   22.3150 H   0  0  0  0  0  0  0  0  0  0  0  0
  -25.3560  -15.1910   20.3560 N   0  0  0  0  0  0  0  0  0  0  0  0
  -24.5690  -15.8270   20.4300 H   0  0  0  0  0  0  0  0  0  0  0  0
  -26.1660  -15.6120   19.9220 H   0  0  0  0  0  0  0  0  0  0  0  0
  -31.9740  -20.0170   20.1720 C   0  0  0  0  0  0  0  0  0  0  0  0
  -33.2850  -20.2370   19.4250 C   0  0  0  0  0  1  0  0  0  0  0  0
  -31.9960  -19.8400   21.3930 O   0  0  0  0  0  0  0  0  0  0  0  0
  -30.0820  -21.5000   19.2800 C   0  0  0  0  0  2  0  0  0  0  0  0
  -31.2910  -22.0110   17.0670 C   0  0  0  0  0  1  0  0  0  0  0  0
  -30.8420  -22.5660   18.4350 C   0  0  0  0  0  3  0  0  0  0  0  0
  -29.9810  -23.8330   18.1640 C   0  0  0  0  0  2  0  0  0  0  0  0
  -29.6000  -24.7090   19.3790 C   0  0  0  0  0  2  0  0  0  0  0  0
  -28.7480  -25.9290   18.9570 C   0  0  0  0  0  2  0  0  0  0  0  0
  -28.4120  -26.7430   20.0910 O   0  0  0  0  0  0  0  0  0  0  0  0
  -24.5760  -31.8580   23.2340 C   0  0  0  0  0  0  0  0  0  0  0  0
  -27.2200  -27.4440   20.0900 C   0  0  0  0  0  0  0  0  0  0  0  0
  -23.3640  -30.4630   21.5910 C   0  0  0  0  0  3  0  0  0  0  0  0
  -24.8120  -28.9370   20.1510 C   0  0  0  0  0  0  0  0  0  0  0  0
  -25.8890  -30.8240   21.3860 C   0  0  0  0  0  2  0  0  0  0  0  0
  -25.9720  -29.4580   20.7360 C   0  0  0  0  0  0  0  0  0  0  0  0
  -27.1740  -28.7130   20.7130 C   0  0  0  0  0  3  0  0  0  0  0  0
  -26.0280  -26.9240   19.5320 C   0  0  0  0  0  3  0  0  0  0  0  0
  -24.8330  -27.6660   19.5550 C   0  0  0  0  0  3  0  0  0  0  0  0
  -23.5660  -29.7930   20.2070 C   0  0  0  0  0  2  0  0  0  0  0  0
  -24.6280  -31.0620   22.1290 N   0  0  0  0  0  0  0  0  0  0  0  0
  -23.4960  -32.1290   23.7780 O   0  0  0  0  0  0  0  0  0  0  0  0
  -22.7180  -29.4360   22.5470 C   0  0  0  0  0  0  0  0  0  0  0  0
  -21.3930  -29.2550   22.4220 N   0  0  0  0  0  0  0  0  0  0  0  0
  -23.4030  -28.8060   23.3560 O   0  0  0  0  0  0  0  0  0  0  0  0
  -20.9010  -29.8150   21.7400 H   0  0  0  0  0  0  0  0  0  0  0  0
  -18.0180  -28.0690   22.9240 C   0  0  0  0  0  0  0  0  0  0  0  0
  -20.5770  -28.3150   23.1890 C   0  0  0  0  0  3  0  0  0  0  0  0
  -20.6720  -26.8880   22.6010 C   0  0  0  0  0  2  0  0  0  0  0  0
  -19.5650  -26.5770   21.5880 C   0  0  0  0  0  2  0  0  0  0  0  0
  -18.1870  -26.7240   22.2380 C   0  0  0  0  0  2  0  0  0  0  0  0
  -19.1410  -28.8230   23.3560 C   0  0  0  0  0  0  0  0  0  0  0  0
  -18.9290  -30.0840   23.9550 C   0  0  0  0  0  3  0  0  0  0  0  0
  -17.6270  -30.5890   24.1280 C   0  0  0  0  0  3  0  0  0  0  0  0
  -16.5180  -29.8310   23.7150 C   0  0  0  0  0  3  0  0  0  0  0  0
  -16.7140  -28.5730   23.1190 C   0  0  0  0  0  3  0  0  0  0  0  0
  -25.8650  -32.4860   23.8510 C   0  0  0  0  0  3  0  0  0  0  0  0
  -25.5600  -33.8830   24.1870 N   0  0  0  0  0  0  0  0  0  0  0  0
  -25.8870  -34.9360   23.4270 C   0  0  0  0  0  0  0  0  0  0  0  0
  -26.5520  -34.8340   22.3910 O   0  0  0  0  0  0  0  0  0  0  0  0
  -24.9720  -34.0360   24.9930 H   0  0  0  0  0  0  0  0  0  0  0  0
  -24.1560  -36.7260   23.0810 C   0  0  0  0  0  1  0  0  0  0  0  0
  -25.4000  -36.3220   23.8870 C   0  0  0  0  0  3  0  0  0  0  0  0
  -27.5390  -37.2050   24.7100 C   0  0  0  0  0  1  0  0  0  0  0  0
  -26.4310  -37.3760   23.7720 N   0  0  0  0  0  0  0  0  0  0  0  0
  -26.0260  -38.2950   23.9270 H   0  0  0  0  0  0  0  0  0  0  0  0
  -26.3880  -31.7090   25.1210 C   0  0  1  0  0  0  0  0  0  0  0  0
  -25.3000  -31.4680   26.1930 C   0  0  0  0  0  1  0  0  0  0  0  0
  -26.9680  -30.3320   24.7190 C   0  0  0  0  0  1  0  0  0  0  0  0
  -27.5420  -32.4980   25.7800 C   0  0  0  0  0  1  0  0  0  0  0  0
  1 50  1  0
  1  6  1  0
  1 47  1  0
  2  4  1  0
  3  2  1  0
  3  5  1  0
  4  6  1  0
  5  6  1  0
  5  8  1  0
  6  7  1  1
  9 17  1  0
 10 15  1  0
 11 12  1  0
 11 10  1  0
 13 12  1  0
 13 22  1  0
 13 14  1  0
 15  9  1  0
 15 14  1  0
 16  9  2  0
 17  8  1  0
 17 18  1  0
 19 20  2  0
 20 39  1  0
 21 20  1  0
 21 24  1  0
 22 19  1  0
 22 23  1  0
 23 21  2  0
 24 25  1  0
 25 26  2  0
 27 30  1  0
 27 26  1  0
 28 27  2  0
 29 28  1  0
 29 24  2  0
 30 31  1  0
 31 32  1  0
 32 33  2  0
 34 33  1  0
 34 38  1  0
 35 34  2  0
 36 31  2  0
 36 35  1  0
 37 36  1  0
 39 40  1  0
 40 43  1  0
 40 42  1  0
 41 39  2  0
 44 45  1  0
 44 19  1  0
 46 44  1  0
 47 49  2  0
 48 47  1  0
 52 51  1  0
 52 50  1  0
 53 52  1  0
 53 54  1  0
 55 54  1  0
 55 56  1  0
 57 68  2  0
 58 56  1  0
 58 63  1  0
 59 67  1  0
 59 69  1  0
 60 66  1  0
 60 62  1  0
 61 67  1  0
 62 61  1  0
 63 62  2  0
 64 65  1  0
 64 58  2  0
 65 60  2  0
 66 59  1  0
 67 57  1  0
 69 71  2  0
 70 69  1  0
 72 70  1  0
 73 82  2  0
 73 78  1  0
 74 70  1  0
 74 78  1  0
 75 74  1  0
 76 77  1  0
 76 75  1  0
 77 73  1  0
 78 79  2  0
 79 80  1  0
 81 80  2  0
 82 81  1  0
 83 57  1  0
 83 84  1  0
 83 93  1  0
 84 87  1  0
 85 89  1  0
 85 84  1  0
 86 85  2  0
 89 88  1  0
 91 89  1  0
 91 92  1  0
 91 90  1  0
 93 96  1  1
 93 94  1  0
 95 93  1  0
M  ISO  4   9 100  17 100  55 101  56 101
M  END
>  <TORSDO>  (58) 
F 24

>  <SCORE>  (58) 
-12.843

>  <name>  (58) 
58

>  <ligand_id>  (58) 
58

>  <original_smiles>  (58) 
[H]c1c([H])c([H])c2c(c1[H])C([H])([H])C([H])([H])C([H])([H])C2([H])N([H])C(=O)C1([H])N(C(=O)C([H])(N([H])C(=O)C([H])(N([H])C([H])([H])[H])C([H])([H])[H])C(C([H])([H])[H])(C([H])([H])[H])C([H])([H])[H])C([H])([H])c2c([H])c(OC([H])([H])C([H])([H])C([H])([H])C([H])(C([H])([H])[H])C([H])([H])C([H])(C(=O)C([H])([H])[H])[N+]3([H])C([H])([H])C([H])([H])C([H])([H])C3([H])C([H])([H])N([H])C(=O)N3C([H])([H])C([H])([H])C([H])([H])C([H])(n4nc(-c5c([H])c([H])c(Oc6c([H])c([H])c(F)c([H])c6F)c([H])c5[H])c(C(=O)N([H])[H])c4N([H])[H])C3([H])[H])c([H])c([H])c2C1([H])[H]

>  <smiles>  (58) 
[H]c1c([H])c([H])c2c(c1[H])C([H])([H])C([H])([H])C([H])([H])C2([H])N([H])C(=O)C1([H])N(C(=O)C([H])(N([H])C(=O)C([H])(N([H])C([H])([H])[H])C([H])([H])[H])C(C([H])([H])[H])(C([H])([H])[H])C([H])([H])[H])C([H])([H])c2c([H])c(OC([H])([H])C([H])([H])C([H])([H])C([H])(C([H])([H])[H])C([H])([H])C([H])(C(=O)C([H])([H])[H])[N+]3([H])C([H])([H])C([H])([H])C([H])([H])C3([H])C([H])([H])N([H])C(=O)N3C([H])([H])C([H])([H])C([H])([H])C([H])(n4nc(-c5c([H])c([H])c(Oc6c([H])c([H])c(F)c([H])c6F)c([H])c5[H])c(C(=O)N([H])[H])c4N([H])[H])C3([H])[H])c([H])c([H])c2C1([H])[H]

$$$$
59:0:0
     RDKit          3D

 91 98  0  0  1  0  0  0  0  0999 V2000
  -28.9230  -23.3370   20.1010 C   0  0  0  0  0  3  0  0  0  0  0  0
  -27.8000  -24.6890   22.0420 C   0  0  0  0  0  1  0  0  0  0  0  0
  -27.9730  -24.6790   20.5180 C   0  0  0  0  0  3  0  0  0  0  0  0
  -28.2530  -26.1850   20.2000 O   0  0  0  0  0  0  0  0  0  0  0  0
  -24.6420  -31.8720   23.2200 C   0  0  0  0  0  0  0  0  0  0  0  0
  -27.1970  -27.1680   20.1700 C   0  0  0  0  0  0  0  0  0  0  0  0
  -23.4310  -30.4790   21.5900 C   0  0  0  0  0  3  0  0  0  0  0  0
  -24.8700  -28.9120   20.1490 C   0  0  0  0  0  0  0  0  0  0  0  0
  -25.9840  -30.7490   21.4020 C   0  0  0  0  0  2  0  0  0  0  0  0
  -26.0530  -29.3570   20.7530 C   0  0  0  0  0  0  0  0  0  0  0  0
  -27.2190  -28.5030   20.7440 C   0  0  0  0  0  3  0  0  0  0  0  0
  -25.9930  -26.8300   19.5150 C   0  0  0  0  0  3  0  0  0  0  0  0
  -24.8530  -27.6640   19.5140 C   0  0  0  0  0  3  0  0  0  0  0  0
  -23.6430  -29.8100   20.2070 C   0  0  0  0  0  2  0  0  0  0  0  0
  -24.7070  -31.0550   22.1240 N   0  0  0  0  0  0  0  0  0  0  0  0
  -23.5590  -32.1490   23.7580 O   0  0  0  0  0  0  0  0  0  0  0  0
  -22.7670  -29.4640   22.5530 C   0  0  0  0  0  0  0  0  0  0  0  0
  -21.4390  -29.2860   22.4340 N   0  0  0  0  0  0  0  0  0  0  0  0
  -23.4450  -28.8410   23.3740 O   0  0  0  0  0  0  0  0  0  0  0  0
  -20.9480  -29.8320   21.7410 H   0  0  0  0  0  0  0  0  0  0  0  0
  -18.0640  -28.0710   22.9410 C   0  0  0  0  0  0  0  0  0  0  0  0
  -20.6230  -28.3460   23.2080 C   0  0  0  0  0  3  0  0  0  0  0  0
  -20.7340  -26.9150   22.6350 C   0  0  0  0  0  2  0  0  0  0  0  0
  -19.6310  -26.5820   21.6250 C   0  0  0  0  0  2  0  0  0  0  0  0
  -18.2480  -26.7220   22.2670 C   0  0  0  0  0  2  0  0  0  0  0  0
  -19.1790  -28.8410   23.3680 C   0  0  0  0  0  0  0  0  0  0  0  0
  -18.9500  -30.1050   23.9550 C   0  0  0  0  0  3  0  0  0  0  0  0
  -17.6420  -30.5930   24.1280 C   0  0  0  0  0  3  0  0  0  0  0  0
  -16.5420  -29.8190   23.7190 C   0  0  0  0  0  3  0  0  0  0  0  0
  -16.7540  -28.5620   23.1250 C   0  0  0  0  0  3  0  0  0  0  0  0
  -25.9220  -32.5110   23.8360 C   0  0  0  0  0  3  0  0  0  0  0  0
  -25.6100  -33.9090   24.1690 N   0  0  0  0  0  0  0  0  0  0  0  0
  -25.9370  -34.9660   23.4160 C   0  0  0  0  0  0  0  0  0  0  0  0
  -26.6030  -34.8690   22.3810 O   0  0  0  0  0  0  0  0  0  0  0  0
  -25.0190  -34.0600   24.9750 H   0  0  0  0  0  0  0  0  0  0  0  0
  -24.2100  -36.7670   23.0860 C   0  0  0  0  0  1  0  0  0  0  0  0
  -25.4550  -36.3530   23.8850 C   0  0  0  0  0  3  0  0  0  0  0  0
  -27.5960  -37.2350   24.7050 C   0  0  0  0  0  1  0  0  0  0  0  0
  -26.4860  -37.4080   23.7720 N   0  0  0  0  0  0  0  0  0  0  0  0
  -26.0800  -38.3270   23.9290 H   0  0  0  0  0  0  0  0  0  0  0  0
  -26.4380  -31.7440   25.1170 C   0  0  1  0  0  0  0  0  0  0  0  0
  -25.3460  -31.5150   26.1880 C   0  0  0  0  0  1  0  0  0  0  0  0
  -27.0180  -30.3640   24.7310 C   0  0  0  0  0  1  0  0  0  0  0  0
  -27.5920  -32.5390   25.7700 C   0  0  0  0  0  1  0  0  0  0  0  0
  -28.7460  -23.2060   18.7030 O   0  0  0  0  0  0  0  0  0  0  0  0
  -28.6960  -24.0890   18.3440 H   0  0  0  0  0  0  0  0  0  0  0  0
  -28.6970  -21.7580   20.6700 C   0  0  0  0  0  2  0  0  0  0  0  0
  -29.5820  -20.5230   20.2220 N   0  0  0  0  0  4  0  0  0  0  0  0
  -29.6410  -20.5810   19.2170 H   0  0  0  0  0  0  0  0  0  0  0  0
  -30.5100  -20.7080   20.5660 H   0  0  0  0  0  0  0  0  0  0  0  0
  -29.2370  -19.0140   20.5770 C   0  0  0  0  0  2  0  0  0  0  0  0
  -31.5780  -17.9910   21.1350 C   0  0  0  0  0  1  0  0  0  0  0  0
  -30.2960  -17.7190   20.3180 C   0  0  0  0  0  3  0  0  0  0  0  0
  -30.5930  -14.9730   20.2710 C   0  0  0  0  0  0  0  0  0  0  0  0
  -30.3950  -12.6310   19.3250 C   0  0  0  0  0  2  0  0  0  0  0  0
  -29.4630  -12.6130   18.0930 C   0  0  0  0  0  2  0  0  0  0  0  0
  -28.0000  -12.4050   18.5250 C   0  0  0  0  0  2  0  0  0  0  0  0
  -27.6020  -13.3240   19.7090 C   0  0  0  0  0  3  0  0  0  0  0  0
  -28.6640  -13.3460   20.8310 C   0  0  0  0  0  2  0  0  0  0  0  0
  -29.9450  -13.7360   20.2230 N   0  0  0  0  0  0  0  0  0  0  0  0
  -31.7760  -14.9930   19.9250 O   0  0  0  0  0  0  0  0  0  0  0  0
  -29.8960  -16.1910   20.5020 N   0  0  0  0  0  0  0  0  0  0  0  0
  -28.9360  -16.0440   20.7750 H   0  0  0  0  0  0  0  0  0  0  0  0
  -25.2180  -13.8840   20.4590 C   0  0  0  0  0  0  0  0  0  0  0  0
  -24.1620  -13.1000   20.8360 C   0  0  0  0  0  0  0  0  0  0  0  0
  -24.6380  -11.7530   20.8060 C   0  0  0  0  0  0  0  0  0  0  0  0
  -26.2680  -13.0150   20.2130 N   0  0  0  0  0  0  0  0  0  0  0  0
  -25.9280  -11.7270   20.4910 N   0  0  0  0  0  0  0  0  0  0  0  0
  -23.9170  -10.4850   21.0000 C   0  0  0  0  0  0  0  0  0  0  0  0
  -24.3440   -9.5250   21.9440 C   0  0  0  0  0  3  0  0  0  0  0  0
  -23.6210   -8.3270   22.1260 C   0  0  0  0  0  3  0  0  0  0  0  0
  -22.4560   -8.0780   21.3620 C   0  0  0  0  0  0  0  0  0  0  0  0
  -22.0480   -9.0230   20.4050 C   0  0  0  0  0  3  0  0  0  0  0  0
  -22.7730  -10.2130   20.2210 C   0  0  0  0  0  3  0  0  0  0  0  0
  -21.7080   -6.9270   21.4500 O   0  0  0  0  0  0  0  0  0  0  0  0
  -21.6380   -6.2000   22.6100 C   0  0  0  0  0  0  0  0  0  0  0  0
  -21.1770   -6.7660   23.8200 C   0  0  0  0  0  3  0  0  0  0  0  0
  -21.0650   -5.9670   24.9750 C   0  0  0  0  0  3  0  0  0  0  0  0
  -21.3960   -4.5990   24.9200 C   0  0  0  0  0  0  0  0  0  0  0  0
  -21.8460   -4.0330   23.7150 C   0  0  0  0  0  3  0  0  0  0  0  0
  -21.9640   -4.8300   22.5650 C   0  0  0  0  0  0  0  0  0  0  0  0
  -22.3800   -4.2710   21.4020 F   0  0  0  0  0  0  0  0  0  0  0  0
  -21.2760   -3.8290   26.0270 F   0  0  0  0  0  0  0  0  0  0  0  0
  -22.7610  -13.5660   21.1110 C   0  0  0  0  0  0  0  0  0  0  0  0
  -22.0390  -12.8670   21.9780 N   0  0  0  0  0  0  0  0  0  0  0  0
  -22.3170  -14.5890   20.5890 O   0  0  0  0  0  0  0  0  0  0  0  0
  -22.4050  -12.0330   22.4120 H   0  0  0  0  0  0  0  0  0  0  0  0
  -21.1000  -13.1620   22.2040 H   0  0  0  0  0  0  0  0  0  0  0  0
  -25.3800  -15.2560   20.2800 N   0  0  0  0  0  0  0  0  0  0  0  0
  -24.6260  -15.9230   20.4060 H   0  0  0  0  0  0  0  0  0  0  0  0
  -26.2300  -15.6860   19.9370 H   0  0  0  0  0  0  0  0  0  0  0  0
  1  3  1  0
  1 47  1  0
  3  2  1  0
  4  3  1  0
  5 16  2  0
  6  4  1  0
  6 11  1  0
  7 15  1  0
  7 17  1  0
  8 14  1  0
  8 10  1  0
  9 15  1  0
 10  9  1  0
 11 10  2  0
 12  6  2  0
 13 12  1  0
 13  8  2  0
 14  7  1  0
 15  5  1  0
 17 19  2  0
 18 17  1  0
 20 18  1  0
 21 30  2  0
 21 26  1  0
 22 18  1  0
 22 26  1  0
 23 22  1  0
 24 25  1  0
 24 23  1  0
 25 21  1  0
 26 27  2  0
 27 28  1  0
 29 28  2  0
 30 29  1  0
 31  5  1  0
 31 32  1  0
 31 41  1  0
 32 35  1  0
 33 37  1  0
 33 32  1  0
 34 33  2  0
 37 36  1  0
 39 37  1  0
 39 40  1  0
 39 38  1  0
 41 44  1  1
 41 42  1  0
 43 41  1  0
 45  1  1  0
 46 45  1  0
 48 50  1  0
 48 51  1  0
 48 47  1  0
 49 48  1  0
 53 62  1  0
 53 51  1  0
 53 52  1  0
 54 62  1  0
 55 60  1  0
 56 57  1  0
 56 55  1  0
 58 57  1  0
 58 67  1  0
 58 59  1  0
 60 54  1  0
 60 59  1  0
 61 54  2  0
 62 63  1  0
 64 65  2  0
 65 84  1  0
 66 65  1  0
 66 69  1  0
 67 64  1  0
 67 68  1  0
 68 66  2  0
 69 70  1  0
 70 71  2  0
 72 75  1  0
 72 71  1  0
 73 72  2  0
 74 73  1  0
 74 69  2  0
 75 76  1  0
 76 77  1  0
 77 78  2  0
 79 78  1  0
 79 83  1  0
 80 79  2  0
 81 76  2  0
 81 80  1  0
 82 81  1  0
 84 85  1  0
 85 88  1  0
 85 87  1  0
 86 84  2  0
 89 90  1  0
 89 64  1  0
 91 89  1  0
M  ISO  4   3 101   4 101  54 100  62 100
M  END
>  <TORSDO>  (59) 
F 22

>  <SCORE>  (59) 
-13.504

>  <name>  (59) 
59

>  <ligand_id>  (59) 
59

>  <original_smiles>  (59) 
[H]OC([H])(C([H])(Oc1c([H])c([H])c2c(c1[H])C([H])([H])N(C(=O)C([H])(N([H])C(=O)C([H])(N([H])C([H])([H])[H])C([H])([H])[H])C(C([H])([H])[H])(C([H])([H])[H])C([H])([H])[H])C([H])(C(=O)N([H])C1([H])c3c([H])c([H])c([H])c([H])c3C([H])([H])C([H])([H])C1([H])[H])C2([H])[H])C([H])([H])[H])C([H])([H])[N+]([H])([H])C([H])([H])C([H])(N([H])C(=O)N1C([H])([H])C([H])([H])C([H])([H])C([H])(n2nc(-c3c([H])c([H])c(Oc4c([H])c([H])c(F)c([H])c4F)c([H])c3[H])c(C(=O)N([H])[H])c2N([H])[H])C1([H])[H])C([H])([H])[H]

>  <smiles>  (59) 
[H]OC([H])(C([H])(Oc1c([H])c([H])c2c(c1[H])C([H])([H])N(C(=O)C([H])(N([H])C(=O)C([H])(N([H])C([H])([H])[H])C([H])([H])[H])C(C([H])([H])[H])(C([H])([H])[H])C([H])([H])[H])C([H])(C(=O)N([H])C1([H])c3c([H])c([H])c([H])c([H])c3C([H])([H])C([H])([H])C1([H])[H])C2([H])[H])C([H])([H])[H])C([H])([H])[N+]([H])([H])C([H])([H])C([H])(N([H])C(=O)N1C([H])([H])C([H])([H])C([H])([H])C([H])(n2nc(-c3c([H])c([H])c(Oc4c([H])c([H])c(F)c([H])c4F)c([H])c3[H])c(C(=O)N([H])[H])c2N([H])[H])C1([H])[H])C([H])([H])[H]

$$$$
60:0:0
     RDKit          3D

 94102  0  0  1  0  0  0  0  0999 V2000
  -29.5930  -21.9220   20.3990 C   0  0  0  0  0  2  0  0  0  0  0  0
  -27.9550  -20.2130   21.3060 C   0  0  0  0  0  1  0  0  0  0  0  0
  -29.8110  -21.0240   22.7920 C   0  0  0  0  0  1  0  0  0  0  0  0
  -29.4360  -20.6640   21.3370 C   0  0  2  0  0  0  0  0  0  0  0  0
  -31.0730  -14.6830   20.0290 C   0  0  0  0  0  0  0  0  0  0  0  0
  -30.6480  -12.5260   18.9210 C   0  0  0  0  0  2  0  0  0  0  0  0
  -29.6520  -12.7470   17.7670 C   0  0  0  0  0  2  0  0  0  0  0  0
  -28.2050  -12.6160   18.2760 C   0  0  0  0  0  2  0  0  0  0  0  0
  -27.9420  -13.4440   19.5620 C   0  0  0  0  0  3  0  0  0  0  0  0
  -29.0620  -13.2480   20.6090 C   0  0  0  0  0  2  0  0  0  0  0  0
  -30.3500  -13.5300   19.9580 N   0  0  0  0  0  0  0  0  0  0  0  0
  -32.1730  -14.7720   19.4750 O   0  0  0  0  0  0  0  0  0  0  0  0
  -31.7530  -19.7730   20.7220 C   0  0  0  0  0  3  0  0  0  0  0  0
  -29.9870  -18.1360   20.8710 C   0  0  0  0  0  3  0  0  0  0  0  0
  -32.6360  -18.7170   20.4750 C   0  0  0  0  0  3  0  0  0  0  0  0
  -30.3830  -19.5050   20.9280 C   0  0  0  0  0  0  0  0  0  0  0  0
  -30.9350  -17.1110   20.6230 C   0  0  0  0  0  0  0  0  0  0  0  0
  -32.2390  -17.4330   20.4440 N   0  0  0  0  0  0  0  0  0  0  0  0
  -30.4660  -15.7540   20.5920 N   0  0  0  0  0  0  0  0  0  0  0  0
  -29.5400  -15.5940   20.9530 H   0  0  0  0  0  0  0  0  0  0  0  0
  -25.6070  -14.0360   20.4620 C   0  0  0  0  0  0  0  0  0  0  0  0
  -24.5580  -13.2560   20.8700 C   0  0  0  0  0  0  0  0  0  0  0  0
  -24.9980  -11.9030   20.7430 C   0  0  0  0  0  0  0  0  0  0  0  0
  -26.6220  -13.1550   20.1210 N   0  0  0  0  0  0  0  0  0  0  0  0
  -26.2640  -11.8650   20.3470 N   0  0  0  0  0  0  0  0  0  0  0  0
  -24.2680  -10.6410   20.9240 C   0  0  0  0  0  0  0  0  0  0  0  0
  -24.6770   -9.6810   21.8770 C   0  0  0  0  0  3  0  0  0  0  0  0
  -23.9490   -8.4840   22.0450 C   0  0  0  0  0  3  0  0  0  0  0  0
  -22.7980   -8.2360   21.2600 C   0  0  0  0  0  0  0  0  0  0  0  0
  -22.4080   -9.1850   20.2980 C   0  0  0  0  0  3  0  0  0  0  0  0
  -23.1370  -10.3740   20.1280 C   0  0  0  0  0  3  0  0  0  0  0  0
  -22.0430   -7.0910   21.3370 O   0  0  0  0  0  0  0  0  0  0  0  0
  -21.8720   -6.4200   22.5210 C   0  0  0  0  0  0  0  0  0  0  0  0
  -21.2850   -7.0340   23.6490 C   0  0  0  0  0  3  0  0  0  0  0  0
  -21.0650   -6.2870   24.8230 C   0  0  0  0  0  3  0  0  0  0  0  0
  -21.4210   -4.9260   24.8690 C   0  0  0  0  0  0  0  0  0  0  0  0
  -22.0000   -4.3100   23.7460 C   0  0  0  0  0  3  0  0  0  0  0  0
  -22.2210   -5.0550   22.5740 C   0  0  0  0  0  0  0  0  0  0  0  0
  -22.7600   -4.4520   21.4870 F   0  0  0  0  0  0  0  0  0  0  0  0
  -21.2030   -4.2060   25.9940 F   0  0  0  0  0  0  0  0  0  0  0  0
  -23.1880  -13.7340   21.2590 C   0  0  0  0  0  0  0  0  0  0  0  0
  -22.5170  -13.0100   22.1470 N   0  0  0  0  0  0  0  0  0  0  0  0
  -22.7260  -14.7840   20.8140 O   0  0  0  0  0  0  0  0  0  0  0  0
  -22.9050  -12.1580   22.5270 H   0  0  0  0  0  0  0  0  0  0  0  0
  -21.6000  -13.3060   22.4500 H   0  0  0  0  0  0  0  0  0  0  0  0
  -25.7800  -15.4100   20.3320 N   0  0  0  0  0  0  0  0  0  0  0  0
  -25.0280  -16.0700   20.5010 H   0  0  0  0  0  0  0  0  0  0  0  0
  -26.6050  -15.8450   19.9400 H   0  0  0  0  0  0  0  0  0  0  0  0
  -28.8510  -23.1340   20.8580 N   0  0  0  0  0  4  0  0  0  0  0  0
  -27.8660  -22.9150   20.8860 H   0  0  0  0  0  0  0  0  0  0  0  0
  -29.1470  -23.3190   21.8050 H   0  0  0  0  0  0  0  0  0  0  0  0
  -29.0570  -24.3820   20.0530 C   0  0  0  0  0  2  0  0  0  0  0  0
  -28.5490  -25.6630   20.7710 C   0  0  0  0  0  2  0  0  0  0  0  0
  -28.6040  -26.8480   19.9450 O   0  0  0  0  0  0  0  0  0  0  0  0
  -24.6400  -31.8230   23.1500 C   0  0  0  0  0  0  0  0  0  0  0  0
  -27.4390  -27.5830   19.9360 C   0  0  0  0  0  0  0  0  0  0  0  0
  -23.4890  -30.4500   21.4430 C   0  0  0  0  0  3  0  0  0  0  0  0
  -25.0020  -29.0170   19.9690 C   0  0  0  0  0  0  0  0  0  0  0  0
  -26.0010  -30.8990   21.2760 C   0  0  0  0  0  2  0  0  0  0  0  0
  -26.1400  -29.5570   20.5840 C   0  0  0  0  0  0  0  0  0  0  0  0
  -27.3650  -28.8490   20.5600 C   0  0  0  0  0  3  0  0  0  0  0  0
  -26.2910  -27.0620   19.3050 C   0  0  0  0  0  3  0  0  0  0  0  0
  -25.0750  -27.7700   19.3230 C   0  0  0  0  0  3  0  0  0  0  0  0
  -23.7280  -29.8300   20.0410 C   0  0  0  0  0  2  0  0  0  0  0  0
  -24.7280  -31.0690   22.0170 N   0  0  0  0  0  0  0  0  0  0  0  0
  -23.5450  -32.0420   23.6910 O   0  0  0  0  0  0  0  0  0  0  0  0
  -22.8630  -29.3730   22.3580 C   0  0  0  0  0  0  0  0  0  0  0  0
  -21.5460  -29.1560   22.2120 N   0  0  0  0  0  0  0  0  0  0  0  0
  -23.5590  -28.7410   23.1570 O   0  0  0  0  0  0  0  0  0  0  0  0
  -21.0470  -29.7260   21.5440 H   0  0  0  0  0  0  0  0  0  0  0  0
  -18.2050  -27.8470   22.6360 C   0  0  0  0  0  0  0  0  0  0  0  0
  -20.7530  -28.1640   22.9370 C   0  0  0  0  0  3  0  0  0  0  0  0
  -20.8980  -26.7620   22.3030 C   0  0  0  0  0  2  0  0  0  0  0  0
  -19.8120  -26.4500   21.2700 C   0  0  0  0  0  2  0  0  0  0  0  0
  -18.4210  -26.5310   21.9080 C   0  0  0  0  0  2  0  0  0  0  0  0
  -19.3000  -28.6200   23.1040 C   0  0  0  0  0  0  0  0  0  0  0  0
  -19.0440  -29.8510   23.7450 C   0  0  0  0  0  3  0  0  0  0  0  0
  -17.7260  -30.3100   23.9230 C   0  0  0  0  0  3  0  0  0  0  0  0
  -16.6450  -29.5320   23.4720 C   0  0  0  0  0  3  0  0  0  0  0  0
  -16.8850  -28.3020   22.8340 C   0  0  0  0  0  3  0  0  0  0  0  0
  -25.9010  -32.4680   23.8040 C   0  0  0  0  0  3  0  0  0  0  0  0
  -26.4200  -31.6760   25.0660 C   0  0  1  0  0  0  0  0  0  0  0  0
  -25.3200  -31.3780   26.1100 C   0  0  0  0  0  1  0  0  0  0  0  0
  -27.0500  -30.3290   24.6400 C   0  0  0  0  0  1  0  0  0  0  0  0
  -27.5390  -32.4830   25.7660 C   0  0  0  0  0  1  0  0  0  0  0  0
  -25.5530  -33.8490   24.1650 N   0  0  0  0  0  0  0  0  0  0  0  0
  -25.8830  -34.9300   23.4460 C   0  0  0  0  0  0  0  0  0  0  0  0
  -26.5840  -34.8700   22.4310 O   0  0  0  0  0  0  0  0  0  0  0  0
  -24.9320  -33.9670   24.9520 H   0  0  0  0  0  0  0  0  0  0  0  0
  -24.1340  -36.7000   23.0870 C   0  0  0  0  0  1  0  0  0  0  0  0
  -25.3510  -36.2920   23.9310 C   0  0  0  0  0  3  0  0  0  0  0  0
  -27.4320  -37.1890   24.8710 C   0  0  0  0  0  1  0  0  0  0  0  0
  -26.3660  -37.3670   23.8890 N   0  0  0  0  0  0  0  0  0  0  0  0
  -25.9370  -38.2750   24.0480 H   0  0  0  0  0  0  0  0  0  0  0  0
  1 49  1  0
  1  4  1  0
  4  2  1  1
  4  3  1  0
  5 19  1  0
  6 11  1  0
  7  8  1  0
  7  6  1  0
  9  8  1  0
  9 24  1  0
  9 10  1  0
 11  5  1  0
 11 10  1  0
 12  5  2  0
 13 16  1  0
 14 16  2  0
 15 13  2  0
 16  4  1  0
 17 14  1  0
 18 15  1  0
 18 17  2  0
 19 17  1  0
 19 20  1  0
 21 22  2  0
 22 41  1  0
 23 22  1  0
 23 26  1  0
 24 25  1  0
 24 21  1  0
 25 23  2  0
 26 27  1  0
 27 28  2  0
 29 32  1  0
 29 28  1  0
 30 29  2  0
 31 30  1  0
 31 26  2  0
 32 33  1  0
 33 38  2  0
 33 34  1  0
 34 35  2  0
 35 36  1  0
 36 40  1  0
 37 36  2  0
 38 37  1  0
 39 38  1  0
 41 42  1  0
 42 45  1  0
 42 44  1  0
 43 41  2  0
 46 21  1  0
 46 47  1  0
 48 46  1  0
 49 50  1  0
 49 51  1  0
 52 53  1  0
 52 49  1  0
 54 53  1  0
 55 66  2  0
 56 54  1  0
 56 61  1  0
 57 65  1  0
 57 67  1  0
 58 64  1  0
 58 60  1  0
 59 65  1  0
 60 59  1  0
 61 60  2  0
 62 63  1  0
 62 56  2  0
 63 58  2  0
 64 57  1  0
 65 55  1  0
 67 69  2  0
 68 67  1  0
 70 68  1  0
 71 80  2  0
 71 76  1  0
 72 68  1  0
 72 76  1  0
 73 72  1  0
 74 75  1  0
 74 73  1  0
 75 71  1  0
 76 77  2  0
 77 78  1  0
 79 78  2  0
 80 79  1  0
 81 55  1  0
 81 86  1  0
 81 82  1  0
 82 85  1  1
 82 83  1  0
 84 82  1  0
 86 89  1  0
 87 91  1  0
 87 86  1  0
 88 87  2  0
 91 90  1  0
 93 91  1  0
 93 94  1  0
 93 92  1  0
M  ISO  4   5 100  19 100  53 101  54 101
M  END
>  <TORSDO>  (60) 
F 20

>  <SCORE>  (60) 
-12.411

>  <name>  (60) 
60

>  <ligand_id>  (60) 
60

>  <original_smiles>  (60) 
[H]c1nc(N([H])C(=O)N2C([H])([H])C([H])([H])C([H])([H])C([H])(n3nc(-c4c([H])c([H])c(Oc5c([H])c([H])c(F)c([H])c5F)c([H])c4[H])c(C(=O)N([H])[H])c3N([H])[H])C2([H])[H])c([H])c(C(C([H])([H])[H])(C([H])([H])[H])C([H])([H])[N+]([H])([H])C([H])([H])C([H])([H])Oc2c([H])c([H])c3c(c2[H])C([H])([H])N(C(=O)C([H])(N([H])C(=O)C([H])(N([H])C([H])([H])[H])C([H])([H])[H])C(C([H])([H])[H])(C([H])([H])[H])C([H])([H])[H])C([H])(C(=O)N([H])C2([H])c4c([H])c([H])c([H])c([H])c4C([H])([H])C([H])([H])C2([H])[H])C3([H])[H])c1[H]

>  <smiles>  (60) 
[H]c1nc(N([H])C(=O)N2C([H])([H])C([H])([H])C([H])([H])C([H])(n3nc(-c4c([H])c([H])c(Oc5c([H])c([H])c(F)c([H])c5F)c([H])c4[H])c(C(=O)N([H])[H])c3N([H])[H])C2([H])[H])c([H])c(C(C([H])([H])[H])(C([H])([H])[H])C([H])([H])[N+]([H])([H])C([H])([H])C([H])([H])Oc2c([H])c([H])c3c(c2[H])C([H])([H])N(C(=O)C([H])(N([H])C(=O)C([H])(N([H])C([H])([H])[H])C([H])([H])[H])C(C([H])([H])[H])(C([H])([H])[H])C([H])([H])[H])C([H])(C(=O)N([H])C2([H])c4c([H])c([H])c([H])c([H])c4C([H])([H])C([H])([H])C2([H])[H])C3([H])[H])c1[H]

$$$$
61:0:0
     RDKit          3D

 95104  0  0  1  0  0  0  0  0999 V2000
  -30.6100  -14.8870   20.3700 C   0  0  0  0  0  0  0  0  0  0  0  0
  -30.4090  -12.5900   19.4150 C   0  0  0  0  0  2  0  0  0  0  0  0
  -29.4760  -12.6330   18.1870 C   0  0  0  0  0  2  0  0  0  0  0  0
  -28.0120  -12.4380   18.6240 C   0  0  0  0  0  2  0  0  0  0  0  0
  -27.6190  -13.3460   19.8180 C   0  0  0  0  0  3  0  0  0  0  0  0
  -28.6800  -13.3210   20.9410 C   0  0  0  0  0  2  0  0  0  0  0  0
  -29.9700  -13.6680   20.3330 N   0  0  0  0  0  0  0  0  0  0  0  0
  -31.8090  -14.9310   20.0790 O   0  0  0  0  0  0  0  0  0  0  0  0
  -29.2410  -18.5430   20.2990 C   0  0  0  0  0  3  0  0  0  0  0  0
  -29.6090  -19.9480   20.2320 C   0  0  0  0  0  0  0  0  0  0  0  0
  -30.9910  -20.2300   20.3280 C   0  0  0  0  0  0  0  0  0  0  0  0
  -31.9030  -19.1440   20.4270 C   0  0  0  0  0  0  0  0  0  0  0  0
  -30.2140  -17.4770   20.4130 C   0  0  0  0  0  0  0  0  0  0  0  0
  -31.4470  -21.6940   20.3710 C   0  0  0  0  0  2  0  0  0  0  0  0
  -28.5890  -21.1530   20.0190 C   0  0  0  0  0  2  0  0  0  0  0  0
  -30.4840  -22.6960   19.7010 C   0  0  0  0  0  2  0  0  0  0  0  0
  -31.5120  -17.8490   20.4610 N   0  0  0  0  0  0  0  0  0  0  0  0
  -29.8410  -16.0420   20.4920 N   0  0  0  0  0  0  0  0  0  0  0  0
  -29.0890  -22.5960   20.2040 N   0  0  1  0  0  4  0  0  0  0  0  0
  -28.8570  -15.8680   20.6140 H   0  0  0  0  0  0  0  0  0  0  0  0
  -29.1660  -22.6800   21.2070 H   0  0  0  0  0  0  0  0  0  0  0  0
  -25.2300  -13.9040   20.5640 C   0  0  0  0  0  0  0  0  0  0  0  0
  -24.1730  -13.1160   20.9250 C   0  0  0  0  0  0  0  0  0  0  0  0
  -24.6480  -11.7700   20.8750 C   0  0  0  0  0  0  0  0  0  0  0  0
  -26.2810  -13.0380   20.3140 N   0  0  0  0  0  0  0  0  0  0  0  0
  -25.9390  -11.7490   20.5650 N   0  0  0  0  0  0  0  0  0  0  0  0
  -23.9330  -10.4970   21.0480 C   0  0  0  0  0  0  0  0  0  0  0  0
  -24.3520   -9.5370   21.9950 C   0  0  0  0  0  3  0  0  0  0  0  0
  -23.6360   -8.3310   22.1570 C   0  0  0  0  0  3  0  0  0  0  0  0
  -22.4870   -8.0770   21.3720 C   0  0  0  0  0  0  0  0  0  0  0  0
  -22.0860   -9.0260   20.4150 C   0  0  0  0  0  3  0  0  0  0  0  0
  -22.8020  -10.2230   20.2510 C   0  0  0  0  0  3  0  0  0  0  0  0
  -21.7460   -6.9220   21.4420 O   0  0  0  0  0  0  0  0  0  0  0  0
  -21.6380   -6.2050   22.6060 C   0  0  0  0  0  0  0  0  0  0  0  0
  -21.1160   -6.7760   23.7870 C   0  0  0  0  0  3  0  0  0  0  0  0
  -20.9560   -5.9850   24.9420 C   0  0  0  0  0  3  0  0  0  0  0  0
  -21.3120   -4.6230   24.9180 C   0  0  0  0  0  0  0  0  0  0  0  0
  -21.8270   -4.0510   23.7410 C   0  0  0  0  0  3  0  0  0  0  0  0
  -21.9870   -4.8390   22.5890 C   0  0  0  0  0  0  0  0  0  0  0  0
  -22.4640   -4.2770   21.4510 F   0  0  0  0  0  0  0  0  0  0  0  0
  -21.1520   -3.8590   26.0240 F   0  0  0  0  0  0  0  0  0  0  0  0
  -22.7710  -13.5770   21.2020 C   0  0  0  0  0  0  0  0  0  0  0  0
  -22.0520  -12.8650   22.0620 N   0  0  0  0  0  0  0  0  0  0  0  0
  -22.3220  -14.6020   20.6910 O   0  0  0  0  0  0  0  0  0  0  0  0
  -22.4270  -12.0350   22.4950 H   0  0  0  0  0  0  0  0  0  0  0  0
  -21.1130  -13.1560   22.2900 H   0  0  0  0  0  0  0  0  0  0  0  0
  -25.3810  -15.2790   20.4040 N   0  0  0  0  0  0  0  0  0  0  0  0
  -24.6020  -15.9200   20.5090 H   0  0  0  0  0  0  0  0  0  0  0  0
  -26.2160  -15.7300   20.0550 H   0  0  0  0  0  0  0  0  0  0  0  0
  -33.9200  -19.2390   21.9800 C   0  0  0  0  0  1  0  0  0  0  0  0
  -33.4200  -19.3070   20.5310 C   0  0  0  0  0  2  0  0  0  0  0  0
  -28.3280  -24.0470   18.2190 C   0  0  0  0  0  1  0  0  0  0  0  0
  -28.1830  -23.7780   19.7320 C   0  0  0  0  0  3  0  0  0  0  0  0
  -28.2380  -25.1780   20.5700 C   0  0  0  0  0  2  0  0  0  0  0  0
  -28.1640  -26.5580   19.9750 O   0  0  0  0  0  0  0  0  0  0  0  0
  -24.4800  -31.9550   23.2150 C   0  0  0  0  0  0  0  0  0  0  0  0
  -27.0230  -27.3800   20.0770 C   0  0  0  0  0  0  0  0  0  0  0  0
  -23.2440  -30.5710   21.5860 C   0  0  0  0  0  3  0  0  0  0  0  0
  -24.6620  -29.0110   20.1310 C   0  0  0  0  0  0  0  0  0  0  0  0
  -25.7810  -30.8760   21.3590 C   0  0  0  0  0  2  0  0  0  0  0  0
  -25.8460  -29.4960   20.7020 C   0  0  0  0  0  0  0  0  0  0  0  0
  -27.0320  -28.6960   20.6530 C   0  0  0  0  0  3  0  0  0  0  0  0
  -25.8100  -26.9430   19.5080 C   0  0  0  0  0  3  0  0  0  0  0  0
  -24.6470  -27.7420   19.5270 C   0  0  0  0  0  3  0  0  0  0  0  0
  -23.4340  -29.9000   20.1980 C   0  0  0  0  0  2  0  0  0  0  0  0
  -24.5220  -31.1510   22.1100 N   0  0  0  0  0  0  0  0  0  0  0  0
  -23.4060  -32.2280   23.7720 O   0  0  0  0  0  0  0  0  0  0  0  0
  -22.5900  -29.5520   22.5500 C   0  0  0  0  0  0  0  0  0  0  0  0
  -21.2620  -29.3770   22.4380 N   0  0  0  0  0  0  0  0  0  0  0  0
  -23.2780  -28.9200   23.3560 O   0  0  0  0  0  0  0  0  0  0  0  0
  -20.7710  -29.9390   21.7580 H   0  0  0  0  0  0  0  0  0  0  0  0
  -17.8910  -28.1660   22.9600 C   0  0  0  0  0  0  0  0  0  0  0  0
  -20.4500  -28.4340   23.2100 C   0  0  0  0  0  3  0  0  0  0  0  0
  -20.5550  -27.0050   22.6290 C   0  0  0  0  0  2  0  0  0  0  0  0
  -19.4470  -26.6820   21.6220 C   0  0  0  0  0  2  0  0  0  0  0  0
  -18.0680  -26.8200   22.2760 C   0  0  0  0  0  2  0  0  0  0  0  0
  -19.0100  -28.9320   23.3820 C   0  0  0  0  0  0  0  0  0  0  0  0
  -18.7910  -30.1920   23.9820 C   0  0  0  0  0  3  0  0  0  0  0  0
  -17.4860  -30.6880   24.1590 C   0  0  0  0  0  3  0  0  0  0  0  0
  -16.3810  -29.9190   23.7530 C   0  0  0  0  0  3  0  0  0  0  0  0
  -16.5840  -28.6600   23.1590 C   0  0  0  0  0  3  0  0  0  0  0  0
  -25.7730  -32.5790   23.8220 C   0  0  0  0  0  3  0  0  0  0  0  0
  -25.4790  -33.9810   24.1530 N   0  0  0  0  0  0  0  0  0  0  0  0
  -25.8240  -35.0320   23.3960 C   0  0  0  0  0  0  0  0  0  0  0  0
  -26.4930  -34.9220   22.3660 O   0  0  0  0  0  0  0  0  0  0  0  0
  -24.8920  -34.1400   24.9580 H   0  0  0  0  0  0  0  0  0  0  0  0
  -24.1310  -36.8560   23.0310 C   0  0  0  0  0  1  0  0  0  0  0  0
  -25.3540  -36.4270   23.8560 C   0  0  0  0  0  3  0  0  0  0  0  0
  -27.4910  -37.2740   24.7240 C   0  0  0  0  0  1  0  0  0  0  0  0
  -26.4060  -37.4620   23.7630 N   0  0  0  0  0  0  0  0  0  0  0  0
  -26.0140  -38.3870   23.9120 H   0  0  0  0  0  0  0  0  0  0  0  0
  -26.2930  -31.8090   25.0980 C   0  0  1  0  0  0  0  0  0  0  0  0
  -25.2080  -31.5870   26.1770 C   0  0  0  0  0  1  0  0  0  0  0  0
  -26.8590  -30.4250   24.7060 C   0  0  0  0  0  1  0  0  0  0  0  0
  -27.4580  -32.5950   25.7470 C   0  0  0  0  0  1  0  0  0  0  0  0
  1 18  1  0
  2  7  1  0
  3  4  1  0
  3  2  1  0
  5  4  1  0
  5 25  1  0
  5  6  1  0
  7  1  1  0
  7  6  1  0
  8  1  2  0
  9 13  1  0
 10  9  2  0
 10 11  1  0
 11 14  1  0
 11 12  2  0
 12 17  1  0
 12 51  1  0
 13 17  2  0
 13 18  1  0
 15 19  1  0
 15 10  1  0
 16 19  1  0
 16 14  1  0
 18 20  1  0
 19 21  1  1
 22 23  2  0
 23 42  1  0
 24 23  1  0
 24 27  1  0
 25 22  1  0
 25 26  1  0
 26 24  2  0
 27 28  1  0
 28 29  2  0
 30 33  1  0
 30 29  1  0
 31 30  2  0
 32 31  1  0
 32 27  2  0
 33 34  1  0
 34 35  1  0
 35 36  2  0
 37 36  1  0
 37 41  1  0
 38 37  2  0
 39 34  2  0
 39 38  1  0
 40 39  1  0
 42 43  1  0
 43 46  1  0
 43 45  1  0
 44 42  2  0
 47 48  1  0
 47 22  1  0
 49 47  1  0
 51 50  1  0
 53 52  1  0
 53 19  1  0
 53 54  1  0
 55 57  1  0
 55 54  1  0
 56 67  2  0
 57 62  1  0
 58 66  1  0
 58 68  1  0
 59 65  1  0
 59 61  1  0
 60 66  1  0
 61 60  1  0
 62 61  2  0
 63 64  1  0
 63 57  2  0
 64 59  2  0
 65 58  1  0
 66 56  1  0
 68 70  2  0
 69 68  1  0
 71 69  1  0
 72 81  2  0
 72 77  1  0
 73 69  1  0
 73 77  1  0
 74 73  1  0
 75 76  1  0
 75 74  1  0
 76 72  1  0
 77 78  2  0
 78 79  1  0
 80 79  2  0
 81 80  1  0
 82 56  1  0
 82 83  1  0
 82 92  1  0
 83 86  1  0
 84 88  1  0
 84 83  1  0
 85 84  2  0
 88 87  1  0
 90 88  1  0
 90 91  1  0
 90 89  1  0
 92 95  1  1
 92 93  1  0
 94 92  1  0
M  ISO  4   1 100  18 100  54 101  55 101
M  END
>  <TORSDO>  (61) 
F 18

>  <SCORE>  (61) 
-14.541

>  <name>  (61) 
61

>  <ligand_id>  (61) 
61

>  <original_smiles>  (61) 
[H]c1c([H])c([H])c2c(c1[H])C([H])([H])C([H])([H])C([H])([H])C2([H])N([H])C(=O)C1([H])N(C(=O)C([H])(N([H])C(=O)C([H])(N([H])C([H])([H])[H])C([H])([H])[H])C(C([H])([H])[H])(C([H])([H])[H])C([H])([H])[H])C([H])([H])c2c([H])c(OC([H])([H])C([H])(C([H])([H])[H])[N+]3([H])C([H])([H])c4c([H])c(N([H])C(=O)N5C([H])([H])C([H])([H])C([H])([H])C([H])(n6nc(-c7c([H])c([H])c(Oc8c([H])c([H])c(F)c([H])c8F)c([H])c7[H])c(C(=O)N([H])[H])c6N([H])[H])C5([H])[H])nc(C([H])([H])C([H])([H])[H])c4C([H])([H])C3([H])[H])c([H])c([H])c2C1([H])[H]

>  <smiles>  (61) 
[H]c1c([H])c([H])c2c(c1[H])C([H])([H])C([H])([H])C([H])([H])C2([H])N([H])C(=O)C1([H])N(C(=O)C([H])(N([H])C(=O)C([H])(N([H])C([H])([H])[H])C([H])([H])[H])C(C([H])([H])[H])(C([H])([H])[H])C([H])([H])[H])C([H])([H])c2c([H])c(OC([H])([H])C([H])(C([H])([H])[H])[N+]3([H])C([H])([H])c4c([H])c(N([H])C(=O)N5C([H])([H])C([H])([H])C([H])([H])C([H])(n6nc(-c7c([H])c([H])c(Oc8c([H])c([H])c(F)c([H])c8F)c([H])c7[H])c(C(=O)N([H])[H])c6N([H])[H])C5([H])[H])nc(C([H])([H])C([H])([H])[H])c4C([H])([H])C3([H])[H])c([H])c([H])c2C1([H])[H]

$$$$
62:0:0
     RDKit          3D

 96105  0  0  1  0  0  0  0  0999 V2000
  -30.0330  -20.9420   19.1040 C   0  0  0  0  0  2  0  0  0  0  0  0
  -29.5380  -20.4050   21.4920 C   0  0  0  0  0  2  0  0  0  0  0  0
  -30.0870  -22.4530   19.4220 C   0  0  0  0  0  2  0  0  0  0  0  0
  -29.6100  -21.9250   21.7990 C   0  0  0  0  0  2  0  0  0  0  0  0
  -30.4170  -19.9960   20.2890 C   0  0  0  0  0  3  0  0  0  0  0  0
  -29.1880  -22.8440   20.6130 C   0  0  0  0  0  3  0  0  0  0  0  0
  -30.8510  -14.7930   20.6680 C   0  0  0  0  0  0  0  0  0  0  0  0
  -30.6720  -12.4780   19.8260 C   0  0  0  0  0  2  0  0  0  0  0  0
  -29.8030  -12.4080   18.5520 C   0  0  0  0  0  2  0  0  0  0  0  0
  -28.2930  -12.3840   18.8860 C   0  0  0  0  0  2  0  0  0  0  0  0
  -27.8540  -13.3270   20.0460 C   0  0  0  0  0  3  0  0  0  0  0  0
  -28.8620  -13.3180   21.2140 C   0  0  0  0  0  2  0  0  0  0  0  0
  -30.1890  -13.5940   20.6510 N   0  0  0  0  0  0  0  0  0  0  0  0
  -32.0790  -14.8560   20.6130 O   0  0  0  0  0  0  0  0  0  0  0  0
  -29.7020  -16.0260   18.9300 C   0  0  0  0  0  2  0  0  0  0  0  0
  -30.3630  -17.2870   20.9200 C   0  0  0  0  0  2  0  0  0  0  0  0
  -30.7390  -16.7970   18.0730 C   0  0  0  0  0  2  0  0  0  0  0  0
  -30.2910  -18.4740   19.8670 C   0  0  0  0  0  3  0  0  0  0  0  0
  -30.1210  -15.9130   20.3430 N   0  0  0  0  0  0  0  0  0  0  0  0
  -31.0830  -18.1330   18.6400 N   0  0  1  0  0  4  0  0  0  0  0  0
  -30.6790  -18.7720   17.9710 H   0  0  0  0  0  0  0  0  0  0  0  0
  -25.4280  -13.9330   20.6450 C   0  0  0  0  0  0  0  0  0  0  0  0
  -24.3430  -13.1590   20.9600 C   0  0  0  0  0  0  0  0  0  0  0  0
  -24.8130  -11.8100   20.9790 C   0  0  0  0  0  0  0  0  0  0  0  0
  -26.4870  -13.0510   20.4820 N   0  0  0  0  0  0  0  0  0  0  0  0
  -26.1190  -11.7730   20.7500 N   0  0  0  0  0  0  0  0  0  0  0  0
  -24.0830  -10.5460   21.1430 C   0  0  0  0  0  0  0  0  0  0  0  0
  -24.4760   -9.5840   22.0980 C   0  0  0  0  0  3  0  0  0  0  0  0
  -23.7430   -8.3860   22.2500 C   0  0  0  0  0  3  0  0  0  0  0  0
  -22.6040   -8.1460   21.4450 C   0  0  0  0  0  0  0  0  0  0  0  0
  -22.2300   -9.0990   20.4790 C   0  0  0  0  0  3  0  0  0  0  0  0
  -22.9640  -10.2870   20.3270 C   0  0  0  0  0  3  0  0  0  0  0  0
  -21.8430   -7.0030   21.5080 O   0  0  0  0  0  0  0  0  0  0  0  0
  -21.7540   -6.2610   22.6580 C   0  0  0  0  0  0  0  0  0  0  0  0
  -21.2810   -6.8170   23.8670 C   0  0  0  0  0  3  0  0  0  0  0  0
  -21.1360   -5.9990   25.0060 C   0  0  0  0  0  3  0  0  0  0  0  0
  -21.4620   -4.6310   24.9370 C   0  0  0  0  0  0  0  0  0  0  0  0
  -21.9320   -4.0770   23.7330 C   0  0  0  0  0  3  0  0  0  0  0  0
  -22.0740   -4.8900   22.5950 C   0  0  0  0  0  0  0  0  0  0  0  0
  -22.5040   -4.3460   21.4310 F   0  0  0  0  0  0  0  0  0  0  0  0
  -21.3160   -3.8450   26.0280 F   0  0  0  0  0  0  0  0  0  0  0  0
  -22.9310  -13.6350   21.1360 C   0  0  0  0  0  0  0  0  0  0  0  0
  -22.1580  -12.9460   21.9700 N   0  0  0  0  0  0  0  0  0  0  0  0
  -22.5180  -14.6460   20.5720 O   0  0  0  0  0  0  0  0  0  0  0  0
  -22.5070  -12.1310   22.4520 H   0  0  0  0  0  0  0  0  0  0  0  0
  -21.2040  -13.2390   22.1240 H   0  0  0  0  0  0  0  0  0  0  0  0
  -25.5950  -15.3020   20.4580 N   0  0  0  0  0  0  0  0  0  0  0  0
  -24.8240  -15.9580   20.5230 H   0  0  0  0  0  0  0  0  0  0  0  0
  -26.4750  -15.7480   20.2270 H   0  0  0  0  0  0  0  0  0  0  0  0
  -32.9240  -18.9670   17.1670 C   0  0  0  0  0  1  0  0  0  0  0  0
  -33.5390  -17.5030   19.1640 C   0  0  0  0  0  1  0  0  0  0  0  0
  -32.5340  -18.5290   18.5920 C   0  0  0  0  0  3  0  0  0  0  0  0
  -29.0520  -24.7320   22.3920 C   0  0  0  0  0  1  0  0  0  0  0  0
  -29.2250  -24.4040   20.8940 C   0  0  0  0  0  3  0  0  0  0  0  0
  -28.1750  -25.2170   20.0580 C   0  0  0  0  0  2  0  0  0  0  0  0
  -28.3230  -26.6690   20.1120 O   0  0  0  0  0  0  0  0  0  0  0  0
  -24.5500  -31.9360   23.1360 C   0  0  0  0  0  0  0  0  0  0  0  0
  -27.1720  -27.4500   20.0490 C   0  0  0  0  0  0  0  0  0  0  0  0
  -23.3350  -30.5250   21.5120 C   0  0  0  0  0  3  0  0  0  0  0  0
  -24.7820  -28.9950   20.0620 C   0  0  0  0  0  0  0  0  0  0  0  0
  -25.8620  -30.8800   21.2950 C   0  0  0  0  0  2  0  0  0  0  0  0
  -25.9480  -29.5080   20.6480 C   0  0  0  0  0  0  0  0  0  0  0  0
  -27.1430  -28.7430   20.6380 C   0  0  0  0  0  3  0  0  0  0  0  0
  -25.9890  -26.9840   19.4230 C   0  0  0  0  0  3  0  0  0  0  0  0
  -24.8000  -27.7370   19.4430 C   0  0  0  0  0  3  0  0  0  0  0  0
  -23.5320  -29.8490   20.1300 C   0  0  0  0  0  2  0  0  0  0  0  0
  -24.6020  -31.1290   22.0390 N   0  0  0  0  0  0  0  0  0  0  0  0
  -23.4730  -32.2060   23.6840 O   0  0  0  0  0  0  0  0  0  0  0  0
  -22.6980  -29.5000   22.4800 C   0  0  0  0  0  0  0  0  0  0  0  0
  -21.3690  -29.3340   22.3880 N   0  0  0  0  0  0  0  0  0  0  0  0
  -23.3970  -28.8580   23.2690 O   0  0  0  0  0  0  0  0  0  0  0  0
  -20.8640  -29.9030   21.7220 H   0  0  0  0  0  0  0  0  0  0  0  0
  -17.9950  -28.1790   22.9690 C   0  0  0  0  0  0  0  0  0  0  0  0
  -20.5620  -28.3970   23.1710 C   0  0  0  0  0  3  0  0  0  0  0  0
  -20.6280  -26.9730   22.5710 C   0  0  0  0  0  2  0  0  0  0  0  0
  -19.4930  -26.6780   21.5870 C   0  0  0  0  0  2  0  0  0  0  0  0
  -18.1320  -26.8380   22.2700 C   0  0  0  0  0  2  0  0  0  0  0  0
  -19.1360  -28.9190   23.3770 C   0  0  0  0  0  0  0  0  0  0  0  0
  -18.9530  -30.1790   23.9890 C   0  0  0  0  0  3  0  0  0  0  0  0
  -17.6620  -30.6980   24.1980 C   0  0  0  0  0  3  0  0  0  0  0  0
  -16.5340  -29.9520   23.8120 C   0  0  0  0  0  3  0  0  0  0  0  0
  -16.7030  -28.6950   23.2040 C   0  0  0  0  0  3  0  0  0  0  0  0
  -25.8410  -32.5750   23.7390 C   0  0  0  0  0  3  0  0  0  0  0  0
  -26.3930  -31.7880   24.9920 C   0  0  1  0  0  0  0  0  0  0  0  0
  -25.3190  -31.5150   26.0730 C   0  0  0  0  0  1  0  0  0  0  0  0
  -26.9910  -30.4270   24.5630 C   0  0  0  0  0  1  0  0  0  0  0  0
  -27.5430  -32.5890   25.6490 C   0  0  0  0  0  1  0  0  0  0  0  0
  -25.5250  -33.9630   24.0960 N   0  0  0  0  0  0  0  0  0  0  0  0
  -25.8560  -35.0310   23.3600 C   0  0  0  0  0  0  0  0  0  0  0  0
  -26.5330  -34.9530   22.3290 O   0  0  0  0  0  0  0  0  0  0  0  0
  -24.9320  -34.0980   24.9010 H   0  0  0  0  0  0  0  0  0  0  0  0
  -24.1400  -36.8340   23.0080 C   0  0  0  0  0  1  0  0  0  0  0  0
  -25.3560  -36.4060   23.8440 C   0  0  0  0  0  3  0  0  0  0  0  0
  -27.4620  -37.2630   24.7700 C   0  0  0  0  0  1  0  0  0  0  0  0
  -26.3930  -37.4590   23.7950 N   0  0  0  0  0  0  0  0  0  0  0  0
  -25.9840  -38.3760   23.9540 H   0  0  0  0  0  0  0  0  0  0  0  0
  1  3  1  0
  2  4  1  0
  3  6  1  0
  5  1  1  0
  5  2  1  0
  6 54  1  0
  6  4  1  0
  8 13  1  0
  9 10  1  0
  9  8  1  0
 11 10  1  0
 11 25  1  0
 11 12  1  0
 13  7  1  0
 13 12  1  0
 14  7  2  0
 15 19  1  0
 17 20  1  0
 17 15  1  0
 18  5  1  0
 18 16  1  0
 19  7  1  0
 19 16  1  0
 20 18  1  0
 20 21  1  6
 22 23  2  0
 23 24  1  0
 23 42  1  0
 24 27  1  0
 25 22  1  0
 25 26  1  0
 26 24  2  0
 27 28  1  0
 28 29  2  0
 30 33  1  0
 30 29  1  0
 31 30  2  0
 32 31  1  0
 32 27  2  0
 33 34  1  0
 34 35  1  0
 35 36  2  0
 37 36  1  0
 37 41  1  0
 38 37  2  0
 39 34  2  0
 39 38  1  0
 40 39  1  0
 42 43  1  0
 43 46  1  0
 43 45  1  0
 44 42  2  0
 47 48  1  0
 47 22  1  0
 49 47  1  0
 50 52  1  0
 52 20  1  0
 52 51  1  0
 54 53  1  0
 55 56  1  0
 55 54  1  0
 57 68  2  0
 58 56  1  0
 58 63  1  0
 59 67  1  0
 59 69  1  0
 60 66  1  0
 60 62  1  0
 61 67  1  0
 62 61  1  0
 63 62  2  0
 64 65  1  0
 64 58  2  0
 65 60  2  0
 66 59  1  0
 67 57  1  0
 69 71  2  0
 70 69  1  0
 72 70  1  0
 73 82  2  0
 73 78  1  0
 74 70  1  0
 74 78  1  0
 75 74  1  0
 76 77  1  0
 76 75  1  0
 77 73  1  0
 78 79  2  0
 79 80  1  0
 81 80  2  0
 82 81  1  0
 83 57  1  0
 83 88  1  0
 83 84  1  0
 84 87  1  1
 84 85  1  0
 86 84  1  0
 88 91  1  0
 89 93  1  0
 89 88  1  0
 90 89  2  0
 93 92  1  0
 95 93  1  0
 95 96  1  0
 95 94  1  0
M  ISO  4   7 100  19 100  55 101  56 101
M  END
>  <TORSDO>  (62) 
F 19

>  <SCORE>  (62) 
-13.945

>  <name>  (62) 
62

>  <ligand_id>  (62) 
62

>  <original_smiles>  (62) 
[H]c1c([H])c([H])c2c(c1[H])C([H])([H])C([H])([H])C([H])([H])C2([H])N([H])C(=O)C1([H])N(C(=O)C([H])(N([H])C(=O)C([H])(N([H])C([H])([H])[H])C([H])([H])[H])C(C([H])([H])[H])(C([H])([H])[H])C([H])([H])[H])C([H])([H])c2c([H])c(OC([H])([H])C([H])(C([H])([H])[H])C3([H])C([H])([H])C([H])([H])C([H])(C4([H])C([H])([H])N(C(=O)N5C([H])([H])C([H])([H])C([H])([H])C([H])(n6nc(-c7c([H])c([H])c(Oc8c([H])c([H])c(F)c([H])c8F)c([H])c7[H])c(C(=O)N([H])[H])c6N([H])[H])C5([H])[H])C([H])([H])C([H])([H])[N+]4([H])C([H])(C([H])([H])[H])C([H])([H])[H])C([H])([H])C3([H])[H])c([H])c([H])c2C1([H])[H]

>  <smiles>  (62) 
[H]c1c([H])c([H])c2c(c1[H])C([H])([H])C([H])([H])C([H])([H])C2([H])N([H])C(=O)C1([H])N(C(=O)C([H])(N([H])C(=O)C([H])(N([H])C([H])([H])[H])C([H])([H])[H])C(C([H])([H])[H])(C([H])([H])[H])C([H])([H])[H])C([H])([H])c2c([H])c(OC([H])([H])C([H])(C([H])([H])[H])C3([H])C([H])([H])C([H])([H])C([H])(C4([H])C([H])([H])N(C(=O)N5C([H])([H])C([H])([H])C([H])([H])C([H])(n6nc(-c7c([H])c([H])c(Oc8c([H])c([H])c(F)c([H])c8F)c([H])c7[H])c(C(=O)N([H])[H])c6N([H])[H])C5([H])[H])C([H])([H])C([H])([H])[N+]4([H])C([H])(C([H])([H])[H])C([H])([H])[H])C([H])([H])C3([H])[H])c([H])c([H])c2C1([H])[H]

$$$$
63:0:0
     RDKit          3D

 98106  0  0  1  0  0  0  0  0999 V2000
  -28.1040  -22.3140   19.2710 C   0  0  0  0  0  3  0  0  0  0  0  0
  -29.4520  -21.8490   20.9520 C   0  0  0  0  0  3  0  0  0  0  0  0
  -28.9580  -22.9160   20.2370 C   0  0  0  0  0  0  0  0  0  0  0  0
  -28.0400  -20.9540   19.4470 C   0  0  0  0  0  0  0  0  0  0  0  0
  -28.9070  -20.6390   20.5050 N   0  0  0  0  0  0  0  0  0  0  0  0
  -29.1560  -19.3470   21.1920 C   0  0  0  0  0  2  0  0  0  0  0  0
  -29.8570  -18.1850   20.4130 C   0  0  0  0  0  2  0  0  0  0  0  0
  -30.4850  -17.1050   21.3550 C   0  0  0  0  0  2  0  0  0  0  0  0
  -30.8700  -14.6990   20.5970 C   0  0  0  0  0  0  0  0  0  0  0  0
  -30.7180  -12.4590   19.5600 C   0  0  0  0  0  2  0  0  0  0  0  0
  -29.8300  -12.5400   18.3000 C   0  0  0  0  0  2  0  0  0  0  0  0
  -28.3400  -12.3820   18.6620 C   0  0  0  0  0  2  0  0  0  0  0  0
  -27.9110  -13.2880   19.8470 C   0  0  0  0  0  3  0  0  0  0  0  0
  -28.9090  -13.1670   21.0180 C   0  0  0  0  0  2  0  0  0  0  0  0
  -30.2510  -13.4900   20.4990 N   0  0  0  0  0  0  0  0  0  0  0  0
  -32.0150  -14.9000   20.1820 O   0  0  0  0  0  0  0  0  0  0  0  0
  -30.1040  -15.7050   21.0700 N   0  0  0  0  0  0  0  0  0  0  0  0
  -29.1720  -15.4330   21.3430 H   0  0  0  0  0  0  0  0  0  0  0  0
  -25.4790  -13.8810   20.4470 C   0  0  0  0  0  0  0  0  0  0  0  0
  -24.4030  -13.1040   20.7760 C   0  0  0  0  0  0  0  0  0  0  0  0
  -24.8750  -11.7560   20.7760 C   0  0  0  0  0  0  0  0  0  0  0  0
  -26.5410  -13.0070   20.2700 N   0  0  0  0  0  0  0  0  0  0  0  0
  -26.1780  -11.7240   20.5240 N   0  0  0  0  0  0  0  0  0  0  0  0
  -24.1510  -10.4890   20.9440 C   0  0  0  0  0  0  0  0  0  0  0  0
  -24.5240   -9.5510   21.9310 C   0  0  0  0  0  3  0  0  0  0  0  0
  -23.8010   -8.3490   22.0850 C   0  0  0  0  0  3  0  0  0  0  0  0
  -22.6900   -8.0760   21.2500 C   0  0  0  0  0  0  0  0  0  0  0  0
  -22.3380   -9.0040   20.2540 C   0  0  0  0  0  3  0  0  0  0  0  0
  -23.0620  -10.1970   20.0990 C   0  0  0  0  0  3  0  0  0  0  0  0
  -21.9460   -6.9230   21.3100 O   0  0  0  0  0  0  0  0  0  0  0  0
  -21.7770   -6.2340   22.4830 C   0  0  0  0  0  0  0  0  0  0  0  0
  -21.1820   -6.8280   23.6180 C   0  0  0  0  0  3  0  0  0  0  0  0
  -20.9660   -6.0630   24.7820 C   0  0  0  0  0  3  0  0  0  0  0  0
  -21.3320   -4.7050   24.8100 C   0  0  0  0  0  0  0  0  0  0  0  0
  -21.9210   -4.1100   23.6800 C   0  0  0  0  0  3  0  0  0  0  0  0
  -22.1380   -4.8710   22.5190 C   0  0  0  0  0  0  0  0  0  0  0  0
  -22.6850   -4.2870   21.4260 F   0  0  0  0  0  0  0  0  0  0  0  0
  -21.1180   -3.9670   25.9260 F   0  0  0  0  0  0  0  0  0  0  0  0
  -22.9920  -13.5720   20.9870 C   0  0  0  0  0  0  0  0  0  0  0  0
  -22.2380  -12.8830   21.8370 N   0  0  0  0  0  0  0  0  0  0  0  0
  -22.5650  -14.5840   20.4340 O   0  0  0  0  0  0  0  0  0  0  0  0
  -22.5940  -12.0630   22.3060 H   0  0  0  0  0  0  0  0  0  0  0  0
  -21.2900  -13.1800   22.0220 H   0  0  0  0  0  0  0  0  0  0  0  0
  -25.6390  -15.2520   20.2630 N   0  0  0  0  0  0  0  0  0  0  0  0
  -24.8560  -15.8940   20.3220 H   0  0  0  0  0  0  0  0  0  0  0  0
  -26.4920  -15.7110   19.9650 H   0  0  0  0  0  0  0  0  0  0  0  0
  -29.2150  -24.4310   20.4370 C   0  0  0  0  0  3  0  0  0  0  0  0
  -31.6070  -24.8100   21.3350 C   0  0  0  0  0  1  0  0  0  0  0  0
  -30.6760  -24.8190   20.1090 C   0  0  0  0  0  2  0  0  0  0  0  0
  -28.1890  -25.3380   19.6830 C   0  0  0  0  0  2  0  0  0  0  0  0
  -28.3280  -26.7690   19.8910 O   0  0  0  0  0  0  0  0  0  0  0  0
  -24.6360  -31.9520   23.1300 C   0  0  0  0  0  0  0  0  0  0  0  0
  -27.1710  -27.5390   19.8840 C   0  0  0  0  0  0  0  0  0  0  0  0
  -23.3790  -30.5860   21.5020 C   0  0  0  0  0  3  0  0  0  0  0  0
  -24.7820  -29.0800   19.9940 C   0  0  0  0  0  0  0  0  0  0  0  0
  -25.9010  -30.9370   21.2350 C   0  0  0  0  0  2  0  0  0  0  0  0
  -25.9630  -29.5790   20.5590 C   0  0  0  0  0  0  0  0  0  0  0  0
  -27.1580  -28.8170   20.5010 C   0  0  0  0  0  3  0  0  0  0  0  0
  -25.9700  -27.0800   19.2880 C   0  0  0  0  0  3  0  0  0  0  0  0
  -24.7830  -27.8320   19.3530 C   0  0  0  0  0  3  0  0  0  0  0  0
  -23.5430  -29.9420   20.1010 C   0  0  0  0  0  2  0  0  0  0  0  0
  -24.6590  -31.1730   22.0130 N   0  0  0  0  0  0  0  0  0  0  0  0
  -23.5720  -32.2140   23.7100 O   0  0  0  0  0  0  0  0  0  0  0  0
  -22.7570  -29.5430   22.4590 C   0  0  0  0  0  0  0  0  0  0  0  0
  -21.4340  -29.3370   22.3460 N   0  0  0  0  0  0  0  0  0  0  0  0
  -23.4600  -28.9250   23.2610 O   0  0  0  0  0  0  0  0  0  0  0  0
  -20.9260  -29.8920   21.6710 H   0  0  0  0  0  0  0  0  0  0  0  0
  -18.0900  -28.0650   22.8610 C   0  0  0  0  0  0  0  0  0  0  0  0
  -20.6440  -28.3800   23.1190 C   0  0  0  0  0  3  0  0  0  0  0  0
  -20.7740  -26.9530   22.5380 C   0  0  0  0  0  2  0  0  0  0  0  0
  -19.6740  -26.6080   21.5290 C   0  0  0  0  0  2  0  0  0  0  0  0
  -18.2920  -26.7210   22.1820 C   0  0  0  0  0  2  0  0  0  0  0  0
  -19.1940  -28.8500   23.2860 C   0  0  0  0  0  0  0  0  0  0  0  0
  -18.9530  -30.1080   23.8810 C   0  0  0  0  0  3  0  0  0  0  0  0
  -17.6400  -30.5800   24.0590 C   0  0  0  0  0  3  0  0  0  0  0  0
  -16.5490  -29.7920   23.6510 C   0  0  0  0  0  3  0  0  0  0  0  0
  -16.7750  -28.5360   23.0560 C   0  0  0  0  0  3  0  0  0  0  0  0
  -25.9420  -32.5720   23.7190 C   0  0  0  0  0  3  0  0  0  0  0  0
  -26.5070  -31.7720   24.9570 C   0  0  1  0  0  0  0  0  0  0  0  0
  -25.4440  -31.4690   26.0380 C   0  0  0  0  0  1  0  0  0  0  0  0
  -27.1200  -30.4270   24.5050 C   0  0  0  0  0  1  0  0  0  0  0  0
  -27.6480  -32.5750   25.6230 C   0  0  0  0  0  1  0  0  0  0  0  0
  -25.6410  -33.9590   24.0920 N   0  0  0  0  0  0  0  0  0  0  0  0
  -25.9750  -35.0330   23.3640 C   0  0  0  0  0  0  0  0  0  0  0  0
  -26.6390  -34.9590   22.3260 O   0  0  0  0  0  0  0  0  0  0  0  0
  -25.0540  -34.0930   24.9020 H   0  0  0  0  0  0  0  0  0  0  0  0
  -24.2660  -36.8520   23.0580 C   0  0  0  0  0  1  0  0  0  0  0  0
  -25.4950  -36.4090   23.8660 C   0  0  0  0  0  3  0  0  0  0  0  0
  -27.6290  -37.2450   24.7480 C   0  0  0  0  0  1  0  0  0  0  0  0
  -26.5380  -37.4570   23.7990 N   0  0  0  0  0  0  0  0  0  0  0  0
  -26.1380  -38.3740   23.9760 H   0  0  0  0  0  0  0  0  0  0  0  0
  -27.1680  -20.0140   18.6260 C   0  0  2  0  0  0  0  0  0  0  0  0
  -25.2530  -21.7380   18.9780 C   0  0  0  0  0  1  0  0  0  0  0  0
  -25.9480  -20.7500   18.0220 C   0  0  0  0  0  2  0  0  0  0  0  0
  -26.5740  -18.9740   19.3660 O   0  0  0  0  0  0  0  0  0  0  0  0
  -25.9660  -19.3900   19.9630 H   0  0  0  0  0  0  0  0  0  0  0  0
  -29.2170  -18.5620   17.9430 C   0  0  0  0  0  1  0  0  0  0  0  0
  -27.9850  -19.3590   17.4860 C   0  0  0  0  0  2  0  0  0  0  0  0
  1  4  2  0
  1  3  1  0
  3 47  1  0
  3  2  2  0
  4  5  1  0
  5  2  1  0
  5  6  1  0
  7  6  1  0
  7  8  1  0
  9 17  1  0
 10 15  1  0
 11 12  1  0
 11 10  1  0
 13 12  1  0
 13 22  1  0
 13 14  1  0
 15  9  1  0
 15 14  1  0
 16  9  2  0
 17 18  1  0
 17  8  1  0
 19 20  2  0
 20 39  1  0
 21 20  1  0
 21 24  1  0
 22 19  1  0
 22 23  1  0
 23 21  2  0
 24 25  1  0
 25 26  2  0
 27 30  1  0
 27 26  1  0
 28 27  2  0
 29 28  1  0
 29 24  2  0
 30 31  1  0
 31 36  2  0
 31 32  1  0
 32 33  2  0
 33 34  1  0
 34 38  1  0
 35 34  2  0
 36 35  1  0
 37 36  1  0
 39 40  1  0
 40 43  1  0
 40 42  1  0
 41 39  2  0
 44 45  1  0
 44 19  1  0
 46 44  1  0
 47 50  1  0
 49 47  1  0
 49 48  1  0
 50 51  1  0
 52 63  2  0
 53 51  1  0
 53 58  1  0
 54 62  1  0
 54 64  1  0
 55 61  1  0
 55 57  1  0
 56 62  1  0
 57 56  1  0
 58 57  2  0
 59 60  1  0
 59 53  2  0
 60 55  2  0
 61 54  1  0
 62 52  1  0
 64 66  2  0
 65 64  1  0
 67 65  1  0
 68 77  2  0
 68 73  1  0
 69 65  1  0
 69 73  1  0
 70 69  1  0
 71 72  1  0
 71 70  1  0
 72 68  1  0
 73 74  2  0
 74 75  1  0
 76 75  2  0
 77 76  1  0
 78 52  1  0
 78 83  1  0
 78 79  1  0
 79 82  1  1
 79 80  1  0
 81 79  1  0
 83 86  1  0
 84 88  1  0
 84 83  1  0
 85 84  2  0
 88 87  1  0
 90 88  1  0
 90 91  1  0
 90 89  1  0
 92 95  1  0
 92  4  1  0
 92 94  1  6
 94 93  1  0
 95 96  1  0
 98 97  1  0
 98 92  1  0
M  ISO  4   9 100  17 100  50 101  51 101
M  END
>  <TORSDO>  (63) 
F 26

>  <SCORE>  (63) 
-11.572

>  <name>  (63) 
63

>  <ligand_id>  (63) 
63

>  <original_smiles>  (63) 
[H]OC(c1c([H])c(C([H])(C([H])([H])Oc2c([H])c([H])c3c(c2[H])C([H])([H])N(C(=O)C([H])(N([H])C(=O)C([H])(N([H])C([H])([H])[H])C([H])([H])[H])C(C([H])([H])[H])(C([H])([H])[H])C([H])([H])[H])C([H])(C(=O)N([H])C2([H])c4c([H])c([H])c([H])c([H])c4C([H])([H])C([H])([H])C2([H])[H])C3([H])[H])C([H])([H])C([H])([H])[H])c([H])n1C([H])([H])C([H])([H])C([H])([H])N([H])C(=O)N1C([H])([H])C([H])([H])C([H])([H])C([H])(n2nc(-c3c([H])c([H])c(Oc4c([H])c([H])c(F)c([H])c4F)c([H])c3[H])c(C(=O)N([H])[H])c2N([H])[H])C1([H])[H])(C([H])([H])C([H])([H])[H])C([H])([H])C([H])([H])[H]

>  <smiles>  (63) 
[H]OC(c1c([H])c(C([H])(C([H])([H])Oc2c([H])c([H])c3c(c2[H])C([H])([H])N(C(=O)C([H])(N([H])C(=O)C([H])(N([H])C([H])([H])[H])C([H])([H])[H])C(C([H])([H])[H])(C([H])([H])[H])C([H])([H])[H])C([H])(C(=O)N([H])C2([H])c4c([H])c([H])c([H])c([H])c4C([H])([H])C([H])([H])C2([H])[H])C3([H])[H])C([H])([H])C([H])([H])[H])c([H])n1C([H])([H])C([H])([H])C([H])([H])N([H])C(=O)N1C([H])([H])C([H])([H])C([H])([H])C([H])(n2nc(-c3c([H])c([H])c(Oc4c([H])c([H])c(F)c([H])c4F)c([H])c3[H])c(C(=O)N([H])[H])c2N([H])[H])C1([H])[H])(C([H])([H])C([H])([H])[H])C([H])([H])C([H])([H])[H]

$$$$
64:0:0
     RDKit          3D

 92101  0  0  1  0  0  0  0  0999 V2000
  -28.6840  -19.1510   21.0840 C   0  0  0  0  0  2  0  0  0  0  0  0
  -29.6350  -19.2530   18.8380 C   0  0  0  0  0  2  0  0  0  0  0  0
  -28.9460  -20.7040   21.2320 C   0  0  0  0  0  2  0  0  0  0  0  0
  -29.9460  -20.7600   19.0270 C   0  0  0  0  0  2  0  0  0  0  0  0
  -29.6620  -18.3910   20.1370 C   0  0  0  0  0  3  0  0  0  0  0  0
  -28.9990  -21.4670   19.9380 N   0  0  2  0  0  4  0  0  0  0  0  0
  -28.0860  -21.4130   19.5120 H   0  0  0  0  0  0  0  0  0  0  0  0
  -30.9140  -14.8430   20.8660 C   0  0  0  0  0  0  0  0  0  0  0  0
  -30.7470  -12.5240   20.0330 C   0  0  0  0  0  2  0  0  0  0  0  0
  -29.9320  -12.4700   18.7270 C   0  0  0  0  0  2  0  0  0  0  0  0
  -28.4260  -12.3570   19.0260 C   0  0  0  0  0  2  0  0  0  0  0  0
  -27.9300  -13.3240   20.1360 C   0  0  0  0  0  3  0  0  0  0  0  0
  -28.8890  -13.3840   21.3420 C   0  0  0  0  0  2  0  0  0  0  0  0
  -30.2280  -13.6610   20.8120 N   0  0  0  0  0  0  0  0  0  0  0  0
  -32.1430  -14.8350   20.9180 O   0  0  0  0  0  0  0  0  0  0  0  0
  -29.4050  -16.3460   18.4160 C   0  0  0  0  0  2  0  0  0  0  0  0
  -30.8870  -16.0940   18.6990 C   0  0  0  0  0  2  0  0  0  0  0  0
  -29.3160  -16.8420   19.8790 C   0  0  0  0  0  3  0  0  0  0  0  0
  -30.4300  -15.8480   20.0640 N   0  0  0  0  0  0  0  0  0  0  0  0
  -25.4840  -13.9190   20.6260 C   0  0  0  0  0  0  0  0  0  0  0  0
  -24.3940  -13.1430   20.9140 C   0  0  0  0  0  0  0  0  0  0  0  0
  -24.8710  -11.7970   20.9700 C   0  0  0  0  0  0  0  0  0  0  0  0
  -26.5530  -13.0420   20.5220 N   0  0  0  0  0  0  0  0  0  0  0  0
  -26.1850  -11.7660   20.7960 N   0  0  0  0  0  0  0  0  0  0  0  0
  -24.1430  -10.5310   21.1230 C   0  0  0  0  0  0  0  0  0  0  0  0
  -24.5030   -9.5890   22.1110 C   0  0  0  0  0  3  0  0  0  0  0  0
  -23.7760   -8.3890   22.2530 C   0  0  0  0  0  3  0  0  0  0  0  0
  -22.6740   -8.1220   21.4050 C   0  0  0  0  0  0  0  0  0  0  0  0
  -22.3360   -9.0520   20.4070 C   0  0  0  0  0  3  0  0  0  0  0  0
  -23.0650  -10.2450   20.2640 C   0  0  0  0  0  3  0  0  0  0  0  0
  -21.9260   -6.9710   21.4540 O   0  0  0  0  0  0  0  0  0  0  0  0
  -21.7840   -6.2530   22.6140 C   0  0  0  0  0  0  0  0  0  0  0  0
  -21.2260   -6.8220   23.7790 C   0  0  0  0  0  3  0  0  0  0  0  0
  -21.0370   -6.0300   24.9290 C   0  0  0  0  0  3  0  0  0  0  0  0
  -21.3930   -4.6690   24.9130 C   0  0  0  0  0  0  0  0  0  0  0  0
  -21.9420   -4.0970   23.7510 C   0  0  0  0  0  3  0  0  0  0  0  0
  -22.1350   -4.8870   22.6040 C   0  0  0  0  0  0  0  0  0  0  0  0
  -22.6460   -4.3280   21.4810 F   0  0  0  0  0  0  0  0  0  0  0  0
  -21.2040   -3.9040   26.0140 F   0  0  0  0  0  0  0  0  0  0  0  0
  -22.9730  -13.6100   21.0330 C   0  0  0  0  0  0  0  0  0  0  0  0
  -22.1740  -12.9370   21.8540 N   0  0  0  0  0  0  0  0  0  0  0  0
  -22.5760  -14.6080   20.4320 O   0  0  0  0  0  0  0  0  0  0  0  0
  -22.5060  -12.1320   22.3630 H   0  0  0  0  0  0  0  0  0  0  0  0
  -21.2150  -13.2340   21.9730 H   0  0  0  0  0  0  0  0  0  0  0  0
  -25.6500  -15.2850   20.4200 N   0  0  0  0  0  0  0  0  0  0  0  0
  -24.8680  -15.9300   20.4340 H   0  0  0  0  0  0  0  0  0  0  0  0
  -26.5230  -15.7250   20.1630 H   0  0  0  0  0  0  0  0  0  0  0  0
  -29.3570  -22.9450   20.0560 C   0  0  0  0  0  2  0  0  0  0  0  0
  -28.2230  -24.0590   19.9600 C   0  0  0  0  0  2  0  0  0  0  0  0
  -28.6640  -25.6100   17.9040 C   0  0  0  0  0  1  0  0  0  0  0  0
  -28.7360  -25.4680   19.4340 C   0  0  0  0  0  3  0  0  0  0  0  0
  -28.4280  -26.7280   20.1120 O   0  0  0  0  0  0  0  0  0  0  0  0
  -24.5860  -31.8960   23.1810 C   0  0  0  0  0  0  0  0  0  0  0  0
  -27.2400  -27.4510   20.0440 C   0  0  0  0  0  0  0  0  0  0  0  0
  -23.3820  -30.5070   21.5280 C   0  0  0  0  0  3  0  0  0  0  0  0
  -24.8370  -28.9850   20.0740 C   0  0  0  0  0  0  0  0  0  0  0  0
  -25.9080  -30.8690   21.3240 C   0  0  0  0  0  2  0  0  0  0  0  0
  -25.9970  -29.5010   20.6620 C   0  0  0  0  0  0  0  0  0  0  0  0
  -27.1950  -28.7420   20.6400 C   0  0  0  0  0  3  0  0  0  0  0  0
  -26.0560  -26.9560   19.4580 C   0  0  0  0  0  3  0  0  0  0  0  0
  -24.8650  -27.7150   19.4660 C   0  0  0  0  0  3  0  0  0  0  0  0
  -23.5900  -29.8440   20.1390 C   0  0  0  0  0  2  0  0  0  0  0  0
  -24.6450  -31.1070   22.0690 N   0  0  0  0  0  0  0  0  0  0  0  0
  -23.5050  -32.1560   23.7290 O   0  0  0  0  0  0  0  0  0  0  0  0
  -22.7390  -29.4730   22.4810 C   0  0  0  0  0  0  0  0  0  0  0  0
  -21.4120  -29.2930   22.3690 N   0  0  0  0  0  0  0  0  0  0  0  0
  -23.4340  -28.8330   23.2780 O   0  0  0  0  0  0  0  0  0  0  0  0
  -20.9140  -29.8570   21.6950 H   0  0  0  0  0  0  0  0  0  0  0  0
  -18.0450  -28.0920   22.9000 C   0  0  0  0  0  0  0  0  0  0  0  0
  -20.6070  -28.3400   23.1340 C   0  0  0  0  0  3  0  0  0  0  0  0
  -20.6980  -26.9210   22.5280 C   0  0  0  0  0  2  0  0  0  0  0  0
  -19.5790  -26.6220   21.5250 C   0  0  0  0  0  2  0  0  0  0  0  0
  -18.2090  -26.7570   22.1950 C   0  0  0  0  0  2  0  0  0  0  0  0
  -19.1720  -28.8420   23.3270 C   0  0  0  0  0  0  0  0  0  0  0  0
  -18.9670  -30.0940   23.9460 C   0  0  0  0  0  3  0  0  0  0  0  0
  -17.6650  -30.5940   24.1450 C   0  0  0  0  0  3  0  0  0  0  0  0
  -16.5530  -29.8390   23.7340 C   0  0  0  0  0  3  0  0  0  0  0  0
  -16.7440  -28.5900   23.1160 C   0  0  0  0  0  3  0  0  0  0  0  0
  -25.8680  -32.5320   23.8020 C   0  0  0  0  0  3  0  0  0  0  0  0
  -26.3920  -31.7570   25.0730 C   0  0  1  0  0  0  0  0  0  0  0  0
  -25.3040  -31.5090   26.1440 C   0  0  0  0  0  1  0  0  0  0  0  0
  -26.9800  -30.3840   24.6720 C   0  0  0  0  0  1  0  0  0  0  0  0
  -27.5420  -32.5520   25.7350 C   0  0  0  0  0  1  0  0  0  0  0  0
  -25.5530  -33.9270   24.1400 N   0  0  0  0  0  0  0  0  0  0  0  0
  -25.8870  -34.9870   23.3920 C   0  0  0  0  0  0  0  0  0  0  0  0
  -26.5620  -34.8910   22.3630 O   0  0  0  0  0  0  0  0  0  0  0  0
  -24.9530  -34.0720   24.9390 H   0  0  0  0  0  0  0  0  0  0  0  0
  -24.1680  -36.7860   23.0250 C   0  0  0  0  0  1  0  0  0  0  0  0
  -25.3920  -36.3720   23.8550 C   0  0  0  0  0  3  0  0  0  0  0  0
  -27.5070  -37.2490   24.7420 C   0  0  0  0  0  1  0  0  0  0  0  0
  -26.4280  -37.4240   23.7740 N   0  0  0  0  0  0  0  0  0  0  0  0
  -26.0210  -38.3440   23.9140 H   0  0  0  0  0  0  0  0  0  0  0  0
  1  3  1  0
  2  4  1  0
  4  6  1  0
  5  2  1  0
  5  1  1  0
  6 48  1  0
  6  3  1  0
  6  7  1  6
  8 15  2  0
  9 14  1  0
 10 11  1  0
 10  9  1  0
 12 11  1  0
 12 23  1  0
 12 13  1  0
 14  8  1  0
 14 13  1  0
 16 17  1  0
 17 19  1  0
 18 16  1  0
 18 19  1  0
 18  5  1  0
 19  8  1  0
 20 21  2  0
 21 22  1  0
 21 40  1  0
 22 25  1  0
 23 20  1  0
 23 24  1  0
 24 22  2  0
 25 26  1  0
 26 27  2  0
 28 31  1  0
 28 27  1  0
 29 28  2  0
 30 29  1  0
 30 25  2  0
 31 32  1  0
 32 33  1  0
 33 34  2  0
 35 34  1  0
 35 39  1  0
 36 35  2  0
 37 32  2  0
 37 36  1  0
 38 37  1  0
 40 41  1  0
 41 44  1  0
 41 43  1  0
 42 40  2  0
 45 46  1  0
 45 20  1  0
 47 45  1  0
 49 48  1  0
 51 50  1  0
 51 49  1  0
 51 52  1  0
 53 64  2  0
 54 52  1  0
 54 59  1  0
 55 63  1  0
 55 65  1  0
 56 62  1  0
 56 58  1  0
 57 63  1  0
 58 57  1  0
 59 58  2  0
 60 61  1  0
 60 54  2  0
 61 56  2  0
 62 55  1  0
 63 53  1  0
 65 67  2  0
 66 65  1  0
 68 66  1  0
 69 78  2  0
 69 74  1  0
 70 66  1  0
 70 74  1  0
 71 70  1  0
 72 73  1  0
 72 71  1  0
 73 69  1  0
 74 75  2  0
 75 76  1  0
 77 76  2  0
 78 77  1  0
 79 53  1  0
 79 84  1  0
 79 80  1  0
 80 83  1  1
 80 81  1  0
 82 80  1  0
 84 87  1  0
 85 89  1  0
 85 84  1  0
 86 85  2  0
 89 88  1  0
 91 89  1  0
 91 92  1  0
 91 90  1  0
M  ISO  4   8 100  19 100  51 101  52 101
M  END
>  <TORSDO>  (64) 
F 19

>  <SCORE>  (64) 
-13.024

>  <name>  (64) 
64

>  <ligand_id>  (64) 
64

>  <original_smiles>  (64) 
[H]c1c([H])c([H])c2c(c1[H])C([H])([H])C([H])([H])C([H])([H])C2([H])N([H])C(=O)C1([H])N(C(=O)C([H])(N([H])C(=O)C([H])(N([H])C([H])([H])[H])C([H])([H])[H])C(C([H])([H])[H])(C([H])([H])[H])C([H])([H])[H])C([H])([H])c2c([H])c(OC([H])(C([H])([H])[H])C([H])([H])C([H])([H])[N+]3([H])C([H])([H])C([H])([H])C([H])(C4([H])N(C(=O)N5C([H])([H])C([H])([H])C([H])([H])C([H])(n6nc(-c7c([H])c([H])c(Oc8c([H])c([H])c(F)c([H])c8F)c([H])c7[H])c(C(=O)N([H])[H])c6N([H])[H])C5([H])[H])C([H])([H])C4([H])[H])C([H])([H])C3([H])[H])c([H])c([H])c2C1([H])[H]

>  <smiles>  (64) 
[H]c1c([H])c([H])c2c(c1[H])C([H])([H])C([H])([H])C([H])([H])C2([H])N([H])C(=O)C1([H])N(C(=O)C([H])(N([H])C(=O)C([H])(N([H])C([H])([H])[H])C([H])([H])[H])C(C([H])([H])[H])(C([H])([H])[H])C([H])([H])[H])C([H])([H])c2c([H])c(OC([H])(C([H])([H])[H])C([H])([H])C([H])([H])[N+]3([H])C([H])([H])C([H])([H])C([H])(C4([H])N(C(=O)N5C([H])([H])C([H])([H])C([H])([H])C([H])(n6nc(-c7c([H])c([H])c(Oc8c([H])c([H])c(F)c([H])c8F)c([H])c7[H])c(C(=O)N([H])[H])c6N([H])[H])C5([H])[H])C([H])([H])C4([H])[H])C([H])([H])C3([H])[H])c([H])c([H])c2C1([H])[H]

$$$$
65:0:0
     RDKit          3D

 99108  0  0  1  0  0  0  0  0999 V2000
  -29.6610  -23.9030   22.4200 C   0  0  0  0  0  2  0  0  0  0  0  0
  -30.7820  -24.7530   21.8050 C   0  0  0  0  0  2  0  0  0  0  0  0
  -29.5560  -22.5620   21.6790 C   0  0  0  0  0  2  0  0  0  0  0  0
  -30.6740  -24.8580   20.2580 C   0  0  0  0  0  3  0  0  0  0  0  0
  -29.4100  -24.1420   19.6810 C   0  0  0  0  0  3  0  0  0  0  0  0
  -29.1420  -22.7300   20.2590 N   0  0  1  0  0  4  0  0  0  0  0  0
  -28.1390  -22.6140   20.2600 H   0  0  0  0  0  0  0  0  0  0  0  0
  -31.9670  -24.5170   19.4820 C   0  0  0  0  0  0  0  0  0  0  0  0
  -32.9680  -24.0370   20.0200 O   0  0  0  0  0  0  0  0  0  0  0  0
  -32.9580  -24.5580   17.2970 C   0  0  0  0  0  1  0  0  0  0  0  0
  -31.8660  -24.8050   18.1700 O   0  0  0  0  0  0  0  0  0  0  0  0
  -28.0590  -25.3910   17.9350 C   0  0  0  0  0  1  0  0  0  0  0  0
  -28.1820  -25.1670   19.4650 C   0  0  0  0  0  3  0  0  0  0  0  0
  -28.2440  -26.5320   20.0670 O   0  0  0  0  0  0  0  0  0  0  0  0
  -24.5760  -31.9360   23.2200 C   0  0  0  0  0  0  0  0  0  0  0  0
  -27.1000  -27.3610   20.0920 C   0  0  0  0  0  0  0  0  0  0  0  0
  -23.3320  -30.5490   21.6050 C   0  0  0  0  0  3  0  0  0  0  0  0
  -24.7420  -28.9940   20.1570 C   0  0  0  0  0  0  0  0  0  0  0  0
  -25.8730  -30.8500   21.3710 C   0  0  0  0  0  2  0  0  0  0  0  0
  -25.9310  -29.4720   20.7200 C   0  0  0  0  0  0  0  0  0  0  0  0
  -27.1110  -28.6680   20.6770 C   0  0  0  0  0  3  0  0  0  0  0  0
  -25.8610  -26.9250   19.5580 C   0  0  0  0  0  3  0  0  0  0  0  0
  -24.7070  -27.7240   19.5740 C   0  0  0  0  0  3  0  0  0  0  0  0
  -23.5190  -29.8860   20.2170 C   0  0  0  0  0  2  0  0  0  0  0  0
  -24.6140  -31.1300   22.1200 N   0  0  0  0  0  0  0  0  0  0  0  0
  -23.5050  -32.2190   23.7730 O   0  0  0  0  0  0  0  0  0  0  0  0
  -22.6840  -29.5300   22.5720 C   0  0  0  0  0  0  0  0  0  0  0  0
  -21.3570  -29.3500   22.4620 N   0  0  0  0  0  0  0  0  0  0  0  0
  -23.3730  -28.9060   23.3850 O   0  0  0  0  0  0  0  0  0  0  0  0
  -20.8600  -29.9050   21.7790 H   0  0  0  0  0  0  0  0  0  0  0  0
  -17.9880  -28.1410   22.9800 C   0  0  0  0  0  0  0  0  0  0  0  0
  -20.5450  -28.4200   23.2470 C   0  0  0  0  0  3  0  0  0  0  0  0
  -20.6570  -26.9810   22.6930 C   0  0  0  0  0  2  0  0  0  0  0  0
  -19.5580  -26.6380   21.6820 C   0  0  0  0  0  2  0  0  0  0  0  0
  -18.1750  -26.7820   22.3240 C   0  0  0  0  0  2  0  0  0  0  0  0
  -19.1030  -28.9160   23.4000 C   0  0  0  0  0  0  0  0  0  0  0  0
  -18.8760  -30.1830   23.9770 C   0  0  0  0  0  3  0  0  0  0  0  0
  -17.5690  -30.6760   24.1410 C   0  0  0  0  0  3  0  0  0  0  0  0
  -16.4680  -29.9010   23.7350 C   0  0  0  0  0  3  0  0  0  0  0  0
  -16.6800  -28.6360   23.1590 C   0  0  0  0  0  3  0  0  0  0  0  0
  -25.8740  -32.5610   23.8160 C   0  0  0  0  0  3  0  0  0  0  0  0
  -25.5750  -33.9590   24.1540 N   0  0  0  0  0  0  0  0  0  0  0  0
  -25.8990  -35.0120   23.3920 C   0  0  0  0  0  0  0  0  0  0  0  0
  -26.5500  -34.9090   22.3500 O   0  0  0  0  0  0  0  0  0  0  0  0
  -24.9920  -34.1120   24.9640 H   0  0  0  0  0  0  0  0  0  0  0  0
  -24.1760  -36.8170   23.0690 C   0  0  0  0  0  1  0  0  0  0  0  0
  -25.4250  -36.4020   23.8620 C   0  0  0  0  0  3  0  0  0  0  0  0
  -27.5770  -37.2680   24.6670 C   0  0  0  0  0  1  0  0  0  0  0  0
  -26.4620  -37.4490   23.7420 N   0  0  0  0  0  0  0  0  0  0  0  0
  -26.0620  -38.3690   23.9030 H   0  0  0  0  0  0  0  0  0  0  0  0
  -26.4110  -31.7820   25.0780 C   0  0  1  0  0  0  0  0  0  0  0  0
  -25.3410  -31.5500   26.1710 C   0  0  0  0  0  1  0  0  0  0  0  0
  -26.9750  -30.4010   24.6730 C   0  0  0  0  0  1  0  0  0  0  0  0
  -27.5810  -32.5690   25.7150 C   0  0  0  0  0  1  0  0  0  0  0  0
  -29.6560  -21.5870   19.3870 C   0  0  0  0  0  2  0  0  0  0  0  0
  -30.8650  -19.2960   19.5700 C   0  0  0  0  0  3  0  0  0  0  0  0
  -28.6030  -19.3620   20.3800 C   0  0  0  0  0  3  0  0  0  0  0  0
  -30.9210  -17.8870   19.7830 C   0  0  0  0  0  3  0  0  0  0  0  0
  -28.6650  -17.9530   20.6080 C   0  0  0  0  0  3  0  0  0  0  0  0
  -29.7040  -20.0770   19.8460 C   0  0  0  0  0  0  0  0  0  0  0  0
  -29.8130  -17.1690   20.3000 C   0  0  0  0  0  0  0  0  0  0  0  0
  -30.5700  -14.6890   20.0920 C   0  0  0  0  0  0  0  0  0  0  0  0
  -30.3310  -12.4740   18.9950 C   0  0  0  0  0  2  0  0  0  0  0  0
  -29.3400  -12.6460   17.8240 C   0  0  0  0  0  2  0  0  0  0  0  0
  -27.8920  -12.4460   18.3180 C   0  0  0  0  0  2  0  0  0  0  0  0
  -27.5780  -13.2880   19.5830 C   0  0  0  0  0  3  0  0  0  0  0  0
  -28.6780  -13.1070   20.6520 C   0  0  0  0  0  2  0  0  0  0  0  0
  -29.9650  -13.4610   20.0300 N   0  0  0  0  0  0  0  0  0  0  0  0
  -31.7130  -14.8600   19.6600 O   0  0  0  0  0  0  0  0  0  0  0  0
  -29.7690  -15.7190   20.5070 N   0  0  0  0  0  0  0  0  0  0  0  0
  -28.8980  -15.3860   20.8910 H   0  0  0  0  0  0  0  0  0  0  0  0
  -25.2150  -13.8720   20.4100 C   0  0  0  0  0  0  0  0  0  0  0  0
  -24.1660  -13.0900   20.8140 C   0  0  0  0  0  0  0  0  0  0  0  0
  -24.6330  -11.7410   20.7490 C   0  0  0  0  0  0  0  0  0  0  0  0
  -26.2500  -12.9980   20.1170 N   0  0  0  0  0  0  0  0  0  0  0  0
  -25.9080  -11.7120   20.3830 N   0  0  0  0  0  0  0  0  0  0  0  0
  -23.9240  -10.4720   20.9630 C   0  0  0  0  0  0  0  0  0  0  0  0
  -24.3890   -9.5130   21.8890 C   0  0  0  0  0  3  0  0  0  0  0  0
  -23.6800   -8.3080   22.0860 C   0  0  0  0  0  3  0  0  0  0  0  0
  -22.4920   -8.0560   21.3590 C   0  0  0  0  0  0  0  0  0  0  0  0
  -22.0470   -9.0060   20.4250 C   0  0  0  0  0  3  0  0  0  0  0  0
  -22.7560  -10.2020   20.2240 C   0  0  0  0  0  3  0  0  0  0  0  0
  -21.7530   -6.9020   21.4660 O   0  0  0  0  0  0  0  0  0  0  0  0
  -21.7230   -6.1720   22.6270 C   0  0  0  0  0  0  0  0  0  0  0  0
  -21.3040   -6.7360   23.8520 C   0  0  0  0  0  3  0  0  0  0  0  0
  -21.2210   -5.9310   25.0060 C   0  0  0  0  0  3  0  0  0  0  0  0
  -21.5460   -4.5630   24.9360 C   0  0  0  0  0  0  0  0  0  0  0  0
  -21.9610   -4.0000   23.7150 C   0  0  0  0  0  3  0  0  0  0  0  0
  -22.0450   -4.8030   22.5650 C   0  0  0  0  0  0  0  0  0  0  0  0
  -22.4250   -4.2490   21.3870 F   0  0  0  0  0  0  0  0  0  0  0  0
  -21.4600   -3.7880   26.0420 F   0  0  0  0  0  0  0  0  0  0  0  0
  -22.7780  -13.5590   21.1440 C   0  0  0  0  0  0  0  0  0  0  0  0
  -22.0850  -12.8530   22.0310 N   0  0  0  0  0  0  0  0  0  0  0  0
  -22.3160  -14.5870   20.6510 O   0  0  0  0  0  0  0  0  0  0  0  0
  -22.4710  -12.0260   22.4620 H   0  0  0  0  0  0  0  0  0  0  0  0
  -21.1560  -13.1530   22.2910 H   0  0  0  0  0  0  0  0  0  0  0  0
  -25.3670  -15.2450   20.2480 N   0  0  0  0  0  0  0  0  0  0  0  0
  -24.6010  -15.8870   20.4150 H   0  0  0  0  0  0  0  0  0  0  0  0
  -26.1980  -15.6980   19.8910 H   0  0  0  0  0  0  0  0  0  0  0  0
  2  1  1  0
  3  1  1  0
  4  8  1  0
  4  2  1  0
  5 13  1  0
  5  4  1  0
  5  6  1  0
  6  7  1  1
  6  3  1  0
  8  9  2  0
 10 11  1  0
 11  8  1  0
 13 12  1  0
 13 14  1  0
 14 16  1  0
 15 26  2  0
 16 21  1  0
 17 25  1  0
 17 27  1  0
 18 24  1  0
 18 20  1  0
 19 25  1  0
 20 19  1  0
 21 20  2  0
 22 23  1  0
 22 16  2  0
 23 18  2  0
 24 17  1  0
 25 15  1  0
 27 29  2  0
 28 27  1  0
 30 28  1  0
 31 40  2  0
 31 36  1  0
 32 28  1  0
 32 36  1  0
 33 32  1  0
 34 35  1  0
 34 33  1  0
 35 31  1  0
 36 37  2  0
 37 38  1  0
 39 38  2  0
 40 39  1  0
 41 15  1  0
 41 42  1  0
 41 51  1  0
 42 45  1  0
 43 47  1  0
 43 42  1  0
 44 43  2  0
 47 46  1  0
 49 47  1  0
 49 50  1  0
 49 48  1  0
 51 54  1  1
 51 52  1  0
 53 51  1  0
 55 60  1  0
 55  6  1  0
 56 58  2  0
 56 60  1  0
 57 59  1  0
 58 61  1  0
 60 57  2  0
 61 70  1  0
 61 59  2  0
 62 70  1  0
 63 68  1  0
 64 65  1  0
 64 63  1  0
 66 65  1  0
 66 75  1  0
 66 67  1  0
 68 62  1  0
 68 67  1  0
 69 62  2  0
 70 71  1  0
 72 73  2  0
 73 92  1  0
 74 73  1  0
 74 77  1  0
 75 76  1  0
 75 72  1  0
 76 74  2  0
 77 78  1  0
 78 79  2  0
 80 83  1  0
 80 79  1  0
 81 80  2  0
 82 81  1  0
 82 77  2  0
 83 84  1  0
 84 85  1  0
 85 86  2  0
 87 86  1  0
 87 91  1  0
 88 87  2  0
 89 84  2  0
 89 88  1  0
 90 89  1  0
 92 93  1  0
 93 96  1  0
 93 95  1  0
 94 92  2  0
 97 72  1  0
 97 98  1  0
 99 97  1  0
M  ISO  4  13 101  14 101  62 100  70 100
M  END
>  <TORSDO>  (65) 
F 21

>  <SCORE>  (65) 
-13.487

>  <name>  (65) 
65

>  <ligand_id>  (65) 
65

>  <original_smiles>  (65) 
[H]c1c([H])c([H])c2c(c1[H])C([H])([H])C([H])([H])C([H])([H])C2([H])N([H])C(=O)C1([H])N(C(=O)C([H])(N([H])C(=O)C([H])(N([H])C([H])([H])[H])C([H])([H])[H])C(C([H])([H])[H])(C([H])([H])[H])C([H])([H])[H])C([H])([H])c2c([H])c(OC([H])(C([H])([H])[H])C3([H])C([H])(C(=O)OC([H])([H])[H])C([H])([H])C([H])([H])C([H])([H])[N+]3([H])C([H])([H])c3c([H])c([H])c(N([H])C(=O)N4C([H])([H])C([H])([H])C([H])([H])C([H])(n5nc(-c6c([H])c([H])c(Oc7c([H])c([H])c(F)c([H])c7F)c([H])c6[H])c(C(=O)N([H])[H])c5N([H])[H])C4([H])[H])c([H])c3[H])c([H])c([H])c2C1([H])[H]

>  <smiles>  (65) 
[H]c1c([H])c([H])c2c(c1[H])C([H])([H])C([H])([H])C([H])([H])C2([H])N([H])C(=O)C1([H])N(C(=O)C([H])(N([H])C(=O)C([H])(N([H])C([H])([H])[H])C([H])([H])[H])C(C([H])([H])[H])(C([H])([H])[H])C([H])([H])[H])C([H])([H])c2c([H])c(OC([H])(C([H])([H])[H])C3([H])C([H])(C(=O)OC([H])([H])[H])C([H])([H])C([H])([H])C([H])([H])[N+]3([H])C([H])([H])c3c([H])c([H])c(N([H])C(=O)N4C([H])([H])C([H])([H])C([H])([H])C([H])(n5nc(-c6c([H])c([H])c(Oc7c([H])c([H])c(F)c([H])c7F)c([H])c6[H])c(C(=O)N([H])[H])c5N([H])[H])C4([H])[H])c([H])c3[H])c([H])c([H])c2C1([H])[H]

$$$$
66:0:0
     RDKit          3D

 96104  0  0  1  0  0  0  0  0999 V2000
  -29.3940  -20.4250   20.5950 C   0  0  0  0  0  2  0  0  0  0  0  0
  -29.4990  -22.1700   22.4320 C   0  0  0  0  0  1  0  0  0  0  0  0
  -29.7650  -21.8930   20.9440 C   0  0  0  0  0  3  0  0  0  0  0  0
  -28.9490  -22.8600   20.0420 C   0  0  0  0  0  2  0  0  0  0  0  0
  -29.3040  -24.3770   20.0780 C   0  0  0  0  0  2  0  0  0  0  0  0
  -27.5930  -25.2280   21.7520 C   0  0  0  0  0  1  0  0  0  0  0  0
  -28.0510  -25.2670   20.2800 C   0  0  0  0  0  3  0  0  0  0  0  0
  -28.2430  -26.6390   19.8640 O   0  0  0  0  0  0  0  0  0  0  0  0
  -24.5050  -31.7710   23.0650 C   0  0  0  0  0  0  0  0  0  0  0  0
  -27.0940  -27.4130   19.8340 C   0  0  0  0  0  0  0  0  0  0  0  0
  -23.2700  -30.4090   21.4120 C   0  0  0  0  0  3  0  0  0  0  0  0
  -24.7010  -28.9240   19.9130 C   0  0  0  0  0  0  0  0  0  0  0  0
  -25.7910  -30.7840   21.1740 C   0  0  0  0  0  2  0  0  0  0  0  0
  -25.8700  -29.4310   20.4970 C   0  0  0  0  0  0  0  0  0  0  0  0
  -27.0700  -28.6820   20.4550 C   0  0  0  0  0  3  0  0  0  0  0  0
  -25.9120  -26.9450   19.2140 C   0  0  0  0  0  3  0  0  0  0  0  0
  -24.7200  -27.6790   19.2670 C   0  0  0  0  0  3  0  0  0  0  0  0
  -23.4540  -29.7730   20.0080 C   0  0  0  0  0  2  0  0  0  0  0  0
  -24.5410  -30.9990   21.9430 N   0  0  0  0  0  0  0  0  0  0  0  0
  -23.4330  -32.0250   23.6320 O   0  0  0  0  0  0  0  0  0  0  0  0
  -22.6430  -29.3570   22.3590 C   0  0  0  0  0  0  0  0  0  0  0  0
  -21.3140  -29.1810   22.2650 N   0  0  0  0  0  0  0  0  0  0  0  0
  -23.3480  -28.7090   23.1360 O   0  0  0  0  0  0  0  0  0  0  0  0
  -20.8030  -29.7630   21.6160 H   0  0  0  0  0  0  0  0  0  0  0  0
  -17.9540  -27.9780   22.8170 C   0  0  0  0  0  0  0  0  0  0  0  0
  -20.5180  -28.2250   23.0320 C   0  0  0  0  0  3  0  0  0  0  0  0
  -20.6020  -26.8100   22.4170 C   0  0  0  0  0  2  0  0  0  0  0  0
  -19.4740  -26.5160   21.4220 C   0  0  0  0  0  2  0  0  0  0  0  0
  -18.1100  -26.6460   22.1050 C   0  0  0  0  0  2  0  0  0  0  0  0
  -19.0840  -28.7280   23.2390 C   0  0  0  0  0  0  0  0  0  0  0  0
  -18.8850  -29.9760   23.8660 C   0  0  0  0  0  3  0  0  0  0  0  0
  -17.5860  -30.4760   24.0780 C   0  0  0  0  0  3  0  0  0  0  0  0
  -16.4700  -29.7240   23.6720 C   0  0  0  0  0  3  0  0  0  0  0  0
  -16.6540  -28.4780   23.0470 C   0  0  0  0  0  3  0  0  0  0  0  0
  -25.8020  -32.3940   23.6720 C   0  0  0  0  0  3  0  0  0  0  0  0
  -25.4910  -33.7740   24.0640 N   0  0  0  0  0  0  0  0  0  0  0  0
  -25.8020  -34.8580   23.3410 C   0  0  0  0  0  0  0  0  0  0  0  0
  -26.4550  -34.8010   22.2960 O   0  0  0  0  0  0  0  0  0  0  0  0
  -24.9140  -33.8930   24.8860 H   0  0  0  0  0  0  0  0  0  0  0  0
  -24.0550  -36.6470   23.0790 C   0  0  0  0  0  1  0  0  0  0  0  0
  -25.3100  -36.2230   23.8600 C   0  0  0  0  0  3  0  0  0  0  0  0
  -27.4500  -37.0880   24.6950 C   0  0  0  0  0  1  0  0  0  0  0  0
  -26.3320  -37.2890   23.7760 N   0  0  0  0  0  0  0  0  0  0  0  0
  -25.9190  -38.1970   23.9730 H   0  0  0  0  0  0  0  0  0  0  0  0
  -26.3650  -31.5770   24.8990 C   0  0  1  0  0  0  0  0  0  0  0  0
  -25.3120  -31.2910   25.9930 C   0  0  0  0  0  1  0  0  0  0  0  0
  -26.9420  -30.2200   24.4320 C   0  0  0  0  0  1  0  0  0  0  0  0
  -27.5310  -32.3550   25.5540 C   0  0  0  0  0  1  0  0  0  0  0  0
  -30.0950  -19.3890   21.3620 N   0  0  0  0  0  0  0  0  0  0  0  0
  -29.7890  -19.3440   22.3290 H   0  0  0  0  0  0  0  0  0  0  0  0
  -30.8670  -14.6870   21.1260 C   0  0  0  0  0  0  0  0  0  0  0  0
  -30.7570  -12.3380   20.4010 C   0  0  0  0  0  2  0  0  0  0  0  0
  -29.9930  -12.2080   19.0700 C   0  0  0  0  0  2  0  0  0  0  0  0
  -28.4580  -12.2080   19.2810 C   0  0  0  0  0  2  0  0  0  0  0  0
  -27.9230  -13.1960   20.3610 C   0  0  0  0  0  3  0  0  0  0  0  0
  -28.8440  -13.2530   21.5970 C   0  0  0  0  0  2  0  0  0  0  0  0
  -30.2070  -13.4950   21.1120 N   0  0  0  0  0  0  0  0  0  0  0  0
  -32.0940  -14.7440   21.2180 O   0  0  0  0  0  0  0  0  0  0  0  0
  -31.0380  -18.1440   19.4570 C   0  0  0  0  0  3  0  0  0  0  0  0
  -30.1960  -16.9740   21.3520 C   0  0  0  0  0  3  0  0  0  0  0  0
  -30.9230  -17.0440   18.6850 C   0  0  0  0  0  0  0  0  0  0  0  0
  -30.4680  -18.1800   20.7890 C   0  0  0  0  0  0  0  0  0  0  0  0
  -30.1740  -15.9030   19.2350 C   0  0  0  0  0  0  0  0  0  0  0  0
  -30.2240  -15.7710   20.6020 N   0  0  0  0  0  0  0  0  0  0  0  0
  -29.5380  -15.1510   18.5010 O   0  0  0  0  0  0  0  0  0  0  0  0
  -25.4630  -13.8120   20.7670 C   0  0  0  0  0  0  0  0  0  0  0  0
  -24.3590  -13.0450   21.0210 C   0  0  0  0  0  0  0  0  0  0  0  0
  -24.8250  -11.6980   21.1040 C   0  0  0  0  0  0  0  0  0  0  0  0
  -26.5300  -12.9280   20.7020 N   0  0  0  0  0  0  0  0  0  0  0  0
  -26.1430  -11.6560   20.9720 N   0  0  0  0  0  0  0  0  0  0  0  0
  -24.0870  -10.4370   21.2430 C   0  0  0  0  0  0  0  0  0  0  0  0
  -24.4370   -9.4820   22.2220 C   0  0  0  0  0  3  0  0  0  0  0  0
  -23.7020   -8.2840   22.3460 C   0  0  0  0  0  3  0  0  0  0  0  0
  -22.6020   -8.0330   21.4930 C   0  0  0  0  0  0  0  0  0  0  0  0
  -22.2720   -8.9770   20.5030 C   0  0  0  0  0  3  0  0  0  0  0  0
  -23.0090  -10.1670   20.3770 C   0  0  0  0  0  3  0  0  0  0  0  0
  -21.8450   -6.8880   21.5280 O   0  0  0  0  0  0  0  0  0  0  0  0
  -21.7250   -6.1390   22.6710 C   0  0  0  0  0  0  0  0  0  0  0  0
  -21.2420   -6.6920   23.8770 C   0  0  0  0  0  3  0  0  0  0  0  0
  -21.0690   -5.8700   25.0090 C   0  0  0  0  0  3  0  0  0  0  0  0
  -21.3720   -4.4970   24.9360 C   0  0  0  0  0  0  0  0  0  0  0  0
  -21.8530   -3.9460   23.7360 C   0  0  0  0  0  3  0  0  0  0  0  0
  -22.0260   -4.7630   22.6060 C   0  0  0  0  0  0  0  0  0  0  0  0
  -22.4690   -4.2230   21.4450 F   0  0  0  0  0  0  0  0  0  0  0  0
  -21.2000   -3.7060   26.0210 F   0  0  0  0  0  0  0  0  0  0  0  0
  -22.9390  -13.5220   21.0900 C   0  0  0  0  0  0  0  0  0  0  0  0
  -22.1100  -12.8600   21.8920 N   0  0  0  0  0  0  0  0  0  0  0  0
  -22.5650  -14.5150   20.4670 O   0  0  0  0  0  0  0  0  0  0  0  0
  -22.4200  -12.0590   22.4200 H   0  0  0  0  0  0  0  0  0  0  0  0
  -21.1500  -13.1630   21.9810 H   0  0  0  0  0  0  0  0  0  0  0  0
  -25.6460  -15.1770   20.5630 N   0  0  0  0  0  0  0  0  0  0  0  0
  -24.8750  -15.8360   20.5560 H   0  0  0  0  0  0  0  0  0  0  0  0
  -26.5370  -15.6040   20.3420 H   0  0  0  0  0  0  0  0  0  0  0  0
  -31.6030  -18.2910   16.5310 C   0  0  0  0  0  1  0  0  0  0  0  0
  -32.8460  -16.2070   17.2420 C   0  0  0  0  0  1  0  0  0  0  0  0
  -31.4910  -16.9380   17.2600 C   0  0  0  0  0  3  0  0  0  0  0  0
  1  3  1  0
  1 49  1  0
  3  2  1  0
  4  5  1  0
  4  3  1  0
  5  7  1  0
  7  6  1  0
  8  7  1  0
  9 20  2  0
 10  8  1  0
 10 15  1  0
 11 19  1  0
 11 21  1  0
 12 18  1  0
 12 14  1  0
 13 19  1  0
 14 13  1  0
 15 14  2  0
 16 17  1  0
 16 10  2  0
 17 12  2  0
 18 11  1  0
 19  9  1  0
 21 23  2  0
 22 21  1  0
 24 22  1  0
 25 34  2  0
 25 30  1  0
 26 22  1  0
 26 30  1  0
 27 26  1  0
 28 29  1  0
 28 27  1  0
 29 25  1  0
 30 31  2  0
 31 32  1  0
 33 32  2  0
 34 33  1  0
 35  9  1  0
 35 36  1  0
 35 45  1  0
 36 39  1  0
 37 41  1  0
 37 36  1  0
 38 37  2  0
 41 40  1  0
 43 41  1  0
 43 44  1  0
 43 42  1  0
 45 48  1  1
 45 46  1  0
 47 45  1  0
 49 50  1  0
 51 58  2  0
 52 57  1  0
 53 54  1  0
 53 52  1  0
 55 54  1  0
 55 69  1  0
 55 56  1  0
 57 51  1  0
 57 56  1  0
 59 62  1  0
 61 63  1  0
 61 59  2  0
 62 60  2  0
 62 49  1  0
 63 64  1  0
 64 51  1  0
 64 60  1  0
 65 63  2  0
 66 67  2  0
 67 86  1  0
 67 68  1  0
 68 71  1  0
 69 66  1  0
 69 70  1  0
 70 68  2  0
 71 72  1  0
 72 73  2  0
 74 77  1  0
 74 73  1  0
 75 74  2  0
 76 75  1  0
 76 71  2  0
 77 78  1  0
 78 79  1  0
 79 80  2  0
 81 80  1  0
 81 85  1  0
 82 81  2  0
 83 78  2  0
 83 82  1  0
 84 83  1  0
 86 87  1  0
 87 90  1  0
 87 89  1  0
 88 86  2  0
 91 66  1  0
 92 91  1  0
 93 91  1  0
 94 96  1  0
 95 96  1  0
 96 61  1  0
M  ISO  4   7 101   8 101  51 100  64 100
M  END
>  <TORSDO>  (66) 
F 22

>  <SCORE>  (66) 
-12.632

>  <name>  (66) 
66

>  <ligand_id>  (66) 
66

>  <original_smiles>  (66) 
[H]c1c([H])c([H])c2c(c1[H])C([H])([H])C([H])([H])C([H])([H])C2([H])N([H])C(=O)C1([H])N(C(=O)C([H])(N([H])C(=O)C([H])(N([H])C([H])([H])[H])C([H])([H])[H])C(C([H])([H])[H])(C([H])([H])[H])C([H])([H])[H])C([H])([H])c2c([H])c(OC([H])(C([H])([H])[H])C([H])([H])C([H])([H])C([H])(C([H])([H])[H])C([H])([H])N([H])c3c([H])c(C([H])(C([H])([H])[H])C([H])([H])[H])c(=O)n(C(=O)N4C([H])([H])C([H])([H])C([H])([H])C([H])(n5nc(-c6c([H])c([H])c(Oc7c([H])c([H])c(F)c([H])c7F)c([H])c6[H])c(C(=O)N([H])[H])c5N([H])[H])C4([H])[H])c3[H])c([H])c([H])c2C1([H])[H]

>  <smiles>  (66) 
[H]c1c([H])c([H])c2c(c1[H])C([H])([H])C([H])([H])C([H])([H])C2([H])N([H])C(=O)C1([H])N(C(=O)C([H])(N([H])C(=O)C([H])(N([H])C([H])([H])[H])C([H])([H])[H])C(C([H])([H])[H])(C([H])([H])[H])C([H])([H])[H])C([H])([H])c2c([H])c(OC([H])(C([H])([H])[H])C([H])([H])C([H])([H])C([H])(C([H])([H])[H])C([H])([H])N([H])c3c([H])c(C([H])(C([H])([H])[H])C([H])([H])[H])c(=O)n(C(=O)N4C([H])([H])C([H])([H])C([H])([H])C([H])(n5nc(-c6c([H])c([H])c(Oc7c([H])c([H])c(F)c([H])c7F)c([H])c6[H])c(C(=O)N([H])[H])c5N([H])[H])C4([H])[H])c3[H])c([H])c([H])c2C1([H])[H]

$$$$
67:0:0
     RDKit          3D

 99108  0  0  1  0  0  0  0  0999 V2000
  -28.2890  -23.6110   19.0110 C   0  0  0  0  0  3  0  0  0  0  0  0
  -29.5570  -23.1270   20.7650 C   0  0  0  0  0  3  0  0  0  0  0  0
  -28.7120  -24.1020   20.2800 C   0  0  0  0  0  0  0  0  0  0  0  0
  -28.9020  -22.4120   18.7380 C   0  0  0  0  0  0  0  0  0  0  0  0
  -29.6960  -22.0880   19.8440 N   0  0  0  0  0  0  0  0  0  0  0  0
  -28.3700  -22.3290   16.2520 C   0  0  0  0  0  1  0  0  0  0  0  0
  -27.9030  -20.3360   17.6670 C   0  0  0  0  0  1  0  0  0  0  0  0
  -28.8270  -21.5520   17.4960 C   0  0  0  0  0  3  0  0  0  0  0  0
  -28.9570  -25.6390   22.3150 C   0  0  0  0  0  1  0  0  0  0  0  0
  -28.2570  -25.4040   20.9720 C   0  0  0  0  0  3  0  0  0  0  0  0
  -28.4250  -26.6250   20.2010 O   0  0  0  0  0  0  0  0  0  0  0  0
  -24.6730  -31.8900   23.2870 C   0  0  0  0  0  0  0  0  0  0  0  0
  -27.3090  -27.4430   20.1820 C   0  0  0  0  0  0  0  0  0  0  0  0
  -23.4780  -30.5060   21.6260 C   0  0  0  0  0  3  0  0  0  0  0  0
  -24.9390  -28.9880   20.1840 C   0  0  0  0  0  0  0  0  0  0  0  0
  -26.0110  -30.8550   21.4510 C   0  0  0  0  0  2  0  0  0  0  0  0
  -26.0990  -29.4920   20.7880 C   0  0  0  0  0  0  0  0  0  0  0  0
  -27.2930  -28.7290   20.7800 C   0  0  0  0  0  3  0  0  0  0  0  0
  -26.1350  -26.9640   19.5680 C   0  0  0  0  0  3  0  0  0  0  0  0
  -24.9550  -27.7270   19.5640 C   0  0  0  0  0  3  0  0  0  0  0  0
  -23.6940  -29.8450   20.2390 C   0  0  0  0  0  2  0  0  0  0  0  0
  -24.7400  -31.0980   22.1780 N   0  0  0  0  0  0  0  0  0  0  0  0
  -23.5890  -32.1600   23.8200 O   0  0  0  0  0  0  0  0  0  0  0  0
  -22.8180  -29.4750   22.5720 C   0  0  0  0  0  0  0  0  0  0  0  0
  -21.4970  -29.2860   22.4250 N   0  0  0  0  0  0  0  0  0  0  0  0
  -23.4930  -28.8470   23.3910 O   0  0  0  0  0  0  0  0  0  0  0  0
  -21.0150  -29.8420   21.7330 H   0  0  0  0  0  0  0  0  0  0  0  0
  -18.1260  -28.0450   22.8330 C   0  0  0  0  0  0  0  0  0  0  0  0
  -20.6720  -28.3380   23.1740 C   0  0  0  0  0  3  0  0  0  0  0  0
  -20.8120  -26.9080   22.6040 C   0  0  0  0  0  2  0  0  0  0  0  0
  -19.7420  -26.5690   21.5630 C   0  0  0  0  0  2  0  0  0  0  0  0
  -18.3400  -26.6970   22.1670 C   0  0  0  0  0  2  0  0  0  0  0  0
  -19.2220  -28.8240   23.2910 C   0  0  0  0  0  0  0  0  0  0  0  0
  -18.9690  -30.0860   23.8710 C   0  0  0  0  0  3  0  0  0  0  0  0
  -17.6530  -30.5710   23.9940 C   0  0  0  0  0  3  0  0  0  0  0  0
  -16.5710  -29.7870   23.5560 C   0  0  0  0  0  3  0  0  0  0  0  0
  -16.8080  -28.5260   22.9820 C   0  0  0  0  0  3  0  0  0  0  0  0
  -25.9540  -32.5140   23.9240 C   0  0  0  0  0  3  0  0  0  0  0  0
  -25.6610  -33.9230   24.2200 N   0  0  0  0  0  0  0  0  0  0  0  0
  -26.0460  -34.9560   23.4590 C   0  0  0  0  0  0  0  0  0  0  0  0
  -26.7550  -34.8210   22.4570 O   0  0  0  0  0  0  0  0  0  0  0  0
  -25.0380  -34.1040   24.9930 H   0  0  0  0  0  0  0  0  0  0  0  0
  -24.3750  -36.7770   22.9990 C   0  0  0  0  0  1  0  0  0  0  0  0
  -25.5690  -36.3610   23.8720 C   0  0  0  0  0  3  0  0  0  0  0  0
  -27.6830  -37.2110   24.7860 C   0  0  0  0  0  1  0  0  0  0  0  0
  -26.6280  -37.3910   23.7930 N   0  0  0  0  0  0  0  0  0  0  0  0
  -26.2360  -38.3220   23.9130 H   0  0  0  0  0  0  0  0  0  0  0  0
  -26.4330  -31.7610   25.2250 C   0  0  1  0  0  0  0  0  0  0  0  0
  -25.3120  -31.5580   26.2720 C   0  0  0  0  0  1  0  0  0  0  0  0
  -27.0040  -30.3690   24.8680 C   0  0  0  0  0  1  0  0  0  0  0  0
  -27.5800  -32.5530   25.8970 C   0  0  0  0  0  1  0  0  0  0  0  0
  -32.0260  -21.5080   19.4840 C   0  0  0  0  0  1  0  0  0  0  0  0
  -30.6570  -20.9600   19.9390 C   0  0  0  0  0  3  0  0  0  0  0  0
  -31.9660  -19.2900   21.4890 C   0  0  0  0  0  2  0  0  0  0  0  0
  -29.4880  -19.3230   21.6880 C   0  0  0  0  0  2  0  0  0  0  0  0
  -31.9100  -18.0760   20.5480 C   0  0  0  0  0  2  0  0  0  0  0  0
  -29.4130  -17.9440   20.9670 C   0  0  0  0  0  2  0  0  0  0  0  0
  -30.7220  -20.1990   21.3210 C   0  0  0  0  0  3  0  0  0  0  0  0
  -30.7500  -17.1350   20.9230 C   0  0  0  0  0  3  0  0  0  0  0  0
  -31.3720  -14.7680   20.4560 C   0  0  0  0  0  0  0  0  0  0  0  0
  -31.0410  -12.5270   19.5170 C   0  0  0  0  0  2  0  0  0  0  0  0
  -30.1340  -12.6030   18.2720 C   0  0  0  0  0  2  0  0  0  0  0  0
  -28.6440  -12.5770   18.6680 C   0  0  0  0  0  2  0  0  0  0  0  0
  -28.2790  -13.5050   19.8610 C   0  0  0  0  0  3  0  0  0  0  0  0
  -29.3120  -13.4100   21.0040 C   0  0  0  0  0  2  0  0  0  0  0  0
  -30.6460  -13.6180   20.4200 N   0  0  0  0  0  0  0  0  0  0  0  0
  -32.6020  -14.7690   20.4350 O   0  0  0  0  0  0  0  0  0  0  0  0
  -30.7110  -15.9030   20.0760 N   0  0  0  0  0  0  0  0  0  0  0  0
  -25.9020  -14.2050   20.5230 C   0  0  0  0  0  0  0  0  0  0  0  0
  -24.7870  -13.4700   20.8340 C   0  0  0  0  0  0  0  0  0  0  0  0
  -25.1940  -12.1020   20.7960 C   0  0  0  0  0  0  0  0  0  0  0  0
  -26.9130  -13.2790   20.3140 N   0  0  0  0  0  0  0  0  0  0  0  0
  -26.4900  -12.0110   20.5390 N   0  0  0  0  0  0  0  0  0  0  0  0
  -24.4130  -10.8700   20.9340 C   0  0  0  0  0  0  0  0  0  0  0  0
  -24.7780   -9.8680   21.8560 C   0  0  0  0  0  3  0  0  0  0  0  0
  -24.0010   -8.6970   21.9820 C   0  0  0  0  0  3  0  0  0  0  0  0
  -22.8480   -8.5240   21.1820 C   0  0  0  0  0  0  0  0  0  0  0  0
  -22.5060   -9.5140   20.2450 C   0  0  0  0  0  3  0  0  0  0  0  0
  -23.2810  -10.6770   20.1190 C   0  0  0  0  0  3  0  0  0  0  0  0
  -22.0480   -7.4080   21.2180 O   0  0  0  0  0  0  0  0  0  0  0  0
  -21.8940   -6.6680   22.3600 C   0  0  0  0  0  0  0  0  0  0  0  0
  -21.4160   -7.2380   23.5610 C   0  0  0  0  0  3  0  0  0  0  0  0
  -21.2090   -6.4230   24.6920 C   0  0  0  0  0  3  0  0  0  0  0  0
  -21.4710   -5.0420   24.6230 C   0  0  0  0  0  0  0  0  0  0  0  0
  -21.9410   -4.4730   23.4270 C   0  0  0  0  0  3  0  0  0  0  0  0
  -22.1490   -5.2840   22.2970 C   0  0  0  0  0  0  0  0  0  0  0  0
  -22.5830   -4.7270   21.1410 F   0  0  0  0  0  0  0  0  0  0  0  0
  -21.2620   -4.2580   25.7060 F   0  0  0  0  0  0  0  0  0  0  0  0
  -23.4040  -14.0020   21.0600 C   0  0  0  0  0  0  0  0  0  0  0  0
  -22.6260  -13.3320   21.9060 N   0  0  0  0  0  0  0  0  0  0  0  0
  -23.0210  -15.0420   20.5310 O   0  0  0  0  0  0  0  0  0  0  0  0
  -22.9580  -12.4940   22.3570 H   0  0  0  0  0  0  0  0  0  0  0  0
  -21.6910  -13.6600   22.0950 H   0  0  0  0  0  0  0  0  0  0  0  0
  -26.1270  -15.5700   20.3730 N   0  0  0  0  0  0  0  0  0  0  0  0
  -25.3790  -16.2510   20.4410 H   0  0  0  0  0  0  0  0  0  0  0  0
  -27.0080  -15.9770   20.0820 H   0  0  0  0  0  0  0  0  0  0  0  0
  -30.4790  -16.1420   18.6190 C   0  0  0  0  0  2  0  0  0  0  0  0
  -32.5470  -17.1290   17.3770 C   0  0  0  0  0  1  0  0  0  0  0  0
  -31.6520  -15.9080   17.6270 C   0  0  0  0  0  2  0  0  0  0  0  0
  1  3  1  0
  3  2  2  0
  3 10  1  0
  4  1  2  0
  4  5  1  0
  5 53  1  0
  5  2  1  0
  6  8  1  0
  8  7  1  0
  8  4  1  0
 10  9  1  0
 11 10  1  0
 12 23  2  0
 13 11  1  0
 13 18  1  0
 14 22  1  0
 14 24  1  0
 15 21  1  0
 15 17  1  0
 16 22  1  0
 17 16  1  0
 18 17  2  0
 19 13  2  0
 20 19  1  0
 20 15  2  0
 21 14  1  0
 22 12  1  0
 24 26  2  0
 25 24  1  0
 27 25  1  0
 28 37  2  0
 28 33  1  0
 29 25  1  0
 29 33  1  0
 30 29  1  0
 31 32  1  0
 31 30  1  0
 32 28  1  0
 33 34  2  0
 34 35  1  0
 36 35  2  0
 37 36  1  0
 38 12  1  0
 38 39  1  0
 38 48  1  0
 39 42  1  0
 40 44  1  0
 40 39  1  0
 41 40  2  0
 44 43  1  0
 46 44  1  0
 46 47  1  0
 46 45  1  0
 48 51  1  1
 48 49  1  0
 50 48  1  0
 53 52  1  0
 56 59  1  0
 56 54  1  0
 57 55  1  0
 58 53  1  0
 58 54  1  0
 58 55  1  0
 59 68  1  0
 59 57  1  0
 61 66  1  0
 62 63  1  0
 62 61  1  0
 64 63  1  0
 64 72  1  0
 64 65  1  0
 66 60  1  0
 66 65  1  0
 67 60  2  0
 68 60  1  0
 69 70  2  0
 70 89  1  0
 71 70  1  0
 71 74  1  0
 72 69  1  0
 72 73  1  0
 73 71  2  0
 74 75  1  0
 75 76  2  0
 77 80  1  0
 77 76  1  0
 78 77  2  0
 79 78  1  0
 79 74  2  0
 80 81  1  0
 81 82  1  0
 82 83  2  0
 84 83  1  0
 84 88  1  0
 85 84  2  0
 86 81  2  0
 86 85  1  0
 87 86  1  0
 89 90  1  0
 90 93  1  0
 90 92  1  0
 91 89  2  0
 94 95  1  0
 94 69  1  0
 96 94  1  0
 97 68  1  0
 98 99  1  0
 99 97  1  0
M  ISO  4  10 101  11 101  60 100  68 100
M  END
>  <TORSDO>  (67) 
F 22

>  <SCORE>  (67) 
-11.351

>  <name>  (67) 
67

>  <ligand_id>  (67) 
67

>  <original_smiles>  (67) 
[H]c1c([H])c([H])c2c(c1[H])C([H])([H])C([H])([H])C([H])([H])C2([H])N([H])C(=O)C1([H])N(C(=O)C([H])(N([H])C(=O)C([H])(N([H])C([H])([H])[H])C([H])([H])[H])C(C([H])([H])[H])(C([H])([H])[H])C([H])([H])[H])C([H])([H])c2c([H])c(OC([H])(c3c([H])c(C([H])(C([H])([H])[H])C([H])([H])[H])n(C([H])(C([H])([H])[H])C4([H])C([H])([H])C([H])([H])C([H])(N(C(=O)N5C([H])([H])C([H])([H])C([H])([H])C([H])(n6nc(-c7c([H])c([H])c(Oc8c([H])c([H])c(F)c([H])c8F)c([H])c7[H])c(C(=O)N([H])[H])c6N([H])[H])C5([H])[H])C([H])([H])C([H])([H])C([H])([H])[H])C([H])([H])C4([H])[H])c3[H])C([H])([H])[H])c([H])c([H])c2C1([H])[H]

>  <smiles>  (67) 
[H]c1c([H])c([H])c2c(c1[H])C([H])([H])C([H])([H])C([H])([H])C2([H])N([H])C(=O)C1([H])N(C(=O)C([H])(N([H])C(=O)C([H])(N([H])C([H])([H])[H])C([H])([H])[H])C(C([H])([H])[H])(C([H])([H])[H])C([H])([H])[H])C([H])([H])c2c([H])c(OC([H])(c3c([H])c(C([H])(C([H])([H])[H])C([H])([H])[H])n(C([H])(C([H])([H])[H])C4([H])C([H])([H])C([H])([H])C([H])(N(C(=O)N5C([H])([H])C([H])([H])C([H])([H])C([H])(n6nc(-c7c([H])c([H])c(Oc8c([H])c([H])c(F)c([H])c8F)c([H])c7[H])c(C(=O)N([H])[H])c6N([H])[H])C5([H])[H])C([H])([H])C([H])([H])C([H])([H])[H])C([H])([H])C4([H])[H])c3[H])C([H])([H])[H])c([H])c([H])c2C1([H])[H]

$$$$
68:0:0
     RDKit          3D

 87 95  0  0  1  0  0  0  0  0999 V2000
  -30.3260  -15.6850   20.2700 C   0  0  0  0  0  0  0  0  0  0  0  0
  -30.4450  -13.1130   19.5470 C   0  0  0  0  0  2  0  0  0  0  0  0
  -29.5750  -12.6880   18.3290 C   0  0  0  0  0  2  0  0  0  0  0  0
  -28.1390  -12.3540   18.7640 C   0  0  0  0  0  2  0  0  0  0  0  0
  -27.6130  -13.3880   19.7860 C   0  0  0  0  0  3  0  0  0  0  0  0
  -28.6220  -13.7230   20.9110 C   0  0  0  0  0  2  0  0  0  0  0  0
  -29.8170  -14.3140   20.2640 N   0  0  0  0  0  0  0  0  0  0  0  0
  -31.5590  -15.6330   20.0840 O   0  0  0  0  0  0  0  0  0  0  0  0
  -27.8810  -20.9780   20.5590 C   0  0  0  0  0  3  0  0  0  0  0  0
  -28.1880  -19.4950   20.6400 C   0  0  0  0  0  3  0  0  0  0  0  0
  -28.6760  -22.1190   20.0440 C   0  0  0  0  0  0  0  0  0  0  0  0
  -29.8660  -21.2880   19.6360 C   0  0  0  0  0  0  0  0  0  0  0  0
  -29.3820  -18.7270   20.2280 C   0  0  0  0  0  0  0  0  0  0  0  0
  -30.9910  -22.0310   18.9450 C   0  0  0  0  0  1  0  0  0  0  0  0
  -30.1640  -19.8340   19.7380 N   0  0  0  0  0  0  0  0  0  0  0  0
  -29.5080  -17.0090   20.3370 N   0  0  0  0  0  0  0  0  0  0  0  0
  -28.5810  -16.6730   20.5440 H   0  0  0  0  0  0  0  0  0  0  0  0
  -25.2450  -13.9480   20.5120 C   0  0  0  0  0  0  0  0  0  0  0  0
  -24.1740  -13.1810   20.8710 C   0  0  0  0  0  0  0  0  0  0  0  0
  -24.6330  -11.8280   20.8560 C   0  0  0  0  0  0  0  0  0  0  0  0
  -26.2850  -13.0670   20.2880 N   0  0  0  0  0  0  0  0  0  0  0  0
  -25.9290  -11.7840   20.5630 N   0  0  0  0  0  0  0  0  0  0  0  0
  -23.8900  -10.5730   21.0420 C   0  0  0  0  0  0  0  0  0  0  0  0
  -24.3010   -9.6020   21.9810 C   0  0  0  0  0  3  0  0  0  0  0  0
  -23.5560   -8.4170   22.1590 C   0  0  0  0  0  3  0  0  0  0  0  0
  -22.3850   -8.1930   21.3960 C   0  0  0  0  0  0  0  0  0  0  0  0
  -21.9920   -9.1520   20.4470 C   0  0  0  0  0  3  0  0  0  0  0  0
  -22.7370  -10.3290   20.2680 C   0  0  0  0  0  3  0  0  0  0  0  0
  -21.6130   -7.0590   21.4830 O   0  0  0  0  0  0  0  0  0  0  0  0
  -21.5510   -6.3160   22.6340 C   0  0  0  0  0  0  0  0  0  0  0  0
  -21.1230   -6.8740   23.8580 C   0  0  0  0  0  3  0  0  0  0  0  0
  -21.0070   -6.0580   25.0020 C   0  0  0  0  0  3  0  0  0  0  0  0
  -21.3080   -4.6860   24.9220 C   0  0  0  0  0  0  0  0  0  0  0  0
  -21.7290   -4.1270   23.7020 C   0  0  0  0  0  3  0  0  0  0  0  0
  -21.8460   -4.9400   22.5620 C   0  0  0  0  0  0  0  0  0  0  0  0
  -22.2310   -4.3920   21.3840 F   0  0  0  0  0  0  0  0  0  0  0  0
  -21.1900   -3.9000   26.0180 F   0  0  0  0  0  0  0  0  0  0  0  0
  -22.7760  -13.6720   21.1090 C   0  0  0  0  0  0  0  0  0  0  0  0
  -22.0300  -12.9990   21.9750 N   0  0  0  0  0  0  0  0  0  0  0  0
  -22.3570  -14.6920   20.5620 O   0  0  0  0  0  0  0  0  0  0  0  0
  -22.3840  -12.1730   22.4380 H   0  0  0  0  0  0  0  0  0  0  0  0
  -21.0910  -13.3120   22.1810 H   0  0  0  0  0  0  0  0  0  0  0  0
  -25.4150  -15.3160   20.3220 N   0  0  0  0  0  0  0  0  0  0  0  0
  -24.6340  -15.9610   20.3880 H   0  0  0  0  0  0  0  0  0  0  0  0
  -26.2440  -15.7410   19.9300 H   0  0  0  0  0  0  0  0  0  0  0  0
  -28.0330  -23.8530   19.7190 C   0  0  0  0  0  2  0  0  0  0  0  0
  -28.2610  -25.5590   20.0530 O   0  0  0  0  0  0  0  0  0  0  0  0
  -24.6900  -31.7730   23.0350 C   0  0  0  0  0  0  0  0  0  0  0  0
  -27.2900  -26.7720   19.9810 C   0  0  0  0  0  0  0  0  0  0  0  0
  -23.5220  -30.3830   21.3760 C   0  0  0  0  0  3  0  0  0  0  0  0
  -24.9940  -28.7740   19.9440 C   0  0  0  0  0  0  0  0  0  0  0  0
  -26.0980  -30.5600   21.2640 C   0  0  0  0  0  2  0  0  0  0  0  0
  -26.1830  -29.1370   20.5880 C   0  0  0  0  0  0  0  0  0  0  0  0
  -27.3130  -28.1630   20.5780 C   0  0  0  0  0  3  0  0  0  0  0  0
  -26.0670  -26.6230   19.2760 C   0  0  0  0  0  3  0  0  0  0  0  0
  -24.9760  -27.5430   19.2640 C   0  0  0  0  0  3  0  0  0  0  0  0
  -23.7730  -29.7060   19.9970 C   0  0  0  0  0  2  0  0  0  0  0  0
  -24.7940  -30.9380   21.9440 N   0  0  0  0  0  0  0  0  0  0  0  0
  -23.5920  -32.0520   23.5460 O   0  0  0  0  0  0  0  0  0  0  0  0
  -22.8160  -29.3850   22.3330 C   0  0  0  0  0  0  0  0  0  0  0  0
  -21.4790  -29.2490   22.2330 N   0  0  0  0  0  0  0  0  0  0  0  0
  -23.4830  -28.7310   23.1390 O   0  0  0  0  0  0  0  0  0  0  0  0
  -20.9910  -29.8220   21.5600 H   0  0  0  0  0  0  0  0  0  0  0  0
  -18.0840  -28.0980   22.8300 C   0  0  0  0  0  0  0  0  0  0  0  0
  -20.6600  -28.3010   23.0000 C   0  0  0  0  0  3  0  0  0  0  0  0
  -20.7040  -26.8910   22.3640 C   0  0  0  0  0  2  0  0  0  0  0  0
  -19.5560  -26.6380   21.3810 C   0  0  0  0  0  2  0  0  0  0  0  0
  -18.2040  -26.7800   22.0840 C   0  0  0  0  0  2  0  0  0  0  0  0
  -19.2360  -28.8200   23.2460 C   0  0  0  0  0  0  0  0  0  0  0  0
  -19.0650  -30.0540   23.9100 C   0  0  0  0  0  3  0  0  0  0  0  0
  -17.7780  -30.5660   24.1590 C   0  0  0  0  0  3  0  0  0  0  0  0
  -16.6430  -29.8430   23.7540 C   0  0  0  0  0  3  0  0  0  0  0  0
  -16.7970  -28.6100   23.0960 C   0  0  0  0  0  3  0  0  0  0  0  0
  -25.9430  -32.4310   23.6850 C   0  0  0  0  0  3  0  0  0  0  0  0
  -25.5960  -33.8170   24.0560 N   0  0  0  0  0  0  0  0  0  0  0  0
  -25.8990  -34.9080   23.3390 C   0  0  0  0  0  0  0  0  0  0  0  0
  -26.5590  -34.8530   22.2980 O   0  0  0  0  0  0  0  0  0  0  0  0
  -25.0050  -33.9290   24.8670 H   0  0  0  0  0  0  0  0  0  0  0  0
  -24.1300  -36.6860   23.0840 C   0  0  0  0  0  1  0  0  0  0  0  0
  -25.3960  -36.2740   23.8540 C   0  0  0  0  0  3  0  0  0  0  0  0
  -27.5280  -37.1820   24.6760 C   0  0  0  0  0  1  0  0  0  0  0  0
  -26.4060  -37.3520   23.7540 N   0  0  0  0  0  0  0  0  0  0  0  0
  -25.9850  -38.2580   23.9330 H   0  0  0  0  0  0  0  0  0  0  0  0
  -26.4580  -31.6520   24.9600 C   0  0  1  0  0  0  0  0  0  0  0  0
  -25.3600  -31.3950   26.0190 C   0  0  0  0  0  1  0  0  0  0  0  0
  -27.0590  -30.2830   24.5720 C   0  0  0  0  0  1  0  0  0  0  0  0
  -27.5950  -32.4520   25.6380 C   0  0  0  0  0  1  0  0  0  0  0  0
  1 16  1  0
  2  7  1  0
  3  4  1  0
  3  2  1  0
  5  4  1  0
  5 21  1  0
  5  6  1  0
  7  1  1  0
  7  6  1  0
  8  1  2  0
  9 10  1  0
 11  9  2  0
 12 15  2  0
 12 11  1  0
 13 16  1  0
 13 10  2  0
 14 12  1  0
 15 13  1  0
 16 17  1  0
 18 19  2  0
 19 38  1  0
 20 19  1  0
 20 23  1  0
 21 18  1  0
 21 22  1  0
 22 20  2  0
 23 24  1  0
 24 25  2  0
 26 29  1  0
 26 25  1  0
 27 26  2  0
 28 27  1  0
 28 23  2  0
 29 30  1  0
 30 31  1  0
 31 32  2  0
 33 32  1  0
 33 37  1  0
 34 33  2  0
 35 30  2  0
 35 34  1  0
 36 35  1  0
 38 39  1  0
 39 42  1  0
 39 41  1  0
 40 38  2  0
 43 44  1  0
 43 18  1  0
 45 43  1  0
 46 11  1  0
 46 47  1  0
 48 59  2  0
 49 47  1  0
 49 54  1  0
 50 58  1  0
 50 60  1  0
 51 57  1  0
 51 53  1  0
 52 58  1  0
 53 52  1  0
 54 53  2  0
 55 49  2  0
 56 55  1  0
 56 51  2  0
 57 50  1  0
 58 48  1  0
 60 62  2  0
 61 60  1  0
 63 61  1  0
 64 73  2  0
 64 69  1  0
 65 61  1  0
 65 69  1  0
 66 65  1  0
 67 68  1  0
 67 66  1  0
 68 64  1  0
 69 70  2  0
 70 71  1  0
 72 71  2  0
 73 72  1  0
 74 48  1  0
 74 75  1  0
 74 84  1  0
 75 78  1  0
 76 80  1  0
 76 75  1  0
 77 76  2  0
 80 79  1  0
 82 80  1  0
 82 83  1  0
 82 81  1  0
 84 87  1  1
 84 85  1  0
 86 84  1  0
M  ISO  4   1 100  16 100  46 101  47 101
M  END
>  <TORSDO>  (68) 
F 16

>  <SCORE>  (68) 
-16.119

>  <name>  (68) 
68

>  <ligand_id>  (68) 
68

>  <original_smiles>  (68) 
[H]c1c(N([H])C(=O)N2C([H])([H])C([H])([H])C([H])([H])C([H])(n3nc(-c4c([H])c([H])c(Oc5c([H])c([H])c(F)c([H])c5F)c([H])c4[H])c(C(=O)N([H])[H])c3N([H])[H])C2([H])[H])nc(C([H])([H])[H])c(C([H])([H])Oc2c([H])c([H])c3c(c2[H])C([H])([H])N(C(=O)C([H])(N([H])C(=O)C([H])(N([H])C([H])([H])[H])C([H])([H])[H])C(C([H])([H])[H])(C([H])([H])[H])C([H])([H])[H])C([H])(C(=O)N([H])C2([H])c4c([H])c([H])c([H])c([H])c4C([H])([H])C([H])([H])C2([H])[H])C3([H])[H])c1[H]

>  <smiles>  (68) 
[H]c1c(N([H])C(=O)N2C([H])([H])C([H])([H])C([H])([H])C([H])(n3nc(-c4c([H])c([H])c(Oc5c([H])c([H])c(F)c([H])c5F)c([H])c4[H])c(C(=O)N([H])[H])c3N([H])[H])C2([H])[H])nc(C([H])([H])[H])c(C([H])([H])Oc2c([H])c([H])c3c(c2[H])C([H])([H])N(C(=O)C([H])(N([H])C(=O)C([H])(N([H])C([H])([H])[H])C([H])([H])[H])C(C([H])([H])[H])(C([H])([H])[H])C([H])([H])[H])C([H])(C(=O)N([H])C2([H])c4c([H])c([H])c([H])c([H])c4C([H])([H])C([H])([H])C2([H])[H])C3([H])[H])c1[H]

$$$$
69:0:0
     RDKit          3D

 91 98  0  0  1  0  0  0  0  0999 V2000
  -29.9300  -21.8350   18.6830 C   0  0  0  0  0  1  0  0  0  0  0  0
  -29.4390  -21.7880   20.1390 C   0  0  0  0  0  3  0  0  0  0  0  0
  -29.2630  -20.2750   20.6280 N   0  0  0  0  0  4  0  0  0  0  0  0
  -29.8440  -20.1950   21.4470 H   0  0  0  0  0  0  0  0  0  0  0  0
  -28.3230  -20.2170   20.9890 H   0  0  0  0  0  0  0  0  0  0  0  0
  -29.4490  -18.9030   19.8230 C   0  0  0  0  0  2  0  0  0  0  0  0
  -31.8510  -17.9860   19.8530 C   0  0  0  0  0  1  0  0  0  0  0  0
  -30.4390  -17.6550   21.8820 C   0  0  0  0  0  1  0  0  0  0  0  0
  -30.4360  -17.6170   20.3420 C   0  0  1  0  0  0  0  0  0  0  0  0
  -30.9310  -14.8700   19.8440 C   0  0  0  0  0  0  0  0  0  0  0  0
  -30.7170  -12.5080   18.9320 C   0  0  0  0  0  2  0  0  0  0  0  0
  -29.7100  -12.4540   17.7610 C   0  0  0  0  0  2  0  0  0  0  0  0
  -28.2710  -12.2820   18.2860 C   0  0  0  0  0  2  0  0  0  0  0  0
  -27.9520  -13.2300   19.4710 C   0  0  0  0  0  3  0  0  0  0  0  0
  -29.0750  -13.2360   20.5270 C   0  0  0  0  0  2  0  0  0  0  0  0
  -30.3040  -13.6250   19.8260 N   0  0  0  0  0  0  0  0  0  0  0  0
  -32.1320  -14.8890   19.5550 O   0  0  0  0  0  0  0  0  0  0  0  0
  -30.1700  -16.0770   19.9870 N   0  0  0  0  0  0  0  0  0  0  0  0
  -29.1870  -15.8580   20.0140 H   0  0  0  0  0  0  0  0  0  0  0  0
  -25.6560  -13.8710   20.3980 C   0  0  0  0  0  0  0  0  0  0  0  0
  -24.5910  -13.1230   20.8210 C   0  0  0  0  0  0  0  0  0  0  0  0
  -25.0010  -11.7580   20.7190 C   0  0  0  0  0  0  0  0  0  0  0  0
  -26.6440  -12.9630   20.0570 N   0  0  0  0  0  0  0  0  0  0  0  0
  -26.2650  -11.6850   20.3170 N   0  0  0  0  0  0  0  0  0  0  0  0
  -24.2410  -10.5170   20.9230 C   0  0  0  0  0  0  0  0  0  0  0  0
  -24.6500   -9.5430   21.8600 C   0  0  0  0  0  3  0  0  0  0  0  0
  -23.8900   -8.3690   22.0530 C   0  0  0  0  0  3  0  0  0  0  0  0
  -22.7060   -8.1600   21.3070 C   0  0  0  0  0  0  0  0  0  0  0  0
  -22.3160   -9.1190   20.3550 C   0  0  0  0  0  3  0  0  0  0  0  0
  -23.0770  -10.2850   20.1600 C   0  0  0  0  0  3  0  0  0  0  0  0
  -21.9210   -7.0370   21.4040 O   0  0  0  0  0  0  0  0  0  0  0  0
  -21.8000   -6.3430   22.5810 C   0  0  0  0  0  0  0  0  0  0  0  0
  -21.2970   -6.9470   23.7550 C   0  0  0  0  0  3  0  0  0  0  0  0
  -21.1280   -6.1800   24.9250 C   0  0  0  0  0  3  0  0  0  0  0  0
  -21.4510   -4.8100   24.9230 C   0  0  0  0  0  0  0  0  0  0  0  0
  -21.9470   -4.2050   23.7540 C   0  0  0  0  0  3  0  0  0  0  0  0
  -22.1180   -4.9700   22.5870 C   0  0  0  0  0  0  0  0  0  0  0  0
  -22.5780   -4.3770   21.4580 F   0  0  0  0  0  0  0  0  0  0  0  0
  -21.2800   -4.0710   26.0430 F   0  0  0  0  0  0  0  0  0  0  0  0
  -23.2340  -13.6400   21.1980 C   0  0  0  0  0  0  0  0  0  0  0  0
  -22.5450  -12.9450   22.0970 N   0  0  0  0  0  0  0  0  0  0  0  0
  -22.7990  -14.6930   20.7340 O   0  0  0  0  0  0  0  0  0  0  0  0
  -22.9170  -12.0940   22.4910 H   0  0  0  0  0  0  0  0  0  0  0  0
  -21.6350  -13.2670   22.3950 H   0  0  0  0  0  0  0  0  0  0  0  0
  -25.8600  -15.2390   20.2450 N   0  0  0  0  0  0  0  0  0  0  0  0
  -25.1230  -15.9150   20.4150 H   0  0  0  0  0  0  0  0  0  0  0  0
  -26.6750  -15.6490   19.8100 H   0  0  0  0  0  0  0  0  0  0  0  0
  -28.2720  -23.0110   20.3460 C   0  0  0  0  0  2  0  0  0  0  0  0
  -29.4740  -24.6170   22.0650 C   0  0  0  0  0  1  0  0  0  0  0  0
  -28.3840  -24.5830   20.9890 C   0  0  0  0  0  3  0  0  0  0  0  0
  -28.4590  -25.9990   20.3480 O   0  0  0  0  0  0  0  0  0  0  0  0
  -24.6170  -31.6680   23.1610 C   0  0  0  0  0  0  0  0  0  0  0  0
  -27.3730  -26.9420   20.3320 C   0  0  0  0  0  0  0  0  0  0  0  0
  -23.5060  -30.2290   21.4990 C   0  0  0  0  0  3  0  0  0  0  0  0
  -25.0290  -28.6470   20.1660 C   0  0  0  0  0  0  0  0  0  0  0  0
  -26.0590  -30.5290   21.4330 C   0  0  0  0  0  2  0  0  0  0  0  0
  -26.1780  -29.1250   20.8140 C   0  0  0  0  0  0  0  0  0  0  0  0
  -27.3560  -28.2910   20.8700 C   0  0  0  0  0  3  0  0  0  0  0  0
  -26.1980  -26.5530   19.6600 C   0  0  0  0  0  3  0  0  0  0  0  0
  -25.0510  -27.3730   19.5760 C   0  0  0  0  0  3  0  0  0  0  0  0
  -23.7930  -29.5320   20.1420 C   0  0  0  0  0  2  0  0  0  0  0  0
  -24.7450  -30.8330   22.0870 N   0  0  0  0  0  0  0  0  0  0  0  0
  -23.5060  -31.9460   23.6390 O   0  0  0  0  0  0  0  0  0  0  0  0
  -22.8010  -29.2280   22.4480 C   0  0  0  0  0  0  0  0  0  0  0  0
  -21.4760  -29.0600   22.2870 N   0  0  0  0  0  0  0  0  0  0  0  0
  -23.4470  -28.6060   23.2940 O   0  0  0  0  0  0  0  0  0  0  0  0
  -21.0130  -29.6130   21.5800 H   0  0  0  0  0  0  0  0  0  0  0  0
  -18.0730  -27.8980   22.7270 C   0  0  0  0  0  0  0  0  0  0  0  0
  -20.6300  -28.1300   23.0400 C   0  0  0  0  0  3  0  0  0  0  0  0
  -20.7260  -26.7000   22.4610 C   0  0  0  0  0  2  0  0  0  0  0  0
  -19.6370  -26.3930   21.4270 C   0  0  0  0  0  2  0  0  0  0  0  0
  -18.2480  -26.5510   22.0490 C   0  0  0  0  0  2  0  0  0  0  0  0
  -19.1930  -28.6470   23.1790 C   0  0  0  0  0  0  0  0  0  0  0  0
  -18.9760  -29.9100   23.7750 C   0  0  0  0  0  3  0  0  0  0  0  0
  -17.6740  -30.4210   23.9240 C   0  0  0  0  0  3  0  0  0  0  0  0
  -16.5680  -29.6690   23.4890 C   0  0  0  0  0  3  0  0  0  0  0  0
  -16.7700  -28.4110   22.8950 C   0  0  0  0  0  3  0  0  0  0  0  0
  -25.8590  -32.3300   23.8330 C   0  0  0  0  0  3  0  0  0  0  0  0
  -25.5060  -33.7220   24.1530 N   0  0  0  0  0  0  0  0  0  0  0  0
  -25.8440  -34.7860   23.4130 C   0  0  0  0  0  0  0  0  0  0  0  0
  -26.5530  -34.7000   22.4070 O   0  0  0  0  0  0  0  0  0  0  0  0
  -24.8780  -33.8590   24.9310 H   0  0  0  0  0  0  0  0  0  0  0  0
  -24.0990  -36.5540   23.0040 C   0  0  0  0  0  1  0  0  0  0  0  0
  -25.3150  -36.1640   23.8600 C   0  0  0  0  0  3  0  0  0  0  0  0
  -27.3960  -37.0910   24.7790 C   0  0  0  0  0  1  0  0  0  0  0  0
  -26.3320  -37.2370   23.7890 N   0  0  0  0  0  0  0  0  0  0  0  0
  -25.9040  -38.1490   23.9180 H   0  0  0  0  0  0  0  0  0  0  0  0
  -26.3360  -31.5720   25.1330 C   0  0  1  0  0  0  0  0  0  0  0  0
  -25.2040  -31.3140   26.1550 C   0  0  0  0  0  1  0  0  0  0  0  0
  -26.9640  -30.2060   24.7700 C   0  0  0  0  0  1  0  0  0  0  0  0
  -27.4390  -32.3920   25.8410 C   0  0  0  0  0  1  0  0  0  0  0  0
  2  1  1  0
  2 48  1  0
  2  3  1  0
  3  5  1  0
  3  4  1  0
  6  9  1  0
  6  3  1  0
  9  7  1  6
  9  8  1  0
 10 18  1  0
 11 16  1  0
 12 13  1  0
 12 11  1  0
 14 13  1  0
 14 23  1  0
 14 15  1  0
 16 10  1  0
 16 15  1  0
 17 10  2  0
 18 19  1  0
 18  9  1  0
 20 21  2  0
 21 40  1  0
 22 21  1  0
 22 25  1  0
 23 24  1  0
 23 20  1  0
 24 22  2  0
 25 26  1  0
 26 27  2  0
 28 31  1  0
 28 27  1  0
 29 28  2  0
 30 29  1  0
 30 25  2  0
 31 32  1  0
 32 37  2  0
 32 33  1  0
 33 34  2  0
 35 34  1  0
 35 39  1  0
 36 35  2  0
 37 36  1  0
 38 37  1  0
 40 41  1  0
 41 44  1  0
 41 43  1  0
 42 40  2  0
 45 20  1  0
 45 46  1  0
 47 45  1  0
 48 50  1  0
 50 49  1  0
 51 50  1  0
 52 63  2  0
 53 51  1  0
 53 58  1  0
 54 62  1  0
 54 64  1  0
 55 57  1  0
 56 62  1  0
 57 58  2  0
 57 56  1  0
 59 53  2  0
 60 59  1  0
 60 55  2  0
 61 55  1  0
 61 54  1  0
 62 52  1  0
 64 66  2  0
 65 64  1  0
 67 65  1  0
 68 77  2  0
 68 73  1  0
 69 65  1  0
 69 73  1  0
 70 69  1  0
 71 72  1  0
 71 70  1  0
 72 68  1  0
 73 74  2  0
 74 75  1  0
 76 75  2  0
 77 76  1  0
 78 52  1  0
 78 79  1  0
 78 88  1  0
 79 82  1  0
 80 84  1  0
 80 79  1  0
 81 80  2  0
 84 83  1  0
 86 84  1  0
 86 87  1  0
 86 85  1  0
 88 91  1  1
 88 89  1  0
 90 88  1  0
M  ISO  4  10 100  18 100  50 101  51 101
M  END
>  <TORSDO>  (69) 
F 21

>  <SCORE>  (69) 
-14.357

>  <name>  (69) 
69

>  <ligand_id>  (69) 
69

>  <original_smiles>  (69) 
[H]c1c([H])c([H])c2c(c1[H])C([H])([H])C([H])([H])C([H])([H])C2([H])N([H])C(=O)C1([H])N(C(=O)C([H])(N([H])C(=O)C([H])(N([H])C([H])([H])[H])C([H])([H])[H])C(C([H])([H])[H])(C([H])([H])[H])C([H])([H])[H])C([H])([H])c2c([H])c(OC([H])(C([H])([H])[H])C([H])([H])C([H])(C([H])([H])[H])[N+]([H])([H])C([H])([H])C(N([H])C(=O)N3C([H])([H])C([H])([H])C([H])([H])C([H])(n4nc(-c5c([H])c([H])c(Oc6c([H])c([H])c(F)c([H])c6F)c([H])c5[H])c(C(=O)N([H])[H])c4N([H])[H])C3([H])[H])(C([H])([H])[H])C([H])([H])[H])c([H])c([H])c2C1([H])[H]

>  <smiles>  (69) 
[H]c1c([H])c([H])c2c(c1[H])C([H])([H])C([H])([H])C([H])([H])C2([H])N([H])C(=O)C1([H])N(C(=O)C([H])(N([H])C(=O)C([H])(N([H])C([H])([H])[H])C([H])([H])[H])C(C([H])([H])[H])(C([H])([H])[H])C([H])([H])[H])C([H])([H])c2c([H])c(OC([H])(C([H])([H])[H])C([H])([H])C([H])(C([H])([H])[H])[N+]([H])([H])C([H])([H])C(N([H])C(=O)N3C([H])([H])C([H])([H])C([H])([H])C([H])(n4nc(-c5c([H])c([H])c(Oc6c([H])c([H])c(F)c([H])c6F)c([H])c5[H])c(C(=O)N([H])[H])c4N([H])[H])C3([H])[H])(C([H])([H])[H])C([H])([H])[H])c([H])c([H])c2C1([H])[H]

$$$$
70:0:0
     RDKit          3D

 87 95  0  0  1  0  0  0  0  0999 V2000
  -27.8460  -23.0550   20.4010 C   0  0  0  0  0  3  0  0  0  0  0  0
  -30.1490  -22.1540   19.4690 C   0  0  0  0  0  3  0  0  0  0  0  0
  -28.2030  -21.5560   20.3560 C   0  0  0  0  0  0  0  0  0  0  0  0
  -29.4540  -20.8900   19.8560 C   0  0  0  0  0  0  0  0  0  0  0  0
  -28.6340  -24.2450   19.9820 C   0  0  0  0  0  0  0  0  0  0  0  0
  -27.1520  -20.6400   20.9530 C   0  0  0  0  0  1  0  0  0  0  0  0
  -29.8170  -23.5820   19.5370 N   0  0  0  0  0  0  0  0  0  0  0  0
  -28.5330  -25.8650   20.1040 O   0  0  0  0  0  0  0  0  0  0  0  0
  -24.8630  -31.9550   23.2760 C   0  0  0  0  0  0  0  0  0  0  0  0
  -27.5040  -27.0320   20.1340 C   0  0  0  0  0  0  0  0  0  0  0  0
  -23.7240  -30.6160   21.5580 C   0  0  0  0  0  3  0  0  0  0  0  0
  -25.2190  -29.0460   20.1080 C   0  0  0  0  0  0  0  0  0  0  0  0
  -26.3040  -30.7890   21.4990 C   0  0  0  0  0  2  0  0  0  0  0  0
  -26.3940  -29.3850   20.7910 C   0  0  0  0  0  0  0  0  0  0  0  0
  -27.5190  -28.4050   20.7730 C   0  0  0  0  0  3  0  0  0  0  0  0
  -26.2960  -26.9080   19.4010 C   0  0  0  0  0  3  0  0  0  0  0  0
  -25.2080  -27.8350   19.3960 C   0  0  0  0  0  3  0  0  0  0  0  0
  -24.0020  -29.9850   20.1630 C   0  0  0  0  0  2  0  0  0  0  0  0
  -24.9860  -31.1550   22.1640 N   0  0  0  0  0  0  0  0  0  0  0  0
  -23.7550  -32.2170   23.7790 O   0  0  0  0  0  0  0  0  0  0  0  0
  -23.0070  -29.5860   22.4700 C   0  0  0  0  0  0  0  0  0  0  0  0
  -21.6820  -29.4110   22.3040 N   0  0  0  0  0  0  0  0  0  0  0  0
  -23.6550  -28.9440   23.3010 O   0  0  0  0  0  0  0  0  0  0  0  0
  -21.2100  -29.9800   21.6140 H   0  0  0  0  0  0  0  0  0  0  0  0
  -18.2930  -28.1660   22.7330 C   0  0  0  0  0  0  0  0  0  0  0  0
  -20.8530  -28.4320   23.0160 C   0  0  0  0  0  3  0  0  0  0  0  0
  -20.9600  -27.0350   22.3610 C   0  0  0  0  0  2  0  0  0  0  0  0
  -19.8610  -26.7670   21.3260 C   0  0  0  0  0  2  0  0  0  0  0  0
  -18.4770  -26.8620   21.9730 C   0  0  0  0  0  2  0  0  0  0  0  0
  -19.4080  -28.9090   23.2070 C   0  0  0  0  0  0  0  0  0  0  0  0
  -19.1780  -30.1270   23.8840 C   0  0  0  0  0  3  0  0  0  0  0  0
  -17.8690  -30.6050   24.0870 C   0  0  0  0  0  3  0  0  0  0  0  0
  -16.7690  -29.8610   23.6230 C   0  0  0  0  0  3  0  0  0  0  0  0
  -16.9830  -28.6440   22.9550 C   0  0  0  0  0  3  0  0  0  0  0  0
  -26.1030  -32.5940   23.9720 C   0  0  0  0  0  3  0  0  0  0  0  0
  -25.7700  -33.9910   24.3110 N   0  0  0  0  0  0  0  0  0  0  0  0
  -26.0750  -35.0620   23.5670 C   0  0  0  0  0  0  0  0  0  0  0  0
  -26.7210  -34.9810   22.5200 O   0  0  0  0  0  0  0  0  0  0  0  0
  -25.1820  -34.1260   25.1210 H   0  0  0  0  0  0  0  0  0  0  0  0
  -24.2850  -36.8250   23.3330 C   0  0  0  0  0  1  0  0  0  0  0  0
  -25.5870  -36.4440   24.0570 C   0  0  0  0  0  3  0  0  0  0  0  0
  -27.7390  -37.4010   24.7610 C   0  0  0  0  0  1  0  0  0  0  0  0
  -26.5850  -37.5230   23.8740 N   0  0  0  0  0  0  0  0  0  0  0  0
  -26.1600  -38.4330   24.0310 H   0  0  0  0  0  0  0  0  0  0  0  0
  -26.5480  -31.8170   25.2720 C   0  0  1  0  0  0  0  0  0  0  0  0
  -25.3970  -31.5610   26.2760 C   0  0  0  0  0  1  0  0  0  0  0  0
  -27.1670  -30.4460   24.9200 C   0  0  0  0  0  1  0  0  0  0  0  0
  -27.6530  -32.6150   26.0070 C   0  0  0  0  0  1  0  0  0  0  0  0
  -30.2250  -19.1640   19.8250 C   0  0  0  0  0  2  0  0  0  0  0  0
  -30.8010  -16.0440   19.8510 C   0  0  0  0  0  0  0  0  0  0  0  0
  -30.9460  -13.4800   19.0970 C   0  0  0  0  0  2  0  0  0  0  0  0
  -30.0320  -13.0100   17.9280 C   0  0  0  0  0  2  0  0  0  0  0  0
  -28.6300  -12.6400   18.4420 C   0  0  0  0  0  2  0  0  0  0  0  0
  -28.1300  -13.6620   19.4890 C   0  0  0  0  0  3  0  0  0  0  0  0
  -29.1840  -14.0370   20.5570 C   0  0  0  0  0  2  0  0  0  0  0  0
  -30.3120  -14.6640   19.8370 N   0  0  0  0  0  0  0  0  0  0  0  0
  -32.0310  -16.0020   19.6450 O   0  0  0  0  0  0  0  0  0  0  0  0
  -30.0100  -17.3950   19.9100 N   0  0  0  0  0  0  0  0  0  0  0  0
  -29.0300  -17.1770   20.0150 H   0  0  0  0  0  0  0  0  0  0  0  0
  -25.8290  -14.1650   20.4410 C   0  0  0  0  0  0  0  0  0  0  0  0
  -24.7870  -13.3720   20.8280 C   0  0  0  0  0  0  0  0  0  0  0  0
  -25.2380  -12.0230   20.6800 C   0  0  0  0  0  0  0  0  0  0  0  0
  -26.8430  -13.3020   20.0730 N   0  0  0  0  0  0  0  0  0  0  0  0
  -26.5070  -12.0010   20.2850 N   0  0  0  0  0  0  0  0  0  0  0  0
  -24.5070  -10.7580   20.8340 C   0  0  0  0  0  0  0  0  0  0  0  0
  -24.8750   -9.8030   21.8070 C   0  0  0  0  0  3  0  0  0  0  0  0
  -24.1400   -8.6070   21.9520 C   0  0  0  0  0  3  0  0  0  0  0  0
  -23.0230   -8.3550   21.1190 C   0  0  0  0  0  0  0  0  0  0  0  0
  -22.6750   -9.2990   20.1360 C   0  0  0  0  0  3  0  0  0  0  0  0
  -23.4120  -10.4860   19.9910 C   0  0  0  0  0  3  0  0  0  0  0  0
  -22.2690   -7.2080   21.1670 O   0  0  0  0  0  0  0  0  0  0  0  0
  -21.9600   -6.5970   22.3550 C   0  0  0  0  0  0  0  0  0  0  0  0
  -21.2120   -7.2520   23.3570 C   0  0  0  0  0  3  0  0  0  0  0  0
  -20.8560   -6.5650   24.5340 C   0  0  0  0  0  3  0  0  0  0  0  0
  -21.2420   -5.2230   24.7110 C   0  0  0  0  0  0  0  0  0  0  0  0
  -21.9850   -4.5680   23.7140 C   0  0  0  0  0  3  0  0  0  0  0  0
  -22.3410   -5.2520   22.5380 C   0  0  0  0  0  0  0  0  0  0  0  0
  -23.0380   -4.6090   21.5720 F   0  0  0  0  0  0  0  0  0  0  0  0
  -20.8960   -4.5600   25.8390 F   0  0  0  0  0  0  0  0  0  0  0  0
  -23.4150  -13.8440   21.2060 C   0  0  0  0  0  0  0  0  0  0  0  0
  -22.7300  -13.1130   22.0770 N   0  0  0  0  0  0  0  0  0  0  0  0
  -22.9600  -14.9010   20.7660 O   0  0  0  0  0  0  0  0  0  0  0  0
  -23.1120  -12.2610   22.4600 H   0  0  0  0  0  0  0  0  0  0  0  0
  -21.8110  -13.4150   22.3690 H   0  0  0  0  0  0  0  0  0  0  0  0
  -25.9910  -15.5440   20.3320 N   0  0  0  0  0  0  0  0  0  0  0  0
  -25.2230  -16.1840   20.4990 H   0  0  0  0  0  0  0  0  0  0  0  0
  -26.7840  -15.9890   19.8870 H   0  0  0  0  0  0  0  0  0  0  0  0
  2  7  1  0
  2  4  2  0
  3  1  2  0
  3  6  1  0
  4  3  1  0
  5  8  1  0
  5  1  1  0
  7  5  2  0
  8 10  1  0
  9 20  2  0
 10 15  1  0
 11 19  1  0
 11 21  1  0
 12 18  1  0
 12 14  1  0
 13 19  1  0
 14 13  1  0
 15 14  2  0
 16 10  2  0
 17 16  1  0
 17 12  2  0
 18 11  1  0
 19  9  1  0
 21 23  2  0
 22 21  1  0
 24 22  1  0
 25 34  2  0
 25 30  1  0
 26 22  1  0
 26 30  1  0
 27 26  1  0
 28 29  1  0
 28 27  1  0
 29 25  1  0
 30 31  2  0
 31 32  1  0
 33 32  2  0
 34 33  1  0
 35  9  1  0
 35 36  1  0
 35 45  1  0
 36 39  1  0
 37 41  1  0
 37 36  1  0
 38 37  2  0
 41 40  1  0
 43 44  1  0
 43 41  1  0
 43 42  1  0
 45 48  1  1
 45 46  1  0
 47 45  1  0
 49  4  1  0
 49 58  1  0
 50 58  1  0
 51 56  1  0
 52 53  1  0
 52 51  1  0
 54 53  1  0
 54 63  1  0
 54 55  1  0
 56 50  1  0
 56 55  1  0
 57 50  2  0
 58 59  1  0
 60 61  2  0
 61 80  1  0
 62 61  1  0
 62 65  1  0
 63 64  1  0
 63 60  1  0
 64 62  2  0
 65 66  1  0
 66 67  2  0
 68 71  1  0
 68 67  1  0
 69 68  2  0
 70 69  1  0
 70 65  2  0
 71 72  1  0
 72 77  2  0
 72 73  1  0
 73 74  2  0
 74 75  1  0
 75 79  1  0
 76 75  2  0
 77 76  1  0
 78 77  1  0
 80 81  1  0
 81 84  1  0
 81 83  1  0
 82 80  2  0
 85 60  1  0
 85 86  1  0
 87 85  1  0
M  ISO  4   5 101   8 101  50 100  58 100
M  END
>  <TORSDO>  (70) 
F 17

>  <SCORE>  (70) 
-13.223

>  <name>  (70) 
70

>  <ligand_id>  (70) 
70

>  <original_smiles>  (70) 
[H]c1nc(Oc2c([H])c([H])c3c(c2[H])C([H])([H])N(C(=O)C([H])(N([H])C(=O)C([H])(N([H])C([H])([H])[H])C([H])([H])[H])C(C([H])([H])[H])(C([H])([H])[H])C([H])([H])[H])C([H])(C(=O)N([H])C2([H])c4c([H])c([H])c([H])c([H])c4C([H])([H])C([H])([H])C2([H])[H])C3([H])[H])c([H])c(C([H])([H])[H])c1C([H])([H])N([H])C(=O)N1C([H])([H])C([H])([H])C([H])([H])C([H])(n2nc(-c3c([H])c([H])c(Oc4c([H])c([H])c(F)c([H])c4F)c([H])c3[H])c(C(=O)N([H])[H])c2N([H])[H])C1([H])[H]

>  <smiles>  (70) 
[H]c1nc(Oc2c([H])c([H])c3c(c2[H])C([H])([H])N(C(=O)C([H])(N([H])C(=O)C([H])(N([H])C([H])([H])[H])C([H])([H])[H])C(C([H])([H])[H])(C([H])([H])[H])C([H])([H])[H])C([H])(C(=O)N([H])C2([H])c4c([H])c([H])c([H])c([H])c4C([H])([H])C([H])([H])C2([H])[H])C3([H])[H])c([H])c(C([H])([H])[H])c1C([H])([H])N([H])C(=O)N1C([H])([H])C([H])([H])C([H])([H])C([H])(n2nc(-c3c([H])c([H])c(Oc4c([H])c([H])c(F)c([H])c4F)c([H])c3[H])c(C(=O)N([H])[H])c2N([H])[H])C1([H])[H]

$$$$
71:0:0
     RDKit          3D

 95103  0  0  1  0  0  0  0  0999 V2000
  -29.2420  -21.9350   18.7810 C   0  0  0  0  0  3  0  0  0  0  0  0
  -29.4060  -20.4900   21.0900 C   0  0  0  0  0  3  0  0  0  0  0  0
  -29.2300  -20.5150   18.6940 C   0  0  0  0  0  0  0  0  0  0  0  0
  -29.3180  -19.7320   19.8890 C   0  0  0  0  0  0  0  0  0  0  0  0
  -29.3170  -22.5990   20.0220 C   0  0  0  0  0  0  0  0  0  0  0  0
  -29.4080  -21.8580   21.1570 N   0  0  0  0  0  0  0  0  0  0  0  0
  -29.1630  -18.1600   19.9100 C   0  0  0  0  0  2  0  0  0  0  0  0
  -30.2770  -17.2140   20.5220 C   0  0  0  0  0  2  0  0  0  0  0  0
  -30.6710  -14.6560   20.3310 C   0  0  0  0  0  0  0  0  0  0  0  0
  -30.4120  -12.4290   19.2740 C   0  0  0  0  0  2  0  0  0  0  0  0
  -29.4650  -12.5720   18.0640 C   0  0  0  0  0  2  0  0  0  0  0  0
  -28.0030  -12.3930   18.5170 C   0  0  0  0  0  2  0  0  0  0  0  0
  -27.6500  -13.2580   19.7570 C   0  0  0  0  0  3  0  0  0  0  0  0
  -28.7200  -13.1270   20.8640 C   0  0  0  0  0  2  0  0  0  0  0  0
  -30.0230  -13.4530   20.2620 N   0  0  0  0  0  0  0  0  0  0  0  0
  -31.8450  -14.7800   19.9800 O   0  0  0  0  0  0  0  0  0  0  0  0
  -29.9020  -15.7560   20.5850 N   0  0  0  0  0  0  0  0  0  0  0  0
  -28.9430  -15.5540   20.8240 H   0  0  0  0  0  0  0  0  0  0  0  0
  -25.2550  -13.8330   20.4860 C   0  0  0  0  0  0  0  0  0  0  0  0
  -24.1980  -13.0480   20.8610 C   0  0  0  0  0  0  0  0  0  0  0  0
  -24.6760  -11.7010   20.8290 C   0  0  0  0  0  0  0  0  0  0  0  0
  -26.3080  -12.9630   20.2500 N   0  0  0  0  0  0  0  0  0  0  0  0
  -25.9650  -11.6770   20.5170 N   0  0  0  0  0  0  0  0  0  0  0  0
  -23.9650  -10.4300   21.0170 C   0  0  0  0  0  0  0  0  0  0  0  0
  -24.4000   -9.4740   21.9620 C   0  0  0  0  0  3  0  0  0  0  0  0
  -23.6890   -8.2670   22.1390 C   0  0  0  0  0  3  0  0  0  0  0  0
  -22.5280   -8.0090   21.3720 C   0  0  0  0  0  0  0  0  0  0  0  0
  -22.1100   -8.9550   20.4180 C   0  0  0  0  0  3  0  0  0  0  0  0
  -22.8230  -10.1530   20.2400 C   0  0  0  0  0  3  0  0  0  0  0  0
  -21.7890   -6.8540   21.4580 O   0  0  0  0  0  0  0  0  0  0  0  0
  -21.7230   -6.1260   22.6190 C   0  0  0  0  0  0  0  0  0  0  0  0
  -21.2230   -6.6800   23.8180 C   0  0  0  0  0  3  0  0  0  0  0  0
  -21.1090   -5.8780   24.9710 C   0  0  0  0  0  3  0  0  0  0  0  0
  -21.4840   -4.5210   24.9240 C   0  0  0  0  0  0  0  0  0  0  0  0
  -21.9770   -3.9680   23.7290 C   0  0  0  0  0  3  0  0  0  0  0  0
  -22.0940   -4.7670   22.5800 C   0  0  0  0  0  0  0  0  0  0  0  0
  -22.5490   -4.2220   21.4250 F   0  0  0  0  0  0  0  0  0  0  0  0
  -21.3670   -3.7480   26.0280 F   0  0  0  0  0  0  0  0  0  0  0  0
  -22.7960  -13.5090   21.1380 C   0  0  0  0  0  0  0  0  0  0  0  0
  -22.0790  -12.7970   21.9990 N   0  0  0  0  0  0  0  0  0  0  0  0
  -22.3480  -14.5350   20.6280 O   0  0  0  0  0  0  0  0  0  0  0  0
  -22.4540  -11.9640   22.4260 H   0  0  0  0  0  0  0  0  0  0  0  0
  -21.1420  -13.0920   22.2370 H   0  0  0  0  0  0  0  0  0  0  0  0
  -25.3990  -15.2030   20.3060 N   0  0  0  0  0  0  0  0  0  0  0  0
  -24.6100  -15.8340   20.3890 H   0  0  0  0  0  0  0  0  0  0  0  0
  -26.2260  -15.6500   19.9270 H   0  0  0  0  0  0  0  0  0  0  0  0
  -29.0910  -19.9150   17.2960 C   0  0  0  0  0  2  0  0  0  0  0  0
  -30.3400  -19.4750   16.7630 O   0  0  0  0  0  0  0  0  0  0  0  0
  -30.2300  -19.0280   15.4140 C   0  0  0  0  0  2  0  0  0  0  0  0
  -31.5920  -18.2270   13.4100 C   0  0  0  0  0  1  0  0  0  0  0  0
  -31.6290  -18.8710   14.8010 C   0  0  0  0  0  2  0  0  0  0  0  0
  -29.4430  -24.1670   20.0960 C   0  0  0  0  0  2  0  0  0  0  0  0
  -27.6540  -24.8190   21.8260 C   0  0  0  0  0  1  0  0  0  0  0  0
  -28.1740  -25.0680   20.3970 C   0  0  0  0  0  3  0  0  0  0  0  0
  -28.3730  -26.5290   20.2130 O   0  0  0  0  0  0  0  0  0  0  0  0
  -24.6150  -31.8990   23.2280 C   0  0  0  0  0  0  0  0  0  0  0  0
  -27.2480  -27.3670   20.1610 C   0  0  0  0  0  0  0  0  0  0  0  0
  -23.4200  -30.5040   21.5780 C   0  0  0  0  0  3  0  0  0  0  0  0
  -24.8820  -28.9680   20.1500 C   0  0  0  0  0  0  0  0  0  0  0  0
  -25.9630  -30.8250   21.4150 C   0  0  0  0  0  2  0  0  0  0  0  0
  -26.0470  -29.4560   20.7560 C   0  0  0  0  0  0  0  0  0  0  0  0
  -27.2340  -28.6650   20.7520 C   0  0  0  0  0  3  0  0  0  0  0  0
  -26.0590  -26.9360   19.5280 C   0  0  0  0  0  3  0  0  0  0  0  0
  -24.8900  -27.7140   19.5290 C   0  0  0  0  0  3  0  0  0  0  0  0
  -23.6410  -29.8360   20.1990 C   0  0  0  0  0  2  0  0  0  0  0  0
  -24.6820  -31.0940   22.1270 N   0  0  0  0  0  0  0  0  0  0  0  0
  -23.5270  -32.1750   23.7560 O   0  0  0  0  0  0  0  0  0  0  0  0
  -22.7550  -29.4810   22.5290 C   0  0  0  0  0  0  0  0  0  0  0  0
  -21.4300  -29.3060   22.3980 N   0  0  0  0  0  0  0  0  0  0  0  0
  -23.4320  -28.8470   23.3430 O   0  0  0  0  0  0  0  0  0  0  0  0
  -20.9470  -29.8700   21.7130 H   0  0  0  0  0  0  0  0  0  0  0  0
  -18.0400  -28.1460   22.9050 C   0  0  0  0  0  0  0  0  0  0  0  0
  -20.6040  -28.3680   23.1620 C   0  0  0  0  0  3  0  0  0  0  0  0
  -20.6830  -26.9440   22.5630 C   0  0  0  0  0  2  0  0  0  0  0  0
  -19.5690  -26.6510   21.5540 C   0  0  0  0  0  2  0  0  0  0  0  0
  -18.1930  -26.8050   22.2090 C   0  0  0  0  0  2  0  0  0  0  0  0
  -19.1720  -28.8870   23.3370 C   0  0  0  0  0  0  0  0  0  0  0  0
  -18.9730  -30.1430   23.9480 C   0  0  0  0  0  3  0  0  0  0  0  0
  -17.6770  -30.6630   24.1280 C   0  0  0  0  0  3  0  0  0  0  0  0
  -16.5580  -29.9170   23.7170 C   0  0  0  0  0  3  0  0  0  0  0  0
  -16.7430  -28.6610   23.1120 C   0  0  0  0  0  3  0  0  0  0  0  0
  -25.8920  -32.5290   23.8560 C   0  0  0  0  0  3  0  0  0  0  0  0
  -25.5840  -33.9290   24.1790 N   0  0  0  0  0  0  0  0  0  0  0  0
  -25.9260  -34.9770   23.4200 C   0  0  0  0  0  0  0  0  0  0  0  0
  -26.6000  -34.8670   22.3920 O   0  0  0  0  0  0  0  0  0  0  0  0
  -24.9850  -34.0900   24.9750 H   0  0  0  0  0  0  0  0  0  0  0  0
  -24.2120  -36.7790   23.0460 C   0  0  0  0  0  1  0  0  0  0  0  0
  -25.4410  -36.3660   23.8730 C   0  0  0  0  0  3  0  0  0  0  0  0
  -27.5650  -37.2420   24.7370 C   0  0  0  0  0  1  0  0  0  0  0  0
  -26.4810  -37.4130   23.7740 N   0  0  0  0  0  0  0  0  0  0  0  0
  -26.0780  -38.3370   23.9070 H   0  0  0  0  0  0  0  0  0  0  0  0
  -26.3990  -31.7600   25.1390 C   0  0  1  0  0  0  0  0  0  0  0  0
  -25.2950  -31.5200   26.1950 C   0  0  0  0  0  1  0  0  0  0  0  0
  -26.9900  -30.3840   24.7550 C   0  0  0  0  0  1  0  0  0  0  0  0
  -27.5440  -32.5600   25.8060 C   0  0  0  0  0  1  0  0  0  0  0  0
  1  5  1  0
  2  6  1  0
  3  1  2  0
  3  4  1  0
  4  7  1  0
  4  2  2  0
  5 52  1  0
  5  6  2  0
  7  8  1  0
  8 17  1  0
  9 17  1  0
 10 15  1  0
 11 12  1  0
 11 10  1  0
 13 12  1  0
 13 22  1  0
 13 14  1  0
 15  9  1  0
 15 14  1  0
 16  9  2  0
 17 18  1  0
 19 20  2  0
 20 39  1  0
 21 20  1  0
 21 24  1  0
 22 19  1  0
 22 23  1  0
 23 21  2  0
 24 25  1  0
 25 26  2  0
 27 30  1  0
 27 26  1  0
 28 27  2  0
 29 28  1  0
 29 24  2  0
 30 31  1  0
 31 32  1  0
 32 33  2  0
 34 33  1  0
 34 38  1  0
 35 34  2  0
 36 31  2  0
 36 35  1  0
 37 36  1  0
 39 40  1  0
 40 43  1  0
 40 42  1  0
 41 39  2  0
 44 45  1  0
 44 19  1  0
 46 44  1  0
 47  3  1  0
 48 47  1  0
 49 48  1  0
 50 51  1  0
 51 49  1  0
 52 54  1  0
 54 53  1  0
 55 54  1  0
 56 67  2  0
 57 55  1  0
 57 62  1  0
 58 66  1  0
 58 68  1  0
 59 65  1  0
 59 61  1  0
 60 66  1  0
 61 60  1  0
 62 61  2  0
 63 64  1  0
 63 57  2  0
 64 59  2  0
 65 58  1  0
 66 56  1  0
 68 70  2  0
 69 68  1  0
 71 69  1  0
 72 81  2  0
 72 77  1  0
 73 69  1  0
 73 77  1  0
 74 73  1  0
 75 76  1  0
 75 74  1  0
 76 72  1  0
 77 78  2  0
 78 79  1  0
 80 79  2  0
 81 80  1  0
 82 56  1  0
 82 83  1  0
 82 92  1  0
 83 86  1  0
 84 88  1  0
 84 83  1  0
 85 84  2  0
 88 87  1  0
 90 88  1  0
 90 91  1  0
 90 89  1  0
 92 95  1  1
 92 93  1  0
 94 92  1  0
M  ISO  4   9 100  17 100  54 101  55 101
M  END
>  <TORSDO>  (71) 
F 24

>  <SCORE>  (71) 
-12.749

>  <name>  (71) 
71

>  <ligand_id>  (71) 
71

>  <original_smiles>  (71) 
[H]c1nc(C([H])([H])C([H])(Oc2c([H])c([H])c3c(c2[H])C([H])([H])N(C(=O)C([H])(N([H])C(=O)C([H])(N([H])C([H])([H])[H])C([H])([H])[H])C(C([H])([H])[H])(C([H])([H])[H])C([H])([H])[H])C([H])(C(=O)N([H])C2([H])c4c([H])c([H])c([H])c([H])c4C([H])([H])C([H])([H])C2([H])[H])C3([H])[H])C([H])([H])[H])c([H])c(C([H])([H])OC([H])([H])C([H])([H])C([H])([H])[H])c1C([H])([H])C([H])([H])N([H])C(=O)N1C([H])([H])C([H])([H])C([H])([H])C([H])(n2nc(-c3c([H])c([H])c(Oc4c([H])c([H])c(F)c([H])c4F)c([H])c3[H])c(C(=O)N([H])[H])c2N([H])[H])C1([H])[H]

>  <smiles>  (71) 
[H]c1nc(C([H])([H])C([H])(Oc2c([H])c([H])c3c(c2[H])C([H])([H])N(C(=O)C([H])(N([H])C(=O)C([H])(N([H])C([H])([H])[H])C([H])([H])[H])C(C([H])([H])[H])(C([H])([H])[H])C([H])([H])[H])C([H])(C(=O)N([H])C2([H])c4c([H])c([H])c([H])c([H])c4C([H])([H])C([H])([H])C2([H])[H])C3([H])[H])C([H])([H])[H])c([H])c(C([H])([H])OC([H])([H])C([H])([H])C([H])([H])[H])c1C([H])([H])C([H])([H])N([H])C(=O)N1C([H])([H])C([H])([H])C([H])([H])C([H])(n2nc(-c3c([H])c([H])c(Oc4c([H])c([H])c(F)c([H])c4F)c([H])c3[H])c(C(=O)N([H])[H])c2N([H])[H])C1([H])[H]

$$$$
72:0:0
     RDKit          3D

 86 93  0  0  1  0  0  0  0  0999 V2000
  -28.6020  -22.8410   20.4480 C   0  0  0  0  0  3  0  0  0  0  0  0
  -29.2090  -21.2920   19.8030 C   0  0  0  0  0  3  0  0  0  0  0  0
  -27.7190  -19.2160   20.4140 C   0  0  0  0  0  1  0  0  0  0  0  0
  -29.6390  -19.7470   21.8880 C   0  0  0  0  0  1  0  0  0  0  0  0
  -29.2030  -19.6170   20.4210 C   0  0  2  0  0  0  0  0  0  0  0  0
  -30.0500  -18.1700   19.8140 C   0  0  0  0  0  2  0  0  0  0  0  0
  -30.5900  -15.3080   19.8990 C   0  0  0  0  0  0  0  0  0  0  0  0
  -30.5150  -12.8970   18.9780 C   0  0  0  0  0  2  0  0  0  0  0  0
  -29.5300  -12.7370   17.7930 C   0  0  0  0  0  2  0  0  0  0  0  0
  -28.1040  -12.4660   18.3010 C   0  0  0  0  0  2  0  0  0  0  0  0
  -27.7190  -13.4030   19.4710 C   0  0  0  0  0  3  0  0  0  0  0  0
  -28.8210  -13.5060   20.5460 C   0  0  0  0  0  2  0  0  0  0  0  0
  -30.0270  -14.0080   19.8700 N   0  0  0  0  0  0  0  0  0  0  0  0
  -31.7820  -15.3350   19.5650 O   0  0  0  0  0  0  0  0  0  0  0  0
  -29.8300  -16.5540   20.0970 N   0  0  0  0  0  0  0  0  0  0  0  0
  -28.8860  -16.3540   20.3940 H   0  0  0  0  0  0  0  0  0  0  0  0
  -25.3880  -13.9480   20.3540 C   0  0  0  0  0  0  0  0  0  0  0  0
  -24.3480  -13.1640   20.7650 C   0  0  0  0  0  0  0  0  0  0  0  0
  -24.8140  -11.8150   20.6880 C   0  0  0  0  0  0  0  0  0  0  0  0
  -26.4170  -13.0790   20.0380 N   0  0  0  0  0  0  0  0  0  0  0  0
  -26.0860  -11.7900   20.3070 N   0  0  0  0  0  0  0  0  0  0  0  0
  -24.1010  -10.5480   20.8940 C   0  0  0  0  0  0  0  0  0  0  0  0
  -24.5190   -9.6120   21.8670 C   0  0  0  0  0  3  0  0  0  0  0  0
  -23.8040   -8.4100   22.0590 C   0  0  0  0  0  3  0  0  0  0  0  0
  -22.6570   -8.1340   21.2780 C   0  0  0  0  0  0  0  0  0  0  0  0
  -22.2570   -9.0580   20.2960 C   0  0  0  0  0  3  0  0  0  0  0  0
  -22.9720  -10.2520   20.1030 C   0  0  0  0  0  3  0  0  0  0  0  0
  -21.9150   -6.9820   21.3770 O   0  0  0  0  0  0  0  0  0  0  0  0
  -21.7590   -6.3280   22.5730 C   0  0  0  0  0  0  0  0  0  0  0  0
  -21.1850   -6.9590   23.6990 C   0  0  0  0  0  3  0  0  0  0  0  0
  -20.9810   -6.2280   24.8860 C   0  0  0  0  0  3  0  0  0  0  0  0
  -21.3400   -4.8680   24.9480 C   0  0  0  0  0  0  0  0  0  0  0  0
  -21.9050   -4.2370   23.8250 C   0  0  0  0  0  3  0  0  0  0  0  0
  -22.1120   -4.9650   22.6410 C   0  0  0  0  0  0  0  0  0  0  0  0
  -22.6380   -4.3480   21.5560 F   0  0  0  0  0  0  0  0  0  0  0  0
  -21.1360   -4.1640   26.0860 F   0  0  0  0  0  0  0  0  0  0  0  0
  -22.9650  -13.6330   21.1100 C   0  0  0  0  0  0  0  0  0  0  0  0
  -22.2820  -12.9250   22.0010 N   0  0  0  0  0  0  0  0  0  0  0  0
  -22.5020  -14.6640   20.6240 O   0  0  0  0  0  0  0  0  0  0  0  0
  -22.6700  -12.0900   22.4150 H   0  0  0  0  0  0  0  0  0  0  0  0
  -21.3550  -13.2200   22.2750 H   0  0  0  0  0  0  0  0  0  0  0  0
  -25.5420  -15.3210   20.1940 N   0  0  0  0  0  0  0  0  0  0  0  0
  -24.7830  -15.9680   20.3690 H   0  0  0  0  0  0  0  0  0  0  0  0
  -26.3560  -15.7660   19.7890 H   0  0  0  0  0  0  0  0  0  0  0  0
  -28.2750  -24.4340   19.7170 C   0  0  0  0  0  2  0  0  0  0  0  0
  -28.2580  -25.9860   20.2300 O   0  0  0  0  0  0  0  0  0  0  0  0
  -24.6820  -31.8720   23.1840 C   0  0  0  0  0  0  0  0  0  0  0  0
  -27.2280  -27.0450   20.1230 C   0  0  0  0  0  0  0  0  0  0  0  0
  -23.4720  -30.4650   21.5630 C   0  0  0  0  0  3  0  0  0  0  0  0
  -24.9110  -28.8790   20.1160 C   0  0  0  0  0  0  0  0  0  0  0  0
  -26.0300  -30.7040   21.3770 C   0  0  0  0  0  2  0  0  0  0  0  0
  -26.1000  -29.3000   20.7200 C   0  0  0  0  0  0  0  0  0  0  0  0
  -27.2490  -28.3990   20.7090 C   0  0  0  0  0  3  0  0  0  0  0  0
  -26.0120  -26.7700   19.4580 C   0  0  0  0  0  3  0  0  0  0  0  0
  -24.8890  -27.6350   19.4650 C   0  0  0  0  0  3  0  0  0  0  0  0
  -23.6830  -29.7850   20.1830 C   0  0  0  0  0  2  0  0  0  0  0  0
  -24.7500  -31.0420   22.0940 N   0  0  0  0  0  0  0  0  0  0  0  0
  -23.6000  -32.1540   23.7220 O   0  0  0  0  0  0  0  0  0  0  0  0
  -22.8050  -29.4630   22.5410 C   0  0  0  0  0  0  0  0  0  0  0  0
  -21.4770  -29.2790   22.4300 N   0  0  0  0  0  0  0  0  0  0  0  0
  -23.4890  -28.8530   23.3680 O   0  0  0  0  0  0  0  0  0  0  0  0
  -20.9740  -29.8200   21.7400 H   0  0  0  0  0  0  0  0  0  0  0  0
  -18.1200  -28.0140   22.9570 C   0  0  0  0  0  0  0  0  0  0  0  0
  -20.6730  -28.3360   23.2150 C   0  0  0  0  0  3  0  0  0  0  0  0
  -20.8010  -26.8990   22.6580 C   0  0  0  0  0  2  0  0  0  0  0  0
  -19.7080  -26.5410   21.6480 C   0  0  0  0  0  2  0  0  0  0  0  0
  -18.3230  -26.6640   22.2890 C   0  0  0  0  0  2  0  0  0  0  0  0
  -19.2220  -28.8060   23.3750 C   0  0  0  0  0  0  0  0  0  0  0  0
  -18.9750  -30.0660   23.9630 C   0  0  0  0  0  3  0  0  0  0  0  0
  -17.6590  -30.5370   24.1320 C   0  0  0  0  0  3  0  0  0  0  0  0
  -16.5720  -29.7450   23.7250 C   0  0  0  0  0  3  0  0  0  0  0  0
  -16.8030  -28.4840   23.1450 C   0  0  0  0  0  3  0  0  0  0  0  0
  -25.9610  -32.5220   23.7960 C   0  0  0  0  0  3  0  0  0  0  0  0
  -26.4980  -31.7570   25.0690 C   0  0  1  0  0  0  0  0  0  0  0  0
  -25.4180  -31.5120   26.1490 C   0  0  0  0  0  1  0  0  0  0  0  0
  -27.0890  -30.3840   24.6790 C   0  0  0  0  0  1  0  0  0  0  0  0
  -27.6480  -32.5630   25.7180 C   0  0  0  0  0  1  0  0  0  0  0  0
  -25.6370  -33.9170   24.1420 N   0  0  0  0  0  0  0  0  0  0  0  0
  -25.9490  -34.9850   23.3970 C   0  0  0  0  0  0  0  0  0  0  0  0
  -26.6030  -34.9020   22.3550 O   0  0  0  0  0  0  0  0  0  0  0  0
  -25.0540  -34.0550   24.9550 H   0  0  0  0  0  0  0  0  0  0  0  0
  -24.2060  -36.7790   23.0930 C   0  0  0  0  0  1  0  0  0  0  0  0
  -25.4590  -36.3660   23.8800 C   0  0  0  0  0  3  0  0  0  0  0  0
  -27.5960  -37.2600   24.7010 C   0  0  0  0  0  1  0  0  0  0  0  0
  -26.4840  -37.4280   23.7690 N   0  0  0  0  0  0  0  0  0  0  0  0
  -26.0730  -38.3440   23.9310 H   0  0  0  0  0  0  0  0  0  0  0  0
  2  5  1  0
  2  1  2  0
  5  3  1  1
  5  4  1  0
  6 15  1  0
  6  5  1  0
  7 15  1  0
  8 13  1  0
  9 10  1  0
  9  8  1  0
 11 10  1  0
 11 20  1  0
 11 12  1  0
 13  7  1  0
 13 12  1  0
 14  7  2  0
 15 16  1  0
 17 18  2  0
 18 37  1  0
 19 18  1  0
 19 22  1  0
 20 21  1  0
 20 17  1  0
 21 19  2  0
 22 23  1  0
 23 24  2  0
 25 28  1  0
 25 24  1  0
 26 25  2  0
 27 26  1  0
 27 22  2  0
 28 29  1  0
 29 34  2  0
 29 30  1  0
 30 31  2  0
 31 32  1  0
 32 36  1  0
 33 32  2  0
 34 33  1  0
 35 34  1  0
 37 38  1  0
 38 41  1  0
 38 40  1  0
 39 37  2  0
 42 17  1  0
 42 43  1  0
 44 42  1  0
 45 46  1  0
 45  1  1  0
 47 58  2  0
 48 46  1  0
 48 53  1  0
 49 57  1  0
 49 59  1  0
 50 56  1  0
 50 52  1  0
 51 57  1  0
 52 51  1  0
 53 52  2  0
 54 55  1  0
 54 48  2  0
 55 50  2  0
 56 49  1  0
 57 47  1  0
 59 61  2  0
 60 59  1  0
 62 60  1  0
 63 72  2  0
 63 68  1  0
 64 60  1  0
 64 68  1  0
 65 64  1  0
 66 67  1  0
 66 65  1  0
 67 63  1  0
 68 69  2  0
 69 70  1  0
 71 70  2  0
 72 71  1  0
 73 47  1  0
 73 78  1  0
 73 74  1  0
 74 77  1  1
 74 75  1  0
 76 74  1  0
 78 81  1  0
 79 83  1  0
 79 78  1  0
 80 79  2  0
 83 82  1  0
 85 83  1  0
 85 86  1  0
 85 84  1  0
M  ISO  4   7 100  15 100  45 101  46 101
M  END
>  <TORSDO>  (72) 
F 20

>  <SCORE>  (72) 
-14.622

>  <name>  (72) 
72

>  <ligand_id>  (72) 
72

>  <original_smiles>  (72) 
[H]c1c([H])c([H])c2c(c1[H])C([H])([H])C([H])([H])C([H])([H])C2([H])N([H])C(=O)C1([H])N(C(=O)C([H])(N([H])C(=O)C([H])(N([H])C([H])([H])[H])C([H])([H])[H])C(C([H])([H])[H])(C([H])([H])[H])C([H])([H])[H])C([H])([H])c2c([H])c(OC([H])([H])C([H])([H])C([H])([H])C(C([H])([H])[H])(C([H])([H])[H])C([H])([H])N([H])C(=O)N3C([H])([H])C([H])([H])C([H])([H])C([H])(n4nc(-c5c([H])c([H])c(Oc6c([H])c([H])c(F)c([H])c6F)c([H])c5[H])c(C(=O)N([H])[H])c4N([H])[H])C3([H])[H])c([H])c([H])c2C1([H])[H]

>  <smiles>  (72) 
[H]c1c([H])c([H])c2c(c1[H])C([H])([H])C([H])([H])C([H])([H])C2([H])N([H])C(=O)C1([H])N(C(=O)C([H])(N([H])C(=O)C([H])(N([H])C([H])([H])[H])C([H])([H])[H])C(C([H])([H])[H])(C([H])([H])[H])C([H])([H])[H])C([H])([H])c2c([H])c(OC([H])([H])C([H])([H])C([H])([H])C(C([H])([H])[H])(C([H])([H])[H])C([H])([H])N([H])C(=O)N3C([H])([H])C([H])([H])C([H])([H])C([H])(n4nc(-c5c([H])c([H])c(Oc6c([H])c([H])c(F)c([H])c6F)c([H])c5[H])c(C(=O)N([H])[H])c4N([H])[H])C3([H])[H])c([H])c([H])c2C1([H])[H]

$$$$
73:0:0
     RDKit          3D

 96104  0  0  1  0  0  0  0  0999 V2000
  -28.3740  -20.5180   22.2690 C   0  0  0  0  0  1  0  0  0  0  0  0
  -29.2400  -20.8050   21.0290 C   0  0  0  0  0  3  0  0  0  0  0  0
  -30.5760  -18.1420   17.3140 C   0  0  0  0  0  2  0  0  0  0  0  0
  -31.0590  -17.2790   18.5000 C   0  0  0  0  0  2  0  0  0  0  0  0
  -30.0210  -18.3100   20.6390 C   0  0  0  0  0  2  0  0  0  0  0  0
  -29.6320  -19.3230   17.6110 C   0  0  0  0  0  2  0  0  0  0  0  0
  -30.0680  -17.0800   19.6800 C   0  0  0  0  0  3  0  0  0  0  0  0
  -29.3180  -19.5830   20.0630 C   0  0  0  0  0  3  0  0  0  0  0  0
  -29.9780  -20.0660   18.8360 N   0  0  0  0  0  4  0  0  0  0  0  0
  -29.5950  -21.0040   18.7760 H   0  0  0  0  0  0  0  0  0  0  0  0
  -30.9720  -20.1650   18.9540 H   0  0  0  0  0  0  0  0  0  0  0  0
  -31.0820  -14.7680   20.2420 C   0  0  0  0  0  0  0  0  0  0  0  0
  -30.8120  -12.5620   19.2020 C   0  0  0  0  0  2  0  0  0  0  0  0
  -29.8780  -12.7670   17.9900 C   0  0  0  0  0  2  0  0  0  0  0  0
  -28.3990  -12.6550   18.4130 C   0  0  0  0  0  2  0  0  0  0  0  0
  -28.0680  -13.5180   19.6590 C   0  0  0  0  0  3  0  0  0  0  0  0
  -29.1140  -13.3000   20.7800 C   0  0  0  0  0  2  0  0  0  0  0  0
  -30.4480  -13.5660   20.2140 N   0  0  0  0  0  0  0  0  0  0  0  0
  -32.2440  -14.9270   19.8630 O   0  0  0  0  0  0  0  0  0  0  0  0
  -30.2300  -15.8040   20.4240 N   0  0  0  0  0  0  0  0  0  0  0  0
  -29.3750  -15.4970   20.8630 H   0  0  0  0  0  0  0  0  0  0  0  0
  -25.6880  -14.1900   20.3670 C   0  0  0  0  0  0  0  0  0  0  0  0
  -24.6010  -13.4430   20.7330 C   0  0  0  0  0  0  0  0  0  0  0  0
  -25.0260  -12.0800   20.6960 C   0  0  0  0  0  0  0  0  0  0  0  0
  -26.7090  -13.2810   20.1330 N   0  0  0  0  0  0  0  0  0  0  0  0
  -26.3150  -12.0080   20.3900 N   0  0  0  0  0  0  0  0  0  0  0  0
  -24.2710  -10.8350   20.8760 C   0  0  0  0  0  0  0  0  0  0  0  0
  -24.6480   -9.8760   21.8420 C   0  0  0  0  0  3  0  0  0  0  0  0
  -23.8940   -8.6960   22.0100 C   0  0  0  0  0  3  0  0  0  0  0  0
  -22.7480   -8.4650   21.2120 C   0  0  0  0  0  0  0  0  0  0  0  0
  -22.3900   -9.4120   20.2370 C   0  0  0  0  0  3  0  0  0  0  0  0
  -23.1450  -10.5850   20.0660 C   0  0  0  0  0  3  0  0  0  0  0  0
  -21.9720   -7.3340   21.2860 O   0  0  0  0  0  0  0  0  0  0  0  0
  -21.8140   -6.6460   22.4630 C   0  0  0  0  0  0  0  0  0  0  0  0
  -21.2590   -7.2520   23.6110 C   0  0  0  0  0  3  0  0  0  0  0  0
  -21.0510   -6.4900   24.7780 C   0  0  0  0  0  3  0  0  0  0  0  0
  -21.3870   -5.1230   24.7960 C   0  0  0  0  0  0  0  0  0  0  0  0
  -21.9360   -4.5170   23.6530 C   0  0  0  0  0  3  0  0  0  0  0  0
  -22.1460   -5.2770   22.4880 C   0  0  0  0  0  0  0  0  0  0  0  0
  -22.6530   -4.6830   21.3810 F   0  0  0  0  0  0  0  0  0  0  0  0
  -21.1790   -4.3880   25.9140 F   0  0  0  0  0  0  0  0  0  0  0  0
  -23.2160  -13.9540   21.0070 C   0  0  0  0  0  0  0  0  0  0  0  0
  -22.4750  -13.2760   21.8800 N   0  0  0  0  0  0  0  0  0  0  0  0
  -22.8000  -14.9850   20.4830 O   0  0  0  0  0  0  0  0  0  0  0  0
  -22.8250  -12.4410   22.3240 H   0  0  0  0  0  0  0  0  0  0  0  0
  -21.5470  -13.6030   22.1100 H   0  0  0  0  0  0  0  0  0  0  0  0
  -25.8890  -15.5570   20.1910 N   0  0  0  0  0  0  0  0  0  0  0  0
  -25.1350  -16.2270   20.2880 H   0  0  0  0  0  0  0  0  0  0  0  0
  -26.7370  -15.9670   19.8230 H   0  0  0  0  0  0  0  0  0  0  0  0
  -28.6570  -21.9410   20.2870 N   0  0  0  0  0  0  0  0  0  0  0  0
  -27.6450  -21.8380   20.2440 H   0  0  0  0  0  0  0  0  0  0  0  0
  -28.9710  -23.2560   20.8680 C   0  0  0  0  0  2  0  0  0  0  0  0
  -29.1260  -24.3820   18.5940 C   0  0  0  0  0  1  0  0  0  0  0  0
  -28.4750  -24.4390   19.9840 C   0  0  0  0  0  3  0  0  0  0  0  0
  -28.7420  -25.8150   20.6670 C   0  0  0  0  0  2  0  0  0  0  0  0
  -28.6020  -26.9770   19.8270 O   0  0  0  0  0  0  0  0  0  0  0  0
  -24.6310  -31.8500   23.1910 C   0  0  0  0  0  0  0  0  0  0  0  0
  -27.4050  -27.6530   19.9020 C   0  0  0  0  0  0  0  0  0  0  0  0
  -23.4600  -30.4810   21.4940 C   0  0  0  0  0  3  0  0  0  0  0  0
  -24.9550  -29.0600   19.9950 C   0  0  0  0  0  0  0  0  0  0  0  0
  -25.9660  -30.9480   21.2850 C   0  0  0  0  0  2  0  0  0  0  0  0
  -26.0960  -29.6070   20.5910 C   0  0  0  0  0  0  0  0  0  0  0  0
  -27.3260  -28.9120   20.5400 C   0  0  0  0  0  3  0  0  0  0  0  0
  -26.2520  -27.1190   19.2980 C   0  0  0  0  0  3  0  0  0  0  0  0
  -25.0260  -27.8130   19.3460 C   0  0  0  0  0  3  0  0  0  0  0  0
  -23.6790  -29.8680   20.0860 C   0  0  0  0  0  2  0  0  0  0  0  0
  -24.7040  -31.1070   22.0490 N   0  0  0  0  0  0  0  0  0  0  0  0
  -23.5470  -32.0490   23.7550 O   0  0  0  0  0  0  0  0  0  0  0  0
  -22.8580  -29.3940   22.4140 C   0  0  0  0  0  0  0  0  0  0  0  0
  -21.5410  -29.1620   22.2880 N   0  0  0  0  0  0  0  0  0  0  0  0
  -23.5730  -28.7600   23.1950 O   0  0  0  0  0  0  0  0  0  0  0  0
  -21.0260  -29.7200   21.6220 H   0  0  0  0  0  0  0  0  0  0  0  0
  -18.2230  -27.8210   22.7710 C   0  0  0  0  0  0  0  0  0  0  0  0
  -20.7740  -28.1580   23.0250 C   0  0  0  0  0  3  0  0  0  0  0  0
  -20.9190  -26.7620   22.3770 C   0  0  0  0  0  2  0  0  0  0  0  0
  -19.8170  -26.4510   21.3580 C   0  0  0  0  0  2  0  0  0  0  0  0
  -18.4390  -26.5160   22.0220 C   0  0  0  0  0  2  0  0  0  0  0  0
  -19.3190  -28.6000   23.2290 C   0  0  0  0  0  0  0  0  0  0  0  0
  -19.0650  -29.8230   23.8850 C   0  0  0  0  0  3  0  0  0  0  0  0
  -17.7460  -30.2700   24.0890 C   0  0  0  0  0  3  0  0  0  0  0  0
  -16.6630  -29.4880   23.6500 C   0  0  0  0  0  3  0  0  0  0  0  0
  -16.9040  -28.2660   22.9970 C   0  0  0  0  0  3  0  0  0  0  0  0
  -25.9000  -32.5020   23.8270 C   0  0  0  0  0  3  0  0  0  0  0  0
  -25.5610  -33.8920   24.1630 N   0  0  0  0  0  0  0  0  0  0  0  0
  -25.8830  -34.9540   23.4140 C   0  0  0  0  0  0  0  0  0  0  0  0
  -26.5660  -34.8700   22.3890 O   0  0  0  0  0  0  0  0  0  0  0  0
  -24.9590  -34.0320   24.9610 H   0  0  0  0  0  0  0  0  0  0  0  0
  -24.1260  -36.7140   23.0520 C   0  0  0  0  0  1  0  0  0  0  0  0
  -25.3650  -36.3300   23.8740 C   0  0  0  0  0  3  0  0  0  0  0  0
  -27.4710  -37.2540   24.7340 C   0  0  0  0  0  1  0  0  0  0  0  0
  -26.3790  -37.4020   23.7750 N   0  0  0  0  0  0  0  0  0  0  0  0
  -25.9540  -38.3140   23.9130 H   0  0  0  0  0  0  0  0  0  0  0  0
  -26.4220  -31.7300   25.0990 C   0  0  1  0  0  0  0  0  0  0  0  0
  -25.3240  -31.4450   26.1500 C   0  0  0  0  0  1  0  0  0  0  0  0
  -27.0530  -30.3790   24.6970 C   0  0  0  0  0  1  0  0  0  0  0  0
  -27.5400  -32.5480   25.7890 C   0  0  0  0  0  1  0  0  0  0  0  0
  2  1  1  0
  3  6  1  0
  3  4  1  0
  4  7  1  0
  6  9  1  0
  7 20  1  0
  7  5  1  0
  8  5  1  0
  8  2  1  0
  9 11  1  0
  9  8  1  0
 10  9  1  0
 12 20  1  0
 13 18  1  0
 14 15  1  0
 14 13  1  0
 16 15  1  0
 16 25  1  0
 16 17  1  0
 18 12  1  0
 18 17  1  0
 19 12  2  0
 20 21  1  0
 22 23  2  0
 23 42  1  0
 24 23  1  0
 24 27  1  0
 25 22  1  0
 25 26  1  0
 26 24  2  0
 27 28  1  0
 28 29  2  0
 30 33  1  0
 30 29  1  0
 31 30  2  0
 32 31  1  0
 32 27  2  0
 33 34  1  0
 34 39  2  0
 34 35  1  0
 35 36  2  0
 36 37  1  0
 37 41  1  0
 38 37  2  0
 39 38  1  0
 40 39  1  0
 42 43  1  0
 43 46  1  0
 43 45  1  0
 44 42  2  0
 47 48  1  0
 47 22  1  0
 49 47  1  0
 50 52  1  0
 50  2  1  0
 51 50  1  0
 54 53  1  0
 54 55  1  0
 54 52  1  0
 56 58  1  0
 56 55  1  0
 57 68  2  0
 58 63  1  0
 59 67  1  0
 59 69  1  0
 60 66  1  0
 60 62  1  0
 61 67  1  0
 62 61  1  0
 63 62  2  0
 64 65  1  0
 64 58  2  0
 65 60  2  0
 66 59  1  0
 67 57  1  0
 69 71  2  0
 70 69  1  0
 72 70  1  0
 73 82  2  0
 73 78  1  0
 74 70  1  0
 74 78  1  0
 75 74  1  0
 76 77  1  0
 76 75  1  0
 77 73  1  0
 78 79  2  0
 79 80  1  0
 81 80  2  0
 82 81  1  0
 83 57  1  0
 83 84  1  0
 83 93  1  0
 84 87  1  0
 85 89  1  0
 85 84  1  0
 86 85  2  0
 89 88  1  0
 91 89  1  0
 91 92  1  0
 91 90  1  0
 93 96  1  1
 93 94  1  0
 95 93  1  0
M  ISO  4  12 100  20 100  55 101  56 101
M  END
>  <TORSDO>  (73) 
F 21

>  <SCORE>  (73) 
-11.374

>  <name>  (73) 
73

>  <ligand_id>  (73) 
73

>  <original_smiles>  (73) 
[H]c1c([H])c([H])c2c(c1[H])C([H])([H])C([H])([H])C([H])([H])C2([H])N([H])C(=O)C1([H])N(C(=O)C([H])(N([H])C(=O)C([H])(N([H])C([H])([H])[H])C([H])([H])[H])C(C([H])([H])[H])(C([H])([H])[H])C([H])([H])[H])C([H])([H])c2c([H])c(OC([H])([H])C([H])(C([H])([H])[H])C([H])([H])N([H])C([H])(C([H])([H])[H])C3([H])C([H])([H])C([H])(N([H])C(=O)N4C([H])([H])C([H])([H])C([H])([H])C([H])(n5nc(-c6c([H])c([H])c(Oc7c([H])c([H])c(F)c([H])c7F)c([H])c6[H])c(C(=O)N([H])[H])c5N([H])[H])C4([H])[H])C([H])([H])C([H])([H])C([H])([H])[N+]3([H])[H])c([H])c([H])c2C1([H])[H]

>  <smiles>  (73) 
[H]c1c([H])c([H])c2c(c1[H])C([H])([H])C([H])([H])C([H])([H])C2([H])N([H])C(=O)C1([H])N(C(=O)C([H])(N([H])C(=O)C([H])(N([H])C([H])([H])[H])C([H])([H])[H])C(C([H])([H])[H])(C([H])([H])[H])C([H])([H])[H])C([H])([H])c2c([H])c(OC([H])([H])C([H])(C([H])([H])[H])C([H])([H])N([H])C([H])(C([H])([H])[H])C3([H])C([H])([H])C([H])(N([H])C(=O)N4C([H])([H])C([H])([H])C([H])([H])C([H])(n5nc(-c6c([H])c([H])c(Oc7c([H])c([H])c(F)c([H])c7F)c([H])c6[H])c(C(=O)N([H])[H])c5N([H])[H])C4([H])[H])C([H])([H])C([H])([H])C([H])([H])[N+]3([H])[H])c([H])c([H])c2C1([H])[H]

$$$$
74:0:0
     RDKit          3D

 91 99  0  0  1  0  0  0  0  0999 V2000
  -30.4290  -21.4040   18.8930 O   0  0  0  0  0  0  0  0  0  0  0  0
  -31.2210  -17.8750   19.5390 C   0  0  0  0  0  3  0  0  0  0  0  0
  -31.0920  -19.1060   18.8730 C   0  0  0  0  0  3  0  0  0  0  0  0
  -30.1620  -18.9080   21.4460 C   0  0  0  0  0  3  0  0  0  0  0  0
  -30.7450  -17.7650   20.8610 C   0  0  0  0  0  0  0  0  0  0  0  0
  -30.5080  -20.1900   19.5440 C   0  0  0  0  0  0  0  0  0  0  0  0
  -30.0390  -20.0920   20.8080 N   0  0  0  0  0  0  0  0  0  0  0  0
  -30.9390  -16.4840   21.6760 C   0  0  0  0  0  2  0  0  0  0  0  0
  -30.7900  -14.3620   20.3600 C   0  0  0  0  0  0  0  0  0  0  0  0
  -30.3690  -12.2790   19.1100 C   0  0  0  0  0  2  0  0  0  0  0  0
  -29.4090  -12.5360   17.9320 C   0  0  0  0  0  2  0  0  0  0  0  0
  -27.9440  -12.4180   18.3920 C   0  0  0  0  0  2  0  0  0  0  0  0
  -27.6510  -13.2390   19.6760 C   0  0  0  0  0  3  0  0  0  0  0  0
  -28.7190  -12.9670   20.7590 C   0  0  0  0  0  2  0  0  0  0  0  0
  -30.0440  -13.2400   20.1740 N   0  0  0  0  0  0  0  0  0  0  0  0
  -31.8700  -14.5520   19.7950 O   0  0  0  0  0  0  0  0  0  0  0  0
  -30.2600  -15.2870   21.1720 N   0  0  0  0  0  0  0  0  0  0  0  0
  -29.3620  -15.0660   21.5760 H   0  0  0  0  0  0  0  0  0  0  0  0
  -25.2670  -13.8810   20.4100 C   0  0  0  0  0  0  0  0  0  0  0  0
  -24.1940  -13.1240   20.7960 C   0  0  0  0  0  0  0  0  0  0  0  0
  -24.6390  -11.7670   20.7680 C   0  0  0  0  0  0  0  0  0  0  0  0
  -26.3000  -12.9870   20.1730 N   0  0  0  0  0  0  0  0  0  0  0  0
  -25.9250  -11.7100   20.4460 N   0  0  0  0  0  0  0  0  0  0  0  0
  -23.9000  -10.5130   20.9720 C   0  0  0  0  0  0  0  0  0  0  0  0
  -24.3330   -9.5460   21.9050 C   0  0  0  0  0  3  0  0  0  0  0  0
  -23.5960   -8.3570   22.0980 C   0  0  0  0  0  3  0  0  0  0  0  0
  -22.4110   -8.1290   21.3590 C   0  0  0  0  0  0  0  0  0  0  0  0
  -21.9980   -9.0850   20.4150 C   0  0  0  0  0  3  0  0  0  0  0  0
  -22.7360  -10.2650   20.2200 C   0  0  0  0  0  3  0  0  0  0  0  0
  -21.6460   -6.9930   21.4620 O   0  0  0  0  0  0  0  0  0  0  0  0
  -21.6040   -6.2550   22.6180 C   0  0  0  0  0  0  0  0  0  0  0  0
  -21.2010   -6.8200   23.8480 C   0  0  0  0  0  3  0  0  0  0  0  0
  -21.1050   -6.0090   24.9960 C   0  0  0  0  0  3  0  0  0  0  0  0
  -21.4000   -4.6340   24.9150 C   0  0  0  0  0  0  0  0  0  0  0  0
  -21.7960   -4.0700   23.6900 C   0  0  0  0  0  3  0  0  0  0  0  0
  -21.8940   -4.8780   22.5440 C   0  0  0  0  0  0  0  0  0  0  0  0
  -22.2550   -4.3250   21.3600 F   0  0  0  0  0  0  0  0  0  0  0  0
  -21.3000   -3.8540   26.0150 F   0  0  0  0  0  0  0  0  0  0  0  0
  -22.8050  -13.6190   21.0820 C   0  0  0  0  0  0  0  0  0  0  0  0
  -22.0800  -12.9340   21.9590 N   0  0  0  0  0  0  0  0  0  0  0  0
  -22.3730  -14.6480   20.5640 O   0  0  0  0  0  0  0  0  0  0  0  0
  -22.4410  -12.1010   22.3990 H   0  0  0  0  0  0  0  0  0  0  0  0
  -21.1490  -13.2490   22.1950 H   0  0  0  0  0  0  0  0  0  0  0  0
  -25.4480  -15.2480   20.2220 N   0  0  0  0  0  0  0  0  0  0  0  0
  -24.6930  -15.9160   20.3320 H   0  0  0  0  0  0  0  0  0  0  0  0
  -26.3070  -15.6710   19.8920 H   0  0  0  0  0  0  0  0  0  0  0  0
  -29.9660  -22.5450   19.6100 C   0  0  0  0  0  2  0  0  0  0  0  0
  -30.2860  -23.7970   18.7780 C   0  0  0  0  0  2  0  0  0  0  0  0
  -29.9990  -25.1210   19.5050 C   0  0  0  0  0  2  0  0  0  0  0  0
  -28.5210  -25.5290   19.5090 C   0  0  0  0  0  2  0  0  0  0  0  0
  -28.4180  -26.7780   20.1820 O   0  0  0  0  0  0  0  0  0  0  0  0
  -24.5620  -31.8870   23.2410 C   0  0  0  0  0  0  0  0  0  0  0  0
  -27.2100  -27.4410   20.1790 C   0  0  0  0  0  0  0  0  0  0  0  0
  -23.3540  -30.4780   21.6030 C   0  0  0  0  0  3  0  0  0  0  0  0
  -24.8040  -28.9260   20.1970 C   0  0  0  0  0  0  0  0  0  0  0  0
  -25.8780  -30.8330   21.4110 C   0  0  0  0  0  2  0  0  0  0  0  0
  -25.9600  -29.4600   20.7800 C   0  0  0  0  0  0  0  0  0  0  0  0
  -27.1620  -28.7210   20.7730 C   0  0  0  0  0  3  0  0  0  0  0  0
  -26.0300  -26.9090   19.6070 C   0  0  0  0  0  3  0  0  0  0  0  0
  -24.8320  -27.6480   19.6150 C   0  0  0  0  0  3  0  0  0  0  0  0
  -23.5640  -29.7880   20.2300 C   0  0  0  0  0  2  0  0  0  0  0  0
  -24.6160  -31.0830   22.1430 N   0  0  0  0  0  0  0  0  0  0  0  0
  -23.4810  -32.1640   23.7800 O   0  0  0  0  0  0  0  0  0  0  0  0
  -22.7000  -29.4630   22.5690 C   0  0  0  0  0  0  0  0  0  0  0  0
  -21.3760  -29.2820   22.4360 N   0  0  0  0  0  0  0  0  0  0  0  0
  -23.3810  -28.8440   23.3900 O   0  0  0  0  0  0  0  0  0  0  0  0
  -20.8920  -29.8340   21.7420 H   0  0  0  0  0  0  0  0  0  0  0  0
  -17.9960  -28.1110   22.9290 C   0  0  0  0  0  0  0  0  0  0  0  0
  -20.5530  -28.3530   23.2090 C   0  0  0  0  0  3  0  0  0  0  0  0
  -20.6490  -26.9190   22.6370 C   0  0  0  0  0  2  0  0  0  0  0  0
  -19.5500  -26.5990   21.6200 C   0  0  0  0  0  2  0  0  0  0  0  0
  -18.1660  -26.7580   22.2580 C   0  0  0  0  0  2  0  0  0  0  0  0
  -19.1180  -28.8660   23.3600 C   0  0  0  0  0  0  0  0  0  0  0  0
  -18.9060  -30.1350   23.9410 C   0  0  0  0  0  3  0  0  0  0  0  0
  -17.6050  -30.6470   24.1000 C   0  0  0  0  0  3  0  0  0  0  0  0
  -16.4960  -29.8870   23.6890 C   0  0  0  0  0  3  0  0  0  0  0  0
  -16.6930  -28.6210   23.1090 C   0  0  0  0  0  3  0  0  0  0  0  0
  -25.8510  -32.5160   23.8610 C   0  0  0  0  0  3  0  0  0  0  0  0
  -25.5500  -33.9160   24.1860 N   0  0  0  0  0  0  0  0  0  0  0  0
  -25.8900  -34.9620   23.4230 C   0  0  0  0  0  0  0  0  0  0  0  0
  -26.5650  -34.8510   22.3950 O   0  0  0  0  0  0  0  0  0  0  0  0
  -24.9620  -34.0770   24.9890 H   0  0  0  0  0  0  0  0  0  0  0  0
  -24.1750  -36.7590   23.0360 C   0  0  0  0  0  1  0  0  0  0  0  0
  -25.4020  -36.3530   23.8680 C   0  0  0  0  0  3  0  0  0  0  0  0
  -27.5280  -37.2270   24.7260 C   0  0  0  0  0  1  0  0  0  0  0  0
  -26.4400  -37.4020   23.7690 N   0  0  0  0  0  0  0  0  0  0  0  0
  -26.0360  -38.3250   23.9120 H   0  0  0  0  0  0  0  0  0  0  0  0
  -26.3670  -31.7470   25.1400 C   0  0  1  0  0  0  0  0  0  0  0  0
  -25.2730  -31.5090   26.2070 C   0  0  0  0  0  1  0  0  0  0  0  0
  -26.9450  -30.3680   24.7480 C   0  0  0  0  0  1  0  0  0  0  0  0
  -27.5220  -32.5380   25.8000 C   0  0  0  0  0  1  0  0  0  0  0  0
  1  6  1  0
  1 47  1  0
  2  5  1  0
  3  2  2  0
  3  6  1  0
  5  4  2  0
  5  8  1  0
  6  7  2  0
  7  4  1  0
  9 17  1  0
 10 15  1  0
 11 12  1  0
 11 10  1  0
 13 12  1  0
 13 22  1  0
 13 14  1  0
 15  9  1  0
 15 14  1  0
 16  9  2  0
 17 18  1  0
 17  8  1  0
 19 20  2  0
 20 39  1  0
 21 20  1  0
 21 24  1  0
 22 19  1  0
 22 23  1  0
 23 21  2  0
 24 25  1  0
 25 26  2  0
 27 30  1  0
 27 26  1  0
 28 27  2  0
 29 28  1  0
 29 24  2  0
 30 31  1  0
 31 32  1  0
 32 33  2  0
 34 33  1  0
 34 38  1  0
 35 34  2  0
 36 31  2  0
 36 35  1  0
 37 36  1  0
 39 40  1  0
 40 43  1  0
 40 42  1  0
 41 39  2  0
 44 45  1  0
 44 19  1  0
 46 44  1  0
 48 49  1  0
 48 47  1  0
 49 50  1  0
 50 51  1  0
 52 63  2  0
 53 51  1  0
 53 58  1  0
 54 62  1  0
 54 64  1  0
 55 61  1  0
 55 57  1  0
 56 62  1  0
 57 56  1  0
 58 57  2  0
 59 60  1  0
 59 53  2  0
 60 55  2  0
 61 54  1  0
 62 52  1  0
 64 66  2  0
 65 64  1  0
 67 65  1  0
 68 77  2  0
 68 73  1  0
 69 65  1  0
 69 73  1  0
 70 69  1  0
 71 72  1  0
 71 70  1  0
 72 68  1  0
 73 74  2  0
 74 75  1  0
 76 75  2  0
 77 76  1  0
 78 52  1  0
 78 79  1  0
 78 88  1  0
 79 82  1  0
 80 84  1  0
 80 79  1  0
 81 80  2  0
 84 83  1  0
 86 84  1  0
 86 87  1  0
 86 85  1  0
 88 91  1  1
 88 89  1  0
 90 88  1  0
M  ISO  4   9 100  17 100  50 101  51 101
M  END
>  <TORSDO>  (74) 
F 22

>  <SCORE>  (74) 
-13.100

>  <name>  (74) 
74

>  <ligand_id>  (74) 
74

>  <original_smiles>  (74) 
[H]c1nc(OC([H])([H])C([H])([H])C([H])([H])C([H])([H])Oc2c([H])c([H])c3c(c2[H])C([H])([H])N(C(=O)C([H])(N([H])C(=O)C([H])(N([H])C([H])([H])[H])C([H])([H])[H])C(C([H])([H])[H])(C([H])([H])[H])C([H])([H])[H])C([H])(C(=O)N([H])C2([H])c4c([H])c([H])c([H])c([H])c4C([H])([H])C([H])([H])C2([H])[H])C3([H])[H])c([H])c([H])c1C([H])([H])N([H])C(=O)N1C([H])([H])C([H])([H])C([H])([H])C([H])(n2nc(-c3c([H])c([H])c(Oc4c([H])c([H])c(F)c([H])c4F)c([H])c3[H])c(C(=O)N([H])[H])c2N([H])[H])C1([H])[H]

>  <smiles>  (74) 
[H]c1nc(OC([H])([H])C([H])([H])C([H])([H])C([H])([H])Oc2c([H])c([H])c3c(c2[H])C([H])([H])N(C(=O)C([H])(N([H])C(=O)C([H])(N([H])C([H])([H])[H])C([H])([H])[H])C(C([H])([H])[H])(C([H])([H])[H])C([H])([H])[H])C([H])(C(=O)N([H])C2([H])c4c([H])c([H])c([H])c([H])c4C([H])([H])C([H])([H])C2([H])[H])C3([H])[H])c([H])c([H])c1C([H])([H])N([H])C(=O)N1C([H])([H])C([H])([H])C([H])([H])C([H])(n2nc(-c3c([H])c([H])c(Oc4c([H])c([H])c(F)c([H])c4F)c([H])c3[H])c(C(=O)N([H])[H])c2N([H])[H])C1([H])[H]

$$$$
75:0:0
     RDKit          3D

 98106  0  0  1  0  0  0  0  0999 V2000
  -29.9240  -24.4190   21.2970 C   0  0  0  0  0  3  0  0  0  0  0  0
  -30.8380  -23.6810   22.0560 C   0  0  0  0  0  3  0  0  0  0  0  0
  -29.0640  -23.8080   20.3440 C   0  0  0  0  0  0  0  0  0  0  0  0
  -30.8960  -22.3020   21.8650 C   0  0  0  0  0  0  0  0  0  0  0  0
  -29.2140  -22.3390   20.2070 C   0  0  0  0  0  0  0  0  0  0  0  0
  -30.1030  -21.6730   20.9780 N   0  0  0  0  0  0  0  0  0  0  0  0
  -32.8830  -20.7410   21.7200 C   0  0  0  0  0  1  0  0  0  0  0  0
  -31.1600  -20.4590   23.5850 C   0  0  0  0  0  1  0  0  0  0  0  0
  -31.8800  -21.4430   22.6490 C   0  0  0  0  0  3  0  0  0  0  0  0
  -28.5430  -21.3700   19.3770 N   0  0  0  0  0  0  0  0  0  0  0  0
  -27.9470  -21.7740   18.6620 H   0  0  0  0  0  0  0  0  0  0  0  0
  -29.1910  -20.0300   18.9970 C   0  0  0  0  0  2  0  0  0  0  0  0
  -28.8660  -18.6350   19.7740 C   0  0  0  0  0  3  0  0  0  0  0  0
  -27.4140  -18.4130   19.7780 N   0  0  0  0  0  4  0  0  0  0  0  0
  -27.1590  -17.6970   20.4320 H   0  0  0  0  0  0  0  0  0  0  0  0
  -27.0770  -18.1770   18.8630 H   0  0  0  0  0  0  0  0  0  0  0  0
  -26.9710  -19.2700   20.0650 H   0  0  0  0  0  0  0  0  0  0  0  0
  -29.6990  -17.2880   19.3410 C   0  0  0  0  0  2  0  0  0  0  0  0
  -30.3030  -14.7720   19.8250 C   0  0  0  0  0  0  0  0  0  0  0  0
  -30.2040  -12.3840   19.0940 C   0  0  0  0  0  2  0  0  0  0  0  0
  -29.1990  -12.2530   17.9280 C   0  0  0  0  0  2  0  0  0  0  0  0
  -27.7690  -12.0420   18.4620 C   0  0  0  0  0  2  0  0  0  0  0  0
  -27.4050  -13.0310   19.6040 C   0  0  0  0  0  3  0  0  0  0  0  0
  -28.5290  -13.1440   20.6580 C   0  0  0  0  0  2  0  0  0  0  0  0
  -29.7590  -13.5110   19.9470 N   0  0  0  0  0  0  0  0  0  0  0  0
  -31.4540  -14.8990   19.3990 O   0  0  0  0  0  0  0  0  0  0  0  0
  -29.4740  -15.8830   19.9420 N   0  0  0  0  0  0  0  0  0  0  0  0
  -28.5480  -15.6700   20.2760 H   0  0  0  0  0  0  0  0  0  0  0  0
  -25.0880  -13.5760   20.5540 C   0  0  0  0  0  0  0  0  0  0  0  0
  -24.0680  -12.7830   21.0040 C   0  0  0  0  0  0  0  0  0  0  0  0
  -24.5370  -11.4380   20.8960 C   0  0  0  0  0  0  0  0  0  0  0  0
  -26.1140  -12.7150   20.2050 N   0  0  0  0  0  0  0  0  0  0  0  0
  -25.7950  -11.4210   20.4690 N   0  0  0  0  0  0  0  0  0  0  0  0
  -23.8390  -10.1630   21.1150 C   0  0  0  0  0  0  0  0  0  0  0  0
  -24.2930   -9.2280   22.0700 C   0  0  0  0  0  3  0  0  0  0  0  0
  -23.5930   -8.0200   22.2770 C   0  0  0  0  0  3  0  0  0  0  0  0
  -22.4270   -7.7380   21.5270 C   0  0  0  0  0  0  0  0  0  0  0  0
  -21.9930   -8.6600   20.5580 C   0  0  0  0  0  3  0  0  0  0  0  0
  -22.6930   -9.8610   20.3510 C   0  0  0  0  0  3  0  0  0  0  0  0
  -21.6990   -6.5780   21.6420 O   0  0  0  0  0  0  0  0  0  0  0  0
  -21.5950   -5.9080   22.8350 C   0  0  0  0  0  0  0  0  0  0  0  0
  -21.0520   -6.5170   23.9870 C   0  0  0  0  0  3  0  0  0  0  0  0
  -20.9000   -5.7710   25.1730 C   0  0  0  0  0  3  0  0  0  0  0  0
  -21.2830   -4.4170   25.2080 C   0  0  0  0  0  0  0  0  0  0  0  0
  -21.8190   -3.8070   24.0600 C   0  0  0  0  0  3  0  0  0  0  0  0
  -21.9720   -4.5510   22.8760 C   0  0  0  0  0  0  0  0  0  0  0  0
  -22.4690   -3.9520   21.7670 F   0  0  0  0  0  0  0  0  0  0  0  0
  -21.1300   -3.6980   26.3440 F   0  0  0  0  0  0  0  0  0  0  0  0
  -22.6970  -13.2390   21.4090 C   0  0  0  0  0  0  0  0  0  0  0  0
  -22.0500  -12.5100   22.3100 N   0  0  0  0  0  0  0  0  0  0  0  0
  -22.2110  -14.2780   20.9610 O   0  0  0  0  0  0  0  0  0  0  0  0
  -22.4580  -11.6690   22.6910 H   0  0  0  0  0  0  0  0  0  0  0  0
  -21.1310  -12.7930   22.6220 H   0  0  0  0  0  0  0  0  0  0  0  0
  -25.2200  -14.9510   20.3810 N   0  0  0  0  0  0  0  0  0  0  0  0
  -24.3820  -15.5210   20.4280 H   0  0  0  0  0  0  0  0  0  0  0  0
  -25.9000  -15.3120   19.7260 H   0  0  0  0  0  0  0  0  0  0  0  0
  -28.1070  -24.8870   19.6540 C   0  0  0  0  0  2  0  0  0  0  0  0
  -28.1980  -26.3520   20.0350 O   0  0  0  0  0  0  0  0  0  0  0  0
  -24.6030  -31.7200   23.3180 C   0  0  0  0  0  0  0  0  0  0  0  0
  -27.1000  -27.2430   20.0120 C   0  0  0  0  0  0  0  0  0  0  0  0
  -23.3730  -30.4620   21.5850 C   0  0  0  0  0  3  0  0  0  0  0  0
  -24.7880  -28.9480   20.0760 C   0  0  0  0  0  0  0  0  0  0  0  0
  -25.9240  -30.7050   21.4390 C   0  0  0  0  0  2  0  0  0  0  0  0
  -25.9650  -29.3630   20.7070 C   0  0  0  0  0  0  0  0  0  0  0  0
  -27.1250  -28.5260   20.6580 C   0  0  0  0  0  3  0  0  0  0  0  0
  -25.8990  -26.8860   19.3620 C   0  0  0  0  0  3  0  0  0  0  0  0
  -24.7600  -27.7190   19.3910 C   0  0  0  0  0  3  0  0  0  0  0  0
  -23.5780  -29.8590   20.1680 C   0  0  0  0  0  2  0  0  0  0  0  0
  -24.6530  -30.9770   22.1720 N   0  0  0  0  0  0  0  0  0  0  0  0
  -23.5240  -31.9980   23.8610 O   0  0  0  0  0  0  0  0  0  0  0  0
  -22.6670  -29.4150   22.4800 C   0  0  0  0  0  0  0  0  0  0  0  0
  -21.3430  -29.2640   22.3090 N   0  0  0  0  0  0  0  0  0  0  0  0
  -23.3140  -28.7420   23.2880 O   0  0  0  0  0  0  0  0  0  0  0  0
  -20.8830  -29.8570   21.6320 H   0  0  0  0  0  0  0  0  0  0  0  0
  -17.9380  -28.0930   22.6630 C   0  0  0  0  0  0  0  0  0  0  0  0
  -20.4910  -28.3010   23.0110 C   0  0  0  0  0  3  0  0  0  0  0  0
  -20.5880  -26.8990   22.3670 C   0  0  0  0  0  2  0  0  0  0  0  0
  -19.5100  -26.6440   21.3090 C   0  0  0  0  0  2  0  0  0  0  0  0
  -18.1130  -26.7780   21.9250 C   0  0  0  0  0  2  0  0  0  0  0  0
  -19.0540  -28.8170   23.1580 C   0  0  0  0  0  0  0  0  0  0  0  0
  -18.8360  -30.0520   23.8090 C   0  0  0  0  0  3  0  0  0  0  0  0
  -17.5350  -30.5620   23.9670 C   0  0  0  0  0  3  0  0  0  0  0  0
  -16.4310  -29.8350   23.4860 C   0  0  0  0  0  3  0  0  0  0  0  0
  -16.6340  -28.6030   22.8400 C   0  0  0  0  0  3  0  0  0  0  0  0
  -25.8990  -32.2740   23.9890 C   0  0  0  0  0  3  0  0  0  0  0  0
  -26.3060  -31.4900   25.2960 C   0  0  1  0  0  0  0  0  0  0  0  0
  -25.1500  -31.3300   26.3120 C   0  0  0  0  0  1  0  0  0  0  0  0
  -26.8220  -30.0750   24.9460 C   0  0  0  0  0  1  0  0  0  0  0  0
  -27.4690  -32.2200   26.0060 C   0  0  0  0  0  1  0  0  0  0  0  0
  -25.6710  -33.6950   24.2930 N   0  0  0  0  0  0  0  0  0  0  0  0
  -26.0710  -34.7140   23.5200 C   0  0  0  0  0  0  0  0  0  0  0  0
  -26.7390  -34.5530   22.4950 O   0  0  0  0  0  0  0  0  0  0  0  0
  -25.0830  -33.8970   25.0870 H   0  0  0  0  0  0  0  0  0  0  0  0
  -24.4510  -36.6000   23.1350 C   0  0  0  0  0  1  0  0  0  0  0  0
  -25.6680  -36.1370   23.9530 C   0  0  0  0  0  3  0  0  0  0  0  0
  -27.8470  -36.9180   24.7720 C   0  0  0  0  0  1  0  0  0  0  0  0
  -26.7600  -37.1260   23.8190 N   0  0  0  0  0  0  0  0  0  0  0  0
  -26.4080  -38.0710   23.9410 H   0  0  0  0  0  0  0  0  0  0  0  0
  1  2  1  0
  3  1  2  0
  4  2  2  0
  4  9  1  0
  5  3  1  0
  5  6  2  0
  6  4  1  0
  7  9  1  0
  9  8  1  0
 10  5  1  0
 11 10  1  0
 12 10  1  0
 13 12  1  0
 13 14  1  0
 14 17  1  0
 14 15  1  0
 16 14  1  0
 18 13  1  0
 18 27  1  0
 19 27  1  0
 19 25  1  0
 20 25  1  0
 21 22  1  0
 21 20  1  0
 23 22  1  0
 23 32  1  0
 23 24  1  0
 25 24  1  0
 26 19  2  0
 27 28  1  0
 29 30  2  0
 30 49  1  0
 31 30  1  0
 31 34  1  0
 32 33  1  0
 32 29  1  0
 33 31  2  0
 34 35  1  0
 35 36  2  0
 37 40  1  0
 37 36  1  0
 38 37  2  0
 39 38  1  0
 39 34  2  0
 40 41  1  0
 41 46  2  0
 41 42  1  0
 42 43  2  0
 43 44  1  0
 44 48  1  0
 45 44  2  0
 46 45  1  0
 47 46  1  0
 49 50  1  0
 50 53  1  0
 50 52  1  0
 51 49  2  0
 54 55  1  0
 54 29  1  0
 56 54  1  0
 57 58  1  0
 57  3  1  0
 59 70  2  0
 60 58  1  0
 60 65  1  0
 61 69  1  0
 61 71  1  0
 62 68  1  0
 62 64  1  0
 63 69  1  0
 64 63  1  0
 65 64  2  0
 66 67  1  0
 66 60  2  0
 67 62  2  0
 68 61  1  0
 69 59  1  0
 71 73  2  0
 72 71  1  0
 74 72  1  0
 75 84  2  0
 75 80  1  0
 76 72  1  0
 76 80  1  0
 77 76  1  0
 78 79  1  0
 78 77  1  0
 79 75  1  0
 80 81  2  0
 81 82  1  0
 83 82  2  0
 84 83  1  0
 85 59  1  0
 85 90  1  0
 85 86  1  0
 86 89  1  1
 86 87  1  0
 88 86  1  0
 90 93  1  0
 91 95  1  0
 91 90  1  0
 92 91  2  0
 95 94  1  0
 97 98  1  0
 97 95  1  0
 97 96  1  0
M  ISO  4  19 100  27 100  57 101  58 101
M  END
>  <TORSDO>  (75) 
F 23

>  <SCORE>  (75) 
-12.340

>  <name>  (75) 
75

>  <ligand_id>  (75) 
75

>  <original_smiles>  (75) 
[H]c1c(C([H])(C([H])([H])[H])C([H])([H])[H])nc(N([H])C([H])([H])C([H])(C([H])([H])N([H])C(=O)N2C([H])([H])C([H])([H])C([H])([H])C([H])(n3nc(-c4c([H])c([H])c(Oc5c([H])c([H])c(F)c([H])c5F)c([H])c4[H])c(C(=O)N([H])[H])c3N([H])[H])C2([H])[H])[N+]([H])([H])[H])c(C([H])([H])Oc2c([H])c([H])c3c(c2[H])C([H])([H])N(C(=O)C([H])(N([H])C(=O)C([H])(N([H])C([H])([H])[H])C([H])([H])[H])C(C([H])([H])[H])(C([H])([H])[H])C([H])([H])[H])C([H])(C(=O)N([H])C2([H])c4c([H])c([H])c([H])c([H])c4C([H])([H])C([H])([H])C2([H])[H])C3([H])[H])c1[H]

>  <smiles>  (75) 
[H]c1c(C([H])(C([H])([H])[H])C([H])([H])[H])nc(N([H])C([H])([H])C([H])(C([H])([H])N([H])C(=O)N2C([H])([H])C([H])([H])C([H])([H])C([H])(n3nc(-c4c([H])c([H])c(Oc5c([H])c([H])c(F)c([H])c5F)c([H])c4[H])c(C(=O)N([H])[H])c3N([H])[H])C2([H])[H])[N+]([H])([H])[H])c(C([H])([H])Oc2c([H])c([H])c3c(c2[H])C([H])([H])N(C(=O)C([H])(N([H])C(=O)C([H])(N([H])C([H])([H])[H])C([H])([H])[H])C(C([H])([H])[H])(C([H])([H])[H])C([H])([H])[H])C([H])(C(=O)N([H])C2([H])c4c([H])c([H])c([H])c([H])c4C([H])([H])C([H])([H])C2([H])[H])C3([H])[H])c1[H]

$$$$
76:0:0
     RDKit          3D

103112  0  0  1  0  0  0  0  0999 V2000
  -31.9170  -23.7650   20.5290 C   0  0  0  0  0  2  0  0  0  0  0  0
  -31.8190  -24.9440   18.4880 C   0  0  0  0  0  2  0  0  0  0  0  0
  -31.1210  -22.5890   19.9450 C   0  0  0  0  0  2  0  0  0  0  0  0
  -31.0320  -23.8070   17.8020 C   0  0  0  0  0  2  0  0  0  0  0  0
  -31.4140  -24.9840   19.8950 N   0  0  0  0  0  0  0  0  0  0  0  0
  -31.2440  -22.4880   18.4620 N   0  0  2  0  0  4  0  0  0  0  0  0
  -32.2040  -22.2360   18.2880 H   0  0  0  0  0  0  0  0  0  0  0  0
  -30.3990  -21.4200   17.8460 C   0  0  0  0  0  2  0  0  0  0  0  0
  -28.8840  -18.9160   20.3920 C   0  0  0  0  0  3  0  0  0  0  0  0
  -31.0340  -18.0770   19.6670 C   0  0  0  0  0  3  0  0  0  0  0  0
  -29.0110  -20.0210   19.5200 C   0  0  0  0  0  0  0  0  0  0  0  0
  -31.1940  -19.1750   18.8000 C   0  0  0  0  0  0  0  0  0  0  0  0
  -30.1890  -20.1770   18.7290 C   0  0  0  0  0  0  0  0  0  0  0  0
  -29.8920  -17.9390   20.4780 C   0  0  0  0  0  0  0  0  0  0  0  0
  -27.8490  -21.0090   19.4720 C   0  0  0  0  0  1  0  0  0  0  0  0
  -32.4600  -19.2180   17.9520 C   0  0  0  0  0  1  0  0  0  0  0  0
  -29.7090  -16.8510   21.3440 N   0  0  0  0  0  0  0  0  0  0  0  0
  -28.8290  -16.8680   21.8510 H   0  0  0  0  0  0  0  0  0  0  0  0
  -30.8450  -16.4370   22.1700 C   0  0  0  0  0  2  0  0  0  0  0  0
  -31.6550  -15.2470   21.6120 C   0  0  0  0  0  2  0  0  0  0  0  0
  -30.9000  -13.6870   19.7800 C   0  0  0  0  0  0  0  0  0  0  0  0
  -30.3150  -11.6000   18.5960 C   0  0  0  0  0  2  0  0  0  0  0  0
  -29.2530  -11.7630   17.4970 C   0  0  0  0  0  2  0  0  0  0  0  0
  -27.8350  -11.6770   18.0920 C   0  0  0  0  0  2  0  0  0  0  0  0
  -27.6540  -12.6180   19.3110 C   0  0  0  0  0  3  0  0  0  0  0  0
  -28.7970  -12.4210   20.3260 C   0  0  0  0  0  2  0  0  0  0  0  0
  -30.0850  -12.6160   19.6310 N   0  0  0  0  0  0  0  0  0  0  0  0
  -31.7810  -13.9970   18.9710 O   0  0  0  0  0  0  0  0  0  0  0  0
  -30.7850  -14.2560   20.9840 N   0  0  0  0  0  0  0  0  0  0  0  0
  -30.0150  -13.9360   21.5480 H   0  0  0  0  0  0  0  0  0  0  0  0
  -25.4030  -13.3820   20.3010 C   0  0  0  0  0  0  0  0  0  0  0  0
  -24.3300  -12.6780   20.7810 C   0  0  0  0  0  0  0  0  0  0  0  0
  -24.6840  -11.2990   20.6770 C   0  0  0  0  0  0  0  0  0  0  0  0
  -26.3460  -12.4340   19.9360 N   0  0  0  0  0  0  0  0  0  0  0  0
  -25.9230  -11.1760   20.2170 N   0  0  0  0  0  0  0  0  0  0  0  0
  -23.8960  -10.0880   20.9340 C   0  0  0  0  0  0  0  0  0  0  0  0
  -24.3370   -9.0980   21.8400 C   0  0  0  0  0  3  0  0  0  0  0  0
  -23.5540   -7.9490   22.0820 C   0  0  0  0  0  3  0  0  0  0  0  0
  -22.3150   -7.7830   21.4190 C   0  0  0  0  0  0  0  0  0  0  0  0
  -21.8920   -8.7600   20.5000 C   0  0  0  0  0  3  0  0  0  0  0  0
  -22.6750   -9.9000   20.2570 C   0  0  0  0  0  3  0  0  0  0  0  0
  -21.4990   -6.6880   21.5700 O   0  0  0  0  0  0  0  0  0  0  0  0
  -21.4840   -5.9570   22.7300 C   0  0  0  0  0  0  0  0  0  0  0  0
  -21.1470   -6.5360   23.9720 C   0  0  0  0  0  3  0  0  0  0  0  0
  -21.0760   -5.7350   25.1290 C   0  0  0  0  0  3  0  0  0  0  0  0
  -21.3330   -4.3540   25.0440 C   0  0  0  0  0  0  0  0  0  0  0  0
  -21.6630   -3.7730   23.8080 C   0  0  0  0  0  3  0  0  0  0  0  0
  -21.7350   -4.5710   22.6540 C   0  0  0  0  0  0  0  0  0  0  0  0
  -22.0340   -4.0040   21.4610 F   0  0  0  0  0  0  0  0  0  0  0  0
  -21.2580   -3.5820   26.1530 F   0  0  0  0  0  0  0  0  0  0  0  0
  -23.0140  -13.2480   21.2250 C   0  0  0  0  0  0  0  0  0  0  0  0
  -22.3520  -12.5940   22.1730 N   0  0  0  0  0  0  0  0  0  0  0  0
  -22.5860  -14.3070   20.7660 O   0  0  0  0  0  0  0  0  0  0  0  0
  -22.7140  -11.7370   22.5640 H   0  0  0  0  0  0  0  0  0  0  0  0
  -21.4720  -12.9560   22.5120 H   0  0  0  0  0  0  0  0  0  0  0  0
  -25.6450  -14.7410   20.1300 N   0  0  0  0  0  0  0  0  0  0  0  0
  -24.9520  -15.4480   20.3570 H   0  0  0  0  0  0  0  0  0  0  0  0
  -26.5050  -15.1310   19.7630 H   0  0  0  0  0  0  0  0  0  0  0  0
  -31.8280  -26.2020   20.5900 C   0  0  0  0  0  2  0  0  0  0  0  0
  -31.2170  -28.6310   20.9940 C   0  0  0  0  0  1  0  0  0  0  0  0
  -30.7280  -27.2840   20.4440 C   0  0  0  0  0  3  0  0  0  0  0  0
  -29.3940  -26.8640   21.1180 C   0  0  0  0  0  2  0  0  0  0  0  0
  -28.3650  -26.6920   20.1340 O   0  0  0  0  0  0  0  0  0  0  0  0
  -24.5060  -31.8860   23.1810 C   0  0  0  0  0  0  0  0  0  0  0  0
  -27.2220  -27.4630   20.1800 C   0  0  0  0  0  0  0  0  0  0  0  0
  -23.3180  -30.4690   21.5350 C   0  0  0  0  0  3  0  0  0  0  0  0
  -24.7990  -28.9230   20.1480 C   0  0  0  0  0  0  0  0  0  0  0  0
  -25.8380  -30.8460   21.3570 C   0  0  0  0  0  2  0  0  0  0  0  0
  -25.9400  -29.4700   20.7410 C   0  0  0  0  0  0  0  0  0  0  0  0
  -27.1520  -28.7520   20.7590 C   0  0  0  0  0  3  0  0  0  0  0  0
  -26.0640  -26.9260   19.5770 C   0  0  0  0  0  3  0  0  0  0  0  0
  -24.8530  -27.6480   19.5580 C   0  0  0  0  0  3  0  0  0  0  0  0
  -23.5480  -29.7730   20.1660 C   0  0  0  0  0  2  0  0  0  0  0  0
  -24.5710  -31.0810   22.0850 N   0  0  0  0  0  0  0  0  0  0  0  0
  -23.4190  -32.1640   23.7080 O   0  0  0  0  0  0  0  0  0  0  0  0
  -22.6560  -29.4570   22.4960 C   0  0  0  0  0  0  0  0  0  0  0  0
  -21.3290  -29.2960   22.3720 N   0  0  0  0  0  0  0  0  0  0  0  0
  -23.3330  -28.8220   23.3100 O   0  0  0  0  0  0  0  0  0  0  0  0
  -20.8520  -29.8540   21.6790 H   0  0  0  0  0  0  0  0  0  0  0  0
  -17.9320  -28.1880   22.9000 C   0  0  0  0  0  0  0  0  0  0  0  0
  -20.4970  -28.3710   23.1400 C   0  0  0  0  0  3  0  0  0  0  0  0
  -20.5530  -26.9470   22.5440 C   0  0  0  0  0  2  0  0  0  0  0  0
  -19.4290  -26.6680   21.5420 C   0  0  0  0  0  2  0  0  0  0  0  0
  -18.0620  -26.8430   22.2070 C   0  0  0  0  0  2  0  0  0  0  0  0
  -19.0760  -28.9130   23.3230 C   0  0  0  0  0  0  0  0  0  0  0  0
  -18.9000  -30.1760   23.9320 C   0  0  0  0  0  3  0  0  0  0  0  0
  -17.6110  -30.7080   24.1230 C   0  0  0  0  0  3  0  0  0  0  0  0
  -16.4800  -29.9800   23.7140 C   0  0  0  0  0  3  0  0  0  0  0  0
  -16.6420  -28.7210   23.1070 C   0  0  0  0  0  3  0  0  0  0  0  0
  -25.7880  -32.5160   23.8150 C   0  0  0  0  0  3  0  0  0  0  0  0
  -25.4730  -33.9110   24.1490 N   0  0  0  0  0  0  0  0  0  0  0  0
  -25.8160  -34.9660   23.3980 C   0  0  0  0  0  0  0  0  0  0  0  0
  -26.5080  -34.8660   22.3800 O   0  0  0  0  0  0  0  0  0  0  0  0
  -24.8480  -34.0580   24.9290 H   0  0  0  0  0  0  0  0  0  0  0  0
  -24.1040  -36.7670   23.0080 C   0  0  0  0  0  1  0  0  0  0  0  0
  -25.3200  -36.3520   23.8510 C   0  0  0  0  0  3  0  0  0  0  0  0
  -27.4360  -37.2200   24.7450 C   0  0  0  0  0  1  0  0  0  0  0  0
  -26.3550  -37.4050   23.7790 N   0  0  0  0  0  0  0  0  0  0  0  0
  -25.9450  -38.3210   23.9320 H   0  0  0  0  0  0  0  0  0  0  0  0
  -26.3030  -31.7350   25.0850 C   0  0  1  0  0  0  0  0  0  0  0  0
  -25.2050  -31.4750   26.1420 C   0  0  0  0  0  1  0  0  0  0  0  0
  -26.8990  -30.3650   24.6820 C   0  0  0  0  0  1  0  0  0  0  0  0
  -27.4460  -32.5310   25.7600 C   0  0  0  0  0  1  0  0  0  0  0  0
  2  5  1  0
  3  1  1  0
  4  6  1  0
  4  2  1  0
  5  1  1  0
  5 59  1  0
  6  3  1  0
  6  7  1  1
  8  6  1  0
  8 13  1  0
  9 14  1  0
 10 14  2  0
 11  9  2  0
 12 10  1  0
 13 12  2  0
 13 11  1  0
 14 17  1  0
 15 11  1  0
 16 12  1  0
 17 18  1  0
 17 19  1  0
 20 19  1  0
 21 29  1  0
 22 27  1  0
 23 24  1  0
 23 22  1  0
 25 24  1  0
 25 34  1  0
 25 26  1  0
 27 21  1  0
 27 26  1  0
 28 21  2  0
 29 30  1  0
 29 20  1  0
 31 32  2  0
 32 51  1  0
 33 32  1  0
 33 36  1  0
 34 35  1  0
 34 31  1  0
 35 33  2  0
 36 37  1  0
 37 38  2  0
 39 42  1  0
 39 38  1  0
 40 39  2  0
 41 40  1  0
 41 36  2  0
 42 43  1  0
 43 44  1  0
 44 45  2  0
 46 45  1  0
 46 50  1  0
 47 46  2  0
 48 43  2  0
 48 47  1  0
 49 48  1  0
 51 52  1  0
 52 55  1  0
 52 54  1  0
 53 51  2  0
 56 31  1  0
 56 57  1  0
 58 56  1  0
 61 59  1  0
 61 60  1  0
 61 62  1  0
 63 65  1  0
 63 62  1  0
 64 75  2  0
 65 70  1  0
 66 74  1  0
 66 76  1  0
 67 73  1  0
 67 69  1  0
 68 74  1  0
 69 70  2  0
 69 68  1  0
 71 65  2  0
 72 71  1  0
 72 67  2  0
 73 66  1  0
 74 64  1  0
 76 78  2  0
 77 76  1  0
 79 77  1  0
 80 89  2  0
 80 85  1  0
 81 77  1  0
 81 85  1  0
 82 81  1  0
 83 84  1  0
 83 82  1  0
 84 80  1  0
 85 86  2  0
 86 87  1  0
 88 87  2  0
 89 88  1  0
 90 64  1  0
 90 91  1  0
 90100  1  0
 91 94  1  0
 92 96  1  0
 92 91  1  0
 93 92  2  0
 96 95  1  0
 98 96  1  0
 98 99  1  0
 98 97  1  0
100103  1  1
100101  1  0
102100  1  0
M  ISO  4  21 100  29 100  62 101  63 101
M  END
>  <TORSDO>  (76) 
F 24

>  <SCORE>  (76) 
-11.796

>  <name>  (76) 
76

>  <ligand_id>  (76) 
76

>  <original_smiles>  (76) 
[H]c1c([H])c([H])c2c(c1[H])C([H])([H])C([H])([H])C([H])([H])C2([H])N([H])C(=O)C1([H])N(C(=O)C([H])(N([H])C(=O)C([H])(N([H])C([H])([H])[H])C([H])([H])[H])C(C([H])([H])[H])(C([H])([H])[H])C([H])([H])[H])C([H])([H])c2c([H])c(OC([H])([H])C([H])(C([H])([H])[H])C([H])([H])N3C([H])([H])C([H])([H])[N+]([H])(C([H])([H])c4c(C([H])([H])[H])c([H])c(N([H])C([H])([H])C([H])([H])N([H])C(=O)N5C([H])([H])C([H])([H])C([H])([H])C([H])(n6nc(-c7c([H])c([H])c(Oc8c([H])c([H])c(F)c([H])c8F)c([H])c7[H])c(C(=O)N([H])[H])c6N([H])[H])C5([H])[H])c([H])c4C([H])([H])[H])C([H])([H])C3([H])[H])c([H])c([H])c2C1([H])[H]

>  <smiles>  (76) 
[H]c1c([H])c([H])c2c(c1[H])C([H])([H])C([H])([H])C([H])([H])C2([H])N([H])C(=O)C1([H])N(C(=O)C([H])(N([H])C(=O)C([H])(N([H])C([H])([H])[H])C([H])([H])[H])C(C([H])([H])[H])(C([H])([H])[H])C([H])([H])[H])C([H])([H])c2c([H])c(OC([H])([H])C([H])(C([H])([H])[H])C([H])([H])N3C([H])([H])C([H])([H])[N+]([H])(C([H])([H])c4c(C([H])([H])[H])c([H])c(N([H])C([H])([H])C([H])([H])N([H])C(=O)N5C([H])([H])C([H])([H])C([H])([H])C([H])(n6nc(-c7c([H])c([H])c(Oc8c([H])c([H])c(F)c([H])c8F)c([H])c7[H])c(C(=O)N([H])[H])c6N([H])[H])C5([H])[H])c([H])c4C([H])([H])[H])C([H])([H])C3([H])[H])c([H])c([H])c2C1([H])[H]

$$$$
77:0:0
     RDKit          3D

102109  0  0  1  0  0  0  0  0999 V2000
  -29.3150  -21.5200   20.1810 C   0  0  0  0  0  3  0  0  0  0  0  0
  -26.9880  -22.3930   20.8080 C   0  0  0  0  0  1  0  0  0  0  0  0
  -27.8000  -21.1800   20.3130 C   0  0  0  0  0  3  0  0  0  0  0  0
  -27.2410  -20.6570   19.0490 N   0  0  0  0  0  4  0  0  0  0  0  0
  -27.5170  -21.2500   18.2840 H   0  0  0  0  0  0  0  0  0  0  0  0
  -26.2380  -20.6320   19.0930 H   0  0  0  0  0  0  0  0  0  0  0  0
  -27.5580  -19.7270   18.8470 H   0  0  0  0  0  0  0  0  0  0  0  0
  -29.4120  -22.6630   19.2580 N   0  0  0  0  0  0  0  0  0  0  0  0
  -28.6260  -23.2700   19.4690 H   0  0  0  0  0  0  0  0  0  0  0  0
  -30.5990  -23.5190   19.4160 C   0  0  0  0  0  3  0  0  0  0  0  0
  -31.2590  -23.7970   18.0380 C   0  0  0  0  0  3  0  0  0  0  0  0
  -32.1690  -24.7650   18.1720 F   0  0  0  0  0  0  0  0  0  0  0  0
  -31.9910  -22.5930   17.4260 C   0  0  0  0  0  3  0  0  0  0  0  0
  -32.5070  -22.9050   16.2360 F   0  0  0  0  0  0  0  0  0  0  0  0
  -32.9640  -22.1560   18.2280 F   0  0  0  0  0  0  0  0  0  0  0  0
  -30.1940  -24.8310   20.1450 C   0  0  0  0  0  2  0  0  0  0  0  0
  -28.9690  -25.5790   19.5800 C   0  0  0  0  0  2  0  0  0  0  0  0
  -28.8370  -26.8600   20.2050 O   0  0  0  0  0  0  0  0  0  0  0  0
  -24.6810  -31.7510   23.2720 C   0  0  0  0  0  0  0  0  0  0  0  0
  -27.6150  -27.5020   20.1620 C   0  0  0  0  0  0  0  0  0  0  0  0
  -23.5870  -30.3380   21.5620 C   0  0  0  0  0  3  0  0  0  0  0  0
  -25.1480  -28.8970   20.1490 C   0  0  0  0  0  0  0  0  0  0  0  0
  -26.1000  -30.8030   21.4530 C   0  0  0  0  0  2  0  0  0  0  0  0
  -26.2620  -29.4520   20.7880 C   0  0  0  0  0  0  0  0  0  0  0  0
  -27.4940  -28.7610   20.7960 C   0  0  0  0  0  3  0  0  0  0  0  0
  -26.4760  -26.9640   19.5140 C   0  0  0  0  0  3  0  0  0  0  0  0
  -25.2490  -27.6520   19.5080 C   0  0  0  0  0  3  0  0  0  0  0  0
  -23.8680  -29.7000   20.1760 C   0  0  0  0  0  2  0  0  0  0  0  0
  -24.8040  -30.9760   22.1560 N   0  0  0  0  0  0  0  0  0  0  0  0
  -23.5730  -31.9690   23.7810 O   0  0  0  0  0  0  0  0  0  0  0  0
  -22.9460  -29.2700   22.4770 C   0  0  0  0  0  0  0  0  0  0  0  0
  -21.6360  -29.0350   22.2980 N   0  0  0  0  0  0  0  0  0  0  0  0
  -23.6270  -28.6580   23.3030 O   0  0  0  0  0  0  0  0  0  0  0  0
  -21.1480  -29.5850   21.6030 H   0  0  0  0  0  0  0  0  0  0  0  0
  -18.2940  -27.7060   22.6650 C   0  0  0  0  0  0  0  0  0  0  0  0
  -20.8320  -28.0480   23.0200 C   0  0  0  0  0  3  0  0  0  0  0  0
  -21.0040  -26.6390   22.4090 C   0  0  0  0  0  2  0  0  0  0  0  0
  -19.9450  -26.3050   21.3520 C   0  0  0  0  0  2  0  0  0  0  0  0
  -18.5400  -26.3820   21.9600 C   0  0  0  0  0  2  0  0  0  0  0  0
  -19.3710  -28.4950   23.1470 C   0  0  0  0  0  0  0  0  0  0  0  0
  -19.0910  -29.7340   23.7650 C   0  0  0  0  0  3  0  0  0  0  0  0
  -17.7660  -30.1870   23.9020 C   0  0  0  0  0  3  0  0  0  0  0  0
  -16.7010  -29.3950   23.4380 C   0  0  0  0  0  3  0  0  0  0  0  0
  -16.9660  -28.1560   22.8280 C   0  0  0  0  0  3  0  0  0  0  0  0
  -25.9200  -32.4170   23.9460 C   0  0  0  0  0  3  0  0  0  0  0  0
  -25.5700  -33.8150   24.2330 N   0  0  0  0  0  0  0  0  0  0  0  0
  -25.9140  -34.8570   23.4640 C   0  0  0  0  0  0  0  0  0  0  0  0
  -26.6310  -34.7450   22.4650 O   0  0  0  0  0  0  0  0  0  0  0  0
  -24.9340  -33.9720   25.0010 H   0  0  0  0  0  0  0  0  0  0  0  0
  -24.1620  -36.5980   22.9940 C   0  0  0  0  0  1  0  0  0  0  0  0
  -25.3780  -36.2430   23.8650 C   0  0  0  0  0  3  0  0  0  0  0  0
  -27.4550  -37.1950   24.7650 C   0  0  0  0  0  1  0  0  0  0  0  0
  -26.3900  -37.3180   23.7720 N   0  0  0  0  0  0  0  0  0  0  0  0
  -25.9580  -38.2310   23.8860 H   0  0  0  0  0  0  0  0  0  0  0  0
  -26.3890  -31.6760   25.2580 C   0  0  1  0  0  0  0  0  0  0  0  0
  -25.2500  -31.4270   26.2740 C   0  0  0  0  0  1  0  0  0  0  0  0
  -27.0180  -30.3050   24.9150 C   0  0  0  0  0  1  0  0  0  0  0  0
  -27.4960  -32.4990   25.9580 C   0  0  0  0  0  1  0  0  0  0  0  0
  -30.2270  -20.3350   19.7340 C   0  0  0  0  0  2  0  0  0  0  0  0
  -30.5320  -19.3360   20.7840 N   0  0  0  0  0  4  0  0  0  0  0  0
  -31.5330  -19.2160   20.7630 H   0  0  0  0  0  0  0  0  0  0  0  0
  -30.3060  -19.6970   21.6970 H   0  0  0  0  0  0  0  0  0  0  0  0
  -29.9480  -17.9870   20.5810 C   0  0  0  0  0  2  0  0  0  0  0  0
  -30.6120  -16.9320   21.4930 C   0  0  0  0  0  2  0  0  0  0  0  0
  -30.7230  -14.6420   20.5030 C   0  0  0  0  0  0  0  0  0  0  0  0
  -30.3820  -12.5720   19.2120 C   0  0  0  0  0  2  0  0  0  0  0  0
  -29.4230  -12.8530   18.0390 C   0  0  0  0  0  2  0  0  0  0  0  0
  -27.9560  -12.6850   18.4810 C   0  0  0  0  0  2  0  0  0  0  0  0
  -27.6380  -13.4370   19.8010 C   0  0  0  0  0  3  0  0  0  0  0  0
  -28.7140  -13.1550   20.8750 C   0  0  0  0  0  2  0  0  0  0  0  0
  -30.0320  -13.4890   20.3050 N   0  0  0  0  0  0  0  0  0  0  0  0
  -31.8050  -14.8780   19.9610 O   0  0  0  0  0  0  0  0  0  0  0  0
  -30.1070  -15.5750   21.2440 N   0  0  0  0  0  0  0  0  0  0  0  0
  -29.2100  -15.3260   21.6350 H   0  0  0  0  0  0  0  0  0  0  0  0
  -25.2260  -13.9740   20.5240 C   0  0  0  0  0  0  0  0  0  0  0  0
  -24.1800  -13.1680   20.8920 C   0  0  0  0  0  0  0  0  0  0  0  0
  -24.6780  -11.8300   20.8430 C   0  0  0  0  0  0  0  0  0  0  0  0
  -26.2930  -13.1230   20.2820 N   0  0  0  0  0  0  0  0  0  0  0  0
  -25.9660  -11.8290   20.5290 N   0  0  0  0  0  0  0  0  0  0  0  0
  -23.9850  -10.5470   21.0240 C   0  0  0  0  0  0  0  0  0  0  0  0
  -24.4230   -9.6010   21.9760 C   0  0  0  0  0  3  0  0  0  0  0  0
  -23.7310   -8.3810   22.1440 C   0  0  0  0  0  3  0  0  0  0  0  0
  -22.5870   -8.1010   21.3600 C   0  0  0  0  0  0  0  0  0  0  0  0
  -22.1700   -9.0370   20.3960 C   0  0  0  0  0  3  0  0  0  0  0  0
  -22.8630  -10.2470   20.2280 C   0  0  0  0  0  3  0  0  0  0  0  0
  -21.8670   -6.9320   21.4350 O   0  0  0  0  0  0  0  0  0  0  0  0
  -21.7900   -6.2090   22.5990 C   0  0  0  0  0  0  0  0  0  0  0  0
  -21.2520   -6.7580   23.7830 C   0  0  0  0  0  3  0  0  0  0  0  0
  -21.1270   -5.9580   24.9370 C   0  0  0  0  0  3  0  0  0  0  0  0
  -21.5290   -4.6090   24.9060 C   0  0  0  0  0  0  0  0  0  0  0  0
  -22.0610   -4.0600   23.7260 C   0  0  0  0  0  3  0  0  0  0  0  0
  -22.1880   -4.8570   22.5750 C   0  0  0  0  0  0  0  0  0  0  0  0
  -22.6810   -4.3180   21.4330 F   0  0  0  0  0  0  0  0  0  0  0  0
  -21.4030   -3.8380   26.0110 F   0  0  0  0  0  0  0  0  0  0  0  0
  -22.7730  -13.6040   21.1780 C   0  0  0  0  0  0  0  0  0  0  0  0
  -22.0690  -12.8790   22.0410 N   0  0  0  0  0  0  0  0  0  0  0  0
  -22.3070  -14.6240   20.6720 O   0  0  0  0  0  0  0  0  0  0  0  0
  -22.4600  -12.0540   22.4690 H   0  0  0  0  0  0  0  0  0  0  0  0
  -21.1250  -13.1520   22.2730 H   0  0  0  0  0  0  0  0  0  0  0  0
  -25.3520  -15.3480   20.3540 N   0  0  0  0  0  0  0  0  0  0  0  0
  -24.5560  -15.9730   20.4360 H   0  0  0  0  0  0  0  0  0  0  0  0
  -26.1820  -15.8060   20.0010 H   0  0  0  0  0  0  0  0  0  0  0  0
  1 59  1  0
  1  3  1  0
  3  2  1  0
  4  6  1  0
  4  3  1  0
  5  4  1  0
  7  4  1  0
  8 10  1  0
  8  9  1  0
  8  1  1  0
 10 16  1  0
 11 12  1  0
 11 10  1  0
 13 11  1  0
 13 15  1  0
 14 13  1  0
 17 16  1  0
 17 18  1  0
 19 30  2  0
 20 18  1  0
 20 25  1  0
 21 29  1  0
 21 31  1  0
 22 28  1  0
 22 24  1  0
 23 29  1  0
 24 25  2  0
 24 23  1  0
 26 20  2  0
 27 26  1  0
 27 22  2  0
 28 21  1  0
 29 19  1  0
 31 33  2  0
 32 31  1  0
 34 32  1  0
 35 44  2  0
 35 40  1  0
 36 32  1  0
 36 40  1  0
 37 36  1  0
 38 39  1  0
 38 37  1  0
 39 35  1  0
 40 41  2  0
 41 42  1  0
 43 42  2  0
 44 43  1  0
 45 19  1  0
 45 46  1  0
 45 55  1  0
 46 49  1  0
 47 51  1  0
 47 46  1  0
 48 47  2  0
 51 50  1  0
 53 51  1  0
 53 54  1  0
 53 52  1  0
 55 58  1  1
 55 56  1  0
 57 55  1  0
 59 60  1  0
 60 62  1  0
 61 60  1  0
 63 60  1  0
 63 64  1  0
 65 73  1  0
 66 71  1  0
 67 68  1  0
 67 66  1  0
 69 68  1  0
 69 78  1  0
 69 70  1  0
 71 65  1  0
 71 70  1  0
 72 65  2  0
 73 64  1  0
 73 74  1  0
 75 76  2  0
 76 95  1  0
 77 76  1  0
 77 80  1  0
 78 75  1  0
 78 79  1  0
 79 77  2  0
 80 81  1  0
 81 82  2  0
 83 86  1  0
 83 82  1  0
 84 83  2  0
 85 84  1  0
 85 80  2  0
 86 87  1  0
 87 88  1  0
 88 89  2  0
 90 89  1  0
 90 94  1  0
 91 90  2  0
 92 87  2  0
 92 91  1  0
 93 92  1  0
 95 96  1  0
 96 99  1  0
 96 98  1  0
 97 95  2  0
100101  1  0
100 75  1  0
102100  1  0
M  ISO  4  17 101  18 101  65 100  73 100
M  END
>  <TORSDO>  (77) 
F 28

>  <SCORE>  (77) 
-11.390

>  <name>  (77) 
77

>  <ligand_id>  (77) 
77

>  <original_smiles>  (77) 
[H]c1c([H])c([H])c2c(c1[H])C([H])([H])C([H])([H])C([H])([H])C2([H])N([H])C(=O)C1([H])N(C(=O)C([H])(N([H])C(=O)C([H])(N([H])C([H])([H])[H])C([H])([H])[H])C(C([H])([H])[H])(C([H])([H])[H])C([H])([H])[H])C([H])([H])c2c([H])c(OC([H])([H])C([H])([H])C([H])(N([H])C([H])(C([H])(C([H])([H])[H])[N+]([H])([H])[H])C([H])([H])[N+]([H])([H])C([H])([H])C([H])([H])N([H])C(=O)N3C([H])([H])C([H])([H])C([H])([H])C([H])(n4nc(-c5c([H])c([H])c(Oc6c([H])c([H])c(F)c([H])c6F)c([H])c5[H])c(C(=O)N([H])[H])c4N([H])[H])C3([H])[H])C([H])(F)C([H])(F)F)c([H])c([H])c2C1([H])[H]

>  <smiles>  (77) 
[H]c1c([H])c([H])c2c(c1[H])C([H])([H])C([H])([H])C([H])([H])C2([H])N([H])C(=O)C1([H])N(C(=O)C([H])(N([H])C(=O)C([H])(N([H])C([H])([H])[H])C([H])([H])[H])C(C([H])([H])[H])(C([H])([H])[H])C([H])([H])[H])C([H])([H])c2c([H])c(OC([H])([H])C([H])([H])C([H])(N([H])C([H])(C([H])(C([H])([H])[H])[N+]([H])([H])[H])C([H])([H])[N+]([H])([H])C([H])([H])C([H])([H])N([H])C(=O)N3C([H])([H])C([H])([H])C([H])([H])C([H])(n4nc(-c5c([H])c([H])c(Oc6c([H])c([H])c(F)c([H])c6F)c([H])c5[H])c(C(=O)N([H])[H])c4N([H])[H])C3([H])[H])C([H])(F)C([H])(F)F)c([H])c([H])c2C1([H])[H]

$$$$
78:0:0
     RDKit          3D

 96104  0  0  1  0  0  0  0  0999 V2000
  -29.0140  -23.3910   18.9490 C   0  0  0  0  0  3  0  0  0  0  0  0
  -31.3230  -21.9000   18.8650 C   0  0  0  0  0  2  0  0  0  0  0  0
  -30.1840  -21.1450   19.3040 C   0  0  0  0  0  0  0  0  0  0  0  0
  -29.0170  -22.0010   19.3590 C   0  0  0  0  0  0  0  0  0  0  0  0
  -30.1810  -24.0970   18.5420 C   0  0  0  0  0  0  0  0  0  0  0  0
  -31.2790  -23.2550   18.5180 N   0  0  0  0  0  0  0  0  0  0  0  0
  -32.1560  -23.6610   18.1810 H   0  0  0  0  0  0  0  0  0  0  0  0
  -29.9030  -25.4740   16.3280 C   0  0  0  0  0  1  0  0  0  0  0  0
  -30.1980  -25.5800   17.8310 C   0  0  0  0  0  3  0  0  0  0  0  0
  -29.8540  -26.9630   18.4240 O   0  0  0  0  0  0  0  0  0  0  0  0
  -25.5020  -30.2630   23.2820 C   0  0  0  0  0  0  0  0  0  0  0  0
  -28.5790  -27.5770   18.6760 C   0  0  0  0  0  0  0  0  0  0  0  0
  -24.4050  -29.2410   21.3220 C   0  0  0  0  0  3  0  0  0  0  0  0
  -25.9460  -28.5980   19.3670 C   0  0  0  0  0  0  0  0  0  0  0  0
  -26.8040  -30.1410   21.1280 C   0  0  0  0  0  2  0  0  0  0  0  0
  -27.0720  -29.0960   20.0340 C   0  0  0  0  0  0  0  0  0  0  0  0
  -28.3770  -28.5990   19.6830 C   0  0  0  0  0  3  0  0  0  0  0  0
  -27.4030  -27.1440   18.0290 C   0  0  0  0  0  3  0  0  0  0  0  0
  -26.1170  -27.6330   18.3610 C   0  0  0  0  0  3  0  0  0  0  0  0
  -24.5800  -29.1170   19.7830 C   0  0  0  0  0  2  0  0  0  0  0  0
  -25.5930  -29.8870   21.9690 N   0  0  0  0  0  0  0  0  0  0  0  0
  -24.4590  -30.0980   23.9330 O   0  0  0  0  0  0  0  0  0  0  0  0
  -24.0700  -27.8480   21.9110 C   0  0  0  0  0  0  0  0  0  0  0  0
  -22.9050  -27.2890   21.5400 N   0  0  0  0  0  0  0  0  0  0  0  0
  -24.8660  -27.2810   22.6650 O   0  0  0  0  0  0  0  0  0  0  0  0
  -22.2990  -27.8160   20.9280 H   0  0  0  0  0  0  0  0  0  0  0  0
  -20.3690  -24.7850   20.8980 C   0  0  0  0  0  0  0  0  0  0  0  0
  -22.4230  -25.9630   21.9370 C   0  0  0  0  0  3  0  0  0  0  0  0
  -23.2670  -24.8460   21.2830 C   0  0  0  0  0  2  0  0  0  0  0  0
  -22.6790  -24.3410   19.9620 C   0  0  0  0  0  2  0  0  0  0  0  0
  -21.2660  -23.7930   20.1760 C   0  0  0  0  0  2  0  0  0  0  0  0
  -20.9140  -25.8140   21.7120 C   0  0  0  0  0  0  0  0  0  0  0  0
  -20.0390  -26.7300   22.3350 C   0  0  0  0  0  3  0  0  0  0  0  0
  -18.6470  -26.6290   22.1600 C   0  0  0  0  0  3  0  0  0  0  0  0
  -18.1100  -25.6020   21.3630 C   0  0  0  0  0  3  0  0  0  0  0  0
  -18.9720  -24.6820   20.7380 C   0  0  0  0  0  3  0  0  0  0  0  0
  -26.6970  -30.9380   24.0220 C   0  0  0  0  0  3  0  0  0  0  0  0
  -26.3090  -32.3210   24.3340 N   0  0  0  0  0  0  0  0  0  0  0  0
  -26.8740  -33.4140   23.8020 C   0  0  0  0  0  0  0  0  0  0  0  0
  -27.8380  -33.3590   23.0330 O   0  0  0  0  0  0  0  0  0  0  0  0
  -25.4940  -32.4410   24.9180 H   0  0  0  0  0  0  0  0  0  0  0  0
  -25.4120  -35.3070   23.0300 C   0  0  0  0  0  1  0  0  0  0  0  0
  -26.2790  -34.7820   24.1850 C   0  0  0  0  0  3  0  0  0  0  0  0
  -28.0130  -35.4840   25.7730 C   0  0  0  0  0  1  0  0  0  0  0  0
  -27.3000  -35.7920   24.5370 N   0  0  0  0  0  0  0  0  0  0  0  0
  -26.8790  -36.7110   24.6390 H   0  0  0  0  0  0  0  0  0  0  0  0
  -27.1160  -30.1770   25.3390 C   0  0  1  0  0  0  0  0  0  0  0  0
  -25.9420  -29.9200   26.3130 C   0  0  0  0  0  1  0  0  0  0  0  0
  -27.7610  -28.8120   25.0040 C   0  0  0  0  0  1  0  0  0  0  0  0
  -28.1910  -30.9920   26.0960 C   0  0  0  0  0  1  0  0  0  0  0  0
  -27.8210  -21.4720   19.8630 N   0  0  0  0  0  0  0  0  0  0  0  0
  -27.3830  -20.8480   19.1920 H   0  0  0  0  0  0  0  0  0  0  0  0
  -26.3110  -21.6580   21.7450 C   0  0  0  0  0  1  0  0  0  0  0  0
  -27.4800  -23.7170   20.9480 C   0  0  0  0  0  1  0  0  0  0  0  0
  -25.6730  -22.6700   19.5560 C   0  0  0  0  0  1  0  0  0  0  0  0
  -26.8540  -22.3750   20.5000 C   0  0  1  0  0  0  0  0  0  0  0  0
  -30.1560  -19.5790   19.8410 C   0  0  0  0  0  3  0  0  0  0  0  0
  -30.8550  -18.1980   19.2230 C   0  0  0  0  0  3  0  0  0  0  0  0
  -31.5290  -15.6810   20.0760 C   0  0  0  0  0  0  0  0  0  0  0  0
  -31.6540  -13.1770   19.7560 C   0  0  0  0  0  2  0  0  0  0  0  0
  -30.8710  -12.7670   18.4880 C   0  0  0  0  0  2  0  0  0  0  0  0
  -29.3810  -12.5510   18.8120 C   0  0  0  0  0  2  0  0  0  0  0  0
  -28.7910  -13.6930   19.6810 C   0  0  0  0  0  3  0  0  0  0  0  0
  -29.7080  -14.0590   20.8690 C   0  0  0  0  0  2  0  0  0  0  0  0
  -31.0210  -14.4060   20.3090 N   0  0  0  0  0  0  0  0  0  0  0  0
  -32.7390  -15.7870   19.8500 O   0  0  0  0  0  0  0  0  0  0  0  0
  -30.6620  -16.7840   19.8900 N   0  0  0  0  0  0  0  0  0  0  0  0
  -29.7030  -16.5700   20.1190 H   0  0  0  0  0  0  0  0  0  0  0  0
  -26.3580  -14.2830   20.2160 C   0  0  0  0  0  0  0  0  0  0  0  0
  -25.2790  -13.5150   20.5600 C   0  0  0  0  0  0  0  0  0  0  0  0
  -25.7600  -12.1720   20.6470 C   0  0  0  0  0  0  0  0  0  0  0  0
  -27.4240  -13.4080   20.1050 N   0  0  0  0  0  0  0  0  0  0  0  0
  -27.0690  -12.1370   20.4280 N   0  0  0  0  0  0  0  0  0  0  0  0
  -25.0370  -10.9120   20.8650 C   0  0  0  0  0  0  0  0  0  0  0  0
  -25.3520  -10.0550   21.9420 C   0  0  0  0  0  3  0  0  0  0  0  0
  -24.6270   -8.8600   22.1420 C   0  0  0  0  0  3  0  0  0  0  0  0
  -23.5720   -8.5150   21.2640 C   0  0  0  0  0  0  0  0  0  0  0  0
  -23.2780   -9.3610   20.1800 C   0  0  0  0  0  3  0  0  0  0  0  0
  -24.0040  -10.5460   19.9800 C   0  0  0  0  0  3  0  0  0  0  0  0
  -22.8300   -7.3630   21.3670 O   0  0  0  0  0  0  0  0  0  0  0  0
  -22.2470   -6.9850   22.5490 C   0  0  0  0  0  0  0  0  0  0  0  0
  -21.3570   -7.8310   23.2440 C   0  0  0  0  0  3  0  0  0  0  0  0
  -20.7260   -7.3780   24.4190 C   0  0  0  0  0  3  0  0  0  0  0  0
  -20.9750   -6.0750   24.8940 C   0  0  0  0  0  0  0  0  0  0  0  0
  -21.8560   -5.2290   24.1990 C   0  0  0  0  0  3  0  0  0  0  0  0
  -22.4870   -5.6820   23.0280 C   0  0  0  0  0  0  0  0  0  0  0  0
  -23.3190   -4.8540   22.3500 F   0  0  0  0  0  0  0  0  0  0  0  0
  -20.3620   -5.6350   26.0180 F   0  0  0  0  0  0  0  0  0  0  0  0
  -23.8620  -13.9860   20.7050 C   0  0  0  0  0  0  0  0  0  0  0  0
  -23.1290  -13.4330   21.6630 N   0  0  0  0  0  0  0  0  0  0  0  0
  -23.4140  -14.8880   19.9980 O   0  0  0  0  0  0  0  0  0  0  0  0
  -23.5040  -12.7050   22.2530 H   0  0  0  0  0  0  0  0  0  0  0  0
  -22.1780  -13.7430   21.8050 H   0  0  0  0  0  0  0  0  0  0  0  0
  -26.5180  -15.6420   19.9610 N   0  0  0  0  0  0  0  0  0  0  0  0
  -25.7370  -16.2880   19.9730 H   0  0  0  0  0  0  0  0  0  0  0  0
  -27.3770  -16.0710   19.6410 H   0  0  0  0  0  0  0  0  0  0  0  0
  1  4  1  0
  2  3  1  0
  3  4  2  0
  3 57  1  0
  4 51  1  0
  5  1  2  0
  6  5  1  0
  6  2  1  0
  7  6  1  0
  9  8  1  0
  9 10  1  0
  9  5  1  0
 10 12  1  0
 11 22  2  0
 12 17  1  0
 13 23  1  0
 13 21  1  0
 14 20  1  0
 14 16  1  0
 15 21  1  0
 16 15  1  0
 17 16  2  0
 18 19  1  0
 18 12  2  0
 19 14  2  0
 20 13  1  0
 21 11  1  0
 23 25  2  0
 24 23  1  0
 26 24  1  0
 27 32  1  0
 28 24  1  0
 29 28  1  0
 30 31  1  0
 30 29  1  0
 31 27  1  0
 32 28  1  0
 32 33  2  0
 34 33  1  0
 35 34  2  0
 36 27  2  0
 36 35  1  0
 37 11  1  0
 37 38  1  0
 37 47  1  0
 38 41  1  0
 39 43  1  0
 39 38  1  0
 40 39  2  0
 43 42  1  0
 43 45  1  0
 45 46  1  0
 45 44  1  0
 47 50  1  1
 47 48  1  0
 49 47  1  0
 51 56  1  0
 52 51  1  0
 56 55  1  6
 56 54  1  0
 56 53  1  0
 58 57  2  0
 58 67  1  0
 59 65  1  0
 60 65  1  0
 61 62  1  0
 61 60  1  0
 63 62  1  0
 63 72  1  0
 63 64  1  0
 65 64  1  0
 66 59  2  0
 67 59  1  0
 67 68  1  0
 69 70  2  0
 70 71  1  0
 70 89  1  0
 71 74  1  0
 72 69  1  0
 72 73  1  0
 73 71  2  0
 74 75  1  0
 75 76  2  0
 77 80  1  0
 77 76  1  0
 78 77  2  0
 79 78  1  0
 79 74  2  0
 80 81  1  0
 81 86  2  0
 81 82  1  0
 82 83  2  0
 83 84  1  0
 84 88  1  0
 85 84  2  0
 86 85  1  0
 87 86  1  0
 89 90  1  0
 90 93  1  0
 90 92  1  0
 91 89  2  0
 94 95  1  0
 94 69  1  0
 96 94  1  0
M  ISO  4   9 101  10 101  59 100  67 100
M  END
>  <TORSDO>  (78) 
F 21

>  <SCORE>  (78) 
-4.894

>  <name>  (78) 
78

>  <ligand_id>  (78) 
78

>  <original_smiles>  (78) 
[H]c1c([H])c([H])c2c(c1[H])C([H])([H])C([H])([H])C([H])([H])C2([H])N([H])C(=O)C1([H])N(C(=O)C([H])(N([H])C(=O)C([H])(N([H])C([H])([H])[H])C([H])([H])[H])C(C([H])([H])[H])(C([H])([H])[H])C([H])([H])[H])C([H])([H])c2c([H])c(OC([H])(c3c([H])c(N([H])C(C([H])([H])[H])(C([H])([H])[H])C([H])([H])[H])c(C([H])([H])C([H])([H])N([H])C(=O)N4C([H])([H])C([H])([H])C([H])([H])C([H])(n5nc(-c6c([H])c([H])c(Oc7c([H])c([H])c(F)c([H])c7F)c([H])c6[H])c(C(=O)N([H])[H])c5N([H])[H])C4([H])[H])c([H])[n+]3[H])C([H])([H])[H])c([H])c([H])c2C1([H])[H]

>  <smiles>  (78) 
[H]c1c([H])c([H])c2c(c1[H])C([H])([H])C([H])([H])C([H])([H])C2([H])N([H])C(=O)C1([H])N(C(=O)C([H])(N([H])C(=O)C([H])(N([H])C([H])([H])[H])C([H])([H])[H])C(C([H])([H])[H])(C([H])([H])[H])C([H])([H])[H])C([H])([H])c2c([H])c(OC([H])(c3c([H])c(N([H])C(C([H])([H])[H])(C([H])([H])[H])C([H])([H])[H])c(C([H])([H])C([H])([H])N([H])C(=O)N4C([H])([H])C([H])([H])C([H])([H])C([H])(n5nc(-c6c([H])c([H])c(Oc7c([H])c([H])c(F)c([H])c7F)c([H])c6[H])c(C(=O)N([H])[H])c5N([H])[H])C4([H])[H])c([H])[n+]3[H])C([H])([H])[H])c([H])c([H])c2C1([H])[H]

$$$$
79:0:0
     RDKit          3D

 94102  0  0  1  0  0  0  0  0999 V2000
  -29.3040  -22.7760   21.6620 C   0  0  0  0  0  3  0  0  0  0  0  0
  -29.5920  -20.3810   21.4270 C   0  0  0  0  0  3  0  0  0  0  0  0
  -29.8700  -21.5730   22.1250 C   0  0  0  0  0  0  0  0  0  0  0  0
  -28.4740  -22.7590   20.5290 C   0  0  0  0  0  0  0  0  0  0  0  0
  -28.7600  -20.4180   20.2950 C   0  0  0  0  0  0  0  0  0  0  0  0
  -28.2210  -21.5910   19.8520 N   0  0  0  0  0  0  0  0  0  0  0  0
  -30.0940  -22.2580   24.5500 C   0  0  0  0  0  1  0  0  0  0  0  0
  -32.1400  -22.1550   23.0430 C   0  0  0  0  0  1  0  0  0  0  0  0
  -30.7620  -21.5560   23.3570 C   0  0  0  0  0  3  0  0  0  0  0  0
  -28.4710  -19.2470   19.5580 N   0  0  0  0  0  0  0  0  0  0  0  0
  -27.8010  -19.3810   18.8080 H   0  0  0  0  0  0  0  0  0  0  0  0
  -28.4520  -17.8970   20.1700 C   0  0  0  0  0  3  0  0  0  0  0  0
  -29.4440  -16.8630   19.5310 C   0  0  0  0  0  3  0  0  0  0  0  0
  -30.0760  -14.4160   19.6070 C   0  0  0  0  0  0  0  0  0  0  0  0
  -29.8440  -12.1510   18.6560 C   0  0  0  0  0  2  0  0  0  0  0  0
  -28.7510  -12.1970   17.5680 C   0  0  0  0  0  2  0  0  0  0  0  0
  -27.3560  -11.9810   18.1860 C   0  0  0  0  0  2  0  0  0  0  0  0
  -27.1070  -12.8670   19.4370 C   0  0  0  0  0  3  0  0  0  0  0  0
  -28.3030  -12.8060   20.4120 C   0  0  0  0  0  2  0  0  0  0  0  0
  -29.5120  -13.1760   19.6610 N   0  0  0  0  0  0  0  0  0  0  0  0
  -31.1580  -14.6220   19.0490 O   0  0  0  0  0  0  0  0  0  0  0  0
  -29.2830  -15.4540   19.9810 N   0  0  0  0  0  0  0  0  0  0  0  0
  -28.4160  -15.2120   20.4370 H   0  0  0  0  0  0  0  0  0  0  0  0
  -24.8250  -13.3580   20.5190 C   0  0  0  0  0  0  0  0  0  0  0  0
  -23.8490  -12.5350   21.0110 C   0  0  0  0  0  0  0  0  0  0  0  0
  -24.3430  -11.2020   20.8620 C   0  0  0  0  0  0  0  0  0  0  0  0
  -25.8500  -12.5240   20.1000 N   0  0  0  0  0  0  0  0  0  0  0  0
  -25.5730  -11.2210   20.3660 N   0  0  0  0  0  0  0  0  0  0  0  0
  -23.6920   -9.9080   21.1060 C   0  0  0  0  0  0  0  0  0  0  0  0
  -24.2260   -8.9760   22.0210 C   0  0  0  0  0  3  0  0  0  0  0  0
  -23.5720   -7.7470   22.2530 C   0  0  0  0  0  3  0  0  0  0  0  0
  -22.3710   -7.4420   21.5700 C   0  0  0  0  0  0  0  0  0  0  0  0
  -21.8560   -8.3640   20.6410 C   0  0  0  0  0  3  0  0  0  0  0  0
  -22.5120   -9.5850   20.4080 C   0  0  0  0  0  3  0  0  0  0  0  0
  -21.6790   -6.2640   21.7150 O   0  0  0  0  0  0  0  0  0  0  0  0
  -21.6690   -5.5740   22.9010 C   0  0  0  0  0  0  0  0  0  0  0  0
  -21.1790   -6.1490   24.0940 C   0  0  0  0  0  3  0  0  0  0  0  0
  -21.1220   -5.3800   25.2730 C   0  0  0  0  0  3  0  0  0  0  0  0
  -21.5460   -4.0380   25.2620 C   0  0  0  0  0  0  0  0  0  0  0  0
  -22.0270   -3.4630   24.0730 C   0  0  0  0  0  3  0  0  0  0  0  0
  -22.0850   -4.2280   22.8950 C   0  0  0  0  0  0  0  0  0  0  0  0
  -22.5310   -3.6610   21.7490 F   0  0  0  0  0  0  0  0  0  0  0  0
  -21.4830   -3.2980   26.3930 F   0  0  0  0  0  0  0  0  0  0  0  0
  -22.4920  -12.9520   21.5010 C   0  0  0  0  0  0  0  0  0  0  0  0
  -21.9150  -12.1960   22.4320 N   0  0  0  0  0  0  0  0  0  0  0  0
  -21.9530  -13.9790   21.0940 O   0  0  0  0  0  0  0  0  0  0  0  0
  -22.3670  -11.3660   22.7850 H   0  0  0  0  0  0  0  0  0  0  0  0
  -21.0100  -12.4550   22.7980 H   0  0  0  0  0  0  0  0  0  0  0  0
  -24.9210  -14.7390   20.3690 N   0  0  0  0  0  0  0  0  0  0  0  0
  -24.1550  -15.3620   20.6020 H   0  0  0  0  0  0  0  0  0  0  0  0
  -25.6860  -15.2130   19.9080 H   0  0  0  0  0  0  0  0  0  0  0  0
  -27.7610  -24.0690   20.0980 C   0  0  0  0  0  2  0  0  0  0  0  0
  -28.6550  -25.2720   19.6310 C   0  0  0  0  0  2  0  0  0  0  0  0
  -28.5060  -26.5510   20.3150 O   0  0  0  0  0  0  0  0  0  0  0  0
  -24.5330  -31.7490   23.2120 C   0  0  0  0  0  0  0  0  0  0  0  0
  -27.3300  -27.2870   20.2330 C   0  0  0  0  0  0  0  0  0  0  0  0
  -23.4070  -30.3370   21.5230 C   0  0  0  0  0  3  0  0  0  0  0  0
  -24.9290  -28.8120   20.1530 C   0  0  0  0  0  0  0  0  0  0  0  0
  -25.9410  -30.7040   21.4330 C   0  0  0  0  0  2  0  0  0  0  0  0
  -26.0610  -29.3320   20.7890 C   0  0  0  0  0  0  0  0  0  0  0  0
  -27.2610  -28.5770   20.8260 C   0  0  0  0  0  3  0  0  0  0  0  0
  -26.1710  -26.7920   19.5910 C   0  0  0  0  0  3  0  0  0  0  0  0
  -24.9820  -27.5440   19.5510 C   0  0  0  0  0  3  0  0  0  0  0  0
  -23.6780  -29.6650   20.1510 C   0  0  0  0  0  2  0  0  0  0  0  0
  -24.6420  -30.9470   22.1140 N   0  0  0  0  0  0  0  0  0  0  0  0
  -23.4280  -32.0110   23.7080 O   0  0  0  0  0  0  0  0  0  0  0  0
  -22.7260  -29.3080   22.4560 C   0  0  0  0  0  0  0  0  0  0  0  0
  -21.4070  -29.1220   22.2850 N   0  0  0  0  0  0  0  0  0  0  0  0
  -23.3840  -28.6840   23.2920 O   0  0  0  0  0  0  0  0  0  0  0  0
  -20.9340  -29.6830   21.5890 H   0  0  0  0  0  0  0  0  0  0  0  0
  -18.0190  -27.9260   22.6840 C   0  0  0  0  0  0  0  0  0  0  0  0
  -20.5690  -28.1730   23.0210 C   0  0  0  0  0  3  0  0  0  0  0  0
  -20.6810  -26.7490   22.4280 C   0  0  0  0  0  2  0  0  0  0  0  0
  -19.6050  -26.4450   21.3820 C   0  0  0  0  0  2  0  0  0  0  0  0
  -18.2080  -26.5850   21.9940 C   0  0  0  0  0  2  0  0  0  0  0  0
  -19.1280  -28.6790   23.1520 C   0  0  0  0  0  0  0  0  0  0  0  0
  -18.8980  -29.9350   23.7540 C   0  0  0  0  0  3  0  0  0  0  0  0
  -17.5910  -30.4410   23.8880 C   0  0  0  0  0  3  0  0  0  0  0  0
  -16.4950  -29.6830   23.4380 C   0  0  0  0  0  3  0  0  0  0  0  0
  -16.7100  -28.4270   22.8440 C   0  0  0  0  0  3  0  0  0  0  0  0
  -25.7870  -32.3930   23.8820 C   0  0  0  0  0  3  0  0  0  0  0  0
  -25.4560  -33.7900   24.1960 N   0  0  0  0  0  0  0  0  0  0  0  0
  -25.7840  -34.8400   23.4320 C   0  0  0  0  0  0  0  0  0  0  0  0
  -26.4700  -34.7350   22.4110 O   0  0  0  0  0  0  0  0  0  0  0  0
  -24.8510  -33.9440   24.9890 H   0  0  0  0  0  0  0  0  0  0  0  0
  -24.0280  -36.5980   23.0440 C   0  0  0  0  0  1  0  0  0  0  0  0
  -25.2710  -36.2250   23.8690 C   0  0  0  0  0  3  0  0  0  0  0  0
  -27.3790  -37.1620   24.7080 C   0  0  0  0  0  1  0  0  0  0  0  0
  -26.2860  -37.2940   23.7490 N   0  0  0  0  0  0  0  0  0  0  0  0
  -25.8630  -38.2090   23.8760 H   0  0  0  0  0  0  0  0  0  0  0  0
  -26.2590  -31.6290   25.1800 C   0  0  1  0  0  0  0  0  0  0  0  0
  -25.1260  -31.3750   26.2020 C   0  0  0  0  0  1  0  0  0  0  0  0
  -26.8780  -30.2600   24.8120 C   0  0  0  0  0  1  0  0  0  0  0  0
  -27.3680  -32.4390   25.8920 C   0  0  0  0  0  1  0  0  0  0  0  0
  1  3  1  0
  2  3  2  0
  3  9  1  0
  4  1  2  0
  5  2  1  0
  6  5  2  0
  6  4  1  0
  8  9  1  0
  9  7  1  0
 10 12  1  0
 10  5  1  0
 11 10  1  0
 13 22  1  0
 13 12  2  0
 14 20  1  0
 14 22  1  0
 15 20  1  0
 16 17  1  0
 16 15  1  0
 18 17  1  0
 18 27  1  0
 18 19  1  0
 20 19  1  0
 21 14  2  0
 22 23  1  0
 24 25  2  0
 25 44  1  0
 26 25  1  0
 26 29  1  0
 27 28  1  0
 27 24  1  0
 28 26  2  0
 29 30  1  0
 30 31  2  0
 32 35  1  0
 32 31  1  0
 33 32  2  0
 34 33  1  0
 34 29  2  0
 35 36  1  0
 36 37  1  0
 37 38  2  0
 39 38  1  0
 39 43  1  0
 40 39  2  0
 41 36  2  0
 41 40  1  0
 42 41  1  0
 44 45  1  0
 45 47  1  0
 45 48  1  0
 46 44  2  0
 49 24  1  0
 49 50  1  0
 51 49  1  0
 52  4  1  0
 53 52  1  0
 53 54  1  0
 55 66  2  0
 56 54  1  0
 56 61  1  0
 57 65  1  0
 57 67  1  0
 58 60  1  0
 59 65  1  0
 60 61  2  0
 60 59  1  0
 62 56  2  0
 63 62  1  0
 63 58  2  0
 64 58  1  0
 64 57  1  0
 65 55  1  0
 67 69  2  0
 68 67  1  0
 70 68  1  0
 71 80  2  0
 71 76  1  0
 72 68  1  0
 72 76  1  0
 73 72  1  0
 74 75  1  0
 74 73  1  0
 75 71  1  0
 76 77  2  0
 77 78  1  0
 79 78  2  0
 80 79  1  0
 81 55  1  0
 81 82  1  0
 81 91  1  0
 82 85  1  0
 83 87  1  0
 83 82  1  0
 84 83  2  0
 87 86  1  0
 89 87  1  0
 89 90  1  0
 89 88  1  0
 91 94  1  1
 91 92  1  0
 93 91  1  0
M  ISO  4  14 100  22 100  53 101  54 101
M  END
>  <TORSDO>  (79) 
F 22

>  <SCORE>  (79) 
-11.292

>  <name>  (79) 
79

>  <ligand_id>  (79) 
79

>  <original_smiles>  (79) 
[H]c1c([H])c([H])c2c(c1[H])C([H])([H])C([H])([H])C([H])([H])C2([H])N([H])C(=O)C1([H])N(C(=O)C([H])(N([H])C(=O)C([H])(N([H])C([H])([H])[H])C([H])([H])[H])C(C([H])([H])[H])(C([H])([H])[H])C([H])([H])[H])C([H])([H])c2c([H])c(OC([H])([H])C([H])([H])c3nc(N([H])C([H])([H])C([H])([H])N([H])C(=O)N4C([H])([H])C([H])([H])C([H])([H])C([H])(n5nc(-c6c([H])c([H])c(Oc7c([H])c([H])c(F)c([H])c7F)c([H])c6[H])c(C(=O)N([H])[H])c5N([H])[H])C4([H])[H])c([H])c(C([H])(C([H])([H])[H])C([H])([H])[H])c3[H])c([H])c([H])c2C1([H])[H]

>  <smiles>  (79) 
[H]c1c([H])c([H])c2c(c1[H])C([H])([H])C([H])([H])C([H])([H])C2([H])N([H])C(=O)C1([H])N(C(=O)C([H])(N([H])C(=O)C([H])(N([H])C([H])([H])[H])C([H])([H])[H])C(C([H])([H])[H])(C([H])([H])[H])C([H])([H])[H])C([H])([H])c2c([H])c(OC([H])([H])C([H])([H])c3nc(N([H])C([H])([H])C([H])([H])N([H])C(=O)N4C([H])([H])C([H])([H])C([H])([H])C([H])(n5nc(-c6c([H])c([H])c(Oc7c([H])c([H])c(F)c([H])c7F)c([H])c6[H])c(C(=O)N([H])[H])c5N([H])[H])C4([H])[H])c([H])c(C([H])(C([H])([H])[H])C([H])([H])[H])c3[H])c([H])c([H])c2C1([H])[H]

$$$$
80:0:0
     RDKit          3D

100108  0  0  1  0  0  0  0  0999 V2000
  -26.2370  -21.7670   19.2460 C   0  0  0  0  0  2  0  0  0  0  0  0
  -27.7040  -21.3090   19.1590 C   0  0  0  0  0  2  0  0  0  0  0  0
  -26.3550  -23.2350   19.6580 C   0  0  0  0  0  2  0  0  0  0  0  0
  -28.4590  -22.1380   20.2240 C   0  0  0  0  0  3  0  0  0  0  0  0
  -27.5920  -23.3210   20.4710 N   0  0  1  0  0  4  0  0  0  0  0  0
  -27.2470  -23.0930   21.3890 H   0  0  0  0  0  0  0  0  0  0  0  0
  -28.6260  -21.3080   21.5280 C   0  0  0  0  0  2  0  0  0  0  0  0
  -29.8310  -20.3210   21.6100 C   0  0  0  0  0  3  0  0  0  0  0  0
  -31.1640  -21.0540   21.8030 C   0  0  0  0  0  0  0  0  0  0  0  0
  -31.7970  -20.8430   22.9520 N   0  0  0  0  0  0  0  0  0  0  0  0
  -31.6310  -21.7700   20.9190 O   0  0  0  0  0  0  0  0  0  0  0  0
  -31.3780  -20.2550   23.6600 H   0  0  0  0  0  0  0  0  0  0  0  0
  -32.6970  -21.2570   23.1550 H   0  0  0  0  0  0  0  0  0  0  0  0
  -29.9630  -19.3800   20.4720 N   0  0  0  0  0  4  0  0  0  0  0  0
  -30.9580  -19.2890   20.3320 H   0  0  0  0  0  0  0  0  0  0  0  0
  -29.6050  -19.7770   19.6170 H   0  0  0  0  0  0  0  0  0  0  0  0
  -29.4680  -17.9940   20.6640 C   0  0  0  0  0  2  0  0  0  0  0  0
  -30.6520  -17.0360   20.9520 C   0  0  0  0  0  2  0  0  0  0  0  0
  -30.9800  -14.6290   20.3960 C   0  0  0  0  0  0  0  0  0  0  0  0
  -30.7390  -12.4210   19.3300 C   0  0  0  0  0  2  0  0  0  0  0  0
  -29.8070  -12.5260   18.1060 C   0  0  0  0  0  2  0  0  0  0  0  0
  -28.3270  -12.4240   18.5300 C   0  0  0  0  0  2  0  0  0  0  0  0
  -27.9650  -13.3400   19.7320 C   0  0  0  0  0  3  0  0  0  0  0  0
  -28.9940  -13.1610   20.8740 C   0  0  0  0  0  2  0  0  0  0  0  0
  -30.3290  -13.4380   20.3170 N   0  0  0  0  0  0  0  0  0  0  0  0
  -32.0790  -14.8300   19.8820 O   0  0  0  0  0  0  0  0  0  0  0  0
  -30.2780  -15.6210   20.9710 N   0  0  0  0  0  0  0  0  0  0  0  0
  -29.4140  -15.3550   21.4250 H   0  0  0  0  0  0  0  0  0  0  0  0
  -25.5550  -14.0040   20.3750 C   0  0  0  0  0  0  0  0  0  0  0  0
  -24.4740  -13.2590   20.7480 C   0  0  0  0  0  0  0  0  0  0  0  0
  -24.9150  -11.8970   20.7650 C   0  0  0  0  0  0  0  0  0  0  0  0
  -26.5960  -13.1030   20.1870 N   0  0  0  0  0  0  0  0  0  0  0  0
  -26.2100  -11.8360   20.4870 N   0  0  0  0  0  0  0  0  0  0  0  0
  -24.1760  -10.6460   20.9760 C   0  0  0  0  0  0  0  0  0  0  0  0
  -24.5750   -9.7080   21.9540 C   0  0  0  0  0  3  0  0  0  0  0  0
  -23.8380   -8.5230   22.1540 C   0  0  0  0  0  3  0  0  0  0  0  0
  -22.6880   -8.2610   21.3720 C   0  0  0  0  0  0  0  0  0  0  0  0
  -22.3070   -9.1860   20.3830 C   0  0  0  0  0  3  0  0  0  0  0  0
  -23.0480  -10.3640   20.1820 C   0  0  0  0  0  3  0  0  0  0  0  0
  -21.9320   -7.1200   21.4760 O   0  0  0  0  0  0  0  0  0  0  0  0
  -21.8230   -6.4300   22.6570 C   0  0  0  0  0  0  0  0  0  0  0  0
  -21.3490   -7.0430   23.8370 C   0  0  0  0  0  3  0  0  0  0  0  0
  -21.1930   -6.2800   25.0120 C   0  0  0  0  0  3  0  0  0  0  0  0
  -21.4960   -4.9050   25.0050 C   0  0  0  0  0  0  0  0  0  0  0  0
  -21.9640   -4.2940   23.8290 C   0  0  0  0  0  3  0  0  0  0  0  0
  -22.1220   -5.0540   22.6560 C   0  0  0  0  0  0  0  0  0  0  0  0
  -22.5510   -4.4530   21.5190 F   0  0  0  0  0  0  0  0  0  0  0  0
  -21.3380   -4.1690   26.1310 F   0  0  0  0  0  0  0  0  0  0  0  0
  -23.0720  -13.7550   20.9820 C   0  0  0  0  0  0  0  0  0  0  0  0
  -22.3160  -13.0950   21.8480 N   0  0  0  0  0  0  0  0  0  0  0  0
  -22.6530  -14.7620   20.4140 O   0  0  0  0  0  0  0  0  0  0  0  0
  -22.6630  -12.2830   22.3380 H   0  0  0  0  0  0  0  0  0  0  0  0
  -21.3740  -13.4140   22.0350 H   0  0  0  0  0  0  0  0  0  0  0  0
  -25.7370  -15.3700   20.1650 N   0  0  0  0  0  0  0  0  0  0  0  0
  -24.9740  -16.0330   20.2650 H   0  0  0  0  0  0  0  0  0  0  0  0
  -26.5850  -15.7860   19.8090 H   0  0  0  0  0  0  0  0  0  0  0  0
  -28.2180  -24.6580   20.7160 C   0  0  0  0  0  2  0  0  0  0  0  0
  -28.4190  -25.1890   18.0490 C   0  0  0  0  0  1  0  0  0  0  0  0
  -28.6730  -25.5670   19.5250 C   0  0  0  0  0  3  0  0  0  0  0  0
  -28.4580  -26.9700   19.8020 O   0  0  0  0  0  0  0  0  0  0  0  0
  -24.5400  -31.9000   23.1000 C   0  0  0  0  0  0  0  0  0  0  0  0
  -27.2150  -27.5760   19.8740 C   0  0  0  0  0  0  0  0  0  0  0  0
  -23.3110  -30.5070   21.4560 C   0  0  0  0  0  3  0  0  0  0  0  0
  -24.7640  -29.0060   19.9920 C   0  0  0  0  0  0  0  0  0  0  0  0
  -25.8220  -30.9200   21.2060 C   0  0  0  0  0  2  0  0  0  0  0  0
  -25.9230  -29.5550   20.5550 C   0  0  0  0  0  0  0  0  0  0  0  0
  -27.1430  -28.8470   20.4920 C   0  0  0  0  0  3  0  0  0  0  0  0
  -26.0210  -27.0250   19.3510 C   0  0  0  0  0  3  0  0  0  0  0  0
  -24.8050  -27.7330   19.3970 C   0  0  0  0  0  3  0  0  0  0  0  0
  -23.5090  -29.8410   20.0640 C   0  0  0  0  0  2  0  0  0  0  0  0
  -24.5740  -31.1250   21.9780 N   0  0  0  0  0  0  0  0  0  0  0  0
  -23.4710  -32.1460   23.6790 O   0  0  0  0  0  0  0  0  0  0  0  0
  -22.6940  -29.4720   22.4220 C   0  0  0  0  0  0  0  0  0  0  0  0
  -21.3710  -29.2870   22.3370 N   0  0  0  0  0  0  0  0  0  0  0  0
  -23.4000  -28.8370   23.2090 O   0  0  0  0  0  0  0  0  0  0  0  0
  -20.8560  -29.8620   21.6820 H   0  0  0  0  0  0  0  0  0  0  0  0
  -18.0340  -28.0140   22.9140 C   0  0  0  0  0  0  0  0  0  0  0  0
  -20.5880  -28.3210   23.1050 C   0  0  0  0  0  3  0  0  0  0  0  0
  -20.7070  -26.9000   22.5090 C   0  0  0  0  0  2  0  0  0  0  0  0
  -19.5740  -26.5260   21.5510 C   0  0  0  0  0  2  0  0  0  0  0  0
  -18.2130  -26.6630   22.2380 C   0  0  0  0  0  2  0  0  0  0  0  0
  -19.1500  -28.7930   23.3180 C   0  0  0  0  0  0  0  0  0  0  0  0
  -18.9290  -30.0420   23.9290 C   0  0  0  0  0  3  0  0  0  0  0  0
  -17.6240  -30.5190   24.1310 C   0  0  0  0  0  3  0  0  0  0  0  0
  -16.5200  -29.7360   23.7470 C   0  0  0  0  0  3  0  0  0  0  0  0
  -16.7270  -28.4830   23.1490 C   0  0  0  0  0  3  0  0  0  0  0  0
  -25.8370  -32.5320   23.6960 C   0  0  0  0  0  3  0  0  0  0  0  0
  -25.5160  -33.9110   24.0820 N   0  0  0  0  0  0  0  0  0  0  0  0
  -25.8080  -34.9930   23.3460 C   0  0  0  0  0  0  0  0  0  0  0  0
  -26.4460  -34.9350   22.2910 O   0  0  0  0  0  0  0  0  0  0  0  0
  -24.9500  -34.0310   24.9090 H   0  0  0  0  0  0  0  0  0  0  0  0
  -24.0420  -36.7680   23.1060 C   0  0  0  0  0  1  0  0  0  0  0  0
  -25.3140  -36.3570   23.8660 C   0  0  0  0  0  3  0  0  0  0  0  0
  -27.4600  -37.2500   24.6580 C   0  0  0  0  0  1  0  0  0  0  0  0
  -26.3260  -37.4310   23.7540 N   0  0  0  0  0  0  0  0  0  0  0  0
  -25.9080  -38.3380   23.9460 H   0  0  0  0  0  0  0  0  0  0  0  0
  -26.4250  -31.7260   24.9200 C   0  0  1  0  0  0  0  0  0  0  0  0
  -25.3840  -31.4330   26.0230 C   0  0  0  0  0  1  0  0  0  0  0  0
  -27.0130  -30.3710   24.4570 C   0  0  0  0  0  1  0  0  0  0  0  0
  -27.5880  -32.5220   25.5610 C   0  0  0  0  0  1  0  0  0  0  0  0
  1  3  1  0
  2  1  1  0
  2  4  1  0
  3  5  1  0
  4  5  1  0
  4  7  1  0
  5 57  1  0
  5  6  1  1
  8  7  1  0
  8  9  1  0
  9 10  1  0
 10 13  1  0
 10 12  1  0
 11  9  2  0
 14 17  1  0
 14  8  1  0
 15 14  1  0
 16 14  1  0
 17 18  1  0
 18 27  1  0
 19 27  1  0
 20 25  1  0
 21 22  1  0
 21 20  1  0
 23 22  1  0
 23 32  1  0
 23 24  1  0
 25 19  1  0
 25 24  1  0
 26 19  2  0
 27 28  1  0
 29 30  2  0
 30 31  1  0
 30 49  1  0
 31 34  1  0
 32 29  1  0
 32 33  1  0
 33 31  2  0
 34 35  1  0
 35 36  2  0
 37 40  1  0
 37 36  1  0
 38 37  2  0
 39 38  1  0
 39 34  2  0
 40 41  1  0
 41 42  1  0
 42 43  2  0
 44 43  1  0
 44 48  1  0
 45 44  2  0
 46 41  2  0
 46 45  1  0
 47 46  1  0
 49 50  1  0
 50 53  1  0
 50 52  1  0
 51 49  2  0
 54 55  1  0
 54 29  1  0
 56 54  1  0
 59 58  1  0
 59 60  1  0
 59 57  1  0
 60 62  1  0
 61 72  2  0
 62 67  1  0
 63 71  1  0
 63 73  1  0
 64 70  1  0
 64 66  1  0
 65 71  1  0
 66 65  1  0
 67 66  2  0
 68 69  1  0
 68 62  2  0
 69 64  2  0
 70 63  1  0
 71 61  1  0
 73 75  2  0
 74 73  1  0
 76 74  1  0
 77 86  2  0
 77 82  1  0
 78 74  1  0
 78 82  1  0
 79 78  1  0
 80 81  1  0
 80 79  1  0
 81 77  1  0
 82 83  2  0
 83 84  1  0
 85 84  2  0
 86 85  1  0
 87 61  1  0
 87 88  1  0
 87 97  1  0
 88 91  1  0
 89 93  1  0
 89 88  1  0
 90 89  2  0
 93 92  1  0
 95 93  1  0
 95 96  1  0
 95 94  1  0
 97100  1  1
 97 98  1  0
 99 97  1  0
M  ISO  4  19 100  27 100  59 101  60 101
M  END
>  <TORSDO>  (80) 
F 24

>  <SCORE>  (80) 
-12.324

>  <name>  (80) 
80

>  <ligand_id>  (80) 
80

>  <original_smiles>  (80) 
[H]c1c([H])c([H])c2c(c1[H])C([H])([H])C([H])([H])C([H])([H])C2([H])N([H])C(=O)C1([H])N(C(=O)C([H])(N([H])C(=O)C([H])(N([H])C([H])([H])[H])C([H])([H])[H])C(C([H])([H])[H])(C([H])([H])[H])C([H])([H])[H])C([H])([H])c2c([H])c(OC([H])(C([H])([H])[H])C([H])([H])[N+]3([H])C([H])([H])C([H])([H])C([H])([H])C3([H])C([H])([H])C([H])(C(=O)N([H])[H])[N+]([H])([H])C([H])([H])C([H])([H])N([H])C(=O)N3C([H])([H])C([H])([H])C([H])([H])C([H])(n4nc(-c5c([H])c([H])c(Oc6c([H])c([H])c(F)c([H])c6F)c([H])c5[H])c(C(=O)N([H])[H])c4N([H])[H])C3([H])[H])c([H])c([H])c2C1([H])[H]

>  <smiles>  (80) 
[H]c1c([H])c([H])c2c(c1[H])C([H])([H])C([H])([H])C([H])([H])C2([H])N([H])C(=O)C1([H])N(C(=O)C([H])(N([H])C(=O)C([H])(N([H])C([H])([H])[H])C([H])([H])[H])C(C([H])([H])[H])(C([H])([H])[H])C([H])([H])[H])C([H])([H])c2c([H])c(OC([H])(C([H])([H])[H])C([H])([H])[N+]3([H])C([H])([H])C([H])([H])C([H])([H])C3([H])C([H])([H])C([H])(C(=O)N([H])[H])[N+]([H])([H])C([H])([H])C([H])([H])N([H])C(=O)N3C([H])([H])C([H])([H])C([H])([H])C([H])(n4nc(-c5c([H])c([H])c(Oc6c([H])c([H])c(F)c([H])c6F)c([H])c5[H])c(C(=O)N([H])[H])c4N([H])[H])C3([H])[H])c([H])c([H])c2C1([H])[H]

$$$$
81:0:0
     RDKit          3D

 99107  0  0  1  0  0  0  0  0999 V2000
  -27.7520  -21.0240   19.9640 C   0  0  0  0  0  3  0  0  0  0  0  0
  -27.6120  -24.7710   21.4300 C   0  0  0  0  0  2  0  0  0  0  0  0
  -29.5060  -24.4420   19.7670 C   0  0  0  0  0  2  0  0  0  0  0  0
  -27.3300  -23.2430   21.4150 C   0  0  0  0  0  2  0  0  0  0  0  0
  -29.3330  -22.9420   19.8990 C   0  0  0  0  0  2  0  0  0  0  0  0
  -29.0650  -25.1690   21.0410 C   0  0  0  0  0  3  0  0  0  0  0  0
  -27.8580  -22.5710   20.1150 C   0  0  0  0  0  3  0  0  0  0  0  0
  -29.2820  -26.6900   20.8430 C   0  0  0  0  0  2  0  0  0  0  0  0
  -28.6830  -27.0890   19.6210 O   0  0  0  0  0  0  0  0  0  0  0  0
  -24.6270  -31.7810   23.1300 C   0  0  0  0  0  0  0  0  0  0  0  0
  -27.4880  -27.7370   19.7380 C   0  0  0  0  0  0  0  0  0  0  0  0
  -23.4840  -30.4200   21.4070 C   0  0  0  0  0  3  0  0  0  0  0  0
  -25.0100  -29.0500   19.8870 C   0  0  0  0  0  0  0  0  0  0  0  0
  -25.9780  -30.9250   21.2270 C   0  0  0  0  0  2  0  0  0  0  0  0
  -26.1340  -29.6020   20.5170 C   0  0  0  0  0  0  0  0  0  0  0  0
  -27.3770  -28.9490   20.4530 C   0  0  0  0  0  3  0  0  0  0  0  0
  -26.3630  -27.2020   19.0830 C   0  0  0  0  0  3  0  0  0  0  0  0
  -25.1130  -27.8440   19.1740 C   0  0  0  0  0  3  0  0  0  0  0  0
  -23.7180  -29.8280   19.9890 C   0  0  0  0  0  2  0  0  0  0  0  0
  -24.7140  -31.0520   21.9820 N   0  0  0  0  0  0  0  0  0  0  0  0
  -23.5350  -31.9740   23.6830 O   0  0  0  0  0  0  0  0  0  0  0  0
  -22.8950  -29.3120   22.3050 C   0  0  0  0  0  0  0  0  0  0  0  0
  -21.5810  -29.0810   22.1670 N   0  0  0  0  0  0  0  0  0  0  0  0
  -23.6120  -28.6700   23.0770 O   0  0  0  0  0  0  0  0  0  0  0  0
  -21.0700  -29.6600   21.5180 H   0  0  0  0  0  0  0  0  0  0  0  0
  -18.2550  -27.7450   22.5980 C   0  0  0  0  0  0  0  0  0  0  0  0
  -20.8060  -28.0610   22.8690 C   0  0  0  0  0  3  0  0  0  0  0  0
  -20.9470  -26.6830   22.1830 C   0  0  0  0  0  2  0  0  0  0  0  0
  -19.8460  -26.4000   21.1580 C   0  0  0  0  0  2  0  0  0  0  0  0
  -18.4660  -26.4540   21.8240 C   0  0  0  0  0  2  0  0  0  0  0  0
  -19.3550  -28.5080   23.0730 C   0  0  0  0  0  0  0  0  0  0  0  0
  -19.1070  -29.7190   23.7540 C   0  0  0  0  0  3  0  0  0  0  0  0
  -17.7910  -30.1690   23.9670 C   0  0  0  0  0  3  0  0  0  0  0  0
  -16.7050  -29.4010   23.5140 C   0  0  0  0  0  3  0  0  0  0  0  0
  -16.9360  -28.1910   22.8350 C   0  0  0  0  0  3  0  0  0  0  0  0
  -25.8870  -32.4270   23.7890 C   0  0  0  0  0  3  0  0  0  0  0  0
  -25.5350  -33.8050   24.1550 N   0  0  0  0  0  0  0  0  0  0  0  0
  -25.8480  -34.8850   23.4290 C   0  0  0  0  0  0  0  0  0  0  0  0
  -26.5390  -34.8300   22.4080 O   0  0  0  0  0  0  0  0  0  0  0  0
  -24.9250  -33.9190   24.9510 H   0  0  0  0  0  0  0  0  0  0  0  0
  -24.0770  -36.6340   23.0740 C   0  0  0  0  0  1  0  0  0  0  0  0
  -25.3040  -36.2430   23.9120 C   0  0  0  0  0  3  0  0  0  0  0  0
  -27.3780  -37.1690   24.8440 C   0  0  0  0  0  1  0  0  0  0  0  0
  -26.3080  -37.3280   23.8620 N   0  0  0  0  0  0  0  0  0  0  0  0
  -25.8710  -38.2330   24.0130 H   0  0  0  0  0  0  0  0  0  0  0  0
  -26.4120  -31.6280   25.0450 C   0  0  1  0  0  0  0  0  0  0  0  0
  -25.3160  -31.3240   26.0910 C   0  0  0  0  0  1  0  0  0  0  0  0
  -27.0410  -30.2830   24.6100 C   0  0  0  0  0  1  0  0  0  0  0  0
  -27.5310  -32.4330   25.7440 C   0  0  0  0  0  1  0  0  0  0  0  0
  -26.4190  -20.5090   19.5870 N   0  0  0  0  0  4  0  0  0  0  0  0
  -25.6750  -21.0430   20.0060 H   0  0  0  0  0  0  0  0  0  0  0  0
  -26.3910  -19.5910   19.9950 H   0  0  0  0  0  0  0  0  0  0  0  0
  -25.8330  -21.5700   17.3640 C   0  0  0  0  0  1  0  0  0  0  0  0
  -25.1540  -19.1970   17.9030 C   0  0  0  0  0  1  0  0  0  0  0  0
  -26.2090  -20.2860   18.1300 C   0  0  0  0  0  3  0  0  0  0  0  0
  -28.4230  -20.1530   21.0650 C   0  0  0  0  0  2  0  0  0  0  0  0
  -29.3590  -19.2350   20.4060 N   0  0  0  0  0  0  0  0  0  0  0  0
  -30.2990  -19.6180   20.3910 H   0  0  0  0  0  0  0  0  0  0  0  0
  -29.3420  -17.8250   20.7890 C   0  0  0  0  0  2  0  0  0  0  0  0
  -29.9660  -17.2890   18.3630 C   0  0  0  0  0  1  0  0  0  0  0  0
  -30.2890  -17.0100   19.8500 C   0  0  0  0  0  3  0  0  0  0  0  0
  -31.0480  -14.5740   19.8240 C   0  0  0  0  0  0  0  0  0  0  0  0
  -30.8180  -12.2910   18.9220 C   0  0  0  0  0  2  0  0  0  0  0  0
  -29.7920  -12.3530   17.7650 C   0  0  0  0  0  2  0  0  0  0  0  0
  -28.3450  -12.2630   18.2980 C   0  0  0  0  0  2  0  0  0  0  0  0
  -28.0730  -13.2070   19.4940 C   0  0  0  0  0  3  0  0  0  0  0  0
  -29.1930  -13.0510   20.5480 C   0  0  0  0  0  2  0  0  0  0  0  0
  -30.4680  -13.3450   19.8810 N   0  0  0  0  0  0  0  0  0  0  0  0
  -32.1640  -14.7740   19.3390 O   0  0  0  0  0  0  0  0  0  0  0  0
  -30.1870  -15.5710   20.1320 N   0  0  0  0  0  0  0  0  0  0  0  0
  -29.2830  -15.2470   20.4360 H   0  0  0  0  0  0  0  0  0  0  0  0
  -25.7710  -13.8970   20.4100 C   0  0  0  0  0  0  0  0  0  0  0  0
  -24.6960  -13.1570   20.8260 C   0  0  0  0  0  0  0  0  0  0  0  0
  -25.0780  -11.7910   20.6910 C   0  0  0  0  0  0  0  0  0  0  0  0
  -26.7480  -12.9790   20.0630 N   0  0  0  0  0  0  0  0  0  0  0  0
  -26.3380  -11.7050   20.2810 N   0  0  0  0  0  0  0  0  0  0  0  0
  -24.3030  -10.5570   20.8750 C   0  0  0  0  0  0  0  0  0  0  0  0
  -24.6720   -9.5910   21.8380 C   0  0  0  0  0  3  0  0  0  0  0  0
  -23.9050   -8.4170   22.0050 C   0  0  0  0  0  3  0  0  0  0  0  0
  -22.7500   -8.2050   21.2150 C   0  0  0  0  0  0  0  0  0  0  0  0
  -22.4010   -9.1560   20.2420 C   0  0  0  0  0  3  0  0  0  0  0  0
  -23.1680  -10.3230   20.0710 C   0  0  0  0  0  3  0  0  0  0  0  0
  -21.9600   -7.0850   21.2980 O   0  0  0  0  0  0  0  0  0  0  0  0
  -21.7370   -6.4490   22.4930 C   0  0  0  0  0  0  0  0  0  0  0  0
  -21.1400   -7.1090   23.5920 C   0  0  0  0  0  3  0  0  0  0  0  0
  -20.8670   -6.3950   24.7760 C   0  0  0  0  0  3  0  0  0  0  0  0
  -21.1790   -5.0250   24.8620 C   0  0  0  0  0  0  0  0  0  0  0  0
  -21.7660   -4.3690   23.7670 C   0  0  0  0  0  3  0  0  0  0  0  0
  -22.0430   -5.0770   22.5860 C   0  0  0  0  0  0  0  0  0  0  0  0
  -22.5950   -4.4320   21.5290 F   0  0  0  0  0  0  0  0  0  0  0  0
  -20.9050   -4.3390   25.9960 F   0  0  0  0  0  0  0  0  0  0  0  0
  -23.3520  -13.6890   21.2290 C   0  0  0  0  0  0  0  0  0  0  0  0
  -22.6640  -12.9910   22.1290 N   0  0  0  0  0  0  0  0  0  0  0  0
  -22.9270  -14.7520   20.7820 O   0  0  0  0  0  0  0  0  0  0  0  0
  -23.0260  -12.1240   22.4980 H   0  0  0  0  0  0  0  0  0  0  0  0
  -21.7750  -13.3390   22.4560 H   0  0  0  0  0  0  0  0  0  0  0  0
  -25.9750  -15.2620   20.2720 N   0  0  0  0  0  0  0  0  0  0  0  0
  -25.1450  -15.8440   20.2960 H   0  0  0  0  0  0  0  0  0  0  0  0
  -26.6820  -15.6110   19.6400 H   0  0  0  0  0  0  0  0  0  0  0  0
  1 56  1  0
  3  5  1  0
  3  6  1  0
  4  2  1  0
  5  7  1  0
  6  8  1  0
  6  2  1  0
  7  1  1  0
  7  4  1  0
  9 11  1  0
  9  8  1  0
 10 21  2  0
 11 16  1  0
 12 20  1  0
 12 22  1  0
 13 19  1  0
 13 15  1  0
 14 20  1  0
 15 14  1  0
 16 15  2  0
 17 18  1  0
 17 11  2  0
 18 13  2  0
 19 12  1  0
 20 10  1  0
 22 24  2  0
 23 22  1  0
 25 23  1  0
 26 35  2  0
 26 31  1  0
 27 23  1  0
 27 31  1  0
 28 27  1  0
 29 30  1  0
 29 28  1  0
 30 26  1  0
 31 32  2  0
 32 33  1  0
 34 33  2  0
 35 34  1  0
 36 10  1  0
 36 37  1  0
 36 46  1  0
 37 40  1  0
 38 42  1  0
 38 37  1  0
 39 38  2  0
 42 41  1  0
 44 42  1  0
 44 45  1  0
 44 43  1  0
 46 49  1  1
 46 47  1  0
 48 46  1  0
 50  1  1  0
 50 52  1  0
 50 51  1  0
 53 55  1  0
 54 55  1  0
 55 50  1  0
 57 59  1  0
 57 56  1  0
 58 57  1  0
 61 60  1  0
 61 70  1  0
 61 59  1  0
 62 68  1  0
 62 70  1  0
 63 68  1  0
 64 65  1  0
 64 63  1  0
 66 65  1  0
 66 75  1  0
 66 67  1  0
 68 67  1  0
 69 62  2  0
 70 71  1  0
 72 73  2  0
 73 92  1  0
 74 73  1  0
 74 77  1  0
 75 76  1  0
 75 72  1  0
 76 74  2  0
 77 78  1  0
 78 79  2  0
 80 83  1  0
 80 79  1  0
 81 80  2  0
 82 81  1  0
 82 77  2  0
 83 84  1  0
 84 89  2  0
 84 85  1  0
 85 86  2  0
 86 87  1  0
 87 91  1  0
 88 87  2  0
 89 88  1  0
 90 89  1  0
 92 93  1  0
 93 96  1  0
 93 95  1  0
 94 92  2  0
 97 98  1  0
 97 72  1  0
 99 97  1  0
M  ISO  4   8 101   9 101  62 100  70 100
M  END
>  <TORSDO>  (81) 
F 24

>  <SCORE>  (81) 
-10.188

>  <name>  (81) 
81

>  <ligand_id>  (81) 
81

>  <original_smiles>  (81) 
[H]c1c([H])c([H])c2c(c1[H])C([H])([H])C([H])([H])C([H])([H])C2([H])N([H])C(=O)C1([H])N(C(=O)C([H])(N([H])C(=O)C([H])(N([H])C([H])([H])[H])C([H])([H])[H])C(C([H])([H])[H])(C([H])([H])[H])C([H])([H])[H])C([H])([H])c2c([H])c(OC([H])([H])C3([H])C([H])([H])C([H])([H])C([H])(C([H])(C([H])([H])N([H])C([H])([H])C([H])(N([H])C(=O)N4C([H])([H])C([H])([H])C([H])([H])C([H])(n5nc(-c6c([H])c([H])c(Oc7c([H])c([H])c(F)c([H])c7F)c([H])c6[H])c(C(=O)N([H])[H])c5N([H])[H])C4([H])[H])C([H])([H])[H])[N+]([H])([H])C([H])(C([H])([H])[H])C([H])([H])[H])C([H])([H])C3([H])[H])c([H])c([H])c2C1([H])[H]

>  <smiles>  (81) 
[H]c1c([H])c([H])c2c(c1[H])C([H])([H])C([H])([H])C([H])([H])C2([H])N([H])C(=O)C1([H])N(C(=O)C([H])(N([H])C(=O)C([H])(N([H])C([H])([H])[H])C([H])([H])[H])C(C([H])([H])[H])(C([H])([H])[H])C([H])([H])[H])C([H])([H])c2c([H])c(OC([H])([H])C3([H])C([H])([H])C([H])([H])C([H])(C([H])(C([H])([H])N([H])C([H])([H])C([H])(N([H])C(=O)N4C([H])([H])C([H])([H])C([H])([H])C([H])(n5nc(-c6c([H])c([H])c(Oc7c([H])c([H])c(F)c([H])c7F)c([H])c6[H])c(C(=O)N([H])[H])c5N([H])[H])C4([H])[H])C([H])([H])[H])[N+]([H])([H])C([H])(C([H])([H])[H])C([H])([H])[H])C([H])([H])C3([H])[H])c([H])c([H])c2C1([H])[H]

$$$$
82:0:0
     RDKit          3D

 95103  0  0  1  0  0  0  0  0999 V2000
  -26.1880  -21.6660   20.3230 C   0  0  0  0  0  3  0  0  0  0  0  0
  -26.1180  -22.9830   19.8450 C   0  0  0  0  0  3  0  0  0  0  0  0
  -26.5330  -20.9960   18.0480 C   0  0  0  0  0  3  0  0  0  0  0  0
  -26.4610  -20.6350   19.4250 C   0  0  0  0  0  0  0  0  0  0  0  0
  -26.2900  -23.2220   18.4750 C   0  0  0  0  0  0  0  0  0  0  0  0
  -26.4900  -22.2400   17.5670 N   0  0  0  0  0  0  0  0  0  0  0  0
  -26.8930  -19.2240   19.8800 C   0  0  0  0  0  2  0  0  0  0  0  0
  -28.2670  -18.9370   19.3330 N   0  0  0  0  0  4  0  0  0  0  0  0
  -28.2480  -19.1920   18.3500 H   0  0  0  0  0  0  0  0  0  0  0  0
  -28.9970  -19.5060   19.7280 H   0  0  0  0  0  0  0  0  0  0  0  0
  -28.7170  -17.5400   19.4200 C   0  0  0  0  0  2  0  0  0  0  0  0
  -30.2420  -17.3560   19.4540 C   0  0  0  0  0  2  0  0  0  0  0  0
  -31.4800  -15.0150   20.0300 C   0  0  0  0  0  0  0  0  0  0  0  0
  -31.3870  -12.5990   19.5440 C   0  0  0  0  0  2  0  0  0  0  0  0
  -30.5050  -12.4370   18.2720 C   0  0  0  0  0  2  0  0  0  0  0  0
  -28.9920  -12.3540   18.6240 C   0  0  0  0  0  2  0  0  0  0  0  0
  -28.5590  -13.4670   19.6190 C   0  0  0  0  0  3  0  0  0  0  0  0
  -29.5570  -13.5720   20.7940 C   0  0  0  0  0  2  0  0  0  0  0  0
  -30.8960  -13.8000   20.2230 N   0  0  0  0  0  0  0  0  0  0  0  0
  -32.6730  -15.1490   19.7650 O   0  0  0  0  0  0  0  0  0  0  0  0
  -30.6030  -15.9080   19.4850 N   0  0  0  0  0  0  0  0  0  0  0  0
  -31.1900  -15.9670   18.6560 H   0  0  0  0  0  0  0  0  0  0  0  0
  -26.2300  -14.2380   20.3830 C   0  0  0  0  0  0  0  0  0  0  0  0
  -25.0940  -13.5330   20.7200 C   0  0  0  0  0  0  0  0  0  0  0  0
  -25.4510  -12.1600   20.6410 C   0  0  0  0  0  0  0  0  0  0  0  0
  -27.1940  -13.2840   20.1020 N   0  0  0  0  0  0  0  0  0  0  0  0
  -26.7260  -12.0270   20.3120 N   0  0  0  0  0  0  0  0  0  0  0  0
  -24.6300  -10.9530   20.7770 C   0  0  0  0  0  0  0  0  0  0  0  0
  -24.9230   -9.9760   21.7480 C   0  0  0  0  0  3  0  0  0  0  0  0
  -24.1040   -8.8370   21.8720 C   0  0  0  0  0  3  0  0  0  0  0  0
  -22.9780   -8.6830   21.0290 C   0  0  0  0  0  0  0  0  0  0  0  0
  -22.7010   -9.6570   20.0560 C   0  0  0  0  0  3  0  0  0  0  0  0
  -23.5200  -10.7880   19.9280 C   0  0  0  0  0  3  0  0  0  0  0  0
  -22.1310   -7.5990   21.0640 O   0  0  0  0  0  0  0  0  0  0  0  0
  -21.8630   -6.9420   22.2360 C   0  0  0  0  0  0  0  0  0  0  0  0
  -21.2750   -7.5960   23.3410 C   0  0  0  0  0  3  0  0  0  0  0  0
  -20.9510   -6.8640   24.5010 C   0  0  0  0  0  3  0  0  0  0  0  0
  -21.2010   -5.4790   24.5520 C   0  0  0  0  0  0  0  0  0  0  0  0
  -21.7850   -4.8270   23.4500 C   0  0  0  0  0  3  0  0  0  0  0  0
  -22.1100   -5.5570   22.2940 C   0  0  0  0  0  0  0  0  0  0  0  0
  -22.6510   -4.9190   21.2290 F   0  0  0  0  0  0  0  0  0  0  0  0
  -20.8810   -4.7730   25.6630 F   0  0  0  0  0  0  0  0  0  0  0  0
  -23.7580  -14.1370   21.0310 C   0  0  0  0  0  0  0  0  0  0  0  0
  -22.9740  -13.4750   21.8890 N   0  0  0  0  0  0  0  0  0  0  0  0
  -23.4030  -15.2030   20.5380 O   0  0  0  0  0  0  0  0  0  0  0  0
  -23.2780  -12.6150   22.3090 H   0  0  0  0  0  0  0  0  0  0  0  0
  -22.0720  -13.8580   22.1360 H   0  0  0  0  0  0  0  0  0  0  0  0
  -26.4880  -15.5810   20.2660 N   0  0  0  0  0  0  0  0  0  0  0  0
  -25.7740  -16.2960   20.3670 H   0  0  0  0  0  0  0  0  0  0  0  0
  -27.3610  -15.8930   19.8780 H   0  0  0  0  0  0  0  0  0  0  0  0
  -26.6980  -24.4870   18.1210 O   0  0  0  0  0  0  0  0  0  0  0  0
  -28.0400  -24.4100   17.6420 C   0  0  0  0  0  2  0  0  0  0  0  0
  -29.0040  -25.5610   18.0500 C   0  0  0  0  0  2  0  0  0  0  0  0
  -29.1730  -25.7910   19.6430 C   0  0  0  0  0  2  0  0  0  0  0  0
  -29.3480  -27.1320   20.2480 O   0  0  0  0  0  0  0  0  0  0  0  0
  -24.8310  -31.8880   23.5350 C   0  0  0  0  0  0  0  0  0  0  0  0
  -28.1620  -27.8890   20.3470 C   0  0  0  0  0  0  0  0  0  0  0  0
  -23.9290  -30.5200   21.7140 C   0  0  0  0  0  3  0  0  0  0  0  0
  -25.6400  -29.2660   20.3480 C   0  0  0  0  0  0  0  0  0  0  0  0
  -26.4340  -31.0710   21.8190 C   0  0  0  0  0  2  0  0  0  0  0  0
  -26.7080  -29.7710   21.0950 C   0  0  0  0  0  0  0  0  0  0  0  0
  -27.9760  -29.0910   21.1140 C   0  0  0  0  0  3  0  0  0  0  0  0
  -27.0750  -27.5290   19.5200 C   0  0  0  0  0  3  0  0  0  0  0  0
  -25.8290  -28.1520   19.5700 C   0  0  0  0  0  3  0  0  0  0  0  0
  -24.3510  -30.0490   20.3110 C   0  0  0  0  0  2  0  0  0  0  0  0
  -25.0790  -31.1550   22.4150 N   0  0  0  0  0  0  0  0  0  0  0  0
  -23.6680  -32.0200   23.9610 O   0  0  0  0  0  0  0  0  0  0  0  0
  -23.3030  -29.3580   22.5350 C   0  0  0  0  0  0  0  0  0  0  0  0
  -21.9910  -29.0790   22.2930 N   0  0  0  0  0  0  0  0  0  0  0  0
  -24.0070  -28.7120   23.3320 O   0  0  0  0  0  0  0  0  0  0  0  0
  -21.5500  -29.6020   21.5400 H   0  0  0  0  0  0  0  0  0  0  0  0
  -18.8170  -27.2730   22.1600 C   0  0  0  0  0  0  0  0  0  0  0  0
  -21.2620  -27.8880   22.7210 C   0  0  0  0  0  0  0  0  0  0  0  0
  -21.7710  -26.7830   21.7870 C   0  0  0  0  0  3  0  0  0  0  0  0
  -20.7230  -25.9360   21.0420 C   0  0  0  0  0  3  0  0  0  0  0  0
  -19.2350  -26.0050   21.4460 C   0  0  0  0  0  3  0  0  0  0  0  0
  -19.7620  -28.1330   22.7730 C   0  0  0  0  0  0  0  0  0  0  0  0
  -19.3050  -29.3030   23.4060 C   0  0  0  0  0  3  0  0  0  0  0  0
  -17.9750  -29.7250   23.3270 C   0  0  0  0  0  3  0  0  0  0  0  0
  -17.0250  -28.9060   22.7300 C   0  0  0  0  0  3  0  0  0  0  0  0
  -17.4670  -27.6840   22.1350 C   0  0  0  0  0  3  0  0  0  0  0  0
  -25.9790  -32.5960   24.3020 C   0  0  0  0  0  3  0  0  0  0  0  0
  -25.5560  -33.9920   24.5010 N   0  0  0  0  0  0  0  0  0  0  0  0
  -25.9250  -35.0140   23.7300 C   0  0  0  0  0  0  0  0  0  0  0  0
  -26.7400  -34.9050   22.8130 O   0  0  0  0  0  0  0  0  0  0  0  0
  -24.8250  -34.1530   25.1710 H   0  0  0  0  0  0  0  0  0  0  0  0
  -24.1790  -36.6820   23.0350 C   0  0  0  0  0  1  0  0  0  0  0  0
  -25.3080  -36.3970   24.0310 C   0  0  0  0  0  3  0  0  0  0  0  0
  -27.2450  -37.4280   25.1180 C   0  0  0  0  0  1  0  0  0  0  0  0
  -26.2890  -37.5000   24.0150 N   0  0  0  0  0  0  0  0  0  0  0  0
  -25.8210  -38.3990   24.0620 H   0  0  0  0  0  0  0  0  0  0  0  0
  -26.3190  -31.8870   25.6600 C   0  0  1  0  0  0  0  0  0  0  0  0
  -25.0740  -31.5710   26.5150 C   0  0  0  0  0  1  0  0  0  0  0  0
  -27.0640  -30.5550   25.4090 C   0  0  0  0  0  1  0  0  0  0  0  0
  -27.2630  -32.7860   26.4750 C   0  0  0  0  0  1  0  0  0  0  0  0
  2  1  2  0
  3  4  2  0
  4  7  1  0
  4  1  1  0
  5  2  1  0
  6  3  1  0
  6  5  2  0
  8 11  1  0
  8 10  1  0
  8  7  1  0
  9  8  1  0
 11 12  1  0
 12 21  1  0
 13 19  1  0
 14 19  1  0
 15 16  1  0
 15 14  1  0
 17 16  1  0
 17 26  1  0
 17 18  1  0
 19 18  1  0
 20 13  2  0
 21 13  1  0
 22 21  1  0
 23 24  2  0
 24 43  1  0
 25 24  1  0
 25 28  1  0
 26 27  1  0
 26 23  1  0
 27 25  2  0
 28 29  1  0
 29 30  2  0
 31 34  1  0
 31 30  1  0
 32 31  2  0
 33 32  1  0
 33 28  2  0
 34 35  1  0
 35 40  2  0
 35 36  1  0
 36 37  2  0
 37 38  1  0
 38 42  1  0
 39 38  2  0
 40 39  1  0
 41 40  1  0
 43 44  1  0
 44 47  1  0
 44 46  1  0
 45 43  2  0
 48 49  1  0
 48 23  1  0
 50 48  1  0
 51  5  1  0
 52 53  1  0
 52 51  1  0
 53 54  1  0
 54 55  1  0
 55 57  1  0
 56 67  2  0
 57 62  1  0
 58 66  1  0
 58 68  1  0
 59 61  1  0
 60 66  1  0
 61 62  2  0
 61 60  1  0
 63 64  1  0
 63 57  2  0
 64 59  2  0
 65 59  1  0
 65 58  1  0
 66 56  1  0
 68 70  2  0
 69 68  1  0
 69 73  1  0
 71 69  1  0
 72 77  1  0
 73 77  1  0
 74 73  2  0
 75 76  2  0
 75 74  1  0
 76 72  1  0
 77 78  2  0
 79 78  1  0
 80 79  2  0
 81 72  2  0
 81 80  1  0
 82 56  1  0
 82 83  1  0
 82 92  1  0
 83 86  1  0
 84 88  1  0
 84 83  1  0
 85 84  2  0
 88 87  1  0
 90 88  1  0
 90 91  1  0
 90 89  1  0
 92 95  1  1
 92 93  1  0
 94 92  1  0
M  ISO  4  13 100  21 100  54 101  55 101
M  END
>  <TORSDO>  (82) 
F 24

>  <SCORE>  (82) 
-8.744

>  <name>  (82) 
82

>  <ligand_id>  (82) 
82

>  <original_smiles>  (82) 
[H]c1nc(OC([H])([H])C([H])([H])C([H])([H])Oc2c([H])c([H])c3c(c2[H])C([H])([H])N(C(=O)C([H])(N([H])C(=O)C([H])(N([H])C([H])([H])[H])C([H])([H])[H])C(C([H])([H])[H])(C([H])([H])[H])C([H])([H])[H])C([H])(C(=O)N([H])C2([H])c4c([H])c([H])c([H])c([H])c4C([H])([H])C([H])([H])C2([H])[H])C3([H])[H])c([H])c([H])c1C([H])([H])[N+]([H])([H])C([H])([H])C([H])([H])N([H])C(=O)N1C([H])([H])C([H])([H])C([H])([H])C([H])(n2nc(-c3c([H])c([H])c(Oc4c([H])c([H])c(F)c([H])c4F)c([H])c3[H])c(C(=O)N([H])[H])c2N([H])[H])C1([H])[H]

>  <smiles>  (82) 
[H]c1nc(OC([H])([H])C([H])([H])C([H])([H])Oc2c([H])c([H])c3c(c2[H])C([H])([H])N(C(=O)C([H])(N([H])C(=O)C([H])(N([H])C([H])([H])[H])C([H])([H])[H])C(C([H])([H])[H])(C([H])([H])[H])C([H])([H])[H])C([H])(C(=O)N([H])C2([H])c4c([H])c([H])c([H])c([H])c4C([H])([H])C([H])([H])C2([H])[H])C3([H])[H])c([H])c([H])c1C([H])([H])[N+]([H])([H])C([H])([H])C([H])([H])N([H])C(=O)N1C([H])([H])C([H])([H])C([H])([H])C([H])(n2nc(-c3c([H])c([H])c(Oc4c([H])c([H])c(F)c([H])c4F)c([H])c3[H])c(C(=O)N([H])[H])c2N([H])[H])C1([H])[H]

$$$$
83:0:0
     RDKit          3D

 93101  0  0  1  0  0  0  0  0999 V2000
  -30.2600  -21.9090   19.0150 C   0  0  0  0  0  0  0  0  0  0  0  0
  -30.0050  -23.3230   18.9450 C   0  0  0  0  0  0  0  0  0  0  0  0
  -29.7350  -21.1360   20.0930 C   0  0  0  0  0  0  0  0  0  0  0  0
  -29.1580  -23.9510   19.8980 C   0  0  0  0  0  0  0  0  0  0  0  0
  -29.0310  -21.8880   21.0710 C   0  0  0  0  0  0  0  0  0  0  0  0
  -30.9840  -21.2180   17.8670 C   0  0  0  0  0  1  0  0  0  0  0  0
  -30.5430  -24.1460   17.7830 C   0  0  0  0  0  1  0  0  0  0  0  0
  -28.4810  -21.1930   22.3050 C   0  0  0  0  0  1  0  0  0  0  0  0
  -28.7480  -23.2210   20.9730 N   0  0  0  0  0  0  0  0  0  0  0  0
  -28.2790  -25.2240   19.5500 C   0  0  0  0  0  2  0  0  0  0  0  0
  -28.5890  -26.6500   19.8610 O   0  0  0  0  0  0  0  0  0  0  0  0
  -24.6720  -31.8130   23.0840 C   0  0  0  0  0  0  0  0  0  0  0  0
  -27.4770  -27.5240   19.8030 C   0  0  0  0  0  0  0  0  0  0  0  0
  -23.5350  -30.4500   21.3740 C   0  0  0  0  0  3  0  0  0  0  0  0
  -25.0550  -29.0630   19.8670 C   0  0  0  0  0  0  0  0  0  0  0  0
  -26.0630  -30.8880   21.2180 C   0  0  0  0  0  2  0  0  0  0  0  0
  -26.2050  -29.5520   20.4970 C   0  0  0  0  0  0  0  0  0  0  0  0
  -27.4190  -28.7960   20.4610 C   0  0  0  0  0  3  0  0  0  0  0  0
  -26.2990  -27.1230   19.1220 C   0  0  0  0  0  3  0  0  0  0  0  0
  -25.1050  -27.8520   19.1730 C   0  0  0  0  0  3  0  0  0  0  0  0
  -23.7800  -29.8740   19.9580 C   0  0  0  0  0  2  0  0  0  0  0  0
  -24.7740  -31.0670   21.9460 N   0  0  0  0  0  0  0  0  0  0  0  0
  -23.5760  -32.0090   23.6280 O   0  0  0  0  0  0  0  0  0  0  0  0
  -22.9260  -29.3470   22.2730 C   0  0  0  0  0  0  0  0  0  0  0  0
  -21.6110  -29.1070   22.1310 N   0  0  0  0  0  0  0  0  0  0  0  0
  -23.6350  -28.7160   23.0610 O   0  0  0  0  0  0  0  0  0  0  0  0
  -21.0960  -29.6750   21.4730 H   0  0  0  0  0  0  0  0  0  0  0  0
  -18.2930  -27.7290   22.5680 C   0  0  0  0  0  0  0  0  0  0  0  0
  -20.8390  -28.0920   22.8490 C   0  0  0  0  0  3  0  0  0  0  0  0
  -21.0040  -26.6990   22.1990 C   0  0  0  0  0  2  0  0  0  0  0  0
  -19.9140  -26.3800   21.1700 C   0  0  0  0  0  2  0  0  0  0  0  0
  -18.5290  -26.4270   21.8210 C   0  0  0  0  0  2  0  0  0  0  0  0
  -19.3780  -28.5190   23.0360 C   0  0  0  0  0  0  0  0  0  0  0  0
  -19.1020  -29.7380   23.6940 C   0  0  0  0  0  3  0  0  0  0  0  0
  -17.7760  -30.1680   23.8910 C   0  0  0  0  0  3  0  0  0  0  0  0
  -16.7070  -29.3760   23.4370 C   0  0  0  0  0  3  0  0  0  0  0  0
  -16.9670  -28.1590   22.7830 C   0  0  0  0  0  3  0  0  0  0  0  0
  -25.9230  -32.4740   23.7380 C   0  0  0  0  0  3  0  0  0  0  0  0
  -26.4470  -31.6930   25.0050 C   0  0  1  0  0  0  0  0  0  0  0  0
  -25.3450  -31.3860   26.0470 C   0  0  0  0  0  1  0  0  0  0  0  0
  -27.0920  -30.3490   24.5940 C   0  0  0  0  0  1  0  0  0  0  0  0
  -27.5530  -32.5170   25.7060 C   0  0  0  0  0  1  0  0  0  0  0  0
  -25.5610  -33.8530   24.0930 N   0  0  0  0  0  0  0  0  0  0  0  0
  -25.8590  -34.9330   23.3590 C   0  0  0  0  0  0  0  0  0  0  0  0
  -26.5410  -34.8770   22.3320 O   0  0  0  0  0  0  0  0  0  0  0  0
  -24.9610  -33.9690   24.8970 H   0  0  0  0  0  0  0  0  0  0  0  0
  -24.0790  -36.6740   23.0170 C   0  0  0  0  0  1  0  0  0  0  0  0
  -25.3170  -36.2910   23.8430 C   0  0  0  0  0  3  0  0  0  0  0  0
  -27.4000  -37.2280   24.7460 C   0  0  0  0  0  1  0  0  0  0  0  0
  -26.3140  -37.3820   23.7810 N   0  0  0  0  0  0  0  0  0  0  0  0
  -25.8710  -38.2810   23.9460 H   0  0  0  0  0  0  0  0  0  0  0  0
  -29.6660  -19.7250   20.1090 O   0  0  0  0  0  0  0  0  0  0  0  0
  -31.2270  -18.7060   21.7140 C   0  0  0  0  0  1  0  0  0  0  0  0
  -30.8140  -18.8280   20.2420 C   0  0  0  0  0  3  0  0  0  0  0  0
  -30.5540  -17.4090   19.5560 C   0  0  0  0  0  2  0  0  0  0  0  0
  -31.1930  -15.0160   20.2060 C   0  0  0  0  0  0  0  0  0  0  0  0
  -30.9540  -12.7180   19.3130 C   0  0  0  0  0  2  0  0  0  0  0  0
  -30.0290  -12.7860   18.0780 C   0  0  0  0  0  2  0  0  0  0  0  0
  -28.5540  -12.6540   18.5000 C   0  0  0  0  0  2  0  0  0  0  0  0
  -28.1860  -13.5890   19.6820 C   0  0  0  0  0  3  0  0  0  0  0  0
  -29.2350  -13.5190   20.8170 C   0  0  0  0  0  2  0  0  0  0  0  0
  -30.5510  -13.8050   20.2290 N   0  0  0  0  0  0  0  0  0  0  0  0
  -32.3580  -15.1150   19.8130 O   0  0  0  0  0  0  0  0  0  0  0  0
  -30.4250  -16.1360   20.3570 N   0  0  0  0  0  0  0  0  0  0  0  0
  -29.5080  -15.9670   20.7420 H   0  0  0  0  0  0  0  0  0  0  0  0
  -25.8050  -14.2320   20.4010 C   0  0  0  0  0  0  0  0  0  0  0  0
  -24.7220  -13.4780   20.7630 C   0  0  0  0  0  0  0  0  0  0  0  0
  -25.1560  -12.1170   20.7240 C   0  0  0  0  0  0  0  0  0  0  0  0
  -26.8310  -13.3320   20.1640 N   0  0  0  0  0  0  0  0  0  0  0  0
  -26.4470  -12.0550   20.4190 N   0  0  0  0  0  0  0  0  0  0  0  0
  -24.4020  -10.8690   20.9040 C   0  0  0  0  0  0  0  0  0  0  0  0
  -24.7610   -9.9260   21.8920 C   0  0  0  0  0  3  0  0  0  0  0  0
  -24.0100   -8.7430   22.0590 C   0  0  0  0  0  3  0  0  0  0  0  0
  -22.8860   -8.4930   21.2360 C   0  0  0  0  0  0  0  0  0  0  0  0
  -22.5480   -9.4230   20.2370 C   0  0  0  0  0  3  0  0  0  0  0  0
  -23.3000  -10.5980   20.0710 C   0  0  0  0  0  3  0  0  0  0  0  0
  -22.1130   -7.3590   21.3080 O   0  0  0  0  0  0  0  0  0  0  0  0
  -21.9110   -6.7010   22.4950 C   0  0  0  0  0  0  0  0  0  0  0  0
  -21.2770   -7.3210   23.5930 C   0  0  0  0  0  3  0  0  0  0  0  0
  -21.0280   -6.5870   24.7690 C   0  0  0  0  0  3  0  0  0  0  0  0
  -21.4030   -5.2330   24.8480 C   0  0  0  0  0  0  0  0  0  0  0  0
  -22.0300   -4.6120   23.7530 C   0  0  0  0  0  3  0  0  0  0  0  0
  -22.2810   -5.3440   22.5790 C   0  0  0  0  0  0  0  0  0  0  0  0
  -22.8670   -4.7350   21.5190 F   0  0  0  0  0  0  0  0  0  0  0  0
  -21.1570   -4.5250   25.9740 F   0  0  0  0  0  0  0  0  0  0  0  0
  -23.3350  -13.9820   21.0400 C   0  0  0  0  0  0  0  0  0  0  0  0
  -22.5960  -13.2970   21.9060 N   0  0  0  0  0  0  0  0  0  0  0  0
  -22.9160  -15.0180   20.5240 O   0  0  0  0  0  0  0  0  0  0  0  0
  -22.9480  -12.4550   22.3380 H   0  0  0  0  0  0  0  0  0  0  0  0
  -21.6700  -13.6200   22.1430 H   0  0  0  0  0  0  0  0  0  0  0  0
  -25.9970  -15.6010   20.2330 N   0  0  0  0  0  0  0  0  0  0  0  0
  -25.2410  -16.2680   20.3410 H   0  0  0  0  0  0  0  0  0  0  0  0
  -26.8540  -16.0270   19.9050 H   0  0  0  0  0  0  0  0  0  0  0  0
  1  3  1  0
  2  1  2  0
  2  4  1  0
  3 52  1  0
  3  5  2  0
  4  9  2  0
  5  8  1  0
  6  1  1  0
  7  2  1  0
  9  5  1  0
 10 11  1  0
 10  4  1  0
 12 23  2  0
 13 11  1  0
 13 18  1  0
 14 22  1  0
 14 24  1  0
 15 21  1  0
 15 17  1  0
 16 22  1  0
 17 16  1  0
 18 17  2  0
 19 20  1  0
 19 13  2  0
 20 15  2  0
 21 14  1  0
 22 12  1  0
 24 26  2  0
 25 24  1  0
 27 25  1  0
 28 37  2  0
 28 33  1  0
 29 25  1  0
 29 33  1  0
 30 29  1  0
 31 32  1  0
 31 30  1  0
 32 28  1  0
 33 34  2  0
 34 35  1  0
 36 35  2  0
 37 36  1  0
 38 12  1  0
 38 43  1  0
 38 39  1  0
 39 42  1  1
 39 40  1  0
 41 39  1  0
 43 46  1  0
 44 48  1  0
 44 43  1  0
 45 44  2  0
 48 47  1  0
 50 48  1  0
 50 51  1  0
 50 49  1  0
 52 54  1  0
 54 53  1  0
 55 54  1  0
 55 64  1  0
 56 62  1  0
 56 64  1  0
 57 62  1  0
 58 59  1  0
 58 57  1  0
 60 59  1  0
 60 69  1  0
 60 61  1  0
 62 61  1  0
 63 56  2  0
 64 65  1  0
 66 67  2  0
 67 86  1  0
 68 67  1  0
 68 71  1  0
 69 66  1  0
 69 70  1  0
 70 68  2  0
 71 72  1  0
 72 73  2  0
 74 77  1  0
 74 73  1  0
 75 74  2  0
 76 75  1  0
 76 71  2  0
 77 78  1  0
 78 83  2  0
 78 79  1  0
 79 80  2  0
 80 81  1  0
 81 85  1  0
 82 81  2  0
 83 82  1  0
 84 83  1  0
 86 87  1  0
 87 90  1  0
 87 89  1  0
 88 86  2  0
 91 92  1  0
 91 66  1  0
 93 91  1  0
M  ISO  4  10 101  11 101  56 100  64 100
M  END
>  <TORSDO>  (83) 
F 20

>  <SCORE>  (83) 
-12.296

>  <name>  (83) 
83

>  <ligand_id>  (83) 
83

>  <original_smiles>  (83) 
[H]c1c([H])c([H])c2c(c1[H])C([H])([H])C([H])([H])C([H])([H])C2([H])N([H])C(=O)C1([H])N(C(=O)C([H])(N([H])C(=O)C([H])(N([H])C([H])([H])[H])C([H])([H])[H])C(C([H])([H])[H])(C([H])([H])[H])C([H])([H])[H])C([H])([H])c2c([H])c(OC([H])([H])c3nc(C([H])([H])[H])c(OC([H])(C([H])([H])[H])C([H])([H])N([H])C(=O)N4C([H])([H])C([H])([H])C([H])([H])C([H])(n5nc(-c6c([H])c([H])c(Oc7c([H])c([H])c(F)c([H])c7F)c([H])c6[H])c(C(=O)N([H])[H])c5N([H])[H])C4([H])[H])c(C([H])([H])[H])c3C([H])([H])[H])c([H])c([H])c2C1([H])[H]

>  <smiles>  (83) 
[H]c1c([H])c([H])c2c(c1[H])C([H])([H])C([H])([H])C([H])([H])C2([H])N([H])C(=O)C1([H])N(C(=O)C([H])(N([H])C(=O)C([H])(N([H])C([H])([H])[H])C([H])([H])[H])C(C([H])([H])[H])(C([H])([H])[H])C([H])([H])[H])C([H])([H])c2c([H])c(OC([H])([H])c3nc(C([H])([H])[H])c(OC([H])(C([H])([H])[H])C([H])([H])N([H])C(=O)N4C([H])([H])C([H])([H])C([H])([H])C([H])(n5nc(-c6c([H])c([H])c(Oc7c([H])c([H])c(F)c([H])c7F)c([H])c6[H])c(C(=O)N([H])[H])c5N([H])[H])C4([H])[H])c(C([H])([H])[H])c3C([H])([H])[H])c([H])c([H])c2C1([H])[H]

$$$$
84:0:0
     RDKit          3D

 91 99  0  0  1  0  0  0  0  0999 V2000
  -28.7270  -22.3920   19.0170 C   0  0  0  0  0  3  0  0  0  0  0  0
  -29.1130  -20.9980   19.1200 C   0  0  0  0  0  0  0  0  0  0  0  0
  -29.6180  -20.4520   20.3420 C   0  0  0  0  0  0  0  0  0  0  0  0
  -28.7950  -23.3300   20.1000 C   0  0  0  0  0  0  0  0  0  0  0  0
  -29.6880  -21.4700   21.3660 C   0  0  0  0  0  0  0  0  0  0  0  0
  -28.8970  -20.0880   17.9290 C   0  0  0  0  0  1  0  0  0  0  0  0
  -30.1800  -21.0980   22.7540 C   0  0  0  0  0  1  0  0  0  0  0  0
  -29.2970  -22.7990   21.2560 N   0  0  0  0  0  0  0  0  0  0  0  0
  -29.9760  -18.8820   20.6880 C   0  0  0  0  0  3  0  0  0  0  0  0
  -30.3170  -17.5610   19.7270 C   0  0  0  0  0  3  0  0  0  0  0  0
  -30.9190  -14.9460   19.6160 C   0  0  0  0  0  0  0  0  0  0  0  0
  -30.4940  -12.7150   18.4970 C   0  0  0  0  0  2  0  0  0  0  0  0
  -29.4350  -12.8310   17.3760 C   0  0  0  0  0  2  0  0  0  0  0  0
  -28.0190  -12.6700   17.9540 C   0  0  0  0  0  2  0  0  0  0  0  0
  -27.8010  -13.5290   19.2250 C   0  0  0  0  0  3  0  0  0  0  0  0
  -28.9620  -13.3840   20.2280 C   0  0  0  0  0  2  0  0  0  0  0  0
  -30.2090  -13.7500   19.5330 N   0  0  0  0  0  0  0  0  0  0  0  0
  -31.9750  -15.0310   18.9800 O   0  0  0  0  0  0  0  0  0  0  0  0
  -30.4050  -16.0850   20.2860 N   0  0  0  0  0  0  0  0  0  0  0  0
  -25.5470  -14.1730   20.2640 C   0  0  0  0  0  0  0  0  0  0  0  0
  -24.4840  -13.4250   20.6910 C   0  0  0  0  0  0  0  0  0  0  0  0
  -24.8630  -12.0580   20.5090 C   0  0  0  0  0  0  0  0  0  0  0  0
  -26.5060  -13.2630   19.8440 N   0  0  0  0  0  0  0  0  0  0  0  0
  -26.1080  -11.9830   20.0560 N   0  0  0  0  0  0  0  0  0  0  0  0
  -24.0890  -10.8220   20.6880 C   0  0  0  0  0  0  0  0  0  0  0  0
  -24.5230   -9.7970   21.5590 C   0  0  0  0  0  3  0  0  0  0  0  0
  -23.7510   -8.6270   21.7280 C   0  0  0  0  0  3  0  0  0  0  0  0
  -22.5320   -8.4730   21.0270 C   0  0  0  0  0  0  0  0  0  0  0  0
  -22.1170   -9.4850   20.1420 C   0  0  0  0  0  3  0  0  0  0  0  0
  -22.8880  -10.6460   19.9720 C   0  0  0  0  0  3  0  0  0  0  0  0
  -21.7330   -7.3580   21.1070 O   0  0  0  0  0  0  0  0  0  0  0  0
  -21.6550   -6.6090   22.2530 C   0  0  0  0  0  0  0  0  0  0  0  0
  -21.2630   -7.1750   23.4860 C   0  0  0  0  0  3  0  0  0  0  0  0
  -21.1290   -6.3540   24.6250 C   0  0  0  0  0  3  0  0  0  0  0  0
  -21.3750   -4.9710   24.5300 C   0  0  0  0  0  0  0  0  0  0  0  0
  -21.7610   -4.4070   23.3020 C   0  0  0  0  0  3  0  0  0  0  0  0
  -21.8970   -5.2240   22.1660 C   0  0  0  0  0  0  0  0  0  0  0  0
  -22.2470   -4.6720   20.9780 F   0  0  0  0  0  0  0  0  0  0  0  0
  -21.2390   -4.1820   25.6210 F   0  0  0  0  0  0  0  0  0  0  0  0
  -23.1550  -13.9460   21.1520 C   0  0  0  0  0  0  0  0  0  0  0  0
  -22.5050  -13.2400   22.0710 N   0  0  0  0  0  0  0  0  0  0  0  0
  -22.7070  -15.0140   20.7350 O   0  0  0  0  0  0  0  0  0  0  0  0
  -22.8820  -12.3750   22.4280 H   0  0  0  0  0  0  0  0  0  0  0  0
  -21.6190  -13.5700   22.4270 H   0  0  0  0  0  0  0  0  0  0  0  0
  -25.7730  -15.5420   20.1730 N   0  0  0  0  0  0  0  0  0  0  0  0
  -25.0660  -16.2250   20.4240 H   0  0  0  0  0  0  0  0  0  0  0  0
  -26.6220  -15.9610   19.8140 H   0  0  0  0  0  0  0  0  0  0  0  0
  -31.2210  -14.9630   22.4880 C   0  0  0  0  0  1  0  0  0  0  0  0
  -30.3580  -16.0380   21.7720 C   0  0  0  0  0  2  0  0  0  0  0  0
  -27.9150  -24.7160   20.0940 C   0  0  0  0  0  2  0  0  0  0  0  0
  -28.3120  -26.1980   20.2840 O   0  0  0  0  0  0  0  0  0  0  0  0
  -24.5800  -31.8600   23.1290 C   0  0  0  0  0  0  0  0  0  0  0  0
  -27.2670  -27.1850   20.1710 C   0  0  0  0  0  0  0  0  0  0  0  0
  -23.4250  -30.4340   21.4850 C   0  0  0  0  0  3  0  0  0  0  0  0
  -24.9170  -28.8890   20.0900 C   0  0  0  0  0  0  0  0  0  0  0  0
  -25.9780  -30.7480   21.3500 C   0  0  0  0  0  2  0  0  0  0  0  0
  -26.0810  -29.3560   20.7120 C   0  0  0  0  0  0  0  0  0  0  0  0
  -27.2580  -28.5190   20.7380 C   0  0  0  0  0  3  0  0  0  0  0  0
  -26.0720  -26.8300   19.4940 C   0  0  0  0  0  3  0  0  0  0  0  0
  -24.9240  -27.6400   19.4640 C   0  0  0  0  0  3  0  0  0  0  0  0
  -23.6740  -29.7600   20.1130 C   0  0  0  0  0  2  0  0  0  0  0  0
  -24.6790  -31.0350   22.0430 N   0  0  0  0  0  0  0  0  0  0  0  0
  -23.4820  -32.1270   23.6410 O   0  0  0  0  0  0  0  0  0  0  0  0
  -22.7560  -29.4170   22.4440 C   0  0  0  0  0  0  0  0  0  0  0  0
  -21.4300  -29.2320   22.3100 N   0  0  0  0  0  0  0  0  0  0  0  0
  -23.4300  -28.7990   23.2720 O   0  0  0  0  0  0  0  0  0  0  0  0
  -20.9440  -29.7820   21.6170 H   0  0  0  0  0  0  0  0  0  0  0  0
  -18.0540  -28.0120   22.8020 C   0  0  0  0  0  0  0  0  0  0  0  0
  -20.6110  -28.2900   23.0790 C   0  0  0  0  0  3  0  0  0  0  0  0
  -20.7230  -26.8580   22.5070 C   0  0  0  0  0  2  0  0  0  0  0  0
  -19.6270  -26.5250   21.4910 C   0  0  0  0  0  2  0  0  0  0  0  0
  -18.2430  -26.6630   22.1280 C   0  0  0  0  0  2  0  0  0  0  0  0
  -19.1660  -28.7830   23.2340 C   0  0  0  0  0  0  0  0  0  0  0  0
  -18.9360  -30.0450   23.8250 C   0  0  0  0  0  3  0  0  0  0  0  0
  -17.6260  -30.5350   23.9890 C   0  0  0  0  0  3  0  0  0  0  0  0
  -16.5290  -29.7610   23.5720 C   0  0  0  0  0  3  0  0  0  0  0  0
  -16.7440  -28.5010   22.9840 C   0  0  0  0  0  3  0  0  0  0  0  0
  -25.8400  -32.5220   23.7650 C   0  0  0  0  0  3  0  0  0  0  0  0
  -26.3710  -31.7490   25.0340 C   0  0  1  0  0  0  0  0  0  0  0  0
  -25.2800  -31.4630   26.0930 C   0  0  0  0  0  1  0  0  0  0  0  0
  -26.9970  -30.3950   24.6280 C   0  0  0  0  0  1  0  0  0  0  0  0
  -27.4960  -32.5680   25.7110 C   0  0  0  0  0  1  0  0  0  0  0  0
  -25.4900  -33.9060   24.1170 N   0  0  0  0  0  0  0  0  0  0  0  0
  -25.7880  -34.9800   23.3760 C   0  0  0  0  0  0  0  0  0  0  0  0
  -26.4560  -34.9140   22.3410 O   0  0  0  0  0  0  0  0  0  0  0  0
  -24.9010  -34.0320   24.9280 H   0  0  0  0  0  0  0  0  0  0  0  0
  -24.0120  -36.7330   23.0560 C   0  0  0  0  0  1  0  0  0  0  0  0
  -25.2630  -36.3470   23.8610 C   0  0  0  0  0  3  0  0  0  0  0  0
  -27.3750  -37.2710   24.7100 C   0  0  0  0  0  1  0  0  0  0  0  0
  -26.2680  -37.4300   23.7710 N   0  0  0  0  0  0  0  0  0  0  0  0
  -25.8370  -38.3350   23.9420 H   0  0  0  0  0  0  0  0  0  0  0  0
  1  2  2  0
  1  4  1  0
  2  3  1  0
  3  9  1  0
  3  5  2  0
  4  8  2  0
  5  7  1  0
  6  2  1  0
  8  5  1  0
 10 19  1  0
 10  9  2  0
 11 19  1  0
 12 17  1  0
 13 14  1  0
 13 12  1  0
 15 14  1  0
 15 23  1  0
 15 16  1  0
 17 11  1  0
 17 16  1  0
 18 11  2  0
 19 49  1  0
 20 21  2  0
 21 40  1  0
 22 25  1  0
 22 21  1  0
 23 24  1  0
 23 20  1  0
 24 22  2  0
 25 26  1  0
 26 27  2  0
 28 31  1  0
 28 27  1  0
 29 28  2  0
 30 29  1  0
 30 25  2  0
 31 32  1  0
 32 33  1  0
 33 34  2  0
 35 34  1  0
 35 39  1  0
 36 35  2  0
 37 32  2  0
 37 36  1  0
 38 37  1  0
 40 41  1  0
 41 44  1  0
 41 43  1  0
 42 40  2  0
 45 20  1  0
 45 46  1  0
 47 45  1  0
 49 48  1  0
 50  4  1  0
 50 51  1  0
 52 63  2  0
 53 51  1  0
 53 58  1  0
 54 62  1  0
 54 64  1  0
 55 61  1  0
 55 57  1  0
 56 62  1  0
 57 58  2  0
 57 56  1  0
 59 53  2  0
 60 59  1  0
 60 55  2  0
 61 54  1  0
 62 52  1  0
 64 66  2  0
 65 64  1  0
 67 65  1  0
 68 77  2  0
 68 73  1  0
 69 65  1  0
 69 73  1  0
 70 69  1  0
 71 72  1  0
 71 70  1  0
 72 68  1  0
 73 74  2  0
 74 75  1  0
 76 75  2  0
 77 76  1  0
 78 52  1  0
 78 83  1  0
 78 79  1  0
 79 82  1  1
 79 80  1  0
 81 79  1  0
 83 86  1  0
 84 88  1  0
 84 83  1  0
 85 84  2  0
 88 87  1  0
 90 88  1  0
 90 91  1  0
 90 89  1  0
M  ISO  4  11 100  19 100  50 101  51 101
M  END
>  <TORSDO>  (84) 
F 20

>  <SCORE>  (84) 
-11.954

>  <name>  (84) 
84

>  <ligand_id>  (84) 
84

>  <original_smiles>  (84) 
[H]c1c([H])c([H])c2c(c1[H])C([H])([H])C([H])([H])C([H])([H])C2([H])N([H])C(=O)C1([H])N(C(=O)C([H])(N([H])C(=O)C([H])(N([H])C([H])([H])[H])C([H])([H])[H])C(C([H])([H])[H])(C([H])([H])[H])C([H])([H])[H])C([H])([H])c2c([H])c(OC([H])([H])c3nc(C([H])([H])[H])c(C([H])([H])C([H])([H])N(C(=O)N4C([H])([H])C([H])([H])C([H])([H])C([H])(n5nc(-c6c([H])c([H])c(Oc7c([H])c([H])c(F)c([H])c7F)c([H])c6[H])c(C(=O)N([H])[H])c5N([H])[H])C4([H])[H])C([H])([H])C([H])([H])[H])c(C([H])([H])[H])c3[H])c([H])c([H])c2C1([H])[H]

>  <smiles>  (84) 
[H]c1c([H])c([H])c2c(c1[H])C([H])([H])C([H])([H])C([H])([H])C2([H])N([H])C(=O)C1([H])N(C(=O)C([H])(N([H])C(=O)C([H])(N([H])C([H])([H])[H])C([H])([H])[H])C(C([H])([H])[H])(C([H])([H])[H])C([H])([H])[H])C([H])([H])c2c([H])c(OC([H])([H])c3nc(C([H])([H])[H])c(C([H])([H])C([H])([H])N(C(=O)N4C([H])([H])C([H])([H])C([H])([H])C([H])(n5nc(-c6c([H])c([H])c(Oc7c([H])c([H])c(F)c([H])c7F)c([H])c6[H])c(C(=O)N([H])[H])c5N([H])[H])C4([H])[H])C([H])([H])C([H])([H])[H])c(C([H])([H])[H])c3[H])c([H])c([H])c2C1([H])[H]

$$$$
85:0:0
     RDKit          3D

100108  0  0  1  0  0  0  0  0999 V2000
  -28.1080  -20.2220   18.8510 C   0  0  0  0  0  3  0  0  0  0  0  0
  -28.6070  -19.7790   20.9820 C   0  0  0  0  0  3  0  0  0  0  0  0
  -28.1950  -20.7910   20.1570 C   0  0  0  0  0  0  0  0  0  0  0  0
  -28.4090  -18.8850   18.9270 C   0  0  0  0  0  0  0  0  0  0  0  0
  -28.7230  -18.6100   20.2590 N   0  0  0  0  0  0  0  0  0  0  0  0
  -28.4290  -17.8550   17.8510 C   0  0  0  0  0  0  0  0  0  0  0  0
  -27.6560  -18.1020   16.8010 N   0  0  0  0  0  0  0  0  0  0  0  0
  -29.0690  -16.8100   17.9380 O   0  0  0  0  0  0  0  0  0  0  0  0
  -27.1090  -18.9500   16.7690 H   0  0  0  0  0  0  0  0  0  0  0  0
  -27.5930  -17.4450   16.0360 H   0  0  0  0  0  0  0  0  0  0  0  0
  -27.2870  -22.2390   21.9970 C   0  0  0  0  0  1  0  0  0  0  0  0
  -27.8690  -22.2120   20.5760 C   0  0  0  0  0  3  0  0  0  0  0  0
  -29.0640  -23.0730   20.5010 N   0  0  0  0  0  4  0  0  0  0  0  0
  -29.0370  -23.6710   21.3100 H   0  0  0  0  0  0  0  0  0  0  0  0
  -29.8780  -22.4810   20.5810 H   0  0  0  0  0  0  0  0  0  0  0  0
  -29.1800  -23.9180   19.2900 C   0  0  0  0  0  2  0  0  0  0  0  0
  -30.0230  -25.1820   19.5560 C   0  0  0  0  0  2  0  0  0  0  0  0
  -30.1480  -27.0970   21.2250 C   0  0  0  0  0  1  0  0  0  0  0  0
  -29.2500  -26.3290   20.2470 C   0  0  0  0  0  3  0  0  0  0  0  0
  -28.8010  -27.2320   19.2420 O   0  0  0  0  0  0  0  0  0  0  0  0
  -24.6380  -31.6680   22.9850 C   0  0  0  0  0  0  0  0  0  0  0  0
  -27.5730  -27.8110   19.4390 C   0  0  0  0  0  0  0  0  0  0  0  0
  -23.5090  -30.3190   21.2460 C   0  0  0  0  0  3  0  0  0  0  0  0
  -25.0490  -29.0520   19.6570 C   0  0  0  0  0  0  0  0  0  0  0  0
  -25.9830  -30.9260   21.0250 C   0  0  0  0  0  2  0  0  0  0  0  0
  -26.1720  -29.6320   20.2660 C   0  0  0  0  0  0  0  0  0  0  0  0
  -27.4370  -29.0190   20.1550 C   0  0  0  0  0  3  0  0  0  0  0  0
  -26.4380  -27.2290   18.8390 C   0  0  0  0  0  3  0  0  0  0  0  0
  -25.1740  -27.8420   18.9480 C   0  0  0  0  0  3  0  0  0  0  0  0
  -23.7380  -29.7870   19.8040 C   0  0  0  0  0  2  0  0  0  0  0  0
  -24.7280  -30.9810   21.8110 N   0  0  0  0  0  0  0  0  0  0  0  0
  -23.5540  -31.7910   23.5730 O   0  0  0  0  0  0  0  0  0  0  0  0
  -22.9800  -29.1590   22.1210 C   0  0  0  0  0  0  0  0  0  0  0  0
  -21.6710  -28.8780   22.0110 N   0  0  0  0  0  0  0  0  0  0  0  0
  -23.7420  -28.5180   22.8500 O   0  0  0  0  0  0  0  0  0  0  0  0
  -21.1160  -29.4530   21.3930 H   0  0  0  0  0  0  0  0  0  0  0  0
  -18.4250  -27.3620   22.4700 C   0  0  0  0  0  0  0  0  0  0  0  0
  -20.9600  -27.8070   22.7070 C   0  0  0  0  0  3  0  0  0  0  0  0
  -21.1640  -26.4520   21.9900 C   0  0  0  0  0  2  0  0  0  0  0  0
  -20.0600  -26.1340   20.9780 C   0  0  0  0  0  2  0  0  0  0  0  0
  -18.6910  -26.1010   21.6630 C   0  0  0  0  0  2  0  0  0  0  0  0
  -19.4900  -28.1720   22.9440 C   0  0  0  0  0  0  0  0  0  0  0  0
  -19.1870  -29.3540   23.6560 C   0  0  0  0  0  3  0  0  0  0  0  0
  -17.8510  -29.7250   23.8990 C   0  0  0  0  0  3  0  0  0  0  0  0
  -16.8020  -28.9110   23.4400 C   0  0  0  0  0  3  0  0  0  0  0  0
  -17.0890  -27.7320   22.7300 C   0  0  0  0  0  3  0  0  0  0  0  0
  -25.8830  -32.3510   23.6310 C   0  0  0  0  0  3  0  0  0  0  0  0
  -25.4620  -33.6730   24.1100 N   0  0  0  0  0  0  0  0  0  0  0  0
  -25.6790  -34.8230   23.4560 C   0  0  0  0  0  0  0  0  0  0  0  0
  -26.3260  -34.8850   22.4060 O   0  0  0  0  0  0  0  0  0  0  0  0
  -24.8790  -33.6930   24.9340 H   0  0  0  0  0  0  0  0  0  0  0  0
  -23.7840  -36.4720   23.3230 C   0  0  0  0  0  1  0  0  0  0  0  0
  -25.0820  -36.1090   24.0610 C   0  0  0  0  0  3  0  0  0  0  0  0
  -27.1540  -37.1020   24.9260 C   0  0  0  0  0  1  0  0  0  0  0  0
  -26.0110  -37.2590   24.0310 N   0  0  0  0  0  0  0  0  0  0  0  0
  -25.5300  -38.1170   24.2790 H   0  0  0  0  0  0  0  0  0  0  0  0
  -26.5150  -31.5050   24.8040 C   0  0  1  0  0  0  0  0  0  0  0  0
  -25.4890  -31.0650   25.8740 C   0  0  0  0  0  1  0  0  0  0  0  0
  -27.1940  -30.2300   24.2490 C   0  0  0  0  0  1  0  0  0  0  0  0
  -27.6170  -32.3300   25.5100 C   0  0  0  0  0  1  0  0  0  0  0  0
  -29.0620  -17.3320   20.8660 C   0  0  0  0  0  2  0  0  0  0  0  0
  -30.5720  -17.0500   20.8830 C   0  0  0  0  0  2  0  0  0  0  0  0
  -31.2520  -14.7990   20.2110 C   0  0  0  0  0  0  0  0  0  0  0  0
  -30.8390  -12.7190   18.9440 C   0  0  0  0  0  2  0  0  0  0  0  0
  -29.8600  -12.9310   17.7720 C   0  0  0  0  0  2  0  0  0  0  0  0
  -28.4020  -12.7860   18.2440 C   0  0  0  0  0  2  0  0  0  0  0  0
  -28.1060  -13.6380   19.5000 C   0  0  0  0  0  3  0  0  0  0  0  0
  -29.1790  -13.4010   20.5860 C   0  0  0  0  0  2  0  0  0  0  0  0
  -30.5100  -13.6750   20.0090 N   0  0  0  0  0  0  0  0  0  0  0  0
  -32.2440  -15.0840   19.5320 O   0  0  0  0  0  0  0  0  0  0  0  0
  -31.1150  -15.3110   22.5690 C   0  0  0  0  0  1  0  0  0  0  0  0
  -30.8030  -15.6260   21.1750 N   0  0  0  0  0  0  0  0  0  0  0  0
  -25.7340  -14.2940   20.2640 C   0  0  0  0  0  0  0  0  0  0  0  0
  -24.6670  -13.5360   20.6710 C   0  0  0  0  0  0  0  0  0  0  0  0
  -25.1110  -12.1790   20.6320 C   0  0  0  0  0  0  0  0  0  0  0  0
  -26.7620  -13.3970   20.0140 N   0  0  0  0  0  0  0  0  0  0  0  0
  -26.3900  -12.1210   20.2910 N   0  0  0  0  0  0  0  0  0  0  0  0
  -24.3750  -10.9270   20.8380 C   0  0  0  0  0  0  0  0  0  0  0  0
  -24.7740   -9.9900   21.8150 C   0  0  0  0  0  3  0  0  0  0  0  0
  -24.0350   -8.8020   22.0100 C   0  0  0  0  0  3  0  0  0  0  0  0
  -22.8890   -8.5430   21.2220 C   0  0  0  0  0  0  0  0  0  0  0  0
  -22.5150   -9.4680   20.2320 C   0  0  0  0  0  3  0  0  0  0  0  0
  -23.2510  -10.6470   20.0380 C   0  0  0  0  0  3  0  0  0  0  0  0
  -22.1240   -7.4060   21.3230 O   0  0  0  0  0  0  0  0  0  0  0  0
  -21.9680   -6.7440   22.5160 C   0  0  0  0  0  0  0  0  0  0  0  0
  -21.4360   -7.3810   23.6580 C   0  0  0  0  0  3  0  0  0  0  0  0
  -21.2350   -6.6480   24.8440 C   0  0  0  0  0  3  0  0  0  0  0  0
  -21.5460   -5.2770   24.8860 C   0  0  0  0  0  0  0  0  0  0  0  0
  -22.0650   -4.6360   23.7450 C   0  0  0  0  0  3  0  0  0  0  0  0
  -22.2750   -5.3690   22.5630 C   0  0  0  0  0  0  0  0  0  0  0  0
  -22.7590   -4.7410   21.4630 F   0  0  0  0  0  0  0  0  0  0  0  0
  -21.3450   -4.5690   26.0220 F   0  0  0  0  0  0  0  0  0  0  0  0
  -23.2820  -14.0310   20.9720 C   0  0  0  0  0  0  0  0  0  0  0  0
  -22.5750  -13.3640   21.8770 N   0  0  0  0  0  0  0  0  0  0  0  0
  -22.8340  -15.0460   20.4390 O   0  0  0  0  0  0  0  0  0  0  0  0
  -22.9460  -12.5440   22.3360 H   0  0  0  0  0  0  0  0  0  0  0  0
  -21.6470  -13.6840   22.1190 H   0  0  0  0  0  0  0  0  0  0  0  0
  -25.8980  -15.6600   20.0590 N   0  0  0  0  0  0  0  0  0  0  0  0
  -25.1220  -16.3050   20.1720 H   0  0  0  0  0  0  0  0  0  0  0  0
  -26.6870  -16.0720   19.5770 H   0  0  0  0  0  0  0  0  0  0  0  0
  1  4  2  0
  1  3  1  0
  3 12  1  0
  3  2  2  0
  4  5  1  0
  5 61  1  0
  5  2  1  0
  6  8  2  0
  6  4  1  0
  7  6  1  0
  9  7  1  0
 10  7  1  0
 12 11  1  0
 13 12  1  0
 13 15  1  0
 13 14  1  0
 16 17  1  0
 16 13  1  0
 17 19  1  0
 19 18  1  0
 20 22  1  0
 20 19  1  0
 21 32  2  0
 22 27  1  0
 23 31  1  0
 23 33  1  0
 24 30  1  0
 24 26  1  0
 25 31  1  0
 26 25  1  0
 27 26  2  0
 28 29  1  0
 28 22  2  0
 29 24  2  0
 30 23  1  0
 31 21  1  0
 33 35  2  0
 34 33  1  0
 36 34  1  0
 37 46  2  0
 37 42  1  0
 38 34  1  0
 38 42  1  0
 39 38  1  0
 40 41  1  0
 40 39  1  0
 41 37  1  0
 42 43  2  0
 43 44  1  0
 45 44  2  0
 46 45  1  0
 47 21  1  0
 47 48  1  0
 47 57  1  0
 48 51  1  0
 49 53  1  0
 49 48  1  0
 50 49  2  0
 53 52  1  0
 55 53  1  0
 55 56  1  0
 55 54  1  0
 57 60  1  1
 57 58  1  0
 59 57  1  0
 61 62  1  0
 62 72  1  0
 63 72  1  0
 64 69  1  0
 65 66  1  0
 65 64  1  0
 67 66  1  0
 67 76  1  0
 67 68  1  0
 69 63  1  0
 69 68  1  0
 70 63  2  0
 72 71  1  0
 73 74  2  0
 74 93  1  0
 75 74  1  0
 75 78  1  0
 76 73  1  0
 76 77  1  0
 77 75  2  0
 78 79  1  0
 79 80  2  0
 81 84  1  0
 81 80  1  0
 82 81  2  0
 83 82  1  0
 83 78  2  0
 84 85  1  0
 85 90  2  0
 85 86  1  0
 86 87  2  0
 87 88  1  0
 88 92  1  0
 89 88  2  0
 90 89  1  0
 91 90  1  0
 93 94  1  0
 94 97  1  0
 94 96  1  0
 95 93  2  0
 98 99  1  0
 98 73  1  0
100 98  1  0
M  ISO  4  19 101  20 101  63 100  72 100
M  END
>  <TORSDO>  (85) 
F 24

>  <SCORE>  (85) 
-8.631

>  <name>  (85) 
85

>  <ligand_id>  (85) 
85

>  <original_smiles>  (85) 
[H]c1c([H])c([H])c2c(c1[H])C([H])([H])C([H])([H])C([H])([H])C2([H])N([H])C(=O)C1([H])N(C(=O)C([H])(N([H])C(=O)C([H])(N([H])C([H])([H])[H])C([H])([H])[H])C(C([H])([H])[H])(C([H])([H])[H])C([H])([H])[H])C([H])([H])c2c([H])c(OC([H])(C([H])([H])[H])C([H])([H])C([H])([H])[N+]([H])([H])C([H])(c3c([H])c(C(=O)N([H])[H])n(C([H])([H])C([H])([H])N(C(=O)N4C([H])([H])C([H])([H])C([H])([H])C([H])(n5nc(-c6c([H])c([H])c(Oc7c([H])c([H])c(F)c([H])c7F)c([H])c6[H])c(C(=O)N([H])[H])c5N([H])[H])C4([H])[H])C([H])([H])[H])c3[H])C([H])([H])[H])c([H])c([H])c2C1([H])[H]

>  <smiles>  (85) 
[H]c1c([H])c([H])c2c(c1[H])C([H])([H])C([H])([H])C([H])([H])C2([H])N([H])C(=O)C1([H])N(C(=O)C([H])(N([H])C(=O)C([H])(N([H])C([H])([H])[H])C([H])([H])[H])C(C([H])([H])[H])(C([H])([H])[H])C([H])([H])[H])C([H])([H])c2c([H])c(OC([H])(C([H])([H])[H])C([H])([H])C([H])([H])[N+]([H])([H])C([H])(c3c([H])c(C(=O)N([H])[H])n(C([H])([H])C([H])([H])N(C(=O)N4C([H])([H])C([H])([H])C([H])([H])C([H])(n5nc(-c6c([H])c([H])c(Oc7c([H])c([H])c(F)c([H])c7F)c([H])c6[H])c(C(=O)N([H])[H])c5N([H])[H])C4([H])[H])C([H])([H])[H])c3[H])C([H])([H])[H])c([H])c([H])c2C1([H])[H]

$$$$
86:0:0
     RDKit          3D

 94102  0  0  1  0  0  0  0  0999 V2000
  -28.7030  -20.4490   21.2960 C   0  0  0  0  0  2  0  0  0  0  0  0
  -30.4850  -18.5170   21.6100 C   0  0  0  0  0  2  0  0  0  0  0  0
  -28.8110  -18.2510   19.8400 C   0  0  0  0  0  2  0  0  0  0  0  0
  -30.5310  -17.0140   21.9260 C   0  0  0  0  0  2  0  0  0  0  0  0
  -28.6770  -16.7260   20.0440 C   0  0  0  0  0  2  0  0  0  0  0  0
  -29.0840  -18.9440   21.1780 C   0  0  0  0  0  3  0  0  0  0  0  0
  -29.6870  -16.0350   21.0380 C   0  0  0  0  0  3  0  0  0  0  0  0
  -30.3590  -14.3590   19.2690 C   0  0  0  0  0  0  0  0  0  0  0  0
  -29.6550  -12.4330   17.8780 C   0  0  0  0  0  2  0  0  0  0  0  0
  -28.4500  -12.7650   16.9820 C   0  0  0  0  0  2  0  0  0  0  0  0
  -27.1290  -12.5280   17.7360 C   0  0  0  0  0  2  0  0  0  0  0  0
  -27.1120  -13.2070   19.1290 C   0  0  0  0  0  3  0  0  0  0  0  0
  -28.4040  -12.8950   19.9210 C   0  0  0  0  0  2  0  0  0  0  0  0
  -29.5760  -13.2540   19.0960 N   0  0  0  0  0  0  0  0  0  0  0  0
  -31.0880  -14.8100   18.3810 O   0  0  0  0  0  0  0  0  0  0  0  0
  -30.4330  -14.8300   20.5410 N   0  0  0  0  0  0  0  0  0  0  0  0
  -24.9660  -13.6720   20.4740 C   0  0  0  0  0  0  0  0  0  0  0  0
  -24.0110  -12.8420   20.9920 C   0  0  0  0  0  0  0  0  0  0  0  0
  -24.4340  -11.5130   20.6770 C   0  0  0  0  0  0  0  0  0  0  0  0
  -25.9130  -12.8470   19.8850 N   0  0  0  0  0  0  0  0  0  0  0  0
  -25.6080  -11.5370   20.0590 N   0  0  0  0  0  0  0  0  0  0  0  0
  -23.7580  -10.2250   20.8800 C   0  0  0  0  0  0  0  0  0  0  0  0
  -24.2580   -9.2620   21.7830 C   0  0  0  0  0  3  0  0  0  0  0  0
  -23.5760   -8.0400   21.9750 C   0  0  0  0  0  3  0  0  0  0  0  0
  -22.3830   -7.7740   21.2650 C   0  0  0  0  0  0  0  0  0  0  0  0
  -21.8990   -8.7300   20.3520 C   0  0  0  0  0  3  0  0  0  0  0  0
  -22.5810   -9.9430   20.1600 C   0  0  0  0  0  3  0  0  0  0  0  0
  -21.6710   -6.6030   21.3690 O   0  0  0  0  0  0  0  0  0  0  0  0
  -21.5440   -5.9430   22.5660 C   0  0  0  0  0  0  0  0  0  0  0  0
  -20.9920   -6.5670   23.7070 C   0  0  0  0  0  3  0  0  0  0  0  0
  -20.8070   -5.8280   24.8930 C   0  0  0  0  0  3  0  0  0  0  0  0
  -21.1710   -4.4700   24.9410 C   0  0  0  0  0  0  0  0  0  0  0  0
  -21.7160   -3.8460   23.8060 C   0  0  0  0  0  3  0  0  0  0  0  0
  -21.8990   -4.5790   22.6200 C   0  0  0  0  0  0  0  0  0  0  0  0
  -22.4040   -3.9650   21.5230 F   0  0  0  0  0  0  0  0  0  0  0  0
  -20.9850   -3.7590   26.0780 F   0  0  0  0  0  0  0  0  0  0  0  0
  -22.7300  -13.2570   21.6570 C   0  0  0  0  0  0  0  0  0  0  0  0
  -22.2560  -12.4820   22.6250 N   0  0  0  0  0  0  0  0  0  0  0  0
  -22.1630  -14.3080   21.3560 O   0  0  0  0  0  0  0  0  0  0  0  0
  -22.7270  -11.6280   22.8930 H   0  0  0  0  0  0  0  0  0  0  0  0
  -21.3990  -12.7360   23.0960 H   0  0  0  0  0  0  0  0  0  0  0  0
  -25.1000  -15.0560   20.4350 N   0  0  0  0  0  0  0  0  0  0  0  0
  -24.4050  -15.6820   20.8290 H   0  0  0  0  0  0  0  0  0  0  0  0
  -25.8460  -15.5420   19.9580 H   0  0  0  0  0  0  0  0  0  0  0  0
  -32.8330  -14.2220   21.0970 C   0  0  0  0  0  1  0  0  0  0  0  0
  -31.0730  -14.2820   22.9570 C   0  0  0  0  0  1  0  0  0  0  0  0
  -31.3370  -14.0700   21.4550 C   0  0  0  0  0  3  0  0  0  0  0  0
  -30.9550  -21.6320   21.6300 C   0  0  0  0  0  1  0  0  0  0  0  0
  -29.8880  -21.6270   19.3470 C   0  0  0  0  0  1  0  0  0  0  0  0
  -29.6180  -21.6400   20.8610 C   0  0  1  0  0  0  0  0  0  0  0  0
  -28.8040  -22.9180   21.2260 C   0  0  0  0  0  2  0  0  0  0  0  0
  -29.4660  -24.3190   21.1870 C   0  0  0  0  0  2  0  0  0  0  0  0
  -28.3800  -25.3730   21.4750 C   0  0  0  0  0  2  0  0  0  0  0  0
  -28.8260  -26.6820   21.8620 O   0  0  0  0  0  0  0  0  0  0  0  0
  -28.0470  -31.8920   26.6660 C   0  0  0  0  0  0  0  0  0  0  0  0
  -27.9440  -27.3900   22.6650 C   0  0  0  0  0  0  0  0  0  0  0  0
  -26.1110  -30.3810   26.3920 C   0  0  0  0  0  3  0  0  0  0  0  0
  -26.1960  -28.8290   24.3730 C   0  0  0  0  0  0  0  0  0  0  0  0
  -27.7230  -30.8030   24.4460 C   0  0  0  0  0  2  0  0  0  0  0  0
  -27.3990  -29.4090   23.9510 C   0  0  0  0  0  0  0  0  0  0  0  0
  -28.2730  -28.6970   23.0960 C   0  0  0  0  0  3  0  0  0  0  0  0
  -26.7090  -26.8380   23.0910 C   0  0  0  0  0  3  0  0  0  0  0  0
  -25.8490  -27.5400   23.9490 C   0  0  0  0  0  3  0  0  0  0  0  0
  -25.3120  -29.6500   25.2840 C   0  0  0  0  0  2  0  0  0  0  0  0
  -27.3480  -31.0420   25.8610 N   0  0  0  0  0  0  0  0  0  0  0  0
  -27.6560  -32.1570   27.8100 O   0  0  0  0  0  0  0  0  0  0  0  0
  -26.3920  -29.3840   27.5390 C   0  0  0  0  0  0  0  0  0  0  0  0
  -25.5770  -29.4540   28.6040 N   0  0  0  0  0  0  0  0  0  0  0  0
  -27.3010  -28.5560   27.4500 O   0  0  0  0  0  0  0  0  0  0  0  0
  -24.8590  -30.1660   28.6060 H   0  0  0  0  0  0  0  0  0  0  0  0
  -24.3910  -29.0920   31.9980 C   0  0  0  0  0  0  0  0  0  0  0  0
  -25.6290  -28.5930   29.7860 C   0  0  0  0  0  3  0  0  0  0  0  0
  -24.6730  -27.3890   29.6380 C   0  0  0  0  0  2  0  0  0  0  0  0
  -23.2880  -27.6420   30.2400 C   0  0  0  0  0  2  0  0  0  0  0  0
  -23.4030  -27.9680   31.7330 C   0  0  0  0  0  2  0  0  0  0  0  0
  -25.4270  -29.3960   31.0760 C   0  0  0  0  0  0  0  0  0  0  0  0
  -26.2960  -30.4720   31.3520 C   0  0  0  0  0  3  0  0  0  0  0  0
  -26.1460  -31.2360   32.5230 C   0  0  0  0  0  3  0  0  0  0  0  0
  -25.1290  -30.9230   33.4410 C   0  0  0  0  0  3  0  0  0  0  0  0
  -24.2570  -29.8510   33.1800 C   0  0  0  0  0  3  0  0  0  0  0  0
  -29.3550  -32.5880   26.1780 C   0  0  0  0  0  3  0  0  0  0  0  0
  -29.2530  -34.0120   26.5240 N   0  0  0  0  0  0  0  0  0  0  0  0
  -28.9250  -34.9820   25.6610 C   0  0  0  0  0  0  0  0  0  0  0  0
  -28.7450  -34.7740   24.4580 O   0  0  0  0  0  0  0  0  0  0  0  0
  -29.3300  -34.2460   27.5030 H   0  0  0  0  0  0  0  0  0  0  0  0
  -27.2810  -36.7350   26.4040 C   0  0  0  0  0  1  0  0  0  0  0  0
  -28.7720  -36.4090   26.2210 C   0  0  0  0  0  3  0  0  0  0  0  0
  -30.8670  -37.3700   25.3740 C   0  0  0  0  0  1  0  0  0  0  0  0
  -29.4070  -37.4430   25.3770 N   0  0  0  0  0  0  0  0  0  0  0  0
  -29.1370  -38.3740   25.6810 H   0  0  0  0  0  0  0  0  0  0  0  0
  -30.6620  -31.9540   26.7940 C   0  0  1  0  0  0  0  0  0  0  0  0
  -30.5710  -31.7020   28.3180 C   0  0  0  0  0  1  0  0  0  0  0  0
  -30.9870  -30.6050   26.1130 C   0  0  0  0  0  1  0  0  0  0  0  0
  -31.8690  -32.8840   26.5310 C   0  0  0  0  0  1  0  0  0  0  0  0
  2  4  1  0
  3  5  1  0
  3  6  1  0
  5  7  1  0
  6  1  1  0
  6  2  1  0
  7 16  1  0
  7  4  1  0
  8 16  1  0
  9 14  1  0
 10 11  1  0
 10  9  1  0
 12 11  1  0
 12 20  1  0
 12 13  1  0
 14  8  1  0
 14 13  1  0
 15  8  2  0
 16 47  1  0
 17 18  2  0
 18 37  1  0
 19 22  1  0
 19 18  1  0
 20 21  1  0
 20 17  1  0
 21 19  2  0
 22 23  1  0
 23 24  2  0
 25 28  1  0
 25 24  1  0
 26 25  2  0
 27 26  1  0
 27 22  2  0
 28 29  1  0
 29 34  2  0
 29 30  1  0
 30 31  2  0
 31 32  1  0
 32 36  1  0
 33 32  2  0
 34 33  1  0
 35 34  1  0
 37 38  1  0
 38 40  1  0
 38 41  1  0
 39 37  2  0
 42 17  1  0
 42 43  1  0
 44 42  1  0
 45 47  1  0
 47 46  1  0
 50 49  1  6
 50 51  1  0
 50  1  1  0
 50 48  1  0
 52 51  1  0
 52 53  1  0
 53 54  1  0
 54 56  1  0
 55 66  2  0
 56 62  2  0
 56 61  1  0
 57 67  1  0
 58 64  1  0
 59 65  1  0
 60 58  1  0
 60 59  1  0
 61 60  2  0
 62 63  1  0
 63 58  2  0
 64 57  1  0
 65 57  1  0
 65 55  1  0
 67 68  1  0
 68 70  1  0
 69 67  2  0
 71 80  1  0
 72 68  1  0
 72 76  1  0
 73 72  1  0
 73 74  1  0
 74 75  1  0
 75 71  1  0
 76 77  1  0
 76 71  2  0
 77 78  2  0
 78 79  1  0
 80 79  2  0
 81 82  1  0
 81 55  1  0
 81 91  1  0
 82 85  1  0
 83 87  1  0
 83 82  1  0
 84 83  2  0
 87 86  1  0
 88 89  1  0
 89 90  1  0
 89 87  1  0
 91 92  1  1
 93 91  1  0
 94 91  1  0
M  ISO  4   8 100  16 100  53 101  54 101
M  END
>  <TORSDO>  (86) 
F 22

>  <SCORE>  (86) 
-4.328

>  <name>  (86) 
86

>  <ligand_id>  (86) 
86

>  <original_smiles>  (86) 
[H]c1c([H])c([H])c2c(c1[H])C([H])([H])C([H])([H])C([H])([H])C2([H])N([H])C(=O)C1([H])N(C(=O)C([H])(N([H])C(=O)C([H])(N([H])C([H])([H])[H])C([H])([H])[H])C(C([H])([H])[H])(C([H])([H])[H])C([H])([H])[H])C([H])([H])c2c([H])c(OC([H])([H])C([H])([H])C([H])([H])C(C([H])([H])[H])(C([H])([H])[H])C([H])([H])C3([H])C([H])([H])C([H])([H])C([H])(N(C(=O)N4C([H])([H])C([H])([H])C([H])([H])C([H])(n5nc(-c6c([H])c([H])c(Oc7c([H])c([H])c(F)c([H])c7F)c([H])c6[H])c(C(=O)N([H])[H])c5N([H])[H])C4([H])[H])C([H])(C([H])([H])[H])C([H])([H])[H])C([H])([H])C3([H])[H])c([H])c([H])c2C1([H])[H]

>  <smiles>  (86) 
[H]c1c([H])c([H])c2c(c1[H])C([H])([H])C([H])([H])C([H])([H])C2([H])N([H])C(=O)C1([H])N(C(=O)C([H])(N([H])C(=O)C([H])(N([H])C([H])([H])[H])C([H])([H])[H])C(C([H])([H])[H])(C([H])([H])[H])C([H])([H])[H])C([H])([H])c2c([H])c(OC([H])([H])C([H])([H])C([H])([H])C(C([H])([H])[H])(C([H])([H])[H])C([H])([H])C3([H])C([H])([H])C([H])([H])C([H])(N(C(=O)N4C([H])([H])C([H])([H])C([H])([H])C([H])(n5nc(-c6c([H])c([H])c(Oc7c([H])c([H])c(F)c([H])c7F)c([H])c6[H])c(C(=O)N([H])[H])c5N([H])[H])C4([H])[H])C([H])(C([H])([H])[H])C([H])([H])[H])C([H])([H])C3([H])[H])c([H])c([H])c2C1([H])[H]

$$$$
87:0:0
     RDKit          3D

 95103  0  0  1  0  0  0  0  0999 V2000
  -31.5160  -18.6600   19.3050 C   0  0  0  0  0  2  0  0  0  0  0  0
  -31.0740  -19.8960   18.9090 C   0  0  0  0  0  2  0  0  0  0  0  0
  -31.2230  -18.4670   20.6870 C   0  0  0  0  0  0  0  0  0  0  0  0
  -30.7180  -19.6970   21.1070 C   0  0  0  0  0  0  0  0  0  0  0  0
  -30.4470  -20.5090   19.9840 N   0  0  0  0  0  0  0  0  0  0  0  0
  -30.4370  -20.1930   22.4820 C   0  0  0  0  0  0  0  0  0  0  0  0
  -30.4390  -21.5100   22.6470 N   0  0  0  0  0  0  0  0  0  0  0  0
  -30.3150  -19.4270   23.4350 O   0  0  0  0  0  0  0  0  0  0  0  0
  -30.5930  -22.1100   21.8490 H   0  0  0  0  0  0  0  0  0  0  0  0
  -30.3130  -21.9150   23.5580 H   0  0  0  0  0  0  0  0  0  0  0  0
  -31.5470  -17.1790   21.5010 C   0  0  0  0  0  2  0  0  0  0  0  0
  -31.6060  -14.7550   20.6920 C   0  0  0  0  0  0  0  0  0  0  0  0
  -31.3320  -12.4420   19.8150 C   0  0  0  0  0  2  0  0  0  0  0  0
  -30.4850  -12.4610   18.5290 C   0  0  0  0  0  2  0  0  0  0  0  0
  -28.9770  -12.3860   18.8660 C   0  0  0  0  0  2  0  0  0  0  0  0
  -28.5590  -13.4030   19.9670 C   0  0  0  0  0  3  0  0  0  0  0  0
  -29.5340  -13.3600   21.1620 C   0  0  0  0  0  2  0  0  0  0  0  0
  -30.8960  -13.5850   20.6470 N   0  0  0  0  0  0  0  0  0  0  0  0
  -32.7760  -14.8140   20.3140 O   0  0  0  0  0  0  0  0  0  0  0  0
  -30.9490  -15.8760   21.0860 N   0  0  0  0  0  0  0  0  0  0  0  0
  -29.9680  -15.7580   21.2870 H   0  0  0  0  0  0  0  0  0  0  0  0
  -26.1730  -14.1320   20.5760 C   0  0  0  0  0  0  0  0  0  0  0  0
  -25.0430  -13.4240   20.8740 C   0  0  0  0  0  0  0  0  0  0  0  0
  -25.4180  -12.0440   20.8340 C   0  0  0  0  0  0  0  0  0  0  0  0
  -27.1730  -13.1970   20.3770 N   0  0  0  0  0  0  0  0  0  0  0  0
  -26.7200  -11.9340   20.5900 N   0  0  0  0  0  0  0  0  0  0  0  0
  -24.6050  -10.8280   20.9520 C   0  0  0  0  0  0  0  0  0  0  0  0
  -24.9180   -9.8230   21.8910 C   0  0  0  0  0  3  0  0  0  0  0  0
  -24.1100   -8.6690   22.0010 C   0  0  0  0  0  3  0  0  0  0  0  0
  -22.9740   -8.5130   21.1720 C   0  0  0  0  0  0  0  0  0  0  0  0
  -22.6790   -9.5100   20.2240 C   0  0  0  0  0  3  0  0  0  0  0  0
  -23.4870  -10.6550   20.1110 C   0  0  0  0  0  3  0  0  0  0  0  0
  -22.1480   -7.4130   21.1900 O   0  0  0  0  0  0  0  0  0  0  0  0
  -21.9520   -6.6810   22.3340 C   0  0  0  0  0  0  0  0  0  0  0  0
  -21.4360   -7.2610   23.5150 C   0  0  0  0  0  3  0  0  0  0  0  0
  -21.1840   -6.4550   24.6440 C   0  0  0  0  0  3  0  0  0  0  0  0
  -21.4410   -5.0710   24.5930 C   0  0  0  0  0  0  0  0  0  0  0  0
  -21.9580   -4.4930   23.4200 C   0  0  0  0  0  3  0  0  0  0  0  0
  -22.2090   -5.2960   22.2940 C   0  0  0  0  0  0  0  0  0  0  0  0
  -22.6790   -4.7290   21.1570 F   0  0  0  0  0  0  0  0  0  0  0  0
  -21.1960   -4.2970   25.6770 F   0  0  0  0  0  0  0  0  0  0  0  0
  -23.6640  -13.9820   21.0900 C   0  0  0  0  0  0  0  0  0  0  0  0
  -22.8540  -13.3240   21.9090 N   0  0  0  0  0  0  0  0  0  0  0  0
  -23.3210  -15.0410   20.5650 O   0  0  0  0  0  0  0  0  0  0  0  0
  -23.1400  -12.4670   22.3590 H   0  0  0  0  0  0  0  0  0  0  0  0
  -21.9290  -13.6870   22.0950 H   0  0  0  0  0  0  0  0  0  0  0  0
  -26.4390  -15.4920   20.4350 N   0  0  0  0  0  0  0  0  0  0  0  0
  -25.7200  -16.2040   20.5290 H   0  0  0  0  0  0  0  0  0  0  0  0
  -27.3330  -15.8670   20.1450 H   0  0  0  0  0  0  0  0  0  0  0  0
  -29.5130  -21.6780   19.8730 C   0  0  0  0  0  3  0  0  0  0  0  0
  -30.0360  -23.1570   19.9880 C   0  0  0  0  0  3  0  0  0  0  0  0
  -27.9950  -24.2200   21.3020 C   0  0  0  0  0  1  0  0  0  0  0  0
  -28.9050  -24.2720   20.0480 C   0  0  0  0  0  3  0  0  0  0  0  0
  -29.3520  -25.7330   19.6250 C   0  0  0  0  0  2  0  0  0  0  0  0
  -29.1390  -26.9130   20.4740 O   0  0  0  0  0  0  0  0  0  0  0  0
  -24.8470  -31.9080   23.4140 C   0  0  0  0  0  0  0  0  0  0  0  0
  -27.9490  -27.6400   20.4050 C   0  0  0  0  0  0  0  0  0  0  0  0
  -23.8420  -30.4630   21.6810 C   0  0  0  0  0  3  0  0  0  0  0  0
  -25.4770  -29.0570   20.3110 C   0  0  0  0  0  0  0  0  0  0  0  0
  -26.3550  -30.9720   21.6470 C   0  0  0  0  0  2  0  0  0  0  0  0
  -26.5700  -29.6180   20.9860 C   0  0  0  0  0  0  0  0  0  0  0  0
  -27.8070  -28.9180   21.0310 C   0  0  0  0  0  3  0  0  0  0  0  0
  -26.8230  -27.1160   19.7350 C   0  0  0  0  0  3  0  0  0  0  0  0
  -25.6050  -27.8110   19.6780 C   0  0  0  0  0  3  0  0  0  0  0  0
  -24.1790  -29.8320   20.3030 C   0  0  0  0  0  2  0  0  0  0  0  0
  -25.0280  -31.1290   22.3050 N   0  0  0  0  0  0  0  0  0  0  0  0
  -23.7190  -32.0940   23.8900 O   0  0  0  0  0  0  0  0  0  0  0  0
  -23.2040  -29.3810   22.5860 C   0  0  0  0  0  0  0  0  0  0  0  0
  -21.9040  -29.1160   22.3820 N   0  0  0  0  0  0  0  0  0  0  0  0
  -23.8790  -28.7810   23.4260 O   0  0  0  0  0  0  0  0  0  0  0  0
  -21.4160  -29.6580   21.6860 H   0  0  0  0  0  0  0  0  0  0  0  0
  -18.5950  -27.6820   22.6650 C   0  0  0  0  0  0  0  0  0  0  0  0
  -21.1110  -28.1040   23.0790 C   0  0  0  0  0  3  0  0  0  0  0  0
  -21.3390  -26.6990   22.4810 C   0  0  0  0  0  2  0  0  0  0  0  0
  -20.3200  -26.3290   21.3970 C   0  0  0  0  0  2  0  0  0  0  0  0
  -18.9020  -26.3640   21.9700 C   0  0  0  0  0  2  0  0  0  0  0  0
  -19.6350  -28.5040   23.1730 C   0  0  0  0  0  0  0  0  0  0  0  0
  -19.3030  -29.7340   23.7760 C   0  0  0  0  0  3  0  0  0  0  0  0
  -17.9620  -30.1500   23.8730 C   0  0  0  0  0  3  0  0  0  0  0  0
  -16.9340  -29.3220   23.3920 C   0  0  0  0  0  3  0  0  0  0  0  0
  -17.2480  -28.0890   22.7930 C   0  0  0  0  0  3  0  0  0  0  0  0
  -26.0430  -32.6230   24.1140 C   0  0  0  0  0  3  0  0  0  0  0  0
  -25.6350  -34.0100   24.3910 N   0  0  0  0  0  0  0  0  0  0  0  0
  -25.9450  -35.0590   23.6200 C   0  0  0  0  0  0  0  0  0  0  0  0
  -26.6710  -34.9710   22.6270 O   0  0  0  0  0  0  0  0  0  0  0  0
  -25.0020  -34.1540   25.1660 H   0  0  0  0  0  0  0  0  0  0  0  0
  -24.1200  -36.7240   23.1480 C   0  0  0  0  0  1  0  0  0  0  0  0
  -25.3540  -36.4240   24.0150 C   0  0  0  0  0  3  0  0  0  0  0  0
  -27.3890  -37.4710   24.8970 C   0  0  0  0  0  1  0  0  0  0  0  0
  -26.3200  -37.5390   23.9050 N   0  0  0  0  0  0  0  0  0  0  0  0
  -25.8490  -38.4350   24.0060 H   0  0  0  0  0  0  0  0  0  0  0  0
  -26.5000  -31.9030   25.4460 C   0  0  1  0  0  0  0  0  0  0  0  0
  -25.3400  -31.6190   26.4300 C   0  0  0  0  0  1  0  0  0  0  0  0
  -27.1830  -30.5530   25.1280 C   0  0  0  0  0  1  0  0  0  0  0  0
  -27.5450  -32.7700   26.1860 C   0  0  0  0  0  1  0  0  0  0  0  0
  1  3  1  0
  2  1  1  0
  2  5  1  0
  3  4  2  0
  3 11  1  0
  4  6  1  0
  5  4  1  0
  6  7  1  0
  6  8  2  0
  7 10  1  0
  9  7  1  0
 12 20  1  0
 13 18  1  0
 14 15  1  0
 14 13  1  0
 16 15  1  0
 16 25  1  0
 16 17  1  0
 18 12  1  0
 18 17  1  0
 19 12  2  0
 20 21  1  0
 20 11  1  0
 22 23  2  0
 23 42  1  0
 24 23  1  0
 24 27  1  0
 25 22  1  0
 25 26  1  0
 26 24  2  0
 27 28  1  0
 28 29  2  0
 30 33  1  0
 30 29  1  0
 31 30  2  0
 32 31  1  0
 32 27  2  0
 33 34  1  0
 34 35  1  0
 35 36  2  0
 37 36  1  0
 37 41  1  0
 38 37  2  0
 39 34  2  0
 39 38  1  0
 40 39  1  0
 42 43  1  0
 43 46  1  0
 43 45  1  0
 44 42  2  0
 47 48  1  0
 47 22  1  0
 49 47  1  0
 50  5  1  0
 50 51  2  0
 51 53  1  0
 53 52  1  0
 54 53  1  0
 54 55  1  0
 56 67  2  0
 57 55  1  0
 57 62  1  0
 58 66  1  0
 58 68  1  0
 59 61  1  0
 60 66  1  0
 61 62  2  0
 61 60  1  0
 63 57  2  0
 64 63  1  0
 64 59  2  0
 65 59  1  0
 65 58  1  0
 66 56  1  0
 68 70  2  0
 69 68  1  0
 71 69  1  0
 72 81  2  0
 72 77  1  0
 73 69  1  0
 73 77  1  0
 74 73  1  0
 75 76  1  0
 75 74  1  0
 76 72  1  0
 77 78  2  0
 78 79  1  0
 80 79  2  0
 81 80  1  0
 82 56  1  0
 82 83  1  0
 82 92  1  0
 83 86  1  0
 84 88  1  0
 84 83  1  0
 85 84  2  0
 88 87  1  0
 90 91  1  0
 90 88  1  0
 90 89  1  0
 92 95  1  1
 92 93  1  0
 94 92  1  0
M  ISO  4  12 100  20 100  54 101  55 101
M  END
>  <TORSDO>  (87) 
F 22

>  <SCORE>  (87) 
-11.190

>  <name>  (87) 
87

>  <ligand_id>  (87) 
87

>  <original_smiles>  (87) 
[H]c1c([H])c([H])c2c(c1[H])C([H])([H])C([H])([H])C([H])([H])C2([H])N([H])C(=O)C1([H])N(C(=O)C([H])(N([H])C(=O)C([H])(N([H])C([H])([H])[H])C([H])([H])[H])C(C([H])([H])[H])(C([H])([H])[H])C([H])([H])[H])C([H])([H])c2c([H])c(OC([H])([H])C([H])(C([H])([H])[H])C([H])([H])C([H])([H])n3c([H])c([H])c(C([H])([H])N([H])C(=O)N4C([H])([H])C([H])([H])C([H])([H])C([H])(n5nc(-c6c([H])c([H])c(Oc7c([H])c([H])c(F)c([H])c7F)c([H])c6[H])c(C(=O)N([H])[H])c5N([H])[H])C4([H])[H])c3C(=O)N([H])[H])c([H])c([H])c2C1([H])[H]

>  <smiles>  (87) 
[H]c1c([H])c([H])c2c(c1[H])C([H])([H])C([H])([H])C([H])([H])C2([H])N([H])C(=O)C1([H])N(C(=O)C([H])(N([H])C(=O)C([H])(N([H])C([H])([H])[H])C([H])([H])[H])C(C([H])([H])[H])(C([H])([H])[H])C([H])([H])[H])C([H])([H])c2c([H])c(OC([H])([H])C([H])(C([H])([H])[H])C([H])([H])C([H])([H])n3c([H])c([H])c(C([H])([H])N([H])C(=O)N4C([H])([H])C([H])([H])C([H])([H])C([H])(n5nc(-c6c([H])c([H])c(Oc7c([H])c([H])c(F)c([H])c7F)c([H])c6[H])c(C(=O)N([H])[H])c5N([H])[H])C4([H])[H])c3C(=O)N([H])[H])c([H])c([H])c2C1([H])[H]

$$$$
88:0:0
     RDKit          3D

 92100  0  0  1  0  0  0  0  0999 V2000
  -27.1960  -21.9270   18.0560 C   0  0  0  0  0  1  0  0  0  0  0  0
  -27.3900  -21.9240   19.5820 C   0  0  0  0  0  3  0  0  0  0  0  0
  -29.6370  -21.0050   20.7220 C   0  0  0  0  0  3  0  0  0  0  0  0
  -30.2110  -19.7680   20.8390 C   0  0  0  0  0  3  0  0  0  0  0  0
  -28.2700  -19.5330   19.7590 C   0  0  0  0  0  3  0  0  0  0  0  0
  -28.4040  -20.8730   20.0130 C   0  0  0  0  0  0  0  0  0  0  0  0
  -29.3580  -18.8460   20.2640 N   0  0  0  0  0  0  0  0  0  0  0  0
  -29.5650  -17.4100   20.1350 C   0  0  0  0  0  2  0  0  0  0  0  0
  -30.2410  -16.7590   21.3620 C   0  0  0  0  0  2  0  0  0  0  0  0
  -30.7080  -14.4210   20.6030 C   0  0  0  0  0  0  0  0  0  0  0  0
  -30.4110  -12.3190   19.3440 C   0  0  0  0  0  2  0  0  0  0  0  0
  -29.4750  -12.5770   18.1450 C   0  0  0  0  0  2  0  0  0  0  0  0
  -27.9940  -12.4550   18.5590 C   0  0  0  0  0  2  0  0  0  0  0  0
  -27.6650  -13.2560   19.8450 C   0  0  0  0  0  3  0  0  0  0  0  0
  -28.6990  -12.9450   20.9500 C   0  0  0  0  0  2  0  0  0  0  0  0
  -30.0420  -13.2510   20.4190 N   0  0  0  0  0  0  0  0  0  0  0  0
  -31.7750  -14.6980   20.0490 O   0  0  0  0  0  0  0  0  0  0  0  0
  -30.0410  -15.3120   21.3480 N   0  0  0  0  0  0  0  0  0  0  0  0
  -29.1950  -14.9710   21.7830 H   0  0  0  0  0  0  0  0  0  0  0  0
  -25.2600  -13.8970   20.5120 C   0  0  0  0  0  0  0  0  0  0  0  0
  -24.1780  -13.1380   20.8720 C   0  0  0  0  0  0  0  0  0  0  0  0
  -24.6270  -11.7810   20.8510 C   0  0  0  0  0  0  0  0  0  0  0  0
  -26.2990  -13.0030   20.2990 N   0  0  0  0  0  0  0  0  0  0  0  0
  -25.9180  -11.7260   20.5560 N   0  0  0  0  0  0  0  0  0  0  0  0
  -23.8870  -10.5270   21.0400 C   0  0  0  0  0  0  0  0  0  0  0  0
  -24.3030   -9.5610   21.9820 C   0  0  0  0  0  3  0  0  0  0  0  0
  -23.5670   -8.3690   22.1570 C   0  0  0  0  0  3  0  0  0  0  0  0
  -22.4030   -8.1360   21.3880 C   0  0  0  0  0  0  0  0  0  0  0  0
  -22.0080   -9.0900   20.4340 C   0  0  0  0  0  3  0  0  0  0  0  0
  -22.7420  -10.2730   20.2570 C   0  0  0  0  0  3  0  0  0  0  0  0
  -21.6390   -6.9960   21.4730 O   0  0  0  0  0  0  0  0  0  0  0  0
  -21.5700   -6.2600   22.6290 C   0  0  0  0  0  0  0  0  0  0  0  0
  -21.1270   -6.8240   23.8450 C   0  0  0  0  0  3  0  0  0  0  0  0
  -21.0040   -6.0130   24.9910 C   0  0  0  0  0  3  0  0  0  0  0  0
  -21.3150   -4.6420   24.9230 C   0  0  0  0  0  0  0  0  0  0  0  0
  -21.7520   -4.0790   23.7110 C   0  0  0  0  0  3  0  0  0  0  0  0
  -21.8770   -4.8860   22.5680 C   0  0  0  0  0  0  0  0  0  0  0  0
  -22.2780   -4.3350   21.3970 F   0  0  0  0  0  0  0  0  0  0  0  0
  -21.1900   -3.8620   26.0220 F   0  0  0  0  0  0  0  0  0  0  0  0
  -22.7820  -13.6280   21.1270 C   0  0  0  0  0  0  0  0  0  0  0  0
  -22.0370  -12.9390   21.9870 N   0  0  0  0  0  0  0  0  0  0  0  0
  -22.3600  -14.6540   20.5990 O   0  0  0  0  0  0  0  0  0  0  0  0
  -22.3890  -12.1070   22.4370 H   0  0  0  0  0  0  0  0  0  0  0  0
  -21.1000  -13.2490   22.2000 H   0  0  0  0  0  0  0  0  0  0  0  0
  -25.4440  -15.2630   20.3330 N   0  0  0  0  0  0  0  0  0  0  0  0
  -26.3130  -15.6840   20.0300 H   0  0  0  0  0  0  0  0  0  0  0  0
  -24.6860  -15.9310   20.4150 H   0  0  0  0  0  0  0  0  0  0  0  0
  -27.4660  -23.3330   20.2440 C   0  0  0  0  0  2  0  0  0  0  0  0
  -29.0020  -24.5880   18.5410 C   0  0  0  0  0  1  0  0  0  0  0  0
  -28.6750  -24.2830   20.0140 C   0  0  0  0  0  3  0  0  0  0  0  0
  -28.5340  -25.5760   20.8680 C   0  0  0  0  0  2  0  0  0  0  0  0
  -28.4320  -26.7830   20.1090 O   0  0  0  0  0  0  0  0  0  0  0  0
  -24.5570  -31.8870   23.2290 C   0  0  0  0  0  0  0  0  0  0  0  0
  -27.2390  -27.4600   20.1720 C   0  0  0  0  0  0  0  0  0  0  0  0
  -23.3640  -30.4770   21.5830 C   0  0  0  0  0  3  0  0  0  0  0  0
  -24.8300  -28.9320   20.1770 C   0  0  0  0  0  0  0  0  0  0  0  0
  -25.8860  -30.8470   21.3950 C   0  0  0  0  0  2  0  0  0  0  0  0
  -25.9810  -29.4730   20.7650 C   0  0  0  0  0  0  0  0  0  0  0  0
  -27.1900  -28.7440   20.7560 C   0  0  0  0  0  3  0  0  0  0  0  0
  -26.0730  -26.9210   19.5920 C   0  0  0  0  0  3  0  0  0  0  0  0
  -24.8690  -27.6540   19.5900 C   0  0  0  0  0  3  0  0  0  0  0  0
  -23.5830  -29.7870   20.2090 C   0  0  0  0  0  2  0  0  0  0  0  0
  -24.6200  -31.0850   22.1280 N   0  0  0  0  0  0  0  0  0  0  0  0
  -23.4720  -32.1590   23.7610 O   0  0  0  0  0  0  0  0  0  0  0  0
  -22.7080  -29.4590   22.5420 C   0  0  0  0  0  0  0  0  0  0  0  0
  -21.3840  -29.2790   22.4080 N   0  0  0  0  0  0  0  0  0  0  0  0
  -23.3870  -28.8340   23.3620 O   0  0  0  0  0  0  0  0  0  0  0  0
  -20.8990  -29.8330   21.7150 H   0  0  0  0  0  0  0  0  0  0  0  0
  -18.0030  -28.1030   22.8980 C   0  0  0  0  0  0  0  0  0  0  0  0
  -20.5620  -28.3430   23.1750 C   0  0  0  0  0  3  0  0  0  0  0  0
  -20.6570  -26.9150   22.5910 C   0  0  0  0  0  2  0  0  0  0  0  0
  -19.5540  -26.6030   21.5750 C   0  0  0  0  0  2  0  0  0  0  0  0
  -18.1730  -26.7550   22.2180 C   0  0  0  0  0  2  0  0  0  0  0  0
  -19.1260  -28.8560   23.3320 C   0  0  0  0  0  0  0  0  0  0  0  0
  -18.9160  -30.1190   23.9270 C   0  0  0  0  0  3  0  0  0  0  0  0
  -17.6150  -30.6290   24.0930 C   0  0  0  0  0  3  0  0  0  0  0  0
  -16.5060  -29.8730   23.6750 C   0  0  0  0  0  3  0  0  0  0  0  0
  -16.7010  -28.6110   23.0840 C   0  0  0  0  0  3  0  0  0  0  0  0
  -25.8390  -32.5200   23.8550 C   0  0  0  0  0  3  0  0  0  0  0  0
  -25.5270  -33.9180   24.1820 N   0  0  0  0  0  0  0  0  0  0  0  0
  -25.8700  -34.9690   23.4260 C   0  0  0  0  0  0  0  0  0  0  0  0
  -26.5550  -34.8650   22.4050 O   0  0  0  0  0  0  0  0  0  0  0  0
  -24.9200  -34.0730   24.9750 H   0  0  0  0  0  0  0  0  0  0  0  0
  -24.1560  -36.7670   23.0360 C   0  0  0  0  0  1  0  0  0  0  0  0
  -25.3770  -36.3580   23.8760 C   0  0  0  0  0  3  0  0  0  0  0  0
  -27.4930  -37.2340   24.7610 C   0  0  0  0  0  1  0  0  0  0  0  0
  -26.4150  -37.4090   23.7910 N   0  0  0  0  0  0  0  0  0  0  0  0
  -26.0080  -38.3290   23.9320 H   0  0  0  0  0  0  0  0  0  0  0  0
  -26.3540  -31.7500   25.1330 C   0  0  1  0  0  0  0  0  0  0  0  0
  -25.2580  -31.5100   26.1960 C   0  0  0  0  0  1  0  0  0  0  0  0
  -26.9420  -30.3750   24.7390 C   0  0  0  0  0  1  0  0  0  0  0  0
  -27.4990  -32.5470   25.8010 C   0  0  0  0  0  1  0  0  0  0  0  0
  2  1  1  0
  2  6  1  0
  2 48  1  0
  3  4  2  0
  5  6  2  0
  5  7  1  0
  6  3  1  0
  7  4  1  0
  8  7  1  0
  8  9  1  0
 10 18  1  0
 11 16  1  0
 12 13  1  0
 12 11  1  0
 14 13  1  0
 14 23  1  0
 14 15  1  0
 16 10  1  0
 16 15  1  0
 17 10  2  0
 18  9  1  0
 18 19  1  0
 20 21  2  0
 21 40  1  0
 22 21  1  0
 22 25  1  0
 23 20  1  0
 23 24  1  0
 24 22  2  0
 25 26  1  0
 26 27  2  0
 28 31  1  0
 28 27  1  0
 29 28  2  0
 30 29  1  0
 30 25  2  0
 31 32  1  0
 32 33  1  0
 33 34  2  0
 35 34  1  0
 35 39  1  0
 36 35  2  0
 37 32  2  0
 37 36  1  0
 38 37  1  0
 40 41  1  0
 41 44  1  0
 41 43  1  0
 42 40  2  0
 45 47  1  0
 45 20  1  0
 46 45  1  0
 50 49  1  0
 50 48  1  0
 50 51  1  0
 52 54  1  0
 52 51  1  0
 53 64  2  0
 54 59  1  0
 55 63  1  0
 55 65  1  0
 56 62  1  0
 56 58  1  0
 57 63  1  0
 58 57  1  0
 59 58  2  0
 60 54  2  0
 61 60  1  0
 61 56  2  0
 62 55  1  0
 63 53  1  0
 65 67  2  0
 66 65  1  0
 68 66  1  0
 69 78  2  0
 69 74  1  0
 70 66  1  0
 70 74  1  0
 71 70  1  0
 72 73  1  0
 72 71  1  0
 73 69  1  0
 74 75  2  0
 75 76  1  0
 77 76  2  0
 78 77  1  0
 79 53  1  0
 79 80  1  0
 79 89  1  0
 80 83  1  0
 81 85  1  0
 81 80  1  0
 82 81  2  0
 85 84  1  0
 87 85  1  0
 87 88  1  0
 87 86  1  0
 89 92  1  1
 89 90  1  0
 91 89  1  0
M  ISO  4  10 100  18 100  51 101  52 101
M  END
>  <TORSDO>  (88) 
F 22

>  <SCORE>  (88) 
-13.419

>  <name>  (88) 
88

>  <ligand_id>  (88) 
88

>  <original_smiles>  (88) 
[H]c1c([H])c([H])c2c(c1[H])C([H])([H])C([H])([H])C([H])([H])C2([H])N([H])C(=O)C1([H])N(C(=O)C([H])(N([H])C(=O)C([H])(N([H])C([H])([H])[H])C([H])([H])[H])C(C([H])([H])[H])(C([H])([H])[H])C([H])([H])[H])C([H])([H])c2c([H])c(OC([H])([H])C([H])(C([H])([H])[H])C([H])([H])C([H])(c3c([H])c([H])n(C([H])([H])C([H])([H])N([H])C(=O)N4C([H])([H])C([H])([H])C([H])([H])C([H])(n5nc(-c6c([H])c([H])c(Oc7c([H])c([H])c(F)c([H])c7F)c([H])c6[H])c(C(=O)N([H])[H])c5N([H])[H])C4([H])[H])c3[H])C([H])([H])[H])c([H])c([H])c2C1([H])[H]

>  <smiles>  (88) 
[H]c1c([H])c([H])c2c(c1[H])C([H])([H])C([H])([H])C([H])([H])C2([H])N([H])C(=O)C1([H])N(C(=O)C([H])(N([H])C(=O)C([H])(N([H])C([H])([H])[H])C([H])([H])[H])C(C([H])([H])[H])(C([H])([H])[H])C([H])([H])[H])C([H])([H])c2c([H])c(OC([H])([H])C([H])(C([H])([H])[H])C([H])([H])C([H])(c3c([H])c([H])n(C([H])([H])C([H])([H])N([H])C(=O)N4C([H])([H])C([H])([H])C([H])([H])C([H])(n5nc(-c6c([H])c([H])c(Oc7c([H])c([H])c(F)c([H])c7F)c([H])c6[H])c(C(=O)N([H])[H])c5N([H])[H])C4([H])[H])c3[H])C([H])([H])[H])c([H])c([H])c2C1([H])[H]

$$$$
89:0:0
     RDKit          3D

 93101  0  0  1  0  0  0  0  0999 V2000
  -28.1470  -22.9350   22.5870 C   0  0  0  0  0  1  0  0  0  0  0  0
  -28.9330  -23.0990   21.2670 C   0  0  0  0  0  3  0  0  0  0  0  0
  -29.0220  -21.7590   20.4710 C   0  0  0  0  0  2  0  0  0  0  0  0
  -29.5400  -20.5140   21.2550 C   0  0  0  0  0  2  0  0  0  0  0  0
  -28.7690  -17.3870   19.2960 C   0  0  0  0  0  2  0  0  0  0  0  0
  -28.6060  -18.8940   19.5700 C   0  0  0  0  0  2  0  0  0  0  0  0
  -30.1750  -18.0780   21.1270 C   0  0  0  0  0  2  0  0  0  0  0  0
  -30.0160  -16.9560   20.0840 C   0  0  0  0  0  3  0  0  0  0  0  0
  -29.7590  -19.3050   20.4050 N   0  0  2  0  0  4  0  0  0  0  0  0
  -30.5130  -19.5220   19.7680 H   0  0  0  0  0  0  0  0  0  0  0  0
  -30.6630  -14.5450   20.2270 C   0  0  0  0  0  0  0  0  0  0  0  0
  -30.3400  -12.3900   19.0920 C   0  0  0  0  0  2  0  0  0  0  0  0
  -29.3710  -12.6230   17.9120 C   0  0  0  0  0  2  0  0  0  0  0  0
  -27.9040  -12.4960   18.3710 C   0  0  0  0  0  2  0  0  0  0  0  0
  -27.6040  -13.3160   19.6540 C   0  0  0  0  0  3  0  0  0  0  0  0
  -28.6840  -13.0700   20.7350 C   0  0  0  0  0  2  0  0  0  0  0  0
  -30.0000  -13.3610   20.1430 N   0  0  0  0  0  0  0  0  0  0  0  0
  -31.7870  -14.7260   19.7520 O   0  0  0  0  0  0  0  0  0  0  0  0
  -29.9040  -15.5850   20.6220 N   0  0  0  0  0  0  0  0  0  0  0  0
  -29.0220  -15.3340   21.0420 H   0  0  0  0  0  0  0  0  0  0  0  0
  -25.2180  -13.9300   20.4070 C   0  0  0  0  0  0  0  0  0  0  0  0
  -24.1580  -13.1610   20.8040 C   0  0  0  0  0  0  0  0  0  0  0  0
  -24.6190  -11.8090   20.7710 C   0  0  0  0  0  0  0  0  0  0  0  0
  -26.2590  -13.0470   20.1610 N   0  0  0  0  0  0  0  0  0  0  0  0
  -25.9020  -11.7670   20.4370 N   0  0  0  0  0  0  0  0  0  0  0  0
  -23.8960  -10.5480   20.9820 C   0  0  0  0  0  0  0  0  0  0  0  0
  -24.3560   -9.5800   21.9010 C   0  0  0  0  0  3  0  0  0  0  0  0
  -23.6350   -8.3830   22.1000 C   0  0  0  0  0  3  0  0  0  0  0  0
  -22.4390   -8.1470   21.3800 C   0  0  0  0  0  0  0  0  0  0  0  0
  -21.9990   -9.1040   20.4490 C   0  0  0  0  0  3  0  0  0  0  0  0
  -22.7210  -10.2920   20.2480 C   0  0  0  0  0  3  0  0  0  0  0  0
  -21.6870   -7.0020   21.4900 O   0  0  0  0  0  0  0  0  0  0  0  0
  -21.6800   -6.2520   22.6380 C   0  0  0  0  0  0  0  0  0  0  0  0
  -21.3080   -6.8010   23.8850 C   0  0  0  0  0  3  0  0  0  0  0  0
  -21.2490   -5.9770   25.0270 C   0  0  0  0  0  3  0  0  0  0  0  0
  -21.5500   -4.6060   24.9240 C   0  0  0  0  0  0  0  0  0  0  0  0
  -21.9160   -4.0570   23.6820 C   0  0  0  0  0  3  0  0  0  0  0  0
  -21.9780   -4.8770   22.5420 C   0  0  0  0  0  0  0  0  0  0  0  0
  -22.3100   -4.3380   21.3440 F   0  0  0  0  0  0  0  0  0  0  0  0
  -21.4860   -3.8130   26.0190 F   0  0  0  0  0  0  0  0  0  0  0  0
  -22.7670  -13.6400   21.1020 C   0  0  0  0  0  0  0  0  0  0  0  0
  -22.0560  -12.9490   21.9860 N   0  0  0  0  0  0  0  0  0  0  0  0
  -22.3180  -14.6620   20.5830 O   0  0  0  0  0  0  0  0  0  0  0  0
  -22.4320  -12.1230   22.4280 H   0  0  0  0  0  0  0  0  0  0  0  0
  -21.1220  -13.2500   22.2250 H   0  0  0  0  0  0  0  0  0  0  0  0
  -25.3780  -15.2990   20.2130 N   0  0  0  0  0  0  0  0  0  0  0  0
  -24.6050  -15.9470   20.3130 H   0  0  0  0  0  0  0  0  0  0  0  0
  -26.2000  -15.7240   19.8050 H   0  0  0  0  0  0  0  0  0  0  0  0
  -28.3850  -24.2720   20.3890 C   0  0  0  0  0  3  0  0  0  0  0  0
  -27.0420  -23.9580   20.0570 O   0  0  0  0  0  0  0  0  0  0  0  0
  -26.5420  -23.9640   20.8650 H   0  0  0  0  0  0  0  0  0  0  0  0
  -28.4310  -25.6780   21.0600 C   0  0  0  0  0  2  0  0  0  0  0  0
  -28.3930  -26.7720   20.1280 O   0  0  0  0  0  0  0  0  0  0  0  0
  -24.5940  -31.9240   23.2630 C   0  0  0  0  0  0  0  0  0  0  0  0
  -27.2310  -27.5110   20.1490 C   0  0  0  0  0  0  0  0  0  0  0  0
  -23.3810  -30.5250   21.6220 C   0  0  0  0  0  3  0  0  0  0  0  0
  -24.8300  -29.0010   20.1790 C   0  0  0  0  0  0  0  0  0  0  0  0
  -25.9020  -30.8990   21.4040 C   0  0  0  0  0  2  0  0  0  0  0  0
  -25.9890  -29.5300   20.7620 C   0  0  0  0  0  0  0  0  0  0  0  0
  -27.1950  -28.7910   20.7470 C   0  0  0  0  0  3  0  0  0  0  0  0
  -26.0640  -27.0010   19.5500 C   0  0  0  0  0  3  0  0  0  0  0  0
  -24.8620  -27.7340   19.5690 C   0  0  0  0  0  3  0  0  0  0  0  0
  -23.5820  -29.8530   20.2380 C   0  0  0  0  0  2  0  0  0  0  0  0
  -24.6440  -31.1300   22.1550 N   0  0  0  0  0  0  0  0  0  0  0  0
  -23.5150  -32.1880   23.8110 O   0  0  0  0  0  0  0  0  0  0  0  0
  -22.7410  -29.4970   22.5810 C   0  0  0  0  0  0  0  0  0  0  0  0
  -21.4170  -29.3080   22.4580 N   0  0  0  0  0  0  0  0  0  0  0  0
  -23.4310  -28.8750   23.3930 O   0  0  0  0  0  0  0  0  0  0  0  0
  -20.9190  -29.8620   21.7760 H   0  0  0  0  0  0  0  0  0  0  0  0
  -18.0550  -28.0830   22.9550 C   0  0  0  0  0  0  0  0  0  0  0  0
  -20.6100  -28.3610   23.2290 C   0  0  0  0  0  3  0  0  0  0  0  0
  -20.7260  -26.9320   22.6520 C   0  0  0  0  0  2  0  0  0  0  0  0
  -19.6270  -26.6010   21.6370 C   0  0  0  0  0  2  0  0  0  0  0  0
  -18.2440  -26.7350   22.2800 C   0  0  0  0  0  2  0  0  0  0  0  0
  -19.1670  -28.8530   23.3870 C   0  0  0  0  0  0  0  0  0  0  0  0
  -18.9370  -30.1150   23.9770 C   0  0  0  0  0  3  0  0  0  0  0  0
  -17.6280  -30.6060   24.1400 C   0  0  0  0  0  3  0  0  0  0  0  0
  -16.5310  -29.8320   23.7260 C   0  0  0  0  0  3  0  0  0  0  0  0
  -16.7450  -28.5730   23.1390 C   0  0  0  0  0  3  0  0  0  0  0  0
  -25.8830  -32.5550   23.8760 C   0  0  0  0  0  3  0  0  0  0  0  0
  -25.5780  -33.9540   24.2010 N   0  0  0  0  0  0  0  0  0  0  0  0
  -25.9110  -35.0030   23.4370 C   0  0  0  0  0  0  0  0  0  0  0  0
  -26.5790  -34.8930   22.4050 O   0  0  0  0  0  0  0  0  0  0  0  0
  -24.9850  -34.1150   25.0030 H   0  0  0  0  0  0  0  0  0  0  0  0
  -24.1840  -36.7930   23.0790 C   0  0  0  0  0  1  0  0  0  0  0  0
  -25.4270  -36.3930   23.8890 C   0  0  0  0  0  3  0  0  0  0  0  0
  -27.5650  -37.2770   24.7080 C   0  0  0  0  0  1  0  0  0  0  0  0
  -26.4610  -37.4440   23.7690 N   0  0  0  0  0  0  0  0  0  0  0  0
  -26.0560  -38.3660   23.9140 H   0  0  0  0  0  0  0  0  0  0  0  0
  -26.4060  -31.7850   25.1500 C   0  0  1  0  0  0  0  0  0  0  0  0
  -25.3190  -31.5530   26.2240 C   0  0  0  0  0  1  0  0  0  0  0  0
  -26.9850  -30.4070   24.7540 C   0  0  0  0  0  1  0  0  0  0  0  0
  -27.5620  -32.5790   25.8040 C   0  0  0  0  0  1  0  0  0  0  0  0
  2  1  1  0
  3  4  1  0
  3  2  1  0
  5  6  1  0
  5  8  1  0
  6  9  1  0
  8 19  1  0
  8  7  1  0
  9  7  1  0
  9  4  1  0
  9 10  1  6
 11 19  1  0
 12 17  1  0
 13 14  1  0
 13 12  1  0
 15 14  1  0
 15 24  1  0
 15 16  1  0
 17 11  1  0
 17 16  1  0
 18 11  2  0
 19 20  1  0
 21 22  2  0
 22 41  1  0
 23 22  1  0
 23 26  1  0
 24 21  1  0
 24 25  1  0
 25 23  2  0
 26 27  1  0
 27 28  2  0
 29 32  1  0
 29 28  1  0
 30 29  2  0
 31 30  1  0
 31 26  2  0
 32 33  1  0
 33 34  1  0
 34 35  2  0
 36 35  1  0
 36 40  1  0
 37 36  2  0
 38 33  2  0
 38 37  1  0
 39 38  1  0
 41 42  1  0
 42 45  1  0
 42 44  1  0
 43 41  2  0
 46 47  1  0
 46 21  1  0
 48 46  1  0
 49 52  1  0
 49  2  1  0
 50 49  1  0
 50 51  1  0
 53 55  1  0
 53 52  1  0
 54 65  2  0
 55 60  1  0
 56 64  1  0
 56 66  1  0
 57 63  1  0
 57 59  1  0
 58 64  1  0
 59 58  1  0
 60 59  2  0
 61 62  1  0
 61 55  2  0
 62 57  2  0
 63 56  1  0
 64 54  1  0
 66 68  2  0
 67 66  1  0
 69 67  1  0
 70 79  2  0
 70 75  1  0
 71 67  1  0
 71 75  1  0
 72 71  1  0
 73 74  1  0
 73 72  1  0
 74 70  1  0
 75 76  2  0
 76 77  1  0
 78 77  2  0
 79 78  1  0
 80 54  1  0
 80 81  1  0
 80 90  1  0
 81 84  1  0
 82 86  1  0
 82 81  1  0
 83 82  2  0
 86 85  1  0
 88 86  1  0
 88 89  1  0
 88 87  1  0
 90 93  1  1
 90 91  1  0
 92 90  1  0
M  ISO  4  11 100  19 100  52 101  53 101
M  END
>  <TORSDO>  (89) 
F 22

>  <SCORE>  (89) 
-12.881

>  <name>  (89) 
89

>  <ligand_id>  (89) 
89

>  <original_smiles>  (89) 
[H]OC([H])(C([H])([H])Oc1c([H])c([H])c2c(c1[H])C([H])([H])N(C(=O)C([H])(N([H])C(=O)C([H])(N([H])C([H])([H])[H])C([H])([H])[H])C(C([H])([H])[H])(C([H])([H])[H])C([H])([H])[H])C([H])(C(=O)N([H])C1([H])c3c([H])c([H])c([H])c([H])c3C([H])([H])C([H])([H])C1([H])[H])C2([H])[H])C([H])(C([H])([H])[H])C([H])([H])C([H])([H])[N+]1([H])C([H])([H])C([H])([H])C([H])(N([H])C(=O)N2C([H])([H])C([H])([H])C([H])([H])C([H])(n3nc(-c4c([H])c([H])c(Oc5c([H])c([H])c(F)c([H])c5F)c([H])c4[H])c(C(=O)N([H])[H])c3N([H])[H])C2([H])[H])C1([H])[H]

>  <smiles>  (89) 
[H]OC([H])(C([H])([H])Oc1c([H])c([H])c2c(c1[H])C([H])([H])N(C(=O)C([H])(N([H])C(=O)C([H])(N([H])C([H])([H])[H])C([H])([H])[H])C(C([H])([H])[H])(C([H])([H])[H])C([H])([H])[H])C([H])(C(=O)N([H])C1([H])c3c([H])c([H])c([H])c([H])c3C([H])([H])C([H])([H])C1([H])[H])C2([H])[H])C([H])(C([H])([H])[H])C([H])([H])C([H])([H])[N+]1([H])C([H])([H])C([H])([H])C([H])(N([H])C(=O)N2C([H])([H])C([H])([H])C([H])([H])C([H])(n3nc(-c4c([H])c([H])c(Oc5c([H])c([H])c(F)c([H])c5F)c([H])c4[H])c(C(=O)N([H])[H])c3N([H])[H])C2([H])[H])C1([H])[H]

$$$$
90:0:0
     RDKit          3D

 90 98  0  0  1  0  0  0  0  0999 V2000
  -29.1790  -21.3240   20.1900 C   0  0  0  0  0  3  0  0  0  0  0  0
  -29.7910  -20.1930   20.9920 N   0  0  0  0  0  4  0  0  0  0  0  0
  -30.7970  -20.2860   20.9610 H   0  0  0  0  0  0  0  0  0  0  0  0
  -29.5310  -20.3490   21.9540 H   0  0  0  0  0  0  0  0  0  0  0  0
  -30.6410  -14.6240   20.0490 C   0  0  0  0  0  0  0  0  0  0  0  0
  -30.3360  -12.4270   18.9280 C   0  0  0  0  0  2  0  0  0  0  0  0
  -29.3240  -12.5990   17.7740 C   0  0  0  0  0  2  0  0  0  0  0  0
  -27.8780  -12.4480   18.2840 C   0  0  0  0  0  2  0  0  0  0  0  0
  -27.6080  -13.2640   19.5760 C   0  0  0  0  0  3  0  0  0  0  0  0
  -28.7290  -13.0750   20.6220 C   0  0  0  0  0  2  0  0  0  0  0  0
  -29.9980  -13.4170   19.9730 N   0  0  0  0  0  0  0  0  0  0  0  0
  -31.7740  -14.7690   19.5740 O   0  0  0  0  0  0  0  0  0  0  0  0
  -29.9010  -17.7690   21.8100 C   0  0  0  0  0  2  0  0  0  0  0  0
  -29.9640  -18.1750   19.3540 C   0  0  0  0  0  2  0  0  0  0  0  0
  -29.4720  -16.2760   21.5780 C   0  0  0  0  0  2  0  0  0  0  0  0
  -29.5540  -16.6760   19.1210 C   0  0  0  0  0  2  0  0  0  0  0  0
  -29.4180  -18.7520   20.6940 C   0  0  0  0  0  3  0  0  0  0  0  0
  -29.8450  -15.7350   20.2420 N   0  0  0  0  0  0  0  0  0  0  0  0
  -25.2670  -13.8510   20.4450 C   0  0  0  0  0  0  0  0  0  0  0  0
  -24.2220  -13.0660   20.8600 C   0  0  0  0  0  0  0  0  0  0  0  0
  -24.6820  -11.7180   20.7760 C   0  0  0  0  0  0  0  0  0  0  0  0
  -26.2930  -12.9740   20.1330 N   0  0  0  0  0  0  0  0  0  0  0  0
  -25.9490  -11.6860   20.3890 N   0  0  0  0  0  0  0  0  0  0  0  0
  -23.9700  -10.4480   20.9810 C   0  0  0  0  0  0  0  0  0  0  0  0
  -24.4400   -9.4810   21.8960 C   0  0  0  0  0  3  0  0  0  0  0  0
  -23.7300   -8.2770   22.0900 C   0  0  0  0  0  3  0  0  0  0  0  0
  -22.5350   -8.0330   21.3700 C   0  0  0  0  0  0  0  0  0  0  0  0
  -22.0860   -8.9890   20.4400 C   0  0  0  0  0  3  0  0  0  0  0  0
  -22.7970  -10.1840   20.2450 C   0  0  0  0  0  3  0  0  0  0  0  0
  -21.7900   -6.8830   21.4730 O   0  0  0  0  0  0  0  0  0  0  0  0
  -21.7430   -6.1610   22.6380 C   0  0  0  0  0  0  0  0  0  0  0  0
  -21.3160   -6.7330   23.8560 C   0  0  0  0  0  3  0  0  0  0  0  0
  -21.2200   -5.9320   25.0140 C   0  0  0  0  0  3  0  0  0  0  0  0
  -21.5400   -4.5620   24.9510 C   0  0  0  0  0  0  0  0  0  0  0  0
  -21.9580   -3.9910   23.7370 C   0  0  0  0  0  3  0  0  0  0  0  0
  -22.0560   -4.7880   22.5840 C   0  0  0  0  0  0  0  0  0  0  0  0
  -22.4390   -4.2280   21.4090 F   0  0  0  0  0  0  0  0  0  0  0  0
  -21.4390   -3.7910   26.0610 F   0  0  0  0  0  0  0  0  0  0  0  0
  -22.8410  -13.5350   21.2260 C   0  0  0  0  0  0  0  0  0  0  0  0
  -22.1700  -12.8200   22.1230 N   0  0  0  0  0  0  0  0  0  0  0  0
  -22.3680  -14.5640   20.7470 O   0  0  0  0  0  0  0  0  0  0  0  0
  -22.5660  -11.9850   22.5300 H   0  0  0  0  0  0  0  0  0  0  0  0
  -21.2430  -13.1080   22.4080 H   0  0  0  0  0  0  0  0  0  0  0  0
  -25.4220  -15.2220   20.2830 N   0  0  0  0  0  0  0  0  0  0  0  0
  -24.6660  -15.8760   20.4580 H   0  0  0  0  0  0  0  0  0  0  0  0
  -26.2670  -15.6680   19.9490 H   0  0  0  0  0  0  0  0  0  0  0  0
  -29.0750  -22.7130   20.9460 C   0  0  0  0  0  3  0  0  0  0  0  0
  -28.8050  -24.0260   20.0990 C   0  0  0  0  0  3  0  0  0  0  0  0
  -28.4900  -25.3250   20.9370 C   0  0  0  0  0  3  0  0  0  0  0  0
  -28.5370  -26.6140   20.2550 O   0  0  0  0  0  0  0  0  0  0  0  0
  -24.6730  -31.8810   23.2580 C   0  0  0  0  0  0  0  0  0  0  0  0
  -27.3770  -27.3780   20.2630 C   0  0  0  0  0  0  0  0  0  0  0  0
  -23.4920  -30.4460   21.6260 C   0  0  0  0  0  3  0  0  0  0  0  0
  -24.9750  -28.8980   20.2290 C   0  0  0  0  0  0  0  0  0  0  0  0
  -26.0200  -30.8130   21.4450 C   0  0  0  0  0  2  0  0  0  0  0  0
  -26.1240  -29.4290   20.8230 C   0  0  0  0  0  0  0  0  0  0  0  0
  -27.3320  -28.6800   20.8310 C   0  0  0  0  0  3  0  0  0  0  0  0
  -26.2080  -26.8720   19.6590 C   0  0  0  0  0  3  0  0  0  0  0  0
  -25.0120  -27.6200   19.6410 C   0  0  0  0  0  3  0  0  0  0  0  0
  -23.7210  -29.7500   20.2570 C   0  0  0  0  0  2  0  0  0  0  0  0
  -24.7450  -31.0650   22.1670 N   0  0  0  0  0  0  0  0  0  0  0  0
  -23.5860  -32.1480   23.7890 O   0  0  0  0  0  0  0  0  0  0  0  0
  -22.8450  -29.4330   22.5980 C   0  0  0  0  0  0  0  0  0  0  0  0
  -21.5240  -29.2280   22.4620 N   0  0  0  0  0  0  0  0  0  0  0  0
  -23.5290  -28.8300   23.4290 O   0  0  0  0  0  0  0  0  0  0  0  0
  -21.0340  -29.7650   21.7580 H   0  0  0  0  0  0  0  0  0  0  0  0
  -18.1630  -27.9850   22.9280 C   0  0  0  0  0  0  0  0  0  0  0  0
  -20.7130  -28.2890   23.2360 C   0  0  0  0  0  3  0  0  0  0  0  0
  -20.8470  -26.8500   22.6880 C   0  0  0  0  0  2  0  0  0  0  0  0
  -19.7710  -26.4940   21.6590 C   0  0  0  0  0  2  0  0  0  0  0  0
  -18.3730  -26.6320   22.2700 C   0  0  0  0  0  2  0  0  0  0  0  0
  -19.2630  -28.7710   23.3650 C   0  0  0  0  0  0  0  0  0  0  0  0
  -19.0160  -30.0410   23.9300 C   0  0  0  0  0  3  0  0  0  0  0  0
  -17.7010  -30.5230   24.0690 C   0  0  0  0  0  3  0  0  0  0  0  0
  -16.6150  -29.7320   23.6550 C   0  0  0  0  0  3  0  0  0  0  0  0
  -16.8460  -28.4670   23.0860 C   0  0  0  0  0  3  0  0  0  0  0  0
  -25.9470  -32.5330   23.8800 C   0  0  0  0  0  3  0  0  0  0  0  0
  -26.4640  -31.7790   25.1650 C   0  0  1  0  0  0  0  0  0  0  0  0
  -25.3680  -31.5440   26.2310 C   0  0  0  0  0  1  0  0  0  0  0  0
  -27.0620  -30.4040   24.7850 C   0  0  0  0  0  1  0  0  0  0  0  0
  -27.6060  -32.5890   25.8220 C   0  0  0  0  0  1  0  0  0  0  0  0
  -25.6260  -33.9310   24.1920 N   0  0  0  0  0  0  0  0  0  0  0  0
  -25.9410  -34.9760   23.4170 C   0  0  0  0  0  0  0  0  0  0  0  0
  -26.6090  -34.8670   22.3860 O   0  0  0  0  0  0  0  0  0  0  0  0
  -25.0400  -34.0920   25.0000 H   0  0  0  0  0  0  0  0  0  0  0  0
  -24.1840  -36.7310   23.0480 C   0  0  0  0  0  1  0  0  0  0  0  0
  -25.4370  -36.3630   23.8570 C   0  0  0  0  0  3  0  0  0  0  0  0
  -27.5660  -37.2880   24.6530 C   0  0  0  0  0  1  0  0  0  0  0  0
  -26.4520  -37.4290   23.7200 N   0  0  0  0  0  0  0  0  0  0  0  0
  -26.0350  -38.3460   23.8630 H   0  0  0  0  0  0  0  0  0  0  0  0
  1 47  2  0
  1  2  1  0
  2  4  1  0
  3  2  1  0
  5 18  1  0
  6 11  1  0
  7  8  1  0
  7  6  1  0
  9  8  1  0
  9 22  1  0
  9 10  1  0
 11  5  1  0
 11 10  1  0
 12  5  2  0
 14 17  1  0
 15 13  1  0
 16 14  1  0
 16 18  1  0
 17  2  1  0
 17 13  1  0
 18 15  1  0
 19 20  2  0
 20 39  1  0
 21 20  1  0
 21 24  1  0
 22 23  1  0
 22 19  1  0
 23 21  2  0
 24 25  1  0
 25 26  2  0
 27 30  1  0
 27 26  1  0
 28 27  2  0
 29 28  1  0
 29 24  2  0
 30 31  1  0
 31 32  1  0
 32 33  2  0
 34 33  1  0
 34 38  1  0
 35 34  2  0
 36 31  2  0
 36 35  1  0
 37 36  1  0
 39 40  1  0
 40 43  1  0
 40 42  1  0
 41 39  2  0
 44 19  1  0
 44 45  1  0
 46 44  1  0
 48 49  2  0
 48 47  1  0
 50 52  1  0
 50 49  1  0
 51 62  2  0
 52 57  1  0
 53 61  1  0
 53 63  1  0
 54 60  1  0
 54 56  1  0
 55 61  1  0
 56 57  2  0
 56 55  1  0
 58 52  2  0
 59 58  1  0
 59 54  2  0
 60 53  1  0
 61 51  1  0
 63 65  2  0
 64 63  1  0
 66 64  1  0
 67 76  2  0
 67 72  1  0
 68 64  1  0
 68 72  1  0
 69 68  1  0
 70 71  1  0
 70 69  1  0
 71 67  1  0
 72 73  2  0
 73 74  1  0
 75 74  2  0
 76 75  1  0
 77 51  1  0
 77 82  1  0
 77 78  1  0
 78 81  1  1
 78 79  1  0
 80 78  1  0
 82 85  1  0
 83 87  1  0
 83 82  1  0
 84 83  2  0
 87 86  1  0
 89 87  1  0
 89 90  1  0
 89 88  1  0
M  ISO  4   5 100  18 100  49 101  50 101
M  END
>  <TORSDO>  (90) 
F 20

>  <SCORE>  (90) 
-13.293

>  <name>  (90) 
90

>  <ligand_id>  (90) 
90

>  <original_smiles>  (90) 
[H]c1c([H])c([H])c2c(c1[H])C([H])([H])C([H])([H])C([H])([H])C2([H])N([H])C(=O)C1([H])N(C(=O)C([H])(N([H])C(=O)C([H])(N([H])C([H])([H])[H])C([H])([H])[H])C(C([H])([H])[H])(C([H])([H])[H])C([H])([H])[H])C([H])([H])c2c([H])c(OC([H])([H])C([H])([H])C([H])([H])C([H])([H])[N+]([H])([H])C3([H])C([H])([H])C([H])([H])N(C(=O)N4C([H])([H])C([H])([H])C([H])([H])C([H])(n5nc(-c6c([H])c([H])c(Oc7c([H])c([H])c(F)c([H])c7F)c([H])c6[H])c(C(=O)N([H])[H])c5N([H])[H])C4([H])[H])C([H])([H])C3([H])[H])c([H])c([H])c2C1([H])[H]

>  <smiles>  (90) 
[H]c1c([H])c([H])c2c(c1[H])C([H])([H])C([H])([H])C([H])([H])C2([H])N([H])C(=O)C1([H])N(C(=O)C([H])(N([H])C(=O)C([H])(N([H])C([H])([H])[H])C([H])([H])[H])C(C([H])([H])[H])(C([H])([H])[H])C([H])([H])[H])C([H])([H])c2c([H])c(OC([H])([H])C([H])([H])C([H])([H])C([H])([H])[N+]([H])([H])C3([H])C([H])([H])C([H])([H])N(C(=O)N4C([H])([H])C([H])([H])C([H])([H])C([H])(n5nc(-c6c([H])c([H])c(Oc7c([H])c([H])c(F)c([H])c7F)c([H])c6[H])c(C(=O)N([H])[H])c5N([H])[H])C4([H])[H])C([H])([H])C3([H])[H])c([H])c([H])c2C1([H])[H]

$$$$
91:0:0
     RDKit          3D

 99107  0  0  1  0  0  0  0  0999 V2000
  -29.6220  -22.4240   21.9840 C   0  0  0  0  0  3  0  0  0  0  0  0
  -31.1240  -23.1590   23.8880 C   0  0  0  0  0  1  0  0  0  0  0  0
  -30.0500  -23.6210   22.8810 C   0  0  0  0  0  3  0  0  0  0  0  0
  -30.4900  -24.9130   22.1340 C   0  0  0  0  0  2  0  0  0  0  0  0
  -28.9150  -26.3600   23.5720 C   0  0  0  0  0  1  0  0  0  0  0  0
  -30.3230  -26.2210   22.9610 C   0  0  0  0  0  3  0  0  0  0  0  0
  -30.7510  -27.4950   22.1880 C   0  0  0  0  0  2  0  0  0  0  0  0
  -30.0810  -27.6750   20.9380 O   0  0  0  0  0  0  0  0  0  0  0  0
  -25.0970  -31.9130   23.8590 C   0  0  0  0  0  0  0  0  0  0  0  0
  -28.8440  -28.2850   20.8830 C   0  0  0  0  0  0  0  0  0  0  0  0
  -24.3690  -30.5220   21.9440 C   0  0  0  0  0  3  0  0  0  0  0  0
  -26.2400  -29.3690   20.6430 C   0  0  0  0  0  0  0  0  0  0  0  0
  -26.7980  -31.2840   22.1520 C   0  0  0  0  0  2  0  0  0  0  0  0
  -27.1970  -30.0100   21.4400 C   0  0  0  0  0  0  0  0  0  0  0  0
  -28.4960  -29.4760   21.5670 C   0  0  0  0  0  3  0  0  0  0  0  0
  -27.8740  -27.6640   20.0720 C   0  0  0  0  0  3  0  0  0  0  0  0
  -26.5730  -28.1900   19.9540 C   0  0  0  0  0  3  0  0  0  0  0  0
  -24.8780  -30.0190   20.5630 C   0  0  0  0  0  2  0  0  0  0  0  0
  -25.4280  -31.2500   22.7150 N   0  0  0  0  0  0  0  0  0  0  0  0
  -23.9250  -31.9610   24.2530 O   0  0  0  0  0  0  0  0  0  0  0  0
  -23.7700  -29.3240   22.7130 C   0  0  0  0  0  0  0  0  0  0  0  0
  -22.5160  -28.9680   22.3860 N   0  0  0  0  0  0  0  0  0  0  0  0
  -24.4340  -28.7200   23.5600 O   0  0  0  0  0  0  0  0  0  0  0  0
  -22.0350  -29.5200   21.6890 H   0  0  0  0  0  0  0  0  0  0  0  0
  -19.3070  -27.3170   22.3690 C   0  0  0  0  0  0  0  0  0  0  0  0
  -21.7660  -27.8490   22.9540 C   0  0  0  0  0  3  0  0  0  0  0  0
  -22.1180  -26.5240   22.2380 C   0  0  0  0  0  2  0  0  0  0  0  0
  -21.1730  -26.1990   21.0760 C   0  0  0  0  0  2  0  0  0  0  0  0
  -19.7280  -26.0920   21.5720 C   0  0  0  0  0  2  0  0  0  0  0  0
  -20.2640  -28.1510   23.0050 C   0  0  0  0  0  0  0  0  0  0  0  0
  -19.8230  -29.2950   23.7020 C   0  0  0  0  0  3  0  0  0  0  0  0
  -18.4520  -29.6110   23.7740 C   0  0  0  0  0  3  0  0  0  0  0  0
  -17.5070  -28.7740   23.1550 C   0  0  0  0  0  3  0  0  0  0  0  0
  -17.9330  -27.6280   22.4580 C   0  0  0  0  0  3  0  0  0  0  0  0
  -26.1720  -32.6620   24.7080 C   0  0  0  0  0  3  0  0  0  0  0  0
  -26.4480  -31.9770   26.1010 C   0  0  1  0  0  0  0  0  0  0  0  0
  -25.1660  -31.6620   26.9080 C   0  0  0  0  0  1  0  0  0  0  0  0
  -27.2270  -30.6530   25.9110 C   0  0  0  0  0  1  0  0  0  0  0  0
  -27.3400  -32.8920   26.9690 C   0  0  0  0  0  1  0  0  0  0  0  0
  -25.7100  -34.0450   24.8930 N   0  0  0  0  0  0  0  0  0  0  0  0
  -26.1290  -35.0870   24.1630 C   0  0  0  0  0  0  0  0  0  0  0  0
  -27.0100  -34.9930   23.3050 O   0  0  0  0  0  0  0  0  0  0  0  0
  -24.9470  -34.1820   25.5380 H   0  0  0  0  0  0  0  0  0  0  0  0
  -24.4020  -36.7220   23.3430 C   0  0  0  0  0  1  0  0  0  0  0  0
  -25.4600  -36.4510   24.4250 C   0  0  0  0  0  3  0  0  0  0  0  0
  -27.3060  -37.5250   25.6370 C   0  0  0  0  0  1  0  0  0  0  0  0
  -26.4190  -37.5760   24.4780 N   0  0  0  0  0  0  0  0  0  0  0  0
  -25.9280  -38.4660   24.4930 H   0  0  0  0  0  0  0  0  0  0  0  0
  -30.7750  -21.8130   21.3250 N   0  0  0  0  0  0  0  0  0  0  0  0
  -31.4540  -22.4310   20.8910 H   0  0  0  0  0  0  0  0  0  0  0  0
  -30.7760  -19.6630   22.5880 C   0  0  0  0  0  3  0  0  0  0  0  0
  -31.1700  -18.3160   22.6280 C   0  0  0  0  0  3  0  0  0  0  0  0
  -31.6800  -19.7690   20.3560 C   0  0  0  0  0  3  0  0  0  0  0  0
  -31.0600  -20.4360   21.4370 C   0  0  0  0  0  0  0  0  0  0  0  0
  -31.8250  -17.7680   21.5120 C   0  0  0  0  0  0  0  0  0  0  0  0
  -32.0510  -18.4700   20.3840 N   0  0  0  0  0  0  0  0  0  0  0  0
  -32.3570  -16.3470   21.5480 C   0  0  0  0  0  2  0  0  0  0  0  0
  -31.5500  -14.7670   19.8090 C   0  0  0  0  0  0  0  0  0  0  0  0
  -30.9690  -12.7100   18.5720 C   0  0  0  0  0  2  0  0  0  0  0  0
  -29.9180  -12.9370   17.4720 C   0  0  0  0  0  2  0  0  0  0  0  0
  -28.4970  -12.8280   18.0500 C   0  0  0  0  0  2  0  0  0  0  0  0
  -28.3100  -13.6980   19.3180 C   0  0  0  0  0  3  0  0  0  0  0  0
  -29.4550  -13.4650   20.3280 C   0  0  0  0  0  2  0  0  0  0  0  0
  -30.7440  -13.6860   19.6480 N   0  0  0  0  0  0  0  0  0  0  0  0
  -32.4370  -15.0770   19.0080 O   0  0  0  0  0  0  0  0  0  0  0  0
  -31.4260  -15.3710   20.9940 N   0  0  0  0  0  0  0  0  0  0  0  0
  -30.6960  -15.0400   21.6060 H   0  0  0  0  0  0  0  0  0  0  0  0
  -26.0820  -14.4000   20.4030 C   0  0  0  0  0  0  0  0  0  0  0  0
  -24.9940  -13.6750   20.8090 C   0  0  0  0  0  0  0  0  0  0  0  0
  -25.3120  -12.3060   20.5480 C   0  0  0  0  0  0  0  0  0  0  0  0
  -27.0010  -13.4750   19.9290 N   0  0  0  0  0  0  0  0  0  0  0  0
  -26.5470  -12.2030   20.0710 N   0  0  0  0  0  0  0  0  0  0  0  0
  -24.4950  -11.0930   20.6760 C   0  0  0  0  0  0  0  0  0  0  0  0
  -24.8950  -10.0150   21.4960 C   0  0  0  0  0  3  0  0  0  0  0  0
  -24.0820   -8.8660   21.6140 C   0  0  0  0  0  3  0  0  0  0  0  0
  -22.8560   -8.7890   20.9110 C   0  0  0  0  0  0  0  0  0  0  0  0
  -22.4740   -9.8560   20.0800 C   0  0  0  0  0  3  0  0  0  0  0  0
  -23.2850  -10.9970   19.9600 C   0  0  0  0  0  3  0  0  0  0  0  0
  -22.0150   -7.7020   20.9460 O   0  0  0  0  0  0  0  0  0  0  0  0
  -21.8940   -6.9220   22.0680 C   0  0  0  0  0  0  0  0  0  0  0  0
  -21.4680   -7.4540   23.3050 C   0  0  0  0  0  3  0  0  0  0  0  0
  -21.2890   -6.6030   24.4120 C   0  0  0  0  0  3  0  0  0  0  0  0
  -21.5270   -5.2200   24.2860 C   0  0  0  0  0  0  0  0  0  0  0  0
  -21.9460   -4.6890   23.0530 C   0  0  0  0  0  3  0  0  0  0  0  0
  -22.1250   -5.5360   21.9480 C   0  0  0  0  0  0  0  0  0  0  0  0
  -22.5090   -5.0160   20.7570 F   0  0  0  0  0  0  0  0  0  0  0  0
  -21.3480   -4.4020   25.3480 F   0  0  0  0  0  0  0  0  0  0  0  0
  -23.6930  -14.2230   21.3210 C   0  0  0  0  0  0  0  0  0  0  0  0
  -23.0200  -13.4840   22.1960 N   0  0  0  0  0  0  0  0  0  0  0  0
  -23.2880  -15.3340   20.9800 O   0  0  0  0  0  0  0  0  0  0  0  0
  -23.3630  -12.5830   22.4940 H   0  0  0  0  0  0  0  0  0  0  0  0
  -22.1490  -13.8270   22.5770 H   0  0  0  0  0  0  0  0  0  0  0  0
  -26.3570  -15.7630   20.3790 N   0  0  0  0  0  0  0  0  0  0  0  0
  -25.6780  -16.4570   20.6740 H   0  0  0  0  0  0  0  0  0  0  0  0
  -27.2100  -16.1710   20.0190 H   0  0  0  0  0  0  0  0  0  0  0  0
  -28.5140  -22.7310   20.9450 C   0  0  0  0  0  2  0  0  0  0  0  0
  -26.6160  -23.8040   22.2890 C   0  0  0  0  0  1  0  0  0  0  0  0
  -27.0020  -24.4520   19.8920 C   0  0  0  0  0  1  0  0  0  0  0  0
  -27.6760  -24.0030   21.1950 C   0  0  0  0  0  3  0  0  0  0  0  0
  1 96  1  0
  1  3  1  0
  3  2  1  0
  4  3  1  0
  4  6  1  0
  6  5  1  0
  7  6  1  0
  8  7  1  0
  9 20  2  0
 10  8  1  0
 10 15  1  0
 11 21  1  0
 11 19  1  0
 12 14  1  0
 13 19  1  0
 14 15  2  0
 14 13  1  0
 16 10  2  0
 17 16  1  0
 17 12  2  0
 18 12  1  0
 18 11  1  0
 19  9  1  0
 21 23  2  0
 22 21  1  0
 24 22  1  0
 25 34  2  0
 25 30  1  0
 26 22  1  0
 26 30  1  0
 27 26  1  0
 28 29  1  0
 28 27  1  0
 29 25  1  0
 30 31  2  0
 31 32  1  0
 33 32  2  0
 34 33  1  0
 35  9  1  0
 35 40  1  0
 35 36  1  0
 36 37  1  1
 36 39  1  0
 38 36  1  0
 40 43  1  0
 41 45  1  0
 41 40  1  0
 42 41  2  0
 45 44  1  0
 45 47  1  0
 47 48  1  0
 47 46  1  0
 49 54  1  0
 49  1  1  0
 50 49  1  0
 51 52  1  0
 53 56  2  0
 53 54  1  0
 54 51  2  0
 55 57  1  0
 55 52  2  0
 56 55  1  0
 58 66  1  0
 59 64  1  0
 60 61  1  0
 60 59  1  0
 62 61  1  0
 62 71  1  0
 62 63  1  0
 64 58  1  0
 64 63  1  0
 65 58  2  0
 66 57  1  0
 66 67  1  0
 68 69  2  0
 69 88  1  0
 70 73  1  0
 70 69  1  0
 71 72  1  0
 71 68  1  0
 72 70  2  0
 73 74  1  0
 74 75  2  0
 76 79  1  0
 76 75  1  0
 77 76  2  0
 78 77  1  0
 78 73  2  0
 79 80  1  0
 80 81  1  0
 81 82  2  0
 83 82  1  0
 83 87  1  0
 84 83  2  0
 85 80  2  0
 85 84  1  0
 86 85  1  0
 88 89  1  0
 89 91  1  0
 89 92  1  0
 90 88  2  0
 93 68  1  0
 93 94  1  0
 95 93  1  0
 96 99  1  0
 98 99  1  0
 99 97  1  0
M  ISO  4   7 101   8 101  58 100  66 100
M  END
>  <TORSDO>  (91) 
F 25

>  <SCORE>  (91) 
-5.421

>  <name>  (91) 
91

>  <ligand_id>  (91) 
91

>  <original_smiles>  (91) 
[H]c1nc(C([H])([H])N([H])C(=O)N2C([H])([H])C([H])([H])C([H])([H])C([H])(n3nc(-c4c([H])c([H])c(Oc5c([H])c([H])c(F)c([H])c5F)c([H])c4[H])c(C(=O)N([H])[H])c3N([H])[H])C2([H])[H])c([H])c([H])c1N([H])C([H])(C([H])([H])C([H])(C([H])([H])[H])C([H])([H])[H])C([H])(C([H])([H])[H])C([H])([H])C([H])(C([H])([H])[H])C([H])([H])Oc1c([H])c([H])c2c(c1[H])C([H])([H])N(C(=O)C([H])(N([H])C(=O)C([H])(N([H])C([H])([H])[H])C([H])([H])[H])C(C([H])([H])[H])(C([H])([H])[H])C([H])([H])[H])C([H])(C(=O)N([H])C1([H])c3c([H])c([H])c([H])c([H])c3C([H])([H])C([H])([H])C1([H])[H])C2([H])[H]

>  <smiles>  (91) 
[H]c1nc(C([H])([H])N([H])C(=O)N2C([H])([H])C([H])([H])C([H])([H])C([H])(n3nc(-c4c([H])c([H])c(Oc5c([H])c([H])c(F)c([H])c5F)c([H])c4[H])c(C(=O)N([H])[H])c3N([H])[H])C2([H])[H])c([H])c([H])c1N([H])C([H])(C([H])([H])C([H])(C([H])([H])[H])C([H])([H])[H])C([H])(C([H])([H])[H])C([H])([H])C([H])(C([H])([H])[H])C([H])([H])Oc1c([H])c([H])c2c(c1[H])C([H])([H])N(C(=O)C([H])(N([H])C(=O)C([H])(N([H])C([H])([H])[H])C([H])([H])[H])C(C([H])([H])[H])(C([H])([H])[H])C([H])([H])[H])C([H])(C(=O)N([H])C1([H])c3c([H])c([H])c([H])c([H])c3C([H])([H])C([H])([H])C1([H])[H])C2([H])[H]

$$$$
92:0:0
     RDKit          3D

 98106  0  0  1  0  0  0  0  0999 V2000
  -28.6410  -18.1210   19.3260 C   0  0  0  0  0  3  0  0  0  0  0  0
  -29.5460  -19.1740   19.5060 C   0  0  0  0  0  3  0  0  0  0  0  0
  -29.1030  -16.7870   19.2340 C   0  0  0  0  0  0  0  0  0  0  0  0
  -30.9170  -18.9040   19.5670 C   0  0  0  0  0  0  0  0  0  0  0  0
  -30.5210  -16.5940   19.2090 C   0  0  0  0  0  0  0  0  0  0  0  0
  -31.3930  -17.6360   19.3780 N   0  0  0  0  0  0  0  0  0  0  0  0
  -28.1890  -15.7060   19.2070 N   0  0  0  0  0  0  0  0  0  0  0  0
  -28.4680  -14.9780   19.8570 H   0  0  0  0  0  0  0  0  0  0  0  0
  -26.3460  -16.1630   20.7790 C   0  0  0  0  0  1  0  0  0  0  0  0
  -25.9350  -14.8140   18.7070 C   0  0  0  0  0  1  0  0  0  0  0  0
  -26.7510  -15.9620   19.3140 C   0  0  0  0  0  3  0  0  0  0  0  0
  -31.2040  -15.2090   19.0300 C   0  0  0  0  0  2  0  0  0  0  0  0
  -31.6500  -13.2660   20.5910 C   0  0  0  0  0  0  0  0  0  0  0  0
  -31.6580  -10.9210   21.3710 C   0  0  0  0  0  2  0  0  0  0  0  0
  -31.0210  -10.0470   20.2710 C   0  0  0  0  0  2  0  0  0  0  0  0
  -29.4870  -10.0030   20.4070 C   0  0  0  0  0  2  0  0  0  0  0  0
  -28.8570  -11.4070   20.6230 C   0  0  0  0  0  3  0  0  0  0  0  0
  -29.6360  -12.2120   21.6880 C   0  0  0  0  0  2  0  0  0  0  0  0
  -31.0440  -12.2540   21.2730 N   0  0  0  0  0  0  0  0  0  0  0  0
  -32.8670  -13.3090   20.3960 O   0  0  0  0  0  0  0  0  0  0  0  0
  -30.8220  -14.1190   19.9560 N   0  0  0  0  0  0  0  0  0  0  0  0
  -29.8310  -13.9240   19.9980 H   0  0  0  0  0  0  0  0  0  0  0  0
  -26.4450  -12.2770   20.8120 C   0  0  0  0  0  0  0  0  0  0  0  0
  -25.2750  -11.6670   21.1630 C   0  0  0  0  0  0  0  0  0  0  0  0
  -25.6130  -10.3140   21.4770 C   0  0  0  0  0  0  0  0  0  0  0  0
  -27.4340  -11.3130   20.9390 N   0  0  0  0  0  0  0  0  0  0  0  0
  -26.9270  -10.1350   21.3860 N   0  0  0  0  0  0  0  0  0  0  0  0
  -24.7570   -9.1650   21.7990 C   0  0  0  0  0  0  0  0  0  0  0  0
  -24.5710   -8.7300   23.1300 C   0  0  0  0  0  3  0  0  0  0  0  0
  -23.7260   -7.6350   23.4130 C   0  0  0  0  0  3  0  0  0  0  0  0
  -23.0520   -6.9660   22.3630 C   0  0  0  0  0  0  0  0  0  0  0  0
  -23.2590   -7.3890   21.0390 C   0  0  0  0  0  3  0  0  0  0  0  0
  -24.1030   -8.4750   20.7550 C   0  0  0  0  0  3  0  0  0  0  0  0
  -22.2350   -5.8770   22.5420 O   0  0  0  0  0  0  0  0  0  0  0  0
  -21.2180   -5.8820   23.4640 C   0  0  0  0  0  0  0  0  0  0  0  0
  -20.1310   -6.7780   23.3750 C   0  0  0  0  0  3  0  0  0  0  0  0
  -19.0770   -6.7040   24.3080 C   0  0  0  0  0  3  0  0  0  0  0  0
  -19.1020   -5.7250   25.3200 C   0  0  0  0  0  0  0  0  0  0  0  0
  -20.1810   -4.8290   25.4070 C   0  0  0  0  0  3  0  0  0  0  0  0
  -21.2340   -4.9060   24.4790 C   0  0  0  0  0  0  0  0  0  0  0  0
  -22.2610   -4.0250   24.5550 F   0  0  0  0  0  0  0  0  0  0  0  0
  -18.0860   -5.6450   26.2110 F   0  0  0  0  0  0  0  0  0  0  0  0
  -23.9030  -12.2790   21.1330 C   0  0  0  0  0  0  0  0  0  0  0  0
  -23.0170  -11.8400   22.0150 N   0  0  0  0  0  0  0  0  0  0  0  0
  -23.6280  -13.1930   20.3530 O   0  0  0  0  0  0  0  0  0  0  0  0
  -23.2440  -11.1010   22.6670 H   0  0  0  0  0  0  0  0  0  0  0  0
  -22.0870  -12.2350   22.0350 H   0  0  0  0  0  0  0  0  0  0  0  0
  -26.7530  -13.5720   20.4080 N   0  0  0  0  0  0  0  0  0  0  0  0
  -26.0010  -14.2460   20.4510 H   0  0  0  0  0  0  0  0  0  0  0  0
  -27.6180  -13.9650   20.7640 H   0  0  0  0  0  0  0  0  0  0  0  0
  -31.8690  -20.0650   19.9750 C   0  0  0  0  0  3  0  0  0  0  0  0
  -33.2370  -19.6790   19.9690 O   0  0  0  0  0  0  0  0  0  0  0  0
  -33.7160  -20.3160   20.4880 H   0  0  0  0  0  0  0  0  0  0  0  0
  -31.7040  -21.4190   19.1970 C   0  0  0  0  0  2  0  0  0  0  0  0
  -29.9010  -22.4830   20.6790 C   0  0  0  0  0  1  0  0  0  0  0  0
  -31.3000  -22.6810   20.0530 C   0  0  0  0  0  3  0  0  0  0  0  0
  -31.4010  -24.0360   19.2710 C   0  0  0  0  0  2  0  0  0  0  0  0
  -30.9970  -25.2260   20.0050 O   0  0  0  0  0  0  0  0  0  0  0  0
  -25.5080  -28.3520   23.3490 C   0  0  0  0  0  0  0  0  0  0  0  0
  -29.7380  -25.7950   19.8640 C   0  0  0  0  0  0  0  0  0  0  0  0
  -25.0940  -27.6520   21.0190 C   0  0  0  0  0  3  0  0  0  0  0  0
  -27.1510  -26.9710   19.6770 C   0  0  0  0  0  0  0  0  0  0  0  0
  -27.4620  -28.2670   21.7930 C   0  0  0  0  0  2  0  0  0  0  0  0
  -27.9960  -27.3110   20.7400 C   0  0  0  0  0  0  0  0  0  0  0  0
  -29.2960  -26.7500   20.8170 C   0  0  0  0  0  3  0  0  0  0  0  0
  -28.8550  -25.4670   18.8060 C   0  0  0  0  0  3  0  0  0  0  0  0
  -27.5790  -26.0500   18.7090 C   0  0  0  0  0  3  0  0  0  0  0  0
  -25.7900  -27.6270   19.6350 C   0  0  0  0  0  2  0  0  0  0  0  0
  -26.0230  -28.0840   22.1130 N   0  0  0  0  0  0  0  0  0  0  0  0
  -24.2910  -28.2800   23.5690 O   0  0  0  0  0  0  0  0  0  0  0  0
  -24.4450  -26.2710   21.2700 C   0  0  0  0  0  0  0  0  0  0  0  0
  -23.2950  -26.0250   20.6230 N   0  0  0  0  0  0  0  0  0  0  0  0
  -24.9830  -25.4430   22.0100 O   0  0  0  0  0  0  0  0  0  0  0  0
  -22.9160  -26.7520   20.0350 H   0  0  0  0  0  0  0  0  0  0  0  0
  -20.2630  -24.4130   19.4860 C   0  0  0  0  0  0  0  0  0  0  0  0
  -22.5260  -24.7810   20.6790 C   0  0  0  0  0  3  0  0  0  0  0  0
  -23.0970  -23.7290   19.7020 C   0  0  0  0  0  2  0  0  0  0  0  0
  -22.4140  -23.7450   18.3310 C   0  0  0  0  0  2  0  0  0  0  0  0
  -20.9120  -23.4840   18.4730 C   0  0  0  0  0  2  0  0  0  0  0  0
  -21.0240  -25.0370   20.5100 C   0  0  0  0  0  0  0  0  0  0  0  0
  -20.3800  -25.9200   21.4030 C   0  0  0  0  0  3  0  0  0  0  0  0
  -19.0000  -26.1780   21.2890 C   0  0  0  0  0  3  0  0  0  0  0  0
  -18.2480  -25.5490   20.2820 C   0  0  0  0  0  3  0  0  0  0  0  0
  -18.8760  -24.6650   19.3860 C   0  0  0  0  0  3  0  0  0  0  0  0
  -26.4220  -28.7850   24.5360 C   0  0  0  0  0  3  0  0  0  0  0  0
  -25.8130  -29.9730   25.1500 N   0  0  0  0  0  0  0  0  0  0  0  0
  -26.2330  -31.2320   24.9610 C   0  0  0  0  0  0  0  0  0  0  0  0
  -27.2320  -31.5100   24.2930 O   0  0  0  0  0  0  0  0  0  0  0  0
  -24.9570  -29.8260   25.6640 H   0  0  0  0  0  0  0  0  0  0  0  0
  -24.5170  -33.0290   24.5610 C   0  0  0  0  0  1  0  0  0  0  0  0
  -25.4130  -32.3600   25.6170 C   0  0  0  0  0  3  0  0  0  0  0  0
  -26.9110  -32.8890   27.4870 C   0  0  0  0  0  1  0  0  0  0  0  0
  -26.2470  -33.3850   26.2840 N   0  0  0  0  0  0  0  0  0  0  0  0
  -25.6880  -34.1950   26.5420 H   0  0  0  0  0  0  0  0  0  0  0  0
  -26.6280  -27.6490   25.6140 C   0  0  1  0  0  0  0  0  0  0  0  0
  -25.3100  -27.0130   26.1090 C   0  0  0  0  0  1  0  0  0  0  0  0
  -27.5090  -26.5120   25.0480 C   0  0  0  0  0  1  0  0  0  0  0  0
  -27.3740  -28.2220   26.8440 C   0  0  0  0  0  1  0  0  0  0  0  0
  1  2  1  0
  2  4  2  0
  3  1  2  0
  4 51  1  0
  5  3  1  0
  5  6  2  0
  6  4  1  0
  7  3  1  0
  7 11  1  0
  7  8  1  0
 10 11  1  0
 11  9  1  0
 12  5  1  0
 12 21  1  0
 13 19  1  0
 15 16  1  0
 15 14  1  0
 17 16  1  0
 17 26  1  0
 17 18  1  0
 19 14  1  0
 19 18  1  0
 20 13  2  0
 21 22  1  0
 21 13  1  0
 23 26  1  0
 23 24  2  0
 24 25  1  0
 25 28  1  0
 26 27  1  0
 27 25  2  0
 28 29  1  0
 29 30  2  0
 31 34  1  0
 31 30  1  0
 32 31  2  0
 33 32  1  0
 33 28  2  0
 34 35  1  0
 35 40  1  0
 36 35  2  0
 36 37  1  0
 37 38  2  0
 38 39  1  0
 38 42  1  0
 40 41  1  0
 40 39  2  0
 43 24  1  0
 43 44  1  0
 44 47  1  0
 44 46  1  0
 45 43  2  0
 48 49  1  0
 48 50  1  0
 48 23  1  0
 51 54  1  0
 52 51  1  0
 52 53  1  0
 54 56  1  0
 56 55  1  0
 57 58  1  0
 57 56  1  0
 59 70  2  0
 60 58  1  0
 60 65  1  0
 61 71  1  0
 61 69  1  0
 62 64  1  0
 63 69  1  0
 64 65  2  0
 64 63  1  0
 66 60  2  0
 67 66  1  0
 67 62  2  0
 68 62  1  0
 68 61  1  0
 69 59  1  0
 71 73  2  0
 72 71  1  0
 74 72  1  0
 75 80  1  0
 76 72  1  0
 77 76  1  0
 78 79  1  0
 78 77  1  0
 79 75  1  0
 80 76  1  0
 80 81  2  0
 82 81  1  0
 83 82  2  0
 84 75  2  0
 84 83  1  0
 85 59  1  0
 85 86  1  0
 85 95  1  0
 86 89  1  0
 87 86  1  0
 87 91  1  0
 88 87  2  0
 91 90  1  0
 91 93  1  0
 93 94  1  0
 93 92  1  0
 95 96  1  1
 95 98  1  0
 97 95  1  0
M  ISO  4  13 100  21 100  57 101  58 101
M  END
>  <TORSDO>  (92) 
F 24

>  <SCORE>  (92) 
-4.071

>  <name>  (92) 
92

>  <ligand_id>  (92) 
92

>  <original_smiles>  (92) 
[H]OC([H])(c1nc(C([H])([H])N([H])C(=O)N2C([H])([H])C([H])([H])C([H])([H])C([H])(n3nc(-c4c([H])c([H])c(Oc5c([H])c([H])c(F)c([H])c5F)c([H])c4[H])c(C(=O)N([H])[H])c3N([H])[H])C2([H])[H])c(N([H])C([H])(C([H])([H])[H])C([H])([H])[H])c([H])c1[H])C([H])([H])C([H])(C([H])([H])[H])C([H])([H])Oc1c([H])c([H])c2c(c1[H])C([H])([H])N(C(=O)C([H])(N([H])C(=O)C([H])(N([H])C([H])([H])[H])C([H])([H])[H])C(C([H])([H])[H])(C([H])([H])[H])C([H])([H])[H])C([H])(C(=O)N([H])C1([H])c3c([H])c([H])c([H])c([H])c3C([H])([H])C([H])([H])C1([H])[H])C2([H])[H]

>  <smiles>  (92) 
[H]OC([H])(c1nc(C([H])([H])N([H])C(=O)N2C([H])([H])C([H])([H])C([H])([H])C([H])(n3nc(-c4c([H])c([H])c(Oc5c([H])c([H])c(F)c([H])c5F)c([H])c4[H])c(C(=O)N([H])[H])c3N([H])[H])C2([H])[H])c(N([H])C([H])(C([H])([H])[H])C([H])([H])[H])c([H])c1[H])C([H])([H])C([H])(C([H])([H])[H])C([H])([H])Oc1c([H])c([H])c2c(c1[H])C([H])([H])N(C(=O)C([H])(N([H])C(=O)C([H])(N([H])C([H])([H])[H])C([H])([H])[H])C(C([H])([H])[H])(C([H])([H])[H])C([H])([H])[H])C([H])(C(=O)N([H])C1([H])c3c([H])c([H])c([H])c([H])c3C([H])([H])C([H])([H])C1([H])[H])C2([H])[H]

$$$$
93:0:0
     RDKit          3D

 94101  0  0  1  0  0  0  0  0999 V2000
  -27.9050  -23.3260   20.9170 N   0  0  0  0  0  0  0  0  0  0  0  0
  -26.6810  -23.2180   21.7320 C   0  0  0  0  0  2  0  0  0  0  0  0
  -25.0520  -23.4420   19.7740 C   0  0  0  0  0  1  0  0  0  0  0  0
  -25.4710  -23.9930   21.1480 C   0  0  0  0  0  3  0  0  0  0  0  0
  -24.3940  -24.8960   23.3240 C   0  0  0  0  0  1  0  0  0  0  0  0
  -24.2630  -23.9630   22.1090 C   0  0  0  0  0  2  0  0  0  0  0  0
  -28.4580  -24.7000   21.0960 C   0  0  0  0  0  2  0  0  0  0  0  0
  -28.7340  -25.5050   19.7920 C   0  0  0  0  0  2  0  0  0  0  0  0
  -28.6710  -26.9480   19.9900 O   0  0  0  0  0  0  0  0  0  0  0  0
  -24.6670  -31.9470   23.1790 C   0  0  0  0  0  0  0  0  0  0  0  0
  -27.4600  -27.6350   19.9960 C   0  0  0  0  0  0  0  0  0  0  0  0
  -23.5140  -30.5510   21.4960 C   0  0  0  0  0  3  0  0  0  0  0  0
  -25.0210  -29.1010   20.0380 C   0  0  0  0  0  0  0  0  0  0  0  0
  -26.0330  -30.9890   21.3190 C   0  0  0  0  0  2  0  0  0  0  0  0
  -26.1640  -29.6370   20.6410 C   0  0  0  0  0  0  0  0  0  0  0  0
  -27.3830  -28.9120   20.6130 C   0  0  0  0  0  3  0  0  0  0  0  0
  -26.2880  -27.1290   19.3850 C   0  0  0  0  0  3  0  0  0  0  0  0
  -25.0810  -27.8500   19.4060 C   0  0  0  0  0  3  0  0  0  0  0  0
  -23.7510  -29.9200   20.1000 C   0  0  0  0  0  2  0  0  0  0  0  0
  -24.7560  -31.1760   22.0570 N   0  0  0  0  0  0  0  0  0  0  0  0
  -23.5740  -32.1700   23.7210 O   0  0  0  0  0  0  0  0  0  0  0  0
  -22.8950  -29.4810   22.4260 C   0  0  0  0  0  0  0  0  0  0  0  0
  -21.5740  -29.2740   22.3050 N   0  0  0  0  0  0  0  0  0  0  0  0
  -23.6000  -28.8440   23.2130 O   0  0  0  0  0  0  0  0  0  0  0  0
  -21.0630  -29.8430   21.6450 H   0  0  0  0  0  0  0  0  0  0  0  0
  -18.2300  -28.0010   22.8100 C   0  0  0  0  0  0  0  0  0  0  0  0
  -20.7860  -28.2900   23.0490 C   0  0  0  0  0  3  0  0  0  0  0  0
  -20.9020  -26.8860   22.4110 C   0  0  0  0  0  2  0  0  0  0  0  0
  -19.7870  -26.5890   21.4020 C   0  0  0  0  0  2  0  0  0  0  0  0
  -18.4150  -26.6850   22.0760 C   0  0  0  0  0  2  0  0  0  0  0  0
  -19.3430  -28.7630   23.2530 C   0  0  0  0  0  0  0  0  0  0  0  0
  -19.1140  -29.9970   23.9000 C   0  0  0  0  0  3  0  0  0  0  0  0
  -17.8050  -30.4690   24.1100 C   0  0  0  0  0  3  0  0  0  0  0  0
  -16.7070  -29.7040   23.6830 C   0  0  0  0  0  3  0  0  0  0  0  0
  -16.9190  -28.4720   23.0390 C   0  0  0  0  0  3  0  0  0  0  0  0
  -25.9280  -32.6070   23.8190 C   0  0  0  0  0  3  0  0  0  0  0  0
  -26.4570  -31.8320   25.0870 C   0  0  1  0  0  0  0  0  0  0  0  0
  -25.3650  -31.5510   26.1460 C   0  0  0  0  0  1  0  0  0  0  0  0
  -27.0760  -30.4760   24.6780 C   0  0  0  0  0  1  0  0  0  0  0  0
  -27.5840  -32.6460   25.7680 C   0  0  0  0  0  1  0  0  0  0  0  0
  -25.5760  -33.9900   24.1660 N   0  0  0  0  0  0  0  0  0  0  0  0
  -25.8940  -35.0640   23.4310 C   0  0  0  0  0  0  0  0  0  0  0  0
  -26.5820  -34.9960   22.4100 O   0  0  0  0  0  0  0  0  0  0  0  0
  -24.9660  -34.1170   24.9600 H   0  0  0  0  0  0  0  0  0  0  0  0
  -24.1240  -36.8160   23.0720 C   0  0  0  0  0  1  0  0  0  0  0  0
  -25.3610  -36.4310   23.9000 C   0  0  0  0  0  3  0  0  0  0  0  0
  -27.4560  -37.3550   24.7840 C   0  0  0  0  0  1  0  0  0  0  0  0
  -26.3670  -37.5130   23.8240 N   0  0  0  0  0  0  0  0  0  0  0  0
  -25.9330  -38.4190   23.9850 H   0  0  0  0  0  0  0  0  0  0  0  0
  -28.8610  -22.2540   21.3010 C   0  0  0  0  0  2  0  0  0  0  0  0
  -28.5220  -20.7990   20.7820 C   0  0  0  0  0  2  0  0  0  0  0  0
  -29.4680  -19.7320   21.2440 N   0  0  0  0  0  4  0  0  0  0  0  0
  -30.3700  -19.9090   20.8330 H   0  0  0  0  0  0  0  0  0  0  0  0
  -29.5690  -19.8140   22.2430 H   0  0  0  0  0  0  0  0  0  0  0  0
  -29.0700  -18.3150   20.9440 C   0  0  0  0  0  2  0  0  0  0  0  0
  -30.2070  -17.2640   21.1920 C   0  0  0  0  0  2  0  0  0  0  0  0
  -30.5420  -14.8270   20.5810 C   0  0  0  0  0  0  0  0  0  0  0  0
  -30.3080  -12.7170   19.3220 C   0  0  0  0  0  2  0  0  0  0  0  0
  -29.3670  -12.9550   18.1220 C   0  0  0  0  0  2  0  0  0  0  0  0
  -27.8940  -12.7660   18.5320 C   0  0  0  0  0  2  0  0  0  0  0  0
  -27.5300  -13.5230   19.8380 C   0  0  0  0  0  3  0  0  0  0  0  0
  -28.5850  -13.2730   20.9390 C   0  0  0  0  0  2  0  0  0  0  0  0
  -29.9010  -13.6410   20.3940 N   0  0  0  0  0  0  0  0  0  0  0  0
  -31.6910  -15.0300   20.1760 O   0  0  0  0  0  0  0  0  0  0  0  0
  -29.7900  -15.8430   21.0680 N   0  0  0  0  0  0  0  0  0  0  0  0
  -28.8520  -15.6050   21.3540 H   0  0  0  0  0  0  0  0  0  0  0  0
  -25.0980  -14.0380   20.5020 C   0  0  0  0  0  0  0  0  0  0  0  0
  -24.0530  -13.2270   20.8540 C   0  0  0  0  0  0  0  0  0  0  0  0
  -24.5670  -11.8940   20.8320 C   0  0  0  0  0  0  0  0  0  0  0  0
  -26.1810  -13.1970   20.2920 N   0  0  0  0  0  0  0  0  0  0  0  0
  -25.8630  -11.9020   20.5510 N   0  0  0  0  0  0  0  0  0  0  0  0
  -23.8850  -10.6060   21.0080 C   0  0  0  0  0  0  0  0  0  0  0  0
  -24.3440   -9.6500   21.9410 C   0  0  0  0  0  3  0  0  0  0  0  0
  -23.6610   -8.4250   22.1060 C   0  0  0  0  0  3  0  0  0  0  0  0
  -22.5040   -8.1490   21.3380 C   0  0  0  0  0  0  0  0  0  0  0  0
  -22.0660   -9.0950   20.3950 C   0  0  0  0  0  3  0  0  0  0  0  0
  -22.7510  -10.3100   20.2280 C   0  0  0  0  0  3  0  0  0  0  0  0
  -21.7910   -6.9780   21.4140 O   0  0  0  0  0  0  0  0  0  0  0  0
  -21.7610   -6.2250   22.5610 C   0  0  0  0  0  0  0  0  0  0  0  0
  -21.3280   -6.7630   23.7930 C   0  0  0  0  0  3  0  0  0  0  0  0
  -21.2430   -5.9370   24.9310 C   0  0  0  0  0  3  0  0  0  0  0  0
  -21.5850   -4.5730   24.8390 C   0  0  0  0  0  0  0  0  0  0  0  0
  -22.0100   -4.0360   23.6120 C   0  0  0  0  0  3  0  0  0  0  0  0
  -22.0950   -4.8590   22.4750 C   0  0  0  0  0  0  0  0  0  0  0  0
  -22.4850   -4.3310   21.2900 F   0  0  0  0  0  0  0  0  0  0  0  0
  -21.4970   -3.7770   25.9300 F   0  0  0  0  0  0  0  0  0  0  0  0
  -22.6350  -13.6510   21.0980 C   0  0  0  0  0  0  0  0  0  0  0  0
  -21.9220  -12.9370   21.9610 N   0  0  0  0  0  0  0  0  0  0  0  0
  -22.1660  -14.6520   20.5590 O   0  0  0  0  0  0  0  0  0  0  0  0
  -22.3130  -12.1270   22.4200 H   0  0  0  0  0  0  0  0  0  0  0  0
  -20.9690  -13.2040   22.1660 H   0  0  0  0  0  0  0  0  0  0  0  0
  -25.2130  -15.4150   20.3220 N   0  0  0  0  0  0  0  0  0  0  0  0
  -24.4120  -16.0330   20.3970 H   0  0  0  0  0  0  0  0  0  0  0  0
  -26.0360  -15.8780   19.9620 H   0  0  0  0  0  0  0  0  0  0  0  0
  1  7  1  0
  1 50  1  0
  1  2  1  0
  4  3  1  0
  4  2  1  0
  4  6  1  0
  6  5  1  0
  8  9  1  0
  8  7  1  0
  9 11  1  0
 10 21  2  0
 11 16  1  0
 12 20  1  0
 12 22  1  0
 13 19  1  0
 13 15  1  0
 14 20  1  0
 15 14  1  0
 16 15  2  0
 17 18  1  0
 17 11  2  0
 18 13  2  0
 19 12  1  0
 20 10  1  0
 22 24  2  0
 23 22  1  0
 25 23  1  0
 26 35  2  0
 26 31  1  0
 27 23  1  0
 27 31  1  0
 28 27  1  0
 29 30  1  0
 29 28  1  0
 30 26  1  0
 31 32  2  0
 32 33  1  0
 34 33  2  0
 35 34  1  0
 36 10  1  0
 36 41  1  0
 36 37  1  0
 37 40  1  1
 37 38  1  0
 39 37  1  0
 41 44  1  0
 42 46  1  0
 42 41  1  0
 43 42  2  0
 46 45  1  0
 48 46  1  0
 48 49  1  0
 48 47  1  0
 51 52  1  0
 51 50  1  0
 52 54  1  0
 53 52  1  0
 55 56  1  0
 55 52  1  0
 57 65  1  0
 58 63  1  0
 59 60  1  0
 59 58  1  0
 61 60  1  0
 61 70  1  0
 61 62  1  0
 63 57  1  0
 63 62  1  0
 64 57  2  0
 65 56  1  0
 65 66  1  0
 67 68  2  0
 68 87  1  0
 69 68  1  0
 69 72  1  0
 70 67  1  0
 70 71  1  0
 71 69  2  0
 72 73  1  0
 73 74  2  0
 75 78  1  0
 75 74  1  0
 76 75  2  0
 77 76  1  0
 77 72  2  0
 78 79  1  0
 79 80  1  0
 80 81  2  0
 82 81  1  0
 82 86  1  0
 83 82  2  0
 84 79  2  0
 84 83  1  0
 85 84  1  0
 87 88  1  0
 88 91  1  0
 88 90  1  0
 89 87  2  0
 92 93  1  0
 92 67  1  0
 94 92  1  0
M  ISO  4   8 101   9 101  57 100  65 100
M  END
>  <TORSDO>  (93) 
F 26

>  <SCORE>  (93) 
-12.165

>  <name>  (93) 
93

>  <ligand_id>  (93) 
93

>  <original_smiles>  (93) 
[H]c1c([H])c([H])c2c(c1[H])C([H])([H])C([H])([H])C([H])([H])C2([H])N([H])C(=O)C1([H])N(C(=O)C([H])(N([H])C(=O)C([H])(N([H])C([H])([H])[H])C([H])([H])[H])C(C([H])([H])[H])(C([H])([H])[H])C([H])([H])[H])C([H])([H])c2c([H])c(OC([H])([H])C([H])([H])N(C([H])([H])C([H])(C([H])([H])[H])C([H])([H])C([H])([H])[H])C([H])([H])C([H])([H])[N+]([H])([H])C([H])([H])C([H])([H])N([H])C(=O)N3C([H])([H])C([H])([H])C([H])([H])C([H])(n4nc(-c5c([H])c([H])c(Oc6c([H])c([H])c(F)c([H])c6F)c([H])c5[H])c(C(=O)N([H])[H])c4N([H])[H])C3([H])[H])c([H])c([H])c2C1([H])[H]

>  <smiles>  (93) 
[H]c1c([H])c([H])c2c(c1[H])C([H])([H])C([H])([H])C([H])([H])C2([H])N([H])C(=O)C1([H])N(C(=O)C([H])(N([H])C(=O)C([H])(N([H])C([H])([H])[H])C([H])([H])[H])C(C([H])([H])[H])(C([H])([H])[H])C([H])([H])[H])C([H])([H])c2c([H])c(OC([H])([H])C([H])([H])N(C([H])([H])C([H])(C([H])([H])[H])C([H])([H])C([H])([H])[H])C([H])([H])C([H])([H])[N+]([H])([H])C([H])([H])C([H])([H])N([H])C(=O)N3C([H])([H])C([H])([H])C([H])([H])C([H])(n4nc(-c5c([H])c([H])c(Oc6c([H])c([H])c(F)c([H])c6F)c([H])c5[H])c(C(=O)N([H])[H])c4N([H])[H])C3([H])[H])c([H])c([H])c2C1([H])[H]

$$$$
94:0:0
     RDKit          3D

 93102  0  0  1  0  0  0  0  0999 V2000
  -30.2760  -22.6430   21.6250 C   0  0  0  0  0  3  0  0  0  0  0  0
  -30.3720  -21.2590   21.8770 C   0  0  0  0  0  3  0  0  0  0  0  0
  -29.5340  -22.0980   19.4160 C   0  0  0  0  0  3  0  0  0  0  0  0
  -29.8450  -23.1140   20.3590 C   0  0  0  0  0  0  0  0  0  0  0  0
  -30.0330  -20.3270   20.8750 C   0  0  0  0  0  0  0  0  0  0  0  0
  -29.6480  -20.7590   19.6480 N   0  0  0  0  0  0  0  0  0  0  0  0
  -30.7490  -14.6500   20.1350 C   0  0  0  0  0  0  0  0  0  0  0  0
  -30.2950  -12.4720   19.0400 C   0  0  0  0  0  2  0  0  0  0  0  0
  -29.3220  -12.6340   17.8560 C   0  0  0  0  0  2  0  0  0  0  0  0
  -27.8730  -12.4660   18.3430 C   0  0  0  0  0  2  0  0  0  0  0  0
  -27.5700  -13.3200   19.5990 C   0  0  0  0  0  3  0  0  0  0  0  0
  -28.6810  -13.2020   20.6760 C   0  0  0  0  0  2  0  0  0  0  0  0
  -29.9730  -13.5150   20.0430 N   0  0  0  0  0  0  0  0  0  0  0  0
  -31.8460  -14.6710   19.5660 O   0  0  0  0  0  0  0  0  0  0  0  0
  -28.9650  -17.9270   20.6380 C   0  0  0  0  0  2  0  0  0  0  0  0
  -31.4370  -18.0990   20.7670 C   0  0  0  0  0  2  0  0  0  0  0  0
  -29.0550  -16.3980   20.9970 C   0  0  0  0  0  2  0  0  0  0  0  0
  -31.4660  -16.6700   21.3830 C   0  0  0  0  0  2  0  0  0  0  0  0
  -30.1270  -18.7980   21.1670 C   0  0  0  0  0  3  0  0  0  0  0  0
  -30.3970  -15.7680   20.8660 N   0  0  0  0  0  0  0  0  0  0  0  0
  -25.2100  -13.9040   20.4270 C   0  0  0  0  0  0  0  0  0  0  0  0
  -24.1630  -13.1240   20.8330 C   0  0  0  0  0  0  0  0  0  0  0  0
  -24.6240  -11.7720   20.7640 C   0  0  0  0  0  0  0  0  0  0  0  0
  -26.2460  -13.0290   20.1420 N   0  0  0  0  0  0  0  0  0  0  0  0
  -25.9020  -11.7400   20.4030 N   0  0  0  0  0  0  0  0  0  0  0  0
  -23.9050  -10.5060   20.9660 C   0  0  0  0  0  0  0  0  0  0  0  0
  -24.3510   -9.5420   21.8960 C   0  0  0  0  0  3  0  0  0  0  0  0
  -23.6330   -8.3400   22.0820 C   0  0  0  0  0  3  0  0  0  0  0  0
  -22.4540   -8.0960   21.3410 C   0  0  0  0  0  0  0  0  0  0  0  0
  -22.0290   -9.0480   20.3960 C   0  0  0  0  0  3  0  0  0  0  0  0
  -22.7450  -10.2410   20.2080 C   0  0  0  0  0  3  0  0  0  0  0  0
  -21.7070   -6.9460   21.4370 O   0  0  0  0  0  0  0  0  0  0  0  0
  -21.6530   -6.2230   22.6010 C   0  0  0  0  0  0  0  0  0  0  0  0
  -21.2070   -6.7950   23.8140 C   0  0  0  0  0  3  0  0  0  0  0  0
  -21.0990   -5.9980   24.9710 C   0  0  0  0  0  3  0  0  0  0  0  0
  -21.4250   -4.6300   24.9160 C   0  0  0  0  0  0  0  0  0  0  0  0
  -21.8620   -4.0560   23.7080 C   0  0  0  0  0  3  0  0  0  0  0  0
  -21.9730   -4.8510   22.5540 C   0  0  0  0  0  0  0  0  0  0  0  0
  -22.3760   -4.2910   21.3890 F   0  0  0  0  0  0  0  0  0  0  0  0
  -21.3140   -3.8610   26.0250 F   0  0  0  0  0  0  0  0  0  0  0  0
  -22.7760  -13.5920   21.1730 C   0  0  0  0  0  0  0  0  0  0  0  0
  -22.0890  -12.8730   22.0520 N   0  0  0  0  0  0  0  0  0  0  0  0
  -22.3130  -14.6270   20.6930 O   0  0  0  0  0  0  0  0  0  0  0  0
  -22.4820  -12.0360   22.4580 H   0  0  0  0  0  0  0  0  0  0  0  0
  -21.1590  -13.1580   22.3270 H   0  0  0  0  0  0  0  0  0  0  0  0
  -25.3570  -15.2760   20.2510 N   0  0  0  0  0  0  0  0  0  0  0  0
  -24.5770  -15.9120   20.3750 H   0  0  0  0  0  0  0  0  0  0  0  0
  -26.1630  -15.7190   19.8320 H   0  0  0  0  0  0  0  0  0  0  0  0
  -30.1340  -24.9150   18.5470 C   0  0  0  0  0  1  0  0  0  0  0  0
  -30.8220  -25.4290   20.8720 C   0  0  0  0  0  1  0  0  0  0  0  0
  -29.7810  -24.6490   20.0300 C   0  0  2  0  0  0  0  0  0  0  0  0
  -28.3720  -25.2820   20.2880 C   0  0  0  0  0  2  0  0  0  0  0  0
  -28.4110  -26.7290   20.1620 O   0  0  0  0  0  0  0  0  0  0  0  0
  -24.5660  -31.9090   23.2260 C   0  0  0  0  0  0  0  0  0  0  0  0
  -27.2260  -27.4450   20.1670 C   0  0  0  0  0  0  0  0  0  0  0  0
  -23.3670  -30.5010   21.5840 C   0  0  0  0  0  3  0  0  0  0  0  0
  -24.8280  -28.9670   20.1620 C   0  0  0  0  0  0  0  0  0  0  0  0
  -25.8950  -30.8620   21.3950 C   0  0  0  0  0  2  0  0  0  0  0  0
  -25.9840  -29.4900   20.7530 C   0  0  0  0  0  0  0  0  0  0  0  0
  -27.1870  -28.7410   20.7440 C   0  0  0  0  0  3  0  0  0  0  0  0
  -26.0470  -26.9450   19.5720 C   0  0  0  0  0  3  0  0  0  0  0  0
  -24.8580  -27.6980   19.5620 C   0  0  0  0  0  3  0  0  0  0  0  0
  -23.5780  -29.8200   20.2070 C   0  0  0  0  0  2  0  0  0  0  0  0
  -24.6260  -31.1070   22.1240 N   0  0  0  0  0  0  0  0  0  0  0  0
  -23.4830  -32.1770   23.7640 O   0  0  0  0  0  0  0  0  0  0  0  0
  -22.7210  -29.4750   22.5440 C   0  0  0  0  0  0  0  0  0  0  0  0
  -21.3980  -29.2850   22.4120 N   0  0  0  0  0  0  0  0  0  0  0  0
  -23.4050  -28.8550   23.3620 O   0  0  0  0  0  0  0  0  0  0  0  0
  -20.9080  -29.8330   21.7200 H   0  0  0  0  0  0  0  0  0  0  0  0
  -18.0260  -28.0830   22.9110 C   0  0  0  0  0  0  0  0  0  0  0  0
  -20.5840  -28.3450   23.1830 C   0  0  0  0  0  3  0  0  0  0  0  0
  -20.6880  -26.9150   22.6040 C   0  0  0  0  0  2  0  0  0  0  0  0
  -19.5860  -26.5930   21.5880 C   0  0  0  0  0  2  0  0  0  0  0  0
  -18.2020  -26.7360   22.2290 C   0  0  0  0  0  2  0  0  0  0  0  0
  -19.1440  -28.8460   23.3430 C   0  0  0  0  0  0  0  0  0  0  0  0
  -18.9220  -30.1090   23.9350 C   0  0  0  0  0  3  0  0  0  0  0  0
  -17.6170  -30.6090   24.0970 C   0  0  0  0  0  3  0  0  0  0  0  0
  -16.5140  -29.8430   23.6830 C   0  0  0  0  0  3  0  0  0  0  0  0
  -16.7200  -28.5800   23.0990 C   0  0  0  0  0  3  0  0  0  0  0  0
  -25.8490  -32.5450   23.8470 C   0  0  0  0  0  3  0  0  0  0  0  0
  -25.5370  -33.9440   24.1700 N   0  0  0  0  0  0  0  0  0  0  0  0
  -25.8760  -34.9940   23.4090 C   0  0  0  0  0  0  0  0  0  0  0  0
  -26.5560  -34.8870   22.3850 O   0  0  0  0  0  0  0  0  0  0  0  0
  -24.9390  -34.1000   24.9690 H   0  0  0  0  0  0  0  0  0  0  0  0
  -24.1540  -36.7820   23.0180 C   0  0  0  0  0  1  0  0  0  0  0  0
  -25.3810  -36.3820   23.8540 C   0  0  0  0  0  3  0  0  0  0  0  0
  -27.5020  -37.2650   24.7220 C   0  0  0  0  0  1  0  0  0  0  0  0
  -26.4180  -37.4330   23.7570 N   0  0  0  0  0  0  0  0  0  0  0  0
  -26.0110  -38.3550   23.8900 H   0  0  0  0  0  0  0  0  0  0  0  0
  -26.3680  -31.7800   25.1260 C   0  0  1  0  0  0  0  0  0  0  0  0
  -25.2720  -31.5400   26.1910 C   0  0  0  0  0  1  0  0  0  0  0  0
  -26.9640  -30.4060   24.7410 C   0  0  0  0  0  1  0  0  0  0  0  0
  -27.5130  -32.5840   25.7880 C   0  0  0  0  0  1  0  0  0  0  0  0
  1  2  1  0
  3  6  2  0
  3  4  1  0
  4  1  2  0
  5  2  2  0
  6  5  1  0
  7 20  1  0
  8 13  1  0
  9 10  1  0
  9  8  1  0
 11 10  1  0
 11 24  1  0
 11 12  1  0
 13  7  1  0
 13 12  1  0
 14  7  2  0
 15 17  1  0
 15 19  1  0
 16 19  1  0
 16 18  1  0
 19  5  1  0
 20 17  1  0
 20 18  1  0
 21 22  2  0
 22 41  1  0
 23 22  1  0
 23 26  1  0
 24 25  1  0
 24 21  1  0
 25 23  2  0
 26 27  1  0
 27 28  2  0
 29 32  1  0
 29 28  1  0
 30 29  2  0
 31 30  1  0
 31 26  2  0
 32 33  1  0
 33 34  1  0
 34 35  2  0
 36 35  1  0
 36 40  1  0
 37 36  2  0
 38 33  2  0
 38 37  1  0
 39 38  1  0
 41 42  1  0
 42 45  1  0
 42 44  1  0
 43 41  2  0
 46 47  1  0
 46 21  1  0
 48 46  1  0
 51 49  1  6
 51 52  1  0
 51  4  1  0
 51 50  1  0
 53 55  1  0
 53 52  1  0
 54 65  2  0
 55 60  1  0
 56 64  1  0
 56 66  1  0
 57 63  1  0
 57 59  1  0
 58 64  1  0
 59 58  1  0
 60 59  2  0
 61 55  2  0
 62 61  1  0
 62 57  2  0
 63 56  1  0
 64 54  1  0
 66 68  2  0
 67 66  1  0
 69 67  1  0
 70 79  2  0
 70 75  1  0
 71 67  1  0
 71 75  1  0
 72 71  1  0
 73 74  1  0
 73 72  1  0
 74 70  1  0
 75 76  2  0
 76 77  1  0
 78 77  2  0
 79 78  1  0
 80 54  1  0
 80 81  1  0
 80 90  1  0
 81 84  1  0
 82 86  1  0
 82 81  1  0
 83 82  2  0
 86 85  1  0
 88 86  1  0
 88 89  1  0
 88 87  1  0
 90 93  1  1
 90 91  1  0
 92 90  1  0
M  ISO  4   7 100  20 100  52 101  53 101
M  END
>  <TORSDO>  (94) 
F 18

>  <SCORE>  (94) 
-14.922

>  <name>  (94) 
94

>  <ligand_id>  (94) 
94

>  <original_smiles>  (94) 
[H]c1nc(C2([H])C([H])([H])C([H])([H])N(C(=O)N3C([H])([H])C([H])([H])C([H])([H])C([H])(n4nc(-c5c([H])c([H])c(Oc6c([H])c([H])c(F)c([H])c6F)c([H])c5[H])c(C(=O)N([H])[H])c4N([H])[H])C3([H])[H])C([H])([H])C2([H])[H])c([H])c([H])c1C(C([H])([H])[H])(C([H])([H])[H])C([H])([H])Oc1c([H])c([H])c2c(c1[H])C([H])([H])N(C(=O)C([H])(N([H])C(=O)C([H])(N([H])C([H])([H])[H])C([H])([H])[H])C(C([H])([H])[H])(C([H])([H])[H])C([H])([H])[H])C([H])(C(=O)N([H])C1([H])c3c([H])c([H])c([H])c([H])c3C([H])([H])C([H])([H])C1([H])[H])C2([H])[H]

>  <smiles>  (94) 
[H]c1nc(C2([H])C([H])([H])C([H])([H])N(C(=O)N3C([H])([H])C([H])([H])C([H])([H])C([H])(n4nc(-c5c([H])c([H])c(Oc6c([H])c([H])c(F)c([H])c6F)c([H])c5[H])c(C(=O)N([H])[H])c4N([H])[H])C3([H])[H])C([H])([H])C2([H])[H])c([H])c([H])c1C(C([H])([H])[H])(C([H])([H])[H])C([H])([H])Oc1c([H])c([H])c2c(c1[H])C([H])([H])N(C(=O)C([H])(N([H])C(=O)C([H])(N([H])C([H])([H])[H])C([H])([H])[H])C(C([H])([H])[H])(C([H])([H])[H])C([H])([H])[H])C([H])(C(=O)N([H])C1([H])c3c([H])c([H])c([H])c([H])c3C([H])([H])C([H])([H])C1([H])[H])C2([H])[H]

$$$$
95:0:0
     RDKit          3D

 93101  0  0  1  0  0  0  0  0999 V2000
  -29.3180  -20.1620   20.2680 C   0  0  0  0  0  3  0  0  0  0  0  0
  -30.9350  -21.4940   20.9950 C   0  0  0  0  0  3  0  0  0  0  0  0
  -29.6130  -21.5190   20.6370 C   0  0  0  0  0  0  0  0  0  0  0  0
  -30.4230  -19.3590   20.4150 C   0  0  0  0  0  0  0  0  0  0  0  0
  -32.8320  -19.8640   21.1170 C   0  0  0  0  0  1  0  0  0  0  0  0
  -31.4430  -20.2060   20.8470 N   0  0  0  0  0  0  0  0  0  0  0  0
  -27.4210  -22.4120   19.7580 C   0  0  0  0  0  1  0  0  0  0  0  0
  -28.6230  -22.7050   20.6740 C   0  0  0  0  0  3  0  0  0  0  0  0
  -29.1960  -24.1410   20.3880 C   0  0  0  0  0  2  0  0  0  0  0  0
  -28.2620  -25.3110   20.8660 C   0  0  0  0  0  2  0  0  0  0  0  0
  -28.4570  -26.6130   20.2420 O   0  0  0  0  0  0  0  0  0  0  0  0
  -24.6590  -31.8920   23.2240 C   0  0  0  0  0  0  0  0  0  0  0  0
  -27.3190  -27.4060   20.1980 C   0  0  0  0  0  0  0  0  0  0  0  0
  -23.4620  -30.4720   21.5970 C   0  0  0  0  0  3  0  0  0  0  0  0
  -24.9260  -28.9310   20.1810 C   0  0  0  0  0  0  0  0  0  0  0  0
  -25.9910  -30.8340   21.3960 C   0  0  0  0  0  2  0  0  0  0  0  0
  -26.0860  -29.4560   20.7670 C   0  0  0  0  0  0  0  0  0  0  0  0
  -27.2880  -28.7010   20.7710 C   0  0  0  0  0  3  0  0  0  0  0  0
  -26.1460  -26.9140   19.5810 C   0  0  0  0  0  3  0  0  0  0  0  0
  -24.9510  -27.6580   19.5880 C   0  0  0  0  0  3  0  0  0  0  0  0
  -23.6780  -29.7870   20.2220 C   0  0  0  0  0  2  0  0  0  0  0  0
  -24.7240  -31.0780   22.1330 N   0  0  0  0  0  0  0  0  0  0  0  0
  -23.5740  -32.1680   23.7560 O   0  0  0  0  0  0  0  0  0  0  0  0
  -22.8130  -29.4540   22.5640 C   0  0  0  0  0  0  0  0  0  0  0  0
  -21.4880  -29.2700   22.4440 N   0  0  0  0  0  0  0  0  0  0  0  0
  -23.5000  -28.8330   23.3780 O   0  0  0  0  0  0  0  0  0  0  0  0
  -20.9910  -29.8250   21.7620 H   0  0  0  0  0  0  0  0  0  0  0  0
  -18.1190  -28.0800   22.9640 C   0  0  0  0  0  0  0  0  0  0  0  0
  -20.6770  -28.3350   23.2230 C   0  0  0  0  0  3  0  0  0  0  0  0
  -20.7750  -26.9030   22.6470 C   0  0  0  0  0  2  0  0  0  0  0  0
  -19.6670  -26.5780   21.6400 C   0  0  0  0  0  2  0  0  0  0  0  0
  -18.2900  -26.7290   22.2920 C   0  0  0  0  0  2  0  0  0  0  0  0
  -19.2400  -28.8410   23.3870 C   0  0  0  0  0  0  0  0  0  0  0  0
  -19.0270  -30.1050   23.9760 C   0  0  0  0  0  3  0  0  0  0  0  0
  -17.7240  -30.6100   24.1470 C   0  0  0  0  0  3  0  0  0  0  0  0
  -16.6160  -29.8450   23.7440 C   0  0  0  0  0  3  0  0  0  0  0  0
  -16.8150  -28.5840   23.1550 C   0  0  0  0  0  3  0  0  0  0  0  0
  -25.9410  -32.5350   23.8410 C   0  0  0  0  0  3  0  0  0  0  0  0
  -25.6190  -33.9300   24.1730 N   0  0  0  0  0  0  0  0  0  0  0  0
  -25.9420  -34.9850   23.4130 C   0  0  0  0  0  0  0  0  0  0  0  0
  -26.6110  -34.8870   22.3810 O   0  0  0  0  0  0  0  0  0  0  0  0
  -25.0160  -34.0800   24.9700 H   0  0  0  0  0  0  0  0  0  0  0  0
  -24.2030  -36.7700   23.0620 C   0  0  0  0  0  1  0  0  0  0  0  0
  -25.4440  -36.3670   23.8750 C   0  0  0  0  0  3  0  0  0  0  0  0
  -27.5710  -37.2660   24.7190 C   0  0  0  0  0  1  0  0  0  0  0  0
  -26.4720  -37.4250   23.7700 N   0  0  0  0  0  0  0  0  0  0  0  0
  -26.0590  -38.3420   23.9140 H   0  0  0  0  0  0  0  0  0  0  0  0
  -26.4720  -31.7670   25.1120 C   0  0  1  0  0  0  0  0  0  0  0  0
  -25.3860  -31.5160   26.1840 C   0  0  0  0  0  1  0  0  0  0  0  0
  -27.0690  -30.3970   24.7130 C   0  0  0  0  0  1  0  0  0  0  0  0
  -27.6120  -32.5780   25.7730 C   0  0  0  0  0  1  0  0  0  0  0  0
  -30.5790  -17.8560   20.1370 C   0  0  0  0  0  2  0  0  0  0  0  0
  -29.1300  -17.3140   22.1650 C   0  0  0  0  0  1  0  0  0  0  0  0
  -31.5600  -16.7560   22.2440 C   0  0  0  0  0  1  0  0  0  0  0  0
  -30.3310  -16.8400   21.3150 C   0  0  2  0  0  0  0  0  0  0  0  0
  -30.6470  -14.5240   20.1440 C   0  0  0  0  0  0  0  0  0  0  0  0
  -30.2820  -12.4120   18.8890 C   0  0  0  0  0  2  0  0  0  0  0  0
  -29.2680  -12.6430   17.7480 C   0  0  0  0  0  2  0  0  0  0  0  0
  -27.8180  -12.5050   18.2520 C   0  0  0  0  0  2  0  0  0  0  0  0
  -27.5630  -13.3000   19.5600 C   0  0  0  0  0  3  0  0  0  0  0  0
  -28.6710  -13.0160   20.5980 C   0  0  0  0  0  2  0  0  0  0  0  0
  -29.9630  -13.3540   19.9740 N   0  0  0  0  0  0  0  0  0  0  0  0
  -31.7380  -14.7390   19.6110 O   0  0  0  0  0  0  0  0  0  0  0  0
  -29.9810  -15.4660   20.8570 N   0  0  0  0  0  0  0  0  0  0  0  0
  -29.0760  -15.1500   21.1700 H   0  0  0  0  0  0  0  0  0  0  0  0
  -25.2120  -13.9240   20.4010 C   0  0  0  0  0  0  0  0  0  0  0  0
  -24.1560  -13.1570   20.8120 C   0  0  0  0  0  0  0  0  0  0  0  0
  -24.5960  -11.8010   20.7350 C   0  0  0  0  0  0  0  0  0  0  0  0
  -26.2320  -13.0330   20.1010 N   0  0  0  0  0  0  0  0  0  0  0  0
  -25.8680  -11.7510   20.3590 N   0  0  0  0  0  0  0  0  0  0  0  0
  -23.8650  -10.5450   20.9400 C   0  0  0  0  0  0  0  0  0  0  0  0
  -24.3040   -9.5790   21.8720 C   0  0  0  0  0  3  0  0  0  0  0  0
  -23.5730   -8.3870   22.0650 C   0  0  0  0  0  3  0  0  0  0  0  0
  -22.3880   -8.1530   21.3260 C   0  0  0  0  0  0  0  0  0  0  0  0
  -21.9700   -9.1070   20.3810 C   0  0  0  0  0  3  0  0  0  0  0  0
  -22.7010  -10.2910   20.1870 C   0  0  0  0  0  3  0  0  0  0  0  0
  -21.6270   -7.0150   21.4280 O   0  0  0  0  0  0  0  0  0  0  0  0
  -21.5590   -6.2980   22.5940 C   0  0  0  0  0  0  0  0  0  0  0  0
  -21.1170   -6.8810   23.8030 C   0  0  0  0  0  3  0  0  0  0  0  0
  -20.9950   -6.0900   24.9630 C   0  0  0  0  0  3  0  0  0  0  0  0
  -21.3030   -4.7170   24.9160 C   0  0  0  0  0  0  0  0  0  0  0  0
  -21.7370   -4.1340   23.7130 C   0  0  0  0  0  3  0  0  0  0  0  0
  -21.8610   -4.9220   22.5550 C   0  0  0  0  0  0  0  0  0  0  0  0
  -22.2600   -4.3500   21.3930 F   0  0  0  0  0  0  0  0  0  0  0  0
  -21.1780   -3.9560   26.0270 F   0  0  0  0  0  0  0  0  0  0  0  0
  -22.7800  -13.6470   21.1620 C   0  0  0  0  0  0  0  0  0  0  0  0
  -22.0880  -12.9430   22.0510 N   0  0  0  0  0  0  0  0  0  0  0  0
  -22.3300  -14.6880   20.6840 O   0  0  0  0  0  0  0  0  0  0  0  0
  -22.4680  -12.1020   22.4610 H   0  0  0  0  0  0  0  0  0  0  0  0
  -21.1650  -13.2490   22.3260 H   0  0  0  0  0  0  0  0  0  0  0  0
  -25.3840  -15.2950   20.2400 N   0  0  0  0  0  0  0  0  0  0  0  0
  -24.6260  -15.9510   20.3920 H   0  0  0  0  0  0  0  0  0  0  0  0
  -26.2210  -15.7340   19.8760 H   0  0  0  0  0  0  0  0  0  0  0  0
  1  4  2  0
  1  3  1  0
  3  8  1  0
  3  2  2  0
  4  6  1  0
  6  2  1  0
  6  5  1  0
  8  7  1  0
  9  8  1  0
  9 10  1  0
 11 10  1  0
 12 23  2  0
 13 11  1  0
 13 18  1  0
 14 22  1  0
 14 24  1  0
 15 21  1  0
 15 17  1  0
 16 22  1  0
 17 18  2  0
 17 16  1  0
 19 20  1  0
 19 13  2  0
 20 15  2  0
 21 14  1  0
 22 12  1  0
 24 26  2  0
 25 24  1  0
 27 25  1  0
 28 37  2  0
 28 33  1  0
 29 25  1  0
 29 33  1  0
 30 29  1  0
 31 32  1  0
 31 30  1  0
 32 28  1  0
 33 34  2  0
 34 35  1  0
 36 35  2  0
 37 36  1  0
 38 12  1  0
 38 39  1  0
 38 48  1  0
 39 42  1  0
 40 44  1  0
 40 39  1  0
 41 40  2  0
 44 43  1  0
 46 44  1  0
 46 47  1  0
 46 45  1  0
 48 51  1  1
 48 49  1  0
 50 48  1  0
 52  4  1  0
 52 55  1  0
 55 53  1  1
 55 54  1  0
 56 64  1  0
 57 62  1  0
 58 59  1  0
 58 57  1  0
 60 59  1  0
 60 69  1  0
 60 61  1  0
 62 56  1  0
 62 61  1  0
 63 56  2  0
 64 65  1  0
 64 55  1  0
 66 67  2  0
 67 86  1  0
 68 67  1  0
 68 71  1  0
 69 70  1  0
 69 66  1  0
 70 68  2  0
 71 72  1  0
 72 73  2  0
 74 77  1  0
 74 73  1  0
 75 74  2  0
 76 75  1  0
 76 71  2  0
 77 78  1  0
 78 79  1  0
 79 80  2  0
 81 80  1  0
 81 85  1  0
 82 81  2  0
 83 78  2  0
 83 82  1  0
 84 83  1  0
 86 87  1  0
 87 90  1  0
 87 89  1  0
 88 86  2  0
 91 92  1  0
 91 66  1  0
 93 91  1  0
M  ISO  4  10 101  11 101  56 100  64 100
M  END
>  <TORSDO>  (95) 
F 21

>  <SCORE>  (95) 
-11.606

>  <name>  (95) 
95

>  <ligand_id>  (95) 
95

>  <original_smiles>  (95) 
[H]c1c([H])c([H])c2c(c1[H])C([H])([H])C([H])([H])C([H])([H])C2([H])N([H])C(=O)C1([H])N(C(=O)C([H])(N([H])C(=O)C([H])(N([H])C([H])([H])[H])C([H])([H])[H])C(C([H])([H])[H])(C([H])([H])[H])C([H])([H])[H])C([H])([H])c2c([H])c(OC([H])([H])C([H])([H])C([H])(c3c([H])c(C([H])([H])C(N([H])C(=O)N4C([H])([H])C([H])([H])C([H])([H])C([H])(n5nc(-c6c([H])c([H])c(Oc7c([H])c([H])c(F)c([H])c7F)c([H])c6[H])c(C(=O)N([H])[H])c5N([H])[H])C4([H])[H])(C([H])([H])[H])C([H])([H])[H])n(C([H])([H])[H])c3[H])C([H])([H])[H])c([H])c([H])c2C1([H])[H]

>  <smiles>  (95) 
[H]c1c([H])c([H])c2c(c1[H])C([H])([H])C([H])([H])C([H])([H])C2([H])N([H])C(=O)C1([H])N(C(=O)C([H])(N([H])C(=O)C([H])(N([H])C([H])([H])[H])C([H])([H])[H])C(C([H])([H])[H])(C([H])([H])[H])C([H])([H])[H])C([H])([H])c2c([H])c(OC([H])([H])C([H])([H])C([H])(c3c([H])c(C([H])([H])C(N([H])C(=O)N4C([H])([H])C([H])([H])C([H])([H])C([H])(n5nc(-c6c([H])c([H])c(Oc7c([H])c([H])c(F)c([H])c7F)c([H])c6[H])c(C(=O)N([H])[H])c5N([H])[H])C4([H])[H])(C([H])([H])[H])C([H])([H])[H])n(C([H])([H])[H])c3[H])C([H])([H])[H])c([H])c([H])c2C1([H])[H]

$$$$
96:0:0
     RDKit          3D

 95103  0  0  1  0  0  0  0  0999 V2000
  -30.6450  -14.6380   20.3660 C   0  0  0  0  0  0  0  0  0  0  0  0
  -30.4450  -12.3520   19.4480 C   0  0  0  0  0  2  0  0  0  0  0  0
  -29.5120  -12.3800   18.2210 C   0  0  0  0  0  2  0  0  0  0  0  0
  -28.0470  -12.2020   18.6590 C   0  0  0  0  0  2  0  0  0  0  0  0
  -27.6490  -13.1460   19.8260 C   0  0  0  0  0  3  0  0  0  0  0  0
  -28.7040  -13.1230   20.9550 C   0  0  0  0  0  2  0  0  0  0  0  0
  -30.0100  -13.4300   20.3550 N   0  0  0  0  0  0  0  0  0  0  0  0
  -31.8010  -14.7450   19.9470 O   0  0  0  0  0  0  0  0  0  0  0  0
  -29.2610  -18.1240   20.6940 C   0  0  0  0  0  3  0  0  0  0  0  0
  -30.9350  -19.8090   21.2460 C   0  0  0  0  0  0  0  0  0  0  0  0
  -29.5890  -19.4930   20.9020 C   0  0  0  0  0  0  0  0  0  0  0  0
  -31.8900  -18.7650   21.1040 C   0  0  0  0  0  0  0  0  0  0  0  0
  -30.2580  -17.1120   20.7400 C   0  0  0  0  0  0  0  0  0  0  0  0
  -31.5450  -17.4820   20.8890 N   0  0  0  0  0  0  0  0  0  0  0  0
  -29.8730  -15.7250   20.6490 N   0  0  0  0  0  0  0  0  0  0  0  0
  -28.9040  -15.5260   20.8280 H   0  0  0  0  0  0  0  0  0  0  0  0
  -25.2560  -13.7100   20.5760 C   0  0  0  0  0  0  0  0  0  0  0  0
  -24.2040  -12.9200   20.9490 C   0  0  0  0  0  0  0  0  0  0  0  0
  -24.6820  -11.5740   20.8980 C   0  0  0  0  0  0  0  0  0  0  0  0
  -26.3090  -12.8460   20.3230 N   0  0  0  0  0  0  0  0  0  0  0  0
  -25.9700  -11.5560   20.5750 N   0  0  0  0  0  0  0  0  0  0  0  0
  -23.9740  -10.3010   21.0800 C   0  0  0  0  0  0  0  0  0  0  0  0
  -24.4130   -9.3390   22.0170 C   0  0  0  0  0  3  0  0  0  0  0  0
  -23.7030   -8.1300   22.1870 C   0  0  0  0  0  3  0  0  0  0  0  0
  -22.5420   -7.8740   21.4200 C   0  0  0  0  0  0  0  0  0  0  0  0
  -22.1230   -8.8250   20.4730 C   0  0  0  0  0  3  0  0  0  0  0  0
  -22.8330  -10.0250   20.3010 C   0  0  0  0  0  3  0  0  0  0  0  0
  -21.8050   -6.7180   21.5000 O   0  0  0  0  0  0  0  0  0  0  0  0
  -21.7290   -5.9900   22.6600 C   0  0  0  0  0  0  0  0  0  0  0  0
  -21.2460   -6.5540   23.8620 C   0  0  0  0  0  3  0  0  0  0  0  0
  -21.1200   -5.7530   25.0150 C   0  0  0  0  0  3  0  0  0  0  0  0
  -21.4650   -4.3890   24.9670 C   0  0  0  0  0  0  0  0  0  0  0  0
  -21.9420   -3.8260   23.7700 C   0  0  0  0  0  3  0  0  0  0  0  0
  -22.0700   -4.6240   22.6190 C   0  0  0  0  0  0  0  0  0  0  0  0
  -22.5100   -4.0700   21.4630 F   0  0  0  0  0  0  0  0  0  0  0  0
  -21.3370   -3.6170   26.0710 F   0  0  0  0  0  0  0  0  0  0  0  0
  -22.8040  -13.3760   21.2390 C   0  0  0  0  0  0  0  0  0  0  0  0
  -22.0970  -12.6640   22.1110 N   0  0  0  0  0  0  0  0  0  0  0  0
  -22.3470  -14.3980   20.7310 O   0  0  0  0  0  0  0  0  0  0  0  0
  -22.4780  -11.8340   22.5390 H   0  0  0  0  0  0  0  0  0  0  0  0
  -21.1590  -12.9550   22.3520 H   0  0  0  0  0  0  0  0  0  0  0  0
  -25.4020  -15.0840   20.4090 N   0  0  0  0  0  0  0  0  0  0  0  0
  -24.6250  -15.7250   20.5260 H   0  0  0  0  0  0  0  0  0  0  0  0
  -26.2280  -15.5340   20.0350 H   0  0  0  0  0  0  0  0  0  0  0  0
  -30.4530  -21.6240   23.0340 C   0  0  0  0  0  1  0  0  0  0  0  0
  -31.7200  -22.2620   20.8750 C   0  0  0  0  0  1  0  0  0  0  0  0
  -31.3560  -21.1540   21.8760 C   0  0  0  0  0  3  0  0  0  0  0  0
  -33.9930  -18.8980   19.7050 C   0  0  0  0  0  1  0  0  0  0  0  0
  -33.4050  -18.9670   21.1220 C   0  0  0  0  0  2  0  0  0  0  0  0
  -28.5750  -20.4420   20.8760 O   0  0  0  0  0  0  0  0  0  0  0  0
  -28.6530  -21.5030   19.8960 C   0  0  0  0  0  2  0  0  0  0  0  0
  -28.1840  -22.8740   20.4870 C   0  0  0  0  0  2  0  0  0  0  0  0
  -28.2580  -24.1400   19.5730 C   0  0  0  0  0  2  0  0  0  0  0  0
  -27.9430  -25.4590   20.3470 C   0  0  0  0  0  2  0  0  0  0  0  0
  -28.0210  -26.6930   19.5900 O   0  0  0  0  0  0  0  0  0  0  0  0
  -24.4750  -31.8210   23.0980 C   0  0  0  0  0  0  0  0  0  0  0  0
  -26.8970  -27.4930   19.6720 C   0  0  0  0  0  0  0  0  0  0  0  0
  -23.1790  -30.5340   21.4330 C   0  0  0  0  0  3  0  0  0  0  0  0
  -24.5430  -29.0550   19.8630 C   0  0  0  0  0  0  0  0  0  0  0  0
  -25.7030  -30.8570   21.1490 C   0  0  0  0  0  2  0  0  0  0  0  0
  -25.7370  -29.5220   20.4270 C   0  0  0  0  0  0  0  0  0  0  0  0
  -26.9220  -28.7510   20.3230 C   0  0  0  0  0  3  0  0  0  0  0  0
  -25.6890  -27.0470   19.1000 C   0  0  0  0  0  3  0  0  0  0  0  0
  -24.5150  -27.8180   19.1950 C   0  0  0  0  0  3  0  0  0  0  0  0
  -23.3180  -29.9300   20.0110 C   0  0  0  0  0  2  0  0  0  0  0  0
  -24.4730  -31.0830   21.9510 N   0  0  0  0  0  0  0  0  0  0  0  0
  -23.4220  -32.0780   23.6970 O   0  0  0  0  0  0  0  0  0  0  0  0
  -22.5470  -29.4700   22.3620 C   0  0  0  0  0  0  0  0  0  0  0  0
  -21.2160  -29.3120   22.2750 N   0  0  0  0  0  0  0  0  0  0  0  0
  -23.2500  -28.7950   23.1180 O   0  0  0  0  0  0  0  0  0  0  0  0
  -20.7110  -29.9080   21.6350 H   0  0  0  0  0  0  0  0  0  0  0  0
  -17.8470  -28.1240   22.8250 C   0  0  0  0  0  0  0  0  0  0  0  0
  -20.4150  -28.3450   23.0250 C   0  0  0  0  0  3  0  0  0  0  0  0
  -20.4840  -26.9450   22.3740 C   0  0  0  0  0  2  0  0  0  0  0  0
  -19.3460  -26.6830   21.3820 C   0  0  0  0  0  2  0  0  0  0  0  0
  -17.9870  -26.8070   22.0770 C   0  0  0  0  0  2  0  0  0  0  0  0
  -18.9880  -28.8530   23.2550 C   0  0  0  0  0  0  0  0  0  0  0  0
  -18.8030  -30.0860   23.9170 C   0  0  0  0  0  3  0  0  0  0  0  0
  -17.5110  -30.5940   24.1480 C   0  0  0  0  0  3  0  0  0  0  0  0
  -16.3850  -29.8620   23.7330 C   0  0  0  0  0  3  0  0  0  0  0  0
  -16.5540  -28.6280   23.0800 C   0  0  0  0  0  3  0  0  0  0  0  0
  -25.7970  -32.3960   23.6970 C   0  0  0  0  0  3  0  0  0  0  0  0
  -25.5270  -33.7780   24.1150 N   0  0  0  0  0  0  0  0  0  0  0  0
  -25.8610  -34.8640   23.4050 C   0  0  0  0  0  0  0  0  0  0  0  0
  -26.5010  -34.8070   22.3520 O   0  0  0  0  0  0  0  0  0  0  0  0
  -24.9570  -33.8970   24.9380 H   0  0  0  0  0  0  0  0  0  0  0  0
  -24.1670  -36.7110   23.1960 C   0  0  0  0  0  1  0  0  0  0  0  0
  -25.4160  -36.2340   23.9530 C   0  0  0  0  0  3  0  0  0  0  0  0
  -27.5880  -37.0220   24.7830 C   0  0  0  0  0  1  0  0  0  0  0  0
  -26.4700  -37.2690   23.8760 N   0  0  0  0  0  0  0  0  0  0  0  0
  -26.0890  -38.1880   24.0860 H   0  0  0  0  0  0  0  0  0  0  0  0
  -26.3530  -31.5460   24.9060 C   0  0  1  0  0  0  0  0  0  0  0  0
  -25.3020  -31.2730   26.0080 C   0  0  0  0  0  1  0  0  0  0  0  0
  -26.8890  -30.1820   24.4140 C   0  0  0  0  0  1  0  0  0  0  0  0
  -27.5490  -32.2820   25.5560 C   0  0  0  0  0  1  0  0  0  0  0  0
  1 15  1  0
  2  7  1  0
  3  4  1  0
  3  2  1  0
  5  4  1  0
  5 20  1  0
  5  6  1  0
  7  1  1  0
  7  6  1  0
  8  1  2  0
  9 13  2  0
  9 11  1  0
 10 47  1  0
 11 10  2  0
 12 49  1  0
 12 10  1  0
 13 14  1  0
 14 12  2  0
 15 13  1  0
 15 16  1  0
 17 18  2  0
 18 37  1  0
 19 18  1  0
 19 22  1  0
 20 21  1  0
 20 17  1  0
 21 19  2  0
 22 23  1  0
 23 24  2  0
 25 28  1  0
 25 24  1  0
 26 25  2  0
 27 26  1  0
 27 22  2  0
 28 29  1  0
 29 30  1  0
 30 31  2  0
 32 31  1  0
 32 36  1  0
 33 32  2  0
 34 29  2  0
 34 33  1  0
 35 34  1  0
 37 38  1  0
 38 41  1  0
 38 40  1  0
 39 37  2  0
 42 43  1  0
 42 17  1  0
 44 42  1  0
 46 47  1  0
 47 45  1  0
 48 49  1  0
 50 11  1  0
 51 52  1  0
 51 50  1  0
 53 54  1  0
 53 52  1  0
 55 57  1  0
 55 54  1  0
 56 67  2  0
 57 62  1  0
 58 66  1  0
 58 68  1  0
 59 65  1  0
 59 61  1  0
 60 66  1  0
 61 60  1  0
 62 61  2  0
 63 64  1  0
 63 57  2  0
 64 59  2  0
 65 58  1  0
 66 56  1  0
 68 70  2  0
 69 68  1  0
 71 69  1  0
 72 81  2  0
 72 77  1  0
 73 69  1  0
 73 77  1  0
 74 73  1  0
 75 76  1  0
 75 74  1  0
 76 72  1  0
 77 78  2  0
 78 79  1  0
 80 79  2  0
 81 80  1  0
 82 56  1  0
 82 83  1  0
 82 92  1  0
 83 86  1  0
 84 88  1  0
 84 83  1  0
 85 84  2  0
 88 87  1  0
 90 88  1  0
 90 91  1  0
 90 89  1  0
 92 95  1  1
 92 93  1  0
 94 92  1  0
M  ISO  4   1 100  15 100  54 101  55 101
M  END
>  <TORSDO>  (96) 
F 22

>  <SCORE>  (96) 
-13.216

>  <name>  (96) 
96

>  <ligand_id>  (96) 
96

>  <original_smiles>  (96) 
[H]c1c([H])c([H])c2c(c1[H])C([H])([H])C([H])([H])C([H])([H])C2([H])N([H])C(=O)C1([H])N(C(=O)C([H])(N([H])C(=O)C([H])(N([H])C([H])([H])[H])C([H])([H])[H])C(C([H])([H])[H])(C([H])([H])[H])C([H])([H])[H])C([H])([H])c2c([H])c(OC([H])([H])C([H])([H])C([H])([H])C([H])([H])Oc3c([H])c(N([H])C(=O)N4C([H])([H])C([H])([H])C([H])([H])C([H])(n5nc(-c6c([H])c([H])c(Oc7c([H])c([H])c(F)c([H])c7F)c([H])c6[H])c(C(=O)N([H])[H])c5N([H])[H])C4([H])[H])nc(C([H])([H])C([H])([H])[H])c3C([H])(C([H])([H])[H])C([H])([H])[H])c([H])c([H])c2C1([H])[H]

>  <smiles>  (96) 
[H]c1c([H])c([H])c2c(c1[H])C([H])([H])C([H])([H])C([H])([H])C2([H])N([H])C(=O)C1([H])N(C(=O)C([H])(N([H])C(=O)C([H])(N([H])C([H])([H])[H])C([H])([H])[H])C(C([H])([H])[H])(C([H])([H])[H])C([H])([H])[H])C([H])([H])c2c([H])c(OC([H])([H])C([H])([H])C([H])([H])C([H])([H])Oc3c([H])c(N([H])C(=O)N4C([H])([H])C([H])([H])C([H])([H])C([H])(n5nc(-c6c([H])c([H])c(Oc7c([H])c([H])c(F)c([H])c7F)c([H])c6[H])c(C(=O)N([H])[H])c5N([H])[H])C4([H])[H])nc(C([H])([H])C([H])([H])[H])c3C([H])(C([H])([H])[H])C([H])([H])[H])c([H])c([H])c2C1([H])[H]

$$$$
97:0:0
     RDKit          3D

 88 96  0  0  1  0  0  0  0  0999 V2000
  -29.0060  -23.2880   20.6040 C   0  0  0  0  0  2  0  0  0  0  0  0
  -28.1100  -19.5830   19.8280 C   0  0  0  0  0  3  0  0  0  0  0  0
  -27.8290  -20.9510   19.8450 C   0  0  0  0  0  3  0  0  0  0  0  0
  -29.8490  -20.6220   20.5920 C   0  0  0  0  0  3  0  0  0  0  0  0
  -29.4320  -19.2820   20.3100 C   0  0  0  0  0  0  0  0  0  0  0  0
  -28.9050  -21.7010   20.3180 N   0  0  0  0  0  0  0  0  0  0  0  0
  -30.2610  -17.8150   20.4420 C   0  0  0  0  0  2  0  0  0  0  0  0
  -30.5310  -15.0680   20.3040 C   0  0  0  0  0  0  0  0  0  0  0  0
  -30.4150  -12.7050   19.3620 C   0  0  0  0  0  2  0  0  0  0  0  0
  -29.4820  -12.6330   18.1300 C   0  0  0  0  0  2  0  0  0  0  0  0
  -28.0230  -12.4070   18.5690 C   0  0  0  0  0  2  0  0  0  0  0  0
  -27.6090  -13.3320   19.7430 C   0  0  0  0  0  3  0  0  0  0  0  0
  -28.6670  -13.3740   20.8650 C   0  0  0  0  0  2  0  0  0  0  0  0
  -29.9250  -13.8070   20.2440 N   0  0  0  0  0  0  0  0  0  0  0  0
  -31.7400  -15.1000   20.0490 O   0  0  0  0  0  0  0  0  0  0  0  0
  -29.7870  -16.2900   20.4420 N   0  0  0  0  0  0  0  0  0  0  0  0
  -28.7980  -16.1600   20.5850 H   0  0  0  0  0  0  0  0  0  0  0  0
  -25.2300  -13.8900   20.4950 C   0  0  0  0  0  0  0  0  0  0  0  0
  -24.1730  -13.1070   20.8670 C   0  0  0  0  0  0  0  0  0  0  0  0
  -24.6480  -11.7600   20.8360 C   0  0  0  0  0  0  0  0  0  0  0  0
  -26.2780  -13.0200   20.2490 N   0  0  0  0  0  0  0  0  0  0  0  0
  -25.9380  -11.7330   20.5230 N   0  0  0  0  0  0  0  0  0  0  0  0
  -23.9300  -10.4920   21.0260 C   0  0  0  0  0  0  0  0  0  0  0  0
  -24.3720   -9.5240   21.9540 C   0  0  0  0  0  3  0  0  0  0  0  0
  -23.6510   -8.3240   22.1350 C   0  0  0  0  0  3  0  0  0  0  0  0
  -22.4750   -8.0830   21.3870 C   0  0  0  0  0  0  0  0  0  0  0  0
  -22.0510   -9.0390   20.4480 C   0  0  0  0  0  3  0  0  0  0  0  0
  -22.7730  -10.2320   20.2650 C   0  0  0  0  0  3  0  0  0  0  0  0
  -21.7250   -6.9350   21.4780 O   0  0  0  0  0  0  0  0  0  0  0  0
  -21.6900   -6.1870   22.6260 C   0  0  0  0  0  0  0  0  0  0  0  0
  -21.2680   -6.7320   23.8590 C   0  0  0  0  0  3  0  0  0  0  0  0
  -21.1800   -5.9090   25.0000 C   0  0  0  0  0  3  0  0  0  0  0  0
  -21.5050   -4.5430   24.9100 C   0  0  0  0  0  0  0  0  0  0  0  0
  -21.9220   -3.9970   23.6830 C   0  0  0  0  0  3  0  0  0  0  0  0
  -22.0100   -4.8170   22.5440 C   0  0  0  0  0  0  0  0  0  0  0  0
  -22.3910   -4.2810   21.3590 F   0  0  0  0  0  0  0  0  0  0  0  0
  -21.4140   -3.7500   26.0030 F   0  0  0  0  0  0  0  0  0  0  0  0
  -22.7730  -13.5750   21.1350 C   0  0  0  0  0  0  0  0  0  0  0  0
  -22.0490  -12.8800   22.0050 N   0  0  0  0  0  0  0  0  0  0  0  0
  -22.3290  -14.5950   20.6080 O   0  0  0  0  0  0  0  0  0  0  0  0
  -22.4230  -12.0580   22.4570 H   0  0  0  0  0  0  0  0  0  0  0  0
  -21.1090  -13.1770   22.2270 H   0  0  0  0  0  0  0  0  0  0  0  0
  -25.3820  -15.2620   20.3170 N   0  0  0  0  0  0  0  0  0  0  0  0
  -24.6050  -15.9060   20.4280 H   0  0  0  0  0  0  0  0  0  0  0  0
  -26.2150  -15.7080   19.9560 H   0  0  0  0  0  0  0  0  0  0  0  0
  -28.2610  -24.4940   18.4170 C   0  0  0  0  0  1  0  0  0  0  0  0
  -28.1120  -24.5920   19.9440 C   0  0  0  0  0  3  0  0  0  0  0  0
  -28.2660  -26.1350   20.2890 O   0  0  0  0  0  0  0  0  0  0  0  0
  -24.6320  -31.8780   23.2570 C   0  0  0  0  0  0  0  0  0  0  0  0
  -27.2090  -27.1360   20.2150 C   0  0  0  0  0  0  0  0  0  0  0  0
  -23.4340  -30.4820   21.6190 C   0  0  0  0  0  3  0  0  0  0  0  0
  -24.8810  -28.9080   20.1890 C   0  0  0  0  0  0  0  0  0  0  0  0
  -25.9910  -30.7410   21.4530 C   0  0  0  0  0  2  0  0  0  0  0  0
  -26.0650  -29.3470   20.7960 C   0  0  0  0  0  0  0  0  0  0  0  0
  -27.2270  -28.4780   20.7880 C   0  0  0  0  0  3  0  0  0  0  0  0
  -25.9920  -26.8080   19.5790 C   0  0  0  0  0  3  0  0  0  0  0  0
  -24.8600  -27.6540   19.5640 C   0  0  0  0  0  3  0  0  0  0  0  0
  -23.6540  -29.8070   20.2400 C   0  0  0  0  0  2  0  0  0  0  0  0
  -24.7060  -31.0570   22.1640 N   0  0  0  0  0  0  0  0  0  0  0  0
  -23.5460  -32.1610   23.7860 O   0  0  0  0  0  0  0  0  0  0  0  0
  -22.7560  -29.4740   22.5830 C   0  0  0  0  0  0  0  0  0  0  0  0
  -21.4280  -29.3000   22.4560 N   0  0  0  0  0  0  0  0  0  0  0  0
  -23.4290  -28.8520   23.4090 O   0  0  0  0  0  0  0  0  0  0  0  0
  -20.9410  -29.8550   21.7660 H   0  0  0  0  0  0  0  0  0  0  0  0
  -18.0520  -28.0770   22.9550 C   0  0  0  0  0  0  0  0  0  0  0  0
  -20.6090  -28.3610   23.2280 C   0  0  0  0  0  3  0  0  0  0  0  0
  -20.7210  -26.9260   22.6600 C   0  0  0  0  0  2  0  0  0  0  0  0
  -19.6250  -26.5920   21.6430 C   0  0  0  0  0  2  0  0  0  0  0  0
  -18.2410  -26.7270   22.2820 C   0  0  0  0  0  2  0  0  0  0  0  0
  -19.1640  -28.8510   23.3840 C   0  0  0  0  0  0  0  0  0  0  0  0
  -18.9310  -30.1110   23.9760 C   0  0  0  0  0  3  0  0  0  0  0  0
  -17.6220  -30.6000   24.1400 C   0  0  0  0  0  3  0  0  0  0  0  0
  -16.5250  -29.8260   23.7240 C   0  0  0  0  0  3  0  0  0  0  0  0
  -16.7420  -28.5650   23.1390 C   0  0  0  0  0  3  0  0  0  0  0  0
  -25.9080  -32.5170   23.8850 C   0  0  0  0  0  3  0  0  0  0  0  0
  -26.4120  -31.7570   25.1730 C   0  0  1  0  0  0  0  0  0  0  0  0
  -25.3120  -31.5350   26.2380 C   0  0  0  0  0  1  0  0  0  0  0  0
  -26.9950  -30.3740   24.8060 C   0  0  0  0  0  1  0  0  0  0  0  0
  -27.5600  -32.5570   25.8350 C   0  0  0  0  0  1  0  0  0  0  0  0
  -25.5940  -33.9190   24.2100 N   0  0  0  0  0  0  0  0  0  0  0  0
  -25.9180  -34.9720   23.4480 C   0  0  0  0  0  0  0  0  0  0  0  0
  -26.5780  -34.8670   22.4110 O   0  0  0  0  0  0  0  0  0  0  0  0
  -25.0050  -34.0740   25.0140 H   0  0  0  0  0  0  0  0  0  0  0  0
  -24.1790  -36.7630   23.1190 C   0  0  0  0  0  1  0  0  0  0  0  0
  -25.4360  -36.3630   23.9070 C   0  0  0  0  0  3  0  0  0  0  0  0
  -27.5820  -37.2620   24.6950 C   0  0  0  0  0  1  0  0  0  0  0  0
  -26.4630  -37.4180   23.7700 N   0  0  0  0  0  0  0  0  0  0  0  0
  -26.0570  -38.3380   23.9160 H   0  0  0  0  0  0  0  0  0  0  0  0
  2  3  2  0
  2  5  1  0
  3  6  1  0
  5  7  1  0
  5  4  2  0
  6  4  1  0
  6  1  1  0
  7 16  1  0
  8 16  1  0
  9 14  1  0
 10 11  1  0
 10  9  1  0
 12 11  1  0
 12 21  1  0
 12 13  1  0
 14  8  1  0
 14 13  1  0
 15  8  2  0
 16 17  1  0
 18 19  2  0
 19 38  1  0
 20 19  1  0
 20 23  1  0
 21 18  1  0
 21 22  1  0
 22 20  2  0
 23 24  1  0
 24 25  2  0
 26 29  1  0
 26 25  1  0
 27 26  2  0
 28 27  1  0
 28 23  2  0
 29 30  1  0
 30 31  1  0
 31 32  2  0
 33 32  1  0
 33 37  1  0
 34 33  2  0
 35 30  2  0
 35 34  1  0
 36 35  1  0
 38 39  1  0
 39 42  1  0
 39 41  1  0
 40 38  2  0
 43 44  1  0
 43 18  1  0
 45 43  1  0
 47 46  1  0
 47 48  1  0
 47  1  1  0
 49 60  2  0
 50 48  1  0
 50 55  1  0
 51 59  1  0
 51 61  1  0
 52 58  1  0
 52 54  1  0
 53 59  1  0
 54 53  1  0
 55 54  2  0
 56 50  2  0
 57 56  1  0
 57 52  2  0
 58 51  1  0
 59 49  1  0
 61 63  2  0
 62 61  1  0
 64 62  1  0
 65 74  2  0
 65 70  1  0
 66 62  1  0
 66 70  1  0
 67 66  1  0
 68 69  1  0
 68 67  1  0
 69 65  1  0
 70 71  2  0
 71 72  1  0
 73 72  2  0
 74 73  1  0
 75 49  1  0
 75 80  1  0
 75 76  1  0
 76 79  1  1
 76 77  1  0
 78 76  1  0
 80 83  1  0
 81 85  1  0
 81 80  1  0
 82 81  2  0
 85 84  1  0
 87 85  1  0
 87 88  1  0
 87 86  1  0
M  ISO  4   8 100  16 100  47 101  48 101
M  END
>  <TORSDO>  (97) 
F 19

>  <SCORE>  (97) 
-14.702

>  <name>  (97) 
97

>  <ligand_id>  (97) 
97

>  <original_smiles>  (97) 
[H]c1c([H])c([H])c2c(c1[H])C([H])([H])C([H])([H])C([H])([H])C2([H])N([H])C(=O)C1([H])N(C(=O)C([H])(N([H])C(=O)C([H])(N([H])C([H])([H])[H])C([H])([H])[H])C(C([H])([H])[H])(C([H])([H])[H])C([H])([H])[H])C([H])([H])c2c([H])c(OC([H])(C([H])([H])[H])C([H])([H])n3c([H])c([H])c(C([H])([H])N([H])C(=O)N4C([H])([H])C([H])([H])C([H])([H])C([H])(n5nc(-c6c([H])c([H])c(Oc7c([H])c([H])c(F)c([H])c7F)c([H])c6[H])c(C(=O)N([H])[H])c5N([H])[H])C4([H])[H])c3[H])c([H])c([H])c2C1([H])[H]

>  <smiles>  (97) 
[H]c1c([H])c([H])c2c(c1[H])C([H])([H])C([H])([H])C([H])([H])C2([H])N([H])C(=O)C1([H])N(C(=O)C([H])(N([H])C(=O)C([H])(N([H])C([H])([H])[H])C([H])([H])[H])C(C([H])([H])[H])(C([H])([H])[H])C([H])([H])[H])C([H])([H])c2c([H])c(OC([H])(C([H])([H])[H])C([H])([H])n3c([H])c([H])c(C([H])([H])N([H])C(=O)N4C([H])([H])C([H])([H])C([H])([H])C([H])(n5nc(-c6c([H])c([H])c(Oc7c([H])c([H])c(F)c([H])c7F)c([H])c6[H])c(C(=O)N([H])[H])c5N([H])[H])C4([H])[H])c3[H])c([H])c([H])c2C1([H])[H]

$$$$
