0:0:0
     RDKit          3D

 92100  0  0  1  0  0  0  0  0999 V2000
  -29.5000  -21.6400   20.9190 C   0  0  0  0  0  3  0  0  0  0  0  0
  -29.3700  -19.9520   18.7850 C   0  0  0  0  0  3  0  0  0  0  0  0
  -29.9620  -20.2630   21.0370 C   0  0  0  0  0  0  0  0  0  0  0  0
  -29.9420  -19.3260   19.9370 C   0  0  0  0  0  0  0  0  0  0  0  0
  -28.9980  -22.1850   19.7010 C   0  0  0  0  0  0  0  0  0  0  0  0
  -30.5750  -19.8510   22.3630 C   0  0  0  0  0  1  0  0  0  0  0  0
  -28.9570  -21.2700   18.6740 N   0  0  0  0  0  0  0  0  0  0  0  0
  -27.6600  -23.7790   18.1810 C   0  0  0  0  0  1  0  0  0  0  0  0
  -30.0250  -24.3480   18.7900 C   0  0  0  0  0  1  0  0  0  0  0  0
  -28.6980  -23.7720   19.3260 C   0  0  2  0  0  0  0  0  0  0  0  0
  -28.1290  -24.9390   20.3600 C   0  0  0  0  0  2  0  0  0  0  0  0
  -28.2830  -26.4520   20.0830 O   0  0  0  0  0  0  0  0  0  0  0  0
  -24.6690  -31.9880   23.2650 C   0  0  0  0  0  0  0  0  0  0  0  0
  -27.1870  -27.3660   20.1130 C   0  0  0  0  0  0  0  0  0  0  0  0
  -23.4280  -30.6050   21.6450 C   0  0  0  0  0  3  0  0  0  0  0  0
  -24.8390  -29.0560   20.1650 C   0  0  0  0  0  0  0  0  0  0  0  0
  -25.9700  -30.9020   21.4030 C   0  0  0  0  0  2  0  0  0  0  0  0
  -26.0310  -29.5190   20.7400 C   0  0  0  0  0  0  0  0  0  0  0  0
  -27.2080  -28.6910   20.6920 C   0  0  0  0  0  3  0  0  0  0  0  0
  -25.9700  -26.9850   19.5110 C   0  0  0  0  0  3  0  0  0  0  0  0
  -24.8190  -27.8010   19.5360 C   0  0  0  0  0  3  0  0  0  0  0  0
  -23.6090  -29.9430   20.2540 C   0  0  0  0  0  2  0  0  0  0  0  0
  -24.7110  -31.1860   22.1590 N   0  0  0  0  0  0  0  0  0  0  0  0
  -23.5990  -32.2580   23.8310 O   0  0  0  0  0  0  0  0  0  0  0  0
  -22.7870  -29.5820   22.6150 C   0  0  0  0  0  0  0  0  0  0  0  0
  -21.4760  -29.3330   22.4580 N   0  0  0  0  0  0  0  0  0  0  0  0
  -23.4720  -29.0150   23.4700 O   0  0  0  0  0  0  0  0  0  0  0  0
  -20.9790  -29.8420   21.7410 H   0  0  0  0  0  0  0  0  0  0  0  0
  -18.1770  -27.8770   22.8180 C   0  0  0  0  0  0  0  0  0  0  0  0
  -20.6840  -28.3690   23.2270 C   0  0  0  0  0  3  0  0  0  0  0  0
  -20.9410  -26.9240   22.7410 C   0  0  0  0  0  2  0  0  0  0  0  0
  -19.9360  -26.4570   21.6830 C   0  0  0  0  0  2  0  0  0  0  0  0
  -18.5080  -26.5150   22.2320 C   0  0  0  0  0  2  0  0  0  0  0  0
  -19.2000  -28.7540   23.2710 C   0  0  0  0  0  0  0  0  0  0  0  0
  -18.8400  -30.0210   23.7780 C   0  0  0  0  0  3  0  0  0  0  0  0
  -17.4900  -30.4150   23.8400 C   0  0  0  0  0  3  0  0  0  0  0  0
  -16.4810  -29.5380   23.4050 C   0  0  0  0  0  3  0  0  0  0  0  0
  -16.8250  -28.2720   22.8980 C   0  0  0  0  0  3  0  0  0  0  0  0
  -25.9630  -32.6220   23.8620 C   0  0  0  0  0  3  0  0  0  0  0  0
  -26.4990  -31.8530   25.1340 C   0  0  1  0  0  0  0  0  0  0  0  0
  -25.4150  -31.5920   26.2060 C   0  0  0  0  0  1  0  0  0  0  0  0
  -27.1040  -30.4870   24.7360 C   0  0  0  0  0  1  0  0  0  0  0  0
  -27.6360  -32.6650   25.7960 C   0  0  0  0  0  1  0  0  0  0  0  0
  -25.6620  -34.0220   24.1980 N   0  0  0  0  0  0  0  0  0  0  0  0
  -25.9760  -35.0760   23.4340 C   0  0  0  0  0  0  0  0  0  0  0  0
  -26.6170  -34.9740   22.3840 O   0  0  0  0  0  0  0  0  0  0  0  0
  -25.0870  -34.1750   25.0130 H   0  0  0  0  0  0  0  0  0  0  0  0
  -24.2410  -36.8760   23.1360 C   0  0  0  0  0  1  0  0  0  0  0  0
  -25.5050  -36.4660   23.9080 C   0  0  0  0  0  3  0  0  0  0  0  0
  -27.6560  -37.3570   24.6900 C   0  0  0  0  0  1  0  0  0  0  0  0
  -26.5350  -37.5180   23.7670 N   0  0  0  0  0  0  0  0  0  0  0  0
  -26.1330  -38.4390   23.9140 H   0  0  0  0  0  0  0  0  0  0  0  0
  -31.9310  -18.1950   18.8310 C   0  0  0  0  0  1  0  0  0  0  0  0
  -30.8190  -17.9230   19.8680 C   0  0  0  0  0  0  0  0  0  0  0  0
  -31.0450  -15.1870   19.7700 C   0  0  0  0  0  0  0  0  0  0  0  0
  -30.8660  -12.7790   19.0380 C   0  0  0  0  0  2  0  0  0  0  0  0
  -29.8910  -12.6160   17.8530 C   0  0  0  0  0  2  0  0  0  0  0  0
  -28.4550  -12.4200   18.3700 C   0  0  0  0  0  2  0  0  0  0  0  0
  -28.0710  -13.4480   19.4670 C   0  0  0  0  0  3  0  0  0  0  0  0
  -29.1710  -13.6010   20.5390 C   0  0  0  0  0  2  0  0  0  0  0  0
  -30.4110  -13.9520   19.8340 N   0  0  0  0  0  0  0  0  0  0  0  0
  -32.2430  -15.1650   19.4780 O   0  0  0  0  0  0  0  0  0  0  0  0
  -30.3330  -16.4170   19.8270 N   0  0  0  0  0  4  0  0  0  0  0  0
  -29.3400  -16.2990   19.9650 H   0  0  0  0  0  0  0  0  0  0  0  0
  -25.7690  -14.0520   20.4120 C   0  0  0  0  0  0  0  0  0  0  0  0
  -24.7110  -13.2880   20.8240 C   0  0  0  0  0  0  0  0  0  0  0  0
  -25.1330  -11.9290   20.6970 C   0  0  0  0  0  0  0  0  0  0  0  0
  -26.7660  -13.1610   20.0550 N   0  0  0  0  0  0  0  0  0  0  0  0
  -26.3970  -11.8740   20.2910 N   0  0  0  0  0  0  0  0  0  0  0  0
  -24.3850  -10.6770   20.8790 C   0  0  0  0  0  0  0  0  0  0  0  0
  -24.7570   -9.7280   21.8580 C   0  0  0  0  0  3  0  0  0  0  0  0
  -24.0060   -8.5450   22.0270 C   0  0  0  0  0  3  0  0  0  0  0  0
  -22.8700   -8.3020   21.2190 C   0  0  0  0  0  0  0  0  0  0  0  0
  -22.5190   -9.2390   20.2310 C   0  0  0  0  0  3  0  0  0  0  0  0
  -23.2700  -10.4150   20.0580 C   0  0  0  0  0  3  0  0  0  0  0  0
  -22.0970   -7.1690   21.2970 O   0  0  0  0  0  0  0  0  0  0  0  0
  -21.8530   -6.5440   22.4920 C   0  0  0  0  0  0  0  0  0  0  0  0
  -21.1530   -7.1830   23.5400 C   0  0  0  0  0  3  0  0  0  0  0  0
  -20.8630   -6.4790   24.7250 C   0  0  0  0  0  3  0  0  0  0  0  0
  -21.2630   -5.1370   24.8640 C   0  0  0  0  0  0  0  0  0  0  0  0
  -21.9560   -4.4970   23.8220 C   0  0  0  0  0  3  0  0  0  0  0  0
  -22.2470   -5.1980   22.6380 C   0  0  0  0  0  0  0  0  0  0  0  0
  -22.8950   -4.5700   21.6270 F   0  0  0  0  0  0  0  0  0  0  0  0
  -20.9790   -4.4580   26.0000 F   0  0  0  0  0  0  0  0  0  0  0  0
  -23.3510  -13.7900   21.2110 C   0  0  0  0  0  0  0  0  0  0  0  0
  -22.6640  -13.0800   22.0990 N   0  0  0  0  0  0  0  0  0  0  0  0
  -22.9090  -14.8460   20.7620 O   0  0  0  0  0  0  0  0  0  0  0  0
  -23.0350  -12.2250   22.4860 H   0  0  0  0  0  0  0  0  0  0  0  0
  -21.7520  -13.3990   22.3950 H   0  0  0  0  0  0  0  0  0  0  0  0
  -25.9550  -15.4250   20.2830 N   0  0  0  0  0  0  0  0  0  0  0  0
  -25.2180  -16.0920   20.4880 H   0  0  0  0  0  0  0  0  0  0  0  0
  -26.7850  -15.8620   19.9070 H   0  0  0  0  0  0  0  0  0  0  0  0
  1  3  1  0
  2  4  1  0
  3  6  1  0
  4  3  2  0
  5  1  2  0
  7  2  2  0
  7  5  1  0
 10  8  1  6
  9 10  1  0
 10  5  1  0
 10 11  1  0
 12 14  1  0
 12 11  1  0
 13 24  2  0
 14 19  1  0
 15 23  1  0
 15 25  1  0
 16 22  1  0
 16 18  1  0
 17 23  1  0
 18 17  1  0
 19 18  2  0
 20 21  1  0
 20 14  2  0
 21 16  2  0
 22 15  1  0
 23 13  1  0
 25 27  2  0
 26 25  1  0
 28 26  1  0
 29 38  2  0
 29 34  1  0
 30 26  1  0
 30 34  1  0
 31 30  1  0
 32 33  1  0
 32 31  1  0
 33 29  1  0
 34 35  2  0
 35 36  1  0
 37 36  2  0
 38 37  1  0
 39 13  1  0
 39 44  1  0
 39 40  1  0
 40 43  1  1
 40 41  1  0
 42 40  1  0
 44 47  1  0
 45 49  1  0
 45 44  1  0
 46 45  2  0
 49 48  1  0
 51 49  1  0
 51 52  1  0
 51 50  1  0
 53 54  1  0
 54  4  1  0
 55 63  1  0
 55 61  1  0
 56 61  1  0
 57 58  1  0
 57 56  1  0
 59 58  1  0
 59 68  1  0
 59 60  1  0
 61 60  1  0
 62 55  2  0
 63 54  2  0
 63 64  1  0
 65 66  2  0
 66 85  1  0
 67 66  1  0
 67 70  1  0
 68 69  1  0
 68 65  1  0
 69 67  2  0
 70 71  1  0
 71 72  2  0
 73 76  1  0
 73 72  1  0
 74 73  2  0
 75 74  1  0
 75 70  2  0
 76 77  1  0
 77 82  2  0
 77 78  1  0
 78 79  2  0
 79 80  1  0
 80 84  1  0
 81 80  2  0
 82 81  1  0
 83 82  1  0
 85 86  1  0
 86 89  1  0
 86 88  1  0
 87 85  2  0
 90 65  1  0
 90 91  1  0
 92 90  1  0
M  ISO  4  11 101  12 101  55 100  63 100
M  END
>  <TORSDO>  (1) 
F 19

>  <SCORE>  (1) 
-13.498

>  <name>  (1) 
0

>  <ligand_id>  (1) 
0

>  <original_smiles>  (1) 
[H]c1nc(C(C([H])([H])[H])(C([H])([H])[H])C([H])([H])Oc2c([H])c([H])c3c(c2[H])C([H])([H])N(C(=O)C([H])(N([H])C(=O)C([H])(N([H])C([H])([H])[H])C([H])([H])[H])C(C([H])([H])[H])(C([H])([H])[H])C([H])([H])[H])C([H])(C(=O)N([H])C2([H])c4c([H])c([H])c([H])c([H])c4C([H])([H])C([H])([H])C2([H])[H])C3([H])[H])c([H])c(C([H])([H])[H])c1C([H])(N([H])C(=O)N1C([H])([H])C([H])([H])C([H])([H])C([H])(n2nc(-c3c([H])c([H])c(Oc4c([H])c([H])c(F)c([H])c4F)c([H])c3[H])c(C(=O)N([H])[H])c2N([H])[H])C1([H])[H])C([H])([H])[H]

>  <smiles>  (1) 
[H]c1nc(C(C([H])([H])[H])(C([H])([H])[H])C([H])([H])Oc2c([H])c([H])c3c(c2[H])C([H])([H])N(C(=O)C([H])(N([H])C(=O)C([H])(N([H])C([H])([H])[H])C([H])([H])[H])C(C([H])([H])[H])(C([H])([H])[H])C([H])([H])[H])C([H])(C(=O)N([H])C2([H])c4c([H])c([H])c([H])c([H])c4C([H])([H])C([H])([H])C2([H])[H])C3([H])[H])c([H])c(C([H])([H])[H])c1C([H])(N([H])C(=O)N1C([H])([H])C([H])([H])C([H])([H])C([H])(n2nc(-c3c([H])c([H])c(Oc4c([H])c([H])c(F)c([H])c4F)c([H])c3[H])c(C(=O)N([H])[H])c2N([H])[H])C1([H])[H])C([H])([H])[H]

$$$$
1:0:0
     RDKit          3D

100108  0  0  1  0  0  0  0  0999 V2000
  -30.2540  -22.1880   20.5000 C   0  0  0  0  0  0  0  0  0  0  0  0
  -29.8420  -20.9550   20.6140 N   0  0  0  0  0  0  0  0  0  0  0  0
  -27.2570  -22.6630   21.9160 C   0  0  0  0  0  3  0  0  0  0  0  0
  -28.6350  -23.2300   22.1230 C   0  0  0  0  0  0  0  0  0  0  0  0
  -26.9190  -23.9600   20.0020 C   0  0  0  0  0  2  0  0  0  0  0  0
  -29.3890  -23.4680   20.8100 C   0  0  0  0  0  3  0  0  0  0  0  0
  -28.4430  -24.0110   19.6620 C   0  0  0  0  0  3  0  0  0  0  0  0
  -26.5150  -22.8780   20.9000 N   0  0  0  0  0  0  0  0  0  0  0  0
  -29.1470  -23.4350   23.2290 O   0  0  0  0  0  0  0  0  0  0  0  0
  -28.8390  -25.4170   19.0400 C   0  0  0  0  0  2  0  0  0  0  0  0
  -28.6690  -26.6620   19.7880 O   0  0  0  0  0  0  0  0  0  0  0  0
  -24.6910  -31.6750   23.0170 C   0  0  0  0  0  0  0  0  0  0  0  0
  -27.4870  -27.4050   19.7450 C   0  0  0  0  0  0  0  0  0  0  0  0
  -23.5460  -30.3220   21.2960 C   0  0  0  0  0  3  0  0  0  0  0  0
  -25.0550  -28.8960   19.8090 C   0  0  0  0  0  0  0  0  0  0  0  0
  -26.0710  -30.7360   21.1570 C   0  0  0  0  0  2  0  0  0  0  0  0
  -26.1950  -29.3980   20.4460 C   0  0  0  0  0  0  0  0  0  0  0  0
  -27.4060  -28.6570   20.4190 C   0  0  0  0  0  3  0  0  0  0  0  0
  -26.3250  -26.9500   19.0790 C   0  0  0  0  0  3  0  0  0  0  0  0
  -25.1170  -27.6720   19.1220 C   0  0  0  0  0  3  0  0  0  0  0  0
  -23.7900  -29.7210   19.8870 C   0  0  0  0  0  2  0  0  0  0  0  0
  -24.7860  -30.9260   21.8810 N   0  0  0  0  0  0  0  0  0  0  0  0
  -23.5950  -31.8940   23.5540 O   0  0  0  0  0  0  0  0  0  0  0  0
  -22.9090  -29.2390   22.1980 C   0  0  0  0  0  0  0  0  0  0  0  0
  -21.5820  -29.0640   22.0820 N   0  0  0  0  0  0  0  0  0  0  0  0
  -23.6060  -28.5610   22.9580 O   0  0  0  0  0  0  0  0  0  0  0  0
  -21.0810  -29.6640   21.4410 H   0  0  0  0  0  0  0  0  0  0  0  0
  -18.2090  -27.8750   22.6120 C   0  0  0  0  0  0  0  0  0  0  0  0
  -20.7790  -28.0740   22.8010 C   0  0  0  0  0  3  0  0  0  0  0  0
  -20.8360  -26.6970   22.1010 C   0  0  0  0  0  2  0  0  0  0  0  0
  -19.6910  -26.4770   21.1080 C   0  0  0  0  0  2  0  0  0  0  0  0
  -18.3370  -26.5860   21.8180 C   0  0  0  0  0  2  0  0  0  0  0  0
  -19.3560  -28.5810   23.0610 C   0  0  0  0  0  0  0  0  0  0  0  0
  -19.1830  -29.7920   23.7660 C   0  0  0  0  0  3  0  0  0  0  0  0
  -17.8950  -30.2940   24.0290 C   0  0  0  0  0  3  0  0  0  0  0  0
  -16.7610  -29.5830   23.5950 C   0  0  0  0  0  3  0  0  0  0  0  0
  -16.9200  -28.3760   22.8920 C   0  0  0  0  0  3  0  0  0  0  0  0
  -25.9510  -32.3100   23.6830 C   0  0  0  0  0  3  0  0  0  0  0  0
  -25.6060  -33.6890   24.0550 N   0  0  0  0  0  0  0  0  0  0  0  0
  -25.9370  -34.7740   23.3430 C   0  0  0  0  0  0  0  0  0  0  0  0
  -26.6340  -34.7200   22.3260 O   0  0  0  0  0  0  0  0  0  0  0  0
  -24.9860  -33.8030   24.8440 H   0  0  0  0  0  0  0  0  0  0  0  0
  -24.1840  -36.5460   23.0110 C   0  0  0  0  0  1  0  0  0  0  0  0
  -25.4120  -36.1350   23.8390 C   0  0  0  0  0  3  0  0  0  0  0  0
  -27.5040  -37.0290   24.7630 C   0  0  0  0  0  1  0  0  0  0  0  0
  -26.4270  -37.2100   23.7930 N   0  0  0  0  0  0  0  0  0  0  0  0
  -25.9990  -38.1180   23.9600 H   0  0  0  0  0  0  0  0  0  0  0  0
  -26.4610  -31.5080   24.9420 C   0  0  1  0  0  0  0  0  0  0  0  0
  -25.3540  -31.2220   25.9840 C   0  0  0  0  0  1  0  0  0  0  0  0
  -27.0720  -30.1530   24.5180 C   0  0  0  0  0  1  0  0  0  0  0  0
  -27.5880  -32.2990   25.6470 C   0  0  0  0  0  1  0  0  0  0  0  0
  -31.9010  -22.5970   18.6030 C   0  0  0  0  0  1  0  0  0  0  0  0
  -31.6910  -22.5590   20.1230 C   0  0  0  0  0  2  0  0  0  0  0  0
  -30.8060  -19.8100   20.5940 C   0  0  0  0  0  2  0  0  0  0  0  0
  -30.2140  -18.3780   20.2700 C   0  0  0  0  0  3  0  0  0  0  0  0
  -28.7390  -18.4470   20.1960 N   0  0  0  0  0  4  0  0  0  0  0  0
  -28.3230  -17.6460   20.6370 H   0  0  0  0  0  0  0  0  0  0  0  0
  -28.5230  -19.2670   20.7470 H   0  0  0  0  0  0  0  0  0  0  0  0
  -26.6810  -19.0550   18.9450 C   0  0  0  0  0  1  0  0  0  0  0  0
  -28.3680  -17.4760   17.8970 C   0  0  0  0  0  1  0  0  0  0  0  0
  -28.1680  -18.6790   18.8430 C   0  0  0  0  0  3  0  0  0  0  0  0
  -30.7180  -17.2320   21.2390 C   0  0  0  0  0  2  0  0  0  0  0  0
  -30.9400  -14.7420   20.6950 C   0  0  0  0  0  0  0  0  0  0  0  0
  -30.7200  -12.5050   19.6540 C   0  0  0  0  0  2  0  0  0  0  0  0
  -29.8440  -12.6150   18.3900 C   0  0  0  0  0  2  0  0  0  0  0  0
  -28.3520  -12.4760   18.7510 C   0  0  0  0  0  2  0  0  0  0  0  0
  -27.9360  -13.3730   19.9470 C   0  0  0  0  0  3  0  0  0  0  0  0
  -28.9370  -13.2530   21.1180 C   0  0  0  0  0  2  0  0  0  0  0  0
  -30.2770  -13.5520   20.5940 N   0  0  0  0  0  0  0  0  0  0  0  0
  -32.1140  -14.8650   20.3420 O   0  0  0  0  0  0  0  0  0  0  0  0
  -30.2050  -15.8340   21.0430 N   0  0  0  0  0  0  0  0  0  0  0  0
  -29.2510  -15.6350   21.3060 H   0  0  0  0  0  0  0  0  0  0  0  0
  -25.5120  -13.9870   20.5490 C   0  0  0  0  0  0  0  0  0  0  0  0
  -24.4270  -13.2220   20.8730 C   0  0  0  0  0  0  0  0  0  0  0  0
  -24.8840  -11.8700   20.8730 C   0  0  0  0  0  0  0  0  0  0  0  0
  -26.5640  -13.1030   20.3680 N   0  0  0  0  0  0  0  0  0  0  0  0
  -26.1870  -11.8230   20.6260 N   0  0  0  0  0  0  0  0  0  0  0  0
  -24.1430  -10.6120   21.0350 C   0  0  0  0  0  0  0  0  0  0  0  0
  -24.5320   -9.6430   21.9860 C   0  0  0  0  0  3  0  0  0  0  0  0
  -23.7910   -8.4510   22.1380 C   0  0  0  0  0  3  0  0  0  0  0  0
  -22.6490   -8.2200   21.3360 C   0  0  0  0  0  0  0  0  0  0  0  0
  -22.2790   -9.1770   20.3750 C   0  0  0  0  0  3  0  0  0  0  0  0
  -23.0200  -10.3610   20.2220 C   0  0  0  0  0  3  0  0  0  0  0  0
  -21.8830   -7.0800   21.3950 O   0  0  0  0  0  0  0  0  0  0  0  0
  -21.7870   -6.3370   22.5450 C   0  0  0  0  0  0  0  0  0  0  0  0
  -21.3120   -6.8910   23.7530 C   0  0  0  0  0  3  0  0  0  0  0  0
  -21.1650   -6.0740   24.8920 C   0  0  0  0  0  3  0  0  0  0  0  0
  -21.4810   -4.7050   24.8220 C   0  0  0  0  0  0  0  0  0  0  0  0
  -21.9500   -4.1500   23.6190 C   0  0  0  0  0  3  0  0  0  0  0  0
  -22.0990   -4.9630   22.4820 C   0  0  0  0  0  0  0  0  0  0  0  0
  -22.5310   -4.4200   21.3190 F   0  0  0  0  0  0  0  0  0  0  0  0
  -21.3330   -3.9180   25.9140 F   0  0  0  0  0  0  0  0  0  0  0  0
  -23.0200  -13.7090   21.0720 C   0  0  0  0  0  0  0  0  0  0  0  0
  -22.2490  -13.0270   21.9110 N   0  0  0  0  0  0  0  0  0  0  0  0
  -22.6130  -14.7290   20.5160 O   0  0  0  0  0  0  0  0  0  0  0  0
  -22.5900  -12.2020   22.3800 H   0  0  0  0  0  0  0  0  0  0  0  0
  -21.3030  -13.3360   22.0870 H   0  0  0  0  0  0  0  0  0  0  0  0
  -25.6870  -15.3550   20.3670 N   0  0  0  0  0  0  0  0  0  0  0  0
  -24.8820  -15.9720   20.3620 H   0  0  0  0  0  0  0  0  0  0  0  0
  -26.4840  -15.7340   19.8780 H   0  0  0  0  0  0  0  0  0  0  0  0
  1  2  2  0
  3  4  1  0
  4  9  2  0
  5  8  1  0
  6  1  1  0
  6  4  1  0
  7 10  1  0
  7  5  1  0
  7  6  1  0
  8  3  2  0
 10 11  1  0
 12 23  2  0
 13 11  1  0
 13 18  1  0
 14 22  1  0
 14 24  1  0
 15 21  1  0
 15 17  1  0
 16 22  1  0
 17 16  1  0
 18 17  2  0
 19 20  1  0
 19 13  2  0
 20 15  2  0
 21 14  1  0
 22 12  1  0
 24 26  2  0
 25 24  1  0
 27 25  1  0
 28 37  2  0
 28 33  1  0
 29 25  1  0
 29 33  1  0
 30 29  1  0
 31 32  1  0
 31 30  1  0
 32 28  1  0
 33 34  2  0
 34 35  1  0
 36 35  2  0
 37 36  1  0
 38 12  1  0
 38 39  1  0
 38 48  1  0
 39 42  1  0
 40 44  1  0
 40 39  1  0
 41 40  2  0
 44 43  1  0
 46 44  1  0
 46 47  1  0
 46 45  1  0
 48 51  1  1
 48 49  1  0
 50 48  1  0
 52 53  1  0
 53  1  1  0
 54  2  1  0
 55 54  1  0
 55 62  1  0
 56 55  1  0
 56 57  1  0
 56 58  1  0
 60 61  1  0
 61 59  1  0
 61 56  1  0
 63 71  1  0
 64 69  1  0
 65 66  1  0
 65 64  1  0
 67 66  1  0
 67 76  1  0
 67 68  1  0
 69 63  1  0
 69 68  1  0
 70 63  2  0
 71 62  1  0
 71 72  1  0
 73 74  2  0
 74 75  1  0
 74 93  1  0
 75 78  1  0
 76 73  1  0
 76 77  1  0
 77 75  2  0
 78 79  1  0
 79 80  2  0
 81 84  1  0
 81 80  1  0
 82 81  2  0
 83 82  1  0
 83 78  2  0
 84 85  1  0
 85 86  1  0
 86 87  2  0
 88 87  1  0
 88 92  1  0
 89 88  2  0
 90 85  2  0
 90 89  1  0
 91 90  1  0
 93 94  1  0
 94 97  1  0
 94 96  1  0
 95 93  2  0
 98 73  1  0
 99 98  1  0
100 98  1  0
M  ISO  4  10 101  11 101  63 100  71 100
M  END
>  <TORSDO>  (2) 
F 24

>  <SCORE>  (2) 
-11.649

>  <name>  (2) 
1

>  <ligand_id>  (2) 
1

>  <original_smiles>  (2) 
[H]C1=NC([H])([H])C([H])(C([H])([H])Oc2c([H])c([H])c3c(c2[H])C([H])([H])N(C(=O)C([H])(N([H])C(=O)C([H])(N([H])C([H])([H])[H])C([H])([H])[H])C(C([H])([H])[H])(C([H])([H])[H])C([H])([H])[H])C([H])(C(=O)N([H])C2([H])c4c([H])c([H])c([H])c([H])c4C([H])([H])C([H])([H])C2([H])[H])C3([H])[H])C([H])(C(=NC([H])([H])C([H])(C([H])([H])N([H])C(=O)N2C([H])([H])C([H])([H])C([H])([H])C([H])(n3nc(-c4c([H])c([H])c(Oc5c([H])c([H])c(F)c([H])c5F)c([H])c4[H])c(C(=O)N([H])[H])c3N([H])[H])C2([H])[H])[N+]([H])([H])C([H])(C([H])([H])[H])C([H])([H])[H])C([H])([H])C([H])([H])[H])C1=O

>  <smiles>  (2) 
[H]C1=NC([H])([H])C([H])(C([H])([H])Oc2c([H])c([H])c3c(c2[H])C([H])([H])N(C(=O)C([H])(N([H])C(=O)C([H])(N([H])C([H])([H])[H])C([H])([H])[H])C(C([H])([H])[H])(C([H])([H])[H])C([H])([H])[H])C([H])(C(=O)N([H])C2([H])c4c([H])c([H])c([H])c([H])c4C([H])([H])C([H])([H])C2([H])[H])C3([H])[H])C([H])(C(=NC([H])([H])C([H])(C([H])([H])N([H])C(=O)N2C([H])([H])C([H])([H])C([H])([H])C([H])(n3nc(-c4c([H])c([H])c(Oc5c([H])c([H])c(F)c([H])c5F)c([H])c4[H])c(C(=O)N([H])[H])c3N([H])[H])C2([H])[H])[N+]([H])([H])C([H])(C([H])([H])[H])C([H])([H])[H])C([H])([H])C([H])([H])[H])C1=O

$$$$
2:0:0
     RDKit          3D

 96104  0  0  1  0  0  0  0  0999 V2000
  -29.3720  -21.9990   20.6870 C   0  0  0  0  0  2  0  0  0  0  0  0
  -29.9490  -22.1540   18.3590 C   0  0  0  0  0  2  0  0  0  0  0  0
  -30.0040  -20.6340   20.2370 C   0  0  0  0  0  3  0  0  0  0  0  0
  -29.0170  -22.8120   19.4070 C   0  0  0  0  0  3  0  0  0  0  0  0
  -30.4540  -20.8490   18.8500 N   0  0  0  0  0  4  0  0  0  0  0  0
  -31.4620  -20.8580   18.8420 H   0  0  0  0  0  0  0  0  0  0  0  0
  -30.1450  -20.0950   18.2590 H   0  0  0  0  0  0  0  0  0  0  0  0
  -29.0980  -19.3500   20.3030 C   0  0  0  0  0  0  0  0  0  0  0  0
  -27.9280  -19.3900   20.6930 O   0  0  0  0  0  0  0  0  0  0  0  0
  -29.6670  -17.9690   19.8600 C   0  0  0  0  0  2  0  0  0  0  0  0
  -30.1720  -17.0210   21.0030 C   0  0  0  0  0  2  0  0  0  0  0  0
  -30.6760  -14.5560   20.4660 C   0  0  0  0  0  0  0  0  0  0  0  0
  -30.4530  -12.3640   19.3400 C   0  0  0  0  0  2  0  0  0  0  0  0
  -29.5210  -12.5430   18.1240 C   0  0  0  0  0  2  0  0  0  0  0  0
  -28.0450  -12.3880   18.5350 C   0  0  0  0  0  2  0  0  0  0  0  0
  -27.6840  -13.2420   19.7780 C   0  0  0  0  0  3  0  0  0  0  0  0
  -28.7210  -13.0350   20.9040 C   0  0  0  0  0  2  0  0  0  0  0  0
  -30.0480  -13.3510   20.3510 N   0  0  0  0  0  0  0  0  0  0  0  0
  -31.8420  -14.7440   20.1090 O   0  0  0  0  0  0  0  0  0  0  0  0
  -29.8650  -15.5800   20.8200 N   0  0  0  0  0  0  0  0  0  0  0  0
  -28.9140  -15.3020   21.0080 H   0  0  0  0  0  0  0  0  0  0  0  0
  -25.2750  -13.8740   20.4370 C   0  0  0  0  0  0  0  0  0  0  0  0
  -24.1960  -13.1130   20.8010 C   0  0  0  0  0  0  0  0  0  0  0  0
  -24.6550  -11.7600   20.8010 C   0  0  0  0  0  0  0  0  0  0  0  0
  -26.3210  -12.9850   20.2400 N   0  0  0  0  0  0  0  0  0  0  0  0
  -25.9500  -11.7110   20.5160 N   0  0  0  0  0  0  0  0  0  0  0  0
  -23.9250  -10.5020   21.0000 C   0  0  0  0  0  0  0  0  0  0  0  0
  -24.3460   -9.5470   21.9510 C   0  0  0  0  0  3  0  0  0  0  0  0
  -23.6220   -8.3500   22.1320 C   0  0  0  0  0  3  0  0  0  0  0  0
  -22.4580   -8.1050   21.3670 C   0  0  0  0  0  0  0  0  0  0  0  0
  -22.0560   -9.0490   20.4050 C   0  0  0  0  0  3  0  0  0  0  0  0
  -22.7830  -10.2370   20.2220 C   0  0  0  0  0  3  0  0  0  0  0  0
  -21.6990   -6.9630   21.4630 O   0  0  0  0  0  0  0  0  0  0  0  0
  -21.6440   -6.2270   22.6190 C   0  0  0  0  0  0  0  0  0  0  0  0
  -21.2210   -6.7930   23.8420 C   0  0  0  0  0  3  0  0  0  0  0  0
  -21.1150   -5.9850   24.9920 C   0  0  0  0  0  3  0  0  0  0  0  0
  -21.4170   -4.6110   24.9200 C   0  0  0  0  0  0  0  0  0  0  0  0
  -21.8310   -4.0450   23.7010 C   0  0  0  0  0  3  0  0  0  0  0  0
  -21.9420   -4.8510   22.5540 C   0  0  0  0  0  0  0  0  0  0  0  0
  -22.3220   -4.2960   21.3780 F   0  0  0  0  0  0  0  0  0  0  0  0
  -21.3060   -3.8330   26.0220 F   0  0  0  0  0  0  0  0  0  0  0  0
  -22.7930  -13.6000   21.0350 C   0  0  0  0  0  0  0  0  0  0  0  0
  -22.0400  -12.9230   21.8950 N   0  0  0  0  0  0  0  0  0  0  0  0
  -22.3700  -14.6180   20.4880 O   0  0  0  0  0  0  0  0  0  0  0  0
  -22.3890  -12.1040   22.3700 H   0  0  0  0  0  0  0  0  0  0  0  0
  -21.0960  -13.2310   22.0860 H   0  0  0  0  0  0  0  0  0  0  0  0
  -25.4410  -15.2420   20.2370 N   0  0  0  0  0  0  0  0  0  0  0  0
  -24.6610  -15.8850   20.3240 H   0  0  0  0  0  0  0  0  0  0  0  0
  -26.2820  -15.6900   19.9000 H   0  0  0  0  0  0  0  0  0  0  0  0
  -29.1420  -24.4020   19.4270 C   0  0  0  0  0  3  0  0  0  0  0  0
  -29.8250  -25.2260   17.1180 C   0  0  0  0  0  1  0  0  0  0  0  0
  -28.7610  -25.0050   18.1210 N   0  0  0  0  0  4  0  0  0  0  0  0
  -28.4510  -25.9340   18.3740 H   0  0  0  0  0  0  0  0  0  0  0  0
  -27.9740  -24.5320   17.7030 H   0  0  0  0  0  0  0  0  0  0  0  0
  -28.3050  -25.1990   20.4790 C   0  0  0  0  0  2  0  0  0  0  0  0
  -28.4080  -26.6370   20.2340 O   0  0  0  0  0  0  0  0  0  0  0  0
  -24.6000  -31.8860   23.2310 C   0  0  0  0  0  0  0  0  0  0  0  0
  -27.2480  -27.3960   20.2040 C   0  0  0  0  0  0  0  0  0  0  0  0
  -23.4020  -30.4840   21.5820 C   0  0  0  0  0  3  0  0  0  0  0  0
  -24.8650  -28.9420   20.1690 C   0  0  0  0  0  0  0  0  0  0  0  0
  -25.9300  -30.8350   21.3960 C   0  0  0  0  0  2  0  0  0  0  0  0
  -26.0220  -29.4560   20.7690 C   0  0  0  0  0  0  0  0  0  0  0  0
  -27.2180  -28.6970   20.7730 C   0  0  0  0  0  3  0  0  0  0  0  0
  -26.0740  -26.9120   19.5830 C   0  0  0  0  0  3  0  0  0  0  0  0
  -24.8900  -27.6730   19.5630 C   0  0  0  0  0  3  0  0  0  0  0  0
  -23.6250  -29.8080   20.2030 C   0  0  0  0  0  2  0  0  0  0  0  0
  -24.6620  -31.0830   22.1270 N   0  0  0  0  0  0  0  0  0  0  0  0
  -23.5150  -32.1540   23.7660 O   0  0  0  0  0  0  0  0  0  0  0  0
  -22.7450  -29.4600   22.5390 C   0  0  0  0  0  0  0  0  0  0  0  0
  -21.4190  -29.2810   22.4150 N   0  0  0  0  0  0  0  0  0  0  0  0
  -23.4260  -28.8340   23.3580 O   0  0  0  0  0  0  0  0  0  0  0  0
  -20.9280  -29.8450   21.7330 H   0  0  0  0  0  0  0  0  0  0  0  0
  -18.0410  -28.0890   22.9020 C   0  0  0  0  0  0  0  0  0  0  0  0
  -20.5990  -28.3430   23.1820 C   0  0  0  0  0  3  0  0  0  0  0  0
  -20.7010  -26.9120   22.6050 C   0  0  0  0  0  2  0  0  0  0  0  0
  -19.6010  -26.5920   21.5870 C   0  0  0  0  0  2  0  0  0  0  0  0
  -18.2170  -26.7400   22.2260 C   0  0  0  0  0  2  0  0  0  0  0  0
  -19.1580  -28.8470   23.3390 C   0  0  0  0  0  0  0  0  0  0  0  0
  -18.9400  -30.1110   23.9300 C   0  0  0  0  0  3  0  0  0  0  0  0
  -17.6360  -30.6150   24.0910 C   0  0  0  0  0  3  0  0  0  0  0  0
  -16.5310  -29.8530   23.6750 C   0  0  0  0  0  3  0  0  0  0  0  0
  -16.7370  -28.5900   23.0880 C   0  0  0  0  0  3  0  0  0  0  0  0
  -25.8800  -32.5200   23.8570 C   0  0  0  0  0  3  0  0  0  0  0  0
  -25.5690  -33.9170   24.1870 N   0  0  0  0  0  0  0  0  0  0  0  0
  -25.9010  -34.9690   23.4270 C   0  0  0  0  0  0  0  0  0  0  0  0
  -26.5780  -34.8660   22.4000 O   0  0  0  0  0  0  0  0  0  0  0  0
  -24.9830  -34.0690   24.9950 H   0  0  0  0  0  0  0  0  0  0  0  0
  -24.1760  -36.7590   23.0530 C   0  0  0  0  0  1  0  0  0  0  0  0
  -25.4080  -36.3570   23.8810 C   0  0  0  0  0  3  0  0  0  0  0  0
  -27.5350  -37.2390   24.7340 C   0  0  0  0  0  1  0  0  0  0  0  0
  -26.4400  -37.4110   23.7810 N   0  0  0  0  0  0  0  0  0  0  0  0
  -26.0310  -38.3300   23.9300 H   0  0  0  0  0  0  0  0  0  0  0  0
  -26.3950  -31.7500   25.1340 C   0  0  1  0  0  0  0  0  0  0  0  0
  -25.3000  -31.5130   26.2020 C   0  0  0  0  0  1  0  0  0  0  0  0
  -26.9810  -30.3750   24.7410 C   0  0  0  0  0  1  0  0  0  0  0  0
  -27.5450  -32.5440   25.7990 C   0  0  0  0  0  1  0  0  0  0  0  0
  2  5  1  0
  2  4  1  0
  3  8  1  0
  3  1  1  0
  4 50  1  0
  4  1  1  0
  5  3  1  0
  6  5  1  0
  7  5  1  0
  8  9  2  0
 10  8  1  0
 10 11  1  0
 12 20  1  0
 13 18  1  0
 14 15  1  0
 14 13  1  0
 16 15  1  0
 16 25  1  0
 16 17  1  0
 18 12  1  0
 18 17  1  0
 19 12  2  0
 20 11  1  0
 20 21  1  0
 22 23  2  0
 23 42  1  0
 24 23  1  0
 24 27  1  0
 25 22  1  0
 25 26  1  0
 26 24  2  0
 27 28  1  0
 28 29  2  0
 30 33  1  0
 30 29  1  0
 31 30  2  0
 32 31  1  0
 32 27  2  0
 33 34  1  0
 34 35  1  0
 35 36  2  0
 37 36  1  0
 37 41  1  0
 38 37  2  0
 39 34  2  0
 39 38  1  0
 40 39  1  0
 42 43  1  0
 43 46  1  0
 43 45  1  0
 44 42  2  0
 47 48  1  0
 47 22  1  0
 49 47  1  0
 50 55  1  0
 51 52  1  0
 52 53  1  0
 52 50  1  0
 54 52  1  0
 56 55  1  0
 57 68  2  0
 58 56  1  0
 58 63  1  0
 59 67  1  0
 59 69  1  0
 60 66  1  0
 60 62  1  0
 61 67  1  0
 62 63  2  0
 62 61  1  0
 64 58  2  0
 65 64  1  0
 65 60  2  0
 66 59  1  0
 67 57  1  0
 69 71  2  0
 70 69  1  0
 72 70  1  0
 73 82  2  0
 73 78  1  0
 74 70  1  0
 74 78  1  0
 75 74  1  0
 76 77  1  0
 76 75  1  0
 77 73  1  0
 78 79  2  0
 79 80  1  0
 81 80  2  0
 82 81  1  0
 83 57  1  0
 83 84  1  0
 83 93  1  0
 84 87  1  0
 85 89  1  0
 85 84  1  0
 86 85  2  0
 89 88  1  0
 91 89  1  0
 91 92  1  0
 91 90  1  0
 93 96  1  1
 93 94  1  0
 95 93  1  0
M  ISO  4  12 100  20 100  55 101  56 101
M  END
>  <TORSDO>  (3) 
F 22

>  <SCORE>  (3) 
-13.106

>  <name>  (3) 
2

>  <ligand_id>  (3) 
2

>  <original_smiles>  (3) 
[H]c1c([H])c([H])c2c(c1[H])C([H])([H])C([H])([H])C([H])([H])C2([H])N([H])C(=O)C1([H])N(C(=O)C([H])(N([H])C(=O)C([H])(N([H])C([H])([H])[H])C([H])([H])[H])C(C([H])([H])[H])(C([H])([H])[H])C([H])([H])[H])C([H])([H])c2c([H])c(OC([H])([H])C([H])(C3([H])C([H])([H])C([H])(C(=O)C([H])([H])C([H])([H])N([H])C(=O)N4C([H])([H])C([H])([H])C([H])([H])C([H])(n5nc(-c6c([H])c([H])c(Oc7c([H])c([H])c(F)c([H])c7F)c([H])c6[H])c(C(=O)N([H])[H])c5N([H])[H])C4([H])[H])[N+]([H])([H])C3([H])[H])[N+]([H])([H])C([H])([H])[H])c([H])c([H])c2C1([H])[H]

>  <smiles>  (3) 
[H]c1c([H])c([H])c2c(c1[H])C([H])([H])C([H])([H])C([H])([H])C2([H])N([H])C(=O)C1([H])N(C(=O)C([H])(N([H])C(=O)C([H])(N([H])C([H])([H])[H])C([H])([H])[H])C(C([H])([H])[H])(C([H])([H])[H])C([H])([H])[H])C([H])([H])c2c([H])c(OC([H])([H])C([H])(C3([H])C([H])([H])C([H])(C(=O)C([H])([H])C([H])([H])N([H])C(=O)N4C([H])([H])C([H])([H])C([H])([H])C([H])(n5nc(-c6c([H])c([H])c(Oc7c([H])c([H])c(F)c([H])c7F)c([H])c6[H])c(C(=O)N([H])[H])c5N([H])[H])C4([H])[H])[N+]([H])([H])C3([H])[H])[N+]([H])([H])C([H])([H])[H])c([H])c([H])c2C1([H])[H]

$$$$
3:0:0
     RDKit          3D

 97105  0  0  1  0  0  0  0  0999 V2000
  -29.4100  -19.6920   21.1460 N   0  0  0  0  0  4  0  0  0  0  0  0
  -28.5140  -19.2640   20.9810 H   0  0  0  0  0  0  0  0  0  0  0  0
  -29.3980  -20.0840   22.0710 H   0  0  0  0  0  0  0  0  0  0  0  0
  -29.5660  -20.8220   20.1790 C   0  0  0  0  0  2  0  0  0  0  0  0
  -27.1660  -21.7120   19.8920 C   0  0  0  0  0  1  0  0  0  0  0  0
  -28.5790  -22.0260   20.4280 C   0  0  0  0  0  3  0  0  0  0  0  0
  -29.0690  -23.2660   19.7920 N   0  0  0  0  0  0  0  0  0  0  0  0
  -30.0840  -23.2980   19.8730 H   0  0  0  0  0  0  0  0  0  0  0  0
  -28.5390  -24.5310   20.3520 C   0  0  0  0  0  2  0  0  0  0  0  0
  -29.0450  -25.7750   19.5520 C   0  0  0  0  0  2  0  0  0  0  0  0
  -28.8380  -27.0670   20.1700 O   0  0  0  0  0  0  0  0  0  0  0  0
  -24.5790  -31.8940   23.2430 C   0  0  0  0  0  0  0  0  0  0  0  0
  -27.6110  -27.7090   20.1170 C   0  0  0  0  0  0  0  0  0  0  0  0
  -23.5220  -30.4660   21.5260 C   0  0  0  0  0  3  0  0  0  0  0  0
  -25.1180  -29.0700   20.0990 C   0  0  0  0  0  0  0  0  0  0  0  0
  -26.0250  -30.9910   21.4150 C   0  0  0  0  0  2  0  0  0  0  0  0
  -26.2230  -29.6470   20.7370 C   0  0  0  0  0  0  0  0  0  0  0  0
  -27.4680  -28.9730   20.7450 C   0  0  0  0  0  3  0  0  0  0  0  0
  -26.4790  -27.1460   19.4820 C   0  0  0  0  0  3  0  0  0  0  0  0
  -25.2430  -27.8180   19.4690 C   0  0  0  0  0  3  0  0  0  0  0  0
  -23.8170  -29.8410   20.1370 C   0  0  0  0  0  2  0  0  0  0  0  0
  -24.7250  -31.1310   22.1210 N   0  0  0  0  0  0  0  0  0  0  0  0
  -23.4660  -32.0740   23.7560 O   0  0  0  0  0  0  0  0  0  0  0  0
  -22.9130  -29.3730   22.4340 C   0  0  0  0  0  0  0  0  0  0  0  0
  -21.6150  -29.0850   22.2380 N   0  0  0  0  0  0  0  0  0  0  0  0
  -23.6070  -28.7840   23.2670 O   0  0  0  0  0  0  0  0  0  0  0  0
  -21.1130  -29.6170   21.5390 H   0  0  0  0  0  0  0  0  0  0  0  0
  -18.3260  -27.6250   22.5660 C   0  0  0  0  0  0  0  0  0  0  0  0
  -20.8430  -28.0670   22.9500 C   0  0  0  0  0  3  0  0  0  0  0  0
  -21.0760  -26.6660   22.3390 C   0  0  0  0  0  2  0  0  0  0  0  0
  -20.0430  -26.2900   21.2710 C   0  0  0  0  0  2  0  0  0  0  0  0
  -18.6300  -26.3130   21.8610 C   0  0  0  0  0  2  0  0  0  0  0  0
  -19.3650  -28.4570   23.0620 C   0  0  0  0  0  0  0  0  0  0  0  0
  -19.0260  -29.6820   23.6770 C   0  0  0  0  0  3  0  0  0  0  0  0
  -17.6790  -30.0780   23.8010 C   0  0  0  0  0  3  0  0  0  0  0  0
  -16.6560  -29.2440   23.3220 C   0  0  0  0  0  3  0  0  0  0  0  0
  -16.9780  -28.0190   22.7120 C   0  0  0  0  0  3  0  0  0  0  0  0
  -25.7970  -32.5920   23.9240 C   0  0  0  0  0  3  0  0  0  0  0  0
  -25.4020  -33.9750   24.2210 N   0  0  0  0  0  0  0  0  0  0  0  0
  -25.7130  -35.0340   23.4630 C   0  0  0  0  0  0  0  0  0  0  0  0
  -26.4310  -34.9550   22.4620 O   0  0  0  0  0  0  0  0  0  0  0  0
  -24.7600  -34.1040   24.9910 H   0  0  0  0  0  0  0  0  0  0  0  0
  -23.9070  -36.7270   23.0120 C   0  0  0  0  0  1  0  0  0  0  0  0
  -25.1350  -36.4000   23.8760 C   0  0  0  0  0  3  0  0  0  0  0  0
  -27.1940  -37.4040   24.7640 C   0  0  0  0  0  1  0  0  0  0  0  0
  -26.1140  -37.5070   23.7850 N   0  0  0  0  0  0  0  0  0  0  0  0
  -25.6560  -38.4030   23.9150 H   0  0  0  0  0  0  0  0  0  0  0  0
  -26.2790  -31.8590   25.2360 C   0  0  1  0  0  0  0  0  0  0  0  0
  -25.1310  -31.5020   26.2120 C   0  0  0  0  0  1  0  0  0  0  0  0
  -27.0190  -30.5480   24.8840 C   0  0  0  0  0  1  0  0  0  0  0  0
  -27.2960  -32.7480   25.9880 C   0  0  0  0  0  1  0  0  0  0  0  0
  -30.4300  -18.5920   21.1150 C   0  0  0  0  0  3  0  0  0  0  0  0
  -31.3720  -17.2160   17.2220 C   0  0  0  0  0  3  0  0  0  0  0  0
  -30.0880  -17.0090   17.7820 C   0  0  0  0  0  3  0  0  0  0  0  0
  -32.0190  -18.3280   19.1280 C   0  0  0  0  0  3  0  0  0  0  0  0
  -30.7380  -18.1090   19.6990 C   0  0  0  0  0  0  0  0  0  0  0  0
  -32.3430  -17.8810   17.8920 N   0  0  0  0  0  0  0  0  0  0  0  0
  -29.7590  -17.4540   19.0220 N   0  0  0  0  0  0  0  0  0  0  0  0
  -30.1100  -17.4370   22.1400 C   0  0  0  0  0  2  0  0  0  0  0  0
  -30.8790  -15.1630   21.1400 C   0  0  0  0  0  0  0  0  0  0  0  0
  -30.7860  -13.1600   19.6900 C   0  0  0  0  0  2  0  0  0  0  0  0
  -29.8880  -13.4800   18.4740 C   0  0  0  0  0  2  0  0  0  0  0  0
  -28.3970  -13.2640   18.8000 C   0  0  0  0  0  2  0  0  0  0  0  0
  -27.9720  -13.9140   20.1420 C   0  0  0  0  0  3  0  0  0  0  0  0
  -28.9700  -13.5340   21.2590 C   0  0  0  0  0  2  0  0  0  0  0  0
  -30.3080  -13.9700   20.8180 N   0  0  0  0  0  0  0  0  0  0  0  0
  -32.0400  -15.4660   20.8540 O   0  0  0  0  0  0  0  0  0  0  0  0
  -29.9910  -16.0500   21.6370 N   0  0  0  0  0  0  0  0  0  0  0  0
  -29.0660  -15.6600   21.7240 H   0  0  0  0  0  0  0  0  0  0  0  0
  -25.4970  -14.4080   20.6530 C   0  0  0  0  0  0  0  0  0  0  0  0
  -24.4390  -13.5840   20.9170 C   0  0  0  0  0  0  0  0  0  0  0  0
  -24.9630  -12.2550   20.9090 C   0  0  0  0  0  0  0  0  0  0  0  0
  -26.5980  -13.5780   20.4990 N   0  0  0  0  0  0  0  0  0  0  0  0
  -26.2750  -12.2770   20.7130 N   0  0  0  0  0  0  0  0  0  0  0  0
  -24.2860  -10.9570   21.0190 C   0  0  0  0  0  0  0  0  0  0  0  0
  -24.6720  -10.0020   21.9850 C   0  0  0  0  0  3  0  0  0  0  0  0
  -23.9940   -8.7690   22.0820 C   0  0  0  0  0  3  0  0  0  0  0  0
  -22.9170   -8.4820   21.2110 C   0  0  0  0  0  0  0  0  0  0  0  0
  -22.5510   -9.4270   20.2360 C   0  0  0  0  0  3  0  0  0  0  0  0
  -23.2300  -10.6510   20.1370 C   0  0  0  0  0  3  0  0  0  0  0  0
  -22.2160   -7.2990   21.2150 O   0  0  0  0  0  0  0  0  0  0  0  0
  -22.0220   -6.5810   22.3680 C   0  0  0  0  0  0  0  0  0  0  0  0
  -21.3830   -7.1420   23.4950 C   0  0  0  0  0  3  0  0  0  0  0  0
  -21.1420   -6.3480   24.6350 C   0  0  0  0  0  3  0  0  0  0  0  0
  -21.5300   -4.9940   24.6450 C   0  0  0  0  0  0  0  0  0  0  0  0
  -22.1620   -4.4330   23.5210 C   0  0  0  0  0  3  0  0  0  0  0  0
  -22.4050   -5.2250   22.3850 C   0  0  0  0  0  0  0  0  0  0  0  0
  -22.9930   -4.6750   21.2970 F   0  0  0  0  0  0  0  0  0  0  0  0
  -21.2930   -4.2280   25.7360 F   0  0  0  0  0  0  0  0  0  0  0  0
  -23.0030  -13.9920   21.0740 C   0  0  0  0  0  0  0  0  0  0  0  0
  -22.2390  -13.2550   21.8720 N   0  0  0  0  0  0  0  0  0  0  0  0
  -22.5620  -14.9970   20.5220 O   0  0  0  0  0  0  0  0  0  0  0  0
  -22.6090  -12.4400   22.3410 H   0  0  0  0  0  0  0  0  0  0  0  0
  -21.2750  -13.5100   22.0220 H   0  0  0  0  0  0  0  0  0  0  0  0
  -25.6120  -15.7880   20.5060 N   0  0  0  0  0  0  0  0  0  0  0  0
  -24.8000  -16.3920   20.5470 H   0  0  0  0  0  0  0  0  0  0  0  0
  -26.4520  -16.2790   20.2110 H   0  0  0  0  0  0  0  0  0  0  0  0
  1  3  1  0
  2  1  1  0
  4  6  1  0
  4  1  1  0
  6  5  1  0
  7  8  1  0
  7  9  1  0
  7  6  1  0
 10 11  1  0
 10  9  1  0
 12 23  2  0
 13 11  1  0
 13 18  1  0
 14 22  1  0
 14 24  1  0
 15 21  1  0
 15 17  1  0
 16 22  1  0
 17 18  2  0
 17 16  1  0
 19 13  2  0
 20 19  1  0
 20 15  2  0
 21 14  1  0
 22 12  1  0
 24 26  2  0
 25 24  1  0
 27 25  1  0
 28 37  2  0
 28 33  1  0
 29 25  1  0
 29 33  1  0
 30 29  1  0
 31 32  1  0
 31 30  1  0
 32 28  1  0
 33 34  2  0
 34 35  1  0
 36 35  2  0
 37 36  1  0
 38 12  1  0
 38 39  1  0
 38 48  1  0
 39 42  1  0
 40 44  1  0
 40 39  1  0
 41 40  2  0
 44 43  1  0
 46 44  1  0
 46 47  1  0
 46 45  1  0
 48 51  1  1
 48 49  1  0
 50 48  1  0
 52  1  1  0
 52 59  1  0
 53 54  2  0
 53 57  1  0
 54 58  1  0
 55 56  1  0
 56 52  1  0
 57 55  2  0
 58 56  2  0
 60 68  1  0
 61 66  1  0
 62 63  1  0
 62 61  1  0
 64 63  1  0
 64 73  1  0
 64 65  1  0
 66 60  1  0
 66 65  1  0
 67 60  2  0
 68 69  1  0
 68 59  1  0
 70 71  2  0
 71 90  1  0
 72 71  1  0
 72 75  1  0
 73 70  1  0
 73 74  1  0
 74 72  2  0
 75 76  1  0
 76 77  2  0
 78 81  1  0
 78 77  1  0
 79 78  2  0
 80 79  1  0
 80 75  2  0
 81 82  1  0
 82 87  2  0
 82 83  1  0
 83 84  2  0
 84 85  1  0
 85 89  1  0
 86 85  2  0
 87 86  1  0
 88 87  1  0
 90 91  1  0
 91 94  1  0
 91 93  1  0
 92 90  2  0
 95 96  1  0
 95 70  1  0
 97 95  1  0
M  ISO  4  10 101  11 101  60 100  68 100
M  END
>  <TORSDO>  (4) 
F 24

>  <SCORE>  (4) 
-11.227

>  <name>  (4) 
3

>  <ligand_id>  (4) 
3

>  <original_smiles>  (4) 
[H]c1nc([H])c(C([H])(C([H])([H])N([H])C(=O)N2C([H])([H])C([H])([H])C([H])([H])C([H])(n3nc(-c4c([H])c([H])c(Oc5c([H])c([H])c(F)c([H])c5F)c([H])c4[H])c(C(=O)N([H])[H])c3N([H])[H])C2([H])[H])[N+]([H])([H])C([H])([H])C([H])(N([H])C([H])([H])C([H])([H])Oc2c([H])c([H])c3c(c2[H])C([H])([H])N(C(=O)C([H])(N([H])C(=O)C([H])(N([H])C([H])([H])[H])C([H])([H])[H])C(C([H])([H])[H])(C([H])([H])[H])C([H])([H])[H])C([H])(C(=O)N([H])C2([H])c4c([H])c([H])c([H])c([H])c4C([H])([H])C([H])([H])C2([H])[H])C3([H])[H])C([H])([H])[H])nc1[H]

>  <smiles>  (4) 
[H]c1nc([H])c(C([H])(C([H])([H])N([H])C(=O)N2C([H])([H])C([H])([H])C([H])([H])C([H])(n3nc(-c4c([H])c([H])c(Oc5c([H])c([H])c(F)c([H])c5F)c([H])c4[H])c(C(=O)N([H])[H])c3N([H])[H])C2([H])[H])[N+]([H])([H])C([H])([H])C([H])(N([H])C([H])([H])C([H])([H])Oc2c([H])c([H])c3c(c2[H])C([H])([H])N(C(=O)C([H])(N([H])C(=O)C([H])(N([H])C([H])([H])[H])C([H])([H])[H])C(C([H])([H])[H])(C([H])([H])[H])C([H])([H])[H])C([H])(C(=O)N([H])C2([H])c4c([H])c([H])c([H])c([H])c4C([H])([H])C([H])([H])C2([H])[H])C3([H])[H])C([H])([H])[H])nc1[H]

$$$$
4:0:0
     RDKit          3D

 89 97  0  0  1  0  0  0  0  0999 V2000
  -30.4290  -15.4010   20.3430 C   0  0  0  0  0  0  0  0  0  0  0  0
  -30.3910  -12.9180   19.5070 C   0  0  0  0  0  2  0  0  0  0  0  0
  -29.4900  -12.6550   18.2740 C   0  0  0  0  0  2  0  0  0  0  0  0
  -28.0360  -12.3860   18.7030 C   0  0  0  0  0  2  0  0  0  0  0  0
  -27.5680  -13.3640   19.8070 C   0  0  0  0  0  3  0  0  0  0  0  0
  -28.6080  -13.5750   20.9330 C   0  0  0  0  0  2  0  0  0  0  0  0
  -29.8370  -14.0900   20.2970 N   0  0  0  0  0  0  0  0  0  0  0  0
  -31.6530  -15.3290   20.1540 O   0  0  0  0  0  0  0  0  0  0  0  0
  -31.6770  -20.0010   19.5380 C   0  0  0  0  0  3  0  0  0  0  0  0
  -31.2500  -18.6700   19.7740 C   0  0  0  0  0  3  0  0  0  0  0  0
  -30.8640  -21.1500   19.7410 C   0  0  0  0  0  0  0  0  0  0  0  0
  -29.5160  -21.0370   20.1760 C   0  0  0  0  0  0  0  0  0  0  0  0
  -29.9630  -18.3410   20.2390 C   0  0  0  0  0  0  0  0  0  0  0  0
  -31.5300  -22.5040   19.5180 C   0  0  0  0  0  1  0  0  0  0  0  0
  -29.1520  -19.5990   20.4130 N   0  0  0  0  0  0  0  0  0  0  0  0
  -29.7020  -16.7230   20.4250 N   0  0  0  0  0  0  0  0  0  0  0  0
  -28.7330  -16.5390   20.6270 H   0  0  0  0  0  0  0  0  0  0  0  0
  -25.1900  -13.9230   20.5370 C   0  0  0  0  0  0  0  0  0  0  0  0
  -24.1200  -13.1530   20.8960 C   0  0  0  0  0  0  0  0  0  0  0  0
  -24.5830  -11.8010   20.8770 C   0  0  0  0  0  0  0  0  0  0  0  0
  -26.2340  -13.0470   20.3090 N   0  0  0  0  0  0  0  0  0  0  0  0
  -25.8810  -11.7620   20.5810 N   0  0  0  0  0  0  0  0  0  0  0  0
  -23.8450  -10.5440   21.0650 C   0  0  0  0  0  0  0  0  0  0  0  0
  -24.2690   -9.5680   21.9950 C   0  0  0  0  0  3  0  0  0  0  0  0
  -23.5280   -8.3770   22.1740 C   0  0  0  0  0  3  0  0  0  0  0  0
  -22.3510   -8.1530   21.4200 C   0  0  0  0  0  0  0  0  0  0  0  0
  -21.9460   -9.1180   20.4800 C   0  0  0  0  0  3  0  0  0  0  0  0
  -22.6870  -10.2990   20.3000 C   0  0  0  0  0  3  0  0  0  0  0  0
  -21.5830   -7.0180   21.5070 O   0  0  0  0  0  0  0  0  0  0  0  0
  -21.5350   -6.2660   22.6520 C   0  0  0  0  0  0  0  0  0  0  0  0
  -21.1450   -6.8220   23.8910 C   0  0  0  0  0  3  0  0  0  0  0  0
  -21.0450   -5.9980   25.0300 C   0  0  0  0  0  3  0  0  0  0  0  0
  -21.3230   -4.6210   24.9310 C   0  0  0  0  0  0  0  0  0  0  0  0
  -21.7060   -4.0670   23.6960 C   0  0  0  0  0  3  0  0  0  0  0  0
  -21.8100   -4.8870   22.5600 C   0  0  0  0  0  0  0  0  0  0  0  0
  -22.1590   -4.3450   21.3680 F   0  0  0  0  0  0  0  0  0  0  0  0
  -21.2190   -3.8290   26.0220 F   0  0  0  0  0  0  0  0  0  0  0  0
  -22.7230  -13.6380   21.1370 C   0  0  0  0  0  0  0  0  0  0  0  0
  -21.9760  -12.9660   22.0040 N   0  0  0  0  0  0  0  0  0  0  0  0
  -22.3010  -14.6600   20.5960 O   0  0  0  0  0  0  0  0  0  0  0  0
  -22.3280  -12.1420   22.4670 H   0  0  0  0  0  0  0  0  0  0  0  0
  -21.0400  -13.2830   22.2100 H   0  0  0  0  0  0  0  0  0  0  0  0
  -25.3550  -15.2910   20.3530 N   0  0  0  0  0  0  0  0  0  0  0  0
  -24.5700  -15.9300   20.4250 H   0  0  0  0  0  0  0  0  0  0  0  0
  -26.1840  -15.7250   19.9710 H   0  0  0  0  0  0  0  0  0  0  0  0
  -28.7060  -22.7580   22.0380 C   0  0  0  0  0  1  0  0  0  0  0  0
  -28.6270  -22.5490   20.5220 C   0  0  0  0  0  3  0  0  0  0  0  0
  -28.5240  -24.2470   19.8030 C   0  0  0  0  0  2  0  0  0  0  0  0
  -28.3480  -25.8420   20.2990 O   0  0  0  0  0  0  0  0  0  0  0  0
  -24.6950  -31.8410   23.1500 C   0  0  0  0  0  0  0  0  0  0  0  0
  -27.3080  -26.9210   20.1650 C   0  0  0  0  0  0  0  0  0  0  0  0
  -23.5150  -30.4130   21.5280 C   0  0  0  0  0  3  0  0  0  0  0  0
  -24.9790  -28.7950   20.1170 C   0  0  0  0  0  0  0  0  0  0  0  0
  -26.0800  -30.6320   21.3830 C   0  0  0  0  0  2  0  0  0  0  0  0
  -26.1610  -29.2120   20.7380 C   0  0  0  0  0  0  0  0  0  0  0  0
  -27.3090  -28.2950   20.7410 C   0  0  0  0  0  3  0  0  0  0  0  0
  -26.0910  -26.6630   19.4900 C   0  0  0  0  0  3  0  0  0  0  0  0
  -24.9720  -27.5440   19.4730 C   0  0  0  0  0  3  0  0  0  0  0  0
  -23.7530  -29.7070   20.1620 C   0  0  0  0  0  2  0  0  0  0  0  0
  -24.7860  -30.9910   22.0740 N   0  0  0  0  0  0  0  0  0  0  0  0
  -23.6030  -32.1280   23.6680 O   0  0  0  0  0  0  0  0  0  0  0  0
  -22.8190  -29.4310   22.5090 C   0  0  0  0  0  0  0  0  0  0  0  0
  -21.4870  -29.2750   22.3990 N   0  0  0  0  0  0  0  0  0  0  0  0
  -23.4880  -28.8100   23.3380 O   0  0  0  0  0  0  0  0  0  0  0  0
  -20.9980  -29.8260   21.7070 H   0  0  0  0  0  0  0  0  0  0  0  0
  -18.1070  -28.0710   22.9450 C   0  0  0  0  0  0  0  0  0  0  0  0
  -20.6690  -28.3440   23.1840 C   0  0  0  0  0  3  0  0  0  0  0  0
  -20.7670  -26.9070   22.6180 C   0  0  0  0  0  2  0  0  0  0  0  0
  -19.6580  -26.5770   21.6150 C   0  0  0  0  0  2  0  0  0  0  0  0
  -18.2810  -26.7200   22.2700 C   0  0  0  0  0  2  0  0  0  0  0  0
  -19.2280  -28.8390   23.3590 C   0  0  0  0  0  0  0  0  0  0  0  0
  -19.0070  -30.1010   23.9540 C   0  0  0  0  0  3  0  0  0  0  0  0
  -17.7010  -30.5950   24.1370 C   0  0  0  0  0  3  0  0  0  0  0  0
  -16.5960  -29.8240   23.7380 C   0  0  0  0  0  3  0  0  0  0  0  0
  -16.8000  -28.5640   23.1470 C   0  0  0  0  0  3  0  0  0  0  0  0
  -25.9590  -32.5040   23.7780 C   0  0  0  0  0  3  0  0  0  0  0  0
  -25.6200  -33.8990   24.1230 N   0  0  0  0  0  0  0  0  0  0  0  0
  -25.9360  -34.9730   23.3860 C   0  0  0  0  0  0  0  0  0  0  0  0
  -26.6000  -34.8970   22.3500 O   0  0  0  0  0  0  0  0  0  0  0  0
  -25.0280  -34.0300   24.9280 H   0  0  0  0  0  0  0  0  0  0  0  0
  -24.1770  -36.7560   23.0890 C   0  0  0  0  0  1  0  0  0  0  0  0
  -25.4360  -36.3500   23.8740 C   0  0  0  0  0  3  0  0  0  0  0  0
  -27.5740  -37.2530   24.6810 C   0  0  0  0  0  1  0  0  0  0  0  0
  -26.4510  -37.4230   23.7630 N   0  0  0  0  0  0  0  0  0  0  0  0
  -26.0320  -38.3320   23.9440 H   0  0  0  0  0  0  0  0  0  0  0  0
  -26.4840  -31.7470   25.0600 C   0  0  1  0  0  0  0  0  0  0  0  0
  -25.3970  -31.5030   26.1330 C   0  0  0  0  0  1  0  0  0  0  0  0
  -27.0760  -30.3720   24.6800 C   0  0  0  0  0  1  0  0  0  0  0  0
  -27.6300  -32.5530   25.7150 C   0  0  0  0  0  1  0  0  0  0  0  0
  1 16  1  0
  2  7  1  0
  3  4  1  0
  3  2  1  0
  5  4  1  0
  5 21  1  0
  5  6  1  0
  7  1  1  0
  7  6  1  0
  8  1  2  0
  9 11  2  0
  9 10  1  0
 10 13  2  0
 11 12  1  0
 12 15  2  0
 12 47  1  0
 13 15  1  0
 13 16  1  0
 14 11  1  0
 16 17  1  0
 18 19  2  0
 19 38  1  0
 20 19  1  0
 20 23  1  0
 21 18  1  0
 21 22  1  0
 22 20  2  0
 23 24  1  0
 24 25  2  0
 26 29  1  0
 26 25  1  0
 27 26  2  0
 28 27  1  0
 28 23  2  0
 29 30  1  0
 30 31  1  0
 31 32  2  0
 33 32  1  0
 33 37  1  0
 34 33  2  0
 35 30  2  0
 35 34  1  0
 36 35  1  0
 38 39  1  0
 39 42  1  0
 39 41  1  0
 40 38  2  0
 43 44  1  0
 43 18  1  0
 45 43  1  0
 47 46  1  0
 48 49  1  0
 48 47  1  0
 50 61  2  0
 51 49  1  0
 51 56  1  0
 52 60  1  0
 52 62  1  0
 53 59  1  0
 53 55  1  0
 54 60  1  0
 55 56  2  0
 55 54  1  0
 57 51  2  0
 58 57  1  0
 58 53  2  0
 59 52  1  0
 60 50  1  0
 62 64  2  0
 63 62  1  0
 65 63  1  0
 66 75  2  0
 66 71  1  0
 67 63  1  0
 67 71  1  0
 68 67  1  0
 69 70  1  0
 69 68  1  0
 70 66  1  0
 71 72  2  0
 72 73  1  0
 74 73  2  0
 75 74  1  0
 76 50  1  0
 76 77  1  0
 76 86  1  0
 77 80  1  0
 78 82  1  0
 78 77  1  0
 79 78  2  0
 82 81  1  0
 84 82  1  0
 84 85  1  0
 84 83  1  0
 86 89  1  1
 86 87  1  0
 88 86  1  0
M  ISO  4   1 100  16 100  48 101  49 101
M  END
>  <TORSDO>  (5) 
F 17

>  <SCORE>  (5) 
-16.659

>  <name>  (5) 
4

>  <ligand_id>  (5) 
4

>  <original_smiles>  (5) 
[H]c1c(N([H])C(=O)N2C([H])([H])C([H])([H])C([H])([H])C([H])(n3nc(-c4c([H])c([H])c(Oc5c([H])c([H])c(F)c([H])c5F)c([H])c4[H])c(C(=O)N([H])[H])c3N([H])[H])C2([H])[H])nc(C([H])(C([H])([H])[H])C([H])([H])Oc2c([H])c([H])c3c(c2[H])C([H])([H])N(C(=O)C([H])(N([H])C(=O)C([H])(N([H])C([H])([H])[H])C([H])([H])[H])C(C([H])([H])[H])(C([H])([H])[H])C([H])([H])[H])C([H])(C(=O)N([H])C2([H])c4c([H])c([H])c([H])c([H])c4C([H])([H])C([H])([H])C2([H])[H])C3([H])[H])c(C([H])([H])[H])c1[H]

>  <smiles>  (5) 
[H]c1c(N([H])C(=O)N2C([H])([H])C([H])([H])C([H])([H])C([H])(n3nc(-c4c([H])c([H])c(Oc5c([H])c([H])c(F)c([H])c5F)c([H])c4[H])c(C(=O)N([H])[H])c3N([H])[H])C2([H])[H])nc(C([H])(C([H])([H])[H])C([H])([H])Oc2c([H])c([H])c3c(c2[H])C([H])([H])N(C(=O)C([H])(N([H])C(=O)C([H])(N([H])C([H])([H])[H])C([H])([H])[H])C(C([H])([H])[H])(C([H])([H])[H])C([H])([H])[H])C([H])(C(=O)N([H])C2([H])c4c([H])c([H])c([H])c([H])c4C([H])([H])C([H])([H])C2([H])[H])C3([H])[H])c(C([H])([H])[H])c1[H]

$$$$
5:0:0
     RDKit          3D

 98106  0  0  1  0  0  0  0  0999 V2000
  -30.1690  -21.8320   20.5980 C   0  0  0  0  0  3  0  0  0  0  0  0
  -29.5570  -20.2210   18.6760 C   0  0  0  0  0  3  0  0  0  0  0  0
  -29.3430  -18.9330   18.1670 C   0  0  0  0  0  0  0  0  0  0  0  0
  -29.5220  -17.8200   19.0230 C   0  0  0  0  0  0  0  0  0  0  0  0
  -29.9450  -20.4030   20.0150 C   0  0  0  0  0  0  0  0  0  0  0  0
  -30.0150  -18.0530   20.3410 C   0  0  0  0  0  0  0  0  0  0  0  0
  -28.9130  -18.8050   16.7130 C   0  0  0  0  0  1  0  0  0  0  0  0
  -29.1410  -16.4380   18.5210 C   0  0  0  0  0  1  0  0  0  0  0  0
  -30.2110  -19.3200   20.7950 N   0  0  0  0  0  0  0  0  0  0  0  0
  -30.4370  -16.9710   21.3720 C   0  0  0  0  0  2  0  0  0  0  0  0
  -30.6690  -14.5320   20.8440 C   0  0  0  0  0  0  0  0  0  0  0  0
  -30.4320  -12.3360   19.7540 C   0  0  0  0  0  2  0  0  0  0  0  0
  -29.5570  -12.4890   18.4950 C   0  0  0  0  0  2  0  0  0  0  0  0
  -28.0660  -12.3330   18.8490 C   0  0  0  0  0  2  0  0  0  0  0  0
  -27.6480  -13.1970   20.0690 C   0  0  0  0  0  3  0  0  0  0  0  0
  -28.6480  -13.0620   21.2390 C   0  0  0  0  0  2  0  0  0  0  0  0
  -29.9980  -13.3570   20.7220 N   0  0  0  0  0  0  0  0  0  0  0  0
  -31.8250  -14.6850   20.4440 O   0  0  0  0  0  0  0  0  0  0  0  0
  -29.9470  -15.5840   21.2620 N   0  0  0  0  0  0  0  0  0  0  0  0
  -28.9980  -15.4070   21.5540 H   0  0  0  0  0  0  0  0  0  0  0  0
  -25.2140  -13.8020   20.6260 C   0  0  0  0  0  0  0  0  0  0  0  0
  -24.1340  -13.0300   20.9420 C   0  0  0  0  0  0  0  0  0  0  0  0
  -24.6060  -11.6810   20.9590 C   0  0  0  0  0  0  0  0  0  0  0  0
  -26.2760  -12.9240   20.4750 N   0  0  0  0  0  0  0  0  0  0  0  0
  -25.9100  -11.6450   20.7330 N   0  0  0  0  0  0  0  0  0  0  0  0
  -23.8790  -10.4180   21.1230 C   0  0  0  0  0  0  0  0  0  0  0  0
  -24.2790   -9.4620   22.0800 C   0  0  0  0  0  3  0  0  0  0  0  0
  -23.5610   -8.2560   22.2320 C   0  0  0  0  0  3  0  0  0  0  0  0
  -22.4260   -8.0030   21.4270 C   0  0  0  0  0  0  0  0  0  0  0  0
  -22.0460   -8.9470   20.4570 C   0  0  0  0  0  3  0  0  0  0  0  0
  -22.7660  -10.1430   20.3040 C   0  0  0  0  0  3  0  0  0  0  0  0
  -21.6780   -6.8530   21.4930 O   0  0  0  0  0  0  0  0  0  0  0  0
  -21.5940   -6.1130   22.6450 C   0  0  0  0  0  0  0  0  0  0  0  0
  -21.1150   -6.6640   23.8540 C   0  0  0  0  0  3  0  0  0  0  0  0
  -20.9820   -5.8480   24.9960 C   0  0  0  0  0  3  0  0  0  0  0  0
  -21.3130   -4.4820   24.9280 C   0  0  0  0  0  0  0  0  0  0  0  0
  -21.7820   -3.9300   23.7240 C   0  0  0  0  0  3  0  0  0  0  0  0
  -21.9190   -4.7440   22.5850 C   0  0  0  0  0  0  0  0  0  0  0  0
  -22.3520   -4.2020   21.4210 F   0  0  0  0  0  0  0  0  0  0  0  0
  -21.1750   -3.6950   26.0210 F   0  0  0  0  0  0  0  0  0  0  0  0
  -22.7180  -13.4970   21.1260 C   0  0  0  0  0  0  0  0  0  0  0  0
  -21.9460  -12.8020   21.9540 N   0  0  0  0  0  0  0  0  0  0  0  0
  -22.3020  -14.5150   20.5720 O   0  0  0  0  0  0  0  0  0  0  0  0
  -22.2890  -11.9800   22.4280 H   0  0  0  0  0  0  0  0  0  0  0  0
  -20.9920  -13.0930   22.1170 H   0  0  0  0  0  0  0  0  0  0  0  0
  -25.3870  -15.1710   20.4350 N   0  0  0  0  0  0  0  0  0  0  0  0
  -24.6130  -15.8240   20.4770 H   0  0  0  0  0  0  0  0  0  0  0  0
  -26.2590  -15.6030   20.1560 H   0  0  0  0  0  0  0  0  0  0  0  0
  -30.1050  -21.8520   22.1500 C   0  0  0  0  0  2  0  0  0  0  0  0
  -31.4650  -21.5290   22.8010 C   0  0  0  0  0  2  0  0  0  0  0  0
  -31.4140  -21.7740   24.1950 O   0  0  0  0  0  0  0  0  0  0  0  0
  -31.4400  -22.7180   24.3330 H   0  0  0  0  0  0  0  0  0  0  0  0
  -29.2040  -22.9090   19.9680 C   0  0  0  0  0  2  0  0  0  0  0  0
  -29.3440  -24.3290   20.4230 N   0  0  0  0  0  4  0  0  0  0  0  0
  -30.2430  -24.6750   20.1300 H   0  0  0  0  0  0  0  0  0  0  0  0
  -29.3260  -24.3550   21.4280 H   0  0  0  0  0  0  0  0  0  0  0  0
  -28.1630  -25.2650   19.8400 C   0  0  0  0  0  2  0  0  0  0  0  0
  -28.3520  -26.6330   20.2050 O   0  0  0  0  0  0  0  0  0  0  0  0
  -24.6340  -31.9300   23.2960 C   0  0  0  0  0  0  0  0  0  0  0  0
  -27.2150  -27.4430   20.1650 C   0  0  0  0  0  0  0  0  0  0  0  0
  -23.4110  -30.5510   21.6530 C   0  0  0  0  0  3  0  0  0  0  0  0
  -24.8450  -29.0200   20.2010 C   0  0  0  0  0  0  0  0  0  0  0  0
  -25.9460  -30.8740   21.4530 C   0  0  0  0  0  2  0  0  0  0  0  0
  -26.0160  -29.5050   20.7990 C   0  0  0  0  0  0  0  0  0  0  0  0
  -27.2030  -28.7230   20.7820 C   0  0  0  0  0  3  0  0  0  0  0  0
  -26.0210  -27.0070   19.5360 C   0  0  0  0  0  3  0  0  0  0  0  0
  -24.8460  -27.7720   19.5650 C   0  0  0  0  0  3  0  0  0  0  0  0
  -23.6050  -29.8840   20.2670 C   0  0  0  0  0  2  0  0  0  0  0  0
  -24.6810  -31.1340   22.1910 N   0  0  0  0  0  0  0  0  0  0  0  0
  -23.5570  -32.2060   23.8430 O   0  0  0  0  0  0  0  0  0  0  0  0
  -22.7620  -29.5240   22.6090 C   0  0  0  0  0  0  0  0  0  0  0  0
  -21.4380  -29.3370   22.4790 N   0  0  0  0  0  0  0  0  0  0  0  0
  -23.4460  -28.8970   23.4220 O   0  0  0  0  0  0  0  0  0  0  0  0
  -20.9520  -29.8950   21.7900 H   0  0  0  0  0  0  0  0  0  0  0  0
  -18.0670  -28.1240   22.9570 C   0  0  0  0  0  0  0  0  0  0  0  0
  -20.6210  -28.3970   23.2440 C   0  0  0  0  0  3  0  0  0  0  0  0
  -20.7350  -26.9660   22.6710 C   0  0  0  0  0  2  0  0  0  0  0  0
  -19.6420  -26.6340   21.6500 C   0  0  0  0  0  2  0  0  0  0  0  0
  -18.2560  -26.7740   22.2850 C   0  0  0  0  0  2  0  0  0  0  0  0
  -19.1780  -28.8910   23.3930 C   0  0  0  0  0  0  0  0  0  0  0  0
  -18.9520  -30.1540   23.9830 C   0  0  0  0  0  3  0  0  0  0  0  0
  -17.6450  -30.6480   24.1450 C   0  0  0  0  0  3  0  0  0  0  0  0
  -16.5460  -29.8790   23.7240 C   0  0  0  0  0  3  0  0  0  0  0  0
  -16.7580  -28.6200   23.1340 C   0  0  0  0  0  3  0  0  0  0  0  0
  -25.9250  -32.5490   23.9120 C   0  0  0  0  0  3  0  0  0  0  0  0
  -25.6270  -33.9490   24.2420 N   0  0  0  0  0  0  0  0  0  0  0  0
  -25.9650  -35.0000   23.4830 C   0  0  0  0  0  0  0  0  0  0  0  0
  -26.6320  -34.8920   22.4510 O   0  0  0  0  0  0  0  0  0  0  0  0
  -25.0240  -34.1060   25.0370 H   0  0  0  0  0  0  0  0  0  0  0  0
  -24.2470  -36.8030   23.1350 C   0  0  0  0  0  1  0  0  0  0  0  0
  -25.4880  -36.3910   23.9420 C   0  0  0  0  0  3  0  0  0  0  0  0
  -27.6330  -37.2620   24.7650 C   0  0  0  0  0  1  0  0  0  0  0  0
  -26.5270  -37.4390   23.8260 N   0  0  0  0  0  0  0  0  0  0  0  0
  -26.1270  -38.3600   23.9770 H   0  0  0  0  0  0  0  0  0  0  0  0
  -26.4360  -31.7750   25.1890 C   0  0  1  0  0  0  0  0  0  0  0  0
  -25.3390  -31.5530   26.2560 C   0  0  0  0  0  1  0  0  0  0  0  0
  -27.0070  -30.3930   24.7980 C   0  0  0  0  0  1  0  0  0  0  0  0
  -27.5940  -32.5610   25.8470 C   0  0  0  0  0  1  0  0  0  0  0  0
  1 53  1  0
  1 49  1  0
  2  5  1  0
  3  2  2  0
  3  4  1  0
  4  6  2  0
  5  1  1  0
  5  9  2  0
  6  9  1  0
  6 10  1  0
  7  3  1  0
  8  4  1  0
 11 19  1  0
 12 17  1  0
 13 14  1  0
 13 12  1  0
 15 14  1  0
 15 24  1  0
 15 16  1  0
 17 11  1  0
 17 16  1  0
 18 11  2  0
 19 10  1  0
 19 20  1  0
 21 22  2  0
 22 23  1  0
 22 41  1  0
 23 26  1  0
 24 21  1  0
 24 25  1  0
 25 23  2  0
 26 27  1  0
 27 28  2  0
 29 32  1  0
 29 28  1  0
 30 29  2  0
 31 30  1  0
 31 26  2  0
 32 33  1  0
 33 34  1  0
 34 35  2  0
 36 35  1  0
 36 40  1  0
 37 36  2  0
 38 33  2  0
 38 37  1  0
 39 38  1  0
 41 42  1  0
 42 45  1  0
 42 44  1  0
 43 41  2  0
 46 47  1  0
 46 21  1  0
 48 46  1  0
 49 50  1  0
 50 51  1  0
 51 52  1  0
 53 54  1  0
 54 56  1  0
 55 54  1  0
 57 58  1  0
 57 54  1  0
 59 70  2  0
 60 58  1  0
 60 65  1  0
 61 69  1  0
 61 71  1  0
 62 68  1  0
 62 64  1  0
 63 69  1  0
 64 63  1  0
 65 64  2  0
 66 67  1  0
 66 60  2  0
 67 62  2  0
 68 61  1  0
 69 59  1  0
 71 73  2  0
 72 71  1  0
 74 72  1  0
 75 84  2  0
 75 80  1  0
 76 72  1  0
 76 80  1  0
 77 76  1  0
 78 79  1  0
 78 77  1  0
 79 75  1  0
 80 81  2  0
 81 82  1  0
 83 82  2  0
 84 83  1  0
 85 59  1  0
 85 86  1  0
 85 95  1  0
 86 89  1  0
 87 91  1  0
 87 86  1  0
 88 87  2  0
 91 90  1  0
 93 91  1  0
 93 94  1  0
 93 92  1  0
 95 98  1  1
 95 96  1  0
 97 95  1  0
M  ISO  4  11 100  19 100  57 101  58 101
M  END
>  <TORSDO>  (6) 
F 24

>  <SCORE>  (6) 
-12.818

>  <name>  (6) 
5

>  <ligand_id>  (6) 
5

>  <original_smiles>  (6) 
[H]OC([H])([H])C([H])([H])C([H])(c1nc(C([H])([H])N([H])C(=O)N2C([H])([H])C([H])([H])C([H])([H])C([H])(n3nc(-c4c([H])c([H])c(Oc5c([H])c([H])c(F)c([H])c5F)c([H])c4[H])c(C(=O)N([H])[H])c3N([H])[H])C2([H])[H])c(C([H])([H])[H])c(C([H])([H])[H])c1[H])C([H])([H])[N+]([H])([H])C([H])([H])Oc1c([H])c([H])c2c(c1[H])C([H])([H])N(C(=O)C([H])(N([H])C(=O)C([H])(N([H])C([H])([H])[H])C([H])([H])[H])C(C([H])([H])[H])(C([H])([H])[H])C([H])([H])[H])C([H])(C(=O)N([H])C1([H])c3c([H])c([H])c([H])c([H])c3C([H])([H])C([H])([H])C1([H])[H])C2([H])[H]

>  <smiles>  (6) 
[H]OC([H])([H])C([H])([H])C([H])(c1nc(C([H])([H])N([H])C(=O)N2C([H])([H])C([H])([H])C([H])([H])C([H])(n3nc(-c4c([H])c([H])c(Oc5c([H])c([H])c(F)c([H])c5F)c([H])c4[H])c(C(=O)N([H])[H])c3N([H])[H])C2([H])[H])c(C([H])([H])[H])c(C([H])([H])[H])c1[H])C([H])([H])[N+]([H])([H])C([H])([H])Oc1c([H])c([H])c2c(c1[H])C([H])([H])N(C(=O)C([H])(N([H])C(=O)C([H])(N([H])C([H])([H])[H])C([H])([H])[H])C(C([H])([H])[H])(C([H])([H])[H])C([H])([H])[H])C([H])(C(=O)N([H])C1([H])c3c([H])c([H])c([H])c([H])c3C([H])([H])C([H])([H])C1([H])[H])C2([H])[H]

$$$$
6:0:0
     RDKit          3D

 93101  0  0  1  0  0  0  0  0999 V2000
  -27.7120  -24.3110   20.7320 C   0  0  0  0  0  3  0  0  0  0  0  0
  -29.8190  -23.3740   19.2790 C   0  0  0  0  0  3  0  0  0  0  0  0
  -28.0170  -22.9100   20.7710 C   0  0  0  0  0  0  0  0  0  0  0  0
  -29.1200  -22.3870   20.0260 C   0  0  0  0  0  0  0  0  0  0  0  0
  -28.5060  -25.2180   19.9850 C   0  0  0  0  0  0  0  0  0  0  0  0
  -27.1710  -22.0140   21.6590 C   0  0  0  0  0  1  0  0  0  0  0  0
  -29.5450  -24.7140   19.2710 N   0  0  0  0  0  0  0  0  0  0  0  0
  -28.4260  -26.6350   20.0190 O   0  0  0  0  0  0  0  0  0  0  0  0
  -24.6160  -31.9100   23.2090 C   0  0  0  0  0  0  0  0  0  0  0  0
  -27.2510  -27.4020   20.0880 C   0  0  0  0  0  0  0  0  0  0  0  0
  -23.4110  -30.5140   21.5640 C   0  0  0  0  0  3  0  0  0  0  0  0
  -24.8620  -28.9750   20.1250 C   0  0  0  0  0  0  0  0  0  0  0  0
  -25.9460  -30.8540   21.3700 C   0  0  0  0  0  2  0  0  0  0  0  0
  -26.0290  -29.4790   20.7160 C   0  0  0  0  0  0  0  0  0  0  0  0
  -27.2230  -28.7020   20.6890 C   0  0  0  0  0  3  0  0  0  0  0  0
  -26.0600  -26.9470   19.4840 C   0  0  0  0  0  3  0  0  0  0  0  0
  -24.8760  -27.7140   19.5070 C   0  0  0  0  0  3  0  0  0  0  0  0
  -23.6190  -29.8420   20.1820 C   0  0  0  0  0  2  0  0  0  0  0  0
  -24.6770  -31.1130   22.1030 N   0  0  0  0  0  0  0  0  0  0  0  0
  -23.5330  -32.1740   23.7550 O   0  0  0  0  0  0  0  0  0  0  0  0
  -22.7630  -29.4910   22.5270 C   0  0  0  0  0  0  0  0  0  0  0  0
  -21.4370  -29.3060   22.4070 N   0  0  0  0  0  0  0  0  0  0  0  0
  -23.4510  -28.8630   23.3350 O   0  0  0  0  0  0  0  0  0  0  0  0
  -20.9420  -29.8640   21.7250 H   0  0  0  0  0  0  0  0  0  0  0  0
  -18.0680  -28.0880   22.9170 C   0  0  0  0  0  0  0  0  0  0  0  0
  -20.6270  -28.3560   23.1730 C   0  0  0  0  0  3  0  0  0  0  0  0
  -20.7320  -26.9320   22.5790 C   0  0  0  0  0  2  0  0  0  0  0  0
  -19.6240  -26.6150   21.5710 C   0  0  0  0  0  2  0  0  0  0  0  0
  -18.2450  -26.7480   22.2250 C   0  0  0  0  0  2  0  0  0  0  0  0
  -19.1860  -28.8520   23.3470 C   0  0  0  0  0  0  0  0  0  0  0  0
  -18.9650  -30.1080   23.9520 C   0  0  0  0  0  3  0  0  0  0  0  0
  -17.6590  -30.5990   24.1360 C   0  0  0  0  0  3  0  0  0  0  0  0
  -16.5560  -29.8320   23.7260 C   0  0  0  0  0  3  0  0  0  0  0  0
  -16.7610  -28.5790   23.1220 C   0  0  0  0  0  3  0  0  0  0  0  0
  -25.8980  -32.5480   23.8280 C   0  0  0  0  0  3  0  0  0  0  0  0
  -25.5830  -33.9450   24.1640 N   0  0  0  0  0  0  0  0  0  0  0  0
  -25.9170  -35.0040   23.4140 C   0  0  0  0  0  0  0  0  0  0  0  0
  -26.5900  -34.9090   22.3850 O   0  0  0  0  0  0  0  0  0  0  0  0
  -25.0020  -34.0950   24.9750 H   0  0  0  0  0  0  0  0  0  0  0  0
  -24.1960  -36.8000   23.0570 C   0  0  0  0  0  1  0  0  0  0  0  0
  -25.4260  -36.3880   23.8820 C   0  0  0  0  0  3  0  0  0  0  0  0
  -27.5460  -37.2650   24.7530 C   0  0  0  0  0  1  0  0  0  0  0  0
  -26.4610  -37.4410   23.7930 N   0  0  0  0  0  0  0  0  0  0  0  0
  -26.0510  -38.3590   23.9400 H   0  0  0  0  0  0  0  0  0  0  0  0
  -26.4190  -31.7800   25.1050 C   0  0  1  0  0  0  0  0  0  0  0  0
  -25.3290  -31.5420   26.1740 C   0  0  0  0  0  1  0  0  0  0  0  0
  -27.0040  -30.4040   24.7130 C   0  0  0  0  0  1  0  0  0  0  0  0
  -27.5670  -32.5790   25.7640 C   0  0  0  0  0  1  0  0  0  0  0  0
  -29.6990  -20.8890   20.0830 C   0  0  0  0  0  2  0  0  0  0  0  0
  -28.8550  -19.6670   19.7200 N   0  0  1  0  0  4  0  0  0  0  0  0
  -28.2590  -19.5230   20.5210 H   0  0  0  0  0  0  0  0  0  0  0  0
  -28.5690  -20.2260   17.2420 C   0  0  0  0  0  1  0  0  0  0  0  0
  -27.8990  -19.9710   18.6090 C   0  0  0  0  0  2  0  0  0  0  0  0
  -29.5120  -18.2840   19.4940 C   0  0  0  0  0  2  0  0  0  0  0  0
  -29.9910  -17.3620   20.7100 C   0  0  0  0  0  2  0  0  0  0  0  0
  -30.7000  -14.8070   20.3720 C   0  0  0  0  0  0  0  0  0  0  0  0
  -30.5550  -12.5370   19.3540 C   0  0  0  0  0  2  0  0  0  0  0  0
  -29.6220  -12.6190   18.1240 C   0  0  0  0  0  2  0  0  0  0  0  0
  -28.1450  -12.4550   18.5360 C   0  0  0  0  0  2  0  0  0  0  0  0
  -27.7600  -13.3420   19.7500 C   0  0  0  0  0  3  0  0  0  0  0  0
  -28.8040  -13.2210   20.8830 C   0  0  0  0  0  2  0  0  0  0  0  0
  -30.1120  -13.5700   20.3100 N   0  0  0  0  0  0  0  0  0  0  0  0
  -31.8860  -14.9760   20.0830 O   0  0  0  0  0  0  0  0  0  0  0  0
  -29.8370  -15.8590   20.5570 N   0  0  0  0  0  0  0  0  0  0  0  0
  -28.8900  -15.5370   20.6890 H   0  0  0  0  0  0  0  0  0  0  0  0
  -25.3580  -13.9500   20.4270 C   0  0  0  0  0  0  0  0  0  0  0  0
  -24.2890  -13.1810   20.7960 C   0  0  0  0  0  0  0  0  0  0  0  0
  -24.7540  -11.8300   20.7930 C   0  0  0  0  0  0  0  0  0  0  0  0
  -26.4070  -13.0670   20.2220 N   0  0  0  0  0  0  0  0  0  0  0  0
  -26.0480  -11.7880   20.5050 N   0  0  0  0  0  0  0  0  0  0  0  0
  -24.0280  -10.5680   20.9880 C   0  0  0  0  0  0  0  0  0  0  0  0
  -24.4490   -9.6150   21.9420 C   0  0  0  0  0  3  0  0  0  0  0  0
  -23.7240   -8.4180   22.1230 C   0  0  0  0  0  3  0  0  0  0  0  0
  -22.5650   -8.1660   21.3510 C   0  0  0  0  0  0  0  0  0  0  0  0
  -22.1640   -9.1080   20.3880 C   0  0  0  0  0  3  0  0  0  0  0  0
  -22.8890  -10.2960   20.2040 C   0  0  0  0  0  3  0  0  0  0  0  0
  -21.8130   -7.0210   21.4440 O   0  0  0  0  0  0  0  0  0  0  0  0
  -21.7460   -6.2940   22.6060 C   0  0  0  0  0  0  0  0  0  0  0  0
  -21.2890   -6.8610   23.8150 C   0  0  0  0  0  3  0  0  0  0  0  0
  -21.1700   -6.0590   24.9670 C   0  0  0  0  0  3  0  0  0  0  0  0
  -21.5010   -4.6910   24.9120 C   0  0  0  0  0  0  0  0  0  0  0  0
  -21.9510   -4.1240   23.7070 C   0  0  0  0  0  3  0  0  0  0  0  0
  -22.0680   -4.9220   22.5570 C   0  0  0  0  0  0  0  0  0  0  0  0
  -22.4830   -4.3660   21.3930 F   0  0  0  0  0  0  0  0  0  0  0  0
  -21.3780   -3.9180   26.0170 F   0  0  0  0  0  0  0  0  0  0  0  0
  -22.8850  -13.6560   21.0370 C   0  0  0  0  0  0  0  0  0  0  0  0
  -22.1450  -12.9730   21.9010 N   0  0  0  0  0  0  0  0  0  0  0  0
  -22.4530  -14.6730   20.4930 O   0  0  0  0  0  0  0  0  0  0  0  0
  -22.5070  -12.1490   22.3580 H   0  0  0  0  0  0  0  0  0  0  0  0
  -21.2010  -13.2720   22.1040 H   0  0  0  0  0  0  0  0  0  0  0  0
  -25.5250  -15.3170   20.2280 N   0  0  0  0  0  0  0  0  0  0  0  0
  -24.7530  -15.9700   20.3080 H   0  0  0  0  0  0  0  0  0  0  0  0
  -26.3570  -15.7400   19.8420 H   0  0  0  0  0  0  0  0  0  0  0  0
  1  3  2  0
  2  4  2  0
  3  6  1  0
  4 49  1  0
  4  3  1  0
  5  8  1  0
  5  1  1  0
  7  2  1  0
  7  5  2  0
  8 10  1  0
  9 20  2  0
 10 15  1  0
 11 19  1  0
 11 21  1  0
 12 18  1  0
 12 14  1  0
 13 19  1  0
 14 13  1  0
 15 14  2  0
 16 17  1  0
 16 10  2  0
 17 12  2  0
 18 11  1  0
 19  9  1  0
 21 23  2  0
 22 21  1  0
 24 22  1  0
 25 34  2  0
 25 30  1  0
 26 22  1  0
 26 30  1  0
 27 26  1  0
 28 29  1  0
 28 27  1  0
 29 25  1  0
 30 31  2  0
 31 32  1  0
 33 32  2  0
 34 33  1  0
 35  9  1  0
 35 36  1  0
 35 45  1  0
 36 39  1  0
 37 41  1  0
 37 36  1  0
 38 37  2  0
 41 40  1  0
 43 41  1  0
 43 44  1  0
 43 42  1  0
 45 48  1  1
 45 46  1  0
 47 45  1  0
 50 49  1  0
 50 51  1  1
 52 53  1  0
 53 50  1  0
 54 50  1  0
 54 55  1  0
 56 64  1  0
 57 62  1  0
 58 59  1  0
 58 57  1  0
 60 59  1  0
 60 69  1  0
 60 61  1  0
 62 56  1  0
 62 61  1  0
 63 56  2  0
 64 65  1  0
 64 55  1  0
 66 67  2  0
 67 86  1  0
 68 67  1  0
 68 71  1  0
 69 66  1  0
 69 70  1  0
 70 68  2  0
 71 72  1  0
 72 73  2  0
 74 77  1  0
 74 73  1  0
 75 74  2  0
 76 75  1  0
 76 71  2  0
 77 78  1  0
 78 79  1  0
 79 80  2  0
 81 80  1  0
 81 85  1  0
 82 81  2  0
 83 78  2  0
 83 82  1  0
 84 83  1  0
 86 87  1  0
 87 90  1  0
 87 89  1  0
 88 86  2  0
 91 92  1  0
 91 66  1  0
 93 91  1  0
M  ISO  4   5 101   8 101  56 100  64 100
M  END
>  <TORSDO>  (7) 
F 21

>  <SCORE>  (7) 
-13.049

>  <name>  (7) 
6

>  <ligand_id>  (7) 
6

>  <original_smiles>  (7) 
[H]c1nc(Oc2c([H])c([H])c3c(c2[H])C([H])([H])N(C(=O)C([H])(N([H])C(=O)C([H])(N([H])C([H])([H])[H])C([H])([H])[H])C(C([H])([H])[H])(C([H])([H])[H])C([H])([H])[H])C([H])(C(=O)N([H])C2([H])c4c([H])c([H])c([H])c([H])c4C([H])([H])C([H])([H])C2([H])[H])C3([H])[H])c([H])c(C([H])([H])[H])c1C([H])([H])[N+]([H])(C([H])([H])C([H])([H])[H])C([H])([H])C([H])([H])N([H])C(=O)N1C([H])([H])C([H])([H])C([H])([H])C([H])(n2nc(-c3c([H])c([H])c(Oc4c([H])c([H])c(F)c([H])c4F)c([H])c3[H])c(C(=O)N([H])[H])c2N([H])[H])C1([H])[H]

>  <smiles>  (7) 
[H]c1nc(Oc2c([H])c([H])c3c(c2[H])C([H])([H])N(C(=O)C([H])(N([H])C(=O)C([H])(N([H])C([H])([H])[H])C([H])([H])[H])C(C([H])([H])[H])(C([H])([H])[H])C([H])([H])[H])C([H])(C(=O)N([H])C2([H])c4c([H])c([H])c([H])c([H])c4C([H])([H])C([H])([H])C2([H])[H])C3([H])[H])c([H])c(C([H])([H])[H])c1C([H])([H])[N+]([H])(C([H])([H])C([H])([H])[H])C([H])([H])C([H])([H])N([H])C(=O)N1C([H])([H])C([H])([H])C([H])([H])C([H])(n2nc(-c3c([H])c([H])c(Oc4c([H])c([H])c(F)c([H])c4F)c([H])c3[H])c(C(=O)N([H])[H])c2N([H])[H])C1([H])[H]

$$$$
7:0:0
     RDKit          3D

 93102  0  0  1  0  0  0  0  0999 V2000
  -28.6570  -21.1730   21.4310 C   0  0  0  0  0  2  0  0  0  0  0  0
  -28.2830  -22.5790   20.9620 C   0  0  0  0  0  2  0  0  0  0  0  0
  -30.5800  -22.5000   20.8670 C   0  0  0  0  0  2  0  0  0  0  0  0
  -30.1970  -21.1010   21.4140 C   0  0  0  0  0  3  0  0  0  0  0  0
  -29.4700  -23.3810   21.2330 N   0  0  0  0  0  0  0  0  0  0  0  0
  -32.2090  -20.0440   20.4060 C   0  0  0  0  0  1  0  0  0  0  0  0
  -30.7370  -19.9620   20.6030 N   0  0  1  0  0  4  0  0  0  0  0  0
  -30.3490  -20.1120   19.6840 H   0  0  0  0  0  0  0  0  0  0  0  0
  -30.7230  -14.5730   20.3430 C   0  0  0  0  0  0  0  0  0  0  0  0
  -30.3770  -12.4370   19.1530 C   0  0  0  0  0  2  0  0  0  0  0  0
  -29.4150  -12.6430   17.9650 C   0  0  0  0  0  2  0  0  0  0  0  0
  -27.9490  -12.4770   18.4170 C   0  0  0  0  0  2  0  0  0  0  0  0
  -27.6190  -13.3030   19.6880 C   0  0  0  0  0  3  0  0  0  0  0  0
  -28.7000  -13.1120   20.7790 C   0  0  0  0  0  2  0  0  0  0  0  0
  -30.0150  -13.4160   20.1880 N   0  0  0  0  0  0  0  0  0  0  0  0
  -31.8600  -14.7280   19.8940 O   0  0  0  0  0  0  0  0  0  0  0  0
  -31.2380  -17.6880   21.7600 C   0  0  0  0  0  2  0  0  0  0  0  0
  -29.7450  -17.8290   19.7630 C   0  0  0  0  0  2  0  0  0  0  0  0
  -30.6160  -16.3110   22.1020 C   0  0  0  0  0  2  0  0  0  0  0  0
  -29.1580  -16.4480   20.1240 C   0  0  0  0  0  2  0  0  0  0  0  0
  -30.2380  -18.5970   20.9990 C   0  0  0  0  0  3  0  0  0  0  0  0
  -30.0710  -15.6120   20.9240 N   0  0  0  0  0  0  0  0  0  0  0  0
  -25.2320  -13.9060   20.4300 C   0  0  0  0  0  0  0  0  0  0  0  0
  -24.1720  -13.1300   20.8110 C   0  0  0  0  0  0  0  0  0  0  0  0
  -24.6410  -11.7820   20.7780 C   0  0  0  0  0  0  0  0  0  0  0  0
  -26.2780  -13.0260   20.1890 N   0  0  0  0  0  0  0  0  0  0  0  0
  -25.9270  -11.7450   20.4570 N   0  0  0  0  0  0  0  0  0  0  0  0
  -23.9240  -10.5170   20.9760 C   0  0  0  0  0  0  0  0  0  0  0  0
  -24.3700   -9.5570   21.9130 C   0  0  0  0  0  3  0  0  0  0  0  0
  -23.6570   -8.3540   22.0980 C   0  0  0  0  0  3  0  0  0  0  0  0
  -22.4840   -8.1020   21.3470 C   0  0  0  0  0  0  0  0  0  0  0  0
  -22.0580   -9.0500   20.4000 C   0  0  0  0  0  3  0  0  0  0  0  0
  -22.7720  -10.2450   20.2120 C   0  0  0  0  0  3  0  0  0  0  0  0
  -21.7390   -6.9520   21.4430 O   0  0  0  0  0  0  0  0  0  0  0  0
  -21.7010   -6.2140   22.5990 C   0  0  0  0  0  0  0  0  0  0  0  0
  -21.2590   -6.7650   23.8210 C   0  0  0  0  0  3  0  0  0  0  0  0
  -21.1710   -5.9520   24.9680 C   0  0  0  0  0  3  0  0  0  0  0  0
  -21.5130   -4.5890   24.8950 C   0  0  0  0  0  0  0  0  0  0  0  0
  -21.9460   -4.0370   23.6770 C   0  0  0  0  0  3  0  0  0  0  0  0
  -22.0380   -4.8470   22.5310 C   0  0  0  0  0  0  0  0  0  0  0  0
  -22.4370   -4.3050   21.3550 F   0  0  0  0  0  0  0  0  0  0  0  0
  -21.4200   -3.8060   25.9950 F   0  0  0  0  0  0  0  0  0  0  0  0
  -22.7740  -13.6020   21.0940 C   0  0  0  0  0  0  0  0  0  0  0  0
  -22.0550  -12.9000   21.9630 N   0  0  0  0  0  0  0  0  0  0  0  0
  -22.3270  -14.6250   20.5780 O   0  0  0  0  0  0  0  0  0  0  0  0
  -22.4310  -12.0740   22.4050 H   0  0  0  0  0  0  0  0  0  0  0  0
  -21.1160  -13.1950   22.1910 H   0  0  0  0  0  0  0  0  0  0  0  0
  -25.3850  -15.2780   20.2460 N   0  0  0  0  0  0  0  0  0  0  0  0
  -24.6120  -15.9240   20.3650 H   0  0  0  0  0  0  0  0  0  0  0  0
  -26.2270  -15.7240   19.9090 H   0  0  0  0  0  0  0  0  0  0  0  0
  -29.4830  -24.6420   20.4760 C   0  0  0  0  0  2  0  0  0  0  0  0
  -28.3700  -25.6110   20.9280 C   0  0  0  0  0  2  0  0  0  0  0  0
  -28.4180  -26.8260   20.1760 O   0  0  0  0  0  0  0  0  0  0  0  0
  -24.5630  -31.9360   23.2700 C   0  0  0  0  0  0  0  0  0  0  0  0
  -27.2430  -27.5370   20.1870 C   0  0  0  0  0  0  0  0  0  0  0  0
  -23.3620  -30.5210   21.6330 C   0  0  0  0  0  3  0  0  0  0  0  0
  -24.8270  -28.9970   20.2040 C   0  0  0  0  0  0  0  0  0  0  0  0
  -25.8810  -30.9120   21.4210 C   0  0  0  0  0  2  0  0  0  0  0  0
  -25.9800  -29.5420   20.7850 C   0  0  0  0  0  0  0  0  0  0  0  0
  -27.1920  -28.8200   20.7710 C   0  0  0  0  0  3  0  0  0  0  0  0
  -26.0780  -27.0000   19.5980 C   0  0  0  0  0  3  0  0  0  0  0  0
  -24.8690  -27.7240   19.6080 C   0  0  0  0  0  3  0  0  0  0  0  0
  -23.5730  -29.8400   20.2530 C   0  0  0  0  0  2  0  0  0  0  0  0
  -24.6210  -31.1390   22.1660 N   0  0  0  0  0  0  0  0  0  0  0  0
  -23.4830  -32.1970   23.8160 O   0  0  0  0  0  0  0  0  0  0  0  0
  -22.7260  -29.4950   22.5970 C   0  0  0  0  0  0  0  0  0  0  0  0
  -21.4040  -29.2960   22.4710 N   0  0  0  0  0  0  0  0  0  0  0  0
  -23.4190  -28.8800   23.4120 O   0  0  0  0  0  0  0  0  0  0  0  0
  -20.9080  -29.8450   21.7830 H   0  0  0  0  0  0  0  0  0  0  0  0
  -18.0430  -28.0680   22.9700 C   0  0  0  0  0  0  0  0  0  0  0  0
  -20.5990  -28.3510   23.2430 C   0  0  0  0  0  3  0  0  0  0  0  0
  -20.7150  -26.9200   22.6690 C   0  0  0  0  0  2  0  0  0  0  0  0
  -19.6180  -26.5850   21.6550 C   0  0  0  0  0  2  0  0  0  0  0  0
  -18.2340  -26.7180   22.2980 C   0  0  0  0  0  2  0  0  0  0  0  0
  -19.1540  -28.8420   23.4000 C   0  0  0  0  0  0  0  0  0  0  0  0
  -18.9230  -30.1050   23.9850 C   0  0  0  0  0  3  0  0  0  0  0  0
  -17.6140  -30.5940   24.1470 C   0  0  0  0  0  3  0  0  0  0  0  0
  -16.5170  -29.8180   23.7350 C   0  0  0  0  0  3  0  0  0  0  0  0
  -16.7330  -28.5560   23.1530 C   0  0  0  0  0  3  0  0  0  0  0  0
  -25.8470  -32.5770   23.8830 C   0  0  0  0  0  3  0  0  0  0  0  0
  -26.3690  -31.8210   25.1670 C   0  0  1  0  0  0  0  0  0  0  0  0
  -25.2770  -31.5910   26.2380 C   0  0  0  0  0  1  0  0  0  0  0  0
  -26.9570  -30.4430   24.7850 C   0  0  0  0  0  1  0  0  0  0  0  0
  -27.5180  -32.6270   25.8190 C   0  0  0  0  0  1  0  0  0  0  0  0
  -25.5360  -33.9780   24.1950 N   0  0  0  0  0  0  0  0  0  0  0  0
  -25.8800  -35.0230   23.4280 C   0  0  0  0  0  0  0  0  0  0  0  0
  -26.5660  -34.9080   22.4090 O   0  0  0  0  0  0  0  0  0  0  0  0
  -24.9300  -34.1410   24.9860 H   0  0  0  0  0  0  0  0  0  0  0  0
  -24.1710  -36.8190   23.0120 C   0  0  0  0  0  1  0  0  0  0  0  0
  -25.3860  -36.4150   23.8630 C   0  0  0  0  0  3  0  0  0  0  0  0
  -27.5000  -37.2940   24.7500 C   0  0  0  0  0  1  0  0  0  0  0  0
  -26.4260  -37.4620   23.7750 N   0  0  0  0  0  0  0  0  0  0  0  0
  -26.0210  -38.3850   23.9060 H   0  0  0  0  0  0  0  0  0  0  0  0
  2  5  1  0
  2  1  1  0
  3  5  1  0
  3  4  1  0
  4  7  1  0
  4  1  1  0
  6  7  1  0
  7  8  1  6
  9 22  1  0
 10 15  1  0
 11 12  1  0
 11 10  1  0
 13 12  1  0
 13 26  1  0
 13 14  1  0
 15  9  1  0
 15 14  1  0
 16  9  2  0
 17 19  1  0
 18 20  1  0
 18 21  1  0
 20 22  1  0
 21  7  1  0
 21 17  1  0
 22 19  1  0
 23 24  2  0
 24 43  1  0
 25 24  1  0
 25 28  1  0
 26 23  1  0
 26 27  1  0
 27 25  2  0
 28 29  1  0
 29 30  2  0
 31 34  1  0
 31 30  1  0
 32 31  2  0
 33 32  1  0
 33 28  2  0
 34 35  1  0
 35 36  1  0
 36 37  2  0
 38 37  1  0
 38 42  1  0
 39 38  2  0
 40 35  2  0
 40 39  1  0
 41 40  1  0
 43 44  1  0
 44 47  1  0
 44 46  1  0
 45 43  2  0
 48 49  1  0
 48 23  1  0
 50 48  1  0
 51 52  1  0
 51  5  1  0
 53 55  1  0
 53 52  1  0
 54 65  2  0
 55 60  1  0
 56 64  1  0
 56 66  1  0
 57 63  1  0
 57 59  1  0
 58 64  1  0
 59 58  1  0
 60 59  2  0
 61 62  1  0
 61 55  2  0
 62 57  2  0
 63 56  1  0
 64 54  1  0
 66 68  2  0
 67 66  1  0
 69 67  1  0
 70 79  2  0
 70 75  1  0
 71 67  1  0
 71 75  1  0
 72 71  1  0
 73 74  1  0
 73 72  1  0
 74 70  1  0
 75 76  2  0
 76 77  1  0
 78 77  2  0
 79 78  1  0
 80 54  1  0
 80 85  1  0
 80 81  1  0
 81 84  1  1
 81 82  1  0
 83 81  1  0
 85 88  1  0
 86 90  1  0
 86 85  1  0
 87 86  2  0
 90 89  1  0
 92 90  1  0
 92 93  1  0
 92 91  1  0
M  ISO  4   9 100  22 100  52 101  53 101
M  END
>  <TORSDO>  (8) 
F 19

>  <SCORE>  (8) 
-14.562

>  <name>  (8) 
7

>  <ligand_id>  (8) 
7

>  <original_smiles>  (8) 
[H]c1c([H])c([H])c2c(c1[H])C([H])([H])C([H])([H])C([H])([H])C2([H])N([H])C(=O)C1([H])N(C(=O)C([H])(N([H])C(=O)C([H])(N([H])C([H])([H])[H])C([H])([H])[H])C(C([H])([H])[H])(C([H])([H])[H])C([H])([H])[H])C([H])([H])c2c([H])c(OC([H])([H])C([H])([H])N3C([H])([H])C([H])([H])C([H])([N+]([H])(C([H])([H])[H])C4([H])C([H])([H])C([H])([H])N(C(=O)N5C([H])([H])C([H])([H])C([H])([H])C([H])(n6nc(-c7c([H])c([H])c(Oc8c([H])c([H])c(F)c([H])c8F)c([H])c7[H])c(C(=O)N([H])[H])c6N([H])[H])C5([H])[H])C([H])([H])C4([H])[H])C3([H])[H])c([H])c([H])c2C1([H])[H]

>  <smiles>  (8) 
[H]c1c([H])c([H])c2c(c1[H])C([H])([H])C([H])([H])C([H])([H])C2([H])N([H])C(=O)C1([H])N(C(=O)C([H])(N([H])C(=O)C([H])(N([H])C([H])([H])[H])C([H])([H])[H])C(C([H])([H])[H])(C([H])([H])[H])C([H])([H])[H])C([H])([H])c2c([H])c(OC([H])([H])C([H])([H])N3C([H])([H])C([H])([H])C([H])([N+]([H])(C([H])([H])[H])C4([H])C([H])([H])C([H])([H])N(C(=O)N5C([H])([H])C([H])([H])C([H])([H])C([H])(n6nc(-c7c([H])c([H])c(Oc8c([H])c([H])c(F)c([H])c8F)c([H])c7[H])c(C(=O)N([H])[H])c6N([H])[H])C5([H])[H])C([H])([H])C4([H])[H])C3([H])[H])c([H])c([H])c2C1([H])[H]

$$$$
8:0:0
     RDKit          3D

 99108  0  0  1  0  0  0  0  0999 V2000
  -28.8700  -21.4380   19.8630 C   0  0  0  0  0  3  0  0  0  0  0  0
  -30.4410  -22.6390   21.3770 C   0  0  0  0  0  2  0  0  0  0  0  0
  -30.0950  -23.1440   22.7950 C   0  0  0  0  0  2  0  0  0  0  0  0
  -28.1480  -24.3660   21.9590 C   0  0  0  0  0  2  0  0  0  0  0  0
  -28.4340  -23.9680   20.4920 C   0  0  0  0  0  3  0  0  0  0  0  0
  -29.2630  -22.6460   20.4720 N   0  0  0  0  0  0  0  0  0  0  0  0
  -27.9240  -21.5040   18.8940 N   0  0  0  0  0  0  0  0  0  0  0  0
  -29.3780  -24.4300   22.7680 N   0  0  0  0  0  4  0  0  0  0  0  0
  -27.2820  -20.7290   18.7950 H   0  0  0  0  0  0  0  0  0  0  0  0
  -29.9990  -25.1620   22.4600 H   0  0  0  0  0  0  0  0  0  0  0  0
  -29.1030  -24.6710   23.7060 H   0  0  0  0  0  0  0  0  0  0  0  0
  -30.6970  -14.6900   20.0320 C   0  0  0  0  0  0  0  0  0  0  0  0
  -30.4020  -12.4910   18.9170 C   0  0  0  0  0  2  0  0  0  0  0  0
  -29.3750  -12.6560   17.7710 C   0  0  0  0  0  2  0  0  0  0  0  0
  -27.9350  -12.4860   18.2890 C   0  0  0  0  0  2  0  0  0  0  0  0
  -27.6680  -13.3060   19.5790 C   0  0  0  0  0  3  0  0  0  0  0  0
  -28.7960  -13.1140   20.6180 C   0  0  0  0  0  2  0  0  0  0  0  0
  -30.0700  -13.4690   19.9730 N   0  0  0  0  0  0  0  0  0  0  0  0
  -31.7970  -14.8580   19.4990 O   0  0  0  0  0  0  0  0  0  0  0  0
  -29.6030  -19.4030   21.4010 C   0  0  0  0  0  3  0  0  0  0  0  0
  -29.8970  -18.0130   21.5280 C   0  0  0  0  0  3  0  0  0  0  0  0
  -29.5290  -19.0650   19.0630 C   0  0  0  0  0  3  0  0  0  0  0  0
  -29.3710  -20.0000   20.1300 C   0  0  0  0  0  0  0  0  0  0  0  0
  -29.9550  -17.1460   20.4100 C   0  0  0  0  0  0  0  0  0  0  0  0
  -29.7760  -17.7200   19.1900 N   0  0  0  0  0  0  0  0  0  0  0  0
  -30.0240  -15.7070   20.6610 N   0  0  0  0  0  0  0  0  0  0  0  0
  -29.3060  -15.3680   21.2830 H   0  0  0  0  0  0  0  0  0  0  0  0
  -25.3300  -13.8860   20.4710 C   0  0  0  0  0  0  0  0  0  0  0  0
  -24.2810  -13.0980   20.8800 C   0  0  0  0  0  0  0  0  0  0  0  0
  -24.7350  -11.7510   20.7720 C   0  0  0  0  0  0  0  0  0  0  0  0
  -26.3500  -13.0090   20.1410 N   0  0  0  0  0  0  0  0  0  0  0  0
  -26.0020  -11.7190   20.3800 N   0  0  0  0  0  0  0  0  0  0  0  0
  -24.0120  -10.4840   20.9630 C   0  0  0  0  0  0  0  0  0  0  0  0
  -24.4560   -9.5150   21.8890 C   0  0  0  0  0  3  0  0  0  0  0  0
  -23.7350   -8.3120   22.0700 C   0  0  0  0  0  3  0  0  0  0  0  0
  -22.5580   -8.0740   21.3210 C   0  0  0  0  0  0  0  0  0  0  0  0
  -22.1340   -9.0320   20.3850 C   0  0  0  0  0  3  0  0  0  0  0  0
  -22.8550  -10.2240   20.2030 C   0  0  0  0  0  3  0  0  0  0  0  0
  -21.8070   -6.9260   21.4130 O   0  0  0  0  0  0  0  0  0  0  0  0
  -21.7120   -6.2190   22.5860 C   0  0  0  0  0  0  0  0  0  0  0  0
  -21.2060   -6.7980   23.7680 C   0  0  0  0  0  3  0  0  0  0  0  0
  -21.0630   -6.0160   24.9310 C   0  0  0  0  0  3  0  0  0  0  0  0
  -21.4170   -4.6530   24.9090 C   0  0  0  0  0  0  0  0  0  0  0  0
  -21.9160   -4.0710   23.7300 C   0  0  0  0  0  3  0  0  0  0  0  0
  -22.0590   -4.8520   22.5700 C   0  0  0  0  0  0  0  0  0  0  0  0
  -22.5220   -4.2830   21.4310 F   0  0  0  0  0  0  0  0  0  0  0  0
  -21.2710   -3.8970   26.0230 F   0  0  0  0  0  0  0  0  0  0  0  0
  -22.9110  -13.5770   21.2580 C   0  0  0  0  0  0  0  0  0  0  0  0
  -22.2360  -12.8520   22.1480 N   0  0  0  0  0  0  0  0  0  0  0  0
  -22.4450  -14.6170   20.8040 O   0  0  0  0  0  0  0  0  0  0  0  0
  -22.6270  -12.0060   22.5330 H   0  0  0  0  0  0  0  0  0  0  0  0
  -21.3170  -13.1500   22.4440 H   0  0  0  0  0  0  0  0  0  0  0  0
  -25.4940  -15.2560   20.3350 N   0  0  0  0  0  0  0  0  0  0  0  0
  -24.7560  -15.9190   20.5380 H   0  0  0  0  0  0  0  0  0  0  0  0
  -26.3330  -15.6940   19.9700 H   0  0  0  0  0  0  0  0  0  0  0  0
  -26.7450  -23.1250   17.3980 C   0  0  0  0  0  1  0  0  0  0  0  0
  -28.0180  -22.3330   17.6760 C   0  0  0  0  0  2  0  0  0  0  0  0
  -28.8960  -25.2940   19.7040 C   0  0  0  0  0  2  0  0  0  0  0  0
  -28.5730  -26.6320   20.2650 O   0  0  0  0  0  0  0  0  0  0  0  0
  -24.6540  -31.9040   23.2230 C   0  0  0  0  0  0  0  0  0  0  0  0
  -27.3600  -27.3360   20.2170 C   0  0  0  0  0  0  0  0  0  0  0  0
  -23.4870  -30.4640   21.5920 C   0  0  0  0  0  3  0  0  0  0  0  0
  -24.9500  -28.8820   20.1980 C   0  0  0  0  0  0  0  0  0  0  0  0
  -26.0170  -30.7830   21.4290 C   0  0  0  0  0  2  0  0  0  0  0  0
  -26.1010  -29.3950   20.8120 C   0  0  0  0  0  0  0  0  0  0  0  0
  -27.2960  -28.6290   20.8170 C   0  0  0  0  0  3  0  0  0  0  0  0
  -26.1800  -26.8340   19.6240 C   0  0  0  0  0  3  0  0  0  0  0  0
  -24.9950  -27.6070   19.5860 C   0  0  0  0  0  3  0  0  0  0  0  0
  -23.7130  -29.7600   20.2190 C   0  0  0  0  0  2  0  0  0  0  0  0
  -24.7410  -31.0710   22.1410 N   0  0  0  0  0  0  0  0  0  0  0  0
  -23.5620  -32.1790   23.7400 O   0  0  0  0  0  0  0  0  0  0  0  0
  -22.8060  -29.4730   22.5630 C   0  0  0  0  0  0  0  0  0  0  0  0
  -21.4770  -29.3150   22.4360 N   0  0  0  0  0  0  0  0  0  0  0  0
  -23.4740  -28.8430   23.3870 O   0  0  0  0  0  0  0  0  0  0  0  0
  -21.0000  -29.8680   21.7370 H   0  0  0  0  0  0  0  0  0  0  0  0
  -18.0850  -28.1580   22.9470 C   0  0  0  0  0  0  0  0  0  0  0  0
  -20.6480  -28.3880   23.2080 C   0  0  0  0  0  3  0  0  0  0  0  0
  -20.7330  -26.9570   22.6290 C   0  0  0  0  0  2  0  0  0  0  0  0
  -19.6220  -26.6450   21.6200 C   0  0  0  0  0  2  0  0  0  0  0  0
  -18.2440  -26.8100   22.2640 C   0  0  0  0  0  2  0  0  0  0  0  0
  -19.2140  -28.9070   23.3730 C   0  0  0  0  0  0  0  0  0  0  0  0
  -19.0100  -30.1730   23.9660 C   0  0  0  0  0  3  0  0  0  0  0  0
  -17.7130  -30.6880   24.1440 C   0  0  0  0  0  3  0  0  0  0  0  0
  -16.5990  -29.9360   23.7340 C   0  0  0  0  0  3  0  0  0  0  0  0
  -16.7860  -28.6760   23.1380 C   0  0  0  0  0  3  0  0  0  0  0  0
  -25.9190  -32.5650   23.8510 C   0  0  0  0  0  3  0  0  0  0  0  0
  -25.5870  -33.9640   24.1700 N   0  0  0  0  0  0  0  0  0  0  0  0
  -25.9130  -35.0250   23.4190 C   0  0  0  0  0  0  0  0  0  0  0  0
  -26.5940  -34.9290   22.3940 O   0  0  0  0  0  0  0  0  0  0  0  0
  -25.0020  -34.1080   24.9810 H   0  0  0  0  0  0  0  0  0  0  0  0
  -24.1770  -36.8100   23.0420 C   0  0  0  0  0  1  0  0  0  0  0  0
  -25.4090  -36.4120   23.8700 C   0  0  0  0  0  3  0  0  0  0  0  0
  -27.5260  -37.3170   24.7290 C   0  0  0  0  0  1  0  0  0  0  0  0
  -26.4330  -37.4750   23.7730 N   0  0  0  0  0  0  0  0  0  0  0  0
  -26.0180  -38.3920   23.9150 H   0  0  0  0  0  0  0  0  0  0  0  0
  -26.4220  -31.8170   25.1490 C   0  0  1  0  0  0  0  0  0  0  0  0
  -25.3210  -31.5810   26.2120 C   0  0  0  0  0  1  0  0  0  0  0  0
  -27.0170  -30.4430   24.7740 C   0  0  0  0  0  1  0  0  0  0  0  0
  -27.5520  -32.6300   25.8250 C   0  0  0  0  0  1  0  0  0  0  0  0
  1  7  1  0
  1 23  1  0
  1  6  1  0
  2  3  1  0
  4  8  1  0
  5 58  1  0
  5  4  1  0
  6  5  1  0
  6  2  1  0
  8  3  1  0
  8 11  1  0
  9  7  1  0
 10  8  1  0
 12 26  1  0
 13 18  1  0
 14 15  1  0
 14 13  1  0
 16 15  1  0
 16 31  1  0
 16 17  1  0
 18 12  1  0
 18 17  1  0
 19 12  2  0
 20 21  1  0
 22 25  2  0
 22 23  1  0
 23 20  2  0
 24 26  1  0
 24 21  2  0
 25 24  1  0
 26 27  1  0
 28 29  2  0
 29 48  1  0
 30 29  1  0
 30 33  1  0
 31 32  1  0
 31 28  1  0
 32 30  2  0
 33 34  1  0
 34 35  2  0
 36 39  1  0
 36 35  1  0
 37 36  2  0
 38 37  1  0
 38 33  2  0
 39 40  1  0
 40 41  1  0
 41 42  2  0
 43 42  1  0
 43 47  1  0
 44 43  2  0
 45 40  2  0
 45 44  1  0
 46 45  1  0
 48 49  1  0
 49 52  1  0
 49 51  1  0
 50 48  2  0
 53 28  1  0
 53 54  1  0
 55 53  1  0
 56 57  1  0
 57  7  1  0
 58 59  1  0
 60 71  2  0
 61 59  1  0
 61 66  1  0
 62 70  1  0
 62 72  1  0
 63 69  1  0
 63 65  1  0
 64 70  1  0
 65 66  2  0
 65 64  1  0
 67 61  2  0
 68 67  1  0
 68 63  2  0
 69 62  1  0
 70 60  1  0
 72 74  2  0
 73 72  1  0
 75 73  1  0
 76 85  2  0
 76 81  1  0
 77 73  1  0
 77 81  1  0
 78 77  1  0
 79 80  1  0
 79 78  1  0
 80 76  1  0
 81 82  2  0
 82 83  1  0
 84 83  2  0
 85 84  1  0
 86 60  1  0
 86 87  1  0
 86 96  1  0
 87 90  1  0
 88 92  1  0
 88 87  1  0
 89 88  2  0
 92 91  1  0
 94 92  1  0
 94 95  1  0
 94 93  1  0
 96 99  1  1
 96 97  1  0
 98 96  1  0
M  ISO  4  12 100  26 100  58 101  59 101
M  END
>  <TORSDO>  (9) 
F 18

>  <SCORE>  (9) 
-14.218

>  <name>  (9) 
8

>  <ligand_id>  (9) 
8

>  <original_smiles>  (9) 
[H]c1nc(N([H])C(=O)N2C([H])([H])C([H])([H])C([H])([H])C([H])(n3nc(-c4c([H])c([H])c(Oc5c([H])c([H])c(F)c([H])c5F)c([H])c4[H])c(C(=O)N([H])[H])c3N([H])[H])C2([H])[H])c([H])c([H])c1C(N1C([H])([H])C([H])([H])[N+]([H])([H])C([H])([H])C1([H])C([H])([H])Oc1c([H])c([H])c2c(c1[H])C([H])([H])N(C(=O)C([H])(N([H])C(=O)C([H])(N([H])C([H])([H])[H])C([H])([H])[H])C(C([H])([H])[H])(C([H])([H])[H])C([H])([H])[H])C([H])(C(=O)N([H])C1([H])c3c([H])c([H])c([H])c([H])c3C([H])([H])C([H])([H])C1([H])[H])C2([H])[H])=[N+]([H])C([H])([H])C([H])([H])[H]

>  <smiles>  (9) 
[H]c1nc(N([H])C(=O)N2C([H])([H])C([H])([H])C([H])([H])C([H])(n3nc(-c4c([H])c([H])c(Oc5c([H])c([H])c(F)c([H])c5F)c([H])c4[H])c(C(=O)N([H])[H])c3N([H])[H])C2([H])[H])c([H])c([H])c1C(N1C([H])([H])C([H])([H])[N+]([H])([H])C([H])([H])C1([H])C([H])([H])Oc1c([H])c([H])c2c(c1[H])C([H])([H])N(C(=O)C([H])(N([H])C(=O)C([H])(N([H])C([H])([H])[H])C([H])([H])[H])C(C([H])([H])[H])(C([H])([H])[H])C([H])([H])[H])C([H])(C(=O)N([H])C1([H])c3c([H])c([H])c([H])c([H])c3C([H])([H])C([H])([H])C1([H])[H])C2([H])[H])=[N+]([H])C([H])([H])C([H])([H])[H]

$$$$
9:0:0
     RDKit          3D

 89 97  0  0  1  0  0  0  0  0999 V2000
  -27.9290  -20.9470   19.7650 C   0  0  0  0  0  3  0  0  0  0  0  0
  -28.2230  -19.5240   19.7800 C   0  0  0  0  0  3  0  0  0  0  0  0
  -28.9160  -21.6940   20.3680 C   0  0  0  0  0  0  0  0  0  0  0  0
  -29.4240  -19.2460   20.3860 C   0  0  0  0  0  0  0  0  0  0  0  0
  -31.0760  -20.8540   21.4600 C   0  0  0  0  0  1  0  0  0  0  0  0
  -29.8290  -20.6100   20.7530 N   0  0  0  0  0  0  0  0  0  0  0  0
  -29.0470  -23.3370   20.6600 C   0  0  0  0  0  2  0  0  0  0  0  0
  -28.4280  -24.6000   18.4750 C   0  0  0  0  0  1  0  0  0  0  0  0
  -28.1820  -24.6560   19.9920 C   0  0  0  0  0  3  0  0  0  0  0  0
  -28.3120  -26.1900   20.3610 O   0  0  0  0  0  0  0  0  0  0  0  0
  -24.6150  -31.9150   23.2560 C   0  0  0  0  0  0  0  0  0  0  0  0
  -27.2480  -27.1800   20.2600 C   0  0  0  0  0  0  0  0  0  0  0  0
  -23.4390  -30.5140   21.6040 C   0  0  0  0  0  3  0  0  0  0  0  0
  -24.9100  -28.9390   20.1970 C   0  0  0  0  0  0  0  0  0  0  0  0
  -25.9970  -30.7800   21.4690 C   0  0  0  0  0  2  0  0  0  0  0  0
  -26.0830  -29.3850   20.8190 C   0  0  0  0  0  0  0  0  0  0  0  0
  -27.2500  -28.5240   20.8290 C   0  0  0  0  0  3  0  0  0  0  0  0
  -26.0400  -26.8410   19.6100 C   0  0  0  0  0  3  0  0  0  0  0  0
  -24.9030  -27.6800   19.5770 C   0  0  0  0  0  3  0  0  0  0  0  0
  -23.6810  -29.8360   20.2290 C   0  0  0  0  0  2  0  0  0  0  0  0
  -24.7030  -31.0930   22.1640 N   0  0  0  0  0  0  0  0  0  0  0  0
  -23.5220  -32.1960   23.7720 O   0  0  0  0  0  0  0  0  0  0  0  0
  -22.7520  -29.5070   22.5600 C   0  0  0  0  0  0  0  0  0  0  0  0
  -21.4290  -29.3170   22.4050 N   0  0  0  0  0  0  0  0  0  0  0  0
  -23.4110  -28.8980   23.4060 O   0  0  0  0  0  0  0  0  0  0  0  0
  -20.9530  -29.8570   21.6970 H   0  0  0  0  0  0  0  0  0  0  0  0
  -18.0500  -28.0930   22.8660 C   0  0  0  0  0  0  0  0  0  0  0  0
  -20.6040  -28.3760   23.1680 C   0  0  0  0  0  3  0  0  0  0  0  0
  -20.7250  -26.9440   22.5990 C   0  0  0  0  0  2  0  0  0  0  0  0
  -19.6390  -26.6100   21.5700 C   0  0  0  0  0  2  0  0  0  0  0  0
  -18.2470  -26.7440   22.1930 C   0  0  0  0  0  2  0  0  0  0  0  0
  -19.1570  -28.8640   23.3100 C   0  0  0  0  0  0  0  0  0  0  0  0
  -18.9170  -30.1230   23.9020 C   0  0  0  0  0  3  0  0  0  0  0  0
  -17.6070  -30.6120   24.0520 C   0  0  0  0  0  3  0  0  0  0  0  0
  -16.5150  -29.8380   23.6230 C   0  0  0  0  0  3  0  0  0  0  0  0
  -16.7380  -28.5800   23.0360 C   0  0  0  0  0  3  0  0  0  0  0  0
  -25.8830  -32.5560   23.8970 C   0  0  0  0  0  3  0  0  0  0  0  0
  -26.3680  -31.8040   25.1980 C   0  0  1  0  0  0  0  0  0  0  0  0
  -25.2480  -31.5780   26.2420 C   0  0  0  0  0  1  0  0  0  0  0  0
  -26.9640  -30.4220   24.8440 C   0  0  0  0  0  1  0  0  0  0  0  0
  -27.4980  -32.6090   25.8810 C   0  0  0  0  0  1  0  0  0  0  0  0
  -25.5660  -33.9590   24.2100 N   0  0  0  0  0  0  0  0  0  0  0  0
  -25.8960  -35.0070   23.4440 C   0  0  0  0  0  0  0  0  0  0  0  0
  -26.5670  -34.8950   22.4140 O   0  0  0  0  0  0  0  0  0  0  0  0
  -24.9690  -34.1190   25.0090 H   0  0  0  0  0  0  0  0  0  0  0  0
  -24.1720  -36.8000   23.0640 C   0  0  0  0  0  1  0  0  0  0  0  0
  -25.4070  -36.4010   23.8880 C   0  0  0  0  0  3  0  0  0  0  0  0
  -27.5280  -37.2980   24.7410 C   0  0  0  0  0  1  0  0  0  0  0  0
  -26.4420  -37.4520   23.7770 N   0  0  0  0  0  0  0  0  0  0  0  0
  -26.0330  -38.3750   23.9030 H   0  0  0  0  0  0  0  0  0  0  0  0
  -30.2790  -17.8310   20.6030 C   0  0  0  0  0  2  0  0  0  0  0  0
  -30.5270  -15.0920   20.3540 C   0  0  0  0  0  0  0  0  0  0  0  0
  -30.3840  -12.7490   19.3650 C   0  0  0  0  0  2  0  0  0  0  0  0
  -29.4450  -12.7170   18.1370 C   0  0  0  0  0  2  0  0  0  0  0  0
  -27.9890  -12.4820   18.5800 C   0  0  0  0  0  2  0  0  0  0  0  0
  -27.5850  -13.3810   19.7760 C   0  0  0  0  0  3  0  0  0  0  0  0
  -28.6520  -13.3980   20.8910 C   0  0  0  0  0  2  0  0  0  0  0  0
  -29.9100  -13.8360   20.2720 N   0  0  0  0  0  0  0  0  0  0  0  0
  -31.7320  -15.1250   20.0780 O   0  0  0  0  0  0  0  0  0  0  0  0
  -29.7980  -16.3110   20.5430 N   0  0  0  0  0  0  0  0  0  0  0  0
  -28.8100  -16.1820   20.7040 H   0  0  0  0  0  0  0  0  0  0  0  0
  -25.2090  -13.9240   20.5480 C   0  0  0  0  0  0  0  0  0  0  0  0
  -24.1530  -13.1370   20.9140 C   0  0  0  0  0  0  0  0  0  0  0  0
  -24.6290  -11.7900   20.8610 C   0  0  0  0  0  0  0  0  0  0  0  0
  -26.2570  -13.0590   20.2860 N   0  0  0  0  0  0  0  0  0  0  0  0
  -25.9180  -11.7680   20.5400 N   0  0  0  0  0  0  0  0  0  0  0  0
  -23.9110  -10.5200   21.0400 C   0  0  0  0  0  0  0  0  0  0  0  0
  -24.3380   -9.5560   21.9790 C   0  0  0  0  0  3  0  0  0  0  0  0
  -23.6180   -8.3520   22.1460 C   0  0  0  0  0  3  0  0  0  0  0  0
  -22.4590   -8.1060   21.3740 C   0  0  0  0  0  0  0  0  0  0  0  0
  -22.0510   -9.0600   20.4250 C   0  0  0  0  0  3  0  0  0  0  0  0
  -22.7710  -10.2530   20.2550 C   0  0  0  0  0  3  0  0  0  0  0  0
  -21.7120   -6.9540   21.4510 O   0  0  0  0  0  0  0  0  0  0  0  0
  -21.6220   -6.2310   22.6120 C   0  0  0  0  0  0  0  0  0  0  0  0
  -21.0810   -6.7820   23.7940 C   0  0  0  0  0  3  0  0  0  0  0  0
  -20.9430   -5.9810   24.9460 C   0  0  0  0  0  3  0  0  0  0  0  0
  -21.3360   -4.6290   24.9150 C   0  0  0  0  0  0  0  0  0  0  0  0
  -21.8700   -4.0780   23.7370 C   0  0  0  0  0  3  0  0  0  0  0  0
  -22.0110   -4.8760   22.5890 C   0  0  0  0  0  0  0  0  0  0  0  0
  -22.5070   -4.3340   21.4510 F   0  0  0  0  0  0  0  0  0  0  0  0
  -21.1960   -3.8570   26.0180 F   0  0  0  0  0  0  0  0  0  0  0  0
  -22.7550  -13.6020   21.1950 C   0  0  0  0  0  0  0  0  0  0  0  0
  -22.0290  -12.8830   22.0450 N   0  0  0  0  0  0  0  0  0  0  0  0
  -22.3130  -14.6370   20.6980 O   0  0  0  0  0  0  0  0  0  0  0  0
  -22.4000  -12.0460   22.4710 H   0  0  0  0  0  0  0  0  0  0  0  0
  -21.0910  -13.1780   22.2760 H   0  0  0  0  0  0  0  0  0  0  0  0
  -25.3570  -15.2990   20.3890 N   0  0  0  0  0  0  0  0  0  0  0  0
  -24.5820  -15.9390   20.5110 H   0  0  0  0  0  0  0  0  0  0  0  0
  -26.1870  -15.7520   20.0310 H   0  0  0  0  0  0  0  0  0  0  0  0
  1  2  1  0
  1  3  2  0
  2  4  2  0
  3  7  1  0
  3  6  1  0
  4 51  1  0
  4  6  1  0
  6  5  1  0
  9  8  1  0
  9 10  1  0
  9  7  1  0
 11 22  2  0
 12 10  1  0
 12 17  1  0
 13 21  1  0
 13 23  1  0
 14 20  1  0
 14 16  1  0
 15 21  1  0
 16 17  2  0
 16 15  1  0
 18 12  2  0
 19 18  1  0
 19 14  2  0
 20 13  1  0
 21 11  1  0
 23 25  2  0
 24 23  1  0
 26 24  1  0
 27 36  2  0
 27 32  1  0
 28 24  1  0
 28 32  1  0
 29 28  1  0
 30 31  1  0
 30 29  1  0
 31 27  1  0
 32 33  2  0
 33 34  1  0
 35 34  2  0
 36 35  1  0
 37 11  1  0
 37 42  1  0
 37 38  1  0
 38 41  1  1
 38 39  1  0
 40 38  1  0
 42 45  1  0
 43 47  1  0
 43 42  1  0
 44 43  2  0
 47 46  1  0
 49 47  1  0
 49 50  1  0
 49 48  1  0
 52 60  1  0
 53 58  1  0
 54 55  1  0
 54 53  1  0
 56 55  1  0
 56 65  1  0
 56 57  1  0
 58 52  1  0
 58 57  1  0
 59 52  2  0
 60 51  1  0
 60 61  1  0
 62 63  2  0
 63 82  1  0
 64 63  1  0
 64 67  1  0
 65 66  1  0
 65 62  1  0
 66 64  2  0
 67 68  1  0
 68 69  2  0
 70 73  1  0
 70 69  1  0
 71 70  2  0
 72 71  1  0
 72 67  2  0
 73 74  1  0
 74 75  1  0
 75 76  2  0
 77 76  1  0
 77 81  1  0
 78 77  2  0
 79 74  2  0
 79 78  1  0
 80 79  1  0
 82 83  1  0
 83 86  1  0
 83 85  1  0
 84 82  2  0
 87 88  1  0
 87 62  1  0
 89 87  1  0
M  ISO  4   9 101  10 101  52 100  60 100
M  END
>  <TORSDO>  (10) 
F 19

>  <SCORE>  (10) 
-14.941

>  <name>  (10) 
9

>  <ligand_id>  (10) 
9

>  <original_smiles>  (10) 
[H]c1c([H])c([H])c2c(c1[H])C([H])([H])C([H])([H])C([H])([H])C2([H])N([H])C(=O)C1([H])N(C(=O)C([H])(N([H])C(=O)C([H])(N([H])C([H])([H])[H])C([H])([H])[H])C(C([H])([H])[H])(C([H])([H])[H])C([H])([H])[H])C([H])([H])c2c([H])c(OC([H])(C([H])([H])[H])C([H])([H])c3c([H])c([H])c(C([H])([H])N([H])C(=O)N4C([H])([H])C([H])([H])C([H])([H])C([H])(n5nc(-c6c([H])c([H])c(Oc7c([H])c([H])c(F)c([H])c7F)c([H])c6[H])c(C(=O)N([H])[H])c5N([H])[H])C4([H])[H])n3C([H])([H])[H])c([H])c([H])c2C1([H])[H]

>  <smiles>  (10) 
[H]c1c([H])c([H])c2c(c1[H])C([H])([H])C([H])([H])C([H])([H])C2([H])N([H])C(=O)C1([H])N(C(=O)C([H])(N([H])C(=O)C([H])(N([H])C([H])([H])[H])C([H])([H])[H])C(C([H])([H])[H])(C([H])([H])[H])C([H])([H])[H])C([H])([H])c2c([H])c(OC([H])(C([H])([H])[H])C([H])([H])c3c([H])c([H])c(C([H])([H])N([H])C(=O)N4C([H])([H])C([H])([H])C([H])([H])C([H])(n5nc(-c6c([H])c([H])c(Oc7c([H])c([H])c(F)c([H])c7F)c([H])c6[H])c(C(=O)N([H])[H])c5N([H])[H])C4([H])[H])n3C([H])([H])[H])c([H])c([H])c2C1([H])[H]

$$$$
10:0:0
     RDKit          3D

 93101  0  0  1  0  0  0  0  0999 V2000
  -30.2510  -21.2280   20.3670 C   0  0  0  0  0  3  0  0  0  0  0  0
  -29.9510  -22.6310   20.5850 C   0  0  0  0  0  3  0  0  0  0  0  0
  -29.3940  -20.3500   19.6290 C   0  0  0  0  0  0  0  0  0  0  0  0
  -28.7930  -23.2840   20.0530 C   0  0  0  0  0  0  0  0  0  0  0  0
  -28.2550  -21.0940   19.1170 C   0  0  0  0  0  0  0  0  0  0  0  0
  -28.0020  -22.4470   19.3160 N   0  0  0  0  0  0  0  0  0  0  0  0
  -26.3350  -19.4070   19.1930 C   0  0  0  0  0  1  0  0  0  0  0  0
  -27.4430  -19.9310   16.9230 C   0  0  0  0  0  1  0  0  0  0  0  0
  -27.1030  -20.4330   18.3390 C   0  0  0  0  0  3  0  0  0  0  0  0
  -26.8950  -24.5740   21.3410 C   0  0  0  0  0  1  0  0  0  0  0  0
  -28.2070  -24.7510   20.5520 C   0  0  0  0  0  3  0  0  0  0  0  0
  -28.2520  -26.1160   19.8360 O   0  0  0  0  0  0  0  0  0  0  0  0
  -24.5610  -31.6350   23.0250 C   0  0  0  0  0  0  0  0  0  0  0  0
  -27.1800  -27.0640   19.8810 C   0  0  0  0  0  0  0  0  0  0  0  0
  -23.3760  -30.2890   21.3310 C   0  0  0  0  0  3  0  0  0  0  0  0
  -24.8400  -28.7640   19.8760 C   0  0  0  0  0  0  0  0  0  0  0  0
  -25.9240  -30.5840   21.1860 C   0  0  0  0  0  2  0  0  0  0  0  0
  -26.0100  -29.2120   20.5040 C   0  0  0  0  0  0  0  0  0  0  0  0
  -27.1860  -28.3770   20.4880 C   0  0  0  0  0  3  0  0  0  0  0  0
  -25.9870  -26.7030   19.2250 C   0  0  0  0  0  3  0  0  0  0  0  0
  -24.8360  -27.5220   19.2220 C   0  0  0  0  0  3  0  0  0  0  0  0
  -23.6080  -29.6540   19.9340 C   0  0  0  0  0  2  0  0  0  0  0  0
  -24.6400  -30.8570   21.9040 N   0  0  0  0  0  0  0  0  0  0  0  0
  -23.4720  -31.8980   23.5570 O   0  0  0  0  0  0  0  0  0  0  0  0
  -22.6960  -29.2500   22.2570 C   0  0  0  0  0  0  0  0  0  0  0  0
  -21.3620  -29.1190   22.1560 N   0  0  0  0  0  0  0  0  0  0  0  0
  -23.3720  -28.5660   23.0290 O   0  0  0  0  0  0  0  0  0  0  0  0
  -20.8730  -29.7200   21.5070 H   0  0  0  0  0  0  0  0  0  0  0  0
  -17.9560  -28.0410   22.7510 C   0  0  0  0  0  0  0  0  0  0  0  0
  -20.5360  -28.1660   22.9000 C   0  0  0  0  0  3  0  0  0  0  0  0
  -20.5380  -26.7790   22.2180 C   0  0  0  0  0  2  0  0  0  0  0  0
  -19.3720  -26.5850   21.2430 C   0  0  0  0  0  2  0  0  0  0  0  0
  -18.0330  -26.7420   21.9680 C   0  0  0  0  0  2  0  0  0  0  0  0
  -19.1310  -28.7180   23.1770 C   0  0  0  0  0  0  0  0  0  0  0  0
  -19.0030  -29.9400   23.8730 C   0  0  0  0  0  3  0  0  0  0  0  0
  -17.7330  -30.4820   24.1470 C   0  0  0  0  0  3  0  0  0  0  0  0
  -16.5740  -29.8010   23.7360 C   0  0  0  0  0  3  0  0  0  0  0  0
  -16.6870  -28.5820   23.0440 C   0  0  0  0  0  3  0  0  0  0  0  0
  -25.8350  -32.2540   23.6800 C   0  0  0  0  0  3  0  0  0  0  0  0
  -26.3380  -31.4440   24.9390 C   0  0  1  0  0  0  0  0  0  0  0  0
  -25.2370  -31.1790   25.9900 C   0  0  0  0  0  1  0  0  0  0  0  0
  -26.9200  -30.0760   24.5150 C   0  0  0  0  0  1  0  0  0  0  0  0
  -27.4860  -32.2140   25.6340 C   0  0  0  0  0  1  0  0  0  0  0  0
  -25.5200  -33.6400   24.0560 N   0  0  0  0  0  0  0  0  0  0  0  0
  -25.8590  -34.7220   23.3410 C   0  0  0  0  0  0  0  0  0  0  0  0
  -26.5400  -34.6560   22.3140 O   0  0  0  0  0  0  0  0  0  0  0  0
  -24.9200  -33.7650   24.8590 H   0  0  0  0  0  0  0  0  0  0  0  0
  -24.1300  -36.5260   23.0400 C   0  0  0  0  0  1  0  0  0  0  0  0
  -25.3670  -36.0940   23.8440 C   0  0  0  0  0  3  0  0  0  0  0  0
  -27.4950  -36.9540   24.7190 C   0  0  0  0  0  1  0  0  0  0  0  0
  -26.3990  -37.1520   23.7740 N   0  0  0  0  0  0  0  0  0  0  0  0
  -25.9920  -38.0670   23.9520 H   0  0  0  0  0  0  0  0  0  0  0  0
  -29.6550  -18.7490   19.3010 C   0  0  0  0  0  2  0  0  0  0  0  0
  -31.1090  -18.0680   21.3510 C   0  0  0  0  0  1  0  0  0  0  0  0
  -30.7220  -17.6380   19.9280 C   0  0  0  0  0  3  0  0  0  0  0  0
  -31.0880  -14.9070   19.8160 C   0  0  0  0  0  0  0  0  0  0  0  0
  -30.8470  -12.5250   19.0060 C   0  0  0  0  0  2  0  0  0  0  0  0
  -29.8820  -12.4590   17.7990 C   0  0  0  0  0  2  0  0  0  0  0  0
  -28.4210  -12.3410   18.2700 C   0  0  0  0  0  2  0  0  0  0  0  0
  -28.0830  -13.3410   19.4060 C   0  0  0  0  0  3  0  0  0  0  0  0
  -29.1640  -13.3680   20.5070 C   0  0  0  0  0  2  0  0  0  0  0  0
  -30.4400  -13.6790   19.8520 N   0  0  0  0  0  0  0  0  0  0  0  0
  -32.2770  -14.9250   19.4860 O   0  0  0  0  0  0  0  0  0  0  0  0
  -30.3510  -16.1070   19.9600 N   0  0  0  0  0  0  0  0  0  0  0  0
  -29.3740  -15.9360   20.1470 H   0  0  0  0  0  0  0  0  0  0  0  0
  -25.7760  -14.0570   20.2500 C   0  0  0  0  0  0  0  0  0  0  0  0
  -24.6800  -13.3460   20.6520 C   0  0  0  0  0  0  0  0  0  0  0  0
  -25.0550  -11.9680   20.5790 C   0  0  0  0  0  0  0  0  0  0  0  0
  -26.7490  -13.1200   19.9520 N   0  0  0  0  0  0  0  0  0  0  0  0
  -26.3260  -11.8550   20.2150 N   0  0  0  0  0  0  0  0  0  0  0  0
  -24.2550  -10.7530   20.7770 C   0  0  0  0  0  0  0  0  0  0  0  0
  -24.6480   -9.7510   21.6920 C   0  0  0  0  0  3  0  0  0  0  0  0
  -23.8520   -8.6000   21.8780 C   0  0  0  0  0  3  0  0  0  0  0  0
  -22.6480   -8.4430   21.1500 C   0  0  0  0  0  0  0  0  0  0  0  0
  -22.2740   -9.4310   20.2220 C   0  0  0  0  0  3  0  0  0  0  0  0
  -23.0700  -10.5740   20.0340 C   0  0  0  0  0  3  0  0  0  0  0  0
  -21.8250   -7.3470   21.2470 O   0  0  0  0  0  0  0  0  0  0  0  0
  -21.7330   -6.6160   22.4040 C   0  0  0  0  0  0  0  0  0  0  0  0
  -21.3460   -7.2040   23.6280 C   0  0  0  0  0  3  0  0  0  0  0  0
  -21.1970   -6.4030   24.7790 C   0  0  0  0  0  3  0  0  0  0  0  0
  -21.4240   -5.0150   24.7050 C   0  0  0  0  0  0  0  0  0  0  0  0
  -21.8040   -4.4280   23.4860 C   0  0  0  0  0  3  0  0  0  0  0  0
  -21.9550   -5.2260   22.3380 C   0  0  0  0  0  0  0  0  0  0  0  0
  -22.3000   -4.6510   21.1600 F   0  0  0  0  0  0  0  0  0  0  0  0
  -21.2740   -4.2430   25.8070 F   0  0  0  0  0  0  0  0  0  0  0  0
  -23.3290  -13.9060   20.9860 C   0  0  0  0  0  0  0  0  0  0  0  0
  -22.5960  -13.2490   21.8770 N   0  0  0  0  0  0  0  0  0  0  0  0
  -22.9370  -14.9630   20.4920 O   0  0  0  0  0  0  0  0  0  0  0  0
  -22.9270  -12.3920   22.2950 H   0  0  0  0  0  0  0  0  0  0  0  0
  -21.6890  -13.6060   22.1430 H   0  0  0  0  0  0  0  0  0  0  0  0
  -26.0190  -15.4180   20.0850 N   0  0  0  0  0  0  0  0  0  0  0  0
  -25.2880  -16.1070   20.2160 H   0  0  0  0  0  0  0  0  0  0  0  0
  -26.8510  -15.7980   19.6560 H   0  0  0  0  0  0  0  0  0  0  0  0
  1  2  1  0
  3  1  2  0
  4 11  1  0
  4  2  2  0
  5  6  2  0
  5  3  1  0
  6  4  1  0
  8  9  1  0
  9  5  1  0
  9  7  1  0
 11 10  1  0
 12 14  1  0
 12 11  1  0
 13 24  2  0
 14 19  1  0
 15 23  1  0
 15 25  1  0
 16 22  1  0
 16 18  1  0
 17 23  1  0
 18 17  1  0
 19 18  2  0
 20 14  2  0
 21 20  1  0
 21 16  2  0
 22 15  1  0
 23 13  1  0
 25 27  2  0
 26 25  1  0
 28 26  1  0
 29 38  2  0
 29 34  1  0
 30 26  1  0
 30 34  1  0
 31 30  1  0
 32 33  1  0
 32 31  1  0
 33 29  1  0
 34 35  2  0
 35 36  1  0
 37 36  2  0
 38 37  1  0
 39 13  1  0
 39 44  1  0
 39 40  1  0
 40 43  1  1
 40 41  1  0
 42 40  1  0
 44 47  1  0
 45 49  1  0
 45 44  1  0
 46 45  2  0
 49 48  1  0
 51 49  1  0
 51 52  1  0
 51 50  1  0
 53  3  1  0
 53 55  1  0
 55 64  1  0
 55 54  1  0
 56 62  1  0
 56 64  1  0
 57 62  1  0
 58 59  1  0
 58 57  1  0
 60 59  1  0
 60 69  1  0
 60 61  1  0
 62 61  1  0
 63 56  2  0
 64 65  1  0
 66 67  2  0
 67 86  1  0
 68 67  1  0
 68 71  1  0
 69 70  1  0
 69 66  1  0
 70 68  2  0
 71 72  1  0
 72 73  2  0
 74 77  1  0
 74 73  1  0
 75 74  2  0
 76 75  1  0
 76 71  2  0
 77 78  1  0
 78 79  1  0
 79 80  2  0
 81 80  1  0
 81 85  1  0
 82 81  2  0
 83 78  2  0
 83 82  1  0
 84 83  1  0
 86 87  1  0
 87 90  1  0
 87 89  1  0
 88 86  2  0
 91 92  1  0
 91 66  1  0
 93 91  1  0
M  ISO  4  11 101  12 101  56 100  64 100
M  END
>  <TORSDO>  (11) 
F 20

>  <SCORE>  (11) 
-13.227

>  <name>  (11) 
10

>  <ligand_id>  (11) 
10

>  <original_smiles>  (11) 
[H]c1c(C([H])(Oc2c([H])c([H])c3c(c2[H])C([H])([H])N(C(=O)C([H])(N([H])C(=O)C([H])(N([H])C([H])([H])[H])C([H])([H])[H])C(C([H])([H])[H])(C([H])([H])[H])C([H])([H])[H])C([H])(C(=O)N([H])C2([H])c4c([H])c([H])c([H])c([H])c4C([H])([H])C([H])([H])C2([H])[H])C3([H])[H])C([H])([H])[H])nc(C([H])(C([H])([H])[H])C([H])([H])[H])c(C([H])([H])C([H])(N([H])C(=O)N2C([H])([H])C([H])([H])C([H])([H])C([H])(n3nc(-c4c([H])c([H])c(Oc5c([H])c([H])c(F)c([H])c5F)c([H])c4[H])c(C(=O)N([H])[H])c3N([H])[H])C2([H])[H])C([H])([H])[H])c1[H]

>  <smiles>  (11) 
[H]c1c(C([H])(Oc2c([H])c([H])c3c(c2[H])C([H])([H])N(C(=O)C([H])(N([H])C(=O)C([H])(N([H])C([H])([H])[H])C([H])([H])[H])C(C([H])([H])[H])(C([H])([H])[H])C([H])([H])[H])C([H])(C(=O)N([H])C2([H])c4c([H])c([H])c([H])c([H])c4C([H])([H])C([H])([H])C2([H])[H])C3([H])[H])C([H])([H])[H])nc(C([H])(C([H])([H])[H])C([H])([H])[H])c(C([H])([H])C([H])(N([H])C(=O)N2C([H])([H])C([H])([H])C([H])([H])C([H])(n3nc(-c4c([H])c([H])c(Oc5c([H])c([H])c(F)c([H])c5F)c([H])c4[H])c(C(=O)N([H])[H])c3N([H])[H])C2([H])[H])C([H])([H])[H])c1[H]

$$$$
11:0:0
     RDKit          3D

 97105  0  0  1  0  0  0  0  0999 V2000
  -29.4450  -23.2100   21.2490 C   0  0  0  0  0  3  0  0  0  0  0  0
  -28.6380  -24.2030   20.6360 C   0  0  0  0  0  0  0  0  0  0  0  0
  -27.7310  -22.5520   19.2680 C   0  0  0  0  0  0  0  0  0  0  0  0
  -28.5360  -21.5480   19.9050 C   0  0  0  0  0  0  0  0  0  0  0  0
  -29.4000  -21.8970   20.8950 N   0  0  0  0  0  0  0  0  0  0  0  0
  -27.7940  -23.8650   19.6320 N   0  0  0  0  0  0  0  0  0  0  0  0
  -27.0700  -22.9420   16.8470 C   0  0  0  0  0  1  0  0  0  0  0  0
  -25.2740  -22.6090   18.6190 C   0  0  0  0  0  1  0  0  0  0  0  0
  -26.7020  -22.2530   18.1710 C   0  0  0  0  0  3  0  0  0  0  0  0
  -27.0470  -19.5430   20.2740 C   0  0  0  0  0  1  0  0  0  0  0  0
  -28.3700  -20.0270   19.6410 C   0  0  0  0  0  3  0  0  0  0  0  0
  -29.5870  -17.8370   19.9450 C   0  0  0  0  0  0  0  0  0  0  0  0
  -29.4760  -19.1720   20.1300 N   0  0  0  0  0  0  0  0  0  0  0  0
  -28.7750  -17.1990   19.2670 O   0  0  0  0  0  0  0  0  0  0  0  0
  -30.1850  -19.6510   20.6700 H   0  0  0  0  0  0  0  0  0  0  0  0
  -30.7520  -17.0770   20.6170 C   0  0  0  0  0  2  0  0  0  0  0  0
  -31.1580  -14.5890   20.3770 C   0  0  0  0  0  0  0  0  0  0  0  0
  -30.8670  -12.3460   19.3870 C   0  0  0  0  0  2  0  0  0  0  0  0
  -29.9570  -12.4750   18.1470 C   0  0  0  0  0  2  0  0  0  0  0  0
  -28.4700  -12.3970   18.5470 C   0  0  0  0  0  2  0  0  0  0  0  0
  -28.1200  -13.3300   19.7360 C   0  0  0  0  0  3  0  0  0  0  0  0
  -29.1410  -13.1660   20.8840 C   0  0  0  0  0  2  0  0  0  0  0  0
  -30.4830  -13.4090   20.3310 N   0  0  0  0  0  0  0  0  0  0  0  0
  -32.2960  -14.7270   19.9210 O   0  0  0  0  0  0  0  0  0  0  0  0
  -30.4400  -15.6450   20.8030 N   0  0  0  0  0  0  0  0  0  0  0  0
  -29.4960  -15.4490   21.1000 H   0  0  0  0  0  0  0  0  0  0  0  0
  -25.7480  -14.0570   20.4190 C   0  0  0  0  0  0  0  0  0  0  0  0
  -24.6380  -13.3380   20.7710 C   0  0  0  0  0  0  0  0  0  0  0  0
  -25.0300  -11.9650   20.7410 C   0  0  0  0  0  0  0  0  0  0  0  0
  -26.7490  -13.1230   20.1970 N   0  0  0  0  0  0  0  0  0  0  0  0
  -26.3210  -11.8610   20.4490 N   0  0  0  0  0  0  0  0  0  0  0  0
  -24.2400  -10.7410   20.9200 C   0  0  0  0  0  0  0  0  0  0  0  0
  -24.6140   -9.7490   21.8530 C   0  0  0  0  0  3  0  0  0  0  0  0
  -23.8290   -8.5880   22.0190 C   0  0  0  0  0  3  0  0  0  0  0  0
  -22.6530   -8.4120   21.2530 C   0  0  0  0  0  0  0  0  0  0  0  0
  -22.2970   -9.3910   20.3090 C   0  0  0  0  0  3  0  0  0  0  0  0
  -23.0820  -10.5430   20.1410 C   0  0  0  0  0  3  0  0  0  0  0  0
  -21.8420   -7.3050   21.3270 O   0  0  0  0  0  0  0  0  0  0  0  0
  -21.7390   -6.5650   22.4790 C   0  0  0  0  0  0  0  0  0  0  0  0
  -21.3290   -7.1420   23.7000 C   0  0  0  0  0  3  0  0  0  0  0  0
  -21.1690   -6.3310   24.8420 C   0  0  0  0  0  3  0  0  0  0  0  0
  -21.4070   -4.9470   24.7620 C   0  0  0  0  0  0  0  0  0  0  0  0
  -21.8100   -4.3690   23.5440 C   0  0  0  0  0  3  0  0  0  0  0  0
  -21.9720   -5.1770   22.4060 C   0  0  0  0  0  0  0  0  0  0  0  0
  -22.3390   -4.6140   21.2290 F   0  0  0  0  0  0  0  0  0  0  0  0
  -21.2460   -4.1660   25.8560 F   0  0  0  0  0  0  0  0  0  0  0  0
  -23.2630  -13.8850   21.0300 C   0  0  0  0  0  0  0  0  0  0  0  0
  -22.4980  -13.2330   21.8980 N   0  0  0  0  0  0  0  0  0  0  0  0
  -22.8780  -14.9260   20.5000 O   0  0  0  0  0  0  0  0  0  0  0  0
  -22.8200  -12.3900   22.3510 H   0  0  0  0  0  0  0  0  0  0  0  0
  -21.5760  -13.5850   22.1130 H   0  0  0  0  0  0  0  0  0  0  0  0
  -25.9850  -15.4170   20.2550 N   0  0  0  0  0  0  0  0  0  0  0  0
  -25.2500  -16.1060   20.3700 H   0  0  0  0  0  0  0  0  0  0  0  0
  -26.8750  -15.8330   19.9910 H   0  0  0  0  0  0  0  0  0  0  0  0
  -27.5740  -25.6970   22.3850 C   0  0  0  0  0  1  0  0  0  0  0  0
  -28.5790  -25.6340   21.2160 C   0  0  0  0  0  3  0  0  0  0  0  0
  -28.4440  -26.7170   20.2540 O   0  0  0  0  0  0  0  0  0  0  0  0
  -24.5590  -31.9000   23.2810 C   0  0  0  0  0  0  0  0  0  0  0  0
  -27.2840  -27.4670   20.2510 C   0  0  0  0  0  0  0  0  0  0  0  0
  -23.3940  -30.4960   21.6090 C   0  0  0  0  0  3  0  0  0  0  0  0
  -24.8850  -28.9670   20.2110 C   0  0  0  0  0  0  0  0  0  0  0  0
  -25.9210  -30.8670   21.4630 C   0  0  0  0  0  2  0  0  0  0  0  0
  -26.0280  -29.4970   20.8230 C   0  0  0  0  0  0  0  0  0  0  0  0
  -27.2340  -28.7560   20.8350 C   0  0  0  0  0  3  0  0  0  0  0  0
  -26.1290  -26.9540   19.6290 C   0  0  0  0  0  3  0  0  0  0  0  0
  -24.9310  -27.6940   19.6100 C   0  0  0  0  0  3  0  0  0  0  0  0
  -23.6340  -29.8180   20.2330 C   0  0  0  0  0  2  0  0  0  0  0  0
  -24.6410  -31.1030   22.1770 N   0  0  0  0  0  0  0  0  0  0  0  0
  -23.4660  -32.1650   23.8000 O   0  0  0  0  0  0  0  0  0  0  0  0
  -22.7270  -29.4710   22.5550 C   0  0  0  0  0  0  0  0  0  0  0  0
  -21.4040  -29.2940   22.4120 N   0  0  0  0  0  0  0  0  0  0  0  0
  -23.4000  -28.8360   23.3720 O   0  0  0  0  0  0  0  0  0  0  0  0
  -20.9220  -29.8550   21.7240 H   0  0  0  0  0  0  0  0  0  0  0  0
  -18.0180  -28.1330   22.8850 C   0  0  0  0  0  0  0  0  0  0  0  0
  -20.5770  -28.3520   23.1670 C   0  0  0  0  0  3  0  0  0  0  0  0
  -20.6640  -26.9320   22.5620 C   0  0  0  0  0  2  0  0  0  0  0  0
  -19.5600  -26.6460   21.5390 C   0  0  0  0  0  2  0  0  0  0  0  0
  -18.1780  -26.7960   22.1810 C   0  0  0  0  0  2  0  0  0  0  0  0
  -19.1450  -28.8710   23.3330 C   0  0  0  0  0  0  0  0  0  0  0  0
  -18.9410  -30.1250   23.9470 C   0  0  0  0  0  3  0  0  0  0  0  0
  -17.6430  -30.6410   24.1210 C   0  0  0  0  0  3  0  0  0  0  0  0
  -16.5300  -29.8980   23.6910 C   0  0  0  0  0  3  0  0  0  0  0  0
  -16.7180  -28.6460   23.0780 C   0  0  0  0  0  3  0  0  0  0  0  0
  -25.8290  -32.5360   23.9260 C   0  0  0  0  0  3  0  0  0  0  0  0
  -25.5190  -33.9410   24.2240 N   0  0  0  0  0  0  0  0  0  0  0  0
  -25.8820  -34.9780   23.4590 C   0  0  0  0  0  0  0  0  0  0  0  0
  -26.5850  -34.8540   22.4520 O   0  0  0  0  0  0  0  0  0  0  0  0
  -24.9000  -34.1110   25.0030 H   0  0  0  0  0  0  0  0  0  0  0  0
  -24.1770  -36.7720   23.0130 C   0  0  0  0  0  1  0  0  0  0  0  0
  -25.3870  -36.3760   23.8750 C   0  0  0  0  0  3  0  0  0  0  0  0
  -27.4970  -37.2630   24.7620 C   0  0  0  0  0  1  0  0  0  0  0  0
  -26.4280  -37.4210   23.7800 N   0  0  0  0  0  0  0  0  0  0  0  0
  -26.0230  -38.3460   23.8990 H   0  0  0  0  0  0  0  0  0  0  0  0
  -26.3070  -31.7820   25.2280 C   0  0  1  0  0  0  0  0  0  0  0  0
  -25.1840  -31.5640   26.2690 C   0  0  0  0  0  1  0  0  0  0  0  0
  -26.8970  -30.3980   24.8720 C   0  0  0  0  0  1  0  0  0  0  0  0
  -27.4410  -32.5840   25.9120 C   0  0  0  0  0  1  0  0  0  0  0  0
  2 56  1  0
  2  1  2  0
  3  6  2  0
  3  4  1  0
  4  5  2  0
  5  1  1  0
  6  2  1  0
  7  9  1  0
  9  8  1  0
  9  3  1  0
 11  4  1  0
 11 13  1  0
 11 10  1  0
 12 13  1  0
 12 16  1  0
 13 15  1  0
 14 12  2  0
 16 25  1  0
 17 25  1  0
 18 23  1  0
 19 20  1  0
 19 18  1  0
 21 20  1  0
 21 30  1  0
 21 22  1  0
 23 17  1  0
 23 22  1  0
 24 17  2  0
 25 26  1  0
 27 28  2  0
 28 47  1  0
 29 28  1  0
 29 32  1  0
 30 27  1  0
 30 31  1  0
 31 29  2  0
 32 33  1  0
 33 34  2  0
 35 38  1  0
 35 34  1  0
 36 35  2  0
 37 36  1  0
 37 32  2  0
 38 39  1  0
 39 40  1  0
 40 41  2  0
 42 41  1  0
 42 46  1  0
 43 42  2  0
 44 39  2  0
 44 43  1  0
 45 44  1  0
 47 48  1  0
 48 51  1  0
 48 50  1  0
 49 47  2  0
 52 53  1  0
 52 27  1  0
 54 52  1  0
 56 55  1  0
 57 56  1  0
 58 69  2  0
 59 57  1  0
 59 64  1  0
 60 68  1  0
 60 70  1  0
 61 67  1  0
 61 63  1  0
 62 68  1  0
 63 64  2  0
 63 62  1  0
 65 59  2  0
 66 65  1  0
 66 61  2  0
 67 60  1  0
 68 58  1  0
 70 72  2  0
 71 70  1  0
 73 71  1  0
 74 83  2  0
 74 79  1  0
 75 71  1  0
 75 79  1  0
 76 75  1  0
 77 78  1  0
 77 76  1  0
 78 74  1  0
 79 80  2  0
 80 81  1  0
 82 81  2  0
 83 82  1  0
 84 58  1  0
 84 85  1  0
 84 94  1  0
 85 88  1  0
 86 90  1  0
 86 85  1  0
 87 86  2  0
 90 89  1  0
 92 90  1  0
 92 93  1  0
 92 91  1  0
 94 97  1  1
 94 95  1  0
 96 94  1  0
M  ISO  4  17 100  25 100  56 101  57 101
M  END
>  <TORSDO>  (12) 
F 21

>  <SCORE>  (12) 
-12.306

>  <name>  (12) 
11

>  <ligand_id>  (12) 
11

>  <original_smiles>  (12) 
[H]c1nc(C([H])(N([H])C(=O)C([H])([H])N([H])C(=O)N2C([H])([H])C([H])([H])C([H])([H])C([H])(n3nc(-c4c([H])c([H])c(Oc5c([H])c([H])c(F)c([H])c5F)c([H])c4[H])c(C(=O)N([H])[H])c3N([H])[H])C2([H])[H])C([H])([H])[H])c(C([H])(C([H])([H])[H])C([H])([H])[H])nc1C([H])(Oc1c([H])c([H])c2c(c1[H])C([H])([H])N(C(=O)C([H])(N([H])C(=O)C([H])(N([H])C([H])([H])[H])C([H])([H])[H])C(C([H])([H])[H])(C([H])([H])[H])C([H])([H])[H])C([H])(C(=O)N([H])C1([H])c3c([H])c([H])c([H])c([H])c3C([H])([H])C([H])([H])C1([H])[H])C2([H])[H])C([H])([H])[H]

>  <smiles>  (12) 
[H]c1nc(C([H])(N([H])C(=O)C([H])([H])N([H])C(=O)N2C([H])([H])C([H])([H])C([H])([H])C([H])(n3nc(-c4c([H])c([H])c(Oc5c([H])c([H])c(F)c([H])c5F)c([H])c4[H])c(C(=O)N([H])[H])c3N([H])[H])C2([H])[H])C([H])([H])[H])c(C([H])(C([H])([H])[H])C([H])([H])[H])nc1C([H])(Oc1c([H])c([H])c2c(c1[H])C([H])([H])N(C(=O)C([H])(N([H])C(=O)C([H])(N([H])C([H])([H])[H])C([H])([H])[H])C(C([H])([H])[H])(C([H])([H])[H])C([H])([H])[H])C([H])(C(=O)N([H])C1([H])c3c([H])c([H])c([H])c([H])c3C([H])([H])C([H])([H])C1([H])[H])C2([H])[H])C([H])([H])[H]

$$$$
12:0:0
     RDKit          3D

104112  0  0  1  0  0  0  0  0999 V2000
  -30.7930  -23.3710   19.5460 C   0  0  0  0  0  3  0  0  0  0  0  0
  -30.3400  -22.0760   19.2580 C   0  0  0  0  0  0  0  0  0  0  0  0
  -31.2940  -21.0290   19.1420 C   0  0  0  0  0  0  0  0  0  0  0  0
  -32.1660  -23.6180   19.6380 C   0  0  0  0  0  0  0  0  0  0  0  0
  -32.6720  -21.3850   19.2450 C   0  0  0  0  0  0  0  0  0  0  0  0
  -28.8450  -21.8630   19.0740 C   0  0  0  0  0  1  0  0  0  0  0  0
  -33.8300  -20.4120   19.1060 C   0  0  0  0  0  1  0  0  0  0  0  0
  -33.0820  -22.6450   19.4910 N   0  0  0  0  0  0  0  0  0  0  0  0
  -30.8680  -19.1070   17.5090 C   0  0  0  0  0  1  0  0  0  0  0  0
  -30.8110  -19.5770   18.9770 C   0  0  0  0  0  3  0  0  0  0  0  0
  -31.4350  -18.6270   20.0280 C   0  0  0  0  0  2  0  0  0  0  0  0
  -30.6950  -17.3570   20.1240 N   0  0  0  0  0  4  0  0  0  0  0  0
  -30.9010  -16.8530   19.2730 H   0  0  0  0  0  0  0  0  0  0  0  0
  -29.7060  -17.5490   20.1450 H   0  0  0  0  0  0  0  0  0  0  0  0
  -30.5580  -17.0510   22.6040 C   0  0  0  0  0  1  0  0  0  0  0  0
  -31.0590  -16.4790   21.2650 C   0  0  0  0  0  3  0  0  0  0  0  0
  -31.0500  -14.2350   20.2360 C   0  0  0  0  0  0  0  0  0  0  0  0
  -30.5760  -12.1930   18.9580 C   0  0  0  0  0  2  0  0  0  0  0  0
  -29.6050  -12.4830   17.7970 C   0  0  0  0  0  2  0  0  0  0  0  0
  -28.1380  -12.4180   18.2660 C   0  0  0  0  0  2  0  0  0  0  0  0
  -27.8860  -13.2250   19.5670 C   0  0  0  0  0  3  0  0  0  0  0  0
  -28.9550  -12.8960   20.6360 C   0  0  0  0  0  2  0  0  0  0  0  0
  -30.2890  -13.1310   20.0530 N   0  0  0  0  0  0  0  0  0  0  0  0
  -32.0580  -14.4930   19.5730 O   0  0  0  0  0  0  0  0  0  0  0  0
  -30.5880  -15.1040   21.1420 N   0  0  0  0  0  0  0  0  0  0  0  0
  -29.8000  -14.8200   21.7020 H   0  0  0  0  0  0  0  0  0  0  0  0
  -25.5180  -13.9310   20.3070 C   0  0  0  0  0  0  0  0  0  0  0  0
  -24.4300  -13.1990   20.7050 C   0  0  0  0  0  0  0  0  0  0  0  0
  -24.8410  -11.8330   20.6760 C   0  0  0  0  0  0  0  0  0  0  0  0
  -26.5290  -13.0090   20.0700 N   0  0  0  0  0  0  0  0  0  0  0  0
  -26.1220  -11.7430   20.3450 N   0  0  0  0  0  0  0  0  0  0  0  0
  -24.0750  -10.5980   20.8920 C   0  0  0  0  0  0  0  0  0  0  0  0
  -24.4910   -9.6300   21.8330 C   0  0  0  0  0  3  0  0  0  0  0  0
  -23.7330   -8.4570   22.0380 C   0  0  0  0  0  3  0  0  0  0  0  0
  -22.5450   -8.2420   21.3000 C   0  0  0  0  0  0  0  0  0  0  0  0
  -22.1460   -9.1990   20.3490 C   0  0  0  0  0  3  0  0  0  0  0  0
  -22.9030  -10.3640   20.1440 C   0  0  0  0  0  3  0  0  0  0  0  0
  -21.7580   -7.1230   21.4150 O   0  0  0  0  0  0  0  0  0  0  0  0
  -21.6880   -6.4040   22.5810 C   0  0  0  0  0  0  0  0  0  0  0  0
  -21.3020   -7.0000   23.8010 C   0  0  0  0  0  3  0  0  0  0  0  0
  -21.1810   -6.2110   24.9630 C   0  0  0  0  0  3  0  0  0  0  0  0
  -21.4340   -4.8280   24.9040 C   0  0  0  0  0  0  0  0  0  0  0  0
  -21.8130   -4.2310   23.6880 C   0  0  0  0  0  3  0  0  0  0  0  0
  -21.9370   -5.0170   22.5300 C   0  0  0  0  0  0  0  0  0  0  0  0
  -22.2840   -4.4340   21.3570 F   0  0  0  0  0  0  0  0  0  0  0  0
  -21.3070   -4.0690   26.0160 F   0  0  0  0  0  0  0  0  0  0  0  0
  -23.0560  -13.7290   21.0000 C   0  0  0  0  0  0  0  0  0  0  0  0
  -22.3210  -13.0730   21.8930 N   0  0  0  0  0  0  0  0  0  0  0  0
  -22.6420  -14.7600   20.4730 O   0  0  0  0  0  0  0  0  0  0  0  0
  -22.6650  -12.2390   22.3460 H   0  0  0  0  0  0  0  0  0  0  0  0
  -21.3990  -13.4120   22.1250 H   0  0  0  0  0  0  0  0  0  0  0  0
  -25.7290  -15.2910   20.1150 N   0  0  0  0  0  0  0  0  0  0  0  0
  -24.9930  -15.9750   20.2510 H   0  0  0  0  0  0  0  0  0  0  0  0
  -26.5830  -15.6980   19.7590 H   0  0  0  0  0  0  0  0  0  0  0  0
  -32.6900  -25.0220   19.8680 C   0  0  0  0  0  2  0  0  0  0  0  0
  -33.4420  -25.5860   18.6450 C   0  0  0  0  0  2  0  0  0  0  0  0
  -32.6100  -25.7060   17.3490 C   0  0  0  0  0  2  0  0  0  0  0  0
  -32.1670  -27.0900   17.0520 N   0  0  0  0  0  4  0  0  0  0  0  0
  -32.4560  -27.2460   16.0980 H   0  0  0  0  0  0  0  0  0  0  0  0
  -32.6600  -27.7670   17.6100 H   0  0  0  0  0  0  0  0  0  0  0  0
  -30.7060  -27.3280   17.0550 C   0  0  0  0  0  2  0  0  0  0  0  0
  -30.0860  -27.5130   18.4600 C   0  0  0  0  0  2  0  0  0  0  0  0
  -28.8590  -26.6160   18.6840 C   0  0  0  0  0  2  0  0  0  0  0  0
  -28.3820  -26.7600   20.0240 O   0  0  0  0  0  0  0  0  0  0  0  0
  -24.5560  -31.8410   23.2080 C   0  0  0  0  0  0  0  0  0  0  0  0
  -27.1950  -27.4400   20.1060 C   0  0  0  0  0  0  0  0  0  0  0  0
  -23.3390  -30.4480   21.5620 C   0  0  0  0  0  3  0  0  0  0  0  0
  -24.7910  -28.9060   20.1390 C   0  0  0  0  0  0  0  0  0  0  0  0
  -25.8630  -30.8080   21.3640 C   0  0  0  0  0  2  0  0  0  0  0  0
  -25.9460  -29.4380   20.7290 C   0  0  0  0  0  0  0  0  0  0  0  0
  -27.1500  -28.7050   20.7260 C   0  0  0  0  0  3  0  0  0  0  0  0
  -26.0210  -26.9010   19.5390 C   0  0  0  0  0  3  0  0  0  0  0  0
  -24.8180  -27.6300   19.5500 C   0  0  0  0  0  3  0  0  0  0  0  0
  -23.5440  -29.7590   20.1850 C   0  0  0  0  0  2  0  0  0  0  0  0
  -24.6030  -31.0450   22.1030 N   0  0  0  0  0  0  0  0  0  0  0  0
  -23.4780  -32.1180   23.7530 O   0  0  0  0  0  0  0  0  0  0  0  0
  -22.6870  -29.4270   22.5210 C   0  0  0  0  0  0  0  0  0  0  0  0
  -21.3620  -29.2540   22.3970 N   0  0  0  0  0  0  0  0  0  0  0  0
  -23.3700  -28.7900   23.3290 O   0  0  0  0  0  0  0  0  0  0  0  0
  -20.8730  -29.8180   21.7140 H   0  0  0  0  0  0  0  0  0  0  0  0
  -17.9820  -28.0960   22.9030 C   0  0  0  0  0  0  0  0  0  0  0  0
  -20.5420  -28.3240   23.1690 C   0  0  0  0  0  3  0  0  0  0  0  0
  -20.6270  -26.8950   22.5860 C   0  0  0  0  0  2  0  0  0  0  0  0
  -19.5190  -26.5890   21.5720 C   0  0  0  0  0  2  0  0  0  0  0  0
  -18.1420  -26.7470   22.2230 C   0  0  0  0  0  2  0  0  0  0  0  0
  -19.1090  -28.8440   23.3330 C   0  0  0  0  0  0  0  0  0  0  0  0
  -18.9070  -30.1080   23.9270 C   0  0  0  0  0  3  0  0  0  0  0  0
  -17.6080  -30.6260   24.0960 C   0  0  0  0  0  3  0  0  0  0  0  0
  -16.4950  -29.8750   23.6820 C   0  0  0  0  0  3  0  0  0  0  0  0
  -16.6820  -28.6110   23.0920 C   0  0  0  0  0  3  0  0  0  0  0  0
  -25.8480  -32.4630   23.8250 C   0  0  0  0  0  3  0  0  0  0  0  0
  -25.5440  -33.8600   24.1610 N   0  0  0  0  0  0  0  0  0  0  0  0
  -25.8900  -34.9150   23.4100 C   0  0  0  0  0  0  0  0  0  0  0  0
  -26.5680  -34.8150   22.3830 O   0  0  0  0  0  0  0  0  0  0  0  0
  -24.9290  -34.0130   24.9460 H   0  0  0  0  0  0  0  0  0  0  0  0
  -24.1740  -36.7200   23.0510 C   0  0  0  0  0  1  0  0  0  0  0  0
  -25.4040  -36.3020   23.8710 C   0  0  0  0  0  3  0  0  0  0  0  0
  -27.5400  -37.1650   24.7210 C   0  0  0  0  0  1  0  0  0  0  0  0
  -26.4430  -37.3510   23.7760 N   0  0  0  0  0  0  0  0  0  0  0  0
  -26.0400  -38.2700   23.9340 H   0  0  0  0  0  0  0  0  0  0  0  0
  -26.3710  -31.6820   25.0930 C   0  0  1  0  0  0  0  0  0  0  0  0
  -25.2820  -31.4480   26.1640 C   0  0  0  0  0  1  0  0  0  0  0  0
  -26.9460  -30.3020   24.6960 C   0  0  0  0  0  1  0  0  0  0  0  0
  -27.5250  -32.4710   25.7580 C   0  0  0  0  0  1  0  0  0  0  0  0
  1  4  1  0
  2  1  2  0
  3  5  2  0
  3  2  1  0
  4 55  1  0
  5  8  1  0
  6  2  1  0
  7  5  1  0
  8  4  2  0
 10  9  1  0
 10  3  1  0
 10 11  1  0
 11 12  1  0
 12 14  1  0
 12 16  1  0
 13 12  1  0
 16 15  1  0
 17 25  1  0
 18 23  1  0
 19 20  1  0
 19 18  1  0
 21 20  1  0
 21 30  1  0
 21 22  1  0
 23 17  1  0
 23 22  1  0
 24 17  2  0
 25 16  1  0
 25 26  1  0
 27 28  2  0
 28 47  1  0
 29 28  1  0
 29 32  1  0
 30 27  1  0
 30 31  1  0
 31 29  2  0
 32 33  1  0
 33 34  2  0
 35 38  1  0
 35 34  1  0
 36 35  2  0
 37 36  1  0
 37 32  2  0
 38 39  1  0
 39 40  1  0
 40 41  2  0
 42 41  1  0
 42 46  1  0
 43 42  2  0
 44 39  2  0
 44 43  1  0
 45 44  1  0
 47 48  1  0
 48 51  1  0
 48 50  1  0
 49 47  2  0
 52 53  1  0
 52 27  1  0
 54 52  1  0
 56 55  1  0
 57 56  1  0
 58 61  1  0
 58 57  1  0
 58 60  1  0
 59 58  1  0
 61 62  1  0
 62 63  1  0
 63 64  1  0
 64 66  1  0
 65 76  2  0
 66 71  1  0
 67 75  1  0
 67 77  1  0
 68 74  1  0
 68 70  1  0
 69 75  1  0
 70 69  1  0
 71 70  2  0
 72 73  1  0
 72 66  2  0
 73 68  2  0
 74 67  1  0
 75 65  1  0
 77 79  2  0
 78 77  1  0
 80 78  1  0
 81 90  2  0
 81 86  1  0
 82 78  1  0
 82 86  1  0
 83 82  1  0
 84 85  1  0
 84 83  1  0
 85 81  1  0
 86 87  2  0
 87 88  1  0
 89 88  2  0
 90 89  1  0
 91 65  1  0
 91 92  1  0
 91101  1  0
 92 95  1  0
 93 97  1  0
 93 92  1  0
 94 93  2  0
 97 96  1  0
 99 97  1  0
 99100  1  0
 99 98  1  0
101104  1  1
101102  1  0
103101  1  0
M  ISO  4  17 100  25 100  63 101  64 101
M  END
>  <TORSDO>  (13) 
F 27

>  <SCORE>  (13) 
-11.696

>  <name>  (13) 
12

>  <ligand_id>  (13) 
12

>  <original_smiles>  (13) 
[H]c1c([H])c([H])c2c(c1[H])C([H])([H])C([H])([H])C([H])([H])C2([H])N([H])C(=O)C1([H])N(C(=O)C([H])(N([H])C(=O)C([H])(N([H])C([H])([H])[H])C([H])([H])[H])C(C([H])([H])[H])(C([H])([H])[H])C([H])([H])[H])C([H])([H])c2c([H])c(OC([H])([H])C([H])([H])C([H])([H])[N+]([H])([H])C([H])([H])C([H])([H])C([H])([H])c3nc(C([H])([H])[H])c(C([H])(C([H])([H])[H])C([H])([H])[N+]([H])([H])C([H])(N([H])C(=O)N4C([H])([H])C([H])([H])C([H])([H])C([H])(n5nc(-c6c([H])c([H])c(Oc7c([H])c([H])c(F)c([H])c7F)c([H])c6[H])c(C(=O)N([H])[H])c5N([H])[H])C4([H])[H])C([H])([H])[H])c(C([H])([H])[H])c3[H])c([H])c([H])c2C1([H])[H]

>  <smiles>  (13) 
[H]c1c([H])c([H])c2c(c1[H])C([H])([H])C([H])([H])C([H])([H])C2([H])N([H])C(=O)C1([H])N(C(=O)C([H])(N([H])C(=O)C([H])(N([H])C([H])([H])[H])C([H])([H])[H])C(C([H])([H])[H])(C([H])([H])[H])C([H])([H])[H])C([H])([H])c2c([H])c(OC([H])([H])C([H])([H])C([H])([H])[N+]([H])([H])C([H])([H])C([H])([H])C([H])([H])c3nc(C([H])([H])[H])c(C([H])(C([H])([H])[H])C([H])([H])[N+]([H])([H])C([H])(N([H])C(=O)N4C([H])([H])C([H])([H])C([H])([H])C([H])(n5nc(-c6c([H])c([H])c(Oc7c([H])c([H])c(F)c([H])c7F)c([H])c6[H])c(C(=O)N([H])[H])c5N([H])[H])C4([H])[H])C([H])([H])[H])c(C([H])([H])[H])c3[H])c([H])c([H])c2C1([H])[H]

$$$$
13:0:0
     RDKit          3D

 97106  0  0  1  0  0  0  0  0999 V2000
  -26.5310  -22.3380   17.6780 C   0  0  0  0  0  2  0  0  0  0  0  0
  -26.7170  -23.7250   17.0580 C   0  0  0  0  0  2  0  0  0  0  0  0
  -28.8010  -23.0420   18.0640 C   0  0  0  0  0  2  0  0  0  0  0  0
  -27.9540  -21.7750   17.8650 C   0  0  0  0  0  3  0  0  0  0  0  0
  -28.1210  -24.1270   17.3090 N   0  0  2  0  0  4  0  0  0  0  0  0
  -28.5340  -24.0830   16.3840 H   0  0  0  0  0  0  0  0  0  0  0  0
  -27.3720  -20.9610   20.2800 C   0  0  0  0  0  1  0  0  0  0  0  0
  -28.1050  -20.6650   18.9550 C   0  0  0  0  0  3  0  0  0  0  0  0
  -29.5850  -20.2850   19.2590 C   0  0  0  0  0  2  0  0  0  0  0  0
  -29.8920  -18.7720   19.2350 C   0  0  0  0  0  2  0  0  0  0  0  0
  -32.2510  -18.5920   21.9850 C   0  0  0  0  0  3  0  0  0  0  0  0
  -32.7410  -17.5370   21.1750 C   0  0  0  0  0  3  0  0  0  0  0  0
  -31.1580  -19.1080   21.3570 C   0  0  0  0  0  3  0  0  0  0  0  0
  -31.9460  -17.4300   20.0660 C   0  0  0  0  0  0  0  0  0  0  0  0
  -30.9730  -18.4330   20.1580 N   0  0  0  0  0  0  0  0  0  0  0  0
  -32.0220  -16.3650   19.0070 C   0  0  0  0  0  2  0  0  0  0  0  0
  -32.4790  -13.9350   19.4960 C   0  0  0  0  0  0  0  0  0  0  0  0
  -32.0810  -11.5070   19.5090 C   0  0  0  0  0  2  0  0  0  0  0  0
  -31.0870  -11.1740   18.3780 C   0  0  0  0  0  2  0  0  0  0  0  0
  -29.6230  -11.3630   18.8330 C   0  0  0  0  0  2  0  0  0  0  0  0
  -29.3810  -12.7210   19.5460 C   0  0  0  0  0  3  0  0  0  0  0  0
  -30.4640  -12.9420   20.6280 C   0  0  0  0  0  2  0  0  0  0  0  0
  -31.7870  -12.8680   19.9750 N   0  0  0  0  0  0  0  0  0  0  0  0
  -33.5380  -13.8460   18.8630 O   0  0  0  0  0  0  0  0  0  0  0  0
  -31.8450  -15.0960   19.6860 N   0  0  0  0  0  0  0  0  0  0  0  0
  -31.0340  -15.0600   20.2820 H   0  0  0  0  0  0  0  0  0  0  0  0
  -27.2940  -13.9220   20.4710 C   0  0  0  0  0  0  0  0  0  0  0  0
  -26.0690  -13.4540   20.8630 C   0  0  0  0  0  0  0  0  0  0  0  0
  -26.1110  -12.0360   20.6830 C   0  0  0  0  0  0  0  0  0  0  0  0
  -28.0270  -12.8010   20.0960 N   0  0  0  0  0  0  0  0  0  0  0  0
  -27.3150  -11.6600   20.2700 N   0  0  0  0  0  0  0  0  0  0  0  0
  -25.0590  -11.0250   20.8320 C   0  0  0  0  0  0  0  0  0  0  0  0
  -25.2740   -9.8370   21.5660 C   0  0  0  0  0  3  0  0  0  0  0  0
  -24.2390   -8.8890   21.7090 C   0  0  0  0  0  3  0  0  0  0  0  0
  -22.9740   -9.1230   21.1240 C   0  0  0  0  0  0  0  0  0  0  0  0
  -22.7730  -10.2960   20.3740 C   0  0  0  0  0  3  0  0  0  0  0  0
  -23.8040  -11.2370   20.2260 C   0  0  0  0  0  3  0  0  0  0  0  0
  -21.9200   -8.2430   21.1890 O   0  0  0  0  0  0  0  0  0  0  0  0
  -21.7860   -7.3550   22.2250 C   0  0  0  0  0  0  0  0  0  0  0  0
  -21.6910   -7.7860   23.5670 C   0  0  0  0  0  3  0  0  0  0  0  0
  -21.4860   -6.8450   24.5980 C   0  0  0  0  0  3  0  0  0  0  0  0
  -21.3670   -5.4770   24.2880 C   0  0  0  0  0  0  0  0  0  0  0  0
  -21.4560   -5.0470   22.9540 C   0  0  0  0  0  3  0  0  0  0  0  0
  -21.6620   -5.9830   21.9250 C   0  0  0  0  0  0  0  0  0  0  0  0
  -21.7250   -5.5640   20.6390 F   0  0  0  0  0  0  0  0  0  0  0  0
  -21.1630   -4.5750   25.2770 F   0  0  0  0  0  0  0  0  0  0  0  0
  -24.8890  -14.2770   21.2920 C   0  0  0  0  0  0  0  0  0  0  0  0
  -24.1020  -13.7730   22.2360 N   0  0  0  0  0  0  0  0  0  0  0  0
  -24.6850  -15.3970   20.8240 O   0  0  0  0  0  0  0  0  0  0  0  0
  -24.2850  -12.8660   22.6380 H   0  0  0  0  0  0  0  0  0  0  0  0
  -23.3040  -14.2980   22.5650 H   0  0  0  0  0  0  0  0  0  0  0  0
  -27.8420  -15.1980   20.3940 N   0  0  0  0  0  0  0  0  0  0  0  0
  -27.3210  -16.0170   20.6920 H   0  0  0  0  0  0  0  0  0  0  0  0
  -28.7940  -15.4030   20.1190 H   0  0  0  0  0  0  0  0  0  0  0  0
  -28.3360  -25.5420   17.7530 C   0  0  0  0  0  2  0  0  0  0  0  0
  -28.2080  -25.8050   19.2740 C   0  0  0  0  0  2  0  0  0  0  0  0
  -28.2550  -27.1980   19.5950 O   0  0  0  0  0  0  0  0  0  0  0  0
  -24.5620  -31.9450   23.3950 C   0  0  0  0  0  0  0  0  0  0  0  0
  -27.0600  -27.8770   19.7250 C   0  0  0  0  0  0  0  0  0  0  0  0
  -23.2840  -30.7250   21.6660 C   0  0  0  0  0  3  0  0  0  0  0  0
  -24.6650  -29.3500   20.0220 C   0  0  0  0  0  0  0  0  0  0  0  0
  -25.7960  -31.1020   21.4030 C   0  0  0  0  0  2  0  0  0  0  0  0
  -25.8470  -29.8130   20.6120 C   0  0  0  0  0  0  0  0  0  0  0  0
  -27.0450  -29.0780   20.4680 C   0  0  0  0  0  3  0  0  0  0  0  0
  -25.8560  -27.4350   19.1260 C   0  0  0  0  0  3  0  0  0  0  0  0
  -24.6590  -28.1570   19.2820 C   0  0  0  0  0  3  0  0  0  0  0  0
  -23.4280  -30.1930   20.2140 C   0  0  0  0  0  2  0  0  0  0  0  0
  -24.5680  -31.2630   22.2160 N   0  0  0  0  0  0  0  0  0  0  0  0
  -23.5050  -32.1630   24.0030 O   0  0  0  0  0  0  0  0  0  0  0  0
  -22.6630  -29.6120   22.5390 C   0  0  0  0  0  0  0  0  0  0  0  0
  -21.3390  -29.4310   22.4240 N   0  0  0  0  0  0  0  0  0  0  0  0
  -23.3710  -28.9140   23.2720 O   0  0  0  0  0  0  0  0  0  0  0  0
  -20.8160  -30.0600   21.8280 H   0  0  0  0  0  0  0  0  0  0  0  0
  -18.0080  -28.0760   22.8060 C   0  0  0  0  0  0  0  0  0  0  0  0
  -20.5510  -28.4070   23.1130 C   0  0  0  0  0  3  0  0  0  0  0  0
  -20.7160  -27.0310   22.4300 C   0  0  0  0  0  2  0  0  0  0  0  0
  -19.6280  -26.7380   21.3960 C   0  0  0  0  0  2  0  0  0  0  0  0
  -18.2420  -26.7800   22.0500 C   0  0  0  0  0  2  0  0  0  0  0  0
  -19.0970  -28.8470   23.2920 C   0  0  0  0  0  0  0  0  0  0  0  0
  -18.8360  -30.0580   23.9640 C   0  0  0  0  0  3  0  0  0  0  0  0
  -17.5150  -30.5030   24.1540 C   0  0  0  0  0  3  0  0  0  0  0  0
  -16.4370  -29.7330   23.6850 C   0  0  0  0  0  3  0  0  0  0  0  0
  -16.6840  -28.5210   23.0150 C   0  0  0  0  0  3  0  0  0  0  0  0
  -25.8810  -32.5020   24.0190 C   0  0  0  0  0  3  0  0  0  0  0  0
  -25.6590  -33.9220   24.3200 N   0  0  0  0  0  0  0  0  0  0  0  0
  -26.0870  -34.9350   23.5550 C   0  0  0  0  0  0  0  0  0  0  0  0
  -26.7800  -34.7700   22.5480 O   0  0  0  0  0  0  0  0  0  0  0  0
  -25.0500  -34.1320   25.0970 H   0  0  0  0  0  0  0  0  0  0  0  0
  -24.5040  -36.8390   23.1090 C   0  0  0  0  0  1  0  0  0  0  0  0
  -25.6810  -36.3600   23.9750 C   0  0  0  0  0  3  0  0  0  0  0  0
  -27.8350  -37.1160   24.8820 C   0  0  0  0  0  1  0  0  0  0  0  0
  -26.7890  -37.3360   23.8870 N   0  0  0  0  0  0  0  0  0  0  0  0
  -26.4430  -38.2840   24.0000 H   0  0  0  0  0  0  0  0  0  0  0  0
  -26.3360  -31.7200   25.3130 C   0  0  1  0  0  0  0  0  0  0  0  0
  -25.2280  -31.5870   26.3840 C   0  0  0  0  0  1  0  0  0  0  0  0
  -26.8140  -30.2940   24.9520 C   0  0  0  0  0  1  0  0  0  0  0  0
  -27.5410  -32.4390   25.9640 C   0  0  0  0  0  1  0  0  0  0  0  0
  1  4  1  0
  2  5  1  0
  2  1  1  0
  4  3  1  0
  4  8  1  0
  5 55  1  0
  5  3  1  0
  5  6  1  6
  8  9  1  0
  8  7  1  0
 10  9  1  0
 10 15  1  0
 12 11  1  0
 13 11  2  0
 14 15  1  0
 14 12  2  0
 15 13  1  0
 16 25  1  0
 16 14  1  0
 17 25  1  0
 17 23  1  0
 18 23  1  0
 19 20  1  0
 19 18  1  0
 21 20  1  0
 21 30  1  0
 21 22  1  0
 23 22  1  0
 24 17  2  0
 25 26  1  0
 27 28  2  0
 28 47  1  0
 29 32  1  0
 29 28  1  0
 30 31  1  0
 30 27  1  0
 31 29  2  0
 32 33  1  0
 33 34  2  0
 35 38  1  0
 35 34  1  0
 36 35  2  0
 37 36  1  0
 37 32  2  0
 38 39  1  0
 39 40  1  0
 40 41  2  0
 42 41  1  0
 42 46  1  0
 43 42  2  0
 44 39  2  0
 44 43  1  0
 45 44  1  0
 47 48  1  0
 48 51  1  0
 48 50  1  0
 49 47  2  0
 52 27  1  0
 52 53  1  0
 54 52  1  0
 55 56  1  0
 56 57  1  0
 57 59  1  0
 58 69  2  0
 59 64  1  0
 60 68  1  0
 60 70  1  0
 61 67  1  0
 61 63  1  0
 62 68  1  0
 63 62  1  0
 64 63  2  0
 65 66  1  0
 65 59  2  0
 66 61  2  0
 67 60  1  0
 68 58  1  0
 70 72  2  0
 71 70  1  0
 73 71  1  0
 74 83  2  0
 74 79  1  0
 75 71  1  0
 75 79  1  0
 76 75  1  0
 77 78  1  0
 77 76  1  0
 78 74  1  0
 79 80  2  0
 80 81  1  0
 82 81  2  0
 83 82  1  0
 84 58  1  0
 84 85  1  0
 84 94  1  0
 85 88  1  0
 86 90  1  0
 86 85  1  0
 87 86  2  0
 90 89  1  0
 92 90  1  0
 92 93  1  0
 92 91  1  0
 94 97  1  1
 94 95  1  0
 96 94  1  0
M  ISO  4  17 100  25 100  56 101  57 101
M  END
>  <TORSDO>  (14) 
F 23

>  <SCORE>  (14) 
-9.577

>  <name>  (14) 
13

>  <ligand_id>  (14) 
13

>  <original_smiles>  (14) 
[H]c1c([H])c([H])c2c(c1[H])C([H])([H])C([H])([H])C([H])([H])C2([H])N([H])C(=O)C1([H])N(C(=O)C([H])(N([H])C(=O)C([H])(N([H])C([H])([H])[H])C([H])([H])[H])C(C([H])([H])[H])(C([H])([H])[H])C([H])([H])[H])C([H])([H])c2c([H])c(OC([H])([H])C([H])([H])[N+]3([H])C([H])([H])C([H])([H])C([H])(C([H])(C([H])([H])[H])C([H])([H])C([H])([H])n4c([H])c([H])c([H])c4C([H])([H])N([H])C(=O)N4C([H])([H])C([H])([H])C([H])([H])C([H])(n5nc(-c6c([H])c([H])c(Oc7c([H])c([H])c(F)c([H])c7F)c([H])c6[H])c(C(=O)N([H])[H])c5N([H])[H])C4([H])[H])C3([H])[H])c([H])c([H])c2C1([H])[H]

>  <smiles>  (14) 
[H]c1c([H])c([H])c2c(c1[H])C([H])([H])C([H])([H])C([H])([H])C2([H])N([H])C(=O)C1([H])N(C(=O)C([H])(N([H])C(=O)C([H])(N([H])C([H])([H])[H])C([H])([H])[H])C(C([H])([H])[H])(C([H])([H])[H])C([H])([H])[H])C([H])([H])c2c([H])c(OC([H])([H])C([H])([H])[N+]3([H])C([H])([H])C([H])([H])C([H])(C([H])(C([H])([H])[H])C([H])([H])C([H])([H])n4c([H])c([H])c([H])c4C([H])([H])N([H])C(=O)N4C([H])([H])C([H])([H])C([H])([H])C([H])(n5nc(-c6c([H])c([H])c(Oc7c([H])c([H])c(F)c([H])c7F)c([H])c6[H])c(C(=O)N([H])[H])c5N([H])[H])C4([H])[H])C3([H])[H])c([H])c([H])c2C1([H])[H]

$$$$
14:0:0
     RDKit          3D

 93101  0  0  1  0  0  0  0  0999 V2000
  -30.9220  -21.4380   19.2560 C   0  0  0  0  0  3  0  0  0  0  0  0
  -29.7010  -20.9070   19.7610 C   0  0  0  0  0  0  0  0  0  0  0  0
  -30.9630  -22.7860   19.4850 C   0  0  0  0  0  0  0  0  0  0  0  0
  -29.0370  -21.9780   20.3280 C   0  0  0  0  0  0  0  0  0  0  0  0
  -32.0220  -23.7800   19.1100 C   0  0  0  0  0  1  0  0  0  0  0  0
  -27.7010  -22.0130   21.0080 C   0  0  0  0  0  1  0  0  0  0  0  0
  -29.8040  -23.1430   20.1630 N   0  0  0  0  0  0  0  0  0  0  0  0
  -29.2090  -19.4620   19.5490 C   0  0  0  0  0  2  0  0  0  0  0  0
  -29.7810  -18.2980   20.4180 C   0  0  0  0  0  0  0  0  0  0  0  0
  -29.8530  -18.4330   21.6430 O   0  0  0  0  0  0  0  0  0  0  0  0
  -29.6040  -16.7530   18.3120 C   0  0  0  0  0  1  0  0  0  0  0  0
  -30.2190  -16.9620   19.7140 C   0  0  0  0  0  3  0  0  0  0  0  0
  -30.7930  -14.6120   20.4220 C   0  0  0  0  0  0  0  0  0  0  0  0
  -30.5140  -12.4050   19.3790 C   0  0  0  0  0  2  0  0  0  0  0  0
  -29.6000  -12.5950   18.1500 C   0  0  0  0  0  2  0  0  0  0  0  0
  -28.1150  -12.4820   18.5510 C   0  0  0  0  0  2  0  0  0  0  0  0
  -27.7590  -13.3240   19.8110 C   0  0  0  0  0  3  0  0  0  0  0  0
  -28.8060  -13.1420   20.9370 C   0  0  0  0  0  2  0  0  0  0  0  0
  -30.1320  -13.4240   20.3720 N   0  0  0  0  0  0  0  0  0  0  0  0
  -31.9760  -14.7200   20.0900 O   0  0  0  0  0  0  0  0  0  0  0  0
  -30.0070  -15.7140   20.5050 N   0  0  0  0  0  0  0  0  0  0  0  0
  -29.0710  -15.5620   20.8480 H   0  0  0  0  0  0  0  0  0  0  0  0
  -25.3590  -13.9340   20.5050 C   0  0  0  0  0  0  0  0  0  0  0  0
  -24.2880  -13.1640   20.8700 C   0  0  0  0  0  0  0  0  0  0  0  0
  -24.7470  -11.8140   20.8530 C   0  0  0  0  0  0  0  0  0  0  0  0
  -26.4050  -13.0490   20.2860 N   0  0  0  0  0  0  0  0  0  0  0  0
  -26.0400  -11.7700   20.5550 N   0  0  0  0  0  0  0  0  0  0  0  0
  -24.0180  -10.5530   21.0390 C   0  0  0  0  0  0  0  0  0  0  0  0
  -24.4380   -9.5900   21.9830 C   0  0  0  0  0  3  0  0  0  0  0  0
  -23.7070   -8.3960   22.1590 C   0  0  0  0  0  3  0  0  0  0  0  0
  -22.5420   -8.1540   21.3930 C   0  0  0  0  0  0  0  0  0  0  0  0
  -22.1430   -9.1060   20.4380 C   0  0  0  0  0  3  0  0  0  0  0  0
  -22.8740  -10.2910   20.2580 C   0  0  0  0  0  3  0  0  0  0  0  0
  -21.7860   -7.0090   21.4740 O   0  0  0  0  0  0  0  0  0  0  0  0
  -21.7170   -6.2740   22.6320 C   0  0  0  0  0  0  0  0  0  0  0  0
  -21.2460   -6.8300   23.8420 C   0  0  0  0  0  3  0  0  0  0  0  0
  -21.1260   -6.0210   24.9900 C   0  0  0  0  0  3  0  0  0  0  0  0
  -21.4660   -4.6570   24.9280 C   0  0  0  0  0  0  0  0  0  0  0  0
  -21.9300   -4.1000   23.7240 C   0  0  0  0  0  3  0  0  0  0  0  0
  -22.0520   -4.9070   22.5780 C   0  0  0  0  0  0  0  0  0  0  0  0
  -22.4770   -4.3600   21.4150 F   0  0  0  0  0  0  0  0  0  0  0  0
  -21.3440   -3.8770   26.0270 F   0  0  0  0  0  0  0  0  0  0  0  0
  -22.8900  -13.6470   21.1240 C   0  0  0  0  0  0  0  0  0  0  0  0
  -22.1490  -12.9560   21.9830 N   0  0  0  0  0  0  0  0  0  0  0  0
  -22.4640  -14.6740   20.5950 O   0  0  0  0  0  0  0  0  0  0  0  0
  -22.5080  -12.1280   22.4370 H   0  0  0  0  0  0  0  0  0  0  0  0
  -21.2080  -13.2610   22.1860 H   0  0  0  0  0  0  0  0  0  0  0  0
  -25.5270  -15.3020   20.3210 N   0  0  0  0  0  0  0  0  0  0  0  0
  -24.7520  -15.9480   20.4130 H   0  0  0  0  0  0  0  0  0  0  0  0
  -26.3680  -15.7420   19.9720 H   0  0  0  0  0  0  0  0  0  0  0  0
  -29.4940  -24.5140   20.6470 C   0  0  0  0  0  2  0  0  0  0  0  0
  -28.5560  -25.3590   19.7430 C   0  0  0  0  0  2  0  0  0  0  0  0
  -28.4900  -26.7340   20.1990 O   0  0  0  0  0  0  0  0  0  0  0  0
  -24.5880  -31.8740   23.2550 C   0  0  0  0  0  0  0  0  0  0  0  0
  -27.2990  -27.4480   20.1600 C   0  0  0  0  0  0  0  0  0  0  0  0
  -23.4160  -30.4820   21.5820 C   0  0  0  0  0  3  0  0  0  0  0  0
  -24.8990  -28.9690   20.1610 C   0  0  0  0  0  0  0  0  0  0  0  0
  -25.9500  -30.8390   21.4380 C   0  0  0  0  0  2  0  0  0  0  0  0
  -26.0460  -29.4780   20.7790 C   0  0  0  0  0  0  0  0  0  0  0  0
  -27.2430  -28.7210   20.7840 C   0  0  0  0  0  3  0  0  0  0  0  0
  -26.1280  -26.9680   19.5260 C   0  0  0  0  0  3  0  0  0  0  0  0
  -24.9340  -27.7110   19.5380 C   0  0  0  0  0  3  0  0  0  0  0  0
  -23.6520  -29.8240   20.1970 C   0  0  0  0  0  2  0  0  0  0  0  0
  -24.6690  -31.0800   22.1480 N   0  0  0  0  0  0  0  0  0  0  0  0
  -23.4950  -32.1350   23.7790 O   0  0  0  0  0  0  0  0  0  0  0  0
  -22.7590  -29.4440   22.5190 C   0  0  0  0  0  0  0  0  0  0  0  0
  -21.4430  -29.2300   22.3510 N   0  0  0  0  0  0  0  0  0  0  0  0
  -23.4310  -28.8330   23.3550 O   0  0  0  0  0  0  0  0  0  0  0  0
  -20.9590  -29.7790   21.6530 H   0  0  0  0  0  0  0  0  0  0  0  0
  -18.0870  -27.9460   22.7320 C   0  0  0  0  0  0  0  0  0  0  0  0
  -20.6260  -28.2750   23.0980 C   0  0  0  0  0  3  0  0  0  0  0  0
  -20.7910  -26.8440   22.5340 C   0  0  0  0  0  2  0  0  0  0  0  0
  -19.7380  -26.4850   21.4830 C   0  0  0  0  0  2  0  0  0  0  0  0
  -18.3290  -26.5990   22.0720 C   0  0  0  0  0  2  0  0  0  0  0  0
  -19.1700  -28.7400   23.2000 C   0  0  0  0  0  0  0  0  0  0  0  0
  -18.8960  -30.0010   23.7730 C   0  0  0  0  0  3  0  0  0  0  0  0
  -17.5730  -30.4690   23.8850 C   0  0  0  0  0  3  0  0  0  0  0  0
  -16.5050  -29.6720   23.4340 C   0  0  0  0  0  3  0  0  0  0  0  0
  -16.7640  -28.4140   22.8640 C   0  0  0  0  0  3  0  0  0  0  0  0
  -25.8600  -32.5100   23.8970 C   0  0  0  0  0  3  0  0  0  0  0  0
  -25.5420  -33.9070   24.2150 N   0  0  0  0  0  0  0  0  0  0  0  0
  -25.8810  -34.9570   23.4520 C   0  0  0  0  0  0  0  0  0  0  0  0
  -26.5630  -34.8490   22.4300 O   0  0  0  0  0  0  0  0  0  0  0  0
  -24.9370  -34.0670   25.0070 H   0  0  0  0  0  0  0  0  0  0  0  0
  -24.1520  -36.7410   23.0630 C   0  0  0  0  0  1  0  0  0  0  0  0
  -25.3830  -36.3460   23.8950 C   0  0  0  0  0  3  0  0  0  0  0  0
  -27.4990  -37.2460   24.7540 C   0  0  0  0  0  1  0  0  0  0  0  0
  -26.4130  -37.4010   23.7910 N   0  0  0  0  0  0  0  0  0  0  0  0
  -25.9990  -38.3200   23.9240 H   0  0  0  0  0  0  0  0  0  0  0  0
  -26.3550  -31.7450   25.1860 C   0  0  1  0  0  0  0  0  0  0  0  0
  -25.2430  -31.5070   26.2320 C   0  0  0  0  0  1  0  0  0  0  0  0
  -26.9510  -30.3680   24.8090 C   0  0  0  0  0  1  0  0  0  0  0  0
  -27.4860  -32.5470   25.8700 C   0  0  0  0  0  1  0  0  0  0  0  0
  1  3  2  0
  1  2  1  0
  2  4  2  0
  3  7  1  0
  4  6  1  0
  5  3  1  0
  7  4  1  0
  7 51  1  0
  8  2  1  0
  8  9  1  0
  9 10  2  0
 12 11  1  0
 12  9  1  0
 12 21  1  0
 13 21  1  0
 14 19  1  0
 15 16  1  0
 15 14  1  0
 17 16  1  0
 17 26  1  0
 17 18  1  0
 19 13  1  0
 19 18  1  0
 20 13  2  0
 21 22  1  0
 23 24  2  0
 24 43  1  0
 25 24  1  0
 25 28  1  0
 26 23  1  0
 26 27  1  0
 27 25  2  0
 28 29  1  0
 29 30  2  0
 31 34  1  0
 31 30  1  0
 32 31  2  0
 33 32  1  0
 33 28  2  0
 34 35  1  0
 35 36  1  0
 36 37  2  0
 38 37  1  0
 38 42  1  0
 39 38  2  0
 40 35  2  0
 40 39  1  0
 41 40  1  0
 43 44  1  0
 44 47  1  0
 44 46  1  0
 45 43  2  0
 48 49  1  0
 48 23  1  0
 50 48  1  0
 52 53  1  0
 52 51  1  0
 54 65  2  0
 55 53  1  0
 55 60  1  0
 56 64  1  0
 56 66  1  0
 57 63  1  0
 57 59  1  0
 58 64  1  0
 59 60  2  0
 59 58  1  0
 61 62  1  0
 61 55  2  0
 62 57  2  0
 63 56  1  0
 64 54  1  0
 66 68  2  0
 67 66  1  0
 69 67  1  0
 70 79  2  0
 70 75  1  0
 71 67  1  0
 71 75  1  0
 72 71  1  0
 73 74  1  0
 73 72  1  0
 74 70  1  0
 75 76  2  0
 76 77  1  0
 78 77  2  0
 79 78  1  0
 80 54  1  0
 80 81  1  0
 80 90  1  0
 81 84  1  0
 82 86  1  0
 82 81  1  0
 83 82  2  0
 86 85  1  0
 88 86  1  0
 88 89  1  0
 88 87  1  0
 90 93  1  1
 90 91  1  0
 92 90  1  0
M  ISO  4  13 100  21 100  52 101  53 101
M  END
>  <TORSDO>  (15) 
F 21

>  <SCORE>  (15) 
-12.988

>  <name>  (15) 
14

>  <ligand_id>  (15) 
14

>  <original_smiles>  (15) 
[H]c1c([H])c([H])c2c(c1[H])C([H])([H])C([H])([H])C([H])([H])C2([H])N([H])C(=O)C1([H])N(C(=O)C([H])(N([H])C(=O)C([H])(N([H])C([H])([H])[H])C([H])([H])[H])C(C([H])([H])[H])(C([H])([H])[H])C([H])([H])[H])C([H])([H])c2c([H])c(OC([H])([H])C([H])([H])n3c(C([H])([H])[H])c([H])c(C([H])([H])C(=O)C([H])(N([H])C(=O)N4C([H])([H])C([H])([H])C([H])([H])C([H])(n5nc(-c6c([H])c([H])c(Oc7c([H])c([H])c(F)c([H])c7F)c([H])c6[H])c(C(=O)N([H])[H])c5N([H])[H])C4([H])[H])C([H])([H])[H])c3C([H])([H])[H])c([H])c([H])c2C1([H])[H]

>  <smiles>  (15) 
[H]c1c([H])c([H])c2c(c1[H])C([H])([H])C([H])([H])C([H])([H])C2([H])N([H])C(=O)C1([H])N(C(=O)C([H])(N([H])C(=O)C([H])(N([H])C([H])([H])[H])C([H])([H])[H])C(C([H])([H])[H])(C([H])([H])[H])C([H])([H])[H])C([H])([H])c2c([H])c(OC([H])([H])C([H])([H])n3c(C([H])([H])[H])c([H])c(C([H])([H])C(=O)C([H])(N([H])C(=O)N4C([H])([H])C([H])([H])C([H])([H])C([H])(n5nc(-c6c([H])c([H])c(Oc7c([H])c([H])c(F)c([H])c7F)c([H])c6[H])c(C(=O)N([H])[H])c5N([H])[H])C4([H])[H])C([H])([H])[H])c3C([H])([H])[H])c([H])c([H])c2C1([H])[H]

$$$$
15:0:0
     RDKit          3D

 91 99  0  0  1  0  0  0  0  0999 V2000
  -29.6430  -23.0660   18.8130 C   0  0  0  0  0  2  0  0  0  0  0  0
  -29.7980  -21.5220   18.9830 C   0  0  0  0  0  2  0  0  0  0  0  0
  -29.0070  -22.4720   21.0860 C   0  0  0  0  0  2  0  0  0  0  0  0
  -28.6320  -23.4440   19.8990 C   0  0  0  0  0  3  0  0  0  0  0  0
  -29.8560  -21.2300   20.5080 C   0  0  2  0  0  0  0  0  0  0  0  0
  -31.3180  -21.3800   20.9790 C   0  0  0  0  0  1  0  0  0  0  0  0
  -29.3740  -19.8320   20.9360 N   0  0  0  0  0  4  0  0  0  0  0  0
  -28.3670  -19.8550   20.9350 H   0  0  0  0  0  0  0  0  0  0  0  0
  -29.6370  -19.7210   21.9020 H   0  0  0  0  0  0  0  0  0  0  0  0
  -29.7400  -18.5220   20.2180 C   0  0  0  0  0  2  0  0  0  0  0  0
  -30.0840  -17.2420   21.1460 C   0  0  0  0  0  2  0  0  0  0  0  0
  -30.5840  -14.7180   20.4350 C   0  0  0  0  0  0  0  0  0  0  0  0
  -30.3780  -12.4630   19.3720 C   0  0  0  0  0  2  0  0  0  0  0  0
  -29.4310  -12.5450   18.1550 C   0  0  0  0  0  2  0  0  0  0  0  0
  -27.9600  -12.3780   18.5890 C   0  0  0  0  0  2  0  0  0  0  0  0
  -27.5920  -13.2630   19.8090 C   0  0  0  0  0  3  0  0  0  0  0  0
  -28.6530  -13.1490   20.9260 C   0  0  0  0  0  2  0  0  0  0  0  0
  -29.9520  -13.5010   20.3330 N   0  0  0  0  0  0  0  0  0  0  0  0
  -31.7720  -14.8430   20.1330 O   0  0  0  0  0  0  0  0  0  0  0  0
  -29.7890  -15.8120   20.7020 N   0  0  0  0  0  0  0  0  0  0  0  0
  -28.8170  -15.5590   20.7980 H   0  0  0  0  0  0  0  0  0  0  0  0
  -25.2030  -13.8700   20.5290 C   0  0  0  0  0  0  0  0  0  0  0  0
  -24.1340  -13.1010   20.9000 C   0  0  0  0  0  0  0  0  0  0  0  0
  -24.5920  -11.7490   20.8760 C   0  0  0  0  0  0  0  0  0  0  0  0
  -26.2460  -12.9850   20.2990 N   0  0  0  0  0  0  0  0  0  0  0  0
  -25.8840  -11.7040   20.5710 N   0  0  0  0  0  0  0  0  0  0  0  0
  -23.8620  -10.4900   21.0680 C   0  0  0  0  0  0  0  0  0  0  0  0
  -24.3000   -9.5130   21.9900 C   0  0  0  0  0  3  0  0  0  0  0  0
  -23.5690   -8.3190   22.1690 C   0  0  0  0  0  3  0  0  0  0  0  0
  -22.3850   -8.0930   21.4290 C   0  0  0  0  0  0  0  0  0  0  0  0
  -21.9650   -9.0580   20.4970 C   0  0  0  0  0  3  0  0  0  0  0  0
  -22.6970  -10.2430   20.3140 C   0  0  0  0  0  3  0  0  0  0  0  0
  -21.6250   -6.9520   21.5200 O   0  0  0  0  0  0  0  0  0  0  0  0
  -21.6020   -6.1910   22.6610 C   0  0  0  0  0  0  0  0  0  0  0  0
  -21.2280   -6.7330   23.9100 C   0  0  0  0  0  3  0  0  0  0  0  0
  -21.1520   -5.8990   25.0440 C   0  0  0  0  0  3  0  0  0  0  0  0
  -21.4390   -4.5260   24.9300 C   0  0  0  0  0  0  0  0  0  0  0  0
  -21.8070   -3.9840   23.6860 C   0  0  0  0  0  3  0  0  0  0  0  0
  -21.8850   -4.8140   22.5540 C   0  0  0  0  0  0  0  0  0  0  0  0
  -22.2190   -4.2840   21.3530 F   0  0  0  0  0  0  0  0  0  0  0  0
  -21.3580   -3.7230   26.0170 F   0  0  0  0  0  0  0  0  0  0  0  0
  -22.7370  -13.5840   21.1640 C   0  0  0  0  0  0  0  0  0  0  0  0
  -22.0040  -12.8950   22.0310 N   0  0  0  0  0  0  0  0  0  0  0  0
  -22.3050  -14.6080   20.6370 O   0  0  0  0  0  0  0  0  0  0  0  0
  -22.3660  -12.0670   22.4790 H   0  0  0  0  0  0  0  0  0  0  0  0
  -21.0660  -13.2000   22.2500 H   0  0  0  0  0  0  0  0  0  0  0  0
  -25.3710  -15.2390   20.3410 N   0  0  0  0  0  0  0  0  0  0  0  0
  -24.5980  -15.8890   20.4290 H   0  0  0  0  0  0  0  0  0  0  0  0
  -26.2020  -15.6670   19.9580 H   0  0  0  0  0  0  0  0  0  0  0  0
  -27.8770  -24.8860   19.9350 C   0  0  0  0  0  2  0  0  0  0  0  0
  -28.2610  -26.3230   20.1680 O   0  0  0  0  0  0  0  0  0  0  0  0
  -24.6310  -31.8700   23.2300 C   0  0  0  0  0  0  0  0  0  0  0  0
  -27.1830  -27.2580   20.1300 C   0  0  0  0  0  0  0  0  0  0  0  0
  -23.4080  -30.4780   21.6070 C   0  0  0  0  0  3  0  0  0  0  0  0
  -24.8360  -28.9350   20.1590 C   0  0  0  0  0  0  0  0  0  0  0  0
  -25.9560  -30.7730   21.4020 C   0  0  0  0  0  2  0  0  0  0  0  0
  -26.0230  -29.3940   20.7460 C   0  0  0  0  0  0  0  0  0  0  0  0
  -27.2000  -28.5700   20.7220 C   0  0  0  0  0  3  0  0  0  0  0  0
  -25.9580  -26.8870   19.5130 C   0  0  0  0  0  3  0  0  0  0  0  0
  -24.8100  -27.6890   19.5340 C   0  0  0  0  0  3  0  0  0  0  0  0
  -23.6060  -29.8170   20.2230 C   0  0  0  0  0  2  0  0  0  0  0  0
  -24.6850  -31.0570   22.1350 N   0  0  0  0  0  0  0  0  0  0  0  0
  -23.5530  -32.1510   23.7730 O   0  0  0  0  0  0  0  0  0  0  0  0
  -22.7520  -29.4580   22.5690 C   0  0  0  0  0  0  0  0  0  0  0  0
  -21.4240  -29.2790   22.4540 N   0  0  0  0  0  0  0  0  0  0  0  0
  -23.4370  -28.8330   23.3840 O   0  0  0  0  0  0  0  0  0  0  0  0
  -20.9290  -29.8360   21.7710 H   0  0  0  0  0  0  0  0  0  0  0  0
  -18.0530  -28.0670   22.9740 C   0  0  0  0  0  0  0  0  0  0  0  0
  -20.6120  -28.3430   23.2340 C   0  0  0  0  0  3  0  0  0  0  0  0
  -20.7190  -26.9070   22.6690 C   0  0  0  0  0  2  0  0  0  0  0  0
  -19.6160  -26.5710   21.6620 C   0  0  0  0  0  2  0  0  0  0  0  0
  -18.2350  -26.7130   22.3080 C   0  0  0  0  0  2  0  0  0  0  0  0
  -19.1690  -28.8390   23.3950 C   0  0  0  0  0  0  0  0  0  0  0  0
  -18.9450  -30.1040   23.9790 C   0  0  0  0  0  3  0  0  0  0  0  0
  -17.6380  -30.5990   24.1460 C   0  0  0  0  0  3  0  0  0  0  0  0
  -16.5360  -29.8250   23.7410 C   0  0  0  0  0  3  0  0  0  0  0  0
  -16.7450  -28.5610   23.1610 C   0  0  0  0  0  3  0  0  0  0  0  0
  -25.9200  -32.5020   23.8370 C   0  0  0  0  0  3  0  0  0  0  0  0
  -26.4520  -31.7260   25.1040 C   0  0  1  0  0  0  0  0  0  0  0  0
  -25.3720  -31.4870   26.1850 C   0  0  0  0  0  1  0  0  0  0  0  0
  -27.0300  -30.3490   24.7030 C   0  0  0  0  0  1  0  0  0  0  0  0
  -27.6120  -32.5180   25.7530 C   0  0  0  0  0  1  0  0  0  0  0  0
  -25.6120  -33.8980   24.1770 N   0  0  0  0  0  0  0  0  0  0  0  0
  -25.9270  -34.9560   23.4180 C   0  0  0  0  0  0  0  0  0  0  0  0
  -26.5800  -34.8600   22.3760 O   0  0  0  0  0  0  0  0  0  0  0  0
  -25.0320  -34.0480   24.9900 H   0  0  0  0  0  0  0  0  0  0  0  0
  -24.1880  -36.7460   23.1080 C   0  0  0  0  0  1  0  0  0  0  0  0
  -25.4460  -36.3410   23.8920 C   0  0  0  0  0  3  0  0  0  0  0  0
  -27.5950  -37.2260   24.6850 C   0  0  0  0  0  1  0  0  0  0  0  0
  -26.4730  -37.3970   23.7650 N   0  0  0  0  0  0  0  0  0  0  0  0
  -26.0680  -38.3160   23.9260 H   0  0  0  0  0  0  0  0  0  0  0  0
  1  2  1  0
  1  4  1  0
  2  5  1  0
  4 50  1  0
  4  3  1  0
  5  7  1  0
  5  6  1  1
  5  3  1  0
  7  9  1  0
  8  7  1  0
 10  7  1  0
 10 11  1  0
 12 20  1  0
 13 18  1  0
 14 15  1  0
 14 13  1  0
 16 15  1  0
 16 25  1  0
 16 17  1  0
 18 12  1  0
 18 17  1  0
 19 12  2  0
 20 21  1  0
 20 11  1  0
 22 23  2  0
 23 42  1  0
 24 23  1  0
 24 27  1  0
 25 22  1  0
 25 26  1  0
 26 24  2  0
 27 28  1  0
 28 29  2  0
 30 33  1  0
 30 29  1  0
 31 30  2  0
 32 31  1  0
 32 27  2  0
 33 34  1  0
 34 35  1  0
 35 36  2  0
 37 36  1  0
 37 41  1  0
 38 37  2  0
 39 34  2  0
 39 38  1  0
 40 39  1  0
 42 43  1  0
 43 46  1  0
 43 45  1  0
 44 42  2  0
 47 48  1  0
 47 22  1  0
 49 47  1  0
 50 51  1  0
 52 63  2  0
 53 51  1  0
 53 58  1  0
 54 62  1  0
 54 64  1  0
 55 61  1  0
 55 57  1  0
 56 62  1  0
 57 56  1  0
 58 57  2  0
 59 60  1  0
 59 53  2  0
 60 55  2  0
 61 54  1  0
 62 52  1  0
 64 66  2  0
 65 64  1  0
 67 65  1  0
 68 77  2  0
 68 73  1  0
 69 65  1  0
 69 73  1  0
 70 69  1  0
 71 72  1  0
 71 70  1  0
 72 68  1  0
 73 74  2  0
 74 75  1  0
 76 75  2  0
 77 76  1  0
 78 52  1  0
 78 83  1  0
 78 79  1  0
 79 82  1  1
 79 80  1  0
 81 79  1  0
 83 86  1  0
 84 88  1  0
 84 83  1  0
 85 84  2  0
 88 87  1  0
 90 88  1  0
 90 91  1  0
 90 89  1  0
M  ISO  4  12 100  20 100  50 101  51 101
M  END
>  <TORSDO>  (16) 
F 20

>  <SCORE>  (16) 
-13.881

>  <name>  (16) 
15

>  <ligand_id>  (16) 
15

>  <original_smiles>  (16) 
[H]c1c([H])c([H])c2c(c1[H])C([H])([H])C([H])([H])C([H])([H])C2([H])N([H])C(=O)C1([H])N(C(=O)C([H])(N([H])C(=O)C([H])(N([H])C([H])([H])[H])C([H])([H])[H])C(C([H])([H])[H])(C([H])([H])[H])C([H])([H])[H])C([H])([H])c2c([H])c(OC([H])([H])C3([H])C([H])([H])C([H])([H])C(C([H])([H])[H])([N+]([H])([H])C([H])([H])C([H])([H])N([H])C(=O)N4C([H])([H])C([H])([H])C([H])([H])C([H])(n5nc(-c6c([H])c([H])c(Oc7c([H])c([H])c(F)c([H])c7F)c([H])c6[H])c(C(=O)N([H])[H])c5N([H])[H])C4([H])[H])C3([H])[H])c([H])c([H])c2C1([H])[H]

>  <smiles>  (16) 
[H]c1c([H])c([H])c2c(c1[H])C([H])([H])C([H])([H])C([H])([H])C2([H])N([H])C(=O)C1([H])N(C(=O)C([H])(N([H])C(=O)C([H])(N([H])C([H])([H])[H])C([H])([H])[H])C(C([H])([H])[H])(C([H])([H])[H])C([H])([H])[H])C([H])([H])c2c([H])c(OC([H])([H])C3([H])C([H])([H])C([H])([H])C(C([H])([H])[H])([N+]([H])([H])C([H])([H])C([H])([H])N([H])C(=O)N4C([H])([H])C([H])([H])C([H])([H])C([H])(n5nc(-c6c([H])c([H])c(Oc7c([H])c([H])c(F)c([H])c7F)c([H])c6[H])c(C(=O)N([H])[H])c5N([H])[H])C4([H])[H])C3([H])[H])c([H])c([H])c2C1([H])[H]

$$$$
16:0:0
     RDKit          3D

 95 95  0  0  1  0  0  0  0  0999 V2000
  -22.5120  -28.9400   23.6060 N   0  0  0  0  0  4  0  0  0  0  0  0
  -21.7580  -28.6980   24.2270 H   0  0  0  0  0  0  0  0  0  0  0  0
  -22.7620  -29.8810   23.8810 H   0  0  0  0  0  0  0  0  0  0  0  0
  -23.5140  -27.1640   25.4440 C   0  0  0  0  0  1  0  0  0  0  0  0
  -23.9490  -27.9550   24.1880 C   0  0  0  0  0  2  0  0  0  0  0  0
  -25.3750  -25.4940   23.3270 C   0  0  0  0  0  1  0  0  0  0  0  0
  -25.5160  -27.0190   23.2800 C   0  0  0  0  0  2  0  0  0  0  0  0
  -26.9740  -27.0580   22.2750 O   0  0  0  0  0  0  0  0  0  0  0  0
  -24.6470  -31.7060   23.0740 C   0  0  0  0  0  0  0  0  0  0  0  0
  -27.3550  -27.6200   21.0260 C   0  0  0  0  0  3  0  0  0  0  0  0
  -24.0340  -30.3510   20.9940 C   0  0  0  0  0  3  0  0  0  0  0  0
  -25.8530  -29.3310   19.6520 C   0  0  0  0  0  3  0  0  0  0  0  0
  -26.4130  -31.1250   21.3720 C   0  0  0  0  0  2  0  0  0  0  0  0
  -26.7520  -29.8300   20.6210 C   0  0  0  0  0  3  0  0  0  0  0  0
  -27.7160  -28.9650   21.1470 C   0  0  0  0  0  2  0  0  0  0  0  0
  -26.8480  -27.1430   19.7990 C   0  0  0  0  0  3  0  0  0  0  0  0
  -26.0030  -28.0300   19.1200 C   0  0  0  0  0  3  0  0  0  0  0  0
  -24.5300  -30.0720   19.5670 C   0  0  0  0  0  2  0  0  0  0  0  0
  -24.9940  -31.2340   21.8110 N   0  0  0  0  0  0  0  0  0  0  0  0
  -23.4720  -31.6550   23.4750 O   0  0  0  0  0  0  0  0  0  0  0  0
  -24.0970  -28.9500   21.6340 C   0  0  0  0  0  0  0  0  0  0  0  0
  -23.5050  -27.7020   21.3560 N   0  0  0  0  0  0  0  0  0  0  0  0
  -24.7860  -29.0490   22.5810 O   0  0  0  0  0  0  0  0  0  0  0  0
  -23.3310  -27.6590   20.3650 H   0  0  0  0  0  0  0  0  0  0  0  0
  -19.2130  -26.2900   21.8350 C   0  0  0  0  0  0  0  0  0  0  0  0
  -22.5650  -26.4680   22.0870 C   0  0  0  0  0  1  0  0  0  0  0  0
  -22.9360  -26.1770   19.9950 C   0  0  0  0  0  1  0  0  0  0  0  0
  -21.1250  -25.3770   19.3040 C   0  0  0  0  0  1  0  0  0  0  0  0
  -19.5930  -25.2950   20.4660 C   0  0  0  0  0  2  0  0  0  0  0  0
  -20.4130  -26.6480   22.7920 C   0  0  0  0  0  3  0  0  0  0  0  0
  -19.7120  -27.7970   23.6060 C   0  0  0  0  0  3  0  0  0  0  0  0
  -18.5220  -28.6430   23.3660 C   0  0  0  0  0  3  0  0  0  0  0  0
  -17.5900  -28.2790   22.3970 C   0  0  0  0  0  3  0  0  0  0  0  0
  -17.9430  -27.0830   21.7090 C   0  0  0  0  0  3  0  0  0  0  0  0
  -25.7120  -32.2670   24.0900 C   0  0  0  0  0  3  0  0  0  0  0  0
  -25.3170  -33.6470   24.3750 N   0  0  0  0  0  0  0  0  0  0  0  0
  -25.7080  -34.6940   23.6400 C   0  0  0  0  0  0  0  0  0  0  0  0
  -26.4930  -34.5880   22.6920 O   0  0  0  0  0  0  0  0  0  0  0  0
  -24.6350  -33.7910   25.1050 H   0  0  0  0  0  0  0  0  0  0  0  0
  -23.9130  -36.3690   23.1240 C   0  0  0  0  0  1  0  0  0  0  0  0
  -25.1340  -36.0720   24.0100 C   0  0  0  0  0  3  0  0  0  0  0  0
  -27.2150  -37.0690   24.8480 C   0  0  0  0  0  1  0  0  0  0  0  0
  -26.1200  -37.1680   23.8860 N   0  0  0  0  0  0  0  0  0  0  0  0
  -25.6710  -38.0730   24.0110 H   0  0  0  0  0  0  0  0  0  0  0  0
  -25.9090  -31.4770   25.4570 C   0  0  1  0  0  0  0  0  0  0  0  0
  -24.5900  -31.0960   26.1670 C   0  0  0  0  0  1  0  0  0  0  0  0
  -26.7500  -30.1960   25.2550 C   0  0  0  0  0  1  0  0  0  0  0  0
  -26.7250  -32.3440   26.4490 C   0  0  0  0  0  1  0  0  0  0  0  0
  -21.6790  -29.2280   21.9750 C   0  0  0  0  0  1  0  0  0  0  0  0
  -21.7250  -27.8850   20.4690 C   0  0  0  0  0 15  0  0  0  0  0  0
  -23.7490  -24.1130   20.9510 C   0  0  0  0  0  3  0  0  0  0  0  0
  -24.7850  -23.0320   20.8280 C   0  0  0  0  0  3  0  0  0  0  0  0
  -23.7910  -25.4700   20.4260 C   0  0  0  0  0  0  0  0  0  0  0  0
  -26.8750  -23.8150   19.5570 C   0  0  0  0  0  3  0  0  0  0  0  0
  -26.1010  -22.8950   20.2440 N   0  0  0  0  0  0  0  0  0  0  0  0
  -25.5170  -25.0520   19.7540 N   0  0  0  0  0  0  0  0  0  0  0  0
  -29.1650  -23.0870   18.8060 C   0  0  0  0  0 15  0  0  0  0  0  0
  -32.9780  -21.1620   17.9260 C   0  0  0  0  0  2  0  0  0  0  0  0
  -35.2360  -19.4050   16.7280 C   0  0  0  0  0  2  0  0  0  0  0  0
  -35.2410  -18.1040   15.7570 C   0  0  0  0  0  2  0  0  0  0  0  0
  -34.5820  -16.8900   16.4060 C   0  0  0  0  0  2  0  0  0  0  0  0
  -33.5790  -17.5060   17.3730 C   0  0  0  0  0  3  0  0  0  0  0  0
  -34.0980  -18.5430   18.3870 C   0  0  0  0  0  2  0  0  0  0  0  0
  -33.9040  -19.8220   17.6590 N   0  0  0  0  0  0  0  0  0  0  0  0
  -34.0760  -21.7690   17.5150 O   0  0  0  0  0  1  0  0  0  0  0  0
  -31.1740  -21.8320   18.4140 N   0  0  0  0  0  1  0  0  0  0  0  0
  -31.6250  -22.7330   18.3200 H   0  0  0  0  0  0  0  0  0  0  0  0
  -31.4440  -17.0380   18.4370 C   0  0  0  0  0  0  0  0  0  0  0  0
  -30.9540  -15.9510   19.0700 C   0  0  0  0  0  0  0  0  0  0  0  0
  -32.0010  -14.9750   19.0530 C   0  0  0  0  0  0  0  0  0  0  0  0
  -32.7120  -16.6650   18.0670 N   0  0  0  0  0  0  0  0  0  0  0  0
  -33.1010  -15.4540   18.4990 N   0  0  0  0  0  0  0  0  0  0  0  0
  -31.9890  -13.5800   19.4560 C   0  0  0  0  0  0  0  0  0  0  0  0
  -33.0250  -13.0260   20.2340 C   0  0  0  0  0  3  0  0  0  0  0  0
  -32.9670  -11.6740   20.6250 C   0  0  0  0  0  3  0  0  0  0  0  0
  -31.8640  -10.8750   20.2370 C   0  0  0  0  0  0  0  0  0  0  0  0
  -30.8520  -11.4300   19.4380 C   0  0  0  0  0  3  0  0  0  0  0  0
  -30.9140  -12.7720   19.0430 C   0  0  0  0  0  3  0  0  0  0  0  0
  -31.7280   -9.5480   20.5580 O   0  0  0  0  0  0  0  0  0  0  0  0
  -32.4840   -8.9700   21.5430 C   0  0  0  0  0  0  0  0  0  0  0  0
  -32.4690   -9.4450   22.8720 C   0  0  0  0  0  3  0  0  0  0  0  0
  -33.2080   -8.7740   23.8650 C   0  0  0  0  0  3  0  0  0  0  0  0
  -33.9540   -7.6260   23.5340 C   0  0  0  0  0  0  0  0  0  0  0  0
  -33.9680   -7.1530   22.2110 C   0  0  0  0  0  3  0  0  0  0  0  0
  -33.2320   -7.8210   21.2180 C   0  0  0  0  0  0  0  0  0  0  0  0
  -33.2300   -7.3500   19.9480 F   0  0  0  0  0  0  0  0  0  0  0  0
  -34.6570   -6.9750   24.4890 F   0  0  0  0  0  0  0  0  0  0  0  0
  -29.5500  -15.8070   19.5490 C   0  0  0  0  0  0  0  0  0  0  0  0
  -29.3580  -15.1060   20.6560 N   0  0  0  0  0  0  0  0  0  0  0  0
  -28.6240  -16.3700   18.9670 O   0  0  0  0  0  0  0  0  0  0  0  0
  -30.1290  -14.6690   21.1400 H   0  0  0  0  0  0  0  0  0  0  0  0
  -28.4240  -15.0060   21.0290 H   0  0  0  0  0  0  0  0  0  0  0  0
  -30.9170  -18.2920   18.1220 N   0  0  0  0  0  0  0  0  0  0  0  0
  -29.9470  -18.5190   18.3110 H   0  0  0  0  0  0  0  0  0  0  0  0
  -31.3490  -18.9220   17.4620 H   0  0  0  0  0  0  0  0  0  0  0  0
  1  3  1  0
  1  5  1  0
  1  2  1  0
  5  4  1  0
  7  6  1  0
  8  7  1  0
  9 20  2  0
 10 15  1  0
 10  8  1  0
 11 21  1  0
 11 19  1  0
 12 17  1  0
 12 14  1  0
 13 19  1  0
 14 15  1  0
 14 13  1  0
 16 10  1  0
 17 16  2  0
 18 12  1  0
 18 11  1  0
 19  9  1  0
 21 23  2  0
 22 21  1  0
 22 26  1  0
 24 22  1  0
 25 30  1  0
 27 53  1  0
 28 29  1  0
 29 25  1  0
 30 31  2  0
 32 31  1  0
 33 32  2  0
 34 25  2  0
 34 33  1  0
 35  9  1  0
 35 36  1  0
 35 45  1  0
 36 39  1  0
 37 41  1  0
 37 36  1  0
 38 37  2  0
 41 40  1  0
 43 41  1  0
 43 44  1  0
 43 42  1  0
 45 46  1  1
 45 48  1  0
 47 45  1  0
 49  1  1  0
 52 51  1  0
 53 51  2  0
 54 56  2  0
 54 55  1  0
 55 52  2  0
 56 53  1  0
 59 64  1  0
 60 61  1  0
 60 59  1  0
 62 61  1  0
 62 71  1  0
 62 63  1  0
 64 58  1  0
 64 63  1  0
 65 58  1  0
 67 66  1  0
 68 69  2  0
 69 88  1  0
 70 69  1  0
 70 73  1  0
 71 68  1  0
 71 72  1  0
 72 70  2  0
 73 74  1  0
 74 75  2  0
 76 79  1  0
 76 75  1  0
 77 76  2  0
 78 77  1  0
 78 73  2  0
 79 80  1  0
 80 81  1  0
 81 82  2  0
 83 82  1  0
 83 87  1  0
 84 83  2  0
 85 80  2  0
 85 84  1  0
 86 85  1  0
 88 89  1  0
 89 92  1  0
 89 91  1  0
 90 88  2  0
 93 94  1  0
 93 68  1  0
 95 93  1  0
M  ISO  4   7 101   8 101  58 100  66 100
M  END
>  <TORSDO>  (17) 
F 22

>  <SCORE>  (17) 
-8.477

>  <name>  (17) 
16

>  <ligand_id>  (17) 
16

>  <original_smiles>  (17) 
[H]c1nc(C([H])([H])N([H])C(=O)N2C([H])([H])C([H])([H])C([H])([H])C([H])(n3nc(-c4c([H])c([H])c(Oc5c([H])c([H])c(F)c([H])c5F)c([H])c4[H])c(C(=O)N([H])[H])c3N([H])[H])C2([H])[H])nc(C([H])([H])C([H])([H])[N+]([H])([H])C([H])(C([H])([H])[H])C([H])(Oc2c([H])c([H])c3c(c2[H])C([H])([H])N(C(=O)C([H])(N([H])C(=O)C([H])(N([H])C([H])([H])[H])C([H])([H])[H])C(C([H])([H])[H])(C([H])([H])[H])C([H])([H])[H])C([H])(C(=O)N([H])C2([H])c4c([H])c([H])c([H])c([H])c4C([H])([H])C([H])([H])C2([H])[H])C3([H])[H])C([H])([H])[H])c1[H]

>  <smiles>  (17) 
[H]c1nc(C([H])([H])N([H])C(=O)N2C([H])([H])C([H])([H])C([H])([H])C([H])(n3nc(-c4c([H])c([H])c(Oc5c([H])c([H])c(F)c([H])c5F)c([H])c4[H])c(C(=O)N([H])[H])c3N([H])[H])C2([H])[H])nc(C([H])([H])C([H])([H])[N+]([H])([H])C([H])(C([H])([H])[H])C([H])(Oc2c([H])c([H])c3c(c2[H])C([H])([H])N(C(=O)C([H])(N([H])C(=O)C([H])(N([H])C([H])([H])[H])C([H])([H])[H])C(C([H])([H])[H])(C([H])([H])[H])C([H])([H])[H])C([H])(C(=O)N([H])C2([H])c4c([H])c([H])c([H])c([H])c4C([H])([H])C([H])([H])C2([H])[H])C3([H])[H])C([H])([H])[H])c1[H]

$$$$
17:0:0
     RDKit          3D

 92100  0  0  1  0  0  0  0  0999 V2000
  -29.1620  -22.8730   20.6120 C   0  0  0  0  0  2  0  0  0  0  0  0
  -27.4840  -23.5190   19.0290 C   0  0  0  0  0  2  0  0  0  0  0  0
  -28.7020  -24.1030   19.7860 C   0  0  0  0  0  3  0  0  0  0  0  0
  -28.8370  -21.6280   19.7430 C   0  0  0  0  0  3  0  0  0  0  0  0
  -27.6520  -22.0470   18.9540 N   0  0  0  0  0  4  0  0  0  0  0  0
  -27.7390  -21.7560   17.9920 H   0  0  0  0  0  0  0  0  0  0  0  0
  -26.8240  -21.6100   19.3320 H   0  0  0  0  0  0  0  0  0  0  0  0
  -27.2040  -19.7180   20.4560 C   0  0  0  0  0  1  0  0  0  0  0  0
  -28.6550  -20.2550   20.5090 C   0  0  0  0  0  3  0  0  0  0  0  0
  -29.6060  -19.2650   20.0430 O   0  0  0  0  0  0  0  0  0  0  0  0
  -29.5780  -17.9520   20.6540 C   0  0  0  0  0  2  0  0  0  0  0  0
  -30.6420  -16.9810   20.0480 C   0  0  0  0  0  2  0  0  0  0  0  0
  -31.2220  -14.5280   19.9410 C   0  0  0  0  0  0  0  0  0  0  0  0
  -30.9190  -12.2890   18.9460 C   0  0  0  0  0  2  0  0  0  0  0  0
  -29.8890  -12.4010   17.7990 C   0  0  0  0  0  2  0  0  0  0  0  0
  -28.4470  -12.2970   18.3400 C   0  0  0  0  0  2  0  0  0  0  0  0
  -28.1900  -13.2080   19.5700 C   0  0  0  0  0  3  0  0  0  0  0  0
  -29.3150  -13.0260   20.6140 C   0  0  0  0  0  2  0  0  0  0  0  0
  -30.5950  -13.3180   19.9480 N   0  0  0  0  0  0  0  0  0  0  0  0
  -32.2980  -14.7180   19.3700 O   0  0  0  0  0  0  0  0  0  0  0  0
  -30.4840  -15.5560   20.4220 N   0  0  0  0  0  0  0  0  0  0  0  0
  -29.6290  -15.2990   20.8940 H   0  0  0  0  0  0  0  0  0  0  0  0
  -25.8890  -13.8800   20.5010 C   0  0  0  0  0  0  0  0  0  0  0  0
  -24.8320  -13.1370   20.9470 C   0  0  0  0  0  0  0  0  0  0  0  0
  -25.2350  -11.7700   20.8360 C   0  0  0  0  0  0  0  0  0  0  0  0
  -26.8730  -12.9700   20.1510 N   0  0  0  0  0  0  0  0  0  0  0  0
  -26.4870  -11.6950   20.4090 N   0  0  0  0  0  0  0  0  0  0  0  0
  -24.4810  -10.5300   21.0550 C   0  0  0  0  0  0  0  0  0  0  0  0
  -24.8680   -9.5870   22.0320 C   0  0  0  0  0  3  0  0  0  0  0  0
  -24.1110   -8.4150   22.2330 C   0  0  0  0  0  3  0  0  0  0  0  0
  -22.9540   -8.1720   21.4550 C   0  0  0  0  0  0  0  0  0  0  0  0
  -22.5880   -9.1020   20.4660 C   0  0  0  0  0  3  0  0  0  0  0  0
  -23.3470  -10.2660   20.2640 C   0  0  0  0  0  3  0  0  0  0  0  0
  -22.1780   -7.0440   21.5600 O   0  0  0  0  0  0  0  0  0  0  0  0
  -21.9640   -6.4310   22.7680 C   0  0  0  0  0  0  0  0  0  0  0  0
  -21.3680   -7.1110   23.8530 C   0  0  0  0  0  3  0  0  0  0  0  0
  -21.1020   -6.4240   25.0540 C   0  0  0  0  0  3  0  0  0  0  0  0
  -21.4200   -5.0570   25.1690 C   0  0  0  0  0  0  0  0  0  0  0  0
  -22.0040   -4.3770   24.0870 C   0  0  0  0  0  3  0  0  0  0  0  0
  -22.2720   -5.0610   22.8890 C   0  0  0  0  0  0  0  0  0  0  0  0
  -22.8180   -4.3950   21.8420 F   0  0  0  0  0  0  0  0  0  0  0  0
  -21.1540   -4.3950   26.3200 F   0  0  0  0  0  0  0  0  0  0  0  0
  -23.4860  -13.6570   21.3570 C   0  0  0  0  0  0  0  0  0  0  0  0
  -22.8190  -12.9770   22.2820 N   0  0  0  0  0  0  0  0  0  0  0  0
  -23.0400  -14.7070   20.8950 O   0  0  0  0  0  0  0  0  0  0  0  0
  -23.1860  -12.1190   22.6720 H   0  0  0  0  0  0  0  0  0  0  0  0
  -21.9240  -13.3200   22.6060 H   0  0  0  0  0  0  0  0  0  0  0  0
  -26.0890  -15.2480   20.3400 N   0  0  0  0  0  0  0  0  0  0  0  0
  -25.3630  -15.9280   20.5260 H   0  0  0  0  0  0  0  0  0  0  0  0
  -26.8920  -15.6480   19.8700 H   0  0  0  0  0  0  0  0  0  0  0  0
  -28.4310  -25.4090   20.6190 C   0  0  0  0  0  2  0  0  0  0  0  0
  -28.5320  -26.6840   19.9280 O   0  0  0  0  0  0  0  0  0  0  0  0
  -24.4810  -31.6340   23.1110 C   0  0  0  0  0  0  0  0  0  0  0  0
  -27.3750  -27.4370   19.9100 C   0  0  0  0  0  0  0  0  0  0  0  0
  -23.3790  -30.2690   21.3690 C   0  0  0  0  0  3  0  0  0  0  0  0
  -24.9360  -28.8720   19.9070 C   0  0  0  0  0  0  0  0  0  0  0  0
  -25.8970  -30.7370   21.2650 C   0  0  0  0  0  2  0  0  0  0  0  0
  -26.0580  -29.4070   20.5540 C   0  0  0  0  0  0  0  0  0  0  0  0
  -27.2860  -28.7000   20.5500 C   0  0  0  0  0  3  0  0  0  0  0  0
  -26.2450  -26.9350   19.2390 C   0  0  0  0  0  3  0  0  0  0  0  0
  -25.0250  -27.6360   19.2440 C   0  0  0  0  0  3  0  0  0  0  0  0
  -23.6570  -29.6770   19.9620 C   0  0  0  0  0  2  0  0  0  0  0  0
  -24.6010  -30.8940   21.9730 N   0  0  0  0  0  0  0  0  0  0  0  0
  -23.3760  -31.8350   23.6320 O   0  0  0  0  0  0  0  0  0  0  0  0
  -22.7500  -29.1720   22.2590 C   0  0  0  0  0  0  0  0  0  0  0  0
  -21.4320  -28.9560   22.1090 N   0  0  0  0  0  0  0  0  0  0  0  0
  -23.4470  -28.5190   23.0420 O   0  0  0  0  0  0  0  0  0  0  0  0
  -20.9310  -29.5220   21.4370 H   0  0  0  0  0  0  0  0  0  0  0  0
  -18.0800  -27.7020   22.5740 C   0  0  0  0  0  0  0  0  0  0  0  0
  -20.6390  -27.9530   22.8210 C   0  0  0  0  0  3  0  0  0  0  0  0
  -20.7360  -26.5710   22.1370 C   0  0  0  0  0  2  0  0  0  0  0  0
  -19.6270  -26.3290   21.1120 C   0  0  0  0  0  2  0  0  0  0  0  0
  -18.2500  -26.4190   21.7780 C   0  0  0  0  0  2  0  0  0  0  0  0
  -19.2010  -28.4330   23.0480 C   0  0  0  0  0  0  0  0  0  0  0  0
  -18.9840  -29.6360   23.7530 C   0  0  0  0  0  3  0  0  0  0  0  0
  -17.6790  -30.1090   23.9850 C   0  0  0  0  0  3  0  0  0  0  0  0
  -16.5710  -29.3720   23.5290 C   0  0  0  0  0  3  0  0  0  0  0  0
  -16.7740  -28.1710   22.8290 C   0  0  0  0  0  3  0  0  0  0  0  0
  -25.7250  -32.2870   23.7960 C   0  0  0  0  0  3  0  0  0  0  0  0
  -25.3430  -33.6480   24.1960 N   0  0  0  0  0  0  0  0  0  0  0  0
  -25.6400  -34.7550   23.5030 C   0  0  0  0  0  0  0  0  0  0  0  0
  -26.3380  -34.7410   22.4830 O   0  0  0  0  0  0  0  0  0  0  0  0
  -24.7340  -33.7350   24.9960 H   0  0  0  0  0  0  0  0  0  0  0  0
  -23.8400  -36.4820   23.2000 C   0  0  0  0  0  1  0  0  0  0  0  0
  -25.0760  -36.0900   24.0250 C   0  0  0  0  0  3  0  0  0  0  0  0
  -27.1390  -37.0220   24.9740 C   0  0  0  0  0  1  0  0  0  0  0  0
  -26.0620  -37.1930   24.0040 N   0  0  0  0  0  0  0  0  0  0  0  0
  -25.6070  -38.0840   24.1870 H   0  0  0  0  0  0  0  0  0  0  0  0
  -26.2540  -31.4690   25.0380 C   0  0  1  0  0  0  0  0  0  0  0  0
  -25.1440  -31.1030   26.0510 C   0  0  0  0  0  1  0  0  0  0  0  0
  -26.9350  -30.1560   24.5870 C   0  0  0  0  0  1  0  0  0  0  0  0
  -27.3350  -32.2900   25.7790 C   0  0  0  0  0  1  0  0  0  0  0  0
  2  3  1  0
  3  1  1  0
  3 51  1  0
  4  9  1  0
  4  1  1  0
  5  2  1  0
  5  7  1  0
  5  4  1  0
  6  5  1  0
  9  8  1  0
 10  9  1  0
 10 11  1  0
 12 21  1  0
 12 11  1  0
 13 19  1  0
 13 21  1  0
 14 19  1  0
 15 16  1  0
 15 14  1  0
 17 16  1  0
 17 26  1  0
 17 18  1  0
 19 18  1  0
 20 13  2  0
 21 22  1  0
 23 24  2  0
 24 43  1  0
 25 24  1  0
 25 28  1  0
 26 27  1  0
 26 23  1  0
 27 25  2  0
 28 29  1  0
 29 30  2  0
 31 34  1  0
 31 30  1  0
 32 31  2  0
 33 32  1  0
 33 28  2  0
 34 35  1  0
 35 40  2  0
 35 36  1  0
 36 37  2  0
 37 38  1  0
 38 42  1  0
 39 38  2  0
 40 39  1  0
 41 40  1  0
 43 44  1  0
 44 47  1  0
 44 46  1  0
 45 43  2  0
 48 23  1  0
 48 49  1  0
 50 48  1  0
 52 51  1  0
 53 64  2  0
 54 52  1  0
 54 59  1  0
 55 63  1  0
 55 65  1  0
 56 62  1  0
 56 58  1  0
 57 63  1  0
 58 57  1  0
 59 58  2  0
 60 61  1  0
 60 54  2  0
 61 56  2  0
 62 55  1  0
 63 53  1  0
 65 67  2  0
 66 65  1  0
 68 66  1  0
 69 78  2  0
 69 74  1  0
 70 66  1  0
 70 74  1  0
 71 70  1  0
 72 73  1  0
 72 71  1  0
 73 69  1  0
 74 75  2  0
 75 76  1  0
 77 76  2  0
 78 77  1  0
 79 53  1  0
 79 80  1  0
 79 89  1  0
 80 83  1  0
 81 85  1  0
 81 80  1  0
 82 81  2  0
 85 84  1  0
 87 85  1  0
 87 88  1  0
 87 86  1  0
 89 92  1  1
 89 90  1  0
 91 89  1  0
M  ISO  4  13 100  21 100  51 101  52 101
M  END
>  <TORSDO>  (18) 
F 21

>  <SCORE>  (18) 
-11.542

>  <name>  (18) 
17

>  <ligand_id>  (18) 
17

>  <original_smiles>  (18) 
[H]c1c([H])c([H])c2c(c1[H])C([H])([H])C([H])([H])C([H])([H])C2([H])N([H])C(=O)C1([H])N(C(=O)C([H])(N([H])C(=O)C([H])(N([H])C([H])([H])[H])C([H])([H])[H])C(C([H])([H])[H])(C([H])([H])[H])C([H])([H])[H])C([H])([H])c2c([H])c(OC([H])([H])C3([H])C([H])([H])C([H])(C([H])(OC([H])([H])C([H])([H])N([H])C(=O)N4C([H])([H])C([H])([H])C([H])([H])C([H])(n5nc(-c6c([H])c([H])c(Oc7c([H])c([H])c(F)c([H])c7F)c([H])c6[H])c(C(=O)N([H])[H])c5N([H])[H])C4([H])[H])C([H])([H])[H])[N+]([H])([H])C3([H])[H])c([H])c([H])c2C1([H])[H]

>  <smiles>  (18) 
[H]c1c([H])c([H])c2c(c1[H])C([H])([H])C([H])([H])C([H])([H])C2([H])N([H])C(=O)C1([H])N(C(=O)C([H])(N([H])C(=O)C([H])(N([H])C([H])([H])[H])C([H])([H])[H])C(C([H])([H])[H])(C([H])([H])[H])C([H])([H])[H])C([H])([H])c2c([H])c(OC([H])([H])C3([H])C([H])([H])C([H])(C([H])(OC([H])([H])C([H])([H])N([H])C(=O)N4C([H])([H])C([H])([H])C([H])([H])C([H])(n5nc(-c6c([H])c([H])c(Oc7c([H])c([H])c(F)c([H])c7F)c([H])c6[H])c(C(=O)N([H])[H])c5N([H])[H])C4([H])[H])C([H])([H])[H])[N+]([H])([H])C3([H])[H])c([H])c([H])c2C1([H])[H]

$$$$
18:0:0
     RDKit          3D

 94101  0  0  1  0  0  0  0  0999 V2000
  -30.5600  -23.0760   20.8470 C   0  0  0  0  0  2  0  0  0  0  0  0
  -30.7010  -24.7710   22.7230 C   0  0  0  0  0  1  0  0  0  0  0  0
  -30.0670  -24.3790   21.4360 N   0  0  1  0  0  4  0  0  0  0  0  0
  -29.0840  -24.2430   21.6210 H   0  0  0  0  0  0  0  0  0  0  0  0
  -30.1510  -25.5190   20.4640 C   0  0  0  0  0  2  0  0  0  0  0  0
  -29.2320  -26.7350   20.7920 C   0  0  0  0  0  2  0  0  0  0  0  0
  -28.1060  -26.6430   19.9310 O   0  0  0  0  0  0  0  0  0  0  0  0
  -24.4820  -31.9420   23.2050 C   0  0  0  0  0  0  0  0  0  0  0  0
  -27.0200  -27.4810   20.0610 C   0  0  0  0  0  0  0  0  0  0  0  0
  -23.2320  -30.5730   21.5690 C   0  0  0  0  0  3  0  0  0  0  0  0
  -24.6470  -29.0220   20.1220 C   0  0  0  0  0  0  0  0  0  0  0  0
  -25.7620  -30.8910   21.3450 C   0  0  0  0  0  2  0  0  0  0  0  0
  -25.8220  -29.5190   20.7040 C   0  0  0  0  0  0  0  0  0  0  0  0
  -27.0150  -28.7530   20.6850 C   0  0  0  0  0  3  0  0  0  0  0  0
  -25.8310  -27.0040   19.4760 C   0  0  0  0  0  3  0  0  0  0  0  0
  -24.6440  -27.7580   19.5090 C   0  0  0  0  0  3  0  0  0  0  0  0
  -23.4170  -29.8980   20.1840 C   0  0  0  0  0  2  0  0  0  0  0  0
  -24.5100  -31.1490   22.0970 N   0  0  0  0  0  0  0  0  0  0  0  0
  -23.4130  -32.2300   23.7610 O   0  0  0  0  0  0  0  0  0  0  0  0
  -22.5760  -29.5560   22.5310 C   0  0  0  0  0  0  0  0  0  0  0  0
  -21.2490  -29.3910   22.4130 N   0  0  0  0  0  0  0  0  0  0  0  0
  -23.2590  -28.9180   23.3360 O   0  0  0  0  0  0  0  0  0  0  0  0
  -20.7590  -29.9560   21.7340 H   0  0  0  0  0  0  0  0  0  0  0  0
  -17.8620  -28.2440   22.9400 C   0  0  0  0  0  0  0  0  0  0  0  0
  -20.4260  -28.4610   23.1880 C   0  0  0  0  0  3  0  0  0  0  0  0
  -20.5020  -27.0320   22.6020 C   0  0  0  0  0  2  0  0  0  0  0  0
  -19.3850  -26.7310   21.5980 C   0  0  0  0  0  2  0  0  0  0  0  0
  -18.0130  -26.8960   22.2560 C   0  0  0  0  0  2  0  0  0  0  0  0
  -18.9970  -28.9860   23.3630 C   0  0  0  0  0  0  0  0  0  0  0  0
  -18.8040  -30.2510   23.9610 C   0  0  0  0  0  3  0  0  0  0  0  0
  -17.5100  -30.7720   24.1410 C   0  0  0  0  0  3  0  0  0  0  0  0
  -16.3890  -30.0260   23.7360 C   0  0  0  0  0  3  0  0  0  0  0  0
  -16.5660  -28.7650   23.1390 C   0  0  0  0  0  3  0  0  0  0  0  0
  -25.7880  -32.5470   23.8100 C   0  0  0  0  0  3  0  0  0  0  0  0
  -25.5180  -33.9550   24.1290 N   0  0  0  0  0  0  0  0  0  0  0  0
  -25.8900  -34.9910   23.3650 C   0  0  0  0  0  0  0  0  0  0  0  0
  -26.5690  -34.8600   22.3420 O   0  0  0  0  0  0  0  0  0  0  0  0
  -24.9190  -34.1330   24.9220 H   0  0  0  0  0  0  0  0  0  0  0  0
  -24.2340  -36.8390   22.9610 C   0  0  0  0  0  1  0  0  0  0  0  0
  -25.4380  -36.3970   23.8060 C   0  0  0  0  0  3  0  0  0  0  0  0
  -27.5770  -37.2120   24.6930 C   0  0  0  0  0  1  0  0  0  0  0  0
  -26.5090  -37.4130   23.7180 N   0  0  0  0  0  0  0  0  0  0  0  0
  -26.1300  -38.3460   23.8490 H   0  0  0  0  0  0  0  0  0  0  0  0
  -26.2970  -31.7720   25.0880 C   0  0  1  0  0  0  0  0  0  0  0  0
  -25.2070  -31.5670   26.1640 C   0  0  0  0  0  1  0  0  0  0  0  0
  -26.8470  -30.3800   24.6990 C   0  0  0  0  0  1  0  0  0  0  0  0
  -27.4700  -32.5440   25.7350 C   0  0  0  0  0  1  0  0  0  0  0  0
  -31.7410  -21.5960   22.5880 C   0  0  0  0  0  1  0  0  0  0  0  0
  -29.1900  -21.7520   22.5840 C   0  0  0  0  0  1  0  0  0  0  0  0
  -30.4680  -21.7490   21.7120 C   0  0  1  0  0  0  0  0  0  0  0  0
  -30.3890  -20.4910   20.7600 C   0  0  0  0  0  2  0  0  0  0  0  0
  -30.4990  -19.1820   21.4770 N   0  0  0  0  0  4  0  0  0  0  0  0
  -31.4420  -19.1000   21.8220 H   0  0  0  0  0  0  0  0  0  0  0  0
  -29.8860  -19.2120   22.2760 H   0  0  0  0  0  0  0  0  0  0  0  0
  -30.1760  -17.9430   20.7140 C   0  0  0  0  0  2  0  0  0  0  0  0
  -30.5570  -16.6630   21.5160 C   0  0  0  0  0  2  0  0  0  0  0  0
  -30.6160  -14.4900   20.2070 C   0  0  0  0  0  0  0  0  0  0  0  0
  -30.2630  -12.3970   18.9340 C   0  0  0  0  0  2  0  0  0  0  0  0
  -29.2570  -12.6280   17.7860 C   0  0  0  0  0  2  0  0  0  0  0  0
  -27.8070  -12.4660   18.2800 C   0  0  0  0  0  2  0  0  0  0  0  0
  -27.5270  -13.2600   19.5830 C   0  0  0  0  0  3  0  0  0  0  0  0
  -28.6280  -12.9920   20.6310 C   0  0  0  0  0  2  0  0  0  0  0  0
  -29.9270  -13.3310   20.0200 N   0  0  0  0  0  0  0  0  0  0  0  0
  -31.6890  -14.7380   19.6520 O   0  0  0  0  0  0  0  0  0  0  0  0
  -30.0100  -15.3970   20.9950 N   0  0  0  0  0  0  0  0  0  0  0  0
  -29.1140  -15.1120   21.3620 H   0  0  0  0  0  0  0  0  0  0  0  0
  -25.1460  -13.8450   20.3630 C   0  0  0  0  0  0  0  0  0  0  0  0
  -24.0990  -13.0640   20.7740 C   0  0  0  0  0  0  0  0  0  0  0  0
  -24.5760  -11.7170   20.7410 C   0  0  0  0  0  0  0  0  0  0  0  0
  -26.1940  -12.9750   20.1090 N   0  0  0  0  0  0  0  0  0  0  0  0
  -25.8560  -11.6900   20.3920 N   0  0  0  0  0  0  0  0  0  0  0  0
  -23.8710  -10.4490   20.9690 C   0  0  0  0  0  0  0  0  0  0  0  0
  -24.3310   -9.5120   21.9210 C   0  0  0  0  0  3  0  0  0  0  0  0
  -23.6280   -8.3060   22.1350 C   0  0  0  0  0  3  0  0  0  0  0  0
  -22.4530   -8.0290   21.3950 C   0  0  0  0  0  0  0  0  0  0  0  0
  -22.0150   -8.9550   20.4320 C   0  0  0  0  0  3  0  0  0  0  0  0
  -22.7170  -10.1530   20.2170 C   0  0  0  0  0  3  0  0  0  0  0  0
  -21.7220   -6.8720   21.5160 O   0  0  0  0  0  0  0  0  0  0  0  0
  -21.6810   -6.1670   22.6920 C   0  0  0  0  0  0  0  0  0  0  0  0
  -21.2100   -6.7440   23.8910 C   0  0  0  0  0  3  0  0  0  0  0  0
  -21.1190   -5.9630   25.0610 C   0  0  0  0  0  3  0  0  0  0  0  0
  -21.4880   -4.6040   25.0300 C   0  0  0  0  0  0  0  0  0  0  0  0
  -21.9510   -4.0260   23.8350 C   0  0  0  0  0  3  0  0  0  0  0  0
  -22.0440   -4.8040   22.6690 C   0  0  0  0  0  0  0  0  0  0  0  0
  -22.4720   -4.2380   21.5150 F   0  0  0  0  0  0  0  0  0  0  0  0
  -21.3930   -3.8510   26.1500 F   0  0  0  0  0  0  0  0  0  0  0  0
  -22.7060  -13.5260   21.0890 C   0  0  0  0  0  0  0  0  0  0  0  0
  -22.0180  -12.8250   21.9830 N   0  0  0  0  0  0  0  0  0  0  0  0
  -22.2390  -14.5430   20.5790 O   0  0  0  0  0  0  0  0  0  0  0  0
  -22.4120  -12.0030   22.4150 H   0  0  0  0  0  0  0  0  0  0  0  0
  -21.0830  -13.1130   22.2380 H   0  0  0  0  0  0  0  0  0  0  0  0
  -25.2870  -15.2140   20.1650 N   0  0  0  0  0  0  0  0  0  0  0  0
  -24.5110  -15.8580   20.2780 H   0  0  0  0  0  0  0  0  0  0  0  0
  -26.1210  -15.6590   19.8030 H   0  0  0  0  0  0  0  0  0  0  0  0
  1  3  1  0
  1 50  1  0
  3  4  1  1
  3  2  1  0
  5  6  1  0
  5  3  1  0
  7  9  1  0
  7  6  1  0
  8 19  2  0
  9 14  1  0
 10 18  1  0
 10 20  1  0
 11 17  1  0
 11 13  1  0
 12 18  1  0
 13 12  1  0
 14 13  2  0
 15 16  1  0
 15  9  2  0
 16 11  2  0
 17 10  1  0
 18  8  1  0
 20 22  2  0
 21 20  1  0
 23 21  1  0
 24 33  2  0
 24 29  1  0
 25 21  1  0
 25 29  1  0
 26 25  1  0
 27 28  1  0
 27 26  1  0
 28 24  1  0
 29 30  2  0
 30 31  1  0
 32 31  2  0
 33 32  1  0
 34  8  1  0
 34 35  1  0
 34 44  1  0
 35 38  1  0
 36 40  1  0
 36 35  1  0
 37 36  2  0
 40 39  1  0
 42 40  1  0
 42 43  1  0
 42 41  1  0
 44 47  1  1
 44 45  1  0
 46 44  1  0
 50 49  1  1
 50 48  1  0
 51 52  1  0
 51 50  1  0
 52 53  1  0
 52 54  1  0
 55 52  1  0
 55 56  1  0
 57 65  1  0
 58 63  1  0
 59 60  1  0
 59 58  1  0
 61 60  1  0
 61 70  1  0
 61 62  1  0
 63 57  1  0
 63 62  1  0
 64 57  2  0
 65 66  1  0
 65 56  1  0
 67 68  2  0
 68 87  1  0
 69 68  1  0
 69 72  1  0
 70 67  1  0
 70 71  1  0
 71 69  2  0
 72 73  1  0
 73 74  2  0
 75 78  1  0
 75 74  1  0
 76 75  2  0
 77 76  1  0
 77 72  2  0
 78 79  1  0
 79 80  1  0
 80 81  2  0
 82 81  1  0
 82 86  1  0
 83 82  2  0
 84 79  2  0
 84 83  1  0
 85 84  1  0
 87 88  1  0
 88 91  1  0
 88 90  1  0
 89 87  2  0
 92 93  1  0
 92 67  1  0
 94 92  1  0
M  ISO  4   6 101   7 101  57 100  65 100
M  END
>  <TORSDO>  (19) 
F 24

>  <SCORE>  (19) 
-11.519

>  <name>  (19) 
18

>  <ligand_id>  (19) 
18

>  <original_smiles>  (19) 
[H]c1c([H])c([H])c2c(c1[H])C([H])([H])C([H])([H])C([H])([H])C2([H])N([H])C(=O)C1([H])N(C(=O)C([H])(N([H])C(=O)C([H])(N([H])C([H])([H])[H])C([H])([H])[H])C(C([H])([H])[H])(C([H])([H])[H])C([H])([H])[H])C([H])([H])c2c([H])c(OC([H])([H])C([H])([H])[N+]([H])(C([H])([H])[H])C([H])([H])C(C([H])([H])[H])(C([H])([H])[H])C([H])([H])[N+]([H])([H])C([H])([H])C([H])([H])N([H])C(=O)N3C([H])([H])C([H])([H])C([H])([H])C([H])(n4nc(-c5c([H])c([H])c(Oc6c([H])c([H])c(F)c([H])c6F)c([H])c5[H])c(C(=O)N([H])[H])c4N([H])[H])C3([H])[H])c([H])c([H])c2C1([H])[H]

>  <smiles>  (19) 
[H]c1c([H])c([H])c2c(c1[H])C([H])([H])C([H])([H])C([H])([H])C2([H])N([H])C(=O)C1([H])N(C(=O)C([H])(N([H])C(=O)C([H])(N([H])C([H])([H])[H])C([H])([H])[H])C(C([H])([H])[H])(C([H])([H])[H])C([H])([H])[H])C([H])([H])c2c([H])c(OC([H])([H])C([H])([H])[N+]([H])(C([H])([H])[H])C([H])([H])C(C([H])([H])[H])(C([H])([H])[H])C([H])([H])[N+]([H])([H])C([H])([H])C([H])([H])N([H])C(=O)N3C([H])([H])C([H])([H])C([H])([H])C([H])(n4nc(-c5c([H])c([H])c(Oc6c([H])c([H])c(F)c([H])c6F)c([H])c5[H])c(C(=O)N([H])[H])c4N([H])[H])C3([H])[H])c([H])c([H])c2C1([H])[H]

$$$$
19:0:0
     RDKit          3D

 90 98  0  0  1  0  0  0  0  0999 V2000
  -28.7960  -23.3300   22.0500 C   0  0  0  0  0  1  0  0  0  0  0  0
  -29.0490  -23.3180   20.5350 C   0  0  0  0  0  3  0  0  0  0  0  0
  -29.8080  -19.8420   18.8960 C   0  0  0  0  0  3  0  0  0  0  0  0
  -29.2200  -20.5220   20.8600 C   0  0  0  0  0  3  0  0  0  0  0  0
  -29.6410  -19.3170   20.2140 C   0  0  0  0  0  0  0  0  0  0  0  0
  -29.6450  -21.2240   18.8370 C   0  0  0  0  0  0  0  0  0  0  0  0
  -30.0230  -22.0660   17.6610 C   0  0  0  0  0  1  0  0  0  0  0  0
  -29.2040  -21.7590   20.0660 N   0  0  0  0  0  0  0  0  0  0  0  0
  -30.0910  -17.7990   20.7930 C   0  0  0  0  0  2  0  0  0  0  0  0
  -30.5150  -15.0940   20.2640 C   0  0  0  0  0  0  0  0  0  0  0  0
  -30.4010  -12.7310   19.3130 C   0  0  0  0  0  2  0  0  0  0  0  0
  -29.4520  -12.6440   18.0950 C   0  0  0  0  0  2  0  0  0  0  0  0
  -27.9990  -12.4180   18.5570 C   0  0  0  0  0  2  0  0  0  0  0  0
  -27.5960  -13.3600   19.7200 C   0  0  0  0  0  3  0  0  0  0  0  0
  -28.6640  -13.3980   20.8300 C   0  0  0  0  0  2  0  0  0  0  0  0
  -29.9120  -13.8340   20.1900 N   0  0  0  0  0  0  0  0  0  0  0  0
  -31.7330  -15.1290   20.0570 O   0  0  0  0  0  0  0  0  0  0  0  0
  -29.7460  -16.3010   20.3700 N   0  0  0  0  0  0  0  0  0  0  0  0
  -28.7540  -16.1210   20.3660 H   0  0  0  0  0  0  0  0  0  0  0  0
  -25.2320  -13.9430   20.4940 C   0  0  0  0  0  0  0  0  0  0  0  0
  -24.1670  -13.1690   20.8660 C   0  0  0  0  0  0  0  0  0  0  0  0
  -24.6260  -11.8170   20.8230 C   0  0  0  0  0  0  0  0  0  0  0  0
  -26.2670  -13.0610   20.2360 N   0  0  0  0  0  0  0  0  0  0  0  0
  -25.9130  -11.7770   20.5000 N   0  0  0  0  0  0  0  0  0  0  0  0
  -23.8950  -10.5560   21.0070 C   0  0  0  0  0  0  0  0  0  0  0  0
  -24.3170   -9.5910   21.9470 C   0  0  0  0  0  3  0  0  0  0  0  0
  -23.5870   -8.3960   22.1230 C   0  0  0  0  0  3  0  0  0  0  0  0
  -22.4200   -8.1580   21.3570 C   0  0  0  0  0  0  0  0  0  0  0  0
  -22.0150   -9.1140   20.4100 C   0  0  0  0  0  3  0  0  0  0  0  0
  -22.7450  -10.3000   20.2320 C   0  0  0  0  0  3  0  0  0  0  0  0
  -21.6610   -7.0150   21.4410 O   0  0  0  0  0  0  0  0  0  0  0  0
  -21.5820   -6.2880   22.6020 C   0  0  0  0  0  0  0  0  0  0  0  0
  -21.1070   -6.8520   23.8060 C   0  0  0  0  0  3  0  0  0  0  0  0
  -20.9780   -6.0500   24.9560 C   0  0  0  0  0  3  0  0  0  0  0  0
  -21.3160   -4.6840   24.9050 C   0  0  0  0  0  0  0  0  0  0  0  0
  -21.7860   -4.1190   23.7070 C   0  0  0  0  0  3  0  0  0  0  0  0
  -21.9160   -4.9200   22.5580 C   0  0  0  0  0  0  0  0  0  0  0  0
  -22.3500   -4.3650   21.4000 F   0  0  0  0  0  0  0  0  0  0  0  0
  -21.1860   -3.9110   26.0090 F   0  0  0  0  0  0  0  0  0  0  0  0
  -22.7760  -13.6520   21.1520 C   0  0  0  0  0  0  0  0  0  0  0  0
  -22.0490  -12.9480   22.0130 N   0  0  0  0  0  0  0  0  0  0  0  0
  -22.3430  -14.6870   20.6470 O   0  0  0  0  0  0  0  0  0  0  0  0
  -22.4130  -12.1110   22.4420 H   0  0  0  0  0  0  0  0  0  0  0  0
  -21.1140  -13.2540   22.2490 H   0  0  0  0  0  0  0  0  0  0  0  0
  -25.4010  -15.3130   20.3250 N   0  0  0  0  0  0  0  0  0  0  0  0
  -24.6370  -15.9700   20.4390 H   0  0  0  0  0  0  0  0  0  0  0  0
  -26.2420  -15.7450   19.9640 H   0  0  0  0  0  0  0  0  0  0  0  0
  -28.1100  -24.5700   18.3700 C   0  0  0  0  0  1  0  0  0  0  0  0
  -28.1060  -24.6170   19.9010 C   0  0  0  0  0  3  0  0  0  0  0  0
  -28.2550  -26.1570   20.2530 O   0  0  0  0  0  0  0  0  0  0  0  0
  -24.6200  -31.8930   23.2350 C   0  0  0  0  0  0  0  0  0  0  0  0
  -27.1920  -27.1520   20.1910 C   0  0  0  0  0  0  0  0  0  0  0  0
  -23.4180  -30.4930   21.6050 C   0  0  0  0  0  3  0  0  0  0  0  0
  -24.8620  -28.9260   20.1700 C   0  0  0  0  0  0  0  0  0  0  0  0
  -25.9740  -30.7600   21.4270 C   0  0  0  0  0  2  0  0  0  0  0  0
  -26.0500  -29.3670   20.7670 C   0  0  0  0  0  0  0  0  0  0  0  0
  -27.2130  -28.5000   20.7550 C   0  0  0  0  0  3  0  0  0  0  0  0
  -25.9590  -26.8140   19.5860 C   0  0  0  0  0  3  0  0  0  0  0  0
  -24.8310  -27.6620   19.5660 C   0  0  0  0  0  3  0  0  0  0  0  0
  -23.6340  -29.8260   20.2230 C   0  0  0  0  0  2  0  0  0  0  0  0
  -24.6920  -31.0710   22.1440 N   0  0  0  0  0  0  0  0  0  0  0  0
  -23.5340  -32.1750   23.7690 O   0  0  0  0  0  0  0  0  0  0  0  0
  -22.7500  -29.4790   22.5680 C   0  0  0  0  0  0  0  0  0  0  0  0
  -21.4230  -29.2950   22.4440 N   0  0  0  0  0  0  0  0  0  0  0  0
  -23.4290  -28.8580   23.3900 O   0  0  0  0  0  0  0  0  0  0  0  0
  -20.9300  -29.8490   21.7590 H   0  0  0  0  0  0  0  0  0  0  0  0
  -18.0530  -28.0740   22.9590 C   0  0  0  0  0  0  0  0  0  0  0  0
  -20.6110  -28.3540   23.2190 C   0  0  0  0  0  3  0  0  0  0  0  0
  -20.7210  -26.9200   22.6470 C   0  0  0  0  0  2  0  0  0  0  0  0
  -19.6190  -26.5900   21.6360 C   0  0  0  0  0  2  0  0  0  0  0  0
  -18.2370  -26.7250   22.2830 C   0  0  0  0  0  2  0  0  0  0  0  0
  -19.1670  -28.8460   23.3820 C   0  0  0  0  0  0  0  0  0  0  0  0
  -18.9400  -30.1080   23.9740 C   0  0  0  0  0  3  0  0  0  0  0  0
  -17.6300  -30.5950   24.1490 C   0  0  0  0  0  3  0  0  0  0  0  0
  -16.5310  -29.8210   23.7410 C   0  0  0  0  0  3  0  0  0  0  0  0
  -16.7430  -28.5630   23.1500 C   0  0  0  0  0  3  0  0  0  0  0  0
  -25.8970  -32.5370   23.8550 C   0  0  0  0  0  3  0  0  0  0  0  0
  -26.4130  -31.7770   25.1370 C   0  0  1  0  0  0  0  0  0  0  0  0
  -25.3190  -31.5350   26.2040 C   0  0  0  0  0  1  0  0  0  0  0  0
  -27.0040  -30.3990   24.7570 C   0  0  0  0  0  1  0  0  0  0  0  0
  -27.5590  -32.5810   25.7960 C   0  0  0  0  0  1  0  0  0  0  0  0
  -25.5800  -33.9360   24.1830 N   0  0  0  0  0  0  0  0  0  0  0  0
  -25.9040  -34.9930   23.4250 C   0  0  0  0  0  0  0  0  0  0  0  0
  -26.5660  -34.8920   22.3900 O   0  0  0  0  0  0  0  0  0  0  0  0
  -24.9870  -34.0890   24.9850 H   0  0  0  0  0  0  0  0  0  0  0  0
  -24.1700  -36.7880   23.0860 C   0  0  0  0  0  1  0  0  0  0  0  0
  -25.4160  -36.3810   23.8880 C   0  0  0  0  0  3  0  0  0  0  0  0
  -27.5490  -37.2730   24.7180 C   0  0  0  0  0  1  0  0  0  0  0  0
  -26.4470  -37.4370   23.7740 N   0  0  0  0  0  0  0  0  0  0  0  0
  -26.0380  -38.3550   23.9240 H   0  0  0  0  0  0  0  0  0  0  0  0
  2  1  1  0
  3  5  1  0
  5  9  1  0
  5  4  2  0
  6  3  2  0
  6  8  1  0
  7  6  1  0
  8  2  1  0
  8  4  1  0
 10 18  1  0
 11 16  1  0
 12 13  1  0
 12 11  1  0
 14 13  1  0
 14 23  1  0
 14 15  1  0
 16 10  1  0
 16 15  1  0
 17 10  2  0
 18  9  1  0
 19 18  1  0
 20 21  2  0
 21 40  1  0
 22 21  1  0
 22 25  1  0
 23 20  1  0
 23 24  1  0
 24 22  2  0
 25 26  1  0
 26 27  2  0
 28 31  1  0
 28 27  1  0
 29 28  2  0
 30 29  1  0
 30 25  2  0
 31 32  1  0
 32 33  1  0
 33 34  2  0
 35 34  1  0
 35 39  1  0
 36 35  2  0
 37 32  2  0
 37 36  1  0
 38 37  1  0
 40 41  1  0
 41 44  1  0
 41 43  1  0
 42 40  2  0
 45 46  1  0
 45 20  1  0
 47 45  1  0
 49 48  1  0
 49 50  1  0
 49  2  1  0
 51 62  2  0
 52 50  1  0
 52 57  1  0
 53 61  1  0
 53 63  1  0
 54 60  1  0
 54 56  1  0
 55 61  1  0
 56 55  1  0
 57 56  2  0
 58 52  2  0
 59 58  1  0
 59 54  2  0
 60 53  1  0
 61 51  1  0
 63 65  2  0
 64 63  1  0
 66 64  1  0
 67 76  2  0
 67 72  1  0
 68 64  1  0
 68 72  1  0
 69 68  1  0
 70 71  1  0
 70 69  1  0
 71 67  1  0
 72 73  2  0
 73 74  1  0
 75 74  2  0
 76 75  1  0
 77 51  1  0
 77 82  1  0
 77 78  1  0
 78 81  1  1
 78 79  1  0
 80 78  1  0
 82 85  1  0
 83 87  1  0
 83 82  1  0
 84 83  2  0
 87 86  1  0
 89 87  1  0
 89 90  1  0
 89 88  1  0
M  ISO  4  10 100  18 100  49 101  50 101
M  END
>  <TORSDO>  (20) 
F 19

>  <SCORE>  (20) 
-14.611

>  <name>  (20) 
19

>  <ligand_id>  (20) 
19

>  <original_smiles>  (20) 
[H]c1c([H])c([H])c2c(c1[H])C([H])([H])C([H])([H])C([H])([H])C2([H])N([H])C(=O)C1([H])N(C(=O)C([H])(N([H])C(=O)C([H])(N([H])C([H])([H])[H])C([H])([H])[H])C(C([H])([H])[H])(C([H])([H])[H])C([H])([H])[H])C([H])([H])c2c([H])c(OC([H])(C([H])([H])[H])C([H])(n3c([H])c(C([H])([H])N([H])C(=O)N4C([H])([H])C([H])([H])C([H])([H])C([H])(n5nc(-c6c([H])c([H])c(Oc7c([H])c([H])c(F)c([H])c7F)c([H])c6[H])c(C(=O)N([H])[H])c5N([H])[H])C4([H])[H])c([H])c3C([H])([H])[H])C([H])([H])[H])c([H])c([H])c2C1([H])[H]

>  <smiles>  (20) 
[H]c1c([H])c([H])c2c(c1[H])C([H])([H])C([H])([H])C([H])([H])C2([H])N([H])C(=O)C1([H])N(C(=O)C([H])(N([H])C(=O)C([H])(N([H])C([H])([H])[H])C([H])([H])[H])C(C([H])([H])[H])(C([H])([H])[H])C([H])([H])[H])C([H])([H])c2c([H])c(OC([H])(C([H])([H])[H])C([H])(n3c([H])c(C([H])([H])N([H])C(=O)N4C([H])([H])C([H])([H])C([H])([H])C([H])(n5nc(-c6c([H])c([H])c(Oc7c([H])c([H])c(F)c([H])c7F)c([H])c6[H])c(C(=O)N([H])[H])c5N([H])[H])C4([H])[H])c([H])c3C([H])([H])[H])C([H])([H])[H])c([H])c([H])c2C1([H])[H]

$$$$
20:0:0
     RDKit          3D

 93101  0  0  1  0  0  0  0  0999 V2000
  -28.7630  -21.0970   20.0650 N   0  0  1  0  0  4  0  0  0  0  0  0
  -28.2790  -21.0730   20.9510 H   0  0  0  0  0  0  0  0  0  0  0  0
  -26.0300  -19.6220   16.9110 C   0  0  0  0  0  2  0  0  0  0  0  0
  -27.0340  -20.7340   16.5710 C   0  0  0  0  0  2  0  0  0  0  0  0
  -25.5020  -19.7790   18.3480 C   0  0  0  0  0  2  0  0  0  0  0  0
  -28.2100  -20.7340   17.5670 C   0  0  0  0  0  2  0  0  0  0  0  0
  -26.6330  -19.8750   19.3960 C   0  0  0  0  0  2  0  0  0  0  0  0
  -27.6970  -20.9300   19.0170 C   0  0  0  0  0  3  0  0  0  0  0  0
  -29.7940  -19.9510   20.1650 C   0  0  0  0  0  2  0  0  0  0  0  0
  -29.3370  -18.4370   20.4820 C   0  0  0  0  0  3  0  0  0  0  0  0
  -30.4560  -17.2910   20.5310 C   0  0  0  0  0  3  0  0  0  0  0  0
  -30.8190  -14.7370   20.7090 C   0  0  0  0  0  0  0  0  0  0  0  0
  -30.6440  -12.4690   19.7230 C   0  0  0  0  0  2  0  0  0  0  0  0
  -29.7770  -12.5740   18.4510 C   0  0  0  0  0  2  0  0  0  0  0  0
  -28.2820  -12.4280   18.8000 C   0  0  0  0  0  2  0  0  0  0  0  0
  -27.8560  -13.3280   19.9900 C   0  0  0  0  0  3  0  0  0  0  0  0
  -28.8480  -13.2080   21.1670 C   0  0  0  0  0  2  0  0  0  0  0  0
  -30.1840  -13.5240   20.6480 N   0  0  0  0  0  0  0  0  0  0  0  0
  -32.0190  -14.8370   20.4430 O   0  0  0  0  0  0  0  0  0  0  0  0
  -30.0360  -15.8650   20.8180 N   0  0  0  0  0  0  0  0  0  0  0  0
  -29.0510  -15.7030   20.9700 H   0  0  0  0  0  0  0  0  0  0  0  0
  -25.4350  -13.9550   20.5680 C   0  0  0  0  0  0  0  0  0  0  0  0
  -24.3450  -13.1970   20.8920 C   0  0  0  0  0  0  0  0  0  0  0  0
  -24.7970  -11.8420   20.9110 C   0  0  0  0  0  0  0  0  0  0  0  0
  -26.4840  -13.0640   20.4060 N   0  0  0  0  0  0  0  0  0  0  0  0
  -26.1020  -11.7890   20.6760 N   0  0  0  0  0  0  0  0  0  0  0  0
  -24.0500  -10.5880   21.0830 C   0  0  0  0  0  0  0  0  0  0  0  0
  -24.4430   -9.6200   22.0330 C   0  0  0  0  0  3  0  0  0  0  0  0
  -23.7010   -8.4300   22.1920 C   0  0  0  0  0  3  0  0  0  0  0  0
  -22.5500   -8.2020   21.4000 C   0  0  0  0  0  0  0  0  0  0  0  0
  -22.1760   -9.1580   20.4410 C   0  0  0  0  0  3  0  0  0  0  0  0
  -22.9180  -10.3390   20.2800 C   0  0  0  0  0  3  0  0  0  0  0  0
  -21.7820   -7.0650   21.4700 O   0  0  0  0  0  0  0  0  0  0  0  0
  -21.7080   -6.3140   22.6150 C   0  0  0  0  0  0  0  0  0  0  0  0
  -21.2940   -6.8690   23.8450 C   0  0  0  0  0  3  0  0  0  0  0  0
  -21.1660   -6.0470   24.9820 C   0  0  0  0  0  3  0  0  0  0  0  0
  -21.4430   -4.6700   24.8900 C   0  0  0  0  0  0  0  0  0  0  0  0
  -21.8500   -4.1130   23.6650 C   0  0  0  0  0  3  0  0  0  0  0  0
  -21.9810   -4.9330   22.5300 C   0  0  0  0  0  0  0  0  0  0  0  0
  -22.3540   -4.3900   21.3460 F   0  0  0  0  0  0  0  0  0  0  0  0
  -21.3120   -3.8780   25.9800 F   0  0  0  0  0  0  0  0  0  0  0  0
  -22.9380  -13.6880   21.0770 C   0  0  0  0  0  0  0  0  0  0  0  0
  -22.1620  -13.0240   21.9270 N   0  0  0  0  0  0  0  0  0  0  0  0
  -22.5350  -14.6980   20.5010 O   0  0  0  0  0  0  0  0  0  0  0  0
  -22.4980  -12.2050   22.4130 H   0  0  0  0  0  0  0  0  0  0  0  0
  -21.2160  -13.3370   22.0950 H   0  0  0  0  0  0  0  0  0  0  0  0
  -25.6170  -15.3220   20.3710 N   0  0  0  0  0  0  0  0  0  0  0  0
  -24.8410  -15.9720   20.4030 H   0  0  0  0  0  0  0  0  0  0  0  0
  -26.4740  -15.7430   20.0400 H   0  0  0  0  0  0  0  0  0  0  0  0
  -29.3550  -22.5160   19.9950 C   0  0  0  0  0  2  0  0  0  0  0  0
  -28.5100  -23.7810   20.5480 C   0  0  0  0  0  2  0  0  0  0  0  0
  -28.7330  -25.2050   19.8420 C   0  0  0  0  0  2  0  0  0  0  0  0
  -28.5060  -26.4920   20.5560 O   0  0  0  0  0  0  0  0  0  0  0  0
  -24.6340  -31.9290   23.2840 C   0  0  0  0  0  0  0  0  0  0  0  0
  -27.3590  -27.2960   20.4230 C   0  0  0  0  0  0  0  0  0  0  0  0
  -23.4860  -30.4910   21.6360 C   0  0  0  0  0  3  0  0  0  0  0  0
  -24.9890  -28.9080   20.2940 C   0  0  0  0  0  0  0  0  0  0  0  0
  -26.0280  -30.8060   21.5340 C   0  0  0  0  0  2  0  0  0  0  0  0
  -26.1320  -29.4110   20.9240 C   0  0  0  0  0  0  0  0  0  0  0  0
  -27.3130  -28.6130   20.9880 C   0  0  0  0  0  3  0  0  0  0  0  0
  -26.1890  -26.8440   19.7740 C   0  0  0  0  0  3  0  0  0  0  0  0
  -25.0190  -27.6300   19.7140 C   0  0  0  0  0  3  0  0  0  0  0  0
  -23.7490  -29.7810   20.2810 C   0  0  0  0  0  2  0  0  0  0  0  0
  -24.7320  -31.0930   22.2090 N   0  0  0  0  0  0  0  0  0  0  0  0
  -23.5330  -32.2210   23.7730 O   0  0  0  0  0  0  0  0  0  0  0  0
  -22.7910  -29.4960   22.5940 C   0  0  0  0  0  0  0  0  0  0  0  0
  -21.4630  -29.3440   22.4510 N   0  0  0  0  0  0  0  0  0  0  0  0
  -23.4450  -28.8620   23.4270 O   0  0  0  0  0  0  0  0  0  0  0  0
  -20.9930  -29.9070   21.7560 H   0  0  0  0  0  0  0  0  0  0  0  0
  -18.0500  -28.2640   22.9450 C   0  0  0  0  0  0  0  0  0  0  0  0
  -20.6150  -28.4310   23.2170 C   0  0  0  0  0  3  0  0  0  0  0  0
  -20.6680  -27.0000   22.6320 C   0  0  0  0  0  2  0  0  0  0  0  0
  -19.5550  -26.7260   21.6150 C   0  0  0  0  0  2  0  0  0  0  0  0
  -18.1790  -26.9140   22.2600 C   0  0  0  0  0  2  0  0  0  0  0  0
  -19.1940  -28.9850   23.3790 C   0  0  0  0  0  0  0  0  0  0  0  0
  -19.0180  -30.2550   23.9730 C   0  0  0  0  0  3  0  0  0  0  0  0
  -17.7310  -30.7990   24.1420 C   0  0  0  0  0  3  0  0  0  0  0  0
  -16.6010  -30.0740   23.7250 C   0  0  0  0  0  3  0  0  0  0  0  0
  -16.7620  -28.8090   23.1320 C   0  0  0  0  0  3  0  0  0  0  0  0
  -25.8960  -32.5730   23.9350 C   0  0  0  0  0  3  0  0  0  0  0  0
  -25.5780  -33.9790   24.2240 N   0  0  0  0  0  0  0  0  0  0  0  0
  -25.9440  -35.0130   23.4550 C   0  0  0  0  0  0  0  0  0  0  0  0
  -26.6500  -34.8850   22.4520 O   0  0  0  0  0  0  0  0  0  0  0  0
  -24.9490  -34.1550   24.9920 H   0  0  0  0  0  0  0  0  0  0  0  0
  -24.2300  -36.8050   23.0100 C   0  0  0  0  0  1  0  0  0  0  0  0
  -25.4440  -36.4120   23.8660 C   0  0  0  0  0  3  0  0  0  0  0  0
  -27.5540  -37.3130   24.7420 C   0  0  0  0  0  1  0  0  0  0  0  0
  -26.4800  -37.4620   23.7640 N   0  0  0  0  0  0  0  0  0  0  0  0
  -26.0680  -38.3830   23.8860 H   0  0  0  0  0  0  0  0  0  0  0  0
  -26.3700  -31.8280   25.2440 C   0  0  1  0  0  0  0  0  0  0  0  0
  -25.2410  -31.6150   26.2800 C   0  0  0  0  0  1  0  0  0  0  0  0
  -26.9610  -30.4390   24.9040 C   0  0  0  0  0  1  0  0  0  0  0  0
  -27.4950  -32.6390   25.9300 C   0  0  0  0  0  1  0  0  0  0  0  0
  1  9  1  0
  1  2  1  1
  3  5  1  0
  4  3  1  0
  4  6  1  0
  5  7  1  0
  6  8  1  0
  8  7  1  0
  8  1  1  0
  9 10  1  0
 10 11  2  0
 11 20  1  0
 12 20  1  0
 13 18  1  0
 14 15  1  0
 14 13  1  0
 16 15  1  0
 16 25  1  0
 16 17  1  0
 18 12  1  0
 18 17  1  0
 19 12  2  0
 20 21  1  0
 22 23  2  0
 23 24  1  0
 23 42  1  0
 24 27  1  0
 25 22  1  0
 25 26  1  0
 26 24  2  0
 27 28  1  0
 28 29  2  0
 30 33  1  0
 30 29  1  0
 31 30  2  0
 32 31  1  0
 32 27  2  0
 33 34  1  0
 34 35  1  0
 35 36  2  0
 37 36  1  0
 37 41  1  0
 38 37  2  0
 39 34  2  0
 39 38  1  0
 40 39  1  0
 42 43  1  0
 43 46  1  0
 43 45  1  0
 44 42  2  0
 47 48  1  0
 47 22  1  0
 49 47  1  0
 50  1  1  0
 50 51  1  0
 52 51  1  0
 52 53  1  0
 54 65  2  0
 55 53  1  0
 55 60  1  0
 56 64  1  0
 56 66  1  0
 57 59  1  0
 58 64  1  0
 59 60  2  0
 59 58  1  0
 61 55  2  0
 62 61  1  0
 62 57  2  0
 63 57  1  0
 63 56  1  0
 64 54  1  0
 66 68  2  0
 67 66  1  0
 69 67  1  0
 70 79  2  0
 70 75  1  0
 71 67  1  0
 71 75  1  0
 72 71  1  0
 73 74  1  0
 73 72  1  0
 74 70  1  0
 75 76  2  0
 76 77  1  0
 78 77  2  0
 79 78  1  0
 80 54  1  0
 80 81  1  0
 80 90  1  0
 81 84  1  0
 82 86  1  0
 82 81  1  0
 83 82  2  0
 86 85  1  0
 88 86  1  0
 88 89  1  0
 88 87  1  0
 90 93  1  1
 90 91  1  0
 92 90  1  0
M  ISO  4  12 100  20 100  52 101  53 101
M  END
>  <TORSDO>  (21) 
F 23

>  <SCORE>  (21) 
-10.860

>  <name>  (21) 
20

>  <ligand_id>  (21) 
20

>  <original_smiles>  (21) 
[H]c1c([H])c([H])c2c(c1[H])C([H])([H])C([H])([H])C([H])([H])C2([H])N([H])C(=O)C1([H])N(C(=O)C([H])(N([H])C(=O)C([H])(N([H])C([H])([H])[H])C([H])([H])[H])C(C([H])([H])[H])(C([H])([H])[H])C([H])([H])[H])C([H])([H])c2c([H])c(OC([H])([H])C([H])([H])C([H])([H])[N+]([H])(C([H])([H])C([H])([H])C([H])([H])N([H])C(=O)N3C([H])([H])C([H])([H])C([H])([H])C([H])(n4nc(-c5c([H])c([H])c(Oc6c([H])c([H])c(F)c([H])c6F)c([H])c5[H])c(C(=O)N([H])[H])c4N([H])[H])C3([H])[H])C3([H])C([H])([H])C([H])([H])C([H])([H])C([H])([H])C3([H])[H])c([H])c([H])c2C1([H])[H]

>  <smiles>  (21) 
[H]c1c([H])c([H])c2c(c1[H])C([H])([H])C([H])([H])C([H])([H])C2([H])N([H])C(=O)C1([H])N(C(=O)C([H])(N([H])C(=O)C([H])(N([H])C([H])([H])[H])C([H])([H])[H])C(C([H])([H])[H])(C([H])([H])[H])C([H])([H])[H])C([H])([H])c2c([H])c(OC([H])([H])C([H])([H])C([H])([H])[N+]([H])(C([H])([H])C([H])([H])C([H])([H])N([H])C(=O)N3C([H])([H])C([H])([H])C([H])([H])C([H])(n4nc(-c5c([H])c([H])c(Oc6c([H])c([H])c(F)c([H])c6F)c([H])c5[H])c(C(=O)N([H])[H])c4N([H])[H])C3([H])[H])C3([H])C([H])([H])C([H])([H])C([H])([H])C([H])([H])C3([H])[H])c([H])c([H])c2C1([H])[H]

$$$$
21:0:0
     RDKit          3D

 95102  0  0  1  0  0  0  0  0999 V2000
  -29.5920  -21.4250   22.1950 C   0  0  0  0  0  0  0  0  0  0  0  0
  -29.5290  -22.6980   21.7520 N   0  0  0  0  0  0  0  0  0  0  0  0
  -28.7800  -20.5670   21.8450 O   0  0  0  0  0  0  0  0  0  0  0  0
  -30.2020  -23.3660   22.1080 H   0  0  0  0  0  0  0  0  0  0  0  0
  -30.2830  -20.7580   24.5810 C   0  0  0  0  0  1  0  0  0  0  0  0
  -30.7540  -21.0220   23.1320 C   0  0  0  0  0  3  0  0  0  0  0  0
  -31.6320  -19.8800   22.5150 C   0  0  0  0  0  2  0  0  0  0  0  0
  -31.4660  -18.5330   23.1280 N   0  0  0  0  0  4  0  0  0  0  0  0
  -32.3830  -18.1670   23.3300 H   0  0  0  0  0  0  0  0  0  0  0  0
  -31.0110  -18.6660   24.0180 H   0  0  0  0  0  0  0  0  0  0  0  0
  -30.7150  -17.5180   22.3390 C   0  0  0  0  0  2  0  0  0  0  0  0
  -31.6290  -16.4250   21.7140 C   0  0  0  0  0  2  0  0  0  0  0  0
  -31.2760  -14.5080   20.0730 C   0  0  0  0  0  0  0  0  0  0  0  0
  -30.8690  -12.3360   18.9330 C   0  0  0  0  0  2  0  0  0  0  0  0
  -29.8780  -12.4200   17.7550 C   0  0  0  0  0  2  0  0  0  0  0  0
  -28.4220  -12.3210   18.2440 C   0  0  0  0  0  2  0  0  0  0  0  0
  -28.1360  -13.2830   19.4250 C   0  0  0  0  0  3  0  0  0  0  0  0
  -29.2080  -13.1290   20.5230 C   0  0  0  0  0  2  0  0  0  0  0  0
  -30.5300  -13.3770   19.9200 N   0  0  0  0  0  0  0  0  0  0  0  0
  -32.2760  -14.7440   19.3850 O   0  0  0  0  0  0  0  0  0  0  0  0
  -30.8870  -15.3100   21.0910 N   0  0  0  0  0  0  0  0  0  0  0  0
  -30.0370  -15.0240   21.5550 H   0  0  0  0  0  0  0  0  0  0  0  0
  -25.8210  -14.0350   20.2620 C   0  0  0  0  0  0  0  0  0  0  0  0
  -24.7240  -13.3260   20.6810 C   0  0  0  0  0  0  0  0  0  0  0  0
  -25.0930  -11.9500   20.6060 C   0  0  0  0  0  0  0  0  0  0  0  0
  -26.7910  -13.0900   19.9650 N   0  0  0  0  0  0  0  0  0  0  0  0
  -26.3580  -11.8300   20.2250 N   0  0  0  0  0  0  0  0  0  0  0  0
  -24.2940  -10.7350   20.8180 C   0  0  0  0  0  0  0  0  0  0  0  0
  -24.6760   -9.7610   21.7660 C   0  0  0  0  0  3  0  0  0  0  0  0
  -23.8840   -8.6100   21.9640 C   0  0  0  0  0  3  0  0  0  0  0  0
  -22.6960   -8.4280   21.2160 C   0  0  0  0  0  0  0  0  0  0  0  0
  -22.3350   -9.3910   20.2580 C   0  0  0  0  0  3  0  0  0  0  0  0
  -23.1280  -10.5320   20.0570 C   0  0  0  0  0  3  0  0  0  0  0  0
  -21.8780   -7.3280   21.3230 O   0  0  0  0  0  0  0  0  0  0  0  0
  -21.7390   -6.6450   22.5050 C   0  0  0  0  0  0  0  0  0  0  0  0
  -21.2850   -7.2790   23.6820 C   0  0  0  0  0  3  0  0  0  0  0  0
  -21.0910   -6.5240   24.8570 C   0  0  0  0  0  3  0  0  0  0  0  0
  -21.3410   -5.1390   24.8540 C   0  0  0  0  0  0  0  0  0  0  0  0
  -21.7920   -4.5070   23.6820 C   0  0  0  0  0  3  0  0  0  0  0  0
  -21.9870   -5.2590   22.5100 C   0  0  0  0  0  0  0  0  0  0  0  0
  -22.3980   -4.6400   21.3760 F   0  0  0  0  0  0  0  0  0  0  0  0
  -21.1500   -4.4130   25.9800 F   0  0  0  0  0  0  0  0  0  0  0  0
  -23.3800  -13.8940   21.0390 C   0  0  0  0  0  0  0  0  0  0  0  0
  -22.6700  -13.2440   21.9590 N   0  0  0  0  0  0  0  0  0  0  0  0
  -22.9730  -14.9420   20.5400 O   0  0  0  0  0  0  0  0  0  0  0  0
  -23.0150  -12.3970   22.3830 H   0  0  0  0  0  0  0  0  0  0  0  0
  -21.7690  -13.6040   22.2410 H   0  0  0  0  0  0  0  0  0  0  0  0
  -26.0670  -15.3920   20.0920 N   0  0  0  0  0  0  0  0  0  0  0  0
  -25.3480  -16.0970   20.2370 H   0  0  0  0  0  0  0  0  0  0  0  0
  -26.9250  -15.7750   19.7110 H   0  0  0  0  0  0  0  0  0  0  0  0
  -28.6380  -23.1470   20.6640 C   0  0  0  0  0  2  0  0  0  0  0  0
  -28.9440  -24.5520   20.0640 C   0  0  0  0  0  2  0  0  0  0  0  0
  -29.3950  -26.2330   21.9290 C   0  0  0  0  0  1  0  0  0  0  0  0
  -28.4110  -25.7990   20.8300 C   0  0  0  0  0  3  0  0  0  0  0  0
  -28.2680  -26.9150   19.9260 O   0  0  0  0  0  0  0  0  0  0  0  0
  -24.5500  -31.9970   23.2680 C   0  0  0  0  0  0  0  0  0  0  0  0
  -27.0950  -27.6350   20.0170 C   0  0  0  0  0  0  0  0  0  0  0  0
  -23.2800  -30.6320   21.6370 C   0  0  0  0  0  3  0  0  0  0  0  0
  -24.6850  -29.1210   20.1340 C   0  0  0  0  0  0  0  0  0  0  0  0
  -25.7920  -31.0130   21.3400 C   0  0  0  0  0  2  0  0  0  0  0  0
  -25.8620  -29.6480   20.6790 C   0  0  0  0  0  0  0  0  0  0  0  0
  -27.0690  -28.9160   20.6120 C   0  0  0  0  0  3  0  0  0  0  0  0
  -25.9000  -27.1130   19.4760 C   0  0  0  0  0  3  0  0  0  0  0  0
  -24.6990  -27.8530   19.5210 C   0  0  0  0  0  3  0  0  0  0  0  0
  -23.4430  -29.9790   20.2380 C   0  0  0  0  0  2  0  0  0  0  0  0
  -24.5610  -31.2290   22.1410 N   0  0  0  0  0  0  0  0  0  0  0  0
  -23.4930  -32.2490   23.8600 O   0  0  0  0  0  0  0  0  0  0  0  0
  -22.6710  -29.5920   22.6080 C   0  0  0  0  0  0  0  0  0  0  0  0
  -21.3540  -29.3500   22.4860 N   0  0  0  0  0  0  0  0  0  0  0  0
  -23.3770  -29.0020   23.4290 O   0  0  0  0  0  0  0  0  0  0  0  0
  -20.8330  -29.8800   21.8000 H   0  0  0  0  0  0  0  0  0  0  0  0
  -18.0520  -27.9500   22.9380 C   0  0  0  0  0  0  0  0  0  0  0  0
  -20.5820  -28.3780   23.2630 C   0  0  0  0  0  3  0  0  0  0  0  0
  -20.7910  -26.9410   22.7290 C   0  0  0  0  0  2  0  0  0  0  0  0
  -19.7350  -26.5240   21.6990 C   0  0  0  0  0  2  0  0  0  0  0  0
  -18.3290  -26.5980   22.3030 C   0  0  0  0  0  2  0  0  0  0  0  0
  -19.1100  -28.7910   23.3760 C   0  0  0  0  0  0  0  0  0  0  0  0
  -18.7960  -30.0540   23.9260 C   0  0  0  0  0  3  0  0  0  0  0  0
  -17.4570  -30.4720   24.0490 C   0  0  0  0  0  3  0  0  0  0  0  0
  -16.4150  -29.6270   23.6300 C   0  0  0  0  0  3  0  0  0  0  0  0
  -16.7150  -28.3700   23.0760 C   0  0  0  0  0  3  0  0  0  0  0  0
  -25.8620  -32.6160   23.8480 C   0  0  0  0  0  3  0  0  0  0  0  0
  -25.5770  -34.0160   24.1850 N   0  0  0  0  0  0  0  0  0  0  0  0
  -25.9150  -35.0650   23.4230 C   0  0  0  0  0  0  0  0  0  0  0  0
  -26.5720  -34.9540   22.3840 O   0  0  0  0  0  0  0  0  0  0  0  0
  -25.0010  -34.1790   24.9970 H   0  0  0  0  0  0  0  0  0  0  0  0
  -24.2280  -36.8950   23.0810 C   0  0  0  0  0  1  0  0  0  0  0  0
  -25.4560  -36.4580   23.8940 C   0  0  0  0  0  3  0  0  0  0  0  0
  -27.6010  -37.2990   24.7380 C   0  0  0  0  0  1  0  0  0  0  0  0
  -26.5070  -37.4920   23.7890 N   0  0  0  0  0  0  0  0  0  0  0  0
  -26.1160  -38.4180   23.9360 H   0  0  0  0  0  0  0  0  0  0  0  0
  -26.4150  -31.8450   25.1070 C   0  0  1  0  0  0  0  0  0  0  0  0
  -25.3550  -31.6160   26.2090 C   0  0  0  0  0  1  0  0  0  0  0  0
  -26.9790  -30.4670   24.6860 C   0  0  0  0  0  1  0  0  0  0  0  0
  -27.5890  -32.6330   25.7310 C   0  0  0  0  0  1  0  0  0  0  0  0
  1  6  1  0
  2  4  1  0
  2  1  1  0
  3  1  2  0
  6  5  1  0
  7  8  1  0
  7  6  1  0
  8  9  1  0
  8 10  1  0
 11  8  1  0
 12 11  1  0
 13 21  1  0
 14 19  1  0
 15 16  1  0
 15 14  1  0
 17 16  1  0
 17 26  1  0
 17 18  1  0
 19 13  1  0
 19 18  1  0
 20 13  2  0
 21 22  1  0
 21 12  1  0
 23 24  2  0
 24 43  1  0
 25 24  1  0
 25 28  1  0
 26 27  1  0
 26 23  1  0
 27 25  2  0
 28 29  1  0
 29 30  2  0
 31 34  1  0
 31 30  1  0
 32 31  2  0
 33 32  1  0
 33 28  2  0
 34 35  1  0
 35 40  2  0
 35 36  1  0
 36 37  2  0
 38 37  1  0
 38 42  1  0
 39 38  2  0
 40 39  1  0
 41 40  1  0
 43 44  1  0
 44 47  1  0
 44 46  1  0
 45 43  2  0
 48 49  1  0
 48 23  1  0
 50 48  1  0
 51  2  1  0
 52 51  1  0
 52 54  1  0
 54 53  1  0
 55 57  1  0
 55 54  1  0
 56 67  2  0
 57 62  1  0
 58 66  1  0
 58 68  1  0
 59 65  1  0
 59 61  1  0
 60 66  1  0
 61 60  1  0
 62 61  2  0
 63 64  1  0
 63 57  2  0
 64 59  2  0
 65 58  1  0
 66 56  1  0
 68 70  2  0
 69 68  1  0
 71 69  1  0
 72 81  2  0
 72 77  1  0
 73 69  1  0
 73 77  1  0
 74 73  1  0
 75 76  1  0
 75 74  1  0
 76 72  1  0
 77 78  2  0
 78 79  1  0
 80 79  2  0
 81 80  1  0
 82 56  1  0
 82 83  1  0
 82 92  1  0
 83 86  1  0
 84 88  1  0
 84 83  1  0
 85 84  2  0
 88 87  1  0
 90 88  1  0
 90 91  1  0
 90 89  1  0
 92 95  1  1
 92 93  1  0
 94 92  1  0
M  ISO  4  13 100  21 100  54 101  55 101
M  END
>  <TORSDO>  (22) 
F 24

>  <SCORE>  (22) 
-11.348

>  <name>  (22) 
21

>  <ligand_id>  (22) 
21

>  <original_smiles>  (22) 
[H]c1c([H])c([H])c2c(c1[H])C([H])([H])C([H])([H])C([H])([H])C2([H])N([H])C(=O)C1([H])N(C(=O)C([H])(N([H])C(=O)C([H])(N([H])C([H])([H])[H])C([H])([H])[H])C(C([H])([H])[H])(C([H])([H])[H])C([H])([H])[H])C([H])([H])c2c([H])c(OC([H])(C([H])([H])[H])C([H])([H])C([H])([H])N([H])C(=O)C([H])(C([H])([H])[H])C([H])([H])[N+]([H])([H])C([H])([H])C([H])([H])N([H])C(=O)N3C([H])([H])C([H])([H])C([H])([H])C([H])(n4nc(-c5c([H])c([H])c(Oc6c([H])c([H])c(F)c([H])c6F)c([H])c5[H])c(C(=O)N([H])[H])c4N([H])[H])C3([H])[H])c([H])c([H])c2C1([H])[H]

>  <smiles>  (22) 
[H]c1c([H])c([H])c2c(c1[H])C([H])([H])C([H])([H])C([H])([H])C2([H])N([H])C(=O)C1([H])N(C(=O)C([H])(N([H])C(=O)C([H])(N([H])C([H])([H])[H])C([H])([H])[H])C(C([H])([H])[H])(C([H])([H])[H])C([H])([H])[H])C([H])([H])c2c([H])c(OC([H])(C([H])([H])[H])C([H])([H])C([H])([H])N([H])C(=O)C([H])(C([H])([H])[H])C([H])([H])[N+]([H])([H])C([H])([H])C([H])([H])N([H])C(=O)N3C([H])([H])C([H])([H])C([H])([H])C([H])(n4nc(-c5c([H])c([H])c(Oc6c([H])c([H])c(F)c([H])c6F)c([H])c5[H])c(C(=O)N([H])[H])c4N([H])[H])C3([H])[H])c([H])c([H])c2C1([H])[H]

$$$$
22:0:0
     RDKit          3D

 97105  0  0  1  0  0  0  0  0999 V2000
  -31.4490  -20.2600   18.8490 C   0  0  0  0  0  1  0  0  0  0  0  0
  -30.5640  -20.5620   20.0730 C   0  0  0  0  0  3  0  0  0  0  0  0
  -30.3960  -17.8540   20.3030 C   0  0  0  0  0  3  0  0  0  0  0  0
  -30.0990  -19.2120   20.7200 C   0  0  0  0  0  0  0  0  0  0  0  0
  -29.3710  -19.0740   21.8780 C   0  0  0  0  0  0  0  0  0  0  0  0
  -29.8200  -16.9620   21.1820 C   0  0  0  0  0  0  0  0  0  0  0  0
  -28.8640  -20.1760   22.7660 C   0  0  0  0  0  1  0  0  0  0  0  0
  -29.1450  -17.7130   22.1570 N   0  0  0  0  0  0  0  0  0  0  0  0
  -30.5940  -14.6130   20.5650 C   0  0  0  0  0  0  0  0  0  0  0  0
  -30.4550  -12.3960   19.4290 C   0  0  0  0  0  2  0  0  0  0  0  0
  -29.5120  -12.5320   18.2110 C   0  0  0  0  0  2  0  0  0  0  0  0
  -28.0300  -12.3700   18.6190 C   0  0  0  0  0  2  0  0  0  0  0  0
  -27.6620  -13.2080   19.8710 C   0  0  0  0  0  3  0  0  0  0  0  0
  -28.7060  -12.9810   20.9830 C   0  0  0  0  0  2  0  0  0  0  0  0
  -30.0200  -13.3730   20.4490 N   0  0  0  0  0  0  0  0  0  0  0  0
  -31.7250  -14.8400   20.1200 O   0  0  0  0  0  0  0  0  0  0  0  0
  -29.7820  -15.5760   21.1100 N   0  0  0  0  0  0  0  0  0  0  0  0
  -28.9590  -15.1770   21.5310 H   0  0  0  0  0  0  0  0  0  0  0  0
  -25.2590  -13.8120   20.5610 C   0  0  0  0  0  0  0  0  0  0  0  0
  -24.1840  -13.0420   20.9170 C   0  0  0  0  0  0  0  0  0  0  0  0
  -24.6410  -11.6900   20.8740 C   0  0  0  0  0  0  0  0  0  0  0  0
  -26.3040  -12.9310   20.3330 N   0  0  0  0  0  0  0  0  0  0  0  0
  -25.9330  -11.6470   20.5740 N   0  0  0  0  0  0  0  0  0  0  0  0
  -23.9070  -10.4290   21.0410 C   0  0  0  0  0  0  0  0  0  0  0  0
  -24.3620   -9.4200   21.9190 C   0  0  0  0  0  3  0  0  0  0  0  0
  -23.6310   -8.2230   22.0760 C   0  0  0  0  0  3  0  0  0  0  0  0
  -22.4280   -8.0280   21.3540 C   0  0  0  0  0  0  0  0  0  0  0  0
  -21.9910   -9.0250   20.4650 C   0  0  0  0  0  3  0  0  0  0  0  0
  -22.7240  -10.2130   20.3070 C   0  0  0  0  0  3  0  0  0  0  0  0
  -21.6630   -6.8880   21.4250 O   0  0  0  0  0  0  0  0  0  0  0  0
  -21.6850   -6.0740   22.5280 C   0  0  0  0  0  0  0  0  0  0  0  0
  -21.4010   -6.5640   23.8210 C   0  0  0  0  0  3  0  0  0  0  0  0
  -21.3660   -5.6790   24.9170 C   0  0  0  0  0  3  0  0  0  0  0  0
  -21.6040   -4.3050   24.7220 C   0  0  0  0  0  0  0  0  0  0  0  0
  -21.8810   -3.8150   23.4330 C   0  0  0  0  0  3  0  0  0  0  0  0
  -21.9190   -4.6970   22.3400 C   0  0  0  0  0  0  0  0  0  0  0  0
  -22.1660   -4.2160   21.0980 F   0  0  0  0  0  0  0  0  0  0  0  0
  -21.5630   -3.4530   25.7730 F   0  0  0  0  0  0  0  0  0  0  0  0
  -22.7870  -13.5230   21.1850 C   0  0  0  0  0  0  0  0  0  0  0  0
  -22.0490  -12.8250   22.0410 N   0  0  0  0  0  0  0  0  0  0  0  0
  -22.3560  -14.5550   20.6710 O   0  0  0  0  0  0  0  0  0  0  0  0
  -22.4090  -11.9920   22.4830 H   0  0  0  0  0  0  0  0  0  0  0  0
  -21.1120  -13.1300   22.2610 H   0  0  0  0  0  0  0  0  0  0  0  0
  -25.4240  -15.1810   20.3850 N   0  0  0  0  0  0  0  0  0  0  0  0
  -24.6470  -15.8260   20.4670 H   0  0  0  0  0  0  0  0  0  0  0  0
  -26.2640  -15.6130   20.0200 H   0  0  0  0  0  0  0  0  0  0  0  0
  -28.5200  -15.8220   23.7730 C   0  0  0  0  0  1  0  0  0  0  0  0
  -26.8190  -17.5170   23.0070 C   0  0  0  0  0  1  0  0  0  0  0  0
  -28.3070  -17.2600   23.2900 C   0  0  0  0  0  3  0  0  0  0  0  0
  -29.4840  -21.6770   19.6860 C   0  0  0  0  0  2  0  0  0  0  0  0
  -29.1170  -22.7160   20.7180 N   0  0  0  0  0  4  0  0  0  0  0  0
  -29.6160  -22.4570   21.5520 H   0  0  0  0  0  0  0  0  0  0  0  0
  -28.1380  -22.6110   20.9340 H   0  0  0  0  0  0  0  0  0  0  0  0
  -29.4160  -24.1900   20.4860 C   0  0  0  0  0  2  0  0  0  0  0  0
  -28.3990  -24.9280   18.2750 C   0  0  0  0  0  1  0  0  0  0  0  0
  -28.3020  -25.0870   19.8030 C   0  0  0  0  0  3  0  0  0  0  0  0
  -28.3770  -26.5280   20.1310 O   0  0  0  0  0  0  0  0  0  0  0  0
  -24.6240  -31.8620   23.2050 C   0  0  0  0  0  0  0  0  0  0  0  0
  -27.2280  -27.3370   20.0980 C   0  0  0  0  0  0  0  0  0  0  0  0
  -23.4150  -30.4880   21.5480 C   0  0  0  0  0  3  0  0  0  0  0  0
  -24.8610  -28.9470   20.1120 C   0  0  0  0  0  0  0  0  0  0  0  0
  -25.9570  -30.7970   21.3750 C   0  0  0  0  0  2  0  0  0  0  0  0
  -26.0310  -29.4280   20.7100 C   0  0  0  0  0  0  0  0  0  0  0  0
  -27.2180  -28.6370   20.6910 C   0  0  0  0  0  3  0  0  0  0  0  0
  -26.0230  -26.8970   19.5000 C   0  0  0  0  0  3  0  0  0  0  0  0
  -24.8580  -27.6860   19.5010 C   0  0  0  0  0  3  0  0  0  0  0  0
  -23.6290  -29.8270   20.1620 C   0  0  0  0  0  2  0  0  0  0  0  0
  -24.6830  -31.0660   22.0990 N   0  0  0  0  0  0  0  0  0  0  0  0
  -23.5410  -32.1410   23.7410 O   0  0  0  0  0  0  0  0  0  0  0  0
  -22.7450  -29.4640   22.4940 C   0  0  0  0  0  0  0  0  0  0  0  0
  -21.4170  -29.3050   22.3680 N   0  0  0  0  0  0  0  0  0  0  0  0
  -23.4190  -28.8180   23.3000 O   0  0  0  0  0  0  0  0  0  0  0  0
  -20.9340  -29.8770   21.6900 H   0  0  0  0  0  0  0  0  0  0  0  0
  -18.0280  -28.1380   22.8470 C   0  0  0  0  0  0  0  0  0  0  0  0
  -20.5880  -28.3690   23.1290 C   0  0  0  0  0  3  0  0  0  0  0  0
  -20.6770  -26.9410   22.5420 C   0  0  0  0  0  2  0  0  0  0  0  0
  -19.5750  -26.6380   21.5210 C   0  0  0  0  0  2  0  0  0  0  0  0
  -18.1930  -26.7920   22.1610 C   0  0  0  0  0  2  0  0  0  0  0  0
  -19.1530  -28.8840   23.2880 C   0  0  0  0  0  0  0  0  0  0  0  0
  -18.9450  -30.1450   23.8900 C   0  0  0  0  0  3  0  0  0  0  0  0
  -17.6460  -30.6590   24.0550 C   0  0  0  0  0  3  0  0  0  0  0  0
  -16.5350  -29.9100   23.6320 C   0  0  0  0  0  3  0  0  0  0  0  0
  -16.7270  -28.6510   23.0340 C   0  0  0  0  0  3  0  0  0  0  0  0
  -25.9100  -32.4780   23.8370 C   0  0  0  0  0  3  0  0  0  0  0  0
  -25.5920  -33.8580   24.2280 N   0  0  0  0  0  0  0  0  0  0  0  0
  -25.9050  -34.9450   23.5100 C   0  0  0  0  0  0  0  0  0  0  0  0
  -26.5630  -34.8920   22.4670 O   0  0  0  0  0  0  0  0  0  0  0  0
  -25.0020  -33.9730   25.0390 H   0  0  0  0  0  0  0  0  0  0  0  0
  -24.1490  -36.7290   23.2640 C   0  0  0  0  0  1  0  0  0  0  0  0
  -25.4110  -36.3080   24.0330 C   0  0  0  0  0  3  0  0  0  0  0  0
  -27.5580  -37.1800   24.8460 C   0  0  0  0  0  1  0  0  0  0  0  0
  -26.4290  -37.3780   23.9410 N   0  0  0  0  0  0  0  0  0  0  0  0
  -26.0150  -38.2850   24.1430 H   0  0  0  0  0  0  0  0  0  0  0  0
  -26.4500  -31.6590   25.0730 C   0  0  1  0  0  0  0  0  0  0  0  0
  -25.3750  -31.3730   26.1470 C   0  0  0  0  0  1  0  0  0  0  0  0
  -27.0320  -30.3010   24.6190 C   0  0  0  0  0  1  0  0  0  0  0  0
  -27.6060  -32.4330   25.7490 C   0  0  0  0  0  1  0  0  0  0  0  0
  2  1  1  0
  2  4  1  0
  3  4  1  0
  3  6  2  0
  4  5  2  0
  5  8  1  0
  5  7  1  0
  6  8  1  0
  8 49  1  0
  9 17  1  0
 10 15  1  0
 11 12  1  0
 11 10  1  0
 13 12  1  0
 13 22  1  0
 13 14  1  0
 15  9  1  0
 15 14  1  0
 16  9  2  0
 17  6  1  0
 17 18  1  0
 19 20  2  0
 20 39  1  0
 21 20  1  0
 21 24  1  0
 22 19  1  0
 22 23  1  0
 23 21  2  0
 24 25  1  0
 25 26  2  0
 27 30  1  0
 27 26  1  0
 28 27  2  0
 29 28  1  0
 29 24  2  0
 30 31  1  0
 31 32  1  0
 32 33  2  0
 34 33  1  0
 34 38  1  0
 35 34  2  0
 36 31  2  0
 36 35  1  0
 37 36  1  0
 39 40  1  0
 40 43  1  0
 40 42  1  0
 41 39  2  0
 44 45  1  0
 44 19  1  0
 46 44  1  0
 48 49  1  0
 49 47  1  0
 50  2  1  0
 50 51  1  0
 51 53  1  0
 51 52  1  0
 54 51  1  0
 56 55  1  0
 56 57  1  0
 56 54  1  0
 58 69  2  0
 59 57  1  0
 59 64  1  0
 60 68  1  0
 60 70  1  0
 61 67  1  0
 61 63  1  0
 62 68  1  0
 63 62  1  0
 64 63  2  0
 65 66  1  0
 65 59  2  0
 66 61  2  0
 67 60  1  0
 68 58  1  0
 70 72  2  0
 71 70  1  0
 73 71  1  0
 74 83  2  0
 74 79  1  0
 75 71  1  0
 75 79  1  0
 76 75  1  0
 77 78  1  0
 77 76  1  0
 78 74  1  0
 79 80  2  0
 80 81  1  0
 82 81  2  0
 83 82  1  0
 84 58  1  0
 84 85  1  0
 84 94  1  0
 85 88  1  0
 86 90  1  0
 86 85  1  0
 87 86  2  0
 90 89  1  0
 92 90  1  0
 92 93  1  0
 92 91  1  0
 94 97  1  1
 94 95  1  0
 96 94  1  0
M  ISO  4   9 100  17 100  56 101  57 101
M  END
>  <TORSDO>  (23) 
F 22

>  <SCORE>  (23) 
15.746

>  <name>  (23) 
22

>  <ligand_id>  (23) 
22

>  <original_smiles>  (23) 
[H]c1c([H])c([H])c2c(c1[H])C([H])([H])C([H])([H])C([H])([H])C2([H])N([H])C(=O)C1([H])N(C(=O)C([H])(N([H])C(=O)C([H])(N([H])C([H])([H])[H])C([H])([H])[H])C(C([H])([H])[H])(C([H])([H])[H])C([H])([H])[H])C([H])([H])c2c([H])c(OC([H])(C([H])([H])[H])C([H])([H])[N+]([H])([H])C([H])([H])C([H])(c3c([H])c(N([H])C(=O)N4C([H])([H])C([H])([H])C([H])([H])C([H])(n5nc(-c6c([H])c([H])c(Oc7c([H])c([H])c(F)c([H])c7F)c([H])c6[H])c(C(=O)N([H])[H])c5N([H])[H])C4([H])[H])n(C([H])(C([H])([H])[H])C([H])([H])[H])c3C([H])([H])[H])C([H])([H])[H])c([H])c([H])c2C1([H])[H]

>  <smiles>  (23) 
[H]c1c([H])c([H])c2c(c1[H])C([H])([H])C([H])([H])C([H])([H])C2([H])N([H])C(=O)C1([H])N(C(=O)C([H])(N([H])C(=O)C([H])(N([H])C([H])([H])[H])C([H])([H])[H])C(C([H])([H])[H])(C([H])([H])[H])C([H])([H])[H])C([H])([H])c2c([H])c(OC([H])(C([H])([H])[H])C([H])([H])[N+]([H])([H])C([H])([H])C([H])(c3c([H])c(N([H])C(=O)N4C([H])([H])C([H])([H])C([H])([H])C([H])(n5nc(-c6c([H])c([H])c(Oc7c([H])c([H])c(F)c([H])c7F)c([H])c6[H])c(C(=O)N([H])[H])c5N([H])[H])C4([H])[H])n(C([H])(C([H])([H])[H])C([H])([H])[H])c3C([H])([H])[H])C([H])([H])[H])c([H])c([H])c2C1([H])[H]

$$$$
23:0:0
     RDKit          3D

 97102  0  0  1  0  0  0  0  0999 V2000
  -31.6370  -26.0270   19.0830 C   0  0  0  0  0  0  0  0  0  0  0  0
  -31.5090  -27.1110   18.5100 O   0  0  0  0  0  0  0  0  0  0  0  0
  -29.8290  -23.6810   18.9310 C   0  0  0  0  0  2  0  0  0  0  0  0
  -30.2410  -25.0880   21.3130 C   0  0  0  0  0  2  0  0  0  0  0  0
  -30.5800  -25.2120   19.6260 C   0  0  0  0  0  3  0  0  0  0  0  0
  -29.3710  -22.4600   19.9350 C   0  0  0  0  0  2  0  0  0  0  0  0
  -29.3320  -23.4620   21.3730 N   0  0  0  0  0  0  0  0  0  0  0  0
  -29.1210  -23.8020   23.8120 C   0  0  0  0  0  1  0  0  0  0  0  0
  -29.1020  -21.4770   22.8360 C   0  0  0  0  0  1  0  0  0  0  0  0
  -28.7370  -22.9490   22.6000 C   0  0  0  0  0  3  0  0  0  0  0  0
  -29.8690  -20.3680   19.6060 C   0  0  0  0  0 15  0  0  0  0  0  0
  -30.5700  -16.7920   19.7660 C   0  0  0  0  0  0  0  0  0  0  0  0
  -30.8170  -14.0740   18.9820 C   0  0  0  0  0  2  0  0  0  0  0  0
  -29.9620  -13.3670   17.8600 C   0  0  0  0  0  2  0  0  0  0  0  0
  -28.6320  -12.8440   18.4050 C   0  0  0  0  0  2  0  0  0  0  0  0
  -28.0620  -13.8670   19.4030 C   0  0  0  0  0  3  0  0  0  0  0  0
  -29.0870  -14.4550   20.4310 C   0  0  0  0  0  2  0  0  0  0  0  0
  -30.1140  -15.3020   19.7030 N   0  0  0  0  0  0  0  0  0  0  0  0
  -31.7990  -16.6010   19.5470 O   0  0  0  0  0  0  0  0  0  0  0  0
  -29.8610  -18.3620   19.8860 N   0  0  0  0  0  2  0  0  0  0  0  0
  -28.9040  -18.1500   20.1300 H   0  0  0  0  0  0  0  0  0  0  0  0
  -25.7410  -14.3040   20.2880 C   0  0  0  0  0  0  0  0  0  0  0  0
  -24.7080  -13.5020   20.6750 C   0  0  0  0  0  0  0  0  0  0  0  0
  -25.1920  -12.1580   20.5970 C   0  0  0  0  0  0  0  0  0  0  0  0
  -26.7890  -13.4590   19.9880 N   0  0  0  0  0  0  0  0  0  0  0  0
  -26.4760  -12.1540   20.2320 N   0  0  0  0  0  0  0  0  0  0  0  0
  -24.4800  -10.8860   20.7950 C   0  0  0  0  0  0  0  0  0  0  0  0
  -24.8490   -9.9780   21.8110 C   0  0  0  0  0  3  0  0  0  0  0  0
  -24.1280   -8.7800   22.0010 C   0  0  0  0  0  3  0  0  0  0  0  0
  -23.0200   -8.4780   21.1720 C   0  0  0  0  0  0  0  0  0  0  0  0
  -22.6680   -9.3760   20.1500 C   0  0  0  0  0  3  0  0  0  0  0  0
  -23.3900  -10.5660   19.9600 C   0  0  0  0  0  3  0  0  0  0  0  0
  -22.2760   -7.3250   21.2640 O   0  0  0  0  0  0  0  0  0  0  0  0
  -22.0380   -6.7150   22.4680 C   0  0  0  0  0  0  0  0  0  0  0  0
  -21.3740   -7.3790   23.5210 C   0  0  0  0  0  3  0  0  0  0  0  0
  -21.0890   -6.6930   24.7190 C   0  0  0  0  0  3  0  0  0  0  0  0
  -21.4570   -5.3420   24.8620 C   0  0  0  0  0  0  0  0  0  0  0  0
  -22.1130   -4.6760   23.8120 C   0  0  0  0  0  3  0  0  0  0  0  0
  -22.4000   -5.3610   22.6170 C   0  0  0  0  0  0  0  0  0  0  0  0
  -23.0140   -4.7070   21.6010 F   0  0  0  0  0  0  0  0  0  0  0  0
  -21.1770   -4.6800   26.0090 F   0  0  0  0  0  0  0  0  0  0  0  0
  -23.3180  -13.9610   21.0010 C   0  0  0  0  0  0  0  0  0  0  0  0
  -22.6410  -13.2680   21.9080 N   0  0  0  0  0  0  0  0  0  0  0  0
  -22.8450  -14.9760   20.4880 O   0  0  0  0  0  0  0  0  0  0  0  0
  -23.0400  -12.4490   22.3410 H   0  0  0  0  0  0  0  0  0  0  0  0
  -21.7120  -13.5610   22.1750 H   0  0  0  0  0  0  0  0  0  0  0  0
  -25.8700  -15.6800   20.1190 N   0  0  0  0  0  0  0  0  0  0  0  0
  -25.0970  -16.3190   20.2670 H   0  0  0  0  0  0  0  0  0  0  0  0
  -26.6980  -16.1330   19.7550 H   0  0  0  0  0  0  0  0  0  0  0  0
  -32.9620  -25.3230   19.3580 C   0  0  0  0  0  2  0  0  0  0  0  0
  -32.7800  -23.8750   19.9750 C   0  0  0  0  0  3  0  0  0  0  0  0
  -34.4770  -22.6480   18.5970 C   0  0  0  0  0  1  0  0  0  0  0  0
  -33.0530  -22.8020   18.9700 N   0  0  0  0  0  4  0  0  0  0  0  0
  -32.7800  -21.9030   19.3400 H   0  0  0  0  0  0  0  0  0  0  0  0
  -32.5190  -22.9500   18.1300 H   0  0  0  0  0  0  0  0  0  0  0  0
  -31.4350  -23.5960   20.8340 C   0  0  0  0  0  1  0  0  0  0  0  0
  -28.5550  -25.0470   19.9830 O   0  0  0  0  0  1  0  0  0  0  0  0
  -24.8870  -31.9060   23.0260 C   0  0  0  0  0  0  0  0  0  0  0  0
  -27.7820  -26.5850   20.0640 C   0  0  0  0  0  0  0  0  0  0  0  0
  -23.8410  -30.4420   21.3600 C   0  0  0  0  0  3  0  0  0  0  0  0
  -25.4330  -28.8090   19.9960 C   0  0  0  0  0  0  0  0  0  0  0  0
  -26.4410  -30.5890   21.3630 C   0  0  0  0  0  2  0  0  0  0  0  0
  -26.6080  -29.1160   20.6930 C   0  0  0  0  0  0  0  0  0  0  0  0
  -27.7440  -28.0490   20.6970 C   0  0  0  0  0  3  0  0  0  0  0  0
  -26.5510  -26.6400   19.3120 C   0  0  0  0  0  3  0  0  0  0  0  0
  -25.4730  -27.6040   19.2790 C   0  0  0  0  0  3  0  0  0  0  0  0
  -24.1840  -29.7390   20.0070 C   0  0  0  0  0  2  0  0  0  0  0  0
  -25.0810  -31.0240   21.9690 N   0  0  0  0  0  0  0  0  0  0  0  0
  -23.7570  -32.1580   23.4830 O   0  0  0  0  0  0  0  0  0  0  0  0
  -23.1090  -29.4580   22.3190 C   0  0  0  0  0  0  0  0  0  0  0  0
  -21.7740  -29.2990   22.2020 N   0  0  0  0  0  0  0  0  0  0  0  0
  -23.7660  -28.8300   23.1520 O   0  0  0  0  0  0  0  0  0  0  0  0
  -21.2860  -29.8540   21.5130 H   0  0  0  0  0  0  0  0  0  0  0  0
  -18.4020  -28.0310   22.7820 C   0  0  0  0  0  0  0  0  0  0  0  0
  -20.9700  -28.3230   22.9570 C   0  0  0  0  0  3  0  0  0  0  0  0
  -21.0610  -26.9190   22.3150 C   0  0  0  0  0  2  0  0  0  0  0  0
  -19.9290  -26.6360   21.3210 C   0  0  0  0  0  2  0  0  0  0  0  0
  -18.5690  -26.7260   22.0190 C   0  0  0  0  0  2  0  0  0  0  0  0
  -19.5270  -28.7890   23.2060 C   0  0  0  0  0  0  0  0  0  0  0  0
  -19.3110  -30.0040   23.8900 C   0  0  0  0  0  3  0  0  0  0  0  0
  -18.0080  -30.4700   24.1410 C   0  0  0  0  0  3  0  0  0  0  0  0
  -16.8980  -29.7130   23.7250 C   0  0  0  0  0  3  0  0  0  0  0  0
  -17.0960  -28.4910   23.0550 C   0  0  0  0  0  3  0  0  0  0  0  0
  -26.0710  -32.6460   23.7180 C   0  0  0  0  0  3  0  0  0  0  0  0
  -25.6390  -34.0240   24.0590 N   0  0  0  0  0  0  0  0  0  0  0  0
  -25.9360  -35.1320   23.3640 C   0  0  0  0  0  0  0  0  0  0  0  0
  -26.6430  -35.1070   22.3550 O   0  0  0  0  0  0  0  0  0  0  0  0
  -25.0060  -34.1110   24.8390 H   0  0  0  0  0  0  0  0  0  0  0  0
  -24.1200  -36.8590   23.0330 C   0  0  0  0  0  1  0  0  0  0  0  0
  -25.3610  -36.4820   23.8580 C   0  0  0  0  0  3  0  0  0  0  0  0
  -27.4140  -37.4760   24.7800 C   0  0  0  0  0  1  0  0  0  0  0  0
  -26.3330  -37.5970   23.8060 N   0  0  0  0  0  0  0  0  0  0  0  0
  -25.8690  -38.4890   23.9560 H   0  0  0  0  0  0  0  0  0  0  0  0
  -26.5680  -31.9180   25.0320 C   0  0  1  0  0  0  0  0  0  0  0  0
  -25.4400  -31.6310   26.0510 C   0  0  0  0  0  1  0  0  0  0  0  0
  -27.2450  -30.5680   24.7100 C   0  0  0  0  0  1  0  0  0  0  0  0
  -27.6420  -32.7850   25.7320 C   0  0  0  0  0  1  0  0  0  0  0  0
  1 50  1  0
  2  1  2  0
  3  5  1  0
  3  6  1  0
  4  7  1  0
  5  1  1  0
  5  4  1  0
  6  7  1  0
  7 10  1  0
 10  9  1  0
 10  8  1  0
 12 20  1  0
 13 18  1  0
 14 15  1  0
 14 13  1  0
 16 15  1  0
 16 25  1  0
 16 17  1  0
 18 12  1  0
 18 17  1  0
 19 12  2  0
 20 21  1  0
 22 23  2  0
 23 42  1  0
 24 23  1  0
 24 27  1  0
 25 26  1  0
 25 22  1  0
 26 24  2  0
 27 28  1  0
 28 29  2  0
 30 33  1  0
 30 29  1  0
 31 30  2  0
 32 31  1  0
 32 27  2  0
 33 34  1  0
 34 39  2  0
 34 35  1  0
 35 36  2  0
 36 37  1  0
 37 41  1  0
 38 37  2  0
 39 38  1  0
 40 39  1  0
 42 43  1  0
 43 46  1  0
 43 45  1  0
 44 42  2  0
 47 48  1  0
 47 22  1  0
 49 47  1  0
 50 51  1  0
 51 56  1  0
 52 53  1  0
 53 54  1  0
 53 51  1  0
 55 53  1  0
 57 59  1  0
 58 69  2  0
 59 64  1  0
 60 68  1  0
 60 70  1  0
 61 67  1  0
 61 63  1  0
 62 68  1  0
 63 64  2  0
 63 62  1  0
 65 59  2  0
 66 65  1  0
 66 61  2  0
 67 60  1  0
 68 58  1  0
 70 72  2  0
 71 70  1  0
 73 71  1  0
 74 83  2  0
 74 79  1  0
 75 71  1  0
 75 79  1  0
 76 75  1  0
 77 78  1  0
 77 76  1  0
 78 74  1  0
 79 80  2  0
 80 81  1  0
 82 81  2  0
 83 82  1  0
 84 58  1  0
 84 85  1  0
 84 94  1  0
 85 88  1  0
 86 90  1  0
 86 85  1  0
 87 86  2  0
 90 89  1  0
 92 90  1  0
 92 93  1  0
 92 91  1  0
 94 97  1  1
 94 95  1  0
 96 94  1  0
M  ISO  4  12 100  20 100  56 101  57 101
M  END
>  <TORSDO>  (24) 
F 23

>  <SCORE>  (24) 
-12.384

>  <name>  (24) 
23

>  <ligand_id>  (24) 
23

>  <original_smiles>  (24) 
[H]c1c([H])c([H])c2c(c1[H])C([H])([H])C([H])([H])C([H])([H])C2([H])N([H])C(=O)C1([H])N(C(=O)C([H])(N([H])C(=O)C([H])(N([H])C([H])([H])[H])C([H])([H])[H])C(C([H])([H])[H])(C([H])([H])[H])C([H])([H])[H])C([H])([H])c2c([H])c(OC([H])([H])C([H])(C([H])([H])C(=O)c3c([H])c(C([H])([H])N([H])C(=O)N4C([H])([H])C([H])([H])C([H])([H])C([H])(n5nc(-c6c([H])c([H])c(Oc7c([H])c([H])c(F)c([H])c7F)c([H])c6[H])c(C(=O)N([H])[H])c5N([H])[H])C4([H])[H])n(C([H])(C([H])([H])[H])C([H])([H])[H])c3[H])[N+]([H])([H])C([H])([H])[H])c([H])c([H])c2C1([H])[H]

>  <smiles>  (24) 
[H]c1c([H])c([H])c2c(c1[H])C([H])([H])C([H])([H])C([H])([H])C2([H])N([H])C(=O)C1([H])N(C(=O)C([H])(N([H])C(=O)C([H])(N([H])C([H])([H])[H])C([H])([H])[H])C(C([H])([H])[H])(C([H])([H])[H])C([H])([H])[H])C([H])([H])c2c([H])c(OC([H])([H])C([H])(C([H])([H])C(=O)c3c([H])c(C([H])([H])N([H])C(=O)N4C([H])([H])C([H])([H])C([H])([H])C([H])(n5nc(-c6c([H])c([H])c(Oc7c([H])c([H])c(F)c([H])c7F)c([H])c6[H])c(C(=O)N([H])[H])c5N([H])[H])C4([H])[H])n(C([H])(C([H])([H])[H])C([H])([H])[H])c3[H])[N+]([H])([H])C([H])([H])[H])c([H])c([H])c2C1([H])[H]

$$$$
24:0:0
     RDKit          3D

 98106  0  0  1  0  0  0  0  0999 V2000
  -31.7550  -18.0450   18.2380 C   0  0  0  0  0  0  0  0  0  0  0  0
  -31.9310  -19.1650   19.2500 C   0  0  0  0  0  2  0  0  0  0  0  0
  -32.0580  -20.5440   18.5810 C   0  0  0  0  0  2  0  0  0  0  0  0
  -30.9420  -19.7390   16.5570 C   0  0  0  0  0  2  0  0  0  0  0  0
  -30.6590  -18.3410   17.1810 C   0  0  0  0  0  3  0  0  0  0  0  0
  -32.5000  -17.0100   18.3290 N   0  0  0  0  0  0  0  0  0  0  0  0
  -30.9540  -20.7800   17.6160 N   0  0  2  0  0  4  0  0  0  0  0  0
  -30.0850  -20.6410   18.1110 H   0  0  0  0  0  0  0  0  0  0  0  0
  -28.1390  -18.5170   16.6130 C   0  0  0  0  0  1  0  0  0  0  0  0
  -28.8230  -16.9490   18.4410 C   0  0  0  0  0  1  0  0  0  0  0  0
  -29.1850  -18.2590   17.7200 C   0  0  0  0  0  3  0  0  0  0  0  0
  -32.3100  -15.8500   17.4800 C   0  0  0  0  0  2  0  0  0  0  0  0
  -33.3630  -14.7680   17.8190 C   0  0  0  0  0  2  0  0  0  0  0  0
  -33.4090  -14.2560   19.2840 C   0  0  0  0  0  2  0  0  0  0  0  0
  -31.0820  -13.8810   20.1240 C   0  0  0  0  0  0  0  0  0  0  0  0
  -30.0810  -11.9810   19.0240 C   0  0  0  0  0  2  0  0  0  0  0  0
  -29.1810  -12.5130   17.9150 C   0  0  0  0  0  2  0  0  0  0  0  0
  -27.7440  -12.4870   18.4280 C   0  0  0  0  0  2  0  0  0  0  0  0
  -27.5670  -13.2190   19.7850 C   0  0  0  0  0  3  0  0  0  0  0  0
  -28.7450  -12.9760   20.7900 C   0  0  0  0  0  2  0  0  0  0  0  0
  -30.0730  -12.9640   20.1120 N   0  0  0  0  0  0  0  0  0  0  0  0
  -31.0470  -15.0310   20.4750 O   0  0  0  0  0  0  0  0  0  0  0  0
  -32.2560  -13.4310   19.6570 N   0  0  0  0  0  0  0  0  0  0  0  0
  -32.2990  -12.4460   19.4360 H   0  0  0  0  0  0  0  0  0  0  0  0
  -25.1690  -13.7810   20.5840 C   0  0  0  0  0  0  0  0  0  0  0  0
  -24.1140  -12.9970   20.9660 C   0  0  0  0  0  0  0  0  0  0  0  0
  -24.5870  -11.6500   20.9190 C   0  0  0  0  0  0  0  0  0  0  0  0
  -26.2300  -12.9230   20.3340 N   0  0  0  0  0  0  0  0  0  0  0  0
  -25.8760  -11.6320   20.5890 N   0  0  0  0  0  0  0  0  0  0  0  0
  -23.8730  -10.3780   21.1190 C   0  0  0  0  0  0  0  0  0  0  0  0
  -24.3200   -9.4170   22.0520 C   0  0  0  0  0  3  0  0  0  0  0  0
  -23.6060   -8.2140   22.2460 C   0  0  0  0  0  3  0  0  0  0  0  0
  -22.4260   -7.9620   21.5080 C   0  0  0  0  0  0  0  0  0  0  0  0
  -21.9940   -8.9110   20.5640 C   0  0  0  0  0  3  0  0  0  0  0  0
  -22.7090  -10.1050   20.3700 C   0  0  0  0  0  3  0  0  0  0  0  0
  -21.6850   -6.8090   21.6080 O   0  0  0  0  0  0  0  0  0  0  0  0
  -21.6600   -6.0650   22.7620 C   0  0  0  0  0  0  0  0  0  0  0  0
  -21.2270   -6.6110   23.9910 C   0  0  0  0  0  3  0  0  0  0  0  0
  -21.1510   -5.7940   25.1360 C   0  0  0  0  0  3  0  0  0  0  0  0
  -21.5010   -4.4330   25.0560 C   0  0  0  0  0  0  0  0  0  0  0  0
  -21.9320   -3.8880   23.8330 C   0  0  0  0  0  3  0  0  0  0  0  0
  -22.0070   -4.7010   22.6870 C   0  0  0  0  0  0  0  0  0  0  0  0
  -22.3960   -4.1630   21.5060 F   0  0  0  0  0  0  0  0  0  0  0  0
  -21.4180   -3.6480   26.1540 F   0  0  0  0  0  0  0  0  0  0  0  0
  -22.7150  -13.4580   21.2700 C   0  0  0  0  0  0  0  0  0  0  0  0
  -22.0200  -12.7650   22.1610 N   0  0  0  0  0  0  0  0  0  0  0  0
  -22.2480  -14.4710   20.7540 O   0  0  0  0  0  0  0  0  0  0  0  0
  -22.4140  -11.9470   22.6020 H   0  0  0  0  0  0  0  0  0  0  0  0
  -21.0840  -13.0550   22.4050 H   0  0  0  0  0  0  0  0  0  0  0  0
  -25.3040  -15.1550   20.4070 N   0  0  0  0  0  0  0  0  0  0  0  0
  -24.5330  -15.7970   20.5490 H   0  0  0  0  0  0  0  0  0  0  0  0
  -26.1590  -15.6130   20.1240 H   0  0  0  0  0  0  0  0  0  0  0  0
  -30.8690  -22.1850   17.1530 C   0  0  0  0  0  2  0  0  0  0  0  0
  -29.9000  -22.9510   18.0740 C   0  0  0  0  0  2  0  0  0  0  0  0
  -30.0650  -24.4730   18.0650 C   0  0  0  0  0  2  0  0  0  0  0  0
  -29.2590  -25.1020   19.2080 C   0  0  0  0  0  2  0  0  0  0  0  0
  -29.3490  -26.6280   19.2440 C   0  0  0  0  0  2  0  0  0  0  0  0
  -28.8300  -27.1020   20.4820 O   0  0  0  0  0  0  0  0  0  0  0  0
  -24.5730  -32.0110   23.3440 C   0  0  0  0  0  0  0  0  0  0  0  0
  -27.6050  -27.7170   20.4350 C   0  0  0  0  0  0  0  0  0  0  0  0
  -23.5330  -30.5600   21.6290 C   0  0  0  0  0  3  0  0  0  0  0  0
  -25.1400  -29.0800   20.3120 C   0  0  0  0  0  0  0  0  0  0  0  0
  -26.0460  -31.0250   21.5970 C   0  0  0  0  0  2  0  0  0  0  0  0
  -26.2270  -29.6580   20.9780 C   0  0  0  0  0  0  0  0  0  0  0  0
  -27.4580  -28.9740   21.0560 C   0  0  0  0  0  3  0  0  0  0  0  0
  -26.4970  -27.1310   19.7860 C   0  0  0  0  0  3  0  0  0  0  0  0
  -25.2630  -27.8080   19.7230 C   0  0  0  0  0  3  0  0  0  0  0  0
  -23.8590  -29.8830   20.2700 C   0  0  0  0  0  2  0  0  0  0  0  0
  -24.7300  -31.2140   22.2500 N   0  0  0  0  0  0  0  0  0  0  0  0
  -23.4490  -32.2420   23.8110 O   0  0  0  0  0  0  0  0  0  0  0  0
  -22.8640  -29.5140   22.5490 C   0  0  0  0  0  0  0  0  0  0  0  0
  -21.5510  -29.3070   22.3580 N   0  0  0  0  0  0  0  0  0  0  0  0
  -23.5230  -28.8920   23.3850 O   0  0  0  0  0  0  0  0  0  0  0  0
  -21.0840  -29.8610   21.6530 H   0  0  0  0  0  0  0  0  0  0  0  0
  -18.1730  -28.0860   22.7190 C   0  0  0  0  0  0  0  0  0  0  0  0
  -20.7190  -28.3450   23.0780 C   0  0  0  0  0  3  0  0  0  0  0  0
  -20.8470  -26.9320   22.4660 C   0  0  0  0  0  2  0  0  0  0  0  0
  -19.7780  -26.6320   21.4110 C   0  0  0  0  0  2  0  0  0  0  0  0
  -18.3750  -26.7570   22.0130 C   0  0  0  0  0  2  0  0  0  0  0  0
  -19.2740  -28.8400   23.2050 C   0  0  0  0  0  0  0  0  0  0  0  0
  -19.0330  -30.0880   23.8190 C   0  0  0  0  0  3  0  0  0  0  0  0
  -17.7220  -30.5820   23.9560 C   0  0  0  0  0  3  0  0  0  0  0  0
  -16.6340  -29.8230   23.4900 C   0  0  0  0  0  3  0  0  0  0  0  0
  -16.8600  -28.5780   22.8770 C   0  0  0  0  0  3  0  0  0  0  0  0
  -25.7920  -32.6900   24.0440 C   0  0  0  0  0  3  0  0  0  0  0  0
  -26.2040  -31.9860   25.3960 C   0  0  1  0  0  0  0  0  0  0  0  0
  -25.0160  -31.7400   26.3530 C   0  0  0  0  0  1  0  0  0  0  0  0
  -26.8760  -30.6220   25.1150 C   0  0  0  0  0  1  0  0  0  0  0  0
  -27.2500  -32.8500   26.1390 C   0  0  0  0  0  1  0  0  0  0  0  0
  -25.4420  -34.0960   24.2760 N   0  0  0  0  0  0  0  0  0  0  0  0
  -25.8220  -35.1130   23.4910 C   0  0  0  0  0  0  0  0  0  0  0  0
  -26.5780  -34.9670   22.5240 O   0  0  0  0  0  0  0  0  0  0  0  0
  -24.7820  -34.2820   25.0160 H   0  0  0  0  0  0  0  0  0  0  0  0
  -24.0950  -36.8440   22.9090 C   0  0  0  0  0  1  0  0  0  0  0  0
  -25.2800  -36.5120   23.8300 C   0  0  0  0  0  3  0  0  0  0  0  0
  -27.3350  -37.4800   24.7610 C   0  0  0  0  0  1  0  0  0  0  0  0
  -26.3000  -37.5800   23.7360 N   0  0  0  0  0  0  0  0  0  0  0  0
  -25.8680  -38.4970   23.8100 H   0  0  0  0  0  0  0  0  0  0  0  0
  1  6  2  0
  1  2  1  0
  3  2  1  0
  4  5  1  0
  4  7  1  0
  5 11  1  0
  5  1  1  0
  7  8  1  1
  7  3  1  0
  9 11  1  0
 11 10  1  0
 12 13  1  0
 12  6  1  0
 13 14  1  0
 14 23  1  0
 15 22  2  0
 16 21  1  0
 17 18  1  0
 17 16  1  0
 19 18  1  0
 19 28  1  0
 19 20  1  0
 21 15  1  0
 21 20  1  0
 23 15  1  0
 24 23  1  0
 25 26  2  0
 26 45  1  0
 27 26  1  0
 27 30  1  0
 28 25  1  0
 28 29  1  0
 29 27  2  0
 30 31  1  0
 31 32  2  0
 33 36  1  0
 33 32  1  0
 34 33  2  0
 35 34  1  0
 35 30  2  0
 36 37  1  0
 37 38  1  0
 38 39  2  0
 40 39  1  0
 40 44  1  0
 41 40  2  0
 42 37  2  0
 42 41  1  0
 43 42  1  0
 45 46  1  0
 46 49  1  0
 46 48  1  0
 47 45  2  0
 50 51  1  0
 50 25  1  0
 52 50  1  0
 53  7  1  0
 53 54  1  0
 55 54  1  0
 55 56  1  0
 56 57  1  0
 57 58  1  0
 59 70  2  0
 60 58  1  0
 60 65  1  0
 61 69  1  0
 61 71  1  0
 62 64  1  0
 63 69  1  0
 64 65  2  0
 64 63  1  0
 66 60  2  0
 67 66  1  0
 67 62  2  0
 68 62  1  0
 68 61  1  0
 69 59  1  0
 71 73  2  0
 72 71  1  0
 74 72  1  0
 75 84  2  0
 75 80  1  0
 76 72  1  0
 76 80  1  0
 77 76  1  0
 78 79  1  0
 78 77  1  0
 79 75  1  0
 80 81  2  0
 81 82  1  0
 83 82  2  0
 84 83  1  0
 85 59  1  0
 85 90  1  0
 85 86  1  0
 86 89  1  1
 86 87  1  0
 88 86  1  0
 90 93  1  0
 91 95  1  0
 91 90  1  0
 92 91  2  0
 95 94  1  0
 97 98  1  0
 97 95  1  0
 97 96  1  0
M  ISO  4  15 100  23 100  57 101  58 101
M  END
>  <TORSDO>  (25) 
F 25

>  <SCORE>  (25) 
-11.716

>  <name>  (25) 
24

>  <ligand_id>  (25) 
24

>  <original_smiles>  (25) 
[H]c1c([H])c([H])c2c(c1[H])C([H])([H])C([H])([H])C([H])([H])C2([H])N([H])C(=O)C1([H])N(C(=O)C([H])(N([H])C(=O)C([H])(N([H])C([H])([H])[H])C([H])([H])[H])C(C([H])([H])[H])(C([H])([H])[H])C([H])([H])[H])C([H])([H])c2c([H])c(OC([H])([H])C([H])([H])C([H])([H])C([H])([H])C([H])([H])[N+]3([H])C([H])([H])C([H])([H])C(=NC([H])([H])C([H])([H])C([H])([H])N([H])C(=O)N4C([H])([H])C([H])([H])C([H])([H])C([H])(n5nc(-c6c([H])c([H])c(Oc7c([H])c([H])c(F)c([H])c7F)c([H])c6[H])c(C(=O)N([H])[H])c5N([H])[H])C4([H])[H])C([H])(C([H])(C([H])([H])[H])C([H])([H])[H])C3([H])[H])c([H])c([H])c2C1([H])[H]

>  <smiles>  (25) 
[H]c1c([H])c([H])c2c(c1[H])C([H])([H])C([H])([H])C([H])([H])C2([H])N([H])C(=O)C1([H])N(C(=O)C([H])(N([H])C(=O)C([H])(N([H])C([H])([H])[H])C([H])([H])[H])C(C([H])([H])[H])(C([H])([H])[H])C([H])([H])[H])C([H])([H])c2c([H])c(OC([H])([H])C([H])([H])C([H])([H])C([H])([H])C([H])([H])[N+]3([H])C([H])([H])C([H])([H])C(=NC([H])([H])C([H])([H])C([H])([H])N([H])C(=O)N4C([H])([H])C([H])([H])C([H])([H])C([H])(n5nc(-c6c([H])c([H])c(Oc7c([H])c([H])c(F)c([H])c7F)c([H])c6[H])c(C(=O)N([H])[H])c5N([H])[H])C4([H])[H])C([H])(C([H])(C([H])([H])[H])C([H])([H])[H])C3([H])[H])c([H])c([H])c2C1([H])[H]

$$$$
25:0:0
     RDKit          3D

 93102  0  0  1  0  0  0  0  0999 V2000
  -28.7760  -22.6060   22.4380 C   0  0  0  0  0  3  0  0  0  0  0  0
  -30.2890  -22.6970   20.5520 C   0  0  0  0  0  3  0  0  0  0  0  0
  -28.6250  -24.0130   22.3860 C   0  0  0  0  0  3  0  0  0  0  0  0
  -30.1320  -24.1060   20.4960 C   0  0  0  0  0  3  0  0  0  0  0  0
  -29.5850  -21.9170   21.5040 C   0  0  0  0  0  0  0  0  0  0  0  0
  -29.2760  -24.7860   21.3980 C   0  0  0  0  0  0  0  0  0  0  0  0
  -30.8550  -19.5780   21.7470 C   0  0  0  0  0  2  0  0  0  0  0  0
  -29.0220  -19.9120   20.0780 C   0  0  0  0  0  2  0  0  0  0  0  0
  -30.6770  -18.0130   21.6460 C   0  0  0  0  0  2  0  0  0  0  0  0
  -28.8340  -18.3960   20.0200 C   0  0  0  0  0  2  0  0  0  0  0  0
  -29.5490  -20.3680   21.4410 C   0  0  0  0  0  3  0  0  0  0  0  0
  -30.1410  -17.5680   20.2570 C   0  0  0  0  0  3  0  0  0  0  0  0
  -29.4860  -16.0540   18.3960 C   0  0  0  0  0  1  0  0  0  0  0  0
  -29.8140  -16.0430   19.9210 C   0  0  0  0  0  3  0  0  0  0  0  0
  -30.7770  -14.8050   20.1590 C   0  0  0  0  0  0  0  0  0  0  0  0
  -30.6380  -12.4990   19.2620 C   0  0  0  0  0  2  0  0  0  0  0  0
  -29.6850  -12.4620   18.0370 C   0  0  0  0  0  2  0  0  0  0  0  0
  -28.1880  -12.4580   18.4310 C   0  0  0  0  0  2  0  0  0  0  0  0
  -27.8250  -13.3370   19.6590 C   0  0  0  0  0  3  0  0  0  0  0  0
  -28.8940  -13.2340   20.7690 C   0  0  0  0  0  2  0  0  0  0  0  0
  -30.2080  -13.5580   20.1910 N   0  0  0  0  0  0  0  0  0  0  0  0
  -31.9830  -14.9550   19.9460 O   0  0  0  0  0  0  0  0  0  0  0  0
  -25.4380  -13.9500   20.3950 C   0  0  0  0  0  0  0  0  0  0  0  0
  -24.3740  -13.1750   20.7740 C   0  0  0  0  0  0  0  0  0  0  0  0
  -24.8420  -11.8260   20.7490 C   0  0  0  0  0  0  0  0  0  0  0  0
  -26.4820  -13.0660   20.1600 N   0  0  0  0  0  0  0  0  0  0  0  0
  -26.1290  -11.7880   20.4390 N   0  0  0  0  0  0  0  0  0  0  0  0
  -24.1250  -10.5620   20.9450 C   0  0  0  0  0  0  0  0  0  0  0  0
  -24.5520   -9.6130   21.9000 C   0  0  0  0  0  3  0  0  0  0  0  0
  -23.8370   -8.4110   22.0820 C   0  0  0  0  0  3  0  0  0  0  0  0
  -22.6820   -8.1480   21.3060 C   0  0  0  0  0  0  0  0  0  0  0  0
  -22.2760   -9.0860   20.3390 C   0  0  0  0  0  3  0  0  0  0  0  0
  -22.9920  -10.2800   20.1570 C   0  0  0  0  0  3  0  0  0  0  0  0
  -21.9380   -6.9960   21.3980 O   0  0  0  0  0  0  0  0  0  0  0  0
  -21.8460   -6.2920   22.5700 C   0  0  0  0  0  0  0  0  0  0  0  0
  -21.3300   -6.8710   23.7500 C   0  0  0  0  0  3  0  0  0  0  0  0
  -21.1890   -6.0900   24.9140 C   0  0  0  0  0  3  0  0  0  0  0  0
  -21.5510   -4.7300   24.8980 C   0  0  0  0  0  0  0  0  0  0  0  0
  -22.0590   -4.1500   23.7230 C   0  0  0  0  0  3  0  0  0  0  0  0
  -22.2040   -4.9280   22.5610 C   0  0  0  0  0  0  0  0  0  0  0  0
  -22.6740   -4.3590   21.4250 F   0  0  0  0  0  0  0  0  0  0  0  0
  -21.4070   -3.9750   26.0140 F   0  0  0  0  0  0  0  0  0  0  0  0
  -22.9750  -13.6470   21.0460 C   0  0  0  0  0  0  0  0  0  0  0  0
  -22.2520  -12.9500   21.9140 N   0  0  0  0  0  0  0  0  0  0  0  0
  -22.5320  -14.6700   20.5260 O   0  0  0  0  0  0  0  0  0  0  0  0
  -22.6240  -12.1250   22.3610 H   0  0  0  0  0  0  0  0  0  0  0  0
  -21.3130  -13.2480   22.1380 H   0  0  0  0  0  0  0  0  0  0  0  0
  -25.5940  -15.3200   20.2120 N   0  0  0  0  0  0  0  0  0  0  0  0
  -24.8250  -15.9700   20.3360 H   0  0  0  0  0  0  0  0  0  0  0  0
  -26.4370  -15.7670   19.8750 H   0  0  0  0  0  0  0  0  0  0  0  0
  -30.3850  -27.0830   21.5590 C   0  0  0  0  0  1  0  0  0  0  0  0
  -29.0700  -26.3190   21.3410 C   0  0  0  0  0  3  0  0  0  0  0  0
  -28.5110  -26.7700   20.0950 O   0  0  0  0  0  0  0  0  0  0  0  0
  -24.6340  -31.9320   23.2300 C   0  0  0  0  0  0  0  0  0  0  0  0
  -27.3650  -27.5420   20.1480 C   0  0  0  0  0  0  0  0  0  0  0  0
  -23.4560  -30.5240   21.5710 C   0  0  0  0  0  3  0  0  0  0  0  0
  -24.9460  -29.0170   20.1440 C   0  0  0  0  0  0  0  0  0  0  0  0
  -25.9780  -30.9200   21.3910 C   0  0  0  0  0  2  0  0  0  0  0  0
  -26.0910  -29.5510   20.7510 C   0  0  0  0  0  0  0  0  0  0  0  0
  -27.3020  -28.8200   20.7580 C   0  0  0  0  0  3  0  0  0  0  0  0
  -26.2080  -27.0320   19.5250 C   0  0  0  0  0  3  0  0  0  0  0  0
  -24.9980  -27.7540   19.5310 C   0  0  0  0  0  3  0  0  0  0  0  0
  -23.6860  -29.8570   20.1870 C   0  0  0  0  0  2  0  0  0  0  0  0
  -24.7070  -31.1410   22.1220 N   0  0  0  0  0  0  0  0  0  0  0  0
  -23.5470  -32.1840   23.7670 O   0  0  0  0  0  0  0  0  0  0  0  0
  -22.8160  -29.4870   22.5210 C   0  0  0  0  0  0  0  0  0  0  0  0
  -21.4920  -29.2990   22.3980 N   0  0  0  0  0  0  0  0  0  0  0  0
  -23.5070  -28.8550   23.3250 O   0  0  0  0  0  0  0  0  0  0  0  0
  -20.9960  -29.8640   21.7230 H   0  0  0  0  0  0  0  0  0  0  0  0
  -18.1210  -28.0950   22.9100 C   0  0  0  0  0  0  0  0  0  0  0  0
  -20.6830  -28.3470   23.1590 C   0  0  0  0  0  3  0  0  0  0  0  0
  -20.7790  -26.9270   22.5540 C   0  0  0  0  0  2  0  0  0  0  0  0
  -19.6650  -26.6260   21.5440 C   0  0  0  0  0  2  0  0  0  0  0  0
  -18.2900  -26.7600   22.2050 C   0  0  0  0  0  2  0  0  0  0  0  0
  -19.2460  -28.8490   23.3430 C   0  0  0  0  0  0  0  0  0  0  0  0
  -19.0360  -30.1010   23.9610 C   0  0  0  0  0  3  0  0  0  0  0  0
  -17.7330  -30.6010   24.1500 C   0  0  0  0  0  3  0  0  0  0  0  0
  -16.6240  -29.8450   23.7330 C   0  0  0  0  0  3  0  0  0  0  0  0
  -16.8190  -28.5940   23.1200 C   0  0  0  0  0  3  0  0  0  0  0  0
  -25.9080  -32.5770   23.8590 C   0  0  0  0  0  3  0  0  0  0  0  0
  -26.4220  -31.8130   25.1400 C   0  0  1  0  0  0  0  0  0  0  0  0
  -25.3230  -31.5700   26.2000 C   0  0  0  0  0  1  0  0  0  0  0  0
  -27.0200  -30.4410   24.7540 C   0  0  0  0  0  1  0  0  0  0  0  0
  -27.5590  -32.6210   25.8100 C   0  0  0  0  0  1  0  0  0  0  0  0
  -25.5840  -33.9730   24.1790 N   0  0  0  0  0  0  0  0  0  0  0  0
  -25.9200  -35.0260   23.4210 C   0  0  0  0  0  0  0  0  0  0  0  0
  -26.6060  -34.9250   22.4000 O   0  0  0  0  0  0  0  0  0  0  0  0
  -24.9730  -34.1240   24.9690 H   0  0  0  0  0  0  0  0  0  0  0  0
  -24.1920  -36.8080   23.0280 C   0  0  0  0  0  1  0  0  0  0  0  0
  -25.4150  -36.4110   23.8680 C   0  0  0  0  0  3  0  0  0  0  0  0
  -27.5250  -37.3090   24.7490 C   0  0  0  0  0  1  0  0  0  0  0  0
  -26.4460  -37.4690   23.7770 N   0  0  0  0  0  0  0  0  0  0  0  0
  -26.0320  -38.3870   23.9140 H   0  0  0  0  0  0  0  0  0  0  0  0
  2  5  1  0
  3  1  1  0
  4  2  2  0
  4  6  1  0
  5  1  2  0
  6  3  2  0
  8 11  1  0
  9  7  1  0
 10  8  1  0
 10 12  1  0
 11  5  1  0
 11  7  1  0
 12 14  1  0
 12  9  1  0
 14 13  1  0
 14 15  1  0
 15 21  1  0
 16 21  1  0
 17 18  1  0
 17 16  1  0
 19 18  1  0
 19 26  1  0
 19 20  1  0
 21 20  1  0
 22 15  2  0
 23 24  2  0
 24 43  1  0
 25 24  1  0
 25 28  1  0
 26 23  1  0
 26 27  1  0
 27 25  2  0
 28 29  1  0
 29 30  2  0
 31 34  1  0
 31 30  1  0
 32 31  2  0
 33 32  1  0
 33 28  2  0
 34 35  1  0
 35 36  1  0
 36 37  2  0
 38 37  1  0
 38 42  1  0
 39 38  2  0
 40 35  2  0
 40 39  1  0
 41 40  1  0
 43 44  1  0
 44 47  1  0
 44 46  1  0
 45 43  2  0
 48 49  1  0
 48 23  1  0
 50 48  1  0
 52  6  1  0
 52 51  1  0
 53 55  1  0
 53 52  1  0
 54 65  2  0
 55 60  1  0
 56 64  1  0
 56 66  1  0
 57 63  1  0
 57 59  1  0
 58 64  1  0
 59 60  2  0
 59 58  1  0
 61 62  1  0
 61 55  2  0
 62 57  2  0
 63 56  1  0
 64 54  1  0
 66 68  2  0
 67 66  1  0
 69 67  1  0
 70 79  2  0
 70 75  1  0
 71 67  1  0
 71 75  1  0
 72 71  1  0
 73 74  1  0
 73 72  1  0
 74 70  1  0
 75 76  2  0
 76 77  1  0
 78 77  2  0
 79 78  1  0
 80 54  1  0
 80 85  1  0
 80 81  1  0
 81 84  1  1
 81 82  1  0
 83 81  1  0
 85 88  1  0
 86 90  1  0
 86 85  1  0
 87 86  2  0
 90 89  1  0
 92 90  1  0
 92 93  1  0
 92 91  1  0
M  ISO  4  14 100  15 100  52 101  53 101
M  END
>  <TORSDO>  (26) 
F 19

>  <SCORE>  (26) 
-13.685

>  <name>  (26) 
25

>  <ligand_id>  (26) 
25

>  <original_smiles>  (26) 
[H]c1c([H])c([H])c2c(c1[H])C([H])([H])C([H])([H])C([H])([H])C2([H])N([H])C(=O)C1([H])N(C(=O)C([H])(N([H])C(=O)C([H])(N([H])C([H])([H])[H])C([H])([H])[H])C(C([H])([H])[H])(C([H])([H])[H])C([H])([H])[H])C([H])([H])c2c([H])c(OC([H])(c3c([H])c([H])c(C4([H])C([H])([H])C([H])([H])C([H])(C([H])(C(=O)N5C([H])([H])C([H])([H])C([H])([H])C([H])(n6nc(-c7c([H])c([H])c(Oc8c([H])c([H])c(F)c([H])c8F)c([H])c7[H])c(C(=O)N([H])[H])c6N([H])[H])C5([H])[H])C([H])([H])[H])C([H])([H])C4([H])[H])c([H])c3[H])C([H])([H])[H])c([H])c([H])c2C1([H])[H]

>  <smiles>  (26) 
[H]c1c([H])c([H])c2c(c1[H])C([H])([H])C([H])([H])C([H])([H])C2([H])N([H])C(=O)C1([H])N(C(=O)C([H])(N([H])C(=O)C([H])(N([H])C([H])([H])[H])C([H])([H])[H])C(C([H])([H])[H])(C([H])([H])[H])C([H])([H])[H])C([H])([H])c2c([H])c(OC([H])(c3c([H])c([H])c(C4([H])C([H])([H])C([H])([H])C([H])(C([H])(C(=O)N5C([H])([H])C([H])([H])C([H])([H])C([H])(n6nc(-c7c([H])c([H])c(Oc8c([H])c([H])c(F)c([H])c8F)c([H])c7[H])c(C(=O)N([H])[H])c6N([H])[H])C5([H])[H])C([H])([H])[H])C([H])([H])C4([H])[H])c([H])c3[H])C([H])([H])[H])c([H])c([H])c2C1([H])[H]

$$$$
26:0:0
     RDKit          3D

 95103  0  0  1  0  0  0  0  0999 V2000
  -27.6920  -22.4970   20.9260 C   0  0  0  0  0  1  0  0  0  0  0  0
  -28.9350  -22.6680   20.0320 C   0  0  0  0  0  3  0  0  0  0  0  0
  -29.8960  -23.6380   20.6300 N   0  0  0  0  0  4  0  0  0  0  0  0
  -29.7940  -23.6420   21.6330 H   0  0  0  0  0  0  0  0  0  0  0  0
  -30.8180  -23.2730   20.4480 H   0  0  0  0  0  0  0  0  0  0  0  0
  -29.8940  -25.0400   20.0920 C   0  0  0  0  0  2  0  0  0  0  0  0
  -28.7580  -26.2060   22.0830 C   0  0  0  0  0  1  0  0  0  0  0  0
  -28.7270  -25.9500   20.5660 C   0  0  0  0  0  3  0  0  0  0  0  0
  -28.7680  -27.2370   19.9120 O   0  0  0  0  0  0  0  0  0  0  0  0
  -24.6120  -31.8380   23.4190 C   0  0  0  0  0  0  0  0  0  0  0  0
  -27.5730  -27.9260   19.9420 C   0  0  0  0  0  0  0  0  0  0  0  0
  -23.5150  -30.5260   21.6340 C   0  0  0  0  0  3  0  0  0  0  0  0
  -25.0810  -29.2530   20.0730 C   0  0  0  0  0  0  0  0  0  0  0  0
  -26.0100  -31.0850   21.4970 C   0  0  0  0  0  2  0  0  0  0  0  0
  -26.1980  -29.7970   20.7200 C   0  0  0  0  0  0  0  0  0  0  0  0
  -27.4490  -29.1430   20.6520 C   0  0  0  0  0  3  0  0  0  0  0  0
  -26.4440  -27.4040   19.2750 C   0  0  0  0  0  3  0  0  0  0  0  0
  -25.1990  -28.0560   19.3440 C   0  0  0  0  0  3  0  0  0  0  0  0
  -23.7760  -30.0060   20.1960 C   0  0  0  0  0  2  0  0  0  0  0  0
  -24.7290  -31.1590   22.2420 N   0  0  0  0  0  0  0  0  0  0  0  0
  -23.5120  -31.9760   23.9720 O   0  0  0  0  0  0  0  0  0  0  0  0
  -22.9370  -29.3680   22.4820 C   0  0  0  0  0  0  0  0  0  0  0  0
  -21.6520  -29.0470   22.2600 N   0  0  0  0  0  0  0  0  0  0  0  0
  -23.6450  -28.7650   23.2950 O   0  0  0  0  0  0  0  0  0  0  0  0
  -21.1400  -29.5920   21.5800 H   0  0  0  0  0  0  0  0  0  0  0  0
  -18.4370  -27.4010   22.4100 C   0  0  0  0  0  0  0  0  0  0  0  0
  -20.9090  -27.9700   22.9130 C   0  0  0  0  0  3  0  0  0  0  0  0
  -21.2480  -26.6000   22.2830 C   0  0  0  0  0  2  0  0  0  0  0  0
  -20.2820  -26.1960   21.1640 C   0  0  0  0  0  2  0  0  0  0  0  0
  -18.8460  -26.1260   21.6920 C   0  0  0  0  0  2  0  0  0  0  0  0
  -19.4080  -28.2750   22.9690 C   0  0  0  0  0  0  0  0  0  0  0  0
  -18.9770  -29.4650   23.5950 C   0  0  0  0  0  3  0  0  0  0  0  0
  -17.6080  -29.7840   23.6720 C   0  0  0  0  0  3  0  0  0  0  0  0
  -16.6520  -28.9070   23.1320 C   0  0  0  0  0  3  0  0  0  0  0  0
  -17.0670  -27.7190   22.5050 C   0  0  0  0  0  3  0  0  0  0  0  0
  -25.8480  -32.4960   24.1090 C   0  0  0  0  0  3  0  0  0  0  0  0
  -26.2670  -31.7740   25.4480 C   0  0  1  0  0  0  0  0  0  0  0  0
  -25.0940  -31.5570   26.4310 C   0  0  0  0  0  1  0  0  0  0  0  0
  -26.8970  -30.3920   25.1510 C   0  0  0  0  0  1  0  0  0  0  0  0
  -27.3540  -32.6060   26.1720 C   0  0  0  0  0  1  0  0  0  0  0  0
  -25.5170  -33.9050   24.3590 N   0  0  0  0  0  0  0  0  0  0  0  0
  -25.9370  -34.9290   23.6030 C   0  0  0  0  0  0  0  0  0  0  0  0
  -26.7130  -34.7870   22.6540 O   0  0  0  0  0  0  0  0  0  0  0  0
  -24.8430  -34.0890   25.0890 H   0  0  0  0  0  0  0  0  0  0  0  0
  -24.2820  -36.7200   22.9930 C   0  0  0  0  0  1  0  0  0  0  0  0
  -25.4140  -36.3330   23.9590 C   0  0  0  0  0  3  0  0  0  0  0  0
  -27.4460  -37.2260   25.0080 C   0  0  0  0  0  1  0  0  0  0  0  0
  -26.4640  -37.3750   23.9370 N   0  0  0  0  0  0  0  0  0  0  0  0
  -26.0530  -38.3030   24.0090 H   0  0  0  0  0  0  0  0  0  0  0  0
  -29.6110  -21.3130   19.6130 C   0  0  0  0  0  2  0  0  0  0  0  0
  -29.8190  -20.1790   20.6750 C   0  0  0  0  0  3  0  0  0  0  0  0
  -31.9490  -14.9640   19.1830 C   0  0  0  0  0  0  0  0  0  0  0  0
  -31.4010  -12.7500   18.2640 C   0  0  0  0  0  2  0  0  0  0  0  0
  -30.2130  -12.9030   17.2950 C   0  0  0  0  0  2  0  0  0  0  0  0
  -28.8780  -12.7870   18.0560 C   0  0  0  0  0  2  0  0  0  0  0  0
  -28.8240  -13.6800   19.3250 C   0  0  0  0  0  3  0  0  0  0  0  0
  -30.1110  -13.5420   20.1700 C   0  0  0  0  0  2  0  0  0  0  0  0
  -31.2590  -13.7970   19.2870 N   0  0  0  0  0  0  0  0  0  0  0  0
  -32.9860  -15.0670   18.5200 O   0  0  0  0  0  0  0  0  0  0  0  0
  -29.8880  -18.0940   19.0720 C   0  0  0  0  0  2  0  0  0  0  0  0
  -31.2000  -18.0280   21.1950 C   0  0  0  0  0  2  0  0  0  0  0  0
  -30.7780  -16.9460   18.5480 C   0  0  0  0  0  2  0  0  0  0  0  0
  -32.0600  -16.8910   20.6080 C   0  0  0  0  0  2  0  0  0  0  0  0
  -30.6340  -18.9660   20.1060 C   0  0  0  0  0  3  0  0  0  0  0  0
  -31.3230  -16.0840   19.6200 N   0  0  0  0  0  0  0  0  0  0  0  0
  -26.8990  -14.2730   20.9240 C   0  0  0  0  0  0  0  0  0  0  0  0
  -25.8220  -13.5530   21.3660 C   0  0  0  0  0  0  0  0  0  0  0  0
  -25.9450  -12.2570   20.7810 C   0  0  0  0  0  0  0  0  0  0  0  0
  -27.6230  -13.4130   20.1140 N   0  0  0  0  0  0  0  0  0  0  0  0
  -27.0670  -12.1750   20.0770 N   0  0  0  0  0  0  0  0  0  0  0  0
  -25.0310  -11.1080   20.8030 C   0  0  0  0  0  0  0  0  0  0  0  0
  -25.3340   -9.9360   21.5310 C   0  0  0  0  0  3  0  0  0  0  0  0
  -24.4290   -8.8530   21.5530 C   0  0  0  0  0  3  0  0  0  0  0  0
  -23.2070   -8.9340   20.8440 C   0  0  0  0  0  0  0  0  0  0  0  0
  -22.9210  -10.0930   20.1010 C   0  0  0  0  0  3  0  0  0  0  0  0
  -23.8250  -11.1690   20.0770 C   0  0  0  0  0  3  0  0  0  0  0  0
  -22.2800   -7.9210   20.7870 O   0  0  0  0  0  0  0  0  0  0  0  0
  -21.9570   -7.1770   21.8930 C   0  0  0  0  0  0  0  0  0  0  0  0
  -21.4340   -7.7690   23.0630 C   0  0  0  0  0  3  0  0  0  0  0  0
  -21.0520   -6.9610   24.1520 C   0  0  0  0  0  3  0  0  0  0  0  0
  -21.1830   -5.5610   24.0710 C   0  0  0  0  0  0  0  0  0  0  0  0
  -21.6980   -4.9690   22.9040 C   0  0  0  0  0  3  0  0  0  0  0  0
  -22.0820   -5.7750   21.8180 C   0  0  0  0  0  0  0  0  0  0  0  0
  -22.5580   -5.1970   20.6880 F   0  0  0  0  0  0  0  0  0  0  0  0
  -20.8080   -4.7820   25.1120 F   0  0  0  0  0  0  0  0  0  0  0  0
  -24.6880  -14.0680   22.2060 C   0  0  0  0  0  0  0  0  0  0  0  0
  -24.1270  -13.2210   23.0630 N   0  0  0  0  0  0  0  0  0  0  0  0
  -24.3260  -15.2420   22.1420 O   0  0  0  0  0  0  0  0  0  0  0  0
  -24.4390  -12.2640   23.1300 H   0  0  0  0  0  0  0  0  0  0  0  0
  -23.3770  -13.5370   23.6610 H   0  0  0  0  0  0  0  0  0  0  0  0
  -27.3130  -15.5850   21.1260 N   0  0  0  0  0  0  0  0  0  0  0  0
  -26.7780  -16.2440   21.6810 H   0  0  0  0  0  0  0  0  0  0  0  0
  -28.1430  -15.9930   20.7160 H   0  0  0  0  0  0  0  0  0  0  0  0
  -28.5380  -19.5700   22.8550 C   0  0  0  0  0  1  0  0  0  0  0  0
  -28.4810  -19.7150   21.3250 C   0  0  0  0  0  2  0  0  0  0  0  0
  2  3  1  0
  2  1  1  0
  3  4  1  0
  5  3  1  0
  6  8  1  0
  6  3  1  0
  8  7  1  0
  9 11  1  0
  9  8  1  0
 10 21  2  0
 11 16  1  0
 12 20  1  0
 12 22  1  0
 13 19  1  0
 13 15  1  0
 14 20  1  0
 15 14  1  0
 16 15  2  0
 17 18  1  0
 17 11  2  0
 18 13  2  0
 19 12  1  0
 20 10  1  0
 22 24  2  0
 23 22  1  0
 25 23  1  0
 26 35  2  0
 26 31  1  0
 27 23  1  0
 27 31  1  0
 28 27  1  0
 29 30  1  0
 29 28  1  0
 30 26  1  0
 31 32  2  0
 32 33  1  0
 34 33  2  0
 35 34  1  0
 36 10  1  0
 36 41  1  0
 36 37  1  0
 37 40  1  1
 37 38  1  0
 39 37  1  0
 41 44  1  0
 42 46  1  0
 42 41  1  0
 43 42  2  0
 46 45  1  0
 48 46  1  0
 48 49  1  0
 48 47  1  0
 50  2  1  0
 51 50  1  0
 51 95  1  0
 52 58  1  0
 52 65  1  0
 53 58  1  0
 54 55  1  0
 54 53  1  0
 56 55  1  0
 56 69  1  0
 56 57  1  0
 58 57  1  0
 59 52  2  0
 60 64  1  0
 62 60  1  0
 62 65  1  0
 63 61  1  0
 64 51  1  0
 64 61  1  0
 65 63  1  0
 66 91  1  0
 66 67  2  0
 67 86  1  0
 68 71  1  0
 68 67  1  0
 69 66  1  0
 70 69  1  0
 70 68  2  0
 71 72  1  0
 72 73  2  0
 74 73  1  0
 75 74  2  0
 76 75  1  0
 76 71  2  0
 77 74  1  0
 77 78  1  0
 78 79  1  0
 79 80  2  0
 81 80  1  0
 81 85  1  0
 82 81  2  0
 83 78  2  0
 83 82  1  0
 84 83  1  0
 86 87  1  0
 87 89  1  0
 87 90  1  0
 88 86  2  0
 91 92  1  0
 93 91  1  0
 95 94  1  0
M  ISO  4   8 101   9 101  52 100  65 100
M  END
>  <TORSDO>  (27) 
F 22

>  <SCORE>  (27) 
-2.805

>  <name>  (27) 
26

>  <ligand_id>  (27) 
26

>  <original_smiles>  (27) 
[H]c1c([H])c([H])c2c(c1[H])C([H])([H])C([H])([H])C([H])([H])C2([H])N([H])C(=O)C1([H])N(C(=O)C([H])(N([H])C(=O)C([H])(N([H])C([H])([H])[H])C([H])([H])[H])C(C([H])([H])[H])(C([H])([H])[H])C([H])([H])[H])C([H])([H])c2c([H])c(OC([H])(C([H])([H])[H])C([H])([H])[N+]([H])([H])C([H])(C([H])([H])[H])C([H])([H])C([H])(C([H])([H])C([H])([H])[H])C3([H])C([H])([H])C([H])([H])N(C(=O)N4C([H])([H])C([H])([H])C([H])([H])C([H])(n5nc(-c6c([H])c([H])c(Oc7c([H])c([H])c(F)c([H])c7F)c([H])c6[H])c(C(=O)N([H])[H])c5N([H])[H])C4([H])[H])C([H])([H])C3([H])[H])c([H])c([H])c2C1([H])[H]

>  <smiles>  (27) 
[H]c1c([H])c([H])c2c(c1[H])C([H])([H])C([H])([H])C([H])([H])C2([H])N([H])C(=O)C1([H])N(C(=O)C([H])(N([H])C(=O)C([H])(N([H])C([H])([H])[H])C([H])([H])[H])C(C([H])([H])[H])(C([H])([H])[H])C([H])([H])[H])C([H])([H])c2c([H])c(OC([H])(C([H])([H])[H])C([H])([H])[N+]([H])([H])C([H])(C([H])([H])[H])C([H])([H])C([H])(C([H])([H])C([H])([H])[H])C3([H])C([H])([H])C([H])([H])N(C(=O)N4C([H])([H])C([H])([H])C([H])([H])C([H])(n5nc(-c6c([H])c([H])c(Oc7c([H])c([H])c(F)c([H])c7F)c([H])c6[H])c(C(=O)N([H])[H])c5N([H])[H])C4([H])[H])C([H])([H])C3([H])[H])c([H])c([H])c2C1([H])[H]

$$$$
27:0:0
     RDKit          3D

 92100  0  0  1  0  0  0  0  0999 V2000
  -30.7860  -23.3840   18.9640 C   0  0  0  0  0  3  0  0  0  0  0  0
  -30.1640  -22.1950   20.9940 C   0  0  0  0  0  3  0  0  0  0  0  0
  -29.9960  -24.4830   19.3600 C   0  0  0  0  0  3  0  0  0  0  0  0
  -29.3700  -23.2930   21.3880 C   0  0  0  0  0  3  0  0  0  0  0  0
  -30.8720  -22.2310   19.7750 C   0  0  0  0  0  0  0  0  0  0  0  0
  -29.2760  -24.4420   20.5730 C   0  0  0  0  0  0  0  0  0  0  0  0
  -31.7300  -21.0470   19.3340 C   0  0  0  0  0  2  0  0  0  0  0  0
  -30.9400  -19.7470   19.0510 C   0  0  0  0  0  2  0  0  0  0  0  0
  -30.3200  -17.7340   20.1730 C   0  0  0  0  0  0  0  0  0  0  0  0
  -29.4590  -17.2400   19.0100 C   0  0  0  0  0  1  0  0  0  0  0  0
  -30.9360  -18.8550   20.2070 N   0  0  0  0  0  0  0  0  0  0  0  0
  -30.4340  -16.7900   21.3800 C   0  0  0  0  0  2  0  0  0  0  0  0
  -30.6860  -14.4450   20.5110 C   0  0  0  0  0  0  0  0  0  0  0  0
  -30.3740  -12.3260   19.2930 C   0  0  0  0  0  2  0  0  0  0  0  0
  -29.4240  -12.5560   18.1010 C   0  0  0  0  0  2  0  0  0  0  0  0
  -27.9490  -12.4230   18.5320 C   0  0  0  0  0  2  0  0  0  0  0  0
  -27.6220  -13.2390   19.8120 C   0  0  0  0  0  3  0  0  0  0  0  0
  -28.6760  -12.9760   20.9090 C   0  0  0  0  0  2  0  0  0  0  0  0
  -30.0050  -13.2810   20.3480 N   0  0  0  0  0  0  0  0  0  0  0  0
  -31.7890  -14.6670   20.0070 O   0  0  0  0  0  0  0  0  0  0  0  0
  -30.0100  -15.4010   21.1620 N   0  0  0  0  0  0  0  0  0  0  0  0
  -29.0980  -15.1480   21.5110 H   0  0  0  0  0  0  0  0  0  0  0  0
  -25.2170  -13.8520   20.5030 C   0  0  0  0  0  0  0  0  0  0  0  0
  -24.1480  -13.0810   20.8760 C   0  0  0  0  0  0  0  0  0  0  0  0
  -24.6100  -11.7290   20.8560 C   0  0  0  0  0  0  0  0  0  0  0  0
  -26.2650  -12.9690   20.2850 N   0  0  0  0  0  0  0  0  0  0  0  0
  -25.9010  -11.6880   20.5520 N   0  0  0  0  0  0  0  0  0  0  0  0
  -23.8850  -10.4680   21.0520 C   0  0  0  0  0  0  0  0  0  0  0  0
  -24.3260   -9.4980   21.9780 C   0  0  0  0  0  3  0  0  0  0  0  0
  -23.6010   -8.3010   22.1620 C   0  0  0  0  0  3  0  0  0  0  0  0
  -22.4200   -8.0660   21.4180 C   0  0  0  0  0  0  0  0  0  0  0  0
  -21.9970   -9.0250   20.4810 C   0  0  0  0  0  3  0  0  0  0  0  0
  -22.7240  -10.2130   20.2950 C   0  0  0  0  0  3  0  0  0  0  0  0
  -21.6640   -6.9220   21.5120 O   0  0  0  0  0  0  0  0  0  0  0  0
  -21.6380   -6.1670   22.6570 C   0  0  0  0  0  0  0  0  0  0  0  0
  -21.2570   -6.7130   23.9010 C   0  0  0  0  0  3  0  0  0  0  0  0
  -21.1790   -5.8850   25.0390 C   0  0  0  0  0  3  0  0  0  0  0  0
  -21.4710   -4.5120   24.9340 C   0  0  0  0  0  0  0  0  0  0  0  0
  -21.8460   -3.9650   23.6930 C   0  0  0  0  0  3  0  0  0  0  0  0
  -21.9260   -4.7900   22.5580 C   0  0  0  0  0  0  0  0  0  0  0  0
  -22.2660   -4.2540   21.3610 F   0  0  0  0  0  0  0  0  0  0  0  0
  -21.3890   -3.7150   26.0230 F   0  0  0  0  0  0  0  0  0  0  0  0
  -22.7490  -13.5590   21.1400 C   0  0  0  0  0  0  0  0  0  0  0  0
  -22.0190  -12.8700   22.0100 N   0  0  0  0  0  0  0  0  0  0  0  0
  -22.3100  -14.5800   20.6120 O   0  0  0  0  0  0  0  0  0  0  0  0
  -22.3850  -12.0450   22.4620 H   0  0  0  0  0  0  0  0  0  0  0  0
  -21.0810  -13.1740   22.2300 H   0  0  0  0  0  0  0  0  0  0  0  0
  -25.3790  -15.2220   20.3150 N   0  0  0  0  0  0  0  0  0  0  0  0
  -24.6050  -15.8720   20.4050 H   0  0  0  0  0  0  0  0  0  0  0  0
  -26.2250  -15.6620   19.9770 H   0  0  0  0  0  0  0  0  0  0  0  0
  -28.3690  -25.5880   21.0050 C   0  0  0  0  0  2  0  0  0  0  0  0
  -28.4140  -26.7310   20.1470 O   0  0  0  0  0  0  0  0  0  0  0  0
  -24.6280  -31.8910   23.2480 C   0  0  0  0  0  0  0  0  0  0  0  0
  -27.2560  -27.4670   20.1600 C   0  0  0  0  0  0  0  0  0  0  0  0
  -23.4100  -30.4840   21.6170 C   0  0  0  0  0  3  0  0  0  0  0  0
  -24.8550  -28.9470   20.1850 C   0  0  0  0  0  0  0  0  0  0  0  0
  -25.9300  -30.8540   21.3960 C   0  0  0  0  0  2  0  0  0  0  0  0
  -26.0150  -29.4830   20.7600 C   0  0  0  0  0  0  0  0  0  0  0  0
  -27.2210  -28.7490   20.7450 C   0  0  0  0  0  3  0  0  0  0  0  0
  -26.0840  -26.9380   19.5790 C   0  0  0  0  0  3  0  0  0  0  0  0
  -24.8830  -27.6720   19.5930 C   0  0  0  0  0  3  0  0  0  0  0  0
  -23.6080  -29.8010   20.2370 C   0  0  0  0  0  2  0  0  0  0  0  0
  -24.6740  -31.0900   22.1460 N   0  0  0  0  0  0  0  0  0  0  0  0
  -23.5520  -32.1620   23.7980 O   0  0  0  0  0  0  0  0  0  0  0  0
  -22.7690  -29.4640   22.5850 C   0  0  0  0  0  0  0  0  0  0  0  0
  -21.4440  -29.2760   22.4650 N   0  0  0  0  0  0  0  0  0  0  0  0
  -23.4590  -28.8440   23.3980 O   0  0  0  0  0  0  0  0  0  0  0  0
  -20.9490  -29.8270   21.7780 H   0  0  0  0  0  0  0  0  0  0  0  0
  -18.0790  -28.0630   22.9700 C   0  0  0  0  0  0  0  0  0  0  0  0
  -20.6350  -28.3390   23.2430 C   0  0  0  0  0  3  0  0  0  0  0  0
  -20.7480  -26.9050   22.6760 C   0  0  0  0  0  2  0  0  0  0  0  0
  -19.6500  -26.5680   21.6630 C   0  0  0  0  0  2  0  0  0  0  0  0
  -18.2660  -26.7090   22.3050 C   0  0  0  0  0  2  0  0  0  0  0  0
  -19.1930  -28.8360   23.3950 C   0  0  0  0  0  0  0  0  0  0  0  0
  -18.9660  -30.1030   23.9740 C   0  0  0  0  0  3  0  0  0  0  0  0
  -17.6590  -30.5990   24.1340 C   0  0  0  0  0  3  0  0  0  0  0  0
  -16.5600  -29.8240   23.7260 C   0  0  0  0  0  3  0  0  0  0  0  0
  -16.7710  -28.5580   23.1490 C   0  0  0  0  0  3  0  0  0  0  0  0
  -25.9200  -32.5240   23.8540 C   0  0  0  0  0  3  0  0  0  0  0  0
  -25.6130  -33.9190   24.1890 N   0  0  0  0  0  0  0  0  0  0  0  0
  -25.9400  -34.9730   23.4290 C   0  0  0  0  0  0  0  0  0  0  0  0
  -26.6040  -34.8710   22.3930 O   0  0  0  0  0  0  0  0  0  0  0  0
  -25.0240  -34.0730   24.9940 H   0  0  0  0  0  0  0  0  0  0  0  0
  -24.2070  -36.7620   23.0830 C   0  0  0  0  0  1  0  0  0  0  0  0
  -25.4530  -36.3600   23.8890 C   0  0  0  0  0  3  0  0  0  0  0  0
  -27.5920  -37.2440   24.7080 C   0  0  0  0  0  1  0  0  0  0  0  0
  -26.4840  -37.4150   23.7720 N   0  0  0  0  0  0  0  0  0  0  0  0
  -26.0780  -38.3340   23.9260 H   0  0  0  0  0  0  0  0  0  0  0  0
  -26.4560  -31.7490   25.1210 C   0  0  1  0  0  0  0  0  0  0  0  0
  -25.3780  -31.5050   26.2020 C   0  0  0  0  0  1  0  0  0  0  0  0
  -27.0340  -30.3740   24.7140 C   0  0  0  0  0  1  0  0  0  0  0  0
  -27.6140  -32.5420   25.7710 C   0  0  0  0  0  1  0  0  0  0  0  0
  1  3  2  0
  1  5  1  0
  2  4  1  0
  3  6  1  0
  5  2  2  0
  6 51  1  0
  6  4  2  0
  7  5  1  0
  8  7  1  0
  8 11  1  0
  9 11  2  0
  9 12  1  0
 10  9  1  0
 13 21  1  0
 14 19  1  0
 15 16  1  0
 15 14  1  0
 17 16  1  0
 17 26  1  0
 17 18  1  0
 19 13  1  0
 19 18  1  0
 20 13  2  0
 21 12  1  0
 21 22  1  0
 23 24  2  0
 24 43  1  0
 25 24  1  0
 25 28  1  0
 26 23  1  0
 26 27  1  0
 27 25  2  0
 28 29  1  0
 29 30  2  0
 31 34  1  0
 31 30  1  0
 32 31  2  0
 33 32  1  0
 33 28  2  0
 34 35  1  0
 35 36  1  0
 36 37  2  0
 38 37  1  0
 38 42  1  0
 39 38  2  0
 40 35  2  0
 40 39  1  0
 41 40  1  0
 43 44  1  0
 44 47  1  0
 44 46  1  0
 45 43  2  0
 48 49  1  0
 48 23  1  0
 50 48  1  0
 52 54  1  0
 52 51  1  0
 53 64  2  0
 54 59  1  0
 55 63  1  0
 55 65  1  0
 56 62  1  0
 56 58  1  0
 57 63  1  0
 58 57  1  0
 59 58  2  0
 60 61  1  0
 60 54  2  0
 61 56  2  0
 62 55  1  0
 63 53  1  0
 65 67  2  0
 66 65  1  0
 68 66  1  0
 69 78  2  0
 69 74  1  0
 70 66  1  0
 70 74  1  0
 71 70  1  0
 72 73  1  0
 72 71  1  0
 73 69  1  0
 74 75  2  0
 75 76  1  0
 77 76  2  0
 78 77  1  0
 79 53  1  0
 79 80  1  0
 79 89  1  0
 80 83  1  0
 81 85  1  0
 81 80  1  0
 82 81  2  0
 85 84  1  0
 87 85  1  0
 87 88  1  0
 87 86  1  0
 89 92  1  1
 89 90  1  0
 91 89  1  0
M  ISO  4  13 100  21 100  51 101  52 101
M  END
>  <TORSDO>  (28) 
F 21

>  <SCORE>  (28) 
-13.523

>  <name>  (28) 
27

>  <ligand_id>  (28) 
27

>  <original_smiles>  (28) 
[H]c1c([H])c([H])c2c(c1[H])C([H])([H])C([H])([H])C([H])([H])C2([H])N([H])C(=O)C1([H])N(C(=O)C([H])(N([H])C(=O)C([H])(N([H])C([H])([H])[H])C([H])([H])[H])C(C([H])([H])[H])(C([H])([H])[H])C([H])([H])[H])C([H])([H])c2c([H])c(OC([H])([H])c3c([H])c([H])c(C([H])([H])C([H])([H])N=C(C([H])([H])[H])C([H])([H])N([H])C(=O)N4C([H])([H])C([H])([H])C([H])([H])C([H])(n5nc(-c6c([H])c([H])c(Oc7c([H])c([H])c(F)c([H])c7F)c([H])c6[H])c(C(=O)N([H])[H])c5N([H])[H])C4([H])[H])c([H])c3[H])c([H])c([H])c2C1([H])[H]

>  <smiles>  (28) 
[H]c1c([H])c([H])c2c(c1[H])C([H])([H])C([H])([H])C([H])([H])C2([H])N([H])C(=O)C1([H])N(C(=O)C([H])(N([H])C(=O)C([H])(N([H])C([H])([H])[H])C([H])([H])[H])C(C([H])([H])[H])(C([H])([H])[H])C([H])([H])[H])C([H])([H])c2c([H])c(OC([H])([H])c3c([H])c([H])c(C([H])([H])C([H])([H])N=C(C([H])([H])[H])C([H])([H])N([H])C(=O)N4C([H])([H])C([H])([H])C([H])([H])C([H])(n5nc(-c6c([H])c([H])c(Oc7c([H])c([H])c(F)c([H])c7F)c([H])c6[H])c(C(=O)N([H])[H])c5N([H])[H])C4([H])[H])c([H])c3[H])c([H])c([H])c2C1([H])[H]

$$$$
28:0:0
     RDKit          3D

 88 96  0  0  1  0  0  0  0  0999 V2000
  -29.1440  -22.8280   20.3670 C   0  0  0  0  0  3  0  0  0  0  0  0
  -28.6050  -20.4090   19.1130 C   0  0  0  0  0  3  0  0  0  0  0  0
  -29.5010  -18.5920   20.2380 C   0  0  0  0  0  0  0  0  0  0  0  0
  -29.6220  -19.9200   20.8810 C   0  0  0  0  0  0  0  0  0  0  0  0
  -30.2570  -20.1350   22.2170 C   0  0  0  0  0  1  0  0  0  0  0  0
  -28.7950  -19.0460   19.0970 N   0  0  0  0  0  0  0  0  0  0  0  0
  -29.0600  -21.1370   20.1650 N   0  0  0  0  0  0  0  0  0  0  0  0
  -29.6630  -16.8830   20.6900 C   0  0  0  0  0  2  0  0  0  0  0  0
  -30.4840  -15.3950   20.1890 C   0  0  0  0  0  0  0  0  0  0  0  0
  -30.4800  -12.9510   19.2570 C   0  0  0  0  0  2  0  0  0  0  0  0
  -29.5170  -12.7950   18.0500 C   0  0  0  0  0  2  0  0  0  0  0  0
  -28.0800  -12.5080   18.5250 C   0  0  0  0  0  2  0  0  0  0  0  0
  -27.6710  -13.4330   19.6970 C   0  0  0  0  0  3  0  0  0  0  0  0
  -28.7560  -13.5260   20.7900 C   0  0  0  0  0  2  0  0  0  0  0  0
  -29.9730  -14.0580   20.1540 N   0  0  0  0  0  0  0  0  0  0  0  0
  -31.6650  -15.4340   19.8040 O   0  0  0  0  0  0  0  0  0  0  0  0
  -25.3280  -13.9750   20.5460 C   0  0  0  0  0  0  0  0  0  0  0  0
  -24.2780  -13.1900   20.9340 C   0  0  0  0  0  0  0  0  0  0  0  0
  -24.7400  -11.8400   20.8530 C   0  0  0  0  0  0  0  0  0  0  0  0
  -26.3590  -13.1050   20.2410 N   0  0  0  0  0  0  0  0  0  0  0  0
  -26.0200  -11.8130   20.4920 N   0  0  0  0  0  0  0  0  0  0  0  0
  -24.0170  -10.5750   21.0370 C   0  0  0  0  0  0  0  0  0  0  0  0
  -24.4570   -9.5980   21.9570 C   0  0  0  0  0  3  0  0  0  0  0  0
  -23.7300   -8.3990   22.1310 C   0  0  0  0  0  3  0  0  0  0  0  0
  -22.5500   -8.1710   21.3840 C   0  0  0  0  0  0  0  0  0  0  0  0
  -22.1300   -9.1360   20.4520 C   0  0  0  0  0  3  0  0  0  0  0  0
  -22.8570  -10.3250   20.2770 C   0  0  0  0  0  3  0  0  0  0  0  0
  -21.7930   -7.0260   21.4700 O   0  0  0  0  0  0  0  0  0  0  0  0
  -21.7250   -6.2910   22.6270 C   0  0  0  0  0  0  0  0  0  0  0  0
  -21.2550   -6.8480   23.8360 C   0  0  0  0  0  3  0  0  0  0  0  0
  -21.1370   -6.0390   24.9840 C   0  0  0  0  0  3  0  0  0  0  0  0
  -21.4780   -4.6750   24.9230 C   0  0  0  0  0  0  0  0  0  0  0  0
  -21.9400   -4.1170   23.7180 C   0  0  0  0  0  3  0  0  0  0  0  0
  -22.0610   -4.9230   22.5720 C   0  0  0  0  0  0  0  0  0  0  0  0
  -22.4880   -4.3770   21.4080 F   0  0  0  0  0  0  0  0  0  0  0  0
  -21.3560   -3.8960   26.0230 F   0  0  0  0  0  0  0  0  0  0  0  0
  -22.8920  -13.6620   21.2640 C   0  0  0  0  0  0  0  0  0  0  0  0
  -22.1970  -12.9540   22.1480 N   0  0  0  0  0  0  0  0  0  0  0  0
  -22.4360  -14.6940   20.7740 O   0  0  0  0  0  0  0  0  0  0  0  0
  -22.5810  -12.1210   22.5690 H   0  0  0  0  0  0  0  0  0  0  0  0
  -21.2670  -13.2510   22.4090 H   0  0  0  0  0  0  0  0  0  0  0  0
  -25.4860  -15.3490   20.3980 N   0  0  0  0  0  0  0  0  0  0  0  0
  -24.7250  -16.0010   20.5550 H   0  0  0  0  0  0  0  0  0  0  0  0
  -26.3170  -15.7970   20.0320 H   0  0  0  0  0  0  0  0  0  0  0  0
  -31.7100  -22.5100   19.8980 C   0  0  0  0  0  1  0  0  0  0  0  0
  -30.4130  -23.2850   19.6090 C   0  0  0  0  0  2  0  0  0  0  0  0
  -28.0280  -24.2380   20.1040 C   0  0  0  0  0  2  0  0  0  0  0  0
  -28.2090  -25.8840   20.2750 O   0  0  0  0  0  0  0  0  0  0  0  0
  -24.6270  -31.8700   23.2270 C   0  0  0  0  0  0  0  0  0  0  0  0
  -27.1890  -26.9800   20.2090 C   0  0  0  0  0  0  0  0  0  0  0  0
  -23.4340  -30.4680   21.5910 C   0  0  0  0  0  3  0  0  0  0  0  0
  -24.8850  -28.8650   20.1670 C   0  0  0  0  0  0  0  0  0  0  0  0
  -26.0010  -30.6830   21.4410 C   0  0  0  0  0  2  0  0  0  0  0  0
  -26.0740  -29.2720   20.7850 C   0  0  0  0  0  0  0  0  0  0  0  0
  -27.2200  -28.3510   20.7780 C   0  0  0  0  0  3  0  0  0  0  0  0
  -25.9680  -26.7280   19.5440 C   0  0  0  0  0  3  0  0  0  0  0  0
  -24.8600  -27.6170   19.5220 C   0  0  0  0  0  3  0  0  0  0  0  0
  -23.6640  -29.7820   20.2160 C   0  0  0  0  0  2  0  0  0  0  0  0
  -24.7090  -31.0370   22.1390 N   0  0  0  0  0  0  0  0  0  0  0  0
  -23.5380  -32.1560   23.7520 O   0  0  0  0  0  0  0  0  0  0  0  0
  -22.7450  -29.4730   22.5620 C   0  0  0  0  0  0  0  0  0  0  0  0
  -21.4150  -29.3060   22.4400 N   0  0  0  0  0  0  0  0  0  0  0  0
  -23.4130  -28.8510   23.3910 O   0  0  0  0  0  0  0  0  0  0  0  0
  -20.9310  -29.8550   21.7430 H   0  0  0  0  0  0  0  0  0  0  0  0
  -18.0340  -28.0860   22.9540 C   0  0  0  0  0  0  0  0  0  0  0  0
  -20.5940  -28.3660   23.2120 C   0  0  0  0  0  3  0  0  0  0  0  0
  -20.7010  -26.9340   22.6390 C   0  0  0  0  0  2  0  0  0  0  0  0
  -19.5990  -26.6040   21.6280 C   0  0  0  0  0  2  0  0  0  0  0  0
  -18.2170  -26.7390   22.2740 C   0  0  0  0  0  2  0  0  0  0  0  0
  -19.1500  -28.8570   23.3800 C   0  0  0  0  0  0  0  0  0  0  0  0
  -18.9200  -30.1140   23.9790 C   0  0  0  0  0  3  0  0  0  0  0  0
  -17.6110  -30.6010   24.1550 C   0  0  0  0  0  3  0  0  0  0  0  0
  -16.5120  -29.8290   23.7430 C   0  0  0  0  0  3  0  0  0  0  0  0
  -16.7240  -28.5720   23.1490 C   0  0  0  0  0  3  0  0  0  0  0  0
  -25.8970  -32.5180   23.8590 C   0  0  0  0  0  3  0  0  0  0  0  0
  -26.4080  -31.7530   25.1440 C   0  0  1  0  0  0  0  0  0  0  0  0
  -25.3090  -31.5170   26.2060 C   0  0  0  0  0  1  0  0  0  0  0  0
  -26.9980  -30.3750   24.7690 C   0  0  0  0  0  1  0  0  0  0  0  0
  -27.5540  -32.5530   25.8070 C   0  0  0  0  0  1  0  0  0  0  0  0
  -25.5740  -33.9150   24.1970 N   0  0  0  0  0  0  0  0  0  0  0  0
  -25.8830  -34.9790   23.4430 C   0  0  0  0  0  0  0  0  0  0  0  0
  -26.5290  -34.8860   22.3950 O   0  0  0  0  0  0  0  0  0  0  0  0
  -24.9990  -34.0600   25.0130 H   0  0  0  0  0  0  0  0  0  0  0  0
  -24.1280  -36.7630   23.1570 C   0  0  0  0  0  1  0  0  0  0  0  0
  -25.4010  -36.3630   23.9230 C   0  0  0  0  0  3  0  0  0  0  0  0
  -27.5500  -37.2730   24.6890 C   0  0  0  0  0  1  0  0  0  0  0  0
  -26.4190  -37.4270   23.7780 N   0  0  0  0  0  0  0  0  0  0  0  0
  -26.0070  -38.3420   23.9370 H   0  0  0  0  0  0  0  0  0  0  0  0
  1 46  1  0
  2  7  1  0
  3  8  1  0
  3  4  2  0
  4  5  1  0
  6  2  2  0
  6  3  1  0
  7  1  1  0
  7  4  1  0
  9  8  1  0
 10 15  1  0
 11 12  1  0
 11 10  1  0
 13 12  1  0
 13 20  1  0
 13 14  1  0
 15  9  1  0
 15 14  1  0
 16  9  2  0
 17 18  2  0
 18 37  1  0
 19 18  1  0
 19 22  1  0
 20 21  1  0
 20 17  1  0
 21 19  2  0
 22 23  1  0
 23 24  2  0
 25 28  1  0
 25 24  1  0
 26 25  2  0
 27 26  1  0
 27 22  2  0
 28 29  1  0
 29 30  1  0
 30 31  2  0
 32 31  1  0
 32 36  1  0
 33 32  2  0
 34 29  2  0
 34 33  1  0
 35 34  1  0
 37 38  1  0
 38 41  1  0
 38 40  1  0
 39 37  2  0
 42 17  1  0
 42 43  1  0
 44 42  1  0
 46 45  1  0
 47 48  1  0
 47  1  1  0
 49 60  2  0
 50 48  1  0
 50 55  1  0
 51 59  1  0
 51 61  1  0
 52 58  1  0
 52 54  1  0
 53 59  1  0
 54 53  1  0
 55 54  2  0
 56 50  2  0
 57 56  1  0
 57 52  2  0
 58 51  1  0
 59 49  1  0
 61 63  2  0
 62 61  1  0
 64 62  1  0
 65 74  2  0
 65 70  1  0
 66 62  1  0
 66 70  1  0
 67 66  1  0
 68 69  1  0
 68 67  1  0
 69 65  1  0
 70 71  2  0
 71 72  1  0
 73 72  2  0
 74 73  1  0
 75 49  1  0
 75 80  1  0
 75 76  1  0
 76 79  1  1
 76 77  1  0
 78 76  1  0
 80 83  1  0
 81 85  1  0
 81 80  1  0
 82 81  2  0
 85 84  1  0
 87 85  1  0
 87 88  1  0
 87 86  1  0
M  ISO  4   8 100   9 100  47 101  48 101
M  END
>  <TORSDO>  (29) 
F 20

>  <SCORE>  (29) 
-16.217

>  <name>  (29) 
28

>  <ligand_id>  (29) 
28

>  <original_smiles>  (29) 
[H]c1c([H])c([H])c2c(c1[H])C([H])([H])C([H])([H])C([H])([H])C2([H])N([H])C(=O)C1([H])N(C(=O)C([H])(N([H])C(=O)C([H])(N([H])C([H])([H])[H])C([H])([H])[H])C(C([H])([H])[H])(C([H])([H])[H])C([H])([H])[H])C([H])([H])c2c([H])c(OC([H])([H])C([H])(n3c([H])nc(C([H])([H])C(=O)N4C([H])([H])C([H])([H])C([H])([H])C([H])(n5nc(-c6c([H])c([H])c(Oc7c([H])c([H])c(F)c([H])c7F)c([H])c6[H])c(C(=O)N([H])[H])c5N([H])[H])C4([H])[H])c3C([H])([H])[H])C([H])([H])C([H])([H])[H])c([H])c([H])c2C1([H])[H]

>  <smiles>  (29) 
[H]c1c([H])c([H])c2c(c1[H])C([H])([H])C([H])([H])C([H])([H])C2([H])N([H])C(=O)C1([H])N(C(=O)C([H])(N([H])C(=O)C([H])(N([H])C([H])([H])[H])C([H])([H])[H])C(C([H])([H])[H])(C([H])([H])[H])C([H])([H])[H])C([H])([H])c2c([H])c(OC([H])([H])C([H])(n3c([H])nc(C([H])([H])C(=O)N4C([H])([H])C([H])([H])C([H])([H])C([H])(n5nc(-c6c([H])c([H])c(Oc7c([H])c([H])c(F)c([H])c7F)c([H])c6[H])c(C(=O)N([H])[H])c5N([H])[H])C4([H])[H])c3C([H])([H])[H])C([H])([H])C([H])([H])[H])c([H])c([H])c2C1([H])[H]

$$$$
29:0:0
     RDKit          3D

 94102  0  0  1  0  0  0  0  0999 V2000
  -29.6430  -22.4720   23.3110 C   0  0  0  0  0  1  0  0  0  0  0  0
  -29.2980  -22.1740   21.8420 C   0  0  0  0  0  3  0  0  0  0  0  0
  -28.6730  -19.7470   21.1470 C   0  0  0  0  0  3  0  0  0  0  0  0
  -31.0010  -20.3540   21.5040 C   0  0  0  0  0  3  0  0  0  0  0  0
  -29.0690  -18.4500   20.7510 C   0  0  0  0  0  3  0  0  0  0  0  0
  -31.3980  -19.0670   21.1050 C   0  0  0  0  0  3  0  0  0  0  0  0
  -29.6410  -20.7240   21.4930 C   0  0  0  0  0  0  0  0  0  0  0  0
  -30.4410  -18.1220   20.6840 C   0  0  0  0  0  0  0  0  0  0  0  0
  -30.6190  -16.8930   18.5090 C   0  0  0  0  0  1  0  0  0  0  0  0
  -30.9370  -16.8510   20.0150 C   0  0  0  0  0  3  0  0  0  0  0  0
  -31.1680  -14.4520   20.4540 C   0  0  0  0  0  0  0  0  0  0  0  0
  -30.7620  -12.3380   19.3040 C   0  0  0  0  0  2  0  0  0  0  0  0
  -29.8660  -12.6430   18.0880 C   0  0  0  0  0  2  0  0  0  0  0  0
  -28.3770  -12.5740   18.4830 C   0  0  0  0  0  2  0  0  0  0  0  0
  -28.0530  -13.3780   19.7710 C   0  0  0  0  0  3  0  0  0  0  0  0
  -29.0820  -13.0990   20.8910 C   0  0  0  0  0  2  0  0  0  0  0  0
  -30.4270  -13.3210   20.3420 N   0  0  0  0  0  0  0  0  0  0  0  0
  -32.3550  -14.5010   20.1290 O   0  0  0  0  0  0  0  0  0  0  0  0
  -30.4660  -15.5880   20.6020 N   0  0  0  0  0  0  0  0  0  0  0  0
  -29.4900  -15.5100   20.8410 H   0  0  0  0  0  0  0  0  0  0  0  0
  -25.6550  -14.0420   20.4200 C   0  0  0  0  0  0  0  0  0  0  0  0
  -24.5610  -13.2970   20.7750 C   0  0  0  0  0  0  0  0  0  0  0  0
  -24.9930  -11.9380   20.7660 C   0  0  0  0  0  0  0  0  0  0  0  0
  -26.6840  -13.1370   20.2210 N   0  0  0  0  0  0  0  0  0  0  0  0
  -26.2890  -11.8660   20.4870 N   0  0  0  0  0  0  0  0  0  0  0  0
  -24.2340  -10.6940   20.9520 C   0  0  0  0  0  0  0  0  0  0  0  0
  -24.6080   -9.7380   21.9230 C   0  0  0  0  0  3  0  0  0  0  0  0
  -23.8520   -8.5580   22.0950 C   0  0  0  0  0  3  0  0  0  0  0  0
  -22.7080   -8.3260   21.2950 C   0  0  0  0  0  0  0  0  0  0  0  0
  -22.3520   -9.2710   20.3150 C   0  0  0  0  0  3  0  0  0  0  0  0
  -23.1090  -10.4420   20.1430 C   0  0  0  0  0  3  0  0  0  0  0  0
  -21.9270   -7.1990   21.3750 O   0  0  0  0  0  0  0  0  0  0  0  0
  -21.7860   -6.5020   22.5480 C   0  0  0  0  0  0  0  0  0  0  0  0
  -21.3070   -7.1140   23.7260 C   0  0  0  0  0  3  0  0  0  0  0  0
  -21.1130   -6.3440   24.8900 C   0  0  0  0  0  3  0  0  0  0  0  0
  -21.3880   -4.9630   24.8750 C   0  0  0  0  0  0  0  0  0  0  0  0
  -21.8590   -4.3510   23.7010 C   0  0  0  0  0  3  0  0  0  0  0  0
  -22.0560   -5.1190   22.5410 C   0  0  0  0  0  0  0  0  0  0  0  0
  -22.4910   -4.5200   21.4050 F   0  0  0  0  0  0  0  0  0  0  0  0
  -21.1950   -4.2210   25.9910 F   0  0  0  0  0  0  0  0  0  0  0  0
  -23.1690  -13.8110   21.0110 C   0  0  0  0  0  0  0  0  0  0  0  0
  -22.4090  -13.1460   21.8750 N   0  0  0  0  0  0  0  0  0  0  0  0
  -22.7640  -14.8370   20.4650 O   0  0  0  0  0  0  0  0  0  0  0  0
  -22.7480  -12.3170   22.3400 H   0  0  0  0  0  0  0  0  0  0  0  0
  -21.4740  -13.4760   22.0760 H   0  0  0  0  0  0  0  0  0  0  0  0
  -25.8490  -15.4050   20.2280 N   0  0  0  0  0  0  0  0  0  0  0  0
  -25.0840  -16.0690   20.3010 H   0  0  0  0  0  0  0  0  0  0  0  0
  -26.7000  -15.8240   19.8750 H   0  0  0  0  0  0  0  0  0  0  0  0
  -27.5100  -23.6890   21.3990 C   0  0  0  0  0  0  0  0  0  0  0  0
  -26.0380  -23.9370   21.1590 C   0  0  0  0  0  1  0  0  0  0  0  0
  -27.9050  -22.4860   21.5790 N   0  0  0  0  0  0  0  0  0  0  0  0
  -28.3650  -24.9630   21.4110 C   0  0  0  0  0  2  0  0  0  0  0  0
  -28.7400  -25.4660   20.0040 C   0  0  0  0  0  2  0  0  0  0  0  0
  -28.7210  -26.8960   19.9660 O   0  0  0  0  0  0  0  0  0  0  0  0
  -24.5710  -31.7260   23.1390 C   0  0  0  0  0  0  0  0  0  0  0  0
  -27.4910  -27.5220   19.9770 C   0  0  0  0  0  0  0  0  0  0  0  0
  -23.4750  -30.3210   21.4240 C   0  0  0  0  0  3  0  0  0  0  0  0
  -25.0250  -28.9040   19.9940 C   0  0  0  0  0  0  0  0  0  0  0  0
  -25.9870  -30.7980   21.3140 C   0  0  0  0  0  2  0  0  0  0  0  0
  -26.1450  -29.4620   20.6230 C   0  0  0  0  0  0  0  0  0  0  0  0
  -27.3780  -28.7750   20.6160 C   0  0  0  0  0  3  0  0  0  0  0  0
  -26.3470  -26.9690   19.3560 C   0  0  0  0  0  3  0  0  0  0  0  0
  -25.1180  -27.6500   19.3670 C   0  0  0  0  0  3  0  0  0  0  0  0
  -23.7460  -29.7050   20.0290 C   0  0  0  0  0  2  0  0  0  0  0  0
  -24.6920  -30.9660   22.0150 N   0  0  0  0  0  0  0  0  0  0  0  0
  -23.4660  -31.9310   23.6580 O   0  0  0  0  0  0  0  0  0  0  0  0
  -22.8500  -29.2370   22.3320 C   0  0  0  0  0  0  0  0  0  0  0  0
  -21.5320  -29.0230   22.1880 N   0  0  0  0  0  0  0  0  0  0  0  0
  -23.5470  -28.5960   23.1230 O   0  0  0  0  0  0  0  0  0  0  0  0
  -21.0310  -29.5870   21.5160 H   0  0  0  0  0  0  0  0  0  0  0  0
  -18.1830  -27.7580   22.6430 C   0  0  0  0  0  0  0  0  0  0  0  0
  -20.7370  -28.0340   22.9130 C   0  0  0  0  0  3  0  0  0  0  0  0
  -20.8580  -26.6390   22.2570 C   0  0  0  0  0  2  0  0  0  0  0  0
  -19.7510  -26.3590   21.2360 C   0  0  0  0  0  2  0  0  0  0  0  0
  -18.3720  -26.4480   21.8950 C   0  0  0  0  0  2  0  0  0  0  0  0
  -19.2940  -28.5080   23.1060 C   0  0  0  0  0  0  0  0  0  0  0  0
  -19.0620  -29.7360   23.7640 C   0  0  0  0  0  3  0  0  0  0  0  0
  -17.7510  -30.2080   23.9680 C   0  0  0  0  0  3  0  0  0  0  0  0
  -16.6530  -29.4500   23.5250 C   0  0  0  0  0  3  0  0  0  0  0  0
  -16.8710  -28.2290   22.8660 C   0  0  0  0  0  3  0  0  0  0  0  0
  -25.8130  -32.3920   23.8090 C   0  0  0  0  0  3  0  0  0  0  0  0
  -25.4480  -33.7750   24.1390 N   0  0  0  0  0  0  0  0  0  0  0  0
  -25.7680  -34.8450   23.3990 C   0  0  0  0  0  0  0  0  0  0  0  0
  -26.4760  -34.7780   22.3900 O   0  0  0  0  0  0  0  0  0  0  0  0
  -24.8240  -33.9060   24.9220 H   0  0  0  0  0  0  0  0  0  0  0  0
  -23.9840  -36.5720   23.0060 C   0  0  0  0  0  1  0  0  0  0  0  0
  -25.2150  -36.2110   23.8540 C   0  0  0  0  0  3  0  0  0  0  0  0
  -27.2850  -37.1630   24.7610 C   0  0  0  0  0  1  0  0  0  0  0  0
  -26.2090  -37.3010   23.7830 N   0  0  0  0  0  0  0  0  0  0  0  0
  -25.7640  -38.2020   23.9280 H   0  0  0  0  0  0  0  0  0  0  0  0
  -26.3170  -31.6270   25.0930 C   0  0  1  0  0  0  0  0  0  0  0  0
  -25.1990  -31.3390   26.1210 C   0  0  0  0  0  1  0  0  0  0  0  0
  -26.9660  -30.2770   24.7090 C   0  0  0  0  0  1  0  0  0  0  0  0
  -27.4150  -32.4590   25.8000 C   0  0  0  0  0  1  0  0  0  0  0  0
  2  1  1  0
  3  7  1  0
  5  3  2  0
  6  4  1  0
  7  4  2  0
  7  2  1  0
  8  5  1  0
  8  6  2  0
 10  9  1  0
 10 19  1  0
 10  8  1  0
 11 19  1  0
 12 17  1  0
 13 14  1  0
 13 12  1  0
 15 14  1  0
 15 24  1  0
 15 16  1  0
 17 11  1  0
 17 16  1  0
 18 11  2  0
 19 20  1  0
 21 22  2  0
 22 41  1  0
 23 22  1  0
 23 26  1  0
 24 21  1  0
 24 25  1  0
 25 23  2  0
 26 27  1  0
 27 28  2  0
 29 32  1  0
 29 28  1  0
 30 29  2  0
 31 30  1  0
 31 26  2  0
 32 33  1  0
 33 34  1  0
 34 35  2  0
 36 35  1  0
 36 40  1  0
 37 36  2  0
 38 33  2  0
 38 37  1  0
 39 38  1  0
 41 42  1  0
 42 45  1  0
 42 44  1  0
 43 41  2  0
 46 47  1  0
 46 21  1  0
 48 46  1  0
 49 52  1  0
 49 51  2  0
 50 49  1  0
 51  2  1  0
 53 52  1  0
 54 56  1  0
 54 53  1  0
 55 66  2  0
 56 61  1  0
 57 65  1  0
 57 67  1  0
 58 64  1  0
 58 60  1  0
 59 65  1  0
 60 59  1  0
 61 60  2  0
 62 63  1  0
 62 56  2  0
 63 58  2  0
 64 57  1  0
 65 55  1  0
 67 69  2  0
 68 67  1  0
 70 68  1  0
 71 80  2  0
 71 76  1  0
 72 68  1  0
 72 76  1  0
 73 72  1  0
 74 75  1  0
 74 73  1  0
 75 71  1  0
 76 77  2  0
 77 78  1  0
 79 78  2  0
 80 79  1  0
 81 55  1  0
 81 82  1  0
 81 91  1  0
 82 85  1  0
 83 87  1  0
 83 82  1  0
 84 83  2  0
 87 86  1  0
 89 87  1  0
 89 90  1  0
 89 88  1  0
 91 94  1  1
 91 92  1  0
 93 91  1  0
M  ISO  4  11 100  19 100  53 101  54 101
M  END
>  <TORSDO>  (30) 
F 21

>  <SCORE>  (30) 
-13.100

>  <name>  (30) 
29

>  <ligand_id>  (30) 
29

>  <original_smiles>  (30) 
[H]c1c([H])c([H])c2c(c1[H])C([H])([H])C([H])([H])C([H])([H])C2([H])N([H])C(=O)C1([H])N(C(=O)C([H])(N([H])C(=O)C([H])(N([H])C([H])([H])[H])C([H])([H])[H])C(C([H])([H])[H])(C([H])([H])[H])C([H])([H])[H])C([H])([H])c2c([H])c(OC([H])([H])C([H])([H])C(=NC([H])(c3c([H])c([H])c(C([H])(N([H])C(=O)N4C([H])([H])C([H])([H])C([H])([H])C([H])(n5nc(-c6c([H])c([H])c(Oc7c([H])c([H])c(F)c([H])c7F)c([H])c6[H])c(C(=O)N([H])[H])c5N([H])[H])C4([H])[H])C([H])([H])[H])c([H])c3[H])C([H])([H])[H])C([H])([H])[H])c([H])c([H])c2C1([H])[H]

>  <smiles>  (30) 
[H]c1c([H])c([H])c2c(c1[H])C([H])([H])C([H])([H])C([H])([H])C2([H])N([H])C(=O)C1([H])N(C(=O)C([H])(N([H])C(=O)C([H])(N([H])C([H])([H])[H])C([H])([H])[H])C(C([H])([H])[H])(C([H])([H])[H])C([H])([H])[H])C([H])([H])c2c([H])c(OC([H])([H])C([H])([H])C(=NC([H])(c3c([H])c([H])c(C([H])(N([H])C(=O)N4C([H])([H])C([H])([H])C([H])([H])C([H])(n5nc(-c6c([H])c([H])c(Oc7c([H])c([H])c(F)c([H])c7F)c([H])c6[H])c(C(=O)N([H])[H])c5N([H])[H])C4([H])[H])C([H])([H])[H])c([H])c3[H])C([H])([H])[H])C([H])([H])[H])c([H])c([H])c2C1([H])[H]

$$$$
30:0:0
     RDKit          3D

 88 96  0  0  1  0  0  0  0  0999 V2000
  -28.9790  -19.5830   20.7340 C   0  0  0  0  0  3  0  0  0  0  0  0
  -30.0900  -19.1050   18.9260 C   0  0  0  0  0  0  0  0  0  0  0  0
  -29.5750  -18.4070   20.0840 C   0  0  0  0  0  0  0  0  0  0  0  0
  -29.7880  -20.4940   18.9360 C   0  0  0  0  0  0  0  0  0  0  0  0
  -30.8400  -18.3990   17.8230 C   0  0  0  0  0  1  0  0  0  0  0  0
  -30.1370  -21.4990   17.8760 C   0  0  0  0  0  1  0  0  0  0  0  0
  -29.1000  -20.9530   20.0870 N   0  0  0  0  0  0  0  0  0  0  0  0
  -30.3620  -15.4850   20.1650 C   0  0  0  0  0  0  0  0  0  0  0  0
  -30.3870  -12.9920   19.3450 C   0  0  0  0  0  2  0  0  0  0  0  0
  -29.4650  -12.7350   18.1260 C   0  0  0  0  0  2  0  0  0  0  0  0
  -28.0310  -12.4260   18.5830 C   0  0  0  0  0  2  0  0  0  0  0  0
  -27.5720  -13.3910   19.7020 C   0  0  0  0  0  3  0  0  0  0  0  0
  -28.6250  -13.5990   20.8120 C   0  0  0  0  0  2  0  0  0  0  0  0
  -29.8310  -14.1460   20.1610 N   0  0  0  0  0  0  0  0  0  0  0  0
  -31.5740  -15.4740   19.8950 O   0  0  0  0  0  0  0  0  0  0  0  0
  -29.5810  -16.7680   20.3590 N   0  0  0  0  0  0  0  0  0  0  0  0
  -28.6870  -16.4880   20.7390 H   0  0  0  0  0  0  0  0  0  0  0  0
  -25.2150  -13.9240   20.4940 C   0  0  0  0  0  0  0  0  0  0  0  0
  -24.1610  -13.1400   20.8700 C   0  0  0  0  0  0  0  0  0  0  0  0
  -24.6340  -11.7920   20.8260 C   0  0  0  0  0  0  0  0  0  0  0  0
  -26.2560  -13.0560   20.2300 N   0  0  0  0  0  0  0  0  0  0  0  0
  -25.9220  -11.7660   20.4970 N   0  0  0  0  0  0  0  0  0  0  0  0
  -23.9120  -10.5270   21.0170 C   0  0  0  0  0  0  0  0  0  0  0  0
  -24.3480   -9.5600   21.9490 C   0  0  0  0  0  3  0  0  0  0  0  0
  -23.6250   -8.3610   22.1300 C   0  0  0  0  0  3  0  0  0  0  0  0
  -22.4520   -8.1200   21.3750 C   0  0  0  0  0  0  0  0  0  0  0  0
  -22.0350   -9.0740   20.4300 C   0  0  0  0  0  3  0  0  0  0  0  0
  -22.7580  -10.2650   20.2490 C   0  0  0  0  0  3  0  0  0  0  0  0
  -21.6990   -6.9730   21.4630 O   0  0  0  0  0  0  0  0  0  0  0  0
  -21.6410   -6.2380   22.6190 C   0  0  0  0  0  0  0  0  0  0  0  0
  -21.1810   -6.7930   23.8320 C   0  0  0  0  0  3  0  0  0  0  0  0
  -21.0730   -5.9850   24.9820 C   0  0  0  0  0  3  0  0  0  0  0  0
  -21.4110   -4.6200   24.9170 C   0  0  0  0  0  0  0  0  0  0  0  0
  -21.8600   -4.0620   23.7070 C   0  0  0  0  0  3  0  0  0  0  0  0
  -21.9700   -4.8690   22.5610 C   0  0  0  0  0  0  0  0  0  0  0  0
  -22.3860   -4.3210   21.3940 F   0  0  0  0  0  0  0  0  0  0  0  0
  -21.2960   -3.8410   26.0180 F   0  0  0  0  0  0  0  0  0  0  0  0
  -22.7660  -13.6100   21.1560 C   0  0  0  0  0  0  0  0  0  0  0  0
  -22.0470  -12.9050   22.0220 N   0  0  0  0  0  0  0  0  0  0  0  0
  -22.3220  -14.6370   20.6450 O   0  0  0  0  0  0  0  0  0  0  0  0
  -22.4210  -12.0750   22.4560 H   0  0  0  0  0  0  0  0  0  0  0  0
  -21.1070  -13.1980   22.2530 H   0  0  0  0  0  0  0  0  0  0  0  0
  -25.3710  -15.2980   20.3250 N   0  0  0  0  0  0  0  0  0  0  0  0
  -24.6060  -15.9500   20.4530 H   0  0  0  0  0  0  0  0  0  0  0  0
  -26.2030  -15.7350   19.9500 H   0  0  0  0  0  0  0  0  0  0  0  0
  -28.7880  -22.5800   20.5870 C   0  0  0  0  0  3  0  0  0  0  0  0
  -28.1230  -24.1690   19.9070 C   0  0  0  0  0  3  0  0  0  0  0  0
  -28.1840  -25.8050   20.3290 O   0  0  0  0  0  0  0  0  0  0  0  0
  -24.6120  -31.8730   23.2330 C   0  0  0  0  0  0  0  0  0  0  0  0
  -27.1830  -26.9340   20.2300 C   0  0  0  0  0  0  0  0  0  0  0  0
  -23.4320  -30.4720   21.5920 C   0  0  0  0  0  3  0  0  0  0  0  0
  -24.8900  -28.8540   20.1790 C   0  0  0  0  0  0  0  0  0  0  0  0
  -26.0050  -30.6610   21.4730 C   0  0  0  0  0  2  0  0  0  0  0  0
  -26.0750  -29.2460   20.8120 C   0  0  0  0  0  0  0  0  0  0  0  0
  -27.2120  -28.3060   20.8120 C   0  0  0  0  0  3  0  0  0  0  0  0
  -25.9690  -26.7120   19.5410 C   0  0  0  0  0  3  0  0  0  0  0  0
  -24.8660  -27.6110   19.5250 C   0  0  0  0  0  3  0  0  0  0  0  0
  -23.6730  -29.7810   20.2200 C   0  0  0  0  0  2  0  0  0  0  0  0
  -24.7050  -31.0320   22.1520 N   0  0  0  0  0  0  0  0  0  0  0  0
  -23.5170  -32.1690   23.7420 O   0  0  0  0  0  0  0  0  0  0  0  0
  -22.7230  -29.4840   22.5570 C   0  0  0  0  0  0  0  0  0  0  0  0
  -21.3920  -29.3290   22.4280 N   0  0  0  0  0  0  0  0  0  0  0  0
  -23.3800  -28.8560   23.3910 O   0  0  0  0  0  0  0  0  0  0  0  0
  -20.9160  -29.8840   21.7300 H   0  0  0  0  0  0  0  0  0  0  0  0
  -17.9990  -28.1470   22.9370 C   0  0  0  0  0  0  0  0  0  0  0  0
  -20.5610  -28.3970   23.1980 C   0  0  0  0  0  3  0  0  0  0  0  0
  -20.6540  -26.9660   22.6170 C   0  0  0  0  0  2  0  0  0  0  0  0
  -19.5470  -26.6550   21.6040 C   0  0  0  0  0  2  0  0  0  0  0  0
  -18.1680  -26.8020   22.2510 C   0  0  0  0  0  2  0  0  0  0  0  0
  -19.1220  -28.9030   23.3680 C   0  0  0  0  0  0  0  0  0  0  0  0
  -18.9080  -30.1590   23.9750 C   0  0  0  0  0  3  0  0  0  0  0  0
  -17.6040  -30.6610   24.1510 C   0  0  0  0  0  3  0  0  0  0  0  0
  -16.4960  -29.9020   23.7370 C   0  0  0  0  0  3  0  0  0  0  0  0
  -16.6950  -28.6460   23.1360 C   0  0  0  0  0  3  0  0  0  0  0  0
  -25.8760  -32.5220   23.8770 C   0  0  0  0  0  3  0  0  0  0  0  0
  -25.5580  -33.9270   24.1910 N   0  0  0  0  0  0  0  0  0  0  0  0
  -25.8990  -34.9800   23.4370 C   0  0  0  0  0  0  0  0  0  0  0  0
  -26.5740  -34.8710   22.4110 O   0  0  0  0  0  0  0  0  0  0  0  0
  -24.9610  -34.0870   24.9900 H   0  0  0  0  0  0  0  0  0  0  0  0
  -24.1800  -36.7860   23.0770 C   0  0  0  0  0  1  0  0  0  0  0  0
  -25.4190  -36.3760   23.8910 C   0  0  0  0  0  3  0  0  0  0  0  0
  -27.5510  -37.2610   24.7310 C   0  0  0  0  0  1  0  0  0  0  0  0
  -26.4570  -37.4240   23.7770 N   0  0  0  0  0  0  0  0  0  0  0  0
  -26.0540  -38.3480   23.9140 H   0  0  0  0  0  0  0  0  0  0  0  0
  -26.3610  -31.7730   25.1810 C   0  0  1  0  0  0  0  0  0  0  0  0
  -25.2420  -31.5610   26.2280 C   0  0  0  0  0  1  0  0  0  0  0  0
  -26.9430  -30.3850   24.8360 C   0  0  0  0  0  1  0  0  0  0  0  0
  -27.5030  -32.5730   25.8510 C   0  0  0  0  0  1  0  0  0  0  0  0
  2  4  2  0
  2  3  1  0
  3 16  1  0
  3  1  2  0
  4  7  1  0
  5  2  1  0
  6  4  1  0
  7 46  1  0
  7  1  1  0
  8 16  1  0
  9 14  1  0
 10 11  1  0
 10  9  1  0
 12 11  1  0
 12 21  1  0
 12 13  1  0
 14  8  1  0
 14 13  1  0
 15  8  2  0
 16 17  1  0
 18 19  2  0
 19 38  1  0
 20 19  1  0
 20 23  1  0
 21 18  1  0
 21 22  1  0
 22 20  2  0
 23 24  1  0
 24 25  2  0
 26 29  1  0
 26 25  1  0
 27 26  2  0
 28 27  1  0
 28 23  2  0
 29 30  1  0
 30 31  1  0
 31 32  2  0
 33 32  1  0
 33 37  1  0
 34 33  2  0
 35 30  2  0
 35 34  1  0
 36 35  1  0
 38 39  1  0
 39 42  1  0
 39 41  1  0
 40 38  2  0
 43 44  1  0
 43 18  1  0
 45 43  1  0
 47 48  1  0
 47 46  2  0
 49 60  2  0
 50 48  1  0
 50 55  1  0
 51 59  1  0
 51 61  1  0
 52 58  1  0
 52 54  1  0
 53 59  1  0
 54 55  2  0
 54 53  1  0
 56 50  2  0
 57 56  1  0
 57 52  2  0
 58 51  1  0
 59 49  1  0
 61 63  2  0
 62 61  1  0
 64 62  1  0
 65 74  2  0
 65 70  1  0
 66 62  1  0
 66 70  1  0
 67 66  1  0
 68 69  1  0
 68 67  1  0
 69 65  1  0
 70 71  2  0
 71 72  1  0
 73 72  2  0
 74 73  1  0
 75 49  1  0
 75 76  1  0
 75 85  1  0
 76 79  1  0
 77 81  1  0
 77 76  1  0
 78 77  2  0
 81 80  1  0
 83 81  1  0
 83 84  1  0
 83 82  1  0
 85 88  1  1
 85 86  1  0
 87 85  1  0
M  ISO  4   8 100  16 100  47 101  48 101
M  END
>  <TORSDO>  (31) 
F 18

>  <SCORE>  (31) 
-16.108

>  <name>  (31) 
30

>  <ligand_id>  (31) 
30

>  <original_smiles>  (31) 
[H]c1c([H])c([H])c2c(c1[H])C([H])([H])C([H])([H])C([H])([H])C2([H])N([H])C(=O)C1([H])N(C(=O)C([H])(N([H])C(=O)C([H])(N([H])C([H])([H])[H])C([H])([H])[H])C(C([H])([H])[H])(C([H])([H])[H])C([H])([H])[H])C([H])([H])c2c([H])c(OC([H])([H])C([H])([H])n3c([H])c(N([H])C(=O)N4C([H])([H])C([H])([H])C([H])([H])C([H])(n5nc(-c6c([H])c([H])c(Oc7c([H])c([H])c(F)c([H])c7F)c([H])c6[H])c(C(=O)N([H])[H])c5N([H])[H])C4([H])[H])c(C([H])([H])[H])c3C([H])([H])[H])c([H])c([H])c2C1([H])[H]

>  <smiles>  (31) 
[H]c1c([H])c([H])c2c(c1[H])C([H])([H])C([H])([H])C([H])([H])C2([H])N([H])C(=O)C1([H])N(C(=O)C([H])(N([H])C(=O)C([H])(N([H])C([H])([H])[H])C([H])([H])[H])C(C([H])([H])[H])(C([H])([H])[H])C([H])([H])[H])C([H])([H])c2c([H])c(OC([H])([H])C([H])([H])n3c([H])c(N([H])C(=O)N4C([H])([H])C([H])([H])C([H])([H])C([H])(n5nc(-c6c([H])c([H])c(Oc7c([H])c([H])c(F)c([H])c7F)c([H])c6[H])c(C(=O)N([H])[H])c5N([H])[H])C4([H])[H])c(C([H])([H])[H])c3C([H])([H])[H])c([H])c([H])c2C1([H])[H]

$$$$
31:0:0
     RDKit          3D

 96104  0  0  1  0  0  0  0  0999 V2000
  -28.3420  -18.2560   19.9200 C   0  0  0  0  0  3  0  0  0  0  0  0
  -27.5530  -19.4230   19.9510 C   0  0  0  0  0  3  0  0  0  0  0  0
  -29.7070  -18.3270   20.2750 C   0  0  0  0  0  0  0  0  0  0  0  0
  -28.1440  -20.6400   20.3470 C   0  0  0  0  0  0  0  0  0  0  0  0
  -30.1980  -19.5890   20.7140 C   0  0  0  0  0  0  0  0  0  0  0  0
  -29.4310  -20.7040   20.7570 N   0  0  0  0  0  0  0  0  0  0  0  0
  -31.8270  -19.4370   22.6460 C   0  0  0  0  0  1  0  0  0  0  0  0
  -31.6350  -19.8020   21.1700 C   0  0  0  0  0  2  0  0  0  0  0  0
  -31.0370  -17.2380   18.4910 C   0  0  0  0  0  1  0  0  0  0  0  0
  -30.6510  -17.1420   19.9860 C   0  0  0  0  0  3  0  0  0  0  0  0
  -30.9260  -14.6760   20.2680 C   0  0  0  0  0  0  0  0  0  0  0  0
  -30.6290  -12.4440   19.3020 C   0  0  0  0  0  2  0  0  0  0  0  0
  -29.7040  -12.5960   18.0790 C   0  0  0  0  0  2  0  0  0  0  0  0
  -28.2270  -12.4820   18.5060 C   0  0  0  0  0  2  0  0  0  0  0  0
  -27.8770  -13.3850   19.7220 C   0  0  0  0  0  3  0  0  0  0  0  0
  -28.9300  -13.2560   20.8450 C   0  0  0  0  0  2  0  0  0  0  0  0
  -30.2500  -13.5000   20.2530 N   0  0  0  0  0  0  0  0  0  0  0  0
  -32.1190  -14.7550   19.9700 O   0  0  0  0  0  0  0  0  0  0  0  0
  -30.1630  -15.7910   20.3380 N   0  0  0  0  0  0  0  0  0  0  0  0
  -29.1860  -15.6660   20.5490 H   0  0  0  0  0  0  0  0  0  0  0  0
  -25.4970  -14.0170   20.4560 C   0  0  0  0  0  0  0  0  0  0  0  0
  -24.4260  -13.2580   20.8370 C   0  0  0  0  0  0  0  0  0  0  0  0
  -24.8740  -11.9010   20.8070 C   0  0  0  0  0  0  0  0  0  0  0  0
  -26.5300  -13.1240   20.2160 N   0  0  0  0  0  0  0  0  0  0  0  0
  -26.1590  -11.8460   20.4870 N   0  0  0  0  0  0  0  0  0  0  0  0
  -24.1350  -10.6470   21.0070 C   0  0  0  0  0  0  0  0  0  0  0  0
  -24.5440   -9.6910   21.9630 C   0  0  0  0  0  3  0  0  0  0  0  0
  -23.8060   -8.5030   22.1500 C   0  0  0  0  0  3  0  0  0  0  0  0
  -22.6460   -8.2610   21.3780 C   0  0  0  0  0  0  0  0  0  0  0  0
  -22.2540   -9.2030   20.4100 C   0  0  0  0  0  3  0  0  0  0  0  0
  -22.9940  -10.3840   20.2230 C   0  0  0  0  0  3  0  0  0  0  0  0
  -21.8830   -7.1220   21.4710 O   0  0  0  0  0  0  0  0  0  0  0  0
  -21.7830   -6.4150   22.6430 C   0  0  0  0  0  0  0  0  0  0  0  0
  -21.2630   -6.9950   23.8200 C   0  0  0  0  0  3  0  0  0  0  0  0
  -21.1140   -6.2140   24.9830 C   0  0  0  0  0  3  0  0  0  0  0  0
  -21.4750   -4.8530   24.9700 C   0  0  0  0  0  0  0  0  0  0  0  0
  -21.9900   -4.2730   23.7970 C   0  0  0  0  0  3  0  0  0  0  0  0
  -22.1410   -5.0520   22.6360 C   0  0  0  0  0  0  0  0  0  0  0  0
  -22.6160   -4.4830   21.5020 F   0  0  0  0  0  0  0  0  0  0  0  0
  -21.3260   -4.1010   26.0840 F   0  0  0  0  0  0  0  0  0  0  0  0
  -23.0350  -13.7510   21.1170 C   0  0  0  0  0  0  0  0  0  0  0  0
  -22.3100  -13.0700   21.9970 N   0  0  0  0  0  0  0  0  0  0  0  0
  -22.6010  -14.7760   20.5920 O   0  0  0  0  0  0  0  0  0  0  0  0
  -22.6730  -12.2420   22.4460 H   0  0  0  0  0  0  0  0  0  0  0  0
  -21.3770  -13.3800   22.2270 H   0  0  0  0  0  0  0  0  0  0  0  0
  -25.6740  -15.3850   20.2720 N   0  0  0  0  0  0  0  0  0  0  0  0
  -24.9080  -16.0420   20.3720 H   0  0  0  0  0  0  0  0  0  0  0  0
  -26.5110  -15.8090   19.8990 H   0  0  0  0  0  0  0  0  0  0  0  0
  -27.3900  -21.9700   20.2450 C   0  0  0  0  0  2  0  0  0  0  0  0
  -28.3210  -23.1220   20.3090 N   0  0  0  0  0  4  0  0  0  0  0  0
  -29.0890  -22.8900   19.7000 H   0  0  0  0  0  0  0  0  0  0  0  0
  -28.7040  -23.1090   21.2410 H   0  0  0  0  0  0  0  0  0  0  0  0
  -27.7600  -24.4580   19.9440 C   0  0  0  0  0  2  0  0  0  0  0  0
  -28.1290  -25.7880   22.1020 C   0  0  0  0  0  1  0  0  0  0  0  0
  -28.5080  -25.6450   20.6170 C   0  0  0  0  0  3  0  0  0  0  0  0
  -28.4130  -26.9220   19.9450 O   0  0  0  0  0  0  0  0  0  0  0  0
  -24.5130  -31.9150   23.2480 C   0  0  0  0  0  0  0  0  0  0  0  0
  -27.2310  -27.6320   20.0080 C   0  0  0  0  0  0  0  0  0  0  0  0
  -23.3430  -30.5710   21.5300 C   0  0  0  0  0  3  0  0  0  0  0  0
  -24.8280  -29.1190   20.0550 C   0  0  0  0  0  0  0  0  0  0  0  0
  -25.8660  -30.9690   21.3770 C   0  0  0  0  0  2  0  0  0  0  0  0
  -25.9720  -29.6240   20.6850 C   0  0  0  0  0  0  0  0  0  0  0  0
  -27.1780  -28.8890   20.6590 C   0  0  0  0  0  3  0  0  0  0  0  0
  -26.0740  -27.1520   19.3600 C   0  0  0  0  0  3  0  0  0  0  0  0
  -24.8730  -27.8810   19.3890 C   0  0  0  0  0  3  0  0  0  0  0  0
  -23.5770  -29.9620   20.1220 C   0  0  0  0  0  2  0  0  0  0  0  0
  -24.5930  -31.1640   22.1110 N   0  0  0  0  0  0  0  0  0  0  0  0
  -23.4220  -32.1450   23.7860 O   0  0  0  0  0  0  0  0  0  0  0  0
  -22.6970  -29.4960   22.4330 C   0  0  0  0  0  0  0  0  0  0  0  0
  -21.3680  -29.3380   22.3160 N   0  0  0  0  0  0  0  0  0  0  0  0
  -23.3840  -28.8190   23.1990 O   0  0  0  0  0  0  0  0  0  0  0  0
  -20.8740  -29.9390   21.6730 H   0  0  0  0  0  0  0  0  0  0  0  0
  -17.9840  -28.1670   22.7980 C   0  0  0  0  0  0  0  0  0  0  0  0
  -20.5520  -28.3620   23.0390 C   0  0  0  0  0  3  0  0  0  0  0  0
  -20.6170  -26.9700   22.3670 C   0  0  0  0  0  2  0  0  0  0  0  0
  -19.4900  -26.7370   21.3570 C   0  0  0  0  0  2  0  0  0  0  0  0
  -18.1240  -26.8640   22.0350 C   0  0  0  0  0  2  0  0  0  0  0  0
  -19.1250  -28.8760   23.2580 C   0  0  0  0  0  0  0  0  0  0  0  0
  -18.9420  -30.1000   23.9360 C   0  0  0  0  0  3  0  0  0  0  0  0
  -17.6500  -30.6120   24.1610 C   0  0  0  0  0  3  0  0  0  0  0  0
  -16.5230  -29.8950   23.7250 C   0  0  0  0  0  3  0  0  0  0  0  0
  -16.6910  -28.6750   23.0470 C   0  0  0  0  0  3  0  0  0  0  0  0
  -25.7830  -32.5320   23.9090 C   0  0  0  0  0  3  0  0  0  0  0  0
  -25.4840  -33.9350   24.2180 N   0  0  0  0  0  0  0  0  0  0  0  0
  -25.8540  -34.9760   23.4580 C   0  0  0  0  0  0  0  0  0  0  0  0
  -26.5510  -34.8520   22.4470 O   0  0  0  0  0  0  0  0  0  0  0  0
  -24.8730  -34.1060   25.0010 H   0  0  0  0  0  0  0  0  0  0  0  0
  -24.1650  -36.7870   23.0280 C   0  0  0  0  0  1  0  0  0  0  0  0
  -25.3700  -36.3740   23.8890 C   0  0  0  0  0  3  0  0  0  0  0  0
  -27.4740  -37.2430   24.8000 C   0  0  0  0  0  1  0  0  0  0  0  0
  -26.4190  -37.4130   23.8060 N   0  0  0  0  0  0  0  0  0  0  0  0
  -26.0210  -38.3410   23.9260 H   0  0  0  0  0  0  0  0  0  0  0  0
  -26.2450  -31.7600   25.2050 C   0  0  1  0  0  0  0  0  0  0  0  0
  -25.1140  -31.5450   26.2380 C   0  0  0  0  0  1  0  0  0  0  0  0
  -26.8210  -30.3730   24.8350 C   0  0  0  0  0  1  0  0  0  0  0  0
  -27.3850  -32.5400   25.9020 C   0  0  0  0  0  1  0  0  0  0  0  0
  1  2  2  0
  1  3  1  0
  2  4  1  0
  3  5  2  0
  4  6  2  0
  5  6  1  0
  5  8  1  0
  8  7  1  0
 10  9  1  0
 10  3  1  0
 10 19  1  0
 11 19  1  0
 12 17  1  0
 13 14  1  0
 13 12  1  0
 15 14  1  0
 15 24  1  0
 15 16  1  0
 17 11  1  0
 17 16  1  0
 18 11  2  0
 19 20  1  0
 21 22  2  0
 22 41  1  0
 23 22  1  0
 23 26  1  0
 24 21  1  0
 24 25  1  0
 25 23  2  0
 26 27  1  0
 27 28  2  0
 29 32  1  0
 29 28  1  0
 30 29  2  0
 31 30  1  0
 31 26  2  0
 32 33  1  0
 33 34  1  0
 34 35  2  0
 36 35  1  0
 36 40  1  0
 37 36  2  0
 38 33  2  0
 38 37  1  0
 39 38  1  0
 41 42  1  0
 42 45  1  0
 42 44  1  0
 43 41  2  0
 46 47  1  0
 46 21  1  0
 48 46  1  0
 49 50  1  0
 49  4  1  0
 50 52  1  0
 51 50  1  0
 53 50  1  0
 53 55  1  0
 55 54  1  0
 56 58  1  0
 56 55  1  0
 57 68  2  0
 58 63  1  0
 59 67  1  0
 59 69  1  0
 60 66  1  0
 60 62  1  0
 61 67  1  0
 62 61  1  0
 63 62  2  0
 64 65  1  0
 64 58  2  0
 65 60  2  0
 66 59  1  0
 67 57  1  0
 69 71  2  0
 70 69  1  0
 72 70  1  0
 73 82  2  0
 73 78  1  0
 74 70  1  0
 74 78  1  0
 75 74  1  0
 76 77  1  0
 76 75  1  0
 77 73  1  0
 78 79  2  0
 79 80  1  0
 81 80  2  0
 82 81  1  0
 83 57  1  0
 83 84  1  0
 83 93  1  0
 84 87  1  0
 85 89  1  0
 85 84  1  0
 86 85  2  0
 89 88  1  0
 91 89  1  0
 91 92  1  0
 91 90  1  0
 93 96  1  1
 93 94  1  0
 95 93  1  0
M  ISO  4  11 100  19 100  55 101  56 101
M  END
>  <TORSDO>  (32) 
F 22

>  <SCORE>  (32) 
-13.209

>  <name>  (32) 
31

>  <ligand_id>  (32) 
31

>  <original_smiles>  (32) 
[H]c1c(C([H])([H])[N+]([H])([H])C([H])([H])C([H])(Oc2c([H])c([H])c3c(c2[H])C([H])([H])N(C(=O)C([H])(N([H])C(=O)C([H])(N([H])C([H])([H])[H])C([H])([H])[H])C(C([H])([H])[H])(C([H])([H])[H])C([H])([H])[H])C([H])(C(=O)N([H])C2([H])c4c([H])c([H])c([H])c([H])c4C([H])([H])C([H])([H])C2([H])[H])C3([H])[H])C([H])([H])[H])nc(C([H])([H])C([H])([H])[H])c(C([H])(N([H])C(=O)N2C([H])([H])C([H])([H])C([H])([H])C([H])(n3nc(-c4c([H])c([H])c(Oc5c([H])c([H])c(F)c([H])c5F)c([H])c4[H])c(C(=O)N([H])[H])c3N([H])[H])C2([H])[H])C([H])([H])[H])c1[H]

>  <smiles>  (32) 
[H]c1c(C([H])([H])[N+]([H])([H])C([H])([H])C([H])(Oc2c([H])c([H])c3c(c2[H])C([H])([H])N(C(=O)C([H])(N([H])C(=O)C([H])(N([H])C([H])([H])[H])C([H])([H])[H])C(C([H])([H])[H])(C([H])([H])[H])C([H])([H])[H])C([H])(C(=O)N([H])C2([H])c4c([H])c([H])c([H])c([H])c4C([H])([H])C([H])([H])C2([H])[H])C3([H])[H])C([H])([H])[H])nc(C([H])([H])C([H])([H])[H])c(C([H])(N([H])C(=O)N2C([H])([H])C([H])([H])C([H])([H])C([H])(n3nc(-c4c([H])c([H])c(Oc5c([H])c([H])c(F)c([H])c5F)c([H])c4[H])c(C(=O)N([H])[H])c3N([H])[H])C2([H])[H])C([H])([H])[H])c1[H]

$$$$
32:0:0
     RDKit          3D

 92 92  0  0  1  0  0  0  0  0999 V2000
  -24.4460  -25.0210   19.0160 C   0  0  0  0  0 15  0  0  0  0  0  0
  -23.6270  -21.0830   18.7960 C   0  0  0  0  0  3  0  0  0  0  0  0
  -24.9320  -20.5520   18.7610 C   0  0  0  0  0  3  0  0  0  0  0  0
  -23.6150  -22.4410   18.8730 C   0  0  0  0  0  3  0  0  0  0  0  0
  -25.9460  -21.4640   18.9130 C   0  0  0  0  0  3  0  0  0  0  0  0
  -22.3230  -23.2210   18.8820 C   0  0  0  0  0  1  0  0  0  0  0  0
  -24.8940  -23.0260   18.9370 N   0  0  0  0  0  0  0  0  0  0  0  0
  -27.6540  -20.1630   18.9940 C   0  0  0  0  0 15  0  0  0  0  0  0
  -29.6970  -17.1080   19.4830 C   0  0  0  0  0  0  0  0  0  0  0  0
  -30.7530  -14.5000   19.0970 C   0  0  0  0  0  2  0  0  0  0  0  0
  -30.1420  -13.4770   18.0720 C   0  0  0  0  0  2  0  0  0  0  0  0
  -28.8280  -12.8810   18.5940 C   0  0  0  0  0  2  0  0  0  0  0  0
  -28.0700  -13.9680   19.3750 C   0  0  0  0  0  3  0  0  0  0  0  0
  -28.8890  -14.7160   20.4260 C   0  0  0  0  0  2  0  0  0  0  0  0
  -29.7320  -15.5890   19.6150 N   0  0  0  0  0  0  0  0  0  0  0  0
  -30.9750  -17.2230   19.3720 O   0  0  0  0  0  0  0  0  0  0  0  0
  -28.4500  -18.3080   19.3510 N   0  0  0  0  0  2  0  0  0  0  0  0
  -27.6220  -17.7560   19.4570 H   0  0  0  0  0  0  0  0  0  0  0  0
  -25.8090  -14.4870   20.2570 C   0  0  0  0  0  0  0  0  0  0  0  0
  -24.7750  -13.7070   20.6660 C   0  0  0  0  0  0  0  0  0  0  0  0
  -25.2430  -12.3580   20.5870 C   0  0  0  0  0  0  0  0  0  0  0  0
  -26.8130  -13.6010   19.9300 N   0  0  0  0  0  0  0  0  0  0  0  0
  -26.5120  -12.3160   20.2070 N   0  0  0  0  0  0  0  0  0  0  0  0
  -24.5240  -11.1000   20.7730 C   0  0  0  0  0  0  0  0  0  0  0  0
  -24.9070  -10.1690   21.7620 C   0  0  0  0  0  3  0  0  0  0  0  0
  -24.1760   -8.9750   21.9340 C   0  0  0  0  0  3  0  0  0  0  0  0
  -23.0530   -8.7110   21.1160 C   0  0  0  0  0  0  0  0  0  0  0  0
  -22.6960   -9.6290   20.1130 C   0  0  0  0  0  3  0  0  0  0  0  0
  -23.4270  -10.8120   19.9390 C   0  0  0  0  0  3  0  0  0  0  0  0
  -22.2950   -7.5680   21.1950 O   0  0  0  0  0  0  0  0  0  0  0  0
  -22.0700   -6.9370   22.3900 C   0  0  0  0  0  0  0  0  0  0  0  0
  -21.4630   -7.5990   23.4790 C   0  0  0  0  0  3  0  0  0  0  0  0
  -21.1900   -6.8910   24.6670 C   0  0  0  0  0  3  0  0  0  0  0  0
  -21.5110   -5.5250   24.7620 C   0  0  0  0  0  0  0  0  0  0  0  0
  -22.1110   -4.8640   23.6760 C   0  0  0  0  0  3  0  0  0  0  0  0
  -22.3880   -5.5690   22.4920 C   0  0  0  0  0  0  0  0  0  0  0  0
  -22.9480   -4.9240   21.4400 F   0  0  0  0  0  0  0  0  0  0  0  0
  -21.2410   -4.8430   25.8990 F   0  0  0  0  0  0  0  0  0  0  0  0
  -23.3990  -14.1940   20.9910 C   0  0  0  0  0  0  0  0  0  0  0  0
  -22.7010  -13.4960   21.8780 N   0  0  0  0  0  0  0  0  0  0  0  0
  -22.9570  -15.2290   20.4910 O   0  0  0  0  0  0  0  0  0  0  0  0
  -23.0800  -12.6620   22.3040 H   0  0  0  0  0  0  0  0  0  0  0  0
  -21.7720  -13.7990   22.1390 H   0  0  0  0  0  0  0  0  0  0  0  0
  -25.9590  -15.8630   20.0900 N   0  0  0  0  0  0  0  0  0  0  0  0
  -25.1280  -16.4430   20.1420 H   0  0  0  0  0  0  0  0  0  0  0  0
  -26.6710  -16.2560   19.4980 H   0  0  0  0  0  0  0  0  0  0  0  0
  -22.7220  -27.1570   17.8070 C   0  0  0  0  0  1  0  0  0  0  0  0
  -22.9650  -26.7450   19.3040 C   0  0  0  0  0  1  0  0  0  0  0  0
  -21.4000  -29.8260   19.5880 C   0  0  0  0  0  1  0  0  0  0  0  0
  -22.1290  -28.6470   20.3680 C   0  0  0  0  0  1  0  0  0  0  0  0
  -22.8670  -29.4230   22.6590 C   0  0  0  0  0 15  0  0  0  0  0  0
  -25.1360  -28.8700   22.7760 O   0  0  0  0  0  1  0  0  0  0  0  0
  -24.5810  -31.5610   23.0830 C   0  0  0  0  0  0  0  0  0  0  0  0
  -26.2570  -28.1520   21.8540 C   0  0  0  0  0  3  0  0  0  0  0  0
  -24.1240  -29.4110   20.8760 C   0  0  0  0  0  2  0  0  0  0  0  0
  -25.6610  -29.0960   19.5820 C   0  0  0  0  0  3  0  0  0  0  0  0
  -26.0410  -31.1110   21.1310 C   0  0  0  0  0  2  0  0  0  0  0  0
  -26.5060  -29.8090   20.5040 C   0  0  0  0  0  3  0  0  0  0  0  0
  -27.2250  -29.0300   21.3970 C   0  0  0  0  0  2  0  0  0  0  0  0
  -26.1230  -27.1930   20.7460 C   0  0  0  0  0  2  0  0  0  0  0  0
  -25.6910  -27.7020   19.5240 C   0  0  0  0  0  2  0  0  0  0  0  0
  -24.3420  -29.5770   19.4190 C   0  0  0  0  0  2  0  0  0  0  0  0
  -24.7370  -30.8910   21.7410 N   0  0  0  0  0  0  0  0  0  0  0  0
  -23.4840  -31.8160   23.6410 O   0  0  0  0  0  0  0  0  0  0  0  0
  -23.5940  -27.3470   21.9860 C   0  0  0  0  0  2  0  0  0  0  0  0
  -22.2480  -27.1530   22.6400 N   0  0  0  0  0  0  0  0  0  0  0  0
  -24.1030  -26.8520   22.9820 O   0  0  0  0  0  1  0  0  0  0  0  0
  -22.5340  -26.4990   23.3550 H   0  0  0  0  0  0  0  0  0  0  0  0
  -18.0570  -27.9130   22.4710 C   0  0  0  0  0  0  0  0  0  0  0  0
  -20.6580  -27.3690   22.8350 C   0  0  0  0  0  3  0  0  0  0  0  0
  -20.2260  -26.1210   22.1000 C   0  0  0  0  0  2  0  0  0  0  0  0
  -19.2500  -26.3320   20.9620 C   0  0  0  0  0  2  0  0  0  0  0  0
  -17.9370  -26.7530   21.5230 C   0  0  0  0  0  2  0  0  0  0  0  0
  -19.3310  -28.4010   22.9660 C   0  0  0  0  0  0  0  0  0  0  0  0
  -19.1450  -29.5950   23.7530 C   0  0  0  0  0  3  0  0  0  0  0  0
  -17.8600  -30.1960   24.0120 C   0  0  0  0  0  3  0  0  0  0  0  0
  -16.6650  -29.6050   23.5580 C   0  0  0  0  0  3  0  0  0  0  0  0
  -16.7860  -28.4300   22.8240 C   0  0  0  0  0  3  0  0  0  0  0  0
  -25.7150  -32.1350   24.0880 C   0  0  0  0  0  3  0  0  0  0  0  0
  -25.3860  -33.5550   24.3820 N   0  0  0  0  0  0  0  0  0  0  0  0
  -25.8930  -34.6270   23.7530 C   0  0  0  0  0  0  0  0  0  0  0  0
  -26.7150  -34.5080   22.8460 O   0  0  0  0  0  0  0  0  0  0  0  0
  -24.6370  -33.6820   25.0470 H   0  0  0  0  0  0  0  0  0  0  0  0
  -24.3180  -36.5760   23.3140 C   0  0  0  0  0  1  0  0  0  0  0  0
  -25.4540  -36.0420   24.2080 C   0  0  0  0  0  3  0  0  0  0  0  0
  -27.5640  -36.8230   25.2360 C   0  0  0  0  0  1  0  0  0  0  0  0
  -26.5480  -37.0450   24.2110 N   0  0  0  0  0  0  0  0  0  0  0  0
  -26.1770  -37.9850   24.3250 H   0  0  0  0  0  0  0  0  0  0  0  0
  -25.8800  -31.4270   25.5320 C   0  0  1  0  0  0  0  0  0  0  0  0
  -24.5930  -31.4220   26.4100 C   0  0  0  0  0  1  0  0  0  0  0  0
  -26.3150  -29.9550   25.4340 C   0  0  0  0  0  1  0  0  0  0  0  0
  -27.0310  -32.1460   26.3200 C   0  0  0  0  0  1  0  0  0  0  0  0
  2  4  1  0
  3  2  2  0
  3  5  1  0
  4  6  1  0
  4  7  1  0
  5  7  2  0
  9 15  1  0
 10 15  1  0
 11 12  1  0
 11 10  1  0
 13 12  1  0
 13 22  1  0
 13 14  1  0
 15 14  1  0
 16  9  2  0
 17 18  1  0
 17  9  1  0
 19 20  2  0
 20 39  1  0
 21 20  1  0
 21 24  1  0
 22 23  1  0
 22 19  1  0
 23 21  2  0
 24 25  1  0
 25 26  2  0
 27 30  1  0
 27 26  1  0
 28 27  2  0
 29 28  1  0
 29 24  2  0
 30 31  1  0
 31 36  2  0
 31 32  1  0
 32 33  2  0
 33 34  1  0
 34 38  1  0
 35 34  2  0
 36 35  1  0
 37 36  1  0
 39 40  1  0
 40 43  1  0
 40 42  1  0
 41 39  2  0
 44 45  1  0
 44 19  1  0
 46 44  1  0
 47 48  1  0
 49 50  1  0
 53 64  2  0
 54 52  1  0
 55 63  1  0
 56 62  1  0
 56 58  1  0
 57 63  1  0
 58 57  1  0
 58 59  1  0
 59 54  1  0
 60 54  1  0
 61 56  1  0
 61 60  1  0
 62 55  1  0
 63 53  1  0
 65 66  1  0
 65 67  1  0
 66 68  1  0
 69 78  2  0
 69 74  1  0
 70 66  1  0
 70 74  1  0
 71 70  1  0
 72 73  1  0
 72 71  1  0
 73 69  1  0
 74 75  2  0
 75 76  1  0
 77 76  2  0
 78 77  1  0
 79 53  1  0
 79 80  1  0
 79 89  1  0
 80 83  1  0
 81 85  1  0
 81 80  1  0
 82 81  2  0
 85 84  1  0
 85 87  1  0
 87 88  1  0
 87 86  1  0
 89 92  1  1
 89 90  1  0
 91 89  1  0
M  ISO  4   9 100  17 100  51 101  52 101
M  END
>  <TORSDO>  (33) 
F 21

>  <SCORE>  (33) 
-9.472

>  <name>  (33) 
32

>  <ligand_id>  (33) 
32

>  <original_smiles>  (33) 
[H]c1c([H])c([H])c2c(c1[H])C([H])([H])C([H])([H])C([H])([H])C2([H])N([H])C(=O)C1([H])N(C(=O)C([H])(N([H])C(=O)C([H])(N([H])C([H])([H])[H])C([H])([H])[H])C(C([H])([H])[H])(C([H])([H])[H])C([H])([H])[H])C([H])([H])c2c([H])c(OC([H])([H])C([H])(C([H])([H])[H])C([H])(C([H])([H])[H])C([H])([H])n3c(C([H])([H])[H])c([H])c([H])c3C([H])([H])N([H])C(=O)N3C([H])([H])C([H])([H])C([H])([H])C([H])(n4nc(-c5c([H])c([H])c(Oc6c([H])c([H])c(F)c([H])c6F)c([H])c5[H])c(C(=O)N([H])[H])c4N([H])[H])C3([H])[H])c([H])c([H])c2C1([H])[H]

>  <smiles>  (33) 
[H]c1c([H])c([H])c2c(c1[H])C([H])([H])C([H])([H])C([H])([H])C2([H])N([H])C(=O)C1([H])N(C(=O)C([H])(N([H])C(=O)C([H])(N([H])C([H])([H])[H])C([H])([H])[H])C(C([H])([H])[H])(C([H])([H])[H])C([H])([H])[H])C([H])([H])c2c([H])c(OC([H])([H])C([H])(C([H])([H])[H])C([H])(C([H])([H])[H])C([H])([H])n3c(C([H])([H])[H])c([H])c([H])c3C([H])([H])N([H])C(=O)N3C([H])([H])C([H])([H])C([H])([H])C([H])(n4nc(-c5c([H])c([H])c(Oc6c([H])c([H])c(F)c([H])c6F)c([H])c5[H])c(C(=O)N([H])[H])c4N([H])[H])C3([H])[H])c([H])c([H])c2C1([H])[H]

$$$$
33:0:0
     RDKit          3D

 90 98  0  0  1  0  0  0  0  0999 V2000
  -30.4370  -23.8290   20.2350 C   0  0  0  0  0  3  0  0  0  0  0  0
  -31.7360  -23.3360   20.1350 C   0  0  0  0  0  3  0  0  0  0  0  0
  -29.2760  -23.0160   20.2790 C   0  0  0  0  0  0  0  0  0  0  0  0
  -31.9290  -21.9660   20.0710 C   0  0  0  0  0  0  0  0  0  0  0  0
  -29.6120  -21.4460   20.2700 C   0  0  0  0  0  0  0  0  0  0  0  0
  -30.9170  -21.0970   20.1640 N   0  0  0  0  0  0  0  0  0  0  0  0
  -34.0530  -21.2540   21.2580 C   0  0  0  0  0  1  0  0  0  0  0  0
  -33.3240  -21.3900   19.9160 C   0  0  0  0  0  2  0  0  0  0  0  0
  -28.0150  -24.2160   20.3020 C   0  0  0  0  0  2  0  0  0  0  0  0
  -28.2070  -25.8730   20.3300 O   0  0  0  0  0  0  0  0  0  0  0  0
  -24.6660  -31.8940   23.2640 C   0  0  0  0  0  0  0  0  0  0  0  0
  -27.1880  -26.9690   20.2750 C   0  0  0  0  0  0  0  0  0  0  0  0
  -23.4660  -30.5040   21.6230 C   0  0  0  0  0  3  0  0  0  0  0  0
  -24.9050  -28.8770   20.2130 C   0  0  0  0  0  0  0  0  0  0  0  0
  -26.0350  -30.6880   21.4860 C   0  0  0  0  0  2  0  0  0  0  0  0
  -26.0930  -29.2730   20.8360 C   0  0  0  0  0  0  0  0  0  0  0  0
  -27.2300  -28.3410   20.8370 C   0  0  0  0  0  3  0  0  0  0  0  0
  -25.9670  -26.7230   19.6090 C   0  0  0  0  0  3  0  0  0  0  0  0
  -24.8660  -27.6220   19.5780 C   0  0  0  0  0  3  0  0  0  0  0  0
  -23.6950  -29.8100   20.2520 C   0  0  0  0  0  2  0  0  0  0  0  0
  -24.7440  -31.0570   22.1780 N   0  0  0  0  0  0  0  0  0  0  0  0
  -23.5760  -32.1960   23.7790 O   0  0  0  0  0  0  0  0  0  0  0  0
  -22.7560  -29.5220   22.5910 C   0  0  0  0  0  0  0  0  0  0  0  0
  -21.4250  -29.3700   22.4600 N   0  0  0  0  0  0  0  0  0  0  0  0
  -23.4100  -28.8940   23.4280 O   0  0  0  0  0  0  0  0  0  0  0  0
  -20.9510  -29.9250   21.7610 H   0  0  0  0  0  0  0  0  0  0  0  0
  -18.0260  -28.1960   22.9600 C   0  0  0  0  0  0  0  0  0  0  0  0
  -20.5880  -28.4420   23.2300 C   0  0  0  0  0  3  0  0  0  0  0  0
  -20.6790  -27.0080   22.6590 C   0  0  0  0  0  2  0  0  0  0  0  0
  -19.5770  -26.6920   21.6420 C   0  0  0  0  0  2  0  0  0  0  0  0
  -18.1950  -26.8460   22.2820 C   0  0  0  0  0  2  0  0  0  0  0  0
  -19.1490  -28.9520   23.3900 C   0  0  0  0  0  0  0  0  0  0  0  0
  -18.9340  -30.2130   23.9880 C   0  0  0  0  0  3  0  0  0  0  0  0
  -17.6310  -30.7190   24.1560 C   0  0  0  0  0  3  0  0  0  0  0  0
  -16.5240  -29.9600   23.7390 C   0  0  0  0  0  3  0  0  0  0  0  0
  -16.7220  -28.7000   23.1470 C   0  0  0  0  0  3  0  0  0  0  0  0
  -25.9400  -32.5260   23.9030 C   0  0  0  0  0  3  0  0  0  0  0  0
  -26.4330  -31.7560   25.1920 C   0  0  1  0  0  0  0  0  0  0  0  0
  -25.3260  -31.5360   26.2490 C   0  0  0  0  0  1  0  0  0  0  0  0
  -27.0060  -30.3700   24.8210 C   0  0  0  0  0  1  0  0  0  0  0  0
  -27.5860  -32.5420   25.8610 C   0  0  0  0  0  1  0  0  0  0  0  0
  -25.6320  -33.9280   24.2400 N   0  0  0  0  0  0  0  0  0  0  0  0
  -25.9360  -34.9860   23.4750 C   0  0  0  0  0  0  0  0  0  0  0  0
  -26.5670  -34.8830   22.4200 O   0  0  0  0  0  0  0  0  0  0  0  0
  -25.0640  -34.0810   25.0610 H   0  0  0  0  0  0  0  0  0  0  0  0
  -24.1800  -36.7730   23.2220 C   0  0  0  0  0  1  0  0  0  0  0  0
  -25.4720  -36.3780   23.9540 C   0  0  0  0  0  3  0  0  0  0  0  0
  -27.6440  -37.2910   24.6520 C   0  0  0  0  0  1  0  0  0  0  0  0
  -26.4920  -37.4330   23.7660 N   0  0  0  0  0  0  0  0  0  0  0  0
  -26.0900  -38.3550   23.9110 H   0  0  0  0  0  0  0  0  0  0  0  0
  -28.9810  -19.8220   20.3350 C   0  0  0  0  0  3  0  0  0  0  0  0
  -29.9410  -18.2640   20.2740 C   0  0  0  0  0  3  0  0  0  0  0  0
  -30.3530  -15.3300   20.2040 C   0  0  0  0  0  0  0  0  0  0  0  0
  -30.3120  -12.8930   19.3000 C   0  0  0  0  0  2  0  0  0  0  0  0
  -29.3660  -12.6900   18.0910 C   0  0  0  0  0  2  0  0  0  0  0  0
  -27.9280  -12.4070   18.5580 C   0  0  0  0  0  2  0  0  0  0  0  0
  -27.4960  -13.3530   19.7070 C   0  0  0  0  0  3  0  0  0  0  0  0
  -28.5710  -13.5020   20.8060 C   0  0  0  0  0  2  0  0  0  0  0  0
  -29.7810  -14.0250   20.1480 N   0  0  0  0  0  0  0  0  0  0  0  0
  -31.5670  -15.3250   19.9550 O   0  0  0  0  0  0  0  0  0  0  0  0
  -29.6070  -16.6140   20.3370 N   0  0  0  0  0  0  0  0  0  0  0  0
  -28.6280  -16.4320   20.5030 H   0  0  0  0  0  0  0  0  0  0  0  0
  -25.1470  -13.8880   20.5380 C   0  0  0  0  0  0  0  0  0  0  0  0
  -24.0980  -13.1000   20.9180 C   0  0  0  0  0  0  0  0  0  0  0  0
  -24.5670  -11.7530   20.8460 C   0  0  0  0  0  0  0  0  0  0  0  0
  -26.1860  -13.0210   20.2470 N   0  0  0  0  0  0  0  0  0  0  0  0
  -25.8510  -11.7290   20.5010 N   0  0  0  0  0  0  0  0  0  0  0  0
  -23.8470  -10.4840   21.0280 C   0  0  0  0  0  0  0  0  0  0  0  0
  -24.2810   -9.5150   21.9570 C   0  0  0  0  0  3  0  0  0  0  0  0
  -23.5590   -8.3140   22.1300 C   0  0  0  0  0  3  0  0  0  0  0  0
  -22.3880   -8.0750   21.3720 C   0  0  0  0  0  0  0  0  0  0  0  0
  -21.9730   -9.0340   20.4310 C   0  0  0  0  0  3  0  0  0  0  0  0
  -22.6960  -10.2260   20.2570 C   0  0  0  0  0  3  0  0  0  0  0  0
  -21.6380   -6.9270   21.4540 O   0  0  0  0  0  0  0  0  0  0  0  0
  -21.5640   -6.1950   22.6120 C   0  0  0  0  0  0  0  0  0  0  0  0
  -21.0710   -6.7480   23.8130 C   0  0  0  0  0  3  0  0  0  0  0  0
  -20.9490   -5.9420   24.9630 C   0  0  0  0  0  3  0  0  0  0  0  0
  -21.3070   -4.5810   24.9100 C   0  0  0  0  0  0  0  0  0  0  0  0
  -21.7910   -4.0260   23.7120 C   0  0  0  0  0  3  0  0  0  0  0  0
  -21.9160   -4.8310   22.5650 C   0  0  0  0  0  0  0  0  0  0  0  0
  -22.3640   -4.2870   21.4080 F   0  0  0  0  0  0  0  0  0  0  0  0
  -21.1810   -3.8030   26.0090 F   0  0  0  0  0  0  0  0  0  0  0  0
  -22.7060  -13.5690   21.2280 C   0  0  0  0  0  0  0  0  0  0  0  0
  -21.9990  -12.8560   22.0980 N   0  0  0  0  0  0  0  0  0  0  0  0
  -22.2560  -14.6020   20.7340 O   0  0  0  0  0  0  0  0  0  0  0  0
  -22.3790  -12.0210   22.5200 H   0  0  0  0  0  0  0  0  0  0  0  0
  -21.0650  -13.1490   22.3460 H   0  0  0  0  0  0  0  0  0  0  0  0
  -25.3020  -15.2630   20.3840 N   0  0  0  0  0  0  0  0  0  0  0  0
  -24.5310  -15.9090   20.5190 H   0  0  0  0  0  0  0  0  0  0  0  0
  -26.1290  -15.7110   20.0130 H   0  0  0  0  0  0  0  0  0  0  0  0
  1  3  1  0
  2  1  2  0
  3  9  1  0
  4  2  1  0
  4  6  2  0
  5  3  2  0
  5 51  1  0
  6  5  1  0
  8  4  1  0
  8  7  1  0
  9 10  1  0
 11 22  2  0
 12 10  1  0
 12 17  1  0
 13 21  1  0
 13 23  1  0
 14 20  1  0
 14 16  1  0
 15 21  1  0
 16 17  2  0
 16 15  1  0
 18 12  2  0
 19 18  1  0
 19 14  2  0
 20 13  1  0
 21 11  1  0
 23 25  2  0
 24 23  1  0
 26 24  1  0
 27 36  2  0
 27 32  1  0
 28 24  1  0
 28 32  1  0
 29 28  1  0
 30 31  1  0
 30 29  1  0
 31 27  1  0
 32 33  2  0
 33 34  1  0
 35 34  2  0
 36 35  1  0
 37 11  1  0
 37 42  1  0
 37 38  1  0
 38 41  1  1
 38 39  1  0
 40 38  1  0
 42 45  1  0
 43 47  1  0
 43 42  1  0
 44 43  2  0
 47 46  1  0
 49 50  1  0
 49 47  1  0
 49 48  1  0
 52 51  2  0
 52 61  1  0
 53 61  1  0
 54 59  1  0
 55 56  1  0
 55 54  1  0
 57 56  1  0
 57 66  1  0
 57 58  1  0
 59 53  1  0
 59 58  1  0
 60 53  2  0
 61 62  1  0
 63 64  2  0
 64 83  1  0
 65 64  1  0
 65 68  1  0
 66 67  1  0
 66 63  1  0
 67 65  2  0
 68 69  1  0
 69 70  2  0
 71 74  1  0
 71 70  1  0
 72 71  2  0
 73 72  1  0
 73 68  2  0
 74 75  1  0
 75 76  1  0
 76 77  2  0
 78 77  1  0
 78 82  1  0
 79 78  2  0
 80 75  2  0
 80 79  1  0
 81 80  1  0
 83 84  1  0
 84 87  1  0
 84 86  1  0
 85 83  2  0
 88 89  1  0
 88 63  1  0
 90 88  1  0
M  ISO  4   9 101  10 101  53 100  61 100
M  END
>  <TORSDO>  (34) 
F 20

>  <SCORE>  (34) 
-16.107

>  <name>  (34) 
33

>  <ligand_id>  (34) 
33

>  <original_smiles>  (34) 
[H]c1c(C([H])([H])C([H])([H])[H])nc(C([H])([H])C([H])([H])N([H])C(=O)N2C([H])([H])C([H])([H])C([H])([H])C([H])(n3nc(-c4c([H])c([H])c(Oc5c([H])c([H])c(F)c([H])c5F)c([H])c4[H])c(C(=O)N([H])[H])c3N([H])[H])C2([H])[H])c(C([H])([H])Oc2c([H])c([H])c3c(c2[H])C([H])([H])N(C(=O)C([H])(N([H])C(=O)C([H])(N([H])C([H])([H])[H])C([H])([H])[H])C(C([H])([H])[H])(C([H])([H])[H])C([H])([H])[H])C([H])(C(=O)N([H])C2([H])c4c([H])c([H])c([H])c([H])c4C([H])([H])C([H])([H])C2([H])[H])C3([H])[H])c1[H]

>  <smiles>  (34) 
[H]c1c(C([H])([H])C([H])([H])[H])nc(C([H])([H])C([H])([H])N([H])C(=O)N2C([H])([H])C([H])([H])C([H])([H])C([H])(n3nc(-c4c([H])c([H])c(Oc5c([H])c([H])c(F)c([H])c5F)c([H])c4[H])c(C(=O)N([H])[H])c3N([H])[H])C2([H])[H])c(C([H])([H])Oc2c([H])c([H])c3c(c2[H])C([H])([H])N(C(=O)C([H])(N([H])C(=O)C([H])(N([H])C([H])([H])[H])C([H])([H])[H])C(C([H])([H])[H])(C([H])([H])[H])C([H])([H])[H])C([H])(C(=O)N([H])C2([H])c4c([H])c([H])c([H])c([H])c4C([H])([H])C([H])([H])C2([H])[H])C3([H])[H])c1[H]

$$$$
34:0:0
     RDKit          3D

100108  0  0  1  0  0  0  0  0999 V2000
  -30.9230  -23.1300   21.7500 C   0  0  0  0  0  3  0  0  0  0  0  0
  -29.7240  -23.6720   21.0670 N   0  0  0  0  0  4  0  0  0  0  0  0
  -29.5650  -23.1470   20.2220 H   0  0  0  0  0  0  0  0  0  0  0  0
  -28.9340  -23.4990   21.6690 H   0  0  0  0  0  0  0  0  0  0  0  0
  -29.7820  -25.1300   20.7800 C   0  0  0  0  0  2  0  0  0  0  0  0
  -28.4790  -25.6640   20.1630 C   0  0  0  0  0  2  0  0  0  0  0  0
  -28.5280  -27.0940   20.1360 O   0  0  0  0  0  0  0  0  0  0  0  0
  -24.5960  -32.0780   23.2970 C   0  0  0  0  0  0  0  0  0  0  0  0
  -27.3200  -27.7580   20.1390 C   0  0  0  0  0  0  0  0  0  0  0  0
  -23.4010  -30.6610   21.6570 C   0  0  0  0  0  3  0  0  0  0  0  0
  -24.8770  -29.1800   20.1990 C   0  0  0  0  0  0  0  0  0  0  0  0
  -25.9120  -31.1000   21.4210 C   0  0  0  0  0  2  0  0  0  0  0  0
  -26.0260  -29.7380   20.7710 C   0  0  0  0  0  0  0  0  0  0  0  0
  -27.2510  -29.0360   20.7330 C   0  0  0  0  0  3  0  0  0  0  0  0
  -26.1510  -27.2110   19.5590 C   0  0  0  0  0  3  0  0  0  0  0  0
  -24.9330  -27.9180   19.5860 C   0  0  0  0  0  3  0  0  0  0  0  0
  -23.6080  -29.9990   20.2680 C   0  0  0  0  0  2  0  0  0  0  0  0
  -24.6550  -31.2930   22.1860 N   0  0  0  0  0  0  0  0  0  0  0  0
  -23.5170  -32.3110   23.8580 O   0  0  0  0  0  0  0  0  0  0  0  0
  -22.7960  -29.6110   22.6150 C   0  0  0  0  0  0  0  0  0  0  0  0
  -21.4800  -29.3730   22.4890 N   0  0  0  0  0  0  0  0  0  0  0  0
  -23.5040  -29.0120   23.4280 O   0  0  0  0  0  0  0  0  0  0  0  0
  -20.9680  -29.9140   21.8060 H   0  0  0  0  0  0  0  0  0  0  0  0
  -18.1550  -28.0500   22.9660 C   0  0  0  0  0  0  0  0  0  0  0  0
  -20.7000  -28.4030   23.2550 C   0  0  0  0  0  3  0  0  0  0  0  0
  -20.8630  -26.9800   22.6750 C   0  0  0  0  0  2  0  0  0  0  0  0
  -19.7780  -26.6160   21.6560 C   0  0  0  0  0  2  0  0  0  0  0  0
  -18.3880  -26.7080   22.2920 C   0  0  0  0  0  2  0  0  0  0  0  0
  -19.2420  -28.8530   23.4050 C   0  0  0  0  0  0  0  0  0  0  0  0
  -18.9710  -30.1100   23.9900 C   0  0  0  0  0  3  0  0  0  0  0  0
  -17.6480  -30.5600   24.1520 C   0  0  0  0  0  3  0  0  0  0  0  0
  -16.5760  -29.7520   23.7330 C   0  0  0  0  0  3  0  0  0  0  0  0
  -16.8310  -28.5010   23.1410 C   0  0  0  0  0  3  0  0  0  0  0  0
  -25.8760  -32.7320   23.9070 C   0  0  0  0  0  3  0  0  0  0  0  0
  -26.4020  -31.9910   25.1970 C   0  0  1  0  0  0  0  0  0  0  0  0
  -25.3070  -31.7480   26.2610 C   0  0  0  0  0  1  0  0  0  0  0  0
  -27.0160  -30.6200   24.8210 C   0  0  0  0  0  1  0  0  0  0  0  0
  -27.5270  -32.8200   25.8580 C   0  0  0  0  0  1  0  0  0  0  0  0
  -25.5540  -34.1330   24.2090 N   0  0  0  0  0  0  0  0  0  0  0  0
  -25.8920  -35.1740   23.4380 C   0  0  0  0  0  0  0  0  0  0  0  0
  -26.5850  -35.0610   22.4230 O   0  0  0  0  0  0  0  0  0  0  0  0
  -24.9470  -34.2970   24.9970 H   0  0  0  0  0  0  0  0  0  0  0  0
  -24.1630  -36.9500   23.0160 C   0  0  0  0  0  1  0  0  0  0  0  0
  -25.3840  -36.5640   23.8630 C   0  0  0  0  0  3  0  0  0  0  0  0
  -27.4880  -37.4770   24.7380 C   0  0  0  0  0  1  0  0  0  0  0  0
  -26.4110  -37.6250   23.7630 N   0  0  0  0  0  0  0  0  0  0  0  0
  -25.9940  -38.5440   23.8860 H   0  0  0  0  0  0  0  0  0  0  0  0
  -30.4980  -22.2000   22.9120 C   0  0  0  0  0  2  0  0  0  0  0  0
  -31.1560  -21.3060   25.0410 C   0  0  0  0  0  1  0  0  0  0  0  0
  -31.6260  -21.8400   23.7670 N   0  0  0  0  0  0  0  0  0  0  0  0
  -32.1870  -21.1320   23.2950 H   0  0  0  0  0  0  0  0  0  0  0  0
  -31.9150  -22.5050   20.7370 C   0  0  0  0  0  2  0  0  0  0  0  0
  -31.6560  -21.0350   20.3450 C   0  0  0  0  0  2  0  0  0  0  0  0
  -30.2990  -20.8160   19.9750 O   0  0  0  0  0  0  0  0  0  0  0  0
  -29.4210  -19.3790   18.2850 C   0  0  0  0  0  3  0  0  0  0  0  0
  -30.3040  -18.3780   20.2980 C   0  0  0  0  0  3  0  0  0  0  0  0
  -30.0230  -19.5380   19.5420 C   0  0  0  0  0  0  0  0  0  0  0  0
  -29.2020  -18.0790   17.7980 C   0  0  0  0  0  0  0  0  0  0  0  0
  -30.0380  -17.1010   19.7560 C   0  0  0  0  0  0  0  0  0  0  0  0
  -29.5100  -16.9730   18.5120 N   0  0  0  0  0  0  0  0  0  0  0  0
  -31.0330  -14.9340   20.1850 C   0  0  0  0  0  0  0  0  0  0  0  0
  -30.7030  -12.8390   18.9700 C   0  0  0  0  0  2  0  0  0  0  0  0
  -29.7350  -13.1510   17.8100 C   0  0  0  0  0  2  0  0  0  0  0  0
  -28.2680  -13.0200   18.2630 C   0  0  0  0  0  2  0  0  0  0  0  0
  -27.9740  -13.7610   19.5940 C   0  0  0  0  0  3  0  0  0  0  0  0
  -29.0550  -13.4460   20.6540 C   0  0  0  0  0  2  0  0  0  0  0  0
  -30.3730  -13.7510   20.0710 N   0  0  0  0  0  0  0  0  0  0  0  0
  -32.1930  -15.1050   19.7950 O   0  0  0  0  0  0  0  0  0  0  0  0
  -30.2670  -15.9650   20.5750 N   0  0  0  0  0  0  0  0  0  0  0  0
  -29.4400  -15.6570   21.0590 H   0  0  0  0  0  0  0  0  0  0  0  0
  -25.5800  -14.3500   20.3270 C   0  0  0  0  0  0  0  0  0  0  0  0
  -24.5210  -13.5690   20.7140 C   0  0  0  0  0  0  0  0  0  0  0  0
  -24.9940  -12.2200   20.6710 C   0  0  0  0  0  0  0  0  0  0  0  0
  -26.6290  -13.4770   20.0870 N   0  0  0  0  0  0  0  0  0  0  0  0
  -26.2800  -12.1930   20.3490 N   0  0  0  0  0  0  0  0  0  0  0  0
  -24.2790  -10.9500   20.8620 C   0  0  0  0  0  0  0  0  0  0  0  0
  -24.7060   -9.9990   21.8160 C   0  0  0  0  0  3  0  0  0  0  0  0
  -23.9910   -8.7950   21.9940 C   0  0  0  0  0  3  0  0  0  0  0  0
  -22.8380   -8.5310   21.2180 C   0  0  0  0  0  0  0  0  0  0  0  0
  -22.4310   -9.4710   20.2540 C   0  0  0  0  0  3  0  0  0  0  0  0
  -23.1450  -10.6680   20.0740 C   0  0  0  0  0  3  0  0  0  0  0  0
  -22.0980   -7.3770   21.3040 O   0  0  0  0  0  0  0  0  0  0  0  0
  -22.0190   -6.6590   22.4700 C   0  0  0  0  0  0  0  0  0  0  0  0
  -21.5510   -7.2370   23.6700 C   0  0  0  0  0  3  0  0  0  0  0  0
  -21.4200   -6.4470   24.8290 C   0  0  0  0  0  3  0  0  0  0  0  0
  -21.7430   -5.0770   24.7880 C   0  0  0  0  0  0  0  0  0  0  0  0
  -22.2000   -4.4970   23.5910 C   0  0  0  0  0  3  0  0  0  0  0  0
  -22.3350   -5.2860   22.4350 C   0  0  0  0  0  0  0  0  0  0  0  0
  -22.7560   -4.7170   21.2800 F   0  0  0  0  0  0  0  0  0  0  0  0
  -21.6080   -4.3140   25.8980 F   0  0  0  0  0  0  0  0  0  0  0  0
  -23.1250  -14.0310   21.0040 C   0  0  0  0  0  0  0  0  0  0  0  0
  -22.4220  -13.3450   21.8990 N   0  0  0  0  0  0  0  0  0  0  0  0
  -22.6620  -15.0390   20.4700 O   0  0  0  0  0  0  0  0  0  0  0  0
  -22.8080  -12.5290   22.3510 H   0  0  0  0  0  0  0  0  0  0  0  0
  -21.4850  -13.6380   22.1360 H   0  0  0  0  0  0  0  0  0  0  0  0
  -25.7280  -15.7200   20.1390 N   0  0  0  0  0  0  0  0  0  0  0  0
  -24.9380  -16.3520   20.2090 H   0  0  0  0  0  0  0  0  0  0  0  0
  -26.5390  -16.1450   19.7060 H   0  0  0  0  0  0  0  0  0  0  0  0
  -29.6720  -18.3940   15.3390 C   0  0  0  0  0  1  0  0  0  0  0  0
  -28.6740  -17.8750   16.3900 C   0  0  0  0  0  2  0  0  0  0  0  0
  1 52  1  0
  1 48  1  0
  2  4  1  0
  2  1  1  0
  3  2  1  0
  5  2  1  0
  6  5  1  0
  7  9  1  0
  7  6  1  0
  8 19  2  0
  9 14  1  0
 10 18  1  0
 10 20  1  0
 11 17  1  0
 11 13  1  0
 12 18  1  0
 13 12  1  0
 14 13  2  0
 15 16  1  0
 15  9  2  0
 16 11  2  0
 17 10  1  0
 18  8  1  0
 20 22  2  0
 21 20  1  0
 23 21  1  0
 24 33  2  0
 24 29  1  0
 25 21  1  0
 25 29  1  0
 26 25  1  0
 27 28  1  0
 27 26  1  0
 28 24  1  0
 29 30  2  0
 30 31  1  0
 32 31  2  0
 33 32  1  0
 34  8  1  0
 34 39  1  0
 34 35  1  0
 35 38  1  1
 35 36  1  0
 37 35  1  0
 39 42  1  0
 40 44  1  0
 40 39  1  0
 41 40  2  0
 44 43  1  0
 46 44  1  0
 46 47  1  0
 46 45  1  0
 48 50  1  0
 50 49  1  0
 51 50  1  0
 53 52  1  0
 54 53  1  0
 55 57  1  0
 57 54  1  0
 57 56  2  0
 58 55  2  0
 58 60  1  0
 59 56  1  0
 59 69  1  0
 60 59  2  0
 61 69  1  0
 62 67  1  0
 63 64  1  0
 63 62  1  0
 65 64  1  0
 65 74  1  0
 65 66  1  0
 67 61  1  0
 67 66  1  0
 68 61  2  0
 69 70  1  0
 71 72  2  0
 72 91  1  0
 73 72  1  0
 73 76  1  0
 74 71  1  0
 74 75  1  0
 75 73  2  0
 76 77  1  0
 77 78  2  0
 79 82  1  0
 79 78  1  0
 80 79  2  0
 81 80  1  0
 81 76  2  0
 82 83  1  0
 83 84  1  0
 84 85  2  0
 86 85  1  0
 86 90  1  0
 87 86  2  0
 88 83  2  0
 88 87  1  0
 89 88  1  0
 91 92  1  0
 92 95  1  0
 92 94  1  0
 93 91  2  0
 96 97  1  0
 96 71  1  0
 98 96  1  0
 99100  1  0
100 58  1  0
M  ISO  4   6 101   7 101  61 100  69 100
M  END
>  <TORSDO>  (35) 
F 26

>  <SCORE>  (35) 
-10.273

>  <name>  (35) 
34

>  <ligand_id>  (35) 
34

>  <original_smiles>  (35) 
[H]c1c([H])c([H])c2c(c1[H])C([H])([H])C([H])([H])C([H])([H])C2([H])N([H])C(=O)C1([H])N(C(=O)C([H])(N([H])C(=O)C([H])(N([H])C([H])([H])[H])C([H])([H])[H])C(C([H])([H])[H])(C([H])([H])[H])C([H])([H])[H])C([H])([H])c2c([H])c(OC([H])([H])C([H])([H])[N+]([H])([H])C([H])(C([H])([H])N([H])C([H])([H])[H])C([H])([H])C([H])([H])Oc3c([H])c(N([H])C(=O)N4C([H])([H])C([H])([H])C([H])([H])C([H])(n5nc(-c6c([H])c([H])c(Oc7c([H])c([H])c(F)c([H])c7F)c([H])c6[H])c(C(=O)N([H])[H])c5N([H])[H])C4([H])[H])nc(C([H])([H])C([H])([H])[H])c3[H])c([H])c([H])c2C1([H])[H]

>  <smiles>  (35) 
[H]c1c([H])c([H])c2c(c1[H])C([H])([H])C([H])([H])C([H])([H])C2([H])N([H])C(=O)C1([H])N(C(=O)C([H])(N([H])C(=O)C([H])(N([H])C([H])([H])[H])C([H])([H])[H])C(C([H])([H])[H])(C([H])([H])[H])C([H])([H])[H])C([H])([H])c2c([H])c(OC([H])([H])C([H])([H])[N+]([H])([H])C([H])(C([H])([H])N([H])C([H])([H])[H])C([H])([H])C([H])([H])Oc3c([H])c(N([H])C(=O)N4C([H])([H])C([H])([H])C([H])([H])C([H])(n5nc(-c6c([H])c([H])c(Oc7c([H])c([H])c(F)c([H])c7F)c([H])c6[H])c(C(=O)N([H])[H])c5N([H])[H])C4([H])[H])nc(C([H])([H])C([H])([H])[H])c3[H])c([H])c([H])c2C1([H])[H]

$$$$
35:0:0
     RDKit          3D

 93102  0  0  1  0  0  0  0  0999 V2000
  -29.8510  -24.8120   21.0680 C   0  0  0  0  0  2  0  0  0  0  0  0
  -30.2850  -23.3380   21.0580 C   0  0  0  0  0  2  0  0  0  0  0  0
  -28.1620  -23.5390   20.0360 C   0  0  0  0  0  2  0  0  0  0  0  0
  -28.8080  -25.0340   19.9590 C   0  0  2  0  0  0  0  0  0  0  0  0
  -29.4560  -25.2350   18.5810 C   0  0  0  0  0  1  0  0  0  0  0  0
  -29.1330  -22.4920   20.6540 N   0  0  1  0  0  4  0  0  0  0  0  0
  -28.7040  -22.1660   21.5070 H   0  0  0  0  0  0  0  0  0  0  0  0
  -28.3660  -26.4320   20.3720 O   0  0  0  0  0  0  0  0  0  0  0  0
  -24.6360  -31.8740   23.2200 C   0  0  0  0  0  0  0  0  0  0  0  0
  -27.2250  -27.2470   20.1770 C   0  0  0  0  0  0  0  0  0  0  0  0
  -23.4190  -30.4690   21.5890 C   0  0  0  0  0  3  0  0  0  0  0  0
  -24.8600  -28.8950   20.1490 C   0  0  0  0  0  0  0  0  0  0  0  0
  -25.9560  -30.7710   21.3910 C   0  0  0  0  0  2  0  0  0  0  0  0
  -26.0270  -29.3840   20.7420 C   0  0  0  0  0  0  0  0  0  0  0  0
  -27.2020  -28.5700   20.7430 C   0  0  0  0  0  3  0  0  0  0  0  0
  -26.0410  -26.8170   19.5440 C   0  0  0  0  0  3  0  0  0  0  0  0
  -24.8740  -27.6240   19.5360 C   0  0  0  0  0  3  0  0  0  0  0  0
  -23.6230  -29.7770   20.2100 C   0  0  0  0  0  2  0  0  0  0  0  0
  -24.6900  -31.0590   22.1240 N   0  0  0  0  0  0  0  0  0  0  0  0
  -23.5560  -32.1570   23.7610 O   0  0  0  0  0  0  0  0  0  0  0  0
  -22.7570  -29.4660   22.5640 C   0  0  0  0  0  0  0  0  0  0  0  0
  -21.4300  -29.2920   22.4480 N   0  0  0  0  0  0  0  0  0  0  0  0
  -23.4400  -28.8440   23.3850 O   0  0  0  0  0  0  0  0  0  0  0  0
  -20.9390  -29.8440   21.7580 H   0  0  0  0  0  0  0  0  0  0  0  0
  -18.0570  -28.0890   22.9660 C   0  0  0  0  0  0  0  0  0  0  0  0
  -20.6150  -28.3590   23.2280 C   0  0  0  0  0  3  0  0  0  0  0  0
  -20.7190  -26.9230   22.6620 C   0  0  0  0  0  2  0  0  0  0  0  0
  -19.6160  -26.5920   21.6520 C   0  0  0  0  0  2  0  0  0  0  0  0
  -18.2350  -26.7380   22.2970 C   0  0  0  0  0  2  0  0  0  0  0  0
  -19.1740  -28.8570   23.3890 C   0  0  0  0  0  0  0  0  0  0  0  0
  -18.9530  -30.1220   23.9750 C   0  0  0  0  0  3  0  0  0  0  0  0
  -17.6470  -30.6210   24.1430 C   0  0  0  0  0  3  0  0  0  0  0  0
  -16.5440  -29.8490   23.7360 C   0  0  0  0  0  3  0  0  0  0  0  0
  -16.7490  -28.5860   23.1530 C   0  0  0  0  0  3  0  0  0  0  0  0
  -25.9220  -32.5080   23.8350 C   0  0  0  0  0  3  0  0  0  0  0  0
  -25.6130  -33.9050   24.1770 N   0  0  0  0  0  0  0  0  0  0  0  0
  -25.9310  -34.9650   23.4220 C   0  0  0  0  0  0  0  0  0  0  0  0
  -26.5840  -34.8700   22.3780 O   0  0  0  0  0  0  0  0  0  0  0  0
  -25.0270  -34.0510   24.9860 H   0  0  0  0  0  0  0  0  0  0  0  0
  -24.1880  -36.7550   23.1210 C   0  0  0  0  0  1  0  0  0  0  0  0
  -25.4510  -36.3500   23.8990 C   0  0  0  0  0  3  0  0  0  0  0  0
  -27.6030  -37.2410   24.6770 C   0  0  0  0  0  1  0  0  0  0  0  0
  -26.4760  -37.4080   23.7640 N   0  0  0  0  0  0  0  0  0  0  0  0
  -26.0700  -38.3250   23.9270 H   0  0  0  0  0  0  0  0  0  0  0  0
  -26.4510  -31.7340   25.1050 C   0  0  1  0  0  0  0  0  0  0  0  0
  -25.3690  -31.4970   26.1850 C   0  0  0  0  0  1  0  0  0  0  0  0
  -27.0290  -30.3560   24.7060 C   0  0  0  0  0  1  0  0  0  0  0  0
  -27.6100  -32.5260   25.7570 C   0  0  0  0  0  1  0  0  0  0  0  0
  -29.6910  -21.2030   19.9660 C   0  0  0  0  0  2  0  0  0  0  0  0
  -27.5940  -18.2360   18.7380 C   0  0  0  0  0  3  0  0  0  0  0  0
  -27.9640  -19.5300   19.1300 C   0  0  0  0  0  3  0  0  0  0  0  0
  -28.3120  -17.1240   19.2100 C   0  0  0  0  0  3  0  0  0  0  0  0
  -29.0790  -19.7160   19.9570 C   0  0  0  0  0  0  0  0  0  0  0  0
  -29.3810  -17.2520   20.1180 C   0  0  0  0  0  0  0  0  0  0  0  0
  -29.7480  -18.5730   20.4600 N   0  0  0  0  0  0  0  0  0  0  0  0
  -30.5350  -14.8510   20.3360 C   0  0  0  0  0  0  0  0  0  0  0  0
  -30.4010  -12.5310   19.3810 C   0  0  0  0  0  2  0  0  0  0  0  0
  -29.4610  -12.5570   18.1530 C   0  0  0  0  0  2  0  0  0  0  0  0
  -27.9960  -12.3540   18.5860 C   0  0  0  0  0  2  0  0  0  0  0  0
  -27.6100  -13.2490   19.7910 C   0  0  0  0  0  3  0  0  0  0  0  0
  -28.6680  -13.2060   20.9150 C   0  0  0  0  0  2  0  0  0  0  0  0
  -29.9560  -13.5920   20.3220 N   0  0  0  0  0  0  0  0  0  0  0  0
  -31.6990  -14.9690   19.9310 O   0  0  0  0  0  0  0  0  0  0  0  0
  -29.7760  -15.9510   20.7550 N   0  0  0  0  0  0  0  0  0  0  0  0
  -29.0120  -15.5970   21.3050 H   0  0  0  0  0  0  0  0  0  0  0  0
  -25.2250  -13.8580   20.5110 C   0  0  0  0  0  0  0  0  0  0  0  0
  -24.1560  -13.0890   20.8780 C   0  0  0  0  0  0  0  0  0  0  0  0
  -24.6160  -11.7370   20.8510 C   0  0  0  0  0  0  0  0  0  0  0  0
  -26.2660  -12.9720   20.2780 N   0  0  0  0  0  0  0  0  0  0  0  0
  -25.9080  -11.6930   20.5490 N   0  0  0  0  0  0  0  0  0  0  0  0
  -23.8900  -10.4760   21.0430 C   0  0  0  0  0  0  0  0  0  0  0  0
  -24.3350   -9.5010   21.9620 C   0  0  0  0  0  3  0  0  0  0  0  0
  -23.6080   -8.3050   22.1420 C   0  0  0  0  0  3  0  0  0  0  0  0
  -22.4250   -8.0760   21.4020 C   0  0  0  0  0  0  0  0  0  0  0  0
  -21.9990   -9.0410   20.4720 C   0  0  0  0  0  3  0  0  0  0  0  0
  -22.7260  -10.2290   20.2890 C   0  0  0  0  0  3  0  0  0  0  0  0
  -21.6670   -6.9330   21.4930 O   0  0  0  0  0  0  0  0  0  0  0  0
  -21.6480   -6.1720   22.6330 C   0  0  0  0  0  0  0  0  0  0  0  0
  -21.2700   -6.7100   23.8830 C   0  0  0  0  0  3  0  0  0  0  0  0
  -21.1960   -5.8760   25.0160 C   0  0  0  0  0  3  0  0  0  0  0  0
  -21.4900   -4.5050   24.9020 C   0  0  0  0  0  0  0  0  0  0  0  0
  -21.8620   -3.9650   23.6580 C   0  0  0  0  0  3  0  0  0  0  0  0
  -21.9370   -4.7970   22.5270 C   0  0  0  0  0  0  0  0  0  0  0  0
  -22.2760   -4.2680   21.3250 F   0  0  0  0  0  0  0  0  0  0  0  0
  -21.4120   -3.7010   25.9880 F   0  0  0  0  0  0  0  0  0  0  0  0
  -22.7590  -13.5700   21.1430 C   0  0  0  0  0  0  0  0  0  0  0  0
  -22.0290  -12.8790   22.0110 N   0  0  0  0  0  0  0  0  0  0  0  0
  -22.3240  -14.5930   20.6180 O   0  0  0  0  0  0  0  0  0  0  0  0
  -22.3940  -12.0520   22.4600 H   0  0  0  0  0  0  0  0  0  0  0  0
  -21.0910  -13.1830   22.2320 H   0  0  0  0  0  0  0  0  0  0  0  0
  -25.3930  -15.2290   20.3330 N   0  0  0  0  0  0  0  0  0  0  0  0
  -24.6290  -15.8840   20.4630 H   0  0  0  0  0  0  0  0  0  0  0  0
  -26.2460  -15.6760   20.0250 H   0  0  0  0  0  0  0  0  0  0  0  0
  2  1  1  0
  3  6  1  0
  4  5  1  6
  4  3  1  0
  4  8  1  0
  4  1  1  0
  6  2  1  0
  6  7  1  1
  9 20  2  0
 10  8  1  0
 10 15  1  0
 11 19  1  0
 11 21  1  0
 12 18  1  0
 12 14  1  0
 13 19  1  0
 14 15  2  0
 14 13  1  0
 16 10  2  0
 17 16  1  0
 17 12  2  0
 18 11  1  0
 19  9  1  0
 21 23  2  0
 22 21  1  0
 24 22  1  0
 25 34  2  0
 25 30  1  0
 26 22  1  0
 26 30  1  0
 27 26  1  0
 28 29  1  0
 28 27  1  0
 29 25  1  0
 30 31  2  0
 31 32  1  0
 33 32  2  0
 34 33  1  0
 35  9  1  0
 35 36  1  0
 35 45  1  0
 36 39  1  0
 37 41  1  0
 37 36  1  0
 38 37  2  0
 41 40  1  0
 43 41  1  0
 43 44  1  0
 43 42  1  0
 45 48  1  1
 45 46  1  0
 47 45  1  0
 49  6  1  0
 50 51  2  0
 50 52  1  0
 51 53  1  0
 52 54  2  0
 53 49  1  0
 53 55  2  0
 54 55  1  0
 54 64  1  0
 56 64  1  0
 57 62  1  0
 58 59  1  0
 58 57  1  0
 60 59  1  0
 60 69  1  0
 60 61  1  0
 62 56  1  0
 62 61  1  0
 63 56  2  0
 64 65  1  0
 66 67  2  0
 67 86  1  0
 68 67  1  0
 68 71  1  0
 69 66  1  0
 69 70  1  0
 70 68  2  0
 71 72  1  0
 72 73  2  0
 74 77  1  0
 74 73  1  0
 75 74  2  0
 76 75  1  0
 76 71  2  0
 77 78  1  0
 78 79  1  0
 79 80  2  0
 81 80  1  0
 81 85  1  0
 82 81  2  0
 83 78  2  0
 83 82  1  0
 84 83  1  0
 86 87  1  0
 87 90  1  0
 87 89  1  0
 88 86  2  0
 91 92  1  0
 91 66  1  0
 93 91  1  0
M  ISO  4   4 101   8 101  56 100  64 100
M  END
>  <TORSDO>  (36) 
F 18

>  <SCORE>  (36) 
-14.953

>  <name>  (36) 
35

>  <ligand_id>  (36) 
35

>  <original_smiles>  (36) 
[H]c1c(N([H])C(=O)N2C([H])([H])C([H])([H])C([H])([H])C([H])(n3nc(-c4c([H])c([H])c(Oc5c([H])c([H])c(F)c([H])c5F)c([H])c4[H])c(C(=O)N([H])[H])c3N([H])[H])C2([H])[H])nc(C([H])([H])[N+]2([H])C([H])([H])C([H])([H])C(Oc3c([H])c([H])c4c(c3[H])C([H])([H])N(C(=O)C([H])(N([H])C(=O)C([H])(N([H])C([H])([H])[H])C([H])([H])[H])C(C([H])([H])[H])(C([H])([H])[H])C([H])([H])[H])C([H])(C(=O)N([H])C3([H])c5c([H])c([H])c([H])c([H])c5C([H])([H])C([H])([H])C3([H])[H])C4([H])[H])(C([H])([H])[H])C2([H])[H])c([H])c1[H]

>  <smiles>  (36) 
[H]c1c(N([H])C(=O)N2C([H])([H])C([H])([H])C([H])([H])C([H])(n3nc(-c4c([H])c([H])c(Oc5c([H])c([H])c(F)c([H])c5F)c([H])c4[H])c(C(=O)N([H])[H])c3N([H])[H])C2([H])[H])nc(C([H])([H])[N+]2([H])C([H])([H])C([H])([H])C(Oc3c([H])c([H])c4c(c3[H])C([H])([H])N(C(=O)C([H])(N([H])C(=O)C([H])(N([H])C([H])([H])[H])C([H])([H])[H])C(C([H])([H])[H])(C([H])([H])[H])C([H])([H])[H])C([H])(C(=O)N([H])C3([H])c5c([H])c([H])c([H])c([H])c5C([H])([H])C([H])([H])C3([H])[H])C4([H])[H])(C([H])([H])[H])C2([H])[H])c([H])c1[H]

$$$$
36:0:0
     RDKit          3D

 90 97  0  0  1  0  0  0  0  0999 V2000
  -28.9450  -23.3930   20.4500 C   0  0  0  0  0  0  0  0  0  0  0  0
  -28.7870  -22.0060   20.1310 N   0  0  0  0  0  0  0  0  0  0  0  0
  -29.8440  -23.7020   21.2330 O   0  0  0  0  0  0  0  0  0  0  0  0
  -27.9960  -21.8040   19.5330 H   0  0  0  0  0  0  0  0  0  0  0  0
  -30.9870  -20.8750   19.6480 C   0  0  0  0  0  1  0  0  0  0  0  0
  -29.6790  -20.7210   20.4450 C   0  0  0  0  0  3  0  0  0  0  0  0
  -29.1730  -19.0880   20.3450 C   0  0  0  0  0  0  0  0  0  0  0  0
  -27.9800  -18.8430   20.1480 O   0  0  0  0  0  0  0  0  0  0  0  0
  -30.1750  -17.7600   20.4880 C   0  0  0  0  0  2  0  0  0  0  0  0
  -30.4650  -15.0240   20.3460 C   0  0  0  0  0  0  0  0  0  0  0  0
  -30.3300  -12.6800   19.3780 C   0  0  0  0  0  2  0  0  0  0  0  0
  -29.3960  -12.6390   18.1470 C   0  0  0  0  0  2  0  0  0  0  0  0
  -27.9340  -12.4240   18.5810 C   0  0  0  0  0  2  0  0  0  0  0  0
  -27.5270  -13.3380   19.7660 C   0  0  0  0  0  3  0  0  0  0  0  0
  -28.5850  -13.3520   20.8890 C   0  0  0  0  0  2  0  0  0  0  0  0
  -29.8510  -13.7720   20.2750 N   0  0  0  0  0  0  0  0  0  0  0  0
  -31.6720  -15.0670   20.0870 O   0  0  0  0  0  0  0  0  0  0  0  0
  -29.7220  -16.2340   20.4960 N   0  0  0  0  0  0  0  0  0  0  0  0
  -28.7300  -16.1050   20.6290 H   0  0  0  0  0  0  0  0  0  0  0  0
  -25.1450  -13.9020   20.5060 C   0  0  0  0  0  0  0  0  0  0  0  0
  -24.0840  -13.1220   20.8740 C   0  0  0  0  0  0  0  0  0  0  0  0
  -24.5570  -11.7740   20.8450 C   0  0  0  0  0  0  0  0  0  0  0  0
  -26.1920  -13.0300   20.2660 N   0  0  0  0  0  0  0  0  0  0  0  0
  -25.8490  -11.7440   20.5370 N   0  0  0  0  0  0  0  0  0  0  0  0
  -23.8340  -10.5070   21.0320 C   0  0  0  0  0  0  0  0  0  0  0  0
  -24.2600   -9.5460   21.9740 C   0  0  0  0  0  3  0  0  0  0  0  0
  -23.5370   -8.3460   22.1500 C   0  0  0  0  0  3  0  0  0  0  0  0
  -22.3730   -8.1000   21.3840 C   0  0  0  0  0  0  0  0  0  0  0  0
  -21.9670   -9.0510   20.4300 C   0  0  0  0  0  3  0  0  0  0  0  0
  -22.6920  -10.2420   20.2530 C   0  0  0  0  0  3  0  0  0  0  0  0
  -21.6220   -6.9530   21.4680 O   0  0  0  0  0  0  0  0  0  0  0  0
  -21.5570   -6.2190   22.6250 C   0  0  0  0  0  0  0  0  0  0  0  0
  -21.0870   -6.7750   23.8360 C   0  0  0  0  0  3  0  0  0  0  0  0
  -20.9710   -5.9660   24.9840 C   0  0  0  0  0  3  0  0  0  0  0  0
  -21.3150   -4.6030   24.9230 C   0  0  0  0  0  0  0  0  0  0  0  0
  -21.7790   -4.0460   23.7180 C   0  0  0  0  0  3  0  0  0  0  0  0
  -21.8970   -4.8520   22.5720 C   0  0  0  0  0  0  0  0  0  0  0  0
  -22.3240   -4.3050   21.4080 F   0  0  0  0  0  0  0  0  0  0  0  0
  -21.1970   -3.8240   26.0240 F   0  0  0  0  0  0  0  0  0  0  0  0
  -22.6840  -13.5930   21.1390 C   0  0  0  0  0  0  0  0  0  0  0  0
  -21.9560  -12.8970   22.0030 N   0  0  0  0  0  0  0  0  0  0  0  0
  -22.2440  -14.6140   20.6130 O   0  0  0  0  0  0  0  0  0  0  0  0
  -22.3250  -12.0710   22.4520 H   0  0  0  0  0  0  0  0  0  0  0  0
  -21.0160  -13.1940   22.2230 H   0  0  0  0  0  0  0  0  0  0  0  0
  -25.3000  -15.2740   20.3270 N   0  0  0  0  0  0  0  0  0  0  0  0
  -24.5240  -15.9190   20.4350 H   0  0  0  0  0  0  0  0  0  0  0  0
  -26.1350  -15.7210   19.9730 H   0  0  0  0  0  0  0  0  0  0  0  0
  -28.2790  -24.6510   18.3070 C   0  0  0  0  0  1  0  0  0  0  0  0
  -28.0480  -24.6610   19.8300 C   0  0  0  0  0  3  0  0  0  0  0  0
  -28.2400  -26.1590   20.2760 O   0  0  0  0  0  0  0  0  0  0  0  0
  -24.6170  -31.8830   23.2580 C   0  0  0  0  0  0  0  0  0  0  0  0
  -27.1910  -27.1600   20.2000 C   0  0  0  0  0  0  0  0  0  0  0  0
  -23.4170  -30.4920   21.6180 C   0  0  0  0  0  3  0  0  0  0  0  0
  -24.8640  -28.9260   20.1830 C   0  0  0  0  0  0  0  0  0  0  0  0
  -25.9730  -30.7530   21.4520 C   0  0  0  0  0  2  0  0  0  0  0  0
  -26.0470  -29.3630   20.7910 C   0  0  0  0  0  0  0  0  0  0  0  0
  -27.2090  -28.4970   20.7840 C   0  0  0  0  0  3  0  0  0  0  0  0
  -25.9730  -26.8350   19.5580 C   0  0  0  0  0  3  0  0  0  0  0  0
  -24.8420  -27.6770   19.5510 C   0  0  0  0  0  3  0  0  0  0  0  0
  -23.6370  -29.8230   20.2350 C   0  0  0  0  0  2  0  0  0  0  0  0
  -24.6890  -31.0640   22.1640 N   0  0  0  0  0  0  0  0  0  0  0  0
  -23.5310  -32.1650   23.7870 O   0  0  0  0  0  0  0  0  0  0  0  0
  -22.7390  -29.4790   22.5760 C   0  0  0  0  0  0  0  0  0  0  0  0
  -21.4140  -29.2950   22.4390 N   0  0  0  0  0  0  0  0  0  0  0  0
  -23.4100  -28.8630   23.4090 O   0  0  0  0  0  0  0  0  0  0  0  0
  -20.9290  -29.8440   21.7440 H   0  0  0  0  0  0  0  0  0  0  0  0
  -18.0430  -28.0540   22.9130 C   0  0  0  0  0  0  0  0  0  0  0  0
  -20.5950  -28.3540   23.2080 C   0  0  0  0  0  3  0  0  0  0  0  0
  -20.7230  -26.9180   22.6460 C   0  0  0  0  0  2  0  0  0  0  0  0
  -19.6380  -26.5720   21.6210 C   0  0  0  0  0  2  0  0  0  0  0  0
  -18.2470  -26.7030   22.2480 C   0  0  0  0  0  2  0  0  0  0  0  0
  -19.1460  -28.8350   23.3490 C   0  0  0  0  0  0  0  0  0  0  0  0
  -18.9010  -30.0980   23.9320 C   0  0  0  0  0  3  0  0  0  0  0  0
  -17.5870  -30.5800   24.0820 C   0  0  0  0  0  3  0  0  0  0  0  0
  -16.4990  -29.7960   23.6610 C   0  0  0  0  0  3  0  0  0  0  0  0
  -16.7270  -28.5350   23.0820 C   0  0  0  0  0  3  0  0  0  0  0  0
  -25.8940  -32.5200   23.8850 C   0  0  0  0  0  3  0  0  0  0  0  0
  -26.3910  -31.7630   25.1780 C   0  0  1  0  0  0  0  0  0  0  0  0
  -25.2860  -31.5480   26.2390 C   0  0  0  0  0  1  0  0  0  0  0  0
  -26.9710  -30.3760   24.8180 C   0  0  0  0  0  1  0  0  0  0  0  0
  -27.5390  -32.5610   25.8410 C   0  0  0  0  0  1  0  0  0  0  0  0
  -25.5850  -33.9240   24.2010 N   0  0  0  0  0  0  0  0  0  0  0  0
  -25.9140  -34.9710   23.4320 C   0  0  0  0  0  0  0  0  0  0  0  0
  -26.5740  -34.8560   22.3960 O   0  0  0  0  0  0  0  0  0  0  0  0
  -24.9970  -34.0860   25.0040 H   0  0  0  0  0  0  0  0  0  0  0  0
  -24.1830  -36.7670   23.0860 C   0  0  0  0  0  1  0  0  0  0  0  0
  -25.4360  -36.3660   23.8830 C   0  0  0  0  0  3  0  0  0  0  0  0
  -27.5810  -37.2610   24.6760 C   0  0  0  0  0  1  0  0  0  0  0  0
  -26.4690  -37.4160   23.7430 N   0  0  0  0  0  0  0  0  0  0  0  0
  -26.0650  -38.3380   23.8810 H   0  0  0  0  0  0  0  0  0  0  0  0
  1  3  2  0
  2  6  1  0
  2  1  1  0
  4  2  1  0
  6  5  1  0
  7  6  1  0
  7  9  1  0
  8  7  2  0
  9 18  1  0
 10 18  1  0
 11 16  1  0
 12 13  1  0
 12 11  1  0
 14 13  1  0
 14 23  1  0
 14 15  1  0
 16 10  1  0
 16 15  1  0
 17 10  2  0
 18 19  1  0
 20 21  2  0
 21 40  1  0
 22 21  1  0
 22 25  1  0
 23 20  1  0
 23 24  1  0
 24 22  2  0
 25 26  1  0
 26 27  2  0
 28 31  1  0
 28 27  1  0
 29 28  2  0
 30 29  1  0
 30 25  2  0
 31 32  1  0
 32 33  1  0
 33 34  2  0
 35 34  1  0
 35 39  1  0
 36 35  2  0
 37 32  2  0
 37 36  1  0
 38 37  1  0
 40 41  1  0
 41 44  1  0
 41 43  1  0
 42 40  2  0
 45 46  1  0
 45 20  1  0
 47 45  1  0
 49 48  1  0
 49 50  1  0
 49  1  1  0
 51 62  2  0
 52 50  1  0
 52 57  1  0
 53 61  1  0
 53 63  1  0
 54 60  1  0
 54 56  1  0
 55 61  1  0
 56 55  1  0
 57 56  2  0
 58 52  2  0
 59 58  1  0
 59 54  2  0
 60 53  1  0
 61 51  1  0
 63 65  2  0
 64 63  1  0
 66 64  1  0
 67 76  2  0
 67 72  1  0
 68 64  1  0
 68 72  1  0
 69 68  1  0
 70 71  1  0
 70 69  1  0
 71 67  1  0
 72 73  2  0
 73 74  1  0
 75 74  2  0
 76 75  1  0
 77 51  1  0
 77 82  1  0
 77 78  1  0
 78 81  1  1
 78 79  1  0
 80 78  1  0
 82 85  1  0
 83 87  1  0
 83 82  1  0
 84 83  2  0
 87 86  1  0
 89 90  1  0
 89 87  1  0
 89 88  1  0
M  ISO  4  10 100  18 100  49 101  50 101
M  END
>  <TORSDO>  (37) 
F 20

>  <SCORE>  (37) 
-14.180

>  <name>  (37) 
36

>  <ligand_id>  (37) 
36

>  <original_smiles>  (37) 
[H]c1c([H])c([H])c2c(c1[H])C([H])([H])C([H])([H])C([H])([H])C2([H])N([H])C(=O)C1([H])N(C(=O)C([H])(N([H])C(=O)C([H])(N([H])C([H])([H])[H])C([H])([H])[H])C(C([H])([H])[H])(C([H])([H])[H])C([H])([H])[H])C([H])([H])c2c([H])c(OC([H])(C(=O)N([H])C([H])(C(=O)C([H])([H])N([H])C(=O)N3C([H])([H])C([H])([H])C([H])([H])C([H])(n4nc(-c5c([H])c([H])c(Oc6c([H])c([H])c(F)c([H])c6F)c([H])c5[H])c(C(=O)N([H])[H])c4N([H])[H])C3([H])[H])C([H])([H])[H])C([H])([H])[H])c([H])c([H])c2C1([H])[H]

>  <smiles>  (37) 
[H]c1c([H])c([H])c2c(c1[H])C([H])([H])C([H])([H])C([H])([H])C2([H])N([H])C(=O)C1([H])N(C(=O)C([H])(N([H])C(=O)C([H])(N([H])C([H])([H])[H])C([H])([H])[H])C(C([H])([H])[H])(C([H])([H])[H])C([H])([H])[H])C([H])([H])c2c([H])c(OC([H])(C(=O)N([H])C([H])(C(=O)C([H])([H])N([H])C(=O)N3C([H])([H])C([H])([H])C([H])([H])C([H])(n4nc(-c5c([H])c([H])c(Oc6c([H])c([H])c(F)c([H])c6F)c([H])c5[H])c(C(=O)N([H])[H])c4N([H])[H])C3([H])[H])C([H])([H])[H])C([H])([H])[H])c([H])c([H])c2C1([H])[H]

$$$$
37:0:0
     RDKit          3D

 95103  0  0  1  0  0  0  0  0999 V2000
  -28.8630  -21.1380   17.9430 C   0  0  0  0  0  0  0  0  0  0  0  0
  -29.2260  -21.4940   20.7350 C   0  0  0  0  0  2  0  0  0  0  0  0
  -28.2370  -22.4250   18.5820 C   0  0  0  0  0  3  0  0  0  0  0  0
  -28.9850  -22.9810   19.8300 C   0  0  0  0  0  3  0  0  0  0  0  0
  -29.1800  -19.8470   20.1250 C   0  0  0  0  0  3  0  0  0  0  0  0
  -26.7290  -22.2010   18.8150 C   0  0  0  0  0  1  0  0  0  0  0  0
  -29.2590  -20.0640   18.6740 N   0  0  0  0  0  0  0  0  0  0  0  0
  -28.9700  -21.0980   16.7190 O   0  0  0  0  0  0  0  0  0  0  0  0
  -29.6100  -19.2820   18.1380 H   0  0  0  0  0  0  0  0  0  0  0  0
  -30.1110  -18.3810   20.5790 C   0  0  0  0  0  2  0  0  0  0  0  0
  -30.6490  -15.5000   20.3940 C   0  0  0  0  0  0  0  0  0  0  0  0
  -30.6820  -13.0520   19.5400 C   0  0  0  0  0  2  0  0  0  0  0  0
  -29.7840  -12.8110   18.3000 C   0  0  0  0  0  2  0  0  0  0  0  0
  -28.3290  -12.5420   18.7200 C   0  0  0  0  0  2  0  0  0  0  0  0
  -27.8490  -13.5280   19.8140 C   0  0  0  0  0  3  0  0  0  0  0  0
  -28.8690  -13.6880   20.9580 C   0  0  0  0  0  2  0  0  0  0  0  0
  -30.1030  -14.1920   20.3380 N   0  0  0  0  0  0  0  0  0  0  0  0
  -31.8790  -15.5230   20.2360 O   0  0  0  0  0  0  0  0  0  0  0  0
  -29.8510  -16.7450   20.4310 N   0  0  0  0  0  0  0  0  0  0  0  0
  -28.8660  -16.5290   20.4500 H   0  0  0  0  0  0  0  0  0  0  0  0
  -25.4730  -14.0970   20.5380 C   0  0  0  0  0  0  0  0  0  0  0  0
  -24.3990  -13.3220   20.8760 C   0  0  0  0  0  0  0  0  0  0  0  0
  -24.8570  -11.9680   20.8280 C   0  0  0  0  0  0  0  0  0  0  0  0
  -26.5120  -13.2170   20.2960 N   0  0  0  0  0  0  0  0  0  0  0  0
  -26.1530  -11.9300   20.5420 N   0  0  0  0  0  0  0  0  0  0  0  0
  -24.1210  -10.7070   20.9810 C   0  0  0  0  0  0  0  0  0  0  0  0
  -24.5140   -9.7320   21.9240 C   0  0  0  0  0  3  0  0  0  0  0  0
  -23.7760   -8.5370   22.0660 C   0  0  0  0  0  3  0  0  0  0  0  0
  -22.6320   -8.3100   21.2650 C   0  0  0  0  0  0  0  0  0  0  0  0
  -22.2580   -9.2740   20.3120 C   0  0  0  0  0  3  0  0  0  0  0  0
  -22.9970  -10.4590   20.1680 C   0  0  0  0  0  3  0  0  0  0  0  0
  -21.8680   -7.1680   21.3160 O   0  0  0  0  0  0  0  0  0  0  0  0
  -21.7240   -6.4490   22.4750 C   0  0  0  0  0  0  0  0  0  0  0  0
  -21.1950   -7.0280   23.6500 C   0  0  0  0  0  3  0  0  0  0  0  0
  -21.0030   -6.2340   24.7980 C   0  0  0  0  0  3  0  0  0  0  0  0
  -21.3280   -4.8650   24.7720 C   0  0  0  0  0  0  0  0  0  0  0  0
  -21.8530   -4.2870   23.6030 C   0  0  0  0  0  3  0  0  0  0  0  0
  -22.0460   -5.0770   22.4560 C   0  0  0  0  0  0  0  0  0  0  0  0
  -22.5320   -4.5110   21.3240 F   0  0  0  0  0  0  0  0  0  0  0  0
  -21.1360   -4.1000   25.8730 F   0  0  0  0  0  0  0  0  0  0  0  0
  -23.0010  -13.8030   21.1260 C   0  0  0  0  0  0  0  0  0  0  0  0
  -22.2670  -13.1240   22.0010 N   0  0  0  0  0  0  0  0  0  0  0  0
  -22.5650  -14.8140   20.5770 O   0  0  0  0  0  0  0  0  0  0  0  0
  -22.6340  -12.3040   22.4640 H   0  0  0  0  0  0  0  0  0  0  0  0
  -21.3280  -13.4300   22.2150 H   0  0  0  0  0  0  0  0  0  0  0  0
  -25.6460  -15.4700   20.3830 N   0  0  0  0  0  0  0  0  0  0  0  0
  -24.8740  -16.1210   20.4770 H   0  0  0  0  0  0  0  0  0  0  0  0
  -26.4850  -15.9000   20.0170 H   0  0  0  0  0  0  0  0  0  0  0  0
  -28.4140  -24.6300   20.3010 C   0  0  0  0  0  3  0  0  0  0  0  0
  -28.4150  -26.1080   19.5910 O   0  0  0  0  0  0  0  0  0  0  0  0
  -24.6130  -31.6670   22.9960 C   0  0  0  0  0  0  0  0  0  0  0  0
  -27.3540  -27.1400   19.6670 C   0  0  0  0  0  0  0  0  0  0  0  0
  -23.4790  -30.3430   21.2570 C   0  0  0  0  0  3  0  0  0  0  0  0
  -24.9850  -28.9070   19.7350 C   0  0  0  0  0  0  0  0  0  0  0  0
  -26.0280  -30.6790   21.1300 C   0  0  0  0  0  2  0  0  0  0  0  0
  -26.1560  -29.3220   20.3850 C   0  0  0  0  0  0  0  0  0  0  0  0
  -27.3360  -28.4600   20.3260 C   0  0  0  0  0  3  0  0  0  0  0  0
  -26.1510  -26.8710   18.9820 C   0  0  0  0  0  3  0  0  0  0  0  0
  -25.0030  -27.7020   19.0170 C   0  0  0  0  0  3  0  0  0  0  0  0
  -23.7360  -29.7730   19.8360 C   0  0  0  0  0  2  0  0  0  0  0  0
  -24.7280  -30.9200   21.8510 N   0  0  0  0  0  0  0  0  0  0  0  0
  -23.5130  -31.8690   23.5350 O   0  0  0  0  0  0  0  0  0  0  0  0
  -22.8290  -29.2520   22.1470 C   0  0  0  0  0  0  0  0  0  0  0  0
  -21.4950  -29.0930   22.0670 N   0  0  0  0  0  0  0  0  0  0  0  0
  -23.5320  -28.5500   22.8800 O   0  0  0  0  0  0  0  0  0  0  0  0
  -20.9770  -29.7170   21.4630 H   0  0  0  0  0  0  0  0  0  0  0  0
  -18.1420  -27.8180   22.5990 C   0  0  0  0  0  0  0  0  0  0  0  0
  -20.7100  -28.0750   22.7750 C   0  0  0  0  0  3  0  0  0  0  0  0
  -20.7900  -26.7070   22.0600 C   0  0  0  0  0  2  0  0  0  0  0  0
  -19.6460  -26.4760   21.0680 C   0  0  0  0  0  2  0  0  0  0  0  0
  -18.2930  -26.5460   21.7820 C   0  0  0  0  0  2  0  0  0  0  0  0
  -19.2760  -28.5440   23.0520 C   0  0  0  0  0  0  0  0  0  0  0  0
  -19.0770  -29.7350   23.7820 C   0  0  0  0  0  3  0  0  0  0  0  0
  -17.7800  -30.2050   24.0590 C   0  0  0  0  0  3  0  0  0  0  0  0
  -16.6600  -29.4770   23.6170 C   0  0  0  0  0  3  0  0  0  0  0  0
  -16.8430  -28.2840   22.8940 C   0  0  0  0  0  3  0  0  0  0  0  0
  -25.8570  -32.3140   23.6750 C   0  0  0  0  0  3  0  0  0  0  0  0
  -26.3430  -31.5290   24.9570 C   0  0  1  0  0  0  0  0  0  0  0  0
  -25.2210  -31.2710   25.9910 C   0  0  0  0  0  1  0  0  0  0  0  0
  -26.9490  -30.1610   24.5680 C   0  0  0  0  0  1  0  0  0  0  0  0
  -27.4670  -32.3220   25.6630 C   0  0  0  0  0  1  0  0  0  0  0  0
  -25.5090  -33.7000   24.0330 N   0  0  0  0  0  0  0  0  0  0  0  0
  -25.8520  -34.7840   23.3270 C   0  0  0  0  0  0  0  0  0  0  0  0
  -26.5600  -34.7230   22.3180 O   0  0  0  0  0  0  0  0  0  0  0  0
  -24.8840  -33.8180   24.8180 H   0  0  0  0  0  0  0  0  0  0  0  0
  -24.1090  -36.5680   22.9800 C   0  0  0  0  0  1  0  0  0  0  0  0
  -25.3310  -36.1520   23.8130 C   0  0  0  0  0  3  0  0  0  0  0  0
  -27.4250  -37.0470   24.7330 C   0  0  0  0  0  1  0  0  0  0  0  0
  -26.3500  -37.2250   23.7620 N   0  0  0  0  0  0  0  0  0  0  0  0
  -25.9240  -38.1330   23.9240 H   0  0  0  0  0  0  0  0  0  0  0  0
  -29.0700  -25.0200   21.6470 C   0  0  0  0  0  2  0  0  0  0  0  0
  -29.3910  -24.4860   24.0420 C   0  0  0  0  0  1  0  0  0  0  0  0
  -28.7220  -24.1210   22.7730 N   0  0  0  0  0  4  0  0  0  0  0  0
  -27.7250  -24.1450   22.9280 H   0  0  0  0  0  0  0  0  0  0  0  0
  -28.9720  -23.1730   22.5450 H   0  0  0  0  0  0  0  0  0  0  0  0
  1  3  1  0
  1  7  1  0
  3  6  1  0
  3  4  1  0
  4 49  1  0
  4  2  1  0
  5 10  1  0
  5  2  1  0
  7  5  1  0
  8  1  2  0
  9  7  1  0
 11 19  1  0
 12 17  1  0
 13 14  1  0
 13 12  1  0
 15 14  1  0
 15 24  1  0
 15 16  1  0
 17 11  1  0
 17 16  1  0
 18 11  2  0
 19 20  1  0
 19 10  1  0
 21 22  2  0
 22 41  1  0
 23 22  1  0
 23 26  1  0
 24 21  1  0
 24 25  1  0
 25 23  2  0
 26 27  1  0
 27 28  2  0
 29 32  1  0
 29 28  1  0
 30 29  2  0
 31 30  1  0
 31 26  2  0
 32 33  1  0
 33 34  1  0
 34 35  2  0
 36 35  1  0
 36 40  1  0
 37 36  2  0
 38 33  2  0
 38 37  1  0
 39 38  1  0
 41 42  1  0
 42 45  1  0
 42 44  1  0
 43 41  2  0
 46 47  1  0
 46 21  1  0
 48 46  1  0
 49 91  1  0
 50 52  1  0
 50 49  1  0
 51 62  2  0
 52 57  1  0
 53 61  1  0
 53 63  1  0
 54 60  1  0
 54 56  1  0
 55 61  1  0
 56 55  1  0
 57 56  2  0
 58 59  1  0
 58 52  2  0
 59 54  2  0
 60 53  1  0
 61 51  1  0
 63 65  2  0
 64 63  1  0
 66 64  1  0
 67 76  2  0
 67 72  1  0
 68 64  1  0
 68 72  1  0
 69 68  1  0
 70 71  1  0
 70 69  1  0
 71 67  1  0
 72 73  2  0
 73 74  1  0
 75 74  2  0
 76 75  1  0
 77 51  1  0
 77 82  1  0
 77 78  1  0
 78 81  1  1
 78 79  1  0
 80 78  1  0
 82 85  1  0
 83 87  1  0
 83 82  1  0
 84 83  2  0
 87 86  1  0
 89 87  1  0
 89 90  1  0
 89 88  1  0
 91 93  1  0
 93 94  1  0
 93 92  1  0
 95 93  1  0
M  ISO  4  11 100  19 100  49 101  50 101
M  END
>  <TORSDO>  (38) 
F 20

>  <SCORE>  (38) 
-14.221

>  <name>  (38) 
37

>  <ligand_id>  (38) 
37

>  <original_smiles>  (38) 
[H]c1c([H])c([H])c2c(c1[H])C([H])([H])C([H])([H])C([H])([H])C2([H])N([H])C(=O)C1([H])N(C(=O)C([H])(N([H])C(=O)C([H])(N([H])C([H])([H])[H])C([H])([H])[H])C(C([H])([H])[H])(C([H])([H])[H])C([H])([H])[H])C([H])([H])c2c([H])c(OC([H])(C3([H])C([H])([H])C([H])(C([H])([H])N([H])C(=O)N4C([H])([H])C([H])([H])C([H])([H])C([H])(n5nc(-c6c([H])c([H])c(Oc7c([H])c([H])c(F)c([H])c7F)c([H])c6[H])c(C(=O)N([H])[H])c5N([H])[H])C4([H])[H])N([H])C(=O)C3([H])C([H])([H])[H])C([H])([H])[N+]([H])([H])C([H])([H])[H])c([H])c([H])c2C1([H])[H]

>  <smiles>  (38) 
[H]c1c([H])c([H])c2c(c1[H])C([H])([H])C([H])([H])C([H])([H])C2([H])N([H])C(=O)C1([H])N(C(=O)C([H])(N([H])C(=O)C([H])(N([H])C([H])([H])[H])C([H])([H])[H])C(C([H])([H])[H])(C([H])([H])[H])C([H])([H])[H])C([H])([H])c2c([H])c(OC([H])(C3([H])C([H])([H])C([H])(C([H])([H])N([H])C(=O)N4C([H])([H])C([H])([H])C([H])([H])C([H])(n5nc(-c6c([H])c([H])c(Oc7c([H])c([H])c(F)c([H])c7F)c([H])c6[H])c(C(=O)N([H])[H])c5N([H])[H])C4([H])[H])N([H])C(=O)C3([H])C([H])([H])[H])C([H])([H])[N+]([H])([H])C([H])([H])[H])c([H])c([H])c2C1([H])[H]

$$$$
38:0:0
     RDKit          3D

 92100  0  0  1  0  0  0  0  0999 V2000
  -29.1270  -22.4090   19.8010 C   0  0  0  0  0  2  0  0  0  0  0  0
  -28.2580  -20.7240   21.3940 C   0  0  0  0  0  1  0  0  0  0  0  0
  -29.4320  -21.1080   20.5640 N   0  0  1  0  0  4  0  0  0  0  0  0
  -30.1870  -21.3320   21.1940 H   0  0  0  0  0  0  0  0  0  0  0  0
  -29.8940  -19.9170   19.7070 C   0  0  0  0  0  2  0  0  0  0  0  0
  -31.9710  -18.7490   20.8510 C   0  0  0  0  0  2  0  0  0  0  0  0
  -30.8890  -18.5150   21.8560 C   0  0  0  0  0  2  0  0  0  0  0  0
  -30.5350  -18.6010   20.3720 C   0  0  1  0  0  0  0  0  0  0  0  0
  -30.2880  -17.2620   19.5570 C   0  0  0  0  0  2  0  0  0  0  0  0
  -30.9640  -14.7650   19.9130 C   0  0  0  0  0  0  0  0  0  0  0  0
  -30.6670  -12.4960   18.9440 C   0  0  0  0  0  2  0  0  0  0  0  0
  -29.6940  -12.6160   17.7500 C   0  0  0  0  0  2  0  0  0  0  0  0
  -28.2340  -12.4880   18.2250 C   0  0  0  0  0  2  0  0  0  0  0  0
  -27.9270  -13.3900   19.4500 C   0  0  0  0  0  3  0  0  0  0  0  0
  -29.0180  -13.2630   20.5410 C   0  0  0  0  0  2  0  0  0  0  0  0
  -30.3150  -13.5560   19.9140 N   0  0  0  0  0  0  0  0  0  0  0  0
  -32.1080  -14.8700   19.4630 O   0  0  0  0  0  0  0  0  0  0  0  0
  -30.2160  -15.8840   20.1950 N   0  0  0  0  0  0  0  0  0  0  0  0
  -29.3310  -15.6740   20.6300 H   0  0  0  0  0  0  0  0  0  0  0  0
  -25.5760  -14.0480   20.2460 C   0  0  0  0  0  0  0  0  0  0  0  0
  -24.5030  -13.3030   20.6550 C   0  0  0  0  0  0  0  0  0  0  0  0
  -24.9300  -11.9400   20.6180 C   0  0  0  0  0  0  0  0  0  0  0  0
  -26.5890  -13.1400   19.9820 N   0  0  0  0  0  0  0  0  0  0  0  0
  -26.2080  -11.8680   20.2660 N   0  0  0  0  0  0  0  0  0  0  0  0
  -24.1780  -10.6970   20.8370 C   0  0  0  0  0  0  0  0  0  0  0  0
  -24.5730   -9.7590   21.8160 C   0  0  0  0  0  3  0  0  0  0  0  0
  -23.8240   -8.5820   22.0230 C   0  0  0  0  0  3  0  0  0  0  0  0
  -22.6660   -8.3310   21.2500 C   0  0  0  0  0  0  0  0  0  0  0  0
  -22.2890   -9.2580   20.2610 C   0  0  0  0  0  3  0  0  0  0  0  0
  -23.0380  -10.4280   20.0530 C   0  0  0  0  0  3  0  0  0  0  0  0
  -21.8910   -7.2030   21.3630 O   0  0  0  0  0  0  0  0  0  0  0  0
  -21.7470   -6.5480   22.5590 C   0  0  0  0  0  0  0  0  0  0  0  0
  -21.2200   -7.1880   23.7020 C   0  0  0  0  0  3  0  0  0  0  0  0
  -21.0220   -6.4580   24.8910 C   0  0  0  0  0  3  0  0  0  0  0  0
  -21.3420   -5.0880   24.9370 C   0  0  0  0  0  0  0  0  0  0  0  0
  -21.8620   -4.4470   23.7990 C   0  0  0  0  0  3  0  0  0  0  0  0
  -22.0600   -5.1740   22.6130 C   0  0  0  0  0  0  0  0  0  0  0  0
  -22.5410   -4.5470   21.5120 F   0  0  0  0  0  0  0  0  0  0  0  0
  -21.1460   -4.3840   26.0770 F   0  0  0  0  0  0  0  0  0  0  0  0
  -23.1270  -13.8170   20.9680 C   0  0  0  0  0  0  0  0  0  0  0  0
  -22.4120  -13.1510   21.8680 N   0  0  0  0  0  0  0  0  0  0  0  0
  -22.6970  -14.8450   20.4480 O   0  0  0  0  0  0  0  0  0  0  0  0
  -22.7710  -12.3180   22.3110 H   0  0  0  0  0  0  0  0  0  0  0  0
  -21.4910  -13.4810   22.1150 H   0  0  0  0  0  0  0  0  0  0  0  0
  -25.7680  -15.4130   20.0540 N   0  0  0  0  0  0  0  0  0  0  0  0
  -25.0230  -16.0880   20.1860 H   0  0  0  0  0  0  0  0  0  0  0  0
  -26.6110  -15.8250   19.6750 H   0  0  0  0  0  0  0  0  0  0  0  0
  -29.1850  -23.8440   20.5450 C   0  0  0  0  0  3  0  0  0  0  0  0
  -28.9200  -23.6810   21.9280 O   0  0  0  0  0  0  0  0  0  0  0  0
  -28.9690  -24.5470   22.3240 H   0  0  0  0  0  0  0  0  0  0  0  0
  -28.1820  -24.9800   20.0090 C   0  0  0  0  0  2  0  0  0  0  0  0
  -28.3750  -26.4280   20.3170 O   0  0  0  0  0  0  0  0  0  0  0  0
  -24.6570  -31.8790   23.2680 C   0  0  0  0  0  0  0  0  0  0  0  0
  -27.2660  -27.2970   20.2280 C   0  0  0  0  0  0  0  0  0  0  0  0
  -23.4530  -30.4780   21.6310 C   0  0  0  0  0  3  0  0  0  0  0  0
  -24.9030  -28.9260   20.2060 C   0  0  0  0  0  0  0  0  0  0  0  0
  -25.9940  -30.7880   21.4520 C   0  0  0  0  0  2  0  0  0  0  0  0
  -26.0710  -29.4080   20.8090 C   0  0  0  0  0  0  0  0  0  0  0  0
  -27.2520  -28.6030   20.8150 C   0  0  0  0  0  3  0  0  0  0  0  0
  -26.0790  -26.8880   19.5730 C   0  0  0  0  0  3  0  0  0  0  0  0
  -24.9110  -27.6730   19.5750 C   0  0  0  0  0  3  0  0  0  0  0  0
  -23.6670  -29.8020   20.2520 C   0  0  0  0  0  2  0  0  0  0  0  0
  -24.7200  -31.0660   22.1750 N   0  0  0  0  0  0  0  0  0  0  0  0
  -23.5740  -32.1610   23.8010 O   0  0  0  0  0  0  0  0  0  0  0  0
  -22.7840  -29.4660   22.5910 C   0  0  0  0  0  0  0  0  0  0  0  0
  -21.4610  -29.2780   22.4520 N   0  0  0  0  0  0  0  0  0  0  0  0
  -23.4570  -28.8520   23.4240 O   0  0  0  0  0  0  0  0  0  0  0  0
  -20.9770  -29.8240   21.7530 H   0  0  0  0  0  0  0  0  0  0  0  0
  -18.0910  -28.0460   22.9080 C   0  0  0  0  0  0  0  0  0  0  0  0
  -20.6400  -28.3420   23.2230 C   0  0  0  0  0  3  0  0  0  0  0  0
  -20.7720  -26.9030   22.6720 C   0  0  0  0  0  2  0  0  0  0  0  0
  -19.6930  -26.5490   21.6440 C   0  0  0  0  0  2  0  0  0  0  0  0
  -18.2980  -26.6880   22.2600 C   0  0  0  0  0  2  0  0  0  0  0  0
  -19.1910  -28.8290   23.3470 C   0  0  0  0  0  0  0  0  0  0  0  0
  -18.9460  -30.0990   23.9140 C   0  0  0  0  0  3  0  0  0  0  0  0
  -17.6320  -30.5850   24.0490 C   0  0  0  0  0  3  0  0  0  0  0  0
  -16.5450  -29.7990   23.6280 C   0  0  0  0  0  3  0  0  0  0  0  0
  -16.7750  -28.5320   23.0630 C   0  0  0  0  0  3  0  0  0  0  0  0
  -25.9400  -32.5130   23.8900 C   0  0  0  0  0  3  0  0  0  0  0  0
  -25.6290  -33.9090   24.2260 N   0  0  0  0  0  0  0  0  0  0  0  0
  -25.9460  -34.9660   23.4660 C   0  0  0  0  0  0  0  0  0  0  0  0
  -26.6000  -34.8670   22.4240 O   0  0  0  0  0  0  0  0  0  0  0  0
  -25.0480  -34.0600   25.0380 H   0  0  0  0  0  0  0  0  0  0  0  0
  -24.2010  -36.7510   23.1440 C   0  0  0  0  0  1  0  0  0  0  0  0
  -25.4590  -36.3530   23.9320 C   0  0  0  0  0  3  0  0  0  0  0  0
  -27.6020  -37.2520   24.7300 C   0  0  0  0  0  1  0  0  0  0  0  0
  -26.4850  -37.4120   23.8010 N   0  0  0  0  0  0  0  0  0  0  0  0
  -26.0750  -38.3290   23.9530 H   0  0  0  0  0  0  0  0  0  0  0  0
  -26.4600  -31.7390   25.1620 C   0  0  1  0  0  0  0  0  0  0  0  0
  -25.3690  -31.4910   26.2300 C   0  0  0  0  0  1  0  0  0  0  0  0
  -27.0480  -30.3660   24.7660 C   0  0  0  0  0  1  0  0  0  0  0  0
  -27.6080  -32.5340   25.8260 C   0  0  0  0  0  1  0  0  0  0  0  0
  1  3  1  0
  3  4  1  1
  3  2  1  0
  8  5  1  1
  5  3  1  0
  6  7  1  0
  8  6  1  0
  8  7  1  0
  9 18  1  0
  9  8  1  0
 10 16  1  0
 10 18  1  0
 11 16  1  0
 12 13  1  0
 12 11  1  0
 14 13  1  0
 14 23  1  0
 14 15  1  0
 16 15  1  0
 17 10  2  0
 18 19  1  0
 20 21  2  0
 21 40  1  0
 22 21  1  0
 22 25  1  0
 23 20  1  0
 23 24  1  0
 24 22  2  0
 25 26  1  0
 26 27  2  0
 28 31  1  0
 28 27  1  0
 29 28  2  0
 30 29  1  0
 30 25  2  0
 31 32  1  0
 32 37  2  0
 32 33  1  0
 33 34  2  0
 34 35  1  0
 35 39  1  0
 36 35  2  0
 37 36  1  0
 38 37  1  0
 40 41  1  0
 41 44  1  0
 41 43  1  0
 42 40  2  0
 45 46  1  0
 45 20  1  0
 47 45  1  0
 48  1  1  0
 48 49  1  0
 49 50  1  0
 51 52  1  0
 51 48  1  0
 53 64  2  0
 54 52  1  0
 54 59  1  0
 55 63  1  0
 55 65  1  0
 56 62  1  0
 56 58  1  0
 57 63  1  0
 58 59  2  0
 58 57  1  0
 60 61  1  0
 60 54  2  0
 61 56  2  0
 62 55  1  0
 63 53  1  0
 65 67  2  0
 66 65  1  0
 68 66  1  0
 69 78  2  0
 69 74  1  0
 70 66  1  0
 70 74  1  0
 71 70  1  0
 72 73  1  0
 72 71  1  0
 73 69  1  0
 74 75  2  0
 75 76  1  0
 77 76  2  0
 78 77  1  0
 79 53  1  0
 79 80  1  0
 79 89  1  0
 80 83  1  0
 81 85  1  0
 81 80  1  0
 82 81  2  0
 85 84  1  0
 87 85  1  0
 87 88  1  0
 87 86  1  0
 89 92  1  1
 89 90  1  0
 91 89  1  0
M  ISO  4  10 100  18 100  51 101  52 101
M  END
>  <TORSDO>  (39) 
F 23

>  <SCORE>  (39) 
-12.310

>  <name>  (39) 
38

>  <ligand_id>  (39) 
38

>  <original_smiles>  (39) 
[H]OC([H])(C([H])([H])Oc1c([H])c([H])c2c(c1[H])C([H])([H])N(C(=O)C([H])(N([H])C(=O)C([H])(N([H])C([H])([H])[H])C([H])([H])[H])C(C([H])([H])[H])(C([H])([H])[H])C([H])([H])[H])C([H])(C(=O)N([H])C1([H])c3c([H])c([H])c([H])c([H])c3C([H])([H])C([H])([H])C1([H])[H])C2([H])[H])C([H])([H])[N+]([H])(C([H])([H])[H])C([H])([H])C1(C([H])([H])N([H])C(=O)N2C([H])([H])C([H])([H])C([H])([H])C([H])(n3nc(-c4c([H])c([H])c(Oc5c([H])c([H])c(F)c([H])c5F)c([H])c4[H])c(C(=O)N([H])[H])c3N([H])[H])C2([H])[H])C([H])([H])C1([H])[H]

>  <smiles>  (39) 
[H]OC([H])(C([H])([H])Oc1c([H])c([H])c2c(c1[H])C([H])([H])N(C(=O)C([H])(N([H])C(=O)C([H])(N([H])C([H])([H])[H])C([H])([H])[H])C(C([H])([H])[H])(C([H])([H])[H])C([H])([H])[H])C([H])(C(=O)N([H])C1([H])c3c([H])c([H])c([H])c([H])c3C([H])([H])C([H])([H])C1([H])[H])C2([H])[H])C([H])([H])[N+]([H])(C([H])([H])[H])C([H])([H])C1(C([H])([H])N([H])C(=O)N2C([H])([H])C([H])([H])C([H])([H])C([H])(n3nc(-c4c([H])c([H])c(Oc5c([H])c([H])c(F)c([H])c5F)c([H])c4[H])c(C(=O)N([H])[H])c3N([H])[H])C2([H])[H])C([H])([H])C1([H])[H]

$$$$
39:0:0
     RDKit          3D

 91100  0  0  1  0  0  0  0  0999 V2000
  -30.7300  -19.1600   20.1430 C   0  0  0  0  0  2  0  0  0  0  0  0
  -28.1920  -19.6260   20.7600 C   0  0  0  0  0  3  0  0  0  0  0  0
  -29.8820  -17.9820   20.2500 C   0  0  0  0  0  3  0  0  0  0  0  0
  -29.0110  -20.7770   20.5140 C   0  0  0  0  0  0  0  0  0  0  0  0
  -28.6040  -18.3090   20.6530 N   0  0  0  0  0  0  0  0  0  0  0  0
  -30.3240  -20.4970   20.2500 N   0  0  0  0  0  0  0  0  0  0  0  0
  -28.7670  -16.2370   18.8480 C   0  0  0  0  0  1  0  0  0  0  0  0
  -30.1120  -16.4690   19.5650 C   0  0  2  0  0  0  0  0  0  0  0  0
  -30.6510  -15.0480   20.3040 C   0  0  0  0  0  0  0  0  0  0  0  0
  -30.5040  -12.6660   19.4920 C   0  0  0  0  0  2  0  0  0  0  0  0
  -29.5930  -12.5260   18.2530 C   0  0  0  0  0  2  0  0  0  0  0  0
  -28.1290  -12.2930   18.6770 C   0  0  0  0  0  2  0  0  0  0  0  0
  -27.6680  -13.2560   19.7950 C   0  0  0  0  0  3  0  0  0  0  0  0
  -28.7170  -13.4330   20.9150 C   0  0  0  0  0  2  0  0  0  0  0  0
  -29.9990  -13.8120   20.2930 N   0  0  0  0  0  0  0  0  0  0  0  0
  -31.8750  -14.9770   20.4360 O   0  0  0  0  0  0  0  0  0  0  0  0
  -25.2870  -13.8710   20.4860 C   0  0  0  0  0  0  0  0  0  0  0  0
  -24.2140  -13.1020   20.8330 C   0  0  0  0  0  0  0  0  0  0  0  0
  -24.6850  -11.7530   20.8420 C   0  0  0  0  0  0  0  0  0  0  0  0
  -26.3350  -12.9830   20.2920 N   0  0  0  0  0  0  0  0  0  0  0  0
  -25.9830  -11.7090   20.5760 N   0  0  0  0  0  0  0  0  0  0  0  0
  -23.9640  -10.4920   21.0280 C   0  0  0  0  0  0  0  0  0  0  0  0
  -24.3840   -9.5400   21.9810 C   0  0  0  0  0  3  0  0  0  0  0  0
  -23.6620   -8.3400   22.1550 C   0  0  0  0  0  3  0  0  0  0  0  0
  -22.5110   -8.0860   21.3740 C   0  0  0  0  0  0  0  0  0  0  0  0
  -22.1130   -9.0260   20.4060 C   0  0  0  0  0  3  0  0  0  0  0  0
  -22.8350  -10.2180   20.2310 C   0  0  0  0  0  3  0  0  0  0  0  0
  -21.7620   -6.9370   21.4580 O   0  0  0  0  0  0  0  0  0  0  0  0
  -21.6930   -6.2100   22.6190 C   0  0  0  0  0  0  0  0  0  0  0  0
  -21.2300   -6.7760   23.8270 C   0  0  0  0  0  3  0  0  0  0  0  0
  -21.1090   -5.9740   24.9780 C   0  0  0  0  0  3  0  0  0  0  0  0
  -21.4430   -4.6070   24.9240 C   0  0  0  0  0  0  0  0  0  0  0  0
  -21.9000   -4.0410   23.7200 C   0  0  0  0  0  3  0  0  0  0  0  0
  -22.0220   -4.8410   22.5710 C   0  0  0  0  0  0  0  0  0  0  0  0
  -22.4440   -4.2870   21.4090 F   0  0  0  0  0  0  0  0  0  0  0  0
  -21.3180   -3.8320   26.0270 F   0  0  0  0  0  0  0  0  0  0  0  0
  -22.8070  -13.5770   21.0460 C   0  0  0  0  0  0  0  0  0  0  0  0
  -22.0560  -12.8930   21.9010 N   0  0  0  0  0  0  0  0  0  0  0  0
  -22.3830  -14.5910   20.4910 O   0  0  0  0  0  0  0  0  0  0  0  0
  -22.4130  -12.0740   22.3680 H   0  0  0  0  0  0  0  0  0  0  0  0
  -21.1110  -13.1930   22.0910 H   0  0  0  0  0  0  0  0  0  0  0  0
  -25.4490  -15.2400   20.2890 N   0  0  0  0  0  0  0  0  0  0  0  0
  -24.6820  -15.8940   20.3880 H   0  0  0  0  0  0  0  0  0  0  0  0
  -26.3120  -15.6840   20.0040 H   0  0  0  0  0  0  0  0  0  0  0  0
  -31.3250  -17.6920   17.4120 C   0  0  0  0  0  2  0  0  0  0  0  0
  -32.4500  -17.0750   18.2240 C   0  0  0  0  0  2  0  0  0  0  0  0
  -31.0510  -16.5060   18.3150 C   0  0  0  0  0  3  0  0  0  0  0  0
  -28.4350  -22.1110   20.5320 O   0  0  0  0  0  0  0  0  0  0  0  0
  -29.0360  -23.4900   20.3450 C   0  0  0  0  0  3  0  0  0  0  0  0
  -28.0020  -24.7840   20.1460 C   0  0  0  0  0  3  0  0  0  0  0  0
  -28.2820  -26.2940   20.2620 O   0  0  0  0  0  0  0  0  0  0  0  0
  -24.6080  -31.8820   23.2700 C   0  0  0  0  0  0  0  0  0  0  0  0
  -27.2040  -27.2380   20.2040 C   0  0  0  0  0  0  0  0  0  0  0  0
  -23.4070  -30.4970   21.6220 C   0  0  0  0  0  3  0  0  0  0  0  0
  -24.8570  -28.9410   20.1890 C   0  0  0  0  0  0  0  0  0  0  0  0
  -25.9570  -30.7850   21.4500 C   0  0  0  0  0  2  0  0  0  0  0  0
  -26.0360  -29.4010   20.7900 C   0  0  0  0  0  0  0  0  0  0  0  0
  -27.2110  -28.5660   20.7800 C   0  0  0  0  0  3  0  0  0  0  0  0
  -25.9920  -26.8660   19.5750 C   0  0  0  0  0  3  0  0  0  0  0  0
  -24.8450  -27.6840   19.5680 C   0  0  0  0  0  3  0  0  0  0  0  0
  -23.6240  -29.8250   20.2410 C   0  0  0  0  0  2  0  0  0  0  0  0
  -24.6770  -31.0730   22.1690 N   0  0  0  0  0  0  0  0  0  0  0  0
  -23.5230  -32.1610   23.8020 O   0  0  0  0  0  0  0  0  0  0  0  0
  -22.7340  -29.4800   22.5780 C   0  0  0  0  0  0  0  0  0  0  0  0
  -21.4070  -29.3050   22.4470 N   0  0  0  0  0  0  0  0  0  0  0  0
  -23.4070  -28.8520   23.3980 O   0  0  0  0  0  0  0  0  0  0  0  0
  -20.9200  -29.8640   21.7590 H   0  0  0  0  0  0  0  0  0  0  0  0
  -18.0290  -28.0940   22.9330 C   0  0  0  0  0  0  0  0  0  0  0  0
  -20.5870  -28.3630   23.2110 C   0  0  0  0  0  3  0  0  0  0  0  0
  -20.6950  -26.9330   22.6310 C   0  0  0  0  0  2  0  0  0  0  0  0
  -19.5980  -26.6110   21.6100 C   0  0  0  0  0  2  0  0  0  0  0  0
  -18.2130  -26.7490   22.2510 C   0  0  0  0  0  2  0  0  0  0  0  0
  -19.1450  -28.8580   23.3690 C   0  0  0  0  0  0  0  0  0  0  0  0
  -18.9190  -30.1160   23.9670 C   0  0  0  0  0  3  0  0  0  0  0  0
  -17.6120  -30.6130   24.1300 C   0  0  0  0  0  3  0  0  0  0  0  0
  -16.5110  -29.8460   23.7110 C   0  0  0  0  0  3  0  0  0  0  0  0
  -16.7210  -28.5860   23.1190 C   0  0  0  0  0  3  0  0  0  0  0  0
  -25.8870  -32.5140   23.8990 C   0  0  0  0  0  3  0  0  0  0  0  0
  -25.5800  -33.9160   24.2230 N   0  0  0  0  0  0  0  0  0  0  0  0
  -25.9170  -34.9660   23.4620 C   0  0  0  0  0  0  0  0  0  0  0  0
  -26.5830  -34.8560   22.4310 O   0  0  0  0  0  0  0  0  0  0  0  0
  -24.9860  -34.0750   25.0220 H   0  0  0  0  0  0  0  0  0  0  0  0
  -24.1970  -36.7690   23.1080 C   0  0  0  0  0  1  0  0  0  0  0  0
  -25.4370  -36.3580   23.9170 C   0  0  0  0  0  3  0  0  0  0  0  0
  -27.5760  -37.2380   24.7450 C   0  0  0  0  0  1  0  0  0  0  0  0
  -26.4760  -37.4060   23.8000 N   0  0  0  0  0  0  0  0  0  0  0  0
  -26.0740  -38.3290   23.9420 H   0  0  0  0  0  0  0  0  0  0  0  0
  -26.3860  -31.7490   25.1870 C   0  0  1  0  0  0  0  0  0  0  0  0
  -25.2820  -31.5280   26.2470 C   0  0  0  0  0  1  0  0  0  0  0  0
  -26.9620  -30.3630   24.8140 C   0  0  0  0  0  1  0  0  0  0  0  0
  -27.5360  -32.5410   25.8540 C   0  0  0  0  0  1  0  0  0  0  0  0
  1  3  1  0
  1  6  1  0
  3  8  1  0
  3  5  1  0
  4 48  1  0
  4  2  1  0
  5  2  2  0
  6  4  2  0
  8  7  1  6
  8  9  1  0
  9 16  2  0
 10 15  1  0
 11 12  1  0
 11 10  1  0
 13 12  1  0
 13 20  1  0
 13 14  1  0
 15  9  1  0
 15 14  1  0
 17 18  2  0
 18 19  1  0
 18 37  1  0
 19 22  1  0
 20 17  1  0
 20 21  1  0
 21 19  2  0
 22 23  1  0
 23 24  2  0
 25 28  1  0
 25 24  1  0
 26 25  2  0
 27 26  1  0
 27 22  2  0
 28 29  1  0
 29 30  1  0
 30 31  2  0
 32 31  1  0
 32 36  1  0
 33 32  2  0
 34 29  2  0
 34 33  1  0
 35 34  1  0
 37 38  1  0
 38 41  1  0
 38 40  1  0
 39 37  2  0
 42 43  1  0
 42 17  1  0
 44 42  1  0
 45 46  1  0
 45 47  1  0
 46 47  1  0
 47  8  1  0
 49 48  1  0
 50 51  1  0
 50 49  2  0
 52 63  2  0
 53 51  1  0
 53 58  1  0
 54 62  1  0
 54 64  1  0
 55 61  1  0
 55 57  1  0
 56 62  1  0
 57 56  1  0
 58 57  2  0
 59 53  2  0
 60 59  1  0
 60 55  2  0
 61 54  1  0
 62 52  1  0
 64 66  2  0
 65 64  1  0
 67 65  1  0
 68 77  2  0
 68 73  1  0
 69 65  1  0
 69 73  1  0
 70 69  1  0
 71 72  1  0
 71 70  1  0
 72 68  1  0
 73 74  2  0
 74 75  1  0
 76 75  2  0
 77 76  1  0
 78 52  1  0
 78 79  1  0
 78 88  1  0
 79 82  1  0
 80 84  1  0
 80 79  1  0
 81 80  2  0
 84 83  1  0
 86 84  1  0
 86 87  1  0
 86 85  1  0
 88 91  1  1
 88 89  1  0
 90 88  1  0
M  ISO  4   8 100   9 100  50 101  51 101
M  END
>  <TORSDO>  (40) 
F 21

>  <SCORE>  (40) 
-13.169

>  <name>  (40) 
39

>  <ligand_id>  (40) 
39

>  <original_smiles>  (40) 
[H]c1nc(C(C(=O)N2C([H])([H])C([H])([H])C([H])([H])C([H])(n3nc(-c4c([H])c([H])c(Oc5c([H])c([H])c(F)c([H])c5F)c([H])c4[H])c(C(=O)N([H])[H])c3N([H])[H])C2([H])[H])(C([H])([H])[H])C2([H])C([H])([H])C2([H])[H])c([H])nc1OC([H])([H])C([H])([H])Oc1c([H])c([H])c2c(c1[H])C([H])([H])N(C(=O)C([H])(N([H])C(=O)C([H])(N([H])C([H])([H])[H])C([H])([H])[H])C(C([H])([H])[H])(C([H])([H])[H])C([H])([H])[H])C([H])(C(=O)N([H])C1([H])c3c([H])c([H])c([H])c([H])c3C([H])([H])C([H])([H])C1([H])[H])C2([H])[H]

>  <smiles>  (40) 
[H]c1nc(C(C(=O)N2C([H])([H])C([H])([H])C([H])([H])C([H])(n3nc(-c4c([H])c([H])c(Oc5c([H])c([H])c(F)c([H])c5F)c([H])c4[H])c(C(=O)N([H])[H])c3N([H])[H])C2([H])[H])(C([H])([H])[H])C2([H])C([H])([H])C2([H])[H])c([H])nc1OC([H])([H])C([H])([H])Oc1c([H])c([H])c2c(c1[H])C([H])([H])N(C(=O)C([H])(N([H])C(=O)C([H])(N([H])C([H])([H])[H])C([H])([H])[H])C(C([H])([H])[H])(C([H])([H])[H])C([H])([H])[H])C([H])(C(=O)N([H])C1([H])c3c([H])c([H])c([H])c([H])c3C([H])([H])C([H])([H])C1([H])[H])C2([H])[H]

$$$$
40:0:0
     RDKit          3D

 94102  0  0  1  0  0  0  0  0999 V2000
  -29.7760  -22.4730   21.7510 N   0  0  0  0  0  4  0  0  0  0  0  0
  -28.9460  -21.9910   22.0570 H   0  0  0  0  0  0  0  0  0  0  0  0
  -29.8770  -23.2840   22.3390 H   0  0  0  0  0  0  0  0  0  0  0  0
  -32.2810  -22.1090   21.5050 C   0  0  0  0  0  1  0  0  0  0  0  0
  -30.9350  -21.5960   22.0600 C   0  0  0  0  0  3  0  0  0  0  0  0
  -29.8620  -19.2290   22.5190 C   0  0  0  0  0  3  0  0  0  0  0  0
  -29.9850  -17.9650   22.0060 C   0  0  0  0  0  3  0  0  0  0  0  0
  -31.2600  -19.3470   20.7890 C   0  0  0  0  0  3  0  0  0  0  0  0
  -30.6910  -20.1180   21.7700 C   0  0  0  0  0  0  0  0  0  0  0  0
  -30.8740  -18.0230   20.9480 N   0  0  0  0  0  0  0  0  0  0  0  0
  -31.3330  -16.9380   20.0870 C   0  0  0  0  0  2  0  0  0  0  0  0
  -31.6280  -14.4990   20.1250 C   0  0  0  0  0  0  0  0  0  0  0  0
  -31.1210  -12.4270   18.9120 C   0  0  0  0  0  2  0  0  0  0  0  0
  -30.1650  -12.7760   17.7520 C   0  0  0  0  0  2  0  0  0  0  0  0
  -28.6980  -12.7290   18.2250 C   0  0  0  0  0  2  0  0  0  0  0  0
  -28.4660  -13.5190   19.5430 C   0  0  0  0  0  3  0  0  0  0  0  0
  -29.5390  -13.1680   20.6030 C   0  0  0  0  0  2  0  0  0  0  0  0
  -30.8640  -13.3820   20.0000 N   0  0  0  0  0  0  0  0  0  0  0  0
  -32.7610  -14.5890   19.6470 O   0  0  0  0  0  0  0  0  0  0  0  0
  -30.9850  -15.5920   20.5680 N   0  0  0  0  0  0  0  0  0  0  0  0
  -30.0570  -15.4590   20.9380 H   0  0  0  0  0  0  0  0  0  0  0  0
  -26.1280  -14.2540   20.3250 C   0  0  0  0  0  0  0  0  0  0  0  0
  -25.0260  -13.5390   20.7120 C   0  0  0  0  0  0  0  0  0  0  0  0
  -25.4060  -12.1630   20.6480 C   0  0  0  0  0  0  0  0  0  0  0  0
  -27.1120  -13.3170   20.0530 N   0  0  0  0  0  0  0  0  0  0  0  0
  -26.6820  -12.0540   20.3040 N   0  0  0  0  0  0  0  0  0  0  0  0
  -24.6120  -10.9440   20.8410 C   0  0  0  0  0  0  0  0  0  0  0  0
  -24.9720   -9.9720   21.8000 C   0  0  0  0  0  3  0  0  0  0  0  0
  -24.1840   -8.8150   21.9780 C   0  0  0  0  0  3  0  0  0  0  0  0
  -23.0200   -8.6220   21.1970 C   0  0  0  0  0  0  0  0  0  0  0  0
  -22.6790   -9.5810   20.2270 C   0  0  0  0  0  3  0  0  0  0  0  0
  -23.4680  -10.7300   20.0480 C   0  0  0  0  0  3  0  0  0  0  0  0
  -22.2070   -7.5180   21.2830 O   0  0  0  0  0  0  0  0  0  0  0  0
  -22.0300   -6.8450   22.4650 C   0  0  0  0  0  0  0  0  0  0  0  0
  -21.5470   -7.4900   23.6240 C   0  0  0  0  0  3  0  0  0  0  0  0
  -21.3150   -6.7460   24.7980 C   0  0  0  0  0  3  0  0  0  0  0  0
  -21.5550   -5.3590   24.8130 C   0  0  0  0  0  0  0  0  0  0  0  0
  -22.0300   -4.7140   23.6570 C   0  0  0  0  0  3  0  0  0  0  0  0
  -22.2650   -5.4560   22.4860 C   0  0  0  0  0  0  0  0  0  0  0  0
  -22.7020   -4.8260   21.3690 F   0  0  0  0  0  0  0  0  0  0  0  0
  -21.3250   -4.6420   25.9380 F   0  0  0  0  0  0  0  0  0  0  0  0
  -23.6670  -14.0920   21.0300 C   0  0  0  0  0  0  0  0  0  0  0  0
  -22.9390  -13.4460   21.9340 N   0  0  0  0  0  0  0  0  0  0  0  0
  -23.2640  -15.1340   20.5130 O   0  0  0  0  0  0  0  0  0  0  0  0
  -23.2810  -12.6040   22.3730 H   0  0  0  0  0  0  0  0  0  0  0  0
  -22.0280  -13.7980   22.1910 H   0  0  0  0  0  0  0  0  0  0  0  0
  -26.3680  -15.6150   20.1630 N   0  0  0  0  0  0  0  0  0  0  0  0
  -25.6400  -16.3080   20.3000 H   0  0  0  0  0  0  0  0  0  0  0  0
  -27.2280  -16.0110   19.8040 H   0  0  0  0  0  0  0  0  0  0  0  0
  -29.5670  -22.9520   20.3570 C   0  0  0  0  0  2  0  0  0  0  0  0
  -29.6260  -24.5060   20.2200 C   0  0  0  0  0  2  0  0  0  0  0  0
  -27.8220  -25.2200   21.9110 C   0  0  0  0  0  1  0  0  0  0  0  0
  -28.3000  -25.2820   20.4410 C   0  0  0  0  0  3  0  0  0  0  0  0
  -28.4790  -26.6650   20.0520 O   0  0  0  0  0  0  0  0  0  0  0  0
  -24.7090  -31.7470   23.2870 C   0  0  0  0  0  0  0  0  0  0  0  0
  -27.3370  -27.4410   20.0090 C   0  0  0  0  0  0  0  0  0  0  0  0
  -23.5040  -30.4370   21.5700 C   0  0  0  0  0  3  0  0  0  0  0  0
  -24.9580  -28.9730   20.0720 C   0  0  0  0  0  0  0  0  0  0  0  0
  -26.0340  -30.7910   21.4030 C   0  0  0  0  0  2  0  0  0  0  0  0
  -26.1160  -29.4570   20.6910 C   0  0  0  0  0  0  0  0  0  0  0  0
  -27.3110  -28.7010   20.6520 C   0  0  0  0  0  3  0  0  0  0  0  0
  -26.1630  -26.9830   19.3690 C   0  0  0  0  0  3  0  0  0  0  0  0
  -24.9780  -27.7370   19.4040 C   0  0  0  0  0  3  0  0  0  0  0  0
  -23.7170  -29.8330   20.1570 C   0  0  0  0  0  2  0  0  0  0  0  0
  -24.7660  -31.0030   22.1460 N   0  0  0  0  0  0  0  0  0  0  0  0
  -23.6250  -31.9970   23.8340 O   0  0  0  0  0  0  0  0  0  0  0  0
  -22.8440  -29.3700   22.4720 C   0  0  0  0  0  0  0  0  0  0  0  0
  -21.5240  -29.1810   22.3090 N   0  0  0  0  0  0  0  0  0  0  0  0
  -23.5170  -28.7180   23.2770 O   0  0  0  0  0  0  0  0  0  0  0  0
  -21.0450  -29.7590   21.6330 H   0  0  0  0  0  0  0  0  0  0  0  0
  -18.1560  -27.9180   22.6490 C   0  0  0  0  0  0  0  0  0  0  0  0
  -20.6980  -28.2080   23.0220 C   0  0  0  0  0  3  0  0  0  0  0  0
  -20.8460  -26.7970   22.4070 C   0  0  0  0  0  2  0  0  0  0  0  0
  -19.7870  -26.4870   21.3450 C   0  0  0  0  0  2  0  0  0  0  0  0
  -18.3810  -26.5910   21.9430 C   0  0  0  0  0  2  0  0  0  0  0  0
  -19.2460  -28.6850   23.1430 C   0  0  0  0  0  0  0  0  0  0  0  0
  -18.9860  -29.9260   23.7600 C   0  0  0  0  0  3  0  0  0  0  0  0
  -17.6680  -30.4020   23.8950 C   0  0  0  0  0  3  0  0  0  0  0  0
  -16.5920  -29.6320   23.4230 C   0  0  0  0  0  3  0  0  0  0  0  0
  -16.8380  -28.3930   22.8040 C   0  0  0  0  0  3  0  0  0  0  0  0
  -25.9950  -32.3390   23.9430 C   0  0  0  0  0  3  0  0  0  0  0  0
  -25.6970  -33.7240   24.3280 N   0  0  0  0  0  0  0  0  0  0  0  0
  -26.0690  -34.8040   23.6280 C   0  0  0  0  0  0  0  0  0  0  0  0
  -26.7700  -34.7380   22.6150 O   0  0  0  0  0  0  0  0  0  0  0  0
  -25.0800  -33.8490   25.1170 H   0  0  0  0  0  0  0  0  0  0  0  0
  -24.3930  -36.6490   23.2880 C   0  0  0  0  0  1  0  0  0  0  0  0
  -25.5860  -36.1760   24.1350 C   0  0  0  0  0  3  0  0  0  0  0  0
  -27.6930  -36.9740   25.1120 C   0  0  0  0  0  1  0  0  0  0  0  0
  -26.6410  -37.2130   24.1270 N   0  0  0  0  0  0  0  0  0  0  0  0
  -26.2450  -38.1320   24.3030 H   0  0  0  0  0  0  0  0  0  0  0  0
  -26.4970  -31.5080   25.1870 C   0  0  1  0  0  0  0  0  0  0  0  0
  -25.3930  -31.2290   26.2350 C   0  0  0  0  0  1  0  0  0  0  0  0
  -27.0760  -30.1470   24.7350 C   0  0  0  0  0  1  0  0  0  0  0  0
  -27.6450  -32.2650   25.8930 C   0  0  0  0  0  1  0  0  0  0  0  0
  1  2  1  0
  1  5  1  0
  1  3  1  0
  5  4  1  0
  7  6  2  0
  8 10  1  0
  8  9  2  0
  9  5  1  0
  9  6  1  0
 10  7  1  0
 11 20  1  0
 11 10  1  0
 12 20  1  0
 13 18  1  0
 14 15  1  0
 14 13  1  0
 16 15  1  0
 16 25  1  0
 16 17  1  0
 18 12  1  0
 18 17  1  0
 19 12  2  0
 20 21  1  0
 22 23  2  0
 23 42  1  0
 24 23  1  0
 24 27  1  0
 25 26  1  0
 25 22  1  0
 26 24  2  0
 27 28  1  0
 28 29  2  0
 30 33  1  0
 30 29  1  0
 31 30  2  0
 32 31  1  0
 32 27  2  0
 33 34  1  0
 34 39  2  0
 34 35  1  0
 35 36  2  0
 36 37  1  0
 37 41  1  0
 38 37  2  0
 39 38  1  0
 40 39  1  0
 42 43  1  0
 43 46  1  0
 43 45  1  0
 44 42  2  0
 47 48  1  0
 47 22  1  0
 49 47  1  0
 50  1  1  0
 51 50  1  0
 51 53  1  0
 53 52  1  0
 54 53  1  0
 55 66  2  0
 56 54  1  0
 56 61  1  0
 57 65  1  0
 57 67  1  0
 58 64  1  0
 58 60  1  0
 59 65  1  0
 60 59  1  0
 61 60  2  0
 62 63  1  0
 62 56  2  0
 63 58  2  0
 64 57  1  0
 65 55  1  0
 67 69  2  0
 68 67  1  0
 70 68  1  0
 71 80  2  0
 71 76  1  0
 72 68  1  0
 72 76  1  0
 73 72  1  0
 74 75  1  0
 74 73  1  0
 75 71  1  0
 76 77  2  0
 77 78  1  0
 79 78  2  0
 80 79  1  0
 81 55  1  0
 81 82  1  0
 81 91  1  0
 82 85  1  0
 83 87  1  0
 83 82  1  0
 84 83  2  0
 87 86  1  0
 89 87  1  0
 89 90  1  0
 89 88  1  0
 91 94  1  1
 91 92  1  0
 93 91  1  0
M  ISO  4  12 100  20 100  53 101  54 101
M  END
>  <TORSDO>  (41) 
F 22

>  <SCORE>  (41) 
-10.438

>  <name>  (41) 
40

>  <ligand_id>  (41) 
40

>  <original_smiles>  (41) 
[H]c1c([H])c([H])c2c(c1[H])C([H])([H])C([H])([H])C([H])([H])C2([H])N([H])C(=O)C1([H])N(C(=O)C([H])(N([H])C(=O)C([H])(N([H])C([H])([H])[H])C([H])([H])[H])C(C([H])([H])[H])(C([H])([H])[H])C([H])([H])[H])C([H])([H])c2c([H])c(OC([H])(C([H])([H])[H])C([H])([H])C([H])([H])[N+]([H])([H])C([H])(c3c([H])c([H])n(C([H])([H])N([H])C(=O)N4C([H])([H])C([H])([H])C([H])([H])C([H])(n5nc(-c6c([H])c([H])c(Oc7c([H])c([H])c(F)c([H])c7F)c([H])c6[H])c(C(=O)N([H])[H])c5N([H])[H])C4([H])[H])c3[H])C([H])([H])[H])c([H])c([H])c2C1([H])[H]

>  <smiles>  (41) 
[H]c1c([H])c([H])c2c(c1[H])C([H])([H])C([H])([H])C([H])([H])C2([H])N([H])C(=O)C1([H])N(C(=O)C([H])(N([H])C(=O)C([H])(N([H])C([H])([H])[H])C([H])([H])[H])C(C([H])([H])[H])(C([H])([H])[H])C([H])([H])[H])C([H])([H])c2c([H])c(OC([H])(C([H])([H])[H])C([H])([H])C([H])([H])[N+]([H])([H])C([H])(c3c([H])c([H])n(C([H])([H])N([H])C(=O)N4C([H])([H])C([H])([H])C([H])([H])C([H])(n5nc(-c6c([H])c([H])c(Oc7c([H])c([H])c(F)c([H])c7F)c([H])c6[H])c(C(=O)N([H])[H])c5N([H])[H])C4([H])[H])c3[H])C([H])([H])[H])c([H])c([H])c2C1([H])[H]

$$$$
41:0:0
     RDKit          3D

 94102  0  0  1  0  0  0  0  0999 V2000
  -30.1030  -20.4910   20.1400 C   0  0  0  0  0  3  0  0  0  0  0  0
  -28.1840  -20.8450   19.2170 C   0  0  0  0  0  3  0  0  0  0  0  0
  -29.1740  -21.6060   19.7970 C   0  0  0  0  0  0  0  0  0  0  0  0
  -29.7190  -19.1670   19.7830 C   0  0  0  0  0  0  0  0  0  0  0  0
  -28.4700  -19.4480   19.2070 N   0  0  0  0  0  0  0  0  0  0  0  0
  -27.5700  -18.5950   17.0920 C   0  0  0  0  0  1  0  0  0  0  0  0
  -26.1460  -18.5880   19.2090 C   0  0  0  0  0  1  0  0  0  0  0  0
  -27.5630  -18.4660   18.6230 C   0  0  0  0  0  3  0  0  0  0  0  0
  -30.5140  -17.7040   19.9530 C   0  0  0  0  0  2  0  0  0  0  0  0
  -30.7360  -14.9730   20.0050 C   0  0  0  0  0  0  0  0  0  0  0  0
  -30.5440  -12.5940   19.1320 C   0  0  0  0  0  2  0  0  0  0  0  0
  -29.5690  -12.5220   17.9340 C   0  0  0  0  0  2  0  0  0  0  0  0
  -28.1240  -12.3280   18.4280 C   0  0  0  0  0  2  0  0  0  0  0  0
  -27.7690  -13.2880   19.5940 C   0  0  0  0  0  3  0  0  0  0  0  0
  -28.8650  -13.3350   20.6800 C   0  0  0  0  0  2  0  0  0  0  0  0
  -30.1110  -13.7240   20.0090 N   0  0  0  0  0  0  0  0  0  0  0  0
  -31.9280  -14.9850   19.6770 O   0  0  0  0  0  0  0  0  0  0  0  0
  -30.0190  -16.2030   20.1570 N   0  0  0  0  0  0  0  0  0  0  0  0
  -29.0460  -16.0950   20.3950 H   0  0  0  0  0  0  0  0  0  0  0  0
  -25.4500  -13.9120   20.4670 C   0  0  0  0  0  0  0  0  0  0  0  0
  -24.3800  -13.1630   20.8670 C   0  0  0  0  0  0  0  0  0  0  0  0
  -24.8010  -11.8010   20.7800 C   0  0  0  0  0  0  0  0  0  0  0  0
  -26.4510  -13.0120   20.1500 N   0  0  0  0  0  0  0  0  0  0  0  0
  -26.0730  -11.7320   20.4060 N   0  0  0  0  0  0  0  0  0  0  0  0
  -24.0430  -10.5590   20.9730 C   0  0  0  0  0  0  0  0  0  0  0  0
  -24.4640   -9.5740   21.8950 C   0  0  0  0  0  3  0  0  0  0  0  0
  -23.7080   -8.3970   22.0780 C   0  0  0  0  0  3  0  0  0  0  0  0
  -22.5170   -8.1950   21.3410 C   0  0  0  0  0  0  0  0  0  0  0  0
  -22.1140   -9.1680   20.4090 C   0  0  0  0  0  3  0  0  0  0  0  0
  -22.8700  -10.3380   20.2240 C   0  0  0  0  0  3  0  0  0  0  0  0
  -21.7330   -7.0700   21.4320 O   0  0  0  0  0  0  0  0  0  0  0  0
  -21.6430   -6.3510   22.5970 C   0  0  0  0  0  0  0  0  0  0  0  0
  -21.1990   -6.9380   23.8020 C   0  0  0  0  0  3  0  0  0  0  0  0
  -21.0540   -6.1460   24.9580 C   0  0  0  0  0  3  0  0  0  0  0  0
  -21.3410   -4.7690   24.9110 C   0  0  0  0  0  0  0  0  0  0  0  0
  -21.7780   -4.1830   23.7100 C   0  0  0  0  0  3  0  0  0  0  0  0
  -21.9260   -4.9710   22.5560 C   0  0  0  0  0  0  0  0  0  0  0  0
  -22.3250   -4.3950   21.3960 F   0  0  0  0  0  0  0  0  0  0  0  0
  -21.1940   -4.0060   26.0200 F   0  0  0  0  0  0  0  0  0  0  0  0
  -23.0140  -13.6780   21.2110 C   0  0  0  0  0  0  0  0  0  0  0  0
  -22.3070  -12.9960   22.1040 N   0  0  0  0  0  0  0  0  0  0  0  0
  -22.5830  -14.7220   20.7220 O   0  0  0  0  0  0  0  0  0  0  0  0
  -22.6700  -12.1530   22.5240 H   0  0  0  0  0  0  0  0  0  0  0  0
  -21.3900  -13.3240   22.3720 H   0  0  0  0  0  0  0  0  0  0  0  0
  -25.6450  -15.2810   20.3160 N   0  0  0  0  0  0  0  0  0  0  0  0
  -24.8900  -15.9370   20.4730 H   0  0  0  0  0  0  0  0  0  0  0  0
  -26.4540  -15.6960   19.8800 H   0  0  0  0  0  0  0  0  0  0  0  0
  -29.2920  -23.2700   20.0510 C   0  0  0  0  0  3  0  0  0  0  0  0
  -30.5270  -23.6890   19.3690 N   0  0  0  0  0  4  0  0  0  0  0  0
  -30.4250  -23.6080   18.3740 H   0  0  0  0  0  0  0  0  0  0  0  0
  -31.3000  -23.1160   19.6560 H   0  0  0  0  0  0  0  0  0  0  0  0
  -30.7400  -24.6450   19.5940 H   0  0  0  0  0  0  0  0  0  0  0  0
  -28.1530  -24.5090   19.7830 C   0  0  0  0  0  2  0  0  0  0  0  0
  -28.3510  -26.0580   20.0210 O   0  0  0  0  0  0  0  0  0  0  0  0
  -24.5250  -31.6040   23.0930 C   0  0  0  0  0  0  0  0  0  0  0  0
  -27.2710  -27.0260   19.9710 C   0  0  0  0  0  0  0  0  0  0  0  0
  -23.3920  -30.2370   21.3850 C   0  0  0  0  0  3  0  0  0  0  0  0
  -24.9070  -28.7380   19.9400 C   0  0  0  0  0  0  0  0  0  0  0  0
  -25.9440  -30.5570   21.2840 C   0  0  0  0  0  2  0  0  0  0  0  0
  -26.0640  -29.1870   20.5880 C   0  0  0  0  0  0  0  0  0  0  0  0
  -27.2480  -28.3480   20.5840 C   0  0  0  0  0  3  0  0  0  0  0  0
  -26.0820  -26.6860   19.2890 C   0  0  0  0  0  3  0  0  0  0  0  0
  -24.9300  -27.5050   19.2740 C   0  0  0  0  0  3  0  0  0  0  0  0
  -23.6580  -29.6110   19.9900 C   0  0  0  0  0  2  0  0  0  0  0  0
  -24.6390  -30.8200   21.9760 N   0  0  0  0  0  0  0  0  0  0  0  0
  -23.4220  -31.8480   23.6050 O   0  0  0  0  0  0  0  0  0  0  0  0
  -22.7160  -29.1850   22.2990 C   0  0  0  0  0  0  0  0  0  0  0  0
  -21.3900  -29.0090   22.1580 N   0  0  0  0  0  0  0  0  0  0  0  0
  -23.3890  -28.5290   23.0990 O   0  0  0  0  0  0  0  0  0  0  0  0
  -20.9010  -29.5910   21.4930 H   0  0  0  0  0  0  0  0  0  0  0  0
  -18.0080  -27.8010   22.6350 C   0  0  0  0  0  0  0  0  0  0  0  0
  -20.5720  -28.0320   22.8840 C   0  0  0  0  0  3  0  0  0  0  0  0
  -20.6580  -26.6370   22.2230 C   0  0  0  0  0  2  0  0  0  0  0  0
  -19.5400  -26.3820   21.2060 C   0  0  0  0  0  2  0  0  0  0  0  0
  -18.1680  -26.4940   21.8760 C   0  0  0  0  0  2  0  0  0  0  0  0
  -19.1380  -28.5310   23.0940 C   0  0  0  0  0  0  0  0  0  0  0  0
  -18.9320  -29.7550   23.7650 C   0  0  0  0  0  3  0  0  0  0  0  0
  -17.6330  -30.2490   23.9820 C   0  0  0  0  0  3  0  0  0  0  0  0
  -16.5190  -29.5170   23.5380 C   0  0  0  0  0  3  0  0  0  0  0  0
  -16.7080  -28.2930   22.8700 C   0  0  0  0  0  3  0  0  0  0  0  0
  -25.7730  -32.2490   23.7680 C   0  0  0  0  0  3  0  0  0  0  0  0
  -25.4290  -33.6380   24.1130 N   0  0  0  0  0  0  0  0  0  0  0  0
  -25.7600  -34.7120   23.3860 C   0  0  0  0  0  0  0  0  0  0  0  0
  -26.4530  -34.6420   22.3680 O   0  0  0  0  0  0  0  0  0  0  0  0
  -24.8110  -33.7650   24.9020 H   0  0  0  0  0  0  0  0  0  0  0  0
  -23.9990  -36.4810   23.0470 C   0  0  0  0  0  1  0  0  0  0  0  0
  -25.2410  -36.0850   23.8610 C   0  0  0  0  0  3  0  0  0  0  0  0
  -27.3480  -37.0040   24.7290 C   0  0  0  0  0  1  0  0  0  0  0  0
  -26.2540  -37.1600   23.7730 N   0  0  0  0  0  0  0  0  0  0  0  0
  -25.8270  -38.0690   23.9260 H   0  0  0  0  0  0  0  0  0  0  0  0
  -26.2550  -31.4680   25.0510 C   0  0  1  0  0  0  0  0  0  0  0  0
  -25.1300  -31.2060   26.0790 C   0  0  0  0  0  1  0  0  0  0  0  0
  -26.8670  -30.1000   24.6690 C   0  0  0  0  0  1  0  0  0  0  0  0
  -27.3740  -32.2670   25.7620 C   0  0  0  0  0  1  0  0  0  0  0  0
  2  3  2  0
  3 48  1  0
  3  1  1  0
  4  9  1  0
  4  1  2  0
  5  2  1  0
  5  4  1  0
  6  8  1  0
  8  5  1  0
  8  7  1  0
  9 18  1  0
 10 16  1  0
 10 18  1  0
 11 16  1  0
 12 13  1  0
 12 11  1  0
 14 13  1  0
 14 23  1  0
 14 15  1  0
 16 15  1  0
 17 10  2  0
 18 19  1  0
 20 21  2  0
 21 40  1  0
 22 21  1  0
 22 25  1  0
 23 24  1  0
 23 20  1  0
 24 22  2  0
 25 26  1  0
 26 27  2  0
 28 31  1  0
 28 27  1  0
 29 28  2  0
 30 29  1  0
 30 25  2  0
 31 32  1  0
 32 33  1  0
 33 34  2  0
 35 34  1  0
 35 39  1  0
 36 35  2  0
 37 32  2  0
 37 36  1  0
 38 37  1  0
 40 41  1  0
 41 44  1  0
 41 43  1  0
 42 40  2  0
 45 20  1  0
 45 46  1  0
 47 45  1  0
 48 53  1  0
 49 52  1  0
 49 51  1  0
 49 48  1  0
 50 49  1  0
 53 54  1  0
 55 66  2  0
 56 54  1  0
 56 61  1  0
 57 65  1  0
 57 67  1  0
 58 64  1  0
 58 60  1  0
 59 65  1  0
 60 59  1  0
 61 60  2  0
 62 56  2  0
 63 62  1  0
 63 58  2  0
 64 57  1  0
 65 55  1  0
 67 69  2  0
 68 67  1  0
 70 68  1  0
 71 80  2  0
 71 76  1  0
 72 68  1  0
 72 76  1  0
 73 72  1  0
 74 75  1  0
 74 73  1  0
 75 71  1  0
 76 77  2  0
 77 78  1  0
 79 78  2  0
 80 79  1  0
 81 55  1  0
 81 82  1  0
 81 91  1  0
 82 85  1  0
 83 87  1  0
 83 82  1  0
 84 83  2  0
 87 86  1  0
 89 87  1  0
 89 90  1  0
 89 88  1  0
 91 94  1  1
 91 92  1  0
 93 91  1  0
M  ISO  4  10 100  18 100  53 101  54 101
M  END
>  <TORSDO>  (42) 
F 21

>  <SCORE>  (42) 
-13.240

>  <name>  (42) 
41

>  <ligand_id>  (42) 
41

>  <original_smiles>  (42) 
[H]c1c([H])c([H])c2c(c1[H])C([H])([H])C([H])([H])C([H])([H])C2([H])N([H])C(=O)C1([H])N(C(=O)C([H])(N([H])C(=O)C([H])(N([H])C([H])([H])[H])C([H])([H])[H])C(C([H])([H])[H])(C([H])([H])[H])C([H])([H])[H])C([H])([H])c2c([H])c(OC([H])([H])C([H])(c3c([H])c(C([H])([H])N([H])C(=O)N4C([H])([H])C([H])([H])C([H])([H])C([H])(n5nc(-c6c([H])c([H])c(Oc7c([H])c([H])c(F)c([H])c7F)c([H])c6[H])c(C(=O)N([H])[H])c5N([H])[H])C4([H])[H])n(C([H])(C([H])([H])[H])C([H])([H])[H])c3[H])[N+]([H])([H])[H])c([H])c([H])c2C1([H])[H]

>  <smiles>  (42) 
[H]c1c([H])c([H])c2c(c1[H])C([H])([H])C([H])([H])C([H])([H])C2([H])N([H])C(=O)C1([H])N(C(=O)C([H])(N([H])C(=O)C([H])(N([H])C([H])([H])[H])C([H])([H])[H])C(C([H])([H])[H])(C([H])([H])[H])C([H])([H])[H])C([H])([H])c2c([H])c(OC([H])([H])C([H])(c3c([H])c(C([H])([H])N([H])C(=O)N4C([H])([H])C([H])([H])C([H])([H])C([H])(n5nc(-c6c([H])c([H])c(Oc7c([H])c([H])c(F)c([H])c7F)c([H])c6[H])c(C(=O)N([H])[H])c5N([H])[H])C4([H])[H])n(C([H])(C([H])([H])[H])C([H])([H])[H])c3[H])[N+]([H])([H])[H])c([H])c([H])c2C1([H])[H]

$$$$
42:0:0
     RDKit          3D

 95103  0  0  1  0  0  0  0  0999 V2000
  -27.1920  -22.0740   21.3270 C   0  0  0  0  0  1  0  0  0  0  0  0
  -28.2770  -22.7330   20.4430 C   0  0  0  0  0  3  0  0  0  0  0  0
  -29.6050  -21.8460   20.4810 C   0  0  0  0  0  2  0  0  0  0  0  0
  -29.0960  -18.0560   19.4110 C   0  0  0  0  0  2  0  0  0  0  0  0
  -30.3580  -18.1140   21.5260 C   0  0  0  0  0  2  0  0  0  0  0  0
  -29.2680  -19.6140   19.2670 C   0  0  0  0  0  2  0  0  0  0  0  0
  -30.5420  -19.6590   21.3470 C   0  0  0  0  0  2  0  0  0  0  0  0
  -30.2430  -17.3430   20.1880 C   0  0  0  0  0  3  0  0  0  0  0  0
  -29.4470  -20.3280   20.5710 N   0  0  1  0  0  4  0  0  0  0  0  0
  -28.6020  -20.1830   21.1050 H   0  0  0  0  0  0  0  0  0  0  0  0
  -30.7950  -14.8090   20.0100 C   0  0  0  0  0  0  0  0  0  0  0  0
  -30.5460  -12.5750   18.9630 C   0  0  0  0  0  2  0  0  0  0  0  0
  -29.5400  -12.7030   17.7970 C   0  0  0  0  0  2  0  0  0  0  0  0
  -28.0920  -12.5350   18.3000 C   0  0  0  0  0  2  0  0  0  0  0  0
  -27.7920  -13.3930   19.5580 C   0  0  0  0  0  3  0  0  0  0  0  0
  -28.9070  -13.2440   20.6180 C   0  0  0  0  0  2  0  0  0  0  0  0
  -30.1820  -13.5880   19.9730 N   0  0  0  0  0  0  0  0  0  0  0  0
  -31.9270  -14.9810   19.5500 O   0  0  0  0  0  0  0  0  0  0  0  0
  -30.0090  -15.8680   20.3760 N   0  0  0  0  0  0  0  0  0  0  0  0
  -29.1040  -15.6050   20.7360 H   0  0  0  0  0  0  0  0  0  0  0  0
  -25.4510  -13.9730   20.4460 C   0  0  0  0  0  0  0  0  0  0  0  0
  -24.4040  -13.1900   20.8490 C   0  0  0  0  0  0  0  0  0  0  0  0
  -24.8540  -11.8390   20.7310 C   0  0  0  0  0  0  0  0  0  0  0  0
  -26.4730  -13.0990   20.1110 N   0  0  0  0  0  0  0  0  0  0  0  0
  -26.1220  -11.8070   20.3430 N   0  0  0  0  0  0  0  0  0  0  0  0
  -24.1320  -10.5720   20.9120 C   0  0  0  0  0  0  0  0  0  0  0  0
  -24.5380   -9.6210   21.8740 C   0  0  0  0  0  3  0  0  0  0  0  0
  -23.8170   -8.4190   22.0400 C   0  0  0  0  0  3  0  0  0  0  0  0
  -22.6750   -8.1610   21.2450 C   0  0  0  0  0  0  0  0  0  0  0  0
  -22.2890   -9.1000   20.2750 C   0  0  0  0  0  3  0  0  0  0  0  0
  -23.0100  -10.2940   20.1060 C   0  0  0  0  0  3  0  0  0  0  0  0
  -21.9280   -7.0100   21.3210 O   0  0  0  0  0  0  0  0  0  0  0  0
  -21.7550   -6.3400   22.5050 C   0  0  0  0  0  0  0  0  0  0  0  0
  -21.1280   -6.9430   23.6180 C   0  0  0  0  0  3  0  0  0  0  0  0
  -20.9090   -6.1960   24.7930 C   0  0  0  0  0  3  0  0  0  0  0  0
  -21.3040   -4.8460   24.8530 C   0  0  0  0  0  0  0  0  0  0  0  0
  -21.9240   -4.2420   23.7450 C   0  0  0  0  0  3  0  0  0  0  0  0
  -22.1450   -4.9870   22.5730 C   0  0  0  0  0  0  0  0  0  0  0  0
  -22.7230   -4.3950   21.5000 F   0  0  0  0  0  0  0  0  0  0  0  0
  -21.0870   -4.1250   25.9790 F   0  0  0  0  0  0  0  0  0  0  0  0
  -23.0290  -13.6610   21.2250 C   0  0  0  0  0  0  0  0  0  0  0  0
  -22.3450  -12.9260   22.0960 N   0  0  0  0  0  0  0  0  0  0  0  0
  -22.5720  -14.7140   20.7840 O   0  0  0  0  0  0  0  0  0  0  0  0
  -22.7300  -12.0720   22.4730 H   0  0  0  0  0  0  0  0  0  0  0  0
  -21.4250  -13.2220   22.3890 H   0  0  0  0  0  0  0  0  0  0  0  0
  -25.6130  -15.3490   20.3150 N   0  0  0  0  0  0  0  0  0  0  0  0
  -24.8490  -15.9950   20.4840 H   0  0  0  0  0  0  0  0  0  0  0  0
  -26.4240  -15.7940   19.9050 H   0  0  0  0  0  0  0  0  0  0  0  0
  -28.3360  -24.3070   20.8040 C   0  0  0  0  0  3  0  0  0  0  0  0
  -28.6380  -25.4230   23.0290 C   0  0  0  0  0  1  0  0  0  0  0  0
  -29.2280  -24.5850   21.9620 N   0  0  0  0  0  4  0  0  0  0  0  0
  -29.5150  -23.7260   22.4000 H   0  0  0  0  0  0  0  0  0  0  0  0
  -30.0620  -25.0500   21.6340 H   0  0  0  0  0  0  0  0  0  0  0  0
  -28.5780  -25.3730   19.6620 C   0  0  0  0  0  2  0  0  0  0  0  0
  -28.4920  -26.7870   20.0660 O   0  0  0  0  0  0  0  0  0  0  0  0
  -24.6230  -31.9330   23.2270 C   0  0  0  0  0  0  0  0  0  0  0  0
  -27.3050  -27.5230   20.0480 C   0  0  0  0  0  0  0  0  0  0  0  0
  -23.4310  -30.5540   21.5580 C   0  0  0  0  0  3  0  0  0  0  0  0
  -24.8980  -29.0590   20.0940 C   0  0  0  0  0  0  0  0  0  0  0  0
  -25.9590  -30.9290   21.3650 C   0  0  0  0  0  2  0  0  0  0  0  0
  -26.0580  -29.5690   20.6890 C   0  0  0  0  0  0  0  0  0  0  0  0
  -27.2600  -28.8120   20.6570 C   0  0  0  0  0  3  0  0  0  0  0  0
  -26.1170  -27.0440   19.4510 C   0  0  0  0  0  3  0  0  0  0  0  0
  -24.9290  -27.8010   19.4700 C   0  0  0  0  0  3  0  0  0  0  0  0
  -23.6480  -29.9090   20.1630 C   0  0  0  0  0  2  0  0  0  0  0  0
  -24.6900  -31.1550   22.1070 N   0  0  0  0  0  0  0  0  0  0  0  0
  -23.5380  -32.1790   23.7740 O   0  0  0  0  0  0  0  0  0  0  0  0
  -22.7920  -29.5050   22.4980 C   0  0  0  0  0  0  0  0  0  0  0  0
  -21.4690  -29.3120   22.3750 N   0  0  0  0  0  0  0  0  0  0  0  0
  -23.4860  -28.8690   23.2950 O   0  0  0  0  0  0  0  0  0  0  0  0
  -20.9690  -29.8780   21.7030 H   0  0  0  0  0  0  0  0  0  0  0  0
  -18.1090  -28.0690   22.8690 C   0  0  0  0  0  0  0  0  0  0  0  0
  -20.6670  -28.3460   23.1260 C   0  0  0  0  0  3  0  0  0  0  0  0
  -20.7780  -26.9320   22.5100 C   0  0  0  0  0  2  0  0  0  0  0  0
  -19.6710  -26.6270   21.4970 C   0  0  0  0  0  2  0  0  0  0  0  0
  -18.2930  -26.7410   22.1550 C   0  0  0  0  0  2  0  0  0  0  0  0
  -19.2250  -28.8310   23.3110 C   0  0  0  0  0  0  0  0  0  0  0  0
  -18.9990  -30.0750   23.9370 C   0  0  0  0  0  3  0  0  0  0  0  0
  -17.6910  -30.5590   24.1270 C   0  0  0  0  0  3  0  0  0  0  0  0
  -16.5900  -29.7940   23.7020 C   0  0  0  0  0  3  0  0  0  0  0  0
  -16.8010  -28.5510   23.0790 C   0  0  0  0  0  3  0  0  0  0  0  0
  -25.9000  -32.5690   23.8580 C   0  0  0  0  0  3  0  0  0  0  0  0
  -25.5830  -33.9660   24.1910 N   0  0  0  0  0  0  0  0  0  0  0  0
  -25.9160  -35.0220   23.4360 C   0  0  0  0  0  0  0  0  0  0  0  0
  -26.5930  -34.9240   22.4090 O   0  0  0  0  0  0  0  0  0  0  0  0
  -24.9840  -34.1160   24.9890 H   0  0  0  0  0  0  0  0  0  0  0  0
  -24.1960  -36.8170   23.0600 C   0  0  0  0  0  1  0  0  0  0  0  0
  -25.4210  -36.4080   23.8950 C   0  0  0  0  0  3  0  0  0  0  0  0
  -27.5310  -37.2930   24.7820 C   0  0  0  0  0  1  0  0  0  0  0  0
  -26.4560  -37.4600   23.8090 N   0  0  0  0  0  0  0  0  0  0  0  0
  -26.0450  -38.3800   23.9450 H   0  0  0  0  0  0  0  0  0  0  0  0
  -26.4120  -31.7960   25.1350 C   0  0  1  0  0  0  0  0  0  0  0  0
  -25.3130  -31.5490   26.1950 C   0  0  0  0  0  1  0  0  0  0  0  0
  -27.0070  -30.4230   24.7430 C   0  0  0  0  0  1  0  0  0  0  0  0
  -27.5530  -32.5950   25.8080 C   0  0  0  0  0  1  0  0  0  0  0  0
  2  3  1  0
  2 49  1  0
  2  1  1  0
  3  9  1  0
  4  8  1  0
  6  4  1  0
  6  9  1  0
  7  5  1  0
  8 19  1  0
  8  5  1  0
  9 10  1  1
  9  7  1  0
 11 19  1  0
 12 17  1  0
 13 14  1  0
 13 12  1  0
 15 14  1  0
 15 24  1  0
 15 16  1  0
 17 11  1  0
 17 16  1  0
 18 11  2  0
 19 20  1  0
 21 22  2  0
 22 41  1  0
 23 22  1  0
 23 26  1  0
 24 25  1  0
 24 21  1  0
 25 23  2  0
 26 27  1  0
 27 28  2  0
 29 32  1  0
 29 28  1  0
 30 29  2  0
 31 30  1  0
 31 26  2  0
 32 33  1  0
 33 38  2  0
 33 34  1  0
 34 35  2  0
 35 36  1  0
 36 40  1  0
 37 36  2  0
 38 37  1  0
 39 38  1  0
 41 42  1  0
 42 45  1  0
 42 44  1  0
 43 41  2  0
 46 21  1  0
 46 47  1  0
 48 46  1  0
 49 54  1  0
 49 51  1  0
 51 52  1  0
 51 50  1  0
 53 51  1  0
 54 55  1  0
 56 67  2  0
 57 55  1  0
 57 62  1  0
 58 66  1  0
 58 68  1  0
 59 65  1  0
 59 61  1  0
 60 66  1  0
 61 60  1  0
 62 61  2  0
 63 64  1  0
 63 57  2  0
 64 59  2  0
 65 58  1  0
 66 56  1  0
 68 70  2  0
 69 68  1  0
 71 69  1  0
 72 81  2  0
 72 77  1  0
 73 69  1  0
 73 77  1  0
 74 73  1  0
 75 76  1  0
 75 74  1  0
 76 72  1  0
 77 78  2  0
 78 79  1  0
 80 79  2  0
 81 80  1  0
 82 56  1  0
 82 83  1  0
 82 92  1  0
 83 86  1  0
 84 88  1  0
 84 83  1  0
 85 84  2  0
 88 87  1  0
 90 88  1  0
 90 91  1  0
 90 89  1  0
 92 95  1  1
 92 93  1  0
 94 92  1  0
M  ISO  4  11 100  19 100  54 101  55 101
M  END
>  <TORSDO>  (43) 
F 21

>  <SCORE>  (43) 
-13.046

>  <name>  (43) 
42

>  <ligand_id>  (43) 
42

>  <original_smiles>  (43) 
[H]c1c([H])c([H])c2c(c1[H])C([H])([H])C([H])([H])C([H])([H])C2([H])N([H])C(=O)C1([H])N(C(=O)C([H])(N([H])C(=O)C([H])(N([H])C([H])([H])[H])C([H])([H])[H])C(C([H])([H])[H])(C([H])([H])[H])C([H])([H])[H])C([H])([H])c2c([H])c(OC([H])([H])C([H])(C([H])(C([H])([H])[H])C([H])([H])[N+]3([H])C([H])([H])C([H])([H])C([H])(N([H])C(=O)N4C([H])([H])C([H])([H])C([H])([H])C([H])(n5nc(-c6c([H])c([H])c(Oc7c([H])c([H])c(F)c([H])c7F)c([H])c6[H])c(C(=O)N([H])[H])c5N([H])[H])C4([H])[H])C([H])([H])C3([H])[H])[N+]([H])([H])C([H])([H])[H])c([H])c([H])c2C1([H])[H]

>  <smiles>  (43) 
[H]c1c([H])c([H])c2c(c1[H])C([H])([H])C([H])([H])C([H])([H])C2([H])N([H])C(=O)C1([H])N(C(=O)C([H])(N([H])C(=O)C([H])(N([H])C([H])([H])[H])C([H])([H])[H])C(C([H])([H])[H])(C([H])([H])[H])C([H])([H])[H])C([H])([H])c2c([H])c(OC([H])([H])C([H])(C([H])(C([H])([H])[H])C([H])([H])[N+]3([H])C([H])([H])C([H])([H])C([H])(N([H])C(=O)N4C([H])([H])C([H])([H])C([H])([H])C([H])(n5nc(-c6c([H])c([H])c(Oc7c([H])c([H])c(F)c([H])c7F)c([H])c6[H])c(C(=O)N([H])[H])c5N([H])[H])C4([H])[H])C([H])([H])C3([H])[H])[N+]([H])([H])C([H])([H])[H])c([H])c([H])c2C1([H])[H]

$$$$
43:0:0
     RDKit          3D

 95103  0  0  1  0  0  0  0  0999 V2000
  -29.2480  -20.3410   20.7320 C   0  0  0  0  0  2  0  0  0  0  0  0
  -30.1610  -19.1500   20.8500 N   0  0  0  0  0  4  0  0  0  0  0  0
  -30.9320  -19.3730   21.4600 H   0  0  0  0  0  0  0  0  0  0  0  0
  -29.6180  -18.4470   21.3230 H   0  0  0  0  0  0  0  0  0  0  0  0
  -32.7700  -17.3310   17.7900 C   0  0  0  0  0  2  0  0  0  0  0  0
  -32.4570  -18.8250   17.7260 C   0  0  0  0  0  2  0  0  0  0  0  0
  -31.5220  -16.5610   18.2240 C   0  0  0  0  0  2  0  0  0  0  0  0
  -31.8650  -19.3360   19.0530 C   0  0  0  0  0  2  0  0  0  0  0  0
  -31.0750  -16.9710   19.6620 C   0  0  0  0  0  3  0  0  0  0  0  0
  -30.6520  -18.5110   19.5830 C   0  0  0  0  0  3  0  0  0  0  0  0
  -30.7100  -14.6240   20.4500 C   0  0  0  0  0  0  0  0  0  0  0  0
  -30.3760  -12.4240   19.3670 C   0  0  0  0  0  2  0  0  0  0  0  0
  -29.4350  -12.5050   18.1500 C   0  0  0  0  0  2  0  0  0  0  0  0
  -27.9660  -12.3390   18.5860 C   0  0  0  0  0  2  0  0  0  0  0  0
  -27.5990  -13.2200   19.8020 C   0  0  0  0  0  3  0  0  0  0  0  0
  -28.6720  -13.1260   20.9160 C   0  0  0  0  0  2  0  0  0  0  0  0
  -29.9520  -13.4890   20.2950 N   0  0  0  0  0  0  0  0  0  0  0  0
  -31.9340  -14.5240   20.3700 O   0  0  0  0  0  0  0  0  0  0  0  0
  -28.7490  -16.2600   20.2950 C   0  0  0  0  0  1  0  0  0  0  0  0
  -30.1680  -15.8860   20.2110 N   0  0  0  0  0  0  0  0  0  0  0  0
  -25.2150  -13.8530   20.5130 C   0  0  0  0  0  0  0  0  0  0  0  0
  -24.1440  -13.0890   20.8830 C   0  0  0  0  0  0  0  0  0  0  0  0
  -24.6030  -11.7370   20.8730 C   0  0  0  0  0  0  0  0  0  0  0  0
  -26.2550  -12.9620   20.2960 N   0  0  0  0  0  0  0  0  0  0  0  0
  -25.8950  -11.6870   20.5790 N   0  0  0  0  0  0  0  0  0  0  0  0
  -23.8770  -10.4780   21.0630 C   0  0  0  0  0  0  0  0  0  0  0  0
  -24.3160   -9.5070   21.9910 C   0  0  0  0  0  3  0  0  0  0  0  0
  -23.5920   -8.3090   22.1690 C   0  0  0  0  0  3  0  0  0  0  0  0
  -22.4140   -8.0750   21.4200 C   0  0  0  0  0  0  0  0  0  0  0  0
  -21.9960   -9.0320   20.4780 C   0  0  0  0  0  3  0  0  0  0  0  0
  -22.7220  -10.2210   20.2980 C   0  0  0  0  0  3  0  0  0  0  0  0
  -21.6590   -6.9310   21.5080 O   0  0  0  0  0  0  0  0  0  0  0  0
  -21.6330   -6.1770   22.6520 C   0  0  0  0  0  0  0  0  0  0  0  0
  -21.2470   -6.7230   23.8950 C   0  0  0  0  0  3  0  0  0  0  0  0
  -21.1740   -5.8980   25.0350 C   0  0  0  0  0  3  0  0  0  0  0  0
  -21.4670   -4.5250   24.9310 C   0  0  0  0  0  0  0  0  0  0  0  0
  -21.8420   -3.9770   23.6910 C   0  0  0  0  0  3  0  0  0  0  0  0
  -21.9220   -4.8010   22.5560 C   0  0  0  0  0  0  0  0  0  0  0  0
  -22.2670   -4.2680   21.3590 F   0  0  0  0  0  0  0  0  0  0  0  0
  -21.3850   -3.7280   26.0220 F   0  0  0  0  0  0  0  0  0  0  0  0
  -22.7440  -13.5710   21.1340 C   0  0  0  0  0  0  0  0  0  0  0  0
  -22.0020  -12.8820   21.9940 N   0  0  0  0  0  0  0  0  0  0  0  0
  -22.3120  -14.5910   20.5980 O   0  0  0  0  0  0  0  0  0  0  0  0
  -22.3620  -12.0560   22.4490 H   0  0  0  0  0  0  0  0  0  0  0  0
  -21.0600  -13.1840   22.2010 H   0  0  0  0  0  0  0  0  0  0  0  0
  -25.3870  -15.2210   20.3190 N   0  0  0  0  0  0  0  0  0  0  0  0
  -24.6280  -15.8860   20.4200 H   0  0  0  0  0  0  0  0  0  0  0  0
  -26.2370  -15.6390   19.9740 H   0  0  0  0  0  0  0  0  0  0  0  0
  -30.5910  -21.8480   22.3490 C   0  0  0  0  0  1  0  0  0  0  0  0
  -29.8950  -21.7640   20.9700 C   0  0  0  0  0  3  0  0  0  0  0  0
  -28.8650  -22.8260   20.8410 N   0  0  0  0  0  0  0  0  0  0  0  0
  -28.1810  -22.7540   21.5930 H   0  0  0  0  0  0  0  0  0  0  0  0
  -29.3080  -24.2350   20.6990 C   0  0  0  0  0  2  0  0  0  0  0  0
  -28.1250  -25.1710   20.2650 C   0  0  0  0  0  2  0  0  0  0  0  0
  -28.3420  -26.6130   20.2660 O   0  0  0  0  0  0  0  0  0  0  0  0
  -24.5950  -31.9190   23.2470 C   0  0  0  0  0  0  0  0  0  0  0  0
  -27.2010  -27.4090   20.1950 C   0  0  0  0  0  0  0  0  0  0  0  0
  -23.3810  -30.5160   21.6180 C   0  0  0  0  0  3  0  0  0  0  0  0
  -24.8250  -28.9780   20.1730 C   0  0  0  0  0  0  0  0  0  0  0  0
  -25.9120  -30.8540   21.4150 C   0  0  0  0  0  2  0  0  0  0  0  0
  -25.9910  -29.4800   20.7680 C   0  0  0  0  0  0  0  0  0  0  0  0
  -27.1830  -28.7080   20.7680 C   0  0  0  0  0  3  0  0  0  0  0  0
  -26.0150  -26.9450   19.5800 C   0  0  0  0  0  3  0  0  0  0  0  0
  -24.8370  -27.7090   19.5700 C   0  0  0  0  0  3  0  0  0  0  0  0
  -23.5800  -29.8390   20.2340 C   0  0  0  0  0  2  0  0  0  0  0  0
  -24.6490  -31.1080   22.1520 N   0  0  0  0  0  0  0  0  0  0  0  0
  -23.5160  -32.2030   23.7830 O   0  0  0  0  0  0  0  0  0  0  0  0
  -22.7230  -29.5010   22.5840 C   0  0  0  0  0  0  0  0  0  0  0  0
  -21.3980  -29.3280   22.4640 N   0  0  0  0  0  0  0  0  0  0  0  0
  -23.4050  -28.8740   23.3990 O   0  0  0  0  0  0  0  0  0  0  0  0
  -20.9100  -29.8800   21.7740 H   0  0  0  0  0  0  0  0  0  0  0  0
  -18.0130  -28.1500   22.9710 C   0  0  0  0  0  0  0  0  0  0  0  0
  -20.5730  -28.3970   23.2390 C   0  0  0  0  0  3  0  0  0  0  0  0
  -20.6690  -26.9640   22.6680 C   0  0  0  0  0  2  0  0  0  0  0  0
  -19.5630  -26.6400   21.6590 C   0  0  0  0  0  2  0  0  0  0  0  0
  -18.1810  -26.7930   22.3030 C   0  0  0  0  0  2  0  0  0  0  0  0
  -19.1360  -28.9080   23.3940 C   0  0  0  0  0  0  0  0  0  0  0  0
  -18.9260  -30.1740   23.9800 C   0  0  0  0  0  3  0  0  0  0  0  0
  -17.6260  -30.6890   24.1400 C   0  0  0  0  0  3  0  0  0  0  0  0
  -16.5180  -29.9270   23.7360 C   0  0  0  0  0  3  0  0  0  0  0  0
  -16.7110  -28.6580   23.1630 C   0  0  0  0  0  3  0  0  0  0  0  0
  -25.8790  -32.5490   23.8650 C   0  0  0  0  0  3  0  0  0  0  0  0
  -25.5770  -33.9480   24.1960 N   0  0  0  0  0  0  0  0  0  0  0  0
  -25.9150  -34.9990   23.4370 C   0  0  0  0  0  0  0  0  0  0  0  0
  -26.5780  -34.8920   22.4020 O   0  0  0  0  0  0  0  0  0  0  0  0
  -24.9950  -34.1060   25.0060 H   0  0  0  0  0  0  0  0  0  0  0  0
  -24.1840  -36.7870   23.0850 C   0  0  0  0  0  1  0  0  0  0  0  0
  -25.4310  -36.3910   23.8950 C   0  0  0  0  0  3  0  0  0  0  0  0
  -27.5770  -37.2560   24.7060 C   0  0  0  0  0  1  0  0  0  0  0  0
  -26.4670  -37.4390   23.7740 N   0  0  0  0  0  0  0  0  0  0  0  0
  -26.0710  -38.3610   23.9360 H   0  0  0  0  0  0  0  0  0  0  0  0
  -26.4080  -31.7750   25.1340 C   0  0  1  0  0  0  0  0  0  0  0  0
  -25.3240  -31.5280   26.2090 C   0  0  0  0  0  1  0  0  0  0  0  0
  -26.9840  -30.4020   24.7280 C   0  0  0  0  0  1  0  0  0  0  0  0
  -27.5670  -32.5660   25.7860 C   0  0  0  0  0  1  0  0  0  0  0  0
  1  2  1  0
  1 50  1  0
  2  4  1  0
  2  3  1  0
  5  7  1  0
  6  5  1  0
  6  8  1  0
  7  9  1  0
  8 10  1  0
  9 20  1  0
 10  9  1  0
 10  2  1  0
 12 17  1  0
 13 14  1  0
 13 12  1  0
 15 14  1  0
 15 24  1  0
 15 16  1  0
 17 11  1  0
 17 16  1  0
 18 11  2  0
 20 19  1  0
 20 11  1  0
 21 22  2  0
 22 41  1  0
 23 22  1  0
 23 26  1  0
 24 21  1  0
 24 25  1  0
 25 23  2  0
 26 27  1  0
 27 28  2  0
 29 32  1  0
 29 28  1  0
 30 29  2  0
 31 30  1  0
 31 26  2  0
 32 33  1  0
 33 34  1  0
 34 35  2  0
 36 35  1  0
 36 40  1  0
 37 36  2  0
 38 33  2  0
 38 37  1  0
 39 38  1  0
 41 42  1  0
 42 45  1  0
 42 44  1  0
 43 41  2  0
 46 47  1  0
 46 21  1  0
 48 46  1  0
 50 49  1  0
 51 50  1  0
 51 52  1  0
 53 51  1  0
 54 55  1  0
 54 53  1  0
 56 67  2  0
 57 55  1  0
 57 62  1  0
 58 66  1  0
 58 68  1  0
 59 65  1  0
 59 61  1  0
 60 66  1  0
 61 62  2  0
 61 60  1  0
 63 57  2  0
 64 63  1  0
 64 59  2  0
 65 58  1  0
 66 56  1  0
 68 70  2  0
 69 68  1  0
 71 69  1  0
 72 81  2  0
 72 77  1  0
 73 69  1  0
 73 77  1  0
 74 73  1  0
 75 76  1  0
 75 74  1  0
 76 72  1  0
 77 78  2  0
 78 79  1  0
 80 79  2  0
 81 80  1  0
 82 56  1  0
 82 83  1  0
 82 92  1  0
 83 86  1  0
 84 88  1  0
 84 83  1  0
 85 84  2  0
 88 87  1  0
 90 88  1  0
 90 91  1  0
 90 89  1  0
 92 95  1  1
 92 93  1  0
 94 92  1  0
M  ISO  4  11 100  20 100  54 101  55 101
M  END
>  <TORSDO>  (44) 
F 22

>  <SCORE>  (44) 
-13.388

>  <name>  (44) 
43

>  <ligand_id>  (44) 
43

>  <original_smiles>  (44) 
[H]c1c([H])c([H])c2c(c1[H])C([H])([H])C([H])([H])C([H])([H])C2([H])N([H])C(=O)C1([H])N(C(=O)C([H])(N([H])C(=O)C([H])(N([H])C([H])([H])[H])C([H])([H])[H])C(C([H])([H])[H])(C([H])([H])[H])C([H])([H])[H])C([H])([H])c2c([H])c(OC([H])([H])C([H])([H])N([H])C([H])(C([H])([H])[H])C([H])([H])[N+]([H])([H])C3([H])C([H])([H])C([H])([H])C([H])([H])C([H])([H])C3([H])N(C(=O)N3C([H])([H])C([H])([H])C([H])([H])C([H])(n4nc(-c5c([H])c([H])c(Oc6c([H])c([H])c(F)c([H])c6F)c([H])c5[H])c(C(=O)N([H])[H])c4N([H])[H])C3([H])[H])C([H])([H])[H])c([H])c([H])c2C1([H])[H]

>  <smiles>  (44) 
[H]c1c([H])c([H])c2c(c1[H])C([H])([H])C([H])([H])C([H])([H])C2([H])N([H])C(=O)C1([H])N(C(=O)C([H])(N([H])C(=O)C([H])(N([H])C([H])([H])[H])C([H])([H])[H])C(C([H])([H])[H])(C([H])([H])[H])C([H])([H])[H])C([H])([H])c2c([H])c(OC([H])([H])C([H])([H])N([H])C([H])(C([H])([H])[H])C([H])([H])[N+]([H])([H])C3([H])C([H])([H])C([H])([H])C([H])([H])C([H])([H])C3([H])N(C(=O)N3C([H])([H])C([H])([H])C([H])([H])C([H])(n4nc(-c5c([H])c([H])c(Oc6c([H])c([H])c(F)c([H])c6F)c([H])c5[H])c(C(=O)N([H])[H])c4N([H])[H])C3([H])[H])C([H])([H])[H])c([H])c([H])c2C1([H])[H]

$$$$
44:0:0
     RDKit          3D

 93101  0  0  1  0  0  0  0  0999 V2000
  -32.8460  -20.9390   21.5320 C   0  0  0  0  0  3  0  0  0  0  0  0
  -32.2590  -22.0330   22.1650 C   0  0  0  0  0  3  0  0  0  0  0  0
  -32.0940  -20.1900   20.6160 C   0  0  0  0  0  0  0  0  0  0  0  0
  -30.7260  -20.5290   20.3960 C   0  0  0  0  0  0  0  0  0  0  0  0
  -30.2960  -21.8020   20.9270 C   0  0  0  0  0  0  0  0  0  0  0  0
  -32.8400  -19.1040   19.8570 C   0  0  0  0  0  1  0  0  0  0  0  0
  -31.0300  -22.4640   21.8480 N   0  0  0  0  0  0  0  0  0  0  0  0
  -29.8210  -19.5620   19.5820 C   0  0  0  0  0  2  0  0  0  0  0  0
  -27.9810  -17.7900   19.7190 C   0  0  0  0  0  1  0  0  0  0  0  0
  -29.3620  -18.2030   20.2690 C   0  0  0  0  0  3  0  0  0  0  0  0
  -30.3730  -16.9950   20.1840 C   0  0  0  0  0  2  0  0  0  0  0  0
  -30.5620  -14.4940   20.0420 C   0  0  0  0  0  0  0  0  0  0  0  0
  -30.1870  -12.3310   18.9150 C   0  0  0  0  0  2  0  0  0  0  0  0
  -29.2010  -12.5560   17.7510 C   0  0  0  0  0  2  0  0  0  0  0  0
  -27.7460  -12.4200   18.2400 C   0  0  0  0  0  2  0  0  0  0  0  0
  -27.4700  -13.2370   19.5310 C   0  0  0  0  0  3  0  0  0  0  0  0
  -28.5760  -13.0250   20.5900 C   0  0  0  0  0  2  0  0  0  0  0  0
  -29.8660  -13.3230   19.9550 N   0  0  0  0  0  0  0  0  0  0  0  0
  -31.7110  -14.6010   19.6070 O   0  0  0  0  0  0  0  0  0  0  0  0
  -29.8700  -15.6050   20.4020 N   0  0  0  0  0  0  0  0  0  0  0  0
  -28.9200  -15.4840   20.7170 H   0  0  0  0  0  0  0  0  0  0  0  0
  -25.1110  -13.8410   20.3530 C   0  0  0  0  0  0  0  0  0  0  0  0
  -24.0580  -13.0710   20.7680 C   0  0  0  0  0  0  0  0  0  0  0  0
  -24.5120  -11.7180   20.7050 C   0  0  0  0  0  0  0  0  0  0  0  0
  -26.1420  -12.9590   20.0710 N   0  0  0  0  0  0  0  0  0  0  0  0
  -25.7890  -11.6760   20.3440 N   0  0  0  0  0  0  0  0  0  0  0  0
  -23.7850  -10.4580   20.9120 C   0  0  0  0  0  0  0  0  0  0  0  0
  -24.2400   -9.4900   21.8340 C   0  0  0  0  0  3  0  0  0  0  0  0
  -23.5160   -8.2930   22.0300 C   0  0  0  0  0  3  0  0  0  0  0  0
  -22.3230   -8.0590   21.3070 C   0  0  0  0  0  0  0  0  0  0  0  0
  -21.8870   -9.0170   20.3740 C   0  0  0  0  0  3  0  0  0  0  0  0
  -22.6110  -10.2040   20.1750 C   0  0  0  0  0  3  0  0  0  0  0  0
  -21.5670   -6.9170   21.4150 O   0  0  0  0  0  0  0  0  0  0  0  0
  -21.5380   -6.1780   22.5710 C   0  0  0  0  0  0  0  0  0  0  0  0
  -21.1140   -6.7310   23.7990 C   0  0  0  0  0  3  0  0  0  0  0  0
  -21.0380   -5.9190   24.9480 C   0  0  0  0  0  3  0  0  0  0  0  0
  -21.3700   -4.5530   24.8690 C   0  0  0  0  0  0  0  0  0  0  0  0
  -21.7850   -3.9990   23.6450 C   0  0  0  0  0  3  0  0  0  0  0  0
  -21.8660   -4.8100   22.5000 C   0  0  0  0  0  0  0  0  0  0  0  0
  -22.2450   -4.2650   21.3170 F   0  0  0  0  0  0  0  0  0  0  0  0
  -21.2880   -3.7690   25.9690 F   0  0  0  0  0  0  0  0  0  0  0  0
  -22.6760  -13.5530   21.1030 C   0  0  0  0  0  0  0  0  0  0  0  0
  -21.9770  -12.8500   21.9860 N   0  0  0  0  0  0  0  0  0  0  0  0
  -22.2240  -14.5870   20.6130 O   0  0  0  0  0  0  0  0  0  0  0  0
  -22.3540  -12.0130   22.4060 H   0  0  0  0  0  0  0  0  0  0  0  0
  -21.0490  -13.1540   22.2480 H   0  0  0  0  0  0  0  0  0  0  0  0
  -25.2720  -15.2120   20.1710 N   0  0  0  0  0  0  0  0  0  0  0  0
  -24.5040  -15.8640   20.2940 H   0  0  0  0  0  0  0  0  0  0  0  0
  -26.0880  -15.6400   19.7540 H   0  0  0  0  0  0  0  0  0  0  0  0
  -29.0340  -22.6070   20.5270 C   0  0  0  0  0  2  0  0  0  0  0  0
  -29.2540  -24.1760   20.4860 C   0  0  0  0  0  3  0  0  0  0  0  0
  -28.0380  -25.0620   20.0890 C   0  0  0  0  0  3  0  0  0  0  0  0
  -28.2330  -26.4990   20.2540 O   0  0  0  0  0  0  0  0  0  0  0  0
  -24.4720  -31.7780   23.3180 C   0  0  0  0  0  0  0  0  0  0  0  0
  -27.0930  -27.2990   20.2150 C   0  0  0  0  0  0  0  0  0  0  0  0
  -23.2700  -30.4010   21.6580 C   0  0  0  0  0  3  0  0  0  0  0  0
  -24.7200  -28.8680   20.2240 C   0  0  0  0  0  0  0  0  0  0  0  0
  -25.8060  -30.7290   21.4850 C   0  0  0  0  0  2  0  0  0  0  0  0
  -25.8840  -29.3630   20.8230 C   0  0  0  0  0  0  0  0  0  0  0  0
  -27.0750  -28.5900   20.8090 C   0  0  0  0  0  3  0  0  0  0  0  0
  -25.9040  -26.8440   19.5930 C   0  0  0  0  0  3  0  0  0  0  0  0
  -24.7280  -27.6090   19.6040 C   0  0  0  0  0  3  0  0  0  0  0  0
  -23.4850  -29.7380   20.2720 C   0  0  0  0  0  2  0  0  0  0  0  0
  -24.5340  -30.9840   22.2110 N   0  0  0  0  0  0  0  0  0  0  0  0
  -23.3880  -32.0530   23.8520 O   0  0  0  0  0  0  0  0  0  0  0  0
  -22.6040  -29.3740   22.6030 C   0  0  0  0  0  0  0  0  0  0  0  0
  -21.2790  -29.2020   22.4680 N   0  0  0  0  0  0  0  0  0  0  0  0
  -23.2780  -28.7360   23.4160 O   0  0  0  0  0  0  0  0  0  0  0  0
  -20.7950  -29.7730   21.7880 H   0  0  0  0  0  0  0  0  0  0  0  0
  -17.8920  -28.0230   22.9440 C   0  0  0  0  0  0  0  0  0  0  0  0
  -20.4520  -28.2620   23.2270 C   0  0  0  0  0  3  0  0  0  0  0  0
  -20.5440  -26.8340   22.6390 C   0  0  0  0  0  2  0  0  0  0  0  0
  -19.4440  -26.5270   21.6180 C   0  0  0  0  0  2  0  0  0  0  0  0
  -18.0620  -26.6780   22.2580 C   0  0  0  0  0  2  0  0  0  0  0  0
  -19.0160  -28.7730   23.3860 C   0  0  0  0  0  0  0  0  0  0  0  0
  -18.8030  -30.0320   23.9880 C   0  0  0  0  0  3  0  0  0  0  0  0
  -17.5020  -30.5420   24.1520 C   0  0  0  0  0  3  0  0  0  0  0  0
  -16.3940  -29.7900   23.7240 C   0  0  0  0  0  3  0  0  0  0  0  0
  -16.5910  -28.5310   23.1290 C   0  0  0  0  0  3  0  0  0  0  0  0
  -25.7570  -32.3980   23.9500 C   0  0  0  0  0  3  0  0  0  0  0  0
  -25.4570  -33.7990   24.2740 N   0  0  0  0  0  0  0  0  0  0  0  0
  -25.8170  -34.8480   23.5220 C   0  0  0  0  0  0  0  0  0  0  0  0
  -26.5090  -34.7360   22.5050 O   0  0  0  0  0  0  0  0  0  0  0  0
  -24.8460  -33.9610   25.0610 H   0  0  0  0  0  0  0  0  0  0  0  0
  -24.1330  -36.6710   23.1140 C   0  0  0  0  0  1  0  0  0  0  0  0
  -25.3370  -36.2430   23.9680 C   0  0  0  0  0  3  0  0  0  0  0  0
  -27.4520  -37.0920   24.8830 C   0  0  0  0  0  1  0  0  0  0  0  0
  -26.3910  -37.2780   23.8960 N   0  0  0  0  0  0  0  0  0  0  0  0
  -25.9960  -38.2060   24.0260 H   0  0  0  0  0  0  0  0  0  0  0  0
  -26.2550  -31.6230   25.2310 C   0  0  1  0  0  0  0  0  0  0  0  0
  -25.1510  -31.3940   26.2890 C   0  0  0  0  0  1  0  0  0  0  0  0
  -26.8310  -30.2390   24.8460 C   0  0  0  0  0  1  0  0  0  0  0  0
  -27.4060  -32.4080   25.9030 C   0  0  0  0  0  1  0  0  0  0  0  0
  1  2  1  0
  3  1  2  0
  4  3  1  0
  4  5  2  0
  5  7  1  0
  6  3  1  0
  7  2  2  0
  8 10  1  0
  8  4  1  0
 10  9  1  0
 11 10  1  0
 11 20  1  0
 12 20  1  0
 13 18  1  0
 14 15  1  0
 14 13  1  0
 16 15  1  0
 16 25  1  0
 16 17  1  0
 18 12  1  0
 18 17  1  0
 19 12  2  0
 20 21  1  0
 22 23  2  0
 23 42  1  0
 24 23  1  0
 24 27  1  0
 25 26  1  0
 25 22  1  0
 26 24  2  0
 27 28  1  0
 28 29  2  0
 30 33  1  0
 30 29  1  0
 31 30  2  0
 32 31  1  0
 32 27  2  0
 33 34  1  0
 34 35  1  0
 35 36  2  0
 37 36  1  0
 37 41  1  0
 38 37  2  0
 39 34  2  0
 39 38  1  0
 40 39  1  0
 42 43  1  0
 43 46  1  0
 43 45  1  0
 44 42  2  0
 47 48  1  0
 47 22  1  0
 49 47  1  0
 50  5  1  0
 51 50  1  0
 52 53  1  0
 52 51  2  0
 54 65  2  0
 55 53  1  0
 55 60  1  0
 56 64  1  0
 56 66  1  0
 57 63  1  0
 57 59  1  0
 58 64  1  0
 59 58  1  0
 60 59  2  0
 61 62  1  0
 61 55  2  0
 62 57  2  0
 63 56  1  0
 64 54  1  0
 66 68  2  0
 67 66  1  0
 69 67  1  0
 70 79  2  0
 70 75  1  0
 71 67  1  0
 71 75  1  0
 72 71  1  0
 73 74  1  0
 73 72  1  0
 74 70  1  0
 75 76  2  0
 76 77  1  0
 78 77  2  0
 79 78  1  0
 80 54  1  0
 80 81  1  0
 80 90  1  0
 81 84  1  0
 82 86  1  0
 82 81  1  0
 83 82  2  0
 86 85  1  0
 88 86  1  0
 88 89  1  0
 88 87  1  0
 90 93  1  1
 90 91  1  0
 92 90  1  0
M  ISO  4  12 100  20 100  52 101  53 101
M  END
>  <TORSDO>  (45) 
F 22

>  <SCORE>  (45) 
-12.380

>  <name>  (45) 
44

>  <ligand_id>  (45) 
44

>  <original_smiles>  (45) 
[H]c1nc(C([H])([H])C([H])([H])C([H])([H])Oc2c([H])c([H])c3c(c2[H])C([H])([H])N(C(=O)C([H])(N([H])C(=O)C([H])(N([H])C([H])([H])[H])C([H])([H])[H])C(C([H])([H])[H])(C([H])([H])[H])C([H])([H])[H])C([H])(C(=O)N([H])C2([H])c4c([H])c([H])c([H])c([H])c4C([H])([H])C([H])([H])C2([H])[H])C3([H])[H])c(C([H])([H])C([H])(C([H])([H])[H])C([H])([H])N([H])C(=O)N2C([H])([H])C([H])([H])C([H])([H])C([H])(n3nc(-c4c([H])c([H])c(Oc5c([H])c([H])c(F)c([H])c5F)c([H])c4[H])c(C(=O)N([H])[H])c3N([H])[H])C2([H])[H])c(C([H])([H])[H])c1[H]

>  <smiles>  (45) 
[H]c1nc(C([H])([H])C([H])([H])C([H])([H])Oc2c([H])c([H])c3c(c2[H])C([H])([H])N(C(=O)C([H])(N([H])C(=O)C([H])(N([H])C([H])([H])[H])C([H])([H])[H])C(C([H])([H])[H])(C([H])([H])[H])C([H])([H])[H])C([H])(C(=O)N([H])C2([H])c4c([H])c([H])c([H])c([H])c4C([H])([H])C([H])([H])C2([H])[H])C3([H])[H])c(C([H])([H])C([H])(C([H])([H])[H])C([H])([H])N([H])C(=O)N2C([H])([H])C([H])([H])C([H])([H])C([H])(n3nc(-c4c([H])c([H])c(Oc5c([H])c([H])c(F)c([H])c5F)c([H])c4[H])c(C(=O)N([H])[H])c3N([H])[H])C2([H])[H])c(C([H])([H])[H])c1[H]

$$$$
45:0:0
     RDKit          3D

 96104  0  0  1  0  0  0  0  0999 V2000
  -30.4220  -21.3160   22.3330 C   0  0  0  0  0  2  0  0  0  0  0  0
  -30.5950  -22.3790   21.2980 N   0  0  0  0  0  4  0  0  0  0  0  0
  -30.9940  -21.9980   20.4540 H   0  0  0  0  0  0  0  0  0  0  0  0
  -31.2600  -23.0340   21.6770 H   0  0  0  0  0  0  0  0  0  0  0  0
  -29.3840  -23.1740   20.9550 C   0  0  0  0  0  2  0  0  0  0  0  0
  -30.5530  -24.9020   19.4280 C   0  0  0  0  0  1  0  0  0  0  0  0
  -29.6520  -24.6770   20.6570 C   0  0  0  0  0  3  0  0  0  0  0  0
  -28.3100  -25.3950   20.4200 C   0  0  0  0  0  2  0  0  0  0  0  0
  -28.4710  -26.8010   20.2110 O   0  0  0  0  0  0  0  0  0  0  0  0
  -24.6190  -31.9260   23.2310 C   0  0  0  0  0  0  0  0  0  0  0  0
  -27.2940  -27.5140   20.1680 C   0  0  0  0  0  0  0  0  0  0  0  0
  -23.4280  -30.5140   21.5840 C   0  0  0  0  0  3  0  0  0  0  0  0
  -24.8950  -29.0020   20.1550 C   0  0  0  0  0  0  0  0  0  0  0  0
  -25.9480  -30.9050   21.3840 C   0  0  0  0  0  2  0  0  0  0  0  0
  -26.0450  -29.5350   20.7490 C   0  0  0  0  0  0  0  0  0  0  0  0
  -27.2510  -28.8010   20.7480 C   0  0  0  0  0  3  0  0  0  0  0  0
  -26.1260  -26.9930   19.5620 C   0  0  0  0  0  3  0  0  0  0  0  0
  -24.9330  -27.7340   19.5510 C   0  0  0  0  0  3  0  0  0  0  0  0
  -23.6420  -29.8440   20.2000 C   0  0  0  0  0  2  0  0  0  0  0  0
  -24.6840  -31.1300   22.1250 N   0  0  0  0  0  0  0  0  0  0  0  0
  -23.5360  -32.1840   23.7720 O   0  0  0  0  0  0  0  0  0  0  0  0
  -22.7930  -29.4820   22.5400 C   0  0  0  0  0  0  0  0  0  0  0  0
  -21.4680  -29.2950   22.4250 N   0  0  0  0  0  0  0  0  0  0  0  0
  -23.4890  -28.8520   23.3420 O   0  0  0  0  0  0  0  0  0  0  0  0
  -20.9690  -29.8600   21.7520 H   0  0  0  0  0  0  0  0  0  0  0  0
  -18.0990  -28.1010   22.9480 C   0  0  0  0  0  0  0  0  0  0  0  0
  -20.6600  -28.3500   23.1980 C   0  0  0  0  0  3  0  0  0  0  0  0
  -20.7530  -26.9230   22.6080 C   0  0  0  0  0  2  0  0  0  0  0  0
  -19.6380  -26.6130   21.6020 C   0  0  0  0  0  2  0  0  0  0  0  0
  -18.2640  -26.7570   22.2600 C   0  0  0  0  0  2  0  0  0  0  0  0
  -19.2230  -28.8560   23.3750 C   0  0  0  0  0  0  0  0  0  0  0  0
  -19.0120  -30.1170   23.9740 C   0  0  0  0  0  3  0  0  0  0  0  0
  -17.7090  -30.6190   24.1570 C   0  0  0  0  0  3  0  0  0  0  0  0
  -16.6000  -29.8600   23.7450 C   0  0  0  0  0  3  0  0  0  0  0  0
  -16.7960  -28.6030   23.1470 C   0  0  0  0  0  3  0  0  0  0  0  0
  -25.8990  -32.5680   23.8530 C   0  0  0  0  0  3  0  0  0  0  0  0
  -25.5760  -33.9620   24.1810 N   0  0  0  0  0  0  0  0  0  0  0  0
  -25.9000  -35.0170   23.4190 C   0  0  0  0  0  0  0  0  0  0  0  0
  -26.5770  -34.9150   22.3910 O   0  0  0  0  0  0  0  0  0  0  0  0
  -24.9790  -34.1110   24.9800 H   0  0  0  0  0  0  0  0  0  0  0  0
  -24.1540  -36.7890   23.0490 C   0  0  0  0  0  1  0  0  0  0  0  0
  -25.3950  -36.4000   23.8690 C   0  0  0  0  0  3  0  0  0  0  0  0
  -27.5180  -37.3100   24.7050 C   0  0  0  0  0  1  0  0  0  0  0  0
  -26.4180  -37.4650   23.7580 N   0  0  0  0  0  0  0  0  0  0  0  0
  -26.0020  -38.3810   23.9000 H   0  0  0  0  0  0  0  0  0  0  0  0
  -26.4220  -31.8000   25.1290 C   0  0  1  0  0  0  0  0  0  0  0  0
  -25.3350  -31.5490   26.1990 C   0  0  0  0  0  1  0  0  0  0  0  0
  -27.0150  -30.4300   24.7290 C   0  0  0  0  0  1  0  0  0  0  0  0
  -27.5660  -32.6040   25.7940 C   0  0  0  0  0  1  0  0  0  0  0  0
  -30.6280  -19.8350   21.8870 C   0  0  0  0  0  2  0  0  0  0  0  0
  -28.5550  -19.9320   20.3940 C   0  0  0  0  0  3  0  0  0  0  0  0
  -27.7840  -19.4100   19.3460 C   0  0  0  0  0  3  0  0  0  0  0  0
  -29.7080  -19.2410   20.8150 C   0  0  0  0  0  0  0  0  0  0  0  0
  -29.9840  -17.9790   20.2090 C   0  0  0  0  0  0  0  0  0  0  0  0
  -29.2680  -17.6630   19.0230 C   0  0  0  0  0  0  0  0  0  0  0  0
  -29.7300  -16.6230   18.0190 C   0  0  0  0  0  1  0  0  0  0  0  0
  -28.1650  -18.3370   18.6330 N   0  0  0  0  0  0  0  0  0  0  0  0
  -31.0300  -17.0050   20.7950 C   0  0  0  0  0  2  0  0  0  0  0  0
  -31.2460  -14.5070   20.6600 C   0  0  0  0  0  0  0  0  0  0  0  0
  -30.8970  -12.3190   19.5990 C   0  0  0  0  0  2  0  0  0  0  0  0
  -30.0260  -12.5260   18.3450 C   0  0  0  0  0  2  0  0  0  0  0  0
  -28.5310  -12.4710   18.7110 C   0  0  0  0  0  2  0  0  0  0  0  0
  -28.1620  -13.3390   19.9470 C   0  0  0  0  0  3  0  0  0  0  0  0
  -29.1670  -13.1360   21.1020 C   0  0  0  0  0  2  0  0  0  0  0  0
  -30.5210  -13.3580   20.5690 N   0  0  0  0  0  0  0  0  0  0  0  0
  -32.4100  -14.5980   20.2720 O   0  0  0  0  0  0  0  0  0  0  0  0
  -30.5530  -15.6150   20.9840 N   0  0  0  0  0  0  0  0  0  0  0  0
  -29.5940  -15.4800   21.2630 H   0  0  0  0  0  0  0  0  0  0  0  0
  -25.7480  -14.0530   20.5030 C   0  0  0  0  0  0  0  0  0  0  0  0
  -24.6310  -13.3340   20.8220 C   0  0  0  0  0  0  0  0  0  0  0  0
  -25.0350  -11.9640   20.8340 C   0  0  0  0  0  0  0  0  0  0  0  0
  -26.7720  -13.1300   20.3550 N   0  0  0  0  0  0  0  0  0  0  0  0
  -26.3400  -11.8660   20.5980 N   0  0  0  0  0  0  0  0  0  0  0  0
  -24.2470  -10.7360   20.9990 C   0  0  0  0  0  0  0  0  0  0  0  0
  -24.6010   -9.7480   21.9460 C   0  0  0  0  0  3  0  0  0  0  0  0
  -23.8170   -8.5850   22.0940 C   0  0  0  0  0  3  0  0  0  0  0  0
  -22.6610   -8.4000   21.2990 C   0  0  0  0  0  0  0  0  0  0  0  0
  -22.3240   -9.3760   20.3400 C   0  0  0  0  0  3  0  0  0  0  0  0
  -23.1110  -10.5310   20.1890 C   0  0  0  0  0  3  0  0  0  0  0  0
  -21.8540   -7.2880   21.3610 O   0  0  0  0  0  0  0  0  0  0  0  0
  -21.7420   -6.5430   22.5080 C   0  0  0  0  0  0  0  0  0  0  0  0
  -21.3140   -7.1190   23.7240 C   0  0  0  0  0  3  0  0  0  0  0  0
  -21.1460   -6.3100   24.8670 C   0  0  0  0  0  3  0  0  0  0  0  0
  -21.3920   -4.9260   24.7900 C   0  0  0  0  0  0  0  0  0  0  0  0
  -21.8090   -4.3490   23.5770 C   0  0  0  0  0  3  0  0  0  0  0  0
  -21.9800   -5.1550   22.4370 C   0  0  0  0  0  0  0  0  0  0  0  0
  -22.3650   -4.5920   21.2660 F   0  0  0  0  0  0  0  0  0  0  0  0
  -21.2170   -4.1470   25.8810 F   0  0  0  0  0  0  0  0  0  0  0  0
  -23.2420  -13.8730   21.0130 C   0  0  0  0  0  0  0  0  0  0  0  0
  -22.4450  -13.2330   21.8610 N   0  0  0  0  0  0  0  0  0  0  0  0
  -22.8730  -14.9010   20.4440 O   0  0  0  0  0  0  0  0  0  0  0  0
  -22.7520  -12.4060   22.3480 H   0  0  0  0  0  0  0  0  0  0  0  0
  -21.5110  -13.5790   22.0330 H   0  0  0  0  0  0  0  0  0  0  0  0
  -25.9690  -15.4140   20.3070 N   0  0  0  0  0  0  0  0  0  0  0  0
  -25.2100  -16.0850   20.3480 H   0  0  0  0  0  0  0  0  0  0  0  0
  -26.8360  -15.8310   20.0010 H   0  0  0  0  0  0  0  0  0  0  0  0
  2  4  1  0
  2  1  1  0
  3  2  1  0
  5  2  1  0
  7  6  1  0
  7  5  1  0
  8  7  1  0
  9  8  1  0
 10 21  2  0
 11  9  1  0
 11 16  1  0
 12 20  1  0
 12 22  1  0
 13 19  1  0
 13 15  1  0
 14 20  1  0
 15 14  1  0
 16 15  2  0
 17 11  2  0
 18 17  1  0
 18 13  2  0
 19 12  1  0
 20 10  1  0
 22 24  2  0
 23 22  1  0
 25 23  1  0
 26 35  2  0
 26 31  1  0
 27 23  1  0
 27 31  1  0
 28 27  1  0
 29 30  1  0
 29 28  1  0
 30 26  1  0
 31 32  2  0
 32 33  1  0
 34 33  2  0
 35 34  1  0
 36 10  1  0
 36 37  1  0
 36 46  1  0
 37 40  1  0
 38 42  1  0
 38 37  1  0
 39 38  2  0
 42 41  1  0
 44 42  1  0
 44 45  1  0
 44 43  1  0
 46 49  1  1
 46 47  1  0
 48 46  1  0
 50  1  1  0
 51 53  1  0
 52 51  2  0
 53 50  1  0
 54 58  1  0
 54 53  2  0
 55 54  1  0
 56 55  1  0
 57 55  2  0
 57 52  1  0
 58 67  1  0
 59 67  1  0
 60 65  1  0
 61 62  1  0
 61 60  1  0
 63 62  1  0
 63 72  1  0
 63 64  1  0
 65 59  1  0
 65 64  1  0
 66 59  2  0
 67 68  1  0
 69 70  2  0
 70 71  1  0
 70 89  1  0
 71 74  1  0
 72 69  1  0
 72 73  1  0
 73 71  2  0
 74 75  1  0
 75 76  2  0
 77 80  1  0
 77 76  1  0
 78 77  2  0
 79 78  1  0
 79 74  2  0
 80 81  1  0
 81 82  1  0
 82 83  2  0
 84 83  1  0
 84 88  1  0
 85 84  2  0
 86 81  2  0
 86 85  1  0
 87 86  1  0
 89 90  1  0
 90 93  1  0
 90 92  1  0
 91 89  2  0
 94 95  1  0
 94 69  1  0
 96 94  1  0
M  ISO  4   8 101   9 101  59 100  67 100
M  END
>  <TORSDO>  (46) 
F 23

>  <SCORE>  (46) 
-12.282

>  <name>  (46) 
45

>  <ligand_id>  (46) 
45

>  <original_smiles>  (46) 
[H]c1nc(C([H])([H])[H])c(C([H])([H])N([H])C(=O)N2C([H])([H])C([H])([H])C([H])([H])C([H])(n3nc(-c4c([H])c([H])c(Oc5c([H])c([H])c(F)c([H])c5F)c([H])c4[H])c(C(=O)N([H])[H])c3N([H])[H])C2([H])[H])c(C([H])([H])C([H])([H])[N+]([H])([H])C([H])([H])C([H])(C([H])([H])[H])C([H])([H])Oc2c([H])c([H])c3c(c2[H])C([H])([H])N(C(=O)C([H])(N([H])C(=O)C([H])(N([H])C([H])([H])[H])C([H])([H])[H])C(C([H])([H])[H])(C([H])([H])[H])C([H])([H])[H])C([H])(C(=O)N([H])C2([H])c4c([H])c([H])c([H])c([H])c4C([H])([H])C([H])([H])C2([H])[H])C3([H])[H])c1[H]

>  <smiles>  (46) 
[H]c1nc(C([H])([H])[H])c(C([H])([H])N([H])C(=O)N2C([H])([H])C([H])([H])C([H])([H])C([H])(n3nc(-c4c([H])c([H])c(Oc5c([H])c([H])c(F)c([H])c5F)c([H])c4[H])c(C(=O)N([H])[H])c3N([H])[H])C2([H])[H])c(C([H])([H])C([H])([H])[N+]([H])([H])C([H])([H])C([H])(C([H])([H])[H])C([H])([H])Oc2c([H])c([H])c3c(c2[H])C([H])([H])N(C(=O)C([H])(N([H])C(=O)C([H])(N([H])C([H])([H])[H])C([H])([H])[H])C(C([H])([H])[H])(C([H])([H])[H])C([H])([H])[H])C([H])(C(=O)N([H])C2([H])c4c([H])c([H])c([H])c([H])c4C([H])([H])C([H])([H])C2([H])[H])C3([H])[H])c1[H]

$$$$
46:0:0
     RDKit          3D

 95103  0  0  1  0  0  0  0  0999 V2000
  -30.6110  -20.6200   18.3420 C   0  0  0  0  0  0  0  0  0  0  0  0
  -30.7550  -19.7830   17.0820 C   0  0  0  0  0  2  0  0  0  0  0  0
  -31.3040  -18.4030   17.4690 C   0  0  0  0  0  2  0  0  0  0  0  0
  -29.6390  -20.0420   19.4000 C   0  0  0  0  0  3  0  0  0  0  0  0
  -30.2580  -18.5220   19.7730 C   0  0  0  0  0  3  0  0  0  0  0  0
  -30.4950  -17.7450   18.5200 N   0  0  0  0  0  4  0  0  0  0  0  0
  -31.3320  -21.6110   18.5080 O   0  0  0  0  0  0  0  0  0  0  0  0
  -30.9810  -16.9000   18.7850 H   0  0  0  0  0  0  0  0  0  0  0  0
  -29.6100  -17.4560   18.1310 H   0  0  0  0  0  0  0  0  0  0  0  0
  -29.1130  -21.2540   20.3600 C   0  0  0  0  0  2  0  0  0  0  0  0
  -28.9900  -22.5490   20.0370 N   0  0  0  0  0  2  0  0  0  0  0  0
  -26.6830  -23.4440   20.1190 C   0  0  0  0  0  1  0  0  0  0  0  0
  -28.0780  -23.5540   20.7450 C   0  0  0  0  0  3  0  0  0  0  0  0
  -29.9200  -25.2070   21.5440 C   0  0  0  0  0  1  0  0  0  0  0  0
  -28.4860  -25.1370   21.0080 C   0  0  0  0  0  3  0  0  0  0  0  0
  -28.3360  -26.3520   20.1250 O   0  0  0  0  0  0  0  0  0  0  0  0
  -24.6020  -31.8690   23.2010 C   0  0  0  0  0  0  0  0  0  0  0  0
  -27.2280  -27.2340   20.2020 C   0  0  0  0  0  0  0  0  0  0  0  0
  -23.4130  -30.4630   21.5590 C   0  0  0  0  0  3  0  0  0  0  0  0
  -24.8750  -28.8920   20.1580 C   0  0  0  0  0  0  0  0  0  0  0  0
  -25.9610  -30.7590   21.4010 C   0  0  0  0  0  2  0  0  0  0  0  0
  -26.0430  -29.3680   20.7700 C   0  0  0  0  0  0  0  0  0  0  0  0
  -27.2240  -28.5510   20.7790 C   0  0  0  0  0  3  0  0  0  0  0  0
  -26.0400  -26.8310   19.5600 C   0  0  0  0  0  3  0  0  0  0  0  0
  -24.8800  -27.6310   19.5430 C   0  0  0  0  0  3  0  0  0  0  0  0
  -23.6440  -29.7800   20.1860 C   0  0  0  0  0  2  0  0  0  0  0  0
  -24.6780  -31.0510   22.1100 N   0  0  0  0  0  0  0  0  0  0  0  0
  -23.5140  -32.1510   23.7240 O   0  0  0  0  0  0  0  0  0  0  0  0
  -22.7380  -29.4540   22.5200 C   0  0  0  0  0  0  0  0  0  0  0  0
  -21.4100  -29.2920   22.3960 N   0  0  0  0  0  0  0  0  0  0  0  0
  -23.4110  -28.8200   23.3380 O   0  0  0  0  0  0  0  0  0  0  0  0
  -20.9250  -29.8520   21.7090 H   0  0  0  0  0  0  0  0  0  0  0  0
  -18.0190  -28.1410   22.9260 C   0  0  0  0  0  0  0  0  0  0  0  0
  -20.5840  -28.3600   23.1670 C   0  0  0  0  0  3  0  0  0  0  0  0
  -20.6570  -26.9330   22.5770 C   0  0  0  0  0  2  0  0  0  0  0  0
  -19.5380  -26.6370   21.5720 C   0  0  0  0  0  2  0  0  0  0  0  0
  -18.1660  -26.7970   22.2340 C   0  0  0  0  0  2  0  0  0  0  0  0
  -19.1540  -28.8820   23.3500 C   0  0  0  0  0  0  0  0  0  0  0  0
  -18.9620  -30.1400   23.9590 C   0  0  0  0  0  3  0  0  0  0  0  0
  -17.6670  -30.6590   24.1480 C   0  0  0  0  0  3  0  0  0  0  0  0
  -16.5460  -29.9150   23.7410 C   0  0  0  0  0  3  0  0  0  0  0  0
  -16.7230  -28.6580   23.1360 C   0  0  0  0  0  3  0  0  0  0  0  0
  -25.8790  -32.5070   23.8310 C   0  0  0  0  0  3  0  0  0  0  0  0
  -26.3940  -31.7320   25.1070 C   0  0  1  0  0  0  0  0  0  0  0  0
  -25.2980  -31.4820   26.1690 C   0  0  0  0  0  1  0  0  0  0  0  0
  -26.9870  -30.3590   24.7130 C   0  0  0  0  0  1  0  0  0  0  0  0
  -27.5380  -32.5290   25.7760 C   0  0  0  0  0  1  0  0  0  0  0  0
  -25.5590  -33.9020   24.1700 N   0  0  0  0  0  0  0  0  0  0  0  0
  -25.8800  -34.9620   23.4160 C   0  0  0  0  0  0  0  0  0  0  0  0
  -26.5440  -34.8690   22.3800 O   0  0  0  0  0  0  0  0  0  0  0  0
  -24.9700  -34.0500   24.9760 H   0  0  0  0  0  0  0  0  0  0  0  0
  -24.1370  -36.7460   23.0840 C   0  0  0  0  0  1  0  0  0  0  0  0
  -25.3870  -36.3450   23.8840 C   0  0  0  0  0  3  0  0  0  0  0  0
  -27.5190  -37.2410   24.7110 C   0  0  0  0  0  1  0  0  0  0  0  0
  -26.4120  -37.4060   23.7720 N   0  0  0  0  0  0  0  0  0  0  0  0
  -26.0010  -38.3230   23.9250 H   0  0  0  0  0  0  0  0  0  0  0  0
  -29.6920  -17.4160   20.8140 C   0  0  0  0  0  2  0  0  0  0  0  0
  -30.5000  -14.8020   20.3740 C   0  0  0  0  0  0  0  0  0  0  0  0
  -30.3570  -12.5130   19.3480 C   0  0  0  0  0  2  0  0  0  0  0  0
  -29.4010  -12.5690   18.1320 C   0  0  0  0  0  2  0  0  0  0  0  0
  -27.9320  -12.3900   18.5690 C   0  0  0  0  0  2  0  0  0  0  0  0
  -27.5630  -13.2690   19.7930 C   0  0  0  0  0  3  0  0  0  0  0  0
  -28.6300  -13.1720   20.9030 C   0  0  0  0  0  2  0  0  0  0  0  0
  -29.9180  -13.5540   20.3040 N   0  0  0  0  0  0  0  0  0  0  0  0
  -31.6860  -14.9590   20.0750 O   0  0  0  0  0  0  0  0  0  0  0  0
  -29.6390  -15.8860   20.5400 N   0  0  0  0  0  0  0  0  0  0  0  0
  -28.6980  -15.5390   20.6530 H   0  0  0  0  0  0  0  0  0  0  0  0
  -25.1810  -13.8670   20.5350 C   0  0  0  0  0  0  0  0  0  0  0  0
  -24.1160  -13.0950   20.9100 C   0  0  0  0  0  0  0  0  0  0  0  0
  -24.5750  -11.7430   20.8730 C   0  0  0  0  0  0  0  0  0  0  0  0
  -26.2210  -12.9830   20.2910 N   0  0  0  0  0  0  0  0  0  0  0  0
  -25.8640  -11.7010   20.5570 N   0  0  0  0  0  0  0  0  0  0  0  0
  -23.8450  -10.4830   21.0630 C   0  0  0  0  0  0  0  0  0  0  0  0
  -24.2710   -9.5150   21.9980 C   0  0  0  0  0  3  0  0  0  0  0  0
  -23.5400   -8.3200   22.1750 C   0  0  0  0  0  3  0  0  0  0  0  0
  -22.3700   -8.0860   21.4160 C   0  0  0  0  0  0  0  0  0  0  0  0
  -21.9640   -9.0420   20.4680 C   0  0  0  0  0  3  0  0  0  0  0  0
  -22.6940  -10.2280   20.2910 C   0  0  0  0  0  3  0  0  0  0  0  0
  -21.6110   -6.9430   21.5020 O   0  0  0  0  0  0  0  0  0  0  0  0
  -21.5500   -6.2040   22.6570 C   0  0  0  0  0  0  0  0  0  0  0  0
  -21.1030   -6.7610   23.8740 C   0  0  0  0  0  3  0  0  0  0  0  0
  -20.9910   -5.9480   25.0210 C   0  0  0  0  0  3  0  0  0  0  0  0
  -21.3160   -4.5810   24.9490 C   0  0  0  0  0  0  0  0  0  0  0  0
  -21.7570   -4.0240   23.7360 C   0  0  0  0  0  3  0  0  0  0  0  0
  -21.8710   -4.8330   22.5920 C   0  0  0  0  0  0  0  0  0  0  0  0
  -22.2750   -4.2870   21.4190 F   0  0  0  0  0  0  0  0  0  0  0  0
  -21.2010   -3.7980   26.0470 F   0  0  0  0  0  0  0  0  0  0  0  0
  -22.7200  -13.5760   21.1880 C   0  0  0  0  0  0  0  0  0  0  0  0
  -21.9900  -12.8740   22.0470 N   0  0  0  0  0  0  0  0  0  0  0  0
  -22.2890  -14.6100   20.6780 O   0  0  0  0  0  0  0  0  0  0  0  0
  -22.3530  -12.0370   22.4790 H   0  0  0  0  0  0  0  0  0  0  0  0
  -21.0540  -13.1770   22.2750 H   0  0  0  0  0  0  0  0  0  0  0  0
  -25.3430  -15.2380   20.3570 N   0  0  0  0  0  0  0  0  0  0  0  0
  -24.5600  -15.8760   20.4560 H   0  0  0  0  0  0  0  0  0  0  0  0
  -26.1650  -15.6800   19.9690 H   0  0  0  0  0  0  0  0  0  0  0  0
  1  7  2  0
  1  4  1  0
  2  3  1  0
  2  1  1  0
  3  6  1  0
  4  5  1  0
  4 10  1  0
  5 57  1  0
  6  8  1  0
  6  5  1  0
  9  6  1  0
 11 10  1  0
 11 13  1  0
 13 12  1  0
 13 15  1  0
 15 14  1  0
 16 18  1  0
 16 15  1  0
 17 28  2  0
 18 23  1  0
 19 27  1  0
 19 29  1  0
 20 26  1  0
 20 22  1  0
 21 27  1  0
 22 23  2  0
 22 21  1  0
 24 18  2  0
 25 24  1  0
 25 20  2  0
 26 19  1  0
 27 17  1  0
 29 31  2  0
 30 29  1  0
 32 30  1  0
 33 42  2  0
 33 38  1  0
 34 30  1  0
 34 38  1  0
 35 34  1  0
 36 37  1  0
 36 35  1  0
 37 33  1  0
 38 39  2  0
 39 40  1  0
 41 40  2  0
 42 41  1  0
 43 17  1  0
 43 48  1  0
 43 44  1  0
 44 47  1  1
 44 45  1  0
 46 44  1  0
 48 51  1  0
 49 53  1  0
 49 48  1  0
 50 49  2  0
 53 52  1  0
 55 53  1  0
 55 56  1  0
 55 54  1  0
 58 66  1  0
 59 64  1  0
 60 61  1  0
 60 59  1  0
 62 61  1  0
 62 71  1  0
 62 63  1  0
 64 58  1  0
 64 63  1  0
 65 58  2  0
 66 67  1  0
 66 57  1  0
 68 69  2  0
 69 88  1  0
 70 69  1  0
 70 73  1  0
 71 68  1  0
 71 72  1  0
 72 70  2  0
 73 74  1  0
 74 75  2  0
 76 79  1  0
 76 75  1  0
 77 76  2  0
 78 77  1  0
 78 73  2  0
 79 80  1  0
 80 81  1  0
 81 82  2  0
 83 82  1  0
 83 87  1  0
 84 83  2  0
 85 80  2  0
 85 84  1  0
 86 85  1  0
 88 89  1  0
 89 92  1  0
 89 91  1  0
 90 88  2  0
 93 94  1  0
 93 68  1  0
 95 93  1  0
M  ISO  4  15 101  16 101  58 100  66 100
M  END
>  <TORSDO>  (47) 
F 20

>  <SCORE>  (47) 
-14.019

>  <name>  (47) 
46

>  <ligand_id>  (47) 
46

>  <original_smiles>  (47) 
[H]C(=NC([H])(C([H])([H])[H])C([H])(Oc1c([H])c([H])c2c(c1[H])C([H])([H])N(C(=O)C([H])(N([H])C(=O)C([H])(N([H])C([H])([H])[H])C([H])([H])[H])C(C([H])([H])[H])(C([H])([H])[H])C([H])([H])[H])C([H])(C(=O)N([H])C1([H])c3c([H])c([H])c([H])c([H])c3C([H])([H])C([H])([H])C1([H])[H])C2([H])[H])C([H])([H])[H])C1([H])C(=O)C([H])([H])C([H])([H])[N+]([H])([H])C1([H])C([H])([H])N([H])C(=O)N1C([H])([H])C([H])([H])C([H])([H])C([H])(n2nc(-c3c([H])c([H])c(Oc4c([H])c([H])c(F)c([H])c4F)c([H])c3[H])c(C(=O)N([H])[H])c2N([H])[H])C1([H])[H]

>  <smiles>  (47) 
[H]C(=NC([H])(C([H])([H])[H])C([H])(Oc1c([H])c([H])c2c(c1[H])C([H])([H])N(C(=O)C([H])(N([H])C(=O)C([H])(N([H])C([H])([H])[H])C([H])([H])[H])C(C([H])([H])[H])(C([H])([H])[H])C([H])([H])[H])C([H])(C(=O)N([H])C1([H])c3c([H])c([H])c([H])c([H])c3C([H])([H])C([H])([H])C1([H])[H])C2([H])[H])C([H])([H])[H])C1([H])C(=O)C([H])([H])C([H])([H])[N+]([H])([H])C1([H])C([H])([H])N([H])C(=O)N1C([H])([H])C([H])([H])C([H])([H])C([H])(n2nc(-c3c([H])c([H])c(Oc4c([H])c([H])c(F)c([H])c4F)c([H])c3[H])c(C(=O)N([H])[H])c2N([H])[H])C1([H])[H]

$$$$
47:0:0
     RDKit          3D

 95102  0  0  1  0  0  0  0  0999 V2000
  -29.6170  -20.4920   20.1000 N   0  0  1  0  0  4  0  0  0  0  0  0
  -29.4400  -20.3770   19.1110 H   0  0  0  0  0  0  0  0  0  0  0  0
  -28.0200  -21.6050   21.7780 C   0  0  0  0  0  1  0  0  0  0  0  0
  -28.6510  -21.7460   20.3800 C   0  0  0  0  0  3  0  0  0  0  0  0
  -29.0620  -23.3840   20.1630 C   0  0  0  0  0  3  0  0  0  0  0  0
  -27.9830  -24.6670   19.9880 C   0  0  0  0  0  3  0  0  0  0  0  0
  -28.2550  -26.1940   20.1230 O   0  0  0  0  0  0  0  0  0  0  0  0
  -24.6380  -31.8580   23.1630 C   0  0  0  0  0  0  0  0  0  0  0  0
  -27.1860  -27.1630   20.0840 C   0  0  0  0  0  0  0  0  0  0  0  0
  -23.4240  -30.4680   21.5340 C   0  0  0  0  0  3  0  0  0  0  0  0
  -24.8570  -28.9070   20.0880 C   0  0  0  0  0  0  0  0  0  0  0  0
  -25.9800  -30.7400   21.3420 C   0  0  0  0  0  2  0  0  0  0  0  0
  -26.0470  -29.3540   20.6770 C   0  0  0  0  0  0  0  0  0  0  0  0
  -27.2130  -28.5010   20.6510 C   0  0  0  0  0  3  0  0  0  0  0  0
  -25.9590  -26.8080   19.4780 C   0  0  0  0  0  3  0  0  0  0  0  0
  -24.8260  -27.6460   19.4750 C   0  0  0  0  0  3  0  0  0  0  0  0
  -23.6300  -29.8010   20.1510 C   0  0  0  0  0  2  0  0  0  0  0  0
  -24.7030  -31.0450   22.0680 N   0  0  0  0  0  0  0  0  0  0  0  0
  -23.5560  -32.1360   23.7040 O   0  0  0  0  0  0  0  0  0  0  0  0
  -22.7600  -29.4510   22.4970 C   0  0  0  0  0  0  0  0  0  0  0  0
  -21.4310  -29.2790   22.3860 N   0  0  0  0  0  0  0  0  0  0  0  0
  -23.4430  -28.8190   23.3080 O   0  0  0  0  0  0  0  0  0  0  0  0
  -20.9370  -29.8350   21.7030 H   0  0  0  0  0  0  0  0  0  0  0  0
  -18.0540  -28.0750   22.9170 C   0  0  0  0  0  0  0  0  0  0  0  0
  -20.6170  -28.3380   23.1630 C   0  0  0  0  0  3  0  0  0  0  0  0
  -20.7140  -26.9070   22.5840 C   0  0  0  0  0  2  0  0  0  0  0  0
  -19.6000  -26.5880   21.5790 C   0  0  0  0  0  2  0  0  0  0  0  0
  -18.2240  -26.7290   22.2340 C   0  0  0  0  0  2  0  0  0  0  0  0
  -19.1770  -28.8370   23.3380 C   0  0  0  0  0  0  0  0  0  0  0  0
  -18.9600  -30.0990   23.9360 C   0  0  0  0  0  3  0  0  0  0  0  0
  -17.6560  -30.5960   24.1190 C   0  0  0  0  0  3  0  0  0  0  0  0
  -16.5480  -29.8300   23.7160 C   0  0  0  0  0  3  0  0  0  0  0  0
  -16.7480  -28.5720   23.1190 C   0  0  0  0  0  3  0  0  0  0  0  0
  -25.9210  -32.4940   23.7800 C   0  0  0  0  0  3  0  0  0  0  0  0
  -26.4500  -31.7160   25.0470 C   0  0  1  0  0  0  0  0  0  0  0  0
  -25.3660  -31.4750   26.1240 C   0  0  0  0  0  1  0  0  0  0  0  0
  -27.0370  -30.3420   24.6480 C   0  0  0  0  0  1  0  0  0  0  0  0
  -27.6000  -32.5140   25.7060 C   0  0  0  0  0  1  0  0  0  0  0  0
  -25.6030  -33.8870   24.1330 N   0  0  0  0  0  0  0  0  0  0  0  0
  -25.9110  -34.9550   23.3860 C   0  0  0  0  0  0  0  0  0  0  0  0
  -26.5590  -34.8720   22.3400 O   0  0  0  0  0  0  0  0  0  0  0  0
  -25.0220  -34.0250   24.9480 H   0  0  0  0  0  0  0  0  0  0  0  0
  -24.1590  -36.7400   23.1080 C   0  0  0  0  0  1  0  0  0  0  0  0
  -25.4250  -36.3330   23.8790 C   0  0  0  0  0  3  0  0  0  0  0  0
  -27.5690  -37.2280   24.6680 C   0  0  0  0  0  1  0  0  0  0  0  0
  -26.4440  -37.3980   23.7540 N   0  0  0  0  0  0  0  0  0  0  0  0
  -26.0320  -38.3110   23.9250 H   0  0  0  0  0  0  0  0  0  0  0  0
  -31.0790  -20.8000   20.0430 C   0  0  0  0  0  2  0  0  0  0  0  0
  -31.6630  -21.3190   21.3680 C   0  0  0  0  0  0  0  0  0  0  0  0
  -32.0500  -22.4900   21.4570 O   0  0  0  0  0  0  0  0  0  0  0  0
  -31.7450  -20.3730   22.5710 C   0  0  0  0  0  2  0  0  0  0  0  0
  -32.4190  -21.0730   23.6820 N   0  0  0  0  0  4  0  0  0  0  0  0
  -33.4140  -21.1050   23.5390 H   0  0  0  0  0  0  0  0  0  0  0  0
  -32.2290  -20.6260   24.5600 H   0  0  0  0  0  0  0  0  0  0  0  0
  -32.0880  -22.0220   23.7030 H   0  0  0  0  0  0  0  0  0  0  0  0
  -29.3000  -19.0040   20.5980 C   0  0  0  0  0  3  0  0  0  0  0  0
  -30.1690  -17.6330   20.1220 C   0  0  0  0  0  3  0  0  0  0  0  0
  -30.5900  -14.9490   20.3300 C   0  0  0  0  0  0  0  0  0  0  0  0
  -30.4440  -12.6080   19.3980 C   0  0  0  0  0  2  0  0  0  0  0  0
  -29.5180  -12.5910   18.1600 C   0  0  0  0  0  2  0  0  0  0  0  0
  -28.0510  -12.3880   18.5830 C   0  0  0  0  0  2  0  0  0  0  0  0
  -27.6460  -13.2950   19.7750 C   0  0  0  0  0  3  0  0  0  0  0  0
  -28.7020  -13.2940   20.9040 C   0  0  0  0  0  2  0  0  0  0  0  0
  -29.9780  -13.6980   20.3010 N   0  0  0  0  0  0  0  0  0  0  0  0
  -31.7750  -15.0160   19.9900 O   0  0  0  0  0  0  0  0  0  0  0  0
  -29.8410  -16.1380   20.5140 N   0  0  0  0  0  0  0  0  0  0  0  0
  -28.8930  -15.9750   20.8240 H   0  0  0  0  0  0  0  0  0  0  0  0
  -25.2590  -13.8620   20.4970 C   0  0  0  0  0  0  0  0  0  0  0  0
  -24.1970  -13.0800   20.8690 C   0  0  0  0  0  0  0  0  0  0  0  0
  -24.6690  -11.7330   20.8470 C   0  0  0  0  0  0  0  0  0  0  0  0
  -26.3070  -12.9870   20.2680 N   0  0  0  0  0  0  0  0  0  0  0  0
  -25.9620  -11.7030   20.5430 N   0  0  0  0  0  0  0  0  0  0  0  0
  -23.9490  -10.4670   21.0420 C   0  0  0  0  0  0  0  0  0  0  0  0
  -24.3840   -9.5080   21.9840 C   0  0  0  0  0  3  0  0  0  0  0  0
  -23.6640   -8.3080   22.1680 C   0  0  0  0  0  3  0  0  0  0  0  0
  -22.4970   -8.0570   21.4080 C   0  0  0  0  0  0  0  0  0  0  0  0
  -22.0800   -9.0050   20.4560 C   0  0  0  0  0  3  0  0  0  0  0  0
  -22.8000  -10.1960   20.2710 C   0  0  0  0  0  3  0  0  0  0  0  0
  -21.7480   -6.9090   21.5010 O   0  0  0  0  0  0  0  0  0  0  0  0
  -21.7000   -6.1710   22.6580 C   0  0  0  0  0  0  0  0  0  0  0  0
  -21.2670   -6.7290   23.8800 C   0  0  0  0  0  3  0  0  0  0  0  0
  -21.1700   -5.9170   25.0300 C   0  0  0  0  0  3  0  0  0  0  0  0
  -21.4920   -4.5480   24.9550 C   0  0  0  0  0  0  0  0  0  0  0  0
  -21.9170   -3.9890   23.7370 C   0  0  0  0  0  3  0  0  0  0  0  0
  -22.0170   -4.7980   22.5920 C   0  0  0  0  0  0  0  0  0  0  0  0
  -22.4070   -4.2510   21.4140 F   0  0  0  0  0  0  0  0  0  0  0  0
  -21.3910   -3.7670   26.0550 F   0  0  0  0  0  0  0  0  0  0  0  0
  -22.7970  -13.5520   21.1320 C   0  0  0  0  0  0  0  0  0  0  0  0
  -22.0670  -12.8520   21.9960 N   0  0  0  0  0  0  0  0  0  0  0  0
  -22.3560  -14.5700   20.6030 O   0  0  0  0  0  0  0  0  0  0  0  0
  -22.4400  -12.0330   22.4490 H   0  0  0  0  0  0  0  0  0  0  0  0
  -21.1240  -13.1440   22.2070 H   0  0  0  0  0  0  0  0  0  0  0  0
  -25.4120  -15.2330   20.3110 N   0  0  0  0  0  0  0  0  0  0  0  0
  -24.6300  -15.8750   20.3870 H   0  0  0  0  0  0  0  0  0  0  0  0
  -26.2490  -15.6700   19.9470 H   0  0  0  0  0  0  0  0  0  0  0  0
  1  4  1  0
  1 56  1  0
  1  2  1  6
  4  3  1  0
  5  4  1  0
  6  7  1  0
  6  5  2  0
  8 19  2  0
  9  7  1  0
  9 14  1  0
 10 18  1  0
 10 20  1  0
 11 17  1  0
 11 13  1  0
 12 18  1  0
 13 12  1  0
 14 13  2  0
 15  9  2  0
 16 15  1  0
 16 11  2  0
 17 10  1  0
 18  8  1  0
 20 22  2  0
 21 20  1  0
 23 21  1  0
 24 33  2  0
 24 29  1  0
 25 21  1  0
 25 29  1  0
 26 25  1  0
 27 28  1  0
 27 26  1  0
 28 24  1  0
 29 30  2  0
 30 31  1  0
 32 31  2  0
 33 32  1  0
 34  8  1  0
 34 39  1  0
 34 35  1  0
 35 38  1  1
 35 36  1  0
 37 35  1  0
 39 42  1  0
 40 44  1  0
 40 39  1  0
 41 40  2  0
 44 43  1  0
 46 44  1  0
 46 47  1  0
 46 45  1  0
 48  1  1  0
 48 49  1  0
 49 50  2  0
 49 51  1  0
 51 52  1  0
 52 55  1  0
 52 54  1  0
 53 52  1  0
 57 66  1  0
 57 56  2  0
 58 66  1  0
 59 64  1  0
 60 61  1  0
 60 59  1  0
 62 61  1  0
 62 71  1  0
 62 63  1  0
 64 58  1  0
 64 63  1  0
 65 58  2  0
 66 67  1  0
 68 69  2  0
 69 88  1  0
 70 69  1  0
 70 73  1  0
 71 68  1  0
 71 72  1  0
 72 70  2  0
 73 74  1  0
 74 75  2  0
 76 79  1  0
 76 75  1  0
 77 76  2  0
 78 77  1  0
 78 73  2  0
 79 80  1  0
 80 81  1  0
 81 82  2  0
 83 82  1  0
 83 87  1  0
 84 83  2  0
 85 80  2  0
 85 84  1  0
 86 85  1  0
 88 89  1  0
 89 92  1  0
 89 91  1  0
 90 88  2  0
 93 94  1  0
 93 68  1  0
 95 93  1  0
M  ISO  4   6 101   7 101  58 100  66 100
M  END
>  <TORSDO>  (48) 
F 25

>  <SCORE>  (48) 
-12.751

>  <name>  (48) 
47

>  <ligand_id>  (48) 
47

>  <original_smiles>  (48) 
[H]c1c([H])c([H])c2c(c1[H])C([H])([H])C([H])([H])C([H])([H])C2([H])N([H])C(=O)C1([H])N(C(=O)C([H])(N([H])C(=O)C([H])(N([H])C([H])([H])[H])C([H])([H])[H])C(C([H])([H])[H])(C([H])([H])[H])C([H])([H])[H])C([H])([H])c2c([H])c(OC([H])([H])C([H])([H])C([H])(C([H])([H])[H])[N+]([H])(C([H])([H])C(=O)C([H])([H])[N+]([H])([H])[H])C([H])([H])C([H])([H])N([H])C(=O)N3C([H])([H])C([H])([H])C([H])([H])C([H])(n4nc(-c5c([H])c([H])c(Oc6c([H])c([H])c(F)c([H])c6F)c([H])c5[H])c(C(=O)N([H])[H])c4N([H])[H])C3([H])[H])c([H])c([H])c2C1([H])[H]

>  <smiles>  (48) 
[H]c1c([H])c([H])c2c(c1[H])C([H])([H])C([H])([H])C([H])([H])C2([H])N([H])C(=O)C1([H])N(C(=O)C([H])(N([H])C(=O)C([H])(N([H])C([H])([H])[H])C([H])([H])[H])C(C([H])([H])[H])(C([H])([H])[H])C([H])([H])[H])C([H])([H])c2c([H])c(OC([H])([H])C([H])([H])C([H])(C([H])([H])[H])[N+]([H])(C([H])([H])C(=O)C([H])([H])[N+]([H])([H])[H])C([H])([H])C([H])([H])N([H])C(=O)N3C([H])([H])C([H])([H])C([H])([H])C([H])(n4nc(-c5c([H])c([H])c(Oc6c([H])c([H])c(F)c([H])c6F)c([H])c5[H])c(C(=O)N([H])[H])c4N([H])[H])C3([H])[H])c([H])c([H])c2C1([H])[H]

$$$$
48:0:0
     RDKit          3D

 90 98  0  0  1  0  0  0  0  0999 V2000
  -29.6960  -20.4750   21.5030 C   0  0  0  0  0  3  0  0  0  0  0  0
  -29.3790  -19.6940   19.5200 C   0  0  0  0  0  3  0  0  0  0  0  0
  -30.0690  -19.1050   21.5260 C   0  0  0  0  0  0  0  0  0  0  0  0
  -29.8110  -18.4850   20.2350 C   0  0  0  0  0  0  0  0  0  0  0  0
  -29.2730  -21.0170   20.2620 N   0  0  0  0  0  0  0  0  0  0  0  0
  -30.5900  -15.6110   19.8090 C   0  0  0  0  0  0  0  0  0  0  0  0
  -30.5720  -13.1610   18.8850 C   0  0  0  0  0  2  0  0  0  0  0  0
  -29.5670  -12.8310   17.7450 C   0  0  0  0  0  2  0  0  0  0  0  0
  -28.1660  -12.5140   18.2910 C   0  0  0  0  0  2  0  0  0  0  0  0
  -27.7550  -13.5140   19.3970 C   0  0  0  0  0  3  0  0  0  0  0  0
  -28.8630  -13.7320   20.4490 C   0  0  0  0  0  2  0  0  0  0  0  0
  -30.0390  -14.2890   19.7430 N   0  0  0  0  0  0  0  0  0  0  0  0
  -31.7980  -15.6290   19.5160 O   0  0  0  0  0  0  0  0  0  0  0  0
  -29.7790  -16.8630   19.9540 N   0  0  0  0  0  0  0  0  0  0  0  0
  -28.8280  -16.5320   20.0550 H   0  0  0  0  0  0  0  0  0  0  0  0
  -25.4510  -14.0660   20.3480 C   0  0  0  0  0  0  0  0  0  0  0  0
  -24.4170  -13.2950   20.7770 C   0  0  0  0  0  0  0  0  0  0  0  0
  -24.8640  -11.9370   20.6630 C   0  0  0  0  0  0  0  0  0  0  0  0
  -26.4640  -13.1930   19.9920 N   0  0  0  0  0  0  0  0  0  0  0  0
  -26.1240  -11.9010   20.2480 N   0  0  0  0  0  0  0  0  0  0  0  0
  -24.1460  -10.6790   20.8700 C   0  0  0  0  0  0  0  0  0  0  0  0
  -24.5980   -9.7230   21.8030 C   0  0  0  0  0  3  0  0  0  0  0  0
  -23.8840   -8.5230   22.0040 C   0  0  0  0  0  3  0  0  0  0  0  0
  -22.7020   -8.2710   21.2690 C   0  0  0  0  0  0  0  0  0  0  0  0
  -22.2660   -9.2180   20.3260 C   0  0  0  0  0  3  0  0  0  0  0  0
  -22.9810  -10.4110   20.1240 C   0  0  0  0  0  3  0  0  0  0  0  0
  -21.9530   -7.1250   21.3810 O   0  0  0  0  0  0  0  0  0  0  0  0
  -21.8570   -6.4350   22.5640 C   0  0  0  0  0  0  0  0  0  0  0  0
  -21.3620   -7.0390   23.7400 C   0  0  0  0  0  3  0  0  0  0  0  0
  -21.2160   -6.2760   24.9160 C   0  0  0  0  0  3  0  0  0  0  0  0
  -21.5510   -4.9090   24.9160 C   0  0  0  0  0  0  0  0  0  0  0  0
  -22.0360   -4.3030   23.7430 C   0  0  0  0  0  3  0  0  0  0  0  0
  -22.1880   -5.0650   22.5700 C   0  0  0  0  0  0  0  0  0  0  0  0
  -22.6330   -4.4690   21.4370 F   0  0  0  0  0  0  0  0  0  0  0  0
  -21.4060   -4.1740   26.0430 F   0  0  0  0  0  0  0  0  0  0  0  0
  -23.0470  -13.7680   21.1720 C   0  0  0  0  0  0  0  0  0  0  0  0
  -22.3890  -13.0640   22.0850 N   0  0  0  0  0  0  0  0  0  0  0  0
  -22.5740  -14.8080   20.7090 O   0  0  0  0  0  0  0  0  0  0  0  0
  -22.7820  -12.2260   22.4920 H   0  0  0  0  0  0  0  0  0  0  0  0
  -21.4660  -13.3550   22.3760 H   0  0  0  0  0  0  0  0  0  0  0  0
  -25.6250  -15.4470   20.2010 N   0  0  0  0  0  0  0  0  0  0  0  0
  -24.9050  -16.1240   20.4240 H   0  0  0  0  0  0  0  0  0  0  0  0
  -26.4740  -15.8760   19.8600 H   0  0  0  0  0  0  0  0  0  0  0  0
  -31.8920  -19.2420   23.2840 C   0  0  0  0  0  1  0  0  0  0  0  0
  -31.0590  -16.9600   22.7010 C   0  0  0  0  0  1  0  0  0  0  0  0
  -30.6680  -18.4490   22.7890 C   0  0  0  0  0  3  0  0  0  0  0  0
  -29.0460  -22.6900   19.8400 C   0  0  0  0  0  2  0  0  0  0  0  0
  -27.3900  -23.9160   21.7530 C   0  0  0  0  0  1  0  0  0  0  0  0
  -28.0220  -24.1720   20.3360 C   0  0  0  0  0  3  0  0  0  0  0  0
  -28.2210  -25.8690   20.1950 O   0  0  0  0  0  0  0  0  0  0  0  0
  -24.6740  -31.9220   23.1470 C   0  0  0  0  0  0  0  0  0  0  0  0
  -27.2210  -27.0140   20.1240 C   0  0  0  0  0  0  0  0  0  0  0  0
  -23.4760  -30.5390   21.5000 C   0  0  0  0  0  3  0  0  0  0  0  0
  -24.9250  -28.9440   20.0590 C   0  0  0  0  0  0  0  0  0  0  0  0
  -26.0370  -30.7760   21.3160 C   0  0  0  0  0  2  0  0  0  0  0  0
  -26.1220  -29.3570   20.6570 C   0  0  0  0  0  0  0  0  0  0  0  0
  -27.2640  -28.4150   20.6450 C   0  0  0  0  0  3  0  0  0  0  0  0
  -25.9920  -26.7820   19.4700 C   0  0  0  0  0  3  0  0  0  0  0  0
  -24.8880  -27.6800   19.4470 C   0  0  0  0  0  3  0  0  0  0  0  0
  -23.7040  -29.8650   20.1170 C   0  0  0  0  0  2  0  0  0  0  0  0
  -24.7520  -31.0990   22.0480 N   0  0  0  0  0  0  0  0  0  0  0  0
  -23.5850  -32.2030   23.6840 O   0  0  0  0  0  0  0  0  0  0  0  0
  -22.7920  -29.5320   22.4620 C   0  0  0  0  0  0  0  0  0  0  0  0
  -21.4710  -29.3240   22.3180 N   0  0  0  0  0  0  0  0  0  0  0  0
  -23.4600  -28.9330   23.3080 O   0  0  0  0  0  0  0  0  0  0  0  0
  -20.9740  -29.8420   21.6060 H   0  0  0  0  0  0  0  0  0  0  0  0
  -18.1440  -27.9690   22.7380 C   0  0  0  0  0  0  0  0  0  0  0  0
  -20.6770  -28.3590   23.0820 C   0  0  0  0  0  3  0  0  0  0  0  0
  -20.8650  -26.9260   22.5240 C   0  0  0  0  0  2  0  0  0  0  0  0
  -19.8100  -26.5390   21.4820 C   0  0  0  0  0  2  0  0  0  0  0  0
  -18.4050  -26.6290   22.0840 C   0  0  0  0  0  2  0  0  0  0  0  0
  -19.2080  -28.7910   23.1950 C   0  0  0  0  0  0  0  0  0  0  0  0
  -18.9010  -30.0480   23.7640 C   0  0  0  0  0  3  0  0  0  0  0  0
  -17.5640  -30.4710   23.8960 C   0  0  0  0  0  3  0  0  0  0  0  0
  -16.5160  -29.6430   23.4580 C   0  0  0  0  0  3  0  0  0  0  0  0
  -16.8090  -28.3970   22.8780 C   0  0  0  0  0  3  0  0  0  0  0  0
  -25.9490  -32.5660   23.7710 C   0  0  0  0  0  3  0  0  0  0  0  0
  -26.4580  -31.7990   25.0510 C   0  0  1  0  0  0  0  0  0  0  0  0
  -25.3550  -31.5550   26.1040 C   0  0  0  0  0  1  0  0  0  0  0  0
  -27.0480  -30.4230   24.6620 C   0  0  0  0  0  1  0  0  0  0  0  0
  -27.5960  -32.5970   25.7350 C   0  0  0  0  0  1  0  0  0  0  0  0
  -25.6260  -33.9590   24.1170 N   0  0  0  0  0  0  0  0  0  0  0  0
  -25.9660  -35.0290   23.3860 C   0  0  0  0  0  0  0  0  0  0  0  0
  -26.6420  -34.9460   22.3570 O   0  0  0  0  0  0  0  0  0  0  0  0
  -25.0150  -34.0970   24.9100 H   0  0  0  0  0  0  0  0  0  0  0  0
  -24.2470  -36.8370   23.0520 C   0  0  0  0  0  1  0  0  0  0  0  0
  -25.4750  -36.4060   23.8680 C   0  0  0  0  0  3  0  0  0  0  0  0
  -27.5960  -37.2740   24.7470 C   0  0  0  0  0  1  0  0  0  0  0  0
  -26.5060  -37.4620   23.7970 N   0  0  0  0  0  0  0  0  0  0  0  0
  -26.0870  -38.3700   23.9730 H   0  0  0  0  0  0  0  0  0  0  0  0
  1  3  2  0
  2  4  2  0
  2  5  1  0
  3 46  1  0
  4  3  1  0
  5  1  1  0
  6 14  1  0
  7 12  1  0
  8  9  1  0
  8  7  1  0
 10  9  1  0
 10 19  1  0
 10 11  1  0
 12  6  1  0
 12 11  1  0
 13  6  2  0
 14 15  1  0
 14  4  1  0
 16 17  2  0
 17 36  1  0
 18 17  1  0
 18 21  1  0
 19 20  1  0
 19 16  1  0
 20 18  2  0
 21 22  1  0
 22 23  2  0
 24 27  1  0
 24 23  1  0
 25 24  2  0
 26 25  1  0
 26 21  2  0
 27 28  1  0
 28 33  2  0
 28 29  1  0
 29 30  2  0
 30 31  1  0
 31 35  1  0
 32 31  2  0
 33 32  1  0
 34 33  1  0
 36 37  1  0
 37 40  1  0
 37 39  1  0
 38 36  2  0
 41 16  1  0
 41 42  1  0
 43 41  1  0
 45 46  1  0
 46 44  1  0
 47  5  1  0
 47 49  1  0
 49 48  1  0
 50 49  1  0
 51 62  2  0
 52 50  1  0
 52 57  1  0
 53 61  1  0
 53 63  1  0
 54 60  1  0
 54 56  1  0
 55 61  1  0
 56 55  1  0
 57 56  2  0
 58 52  2  0
 59 58  1  0
 59 54  2  0
 60 53  1  0
 61 51  1  0
 63 65  2  0
 64 63  1  0
 66 64  1  0
 67 76  2  0
 67 72  1  0
 68 64  1  0
 68 72  1  0
 69 68  1  0
 70 71  1  0
 70 69  1  0
 71 67  1  0
 72 73  2  0
 73 74  1  0
 75 74  2  0
 76 75  1  0
 77 51  1  0
 77 82  1  0
 77 78  1  0
 78 81  1  1
 78 79  1  0
 80 78  1  0
 82 85  1  0
 83 87  1  0
 83 82  1  0
 84 83  2  0
 87 86  1  0
 89 87  1  0
 89 90  1  0
 89 88  1  0
M  ISO  4   6 100  14 100  49 101  50 101
M  END
>  <TORSDO>  (49) 
F 19

>  <SCORE>  (49) 
-14.154

>  <name>  (49) 
48

>  <ligand_id>  (49) 
48

>  <original_smiles>  (49) 
[H]c1c([H])c([H])c2c(c1[H])C([H])([H])C([H])([H])C([H])([H])C2([H])N([H])C(=O)C1([H])N(C(=O)C([H])(N([H])C(=O)C([H])(N([H])C([H])([H])[H])C([H])([H])[H])C(C([H])([H])[H])(C([H])([H])[H])C([H])([H])[H])C([H])([H])c2c([H])c(OC([H])(C([H])([H])[H])C([H])([H])n3c([H])c(N([H])C(=O)N4C([H])([H])C([H])([H])C([H])([H])C([H])(n5nc(-c6c([H])c([H])c(Oc7c([H])c([H])c(F)c([H])c7F)c([H])c6[H])c(C(=O)N([H])[H])c5N([H])[H])C4([H])[H])c(C([H])(C([H])([H])[H])C([H])([H])[H])c3[H])c([H])c([H])c2C1([H])[H]

>  <smiles>  (49) 
[H]c1c([H])c([H])c2c(c1[H])C([H])([H])C([H])([H])C([H])([H])C2([H])N([H])C(=O)C1([H])N(C(=O)C([H])(N([H])C(=O)C([H])(N([H])C([H])([H])[H])C([H])([H])[H])C(C([H])([H])[H])(C([H])([H])[H])C([H])([H])[H])C([H])([H])c2c([H])c(OC([H])(C([H])([H])[H])C([H])([H])n3c([H])c(N([H])C(=O)N4C([H])([H])C([H])([H])C([H])([H])C([H])(n5nc(-c6c([H])c([H])c(Oc7c([H])c([H])c(F)c([H])c7F)c([H])c6[H])c(C(=O)N([H])[H])c5N([H])[H])C4([H])[H])c(C([H])(C([H])([H])[H])C([H])([H])[H])c3[H])c([H])c([H])c2C1([H])[H]

$$$$
49:0:0
     RDKit          3D

 97106  0  0  1  0  0  0  0  0999 V2000
  -29.6650  -18.6020   17.4500 C   0  0  0  0  0  2  0  0  0  0  0  0
  -27.3250  -18.0090   18.3850 C   0  0  0  0  0  3  0  0  0  0  0  0
  -27.8690  -17.5140   20.4880 C   0  0  0  0  0  3  0  0  0  0  0  0
  -26.7940  -17.6760   19.6610 C   0  0  0  0  0  0  0  0  0  0  0  0
  -28.6860  -18.1210   18.4860 C   0  0  0  0  0  0  0  0  0  0  0  0
  -29.0390  -17.7500   19.7830 N   0  0  0  0  0  0  0  0  0  0  0  0
  -24.6580  -16.3470   19.4180 C   0  0  0  0  0  2  0  0  0  0  0  0
  -24.5950  -18.8690   19.6940 C   0  0  0  0  0  1  0  0  0  0  0  0
  -25.3370  -17.5730   20.0470 C   0  0  0  0  0  3  0  0  0  0  0  0
  -30.3880  -17.7280   20.3560 C   0  0  0  0  0  2  0  0  0  0  0  0
  -30.5480  -16.8110   21.5900 C   0  0  0  0  0  2  0  0  0  0  0  0
  -30.4960  -14.6030   20.4700 C   0  0  0  0  0  0  0  0  0  0  0  0
  -30.2500  -12.3960   19.4030 C   0  0  0  0  0  2  0  0  0  0  0  0
  -29.2670  -12.4700   18.2200 C   0  0  0  0  0  2  0  0  0  0  0  0
  -27.8200  -12.2630   18.7020 C   0  0  0  0  0  2  0  0  0  0  0  0
  -27.4620  -13.1640   19.9130 C   0  0  0  0  0  3  0  0  0  0  0  0
  -28.5530  -13.0820   21.0060 C   0  0  0  0  0  2  0  0  0  0  0  0
  -29.8540  -13.4090   20.3930 N   0  0  0  0  0  0  0  0  0  0  0  0
  -31.4770  -14.8910   19.7800 O   0  0  0  0  0  0  0  0  0  0  0  0
  -30.0120  -15.4670   21.3670 N   0  0  0  0  0  0  0  0  0  0  0  0
  -29.2110  -15.1790   21.9090 H   0  0  0  0  0  0  0  0  0  0  0  0
  -25.0880  -13.6780   20.7650 C   0  0  0  0  0  0  0  0  0  0  0  0
  -24.0560  -12.8660   21.1510 C   0  0  0  0  0  0  0  0  0  0  0  0
  -24.5410  -11.5270   21.0260 C   0  0  0  0  0  0  0  0  0  0  0  0
  -26.1400  -12.8350   20.4440 N   0  0  0  0  0  0  0  0  0  0  0  0
  -25.8140  -11.5330   20.6510 N   0  0  0  0  0  0  0  0  0  0  0  0
  -23.8500  -10.2420   21.1850 C   0  0  0  0  0  0  0  0  0  0  0  0
  -24.3420   -9.2410   22.0520 C   0  0  0  0  0  3  0  0  0  0  0  0
  -23.6510   -8.0190   22.2010 C   0  0  0  0  0  3  0  0  0  0  0  0
  -22.4520   -7.7910   21.4850 C   0  0  0  0  0  0  0  0  0  0  0  0
  -21.9780   -8.7820   20.6060 C   0  0  0  0  0  3  0  0  0  0  0  0
  -22.6710   -9.9940   20.4540 C   0  0  0  0  0  3  0  0  0  0  0  0
  -21.7270   -6.6260   21.5480 O   0  0  0  0  0  0  0  0  0  0  0  0
  -21.7120   -5.8470   22.6770 C   0  0  0  0  0  0  0  0  0  0  0  0
  -21.2960   -6.3560   23.9280 C   0  0  0  0  0  3  0  0  0  0  0  0
  -21.2300   -5.5040   25.0480 C   0  0  0  0  0  3  0  0  0  0  0  0
  -21.5670   -4.1440   24.9200 C   0  0  0  0  0  0  0  0  0  0  0  0
  -21.9740   -3.6330   23.6750 C   0  0  0  0  0  3  0  0  0  0  0  0
  -22.0430   -4.4830   22.5570 C   0  0  0  0  0  0  0  0  0  0  0  0
  -22.4160   -3.9820   21.3550 F   0  0  0  0  0  0  0  0  0  0  0  0
  -21.4950   -3.3230   25.9930 F   0  0  0  0  0  0  0  0  0  0  0  0
  -22.6670  -13.2980   21.5250 C   0  0  0  0  0  0  0  0  0  0  0  0
  -22.0070  -12.5500   22.4040 N   0  0  0  0  0  0  0  0  0  0  0  0
  -22.1760  -14.3320   21.0750 O   0  0  0  0  0  0  0  0  0  0  0  0
  -22.4190  -11.7130   22.7890 H   0  0  0  0  0  0  0  0  0  0  0  0
  -21.0790  -12.8200   22.6950 H   0  0  0  0  0  0  0  0  0  0  0  0
  -25.2140  -15.0570   20.6440 N   0  0  0  0  0  4  0  0  0  0  0  0
  -24.4530  -15.6890   20.8610 H   0  0  0  0  0  0  0  0  0  0  0  0
  -26.0650  -15.5430   20.3890 H   0  0  0  0  0  0  0  0  0  0  0  0
  -29.7840  -20.1340   17.4380 C   0  0  0  0  0  0  0  0  0  0  0  0
  -29.6020  -20.7800   16.4010 O   0  0  0  0  0  0  0  0  0  0  0  0
  -30.1790  -20.8320   18.7460 C   0  0  0  0  0  2  0  0  0  0  0  0
  -29.0680  -21.7290   19.3330 C   0  0  0  0  0  2  0  0  0  0  0  0
  -29.1230  -23.0380   18.7730 O   0  0  0  0  0  0  0  0  0  0  0  0
  -28.3030  -23.9870   19.4580 C   0  0  0  0  0  2  0  0  0  0  0  0
  -28.5630  -25.3980   18.8880 C   0  0  0  0  0  2  0  0  0  0  0  0
  -28.3690  -26.4250   19.8670 O   0  0  0  0  0  0  0  0  0  0  0  0
  -24.6440  -31.5310   23.1420 C   0  0  0  0  0  0  0  0  0  0  0  0
  -27.1840  -27.1320   19.9010 C   0  0  0  0  0  0  0  0  0  0  0  0
  -23.4110  -30.2320   21.4370 C   0  0  0  0  0  3  0  0  0  0  0  0
  -24.8260  -28.6990   19.9730 C   0  0  0  0  0  0  0  0  0  0  0  0
  -25.9490  -30.5100   21.2810 C   0  0  0  0  0  2  0  0  0  0  0  0
  -25.9940  -29.1630   20.5910 C   0  0  0  0  0  0  0  0  0  0  0  0
  -27.1700  -28.3810   20.5620 C   0  0  0  0  0  3  0  0  0  0  0  0
  -25.9880  -26.6680   19.3040 C   0  0  0  0  0  3  0  0  0  0  0  0
  -24.8160  -27.4470   19.3360 C   0  0  0  0  0  3  0  0  0  0  0  0
  -23.6130  -29.5980   20.0360 C   0  0  0  0  0  2  0  0  0  0  0  0
  -24.6860  -30.7720   22.0110 N   0  0  0  0  0  0  0  0  0  0  0  0
  -23.5670  -31.8170   23.6820 O   0  0  0  0  0  0  0  0  0  0  0  0
  -22.7190  -29.1940   22.3490 C   0  0  0  0  0  0  0  0  0  0  0  0
  -21.3900  -29.0660   22.2060 N   0  0  0  0  0  0  0  0  0  0  0  0
  -23.3740  -28.5100   23.1410 O   0  0  0  0  0  0  0  0  0  0  0  0
  -20.9240  -29.6680   21.5430 H   0  0  0  0  0  0  0  0  0  0  0  0
  -17.9680  -27.9980   22.6510 C   0  0  0  0  0  0  0  0  0  0  0  0
  -20.5340  -28.1270   22.9310 C   0  0  0  0  0  3  0  0  0  0  0  0
  -20.5760  -26.7240   22.2830 C   0  0  0  0  0  2  0  0  0  0  0  0
  -19.4610  -26.5000   21.2570 C   0  0  0  0  0  2  0  0  0  0  0  0
  -18.0870  -26.6760   21.9090 C   0  0  0  0  0  2  0  0  0  0  0  0
  -19.1190  -28.6860   23.1160 C   0  0  0  0  0  0  0  0  0  0  0  0
  -18.9620  -29.9290   23.7670 C   0  0  0  0  0  3  0  0  0  0  0  0
  -17.6830  -30.4800   23.9620 C   0  0  0  0  0  3  0  0  0  0  0  0
  -16.5430  -29.7860   23.5180 C   0  0  0  0  0  3  0  0  0  0  0  0
  -16.6870  -28.5490   22.8650 C   0  0  0  0  0  3  0  0  0  0  0  0
  -25.9440  -32.0930   23.7990 C   0  0  0  0  0  3  0  0  0  0  0  0
  -26.4020  -31.2790   25.0710 C   0  0  1  0  0  0  0  0  0  0  0  0
  -25.2780  -31.0750   26.1150 C   0  0  0  0  0  1  0  0  0  0  0  0
  -26.9320  -29.8870   24.6620 C   0  0  0  0  0  1  0  0  0  0  0  0
  -27.5710  -32.0120   25.7700 C   0  0  0  0  0  1  0  0  0  0  0  0
  -25.6900  -33.4960   24.1490 N   0  0  0  0  0  0  0  0  0  0  0  0
  -26.0800  -34.5450   23.4140 C   0  0  0  0  0  0  0  0  0  0  0  0
  -26.7660  -34.4310   22.3940 O   0  0  0  0  0  0  0  0  0  0  0  0
  -25.0920  -33.6640   24.9460 H   0  0  0  0  0  0  0  0  0  0  0  0
  -24.4280  -36.4070   23.0630 C   0  0  0  0  0  1  0  0  0  0  0  0
  -25.6380  -35.9420   23.8880 C   0  0  0  0  0  3  0  0  0  0  0  0
  -27.7850  -36.7290   24.7770 C   0  0  0  0  0  1  0  0  0  0  0  0
  -26.7110  -36.9570   23.8150 N   0  0  0  0  0  0  0  0  0  0  0  0
  -26.3370  -37.8870   23.9780 H   0  0  0  0  0  0  0  0  0  0  0  0
  1  5  1  0
  2  5  2  0
  2  4  1  0
  4  9  1  0
  4  3  2  0
  5  6  1  0
  6 10  1  0
  6  3  1  0
  7  9  1  0
  7 47  1  0
  9  8  1  0
 10 11  1  0
 12 20  1  0
 13 18  1  0
 14 15  1  0
 14 13  1  0
 16 15  1  0
 16 25  1  0
 16 17  1  0
 18 12  1  0
 18 17  1  0
 19 12  2  0
 20 11  1  0
 20 21  1  0
 22 23  2  0
 23 42  1  0
 24 23  1  0
 24 27  1  0
 25 26  1  0
 25 22  1  0
 26 24  2  0
 27 28  1  0
 28 29  2  0
 30 33  1  0
 30 29  1  0
 31 30  2  0
 32 31  1  0
 32 27  2  0
 33 34  1  0
 34 35  1  0
 35 36  2  0
 37 36  1  0
 37 41  1  0
 38 37  2  0
 39 34  2  0
 39 38  1  0
 40 39  1  0
 42 43  1  0
 43 46  1  0
 43 45  1  0
 44 42  2  0
 47 22  1  0
 47 48  1  0
 49 47  1  0
 50  1  1  0
 50 52  1  0
 51 50  2  0
 52 53  1  0
 54 53  1  0
 54 55  1  0
 56 55  1  0
 56 57  1  0
 57 59  1  0
 58 69  2  0
 59 64  1  0
 60 68  1  0
 60 70  1  0
 61 67  1  0
 61 63  1  0
 62 68  1  0
 63 62  1  0
 64 63  2  0
 65 66  1  0
 65 59  2  0
 66 61  2  0
 67 60  1  0
 68 58  1  0
 70 72  2  0
 71 70  1  0
 73 71  1  0
 74 83  2  0
 74 79  1  0
 75 71  1  0
 75 79  1  0
 76 75  1  0
 77 78  1  0
 77 76  1  0
 78 74  1  0
 79 80  2  0
 80 81  1  0
 82 81  2  0
 83 82  1  0
 84 58  1  0
 84 89  1  0
 84 85  1  0
 85 88  1  1
 85 86  1  0
 87 85  1  0
 89 92  1  0
 90 94  1  0
 90 89  1  0
 91 90  2  0
 94 93  1  0
 96 94  1  0
 96 97  1  0
 96 95  1  0
M  ISO  4  12 100  20 100  56 101  57 101
M  END
>  <TORSDO>  (50) 
F 26

>  <SCORE>  (50) 
-9.324

>  <name>  (50) 
49

>  <ligand_id>  (50) 
49

>  <original_smiles>  (50) 
[H]c1c([H])c([H])c2c(c1[H])C([H])([H])C([H])([H])C([H])([H])C2([H])N([H])C(=O)C1([H])N(C(=O)C([H])(N([H])C(=O)C([H])(N([H])C([H])([H])[H])C([H])([H])[H])C(C([H])([H])[H])(C([H])([H])[H])C([H])([H])[H])C([H])([H])c2c([H])c(OC([H])([H])C([H])([H])OC([H])([H])C([H])([H])C(=O)C([H])([H])c3c([H])c(C([H])(C([H])([H])[H])C([H])([H])[H])c([H])n3C([H])([H])C([H])([H])N([H])C(=O)N3C([H])([H])C([H])([H])C([H])([H])C([H])(n4nc(-c5c([H])c([H])c(Oc6c([H])c([H])c(F)c([H])c6F)c([H])c5[H])c(C(=O)N([H])[H])c4N([H])[H])C3([H])[H])c([H])c([H])c2C1([H])[H]

>  <smiles>  (50) 
[H]c1c([H])c([H])c2c(c1[H])C([H])([H])C([H])([H])C([H])([H])C2([H])N([H])C(=O)C1([H])N(C(=O)C([H])(N([H])C(=O)C([H])(N([H])C([H])([H])[H])C([H])([H])[H])C(C([H])([H])[H])(C([H])([H])[H])C([H])([H])[H])C([H])([H])c2c([H])c(OC([H])([H])C([H])([H])OC([H])([H])C([H])([H])C(=O)C([H])([H])c3c([H])c(C([H])(C([H])([H])[H])C([H])([H])[H])c([H])n3C([H])([H])C([H])([H])N([H])C(=O)N3C([H])([H])C([H])([H])C([H])([H])C([H])(n4nc(-c5c([H])c([H])c(Oc6c([H])c([H])c(F)c([H])c6F)c([H])c5[H])c(C(=O)N([H])[H])c4N([H])[H])C3([H])[H])c([H])c([H])c2C1([H])[H]

$$$$
50:0:0
     RDKit          3D

 95102  0  0  1  0  0  0  0  0999 V2000
  -29.8300  -21.2620   20.5260 C   0  0  0  0  0  3  0  0  0  0  0  0
  -29.0350  -22.4560   19.9650 N   0  0  0  0  0  4  0  0  0  0  0  0
  -28.0570  -22.2060   19.9770 H   0  0  0  0  0  0  0  0  0  0  0  0
  -29.2830  -22.5220   18.9880 H   0  0  0  0  0  0  0  0  0  0  0  0
  -28.9090  -23.9020   22.0670 C   0  0  0  0  0  1  0  0  0  0  0  0
  -29.1780  -23.8840   20.5450 C   0  0  0  0  0  3  0  0  0  0  0  0
  -28.2540  -25.0080   19.8380 C   0  0  0  0  0  2  0  0  0  0  0  0
  -28.3530  -26.4550   20.2130 O   0  0  0  0  0  0  0  0  0  0  0  0
  -24.6240  -31.8830   23.2240 C   0  0  0  0  0  0  0  0  0  0  0  0
  -27.2260  -27.3050   20.1490 C   0  0  0  0  0  0  0  0  0  0  0  0
  -23.4130  -30.4800   21.5970 C   0  0  0  0  0  3  0  0  0  0  0  0
  -24.8580  -28.9330   20.1510 C   0  0  0  0  0  0  0  0  0  0  0  0
  -25.9540  -30.7840   21.4130 C   0  0  0  0  0  2  0  0  0  0  0  0
  -26.0290  -29.4090   20.7560 C   0  0  0  0  0  0  0  0  0  0  0  0
  -27.2100  -28.6040   20.7530 C   0  0  0  0  0  3  0  0  0  0  0  0
  -26.0330  -26.8950   19.5060 C   0  0  0  0  0  3  0  0  0  0  0  0
  -24.8620  -27.6810   19.5160 C   0  0  0  0  0  3  0  0  0  0  0  0
  -23.6230  -29.8100   20.2140 C   0  0  0  0  0  2  0  0  0  0  0  0
  -24.6820  -31.0690   22.1300 N   0  0  0  0  0  0  0  0  0  0  0  0
  -23.5440  -32.1610   23.7640 O   0  0  0  0  0  0  0  0  0  0  0  0
  -22.7590  -29.4640   22.5620 C   0  0  0  0  0  0  0  0  0  0  0  0
  -21.4310  -29.2940   22.4460 N   0  0  0  0  0  0  0  0  0  0  0  0
  -23.4430  -28.8430   23.3790 O   0  0  0  0  0  0  0  0  0  0  0  0
  -20.9430  -29.8550   21.7630 H   0  0  0  0  0  0  0  0  0  0  0  0
  -18.0500  -28.0970   22.9590 C   0  0  0  0  0  0  0  0  0  0  0  0
  -20.6100  -28.3610   23.2190 C   0  0  0  0  0  3  0  0  0  0  0  0
  -20.7120  -26.9270   22.6500 C   0  0  0  0  0  2  0  0  0  0  0  0
  -19.6070  -26.6000   21.6410 C   0  0  0  0  0  2  0  0  0  0  0  0
  -18.2270  -26.7440   22.2900 C   0  0  0  0  0  2  0  0  0  0  0  0
  -19.1710  -28.8610   23.3810 C   0  0  0  0  0  0  0  0  0  0  0  0
  -18.9540  -30.1260   23.9690 C   0  0  0  0  0  3  0  0  0  0  0  0
  -17.6510  -30.6260   24.1430 C   0  0  0  0  0  3  0  0  0  0  0  0
  -16.5450  -29.8580   23.7340 C   0  0  0  0  0  3  0  0  0  0  0  0
  -16.7450  -28.5990   23.1460 C   0  0  0  0  0  3  0  0  0  0  0  0
  -25.9140  -32.5160   23.8340 C   0  0  0  0  0  3  0  0  0  0  0  0
  -25.5930  -33.9110   24.1720 N   0  0  0  0  0  0  0  0  0  0  0  0
  -25.9250  -34.9730   23.4230 C   0  0  0  0  0  0  0  0  0  0  0  0
  -26.5900  -34.8800   22.3880 O   0  0  0  0  0  0  0  0  0  0  0  0
  -24.9620  -34.0510   24.9480 H   0  0  0  0  0  0  0  0  0  0  0  0
  -24.1830  -36.7710   23.1120 C   0  0  0  0  0  1  0  0  0  0  0  0
  -25.4390  -36.3580   23.8930 C   0  0  0  0  0  3  0  0  0  0  0  0
  -27.5890  -37.2430   24.6870 C   0  0  0  0  0  1  0  0  0  0  0  0
  -26.4670  -37.4140   23.7690 N   0  0  0  0  0  0  0  0  0  0  0  0
  -26.0580  -38.3290   23.9330 H   0  0  0  0  0  0  0  0  0  0  0  0
  -26.4420  -31.7430   25.1070 C   0  0  1  0  0  0  0  0  0  0  0  0
  -25.3580  -31.4940   26.1860 C   0  0  0  0  0  1  0  0  0  0  0  0
  -27.0290  -30.3630   24.7170 C   0  0  0  0  0  1  0  0  0  0  0  0
  -27.5950  -32.5440   25.7550 C   0  0  0  0  0  1  0  0  0  0  0  0
  -29.4490  -19.7840   19.9760 C   0  0  0  0  0  3  0  0  0  0  0  0
  -30.3420  -18.4200   20.1490 C   0  0  0  0  0  3  0  0  0  0  0  0
  -31.7650  -18.7090   20.4460 N   0  0  0  0  0  4  0  0  0  0  0  0
  -31.8230  -19.3620   21.2110 H   0  0  0  0  0  0  0  0  0  0  0  0
  -32.1560  -17.8450   20.7890 H   0  0  0  0  0  0  0  0  0  0  0  0
  -33.0840  -17.9610   18.4590 C   0  0  0  0  0  1  0  0  0  0  0  0
  -33.8300  -19.9260   19.8940 C   0  0  0  0  0  1  0  0  0  0  0  0
  -32.6220  -19.1550   19.3270 C   0  0  0  0  0  3  0  0  0  0  0  0
  -29.9180  -17.2320   21.1410 C   0  0  0  0  0  2  0  0  0  0  0  0
  -30.5600  -14.7430   20.4240 C   0  0  0  0  0  0  0  0  0  0  0  0
  -30.4150  -12.4850   19.3590 C   0  0  0  0  0  2  0  0  0  0  0  0
  -29.4540  -12.5220   18.1470 C   0  0  0  0  0  2  0  0  0  0  0  0
  -27.9860  -12.3510   18.5870 C   0  0  0  0  0  2  0  0  0  0  0  0
  -27.6100  -13.2500   19.7940 C   0  0  0  0  0  3  0  0  0  0  0  0
  -28.6700  -13.1390   20.9100 C   0  0  0  0  0  2  0  0  0  0  0  0
  -29.9630  -13.5110   20.3170 N   0  0  0  0  0  0  0  0  0  0  0  0
  -31.7510  -14.9060   20.1560 O   0  0  0  0  0  0  0  0  0  0  0  0
  -29.7170  -15.8090   20.6500 N   0  0  0  0  0  0  0  0  0  0  0  0
  -28.7470  -15.5320   20.6380 H   0  0  0  0  0  0  0  0  0  0  0  0
  -25.2170  -13.8560   20.5100 C   0  0  0  0  0  0  0  0  0  0  0  0
  -24.1480  -13.0840   20.8810 C   0  0  0  0  0  0  0  0  0  0  0  0
  -24.6120  -11.7340   20.8640 C   0  0  0  0  0  0  0  0  0  0  0  0
  -26.2610  -12.9750   20.2840 N   0  0  0  0  0  0  0  0  0  0  0  0
  -25.9050  -11.6950   20.5620 N   0  0  0  0  0  0  0  0  0  0  0  0
  -23.8890  -10.4710   21.0540 C   0  0  0  0  0  0  0  0  0  0  0  0
  -24.3270   -9.5050   21.9840 C   0  0  0  0  0  3  0  0  0  0  0  0
  -23.6040   -8.3050   22.1650 C   0  0  0  0  0  3  0  0  0  0  0  0
  -22.4290   -8.0660   21.4100 C   0  0  0  0  0  0  0  0  0  0  0  0
  -22.0090   -9.0240   20.4710 C   0  0  0  0  0  3  0  0  0  0  0  0
  -22.7330  -10.2140   20.2910 C   0  0  0  0  0  3  0  0  0  0  0  0
  -21.6800   -6.9170   21.4960 O   0  0  0  0  0  0  0  0  0  0  0  0
  -21.6450   -6.1640   22.6450 C   0  0  0  0  0  0  0  0  0  0  0  0
  -21.2420   -6.7130   23.8810 C   0  0  0  0  0  3  0  0  0  0  0  0
  -21.1550   -5.8900   25.0210 C   0  0  0  0  0  3  0  0  0  0  0  0
  -21.4620   -4.5190   24.9260 C   0  0  0  0  0  0  0  0  0  0  0  0
  -21.8580   -3.9690   23.6940 C   0  0  0  0  0  3  0  0  0  0  0  0
  -21.9470   -4.7900   22.5550 C   0  0  0  0  0  0  0  0  0  0  0  0
  -22.3090   -4.2520   21.3660 F   0  0  0  0  0  0  0  0  0  0  0  0
  -21.3710   -3.7260   26.0190 F   0  0  0  0  0  0  0  0  0  0  0  0
  -22.7470  -13.5640   21.1380 C   0  0  0  0  0  0  0  0  0  0  0  0
  -22.0110  -12.8720   22.0010 N   0  0  0  0  0  0  0  0  0  0  0  0
  -22.3140  -14.5850   20.6090 O   0  0  0  0  0  0  0  0  0  0  0  0
  -22.3700  -12.0450   22.4500 H   0  0  0  0  0  0  0  0  0  0  0  0
  -21.0730  -13.1820   22.2140 H   0  0  0  0  0  0  0  0  0  0  0  0
  -25.3790  -15.2250   20.3230 N   0  0  0  0  0  0  0  0  0  0  0  0
  -24.6080  -15.8760   20.4310 H   0  0  0  0  0  0  0  0  0  0  0  0
  -26.2120  -15.6640   19.9530 H   0  0  0  0  0  0  0  0  0  0  0  0
  2  3  1  0
  2  1  1  0
  2  6  1  0
  4  2  1  0
  6  5  1  0
  7  8  1  0
  7  6  1  0
  9 20  2  0
 10  8  1  0
 10 15  1  0
 11 19  1  0
 11 21  1  0
 12 18  1  0
 12 14  1  0
 13 19  1  0
 14 13  1  0
 15 14  2  0
 16 17  1  0
 16 10  2  0
 17 12  2  0
 18 11  1  0
 19  9  1  0
 21 23  2  0
 22 21  1  0
 24 22  1  0
 25 34  2  0
 25 30  1  0
 26 22  1  0
 26 30  1  0
 27 26  1  0
 28 29  1  0
 28 27  1  0
 29 25  1  0
 30 31  2  0
 31 32  1  0
 33 32  2  0
 34 33  1  0
 35  9  1  0
 35 36  1  0
 35 45  1  0
 36 39  1  0
 37 41  1  0
 37 36  1  0
 38 37  2  0
 41 40  1  0
 43 41  1  0
 43 44  1  0
 43 42  1  0
 45 48  1  1
 45 46  1  0
 47 45  1  0
 49  1  2  0
 50 49  1  0
 50 51  1  0
 50 57  1  0
 51 53  1  0
 51 52  1  0
 54 56  1  0
 56 55  1  0
 56 51  1  0
 58 66  1  0
 59 64  1  0
 60 61  1  0
 60 59  1  0
 62 61  1  0
 62 71  1  0
 62 63  1  0
 64 58  1  0
 64 63  1  0
 65 58  2  0
 66 57  1  0
 67 66  1  0
 68 69  2  0
 69 88  1  0
 70 69  1  0
 70 73  1  0
 71 68  1  0
 71 72  1  0
 72 70  2  0
 73 74  1  0
 74 75  2  0
 76 79  1  0
 76 75  1  0
 77 76  2  0
 78 77  1  0
 78 73  2  0
 79 80  1  0
 80 81  1  0
 81 82  2  0
 83 82  1  0
 83 87  1  0
 84 83  2  0
 85 80  2  0
 85 84  1  0
 86 85  1  0
 88 89  1  0
 89 92  1  0
 89 91  1  0
 90 88  2  0
 93 94  1  0
 93 68  1  0
 95 93  1  0
M  ISO  4   7 101   8 101  58 100  66 100
M  END
>  <TORSDO>  (51) 
F 24

>  <SCORE>  (51) 
-12.496

>  <name>  (51) 
50

>  <ligand_id>  (51) 
50

>  <original_smiles>  (51) 
[H]c1c([H])c([H])c2c(c1[H])C([H])([H])C([H])([H])C([H])([H])C2([H])N([H])C(=O)C1([H])N(C(=O)C([H])(N([H])C(=O)C([H])(N([H])C([H])([H])[H])C([H])([H])[H])C(C([H])([H])[H])(C([H])([H])[H])C([H])([H])[H])C([H])([H])c2c([H])c(OC([H])([H])C([H])(C([H])([H])[H])[N+]([H])([H])C([H])([H])C([H])([H])C([H])(C([H])([H])N([H])C(=O)N3C([H])([H])C([H])([H])C([H])([H])C([H])(n4nc(-c5c([H])c([H])c(Oc6c([H])c([H])c(F)c([H])c6F)c([H])c5[H])c(C(=O)N([H])[H])c4N([H])[H])C3([H])[H])[N+]([H])([H])C([H])(C([H])([H])[H])C([H])([H])[H])c([H])c([H])c2C1([H])[H]

>  <smiles>  (51) 
[H]c1c([H])c([H])c2c(c1[H])C([H])([H])C([H])([H])C([H])([H])C2([H])N([H])C(=O)C1([H])N(C(=O)C([H])(N([H])C(=O)C([H])(N([H])C([H])([H])[H])C([H])([H])[H])C(C([H])([H])[H])(C([H])([H])[H])C([H])([H])[H])C([H])([H])c2c([H])c(OC([H])([H])C([H])(C([H])([H])[H])[N+]([H])([H])C([H])([H])C([H])([H])C([H])(C([H])([H])N([H])C(=O)N3C([H])([H])C([H])([H])C([H])([H])C([H])(n4nc(-c5c([H])c([H])c(Oc6c([H])c([H])c(F)c([H])c6F)c([H])c5[H])c(C(=O)N([H])[H])c4N([H])[H])C3([H])[H])[N+]([H])([H])C([H])(C([H])([H])[H])C([H])([H])[H])c([H])c([H])c2C1([H])[H]

$$$$
51:0:0
     RDKit          3D

 92 99  0  0  1  0  0  0  0  0999 V2000
  -29.6150  -20.6440   20.3060 C   0  0  0  0  0  3  0  0  0  0  0  0
  -30.4760  -20.7370   19.0390 C   0  0  0  0  0  0  0  0  0  0  0  0
  -31.7690  -20.4450   19.1270 N   0  0  0  0  0  0  0  0  0  0  0  0
  -29.9710  -21.0590   17.9640 O   0  0  0  0  0  0  0  0  0  0  0  0
  -32.1810  -20.1770   20.0090 H   0  0  0  0  0  0  0  0  0  0  0  0
  -32.3540  -20.4900   18.3060 H   0  0  0  0  0  0  0  0  0  0  0  0
  -28.5970  -21.8620   20.2800 N   0  0  0  0  0  4  0  0  0  0  0  0
  -27.9210  -21.6920   21.0070 H   0  0  0  0  0  0  0  0  0  0  0  0
  -28.1180  -21.7490   19.4000 H   0  0  0  0  0  0  0  0  0  0  0  0
  -29.0250  -23.3950   20.3690 C   0  0  0  0  0  3  0  0  0  0  0  0
  -27.9530  -24.6770   20.1540 C   0  0  0  0  0  3  0  0  0  0  0  0
  -28.2400  -26.2080   20.2680 O   0  0  0  0  0  0  0  0  0  0  0  0
  -24.6220  -31.9050   23.2300 C   0  0  0  0  0  0  0  0  0  0  0  0
  -27.1850  -27.1910   20.1990 C   0  0  0  0  0  0  0  0  0  0  0  0
  -23.4210  -30.5220   21.5820 C   0  0  0  0  0  3  0  0  0  0  0  0
  -24.8650  -28.9460   20.1580 C   0  0  0  0  0  0  0  0  0  0  0  0
  -25.9760  -30.7760   21.4260 C   0  0  0  0  0  2  0  0  0  0  0  0
  -26.0450  -29.3860   20.7720 C   0  0  0  0  0  0  0  0  0  0  0  0
  -27.2050  -28.5250   20.7750 C   0  0  0  0  0  3  0  0  0  0  0  0
  -25.9780  -26.8520   19.5480 C   0  0  0  0  0  3  0  0  0  0  0  0
  -24.8440  -27.6920   19.5310 C   0  0  0  0  0  3  0  0  0  0  0  0
  -23.6430  -29.8480   20.2020 C   0  0  0  0  0  2  0  0  0  0  0  0
  -24.6940  -31.0890   22.1350 N   0  0  0  0  0  0  0  0  0  0  0  0
  -23.5360  -32.1930   23.7550 O   0  0  0  0  0  0  0  0  0  0  0  0
  -22.7320  -29.5160   22.5370 C   0  0  0  0  0  0  0  0  0  0  0  0
  -21.4030  -29.3570   22.4040 N   0  0  0  0  0  0  0  0  0  0  0  0
  -23.3970  -28.8800   23.3600 O   0  0  0  0  0  0  0  0  0  0  0  0
  -20.9240  -29.9200   21.7150 H   0  0  0  0  0  0  0  0  0  0  0  0
  -18.0080  -28.1950   22.9040 C   0  0  0  0  0  0  0  0  0  0  0  0
  -20.5720  -28.4240   23.1690 C   0  0  0  0  0  3  0  0  0  0  0  0
  -20.6540  -26.9950   22.5840 C   0  0  0  0  0  2  0  0  0  0  0  0
  -19.5460  -26.6940   21.5690 C   0  0  0  0  0  2  0  0  0  0  0  0
  -18.1670  -26.8500   22.2160 C   0  0  0  0  0  2  0  0  0  0  0  0
  -19.1370  -28.9410   23.3380 C   0  0  0  0  0  0  0  0  0  0  0  0
  -18.9340  -30.2000   23.9430 C   0  0  0  0  0  3  0  0  0  0  0  0
  -17.6350  -30.7130   24.1190 C   0  0  0  0  0  3  0  0  0  0  0  0
  -16.5210  -29.9650   23.7000 C   0  0  0  0  0  3  0  0  0  0  0  0
  -16.7090  -28.7080   23.0990 C   0  0  0  0  0  3  0  0  0  0  0  0
  -25.9010  -32.5300   23.8660 C   0  0  0  0  0  3  0  0  0  0  0  0
  -25.5940  -33.9270   24.2070 N   0  0  0  0  0  0  0  0  0  0  0  0
  -25.9110  -34.9870   23.4520 C   0  0  0  0  0  0  0  0  0  0  0  0
  -26.5610  -34.8900   22.4060 O   0  0  0  0  0  0  0  0  0  0  0  0
  -25.0160  -34.0770   25.0210 H   0  0  0  0  0  0  0  0  0  0  0  0
  -24.1670  -36.7770   23.1600 C   0  0  0  0  0  1  0  0  0  0  0  0
  -25.4350  -36.3730   23.9290 C   0  0  0  0  0  3  0  0  0  0  0  0
  -27.5900  -37.2680   24.6950 C   0  0  0  0  0  1  0  0  0  0  0  0
  -26.4600  -37.4300   23.7840 N   0  0  0  0  0  0  0  0  0  0  0  0
  -26.0550  -38.3490   23.9420 H   0  0  0  0  0  0  0  0  0  0  0  0
  -26.4040  -31.7490   25.1440 C   0  0  1  0  0  0  0  0  0  0  0  0
  -25.3020  -31.5130   26.2030 C   0  0  0  0  0  1  0  0  0  0  0  0
  -26.9820  -30.3700   24.7530 C   0  0  0  0  0  1  0  0  0  0  0  0
  -27.5540  -32.5340   25.8180 C   0  0  0  0  0  1  0  0  0  0  0  0
  -29.1350  -19.0220   20.4570 C   0  0  0  0  0  3  0  0  0  0  0  0
  -30.1670  -17.6810   20.3980 C   0  0  0  0  0  3  0  0  0  0  0  0
  -30.5090  -14.9690   20.3490 C   0  0  0  0  0  0  0  0  0  0  0  0
  -30.3640  -12.6360   19.3820 C   0  0  0  0  0  2  0  0  0  0  0  0
  -29.4310  -12.6190   18.1490 C   0  0  0  0  0  2  0  0  0  0  0  0
  -27.9690  -12.4050   18.5820 C   0  0  0  0  0  2  0  0  0  0  0  0
  -27.5660  -13.3180   19.7700 C   0  0  0  0  0  3  0  0  0  0  0  0
  -28.6220  -13.3190   20.8960 C   0  0  0  0  0  2  0  0  0  0  0  0
  -29.8970  -13.7210   20.2900 N   0  0  0  0  0  0  0  0  0  0  0  0
  -31.7060  -15.0300   20.0520 O   0  0  0  0  0  0  0  0  0  0  0  0
  -29.7540  -16.1610   20.5240 N   0  0  0  0  0  0  0  0  0  0  0  0
  -28.7790  -15.9980   20.7270 H   0  0  0  0  0  0  0  0  0  0  0  0
  -25.1810  -13.8840   20.5090 C   0  0  0  0  0  0  0  0  0  0  0  0
  -24.1210  -13.1030   20.8790 C   0  0  0  0  0  0  0  0  0  0  0  0
  -24.5930  -11.7560   20.8480 C   0  0  0  0  0  0  0  0  0  0  0  0
  -26.2300  -13.0130   20.2680 N   0  0  0  0  0  0  0  0  0  0  0  0
  -25.8850  -11.7260   20.5380 N   0  0  0  0  0  0  0  0  0  0  0  0
  -23.8730  -10.4890   21.0360 C   0  0  0  0  0  0  0  0  0  0  0  0
  -24.3040   -9.5250   21.9730 C   0  0  0  0  0  3  0  0  0  0  0  0
  -23.5820   -8.3250   22.1500 C   0  0  0  0  0  3  0  0  0  0  0  0
  -22.4140   -8.0800   21.3880 C   0  0  0  0  0  0  0  0  0  0  0  0
  -22.0030   -9.0330   20.4390 C   0  0  0  0  0  3  0  0  0  0  0  0
  -22.7260  -10.2250   20.2610 C   0  0  0  0  0  3  0  0  0  0  0  0
  -21.6640   -6.9320   21.4740 O   0  0  0  0  0  0  0  0  0  0  0  0
  -21.6030   -6.1950   22.6300 C   0  0  0  0  0  0  0  0  0  0  0  0
  -21.1410   -6.7500   23.8430 C   0  0  0  0  0  3  0  0  0  0  0  0
  -21.0280   -5.9390   24.9910 C   0  0  0  0  0  3  0  0  0  0  0  0
  -21.3710   -4.5760   24.9250 C   0  0  0  0  0  0  0  0  0  0  0  0
  -21.8260   -4.0200   23.7170 C   0  0  0  0  0  3  0  0  0  0  0  0
  -21.9400   -4.8280   22.5720 C   0  0  0  0  0  0  0  0  0  0  0  0
  -22.3590   -4.2820   21.4050 F   0  0  0  0  0  0  0  0  0  0  0  0
  -21.2560   -3.7940   26.0260 F   0  0  0  0  0  0  0  0  0  0  0  0
  -22.7210  -13.5730   21.1470 C   0  0  0  0  0  0  0  0  0  0  0  0
  -21.9950  -12.8770   22.0150 N   0  0  0  0  0  0  0  0  0  0  0  0
  -22.2790  -14.5940   20.6220 O   0  0  0  0  0  0  0  0  0  0  0  0
  -22.3650  -12.0520   22.4620 H   0  0  0  0  0  0  0  0  0  0  0  0
  -21.0550  -13.1740   22.2340 H   0  0  0  0  0  0  0  0  0  0  0  0
  -25.3360  -15.2560   20.3300 N   0  0  0  0  0  0  0  0  0  0  0  0
  -24.5630  -15.9030   20.4350 H   0  0  0  0  0  0  0  0  0  0  0  0
  -26.1720  -15.6960   19.9660 H   0  0  0  0  0  0  0  0  0  0  0  0
  1 53  1  0
  2  3  1  0
  2  1  1  0
  3  5  1  0
  4  2  2  0
  6  3  1  0
  7  1  1  0
  7 10  1  0
  7  8  1  0
  9  7  1  0
 11 12  1  0
 11 10  2  0
 13 24  2  0
 14 12  1  0
 14 19  1  0
 15 23  1  0
 15 25  1  0
 16 22  1  0
 16 18  1  0
 17 23  1  0
 18 19  2  0
 18 17  1  0
 20 14  2  0
 21 20  1  0
 21 16  2  0
 22 15  1  0
 23 13  1  0
 25 27  2  0
 26 25  1  0
 28 26  1  0
 29 38  2  0
 29 34  1  0
 30 26  1  0
 30 34  1  0
 31 30  1  0
 32 33  1  0
 32 31  1  0
 33 29  1  0
 34 35  2  0
 35 36  1  0
 37 36  2  0
 38 37  1  0
 39 13  1  0
 39 40  1  0
 39 49  1  0
 40 43  1  0
 41 45  1  0
 41 40  1  0
 42 41  2  0
 45 44  1  0
 47 45  1  0
 47 48  1  0
 47 46  1  0
 49 52  1  1
 49 50  1  0
 51 49  1  0
 54 53  2  0
 54 63  1  0
 55 63  1  0
 56 61  1  0
 57 58  1  0
 57 56  1  0
 59 58  1  0
 59 68  1  0
 59 60  1  0
 61 55  1  0
 61 60  1  0
 62 55  2  0
 63 64  1  0
 65 66  2  0
 66 85  1  0
 67 66  1  0
 67 70  1  0
 68 65  1  0
 68 69  1  0
 69 67  2  0
 70 71  1  0
 71 72  2  0
 73 76  1  0
 73 72  1  0
 74 73  2  0
 75 74  1  0
 75 70  2  0
 76 77  1  0
 77 78  1  0
 78 79  2  0
 80 79  1  0
 80 84  1  0
 81 80  2  0
 82 77  2  0
 82 81  1  0
 83 82  1  0
 85 86  1  0
 86 89  1  0
 86 88  1  0
 87 85  2  0
 90 91  1  0
 90 65  1  0
 92 90  1  0
M  ISO  4  11 101  12 101  55 100  63 100
M  END
>  <TORSDO>  (52) 
F 22

>  <SCORE>  (52) 
-13.495

>  <name>  (52) 
51

>  <ligand_id>  (52) 
51

>  <original_smiles>  (52) 
[H]c1c([H])c([H])c2c(c1[H])C([H])([H])C([H])([H])C([H])([H])C2([H])N([H])C(=O)C1([H])N(C(=O)C([H])(N([H])C(=O)C([H])(N([H])C([H])([H])[H])C([H])([H])[H])C(C([H])([H])[H])(C([H])([H])[H])C([H])([H])[H])C([H])([H])c2c([H])c(OC([H])([H])C([H])([H])[N+]([H])([H])C([H])(C(=O)N([H])[H])C([H])([H])C([H])([H])N([H])C(=O)N3C([H])([H])C([H])([H])C([H])([H])C([H])(n4nc(-c5c([H])c([H])c(Oc6c([H])c([H])c(F)c([H])c6F)c([H])c5[H])c(C(=O)N([H])[H])c4N([H])[H])C3([H])[H])c([H])c([H])c2C1([H])[H]

>  <smiles>  (52) 
[H]c1c([H])c([H])c2c(c1[H])C([H])([H])C([H])([H])C([H])([H])C2([H])N([H])C(=O)C1([H])N(C(=O)C([H])(N([H])C(=O)C([H])(N([H])C([H])([H])[H])C([H])([H])[H])C(C([H])([H])[H])(C([H])([H])[H])C([H])([H])[H])C([H])([H])c2c([H])c(OC([H])([H])C([H])([H])[N+]([H])([H])C([H])(C(=O)N([H])[H])C([H])([H])C([H])([H])N([H])C(=O)N3C([H])([H])C([H])([H])C([H])([H])C([H])(n4nc(-c5c([H])c([H])c(Oc6c([H])c([H])c(F)c([H])c6F)c([H])c5[H])c(C(=O)N([H])[H])c4N([H])[H])C3([H])[H])c([H])c([H])c2C1([H])[H]

$$$$
52:0:0
     RDKit          3D

 96103  0  0  1  0  0  0  0  0999 V2000
  -29.0650  -19.4630   19.5810 C   0  0  0  0  0  3  0  0  0  0  0  0
  -29.3860  -21.1100   19.7090 N   0  0  0  0  0  4  0  0  0  0  0  0
  -29.8030  -21.3330   18.8180 H   0  0  0  0  0  0  0  0  0  0  0  0
  -30.1500  -21.1580   20.3630 H   0  0  0  0  0  0  0  0  0  0  0  0
  -26.9500  -22.1300   19.8130 C   0  0  0  0  0  1  0  0  0  0  0  0
  -28.4340  -22.4470   20.0890 C   0  0  0  0  0  3  0  0  0  0  0  0
  -28.6080  -24.1750   19.5970 C   0  0  0  0  0  2  0  0  0  0  0  0
  -28.3600  -25.6720   20.2570 O   0  0  0  0  0  0  0  0  0  0  0  0
  -24.4860  -31.4630   23.0900 C   0  0  0  0  0  0  0  0  0  0  0  0
  -27.3050  -26.7130   20.1060 C   0  0  0  0  0  0  0  0  0  0  0  0
  -23.3930  -30.0380   21.4040 C   0  0  0  0  0  3  0  0  0  0  0  0
  -24.9420  -28.5040   20.0040 C   0  0  0  0  0  0  0  0  0  0  0  0
  -25.9510  -30.3440   21.3390 C   0  0  0  0  0  2  0  0  0  0  0  0
  -26.0900  -28.9460   20.6700 C   0  0  0  0  0  0  0  0  0  0  0  0
  -27.2610  -28.0680   20.7020 C   0  0  0  0  0  3  0  0  0  0  0  0
  -26.1280  -26.4240   19.3810 C   0  0  0  0  0  3  0  0  0  0  0  0
  -24.9860  -27.2670   19.3390 C   0  0  0  0  0  3  0  0  0  0  0  0
  -23.6880  -29.3790   20.0270 C   0  0  0  0  0  2  0  0  0  0  0  0
  -24.6290  -30.6410   21.9990 N   0  0  0  0  0  0  0  0  0  0  0  0
  -23.3730  -31.7100   23.5820 O   0  0  0  0  0  0  0  0  0  0  0  0
  -22.7090  -29.0080   22.3420 C   0  0  0  0  0  0  0  0  0  0  0  0
  -21.3810  -28.8300   22.2100 N   0  0  0  0  0  0  0  0  0  0  0  0
  -23.3810  -28.3680   23.1550 O   0  0  0  0  0  0  0  0  0  0  0  0
  -20.8910  -29.4000   21.5330 H   0  0  0  0  0  0  0  0  0  0  0  0
  -18.0020  -27.6280   22.7470 C   0  0  0  0  0  0  0  0  0  0  0  0
  -20.5690  -27.8630   22.9580 C   0  0  0  0  0  3  0  0  0  0  0  0
  -20.6440  -26.4590   22.3130 C   0  0  0  0  0  2  0  0  0  0  0  0
  -19.5150  -26.1950   21.3120 C   0  0  0  0  0  2  0  0  0  0  0  0
  -18.1510  -26.3160   21.9980 C   0  0  0  0  0  2  0  0  0  0  0  0
  -19.1360  -28.3630   23.1850 C   0  0  0  0  0  0  0  0  0  0  0  0
  -18.9390  -29.5930   23.8500 C   0  0  0  0  0  3  0  0  0  0  0  0
  -17.6410  -30.0860   24.0810 C   0  0  0  0  0  3  0  0  0  0  0  0
  -16.5230  -29.3490   23.6570 C   0  0  0  0  0  3  0  0  0  0  0  0
  -16.7040  -28.1220   22.9960 C   0  0  0  0  0  3  0  0  0  0  0  0
  -25.7130  -32.1480   23.7640 C   0  0  0  0  0  3  0  0  0  0  0  0
  -26.1730  -31.4280   25.0930 C   0  0  1  0  0  0  0  0  0  0  0  0
  -25.0270  -31.1970   26.1070 C   0  0  0  0  0  1  0  0  0  0  0  0
  -26.8040  -30.0510   24.7860 C   0  0  0  0  0  1  0  0  0  0  0  0
  -27.2720  -32.2640   25.7880 C   0  0  0  0  0  1  0  0  0  0  0  0
  -25.3550  -33.5510   24.0480 N   0  0  0  0  0  0  0  0  0  0  0  0
  -25.6890  -34.5980   23.2820 C   0  0  0  0  0  0  0  0  0  0  0  0
  -26.3940  -34.4870   22.2760 O   0  0  0  0  0  0  0  0  0  0  0  0
  -24.7370  -33.7080   24.8300 H   0  0  0  0  0  0  0  0  0  0  0  0
  -23.9270  -36.3430   22.8480 C   0  0  0  0  0  1  0  0  0  0  0  0
  -25.1590  -35.9870   23.6940 C   0  0  0  0  0  3  0  0  0  0  0  0
  -27.2480  -36.9510   24.5540 C   0  0  0  0  0  1  0  0  0  0  0  0
  -26.1670  -37.0620   23.5780 N   0  0  0  0  0  0  0  0  0  0  0  0
  -25.7340  -37.9740   23.6890 H   0  0  0  0  0  0  0  0  0  0  0  0
  -27.9000  -19.1390   20.5280 C   0  0  0  0  0  0  0  0  0  0  0  0
  -27.6850  -19.7630   21.5720 O   0  0  0  0  0  0  0  0  0  0  0  0
  -26.9760  -17.9950   20.0830 C   0  0  0  0  0  2  0  0  0  0  0  0
  -26.0930  -17.3840   21.1910 C   0  0  0  0  0  2  0  0  0  0  0  0
  -25.2280  -16.2190   20.6600 C   0  0  0  0  0  2  0  0  0  0  0  0
  -24.2520  -15.7290   21.6510 N   0  0  0  0  0  4  0  0  0  0  0  0
  -24.7090  -15.3650   22.4690 H   0  0  0  0  0  0  0  0  0  0  0  0
  -23.7050  -14.9860   21.2480 H   0  0  0  0  0  0  0  0  0  0  0  0
  -23.6190  -16.4570   21.9300 H   0  0  0  0  0  0  0  0  0  0  0  0
  -30.1870  -18.0470   19.5940 C   0  0  0  0  0  2  0  0  0  0  0  0
  -30.7560  -15.1580   19.8590 C   0  0  0  0  0  0  0  0  0  0  0  0
  -30.8020  -12.6680   19.1440 C   0  0  0  0  0  2  0  0  0  0  0  0
  -29.9280  -12.3870   17.8960 C   0  0  0  0  0  2  0  0  0  0  0  0
  -28.4720  -12.1190   18.3070 C   0  0  0  0  0  2  0  0  0  0  0  0
  -27.9700  -13.1390   19.3570 C   0  0  0  0  0  3  0  0  0  0  0  0
  -28.9740  -13.3680   20.5070 C   0  0  0  0  0  2  0  0  0  0  0  0
  -30.2180  -13.8430   19.8850 N   0  0  0  0  0  0  0  0  0  0  0  0
  -31.9780  -15.1770   19.6570 O   0  0  0  0  0  0  0  0  0  0  0  0
  -29.9560  -16.4070   19.8630 N   0  0  0  0  0  0  0  0  0  0  0  0
  -28.9850  -16.1920   20.0310 H   0  0  0  0  0  0  0  0  0  0  0  0
  -25.5630  -13.6970   19.9730 C   0  0  0  0  0  0  0  0  0  0  0  0
  -24.5060  -12.9250   20.3700 C   0  0  0  0  0  0  0  0  0  0  0  0
  -25.0080  -11.5930   20.4770 C   0  0  0  0  0  0  0  0  0  0  0  0
  -26.6330  -12.8310   19.8450 N   0  0  0  0  0  0  0  0  0  0  0  0
  -26.3110  -11.5660   20.2220 N   0  0  0  0  0  0  0  0  0  0  0  0
  -24.3050  -10.3320   20.7510 C   0  0  0  0  0  0  0  0  0  0  0  0
  -24.6350   -9.5290   21.8630 C   0  0  0  0  0  3  0  0  0  0  0  0
  -23.9290   -8.3340   22.1190 C   0  0  0  0  0  3  0  0  0  0  0  0
  -22.8780   -7.9330   21.2600 C   0  0  0  0  0  0  0  0  0  0  0  0
  -22.5690   -8.7250   20.1400 C   0  0  0  0  0  3  0  0  0  0  0  0
  -23.2760   -9.9120   19.8840 C   0  0  0  0  0  3  0  0  0  0  0  0
  -22.1550   -6.7750   21.4140 O   0  0  0  0  0  0  0  0  0  0  0  0
  -21.8450   -6.2800   22.6550 C   0  0  0  0  0  0  0  0  0  0  0  0
  -21.1030   -7.0320   23.5930 C   0  0  0  0  0  3  0  0  0  0  0  0
  -20.7470   -6.4590   24.8290 C   0  0  0  0  0  3  0  0  0  0  0  0
  -21.1210   -5.1340   25.1280 C   0  0  0  0  0  0  0  0  0  0  0  0
  -21.8520   -4.3830   24.1910 C   0  0  0  0  0  3  0  0  0  0  0  0
  -22.2100   -4.9540   22.9580 C   0  0  0  0  0  0  0  0  0  0  0  0
  -22.8960   -4.2170   22.0510 F   0  0  0  0  0  0  0  0  0  0  0  0
  -20.7700   -4.5800   26.3120 F   0  0  0  0  0  0  0  0  0  0  0  0
  -23.0890  -13.3860   20.5370 C   0  0  0  0  0  0  0  0  0  0  0  0
  -22.3450  -12.7600   21.4410 N   0  0  0  0  0  0  0  0  0  0  0  0
  -22.6500  -14.3420   19.8970 O   0  0  0  0  0  0  0  0  0  0  0  0
  -22.7130  -11.9900   21.9810 H   0  0  0  0  0  0  0  0  0  0  0  0
  -21.3930  -13.0620   21.6000 H   0  0  0  0  0  0  0  0  0  0  0  0
  -25.7010  -15.0500   19.6840 N   0  0  0  0  0  0  0  0  0  0  0  0
  -24.9090  -15.6840   19.6960 H   0  0  0  0  0  0  0  0  0  0  0  0
  -26.5430  -15.4680   19.3150 H   0  0  0  0  0  0  0  0  0  0  0  0
  1 58  1  0
  1  2  1  0
  1 49  1  0
  2  6  1  0
  2  4  1  0
  3  2  1  0
  6  5  1  0
  7  6  1  0
  7  8  1  0
  9 20  2  0
 10  8  1  0
 10 15  1  0
 11 19  1  0
 11 21  1  0
 12 18  1  0
 12 14  1  0
 13 19  1  0
 14 15  2  0
 14 13  1  0
 16 10  2  0
 17 16  1  0
 17 12  2  0
 18 11  1  0
 19  9  1  0
 21 23  2  0
 22 21  1  0
 24 22  1  0
 25 34  2  0
 25 30  1  0
 26 22  1  0
 26 30  1  0
 27 26  1  0
 28 29  1  0
 28 27  1  0
 29 25  1  0
 30 31  2  0
 31 32  1  0
 33 32  2  0
 34 33  1  0
 35  9  1  0
 35 40  1  0
 35 36  1  0
 36 39  1  1
 36 37  1  0
 38 36  1  0
 40 43  1  0
 41 45  1  0
 41 40  1  0
 42 41  2  0
 45 44  1  0
 47 48  1  0
 47 45  1  0
 47 46  1  0
 49 50  2  0
 51 49  1  0
 51 52  1  0
 53 52  1  0
 53 54  1  0
 54 57  1  0
 54 55  1  0
 56 54  1  0
 58 67  1  0
 59 67  1  0
 59 65  1  0
 60 65  1  0
 61 62  1  0
 61 60  1  0
 63 62  1  0
 63 72  1  0
 63 64  1  0
 65 64  1  0
 66 59  2  0
 67 68  1  0
 69 70  2  0
 70 71  1  0
 70 89  1  0
 71 74  1  0
 72 69  1  0
 72 73  1  0
 73 71  2  0
 74 75  1  0
 75 76  2  0
 77 80  1  0
 77 76  1  0
 78 77  2  0
 79 78  1  0
 79 74  2  0
 80 81  1  0
 81 86  2  0
 81 82  1  0
 82 83  2  0
 83 84  1  0
 84 88  1  0
 85 84  2  0
 86 85  1  0
 87 86  1  0
 89 90  1  0
 90 93  1  0
 90 92  1  0
 91 89  2  0
 94 95  1  0
 94 69  1  0
 96 94  1  0
M  ISO  4   7 101   8 101  59 100  67 100
M  END
>  <TORSDO>  (53) 
F 25

>  <SCORE>  (53) 
-7.151

>  <name>  (53) 
52

>  <ligand_id>  (53) 
52

>  <original_smiles>  (53) 
[H]c1c([H])c([H])c2c(c1[H])C([H])([H])C([H])([H])C([H])([H])C2([H])N([H])C(=O)C1([H])N(C(=O)C([H])(N([H])C(=O)C([H])(N([H])C([H])([H])[H])C([H])([H])[H])C(C([H])([H])[H])(C([H])([H])[H])C([H])([H])[H])C([H])([H])c2c([H])c(OC([H])([H])C([H])(C([H])([H])[H])[N+]([H])([H])C([H])(C(=O)C([H])([H])C([H])([H])C([H])([H])[N+]([H])([H])[H])C([H])([H])N([H])C(=O)N3C([H])([H])C([H])([H])C([H])([H])C([H])(n4nc(-c5c([H])c([H])c(Oc6c([H])c([H])c(F)c([H])c6F)c([H])c5[H])c(C(=O)N([H])[H])c4N([H])[H])C3([H])[H])c([H])c([H])c2C1([H])[H]

>  <smiles>  (53) 
[H]c1c([H])c([H])c2c(c1[H])C([H])([H])C([H])([H])C([H])([H])C2([H])N([H])C(=O)C1([H])N(C(=O)C([H])(N([H])C(=O)C([H])(N([H])C([H])([H])[H])C([H])([H])[H])C(C([H])([H])[H])(C([H])([H])[H])C([H])([H])[H])C([H])([H])c2c([H])c(OC([H])([H])C([H])(C([H])([H])[H])[N+]([H])([H])C([H])(C(=O)C([H])([H])C([H])([H])C([H])([H])[N+]([H])([H])[H])C([H])([H])N([H])C(=O)N3C([H])([H])C([H])([H])C([H])([H])C([H])(n4nc(-c5c([H])c([H])c(Oc6c([H])c([H])c(F)c([H])c6F)c([H])c5[H])c(C(=O)N([H])[H])c4N([H])[H])C3([H])[H])c([H])c([H])c2C1([H])[H]

$$$$
53:0:0
     RDKit          3D

103112  0  0  1  0  0  0  0  0999 V2000
  -27.6620  -18.1890   19.7860 C   0  0  0  0  0  3  0  0  0  0  0  0
  -27.5180  -18.9710   20.9390 C   0  0  0  0  0  3  0  0  0  0  0  0
  -28.3690  -18.7320   18.7020 C   0  0  0  0  0  0  0  0  0  0  0  0
  -28.7700  -20.0960   18.7420 C   0  0  0  0  0  0  0  0  0  0  0  0
  -28.9300  -20.5990   20.0620 C   0  0  0  0  0  0  0  0  0  0  0  0
  -30.9700  -20.2590   21.3570 C   0  0  0  0  0  2  0  0  0  0  0  0
  -30.7750  -22.3580   19.9600 C   0  0  0  0  0  2  0  0  0  0  0  0
  -32.4540  -20.1600   20.9740 C   0  0  0  0  0  2  0  0  0  0  0  0
  -32.2800  -22.1840   19.6110 C   0  0  0  0  0  2  0  0  0  0  0  0
  -34.4940  -21.4540   20.4890 C   0  0  0  0  0  1  0  0  0  0  0  0
  -28.2160  -20.1120   21.1090 N   0  0  0  0  0  0  0  0  0  0  0  0
  -30.1930  -21.1000   20.4370 N   0  0  0  0  0  0  0  0  0  0  0  0
  -33.0270  -21.4980   20.7000 N   0  0  2  0  0  4  0  0  0  0  0  0
  -32.8880  -22.0370   21.5400 H   0  0  0  0  0  0  0  0  0  0  0  0
  -29.1850  -20.7890   17.5730 N   0  0  0  0  0  0  0  0  0  0  0  0
  -29.9820  -20.3360   17.1350 H   0  0  0  0  0  0  0  0  0  0  0  0
  -29.3640  -22.2660   17.6430 C   0  0  0  0  0  2  0  0  0  0  0  0
  -26.8270  -22.6010   17.5990 C   0  0  0  0  0  1  0  0  0  0  0  0
  -28.1790  -23.1660   17.1450 C   0  0  0  0  0  3  0  0  0  0  0  0
  -28.3720  -24.6780   17.5410 C   0  0  0  0  0  2  0  0  0  0  0  0
  -27.3990  -25.9620   15.5020 C   0  0  0  0  0  1  0  0  0  0  0  0
  -27.3470  -25.7320   17.0180 C   0  0  0  0  0  3  0  0  0  0  0  0
  -27.6180  -27.0280   17.6080 O   0  0  0  0  0  0  0  0  0  0  0  0
  -25.4660  -30.7160   23.3160 C   0  0  0  0  0  0  0  0  0  0  0  0
  -26.6190  -27.8360   18.1400 C   0  0  0  0  0  0  0  0  0  0  0  0
  -23.7740  -30.3960   21.5470 C   0  0  0  0  0  3  0  0  0  0  0  0
  -24.6480  -29.5170   19.3210 C   0  0  0  0  0  0  0  0  0  0  0  0
  -26.2660  -30.4650   20.9670 C   0  0  0  0  0  2  0  0  0  0  0  0
  -25.9620  -29.5370   19.8020 C   0  0  0  0  0  0  0  0  0  0  0  0
  -26.9540  -28.7160   19.2030 C   0  0  0  0  0  3  0  0  0  0  0  0
  -25.2760  -27.8370   17.6870 C   0  0  0  0  0  3  0  0  0  0  0  0
  -24.3010  -28.6690   18.2590 C   0  0  0  0  0  3  0  0  0  0  0  0
  -23.6550  -30.4320   20.0050 C   0  0  0  0  0  2  0  0  0  0  0  0
  -25.1970  -30.5050   21.9960 N   0  0  0  0  0  0  0  0  0  0  0  0
  -24.5550  -30.8530   24.1440 O   0  0  0  0  0  0  0  0  0  0  0  0
  -23.0560  -29.1400   22.0910 C   0  0  0  0  0  0  0  0  0  0  0  0
  -21.7140  -29.1500   22.0460 N   0  0  0  0  0  0  0  0  0  0  0  0
  -23.7030  -28.1770   22.5130 O   0  0  0  0  0  0  0  0  0  0  0  0
  -21.2620  -29.9900   21.7090 H   0  0  0  0  0  0  0  0  0  0  0  0
  -18.2600  -28.0710   22.1250 C   0  0  0  0  0  0  0  0  0  0  0  0
  -20.8250  -28.0710   22.4710 C   0  0  0  0  0  3  0  0  0  0  0  0
  -20.8590  -26.8940   21.4700 C   0  0  0  0  0  2  0  0  0  0  0  0
  -19.7610  -26.9720   20.4060 C   0  0  0  0  0  2  0  0  0  0  0  0
  -18.3750  -26.9930   21.0580 C   0  0  0  0  0  2  0  0  0  0  0  0
  -19.4110  -28.5880   22.7770 C   0  0  0  0  0  0  0  0  0  0  0  0
  -19.2600  -29.6120   23.7340 C   0  0  0  0  0  3  0  0  0  0  0  0
  -17.9830  -30.1080   24.0570 C   0  0  0  0  0  3  0  0  0  0  0  0
  -16.8440  -29.5870   23.4190 C   0  0  0  0  0  3  0  0  0  0  0  0
  -16.9820  -28.5730   22.4540 C   0  0  0  0  0  3  0  0  0  0  0  0
  -26.9340  -30.8150   23.8410 C   0  0  0  0  0  3  0  0  0  0  0  0
  -26.9680  -31.9040   24.8250 N   0  0  0  0  0  0  0  0  0  0  0  0
  -27.5350  -33.1000   24.6150 C   0  0  0  0  0  0  0  0  0  0  0  0
  -28.1490  -33.3810   23.5830 O   0  0  0  0  0  0  0  0  0  0  0  0
  -26.4440  -31.7700   25.6760 H   0  0  0  0  0  0  0  0  0  0  0  0
  -26.3520  -35.2050   25.3260 C   0  0  0  0  0  1  0  0  0  0  0  0
  -27.4000  -34.1550   25.7320 C   0  0  0  0  0  3  0  0  0  0  0  0
  -29.6400  -33.9480   26.7140 C   0  0  0  0  0  1  0  0  0  0  0  0
  -28.6730  -34.8320   26.0670 N   0  0  0  0  0  0  0  0  0  0  0  0
  -28.5090  -35.6190   26.6870 H   0  0  0  0  0  0  0  0  0  0  0  0
  -27.4630  -29.4730   24.4760 C   0  0  1  0  0  0  0  0  0  0  0  0
  -26.5120  -28.8840   25.5450 C   0  0  0  0  0  1  0  0  0  0  0  0
  -27.6870  -28.4020   23.3840 C   0  0  0  0  0  1  0  0  0  0  0  0
  -28.8370  -29.7170   25.1420 C   0  0  0  0  0  1  0  0  0  0  0  0
  -28.8770  -17.7670   17.6490 C   0  0  0  0  0  2  0  0  0  0  0  0
  -30.0470  -16.8620   18.1630 C   0  0  0  0  0  2  0  0  0  0  0  0
  -30.6140  -14.7400   19.4020 C   0  0  0  0  0  0  0  0  0  0  0  0
  -30.6470  -12.2860   19.4190 C   0  0  0  0  0  2  0  0  0  0  0  0
  -29.7250  -11.8240   18.2710 C   0  0  0  0  0  2  0  0  0  0  0  0
  -28.2750  -11.6830   18.7760 C   0  0  0  0  0  2  0  0  0  0  0  0
  -27.7920  -12.9240   19.5770 C   0  0  0  0  0  3  0  0  0  0  0  0
  -28.8430  -13.4000   20.6060 C   0  0  0  0  0  2  0  0  0  0  0  0
  -30.1150  -13.5730   19.8900 N   0  0  0  0  0  0  0  0  0  0  0  0
  -31.8010  -14.8650   19.0810 O   0  0  0  0  0  0  0  0  0  0  0  0
  -29.7140  -15.6750   19.0080 N   0  0  0  0  0  0  0  0  0  0  0  0
  -28.7450  -15.5320   19.2560 H   0  0  0  0  0  0  0  0  0  0  0  0
  -25.5490  -13.6110   20.6280 C   0  0  0  0  0  0  0  0  0  0  0  0
  -24.4750  -12.8870   21.0500 C   0  0  0  0  0  0  0  0  0  0  0  0
  -24.8150  -11.5190   20.8220 C   0  0  0  0  0  0  0  0  0  0  0  0
  -26.4890  -12.6930   20.1890 N   0  0  0  0  0  0  0  0  0  0  0  0
  -26.0570  -11.4190   20.3680 N   0  0  0  0  0  0  0  0  0  0  0  0
  -24.0130  -10.3010   20.9650 C   0  0  0  0  0  0  0  0  0  0  0  0
  -24.3810   -9.2740   21.8650 C   0  0  0  0  0  3  0  0  0  0  0  0
  -23.5800   -8.1190   21.9960 C   0  0  0  0  0  3  0  0  0  0  0  0
  -22.3980   -7.9820   21.2300 C   0  0  0  0  0  0  0  0  0  0  0  0
  -22.0460   -9.0010   20.3260 C   0  0  0  0  0  3  0  0  0  0  0  0
  -22.8450  -10.1490   20.1920 C   0  0  0  0  0  3  0  0  0  0  0  0
  -21.5730   -6.8860   21.2690 O   0  0  0  0  0  0  0  0  0  0  0  0
  -21.3900   -6.1690   22.4250 C   0  0  0  0  0  0  0  0  0  0  0  0
  -20.8550   -6.7610   23.5900 C   0  0  0  0  0  3  0  0  0  0  0  0
  -20.6160   -5.9720   24.7340 C   0  0  0  0  0  3  0  0  0  0  0  0
  -20.9030   -4.5940   24.7130 C   0  0  0  0  0  0  0  0  0  0  0  0
  -21.4380   -4.0040   23.5550 C   0  0  0  0  0  3  0  0  0  0  0  0
  -21.6790   -4.7900   22.4130 C   0  0  0  0  0  0  0  0  0  0  0  0
  -22.1690   -4.2130   21.2900 F   0  0  0  0  0  0  0  0  0  0  0  0
  -20.6730   -3.8340   25.8110 F   0  0  0  0  0  0  0  0  0  0  0  0
  -23.1630  -13.4330   21.5360 C   0  0  0  0  0  0  0  0  0  0  0  0
  -22.4860  -12.7000   22.4100 N   0  0  0  0  0  0  0  0  0  0  0  0
  -22.7590  -14.5380   21.1760 O   0  0  0  0  0  0  0  0  0  0  0  0
  -22.8310  -11.7990   22.7070 H   0  0  0  0  0  0  0  0  0  0  0  0
  -21.6110  -13.0390   22.7860 H   0  0  0  0  0  0  0  0  0  0  0  0
  -25.7910  -14.9730   20.5490 N   0  0  0  0  0  0  0  0  0  0  0  0
  -25.0430  -15.6350   20.7180 H   0  0  0  0  0  0  0  0  0  0  0  0
  -26.5690  -15.3650   20.0400 H   0  0  0  0  0  0  0  0  0  0  0  0
  1  2  1  0
  2 11  2  0
  3  4  1  0
  3  1  2  0
  4  5  2  0
  5 12  1  0
  5 11  1  0
  7 12  1  0
  8  6  1  0
  9  7  1  0
  9 13  1  0
 10 13  1  0
 12  6  1  0
 13  8  1  0
 13 14  1  1
 15 17  1  0
 15  4  1  0
 16 15  1  0
 19 20  1  0
 19 18  1  0
 19 17  1  0
 22 21  1  0
 22 20  1  0
 22 23  1  0
 23 25  1  0
 24 35  2  0
 25 30  1  0
 26 34  1  0
 26 36  1  0
 27 29  1  0
 27 33  1  0
 28 34  1  0
 29 28  1  0
 30 29  2  0
 31 25  2  0
 31 32  1  0
 32 27  2  0
 33 26  1  0
 34 24  1  0
 36 38  2  0
 37 36  1  0
 39 37  1  0
 40 49  2  0
 40 45  1  0
 41 37  1  0
 41 45  1  0
 42 41  1  0
 43 44  1  0
 43 42  1  0
 44 40  1  0
 45 46  2  0
 46 47  1  0
 48 47  2  0
 49 48  1  0
 50 24  1  0
 50 60  1  0
 50 51  1  0
 51 54  1  0
 52 51  1  0
 52 56  1  0
 53 52  2  0
 56 55  1  0
 56 58  1  0
 58 59  1  0
 58 57  1  0
 60 63  1  1
 60 61  1  0
 62 60  1  0
 64 65  1  0
 64  3  1  0
 65 74  1  0
 66 72  1  0
 67 72  1  0
 68 69  1  0
 68 67  1  0
 70 69  1  0
 70 79  1  0
 70 71  1  0
 72 71  1  0
 73 66  2  0
 74 75  1  0
 74 66  1  0
 76 77  2  0
 77 96  1  0
 78 81  1  0
 78 77  1  0
 79 80  1  0
 79 76  1  0
 80 78  2  0
 81 82  1  0
 82 83  2  0
 84 87  1  0
 84 83  1  0
 85 84  2  0
 86 85  1  0
 86 81  2  0
 87 88  1  0
 88 89  1  0
 89 90  2  0
 91 90  1  0
 91 95  1  0
 92 91  2  0
 93 88  2  0
 93 92  1  0
 94 93  1  0
 96 97  1  0
 97 99  1  0
 97100  1  0
 98 96  2  0
101 76  1  0
101102  1  0
103101  1  0
M  ISO  4  22 101  23 101  66 100  74 100
M  END
>  <TORSDO>  (54) 
F 23

>  <SCORE>  (54) 
-8.474

>  <name>  (54) 
53

>  <ligand_id>  (54) 
53

>  <original_smiles>  (54) 
[H]c1nc(N2C([H])([H])C([H])([H])[N+]([H])(C([H])([H])[H])C([H])([H])C2([H])[H])c(N([H])C([H])([H])C([H])(C([H])([H])[H])C([H])([H])C([H])(Oc2c([H])c([H])c3c(c2[H])C([H])([H])N(C(=O)C([H])(N([H])C(=O)C([H])(N([H])C([H])([H])[H])C([H])([H])[H])C(C([H])([H])[H])(C([H])([H])[H])C([H])([H])[H])C([H])(C(=O)N([H])C2([H])c4c([H])c([H])c([H])c([H])c4C([H])([H])C([H])([H])C2([H])[H])C3([H])[H])C([H])([H])[H])c(C([H])([H])C([H])([H])N([H])C(=O)N2C([H])([H])C([H])([H])C([H])([H])C([H])(n3nc(-c4c([H])c([H])c(Oc5c([H])c([H])c(F)c([H])c5F)c([H])c4[H])c(C(=O)N([H])[H])c3N([H])[H])C2([H])[H])c1[H]

>  <smiles>  (54) 
[H]c1nc(N2C([H])([H])C([H])([H])[N+]([H])(C([H])([H])[H])C([H])([H])C2([H])[H])c(N([H])C([H])([H])C([H])(C([H])([H])[H])C([H])([H])C([H])(Oc2c([H])c([H])c3c(c2[H])C([H])([H])N(C(=O)C([H])(N([H])C(=O)C([H])(N([H])C([H])([H])[H])C([H])([H])[H])C(C([H])([H])[H])(C([H])([H])[H])C([H])([H])[H])C([H])(C(=O)N([H])C2([H])c4c([H])c([H])c([H])c([H])c4C([H])([H])C([H])([H])C2([H])[H])C3([H])[H])C([H])([H])[H])c(C([H])([H])C([H])([H])N([H])C(=O)N2C([H])([H])C([H])([H])C([H])([H])C([H])(n3nc(-c4c([H])c([H])c(Oc5c([H])c([H])c(F)c([H])c5F)c([H])c4[H])c(C(=O)N([H])[H])c3N([H])[H])C2([H])[H])c1[H]

$$$$
54:0:0
     RDKit          3D

 98106  0  0  1  0  0  0  0  0999 V2000
  -28.4480  -19.9290   19.2770 C   0  0  0  0  0  1  0  0  0  0  0  0
  -29.6610  -20.0100   20.2210 C   0  0  0  0  0  3  0  0  0  0  0  0
  -33.2970  -19.3920   19.1880 C   0  0  0  0  0  2  0  0  0  0  0  0
  -33.5150  -17.9770   19.7500 C   0  0  0  0  0  2  0  0  0  0  0  0
  -30.8840  -19.2110   19.6540 C   0  0  0  0  0  3  0  0  0  0  0  0
  -31.1080  -17.7720   20.2500 C   0  0  0  0  0  3  0  0  0  0  0  0
  -32.1190  -20.0140   19.8060 N   0  0  0  0  0  0  0  0  0  0  0  0
  -32.2840  -17.1910   19.5650 N   0  0  0  0  0  4  0  0  0  0  0  0
  -31.9330  -20.9190   19.3690 H   0  0  0  0  0  0  0  0  0  0  0  0
  -32.4020  -16.2300   19.8840 H   0  0  0  0  0  0  0  0  0  0  0  0
  -32.0870  -17.1420   18.5820 H   0  0  0  0  0  0  0  0  0  0  0  0
  -29.8810  -16.8170   20.1140 C   0  0  0  0  0  2  0  0  0  0  0  0
  -30.6760  -14.4380   20.4280 C   0  0  0  0  0  0  0  0  0  0  0  0
  -30.3590  -12.2860   19.3070 C   0  0  0  0  0  2  0  0  0  0  0  0
  -29.4320  -12.5200   18.0950 C   0  0  0  0  0  2  0  0  0  0  0  0
  -27.9510  -12.4130   18.5120 C   0  0  0  0  0  2  0  0  0  0  0  0
  -27.6220  -13.2420   19.7830 C   0  0  0  0  0  3  0  0  0  0  0  0
  -28.6660  -12.9990   20.9000 C   0  0  0  0  0  2  0  0  0  0  0  0
  -30.0020  -13.2650   20.3430 N   0  0  0  0  0  0  0  0  0  0  0  0
  -31.8110  -14.5990   19.9790 O   0  0  0  0  0  0  0  0  0  0  0  0
  -29.9280  -15.4960   20.7830 N   0  0  0  0  0  0  0  0  0  0  0  0
  -29.0750  -15.2390   21.2580 H   0  0  0  0  0  0  0  0  0  0  0  0
  -25.2230  -13.8770   20.4680 C   0  0  0  0  0  0  0  0  0  0  0  0
  -24.1450  -13.1160   20.8390 C   0  0  0  0  0  0  0  0  0  0  0  0
  -24.5940  -11.7600   20.8210 C   0  0  0  0  0  0  0  0  0  0  0  0
  -26.2630  -12.9840   20.2540 N   0  0  0  0  0  0  0  0  0  0  0  0
  -25.8850  -11.7070   20.5220 N   0  0  0  0  0  0  0  0  0  0  0  0
  -23.8540  -10.5060   21.0180 C   0  0  0  0  0  0  0  0  0  0  0  0
  -24.2810   -9.5410   21.9560 C   0  0  0  0  0  3  0  0  0  0  0  0
  -23.5470   -8.3510   22.1430 C   0  0  0  0  0  3  0  0  0  0  0  0
  -22.3710   -8.1180   21.3890 C   0  0  0  0  0  0  0  0  0  0  0  0
  -21.9610   -9.0740   20.4440 C   0  0  0  0  0  3  0  0  0  0  0  0
  -22.6960  -10.2570   20.2550 C   0  0  0  0  0  3  0  0  0  0  0  0
  -21.6040   -6.9810   21.4870 O   0  0  0  0  0  0  0  0  0  0  0  0
  -21.5600   -6.2380   22.6380 C   0  0  0  0  0  0  0  0  0  0  0  0
  -21.1580   -6.7960   23.8720 C   0  0  0  0  0  3  0  0  0  0  0  0
  -21.0600   -5.9780   25.0160 C   0  0  0  0  0  3  0  0  0  0  0  0
  -21.3550   -4.6050   24.9260 C   0  0  0  0  0  0  0  0  0  0  0  0
  -21.7500   -4.0450   23.6980 C   0  0  0  0  0  3  0  0  0  0  0  0
  -21.8490   -4.8600   22.5550 C   0  0  0  0  0  0  0  0  0  0  0  0
  -22.2090   -4.3120   21.3700 F   0  0  0  0  0  0  0  0  0  0  0  0
  -21.2540   -3.8170   26.0240 F   0  0  0  0  0  0  0  0  0  0  0  0
  -22.7500  -13.6070   21.0990 C   0  0  0  0  0  0  0  0  0  0  0  0
  -22.0090  -12.9270   21.9680 N   0  0  0  0  0  0  0  0  0  0  0  0
  -22.3230  -14.6320   20.5670 O   0  0  0  0  0  0  0  0  0  0  0  0
  -22.3650  -12.1000   22.4270 H   0  0  0  0  0  0  0  0  0  0  0  0
  -21.0730  -13.2390   22.1760 H   0  0  0  0  0  0  0  0  0  0  0  0
  -25.4000  -15.2440   20.2740 N   0  0  0  0  0  0  0  0  0  0  0  0
  -24.6350  -15.9020   20.3610 H   0  0  0  0  0  0  0  0  0  0  0  0
  -26.2550  -15.6720   19.9410 H   0  0  0  0  0  0  0  0  0  0  0  0
  -30.0160  -21.4270   20.4600 N   0  0  0  0  0  0  0  0  0  0  0  0
  -30.9320  -21.4140   20.9150 H   0  0  0  0  0  0  0  0  0  0  0  0
  -29.0610  -22.1990   21.2650 C   0  0  0  0  0  2  0  0  0  0  0  0
  -29.6950  -23.4990   21.8050 C   0  0  0  0  0  2  0  0  0  0  0  0
  -30.7620  -25.7360   21.3180 C   0  0  0  0  0  1  0  0  0  0  0  0
  -29.7040  -24.7190   20.8480 C   0  0  0  0  0  3  0  0  0  0  0  0
  -28.3080  -25.3800   20.7210 C   0  0  0  0  0  2  0  0  0  0  0  0
  -28.4000  -26.7110   20.1960 O   0  0  0  0  0  0  0  0  0  0  0  0
  -24.5700  -31.8820   23.2420 C   0  0  0  0  0  0  0  0  0  0  0  0
  -27.2280  -27.4280   20.1980 C   0  0  0  0  0  0  0  0  0  0  0  0
  -23.3720  -30.4740   21.5990 C   0  0  0  0  0  3  0  0  0  0  0  0
  -24.8320  -28.9240   20.1930 C   0  0  0  0  0  0  0  0  0  0  0  0
  -25.8980  -30.8290   21.4160 C   0  0  0  0  0  2  0  0  0  0  0  0
  -25.9870  -29.4560   20.7800 C   0  0  0  0  0  0  0  0  0  0  0  0
  -27.1900  -28.7170   20.7750 C   0  0  0  0  0  3  0  0  0  0  0  0
  -26.0560  -26.9040   19.6090 C   0  0  0  0  0  3  0  0  0  0  0  0
  -24.8610  -27.6470   19.6050 C   0  0  0  0  0  3  0  0  0  0  0  0
  -23.5880  -29.7840   20.2250 C   0  0  0  0  0  2  0  0  0  0  0  0
  -24.6310  -31.0760   22.1430 N   0  0  0  0  0  0  0  0  0  0  0  0
  -23.4860  -32.1580   23.7740 O   0  0  0  0  0  0  0  0  0  0  0  0
  -22.7120  -29.4580   22.5590 C   0  0  0  0  0  0  0  0  0  0  0  0
  -21.3870  -29.2840   22.4270 N   0  0  0  0  0  0  0  0  0  0  0  0
  -23.3890  -28.8290   23.3770 O   0  0  0  0  0  0  0  0  0  0  0  0
  -20.9020  -29.8480   21.7430 H   0  0  0  0  0  0  0  0  0  0  0  0
  -18.0000  -28.1280   22.9200 C   0  0  0  0  0  0  0  0  0  0  0  0
  -20.5590  -28.3540   23.1940 C   0  0  0  0  0  3  0  0  0  0  0  0
  -20.6440  -26.9230   22.6140 C   0  0  0  0  0  2  0  0  0  0  0  0
  -19.5390  -26.6170   21.5980 C   0  0  0  0  0  2  0  0  0  0  0  0
  -18.1600  -26.7790   22.2430 C   0  0  0  0  0  2  0  0  0  0  0  0
  -19.1270  -28.8760   23.3540 C   0  0  0  0  0  0  0  0  0  0  0  0
  -18.9260  -30.1410   23.9450 C   0  0  0  0  0  3  0  0  0  0  0  0
  -17.6280  -30.6590   24.1100 C   0  0  0  0  0  3  0  0  0  0  0  0
  -16.5140  -29.9080   23.6980 C   0  0  0  0  0  3  0  0  0  0  0  0
  -16.7010  -28.6450   23.1090 C   0  0  0  0  0  3  0  0  0  0  0  0
  -25.8550  -32.5110   23.8680 C   0  0  0  0  0  3  0  0  0  0  0  0
  -25.5490  -33.9110   24.1890 N   0  0  0  0  0  0  0  0  0  0  0  0
  -25.8910  -34.9580   23.4290 C   0  0  0  0  0  0  0  0  0  0  0  0
  -26.5690  -34.8480   22.4030 O   0  0  0  0  0  0  0  0  0  0  0  0
  -24.9480  -34.0680   24.9840 H   0  0  0  0  0  0  0  0  0  0  0  0
  -24.1720  -36.7550   23.0480 C   0  0  0  0  0  1  0  0  0  0  0  0
  -25.4010  -36.3490   23.8760 C   0  0  0  0  0  3  0  0  0  0  0  0
  -27.5290  -37.2290   24.7300 C   0  0  0  0  0  1  0  0  0  0  0  0
  -26.4380  -37.4000   23.7740 N   0  0  0  0  0  0  0  0  0  0  0  0
  -26.0320  -38.3220   23.9170 H   0  0  0  0  0  0  0  0  0  0  0  0
  -26.3660  -31.7410   25.1470 C   0  0  1  0  0  0  0  0  0  0  0  0
  -25.2690  -31.5070   26.2110 C   0  0  0  0  0  1  0  0  0  0  0  0
  -26.9470  -30.3610   24.7580 C   0  0  0  0  0  1  0  0  0  0  0  0
  -27.5130  -32.5350   25.8150 C   0  0  0  0  0  1  0  0  0  0  0  0
  2  1  1  0
  2 51  1  0
  3  4  1  0
  3  7  1  0
  5  7  1  0
  5  2  1  0
  5  6  1  0
  6 12  1  0
  8  4  1  0
  8 10  1  0
  8  6  1  0
  9  7  1  0
 11  8  1  0
 12 21  1  0
 13 21  1  0
 14 19  1  0
 15 16  1  0
 15 14  1  0
 17 16  1  0
 17 26  1  0
 17 18  1  0
 19 13  1  0
 19 18  1  0
 20 13  2  0
 21 22  1  0
 23 24  2  0
 24 43  1  0
 25 24  1  0
 25 28  1  0
 26 23  1  0
 26 27  1  0
 27 25  2  0
 28 29  1  0
 29 30  2  0
 31 34  1  0
 31 30  1  0
 32 31  2  0
 33 32  1  0
 33 28  2  0
 34 35  1  0
 35 36  1  0
 36 37  2  0
 38 37  1  0
 38 42  1  0
 39 38  2  0
 40 35  2  0
 40 39  1  0
 41 40  1  0
 43 44  1  0
 44 47  1  0
 44 46  1  0
 45 43  2  0
 48 49  1  0
 48 23  1  0
 50 48  1  0
 51 52  1  0
 51 53  1  0
 53 54  1  0
 56 55  1  0
 56 54  1  0
 57 56  1  0
 58 60  1  0
 58 57  1  0
 59 70  2  0
 60 65  1  0
 61 69  1  0
 61 71  1  0
 62 68  1  0
 62 64  1  0
 63 69  1  0
 64 63  1  0
 65 64  2  0
 66 60  2  0
 67 66  1  0
 67 62  2  0
 68 61  1  0
 69 59  1  0
 71 73  2  0
 72 71  1  0
 74 72  1  0
 75 84  2  0
 75 80  1  0
 76 72  1  0
 76 80  1  0
 77 76  1  0
 78 79  1  0
 78 77  1  0
 79 75  1  0
 80 81  2  0
 81 82  1  0
 83 82  2  0
 84 83  1  0
 85 59  1  0
 85 86  1  0
 85 95  1  0
 86 89  1  0
 87 91  1  0
 87 86  1  0
 88 87  2  0
 91 90  1  0
 93 91  1  0
 93 94  1  0
 93 92  1  0
 95 98  1  1
 95 96  1  0
 97 95  1  0
M  ISO  4  13 100  21 100  57 101  58 101
M  END
>  <TORSDO>  (55) 
F 23

>  <SCORE>  (55) 
-13.030

>  <name>  (55) 
54

>  <ligand_id>  (55) 
54

>  <original_smiles>  (55) 
[H]c1c([H])c([H])c2c(c1[H])C([H])([H])C([H])([H])C([H])([H])C2([H])N([H])C(=O)C1([H])N(C(=O)C([H])(N([H])C(=O)C([H])(N([H])C([H])([H])[H])C([H])([H])[H])C(C([H])([H])[H])(C([H])([H])[H])C([H])([H])[H])C([H])([H])c2c([H])c(OC([H])([H])C([H])(C([H])([H])[H])C([H])([H])C([H])([H])N([H])C([H])(C([H])([H])[H])C3([H])N([H])C([H])([H])C([H])([H])[N+]([H])([H])C3([H])C([H])([H])N([H])C(=O)N3C([H])([H])C([H])([H])C([H])([H])C([H])(n4nc(-c5c([H])c([H])c(Oc6c([H])c([H])c(F)c([H])c6F)c([H])c5[H])c(C(=O)N([H])[H])c4N([H])[H])C3([H])[H])c([H])c([H])c2C1([H])[H]

>  <smiles>  (55) 
[H]c1c([H])c([H])c2c(c1[H])C([H])([H])C([H])([H])C([H])([H])C2([H])N([H])C(=O)C1([H])N(C(=O)C([H])(N([H])C(=O)C([H])(N([H])C([H])([H])[H])C([H])([H])[H])C(C([H])([H])[H])(C([H])([H])[H])C([H])([H])[H])C([H])([H])c2c([H])c(OC([H])([H])C([H])(C([H])([H])[H])C([H])([H])C([H])([H])N([H])C([H])(C([H])([H])[H])C3([H])N([H])C([H])([H])C([H])([H])[N+]([H])([H])C3([H])C([H])([H])N([H])C(=O)N3C([H])([H])C([H])([H])C([H])([H])C([H])(n4nc(-c5c([H])c([H])c(Oc6c([H])c([H])c(F)c([H])c6F)c([H])c5[H])c(C(=O)N([H])[H])c4N([H])[H])C3([H])[H])c([H])c([H])c2C1([H])[H]

$$$$
55:0:0
     RDKit          3D

 95104  0  0  1  0  0  0  0  0999 V2000
  -30.6870  -19.8140   18.8510 C   0  0  0  0  0  3  0  0  0  0  0  0
  -31.1280  -14.2880   18.8580 C   0  0  0  0  0  0  0  0  0  0  0  0
  -30.5290  -12.1210   17.7790 C   0  0  0  0  0  2  0  0  0  0  0  0
  -29.4000  -12.3040   16.7440 C   0  0  0  0  0  2  0  0  0  0  0  0
  -28.0290  -12.1440   17.4240 C   0  0  0  0  0  2  0  0  0  0  0  0
  -27.9190  -12.9950   18.7120 C   0  0  0  0  0  3  0  0  0  0  0  0
  -29.1580  -12.8330   19.6280 C   0  0  0  0  0  2  0  0  0  0  0  0
  -30.3540  -13.1470   18.8370 N   0  0  0  0  0  0  0  0  0  0  0  0
  -32.1570  -14.3160   18.1770 O   0  0  0  0  0  0  0  0  0  0  0  0
  -31.9440  -16.2960   20.0780 C   0  0  0  0  0  2  0  0  0  0  0  0
  -31.9670  -17.7040   19.3980 C   0  0  0  0  0  2  0  0  0  0  0  0
  -29.5790  -17.5540   19.0800 C   0  0  0  0  0  2  0  0  0  0  0  0
  -29.5470  -16.1470   19.7920 C   0  0  0  0  0  3  0  0  0  0  0  0
  -30.8340  -15.3950   19.6470 N   0  0  0  0  0  0  0  0  0  0  0  0
  -30.6810  -18.4510   19.5270 N   0  0  2  0  0  4  0  0  0  0  0  0
  -30.5610  -18.6220   20.5130 H   0  0  0  0  0  0  0  0  0  0  0  0
  -25.7250  -13.6560   19.8620 C   0  0  0  0  0  0  0  0  0  0  0  0
  -24.7180  -12.9160   20.4140 C   0  0  0  0  0  0  0  0  0  0  0  0
  -25.1140  -11.5510   20.2710 C   0  0  0  0  0  0  0  0  0  0  0  0
  -26.6760  -12.7460   19.4300 N   0  0  0  0  0  0  0  0  0  0  0  0
  -26.3240  -11.4730   19.7330 N   0  0  0  0  0  0  0  0  0  0  0  0
  -24.3830  -10.3110   20.5560 C   0  0  0  0  0  0  0  0  0  0  0  0
  -24.8920   -9.3470   21.4540 C   0  0  0  0  0  3  0  0  0  0  0  0
  -24.1640   -8.1690   21.7250 C   0  0  0  0  0  3  0  0  0  0  0  0
  -22.9140   -7.9490   21.0990 C   0  0  0  0  0  0  0  0  0  0  0  0
  -22.4240   -8.9010   20.1870 C   0  0  0  0  0  3  0  0  0  0  0  0
  -23.1510  -10.0700   19.9150 C   0  0  0  0  0  3  0  0  0  0  0  0
  -22.1490   -6.8220   21.2840 O   0  0  0  0  0  0  0  0  0  0  0  0
  -21.9890   -6.2580   22.5240 C   0  0  0  0  0  0  0  0  0  0  0  0
  -21.4450   -6.9810   23.6080 C   0  0  0  0  0  3  0  0  0  0  0  0
  -21.2350   -6.3410   24.8460 C   0  0  0  0  0  3  0  0  0  0  0  0
  -21.5570   -4.9780   24.9980 C   0  0  0  0  0  0  0  0  0  0  0  0
  -22.0930   -4.2550   23.9180 C   0  0  0  0  0  3  0  0  0  0  0  0
  -22.3050   -4.8940   22.6830 C   0  0  0  0  0  0  0  0  0  0  0  0
  -22.8020   -4.1880   21.6390 F   0  0  0  0  0  0  0  0  0  0  0  0
  -21.3460   -4.3600   26.1830 F   0  0  0  0  0  0  0  0  0  0  0  0
  -23.4140  -13.4360   20.9450 C   0  0  0  0  0  0  0  0  0  0  0  0
  -22.8670  -12.7880   21.9670 N   0  0  0  0  0  0  0  0  0  0  0  0
  -22.8950  -14.4520   20.4850 O   0  0  0  0  0  0  0  0  0  0  0  0
  -23.3040  -11.9670   22.3580 H   0  0  0  0  0  0  0  0  0  0  0  0
  -21.9990  -13.1180   22.3650 H   0  0  0  0  0  0  0  0  0  0  0  0
  -25.8970  -15.0170   19.6580 N   0  0  0  0  0  4  0  0  0  0  0  0
  -25.1780  -15.6900   19.8940 H   0  0  0  0  0  0  0  0  0  0  0  0
  -26.6710  -15.4200   19.1490 H   0  0  0  0  0  0  0  0  0  0  0  0
  -29.0630  -16.1410   21.2820 C   0  0  0  0  0  2  0  0  0  0  0  0
  -26.6540  -15.3420   20.7430 C   0  0  0  0  0  2  0  0  0  0  0  0
  -27.3020  -15.9410   23.0790 C   0  0  0  0  0  1  0  0  0  0  0  0
  -27.5470  -16.2560   21.5980 C   0  0  0  0  0  3  0  0  0  0  0  0
  -29.8410  -20.9840   19.5140 C   0  0  0  0  0  3  0  0  0  0  0  0
  -28.7030  -22.0570   17.5060 C   0  0  0  0  0  1  0  0  0  0  0  0
  -29.6920  -22.3170   18.6590 C   0  0  0  0  0  3  0  0  0  0  0  0
  -29.3040  -23.6590   19.4330 C   0  0  0  0  0  2  0  0  0  0  0  0
  -30.5330  -25.3300   17.8910 C   0  0  0  0  0  1  0  0  0  0  0  0
  -29.2110  -25.0150   18.6040 C   0  0  0  0  0  3  0  0  0  0  0  0
  -28.9390  -26.2390   19.3700 O   0  0  0  0  0  0  0  0  0  0  0  0
  -24.7360  -30.9770   22.7310 C   0  0  0  0  0  0  0  0  0  0  0  0
  -27.7260  -26.9340   19.3360 C   0  0  0  0  0  0  0  0  0  0  0  0
  -23.6680  -29.6740   20.9230 C   0  0  0  0  0  3  0  0  0  0  0  0
  -25.2510  -28.3600   19.4070 C   0  0  0  0  0  0  0  0  0  0  0  0
  -26.1810  -30.1700   20.8550 C   0  0  0  0  0  2  0  0  0  0  0  0
  -26.3640  -28.8690   20.0830 C   0  0  0  0  0  0  0  0  0  0  0  0
  -27.5990  -28.1660   20.0430 C   0  0  0  0  0  3  0  0  0  0  0  0
  -26.5790  -26.4540   18.6610 C   0  0  0  0  0  3  0  0  0  0  0  0
  -25.3580  -27.1550   18.6930 C   0  0  0  0  0  3  0  0  0  0  0  0
  -23.9600  -29.1460   19.4940 C   0  0  0  0  0  2  0  0  0  0  0  0
  -24.8780  -30.2860   21.5630 N   0  0  0  0  0  0  0  0  0  0  0  0
  -23.6230  -31.1360   23.2520 O   0  0  0  0  0  0  0  0  0  0  0  0
  -23.0450  -28.5330   21.7600 C   0  0  0  0  0  0  0  0  0  0  0  0
  -21.7260  -28.3250   21.6100 N   0  0  0  0  0  0  0  0  0  0  0  0
  -23.7470  -27.8400   22.5010 O   0  0  0  0  0  0  0  0  0  0  0  0
  -21.2180  -28.9410   20.9910 H   0  0  0  0  0  0  0  0  0  0  0  0
  -18.3740  -27.0430   22.0540 C   0  0  0  0  0  0  0  0  0  0  0  0
  -20.9410  -27.2790   22.2650 C   0  0  0  0  0  3  0  0  0  0  0  0
  -21.0240  -25.9480   21.4840 C   0  0  0  0  0  2  0  0  0  0  0  0
  -19.8850  -25.7670   20.4750 C   0  0  0  0  0  2  0  0  0  0  0  0
  -18.5280  -25.8080   21.1830 C   0  0  0  0  0  2  0  0  0  0  0  0
  -19.5070  -27.7430   22.5490 C   0  0  0  0  0  0  0  0  0  0  0  0
  -19.3070  -28.9060   23.3250 C   0  0  0  0  0  3  0  0  0  0  0  0
  -18.0090  -29.3670   23.6100 C   0  0  0  0  0  3  0  0  0  0  0  0
  -16.8920  -28.6620   23.1310 C   0  0  0  0  0  3  0  0  0  0  0  0
  -17.0760  -27.5020   22.3590 C   0  0  0  0  0  3  0  0  0  0  0  0
  -25.9600  -31.6200   23.4530 C   0  0  0  0  0  3  0  0  0  0  0  0
  -25.5550  -32.9570   23.9080 N   0  0  0  0  0  0  0  0  0  0  0  0
  -25.8460  -34.0990   23.2700 C   0  0  0  0  0  0  0  0  0  0  0  0
  -26.5520  -34.1390   22.2600 O   0  0  0  0  0  0  0  0  0  0  0  0
  -24.9280  -32.9950   24.6970 H   0  0  0  0  0  0  0  0  0  0  0  0
  -24.0460  -35.8370   23.0070 C   0  0  0  0  0  1  0  0  0  0  0  0
  -25.2600  -35.4030   23.8450 C   0  0  0  0  0  3  0  0  0  0  0  0
  -27.2760  -36.3060   24.9190 C   0  0  0  0  0  1  0  0  0  0  0  0
  -26.2390  -36.5110   23.9100 N   0  0  0  0  0  0  0  0  0  0  0  0
  -25.7740  -37.3920   24.1080 H   0  0  0  0  0  0  0  0  0  0  0  0
  -26.4890  -30.7570   24.6650 C   0  0  1  0  0  0  0  0  0  0  0  0
  -25.3830  -30.3460   25.6650 C   0  0  0  0  0  1  0  0  0  0  0  0
  -27.1730  -29.4650   24.1580 C   0  0  0  0  0  1  0  0  0  0  0  0
  -27.5670  -31.5500   25.4410 C   0  0  0  0  0  1  0  0  0  0  0  0
  1 49  2  0
  1 15  1  0
  2 14  1  0
  3  8  1  0
  4  5  1  0
  4  3  1  0
  6  5  1  0
  6 20  1  0
  6  7  1  0
  8  2  1  0
  8  7  1  0
  9  2  2  0
 11 15  1  0
 11 10  1  0
 12 15  1  0
 13 12  1  0
 13 45  1  0
 14 13  1  0
 14 10  1  0
 15 16  1  1
 17 18  2  0
 18 37  1  0
 19 18  1  0
 19 22  1  0
 20 21  1  0
 20 17  1  0
 21 19  2  0
 22 23  1  0
 23 24  2  0
 25 28  1  0
 25 24  1  0
 26 25  2  0
 27 26  1  0
 27 22  2  0
 28 29  1  0
 29 34  2  0
 29 30  1  0
 30 31  2  0
 31 32  1  0
 32 36  1  0
 33 32  2  0
 34 33  1  0
 35 34  1  0
 37 38  1  0
 38 40  1  0
 38 41  1  0
 39 37  2  0
 42 17  1  0
 42 43  1  0
 42 46  1  0
 44 42  1  0
 45 48  1  0
 46 48  1  0
 48 47  1  0
 51 50  1  0
 51 52  1  0
 51 49  1  0
 54 53  1  0
 54 55  1  0
 54 52  1  0
 56 67  2  0
 57 55  1  0
 57 62  1  0
 58 66  1  0
 58 68  1  0
 59 65  1  0
 59 61  1  0
 60 66  1  0
 61 60  1  0
 62 61  2  0
 63 64  1  0
 63 57  2  0
 64 59  2  0
 65 58  1  0
 66 56  1  0
 68 70  2  0
 69 68  1  0
 71 69  1  0
 72 81  2  0
 72 77  1  0
 73 69  1  0
 73 77  1  0
 74 73  1  0
 75 76  1  0
 75 74  1  0
 76 72  1  0
 77 78  2  0
 78 79  1  0
 80 79  2  0
 81 80  1  0
 82 56  1  0
 82 83  1  0
 82 92  1  0
 83 86  1  0
 84 88  1  0
 84 83  1  0
 85 84  2  0
 88 87  1  0
 88 90  1  0
 90 91  1  0
 90 89  1  0
 92 95  1  1
 92 93  1  0
 94 92  1  0
M  ISO  4   2 100  14 100  54 101  55 101
M  END
>  <TORSDO>  (56) 
F 22

>  <SCORE>  (56) 
2.199

>  <name>  (56) 
55

>  <ligand_id>  (56) 
55

>  <original_smiles>  (56) 
[H]c1c([H])c([H])c2c(c1[H])C([H])([H])C([H])([H])C([H])([H])C2([H])N([H])C(=O)C1([H])N(C(=O)C([H])(N([H])C(=O)C([H])(N([H])C([H])([H])[H])C([H])([H])[H])C(C([H])([H])[H])(C([H])([H])[H])C([H])([H])[H])C([H])([H])c2c([H])c(OC([H])(C([H])([H])[H])C([H])([H])C([H])(C([H])([H])[H])C([H])([H])C([H])([H])[N+]3([H])C([H])([H])C([H])([H])N(C(=O)N4C([H])([H])C([H])([H])C([H])([H])C([H])(n5nc(-c6c([H])c([H])c(Oc7c([H])c([H])c(F)c([H])c7F)c([H])c6[H])c(C(=O)N([H])[H])c5N([H])[H])C4([H])[H])C([H])(C([H])([H])C([H])(C([H])([H])[H])C([H])([H])[H])C3([H])[H])c([H])c([H])c2C1([H])[H]

>  <smiles>  (56) 
[H]c1c([H])c([H])c2c(c1[H])C([H])([H])C([H])([H])C([H])([H])C2([H])N([H])C(=O)C1([H])N(C(=O)C([H])(N([H])C(=O)C([H])(N([H])C([H])([H])[H])C([H])([H])[H])C(C([H])([H])[H])(C([H])([H])[H])C([H])([H])[H])C([H])([H])c2c([H])c(OC([H])(C([H])([H])[H])C([H])([H])C([H])(C([H])([H])[H])C([H])([H])C([H])([H])[N+]3([H])C([H])([H])C([H])([H])N(C(=O)N4C([H])([H])C([H])([H])C([H])([H])C([H])(n5nc(-c6c([H])c([H])c(Oc7c([H])c([H])c(F)c([H])c7F)c([H])c6[H])c(C(=O)N([H])[H])c5N([H])[H])C4([H])[H])C([H])(C([H])([H])C([H])(C([H])([H])[H])C([H])([H])[H])C3([H])[H])c([H])c([H])c2C1([H])[H]

$$$$
56:0:0
     RDKit          3D

 89 97  0  0  1  0  0  0  0  0999 V2000
  -29.6480  -22.8330   19.3540 C   0  0  0  0  0  3  0  0  0  0  0  0
  -28.3310  -21.8460   20.7510 C   0  0  0  0  0  3  0  0  0  0  0  0
  -28.5910  -23.1660   20.2650 C   0  0  0  0  0  0  0  0  0  0  0  0
  -29.9280  -21.4620   19.3080 C   0  0  0  0  0  0  0  0  0  0  0  0
  -30.9070  -20.7650   18.4150 C   0  0  0  0  0  1  0  0  0  0  0  0
  -29.1180  -20.7460   20.2030 N   0  0  0  0  0  0  0  0  0  0  0  0
  -27.4760  -24.6740   22.0780 C   0  0  0  0  0  1  0  0  0  0  0  0
  -27.7980  -24.6240   20.5750 C   0  0  0  0  0  3  0  0  0  0  0  0
  -28.1910  -26.1090   20.2110 O   0  0  0  0  0  0  0  0  0  0  0  0
  -24.6140  -31.8760   23.2320 C   0  0  0  0  0  0  0  0  0  0  0  0
  -27.1710  -27.1470   20.1710 C   0  0  0  0  0  0  0  0  0  0  0  0
  -23.4070  -30.4870   21.5920 C   0  0  0  0  0  3  0  0  0  0  0  0
  -24.8530  -28.9230   20.1480 C   0  0  0  0  0  0  0  0  0  0  0  0
  -25.9650  -30.7450   21.4240 C   0  0  0  0  0  2  0  0  0  0  0  0
  -26.0360  -29.3550   20.7620 C   0  0  0  0  0  0  0  0  0  0  0  0
  -27.1980  -28.4840   20.7550 C   0  0  0  0  0  3  0  0  0  0  0  0
  -25.9680  -26.8440   19.4960 C   0  0  0  0  0  3  0  0  0  0  0  0
  -24.8350  -27.6850   19.4930 C   0  0  0  0  0  3  0  0  0  0  0  0
  -23.6270  -29.8230   20.2070 C   0  0  0  0  0  2  0  0  0  0  0  0
  -24.6820  -31.0570   22.1380 N   0  0  0  0  0  0  0  0  0  0  0  0
  -23.5300  -32.1600   23.7650 O   0  0  0  0  0  0  0  0  0  0  0  0
  -22.7330  -29.4730   22.5500 C   0  0  0  0  0  0  0  0  0  0  0  0
  -21.4060  -29.2960   22.4240 N   0  0  0  0  0  0  0  0  0  0  0  0
  -23.4070  -28.8470   23.3740 O   0  0  0  0  0  0  0  0  0  0  0  0
  -20.9190  -29.8520   21.7350 H   0  0  0  0  0  0  0  0  0  0  0  0
  -18.0290  -28.0760   22.9260 C   0  0  0  0  0  0  0  0  0  0  0  0
  -20.5880  -28.3550   23.1940 C   0  0  0  0  0  3  0  0  0  0  0  0
  -20.6990  -26.9240   22.6210 C   0  0  0  0  0  2  0  0  0  0  0  0
  -19.6000  -26.5940   21.6050 C   0  0  0  0  0  2  0  0  0  0  0  0
  -18.2160  -26.7280   22.2480 C   0  0  0  0  0  2  0  0  0  0  0  0
  -19.1440  -28.8450   23.3580 C   0  0  0  0  0  0  0  0  0  0  0  0
  -18.9180  -30.1000   23.9600 C   0  0  0  0  0  3  0  0  0  0  0  0
  -17.6110  -30.5960   24.1250 C   0  0  0  0  0  3  0  0  0  0  0  0
  -16.5110  -29.8240   23.7130 C   0  0  0  0  0  3  0  0  0  0  0  0
  -16.7200  -28.5660   23.1210 C   0  0  0  0  0  3  0  0  0  0  0  0
  -25.8930  -32.5100   23.8570 C   0  0  0  0  0  3  0  0  0  0  0  0
  -26.4070  -31.7360   25.1340 C   0  0  1  0  0  0  0  0  0  0  0  0
  -25.3130  -31.5010   26.2000 C   0  0  0  0  0  1  0  0  0  0  0  0
  -26.9840  -30.3540   24.7490 C   0  0  0  0  0  1  0  0  0  0  0  0
  -27.5640  -32.5230   25.7960 C   0  0  0  0  0  1  0  0  0  0  0  0
  -25.5860  -33.9100   24.1940 N   0  0  0  0  0  0  0  0  0  0  0  0
  -25.9070  -34.9660   23.4350 C   0  0  0  0  0  0  0  0  0  0  0  0
  -26.5650  -34.8650   22.3940 O   0  0  0  0  0  0  0  0  0  0  0  0
  -25.0000  -34.0620   25.0030 H   0  0  0  0  0  0  0  0  0  0  0  0
  -24.1730  -36.7610   23.1130 C   0  0  0  0  0  1  0  0  0  0  0  0
  -25.4270  -36.3540   23.9040 C   0  0  0  0  0  3  0  0  0  0  0  0
  -27.5690  -37.2380   24.7160 C   0  0  0  0  0  1  0  0  0  0  0  0
  -26.4570  -37.4090   23.7840 N   0  0  0  0  0  0  0  0  0  0  0  0
  -26.0520  -38.3280   23.9400 H   0  0  0  0  0  0  0  0  0  0  0  0
  -28.9560  -19.1540   20.4490 C   0  0  0  0  0  3  0  0  0  0  0  0
  -30.0440  -17.8540   20.1800 C   0  0  0  0  0  3  0  0  0  0  0  0
  -30.4850  -15.0740   20.2230 C   0  0  0  0  0  0  0  0  0  0  0  0
  -30.3630  -12.7070   19.2910 C   0  0  0  0  0  2  0  0  0  0  0  0
  -29.4210  -12.6450   18.0640 C   0  0  0  0  0  2  0  0  0  0  0  0
  -27.9650  -12.4150   18.5130 C   0  0  0  0  0  2  0  0  0  0  0  0
  -27.5600  -13.3360   19.6940 C   0  0  0  0  0  3  0  0  0  0  0  0
  -28.6300  -13.3770   20.8070 C   0  0  0  0  0  2  0  0  0  0  0  0
  -29.8850  -13.8100   20.1810 N   0  0  0  0  0  0  0  0  0  0  0  0
  -31.6860  -15.1210   19.9370 O   0  0  0  0  0  0  0  0  0  0  0  0
  -29.7230  -16.2870   20.3720 N   0  0  0  0  0  0  0  0  0  0  0  0
  -28.7520  -16.1010   20.5670 H   0  0  0  0  0  0  0  0  0  0  0  0
  -25.1870  -13.8960   20.4680 C   0  0  0  0  0  0  0  0  0  0  0  0
  -24.1320  -13.1130   20.8490 C   0  0  0  0  0  0  0  0  0  0  0  0
  -24.6040  -11.7650   20.8070 C   0  0  0  0  0  0  0  0  0  0  0  0
  -26.2320  -13.0240   20.2120 N   0  0  0  0  0  0  0  0  0  0  0  0
  -25.8910  -11.7380   20.4830 N   0  0  0  0  0  0  0  0  0  0  0  0
  -23.8820  -10.4980   20.9960 C   0  0  0  0  0  0  0  0  0  0  0  0
  -24.3110   -9.5370   21.9380 C   0  0  0  0  0  3  0  0  0  0  0  0
  -23.5870   -8.3380   22.1180 C   0  0  0  0  0  3  0  0  0  0  0  0
  -22.4220   -8.0910   21.3540 C   0  0  0  0  0  0  0  0  0  0  0  0
  -22.0110   -9.0410   20.4000 C   0  0  0  0  0  3  0  0  0  0  0  0
  -22.7370  -10.2320   20.2190 C   0  0  0  0  0  3  0  0  0  0  0  0
  -21.6690   -6.9430   21.4420 O   0  0  0  0  0  0  0  0  0  0  0  0
  -21.6010   -6.2170   22.6020 C   0  0  0  0  0  0  0  0  0  0  0  0
  -21.1200   -6.7790   23.8060 C   0  0  0  0  0  3  0  0  0  0  0  0
  -20.9990   -5.9770   24.9580 C   0  0  0  0  0  3  0  0  0  0  0  0
  -21.3470   -4.6140   24.9090 C   0  0  0  0  0  0  0  0  0  0  0  0
  -21.8230   -4.0520   23.7110 C   0  0  0  0  0  3  0  0  0  0  0  0
  -21.9460   -4.8510   22.5620 C   0  0  0  0  0  0  0  0  0  0  0  0
  -22.3820   -4.3000   21.4030 F   0  0  0  0  0  0  0  0  0  0  0  0
  -21.2250   -3.8410   26.0130 F   0  0  0  0  0  0  0  0  0  0  0  0
  -22.7350  -13.5850   21.1310 C   0  0  0  0  0  0  0  0  0  0  0  0
  -22.0140  -12.8840   21.9990 N   0  0  0  0  0  0  0  0  0  0  0  0
  -22.2900  -14.6100   20.6170 O   0  0  0  0  0  0  0  0  0  0  0  0
  -22.3840  -12.0550   22.4370 H   0  0  0  0  0  0  0  0  0  0  0  0
  -21.0770  -13.1820   22.2310 H   0  0  0  0  0  0  0  0  0  0  0  0
  -25.3330  -15.2680   20.2890 N   0  0  0  0  0  0  0  0  0  0  0  0
  -24.5450  -15.9000   20.3800 H   0  0  0  0  0  0  0  0  0  0  0  0
  -26.1450  -15.7140   19.8810 H   0  0  0  0  0  0  0  0  0  0  0  0
  1  3  1  0
  3  8  1  0
  3  2  2  0
  4  1  2  0
  4  6  1  0
  5  4  1  0
  6 50  1  0
  6  2  1  0
  8  7  1  0
  9  8  1  0
 10 21  2  0
 11  9  1  0
 11 16  1  0
 12 20  1  0
 12 22  1  0
 13 19  1  0
 13 15  1  0
 14 20  1  0
 15 14  1  0
 16 15  2  0
 17 11  2  0
 18 17  1  0
 18 13  2  0
 19 12  1  0
 20 10  1  0
 22 24  2  0
 23 22  1  0
 25 23  1  0
 26 35  2  0
 26 31  1  0
 27 23  1  0
 27 31  1  0
 28 27  1  0
 29 30  1  0
 29 28  1  0
 30 26  1  0
 31 32  2  0
 32 33  1  0
 34 33  2  0
 35 34  1  0
 36 10  1  0
 36 41  1  0
 36 37  1  0
 37 40  1  1
 37 38  1  0
 39 37  1  0
 41 44  1  0
 42 46  1  0
 42 41  1  0
 43 42  2  0
 46 45  1  0
 48 46  1  0
 48 49  1  0
 48 47  1  0
 51 60  1  0
 51 50  2  0
 52 60  1  0
 53 58  1  0
 54 55  1  0
 54 53  1  0
 56 55  1  0
 56 65  1  0
 56 57  1  0
 58 52  1  0
 58 57  1  0
 59 52  2  0
 60 61  1  0
 62 63  2  0
 63 82  1  0
 64 63  1  0
 64 67  1  0
 65 62  1  0
 65 66  1  0
 66 64  2  0
 67 68  1  0
 68 69  2  0
 70 73  1  0
 70 69  1  0
 71 70  2  0
 72 71  1  0
 72 67  2  0
 73 74  1  0
 74 75  1  0
 75 76  2  0
 77 76  1  0
 77 81  1  0
 78 77  2  0
 79 74  2  0
 79 78  1  0
 80 79  1  0
 82 83  1  0
 83 86  1  0
 83 85  1  0
 84 82  2  0
 87 88  1  0
 87 62  1  0
 89 87  1  0
M  ISO  4   8 101   9 101  52 100  60 100
M  END
>  <TORSDO>  (57) 
F 19

>  <SCORE>  (57) 
-14.916

>  <name>  (57) 
56

>  <ligand_id>  (57) 
56

>  <original_smiles>  (57) 
[H]c1c([H])c([H])c2c(c1[H])C([H])([H])C([H])([H])C([H])([H])C2([H])N([H])C(=O)C1([H])N(C(=O)C([H])(N([H])C(=O)C([H])(N([H])C([H])([H])[H])C([H])([H])[H])C(C([H])([H])[H])(C([H])([H])[H])C([H])([H])[H])C([H])([H])c2c([H])c(OC([H])(c3c([H])c(C([H])([H])[H])n(C([H])([H])C([H])([H])N([H])C(=O)N4C([H])([H])C([H])([H])C([H])([H])C([H])(n5nc(-c6c([H])c([H])c(Oc7c([H])c([H])c(F)c([H])c7F)c([H])c6[H])c(C(=O)N([H])[H])c5N([H])[H])C4([H])[H])c3[H])C([H])([H])[H])c([H])c([H])c2C1([H])[H]

>  <smiles>  (57) 
[H]c1c([H])c([H])c2c(c1[H])C([H])([H])C([H])([H])C([H])([H])C2([H])N([H])C(=O)C1([H])N(C(=O)C([H])(N([H])C(=O)C([H])(N([H])C([H])([H])[H])C([H])([H])[H])C(C([H])([H])[H])(C([H])([H])[H])C([H])([H])[H])C([H])([H])c2c([H])c(OC([H])(c3c([H])c(C([H])([H])[H])n(C([H])([H])C([H])([H])N([H])C(=O)N4C([H])([H])C([H])([H])C([H])([H])C([H])(n5nc(-c6c([H])c([H])c(Oc7c([H])c([H])c(F)c([H])c7F)c([H])c6[H])c(C(=O)N([H])[H])c5N([H])[H])C4([H])[H])c3[H])C([H])([H])[H])c([H])c([H])c2C1([H])[H]

$$$$
57:0:0
     RDKit          3D

 91100  0  0  1  0  0  0  0  0999 V2000
  -28.6770  -21.8100   18.9480 C   0  0  0  0  0  3  0  0  0  0  0  0
  -28.8370  -22.8730   19.8810 C   0  0  0  0  0  0  0  0  0  0  0  0
  -29.5410  -22.0790   20.9310 C   0  0  0  0  0  0  0  0  0  0  0  0
  -29.7070  -20.6970   20.5930 C   0  0  0  0  0  0  0  0  0  0  0  0
  -30.1860  -19.2530   21.0790 C   0  0  0  0  0  2  0  0  0  0  0  0
  -29.2190  -19.0530   18.9090 C   0  0  0  0  0  2  0  0  0  0  0  0
  -30.1750  -18.1340   19.8790 C   0  0  0  0  0  3  0  0  0  0  0  0
  -29.1760  -20.5230   19.3780 N   0  0  0  0  0  0  0  0  0  0  0  0
  -30.8080  -15.2860   20.0640 C   0  0  0  0  0  0  0  0  0  0  0  0
  -30.8040  -12.8070   19.3560 C   0  0  0  0  0  2  0  0  0  0  0  0
  -29.8660  -12.5360   18.1550 C   0  0  0  0  0  2  0  0  0  0  0  0
  -28.4260  -12.2810   18.6360 C   0  0  0  0  0  2  0  0  0  0  0  0
  -27.9810  -13.3060   19.7090 C   0  0  0  0  0  3  0  0  0  0  0  0
  -29.0450  -13.5240   20.8060 C   0  0  0  0  0  2  0  0  0  0  0  0
  -30.2670  -13.9800   20.1260 N   0  0  0  0  0  0  0  0  0  0  0  0
  -32.0140  -15.3220   19.7880 O   0  0  0  0  0  0  0  0  0  0  0  0
  -30.0020  -16.5070   20.1120 N   0  0  0  0  0  0  0  0  0  0  0  0
  -29.0420  -16.2750   20.3200 H   0  0  0  0  0  0  0  0  0  0  0  0
  -25.6540  -13.8820   20.5860 C   0  0  0  0  0  0  0  0  0  0  0  0
  -24.5920  -13.1120   20.9680 C   0  0  0  0  0  0  0  0  0  0  0  0
  -25.0270  -11.7550   20.8560 C   0  0  0  0  0  0  0  0  0  0  0  0
  -26.6660  -12.9990   20.2590 N   0  0  0  0  0  0  0  0  0  0  0  0
  -26.3030  -11.7090   20.4890 N   0  0  0  0  0  0  0  0  0  0  0  0
  -24.2810  -10.5000   21.0200 C   0  0  0  0  0  0  0  0  0  0  0  0
  -24.6820   -9.5160   21.9490 C   0  0  0  0  0  3  0  0  0  0  0  0
  -23.9350   -8.3280   22.1030 C   0  0  0  0  0  3  0  0  0  0  0  0
  -22.7710   -8.1160   21.3280 C   0  0  0  0  0  0  0  0  0  0  0  0
  -22.3880   -9.0890   20.3870 C   0  0  0  0  0  3  0  0  0  0  0  0
  -23.1360  -10.2670   20.2310 C   0  0  0  0  0  3  0  0  0  0  0  0
  -21.9980   -6.9820   21.3900 O   0  0  0  0  0  0  0  0  0  0  0  0
  -21.8380   -6.2850   22.5610 C   0  0  0  0  0  0  0  0  0  0  0  0
  -21.2880   -6.8830   23.7150 C   0  0  0  0  0  3  0  0  0  0  0  0
  -21.0760   -6.1120   24.8750 C   0  0  0  0  0  3  0  0  0  0  0  0
  -21.4030   -4.7430   24.8810 C   0  0  0  0  0  0  0  0  0  0  0  0
  -21.9460   -4.1440   23.7300 C   0  0  0  0  0  3  0  0  0  0  0  0
  -22.1590   -4.9130   22.5730 C   0  0  0  0  0  0  0  0  0  0  0  0
  -22.6630   -4.3250   21.4610 F   0  0  0  0  0  0  0  0  0  0  0  0
  -21.1930   -4.0000   25.9930 F   0  0  0  0  0  0  0  0  0  0  0  0
  -23.2170  -13.6030   21.3150 C   0  0  0  0  0  0  0  0  0  0  0  0
  -22.5140  -12.8920   22.1870 N   0  0  0  0  0  0  0  0  0  0  0  0
  -22.7800  -14.6550   20.8490 O   0  0  0  0  0  0  0  0  0  0  0  0
  -22.8830  -12.0410   22.5850 H   0  0  0  0  0  0  0  0  0  0  0  0
  -21.5930  -13.2020   22.4620 H   0  0  0  0  0  0  0  0  0  0  0  0
  -25.8360  -15.2570   20.4610 N   0  0  0  0  0  0  0  0  0  0  0  0
  -25.0800  -15.9140   20.6270 H   0  0  0  0  0  0  0  0  0  0  0  0
  -26.6600  -15.6940   20.0700 H   0  0  0  0  0  0  0  0  0  0  0  0
  -31.4690  -22.5130   22.4920 C   0  0  0  0  0  1  0  0  0  0  0  0
  -29.1380  -22.0970   23.4130 C   0  0  0  0  0  1  0  0  0  0  0  0
  -29.9610  -22.6770   22.2550 C   0  0  0  0  0  3  0  0  0  0  0  0
  -28.0830  -24.4500   19.8320 C   0  0  0  0  0  2  0  0  0  0  0  0
  -28.4950  -25.9900   20.1090 O   0  0  0  0  0  0  0  0  0  0  0  0
  -24.9070  -31.7480   23.3340 C   0  0  0  0  0  0  0  0  0  0  0  0
  -27.5120  -27.0990   20.0730 C   0  0  0  0  0  0  0  0  0  0  0  0
  -23.7510  -30.4810   21.5700 C   0  0  0  0  0  3  0  0  0  0  0  0
  -25.2290  -28.9730   20.0850 C   0  0  0  0  0  0  0  0  0  0  0  0
  -26.3210  -30.6840   21.5150 C   0  0  0  0  0  2  0  0  0  0  0  0
  -26.3990  -29.3270   20.7680 C   0  0  0  0  0  0  0  0  0  0  0  0
  -27.5380  -28.4110   20.7430 C   0  0  0  0  0  3  0  0  0  0  0  0
  -26.3150  -26.8940   19.3470 C   0  0  0  0  0  3  0  0  0  0  0  0
  -25.2090  -27.7760   19.3570 C   0  0  0  0  0  3  0  0  0  0  0  0
  -24.0150  -29.8950   20.1570 C   0  0  0  0  0  2  0  0  0  0  0  0
  -25.0120  -30.9930   22.1960 N   0  0  0  0  0  0  0  0  0  0  0  0
  -23.8050  -32.0140   23.8420 O   0  0  0  0  0  0  0  0  0  0  0  0
  -23.0210  -29.4270   22.4420 C   0  0  0  0  0  0  0  0  0  0  0  0
  -21.6930  -29.2900   22.2690 N   0  0  0  0  0  0  0  0  0  0  0  0
  -23.6550  -28.7340   23.2410 O   0  0  0  0  0  0  0  0  0  0  0  0
  -21.2350  -29.9000   21.6060 H   0  0  0  0  0  0  0  0  0  0  0  0
  -18.2760  -28.1220   22.6210 C   0  0  0  0  0  0  0  0  0  0  0  0
  -20.8350  -28.3150   22.9520 C   0  0  0  0  0  3  0  0  0  0  0  0
  -20.9210  -26.9270   22.2720 C   0  0  0  0  0  2  0  0  0  0  0  0
  -19.8330  -26.7050   21.2160 C   0  0  0  0  0  2  0  0  0  0  0  0
  -18.4410  -26.8270   21.8440 C   0  0  0  0  0  2  0  0  0  0  0  0
  -19.4000  -28.8290   23.1270 C   0  0  0  0  0  0  0  0  0  0  0  0
  -19.1900  -30.0430   23.8160 C   0  0  0  0  0  3  0  0  0  0  0  0
  -17.8900  -30.5520   24.0010 C   0  0  0  0  0  3  0  0  0  0  0  0
  -16.7820  -29.8420   23.5080 C   0  0  0  0  0  3  0  0  0  0  0  0
  -16.9750  -28.6280   22.8240 C   0  0  0  0  0  3  0  0  0  0  0  0
  -26.1660  -32.3300   24.0460 C   0  0  0  0  0  3  0  0  0  0  0  0
  -25.8630  -33.7170   24.4370 N   0  0  0  0  0  0  0  0  0  0  0  0
  -26.2010  -34.8050   23.7330 C   0  0  0  0  0  0  0  0  0  0  0  0
  -26.8660  -34.7450   22.6950 O   0  0  0  0  0  0  0  0  0  0  0  0
  -25.2710  -33.8370   25.2470 H   0  0  0  0  0  0  0  0  0  0  0  0
  -24.4760  -36.6240   23.4950 C   0  0  0  0  0  1  0  0  0  0  0  0
  -25.7320  -36.1770   24.2600 C   0  0  0  0  0  3  0  0  0  0  0  0
  -27.8830  -37.0240   25.0900 C   0  0  0  0  0  1  0  0  0  0  0  0
  -26.7670  -37.2300   24.1700 N   0  0  0  0  0  0  0  0  0  0  0  0
  -26.3670  -38.1450   24.3570 H   0  0  0  0  0  0  0  0  0  0  0  0
  -26.6050  -31.4910   25.3100 C   0  0  1  0  0  0  0  0  0  0  0  0
  -25.4590  -31.2340   26.3170 C   0  0  0  0  0  1  0  0  0  0  0  0
  -27.1750  -30.1180   24.8910 C   0  0  0  0  0  1  0  0  0  0  0  0
  -27.7400  -32.2280   26.0580 C   0  0  0  0  0  1  0  0  0  0  0  0
  1  8  1  0
  1  2  2  0
  2  3  1  0
  3 49  1  0
  4  3  2  0
  4  5  1  0
  6  8  1  0
  6  7  1  0
  7 17  1  0
  7  5  1  0
  8  4  1  0
  9 17  1  0
  9 15  1  0
 10 15  1  0
 11 12  1  0
 11 10  1  0
 13 12  1  0
 13 22  1  0
 13 14  1  0
 15 14  1  0
 16  9  2  0
 17 18  1  0
 19 20  2  0
 20 39  1  0
 21 20  1  0
 21 24  1  0
 22 23  1  0
 22 19  1  0
 23 21  2  0
 24 25  1  0
 25 26  2  0
 27 30  1  0
 27 26  1  0
 28 27  2  0
 29 28  1  0
 29 24  2  0
 30 31  1  0
 31 36  2  0
 31 32  1  0
 32 33  2  0
 33 34  1  0
 34 38  1  0
 35 34  2  0
 36 35  1  0
 37 36  1  0
 39 40  1  0
 40 43  1  0
 40 42  1  0
 41 39  2  0
 44 19  1  0
 44 45  1  0
 46 44  1  0
 49 47  1  0
 49 48  1  0
 50  2  1  0
 50 51  1  0
 52 63  2  0
 53 51  1  0
 53 58  1  0
 54 62  1  0
 54 64  1  0
 55 61  1  0
 55 57  1  0
 56 62  1  0
 57 56  1  0
 58 57  2  0
 59 60  1  0
 59 53  2  0
 60 55  2  0
 61 54  1  0
 62 52  1  0
 64 66  2  0
 65 64  1  0
 67 65  1  0
 68 77  2  0
 68 73  1  0
 69 65  1  0
 69 73  1  0
 70 69  1  0
 71 72  1  0
 71 70  1  0
 72 68  1  0
 73 74  2  0
 74 75  1  0
 76 75  2  0
 77 76  1  0
 78 52  1  0
 78 79  1  0
 78 88  1  0
 79 82  1  0
 80 84  1  0
 80 79  1  0
 81 80  2  0
 84 83  1  0
 86 84  1  0
 86 87  1  0
 86 85  1  0
 88 91  1  1
 88 89  1  0
 90 88  1  0
M  ISO  4   9 100  17 100  50 101  51 101
M  END
>  <TORSDO>  (58) 
F 18

>  <SCORE>  (58) 
-13.474

>  <name>  (58) 
57

>  <ligand_id>  (58) 
57

>  <original_smiles>  (58) 
[H]c1c([H])c([H])c2c(c1[H])C([H])([H])C([H])([H])C([H])([H])C2([H])N([H])C(=O)C1([H])N(C(=O)C([H])(N([H])C(=O)C([H])(N([H])C([H])([H])[H])C([H])([H])[H])C(C([H])([H])[H])(C([H])([H])[H])C([H])([H])[H])C([H])([H])c2c([H])c(OC([H])([H])c3c(C([H])(C([H])([H])[H])C([H])([H])[H])c4n(c3[H])C([H])([H])C([H])(N([H])C(=O)N3C([H])([H])C([H])([H])C([H])([H])C([H])(n5nc(-c6c([H])c([H])c(Oc7c([H])c([H])c(F)c([H])c7F)c([H])c6[H])c(C(=O)N([H])[H])c5N([H])[H])C3([H])[H])C4([H])[H])c([H])c([H])c2C1([H])[H]

>  <smiles>  (58) 
[H]c1c([H])c([H])c2c(c1[H])C([H])([H])C([H])([H])C([H])([H])C2([H])N([H])C(=O)C1([H])N(C(=O)C([H])(N([H])C(=O)C([H])(N([H])C([H])([H])[H])C([H])([H])[H])C(C([H])([H])[H])(C([H])([H])[H])C([H])([H])[H])C([H])([H])c2c([H])c(OC([H])([H])c3c(C([H])(C([H])([H])[H])C([H])([H])[H])c4n(c3[H])C([H])([H])C([H])(N([H])C(=O)N3C([H])([H])C([H])([H])C([H])([H])C([H])(n5nc(-c6c([H])c([H])c(Oc7c([H])c([H])c(F)c([H])c7F)c([H])c6[H])c(C(=O)N([H])[H])c5N([H])[H])C3([H])[H])C4([H])[H])c([H])c([H])c2C1([H])[H]

$$$$
58:0:0
     RDKit          3D

 97105  0  0  1  0  0  0  0  0999 V2000
  -30.3620  -19.9300   21.0990 C   0  0  0  0  0  3  0  0  0  0  0  0
  -28.4390  -18.5270   20.6050 C   0  0  0  0  0  3  0  0  0  0  0  0
  -29.7010  -21.0370   20.5170 C   0  0  0  0  0  3  0  0  0  0  0  0
  -27.8000  -19.6220   19.9940 C   0  0  0  0  0  3  0  0  0  0  0  0
  -29.7250  -18.6680   21.1690 C   0  0  0  0  0  0  0  0  0  0  0  0
  -28.4080  -20.8910   19.9630 C   0  0  0  0  0  0  0  0  0  0  0  0
  -30.3580  -17.4770   21.9020 C   0  0  0  0  0  3  0  0  0  0  0  0
  -31.0410  -17.9410   23.1360 N   0  0  0  0  0  4  0  0  0  0  0  0
  -31.9520  -18.3000   22.8970 H   0  0  0  0  0  0  0  0  0  0  0  0
  -31.1820  -17.1340   23.7210 H   0  0  0  0  0  0  0  0  0  0  0  0
  -31.0170  -20.3360   23.8740 C   0  0  0  0  0  1  0  0  0  0  0  0
  -30.1870  -18.4990   25.4060 C   0  0  0  0  0  1  0  0  0  0  0  0
  -30.3210  -18.9600   23.9460 C   0  0  0  0  0  3  0  0  0  0  0  0
  -31.3020  -16.6180   21.0100 C   0  0  0  0  0  2  0  0  0  0  0  0
  -31.4790  -14.2250   20.2670 C   0  0  0  0  0  0  0  0  0  0  0  0
  -31.0690  -12.0400   19.1880 C   0  0  0  0  0  2  0  0  0  0  0  0
  -30.1680  -12.2110   17.9480 C   0  0  0  0  0  2  0  0  0  0  0  0
  -28.6760  -12.2050   18.3370 C   0  0  0  0  0  2  0  0  0  0  0  0
  -28.3680  -13.1590   19.5220 C   0  0  0  0  0  3  0  0  0  0  0  0
  -29.3650  -12.9150   20.6780 C   0  0  0  0  0  2  0  0  0  0  0  0
  -30.7290  -13.0960   20.1520 N   0  0  0  0  0  0  0  0  0  0  0  0
  -32.5570  -14.3890   19.6890 O   0  0  0  0  0  0  0  0  0  0  0  0
  -30.9190  -15.1950   21.0090 N   0  0  0  0  0  0  0  0  0  0  0  0
  -30.0640  -14.9330   21.4750 H   0  0  0  0  0  0  0  0  0  0  0  0
  -26.0170  -14.0080   20.1410 C   0  0  0  0  0  0  0  0  0  0  0  0
  -24.8750  -13.3480   20.5100 C   0  0  0  0  0  0  0  0  0  0  0  0
  -25.2130  -11.9610   20.5410 C   0  0  0  0  0  0  0  0  0  0  0  0
  -26.9830  -13.0290   19.9690 N   0  0  0  0  0  0  0  0  0  0  0  0
  -26.5000  -11.7950   20.2660 N   0  0  0  0  0  0  0  0  0  0  0  0
  -24.3760  -10.7760   20.7600 C   0  0  0  0  0  0  0  0  0  0  0  0
  -24.7020   -9.8120   21.7410 C   0  0  0  0  0  3  0  0  0  0  0  0
  -23.8720   -8.6890   21.9470 C   0  0  0  0  0  3  0  0  0  0  0  0
  -22.6990   -8.5220   21.1700 C   0  0  0  0  0  0  0  0  0  0  0  0
  -22.3900   -9.4740   20.1800 C   0  0  0  0  0  3  0  0  0  0  0  0
  -23.2220  -10.5870   19.9750 C   0  0  0  0  0  3  0  0  0  0  0  0
  -21.8490   -7.4490   21.2810 O   0  0  0  0  0  0  0  0  0  0  0  0
  -21.7030   -6.7650   22.4620 C   0  0  0  0  0  0  0  0  0  0  0  0
  -21.3010   -7.4120   23.6510 C   0  0  0  0  0  3  0  0  0  0  0  0
  -21.0940   -6.6600   24.8260 C   0  0  0  0  0  3  0  0  0  0  0  0
  -21.2790   -5.2650   24.8110 C   0  0  0  0  0  0  0  0  0  0  0  0
  -21.6760   -4.6190   23.6270 C   0  0  0  0  0  3  0  0  0  0  0  0
  -21.8830   -5.3680   22.4550 C   0  0  0  0  0  0  0  0  0  0  0  0
  -22.2430   -4.7380   21.3110 F   0  0  0  0  0  0  0  0  0  0  0  0
  -21.0730   -4.5410   25.9360 F   0  0  0  0  0  0  0  0  0  0  0  0
  -23.5200  -13.9570   20.7280 C   0  0  0  0  0  0  0  0  0  0  0  0
  -22.7250  -13.3780   21.6210 N   0  0  0  0  0  0  0  0  0  0  0  0
  -23.1760  -14.9810   20.1410 O   0  0  0  0  0  0  0  0  0  0  0  0
  -23.0140  -12.5500   22.1210 H   0  0  0  0  0  0  0  0  0  0  0  0
  -21.8120  -13.7700   21.8090 H   0  0  0  0  0  0  0  0  0  0  0  0
  -26.3140  -15.3510   19.9210 N   0  0  0  0  0  0  0  0  0  0  0  0
  -25.6090  -16.0770   19.9810 H   0  0  0  0  0  0  0  0  0  0  0  0
  -27.1960  -15.6800   19.5500 H   0  0  0  0  0  0  0  0  0  0  0  0
  -27.7080  -21.9240   19.3800 O   0  0  0  0  0  0  0  0  0  0  0  0
  -27.8500  -23.2190   19.9640 C   0  0  0  0  0  2  0  0  0  0  0  0
  -28.9610  -24.0470   19.2960 C   0  0  0  0  0  2  0  0  0  0  0  0
  -28.5020  -25.3850   18.6780 C   0  0  0  0  0  2  0  0  0  0  0  0
  -28.3700  -26.4090   19.6730 O   0  0  0  0  0  0  0  0  0  0  0  0
  -24.9720  -31.4970   23.3100 C   0  0  0  0  0  0  0  0  0  0  0  0
  -27.2070  -27.1470   19.7790 C   0  0  0  0  0  0  0  0  0  0  0  0
  -23.6100  -30.2830   21.6390 C   0  0  0  0  0  3  0  0  0  0  0  0
  -24.8980  -28.7650   20.0440 C   0  0  0  0  0  0  0  0  0  0  0  0
  -26.1430  -30.5030   21.3460 C   0  0  0  0  0  2  0  0  0  0  0  0
  -26.1110  -29.1770   20.6100 C   0  0  0  0  0  0  0  0  0  0  0  0
  -27.2610  -28.3710   20.4800 C   0  0  0  0  0  3  0  0  0  0  0  0
  -25.9700  -26.7360   19.2340 C   0  0  0  0  0  3  0  0  0  0  0  0
  -24.8220  -27.5400   19.3620 C   0  0  0  0  0  3  0  0  0  0  0  0
  -23.7100  -29.6870   20.2090 C   0  0  0  0  0  2  0  0  0  0  0  0
  -24.9320  -30.7720   22.1560 N   0  0  0  0  0  0  0  0  0  0  0  0
  -23.9330  -31.7940   23.9160 O   0  0  0  0  0  0  0  0  0  0  0  0
  -22.9460  -29.2350   22.5590 C   0  0  0  0  0  0  0  0  0  0  0  0
  -21.6180  -29.0960   22.4340 N   0  0  0  0  0  0  0  0  0  0  0  0
  -23.6190  -28.5520   23.3360 O   0  0  0  0  0  0  0  0  0  0  0  0
  -21.1460  -29.7070   21.7840 H   0  0  0  0  0  0  0  0  0  0  0  0
  -18.2340  -27.9040   22.8380 C   0  0  0  0  0  0  0  0  0  0  0  0
  -20.7850  -28.1350   23.1570 C   0  0  0  0  0  3  0  0  0  0  0  0
  -20.8890  -26.7210   22.5350 C   0  0  0  0  0  2  0  0  0  0  0  0
  -19.8010  -26.4370   21.4980 C   0  0  0  0  0  2  0  0  0  0  0  0
  -18.4080  -26.5770   22.1200 C   0  0  0  0  0  2  0  0  0  0  0  0
  -19.3500  -28.6440   23.3050 C   0  0  0  0  0  0  0  0  0  0  0  0
  -19.1320  -29.8970   23.9230 C   0  0  0  0  0  3  0  0  0  0  0  0
  -17.8310  -30.4080   24.0800 C   0  0  0  0  0  3  0  0  0  0  0  0
  -16.7270  -29.6580   23.6370 C   0  0  0  0  0  3  0  0  0  0  0  0
  -16.9300  -28.4090   23.0210 C   0  0  0  0  0  3  0  0  0  0  0  0
  -26.3220  -32.0020   23.9100 C   0  0  0  0  0  3  0  0  0  0  0  0
  -26.1030  -33.3750   24.3810 N   0  0  0  0  0  0  0  0  0  0  0  0
  -26.4740  -34.4750   23.7120 C   0  0  0  0  0  0  0  0  0  0  0  0
  -27.1070  -34.4330   22.6520 O   0  0  0  0  0  0  0  0  0  0  0  0
  -25.5410  -33.4850   25.2120 H   0  0  0  0  0  0  0  0  0  0  0  0
  -24.8400  -36.3860   23.5840 C   0  0  0  0  0  1  0  0  0  0  0  0
  -26.0790  -35.8400   24.3130 C   0  0  0  0  0  3  0  0  0  0  0  0
  -28.2820  -36.5220   25.1520 C   0  0  0  0  0  1  0  0  0  0  0  0
  -27.1670  -36.8400   24.2640 N   0  0  0  0  0  0  0  0  0  0  0  0
  -26.8200  -37.7630   24.5110 H   0  0  0  0  0  0  0  0  0  0  0  0
  -26.8650  -31.0920   25.0780 C   0  0  1  0  0  0  0  0  0  0  0  0
  -25.8180  -30.8040   26.1800 C   0  0  0  0  0  1  0  0  0  0  0  0
  -27.3560  -29.7330   24.5260 C   0  0  0  0  0  1  0  0  0  0  0  0
  -28.0900  -31.7670   25.7400 C   0  0  0  0  0  1  0  0  0  0  0  0
  1  5  1  0
  2  5  2  0
  3  1  2  0
  4  2  1  0
  5  7  1  0
  6  4  2  0
  6  3  1  0
  7 14  1  0
  7  8  1  0
  8 10  1  0
  8 13  1  0
  9  8  1  0
 11 13  1  0
 13 12  1  0
 15 23  1  0
 16 21  1  0
 17 18  1  0
 17 16  1  0
 19 18  1  0
 19 28  1  0
 19 20  1  0
 21 15  1  0
 21 20  1  0
 22 15  2  0
 23 14  1  0
 23 24  1  0
 25 26  2  0
 26 27  1  0
 26 45  1  0
 27 30  1  0
 28 25  1  0
 28 29  1  0
 29 27  2  0
 30 31  1  0
 31 32  2  0
 33 36  1  0
 33 32  1  0
 34 33  2  0
 35 34  1  0
 35 30  2  0
 36 37  1  0
 37 38  1  0
 38 39  2  0
 40 39  1  0
 40 44  1  0
 41 40  2  0
 42 37  2  0
 42 41  1  0
 43 42  1  0
 45 46  1  0
 46 49  1  0
 46 48  1  0
 47 45  2  0
 50 51  1  0
 50 25  1  0
 52 50  1  0
 53  6  1  0
 53 54  1  0
 55 54  1  0
 56 55  1  0
 56 57  1  0
 57 59  1  0
 58 69  2  0
 59 64  1  0
 60 68  1  0
 60 70  1  0
 61 67  1  0
 61 63  1  0
 62 68  1  0
 63 62  1  0
 64 63  2  0
 65 66  1  0
 65 59  2  0
 66 61  2  0
 67 60  1  0
 68 58  1  0
 70 72  2  0
 71 70  1  0
 73 71  1  0
 74 83  2  0
 74 79  1  0
 75 71  1  0
 75 79  1  0
 76 75  1  0
 77 78  1  0
 77 76  1  0
 78 74  1  0
 79 80  2  0
 80 81  1  0
 82 81  2  0
 83 82  1  0
 84 58  1  0
 84 85  1  0
 84 94  1  0
 85 88  1  0
 86 90  1  0
 86 85  1  0
 87 86  2  0
 90 89  1  0
 92 90  1  0
 92 93  1  0
 92 91  1  0
 94 97  1  1
 94 95  1  0
 96 94  1  0
M  ISO  4  15 100  23 100  56 101  57 101
M  END
>  <TORSDO>  (59) 
F 24

>  <SCORE>  (59) 
-8.972

>  <name>  (59) 
58

>  <ligand_id>  (59) 
58

>  <original_smiles>  (59) 
[H]c1c([H])c([H])c2c(c1[H])C([H])([H])C([H])([H])C([H])([H])C2([H])N([H])C(=O)C1([H])N(C(=O)C([H])(N([H])C(=O)C([H])(N([H])C([H])([H])[H])C([H])([H])[H])C(C([H])([H])[H])(C([H])([H])[H])C([H])([H])[H])C([H])([H])c2c([H])c(OC([H])([H])C([H])([H])C([H])([H])Oc3c([H])c([H])c(C([H])(C([H])([H])N([H])C(=O)N4C([H])([H])C([H])([H])C([H])([H])C([H])(n5nc(-c6c([H])c([H])c(Oc7c([H])c([H])c(F)c([H])c7F)c([H])c6[H])c(C(=O)N([H])[H])c5N([H])[H])C4([H])[H])[N+]([H])([H])C([H])(C([H])([H])[H])C([H])([H])[H])c([H])c3[H])c([H])c([H])c2C1([H])[H]

>  <smiles>  (59) 
[H]c1c([H])c([H])c2c(c1[H])C([H])([H])C([H])([H])C([H])([H])C2([H])N([H])C(=O)C1([H])N(C(=O)C([H])(N([H])C(=O)C([H])(N([H])C([H])([H])[H])C([H])([H])[H])C(C([H])([H])[H])(C([H])([H])[H])C([H])([H])[H])C([H])([H])c2c([H])c(OC([H])([H])C([H])([H])C([H])([H])Oc3c([H])c([H])c(C([H])(C([H])([H])N([H])C(=O)N4C([H])([H])C([H])([H])C([H])([H])C([H])(n5nc(-c6c([H])c([H])c(Oc7c([H])c([H])c(F)c([H])c7F)c([H])c6[H])c(C(=O)N([H])[H])c5N([H])[H])C4([H])[H])[N+]([H])([H])C([H])(C([H])([H])[H])C([H])([H])[H])c([H])c3[H])c([H])c([H])c2C1([H])[H]

$$$$
59:0:0
     RDKit          3D

 94101  0  0  1  0  0  0  0  0999 V2000
  -29.1390  -23.1420   20.7000 N   0  0  0  0  0  4  0  0  0  0  0  0
  -28.9570  -22.8720   19.7440 H   0  0  0  0  0  0  0  0  0  0  0  0
  -30.1240  -23.3550   20.7570 H   0  0  0  0  0  0  0  0  0  0  0  0
  -26.8770  -24.1050   21.2310 C   0  0  0  0  0  1  0  0  0  0  0  0
  -28.9750  -25.0410   22.2830 C   0  0  0  0  0  1  0  0  0  0  0  0
  -28.3800  -24.3990   21.0070 C   0  0  1  0  0  0  0  0  0  0  0  0
  -28.5450  -25.3830   19.7950 C   0  0  0  0  0  2  0  0  0  0  0  0
  -28.4190  -26.7740   20.1240 O   0  0  0  0  0  0  0  0  0  0  0  0
  -24.5990  -31.8810   23.2140 C   0  0  0  0  0  0  0  0  0  0  0  0
  -27.2060  -27.4330   20.1110 C   0  0  0  0  0  0  0  0  0  0  0  0
  -23.3700  -30.4800   21.5880 C   0  0  0  0  0  3  0  0  0  0  0  0
  -24.8030  -28.9340   20.1500 C   0  0  0  0  0  0  0  0  0  0  0  0
  -25.8910  -30.8360   21.3580 C   0  0  0  0  0  2  0  0  0  0  0  0
  -25.9660  -29.4630   20.7230 C   0  0  0  0  0  0  0  0  0  0  0  0
  -27.1650  -28.7180   20.6990 C   0  0  0  0  0  3  0  0  0  0  0  0
  -26.0230  -26.9180   19.5300 C   0  0  0  0  0  3  0  0  0  0  0  0
  -24.8260  -27.6620   19.5550 C   0  0  0  0  0  3  0  0  0  0  0  0
  -23.5610  -29.7950   20.2070 C   0  0  0  0  0  2  0  0  0  0  0  0
  -24.6390  -31.0810   22.1120 N   0  0  0  0  0  0  0  0  0  0  0  0
  -23.5250  -32.1580   23.7660 O   0  0  0  0  0  0  0  0  0  0  0  0
  -22.7270  -29.4630   22.5560 C   0  0  0  0  0  0  0  0  0  0  0  0
  -21.4000  -29.2880   22.4430 N   0  0  0  0  0  0  0  0  0  0  0  0
  -23.4160  -28.8360   23.3640 O   0  0  0  0  0  0  0  0  0  0  0  0
  -20.9050  -29.8460   21.7610 H   0  0  0  0  0  0  0  0  0  0  0  0
  -18.0270  -28.1040   22.9670 C   0  0  0  0  0  0  0  0  0  0  0  0
  -20.5870  -28.3540   23.2220 C   0  0  0  0  0  3  0  0  0  0  0  0
  -20.6820  -26.9220   22.6480 C   0  0  0  0  0  2  0  0  0  0  0  0
  -19.5720  -26.6000   21.6420 C   0  0  0  0  0  2  0  0  0  0  0  0
  -18.1950  -26.7520   22.2950 C   0  0  0  0  0  2  0  0  0  0  0  0
  -19.1510  -28.8640   23.3880 C   0  0  0  0  0  0  0  0  0  0  0  0
  -18.9400  -30.1310   23.9760 C   0  0  0  0  0  3  0  0  0  0  0  0
  -17.6390  -30.6370   24.1470 C   0  0  0  0  0  3  0  0  0  0  0  0
  -16.5300  -29.8750   23.7430 C   0  0  0  0  0  3  0  0  0  0  0  0
  -16.7240  -28.6100   23.1600 C   0  0  0  0  0  3  0  0  0  0  0  0
  -25.8950  -32.5080   23.8200 C   0  0  0  0  0  3  0  0  0  0  0  0
  -25.5910  -33.9020   24.1680 N   0  0  0  0  0  0  0  0  0  0  0  0
  -25.9120  -34.9620   23.4140 C   0  0  0  0  0  0  0  0  0  0  0  0
  -26.5670  -34.8680   22.3720 O   0  0  0  0  0  0  0  0  0  0  0  0
  -25.0090  -34.0490   24.9800 H   0  0  0  0  0  0  0  0  0  0  0  0
  -24.1730  -36.7510   23.1010 C   0  0  0  0  0  1  0  0  0  0  0  0
  -25.4290  -36.3440   23.8900 C   0  0  0  0  0  3  0  0  0  0  0  0
  -27.5770  -37.2230   24.6900 C   0  0  0  0  0  1  0  0  0  0  0  0
  -26.4580  -37.4010   23.7690 N   0  0  0  0  0  0  0  0  0  0  0  0
  -26.0520  -38.3190   23.9350 H   0  0  0  0  0  0  0  0  0  0  0  0
  -26.4350  -31.7230   25.0780 C   0  0  1  0  0  0  0  0  0  0  0  0
  -25.3630  -31.4740   26.1630 C   0  0  0  0  0  1  0  0  0  0  0  0
  -27.0120  -30.3520   24.6570 C   0  0  0  0  0  1  0  0  0  0  0  0
  -27.6000  -32.5110   25.7260 C   0  0  0  0  0  1  0  0  0  0  0  0
  -28.9020  -21.9300   21.5310 C   0  0  0  0  0  2  0  0  0  0  0  0
  -31.2010  -21.7220   22.6570 C   0  0  0  0  0  1  0  0  0  0  0  0
  -30.1560  -21.0310   21.7620 C   0  0  0  0  0  3  0  0  0  0  0  0
  -31.0070  -19.0930   20.3020 C   0  0  0  0  0  3  0  0  0  0  0  0
  -30.8220  -20.4170   20.5160 C   0  0  0  0  0  0  0  0  0  0  0  0
  -31.3410  -21.3920   19.4680 C   0  0  0  0  0  1  0  0  0  0  0  0
  -30.6470  -17.8810   21.1580 C   0  0  0  0  0  2  0  0  0  0  0  0
  -29.9150  -16.8210   20.3090 C   0  0  0  0  0  2  0  0  0  0  0  0
  -30.6460  -14.4590   20.4780 C   0  0  0  0  0  0  0  0  0  0  0  0
  -30.3570  -12.3070   19.3340 C   0  0  0  0  0  2  0  0  0  0  0  0
  -29.4050  -12.5420   18.1420 C   0  0  0  0  0  2  0  0  0  0  0  0
  -27.9320  -12.4080   18.5800 C   0  0  0  0  0  2  0  0  0  0  0  0
  -27.6100  -13.2250   19.8590 C   0  0  0  0  0  3  0  0  0  0  0  0
  -28.6720  -12.9720   20.9570 C   0  0  0  0  0  2  0  0  0  0  0  0
  -29.9970  -13.2700   20.3860 N   0  0  0  0  0  0  0  0  0  0  0  0
  -31.7660  -14.6640   19.9980 O   0  0  0  0  0  0  0  0  0  0  0  0
  -29.8730  -15.4760   20.8940 N   0  0  0  0  0  0  0  0  0  0  0  0
  -28.9990  -15.2000   21.3160 H   0  0  0  0  0  0  0  0  0  0  0  0
  -25.2140  -13.8410   20.5760 C   0  0  0  0  0  0  0  0  0  0  0  0
  -24.1460  -13.0700   20.9520 C   0  0  0  0  0  0  0  0  0  0  0  0
  -24.6040  -11.7180   20.9160 C   0  0  0  0  0  0  0  0  0  0  0  0
  -26.2560  -12.9580   20.3410 N   0  0  0  0  0  0  0  0  0  0  0  0
  -25.8920  -11.6750   20.6000 N   0  0  0  0  0  0  0  0  0  0  0  0
  -23.8780  -10.4570   21.1110 C   0  0  0  0  0  0  0  0  0  0  0  0
  -24.3380   -9.4730   22.0150 C   0  0  0  0  0  3  0  0  0  0  0  0
  -23.6150   -8.2750   22.1980 C   0  0  0  0  0  3  0  0  0  0  0  0
  -22.4170   -8.0530   21.4780 C   0  0  0  0  0  0  0  0  0  0  0  0
  -21.9750   -9.0260   20.5630 C   0  0  0  0  0  3  0  0  0  0  0  0
  -22.6990  -10.2150   20.3790 C   0  0  0  0  0  3  0  0  0  0  0  0
  -21.6610   -6.9090   21.5710 O   0  0  0  0  0  0  0  0  0  0  0  0
  -21.6710   -6.1300   22.7010 C   0  0  0  0  0  0  0  0  0  0  0  0
  -21.3420   -6.6550   23.9700 C   0  0  0  0  0  3  0  0  0  0  0  0
  -21.2960   -5.8040   25.0930 C   0  0  0  0  0  3  0  0  0  0  0  0
  -21.5720   -4.4300   24.9480 C   0  0  0  0  0  0  0  0  0  0  0  0
  -21.8940   -3.9060   23.6840 C   0  0  0  0  0  3  0  0  0  0  0  0
  -21.9420   -4.7540   22.5630 C   0  0  0  0  0  0  0  0  0  0  0  0
  -22.2330   -4.2390   21.3440 F   0  0  0  0  0  0  0  0  0  0  0  0
  -21.5200   -3.6120   26.0240 F   0  0  0  0  0  0  0  0  0  0  0  0
  -22.7520  -13.5500   21.2350 C   0  0  0  0  0  0  0  0  0  0  0  0
  -22.0290  -12.8550   22.1080 N   0  0  0  0  0  0  0  0  0  0  0  0
  -22.3110  -14.5750   20.7170 O   0  0  0  0  0  0  0  0  0  0  0  0
  -22.4000  -12.0270   22.5510 H   0  0  0  0  0  0  0  0  0  0  0  0
  -21.0930  -13.1580   22.3370 H   0  0  0  0  0  0  0  0  0  0  0  0
  -25.3800  -15.2120   20.3970 N   0  0  0  0  0  0  0  0  0  0  0  0
  -24.6150  -15.8670   20.5050 H   0  0  0  0  0  0  0  0  0  0  0  0
  -26.2290  -15.6460   20.0560 H   0  0  0  0  0  0  0  0  0  0  0  0
  1  3  1  0
  1  6  1  0
  1 49  1  0
  2  1  1  0
  6  4  1  1
  6  5  1  0
  7  8  1  0
  7  6  1  0
  9 20  2  0
 10  8  1  0
 10 15  1  0
 11 19  1  0
 11 21  1  0
 12 18  1  0
 12 14  1  0
 13 19  1  0
 14 13  1  0
 15 14  2  0
 16 17  1  0
 16 10  2  0
 17 12  2  0
 18 11  1  0
 19  9  1  0
 21 23  2  0
 22 21  1  0
 24 22  1  0
 25 34  2  0
 25 30  1  0
 26 22  1  0
 26 30  1  0
 27 26  1  0
 28 29  1  0
 28 27  1  0
 29 25  1  0
 30 31  2  0
 31 32  1  0
 33 32  2  0
 34 33  1  0
 35  9  1  0
 35 36  1  0
 35 45  1  0
 36 39  1  0
 37 41  1  0
 37 36  1  0
 38 37  2  0
 41 40  1  0
 43 41  1  0
 43 44  1  0
 43 42  1  0
 45 48  1  1
 45 46  1  0
 47 45  1  0
 49 51  1  0
 51 50  1  0
 52 53  2  0
 52 55  1  0
 53 51  1  0
 54 53  1  0
 56 65  1  0
 56 55  1  0
 57 65  1  0
 58 63  1  0
 59 60  1  0
 59 58  1  0
 61 60  1  0
 61 70  1  0
 61 62  1  0
 63 57  1  0
 63 62  1  0
 64 57  2  0
 65 66  1  0
 67 68  2  0
 68 87  1  0
 69 68  1  0
 69 72  1  0
 70 67  1  0
 70 71  1  0
 71 69  2  0
 72 73  1  0
 73 74  2  0
 75 78  1  0
 75 74  1  0
 76 75  2  0
 77 76  1  0
 77 72  2  0
 78 79  1  0
 79 80  1  0
 80 81  2  0
 82 81  1  0
 82 86  1  0
 83 82  2  0
 84 79  2  0
 84 83  1  0
 85 84  1  0
 87 88  1  0
 88 91  1  0
 88 90  1  0
 89 87  2  0
 92 93  1  0
 92 67  1  0
 94 92  1  0
M  ISO  4   7 101   8 101  57 100  65 100
M  END
>  <TORSDO>  (60) 
F 23

>  <SCORE>  (60) 
-13.002

>  <name>  (60) 
59

>  <ligand_id>  (60) 
59

>  <original_smiles>  (60) 
[H]C(=C(C([H])([H])[H])C([H])(C([H])([H])[H])C([H])([H])[N+]([H])([H])C(C([H])([H])[H])(C([H])([H])[H])C([H])([H])Oc1c([H])c([H])c2c(c1[H])C([H])([H])N(C(=O)C([H])(N([H])C(=O)C([H])(N([H])C([H])([H])[H])C([H])([H])[H])C(C([H])([H])[H])(C([H])([H])[H])C([H])([H])[H])C([H])(C(=O)N([H])C1([H])c3c([H])c([H])c([H])c([H])c3C([H])([H])C([H])([H])C1([H])[H])C2([H])[H])C([H])([H])C([H])([H])N([H])C(=O)N1C([H])([H])C([H])([H])C([H])([H])C([H])(n2nc(-c3c([H])c([H])c(Oc4c([H])c([H])c(F)c([H])c4F)c([H])c3[H])c(C(=O)N([H])[H])c2N([H])[H])C1([H])[H]

>  <smiles>  (60) 
[H]C(=C(C([H])([H])[H])C([H])(C([H])([H])[H])C([H])([H])[N+]([H])([H])C(C([H])([H])[H])(C([H])([H])[H])C([H])([H])Oc1c([H])c([H])c2c(c1[H])C([H])([H])N(C(=O)C([H])(N([H])C(=O)C([H])(N([H])C([H])([H])[H])C([H])([H])[H])C(C([H])([H])[H])(C([H])([H])[H])C([H])([H])[H])C([H])(C(=O)N([H])C1([H])c3c([H])c([H])c([H])c([H])c3C([H])([H])C([H])([H])C1([H])[H])C2([H])[H])C([H])([H])C([H])([H])N([H])C(=O)N1C([H])([H])C([H])([H])C([H])([H])C([H])(n2nc(-c3c([H])c([H])c(Oc4c([H])c([H])c(F)c([H])c4F)c([H])c3[H])c(C(=O)N([H])[H])c2N([H])[H])C1([H])[H]

$$$$
60:0:0
     RDKit          3D

 91 99  0  0  1  0  0  0  0  0999 V2000
  -31.6160  -14.9970   20.3940 C   0  0  0  0  0  0  0  0  0  0  0  0
  -29.1840  -14.4180   20.7660 C   0  0  0  0  0  2  0  0  0  0  0  0
  -28.3990  -14.6680   19.4560 C   0  0  0  0  0  2  0  0  0  0  0  0
  -27.9590  -16.1410   19.3450 C   0  0  0  0  0  2  0  0  0  0  0  0
  -29.1040  -17.1280   19.6910 C   0  0  0  0  0  3  0  0  0  0  0  0
  -29.8350  -16.7260   20.9910 C   0  0  0  0  0  2  0  0  0  0  0  0
  -30.3390  -15.3570   20.8020 N   0  0  0  0  0  0  0  0  0  0  0  0
  -31.9270  -13.8000   20.4320 O   0  0  0  0  0  0  0  0  0  0  0  0
  -34.4920  -17.2810   19.1780 C   0  0  0  0  0  3  0  0  0  0  0  0
  -35.0560  -15.7410   17.0410 C   0  0  0  0  0  3  0  0  0  0  0  0
  -35.5750  -17.6630   18.3020 C   0  0  0  0  0  0  0  0  0  0  0  0
  -35.8970  -16.9040   17.1240 C   0  0  0  0  0  0  0  0  0  0  0  0
  -33.6690  -16.1310   18.9950 C   0  0  0  0  0  0  0  0  0  0  0  0
  -34.0300  -15.3730   17.9100 N   0  0  0  0  0  0  0  0  0  0  0  0
  -32.4560  -15.9990   19.8860 N   0  0  0  0  0  0  0  0  0  0  0  0
  -32.0960  -16.9020   20.1510 H   0  0  0  0  0  0  0  0  0  0  0  0
  -29.2610  -19.6220   20.2700 C   0  0  0  0  0  0  0  0  0  0  0  0
  -28.4540  -20.6860   19.9740 C   0  0  0  0  0  0  0  0  0  0  0  0
  -27.3470  -20.1530   19.2460 C   0  0  0  0  0  0  0  0  0  0  0  0
  -28.6370  -18.5110   19.7270 N   0  0  0  0  0  0  0  0  0  0  0  0
  -27.4450  -18.8320   19.1610 N   0  0  0  0  0  0  0  0  0  0  0  0
  -26.2290  -20.8320   18.5770 C   0  0  0  0  0  0  0  0  0  0  0  0
  -25.1380  -21.3530   19.3050 C   0  0  0  0  0  3  0  0  0  0  0  0
  -24.0850  -22.0180   18.6410 C   0  0  0  0  0  3  0  0  0  0  0  0
  -24.1190  -22.1710   17.2340 C   0  0  0  0  0  0  0  0  0  0  0  0
  -25.1960  -21.6300   16.5110 C   0  0  0  0  0  3  0  0  0  0  0  0
  -26.2400  -20.9630   17.1730 C   0  0  0  0  0  3  0  0  0  0  0  0
  -23.1280  -22.7800   16.5000 O   0  0  0  0  0  0  0  0  0  0  0  0
  -22.5620  -23.9640   16.9000 C   0  0  0  0  0  0  0  0  0  0  0  0
  -23.3360  -25.1280   17.1010 C   0  0  0  0  0  3  0  0  0  0  0  0
  -22.7050  -26.3410   17.4440 C   0  0  0  0  0  3  0  0  0  0  0  0
  -21.3040  -26.3950   17.5750 C   0  0  0  0  0  0  0  0  0  0  0  0
  -20.5320  -25.2380   17.3670 C   0  0  0  0  0  3  0  0  0  0  0  0
  -21.1610  -24.0270   17.0280 C   0  0  0  0  0  0  0  0  0  0  0  0
  -20.4110  -22.9200   16.8090 F   0  0  0  0  0  0  0  0  0  0  0  0
  -20.6970  -27.5610   17.8950 F   0  0  0  0  0  0  0  0  0  0  0  0
  -28.7420  -22.1300   20.2650 C   0  0  0  0  0  0  0  0  0  0  0  0
  -27.7320  -22.8820   20.6910 N   0  0  0  0  0  0  0  0  0  0  0  0
  -29.8790  -22.5890   20.1630 O   0  0  0  0  0  0  0  0  0  0  0  0
  -26.8030  -22.4990   20.7900 H   0  0  0  0  0  0  0  0  0  0  0  0
  -27.8900  -23.8530   20.9200 H   0  0  0  0  0  0  0  0  0  0  0  0
  -30.4810  -19.5070   20.9300 N   0  0  0  0  0  0  0  0  0  0  0  0
  -30.9810  -20.3170   21.2800 H   0  0  0  0  0  0  0  0  0  0  0  0
  -31.0120  -18.6490   21.0160 H   0  0  0  0  0  0  0  0  0  0  0  0
  -36.7060  -19.1250   20.0820 C   0  0  0  0  0  1  0  0  0  0  0  0
  -35.4230  -20.1650   18.1660 C   0  0  0  0  0  1  0  0  0  0  0  0
  -36.2950  -18.9790   18.6020 C   0  0  0  0  0  3  0  0  0  0  0  0
  -36.8200  -17.4620   15.8770 C   0  0  0  0  0  3  0  0  0  0  0  0
  -38.3830  -18.0350   15.8270 C   0  0  0  0  0  3  0  0  0  0  0  0
  -39.2290  -18.0890   14.3850 C   0  0  0  0  0  2  0  0  0  0  0  0
  -40.2700  -19.1220   13.8990 O   0  0  0  0  0  0  0  0  0  0  0  0
  -41.9560  -20.4890    6.8950 C   0  0  0  0  0  0  0  0  0  0  0  0
  -41.0830  -18.8470   12.7500 C   0  0  0  0  0  0  0  0  0  0  0  0
  -42.5610  -18.2780    7.8020 C   0  0  0  0  0  3  0  0  0  0  0  0
  -42.5080  -18.0500   10.3570 C   0  0  0  0  0  0  0  0  0  0  0  0
  -42.4820  -20.3280    9.3520 C   0  0  0  0  0  2  0  0  0  0  0  0
  -42.1340  -19.3910   10.5160 C   0  0  0  0  0  0  0  0  0  0  0  0
  -41.4410  -19.7950   11.7150 C   0  0  0  0  0  3  0  0  0  0  0  0
  -41.5550  -17.5310   12.5460 C   0  0  0  0  0  3  0  0  0  0  0  0
  -42.2380  -17.1320   11.3800 C   0  0  0  0  0  3  0  0  0  0  0  0
  -43.1940  -17.6380    9.0660 C   0  0  0  0  0  2  0  0  0  0  0  0
  -42.3010  -19.7420    7.9860 N   0  0  0  0  0  0  0  0  0  0  0  0
  -41.8740  -19.9860    5.7630 O   0  0  0  0  0  0  0  0  0  0  0  0
  -41.2970  -17.4780    7.4010 C   0  0  0  0  0  0  0  0  0  0  0  0
  -41.4500  -16.5000    6.4900 N   0  0  0  0  0  0  0  0  0  0  0  0
  -40.2070  -17.7270    7.9260 O   0  0  0  0  0  0  0  0  0  0  0  0
  -42.3710  -16.3610    6.0970 H   0  0  0  0  0  0  0  0  0  0  0  0
  -40.6510  -14.0020    3.9930 C   0  0  0  0  0  0  0  0  0  0  0  0
  -40.3990  -15.5990    6.0120 C   0  0  0  0  0  3  0  0  0  0  0  0
  -40.3210  -14.3210    6.8790 C   0  0  0  0  0  2  0  0  0  0  0  0
  -41.1620  -13.1660    6.3250 C   0  0  0  0  0  2  0  0  0  0  0  0
  -40.7000  -12.7940    4.9140 C   0  0  0  0  0  2  0  0  0  0  0  0
  -40.5250  -15.3200    4.5090 C   0  0  0  0  0  0  0  0  0  0  0  0
  -40.5190  -16.4070    3.6090 C   0  0  0  0  0  3  0  0  0  0  0  0
  -40.6320  -16.1970    2.2220 C   0  0  0  0  0  3  0  0  0  0  0  0
  -40.7440  -14.8910    1.7170 C   0  0  0  0  0  3  0  0  0  0  0  0
  -40.7490  -13.7970    2.6010 C   0  0  0  0  0  3  0  0  0  0  0  0
  -41.6660  -22.0170    7.0110 C   0  0  0  0  0  3  0  0  0  0  0  0
  -40.1270  -22.3540    7.0870 C   0  0  1  0  0  0  0  0  0  0  0  0
  -39.2940  -21.7210    5.9480 C   0  0  0  0  0  1  0  0  0  0  0  0
  -39.5260  -21.8750    8.4290 C   0  0  0  0  0  1  0  0  0  0  0  0
  -39.9220  -23.8850    7.0350 C   0  0  0  0  0  1  0  0  0  0  0  0
  -42.2780  -22.6780    5.8470 N   0  0  0  0  0  0  0  0  0  0  0  0
  -43.5270  -23.1600    5.8120 C   0  0  0  0  0  0  0  0  0  0  0  0
  -44.2750  -23.1500    6.7920 O   0  0  0  0  0  0  0  0  0  0  0  0
  -41.7420  -22.6720    4.9910 H   0  0  0  0  0  0  0  0  0  0  0  0
  -45.0770  -22.8060    3.8620 C   0  0  0  0  0  1  0  0  0  0  0  0
  -44.0270  -23.7460    4.4760 C   0  0  0  0  0  3  0  0  0  0  0  0
  -43.6180  -26.0980    5.0520 C   0  0  0  0  0  1  0  0  0  0  0  0
  -44.5930  -25.1070    4.6030 N   0  0  0  0  0  0  0  0  0  0  0  0
  -44.9800  -25.4200    3.7170 H   0  0  0  0  0  0  0  0  0  0  0  0
  1  8  2  0
  1  7  1  0
  2  7  1  0
  3  2  1  0
  4  3  1  0
  5  4  1  0
  5 20  1  0
  5  6  1  0
  7  6  1  0
 10 12  2  0
 10 14  1  0
 11 47  1  0
 11  9  2  0
 12 11  1  0
 13  9  1  0
 13 15  1  0
 14 13  2  0
 15 16  1  0
 15  1  1  0
 17 42  1  0
 18 37  1  0
 18 17  2  0
 19 18  1  0
 20 17  1  0
 21 19  2  0
 21 20  1  0
 22 19  1  0
 22 23  1  0
 24 23  2  0
 25 24  1  0
 26 27  1  0
 26 25  2  0
 27 22  2  0
 28 29  1  0
 28 25  1  0
 29 34  2  0
 29 30  1  0
 30 31  2  0
 31 32  1  0
 32 36  1  0
 33 32  2  0
 34 33  1  0
 35 34  1  0
 37 38  1  0
 38 40  1  0
 38 41  1  0
 39 37  2  0
 42 44  1  0
 42 43  1  0
 46 47  1  0
 47 45  1  0
 48 12  1  0
 49 48  2  0
 50 49  1  0
 51 50  1  0
 52 62  1  0
 53 51  1  0
 54 64  1  0
 54 62  1  0
 54 61  1  0
 55 57  2  0
 55 60  1  0
 56 57  1  0
 57 58  1  0
 58 53  2  0
 59 53  1  0
 60 59  2  0
 61 55  1  0
 62 56  1  0
 63 52  2  0
 64 66  2  0
 65 64  1  0
 67 65  1  0
 68 73  1  0
 68 72  1  0
 69 65  1  0
 69 70  1  0
 71 70  1  0
 72 71  1  0
 73 69  1  0
 74 73  2  0
 75 74  1  0
 76 75  2  0
 76 77  1  0
 77 68  2  0
 78 52  1  0
 78 79  1  0
 79 81  1  1
 80 79  1  0
 82 79  1  0
 83 78  1  0
 84 83  1  0
 84 85  2  0
 86 83  1  0
 88 87  1  0
 88 90  1  0
 88 84  1  0
 90 89  1  0
 91 90  1  0
M  ISO  4   1 100  15 100  50 101  51 101
M  END
>  <TORSDO>  (61) 
F 19

>  <SCORE>  (61) 
-1.449

>  <name>  (61) 
60

>  <ligand_id>  (61) 
60

>  <original_smiles>  (61) 
[H]c1nc(N([H])C(=O)N2C([H])([H])C([H])([H])C([H])([H])C([H])(n3nc(-c4c([H])c([H])c(Oc5c([H])c([H])c(F)c([H])c5F)c([H])c4[H])c(C(=O)N([H])[H])c3N([H])[H])C2([H])[H])c([H])c(C([H])(C([H])([H])[H])C([H])([H])[H])c1C([H])([H])C([H])([H])C([H])([H])Oc1c([H])c([H])c2c(c1[H])C([H])([H])N(C(=O)C([H])(N([H])C(=O)C([H])(N([H])C([H])([H])[H])C([H])([H])[H])C(C([H])([H])[H])(C([H])([H])[H])C([H])([H])[H])C([H])(C(=O)N([H])C1([H])c3c([H])c([H])c([H])c([H])c3C([H])([H])C([H])([H])C1([H])[H])C2([H])[H]

>  <smiles>  (61) 
[H]c1nc(N([H])C(=O)N2C([H])([H])C([H])([H])C([H])([H])C([H])(n3nc(-c4c([H])c([H])c(Oc5c([H])c([H])c(F)c([H])c5F)c([H])c4[H])c(C(=O)N([H])[H])c3N([H])[H])C2([H])[H])c([H])c(C([H])(C([H])([H])[H])C([H])([H])[H])c1C([H])([H])C([H])([H])C([H])([H])Oc1c([H])c([H])c2c(c1[H])C([H])([H])N(C(=O)C([H])(N([H])C(=O)C([H])(N([H])C([H])([H])[H])C([H])([H])[H])C(C([H])([H])[H])(C([H])([H])[H])C([H])([H])[H])C([H])(C(=O)N([H])C1([H])c3c([H])c([H])c([H])c([H])c3C([H])([H])C([H])([H])C1([H])[H])C2([H])[H]

$$$$
61:0:0
     RDKit          3D

 89 97  0  0  1  0  0  0  0  0999 V2000
  -30.1730  -21.5400   22.3350 C   0  0  0  0  0  3  0  0  0  0  0  0
  -30.0980  -20.2470   21.7570 C   0  0  0  0  0  3  0  0  0  0  0  0
  -29.5680  -22.7040   21.7880 C   0  0  0  0  0  0  0  0  0  0  0  0
  -29.4270  -20.0060   20.5490 C   0  0  0  0  0  0  0  0  0  0  0  0
  -28.8070  -22.6500   20.5960 C   0  0  0  0  0  0  0  0  0  0  0  0
  -28.7850  -21.2570   20.0240 N   0  0  0  0  0  0  0  0  0  0  0  0
  -29.7400  -24.1840   22.6620 Cl  0  0  0  0  0  0  0  0  0  0  0  0
  -26.5690  -23.8490   21.0340 C   0  0  0  0  0  1  0  0  0  0  0  0
  -27.8500  -24.1140   20.2200 C   0  0  0  0  0  3  0  0  0  0  0  0
  -28.1160  -25.7800   20.3990 O   0  0  0  0  0  0  0  0  0  0  0  0
  -24.6310  -31.9230   23.2430 C   0  0  0  0  0  0  0  0  0  0  0  0
  -27.1460  -26.9400   20.2780 C   0  0  0  0  0  0  0  0  0  0  0  0
  -23.4310  -30.5130   21.6240 C   0  0  0  0  0  3  0  0  0  0  0  0
  -24.8710  -28.8830   20.2090 C   0  0  0  0  0  0  0  0  0  0  0  0
  -26.0010  -30.6910   21.4780 C   0  0  0  0  0  2  0  0  0  0  0  0
  -26.0610  -29.2690   20.8370 C   0  0  0  0  0  0  0  0  0  0  0  0
  -27.1880  -28.3180   20.8500 C   0  0  0  0  0  3  0  0  0  0  0  0
  -25.9420  -26.7500   19.5590 C   0  0  0  0  0  3  0  0  0  0  0  0
  -24.8400  -27.6460   19.5480 C   0  0  0  0  0  3  0  0  0  0  0  0
  -23.6560  -29.8120   20.2550 C   0  0  0  0  0  2  0  0  0  0  0  0
  -24.7100  -31.0710   22.1680 N   0  0  0  0  0  0  0  0  0  0  0  0
  -23.5420  -32.2250   23.7590 O   0  0  0  0  0  0  0  0  0  0  0  0
  -22.7290  -29.5360   22.6030 C   0  0  0  0  0  0  0  0  0  0  0  0
  -21.3990  -29.3670   22.4730 N   0  0  0  0  0  0  0  0  0  0  0  0
  -23.3890  -28.9290   23.4500 O   0  0  0  0  0  0  0  0  0  0  0  0
  -20.9200  -29.9040   21.7610 H   0  0  0  0  0  0  0  0  0  0  0  0
  -18.0180  -28.1430   22.9780 C   0  0  0  0  0  0  0  0  0  0  0  0
  -20.5730  -28.4420   23.2570 C   0  0  0  0  0  3  0  0  0  0  0  0
  -20.6940  -26.9970   22.7160 C   0  0  0  0  0  2  0  0  0  0  0  0
  -19.6040  -26.6430   21.6990 C   0  0  0  0  0  2  0  0  0  0  0  0
  -18.2150  -26.7830   22.3280 C   0  0  0  0  0  2  0  0  0  0  0  0
  -19.1240  -28.9270   23.4000 C   0  0  0  0  0  0  0  0  0  0  0  0
  -18.8850  -30.1940   23.9730 C   0  0  0  0  0  3  0  0  0  0  0  0
  -17.5720  -30.6790   24.1260 C   0  0  0  0  0  3  0  0  0  0  0  0
  -16.4800  -29.8940   23.7190 C   0  0  0  0  0  3  0  0  0  0  0  0
  -16.7040  -28.6280   23.1500 C   0  0  0  0  0  3  0  0  0  0  0  0
  -25.9040  -32.5710   23.8670 C   0  0  0  0  0  3  0  0  0  0  0  0
  -25.5910  -33.9770   24.1830 N   0  0  0  0  0  0  0  0  0  0  0  0
  -25.9260  -35.0300   23.4250 C   0  0  0  0  0  0  0  0  0  0  0  0
  -26.5880  -34.9190   22.3920 O   0  0  0  0  0  0  0  0  0  0  0  0
  -24.9960  -34.1370   24.9840 H   0  0  0  0  0  0  0  0  0  0  0  0
  -24.2030  -36.8370   23.0860 C   0  0  0  0  0  1  0  0  0  0  0  0
  -25.4500  -36.4250   23.8830 C   0  0  0  0  0  3  0  0  0  0  0  0
  -27.5920  -37.3090   24.6970 C   0  0  0  0  0  1  0  0  0  0  0  0
  -26.4880  -37.4700   23.7570 N   0  0  0  0  0  0  0  0  0  0  0  0
  -26.0860  -38.3940   23.8970 H   0  0  0  0  0  0  0  0  0  0  0  0
  -26.4070  -31.8210   25.1640 C   0  0  1  0  0  0  0  0  0  0  0  0
  -25.3060  -31.6120   26.2280 C   0  0  0  0  0  1  0  0  0  0  0  0
  -26.9850  -30.4310   24.8130 C   0  0  0  0  0  1  0  0  0  0  0  0
  -27.5550  -32.6230   25.8220 C   0  0  0  0  0  1  0  0  0  0  0  0
  -29.7090  -18.3930   19.8580 C   0  0  0  0  0  2  0  0  0  0  0  0
  -30.4300  -15.4740   20.1430 C   0  0  0  0  0  0  0  0  0  0  0  0
  -30.4130  -13.0100   19.2640 C   0  0  0  0  0  2  0  0  0  0  0  0
  -29.4710  -12.7800   18.0530 C   0  0  0  0  0  2  0  0  0  0  0  0
  -28.0390  -12.4780   18.5250 C   0  0  0  0  0  2  0  0  0  0  0  0
  -27.6020  -13.4260   19.6670 C   0  0  0  0  0  3  0  0  0  0  0  0
  -28.6730  -13.6010   20.7680 C   0  0  0  0  0  2  0  0  0  0  0  0
  -29.8790  -14.1470   20.1180 N   0  0  0  0  0  0  0  0  0  0  0  0
  -31.6270  -15.4710   19.8120 O   0  0  0  0  0  0  0  0  0  0  0  0
  -29.6830  -16.7620   20.3470 N   0  0  0  0  0  0  0  0  0  0  0  0
  -28.7740  -16.5540   20.7310 H   0  0  0  0  0  0  0  0  0  0  0  0
  -25.2440  -13.9500   20.4770 C   0  0  0  0  0  0  0  0  0  0  0  0
  -24.1970  -13.1610   20.8610 C   0  0  0  0  0  0  0  0  0  0  0  0
  -24.6750  -11.8150   20.8090 C   0  0  0  0  0  0  0  0  0  0  0  0
  -26.2880  -13.0880   20.2010 N   0  0  0  0  0  0  0  0  0  0  0  0
  -25.9600  -11.7950   20.4680 N   0  0  0  0  0  0  0  0  0  0  0  0
  -23.9600  -10.5460   21.0030 C   0  0  0  0  0  0  0  0  0  0  0  0
  -24.4080   -9.5800   21.9300 C   0  0  0  0  0  3  0  0  0  0  0  0
  -23.6910   -8.3780   22.1170 C   0  0  0  0  0  3  0  0  0  0  0  0
  -22.5100   -8.1340   21.3750 C   0  0  0  0  0  0  0  0  0  0  0  0
  -22.0790   -9.0880   20.4380 C   0  0  0  0  0  3  0  0  0  0  0  0
  -22.7990  -10.2810   20.2490 C   0  0  0  0  0  3  0  0  0  0  0  0
  -21.7650   -6.9820   21.4700 O   0  0  0  0  0  0  0  0  0  0  0  0
  -21.7240   -6.2440   22.6250 C   0  0  0  0  0  0  0  0  0  0  0  0
  -21.2820   -6.7970   23.8480 C   0  0  0  0  0  3  0  0  0  0  0  0
  -21.1900   -5.9850   24.9960 C   0  0  0  0  0  3  0  0  0  0  0  0
  -21.5280   -4.6200   24.9230 C   0  0  0  0  0  0  0  0  0  0  0  0
  -21.9590   -4.0660   23.7060 C   0  0  0  0  0  3  0  0  0  0  0  0
  -22.0550   -4.8760   22.5610 C   0  0  0  0  0  0  0  0  0  0  0  0
  -22.4520   -4.3300   21.3840 F   0  0  0  0  0  0  0  0  0  0  0  0
  -21.4310   -3.8380   26.0230 F   0  0  0  0  0  0  0  0  0  0  0  0
  -22.8020  -13.6240   21.1620 C   0  0  0  0  0  0  0  0  0  0  0  0
  -22.0950  -12.9160   22.0350 N   0  0  0  0  0  0  0  0  0  0  0  0
  -22.3480  -14.6530   20.6600 O   0  0  0  0  0  0  0  0  0  0  0  0
  -22.4740  -12.0870   22.4650 H   0  0  0  0  0  0  0  0  0  0  0  0
  -21.1580  -13.2080   22.2770 H   0  0  0  0  0  0  0  0  0  0  0  0
  -25.3900  -15.3240   20.3090 N   0  0  0  0  0  0  0  0  0  0  0  0
  -24.6190  -15.9680   20.4620 H   0  0  0  0  0  0  0  0  0  0  0  0
  -26.2200  -15.7760   19.9510 H   0  0  0  0  0  0  0  0  0  0  0  0
  2  1  2  0
  3  1  1  0
  3  7  1  0
  4  2  1  0
  5  3  2  0
  6  4  2  0
  6  5  1  0
  9 10  1  0
  9  5  1  0
  9  8  1  0
 11 22  2  0
 12 10  1  0
 12 17  1  0
 13 21  1  0
 13 23  1  0
 14 20  1  0
 14 16  1  0
 15 21  1  0
 16 17  2  0
 16 15  1  0
 18 12  2  0
 19 18  1  0
 19 14  2  0
 20 13  1  0
 21 11  1  0
 23 25  2  0
 24 23  1  0
 26 24  1  0
 27 36  2  0
 27 32  1  0
 28 24  1  0
 28 32  1  0
 29 28  1  0
 30 31  1  0
 30 29  1  0
 31 27  1  0
 32 33  2  0
 33 34  1  0
 35 34  2  0
 36 35  1  0
 37 11  1  0
 37 38  1  0
 37 47  1  0
 38 41  1  0
 39 43  1  0
 39 38  1  0
 40 39  2  0
 43 42  1  0
 45 43  1  0
 45 46  1  0
 45 44  1  0
 47 50  1  1
 47 48  1  0
 49 47  1  0
 51 60  1  0
 51  4  1  0
 52 60  1  0
 53 58  1  0
 54 55  1  0
 54 53  1  0
 56 55  1  0
 56 65  1  0
 56 57  1  0
 58 52  1  0
 58 57  1  0
 59 52  2  0
 60 61  1  0
 62 63  2  0
 63 82  1  0
 64 63  1  0
 64 67  1  0
 65 66  1  0
 65 62  1  0
 66 64  2  0
 67 68  1  0
 68 69  2  0
 70 73  1  0
 70 69  1  0
 71 70  2  0
 72 71  1  0
 72 67  2  0
 73 74  1  0
 74 75  1  0
 75 76  2  0
 77 76  1  0
 77 81  1  0
 78 77  2  0
 79 74  2  0
 79 78  1  0
 80 79  1  0
 82 83  1  0
 83 86  1  0
 83 85  1  0
 84 82  2  0
 87 88  1  0
 87 62  1  0
 89 87  1  0
M  ISO  4   9 101  10 101  52 100  60 100
M  END
>  <TORSDO>  (62) 
F 18

>  <SCORE>  (62) 
-16.801

>  <name>  (62) 
61

>  <ligand_id>  (62) 
61

>  <original_smiles>  (62) 
[H]c1c(C([H])([H])N([H])C(=O)N2C([H])([H])C([H])([H])C([H])([H])C([H])(n3nc(-c4c([H])c([H])c(Oc5c([H])c([H])c(F)c([H])c5F)c([H])c4[H])c(C(=O)N([H])[H])c3N([H])[H])C2([H])[H])nc(C([H])(Oc2c([H])c([H])c3c(c2[H])C([H])([H])N(C(=O)C([H])(N([H])C(=O)C([H])(N([H])C([H])([H])[H])C([H])([H])[H])C(C([H])([H])[H])(C([H])([H])[H])C([H])([H])[H])C([H])(C(=O)N([H])C2([H])c4c([H])c([H])c([H])c([H])c4C([H])([H])C([H])([H])C2([H])[H])C3([H])[H])C([H])([H])[H])c(Cl)c1[H]

>  <smiles>  (62) 
[H]c1c(C([H])([H])N([H])C(=O)N2C([H])([H])C([H])([H])C([H])([H])C([H])(n3nc(-c4c([H])c([H])c(Oc5c([H])c([H])c(F)c([H])c5F)c([H])c4[H])c(C(=O)N([H])[H])c3N([H])[H])C2([H])[H])nc(C([H])(Oc2c([H])c([H])c3c(c2[H])C([H])([H])N(C(=O)C([H])(N([H])C(=O)C([H])(N([H])C([H])([H])[H])C([H])([H])[H])C(C([H])([H])[H])(C([H])([H])[H])C([H])([H])[H])C([H])(C(=O)N([H])C2([H])c4c([H])c([H])c([H])c([H])c4C([H])([H])C([H])([H])C2([H])[H])C3([H])[H])C([H])([H])[H])c(Cl)c1[H]

$$$$
62:0:0
     RDKit          3D

100109  0  0  1  0  0  0  0  0999 V2000
  -30.5860  -22.5040   22.5450 C   0  0  0  0  0  3  0  0  0  0  0  0
  -31.5840  -20.7160   21.2510 C   0  0  0  0  0  0  0  0  0  0  0  0
  -31.1430  -22.0610   21.3280 C   0  0  0  0  0  0  0  0  0  0  0  0
  -30.5100  -21.6110   23.6280 C   0  0  0  0  0  0  0  0  0  0  0  0
  -31.4490  -19.8930   22.3910 C   0  0  0  0  0  0  0  0  0  0  0  0
  -32.2010  -20.1850   19.9580 C   0  0  0  0  0  1  0  0  0  0  0  0
  -29.9740  -22.0610   24.9700 C   0  0  0  0  0  1  0  0  0  0  0  0
  -30.9370  -20.3330   23.5520 N   0  0  0  0  0  0  0  0  0  0  0  0
  -31.8990  -18.5730   22.4250 N   0  0  0  0  0  0  0  0  0  0  0  0
  -32.0500  -18.2810   23.3840 H   0  0  0  0  0  0  0  0  0  0  0  0
  -31.0370  -17.6120   21.7480 C   0  0  0  0  0  2  0  0  0  0  0  0
  -31.7320  -16.2420   21.6840 C   0  0  0  0  0  2  0  0  0  0  0  0
  -31.1260  -14.4980   20.0100 C   0  0  0  0  0  0  0  0  0  0  0  0
  -30.5960  -12.4570   18.7330 C   0  0  0  0  0  2  0  0  0  0  0  0
  -29.5780  -12.7210   17.6090 C   0  0  0  0  0  2  0  0  0  0  0  0
  -28.1390  -12.6070   18.1430 C   0  0  0  0  0  2  0  0  0  0  0  0
  -27.9190  -13.4350   19.4360 C   0  0  0  0  0  3  0  0  0  0  0  0
  -29.0330  -13.1600   20.4690 C   0  0  0  0  0  2  0  0  0  0  0  0
  -30.3400  -13.4040   19.8270 N   0  0  0  0  0  0  0  0  0  0  0  0
  -32.0690  -14.7860   19.2680 O   0  0  0  0  0  0  0  0  0  0  0  0
  -30.8780  -15.1970   21.1230 N   0  0  0  0  0  0  0  0  0  0  0  0
  -30.1040  -14.8830   21.6890 H   0  0  0  0  0  0  0  0  0  0  0  0
  -25.6060  -14.1110   20.3480 C   0  0  0  0  0  0  0  0  0  0  0  0
  -24.5310  -13.3660   20.7580 C   0  0  0  0  0  0  0  0  0  0  0  0
  -24.9250  -12.0000   20.6260 C   0  0  0  0  0  0  0  0  0  0  0  0
  -26.5890  -13.1980   19.9970 N   0  0  0  0  0  0  0  0  0  0  0  0
  -26.1850  -11.9210   20.2180 N   0  0  0  0  0  0  0  0  0  0  0  0
  -24.1560  -10.7620   20.8100 C   0  0  0  0  0  0  0  0  0  0  0  0
  -24.5490   -9.7800   21.7460 C   0  0  0  0  0  3  0  0  0  0  0  0
  -23.7820   -8.6070   21.9180 C   0  0  0  0  0  3  0  0  0  0  0  0
  -22.6080   -8.4090   21.1540 C   0  0  0  0  0  0  0  0  0  0  0  0
  -22.2330   -9.3800   20.2090 C   0  0  0  0  0  3  0  0  0  0  0  0
  -23.0000  -10.5430   20.0340 C   0  0  0  0  0  3  0  0  0  0  0  0
  -21.8160   -7.2880   21.2350 O   0  0  0  0  0  0  0  0  0  0  0  0
  -21.6560   -6.6020   22.4110 C   0  0  0  0  0  0  0  0  0  0  0  0
  -21.1310   -7.2190   23.5680 C   0  0  0  0  0  3  0  0  0  0  0  0
  -20.9180   -6.4610   24.7350 C   0  0  0  0  0  3  0  0  0  0  0  0
  -21.2190   -5.0860   24.7480 C   0  0  0  0  0  0  0  0  0  0  0  0
  -21.7350   -4.4680   23.5950 C   0  0  0  0  0  3  0  0  0  0  0  0
  -21.9500   -5.2230   22.4290 C   0  0  0  0  0  0  0  0  0  0  0  0
  -22.4280   -4.6180   21.3150 F   0  0  0  0  0  0  0  0  0  0  0  0
  -21.0070   -4.3550   25.8670 F   0  0  0  0  0  0  0  0  0  0  0  0
  -23.1830  -13.8900   21.1610 C   0  0  0  0  0  0  0  0  0  0  0  0
  -22.4980  -13.1900   22.0610 N   0  0  0  0  0  0  0  0  0  0  0  0
  -22.7500  -14.9530   20.7180 O   0  0  0  0  0  0  0  0  0  0  0  0
  -22.8630  -12.3300   22.4410 H   0  0  0  0  0  0  0  0  0  0  0  0
  -21.5960  -13.5220   22.3740 H   0  0  0  0  0  0  0  0  0  0  0  0
  -25.8220  -15.4800   20.2240 N   0  0  0  0  0  0  0  0  0  0  0  0
  -25.1040  -16.1660   20.4290 H   0  0  0  0  0  0  0  0  0  0  0  0
  -26.6730  -15.8940   19.8640 H   0  0  0  0  0  0  0  0  0  0  0  0
  -31.3500  -22.8730   20.2330 O   0  0  0  0  0  0  0  0  0  0  0  0
  -30.4840  -23.9760   19.9600 C   0  0  0  0  0  2  0  0  0  0  0  0
  -29.8930  -23.4550   17.4800 C   0  0  0  0  0  2  0  0  0  0  0  0
  -29.5450  -22.2370   18.2650 C   0  0  0  0  0  2  0  0  0  0  0  0
  -29.4020  -23.6170   18.9220 C   0  0  1  0  0  0  0  0  0  0  0  0
  -27.9230  -24.0070   19.2590 C   0  0  0  0  0  3  0  0  0  0  0  0
  -27.1600  -25.4120   17.1420 C   0  0  0  0  0  1  0  0  0  0  0  0
  -26.9820  -24.1550   18.0210 C   0  0  0  0  0  2  0  0  0  0  0  0
  -27.6010  -25.0290   20.4040 C   0  0  0  0  0  2  0  0  0  0  0  0
  -27.8180  -26.4290   20.1200 O   0  0  0  0  0  0  0  0  0  0  0  0
  -24.5290  -31.7820   23.4890 C   0  0  0  0  0  0  0  0  0  0  0  0
  -26.7060  -27.2550   20.1880 C   0  0  0  0  0  0  0  0  0  0  0  0
  -23.1610  -30.5390   21.8540 C   0  0  0  0  0  3  0  0  0  0  0  0
  -24.4380  -28.9500   20.3310 C   0  0  0  0  0  0  0  0  0  0  0  0
  -25.6980  -30.7150   21.5620 C   0  0  0  0  0  2  0  0  0  0  0  0
  -25.6580  -29.3620   20.8810 C   0  0  0  0  0  0  0  0  0  0  0  0
  -26.7990  -28.5290   20.7970 C   0  0  0  0  0  3  0  0  0  0  0  0
  -25.4570  -26.8590   19.6510 C   0  0  0  0  0  3  0  0  0  0  0  0
  -24.3320  -27.6970   19.7130 C   0  0  0  0  0  3  0  0  0  0  0  0
  -23.2670  -29.8960   20.4480 C   0  0  0  0  0  2  0  0  0  0  0  0
  -24.4850  -31.0220   22.3600 N   0  0  0  0  0  0  0  0  0  0  0  0
  -23.4910  -32.1160   24.0770 O   0  0  0  0  0  0  0  0  0  0  0  0
  -22.4650  -29.5350   22.8010 C   0  0  0  0  0  0  0  0  0  0  0  0
  -21.1450  -29.3620   22.6260 N   0  0  0  0  0  0  0  0  0  0  0  0
  -23.1120  -28.9120   23.6490 O   0  0  0  0  0  0  0  0  0  0  0  0
  -20.6870  -29.9110   21.9110 H   0  0  0  0  0  0  0  0  0  0  0  0
  -17.7720  -28.1040   22.9350 C   0  0  0  0  0  0  0  0  0  0  0  0
  -20.2940  -28.4410   23.3780 C   0  0  0  0  0  3  0  0  0  0  0  0
  -20.4720  -26.9860   22.8840 C   0  0  0  0  0  2  0  0  0  0  0  0
  -19.4570  -26.5860   21.8080 C   0  0  0  0  0  2  0  0  0  0  0  0
  -18.0280  -26.7280   22.3410 C   0  0  0  0  0  2  0  0  0  0  0  0
  -18.8380  -28.9140   23.4070 C   0  0  0  0  0  0  0  0  0  0  0  0
  -18.5490  -30.1970   23.9190 C   0  0  0  0  0  3  0  0  0  0  0  0
  -17.2260  -30.6740   23.9640 C   0  0  0  0  0  3  0  0  0  0  0  0
  -16.1730  -29.8630   23.5070 C   0  0  0  0  0  3  0  0  0  0  0  0
  -16.4450  -28.5810   22.9990 C   0  0  0  0  0  3  0  0  0  0  0  0
  -25.8800  -32.2920   24.0800 C   0  0  0  0  0  3  0  0  0  0  0  0
  -26.3630  -31.4610   25.3320 C   0  0  1  0  0  0  0  0  0  0  0  0
  -25.2790  -31.2910   26.4200 C   0  0  0  0  0  1  0  0  0  0  0  0
  -26.8280  -30.0500   24.9040 C   0  0  0  0  0  1  0  0  0  0  0  0
  -27.5870  -32.1530   25.9760 C   0  0  0  0  0  1  0  0  0  0  0  0
  -25.7000  -33.7070   24.4320 N   0  0  0  0  0  0  0  0  0  0  0  0
  -26.1070  -34.7350   23.6770 C   0  0  0  0  0  0  0  0  0  0  0  0
  -26.7460  -34.5860   22.6320 O   0  0  0  0  0  0  0  0  0  0  0  0
  -25.1360  -33.9020   25.2460 H   0  0  0  0  0  0  0  0  0  0  0  0
  -24.5370  -36.6750   23.3660 C   0  0  0  0  0  1  0  0  0  0  0  0
  -25.7500  -36.1550   24.1570 C   0  0  0  0  0  3  0  0  0  0  0  0
  -27.9650  -36.8430   24.9620 C   0  0  0  0  0  1  0  0  0  0  0  0
  -26.8690  -37.1140   24.0360 N   0  0  0  0  0  0  0  0  0  0  0  0
  -26.5480  -38.0660   24.1920 H   0  0  0  0  0  0  0  0  0  0  0  0
  1  4  1  0
  2  3  1  0
  2  5  2  0
  3  1  2  0
  4  7  1  0
  5  9  1  0
  5  8  1  0
  6  2  1  0
  8  4  2  0
  9 10  1  0
 11  9  1  0
 12 11  1  0
 13 21  1  0
 14 19  1  0
 15 16  1  0
 15 14  1  0
 17 16  1  0
 17 26  1  0
 17 18  1  0
 19 13  1  0
 19 18  1  0
 20 13  2  0
 21 12  1  0
 21 22  1  0
 23 24  2  0
 24 43  1  0
 25 24  1  0
 25 28  1  0
 26 27  1  0
 26 23  1  0
 27 25  2  0
 28 29  1  0
 29 30  2  0
 31 34  1  0
 31 30  1  0
 32 31  2  0
 33 32  1  0
 33 28  2  0
 34 35  1  0
 35 40  2  0
 35 36  1  0
 36 37  2  0
 37 38  1  0
 38 42  1  0
 39 38  2  0
 40 39  1  0
 41 40  1  0
 43 44  1  0
 44 47  1  0
 44 46  1  0
 45 43  2  0
 48 23  1  0
 48 49  1  0
 50 48  1  0
 51  3  1  0
 52 51  1  0
 53 54  1  0
 53 55  1  0
 54 55  1  0
 55 56  1  0
 55 52  1  1
 56 58  1  0
 56 59  1  0
 57 58  1  0
 60 62  1  0
 60 59  1  0
 61 72  2  0
 62 67  1  0
 63 71  1  0
 63 73  1  0
 64 70  1  0
 64 66  1  0
 65 71  1  0
 66 65  1  0
 67 66  2  0
 68 69  1  0
 68 62  2  0
 69 64  2  0
 70 63  1  0
 71 61  1  0
 73 75  2  0
 74 73  1  0
 76 74  1  0
 77 86  2  0
 77 82  1  0
 78 74  1  0
 78 82  1  0
 79 78  1  0
 80 81  1  0
 80 79  1  0
 81 77  1  0
 82 83  2  0
 83 84  1  0
 85 84  2  0
 86 85  1  0
 87 61  1  0
 87 92  1  0
 87 88  1  0
 88 91  1  1
 88 89  1  0
 90 88  1  0
 92 95  1  0
 93 97  1  0
 93 92  1  0
 94 93  2  0
 97 96  1  0
 99 97  1  0
 99100  1  0
 99 98  1  0
M  ISO  4  13 100  21 100  59 101  60 101
M  END
>  <TORSDO>  (63) 
F 25

>  <SCORE>  (63) 
-11.206

>  <name>  (63) 
62

>  <ligand_id>  (63) 
62

>  <original_smiles>  (63) 
[H]c1c([H])c([H])c2c(c1[H])C([H])([H])C([H])([H])C([H])([H])C2([H])N([H])C(=O)C1([H])N(C(=O)C([H])(N([H])C(=O)C([H])(N([H])C([H])([H])[H])C([H])([H])[H])C(C([H])([H])[H])(C([H])([H])[H])C([H])([H])[H])C([H])([H])c2c([H])c(OC([H])([H])C([H])(C([H])([H])C([H])([H])[H])C3(C([H])([H])Oc4c([H])c(C([H])([H])[H])nc(N([H])C([H])([H])C([H])([H])N([H])C(=O)N5C([H])([H])C([H])([H])C([H])([H])C([H])(n6nc(-c7c([H])c([H])c(Oc8c([H])c([H])c(F)c([H])c8F)c([H])c7[H])c(C(=O)N([H])[H])c6N([H])[H])C5([H])[H])c4C([H])([H])[H])C([H])([H])C3([H])[H])c([H])c([H])c2C1([H])[H]

>  <smiles>  (63) 
[H]c1c([H])c([H])c2c(c1[H])C([H])([H])C([H])([H])C([H])([H])C2([H])N([H])C(=O)C1([H])N(C(=O)C([H])(N([H])C(=O)C([H])(N([H])C([H])([H])[H])C([H])([H])[H])C(C([H])([H])[H])(C([H])([H])[H])C([H])([H])[H])C([H])([H])c2c([H])c(OC([H])([H])C([H])(C([H])([H])C([H])([H])[H])C3(C([H])([H])Oc4c([H])c(C([H])([H])[H])nc(N([H])C([H])([H])C([H])([H])N([H])C(=O)N5C([H])([H])C([H])([H])C([H])([H])C([H])(n6nc(-c7c([H])c([H])c(Oc8c([H])c([H])c(F)c([H])c8F)c([H])c7[H])c(C(=O)N([H])[H])c6N([H])[H])C5([H])[H])c4C([H])([H])[H])C([H])([H])C3([H])[H])c([H])c([H])c2C1([H])[H]

$$$$
63:0:0
     RDKit          3D

102111  0  0  1  0  0  0  0  0999 V2000
  -27.2150  -23.3220   18.7380 C   0  0  0  0  0  3  0  0  0  0  0  0
  -27.0500  -21.9950   18.3020 C   0  0  0  0  0  0  0  0  0  0  0  0
  -28.0170  -21.0170   18.6490 C   0  0  0  0  0  0  0  0  0  0  0  0
  -28.3520  -23.7200   19.4670 C   0  0  0  0  0  0  0  0  0  0  0  0
  -28.9870  -21.3340   19.6410 C   0  0  0  0  0  0  0  0  0  0  0  0
  -25.8840  -21.6880   17.3710 C   0  0  0  0  0  1  0  0  0  0  0  0
  -29.1660  -22.6870   19.9810 N   0  0  0  0  0  0  0  0  0  0  0  0
  -29.8970  -20.2910   20.1130 N   0  0  0  0  0  0  0  0  0  0  0  0
  -30.6980  -20.6630   20.6120 H   0  0  0  0  0  0  0  0  0  0  0  0
  -29.5500  -18.8640   20.5810 C   0  0  0  0  0  3  0  0  0  0  0  0
  -30.4600  -17.5740   20.1140 C   0  0  0  0  0  3  0  0  0  0  0  0
  -30.7370  -14.9310   20.1030 C   0  0  0  0  0  0  0  0  0  0  0  0
  -30.4560  -12.6690   19.0610 C   0  0  0  0  0  2  0  0  0  0  0  0
  -29.4720  -12.7760   17.8760 C   0  0  0  0  0  2  0  0  0  0  0  0
  -28.0200  -12.6030   18.3620 C   0  0  0  0  0  2  0  0  0  0  0  0
  -27.7030  -13.4510   19.6220 C   0  0  0  0  0  3  0  0  0  0  0  0
  -28.8140  -13.3390   20.6900 C   0  0  0  0  0  2  0  0  0  0  0  0
  -30.0800  -13.7140   20.0450 N   0  0  0  0  0  0  0  0  0  0  0  0
  -31.9130  -14.9970   19.7320 O   0  0  0  0  0  0  0  0  0  0  0  0
  -30.0230  -16.1060   20.3480 N   0  0  0  0  0  0  0  0  0  0  0  0
  -29.0600  -15.9710   20.6100 H   0  0  0  0  0  0  0  0  0  0  0  0
  -25.3470  -14.0200   20.4540 C   0  0  0  0  0  0  0  0  0  0  0  0
  -24.2940  -13.2370   20.8430 C   0  0  0  0  0  0  0  0  0  0  0  0
  -24.7590  -11.8860   20.7760 C   0  0  0  0  0  0  0  0  0  0  0  0
  -26.3820  -13.1460   20.1640 N   0  0  0  0  0  0  0  0  0  0  0  0
  -26.0380  -11.8570   20.4240 N   0  0  0  0  0  0  0  0  0  0  0  0
  -24.0390  -10.6200   20.9710 C   0  0  0  0  0  0  0  0  0  0  0  0
  -24.4790   -9.6570   21.9070 C   0  0  0  0  0  3  0  0  0  0  0  0
  -23.7560   -8.4600   22.0930 C   0  0  0  0  0  3  0  0  0  0  0  0
  -22.5800   -8.2190   21.3450 C   0  0  0  0  0  0  0  0  0  0  0  0
  -22.1610   -9.1670   20.3970 C   0  0  0  0  0  3  0  0  0  0  0  0
  -22.8830  -10.3550   20.2070 C   0  0  0  0  0  3  0  0  0  0  0  0
  -21.8270   -7.0720   21.4400 O   0  0  0  0  0  0  0  0  0  0  0  0
  -21.7560   -6.3520   22.6050 C   0  0  0  0  0  0  0  0  0  0  0  0
  -21.2600   -6.9180   23.7990 C   0  0  0  0  0  3  0  0  0  0  0  0
  -21.1390   -6.1260   24.9580 C   0  0  0  0  0  3  0  0  0  0  0  0
  -21.5030   -4.7650   24.9220 C   0  0  0  0  0  0  0  0  0  0  0  0
  -21.9920   -4.1980   23.7300 C   0  0  0  0  0  3  0  0  0  0  0  0
  -22.1150   -4.9890   22.5750 C   0  0  0  0  0  0  0  0  0  0  0  0
  -22.5660   -4.4340   21.4250 F   0  0  0  0  0  0  0  0  0  0  0  0
  -21.3780   -3.9990   26.0310 F   0  0  0  0  0  0  0  0  0  0  0  0
  -22.9080  -13.7080   21.1700 C   0  0  0  0  0  0  0  0  0  0  0  0
  -22.2140  -12.9920   22.0470 N   0  0  0  0  0  0  0  0  0  0  0  0
  -22.4550  -14.7450   20.6860 O   0  0  0  0  0  0  0  0  0  0  0  0
  -22.6060  -12.1520   22.4480 H   0  0  0  0  0  0  0  0  0  0  0  0
  -21.2840  -13.2790   22.3150 H   0  0  0  0  0  0  0  0  0  0  0  0
  -25.4980  -15.3950   20.2920 N   0  0  0  0  0  0  0  0  0  0  0  0
  -24.7280  -16.0400   20.4350 H   0  0  0  0  0  0  0  0  0  0  0  0
  -26.3170  -15.8440   19.8960 H   0  0  0  0  0  0  0  0  0  0  0  0
  -28.1320  -19.7460   17.7900 C   0  0  0  0  0  2  0  0  0  0  0  0
  -29.1780  -19.9640   16.7690 N   0  0  0  0  0  4  0  0  0  0  0  0
  -30.0320  -20.2130   17.2410 H   0  0  0  0  0  0  0  0  0  0  0  0
  -28.9140  -20.7480   16.1980 H   0  0  0  0  0  0  0  0  0  0  0  0
  -29.4650  -18.8180   15.8850 C   0  0  0  0  0  2  0  0  0  0  0  0
  -31.9780  -19.0650   15.1700 C   0  0  0  0  0  2  0  0  0  0  0  0
  -31.3450  -18.1870   14.1170 C   0  0  0  0  0  2  0  0  0  0  0  0
  -30.5070  -19.2080   14.8540 C   0  0  0  0  0  3  0  0  0  0  0  0
  -28.7220  -25.3110   19.3060 C   0  0  0  0  0  3  0  0  0  0  0  0
  -30.3430  -25.6440   17.3080 C   0  0  0  0  0  1  0  0  0  0  0  0
  -31.3140  -24.7890   19.4720 C   0  0  0  0  0  1  0  0  0  0  0  0
  -30.1870  -25.6300   18.8410 C   0  0  0  0  0  3  0  0  0  0  0  0
  -28.3250  -26.4540   20.2090 O   0  0  0  0  0  0  0  0  0  0  0  0
  -24.6000  -31.9020   23.1890 C   0  0  0  0  0  0  0  0  0  0  0  0
  -27.2250  -27.3430   20.0560 C   0  0  0  0  0  0  0  0  0  0  0  0
  -23.3950  -30.5160   21.5370 C   0  0  0  0  0  3  0  0  0  0  0  0
  -24.8490  -28.9860   20.0720 C   0  0  0  0  0  0  0  0  0  0  0  0
  -25.9330  -30.8360   21.3460 C   0  0  0  0  0  2  0  0  0  0  0  0
  -26.0170  -29.4620   20.6780 C   0  0  0  0  0  0  0  0  0  0  0  0
  -27.1960  -28.6460   20.6690 C   0  0  0  0  0  3  0  0  0  0  0  0
  -26.0340  -26.9390   19.4140 C   0  0  0  0  0  3  0  0  0  0  0  0
  -24.8630  -27.7320   19.4320 C   0  0  0  0  0  3  0  0  0  0  0  0
  -23.6070  -29.8570   20.1460 C   0  0  0  0  0  2  0  0  0  0  0  0
  -24.6630  -31.1050   22.0800 N   0  0  0  0  0  0  0  0  0  0  0  0
  -23.5180  -32.1710   23.7310 O   0  0  0  0  0  0  0  0  0  0  0  0
  -22.7390  -29.4910   22.4920 C   0  0  0  0  0  0  0  0  0  0  0  0
  -21.4120  -29.3150   22.3710 N   0  0  0  0  0  0  0  0  0  0  0  0
  -23.4230  -28.8590   23.3020 O   0  0  0  0  0  0  0  0  0  0  0  0
  -20.9220  -29.8740   21.6880 H   0  0  0  0  0  0  0  0  0  0  0  0
  -18.0390  -28.1070   22.8890 C   0  0  0  0  0  0  0  0  0  0  0  0
  -20.5990  -28.3660   23.1350 C   0  0  0  0  0  3  0  0  0  0  0  0
  -20.6980  -26.9440   22.5370 C   0  0  0  0  0  2  0  0  0  0  0  0
  -19.5860  -26.6370   21.5290 C   0  0  0  0  0  2  0  0  0  0  0  0
  -18.2100  -26.7700   22.1880 C   0  0  0  0  0  2  0  0  0  0  0  0
  -19.1610  -28.8630   23.3190 C   0  0  0  0  0  0  0  0  0  0  0  0
  -18.9470  -30.1140   23.9370 C   0  0  0  0  0  3  0  0  0  0  0  0
  -17.6430  -30.6090   24.1280 C   0  0  0  0  0  3  0  0  0  0  0  0
  -16.5360  -29.8500   23.7120 C   0  0  0  0  0  3  0  0  0  0  0  0
  -16.7330  -28.6000   23.0990 C   0  0  0  0  0  3  0  0  0  0  0  0
  -25.8820  -32.5360   23.8140 C   0  0  0  0  0  3  0  0  0  0  0  0
  -26.4040  -31.7560   25.0850 C   0  0  1  0  0  0  0  0  0  0  0  0
  -25.3120  -31.5070   26.1510 C   0  0  0  0  0  1  0  0  0  0  0  0
  -26.9880  -30.3820   24.6830 C   0  0  0  0  0  1  0  0  0  0  0  0
  -27.5540  -32.5460   25.7510 C   0  0  0  0  0  1  0  0  0  0  0  0
  -25.5680  -33.9310   24.1570 N   0  0  0  0  0  0  0  0  0  0  0  0
  -25.8900  -34.9930   23.4050 C   0  0  0  0  0  0  0  0  0  0  0  0
  -26.5490  -34.8990   22.3670 O   0  0  0  0  0  0  0  0  0  0  0  0
  -24.9760  -34.0770   24.9610 H   0  0  0  0  0  0  0  0  0  0  0  0
  -24.1570  -36.7890   23.0830 C   0  0  0  0  0  1  0  0  0  0  0  0
  -25.4040  -36.3750   23.8810 C   0  0  0  0  0  3  0  0  0  0  0  0
  -27.5360  -37.2590   24.7150 C   0  0  0  0  0  1  0  0  0  0  0  0
  -26.4340  -37.4300   23.7760 N   0  0  0  0  0  0  0  0  0  0  0  0
  -26.0240  -38.3490   23.9330 H   0  0  0  0  0  0  0  0  0  0  0  0
  1  4  1  0
  2  3  1  0
  2  1  2  0
  3  5  2  0
  4  7  2  0
  5  7  1  0
  5  8  1  0
  6  2  1  0
  8 10  1  0
  8  9  1  0
 11 20  1  0
 11 10  2  0
 12 20  1  0
 13 18  1  0
 14 15  1  0
 14 13  1  0
 16 15  1  0
 16 25  1  0
 16 17  1  0
 18 12  1  0
 18 17  1  0
 19 12  2  0
 20 21  1  0
 22 23  2  0
 23 42  1  0
 24 23  1  0
 24 27  1  0
 25 26  1  0
 25 22  1  0
 26 24  2  0
 27 28  1  0
 28 29  2  0
 30 33  1  0
 30 29  1  0
 31 30  2  0
 32 31  1  0
 32 27  2  0
 33 34  1  0
 34 35  1  0
 35 36  2  0
 37 36  1  0
 37 41  1  0
 38 37  2  0
 39 34  2  0
 39 38  1  0
 40 39  1  0
 42 43  1  0
 43 46  1  0
 43 45  1  0
 44 42  2  0
 47 48  1  0
 47 22  1  0
 49 47  1  0
 50  3  1  0
 51 52  1  0
 51 50  1  0
 53 51  1  0
 54 51  1  0
 56 57  1  0
 56 55  1  0
 57 55  1  0
 57 54  1  0
 58 61  1  0
 58  4  1  0
 58 62  1  0
 59 61  1  0
 61 60  1  0
 63 74  2  0
 64 62  1  0
 64 69  1  0
 65 73  1  0
 65 75  1  0
 66 72  1  0
 66 68  1  0
 67 73  1  0
 68 67  1  0
 69 68  2  0
 70 71  1  0
 70 64  2  0
 71 66  2  0
 72 65  1  0
 73 63  1  0
 75 77  2  0
 76 75  1  0
 78 76  1  0
 79 88  2  0
 79 84  1  0
 80 76  1  0
 80 84  1  0
 81 80  1  0
 82 83  1  0
 82 81  1  0
 83 79  1  0
 84 85  2  0
 85 86  1  0
 87 86  2  0
 88 87  1  0
 89 63  1  0
 89 94  1  0
 89 90  1  0
 90 93  1  1
 90 91  1  0
 92 90  1  0
 94 97  1  0
 95 99  1  0
 95 94  1  0
 96 95  2  0
 99 98  1  0
101 99  1  0
101102  1  0
101100  1  0
M  ISO  4  12 100  20 100  58 101  62 101
M  END
>  <TORSDO>  (64) 
F 25

>  <SCORE>  (64) 
-12.352

>  <name>  (64) 
63

>  <ligand_id>  (64) 
63

>  <original_smiles>  (64) 
[H]c1c([H])c([H])c2c(c1[H])C([H])([H])C([H])([H])C([H])([H])C2([H])N([H])C(=O)C1([H])N(C(=O)C([H])(N([H])C(=O)C([H])(N([H])C([H])([H])[H])C([H])([H])[H])C(C([H])([H])[H])(C([H])([H])[H])C([H])([H])[H])C([H])([H])c2c([H])c(OC([H])(c3nc(N([H])C([H])([H])C([H])([H])N([H])C(=O)N4C([H])([H])C([H])([H])C([H])([H])C([H])(n5nc(-c6c([H])c([H])c(Oc7c([H])c([H])c(F)c([H])c7F)c([H])c6[H])c(C(=O)N([H])[H])c5N([H])[H])C4([H])[H])c(C([H])([H])[N+]([H])([H])C([H])([H])C4([H])C([H])([H])C4([H])[H])c(C([H])([H])[H])c3[H])C([H])(C([H])([H])[H])C([H])([H])[H])c([H])c([H])c2C1([H])[H]

>  <smiles>  (64) 
[H]c1c([H])c([H])c2c(c1[H])C([H])([H])C([H])([H])C([H])([H])C2([H])N([H])C(=O)C1([H])N(C(=O)C([H])(N([H])C(=O)C([H])(N([H])C([H])([H])[H])C([H])([H])[H])C(C([H])([H])[H])(C([H])([H])[H])C([H])([H])[H])C([H])([H])c2c([H])c(OC([H])(c3nc(N([H])C([H])([H])C([H])([H])N([H])C(=O)N4C([H])([H])C([H])([H])C([H])([H])C([H])(n5nc(-c6c([H])c([H])c(Oc7c([H])c([H])c(F)c([H])c7F)c([H])c6[H])c(C(=O)N([H])[H])c5N([H])[H])C4([H])[H])c(C([H])([H])[N+]([H])([H])C([H])([H])C4([H])C([H])([H])C4([H])[H])c(C([H])([H])[H])c3[H])C([H])(C([H])([H])[H])C([H])([H])[H])c([H])c([H])c2C1([H])[H]

$$$$
64:0:0
     RDKit          3D

 98107  0  0  1  0  0  0  0  0999 V2000
  -31.4500  -22.8270   19.1760 C   0  0  0  0  0  2  0  0  0  0  0  0
  -30.3450  -22.9790   21.4700 C   0  0  0  0  0  2  0  0  0  0  0  0
  -31.7900  -24.3180   19.2710 C   0  0  0  0  0  2  0  0  0  0  0  0
  -30.6950  -24.4780   21.5090 C   0  0  0  0  0  2  0  0  0  0  0  0
  -31.2770  -22.1370   20.5560 C   0  0  0  0  0  3  0  0  0  0  0  0
  -30.7130  -25.0520   20.0800 C   0  0  0  0  0  3  0  0  0  0  0  0
  -31.4010  -19.8500   19.3020 C   0  0  0  0  0  2  0  0  0  0  0  0
  -30.0740  -18.6170   21.5180 C   0  0  0  0  0  2  0  0  0  0  0  0
  -30.7120  -20.6950   20.3950 C   0  0  0  0  0  3  0  0  0  0  0  0
  -30.6240  -17.7980   20.3160 C   0  0  0  0  0  3  0  0  0  0  0  0
  -30.6380  -18.6210   19.1070 N   0  0  0  0  0  0  0  0  0  0  0  0
  -30.7660  -19.9190   21.6550 N   0  0  0  0  0  4  0  0  0  0  0  0
  -31.0630  -18.0870   18.3540 H   0  0  0  0  0  0  0  0  0  0  0  0
  -31.7290  -19.7520   21.8950 H   0  0  0  0  0  0  0  0  0  0  0  0
  -30.3350  -20.4370   22.4000 H   0  0  0  0  0  0  0  0  0  0  0  0
  -29.7150  -16.6080   19.9540 C   0  0  0  0  0  2  0  0  0  0  0  0
  -30.6700  -14.4100   20.3600 C   0  0  0  0  0  0  0  0  0  0  0  0
  -30.3730  -12.2730   19.1990 C   0  0  0  0  0  2  0  0  0  0  0  0
  -29.4200  -12.5250   18.0100 C   0  0  0  0  0  2  0  0  0  0  0  0
  -27.9420  -12.4140   18.4420 C   0  0  0  0  0  2  0  0  0  0  0  0
  -27.6320  -13.2220   19.7290 C   0  0  0  0  0  3  0  0  0  0  0  0
  -28.6890  -12.9340   20.8230 C   0  0  0  0  0  2  0  0  0  0  0  0
  -30.0210  -13.2220   20.2640 N   0  0  0  0  0  0  0  0  0  0  0  0
  -31.7790  -14.6290   19.8670 O   0  0  0  0  0  0  0  0  0  0  0  0
  -29.8860  -15.4130   20.7740 N   0  0  0  0  0  0  0  0  0  0  0  0
  -29.0590  -15.1160   21.2710 H   0  0  0  0  0  0  0  0  0  0  0  0
  -25.2360  -13.8630   20.4330 C   0  0  0  0  0  0  0  0  0  0  0  0
  -24.1590  -13.1050   20.8100 C   0  0  0  0  0  0  0  0  0  0  0  0
  -24.6070  -11.7490   20.7850 C   0  0  0  0  0  0  0  0  0  0  0  0
  -26.2720  -12.9700   20.2070 N   0  0  0  0  0  0  0  0  0  0  0  0
  -25.8950  -11.6930   20.4730 N   0  0  0  0  0  0  0  0  0  0  0  0
  -23.8720  -10.4940   20.9880 C   0  0  0  0  0  0  0  0  0  0  0  0
  -24.3030   -9.5290   21.9250 C   0  0  0  0  0  3  0  0  0  0  0  0
  -23.5710   -8.3370   22.1160 C   0  0  0  0  0  3  0  0  0  0  0  0
  -22.3910   -8.1020   21.3690 C   0  0  0  0  0  0  0  0  0  0  0  0
  -21.9780   -9.0550   20.4220 C   0  0  0  0  0  3  0  0  0  0  0  0
  -22.7120  -10.2370   20.2290 C   0  0  0  0  0  3  0  0  0  0  0  0
  -21.6300   -6.9620   21.4680 O   0  0  0  0  0  0  0  0  0  0  0  0
  -21.5860   -6.2250   22.6240 C   0  0  0  0  0  0  0  0  0  0  0  0
  -21.1780   -6.7890   23.8520 C   0  0  0  0  0  3  0  0  0  0  0  0
  -21.0780   -5.9790   25.0010 C   0  0  0  0  0  3  0  0  0  0  0  0
  -21.3780   -4.6060   24.9220 C   0  0  0  0  0  0  0  0  0  0  0  0
  -21.7790   -4.0410   23.6990 C   0  0  0  0  0  3  0  0  0  0  0  0
  -21.8800   -4.8490   22.5520 C   0  0  0  0  0  0  0  0  0  0  0  0
  -22.2470   -4.2960   21.3710 F   0  0  0  0  0  0  0  0  0  0  0  0
  -21.2760   -3.8240   26.0220 F   0  0  0  0  0  0  0  0  0  0  0  0
  -22.7660  -13.5970   21.0830 C   0  0  0  0  0  0  0  0  0  0  0  0
  -22.0370  -12.9110   21.9590 N   0  0  0  0  0  0  0  0  0  0  0  0
  -22.3340  -14.6200   20.5580 O   0  0  0  0  0  0  0  0  0  0  0  0
  -22.3970  -12.0790   22.4030 H   0  0  0  0  0  0  0  0  0  0  0  0
  -21.1030  -13.2200   22.1860 H   0  0  0  0  0  0  0  0  0  0  0  0
  -25.4190  -15.2310   20.2430 N   0  0  0  0  0  0  0  0  0  0  0  0
  -24.6640  -15.9010   20.3360 H   0  0  0  0  0  0  0  0  0  0  0  0
  -26.2750  -15.6460   19.9020 H   0  0  0  0  0  0  0  0  0  0  0  0
  -32.1250  -27.1840   20.5220 C   0  0  0  0  0  1  0  0  0  0  0  0
  -30.8160  -26.5930   19.9710 C   0  0  0  0  0  3  0  0  0  0  0  0
  -29.5990  -27.3140   20.5730 C   0  0  0  0  0  2  0  0  0  0  0  0
  -28.3930  -26.7460   20.0610 O   0  0  0  0  0  0  0  0  0  0  0  0
  -24.5580  -31.8680   23.2330 C   0  0  0  0  0  0  0  0  0  0  0  0
  -27.2320  -27.4800   20.1560 C   0  0  0  0  0  0  0  0  0  0  0  0
  -23.3450  -30.4610   21.5910 C   0  0  0  0  0  3  0  0  0  0  0  0
  -24.8020  -28.9220   20.1720 C   0  0  0  0  0  0  0  0  0  0  0  0
  -25.8590  -30.8410   21.3820 C   0  0  0  0  0  2  0  0  0  0  0  0
  -25.9460  -29.4670   20.7620 C   0  0  0  0  0  0  0  0  0  0  0  0
  -27.1540  -28.7490   20.7740 C   0  0  0  0  0  3  0  0  0  0  0  0
  -26.0690  -26.9330   19.5750 C   0  0  0  0  0  3  0  0  0  0  0  0
  -24.8520  -27.6440   19.5820 C   0  0  0  0  0  3  0  0  0  0  0  0
  -23.5510  -29.7690   20.2130 C   0  0  0  0  0  2  0  0  0  0  0  0
  -24.6050  -31.0710   22.1290 N   0  0  0  0  0  0  0  0  0  0  0  0
  -23.4790  -32.1410   23.7760 O   0  0  0  0  0  0  0  0  0  0  0  0
  -22.7010  -29.4430   22.5560 C   0  0  0  0  0  0  0  0  0  0  0  0
  -21.3760  -29.2650   22.4320 N   0  0  0  0  0  0  0  0  0  0  0  0
  -23.3870  -28.8130   23.3660 O   0  0  0  0  0  0  0  0  0  0  0  0
  -20.8860  -29.8220   21.7460 H   0  0  0  0  0  0  0  0  0  0  0  0
  -17.9970  -28.1040   22.9430 C   0  0  0  0  0  0  0  0  0  0  0  0
  -20.5570  -28.3310   23.2020 C   0  0  0  0  0  3  0  0  0  0  0  0
  -20.6410  -26.9020   22.6150 C   0  0  0  0  0  2  0  0  0  0  0  0
  -19.5300  -26.5990   21.6050 C   0  0  0  0  0  2  0  0  0  0  0  0
  -18.1540  -26.7550   22.2600 C   0  0  0  0  0  2  0  0  0  0  0  0
  -19.1260  -28.8510   23.3700 C   0  0  0  0  0  0  0  0  0  0  0  0
  -18.9260  -30.1150   23.9660 C   0  0  0  0  0  3  0  0  0  0  0  0
  -17.6280  -30.6320   24.1400 C   0  0  0  0  0  3  0  0  0  0  0  0
  -16.5130  -29.8800   23.7320 C   0  0  0  0  0  3  0  0  0  0  0  0
  -16.6980  -28.6180   23.1380 C   0  0  0  0  0  3  0  0  0  0  0  0
  -25.8480  -32.4970   23.8480 C   0  0  0  0  0  3  0  0  0  0  0  0
  -26.3720  -31.7220   25.1190 C   0  0  1  0  0  0  0  0  0  0  0  0
  -25.2870  -31.4860   26.1940 C   0  0  0  0  0  1  0  0  0  0  0  0
  -26.9480  -30.3450   24.7140 C   0  0  0  0  0  1  0  0  0  0  0  0
  -27.5280  -32.5130   25.7760 C   0  0  0  0  0  1  0  0  0  0  0  0
  -25.5460  -33.8940   24.1760 N   0  0  0  0  0  0  0  0  0  0  0  0
  -25.8910  -34.9450   23.4210 C   0  0  0  0  0  0  0  0  0  0  0  0
  -26.5700  -34.8390   22.3940 O   0  0  0  0  0  0  0  0  0  0  0  0
  -24.9410  -34.0520   24.9700 H   0  0  0  0  0  0  0  0  0  0  0  0
  -24.1790  -36.7450   23.0450 C   0  0  0  0  0  1  0  0  0  0  0  0
  -25.4050  -36.3340   23.8730 C   0  0  0  0  0  3  0  0  0  0  0  0
  -27.5340  -37.2000   24.7360 C   0  0  0  0  0  1  0  0  0  0  0  0
  -26.4450  -37.3810   23.7800 N   0  0  0  0  0  0  0  0  0  0  0  0
  -26.0430  -38.3020   23.9260 H   0  0  0  0  0  0  0  0  0  0  0  0
  1  3  1  0
  2  4  1  0
  3  6  1  0
  5  1  1  0
  5  2  1  0
  6 56  1  0
  6  4  1  0
  8 12  1  0
  9  7  1  0
  9  5  1  0
  9 12  1  0
 10 16  1  0
 10  8  1  0
 11  7  1  0
 11 10  1  0
 12 14  1  0
 12 15  1  0
 13 11  1  0
 16 25  1  0
 17 25  1  0
 18 23  1  0
 19 20  1  0
 19 18  1  0
 21 20  1  0
 21 30  1  0
 21 22  1  0
 23 17  1  0
 23 22  1  0
 24 17  2  0
 25 26  1  0
 27 28  2  0
 28 47  1  0
 29 28  1  0
 29 32  1  0
 30 27  1  0
 30 31  1  0
 31 29  2  0
 32 33  1  0
 33 34  2  0
 35 38  1  0
 35 34  1  0
 36 35  2  0
 37 36  1  0
 37 32  2  0
 38 39  1  0
 39 40  1  0
 40 41  2  0
 42 41  1  0
 42 46  1  0
 43 42  2  0
 44 39  2  0
 44 43  1  0
 45 44  1  0
 47 48  1  0
 48 51  1  0
 48 50  1  0
 49 47  2  0
 52 53  1  0
 52 27  1  0
 54 52  1  0
 56 55  1  0
 56 57  1  0
 58 60  1  0
 58 57  1  0
 59 70  2  0
 60 65  1  0
 61 69  1  0
 61 71  1  0
 62 68  1  0
 62 64  1  0
 63 69  1  0
 64 65  2  0
 64 63  1  0
 66 67  1  0
 66 60  2  0
 67 62  2  0
 68 61  1  0
 69 59  1  0
 71 73  2  0
 72 71  1  0
 74 72  1  0
 75 84  2  0
 75 80  1  0
 76 72  1  0
 76 80  1  0
 77 76  1  0
 78 79  1  0
 78 77  1  0
 79 75  1  0
 80 81  2  0
 81 82  1  0
 83 82  2  0
 84 83  1  0
 85 59  1  0
 85 90  1  0
 85 86  1  0
 86 89  1  1
 86 87  1  0
 88 86  1  0
 90 93  1  0
 91 95  1  0
 91 90  1  0
 92 91  2  0
 95 94  1  0
 97 95  1  0
 97 98  1  0
 97 96  1  0
M  ISO  4  17 100  25 100  57 101  58 101
M  END
>  <TORSDO>  (65) 
F 20

>  <SCORE>  (65) 
-13.882

>  <name>  (65) 
64

>  <ligand_id>  (65) 
64

>  <original_smiles>  (65) 
[H]c1c([H])c([H])c2c(c1[H])C([H])([H])C([H])([H])C([H])([H])C2([H])N([H])C(=O)C1([H])N(C(=O)C([H])(N([H])C(=O)C([H])(N([H])C([H])([H])[H])C([H])([H])[H])C(C([H])([H])[H])(C([H])([H])[H])C([H])([H])[H])C([H])([H])c2c([H])c(OC([H])([H])C([H])(C([H])([H])[H])C3([H])C([H])([H])C([H])([H])C([H])(C4([H])C([H])([H])N([H])C([H])(C([H])([H])N([H])C(=O)N5C([H])([H])C([H])([H])C([H])([H])C([H])(n6nc(-c7c([H])c([H])c(Oc8c([H])c([H])c(F)c([H])c8F)c([H])c7[H])c(C(=O)N([H])[H])c6N([H])[H])C5([H])[H])C([H])([H])[N+]4([H])[H])C([H])([H])C3([H])[H])c([H])c([H])c2C1([H])[H]

>  <smiles>  (65) 
[H]c1c([H])c([H])c2c(c1[H])C([H])([H])C([H])([H])C([H])([H])C2([H])N([H])C(=O)C1([H])N(C(=O)C([H])(N([H])C(=O)C([H])(N([H])C([H])([H])[H])C([H])([H])[H])C(C([H])([H])[H])(C([H])([H])[H])C([H])([H])[H])C([H])([H])c2c([H])c(OC([H])([H])C([H])(C([H])([H])[H])C3([H])C([H])([H])C([H])([H])C([H])(C4([H])C([H])([H])N([H])C([H])(C([H])([H])N([H])C(=O)N5C([H])([H])C([H])([H])C([H])([H])C([H])(n6nc(-c7c([H])c([H])c(Oc8c([H])c([H])c(F)c([H])c8F)c([H])c7[H])c(C(=O)N([H])[H])c6N([H])[H])C5([H])[H])C([H])([H])[N+]4([H])[H])C([H])([H])C3([H])[H])c([H])c([H])c2C1([H])[H]

$$$$
65:0:0
     RDKit          3D

 94102  0  0  1  0  0  0  0  0999 V2000
  -28.4450  -24.3640   21.5050 C   0  0  0  0  0  2  0  0  0  0  0  0
  -28.6770  -22.7970   21.4020 C   0  0  0  0  0  2  0  0  0  0  0  0
  -29.7700  -24.7540   19.4340 C   0  0  0  0  0  2  0  0  0  0  0  0
  -28.4360  -25.1230   20.1470 C   0  0  0  0  0  3  0  0  0  0  0  0
  -29.5860  -22.3050   20.2250 C   0  0  0  0  0  3  0  0  0  0  0  0
  -31.5960  -23.1850   18.9420 C   0  0  0  0  0  1  0  0  0  0  0  0
  -30.4650  -23.4770   19.8570 N   0  0  1  0  0  4  0  0  0  0  0  0
  -30.9140  -23.7150   20.7300 H   0  0  0  0  0  0  0  0  0  0  0  0
  -28.3690  -26.6030   20.2430 O   0  0  0  0  0  0  0  0  0  0  0  0
  -24.6130  -31.9120   23.2700 C   0  0  0  0  0  0  0  0  0  0  0  0
  -27.1900  -27.3630   20.2030 C   0  0  0  0  0  0  0  0  0  0  0  0
  -23.3820  -30.5290   21.6280 C   0  0  0  0  0  3  0  0  0  0  0  0
  -24.8150  -28.9650   20.1930 C   0  0  0  0  0  0  0  0  0  0  0  0
  -25.9160  -30.8390   21.4260 C   0  0  0  0  0  2  0  0  0  0  0  0
  -25.9840  -29.4610   20.7810 C   0  0  0  0  0  0  0  0  0  0  0  0
  -27.1680  -28.6720   20.7710 C   0  0  0  0  0  3  0  0  0  0  0  0
  -25.9950  -26.9070   19.5960 C   0  0  0  0  0  3  0  0  0  0  0  0
  -24.8210  -27.6930   19.5950 C   0  0  0  0  0  3  0  0  0  0  0  0
  -23.5830  -29.8470   20.2470 C   0  0  0  0  0  2  0  0  0  0  0  0
  -24.6550  -31.1100   22.1650 N   0  0  0  0  0  0  0  0  0  0  0  0
  -23.5380  -32.1960   23.8160 O   0  0  0  0  0  0  0  0  0  0  0  0
  -22.7180  -29.5190   22.5920 C   0  0  0  0  0  0  0  0  0  0  0  0
  -21.3910  -29.3480   22.4700 N   0  0  0  0  0  0  0  0  0  0  0  0
  -23.3960  -28.8890   23.4090 O   0  0  0  0  0  0  0  0  0  0  0  0
  -20.9040  -29.9060   21.7820 H   0  0  0  0  0  0  0  0  0  0  0  0
  -18.0100  -28.1740   22.9780 C   0  0  0  0  0  0  0  0  0  0  0  0
  -20.5700  -28.4140   23.2410 C   0  0  0  0  0  3  0  0  0  0  0  0
  -20.6610  -26.9840   22.6610 C   0  0  0  0  0  2  0  0  0  0  0  0
  -19.5540  -26.6720   21.6490 C   0  0  0  0  0  2  0  0  0  0  0  0
  -18.1750  -26.8250   22.2970 C   0  0  0  0  0  2  0  0  0  0  0  0
  -19.1360  -28.9270   23.4070 C   0  0  0  0  0  0  0  0  0  0  0  0
  -18.9270  -30.1900   24.0030 C   0  0  0  0  0  3  0  0  0  0  0  0
  -17.6260  -30.6990   24.1740 C   0  0  0  0  0  3  0  0  0  0  0  0
  -16.5160  -29.9430   23.7610 C   0  0  0  0  0  3  0  0  0  0  0  0
  -16.7080  -28.6820   23.1690 C   0  0  0  0  0  3  0  0  0  0  0  0
  -25.9080  -32.5270   23.8850 C   0  0  0  0  0  3  0  0  0  0  0  0
  -26.4340  -31.7360   25.1460 C   0  0  1  0  0  0  0  0  0  0  0  0
  -25.3520  -31.4950   26.2230 C   0  0  0  0  0  1  0  0  0  0  0  0
  -27.0030  -30.3590   24.7300 C   0  0  0  0  0  1  0  0  0  0  0  0
  -27.6000  -32.5120   25.8040 C   0  0  0  0  0  1  0  0  0  0  0  0
  -25.6150  -33.9230   24.2360 N   0  0  0  0  0  0  0  0  0  0  0  0
  -25.9220  -34.9790   23.4730 C   0  0  0  0  0  0  0  0  0  0  0  0
  -26.5530  -34.8820   22.4170 O   0  0  0  0  0  0  0  0  0  0  0  0
  -25.0480  -34.0730   25.0580 H   0  0  0  0  0  0  0  0  0  0  0  0
  -24.1750  -36.7700   23.2100 C   0  0  0  0  0  1  0  0  0  0  0  0
  -25.4570  -36.3670   23.9570 C   0  0  0  0  0  3  0  0  0  0  0  0
  -27.6250  -37.2560   24.6870 C   0  0  0  0  0  1  0  0  0  0  0  0
  -26.4810  -37.4220   23.7940 N   0  0  0  0  0  0  0  0  0  0  0  0
  -26.0800  -38.3400   23.9590 H   0  0  0  0  0  0  0  0  0  0  0  0
  -30.4300  -20.9370   20.4340 C   0  0  0  0  0  2  0  0  0  0  0  0
  -30.2370  -18.3660   20.4750 C   0  0  0  0  0  0  0  0  0  0  0  0
  -29.8590  -19.6190   20.9060 N   0  0  0  0  0  0  0  0  0  0  0  0
  -30.7920  -18.2080   19.3870 O   0  0  0  0  0  0  0  0  0  0  0  0
  -29.3800  -19.6470   21.7990 H   0  0  0  0  0  0  0  0  0  0  0  0
  -31.2280  -17.0180   22.4570 C   0  0  0  0  0  1  0  0  0  0  0  0
  -30.0920  -17.1040   21.4180 C   0  0  0  0  0  3  0  0  0  0  0  0
  -30.5340  -14.6850   20.4420 C   0  0  0  0  0  0  0  0  0  0  0  0
  -30.3320  -12.4730   19.3120 C   0  0  0  0  0  2  0  0  0  0  0  0
  -29.3770  -12.5820   18.1030 C   0  0  0  0  0  2  0  0  0  0  0  0
  -27.9120  -12.3850   18.5440 C   0  0  0  0  0  2  0  0  0  0  0  0
  -27.5410  -13.2320   19.7910 C   0  0  0  0  0  3  0  0  0  0  0  0
  -28.6070  -13.1010   20.8990 C   0  0  0  0  0  2  0  0  0  0  0  0
  -29.9040  -13.4730   20.3090 N   0  0  0  0  0  0  0  0  0  0  0  0
  -31.6980  -14.8420   20.0730 O   0  0  0  0  0  0  0  0  0  0  0  0
  -29.7600  -15.7340   20.8680 N   0  0  0  0  0  0  0  0  0  0  0  0
  -28.7900  -15.4890   20.9840 H   0  0  0  0  0  0  0  0  0  0  0  0
  -25.1420  -13.7850   20.5300 C   0  0  0  0  0  0  0  0  0  0  0  0
  -24.0890  -12.9920   20.8990 C   0  0  0  0  0  0  0  0  0  0  0  0
  -24.5730  -11.6490   20.8550 C   0  0  0  0  0  0  0  0  0  0  0  0
  -26.1990  -12.9240   20.2800 N   0  0  0  0  0  0  0  0  0  0  0  0
  -25.8630  -11.6330   20.5380 N   0  0  0  0  0  0  0  0  0  0  0  0
  -23.8680  -10.3750   21.0430 C   0  0  0  0  0  0  0  0  0  0  0  0
  -24.3090   -9.4180   21.9840 C   0  0  0  0  0  3  0  0  0  0  0  0
  -23.6040   -8.2070   22.1590 C   0  0  0  0  0  3  0  0  0  0  0  0
  -22.4450   -7.9440   21.3890 C   0  0  0  0  0  0  0  0  0  0  0  0
  -22.0230   -8.8900   20.4390 C   0  0  0  0  0  3  0  0  0  0  0  0
  -22.7300  -10.0920   20.2630 C   0  0  0  0  0  3  0  0  0  0  0  0
  -21.7150   -6.7820   21.4680 O   0  0  0  0  0  0  0  0  0  0  0  0
  -21.6610   -6.0430   22.6230 C   0  0  0  0  0  0  0  0  0  0  0  0
  -21.1790   -6.5890   23.8330 C   0  0  0  0  0  3  0  0  0  0  0  0
  -21.0720   -5.7750   24.9790 C   0  0  0  0  0  3  0  0  0  0  0  0
  -21.4410   -4.4180   24.9170 C   0  0  0  0  0  0  0  0  0  0  0  0
  -21.9190   -3.8730   23.7130 C   0  0  0  0  0  3  0  0  0  0  0  0
  -22.0270   -4.6830   22.5690 C   0  0  0  0  0  0  0  0  0  0  0  0
  -22.4680   -4.1480   21.4050 F   0  0  0  0  0  0  0  0  0  0  0  0
  -21.3330   -3.6340   26.0160 F   0  0  0  0  0  0  0  0  0  0  0  0
  -22.6860  -13.4470   21.1790 C   0  0  0  0  0  0  0  0  0  0  0  0
  -21.9690  -12.7340   22.0390 N   0  0  0  0  0  0  0  0  0  0  0  0
  -22.2340  -14.4720   20.6710 O   0  0  0  0  0  0  0  0  0  0  0  0
  -22.3480  -11.9100   22.4790 H   0  0  0  0  0  0  0  0  0  0  0  0
  -21.0290  -13.0260   22.2660 H   0  0  0  0  0  0  0  0  0  0  0  0
  -25.2820  -15.1610   20.3640 N   0  0  0  0  0  0  0  0  0  0  0  0
  -24.4950  -15.7910   20.4740 H   0  0  0  0  0  0  0  0  0  0  0  0
  -26.1050  -15.6190   19.9960 H   0  0  0  0  0  0  0  0  0  0  0  0
  2  1  1  0
  3  7  1  0
  3  4  1  0
  4  9  1  0
  4  1  1  0
  5 50  1  0
  5  2  1  0
  6  7  1  0
  7  5  1  0
  7  8  1  1
 10 21  2  0
 11  9  1  0
 11 16  1  0
 12 20  1  0
 12 22  1  0
 13 19  1  0
 13 15  1  0
 14 20  1  0
 15 14  1  0
 16 15  2  0
 17 11  2  0
 18 17  1  0
 18 13  2  0
 19 12  1  0
 20 10  1  0
 22 24  2  0
 23 22  1  0
 25 23  1  0
 26 35  2  0
 26 31  1  0
 27 23  1  0
 27 31  1  0
 28 27  1  0
 29 30  1  0
 29 28  1  0
 30 26  1  0
 31 32  2  0
 32 33  1  0
 34 33  2  0
 35 34  1  0
 36 10  1  0
 36 41  1  0
 36 37  1  0
 37 40  1  1
 37 38  1  0
 39 37  1  0
 41 44  1  0
 42 46  1  0
 42 41  1  0
 43 42  2  0
 46 45  1  0
 48 46  1  0
 48 49  1  0
 48 47  1  0
 50 52  1  0
 51 52  1  0
 51 56  1  0
 52 54  1  0
 53 51  2  0
 56 55  1  0
 57 65  1  0
 58 63  1  0
 59 60  1  0
 59 58  1  0
 61 60  1  0
 61 70  1  0
 61 62  1  0
 63 57  1  0
 63 62  1  0
 64 57  2  0
 65 66  1  0
 65 56  1  0
 67 68  2  0
 68 87  1  0
 69 68  1  0
 69 72  1  0
 70 67  1  0
 70 71  1  0
 71 69  2  0
 72 73  1  0
 73 74  2  0
 75 78  1  0
 75 74  1  0
 76 75  2  0
 77 76  1  0
 77 72  2  0
 78 79  1  0
 79 80  1  0
 80 81  2  0
 82 81  1  0
 82 86  1  0
 83 82  2  0
 84 79  2  0
 84 83  1  0
 85 84  1  0
 87 88  1  0
 88 91  1  0
 88 90  1  0
 89 87  2  0
 92 93  1  0
 92 67  1  0
 94 92  1  0
M  ISO  4   4 101   9 101  57 100  65 100
M  END
>  <TORSDO>  (66) 
F 19

>  <SCORE>  (66) 
-14.122

>  <name>  (66) 
65

>  <ligand_id>  (66) 
65

>  <original_smiles>  (66) 
[H]c1c([H])c([H])c2c(c1[H])C([H])([H])C([H])([H])C([H])([H])C2([H])N([H])C(=O)C1([H])N(C(=O)C([H])(N([H])C(=O)C([H])(N([H])C([H])([H])[H])C([H])([H])[H])C(C([H])([H])[H])(C([H])([H])[H])C([H])([H])[H])C([H])([H])c2c([H])c(OC3([H])C([H])([H])C([H])([H])C([H])(C([H])([H])N([H])C(=O)C([H])(N([H])C(=O)N4C([H])([H])C([H])([H])C([H])([H])C([H])(n5nc(-c6c([H])c([H])c(Oc7c([H])c([H])c(F)c([H])c7F)c([H])c6[H])c(C(=O)N([H])[H])c5N([H])[H])C4([H])[H])C([H])([H])[H])[N+]([H])(C([H])([H])[H])C3([H])[H])c([H])c([H])c2C1([H])[H]

>  <smiles>  (66) 
[H]c1c([H])c([H])c2c(c1[H])C([H])([H])C([H])([H])C([H])([H])C2([H])N([H])C(=O)C1([H])N(C(=O)C([H])(N([H])C(=O)C([H])(N([H])C([H])([H])[H])C([H])([H])[H])C(C([H])([H])[H])(C([H])([H])[H])C([H])([H])[H])C([H])([H])c2c([H])c(OC3([H])C([H])([H])C([H])([H])C([H])(C([H])([H])N([H])C(=O)C([H])(N([H])C(=O)N4C([H])([H])C([H])([H])C([H])([H])C([H])(n5nc(-c6c([H])c([H])c(Oc7c([H])c([H])c(F)c([H])c7F)c([H])c6[H])c(C(=O)N([H])[H])c5N([H])[H])C4([H])[H])C([H])([H])[H])[N+]([H])(C([H])([H])[H])C3([H])[H])c([H])c([H])c2C1([H])[H]

$$$$
66:0:0
     RDKit          3D

 93101  0  0  1  0  0  0  0  0999 V2000
  -28.2530  -22.2440   19.8880 C   0  0  0  0  0  3  0  0  0  0  0  0
  -28.1760  -20.8350   19.9010 C   0  0  0  0  0  3  0  0  0  0  0  0
  -29.3590  -22.9040   20.4780 C   0  0  0  0  0  0  0  0  0  0  0  0
  -30.3540  -22.0550   21.0490 C   0  0  0  0  0  0  0  0  0  0  0  0
  -29.2110  -20.0880   20.4830 C   0  0  0  0  0  0  0  0  0  0  0  0
  -31.5980  -22.5790   21.7460 C   0  0  0  0  0  1  0  0  0  0  0  0
  -30.2750  -20.6960   21.0420 N   0  0  0  0  0  0  0  0  0  0  0  0
  -29.1220  -18.6850   20.5250 N   0  0  0  0  0  0  0  0  0  0  0  0
  -28.2810  -18.2990   20.1120 H   0  0  0  0  0  0  0  0  0  0  0  0
  -29.4380  -24.4220   20.4590 C   0  0  0  0  0  0  0  0  0  0  0  0
  -30.4430  -25.0540   20.7990 O   0  0  0  0  0  0  0  0  0  0  0  0
  -28.1960  -25.2200   19.9920 C   0  0  0  0  0  2  0  0  0  0  0  0
  -28.3470  -26.6490   20.1650 O   0  0  0  0  0  0  0  0  0  0  0  0
  -24.5750  -31.8700   23.2280 C   0  0  0  0  0  0  0  0  0  0  0  0
  -27.1830  -27.4010   20.1360 C   0  0  0  0  0  0  0  0  0  0  0  0
  -23.3540  -30.4750   21.5920 C   0  0  0  0  0  3  0  0  0  0  0  0
  -24.7950  -28.9350   20.1590 C   0  0  0  0  0  0  0  0  0  0  0  0
  -25.8830  -30.8210   21.3810 C   0  0  0  0  0  2  0  0  0  0  0  0
  -25.9610  -29.4490   20.7390 C   0  0  0  0  0  0  0  0  0  0  0  0
  -27.1580  -28.6910   20.7220 C   0  0  0  0  0  3  0  0  0  0  0  0
  -25.9960  -26.9120   19.5410 C   0  0  0  0  0  3  0  0  0  0  0  0
  -24.8090  -27.6660   19.5570 C   0  0  0  0  0  3  0  0  0  0  0  0
  -23.5550  -29.7970   20.2120 C   0  0  0  0  0  2  0  0  0  0  0  0
  -24.6230  -31.0700   22.1260 N   0  0  0  0  0  0  0  0  0  0  0  0
  -23.4970  -32.1450   23.7730 O   0  0  0  0  0  0  0  0  0  0  0  0
  -22.7030  -29.4560   22.5540 C   0  0  0  0  0  0  0  0  0  0  0  0
  -21.3770  -29.2810   22.4350 N   0  0  0  0  0  0  0  0  0  0  0  0
  -23.3890  -28.8250   23.3630 O   0  0  0  0  0  0  0  0  0  0  0  0
  -20.8820  -29.8420   21.7550 H   0  0  0  0  0  0  0  0  0  0  0  0
  -18.0000  -28.1010   22.9520 C   0  0  0  0  0  0  0  0  0  0  0  0
  -20.5600  -28.3440   23.2090 C   0  0  0  0  0  3  0  0  0  0  0  0
  -20.6510  -26.9130   22.6310 C   0  0  0  0  0  2  0  0  0  0  0  0
  -19.5430  -26.5980   21.6230 C   0  0  0  0  0  2  0  0  0  0  0  0
  -18.1650  -26.7520   22.2740 C   0  0  0  0  0  2  0  0  0  0  0  0
  -19.1250  -28.8560   23.3780 C   0  0  0  0  0  0  0  0  0  0  0  0
  -18.9190  -30.1210   23.9690 C   0  0  0  0  0  3  0  0  0  0  0  0
  -17.6190  -30.6310   24.1410 C   0  0  0  0  0  3  0  0  0  0  0  0
  -16.5070  -29.8740   23.7340 C   0  0  0  0  0  3  0  0  0  0  0  0
  -16.6980  -28.6100   23.1450 C   0  0  0  0  0  3  0  0  0  0  0  0
  -25.8660  -32.4960   23.8410 C   0  0  0  0  0  3  0  0  0  0  0  0
  -26.3980  -31.7130   25.1030 C   0  0  1  0  0  0  0  0  0  0  0  0
  -25.3180  -31.4650   26.1810 C   0  0  0  0  0  1  0  0  0  0  0  0
  -26.9770  -30.3400   24.6890 C   0  0  0  0  0  1  0  0  0  0  0  0
  -27.5550  -32.5020   25.7600 C   0  0  0  0  0  1  0  0  0  0  0  0
  -25.5610  -33.8900   24.1860 N   0  0  0  0  0  0  0  0  0  0  0  0
  -25.8820  -34.9480   23.4280 C   0  0  0  0  0  0  0  0  0  0  0  0
  -26.5370  -34.8510   22.3870 O   0  0  0  0  0  0  0  0  0  0  0  0
  -24.9800  -34.0410   24.9960 H   0  0  0  0  0  0  0  0  0  0  0  0
  -24.1460  -36.7370   23.1080 C   0  0  0  0  0  1  0  0  0  0  0  0
  -25.3990  -36.3320   23.9000 C   0  0  0  0  0  3  0  0  0  0  0  0
  -27.5440  -37.2140   24.7060 C   0  0  0  0  0  1  0  0  0  0  0  0
  -26.4280  -37.3880   23.7790 N   0  0  0  0  0  0  0  0  0  0  0  0
  -26.0220  -38.3050   23.9420 H   0  0  0  0  0  0  0  0  0  0  0  0
  -30.3110  -17.8330   20.3850 C   0  0  0  0  0  2  0  0  0  0  0  0
  -30.4550  -16.7870   21.5200 C   0  0  0  0  0  2  0  0  0  0  0  0
  -30.6580  -14.4620   20.5500 C   0  0  0  0  0  0  0  0  0  0  0  0
  -30.3720  -12.3140   19.3600 C   0  0  0  0  0  2  0  0  0  0  0  0
  -29.4430  -12.5260   18.1480 C   0  0  0  0  0  2  0  0  0  0  0  0
  -27.9630  -12.3870   18.5610 C   0  0  0  0  0  2  0  0  0  0  0  0
  -27.6150  -13.2190   19.8230 C   0  0  0  0  0  3  0  0  0  0  0  0
  -28.6530  -12.9810   20.9400 C   0  0  0  0  0  2  0  0  0  0  0  0
  -29.9850  -13.2900   20.3890 N   0  0  0  0  0  0  0  0  0  0  0  0
  -31.7790  -14.6640   20.0740 O   0  0  0  0  0  0  0  0  0  0  0  0
  -29.9750  -15.4390   21.1750 N   0  0  0  0  0  0  0  0  0  0  0  0
  -29.0470  -15.1980   21.4880 H   0  0  0  0  0  0  0  0  0  0  0  0
  -25.2080  -13.8400   20.4890 C   0  0  0  0  0  0  0  0  0  0  0  0
  -24.1330  -13.0750   20.8520 C   0  0  0  0  0  0  0  0  0  0  0  0
  -24.5920  -11.7220   20.8440 C   0  0  0  0  0  0  0  0  0  0  0  0
  -26.2540  -12.9550   20.2820 N   0  0  0  0  0  0  0  0  0  0  0  0
  -25.8860  -11.6760   20.5520 N   0  0  0  0  0  0  0  0  0  0  0  0
  -23.8620  -10.4630   21.0380 C   0  0  0  0  0  0  0  0  0  0  0  0
  -24.2890   -9.4980   21.9770 C   0  0  0  0  0  3  0  0  0  0  0  0
  -23.5590   -8.3040   22.1580 C   0  0  0  0  0  3  0  0  0  0  0  0
  -22.3880   -8.0660   21.4010 C   0  0  0  0  0  0  0  0  0  0  0  0
  -21.9810   -9.0190   20.4510 C   0  0  0  0  0  3  0  0  0  0  0  0
  -22.7110  -10.2050   20.2670 C   0  0  0  0  0  3  0  0  0  0  0  0
  -21.6310   -6.9230   21.4910 O   0  0  0  0  0  0  0  0  0  0  0  0
  -21.5850   -6.1790   22.6420 C   0  0  0  0  0  0  0  0  0  0  0  0
  -21.1750   -6.7350   23.8730 C   0  0  0  0  0  3  0  0  0  0  0  0
  -21.0750   -5.9180   25.0160 C   0  0  0  0  0  3  0  0  0  0  0  0
  -21.3770   -4.5450   24.9300 C   0  0  0  0  0  0  0  0  0  0  0  0
  -21.7820   -3.9890   23.7040 C   0  0  0  0  0  3  0  0  0  0  0  0
  -21.8820   -4.8030   22.5630 C   0  0  0  0  0  0  0  0  0  0  0  0
  -22.2520   -4.2580   21.3790 F   0  0  0  0  0  0  0  0  0  0  0  0
  -21.2740   -3.7580   26.0270 F   0  0  0  0  0  0  0  0  0  0  0  0
  -22.7330  -13.5570   21.1010 C   0  0  0  0  0  0  0  0  0  0  0  0
  -21.9930  -12.8690   21.9630 N   0  0  0  0  0  0  0  0  0  0  0  0
  -22.3040  -14.5790   20.5660 O   0  0  0  0  0  0  0  0  0  0  0  0
  -22.3530  -12.0410   22.4150 H   0  0  0  0  0  0  0  0  0  0  0  0
  -21.0530  -13.1720   22.1730 H   0  0  0  0  0  0  0  0  0  0  0  0
  -25.3790  -15.2080   20.2990 N   0  0  0  0  0  0  0  0  0  0  0  0
  -24.6170  -15.8700   20.4010 H   0  0  0  0  0  0  0  0  0  0  0  0
  -26.2370  -15.6380   19.9770 H   0  0  0  0  0  0  0  0  0  0  0  0
  1  2  2  0
  1  3  1  0
  2  5  1  0
  3  4  2  0
  4  6  1  0
  5  8  1  0
  5  7  2  0
  7  4  1  0
  9  8  1  0
 10  3  1  0
 10 11  2  0
 12 13  1  0
 12 10  1  0
 14 25  2  0
 15 13  1  0
 15 20  1  0
 16 24  1  0
 16 26  1  0
 17 23  1  0
 17 19  1  0
 18 24  1  0
 19 18  1  0
 20 19  2  0
 21 22  1  0
 21 15  2  0
 22 17  2  0
 23 16  1  0
 24 14  1  0
 26 28  2  0
 27 26  1  0
 29 27  1  0
 30 39  2  0
 30 35  1  0
 31 27  1  0
 31 35  1  0
 32 31  1  0
 33 34  1  0
 33 32  1  0
 34 30  1  0
 35 36  2  0
 36 37  1  0
 38 37  2  0
 39 38  1  0
 40 14  1  0
 40 45  1  0
 40 41  1  0
 41 44  1  1
 41 42  1  0
 43 41  1  0
 45 48  1  0
 46 50  1  0
 46 45  1  0
 47 46  2  0
 50 49  1  0
 52 50  1  0
 52 53  1  0
 52 51  1  0
 54  8  1  0
 54 55  1  0
 56 64  1  0
 57 62  1  0
 58 59  1  0
 58 57  1  0
 60 59  1  0
 60 69  1  0
 60 61  1  0
 62 56  1  0
 62 61  1  0
 63 56  2  0
 64 65  1  0
 64 55  1  0
 66 67  2  0
 67 86  1  0
 68 67  1  0
 68 71  1  0
 69 66  1  0
 69 70  1  0
 70 68  2  0
 71 72  1  0
 72 73  2  0
 74 77  1  0
 74 73  1  0
 75 74  2  0
 76 75  1  0
 76 71  2  0
 77 78  1  0
 78 79  1  0
 79 80  2  0
 81 80  1  0
 81 85  1  0
 82 81  2  0
 83 78  2  0
 83 82  1  0
 84 83  1  0
 86 87  1  0
 87 90  1  0
 87 89  1  0
 88 86  2  0
 91 92  1  0
 91 66  1  0
 93 91  1  0
M  ISO  4  12 101  13 101  56 100  64 100
M  END
>  <TORSDO>  (67) 
F 20

>  <SCORE>  (67) 
-13.847

>  <name>  (67) 
66

>  <ligand_id>  (67) 
66

>  <original_smiles>  (67) 
[H]c1c(N([H])C([H])([H])C([H])([H])N([H])C(=O)N2C([H])([H])C([H])([H])C([H])([H])C([H])(n3nc(-c4c([H])c([H])c(Oc5c([H])c([H])c(F)c([H])c5F)c([H])c4[H])c(C(=O)N([H])[H])c3N([H])[H])C2([H])[H])nc(C([H])([H])[H])c(C(=O)C([H])([H])Oc2c([H])c([H])c3c(c2[H])C([H])([H])N(C(=O)C([H])(N([H])C(=O)C([H])(N([H])C([H])([H])[H])C([H])([H])[H])C(C([H])([H])[H])(C([H])([H])[H])C([H])([H])[H])C([H])(C(=O)N([H])C2([H])c4c([H])c([H])c([H])c([H])c4C([H])([H])C([H])([H])C2([H])[H])C3([H])[H])c1[H]

>  <smiles>  (67) 
[H]c1c(N([H])C([H])([H])C([H])([H])N([H])C(=O)N2C([H])([H])C([H])([H])C([H])([H])C([H])(n3nc(-c4c([H])c([H])c(Oc5c([H])c([H])c(F)c([H])c5F)c([H])c4[H])c(C(=O)N([H])[H])c3N([H])[H])C2([H])[H])nc(C([H])([H])[H])c(C(=O)C([H])([H])Oc2c([H])c([H])c3c(c2[H])C([H])([H])N(C(=O)C([H])(N([H])C(=O)C([H])(N([H])C([H])([H])[H])C([H])([H])[H])C(C([H])([H])[H])(C([H])([H])[H])C([H])([H])[H])C([H])(C(=O)N([H])C2([H])c4c([H])c([H])c([H])c([H])c4C([H])([H])C([H])([H])C2([H])[H])C3([H])[H])c1[H]

$$$$
67:0:0
     RDKit          3D

 92100  0  0  1  0  0  0  0  0999 V2000
  -30.4980  -21.5810   21.8440 C   0  0  0  0  0  1  0  0  0  0  0  0
  -29.3320  -21.3240   20.8700 C   0  0  0  0  0  3  0  0  0  0  0  0
  -30.3150  -17.6500   18.7020 C   0  0  0  0  0  3  0  0  0  0  0  0
  -29.6520  -18.6730   20.7680 C   0  0  0  0  0  3  0  0  0  0  0  0
  -30.2450  -18.9360   18.1300 C   0  0  0  0  0  3  0  0  0  0  0  0
  -30.0280  -17.4600   20.0730 C   0  0  0  0  0  0  0  0  0  0  0  0
  -29.6070  -19.9590   20.1200 C   0  0  0  0  0  0  0  0  0  0  0  0
  -29.9140  -20.0600   18.8080 N   0  0  0  0  0  0  0  0  0  0  0  0
  -30.0950  -16.0600   20.7530 C   0  0  0  0  0  0  0  0  0  0  0  0
  -29.6710  -15.9520   21.9110 O   0  0  0  0  0  0  0  0  0  0  0  0
  -30.7860  -14.7450   20.0650 C   0  0  0  0  0  0  0  0  0  0  0  0
  -30.4600  -12.5340   18.9580 C   0  0  0  0  0  2  0  0  0  0  0  0
  -29.4670  -12.6900   17.7850 C   0  0  0  0  0  2  0  0  0  0  0  0
  -28.0150  -12.5250   18.2770 C   0  0  0  0  0  2  0  0  0  0  0  0
  -27.7210  -13.3640   19.5490 C   0  0  0  0  0  3  0  0  0  0  0  0
  -28.8280  -13.1840   20.6090 C   0  0  0  0  0  2  0  0  0  0  0  0
  -30.1100  -13.5450   19.9840 N   0  0  0  0  0  0  0  0  0  0  0  0
  -31.9090  -14.8550   19.5550 O   0  0  0  0  0  0  0  0  0  0  0  0
  -25.3710  -13.9580   20.3920 C   0  0  0  0  0  0  0  0  0  0  0  0
  -24.3210  -13.1840   20.8010 C   0  0  0  0  0  0  0  0  0  0  0  0
  -24.7740  -11.8310   20.7290 C   0  0  0  0  0  0  0  0  0  0  0  0
  -26.3980  -13.0780   20.0940 N   0  0  0  0  0  0  0  0  0  0  0  0
  -26.0480  -11.7920   20.3590 N   0  0  0  0  0  0  0  0  0  0  0  0
  -24.0520  -10.5690   20.9370 C   0  0  0  0  0  0  0  0  0  0  0  0
  -24.5050   -9.6010   21.8590 C   0  0  0  0  0  3  0  0  0  0  0  0
  -23.7810   -8.4040   22.0540 C   0  0  0  0  0  3  0  0  0  0  0  0
  -22.5900   -8.1680   21.3260 C   0  0  0  0  0  0  0  0  0  0  0  0
  -22.1570   -9.1250   20.3910 C   0  0  0  0  0  3  0  0  0  0  0  0
  -22.8810  -10.3130   20.1950 C   0  0  0  0  0  3  0  0  0  0  0  0
  -21.8370   -7.0240   21.4290 O   0  0  0  0  0  0  0  0  0  0  0  0
  -21.7820   -6.3010   22.5940 C   0  0  0  0  0  0  0  0  0  0  0  0
  -21.3570   -6.8800   23.8100 C   0  0  0  0  0  3  0  0  0  0  0  0
  -21.2490   -6.0840   24.9690 C   0  0  0  0  0  3  0  0  0  0  0  0
  -21.5560   -4.7110   24.9120 C   0  0  0  0  0  0  0  0  0  0  0  0
  -21.9750   -4.1330   23.7000 C   0  0  0  0  0  3  0  0  0  0  0  0
  -22.0850   -4.9260   22.5440 C   0  0  0  0  0  0  0  0  0  0  0  0
  -22.4680   -4.3590   21.3750 F   0  0  0  0  0  0  0  0  0  0  0  0
  -21.4460   -3.9450   26.0210 F   0  0  0  0  0  0  0  0  0  0  0  0
  -22.9400  -13.6630   21.1460 C   0  0  0  0  0  0  0  0  0  0  0  0
  -22.2560  -12.9670   22.0470 N   0  0  0  0  0  0  0  0  0  0  0  0
  -22.4780  -14.6910   20.6510 O   0  0  0  0  0  0  0  0  0  0  0  0
  -22.6440  -12.1350   22.4680 H   0  0  0  0  0  0  0  0  0  0  0  0
  -21.3340  -13.2700   22.3220 H   0  0  0  0  0  0  0  0  0  0  0  0
  -25.5320  -15.3310   20.2260 N   0  0  0  0  0  0  0  0  0  0  0  0
  -24.7730  -15.9850   20.3820 H   0  0  0  0  0  0  0  0  0  0  0  0
  -26.3670  -15.7760   19.8650 H   0  0  0  0  0  0  0  0  0  0  0  0
  -29.0850  -22.5490   19.9920 N   0  0  0  0  0  4  0  0  0  0  0  0
  -29.8890  -22.6160   19.3870 H   0  0  0  0  0  0  0  0  0  0  0  0
  -28.3170  -22.2950   19.3930 H   0  0  0  0  0  0  0  0  0  0  0  0
  -28.7950  -23.9160   20.6390 C   0  0  0  0  0  3  0  0  0  0  0  0
  -28.5400  -25.1670   19.6690 C   0  0  0  0  0  3  0  0  0  0  0  0
  -28.4370  -26.5430   20.2400 O   0  0  0  0  0  0  0  0  0  0  0  0
  -24.6440  -31.9090   23.2350 C   0  0  0  0  0  0  0  0  0  0  0  0
  -27.2810  -27.3480   20.1760 C   0  0  0  0  0  0  0  0  0  0  0  0
  -23.4460  -30.4970   21.6040 C   0  0  0  0  0  3  0  0  0  0  0  0
  -24.9010  -28.9550   20.1760 C   0  0  0  0  0  0  0  0  0  0  0  0
  -25.9840  -30.8300   21.4140 C   0  0  0  0  0  2  0  0  0  0  0  0
  -26.0690  -29.4500   20.7680 C   0  0  0  0  0  0  0  0  0  0  0  0
  -27.2570  -28.6580   20.7580 C   0  0  0  0  0  3  0  0  0  0  0  0
  -26.0820  -26.9080   19.5680 C   0  0  0  0  0  3  0  0  0  0  0  0
  -24.9110  -27.6920   19.5680 C   0  0  0  0  0  3  0  0  0  0  0  0
  -23.6590  -29.8210   20.2250 C   0  0  0  0  0  2  0  0  0  0  0  0
  -24.7100  -31.0970   22.1410 N   0  0  0  0  0  0  0  0  0  0  0  0
  -23.5600  -32.1810   23.7720 O   0  0  0  0  0  0  0  0  0  0  0  0
  -22.7930  -29.4770   22.5680 C   0  0  0  0  0  0  0  0  0  0  0  0
  -21.4680  -29.2900   22.4450 N   0  0  0  0  0  0  0  0  0  0  0  0
  -23.4780  -28.8580   23.3870 O   0  0  0  0  0  0  0  0  0  0  0  0
  -20.9740  -29.8390   21.7550 H   0  0  0  0  0  0  0  0  0  0  0  0
  -18.1020  -28.0640   22.9430 C   0  0  0  0  0  0  0  0  0  0  0  0
  -20.6570  -28.3490   23.2190 C   0  0  0  0  0  3  0  0  0  0  0  0
  -20.7750  -26.9160   22.6520 C   0  0  0  0  0  2  0  0  0  0  0  0
  -19.6800  -26.5760   21.6370 C   0  0  0  0  0  2  0  0  0  0  0  0
  -18.2940  -26.7110   22.2770 C   0  0  0  0  0  2  0  0  0  0  0  0
  -19.2120  -28.8390   23.3710 C   0  0  0  0  0  0  0  0  0  0  0  0
  -18.9770  -30.1040   23.9540 C   0  0  0  0  0  3  0  0  0  0  0  0
  -17.6670  -30.5930   24.1130 C   0  0  0  0  0  3  0  0  0  0  0  0
  -16.5710  -29.8130   23.7030 C   0  0  0  0  0  3  0  0  0  0  0  0
  -16.7900  -28.5510   23.1230 C   0  0  0  0  0  3  0  0  0  0  0  0
  -25.9220  -32.5530   23.8530 C   0  0  0  0  0  3  0  0  0  0  0  0
  -25.6040  -33.9500   24.1830 N   0  0  0  0  0  0  0  0  0  0  0  0
  -25.9220  -35.0040   23.4210 C   0  0  0  0  0  0  0  0  0  0  0  0
  -26.5860  -34.9060   22.3870 O   0  0  0  0  0  0  0  0  0  0  0  0
  -25.0100  -34.1000   24.9860 H   0  0  0  0  0  0  0  0  0  0  0  0
  -24.1740  -36.7810   23.0830 C   0  0  0  0  0  1  0  0  0  0  0  0
  -25.4270  -36.3890   23.8810 C   0  0  0  0  0  3  0  0  0  0  0  0
  -27.5600  -37.2960   24.6900 C   0  0  0  0  0  1  0  0  0  0  0  0
  -26.4490  -37.4510   23.7560 N   0  0  0  0  0  0  0  0  0  0  0  0
  -26.0350  -38.3680   23.9050 H   0  0  0  0  0  0  0  0  0  0  0  0
  -26.4480  -31.7890   25.1300 C   0  0  1  0  0  0  0  0  0  0  0  0
  -25.3590  -31.5430   26.2000 C   0  0  0  0  0  1  0  0  0  0  0  0
  -27.0420  -30.4150   24.7390 C   0  0  0  0  0  1  0  0  0  0  0  0
  -27.5940  -32.5940   25.7880 C   0  0  0  0  0  1  0  0  0  0  0  0
  2  1  1  0
  3  6  1  0
  5  3  2  0
  5  8  1  0
  6  9  1  0
  6  4  2  0
  7  4  1  0
  7  2  1  0
  8  7  2  0
  9 10  2  0
 11  9  1  0
 12 17  1  0
 13 14  1  0
 13 12  1  0
 15 14  1  0
 15 22  1  0
 15 16  1  0
 17 11  1  0
 17 16  1  0
 18 11  2  0
 19 20  2  0
 20 39  1  0
 21 20  1  0
 21 24  1  0
 22 23  1  0
 22 19  1  0
 23 21  2  0
 24 25  1  0
 25 26  2  0
 27 30  1  0
 27 26  1  0
 28 27  2  0
 29 28  1  0
 29 24  2  0
 30 31  1  0
 31 32  1  0
 32 33  2  0
 34 33  1  0
 34 38  1  0
 35 34  2  0
 36 31  2  0
 36 35  1  0
 37 36  1  0
 39 40  1  0
 40 43  1  0
 40 42  1  0
 41 39  2  0
 44 45  1  0
 44 19  1  0
 46 44  1  0
 47 50  1  0
 47  2  1  0
 48 47  1  0
 49 47  1  0
 51 52  1  0
 51 50  2  0
 53 64  2  0
 54 52  1  0
 54 59  1  0
 55 63  1  0
 55 65  1  0
 56 62  1  0
 56 58  1  0
 57 63  1  0
 58 57  1  0
 59 58  2  0
 60 61  1  0
 60 54  2  0
 61 56  2  0
 62 55  1  0
 63 53  1  0
 65 67  2  0
 66 65  1  0
 68 66  1  0
 69 78  2  0
 69 74  1  0
 70 66  1  0
 70 74  1  0
 71 70  1  0
 72 73  1  0
 72 71  1  0
 73 69  1  0
 74 75  2  0
 75 76  1  0
 77 76  2  0
 78 77  1  0
 79 53  1  0
 79 80  1  0
 79 89  1  0
 80 83  1  0
 81 85  1  0
 81 80  1  0
 82 81  2  0
 85 84  1  0
 87 85  1  0
 87 88  1  0
 87 86  1  0
 89 92  1  1
 89 90  1  0
 91 89  1  0
M  ISO  4   9 100  11 100  51 101  52 101
M  END
>  <TORSDO>  (68) 
F 21

>  <SCORE>  (68) 
-13.596

>  <name>  (68) 
67

>  <ligand_id>  (68) 
67

>  <original_smiles>  (68) 
[H]c1nc(C([H])(C([H])([H])[H])[N+]([H])([H])C([H])([H])C([H])([H])Oc2c([H])c([H])c3c(c2[H])C([H])([H])N(C(=O)C([H])(N([H])C(=O)C([H])(N([H])C([H])([H])[H])C([H])([H])[H])C(C([H])([H])[H])(C([H])([H])[H])C([H])([H])[H])C([H])(C(=O)N([H])C2([H])c4c([H])c([H])c([H])c([H])c4C([H])([H])C([H])([H])C2([H])[H])C3([H])[H])c([H])c(C(=O)C(=O)N2C([H])([H])C([H])([H])C([H])([H])C([H])(n3nc(-c4c([H])c([H])c(Oc5c([H])c([H])c(F)c([H])c5F)c([H])c4[H])c(C(=O)N([H])[H])c3N([H])[H])C2([H])[H])c1[H]

>  <smiles>  (68) 
[H]c1nc(C([H])(C([H])([H])[H])[N+]([H])([H])C([H])([H])C([H])([H])Oc2c([H])c([H])c3c(c2[H])C([H])([H])N(C(=O)C([H])(N([H])C(=O)C([H])(N([H])C([H])([H])[H])C([H])([H])[H])C(C([H])([H])[H])(C([H])([H])[H])C([H])([H])[H])C([H])(C(=O)N([H])C2([H])c4c([H])c([H])c([H])c([H])c4C([H])([H])C([H])([H])C2([H])[H])C3([H])[H])c([H])c(C(=O)C(=O)N2C([H])([H])C([H])([H])C([H])([H])C([H])(n3nc(-c4c([H])c([H])c(Oc5c([H])c([H])c(F)c([H])c5F)c([H])c4[H])c(C(=O)N([H])[H])c3N([H])[H])C2([H])[H])c1[H]

$$$$
68:0:0
     RDKit          3D

 97106  0  0  1  0  0  0  0  0999 V2000
  -29.2470  -21.7690   23.4390 C   0  0  0  0  0  2  0  0  0  0  0  0
  -29.0220  -23.1800   22.8760 C   0  0  0  0  0  2  0  0  0  0  0  0
  -30.9830  -22.3720   21.8520 C   0  0  0  0  0  2  0  0  0  0  0  0
  -30.5880  -21.2850   22.8680 C   0  0  0  0  0  3  0  0  0  0  0  0
  -30.3090  -23.6150   22.2940 N   0  0  1  0  0  4  0  0  0  0  0  0
  -30.8640  -23.9950   23.0490 H   0  0  0  0  0  0  0  0  0  0  0  0
  -30.2050  -24.6720   21.2510 C   0  0  0  0  0  2  0  0  0  0  0  0
  -30.7740  -26.5390   22.9000 C   0  0  0  0  0  1  0  0  0  0  0  0
  -29.7950  -26.0640   21.8080 C   0  0  0  0  0  3  0  0  0  0  0  0
  -29.7110  -27.1250   20.6840 C   0  0  0  0  0  2  0  0  0  0  0  0
  -28.5740  -26.9170   19.8390 O   0  0  0  0  0  0  0  0  0  0  0  0
  -24.7010  -31.8960   23.2480 C   0  0  0  0  0  0  0  0  0  0  0  0
  -27.4240  -27.6730   19.9720 C   0  0  0  0  0  0  0  0  0  0  0  0
  -23.4940  -30.5240   21.5770 C   0  0  0  0  0  3  0  0  0  0  0  0
  -24.9650  -29.0810   20.0720 C   0  0  0  0  0  0  0  0  0  0  0  0
  -25.9930  -30.9760   21.3310 C   0  0  0  0  0  2  0  0  0  0  0  0
  -26.1120  -29.6280   20.6560 C   0  0  0  0  0  0  0  0  0  0  0  0
  -27.3390  -28.9350   20.6120 C   0  0  0  0  0  3  0  0  0  0  0  0
  -26.2570  -27.1410   19.3810 C   0  0  0  0  0  3  0  0  0  0  0  0
  -25.0290  -27.8310   19.4340 C   0  0  0  0  0  3  0  0  0  0  0  0
  -23.6930  -29.8960   20.1700 C   0  0  0  0  0  2  0  0  0  0  0  0
  -24.7480  -31.1450   22.1120 N   0  0  0  0  0  0  0  0  0  0  0  0
  -23.6270  -32.1180   23.8240 O   0  0  0  0  0  0  0  0  0  0  0  0
  -22.8930  -29.4520   22.5120 C   0  0  0  0  0  0  0  0  0  0  0  0
  -21.5740  -29.2300   22.3980 N   0  0  0  0  0  0  0  0  0  0  0  0
  -23.6110  -28.8220   23.2950 O   0  0  0  0  0  0  0  0  0  0  0  0
  -21.0520  -29.7930   21.7390 H   0  0  0  0  0  0  0  0  0  0  0  0
  -18.2560  -27.8930   22.8770 C   0  0  0  0  0  0  0  0  0  0  0  0
  -20.8030  -28.2410   23.1470 C   0  0  0  0  0  3  0  0  0  0  0  0
  -20.9570  -26.8310   22.5320 C   0  0  0  0  0  2  0  0  0  0  0  0
  -19.8650  -26.4940   21.5130 C   0  0  0  0  0  2  0  0  0  0  0  0
  -18.4800  -26.5700   22.1650 C   0  0  0  0  0  2  0  0  0  0  0  0
  -19.3460  -28.6860   23.3230 C   0  0  0  0  0  0  0  0  0  0  0  0
  -19.0820  -29.9250   23.9450 C   0  0  0  0  0  3  0  0  0  0  0  0
  -17.7600  -30.3740   24.1250 C   0  0  0  0  0  3  0  0  0  0  0  0
  -16.6840  -29.5790   23.6940 C   0  0  0  0  0  3  0  0  0  0  0  0
  -16.9320  -28.3400   23.0760 C   0  0  0  0  0  3  0  0  0  0  0  0
  -25.9870  -32.5360   23.8610 C   0  0  0  0  0  3  0  0  0  0  0  0
  -25.6760  -33.9350   24.1790 N   0  0  0  0  0  0  0  0  0  0  0  0
  -26.0190  -34.9810   23.4160 C   0  0  0  0  0  0  0  0  0  0  0  0
  -26.6980  -34.8690   22.3920 O   0  0  0  0  0  0  0  0  0  0  0  0
  -25.0720  -34.0970   24.9720 H   0  0  0  0  0  0  0  0  0  0  0  0
  -24.2800  -36.7600   23.0460 C   0  0  0  0  0  1  0  0  0  0  0  0
  -25.5260  -36.3720   23.8580 C   0  0  0  0  0  3  0  0  0  0  0  0
  -27.6600  -37.2740   24.6710 C   0  0  0  0  0  1  0  0  0  0  0  0
  -26.5540  -37.4280   23.7310 N   0  0  0  0  0  0  0  0  0  0  0  0
  -26.1440  -38.3470   23.8720 H   0  0  0  0  0  0  0  0  0  0  0  0
  -26.5150  -31.7720   25.1380 C   0  0  1  0  0  0  0  0  0  0  0  0
  -25.4220  -31.5090   26.1990 C   0  0  0  0  0  1  0  0  0  0  0  0
  -27.1280  -30.4070   24.7420 C   0  0  0  0  0  1  0  0  0  0  0  0
  -27.6450  -32.5890   25.8090 C   0  0  0  0  0  1  0  0  0  0  0  0
  -30.4560  -20.0020   22.2470 O   0  0  0  0  0  0  0  0  0  0  0  0
  -30.9250  -18.8820   22.8480 C   0  0  0  0  0  0  0  0  0  0  0  0
  -31.6690  -18.8520   23.8310 O   0  0  0  0  0  0  0  0  0  0  0  0
  -30.4230  -17.5890   22.1880 C   0  0  0  0  0  2  0  0  0  0  0  0
  -31.3170  -14.7250   19.9670 C   0  0  0  0  0  0  0  0  0  0  0  0
  -30.8520  -12.5660   18.8740 C   0  0  0  0  0  2  0  0  0  0  0  0
  -29.8500  -12.7730   17.7200 C   0  0  0  0  0  2  0  0  0  0  0  0
  -28.4040  -12.6550   18.2400 C   0  0  0  0  0  2  0  0  0  0  0  0
  -28.1490  -13.5190   19.5010 C   0  0  0  0  0  3  0  0  0  0  0  0
  -29.2730  -13.3450   20.5510 C   0  0  0  0  0  2  0  0  0  0  0  0
  -30.5630  -13.5910   19.8890 N   0  0  0  0  0  0  0  0  0  0  0  0
  -32.4700  -14.7720   19.5350 O   0  0  0  0  0  0  0  0  0  0  0  0
  -31.6890  -18.1680   19.0060 C   0  0  0  0  0  2  0  0  0  0  0  0
  -30.1720  -17.9670   19.0110 C   0  0  0  0  0  2  0  0  0  0  0  0
  -32.3220  -17.7700   20.3490 C   0  0  0  0  0  2  0  0  0  0  0  0
  -29.7820  -16.5240   19.4150 C   0  0  0  0  0  2  0  0  0  0  0  0
  -31.4190  -16.8550   21.2300 C   0  0  0  0  0  3  0  0  0  0  0  0
  -30.6960  -15.8670   20.3860 N   0  0  0  0  0  0  0  0  0  0  0  0
  -25.8530  -14.1990   20.4340 C   0  0  0  0  0  0  0  0  0  0  0  0
  -24.7740  -13.4570   20.8310 C   0  0  0  0  0  0  0  0  0  0  0  0
  -25.1620  -12.0900   20.6830 C   0  0  0  0  0  0  0  0  0  0  0  0
  -26.8290  -13.2830   20.0710 N   0  0  0  0  0  0  0  0  0  0  0  0
  -26.4230  -12.0070   20.2810 N   0  0  0  0  0  0  0  0  0  0  0  0
  -24.3880  -10.8550   20.8440 C   0  0  0  0  0  0  0  0  0  0  0  0
  -24.8000   -9.8360   21.7310 C   0  0  0  0  0  3  0  0  0  0  0  0
  -24.0280   -8.6640   21.8830 C   0  0  0  0  0  3  0  0  0  0  0  0
  -22.8290   -8.5060   21.1480 C   0  0  0  0  0  0  0  0  0  0  0  0
  -22.4360   -9.5130   20.2490 C   0  0  0  0  0  3  0  0  0  0  0  0
  -23.2090  -10.6760   20.0950 C   0  0  0  0  0  3  0  0  0  0  0  0
  -22.0300   -7.3920   21.2120 O   0  0  0  0  0  0  0  0  0  0  0  0
  -21.8950   -6.6680   22.3700 C   0  0  0  0  0  0  0  0  0  0  0  0
  -21.4260   -7.2560   23.5650 C   0  0  0  0  0  3  0  0  0  0  0  0
  -21.2360   -6.4590   24.7120 C   0  0  0  0  0  3  0  0  0  0  0  0
  -21.5050   -5.0790   24.6640 C   0  0  0  0  0  0  0  0  0  0  0  0
  -21.9690   -4.4920   23.4740 C   0  0  0  0  0  3  0  0  0  0  0  0
  -22.1600   -5.2850   22.3290 C   0  0  0  0  0  0  0  0  0  0  0  0
  -22.5860   -4.7110   21.1770 F   0  0  0  0  0  0  0  0  0  0  0  0
  -21.3160   -4.3130   25.7640 F   0  0  0  0  0  0  0  0  0  0  0  0
  -23.4250  -13.9840   21.2290 C   0  0  0  0  0  0  0  0  0  0  0  0
  -22.7290  -13.2870   22.1190 N   0  0  0  0  0  0  0  0  0  0  0  0
  -22.9980  -15.0500   20.7870 O   0  0  0  0  0  0  0  0  0  0  0  0
  -23.0880  -12.4270   22.5080 H   0  0  0  0  0  0  0  0  0  0  0  0
  -21.8270  -13.6250   22.4250 H   0  0  0  0  0  0  0  0  0  0  0  0
  -26.0700  -15.5700   20.3300 N   0  0  0  0  0  0  0  0  0  0  0  0
  -25.3390  -16.2410   20.5420 H   0  0  0  0  0  0  0  0  0  0  0  0
  -26.9090  -15.9990   19.9630 H   0  0  0  0  0  0  0  0  0  0  0  0
  2  1  1  0
  3  5  1  0
  3  4  1  0
  4 52  1  0
  4  1  1  0
  5  2  1  0
  5  6  1  1
  7  9  1  0
  7  5  1  0
  9  8  1  0
 10  9  1  0
 11 13  1  0
 11 10  1  0
 12 23  2  0
 13 18  1  0
 14 22  1  0
 14 24  1  0
 15 21  1  0
 15 17  1  0
 16 22  1  0
 17 16  1  0
 18 17  2  0
 19 20  1  0
 19 13  2  0
 20 15  2  0
 21 14  1  0
 22 12  1  0
 24 26  2  0
 25 24  1  0
 27 25  1  0
 28 37  2  0
 28 33  1  0
 29 25  1  0
 29 33  1  0
 30 29  1  0
 31 32  1  0
 31 30  1  0
 32 28  1  0
 33 34  2  0
 34 35  1  0
 36 35  2  0
 37 36  1  0
 38 12  1  0
 38 39  1  0
 38 48  1  0
 39 42  1  0
 40 44  1  0
 40 39  1  0
 41 40  2  0
 44 43  1  0
 46 44  1  0
 46 47  1  0
 46 45  1  0
 48 51  1  1
 48 49  1  0
 50 48  1  0
 52 53  1  0
 53 54  2  0
 55 53  1  0
 56 69  1  0
 57 62  1  0
 58 59  1  0
 58 57  1  0
 60 59  1  0
 60 73  1  0
 60 61  1  0
 62 56  1  0
 62 61  1  0
 63 56  2  0
 64 65  1  0
 64 66  1  0
 65 67  1  0
 66 68  1  0
 67 69  1  0
 68 55  1  0
 69 68  1  0
 70 71  2  0
 71 90  1  0
 72 71  1  0
 72 75  1  0
 73 74  1  0
 73 70  1  0
 74 72  2  0
 75 76  1  0
 76 77  2  0
 78 81  1  0
 78 77  1  0
 79 78  2  0
 80 79  1  0
 80 75  2  0
 81 82  1  0
 82 83  1  0
 83 84  2  0
 85 84  1  0
 85 89  1  0
 86 85  2  0
 87 82  2  0
 87 86  1  0
 88 87  1  0
 90 91  1  0
 91 94  1  0
 91 93  1  0
 92 90  2  0
 95 70  1  0
 95 96  1  0
 97 95  1  0
M  ISO  4  10 101  11 101  56 100  69 100
M  END
>  <TORSDO>  (69) 
F 22

>  <SCORE>  (69) 
-11.457

>  <name>  (69) 
68

>  <ligand_id>  (69) 
68

>  <original_smiles>  (69) 
[H]c1c([H])c([H])c2c(c1[H])C([H])([H])C([H])([H])C([H])([H])C2([H])N([H])C(=O)C1([H])N(C(=O)C([H])(N([H])C(=O)C([H])(N([H])C([H])([H])[H])C([H])([H])[H])C(C([H])([H])[H])(C([H])([H])[H])C([H])([H])[H])C([H])([H])c2c([H])c(OC([H])([H])C([H])(C([H])([H])[H])C([H])([H])[N+]3([H])C([H])([H])C([H])([H])C([H])(OC(=O)C([H])([H])C4([H])N(C(=O)N5C([H])([H])C([H])([H])C([H])([H])C([H])(n6nc(-c7c([H])c([H])c(Oc8c([H])c([H])c(F)c([H])c8F)c([H])c7[H])c(C(=O)N([H])[H])c6N([H])[H])C5([H])[H])C([H])([H])C([H])([H])C([H])([H])C4([H])[H])C3([H])[H])c([H])c([H])c2C1([H])[H]

>  <smiles>  (69) 
[H]c1c([H])c([H])c2c(c1[H])C([H])([H])C([H])([H])C([H])([H])C2([H])N([H])C(=O)C1([H])N(C(=O)C([H])(N([H])C(=O)C([H])(N([H])C([H])([H])[H])C([H])([H])[H])C(C([H])([H])[H])(C([H])([H])[H])C([H])([H])[H])C([H])([H])c2c([H])c(OC([H])([H])C([H])(C([H])([H])[H])C([H])([H])[N+]3([H])C([H])([H])C([H])([H])C([H])(OC(=O)C([H])([H])C4([H])N(C(=O)N5C([H])([H])C([H])([H])C([H])([H])C([H])(n6nc(-c7c([H])c([H])c(Oc8c([H])c([H])c(F)c([H])c8F)c([H])c7[H])c(C(=O)N([H])[H])c6N([H])[H])C5([H])[H])C([H])([H])C([H])([H])C([H])([H])C4([H])[H])C3([H])[H])c([H])c([H])c2C1([H])[H]

$$$$
69:0:0
     RDKit          3D

 97105  0  0  1  0  0  0  0  0999 V2000
  -28.9860  -22.9720   21.3790 C   0  0  0  0  0  3  0  0  0  0  0  0
  -28.1920  -21.4880   19.2480 C   0  0  0  0  0  3  0  0  0  0  0  0
  -29.0830  -21.5450   21.4640 C   0  0  0  0  0  0  0  0  0  0  0  0
  -28.7070  -20.7310   20.3540 C   0  0  0  0  0  0  0  0  0  0  0  0
  -28.4560  -23.6600   20.2530 C   0  0  0  0  0  0  0  0  0  0  0  0
  -28.0390  -22.8630   19.2120 N   0  0  0  0  0  0  0  0  0  0  0  0
  -29.4050  -20.9230   22.8330 C   0  0  0  0  0  2  0  0  0  0  0  0
  -31.2480  -22.1210   24.1660 C   0  0  0  0  0  1  0  0  0  0  0  0
  -31.2460  -19.6390   24.1040 C   0  0  0  0  0  1  0  0  0  0  0  0
  -30.8920  -20.9110   23.2940 C   0  0  0  0  0  3  0  0  0  0  0  0
  -29.0370  -19.1530   20.3400 C   0  0  0  0  0  2  0  0  0  0  0  0
  -28.0810  -17.8740   20.0810 C   0  0  0  0  0  2  0  0  0  0  0  0
  -28.1300  -16.7480   21.1710 N   0  0  0  0  0  4  0  0  0  0  0  0
  -27.2840  -16.6570   20.6260 H   0  0  0  0  0  0  0  0  0  0  0  0
  -29.0040  -16.3440   20.9060 H   0  0  0  0  0  0  0  0  0  0  0  0
  -27.3620  -15.4340   21.6280 C   0  0  0  0  0  2  0  0  0  0  0  0
  -27.5730  -13.8750   20.9310 C   0  0  0  0  0  2  0  0  0  0  0  0
  -30.6140  -13.9740   19.9780 C   0  0  0  0  0  0  0  0  0  0  0  0
  -31.4840  -11.8950   18.7270 C   0  0  0  0  0  2  0  0  0  0  0  0
  -30.5710  -11.5850   17.4580 C   0  0  0  0  0  2  0  0  0  0  0  0
  -29.0330  -11.4810   17.6680 C   0  0  0  0  0  2  0  0  0  0  0  0
  -28.7930  -12.5190   18.6610 C   0  0  0  0  0  3  0  0  0  0  0  0
  -29.5990  -11.9900   19.9390 C   0  0  0  0  0  2  0  0  0  0  0  0
  -30.7700  -12.6580   19.7620 N   0  0  0  0  0  0  0  0  0  0  0  0
  -31.6240  -14.6250   19.5750 O   0  0  0  0  0  0  0  0  0  0  0  0
  -29.2450  -14.3830   20.5210 N   0  0  0  0  0  0  0  0  0  0  0  0
  -29.3850  -15.3550   20.6490 H   0  0  0  0  0  0  0  0  0  0  0  0
  -26.3430  -14.1620   19.4000 C   0  0  0  0  0  3  0  0  0  0  0  0
  -25.2720  -13.6170   20.6470 C   0  0  0  0  0  3  0  0  0  0  0  0
  -25.6710  -11.9330   21.1150 C   0  0  0  0  0  3  0  0  0  0  0  0
  -27.5360  -12.7100   19.0610 N   0  0  0  0  0  0  0  0  0  0  0  0
  -27.0270  -11.4040   20.2380 N   0  0  0  0  0  2  0  0  0  0  0  0
  -24.6530  -10.7810   21.0920 C   0  0  0  0  0  0  0  0  0  0  0  0
  -24.9000   -9.6480   21.8910 C   0  0  0  0  0  3  0  0  0  0  0  0
  -23.9960   -8.5730   21.9700 C   0  0  0  0  0  3  0  0  0  0  0  0
  -22.7890   -8.5640   21.2330 C   0  0  0  0  0  0  0  0  0  0  0  0
  -22.5800   -9.6140   20.3160 C   0  0  0  0  0  3  0  0  0  0  0  0
  -23.5130  -10.6930   20.2280 C   0  0  0  0  0  3  0  0  0  0  0  0
  -21.8480   -7.5520   21.3540 O   0  0  0  0  0  0  0  0  0  0  0  0
  -21.7160   -6.8340   22.5260 C   0  0  0  0  0  0  0  0  0  0  0  0
  -21.4610   -7.4670   23.7660 C   0  0  0  0  0  3  0  0  0  0  0  0
  -21.2980   -6.7030   24.9410 C   0  0  0  0  0  3  0  0  0  0  0  0
  -21.3820   -5.2970   24.8820 C   0  0  0  0  0  0  0  0  0  0  0  0
  -21.6210   -4.6580   23.6530 C   0  0  0  0  0  3  0  0  0  0  0  0
  -21.7870   -5.4250   22.4810 C   0  0  0  0  0  0  0  0  0  0  0  0
  -21.9970   -4.7920   21.3010 F   0  0  0  0  0  0  0  0  0  0  0  0
  -21.2280   -4.5600   26.0090 F   0  0  0  0  0  0  0  0  0  0  0  0
  -23.8650  -14.0920   20.7340 C   0  0  0  0  0  0  0  0  0  0  0  0
  -23.0720  -13.4980   21.6200 N   0  0  0  0  0  0  0  0  0  0  0  0
  -23.4670  -15.0010   20.0130 O   0  0  0  0  0  0  0  0  0  0  0  0
  -23.4120  -12.7600   22.2170 H   0  0  0  0  0  0  0  0  0  0  0  0
  -22.1040  -13.7800   21.6870 H   0  0  0  0  0  0  0  0  0  0  0  0
  -26.6190  -15.4200   18.9730 N   0  0  0  0  0  0  0  0  0  0  0  0
  -25.8290  -16.0340   18.8250 H   0  0  0  0  0  0  0  0  0  0  0  0
  -27.1090  -15.3020   18.0900 H   0  0  0  0  0  0  0  0  0  0  0  0
  -27.8800  -25.1590   20.4680 C   0  0  0  0  0  2  0  0  0  0  0  0
  -28.4900  -26.5290   20.1340 O   0  0  0  0  0  0  0  0  0  0  0  0
  -24.5810  -31.8290   23.2220 C   0  0  0  0  0  0  0  0  0  0  0  0
  -27.4850  -27.5220   20.0090 C   0  0  0  0  0  0  0  0  0  0  0  0
  -23.5030  -30.3990   21.5320 C   0  0  0  0  0  3  0  0  0  0  0  0
  -25.0690  -29.0540   20.0180 C   0  0  0  0  0  0  0  0  0  0  0  0
  -26.0230  -30.9000   21.3920 C   0  0  0  0  0  2  0  0  0  0  0  0
  -26.2050  -29.5620   20.6700 C   0  0  0  0  0  0  0  0  0  0  0  0
  -27.4260  -28.8070   20.6610 C   0  0  0  0  0  3  0  0  0  0  0  0
  -26.3610  -27.1490   19.2530 C   0  0  0  0  0  3  0  0  0  0  0  0
  -25.1590  -27.8720   19.2830 C   0  0  0  0  0  3  0  0  0  0  0  0
  -23.7700  -29.8290   20.1180 C   0  0  0  0  0  2  0  0  0  0  0  0
  -24.7190  -31.0650   22.1010 N   0  0  0  0  0  0  0  0  0  0  0  0
  -23.4770  -31.9930   23.7610 O   0  0  0  0  0  0  0  0  0  0  0  0
  -22.9320  -29.2860   22.4440 C   0  0  0  0  0  0  0  0  0  0  0  0
  -21.6480  -28.9360   22.2490 N   0  0  0  0  0  0  0  0  0  0  0  0
  -23.6440  -28.7460   23.2960 O   0  0  0  0  0  0  0  0  0  0  0  0
  -21.1260  -29.4280   21.5360 H   0  0  0  0  0  0  0  0  0  0  0  0
  -18.4870  -27.1800   22.4650 C   0  0  0  0  0  0  0  0  0  0  0  0
  -20.9220  -27.8910   22.9750 C   0  0  0  0  0  3  0  0  0  0  0  0
  -21.3260  -26.4830   22.4790 C   0  0  0  0  0  2  0  0  0  0  0  0
  -20.4070  -25.9470   21.3750 C   0  0  0  0  0  2  0  0  0  0  0  0
  -18.9610  -25.8640   21.8710 C   0  0  0  0  0  2  0  0  0  0  0  0
  -19.4070  -28.1380   22.9690 C   0  0  0  0  0  0  0  0  0  0  0  0
  -18.9120  -29.3580   23.4790 C   0  0  0  0  0  3  0  0  0  0  0  0
  -17.5310  -29.6270   23.4920 C   0  0  0  0  0  3  0  0  0  0  0  0
  -16.6240  -28.6690   23.0050 C   0  0  0  0  0  3  0  0  0  0  0  0
  -17.1020  -27.4490   22.4980 C   0  0  0  0  0  3  0  0  0  0  0  0
  -25.8020  -32.5500   23.8690 C   0  0  0  0  0  3  0  0  0  0  0  0
  -25.4030  -33.9390   24.1430 N   0  0  0  0  0  0  0  0  0  0  0  0
  -25.7750  -34.9980   23.4110 C   0  0  0  0  0  0  0  0  0  0  0  0
  -26.5530  -34.9090   22.4560 O   0  0  0  0  0  0  0  0  0  0  0  0
  -24.7240  -34.0790   24.8760 H   0  0  0  0  0  0  0  0  0  0  0  0
  -24.0390  -36.7230   22.8390 C   0  0  0  0  0  1  0  0  0  0  0  0
  -25.1910  -36.3700   23.7950 C   0  0  0  0  0  3  0  0  0  0  0  0
  -27.1920  -37.3210   24.8530 C   0  0  0  0  0  1  0  0  0  0  0  0
  -26.1920  -37.4590   23.7960 N   0  0  0  0  0  0  0  0  0  0  0  0
  -25.7430  -38.3640   23.9020 H   0  0  0  0  0  0  0  0  0  0  0  0
  -26.3100  -31.8500   25.1890 C   0  0  1  0  0  0  0  0  0  0  0  0
  -25.1900  -31.5670   26.2190 C   0  0  0  0  0  1  0  0  0  0  0  0
  -26.9990  -30.5020   24.8710 C   0  0  0  0  0  1  0  0  0  0  0  0
  -27.3790  -32.7370   25.8680 C   0  0  0  0  0  1  0  0  0  0  0  0
  1  3  1  0
  2  4  1  0
  3  7  1  0
  4  3  2  0
  5 56  1  0
  5  1  2  0
  6  2  2  0
  6  5  1  0
  7 10  1  0
 10  9  1  0
 10  8  1  0
 11  4  1  0
 12 11  1  0
 12 13  1  0
 13 16  1  0
 14 13  1  0
 15 13  1  0
 17 16  1  0
 18 26  1  0
 19 24  1  0
 20 21  1  0
 20 19  1  0
 22 21  1  0
 22 31  1  0
 22 23  1  0
 24 23  1  0
 24 18  1  0
 25 18  2  0
 26 27  1  0
 26 17  1  0
 28 53  1  0
 28 29  1  0
 29 48  1  0
 29 30  1  0
 30 33  1  0
 31 28  1  0
 31 32  1  0
 32 30  1  0
 33 34  1  0
 34 35  2  0
 36 39  1  0
 36 35  1  0
 37 36  2  0
 38 37  1  0
 38 33  2  0
 39 40  1  0
 40 41  1  0
 41 42  2  0
 43 42  1  0
 43 47  1  0
 44 43  2  0
 45 40  2  0
 45 44  1  0
 46 45  1  0
 48 49  1  0
 49 52  1  0
 49 51  1  0
 50 48  2  0
 54 53  1  0
 55 53  1  0
 57 56  1  0
 58 69  2  0
 59 57  1  0
 59 64  1  0
 60 68  1  0
 60 70  1  0
 61 67  1  0
 61 63  1  0
 62 68  1  0
 63 62  1  0
 64 63  2  0
 65 66  1  0
 65 59  2  0
 66 61  2  0
 67 60  1  0
 68 58  1  0
 70 72  2  0
 71 70  1  0
 73 71  1  0
 74 83  2  0
 74 79  1  0
 75 71  1  0
 76 75  1  0
 77 78  1  0
 77 76  1  0
 78 74  1  0
 79 75  1  0
 79 80  2  0
 80 81  1  0
 82 81  2  0
 83 82  1  0
 84 58  1  0
 84 85  1  0
 84 94  1  0
 85 88  1  0
 86 90  1  0
 86 85  1  0
 87 86  2  0
 90 89  1  0
 90 92  1  0
 92 93  1  0
 92 91  1  0
 94 97  1  1
 94 95  1  0
 96 94  1  0
M  ISO  4  18 100  26 100  56 101  57 101
M  END
>  <TORSDO>  (70) 
F 24

>  <SCORE>  (70) 
-9.481

>  <name>  (70) 
69

>  <ligand_id>  (70) 
69

>  <original_smiles>  (70) 
[H]c1nc(C([H])([H])Oc2c([H])c([H])c3c(c2[H])C([H])([H])N(C(=O)C([H])(N([H])C(=O)C([H])(N([H])C([H])([H])[H])C([H])([H])[H])C(C([H])([H])[H])(C([H])([H])[H])C([H])([H])[H])C([H])(C(=O)N([H])C2([H])c4c([H])c([H])c([H])c([H])c4C([H])([H])C([H])([H])C2([H])[H])C3([H])[H])c([H])c(C([H])([H])C([H])(C([H])([H])[H])C([H])([H])[H])c1C([H])([H])C([H])([H])[N+]([H])([H])C([H])([H])C([H])([H])N([H])C(=O)N1C([H])([H])C([H])([H])C([H])([H])C([H])(n2nc(-c3c([H])c([H])c(Oc4c([H])c([H])c(F)c([H])c4F)c([H])c3[H])c(C(=O)N([H])[H])c2N([H])[H])C1([H])[H]

>  <smiles>  (70) 
[H]c1nc(C([H])([H])Oc2c([H])c([H])c3c(c2[H])C([H])([H])N(C(=O)C([H])(N([H])C(=O)C([H])(N([H])C([H])([H])[H])C([H])([H])[H])C(C([H])([H])[H])(C([H])([H])[H])C([H])([H])[H])C([H])(C(=O)N([H])C2([H])c4c([H])c([H])c([H])c([H])c4C([H])([H])C([H])([H])C2([H])[H])C3([H])[H])c([H])c(C([H])([H])C([H])(C([H])([H])[H])C([H])([H])[H])c1C([H])([H])C([H])([H])[N+]([H])([H])C([H])([H])C([H])([H])N([H])C(=O)N1C([H])([H])C([H])([H])C([H])([H])C([H])(n2nc(-c3c([H])c([H])c(Oc4c([H])c([H])c(F)c([H])c4F)c([H])c3[H])c(C(=O)N([H])[H])c2N([H])[H])C1([H])[H]

$$$$
70:0:0
     RDKit          3D

 93101  0  0  1  0  0  0  0  0999 V2000
  -29.3430  -20.6110   21.7700 C   0  0  0  0  0  3  0  0  0  0  0  0
  -30.3310  -20.7360   20.7710 C   0  0  0  0  0  0  0  0  0  0  0  0
  -29.1160  -22.6970   20.0210 C   0  0  0  0  0  0  0  0  0  0  0  0
  -30.4090  -22.0830   20.1520 C   0  0  0  0  0  0  0  0  0  0  0  0
  -28.0890  -22.3290   20.9190 C   0  0  0  0  0  0  0  0  0  0  0  0
  -28.7880  -23.7930   19.0070 C   0  0  0  0  0  1  0  0  0  0  0  0
  -26.7220  -22.9970   20.9380 C   0  0  0  0  0  1  0  0  0  0  0  0
  -28.2600  -21.3930   21.8620 N   0  0  0  0  0  0  0  0  0  0  0  0
  -31.9620  -24.1160   19.8470 C   0  0  0  0  0  3  0  0  0  0  0  0
  -31.7170  -24.3160   18.3520 C   0  0  0  0  0  1  0  0  0  0  0  0
  -31.4810  -23.0480   20.4910 N   0  0  0  0  0  2  0  0  0  0  0  0
  -33.0980  -25.1670   20.3880 C   0  0  0  0  0  2  0  0  0  0  0  0
  -32.9330  -26.4160   21.2400 O   0  0  0  0  0  0  0  0  0  0  0  0
  -28.7420  -30.8380   25.1640 C   0  0  0  0  0  0  0  0  0  0  0  0
  -31.8720  -27.3550   21.2250 C   0  0  0  0  0  0  0  0  0  0  0  0
  -27.8240  -30.0070   23.0310 C   0  0  0  0  0  3  0  0  0  0  0  0
  -29.5050  -28.9760   21.3870 C   0  0  0  0  0  0  0  0  0  0  0  0
  -30.3510  -30.3460   23.2950 C   0  0  0  0  0  2  0  0  0  0  0  0
  -30.5620  -29.2230   22.2720 C   0  0  0  0  0  0  0  0  0  0  0  0
  -31.7440  -28.4170   22.1920 C   0  0  0  0  0  3  0  0  0  0  0  0
  -30.8160  -27.2130   20.3120 C   0  0  0  0  0  3  0  0  0  0  0  0
  -29.6440  -27.9920   20.3940 C   0  0  0  0  0  3  0  0  0  0  0  0
  -28.2400  -29.7990   21.5500 C   0  0  0  0  0  2  0  0  0  0  0  0
  -28.9850  -30.3970   23.8940 N   0  0  0  0  0  0  0  0  0  0  0  0
  -27.5850  -30.9410   25.6030 O   0  0  0  0  0  0  0  0  0  0  0  0
  -27.0860  -28.7450   23.5340 C   0  0  0  0  0  0  0  0  0  0  0  0
  -25.8490  -28.5310   23.0530 N   0  0  0  0  0  0  0  0  0  0  0  0
  -27.6330  -27.9720   24.3250 O   0  0  0  0  0  0  0  0  0  0  0  0
  -25.4600  -29.2170   22.4210 H   0  0  0  0  0  0  0  0  0  0  0  0
  -22.6630  -26.9770   22.3220 C   0  0  0  0  0  0  0  0  0  0  0  0
  -24.9940  -27.3820   23.3620 C   0  0  0  0  0  3  0  0  0  0  0  0
  -25.4460  -26.1270   22.5810 C   0  0  0  0  0  2  0  0  0  0  0  0
  -24.7100  -25.9490   21.2490 C   0  0  0  0  0  2  0  0  0  0  0  0
  -23.2020  -25.8320   21.4810 C   0  0  0  0  0  2  0  0  0  0  0  0
  -23.5070  -27.7160   23.1920 C   0  0  0  0  0  0  0  0  0  0  0  0
  -22.9610  -28.7930   23.9220 C   0  0  0  0  0  3  0  0  0  0  0  0
  -21.6010  -29.1330   23.7960 C   0  0  0  0  0  3  0  0  0  0  0  0
  -20.7680  -28.3930   22.9400 C   0  0  0  0  0  3  0  0  0  0  0  0
  -21.2970  -27.3140   22.2110 C   0  0  0  0  0  3  0  0  0  0  0  0
  -29.9010  -31.2550   26.1180 C   0  0  0  0  0  3  0  0  0  0  0  0
  -30.2210  -30.1660   27.2130 C   0  0  1  0  0  0  0  0  0  0  0  0
  -28.9680  -29.6720   27.9780 C   0  0  0  0  0  1  0  0  0  0  0  0
  -30.9030  -28.9330   26.5750 C   0  0  0  0  0  1  0  0  0  0  0  0
  -31.2210  -30.7400   28.2450 C   0  0  0  0  0  1  0  0  0  0  0  0
  -29.5230  -32.5290   26.7510 N   0  0  0  0  0  0  0  0  0  0  0  0
  -29.9460  -33.7350   26.3500 C   0  0  0  0  0  0  0  0  0  0  0  0
  -30.7640  -33.8860   25.4390 O   0  0  0  0  0  0  0  0  0  0  0  0
  -28.8120  -32.4840   27.4680 H   0  0  0  0  0  0  0  0  0  0  0  0
  -28.2600  -35.6000   26.2240 C   0  0  0  0  0  1  0  0  0  0  0  0
  -29.3750  -34.9700   27.0740 C   0  0  0  0  0  3  0  0  0  0  0  0
  -31.3550  -35.5590   28.4080 C   0  0  0  0  0  1  0  0  0  0  0  0
  -30.3960  -35.9940   27.3960 N   0  0  0  0  0  0  0  0  0  0  0  0
  -29.9520  -36.8460   27.7290 H   0  0  0  0  0  0  0  0  0  0  0  0
  -30.7500  -19.2950   20.1470 C   0  0  0  0  0  2  0  0  0  0  0  0
  -31.1880  -17.9920   21.0950 C   0  0  0  0  0  2  0  0  0  0  0  0
  -31.6780  -15.3710   20.6800 C   0  0  0  0  0  0  0  0  0  0  0  0
  -31.5370  -13.0770   19.6740 C   0  0  0  0  0  2  0  0  0  0  0  0
  -30.6880  -13.1180   18.3830 C   0  0  0  0  0  2  0  0  0  0  0  0
  -29.1860  -13.0050   18.7130 C   0  0  0  0  0  2  0  0  0  0  0  0
  -28.7520  -13.9580   19.8550 C   0  0  0  0  0  3  0  0  0  0  0  0
  -29.7030  -13.8380   21.0610 C   0  0  0  0  0  2  0  0  0  0  0  0
  -31.0480  -14.1520   20.5660 N   0  0  0  0  0  0  0  0  0  0  0  0
  -32.9010  -15.4360   20.5200 O   0  0  0  0  0  0  0  0  0  0  0  0
  -30.8730  -16.5120   20.7790 N   0  0  0  0  0  0  0  0  0  0  0  0
  -29.8930  -16.2820   20.8450 H   0  0  0  0  0  0  0  0  0  0  0  0
  -26.3600  -14.7040   20.3900 C   0  0  0  0  0  0  0  0  0  0  0  0
  -25.2230  -13.9970   20.6830 C   0  0  0  0  0  0  0  0  0  0  0  0
  -25.6080  -12.6230   20.7060 C   0  0  0  0  0  0  0  0  0  0  0  0
  -27.3610  -13.7580   20.2430 N   0  0  0  0  0  0  0  0  0  0  0  0
  -26.9120  -12.5040   20.5020 N   0  0  0  0  0  0  0  0  0  0  0  0
  -24.7980  -11.4050   20.8500 C   0  0  0  0  0  0  0  0  0  0  0  0
  -25.1130  -10.4170   21.8090 C   0  0  0  0  0  3  0  0  0  0  0  0
  -24.3090   -9.2650   21.9400 C   0  0  0  0  0  3  0  0  0  0  0  0
  -23.1760   -9.0930   21.1100 C   0  0  0  0  0  0  0  0  0  0  0  0
  -22.8790  -10.0680   20.1420 C   0  0  0  0  0  3  0  0  0  0  0  0
  -23.6830  -11.2130   20.0090 C   0  0  0  0  0  3  0  0  0  0  0  0
  -22.3530   -7.9940   21.1490 O   0  0  0  0  0  0  0  0  0  0  0  0
  -22.1630   -7.2780   22.3040 C   0  0  0  0  0  0  0  0  0  0  0  0
  -21.6930   -7.8860   23.4880 C   0  0  0  0  0  3  0  0  0  0  0  0
  -21.4460   -7.1010   24.6320 C   0  0  0  0  0  3  0  0  0  0  0  0
  -21.6610   -5.7090   24.5920 C   0  0  0  0  0  0  0  0  0  0  0  0
  -22.1230   -5.1020   23.4110 C   0  0  0  0  0  3  0  0  0  0  0  0
  -22.3700   -5.8840   22.2700 C   0  0  0  0  0  0  0  0  0  0  0  0
  -22.7970   -5.2910   21.1280 F   0  0  0  0  0  0  0  0  0  0  0  0
  -21.4150   -4.9540   25.6870 F   0  0  0  0  0  0  0  0  0  0  0  0
  -23.8400  -14.5600   20.8310 C   0  0  0  0  0  0  0  0  0  0  0  0
  -23.0110  -13.9360   21.6610 N   0  0  0  0  0  0  0  0  0  0  0  0
  -23.4990  -15.5850   20.2420 O   0  0  0  0  0  0  0  0  0  0  0  0
  -23.2940  -13.1060   22.1590 H   0  0  0  0  0  0  0  0  0  0  0  0
  -22.0780  -14.2990   21.8020 H   0  0  0  0  0  0  0  0  0  0  0  0
  -26.6240  -16.0560   20.2060 N   0  0  0  0  0  0  0  0  0  0  0  0
  -25.8940  -16.7600   20.2290 H   0  0  0  0  0  0  0  0  0  0  0  0
  -27.5110  -16.4200   19.8790 H   0  0  0  0  0  0  0  0  0  0  0  0
  1  8  1  0
  2  1  2  0
  3  4  2  0
  3  5  1  0
  4 11  1  0
  4  2  1  0
  5  7  1  0
  5  8  2  0
  6  3  1  0
  9 10  1  0
  9 12  1  0
  9 11  1  0
 12 13  1  0
 14 25  2  0
 15 13  1  0
 15 20  1  0
 16 26  1  0
 16 24  1  0
 17 23  1  0
 17 19  1  0
 18 24  1  0
 19 18  1  0
 20 19  2  0
 21 22  1  0
 21 15  2  0
 22 17  2  0
 23 16  1  0
 24 14  1  0
 26 28  2  0
 27 26  1  0
 29 27  1  0
 30 35  1  0
 31 27  1  0
 32 31  1  0
 33 34  1  0
 33 32  1  0
 34 30  1  0
 35 31  1  0
 35 36  2  0
 37 36  1  0
 38 37  2  0
 39 30  2  0
 39 38  1  0
 40 14  1  0
 40 45  1  0
 40 41  1  0
 41 42  1  1
 41 44  1  0
 43 41  1  0
 45 48  1  0
 46 45  1  0
 46 50  1  0
 47 46  2  0
 50 49  1  0
 50 52  1  0
 52 53  1  0
 52 51  1  0
 54  2  1  0
 54 55  1  0
 56 64  1  0
 57 62  1  0
 58 59  1  0
 58 57  1  0
 60 59  1  0
 60 69  1  0
 60 61  1  0
 62 56  1  0
 62 61  1  0
 63 56  2  0
 64 65  1  0
 64 55  1  0
 66 67  2  0
 67 68  1  0
 67 86  1  0
 68 71  1  0
 69 66  1  0
 69 70  1  0
 70 68  2  0
 71 72  1  0
 72 73  2  0
 74 77  1  0
 74 73  1  0
 75 74  2  0
 76 75  1  0
 76 71  2  0
 77 78  1  0
 78 79  1  0
 79 80  2  0
 81 80  1  0
 81 85  1  0
 82 81  2  0
 83 78  2  0
 83 82  1  0
 84 83  1  0
 86 87  1  0
 87 90  1  0
 87 89  1  0
 88 86  2  0
 91 92  1  0
 91 66  1  0
 93 91  1  0
M  ISO  4  12 101  13 101  56 100  64 100
M  END
>  <TORSDO>  (71) 
F 20

>  <SCORE>  (71) 
-7.395

>  <name>  (71) 
70

>  <ligand_id>  (71) 
70

>  <original_smiles>  (71) 
[H]c1nc(C([H])([H])[H])c(C([H])([H])[H])c(N=C(C([H])([H])[H])C([H])([H])Oc2c([H])c([H])c3c(c2[H])C([H])([H])N(C(=O)C([H])(N([H])C(=O)C([H])(N([H])C([H])([H])[H])C([H])([H])[H])C(C([H])([H])[H])(C([H])([H])[H])C([H])([H])[H])C([H])(C(=O)N([H])C2([H])c4c([H])c([H])c([H])c([H])c4C([H])([H])C([H])([H])C2([H])[H])C3([H])[H])c1C([H])([H])C([H])([H])N([H])C(=O)N1C([H])([H])C([H])([H])C([H])([H])C([H])(n2nc(-c3c([H])c([H])c(Oc4c([H])c([H])c(F)c([H])c4F)c([H])c3[H])c(C(=O)N([H])[H])c2N([H])[H])C1([H])[H]

>  <smiles>  (71) 
[H]c1nc(C([H])([H])[H])c(C([H])([H])[H])c(N=C(C([H])([H])[H])C([H])([H])Oc2c([H])c([H])c3c(c2[H])C([H])([H])N(C(=O)C([H])(N([H])C(=O)C([H])(N([H])C([H])([H])[H])C([H])([H])[H])C(C([H])([H])[H])(C([H])([H])[H])C([H])([H])[H])C([H])(C(=O)N([H])C2([H])c4c([H])c([H])c([H])c([H])c4C([H])([H])C([H])([H])C2([H])[H])C3([H])[H])c1C([H])([H])C([H])([H])N([H])C(=O)N1C([H])([H])C([H])([H])C([H])([H])C([H])(n2nc(-c3c([H])c([H])c(Oc4c([H])c([H])c(F)c([H])c4F)c([H])c3[H])c(C(=O)N([H])[H])c2N([H])[H])C1([H])[H]

$$$$
71:0:0
     RDKit          3D

 94102  0  0  1  0  0  0  0  0999 V2000
  -28.3660  -19.5280   20.0290 C   0  0  0  0  0  2  0  0  0  0  0  0
  -31.3360  -17.6880   18.8170 C   0  0  0  0  0  3  0  0  0  0  0  0
  -30.3780  -17.8410   19.8600 C   0  0  0  0  0  0  0  0  0  0  0  0
  -29.5760  -18.8710   19.4160 C   0  0  0  0  0  0  0  0  0  0  0  0
  -31.1420  -18.5200   17.8100 N   0  0  0  0  0  0  0  0  0  0  0  0
  -30.0580  -19.2400   18.1670 N   0  0  0  0  0  0  0  0  0  0  0  0
  -28.7780  -19.5640   16.0830 C   0  0  0  0  0  1  0  0  0  0  0  0
  -29.5630  -20.2260   17.2220 C   0  0  0  0  0  2  0  0  0  0  0  0
  -30.3530  -17.0530   21.1640 C   0  0  0  0  0  2  0  0  0  0  0  0
  -30.7720  -14.6230   20.5500 C   0  0  0  0  0  0  0  0  0  0  0  0
  -30.5250  -12.4670   19.3890 C   0  0  0  0  0  2  0  0  0  0  0  0
  -29.6040  -12.6730   18.1700 C   0  0  0  0  0  2  0  0  0  0  0  0
  -28.1200  -12.5300   18.5660 C   0  0  0  0  0  2  0  0  0  0  0  0
  -27.7570  -13.3590   19.8270 C   0  0  0  0  0  3  0  0  0  0  0  0
  -28.7860  -13.1280   20.9540 C   0  0  0  0  0  2  0  0  0  0  0  0
  -30.1200  -13.4380   20.4140 N   0  0  0  0  0  0  0  0  0  0  0  0
  -31.9120  -14.8130   20.1180 O   0  0  0  0  0  0  0  0  0  0  0  0
  -30.0210  -15.6260   21.0410 N   0  0  0  0  0  0  0  0  0  0  0  0
  -29.1130  -15.3600   21.3900 H   0  0  0  0  0  0  0  0  0  0  0  0
  -25.3460  -13.9780   20.4790 C   0  0  0  0  0  0  0  0  0  0  0  0
  -24.2680  -13.2100   20.8330 C   0  0  0  0  0  0  0  0  0  0  0  0
  -24.7270  -11.8580   20.8160 C   0  0  0  0  0  0  0  0  0  0  0  0
  -26.3930  -13.0910   20.2760 N   0  0  0  0  0  0  0  0  0  0  0  0
  -26.0240  -11.8110   20.5350 N   0  0  0  0  0  0  0  0  0  0  0  0
  -23.9960  -10.5990   21.0000 C   0  0  0  0  0  0  0  0  0  0  0  0
  -24.3980   -9.6440   21.9590 C   0  0  0  0  0  3  0  0  0  0  0  0
  -23.6660   -8.4480   22.1320 C   0  0  0  0  0  3  0  0  0  0  0  0
  -22.5190   -8.2000   21.3420 C   0  0  0  0  0  0  0  0  0  0  0  0
  -22.1350   -9.1430   20.3730 C   0  0  0  0  0  3  0  0  0  0  0  0
  -22.8670  -10.3310   20.1990 C   0  0  0  0  0  3  0  0  0  0  0  0
  -21.7610   -7.0550   21.4190 O   0  0  0  0  0  0  0  0  0  0  0  0
  -21.6620   -6.3380   22.5830 C   0  0  0  0  0  0  0  0  0  0  0  0
  -21.1530   -6.9080   23.7710 C   0  0  0  0  0  3  0  0  0  0  0  0
  -21.0010   -6.1140   24.9240 C   0  0  0  0  0  3  0  0  0  0  0  0
  -21.3460   -4.7500   24.8920 C   0  0  0  0  0  0  0  0  0  0  0  0
  -21.8470   -4.1790   23.7090 C   0  0  0  0  0  3  0  0  0  0  0  0
  -22.0000   -4.9700   22.5570 C   0  0  0  0  0  0  0  0  0  0  0  0
  -22.4630   -4.4090   21.4130 F   0  0  0  0  0  0  0  0  0  0  0  0
  -21.1940   -3.9850   25.9980 F   0  0  0  0  0  0  0  0  0  0  0  0
  -22.8660  -13.6920   21.0770 C   0  0  0  0  0  0  0  0  0  0  0  0
  -22.1230  -12.9980   21.9320 N   0  0  0  0  0  0  0  0  0  0  0  0
  -22.4400  -14.7170   20.5470 O   0  0  0  0  0  0  0  0  0  0  0  0
  -22.4830  -12.1680   22.3810 H   0  0  0  0  0  0  0  0  0  0  0  0
  -21.1800  -13.2950   22.1360 H   0  0  0  0  0  0  0  0  0  0  0  0
  -25.5150  -15.3450   20.2870 N   0  0  0  0  0  0  0  0  0  0  0  0
  -24.7420  -15.9980   20.3550 H   0  0  0  0  0  0  0  0  0  0  0  0
  -26.3660  -15.7720   19.9380 H   0  0  0  0  0  0  0  0  0  0  0  0
  -28.6580  -20.8680   20.6130 N   0  0  0  0  0  2  0  0  0  0  0  0
  -27.9390  -21.8030   20.1980 N   0  0  0  0  0  2  0  0  0  0  0  0
  -26.6440  -23.0550   21.7600 C   0  0  0  0  0  1  0  0  0  0  0  0
  -27.9940  -23.0470   21.0190 C   0  0  0  0  0  3  0  0  0  0  0  0
  -28.1810  -24.2560   20.0620 C   0  0  0  0  0  2  0  0  0  0  0  0
  -28.3140  -25.5960   20.8340 C   0  0  0  0  0  2  0  0  0  0  0  0
  -28.3940  -26.7700   20.0130 O   0  0  0  0  0  0  0  0  0  0  0  0
  -24.5380  -31.8720   23.1690 C   0  0  0  0  0  0  0  0  0  0  0  0
  -27.2430  -27.5220   20.0060 C   0  0  0  0  0  0  0  0  0  0  0  0
  -23.3670  -30.5080   21.4710 C   0  0  0  0  0  3  0  0  0  0  0  0
  -24.8500  -29.0170   20.0250 C   0  0  0  0  0  0  0  0  0  0  0  0
  -25.8940  -30.8790   21.3260 C   0  0  0  0  0  2  0  0  0  0  0  0
  -25.9960  -29.5280   20.6490 C   0  0  0  0  0  0  0  0  0  0  0  0
  -27.1990  -28.7850   20.6390 C   0  0  0  0  0  3  0  0  0  0  0  0
  -26.0880  -27.0330   19.3630 C   0  0  0  0  0  3  0  0  0  0  0  0
  -24.8900  -27.7690   19.3810 C   0  0  0  0  0  3  0  0  0  0  0  0
  -23.6020  -29.8690   20.0770 C   0  0  0  0  0  2  0  0  0  0  0  0
  -24.6190  -31.0970   22.0500 N   0  0  0  0  0  0  0  0  0  0  0  0
  -23.4470  -32.1260   23.6960 O   0  0  0  0  0  0  0  0  0  0  0  0
  -22.7040  -29.4560   22.3920 C   0  0  0  0  0  0  0  0  0  0  0  0
  -21.3750  -29.3070   22.2740 N   0  0  0  0  0  0  0  0  0  0  0  0
  -23.3840  -28.7770   23.1650 O   0  0  0  0  0  0  0  0  0  0  0  0
  -20.8860  -29.9070   21.6250 H   0  0  0  0  0  0  0  0  0  0  0  0
  -17.9770  -28.2070   22.8190 C   0  0  0  0  0  0  0  0  0  0  0  0
  -20.5510  -28.3520   23.0160 C   0  0  0  0  0  3  0  0  0  0  0  0
  -20.5790  -26.9570   22.3520 C   0  0  0  0  0  2  0  0  0  0  0  0
  -19.4330  -26.7370   21.3590 C   0  0  0  0  0  2  0  0  0  0  0  0
  -18.0780  -26.8970   22.0560 C   0  0  0  0  0  2  0  0  0  0  0  0
  -19.1380  -28.8980   23.2560 C   0  0  0  0  0  0  0  0  0  0  0  0
  -18.9880  -30.1290   23.9300 C   0  0  0  0  0  3  0  0  0  0  0  0
  -17.7100  -30.6710   24.1660 C   0  0  0  0  0  3  0  0  0  0  0  0
  -16.5650  -29.9750   23.7460 C   0  0  0  0  0  3  0  0  0  0  0  0
  -16.6980  -28.7450   23.0770 C   0  0  0  0  0  3  0  0  0  0  0  0
  -25.8100  -32.4950   23.8240 C   0  0  0  0  0  3  0  0  0  0  0  0
  -25.5000  -33.8910   24.1560 N   0  0  0  0  0  0  0  0  0  0  0  0
  -25.8490  -34.9470   23.4080 C   0  0  0  0  0  0  0  0  0  0  0  0
  -26.5370  -34.8450   22.3880 O   0  0  0  0  0  0  0  0  0  0  0  0
  -24.9040  -34.0480   24.9560 H   0  0  0  0  0  0  0  0  0  0  0  0
  -24.1400  -36.7490   23.0130 C   0  0  0  0  0  1  0  0  0  0  0  0
  -25.3520  -36.3320   23.8610 C   0  0  0  0  0  3  0  0  0  0  0  0
  -27.4560  -37.2030   24.7790 C   0  0  0  0  0  1  0  0  0  0  0  0
  -26.3940  -37.3810   23.7930 N   0  0  0  0  0  0  0  0  0  0  0  0
  -25.9870  -38.3030   23.9270 H   0  0  0  0  0  0  0  0  0  0  0  0
  -26.2960  -31.7140   25.1060 C   0  0  1  0  0  0  0  0  0  0  0  0
  -25.1780  -31.4700   26.1450 C   0  0  0  0  0  1  0  0  0  0  0  0
  -26.8890  -30.3410   24.7150 C   0  0  0  0  0  1  0  0  0  0  0  0
  -27.4350  -32.5020   25.7990 C   0  0  0  0  0  1  0  0  0  0  0  0
  1 48  1  0
  2  3  1  0
  3  9  1  0
  4  3  2  0
  4  1  1  0
  5  6  1  0
  5  2  2  0
  6  4  1  0
  7  8  1  0
  8  6  1  0
 10 18  1  0
 11 16  1  0
 12 13  1  0
 12 11  1  0
 14 13  1  0
 14 23  1  0
 14 15  1  0
 16 10  1  0
 16 15  1  0
 17 10  2  0
 18  9  1  0
 18 19  1  0
 20 21  2  0
 21 40  1  0
 22 21  1  0
 22 25  1  0
 23 20  1  0
 23 24  1  0
 24 22  2  0
 25 26  1  0
 26 27  2  0
 28 31  1  0
 28 27  1  0
 29 28  2  0
 30 29  1  0
 30 25  2  0
 31 32  1  0
 32 33  1  0
 33 34  2  0
 35 34  1  0
 35 39  1  0
 36 35  2  0
 37 32  2  0
 37 36  1  0
 38 37  1  0
 40 41  1  0
 41 44  1  0
 41 43  1  0
 42 40  2  0
 45 46  1  0
 45 20  1  0
 47 45  1  0
 49 48  1  0
 49 51  1  0
 51 50  1  0
 52 53  1  0
 52 51  1  0
 54 53  1  0
 55 66  2  0
 56 54  1  0
 56 61  1  0
 57 65  1  0
 57 67  1  0
 58 64  1  0
 58 60  1  0
 59 65  1  0
 60 59  1  0
 61 60  2  0
 62 63  1  0
 62 56  2  0
 63 58  2  0
 64 57  1  0
 65 55  1  0
 67 69  2  0
 68 67  1  0
 70 68  1  0
 71 80  2  0
 71 76  1  0
 72 68  1  0
 72 76  1  0
 73 72  1  0
 74 75  1  0
 74 73  1  0
 75 71  1  0
 76 77  2  0
 77 78  1  0
 79 78  2  0
 80 79  1  0
 81 55  1  0
 81 82  1  0
 81 91  1  0
 82 85  1  0
 83 87  1  0
 83 82  1  0
 84 83  2  0
 87 86  1  0
 89 87  1  0
 89 90  1  0
 89 88  1  0
 91 94  1  1
 91 92  1  0
 93 91  1  0
M  ISO  4  10 100  18 100  53 101  54 101
M  END
>  <TORSDO>  (72) 
F 23

>  <SCORE>  (72) 
-13.122

>  <name>  (72) 
71

>  <ligand_id>  (72) 
71

>  <original_smiles>  (72) 
[H]c1nn(C([H])([H])C([H])([H])[H])c(C([H])([H])N=NC([H])(C([H])([H])[H])C([H])([H])C([H])([H])Oc2c([H])c([H])c3c(c2[H])C([H])([H])N(C(=O)C([H])(N([H])C(=O)C([H])(N([H])C([H])([H])[H])C([H])([H])[H])C(C([H])([H])[H])(C([H])([H])[H])C([H])([H])[H])C([H])(C(=O)N([H])C2([H])c4c([H])c([H])c([H])c([H])c4C([H])([H])C([H])([H])C2([H])[H])C3([H])[H])c1C([H])([H])N([H])C(=O)N1C([H])([H])C([H])([H])C([H])([H])C([H])(n2nc(-c3c([H])c([H])c(Oc4c([H])c([H])c(F)c([H])c4F)c([H])c3[H])c(C(=O)N([H])[H])c2N([H])[H])C1([H])[H]

>  <smiles>  (72) 
[H]c1nn(C([H])([H])C([H])([H])[H])c(C([H])([H])N=NC([H])(C([H])([H])[H])C([H])([H])C([H])([H])Oc2c([H])c([H])c3c(c2[H])C([H])([H])N(C(=O)C([H])(N([H])C(=O)C([H])(N([H])C([H])([H])[H])C([H])([H])[H])C(C([H])([H])[H])(C([H])([H])[H])C([H])([H])[H])C([H])(C(=O)N([H])C2([H])c4c([H])c([H])c([H])c([H])c4C([H])([H])C([H])([H])C2([H])[H])C3([H])[H])c1C([H])([H])N([H])C(=O)N1C([H])([H])C([H])([H])C([H])([H])C([H])(n2nc(-c3c([H])c([H])c(Oc4c([H])c([H])c(F)c([H])c4F)c([H])c3[H])c(C(=O)N([H])[H])c2N([H])[H])C1([H])[H]

$$$$
72:0:0
     RDKit          3D

 91 99  0  0  1  0  0  0  0  0999 V2000
  -28.9200  -20.4910   21.9000 C   0  0  0  0  0  1  0  0  0  0  0  0
  -29.6300  -20.6620   20.5490 C   0  0  0  0  0  3  0  0  0  0  0  0
  -30.5230  -19.4000   18.5100 C   0  0  0  0  0  2  0  0  0  0  0  0
  -31.8780  -17.9000   19.6700 C   0  0  0  0  0  2  0  0  0  0  0  0
  -29.6840  -19.1590   19.7780 C   0  0  0  0  0  3  0  0  0  0  0  0
  -30.4870  -17.7880   20.3590 C   0  0  0  0  0  3  0  0  0  0  0  0
  -31.9050  -19.1760   18.9520 N   0  0  0  0  0  4  0  0  0  0  0  0
  -32.1920  -19.9060   19.5800 H   0  0  0  0  0  0  0  0  0  0  0  0
  -32.5510  -19.1440   18.1790 H   0  0  0  0  0  0  0  0  0  0  0  0
  -30.6690  -15.0420   20.2080 C   0  0  0  0  0  0  0  0  0  0  0  0
  -30.4440  -12.7260   19.2300 C   0  0  0  0  0  2  0  0  0  0  0  0
  -29.4930  -12.7230   18.0140 C   0  0  0  0  0  2  0  0  0  0  0  0
  -28.0390  -12.5160   18.4760 C   0  0  0  0  0  2  0  0  0  0  0  0
  -27.6560  -13.4190   19.6790 C   0  0  0  0  0  3  0  0  0  0  0  0
  -28.7420  -13.4380   20.7780 C   0  0  0  0  0  2  0  0  0  0  0  0
  -30.0040  -13.8260   20.1340 N   0  0  0  0  0  0  0  0  0  0  0  0
  -31.8800  -15.0270   19.9830 O   0  0  0  0  0  0  0  0  0  0  0  0
  -29.9850  -16.2840   20.3010 N   0  0  0  0  0  0  0  0  0  0  0  0
  -28.9820  -16.1880   20.3790 H   0  0  0  0  0  0  0  0  0  0  0  0
  -25.2850  -13.9710   20.4670 C   0  0  0  0  0  0  0  0  0  0  0  0
  -24.2330  -13.1860   20.8510 C   0  0  0  0  0  0  0  0  0  0  0  0
  -24.7070  -11.8390   20.8080 C   0  0  0  0  0  0  0  0  0  0  0  0
  -26.3330  -13.1030   20.2070 N   0  0  0  0  0  0  0  0  0  0  0  0
  -25.9950  -11.8150   20.4780 N   0  0  0  0  0  0  0  0  0  0  0  0
  -23.9920  -10.5720   21.0090 C   0  0  0  0  0  0  0  0  0  0  0  0
  -24.4410   -9.6150   21.9450 C   0  0  0  0  0  3  0  0  0  0  0  0
  -23.7290   -8.4110   22.1350 C   0  0  0  0  0  3  0  0  0  0  0  0
  -22.5530   -8.1570   21.3890 C   0  0  0  0  0  0  0  0  0  0  0  0
  -22.1200   -9.1030   20.4440 C   0  0  0  0  0  3  0  0  0  0  0  0
  -22.8340  -10.2980   20.2530 C   0  0  0  0  0  3  0  0  0  0  0  0
  -21.8090   -7.0060   21.4870 O   0  0  0  0  0  0  0  0  0  0  0  0
  -21.7660   -6.2700   22.6430 C   0  0  0  0  0  0  0  0  0  0  0  0
  -21.3130   -6.8240   23.8610 C   0  0  0  0  0  3  0  0  0  0  0  0
  -21.2220   -6.0140   25.0100 C   0  0  0  0  0  3  0  0  0  0  0  0
  -21.5730   -4.6520   24.9440 C   0  0  0  0  0  0  0  0  0  0  0  0
  -22.0230   -4.1000   23.7310 C   0  0  0  0  0  3  0  0  0  0  0  0
  -22.1150   -4.9070   22.5840 C   0  0  0  0  0  0  0  0  0  0  0  0
  -22.5290   -4.3640   21.4120 F   0  0  0  0  0  0  0  0  0  0  0  0
  -21.4810   -3.8730   26.0470 F   0  0  0  0  0  0  0  0  0  0  0  0
  -22.8360  -13.6520   21.1410 C   0  0  0  0  0  0  0  0  0  0  0  0
  -22.1270  -12.9500   22.0180 N   0  0  0  0  0  0  0  0  0  0  0  0
  -22.3830  -14.6730   20.6250 O   0  0  0  0  0  0  0  0  0  0  0  0
  -22.5110  -12.1270   22.4610 H   0  0  0  0  0  0  0  0  0  0  0  0
  -21.1870  -13.2380   22.2520 H   0  0  0  0  0  0  0  0  0  0  0  0
  -25.4300  -15.3430   20.2900 N   0  0  0  0  0  0  0  0  0  0  0  0
  -24.6540  -15.9830   20.4140 H   0  0  0  0  0  0  0  0  0  0  0  0
  -26.2630  -15.7890   19.9320 H   0  0  0  0  0  0  0  0  0  0  0  0
  -29.0180  -22.0600   19.8420 C   0  0  0  0  0  2  0  0  0  0  0  0
  -29.1000  -23.6170   20.4520 C   0  0  0  0  0  3  0  0  0  0  0  0
  -28.1230  -24.8720   19.9530 C   0  0  0  0  0  3  0  0  0  0  0  0
  -28.3110  -26.3730   20.2440 O   0  0  0  0  0  0  0  0  0  0  0  0
  -24.6240  -31.9440   23.2580 C   0  0  0  0  0  0  0  0  0  0  0  0
  -27.2220  -27.3050   20.1740 C   0  0  0  0  0  0  0  0  0  0  0  0
  -23.4170  -30.5480   21.6200 C   0  0  0  0  0  3  0  0  0  0  0  0
  -24.8650  -28.9930   20.1730 C   0  0  0  0  0  0  0  0  0  0  0  0
  -25.9620  -30.8410   21.4320 C   0  0  0  0  0  2  0  0  0  0  0  0
  -26.0410  -29.4560   20.7750 C   0  0  0  0  0  0  0  0  0  0  0  0
  -27.2190  -28.6260   20.7610 C   0  0  0  0  0  3  0  0  0  0  0  0
  -26.0190  -26.9300   19.5330 C   0  0  0  0  0  3  0  0  0  0  0  0
  -24.8630  -27.7420   19.5380 C   0  0  0  0  0  3  0  0  0  0  0  0
  -23.6280  -29.8750   20.2360 C   0  0  0  0  0  2  0  0  0  0  0  0
  -24.6880  -31.1330   22.1580 N   0  0  0  0  0  0  0  0  0  0  0  0
  -23.5430  -32.2180   23.7990 O   0  0  0  0  0  0  0  0  0  0  0  0
  -22.7580  -29.5310   22.5840 C   0  0  0  0  0  0  0  0  0  0  0  0
  -21.4350  -29.3320   22.4490 N   0  0  0  0  0  0  0  0  0  0  0  0
  -23.4380  -28.9240   23.4140 O   0  0  0  0  0  0  0  0  0  0  0  0
  -20.9450  -29.8770   21.7540 H   0  0  0  0  0  0  0  0  0  0  0  0
  -18.0790  -28.0550   22.9240 C   0  0  0  0  0  0  0  0  0  0  0  0
  -20.6260  -28.3850   23.2180 C   0  0  0  0  0  3  0  0  0  0  0  0
  -20.7700  -26.9480   22.6620 C   0  0  0  0  0  2  0  0  0  0  0  0
  -19.6890  -26.5870   21.6380 C   0  0  0  0  0  2  0  0  0  0  0  0
  -18.2960  -26.7040   22.2630 C   0  0  0  0  0  2  0  0  0  0  0  0
  -19.1720  -28.8500   23.3580 C   0  0  0  0  0  0  0  0  0  0  0  0
  -18.9120  -30.1130   23.9340 C   0  0  0  0  0  3  0  0  0  0  0  0
  -17.5930  -30.5790   24.0830 C   0  0  0  0  0  3  0  0  0  0  0  0
  -16.5140  -29.7810   23.6620 C   0  0  0  0  0  3  0  0  0  0  0  0
  -16.7590  -28.5210   23.0880 C   0  0  0  0  0  3  0  0  0  0  0  0
  -25.9060  -32.5850   23.8720 C   0  0  0  0  0  3  0  0  0  0  0  0
  -26.4250  -31.8220   25.1540 C   0  0  1  0  0  0  0  0  0  0  0  0
  -25.3350  -31.5850   26.2250 C   0  0  0  0  0  1  0  0  0  0  0  0
  -27.0150  -30.4450   24.7740 C   0  0  0  0  0  1  0  0  0  0  0  0
  -27.5710  -32.6270   25.8150 C   0  0  0  0  0  1  0  0  0  0  0  0
  -25.5940  -33.9840   24.2040 N   0  0  0  0  0  0  0  0  0  0  0  0
  -25.9130  -35.0390   23.4410 C   0  0  0  0  0  0  0  0  0  0  0  0
  -26.5670  -34.9360   22.4010 O   0  0  0  0  0  0  0  0  0  0  0  0
  -25.0130  -34.1330   25.0150 H   0  0  0  0  0  0  0  0  0  0  0  0
  -24.1790  -36.8320   23.1100 C   0  0  0  0  0  1  0  0  0  0  0  0
  -25.4300  -36.4280   23.9040 C   0  0  0  0  0  3  0  0  0  0  0  0
  -27.5730  -37.3190   24.7100 C   0  0  0  0  0  1  0  0  0  0  0  0
  -26.4600  -37.4830   23.7780 N   0  0  0  0  0  0  0  0  0  0  0  0
  -26.0540  -38.4020   23.9250 H   0  0  0  0  0  0  0  0  0  0  0  0
  2  1  1  0
  3  7  1  0
  3  5  1  0
  4  6  1  0
  5  6  1  0
  5  2  1  0
  6 18  1  0
  7  8  1  0
  7  4  1  0
  9  7  1  0
 10 18  1  0
 11 16  1  0
 12 13  1  0
 12 11  1  0
 14 13  1  0
 14 23  1  0
 14 15  1  0
 16 10  1  0
 16 15  1  0
 17 10  2  0
 18 19  1  0
 20 21  2  0
 21 40  1  0
 22 21  1  0
 22 25  1  0
 23 20  1  0
 23 24  1  0
 24 22  2  0
 25 26  1  0
 26 27  2  0
 28 31  1  0
 28 27  1  0
 29 28  2  0
 30 29  1  0
 30 25  2  0
 31 32  1  0
 32 33  1  0
 33 34  2  0
 35 34  1  0
 35 39  1  0
 36 35  2  0
 37 32  2  0
 37 36  1  0
 38 37  1  0
 40 41  1  0
 41 44  1  0
 41 43  1  0
 42 40  2  0
 45 46  1  0
 45 20  1  0
 47 45  1  0
 48 49  1  0
 48  2  1  0
 50 51  1  0
 50 49  2  0
 52 63  2  0
 53 51  1  0
 53 58  1  0
 54 62  1  0
 54 64  1  0
 55 61  1  0
 55 57  1  0
 56 62  1  0
 57 56  1  0
 58 57  2  0
 59 60  1  0
 59 53  2  0
 60 55  2  0
 61 54  1  0
 62 52  1  0
 64 66  2  0
 65 64  1  0
 67 65  1  0
 68 77  2  0
 68 73  1  0
 69 65  1  0
 69 73  1  0
 70 69  1  0
 71 72  1  0
 71 70  1  0
 72 68  1  0
 73 74  2  0
 74 75  1  0
 76 75  2  0
 77 76  1  0
 78 52  1  0
 78 83  1  0
 78 79  1  0
 79 82  1  1
 79 80  1  0
 81 79  1  0
 83 86  1  0
 84 88  1  0
 84 83  1  0
 85 84  2  0
 88 87  1  0
 90 88  1  0
 90 91  1  0
 90 89  1  0
M  ISO  4  10 100  18 100  50 101  51 101
M  END
>  <TORSDO>  (73) 
F 20

>  <SCORE>  (73) 
-13.073

>  <name>  (73) 
72

>  <ligand_id>  (73) 
72

>  <original_smiles>  (73) 
[H]c1c([H])c([H])c2c(c1[H])C([H])([H])C([H])([H])C([H])([H])C2([H])N([H])C(=O)C1([H])N(C(=O)C([H])(N([H])C(=O)C([H])(N([H])C([H])([H])[H])C([H])([H])[H])C(C([H])([H])[H])(C([H])([H])[H])C([H])([H])[H])C([H])([H])c2c([H])c(OC([H])([H])C([H])([H])C([H])([H])C([H])(C([H])([H])[H])C3([H])C([H])(N([H])C(=O)N4C([H])([H])C([H])([H])C([H])([H])C([H])(n5nc(-c6c([H])c([H])c(Oc7c([H])c([H])c(F)c([H])c7F)c([H])c6[H])c(C(=O)N([H])[H])c5N([H])[H])C4([H])[H])C([H])([H])[N+]([H])([H])C3([H])[H])c([H])c([H])c2C1([H])[H]

>  <smiles>  (73) 
[H]c1c([H])c([H])c2c(c1[H])C([H])([H])C([H])([H])C([H])([H])C2([H])N([H])C(=O)C1([H])N(C(=O)C([H])(N([H])C(=O)C([H])(N([H])C([H])([H])[H])C([H])([H])[H])C(C([H])([H])[H])(C([H])([H])[H])C([H])([H])[H])C([H])([H])c2c([H])c(OC([H])([H])C([H])([H])C([H])([H])C([H])(C([H])([H])[H])C3([H])C([H])(N([H])C(=O)N4C([H])([H])C([H])([H])C([H])([H])C([H])(n5nc(-c6c([H])c([H])c(Oc7c([H])c([H])c(F)c([H])c7F)c([H])c6[H])c(C(=O)N([H])[H])c5N([H])[H])C4([H])[H])C([H])([H])[N+]([H])([H])C3([H])[H])c([H])c([H])c2C1([H])[H]

$$$$
73:0:0
     RDKit          3D

100108  0  0  1  0  0  0  0  0999 V2000
  -31.4500  -21.2110   19.3280 C   0  0  0  0  0  3  0  0  0  0  0  0
  -29.9110  -18.1380   21.1730 C   0  0  0  0  0  2  0  0  0  0  0  0
  -30.8040  -17.3940   19.0070 C   0  0  0  0  0  2  0  0  0  0  0  0
  -30.6280  -19.5060   20.9570 C   0  0  0  0  0  2  0  0  0  0  0  0
  -30.6710  -16.9850   20.4880 C   0  0  0  0  0  3  0  0  0  0  0  0
  -31.5280  -18.7500   18.8070 C   0  0  0  0  0  3  0  0  0  0  0  0
  -31.5820  -19.0130   17.2830 C   0  0  0  0  0  1  0  0  0  0  0  0
  -30.8500  -19.8540   19.5380 N   0  0  0  0  0  0  0  0  0  0  0  0
  -30.7120  -14.4900   20.3290 C   0  0  0  0  0  0  0  0  0  0  0  0
  -30.3110  -12.3300   19.2220 C   0  0  0  0  0  2  0  0  0  0  0  0
  -29.3660  -12.5360   18.0240 C   0  0  0  0  0  2  0  0  0  0  0  0
  -27.8980  -12.4220   18.4760 C   0  0  0  0  0  2  0  0  0  0  0  0
  -27.5840  -13.2660   19.7400 C   0  0  0  0  0  3  0  0  0  0  0  0
  -28.6590  -13.0830   20.8360 C   0  0  0  0  0  2  0  0  0  0  0  0
  -29.9750  -13.3470   20.2340 N   0  0  0  0  0  0  0  0  0  0  0  0
  -31.8720  -14.5500   19.9190 O   0  0  0  0  0  0  0  0  0  0  0  0
  -30.0710  -15.6300   20.6640 N   0  0  0  0  0  0  0  0  0  0  0  0
  -29.1050  -15.5580   20.9470 H   0  0  0  0  0  0  0  0  0  0  0  0
  -25.2030  -13.8780   20.4830 C   0  0  0  0  0  0  0  0  0  0  0  0
  -24.1370  -13.1110   20.8620 C   0  0  0  0  0  0  0  0  0  0  0  0
  -24.5920  -11.7570   20.8270 C   0  0  0  0  0  0  0  0  0  0  0  0
  -26.2410  -12.9940   20.2400 N   0  0  0  0  0  0  0  0  0  0  0  0
  -25.8800  -11.7120   20.5090 N   0  0  0  0  0  0  0  0  0  0  0  0
  -23.8620  -10.4970   21.0200 C   0  0  0  0  0  0  0  0  0  0  0  0
  -24.2960   -9.5240   21.9460 C   0  0  0  0  0  3  0  0  0  0  0  0
  -23.5660   -8.3310   22.1290 C   0  0  0  0  0  3  0  0  0  0  0  0
  -22.3850   -8.1020   21.3850 C   0  0  0  0  0  0  0  0  0  0  0  0
  -21.9700   -9.0620   20.4440 C   0  0  0  0  0  3  0  0  0  0  0  0
  -22.7020  -10.2460   20.2600 C   0  0  0  0  0  3  0  0  0  0  0  0
  -21.6240   -6.9630   21.4780 O   0  0  0  0  0  0  0  0  0  0  0  0
  -21.5840   -6.2160   22.6300 C   0  0  0  0  0  0  0  0  0  0  0  0
  -21.1690   -6.7690   23.8610 C   0  0  0  0  0  3  0  0  0  0  0  0
  -21.0740   -5.9490   25.0030 C   0  0  0  0  0  3  0  0  0  0  0  0
  -21.3820   -4.5770   24.9150 C   0  0  0  0  0  0  0  0  0  0  0  0
  -21.7880   -4.0260   23.6860 C   0  0  0  0  0  3  0  0  0  0  0  0
  -21.8850   -4.8430   22.5470 C   0  0  0  0  0  0  0  0  0  0  0  0
  -22.2530   -4.3010   21.3620 F   0  0  0  0  0  0  0  0  0  0  0  0
  -21.2860   -3.7890   26.0100 F   0  0  0  0  0  0  0  0  0  0  0  0
  -22.7430  -13.5930   21.1490 C   0  0  0  0  0  0  0  0  0  0  0  0
  -22.0180  -12.8970   22.0180 N   0  0  0  0  0  0  0  0  0  0  0  0
  -22.3060  -14.6260   20.6390 O   0  0  0  0  0  0  0  0  0  0  0  0
  -22.3870  -12.0650   22.4520 H   0  0  0  0  0  0  0  0  0  0  0  0
  -21.0790  -13.1960   22.2450 H   0  0  0  0  0  0  0  0  0  0  0  0
  -25.3700  -15.2470   20.2960 N   0  0  0  0  0  0  0  0  0  0  0  0
  -24.6110  -15.9130   20.4090 H   0  0  0  0  0  0  0  0  0  0  0  0
  -26.2130  -15.6750   19.9310 H   0  0  0  0  0  0  0  0  0  0  0  0
  -30.4430  -22.2510   18.7290 C   0  0  0  0  0  2  0  0  0  0  0  0
  -30.0260  -23.5830   19.4370 C   0  0  0  0  0  2  0  0  0  0  0  0
  -30.4630  -25.5810   17.8480 C   0  0  0  0  0  1  0  0  0  0  0  0
  -28.6620  -23.9800   17.2760 C   0  0  0  0  0  1  0  0  0  0  0  0
  -29.3910  -24.6660   18.4740 C   0  0  1  0  0  0  0  0  0  0  0  0
  -28.2670  -25.5160   19.1470 C   0  0  0  0  0  2  0  0  0  0  0  0
  -28.4220  -26.6610   20.0340 O   0  0  0  0  0  0  0  0  0  0  0  0
  -24.6150  -31.9100   23.2770 C   0  0  0  0  0  0  0  0  0  0  0  0
  -27.2460  -27.4140   20.1720 C   0  0  0  0  0  0  0  0  0  0  0  0
  -23.4080  -30.5150   21.6430 C   0  0  0  0  0  3  0  0  0  0  0  0
  -24.8580  -28.9700   20.2440 C   0  0  0  0  0  0  0  0  0  0  0  0
  -25.9510  -30.8470   21.4540 C   0  0  0  0  0  2  0  0  0  0  0  0
  -26.0350  -29.4720   20.8140 C   0  0  0  0  0  0  0  0  0  0  0  0
  -27.2350  -28.7080   20.7700 C   0  0  0  0  0  3  0  0  0  0  0  0
  -26.0000  -26.9270   19.6840 C   0  0  0  0  0  3  0  0  0  0  0  0
  -24.8320  -27.6940   19.6890 C   0  0  0  0  0  3  0  0  0  0  0  0
  -23.6250  -29.8420   20.2680 C   0  0  0  0  0  2  0  0  0  0  0  0
  -24.6780  -31.1000   22.1830 N   0  0  0  0  0  0  0  0  0  0  0  0
  -23.5320  -32.1910   23.8080 O   0  0  0  0  0  0  0  0  0  0  0  0
  -22.7510  -29.4890   22.5940 C   0  0  0  0  0  0  0  0  0  0  0  0
  -21.4300  -29.2980   22.4560 N   0  0  0  0  0  0  0  0  0  0  0  0
  -23.4280  -28.8640   23.4160 O   0  0  0  0  0  0  0  0  0  0  0  0
  -20.9470  -29.8580   21.7670 H   0  0  0  0  0  0  0  0  0  0  0  0
  -18.0540  -28.0720   22.9050 C   0  0  0  0  0  0  0  0  0  0  0  0
  -20.6060  -28.3620   23.2230 C   0  0  0  0  0  3  0  0  0  0  0  0
  -20.7320  -26.9230   22.6730 C   0  0  0  0  0  2  0  0  0  0  0  0
  -19.6530  -26.5690   21.6450 C   0  0  0  0  0  2  0  0  0  0  0  0
  -18.2560  -26.7120   22.2560 C   0  0  0  0  0  2  0  0  0  0  0  0
  -19.1590  -28.8520   23.3450 C   0  0  0  0  0  0  0  0  0  0  0  0
  -18.9150  -30.1230   23.9120 C   0  0  0  0  0  3  0  0  0  0  0  0
  -17.6030  -30.6160   24.0380 C   0  0  0  0  0  3  0  0  0  0  0  0
  -16.5150  -29.8350   23.6150 C   0  0  0  0  0  3  0  0  0  0  0  0
  -16.7420  -28.5630   23.0570 C   0  0  0  0  0  3  0  0  0  0  0  0
  -25.8940  -32.5440   23.9000 C   0  0  0  0  0  3  0  0  0  0  0  0
  -25.5900  -33.9430   24.2140 N   0  0  0  0  0  0  0  0  0  0  0  0
  -25.9200  -34.9860   23.4410 C   0  0  0  0  0  0  0  0  0  0  0  0
  -26.5890  -34.8690   22.4080 O   0  0  0  0  0  0  0  0  0  0  0  0
  -24.9960  -34.1100   25.0150 H   0  0  0  0  0  0  0  0  0  0  0  0
  -24.1900  -36.7740   23.0740 C   0  0  0  0  0  1  0  0  0  0  0  0
  -25.4310  -36.3750   23.8890 C   0  0  0  0  0  3  0  0  0  0  0  0
  -27.5650  -37.2640   24.7190 C   0  0  0  0  0  1  0  0  0  0  0  0
  -26.4640  -37.4260   23.7720 N   0  0  0  0  0  0  0  0  0  0  0  0
  -26.0580  -38.3460   23.9110 H   0  0  0  0  0  0  0  0  0  0  0  0
  -26.4080  -31.7810   25.1790 C   0  0  1  0  0  0  0  0  0  0  0  0
  -25.3070  -31.5440   26.2380 C   0  0  0  0  0  1  0  0  0  0  0  0
  -27.0040  -30.4060   24.7920 C   0  0  0  0  0  1  0  0  0  0  0  0
  -27.5480  -32.5860   25.8500 C   0  0  0  0  0  1  0  0  0  0  0  0
  -32.5870  -21.6890   20.2840 C   0  0  0  0  0  2  0  0  0  0  0  0
  -33.6580  -22.4020   19.5440 N   0  0  0  0  0  4  0  0  0  0  0  0
  -33.2690  -23.2760   19.2310 H   0  0  0  0  0  0  0  0  0  0  0  0
  -33.9080  -21.8700   18.7220 H   0  0  0  0  0  0  0  0  0  0  0  0
  -35.4080  -24.1210   19.8830 C   0  0  0  0  0  1  0  0  0  0  0  0
  -36.0080  -21.6830   20.0700 C   0  0  0  0  0  1  0  0  0  0  0  0
  -34.8970  -22.7270   20.3000 C   0  0  0  0  0  3  0  0  0  0  0  0
  1 47  1  0
  1  8  1  0
  1 94  1  0
  3  5  1  0
  4  2  1  0
  5 17  1  0
  5  2  1  0
  6  7  1  0
  6  3  1  0
  6  8  1  0
  8  4  1  0
  9 17  1  0
 10 15  1  0
 11 12  1  0
 11 10  1  0
 13 12  1  0
 13 22  1  0
 13 14  1  0
 15  9  1  0
 15 14  1  0
 16  9  2  0
 17 18  1  0
 19 20  2  0
 20 39  1  0
 21 20  1  0
 21 24  1  0
 22 19  1  0
 22 23  1  0
 23 21  2  0
 24 25  1  0
 25 26  2  0
 27 30  1  0
 27 26  1  0
 28 27  2  0
 29 28  1  0
 29 24  2  0
 30 31  1  0
 31 32  1  0
 32 33  2  0
 34 33  1  0
 34 38  1  0
 35 34  2  0
 36 31  2  0
 36 35  1  0
 37 36  1  0
 39 40  1  0
 40 43  1  0
 40 42  1  0
 41 39  2  0
 44 45  1  0
 44 19  1  0
 46 44  1  0
 47 48  1  0
 51 49  1  6
 50 51  1  0
 51 52  1  0
 51 48  1  0
 52 53  1  0
 53 55  1  0
 54 65  2  0
 55 60  1  0
 56 64  1  0
 56 66  1  0
 57 63  1  0
 57 59  1  0
 58 64  1  0
 59 58  1  0
 60 59  2  0
 61 62  1  0
 61 55  2  0
 62 57  2  0
 63 56  1  0
 64 54  1  0
 66 68  2  0
 67 66  1  0
 69 67  1  0
 70 79  2  0
 70 75  1  0
 71 67  1  0
 71 75  1  0
 72 71  1  0
 73 74  1  0
 73 72  1  0
 74 70  1  0
 75 76  2  0
 76 77  1  0
 78 77  2  0
 79 78  1  0
 80 54  1  0
 80 81  1  0
 80 90  1  0
 81 84  1  0
 82 86  1  0
 82 81  1  0
 83 82  2  0
 86 85  1  0
 88 86  1  0
 88 89  1  0
 88 87  1  0
 90 93  1  1
 90 91  1  0
 92 90  1  0
 95 94  1  0
 95100  1  0
 96 95  1  0
 97 95  1  0
 98100  1  0
 99100  1  0
M  ISO  4   9 100  17 100  52 101  53 101
M  END
>  <TORSDO>  (74) 
F 24

>  <SCORE>  (74) 
-12.539

>  <name>  (74) 
73

>  <ligand_id>  (74) 
73

>  <original_smiles>  (74) 
[H]c1c([H])c([H])c2c(c1[H])C([H])([H])C([H])([H])C([H])([H])C2([H])N([H])C(=O)C1([H])N(C(=O)C([H])(N([H])C(=O)C([H])(N([H])C([H])([H])[H])C([H])([H])[H])C(C([H])([H])[H])(C([H])([H])[H])C([H])([H])[H])C([H])([H])c2c([H])c(OC([H])([H])C(C([H])([H])[H])(C([H])([H])[H])C([H])([H])C([H])([H])C([H])(N3C([H])([H])C([H])([H])C([H])(N([H])C(=O)N4C([H])([H])C([H])([H])C([H])([H])C([H])(n5nc(-c6c([H])c([H])c(Oc7c([H])c([H])c(F)c([H])c7F)c([H])c6[H])c(C(=O)N([H])[H])c5N([H])[H])C4([H])[H])C([H])([H])C3([H])C([H])([H])[H])C([H])([H])[N+]([H])([H])C([H])(C([H])([H])[H])C([H])([H])[H])c([H])c([H])c2C1([H])[H]

>  <smiles>  (74) 
[H]c1c([H])c([H])c2c(c1[H])C([H])([H])C([H])([H])C([H])([H])C2([H])N([H])C(=O)C1([H])N(C(=O)C([H])(N([H])C(=O)C([H])(N([H])C([H])([H])[H])C([H])([H])[H])C(C([H])([H])[H])(C([H])([H])[H])C([H])([H])[H])C([H])([H])c2c([H])c(OC([H])([H])C(C([H])([H])[H])(C([H])([H])[H])C([H])([H])C([H])([H])C([H])(N3C([H])([H])C([H])([H])C([H])(N([H])C(=O)N4C([H])([H])C([H])([H])C([H])([H])C([H])(n5nc(-c6c([H])c([H])c(Oc7c([H])c([H])c(F)c([H])c7F)c([H])c6[H])c(C(=O)N([H])[H])c5N([H])[H])C4([H])[H])C([H])([H])C3([H])C([H])([H])[H])C([H])([H])[N+]([H])([H])C([H])(C([H])([H])[H])C([H])([H])[H])c([H])c([H])c2C1([H])[H]

$$$$
74:0:0
     RDKit          3D

 90 98  0  0  1  0  0  0  0  0999 V2000
  -28.5020  -21.1260   21.0250 C   0  0  0  0  0  0  0  0  0  0  0  0
  -28.3710  -22.5040   20.9220 N   0  0  0  0  0  0  0  0  0  0  0  0
  -27.7060  -20.6210   21.8140 O   0  0  0  0  0  0  0  0  0  0  0  0
  -27.6340  -22.7750   21.5570 H   0  0  0  0  0  0  0  0  0  0  0  0
  -30.8990  -20.6910   20.0890 C   0  0  0  0  0  2  0  0  0  0  0  0
  -29.9510  -20.5560   18.9210 C   0  0  0  0  0  2  0  0  0  0  0  0
  -29.5000  -20.1510   20.3110 C   0  0  2  0  0  0  0  0  0  0  0  0
  -29.2770  -18.5890   20.6720 C   0  0  0  0  0  3  0  0  0  0  0  0
  -30.2410  -17.4120   20.1220 C   0  0  0  0  0  3  0  0  0  0  0  0
  -30.6770  -14.8280   20.1500 C   0  0  0  0  0  0  0  0  0  0  0  0
  -30.4480  -12.5700   19.1150 C   0  0  0  0  0  2  0  0  0  0  0  0
  -29.4790  -12.6740   17.9170 C   0  0  0  0  0  2  0  0  0  0  0  0
  -28.0190  -12.5020   18.3830 C   0  0  0  0  0  2  0  0  0  0  0  0
  -27.6800  -13.3610   19.6300 C   0  0  0  0  0  3  0  0  0  0  0  0
  -28.7700  -13.2450   20.7180 C   0  0  0  0  0  2  0  0  0  0  0  0
  -30.0520  -13.6030   20.0990 N   0  0  0  0  0  0  0  0  0  0  0  0
  -31.8370  -14.9500   19.7500 O   0  0  0  0  0  0  0  0  0  0  0  0
  -29.9170  -15.9490   20.4340 N   0  0  0  0  0  0  0  0  0  0  0  0
  -28.9790  -15.7550   20.7540 H   0  0  0  0  0  0  0  0  0  0  0  0
  -25.3070  -13.9310   20.4220 C   0  0  0  0  0  0  0  0  0  0  0  0
  -24.2570  -13.1480   20.8170 C   0  0  0  0  0  0  0  0  0  0  0  0
  -24.7290  -11.8000   20.7680 C   0  0  0  0  0  0  0  0  0  0  0  0
  -26.3500  -13.0610   20.1530 N   0  0  0  0  0  0  0  0  0  0  0  0
  -26.0110  -11.7740   20.4230 N   0  0  0  0  0  0  0  0  0  0  0  0
  -24.0170  -10.5310   20.9720 C   0  0  0  0  0  0  0  0  0  0  0  0
  -24.4690   -9.5720   21.9040 C   0  0  0  0  0  3  0  0  0  0  0  0
  -23.7560   -8.3690   22.0960 C   0  0  0  0  0  3  0  0  0  0  0  0
  -22.5760   -8.1170   21.3560 C   0  0  0  0  0  0  0  0  0  0  0  0
  -22.1420   -9.0660   20.4140 C   0  0  0  0  0  3  0  0  0  0  0  0
  -22.8570  -10.2590   20.2190 C   0  0  0  0  0  3  0  0  0  0  0  0
  -21.8330   -6.9660   21.4570 O   0  0  0  0  0  0  0  0  0  0  0  0
  -21.7920   -6.2340   22.6170 C   0  0  0  0  0  0  0  0  0  0  0  0
  -21.3550   -6.7960   23.8360 C   0  0  0  0  0  3  0  0  0  0  0  0
  -21.2610   -5.9920   24.9890 C   0  0  0  0  0  3  0  0  0  0  0  0
  -21.5960   -4.6260   24.9250 C   0  0  0  0  0  0  0  0  0  0  0  0
  -22.0260   -4.0630   23.7110 C   0  0  0  0  0  3  0  0  0  0  0  0
  -22.1200   -4.8650   22.5590 C   0  0  0  0  0  0  0  0  0  0  0  0
  -22.5150   -4.3130   21.3870 F   0  0  0  0  0  0  0  0  0  0  0  0
  -21.4990   -3.8510   26.0300 F   0  0  0  0  0  0  0  0  0  0  0  0
  -22.8640  -13.6140   21.1250 C   0  0  0  0  0  0  0  0  0  0  0  0
  -22.1620  -12.9090   22.0080 N   0  0  0  0  0  0  0  0  0  0  0  0
  -22.4060  -14.6380   20.6210 O   0  0  0  0  0  0  0  0  0  0  0  0
  -22.5470  -12.0820   22.4390 H   0  0  0  0  0  0  0  0  0  0  0  0
  -21.2290  -13.2030   22.2540 H   0  0  0  0  0  0  0  0  0  0  0  0
  -25.4560  -15.3040   20.2450 N   0  0  0  0  0  0  0  0  0  0  0  0
  -24.6860  -15.9510   20.3780 H   0  0  0  0  0  0  0  0  0  0  0  0
  -26.2800  -15.7490   19.8630 H   0  0  0  0  0  0  0  0  0  0  0  0
  -28.8800  -23.7480   20.2200 C   0  0  0  0  0  2  0  0  0  0  0  0
  -28.1140  -25.0960   20.7030 C   0  0  0  0  0  2  0  0  0  0  0  0
  -28.3680  -26.4880   20.1970 O   0  0  0  0  0  0  0  0  0  0  0  0
  -24.6350  -31.9340   23.2240 C   0  0  0  0  0  0  0  0  0  0  0  0
  -27.2710  -27.3770   20.1660 C   0  0  0  0  0  0  0  0  0  0  0  0
  -23.4400  -30.5300   21.5840 C   0  0  0  0  0  3  0  0  0  0  0  0
  -24.9020  -28.9940   20.1500 C   0  0  0  0  0  0  0  0  0  0  0  0
  -25.9780  -30.8660   21.3950 C   0  0  0  0  0  2  0  0  0  0  0  0
  -26.0700  -29.4850   20.7470 C   0  0  0  0  0  0  0  0  0  0  0  0
  -27.2610  -28.6910   20.7420 C   0  0  0  0  0  3  0  0  0  0  0  0
  -26.0850  -26.9540   19.5300 C   0  0  0  0  0  3  0  0  0  0  0  0
  -24.9130  -27.7360   19.5290 C   0  0  0  0  0  3  0  0  0  0  0  0
  -23.6570  -29.8580   20.2020 C   0  0  0  0  0  2  0  0  0  0  0  0
  -24.7040  -31.1280   22.1250 N   0  0  0  0  0  0  0  0  0  0  0  0
  -23.5490  -32.2020   23.7610 O   0  0  0  0  0  0  0  0  0  0  0  0
  -22.7860  -29.5070   22.5430 C   0  0  0  0  0  0  0  0  0  0  0  0
  -21.4630  -29.3110   22.4100 N   0  0  0  0  0  0  0  0  0  0  0  0
  -23.4690  -28.8910   23.3660 O   0  0  0  0  0  0  0  0  0  0  0  0
  -20.9700  -29.8600   21.7200 H   0  0  0  0  0  0  0  0  0  0  0  0
  -18.1040  -28.0510   22.8780 C   0  0  0  0  0  0  0  0  0  0  0  0
  -20.6540  -28.3620   23.1780 C   0  0  0  0  0  3  0  0  0  0  0  0
  -20.7900  -26.9290   22.6110 C   0  0  0  0  0  2  0  0  0  0  0  0
  -19.7050  -26.5790   21.5870 C   0  0  0  0  0  2  0  0  0  0  0  0
  -18.3150  -26.7010   22.2140 C   0  0  0  0  0  2  0  0  0  0  0  0
  -19.2020  -28.8370   23.3170 C   0  0  0  0  0  0  0  0  0  0  0  0
  -18.9520  -30.0990   23.8990 C   0  0  0  0  0  3  0  0  0  0  0  0
  -17.6360  -30.5750   24.0460 C   0  0  0  0  0  3  0  0  0  0  0  0
  -16.5520  -29.7870   23.6230 C   0  0  0  0  0  3  0  0  0  0  0  0
  -16.7870  -28.5270   23.0450 C   0  0  0  0  0  3  0  0  0  0  0  0
  -25.9130  -32.5760   23.8480 C   0  0  0  0  0  3  0  0  0  0  0  0
  -25.5940  -33.9740   24.1700 N   0  0  0  0  0  0  0  0  0  0  0  0
  -25.9270  -35.0270   23.4110 C   0  0  0  0  0  0  0  0  0  0  0  0
  -26.6010  -34.9220   22.3830 O   0  0  0  0  0  0  0  0  0  0  0  0
  -24.9900  -34.1280   24.9640 H   0  0  0  0  0  0  0  0  0  0  0  0
  -24.1940  -36.8140   23.0470 C   0  0  0  0  0  1  0  0  0  0  0  0
  -25.4340  -36.4150   23.8630 C   0  0  0  0  0  3  0  0  0  0  0  0
  -27.5640  -37.3090   24.6980 C   0  0  0  0  0  1  0  0  0  0  0  0
  -26.4650  -37.4700   23.7500 N   0  0  0  0  0  0  0  0  0  0  0  0
  -26.0560  -38.3900   23.8910 H   0  0  0  0  0  0  0  0  0  0  0  0
  -26.4250  -31.8140   25.1310 C   0  0  1  0  0  0  0  0  0  0  0  0
  -25.3260  -31.5810   26.1930 C   0  0  0  0  0  1  0  0  0  0  0  0
  -27.0140  -30.4360   24.7490 C   0  0  0  0  0  1  0  0  0  0  0  0
  -27.5700  -32.6160   25.7920 C   0  0  0  0  0  1  0  0  0  0  0  0
  1  3  2  0
  2  1  1  0
  2  4  1  0
  5  7  1  0
  6  5  1  0
  6  7  1  0
  7  8  1  6
  7  1  1  0
  9 18  1  0
  9  8  2  0
 10 18  1  0
 11 16  1  0
 12 13  1  0
 12 11  1  0
 14 13  1  0
 14 23  1  0
 14 15  1  0
 16 10  1  0
 16 15  1  0
 17 10  2  0
 18 19  1  0
 20 21  2  0
 21 40  1  0
 22 21  1  0
 22 25  1  0
 23 20  1  0
 23 24  1  0
 24 22  2  0
 25 26  1  0
 26 27  2  0
 28 31  1  0
 28 27  1  0
 29 28  2  0
 30 29  1  0
 30 25  2  0
 31 32  1  0
 32 33  1  0
 33 34  2  0
 35 34  1  0
 35 39  1  0
 36 35  2  0
 37 32  2  0
 37 36  1  0
 38 37  1  0
 40 41  1  0
 41 44  1  0
 41 43  1  0
 42 40  2  0
 45 46  1  0
 45 20  1  0
 47 45  1  0
 48 49  1  0
 48  2  1  0
 50 49  1  0
 51 62  2  0
 52 50  1  0
 52 57  1  0
 53 61  1  0
 53 63  1  0
 54 60  1  0
 54 56  1  0
 55 61  1  0
 56 55  1  0
 57 56  2  0
 58 52  2  0
 59 58  1  0
 59 54  2  0
 60 53  1  0
 61 51  1  0
 63 65  2  0
 64 63  1  0
 66 64  1  0
 67 76  2  0
 67 72  1  0
 68 64  1  0
 68 72  1  0
 69 68  1  0
 70 71  1  0
 70 69  1  0
 71 67  1  0
 72 73  2  0
 73 74  1  0
 75 74  2  0
 76 75  1  0
 77 51  1  0
 77 78  1  0
 77 87  1  0
 78 81  1  0
 79 83  1  0
 79 78  1  0
 80 79  2  0
 83 82  1  0
 85 83  1  0
 85 86  1  0
 85 84  1  0
 87 90  1  1
 87 88  1  0
 89 87  1  0
M  ISO  4  10 100  18 100  49 101  50 101
M  END
>  <TORSDO>  (75) 
F 21

>  <SCORE>  (75) 
-12.402

>  <name>  (75) 
74

>  <ligand_id>  (75) 
74

>  <original_smiles>  (75) 
[H]c1c([H])c([H])c2c(c1[H])C([H])([H])C([H])([H])C([H])([H])C2([H])N([H])C(=O)C1([H])N(C(=O)C([H])(N([H])C(=O)C([H])(N([H])C([H])([H])[H])C([H])([H])[H])C(C([H])([H])[H])(C([H])([H])[H])C([H])([H])[H])C([H])([H])c2c([H])c(OC([H])([H])C([H])([H])N([H])C(=O)C3(C([H])([H])C([H])([H])N([H])C(=O)N4C([H])([H])C([H])([H])C([H])([H])C([H])(n5nc(-c6c([H])c([H])c(Oc7c([H])c([H])c(F)c([H])c7F)c([H])c6[H])c(C(=O)N([H])[H])c5N([H])[H])C4([H])[H])C([H])([H])C3([H])[H])c([H])c([H])c2C1([H])[H]

>  <smiles>  (75) 
[H]c1c([H])c([H])c2c(c1[H])C([H])([H])C([H])([H])C([H])([H])C2([H])N([H])C(=O)C1([H])N(C(=O)C([H])(N([H])C(=O)C([H])(N([H])C([H])([H])[H])C([H])([H])[H])C(C([H])([H])[H])(C([H])([H])[H])C([H])([H])[H])C([H])([H])c2c([H])c(OC([H])([H])C([H])([H])N([H])C(=O)C3(C([H])([H])C([H])([H])N([H])C(=O)N4C([H])([H])C([H])([H])C([H])([H])C([H])(n5nc(-c6c([H])c([H])c(Oc7c([H])c([H])c(F)c([H])c7F)c([H])c6[H])c(C(=O)N([H])[H])c5N([H])[H])C4([H])[H])C([H])([H])C3([H])[H])c([H])c([H])c2C1([H])[H]

$$$$
75:0:0
     RDKit          3D

100108  0  0  1  0  0  0  0  0999 V2000
  -32.5310  -19.6890   21.4150 C   0  0  0  0  0  3  0  0  0  0  0  0
  -31.3520  -17.4520   21.6300 C   0  0  0  0  0  3  0  0  0  0  0  0
  -29.7580  -17.5500   20.0320 C   0  0  0  0  0  3  0  0  0  0  0  0
  -30.3300  -16.7440   20.9590 C   0  0  0  0  0  0  0  0  0  0  0  0
  -31.4630  -18.6800   21.0290 C   0  0  0  0  0  0  0  0  0  0  0  0
  -30.4820  -18.7340   20.0020 N   0  0  0  0  0  0  0  0  0  0  0  0
  -30.6410  -14.4220   20.4680 C   0  0  0  0  0  0  0  0  0  0  0  0
  -30.2700  -12.3430   19.2140 C   0  0  0  0  0  2  0  0  0  0  0  0
  -29.3180  -12.6350   18.0400 C   0  0  0  0  0  2  0  0  0  0  0  0
  -27.8500  -12.5050   18.4900 C   0  0  0  0  0  2  0  0  0  0  0  0
  -27.5490  -13.2880   19.7960 C   0  0  0  0  0  3  0  0  0  0  0  0
  -28.6130  -12.9820   20.8740 C   0  0  0  0  0  2  0  0  0  0  0  0
  -29.9380  -13.2750   20.3000 N   0  0  0  0  0  0  0  0  0  0  0  0
  -31.7430  -14.6220   19.9450 O   0  0  0  0  0  0  0  0  0  0  0  0
  -30.0060  -15.3880   21.1490 N   0  0  0  0  0  0  0  0  0  0  0  0
  -29.0720  -15.1650   21.4620 H   0  0  0  0  0  0  0  0  0  0  0  0
  -25.1550  -13.8960   20.5270 C   0  0  0  0  0  0  0  0  0  0  0  0
  -24.0920  -13.1230   20.9080 C   0  0  0  0  0  0  0  0  0  0  0  0
  -24.5530  -11.7700   20.8670 C   0  0  0  0  0  0  0  0  0  0  0  0
  -26.1980  -13.0160   20.2830 N   0  0  0  0  0  0  0  0  0  0  0  0
  -25.8390  -11.7330   20.5420 N   0  0  0  0  0  0  0  0  0  0  0  0
  -23.8300  -10.5080   21.0630 C   0  0  0  0  0  0  0  0  0  0  0  0
  -24.2850   -9.5330   21.9790 C   0  0  0  0  0  3  0  0  0  0  0  0
  -23.5640   -8.3340   22.1630 C   0  0  0  0  0  3  0  0  0  0  0  0
  -22.3750   -8.1020   21.4310 C   0  0  0  0  0  0  0  0  0  0  0  0
  -21.9400   -9.0650   20.5050 C   0  0  0  0  0  3  0  0  0  0  0  0
  -22.6610  -10.2550   20.3190 C   0  0  0  0  0  3  0  0  0  0  0  0
  -21.6240   -6.9540   21.5240 O   0  0  0  0  0  0  0  0  0  0  0  0
  -21.6120   -6.1930   22.6650 C   0  0  0  0  0  0  0  0  0  0  0  0
  -21.2430   -6.7320   23.9170 C   0  0  0  0  0  3  0  0  0  0  0  0
  -21.1770   -5.8980   25.0510 C   0  0  0  0  0  3  0  0  0  0  0  0
  -21.4720   -4.5260   24.9350 C   0  0  0  0  0  0  0  0  0  0  0  0
  -21.8340   -3.9860   23.6890 C   0  0  0  0  0  3  0  0  0  0  0  0
  -21.9030   -4.8170   22.5560 C   0  0  0  0  0  0  0  0  0  0  0  0
  -22.2320   -4.2880   21.3530 F   0  0  0  0  0  0  0  0  0  0  0  0
  -21.4010   -3.7220   26.0220 F   0  0  0  0  0  0  0  0  0  0  0  0
  -22.6980  -13.5990   21.2020 C   0  0  0  0  0  0  0  0  0  0  0  0
  -21.9850  -12.8990   22.0760 N   0  0  0  0  0  0  0  0  0  0  0  0
  -22.2520  -14.6260   20.6920 O   0  0  0  0  0  0  0  0  0  0  0  0
  -22.3580  -12.0690   22.5120 H   0  0  0  0  0  0  0  0  0  0  0  0
  -21.0490  -13.1970   22.3150 H   0  0  0  0  0  0  0  0  0  0  0  0
  -25.3180  -15.2680   20.3530 N   0  0  0  0  0  0  0  0  0  0  0  0
  -24.5520  -15.9220   20.4720 H   0  0  0  0  0  0  0  0  0  0  0  0
  -26.1660  -15.7100   20.0210 H   0  0  0  0  0  0  0  0  0  0  0  0
  -31.1850  -20.6720   18.4600 C   0  0  0  0  0  1  0  0  0  0  0  0
  -30.0900  -19.7540   19.0170 C   0  0  0  0  0  2  0  0  0  0  0  0
  -33.4620  -19.9810   20.3090 N   0  0  0  0  0  4  0  0  0  0  0  0
  -34.2210  -20.5640   20.6180 H   0  0  0  0  0  0  0  0  0  0  0  0
  -32.9940  -20.4300   19.5410 H   0  0  0  0  0  0  0  0  0  0  0  0
  -33.8620  -19.1220   19.9750 H   0  0  0  0  0  0  0  0  0  0  0  0
  -32.4050  -20.7730   23.7270 C   0  0  0  0  0  1  0  0  0  0  0  0
  -32.0910  -20.9570   22.2280 C   0  0  0  0  0  3  0  0  0  0  0  0
  -30.6100  -21.3560   22.0660 C   0  0  0  0  0  2  0  0  0  0  0  0
  -30.3720  -22.8000   22.2780 N   0  0  0  0  0  4  0  0  0  0  0  0
  -31.2020  -23.3080   22.0120 H   0  0  0  0  0  0  0  0  0  0  0  0
  -30.2030  -22.9810   23.2550 H   0  0  0  0  0  0  0  0  0  0  0  0
  -29.2430  -23.3330   21.4840 C   0  0  0  0  0  2  0  0  0  0  0  0
  -29.3270  -24.8520   21.3040 C   0  0  0  0  0  2  0  0  0  0  0  0
  -28.2340  -25.3420   20.3580 C   0  0  0  0  0  2  0  0  0  0  0  0
  -28.3620  -26.7480   20.2050 O   0  0  0  0  0  0  0  0  0  0  0  0
  -24.5780  -31.8970   23.2550 C   0  0  0  0  0  0  0  0  0  0  0  0
  -27.1880  -27.4580   20.1770 C   0  0  0  0  0  0  0  0  0  0  0  0
  -23.3600  -30.4940   21.6250 C   0  0  0  0  0  3  0  0  0  0  0  0
  -24.7970  -28.9540   20.1950 C   0  0  0  0  0  0  0  0  0  0  0  0
  -25.8820  -30.8510   21.4100 C   0  0  0  0  0  2  0  0  0  0  0  0
  -25.9600  -29.4810   20.7730 C   0  0  0  0  0  0  0  0  0  0  0  0
  -27.1600  -28.7420   20.7570 C   0  0  0  0  0  3  0  0  0  0  0  0
  -26.0130  -26.9410   19.5870 C   0  0  0  0  0  3  0  0  0  0  0  0
  -24.8190  -27.6830   19.5960 C   0  0  0  0  0  3  0  0  0  0  0  0
  -23.5570  -29.8150   20.2450 C   0  0  0  0  0  2  0  0  0  0  0  0
  -24.6250  -31.0940   22.1560 N   0  0  0  0  0  0  0  0  0  0  0  0
  -23.5000  -32.1740   23.7990 O   0  0  0  0  0  0  0  0  0  0  0  0
  -22.7090  -29.4760   22.5890 C   0  0  0  0  0  0  0  0  0  0  0  0
  -21.3830  -29.2990   22.4610 N   0  0  0  0  0  0  0  0  0  0  0  0
  -23.3900  -28.8470   23.4030 O   0  0  0  0  0  0  0  0  0  0  0  0
  -20.8950  -29.8530   21.7720 H   0  0  0  0  0  0  0  0  0  0  0  0
  -18.0030  -28.1300   22.9650 C   0  0  0  0  0  0  0  0  0  0  0  0
  -20.5630  -28.3690   23.2380 C   0  0  0  0  0  3  0  0  0  0  0  0
  -20.6560  -26.9360   22.6640 C   0  0  0  0  0  2  0  0  0  0  0  0
  -19.5510  -26.6180   21.6510 C   0  0  0  0  0  2  0  0  0  0  0  0
  -18.1710  -26.7760   22.2970 C   0  0  0  0  0  2  0  0  0  0  0  0
  -19.1280  -28.8840   23.3940 C   0  0  0  0  0  0  0  0  0  0  0  0
  -18.9180  -30.1520   23.9770 C   0  0  0  0  0  3  0  0  0  0  0  0
  -17.6180  -30.6660   24.1380 C   0  0  0  0  0  3  0  0  0  0  0  0
  -16.5090  -29.9060   23.7300 C   0  0  0  0  0  3  0  0  0  0  0  0
  -16.7010  -28.6410   23.1480 C   0  0  0  0  0  3  0  0  0  0  0  0
  -25.8690  -32.5230   23.8670 C   0  0  0  0  0  3  0  0  0  0  0  0
  -26.3950  -31.7450   25.1340 C   0  0  1  0  0  0  0  0  0  0  0  0
  -25.3100  -31.5010   26.2090 C   0  0  0  0  0  1  0  0  0  0  0  0
  -26.9700  -30.3690   24.7270 C   0  0  0  0  0  1  0  0  0  0  0  0
  -27.5560  -32.5330   25.7850 C   0  0  0  0  0  1  0  0  0  0  0  0
  -25.5660  -33.9210   24.2010 N   0  0  0  0  0  0  0  0  0  0  0  0
  -25.8950  -34.9740   23.4400 C   0  0  0  0  0  0  0  0  0  0  0  0
  -26.5580  -34.8700   22.4030 O   0  0  0  0  0  0  0  0  0  0  0  0
  -24.9720  -34.0760   25.0030 H   0  0  0  0  0  0  0  0  0  0  0  0
  -24.1630  -36.7620   23.0970 C   0  0  0  0  0  1  0  0  0  0  0  0
  -25.4120  -36.3620   23.8990 C   0  0  0  0  0  3  0  0  0  0  0  0
  -27.5570  -37.2440   24.7040 C   0  0  0  0  0  1  0  0  0  0  0  0
  -26.4450  -37.4140   23.7740 N   0  0  0  0  0  0  0  0  0  0  0  0
  -26.0430  -38.3360   23.9220 H   0  0  0  0  0  0  0  0  0  0  0  0
  1 47  1  0
  1 52  1  0
  3  4  2  0
  4 15  1  0
  4  2  1  0
  5  1  1  0
  5  2  2  0
  6  3  1  0
  6  5  1  0
  7 15  1  0
  8 13  1  0
  9 10  1  0
  9  8  1  0
 11 10  1  0
 11 20  1  0
 11 12  1  0
 13  7  1  0
 13 12  1  0
 14  7  2  0
 15 16  1  0
 17 18  2  0
 18 37  1  0
 19 18  1  0
 19 22  1  0
 20 17  1  0
 20 21  1  0
 21 19  2  0
 22 23  1  0
 23 24  2  0
 25 28  1  0
 25 24  1  0
 26 25  2  0
 27 26  1  0
 27 22  2  0
 28 29  1  0
 29 30  1  0
 30 31  2  0
 32 31  1  0
 32 36  1  0
 33 32  2  0
 34 29  2  0
 34 33  1  0
 35 34  1  0
 37 38  1  0
 38 41  1  0
 38 40  1  0
 39 37  2  0
 42 43  1  0
 42 17  1  0
 44 42  1  0
 45 46  1  0
 46  6  1  0
 47 48  1  0
 49 47  1  0
 50 47  1  0
 52 51  1  0
 53 52  1  0
 53 54  1  0
 54 56  1  0
 55 54  1  0
 57 54  1  0
 58 57  1  0
 59 58  1  0
 60 59  1  0
 61 72  2  0
 62 60  1  0
 62 67  1  0
 63 71  1  0
 63 73  1  0
 64 70  1  0
 64 66  1  0
 65 71  1  0
 66 65  1  0
 67 66  2  0
 68 69  1  0
 68 62  2  0
 69 64  2  0
 70 63  1  0
 71 61  1  0
 73 75  2  0
 74 73  1  0
 76 74  1  0
 77 86  2  0
 77 82  1  0
 78 74  1  0
 78 82  1  0
 79 78  1  0
 80 81  1  0
 80 79  1  0
 81 77  1  0
 82 83  2  0
 83 84  1  0
 85 84  2  0
 86 85  1  0
 87 61  1  0
 87 92  1  0
 87 88  1  0
 88 91  1  1
 88 89  1  0
 90 88  1  0
 92 95  1  0
 93 97  1  0
 93 92  1  0
 94 93  2  0
 97 96  1  0
 99 97  1  0
 99100  1  0
 99 98  1  0
M  ISO  4   7 100  15 100  59 101  60 101
M  END
>  <TORSDO>  (76) 
F 25

>  <SCORE>  (76) 
-12.918

>  <name>  (76) 
75

>  <ligand_id>  (76) 
75

>  <original_smiles>  (76) 
[H]c1c([H])c([H])c2c(c1[H])C([H])([H])C([H])([H])C([H])([H])C2([H])N([H])C(=O)C1([H])N(C(=O)C([H])(N([H])C(=O)C([H])(N([H])C([H])([H])[H])C([H])([H])[H])C(C([H])([H])[H])(C([H])([H])[H])C([H])([H])[H])C([H])([H])c2c([H])c(OC([H])([H])C([H])([H])C([H])([H])[N+]([H])([H])C([H])([H])C([H])(C([H])([H])[H])C([H])(c3c([H])c(N([H])C(=O)N4C([H])([H])C([H])([H])C([H])([H])C([H])(n5nc(-c6c([H])c([H])c(Oc7c([H])c([H])c(F)c([H])c7F)c([H])c6[H])c(C(=O)N([H])[H])c5N([H])[H])C4([H])[H])c([H])n3C([H])([H])C([H])([H])[H])[N+]([H])([H])[H])c([H])c([H])c2C1([H])[H]

>  <smiles>  (76) 
[H]c1c([H])c([H])c2c(c1[H])C([H])([H])C([H])([H])C([H])([H])C2([H])N([H])C(=O)C1([H])N(C(=O)C([H])(N([H])C(=O)C([H])(N([H])C([H])([H])[H])C([H])([H])[H])C(C([H])([H])[H])(C([H])([H])[H])C([H])([H])[H])C([H])([H])c2c([H])c(OC([H])([H])C([H])([H])C([H])([H])[N+]([H])([H])C([H])([H])C([H])(C([H])([H])[H])C([H])(c3c([H])c(N([H])C(=O)N4C([H])([H])C([H])([H])C([H])([H])C([H])(n5nc(-c6c([H])c([H])c(Oc7c([H])c([H])c(F)c([H])c7F)c([H])c6[H])c(C(=O)N([H])[H])c5N([H])[H])C4([H])[H])c([H])n3C([H])([H])C([H])([H])[H])[N+]([H])([H])[H])c([H])c([H])c2C1([H])[H]

$$$$
76:0:0
     RDKit          3D

 95103  0  0  1  0  0  0  0  0999 V2000
  -31.2390  -20.8030   21.5510 C   0  0  0  0  0  3  0  0  0  0  0  0
  -31.3310  -18.4020   21.9350 C   0  0  0  0  0  3  0  0  0  0  0  0
  -31.8880  -19.6830   22.0970 C   0  0  0  0  0  0  0  0  0  0  0  0
  -30.0120  -20.6770   20.8720 C   0  0  0  0  0  0  0  0  0  0  0  0
  -30.1040  -18.2180   21.2640 C   0  0  0  0  0  0  0  0  0  0  0  0
  -29.4060  -19.3800   20.7820 C   0  0  0  0  0  0  0  0  0  0  0  0
  -33.1950  -19.8550   22.8450 C   0  0  0  0  0  1  0  0  0  0  0  0
  -28.0280  -19.2500   20.1440 C   0  0  0  0  0  1  0  0  0  0  0  0
  -29.4750  -21.9560   20.1790 C   0  0  0  0  0  2  0  0  0  0  0  0
  -29.0710  -23.1340   21.1170 C   0  0  0  0  0  2  0  0  0  0  0  0
  -29.2930  -24.5840   20.5590 C   0  0  0  0  0  2  0  0  0  0  0  0
  -28.0150  -25.3670   20.1510 C   0  0  0  0  0  2  0  0  0  0  0  0
  -28.2220  -26.7950   20.0120 O   0  0  0  0  0  0  0  0  0  0  0  0
  -24.6170  -32.0280   23.2650 C   0  0  0  0  0  0  0  0  0  0  0  0
  -27.0800  -27.5840   20.0220 C   0  0  0  0  0  0  0  0  0  0  0  0
  -23.3360  -30.6850   21.6330 C   0  0  0  0  0  3  0  0  0  0  0  0
  -24.7190  -29.1550   20.1300 C   0  0  0  0  0  0  0  0  0  0  0  0
  -25.8660  -30.9960   21.3710 C   0  0  0  0  0  2  0  0  0  0  0  0
  -25.9070  -29.6400   20.6920 C   0  0  0  0  0  0  0  0  0  0  0  0
  -27.0930  -28.8650   20.6300 C   0  0  0  0  0  3  0  0  0  0  0  0
  -25.8730  -27.1270   19.4460 C   0  0  0  0  0  3  0  0  0  0  0  0
  -24.6990  -27.9000   19.5020 C   0  0  0  0  0  3  0  0  0  0  0  0
  -23.4910  -30.0330   20.2340 C   0  0  0  0  0  2  0  0  0  0  0  0
  -24.6270  -31.2510   22.1470 N   0  0  0  0  0  0  0  0  0  0  0  0
  -23.5570  -32.3090   23.8450 O   0  0  0  0  0  0  0  0  0  0  0  0
  -22.6970  -29.6550   22.5910 C   0  0  0  0  0  0  0  0  0  0  0  0
  -21.3830  -29.4260   22.4380 N   0  0  0  0  0  0  0  0  0  0  0  0
  -23.3830  -29.0610   23.4290 O   0  0  0  0  0  0  0  0  0  0  0  0
  -20.8910  -29.9560   21.7310 H   0  0  0  0  0  0  0  0  0  0  0  0
  -18.0500  -28.0860   22.8390 C   0  0  0  0  0  0  0  0  0  0  0  0
  -20.5800  -28.4730   23.2040 C   0  0  0  0  0  3  0  0  0  0  0  0
  -20.7730  -27.0330   22.6750 C   0  0  0  0  0  2  0  0  0  0  0  0
  -19.7290  -26.6310   21.6280 C   0  0  0  0  0  2  0  0  0  0  0  0
  -18.3170  -26.7280   22.2110 C   0  0  0  0  0  2  0  0  0  0  0  0
  -19.1140  -28.9110   23.2900 C   0  0  0  0  0  0  0  0  0  0  0  0
  -18.8130  -30.1780   23.8340 C   0  0  0  0  0  3  0  0  0  0  0  0
  -17.4800  -30.6220   23.9340 C   0  0  0  0  0  3  0  0  0  0  0  0
  -16.4310  -29.7940   23.4990 C   0  0  0  0  0  3  0  0  0  0  0  0
  -16.7170  -28.5280   22.9560 C   0  0  0  0  0  3  0  0  0  0  0  0
  -25.9310  -32.6260   23.8580 C   0  0  0  0  0  3  0  0  0  0  0  0
  -25.6690  -34.0340   24.1840 N   0  0  0  0  0  0  0  0  0  0  0  0
  -26.0400  -35.0720   23.4210 C   0  0  0  0  0  0  0  0  0  0  0  0
  -26.7090  -34.9440   22.3930 O   0  0  0  0  0  0  0  0  0  0  0  0
  -25.0770  -34.2120   24.9820 H   0  0  0  0  0  0  0  0  0  0  0  0
  -24.4010  -36.9380   23.0270 C   0  0  0  0  0  1  0  0  0  0  0  0
  -25.5990  -36.4780   23.8740 C   0  0  0  0  0  3  0  0  0  0  0  0
  -27.7330  -37.2760   24.7880 C   0  0  0  0  0  1  0  0  0  0  0  0
  -26.6790  -37.4870   23.8000 N   0  0  0  0  0  0  0  0  0  0  0  0
  -26.3050  -38.4230   23.9290 H   0  0  0  0  0  0  0  0  0  0  0  0
  -26.4510  -31.8470   25.1280 C   0  0  1  0  0  0  0  0  0  0  0  0
  -25.3630  -31.6130   26.2010 C   0  0  0  0  0  1  0  0  0  0  0  0
  -27.0230  -30.4670   24.7290 C   0  0  0  0  0  1  0  0  0  0  0  0
  -27.6110  -32.6320   25.7840 C   0  0  0  0  0  1  0  0  0  0  0  0
  -29.6150  -16.7510   21.1100 C   0  0  0  0  0  2  0  0  0  0  0  0
  -31.0460  -14.7590   20.4300 C   0  0  0  0  0  0  0  0  0  0  0  0
  -30.7160  -12.5720   19.3350 C   0  0  0  0  0  2  0  0  0  0  0  0
  -29.7720  -12.7170   18.1190 C   0  0  0  0  0  2  0  0  0  0  0  0
  -28.2970  -12.6400   18.5530 C   0  0  0  0  0  2  0  0  0  0  0  0
  -27.9640  -13.4780   19.8170 C   0  0  0  0  0  3  0  0  0  0  0  0
  -29.0310  -13.3000   20.9220 C   0  0  0  0  0  2  0  0  0  0  0  0
  -30.3350  -13.5980   20.3200 N   0  0  0  0  0  0  0  0  0  0  0  0
  -32.2580  -14.7690   20.2170 O   0  0  0  0  0  0  0  0  0  0  0  0
  -30.3480  -15.9010   20.1350 N   0  0  0  0  0  0  0  0  0  0  0  0
  -25.5750  -14.0780   20.5420 C   0  0  0  0  0  0  0  0  0  0  0  0
  -24.5010  -13.3030   20.8930 C   0  0  0  0  0  0  0  0  0  0  0  0
  -24.9580  -11.9510   20.8410 C   0  0  0  0  0  0  0  0  0  0  0  0
  -26.6150  -13.1980   20.3010 N   0  0  0  0  0  0  0  0  0  0  0  0
  -26.2500  -11.9130   20.5440 N   0  0  0  0  0  0  0  0  0  0  0  0
  -24.2250  -10.6870   20.9990 C   0  0  0  0  0  0  0  0  0  0  0  0
  -24.6030   -9.7300   21.9650 C   0  0  0  0  0  3  0  0  0  0  0  0
  -23.8720   -8.5320   22.1120 C   0  0  0  0  0  3  0  0  0  0  0  0
  -22.7470   -8.2830   21.2920 C   0  0  0  0  0  0  0  0  0  0  0  0
  -22.3880   -9.2270   20.3140 C   0  0  0  0  0  3  0  0  0  0  0  0
  -23.1210  -10.4170   20.1650 C   0  0  0  0  0  3  0  0  0  0  0  0
  -21.9920   -7.1360   21.3460 O   0  0  0  0  0  0  0  0  0  0  0  0
  -21.8200   -6.4430   22.5160 C   0  0  0  0  0  0  0  0  0  0  0  0
  -21.2020   -7.0270   23.6450 C   0  0  0  0  0  3  0  0  0  0  0  0
  -20.9840   -6.2580   24.8060 C   0  0  0  0  0  3  0  0  0  0  0  0
  -21.3700   -4.9040   24.8360 C   0  0  0  0  0  0  0  0  0  0  0  0
  -21.9800   -4.3200   23.7130 C   0  0  0  0  0  3  0  0  0  0  0  0
  -22.2020   -5.0870   22.5550 C   0  0  0  0  0  0  0  0  0  0  0  0
  -22.7690   -4.5120   21.4680 F   0  0  0  0  0  0  0  0  0  0  0  0
  -21.1530   -4.1630   25.9490 F   0  0  0  0  0  0  0  0  0  0  0  0
  -23.1050  -13.7810   21.1610 C   0  0  0  0  0  0  0  0  0  0  0  0
  -22.3740  -13.0770   22.0200 N   0  0  0  0  0  0  0  0  0  0  0  0
  -22.6690  -14.8100   20.6450 O   0  0  0  0  0  0  0  0  0  0  0  0
  -22.7420  -12.2430   22.4530 H   0  0  0  0  0  0  0  0  0  0  0  0
  -21.4370  -13.3750   22.2450 H   0  0  0  0  0  0  0  0  0  0  0  0
  -25.7440  -15.4500   20.3850 N   0  0  0  0  0  0  0  0  0  0  0  0
  -24.9750  -16.1030   20.4880 H   0  0  0  0  0  0  0  0  0  0  0  0
  -26.5880  -15.8860   20.0400 H   0  0  0  0  0  0  0  0  0  0  0  0
  -30.3510  -16.3960   18.7370 C   0  0  0  0  0  2  0  0  0  0  0  0
  -31.1590  -17.9150   16.8860 C   0  0  0  0  0  1  0  0  0  0  0  0
  -32.6570  -17.6120   18.8810 C   0  0  0  0  0  1  0  0  0  0  0  0
  -31.1990  -17.6530   18.4000 C   0  0  0  0  0  3  0  0  0  0  0  0
  1  3  1  0
  2  3  2  0
  3  7  1  0
  4  1  2  0
  5  2  1  0
  6  4  1  0
  6  5  2  0
  8  6  1  0
  9  4  1  0
  9 10  1  0
 11 10  1  0
 12 11  1  0
 13 15  1  0
 13 12  1  0
 14 25  2  0
 15 20  1  0
 16 24  1  0
 16 26  1  0
 17 23  1  0
 17 19  1  0
 18 24  1  0
 19 18  1  0
 20 19  2  0
 21 22  1  0
 21 15  2  0
 22 17  2  0
 23 16  1  0
 24 14  1  0
 26 28  2  0
 27 26  1  0
 29 27  1  0
 30 39  2  0
 30 35  1  0
 31 27  1  0
 31 35  1  0
 32 31  1  0
 33 34  1  0
 33 32  1  0
 34 30  1  0
 35 36  2  0
 36 37  1  0
 38 37  2  0
 39 38  1  0
 40 14  1  0
 40 41  1  0
 40 50  1  0
 41 44  1  0
 42 46  1  0
 42 41  1  0
 43 42  2  0
 46 45  1  0
 48 46  1  0
 48 49  1  0
 48 47  1  0
 50 53  1  1
 50 51  1  0
 52 50  1  0
 54  5  1  0
 56 61  1  0
 57 58  1  0
 57 56  1  0
 59 58  1  0
 59 67  1  0
 59 60  1  0
 61 55  1  0
 61 60  1  0
 62 55  2  0
 63 55  1  0
 63 54  1  0
 64 65  2  0
 65 84  1  0
 66 65  1  0
 66 69  1  0
 67 64  1  0
 67 68  1  0
 68 66  2  0
 69 70  1  0
 70 71  2  0
 72 75  1  0
 72 71  1  0
 73 72  2  0
 74 73  1  0
 74 69  2  0
 75 76  1  0
 76 81  2  0
 76 77  1  0
 77 78  2  0
 78 79  1  0
 79 83  1  0
 80 79  2  0
 81 80  1  0
 82 81  1  0
 84 85  1  0
 85 88  1  0
 85 87  1  0
 86 84  2  0
 89 90  1  0
 89 64  1  0
 91 89  1  0
 92 63  1  0
 93 95  1  0
 95 92  1  0
 95 94  1  0
M  ISO  4  12 101  13 101  55 100  63 100
M  END
>  <TORSDO>  (77) 
F 23

>  <SCORE>  (77) 
-12.634

>  <name>  (77) 
76

>  <ligand_id>  (77) 
76

>  <original_smiles>  (77) 
[H]c1c([H])c([H])c2c(c1[H])C([H])([H])C([H])([H])C([H])([H])C2([H])N([H])C(=O)C1([H])N(C(=O)C([H])(N([H])C(=O)C([H])(N([H])C([H])([H])[H])C([H])([H])[H])C(C([H])([H])[H])(C([H])([H])[H])C([H])([H])[H])C([H])([H])c2c([H])c(OC([H])([H])C([H])([H])C([H])([H])C([H])([H])c3c([H])c(C([H])([H])[H])c([H])c(C([H])([H])N(C(=O)N4C([H])([H])C([H])([H])C([H])([H])C([H])(n5nc(-c6c([H])c([H])c(Oc7c([H])c([H])c(F)c([H])c7F)c([H])c6[H])c(C(=O)N([H])[H])c5N([H])[H])C4([H])[H])C([H])([H])C([H])(C([H])([H])[H])C([H])([H])[H])c3C([H])([H])[H])c([H])c([H])c2C1([H])[H]

>  <smiles>  (77) 
[H]c1c([H])c([H])c2c(c1[H])C([H])([H])C([H])([H])C([H])([H])C2([H])N([H])C(=O)C1([H])N(C(=O)C([H])(N([H])C(=O)C([H])(N([H])C([H])([H])[H])C([H])([H])[H])C(C([H])([H])[H])(C([H])([H])[H])C([H])([H])[H])C([H])([H])c2c([H])c(OC([H])([H])C([H])([H])C([H])([H])C([H])([H])c3c([H])c(C([H])([H])[H])c([H])c(C([H])([H])N(C(=O)N4C([H])([H])C([H])([H])C([H])([H])C([H])(n5nc(-c6c([H])c([H])c(Oc7c([H])c([H])c(F)c([H])c7F)c([H])c6[H])c(C(=O)N([H])[H])c5N([H])[H])C4([H])[H])C([H])([H])C([H])(C([H])([H])[H])C([H])([H])[H])c3C([H])([H])[H])c([H])c([H])c2C1([H])[H]

$$$$
77:0:0
     RDKit          3D

 97106  0  0  1  0  0  0  0  0999 V2000
  -32.8650  -13.4990   20.6230 C   0  0  0  0  0  0  0  0  0  0  0  0
  -32.2850  -11.0400   20.5970 C   0  0  0  0  0  2  0  0  0  0  0  0
  -31.4710  -10.7240   19.3190 C   0  0  0  0  0  2  0  0  0  0  0  0
  -29.9700  -10.9930   19.5410 C   0  0  0  0  0  2  0  0  0  0  0  0
  -29.7050  -12.3600   20.2230 C   0  0  0  0  0  3  0  0  0  0  0  0
  -30.6300  -12.5750   21.4420 C   0  0  0  0  0  2  0  0  0  0  0  0
  -32.0150  -12.4530   20.9690 N   0  0  0  0  0  0  0  0  0  0  0  0
  -34.0710  -13.2580   20.4990 O   0  0  0  0  0  0  0  0  0  0  0  0
  -31.5290  -16.8180   19.0960 C   0  0  0  0  0  3  0  0  0  0  0  0
  -33.9890  -17.8130   18.6480 C   0  0  0  0  0  3  0  0  0  0  0  0
  -31.6630  -18.0610   18.3730 C   0  0  0  0  0  0  0  0  0  0  0  0
  -32.9470  -18.6500   18.1130 C   0  0  0  0  0  0  0  0  0  0  0  0
  -32.6180  -16.0240   19.5640 C   0  0  0  0  0  0  0  0  0  0  0  0
  -33.8410  -16.5960   19.3180 N   0  0  0  0  0  0  0  0  0  0  0  0
  -32.2660  -14.7180   20.2530 N   0  0  0  0  0  0  0  0  0  0  0  0
  -31.2770  -14.6520   20.4260 H   0  0  0  0  0  0  0  0  0  0  0  0
  -27.5790  -13.7310   20.6410 C   0  0  0  0  0  0  0  0  0  0  0  0
  -26.2880  -13.3680   20.9100 C   0  0  0  0  0  0  0  0  0  0  0  0
  -26.2860  -11.9410   20.9820 C   0  0  0  0  0  0  0  0  0  0  0  0
  -28.2970  -12.5490   20.5610 N   0  0  0  0  0  0  0  0  0  0  0  0
  -27.5190  -11.4710   20.8310 N   0  0  0  0  0  0  0  0  0  0  0  0
  -25.1720  -10.9950   21.1260 C   0  0  0  0  0  0  0  0  0  0  0  0
  -25.3540   -9.7180   21.7000 C   0  0  0  0  0  3  0  0  0  0  0  0
  -24.2620   -8.8360   21.8430 C   0  0  0  0  0  3  0  0  0  0  0  0
  -22.9710   -9.2280   21.4140 C   0  0  0  0  0  0  0  0  0  0  0  0
  -22.7990  -10.4930   20.8230 C   0  0  0  0  0  3  0  0  0  0  0  0
  -23.8880  -11.3670   20.6760 C   0  0  0  0  0  3  0  0  0  0  0  0
  -21.8570   -8.4270   21.4910 O   0  0  0  0  0  0  0  0  0  0  0  0
  -21.8190   -7.3210   22.3030 C   0  0  0  0  0  0  0  0  0  0  0  0
  -22.0470   -7.4100   23.6930 C   0  0  0  0  0  3  0  0  0  0  0  0
  -21.9290   -6.2620   24.5000 C   0  0  0  0  0  3  0  0  0  0  0  0
  -21.5770   -5.0270   23.9230 C   0  0  0  0  0  0  0  0  0  0  0  0
  -21.3460   -4.9370   22.5390 C   0  0  0  0  0  3  0  0  0  0  0  0
  -21.4630   -6.0830   21.7310 C   0  0  0  0  0  0  0  0  0  0  0  0
  -21.2180   -5.9960   20.4020 F   0  0  0  0  0  0  0  0  0  0  0  0
  -21.4560   -3.9240   24.6990 F   0  0  0  0  0  0  0  0  0  0  0  0
  -25.1040  -14.2870   20.9880 C   0  0  0  0  0  0  0  0  0  0  0  0
  -24.0980  -13.9280   21.7770 N   0  0  0  0  0  0  0  0  0  0  0  0
  -25.0880  -15.3580   20.3830 O   0  0  0  0  0  0  0  0  0  0  0  0
  -24.1190  -13.0600   22.2910 H   0  0  0  0  0  0  0  0  0  0  0  0
  -23.2940  -14.5330   21.8720 H   0  0  0  0  0  0  0  0  0  0  0  0
  -28.1940  -14.9620   20.4250 N   0  0  0  0  0  0  0  0  0  0  0  0
  -27.6190  -15.7900   20.3220 H   0  0  0  0  0  0  0  0  0  0  0  0
  -29.0880  -15.0430   19.9620 H   0  0  0  0  0  0  0  0  0  0  0  0
  -33.2080  -19.8890   17.0630 C   0  0  0  0  0  2  0  0  0  0  0  0
  -32.6940  -21.4690   17.0870 C   0  0  0  0  0  2  0  0  0  0  0  0
  -32.4330  -22.3140   15.6740 C   0  0  0  0  0  2  0  0  0  0  0  0
  -33.4230  -23.1820   14.8770 O   0  0  0  0  0  0  0  0  0  0  0  0
  -35.3640  -29.2660   11.2890 C   0  0  0  0  0  0  0  0  0  0  0  0
  -33.0240  -24.3250   14.1030 C   0  0  0  0  0  0  0  0  0  0  0  0
  -33.0360  -29.1270   12.0970 C   0  0  0  0  0  3  0  0  0  0  0  0
  -32.2240  -26.7950   12.8110 C   0  0  0  0  0  0  0  0  0  0  0  0
  -34.3110  -26.9870   11.4660 C   0  0  0  0  0  2  0  0  0  0  0  0
  -33.4560  -26.2190   12.4830 C   0  0  0  0  0  0  0  0  0  0  0  0
  -33.8530  -24.9880   13.1180 C   0  0  0  0  0  3  0  0  0  0  0  0
  -31.7600  -24.9230   14.3150 C   0  0  0  0  0  3  0  0  0  0  0  0
  -31.3720  -26.1360   13.7080 C   0  0  0  0  0  3  0  0  0  0  0  0
  -31.8540  -28.1220   12.1690 C   0  0  0  0  0  2  0  0  0  0  0  0
  -34.2970  -28.4740   11.6170 N   0  0  0  0  0  0  0  0  0  0  0  0
  -35.3000  -30.5020   11.3620 O   0  0  0  0  0  0  0  0  0  0  0  0
  -33.1970  -29.8230   13.4720 C   0  0  0  0  0  0  0  0  0  0  0  0
  -32.8440  -29.1150   14.5580 N   0  0  0  0  0  0  0  0  0  0  0  0
  -33.6510  -30.9670   13.5470 O   0  0  0  0  0  0  0  0  0  0  0  0
  -32.4680  -28.1870   14.4190 H   0  0  0  0  0  0  0  0  0  0  0  0
  -33.8010  -28.0740   17.8920 C   0  0  0  0  0  0  0  0  0  0  0  0
  -32.9590  -29.5600   15.9500 C   0  0  0  0  0  3  0  0  0  0  0  0
  -34.2470  -30.3900   16.1660 C   0  0  0  0  0  2  0  0  0  0  0  0
  -35.4350  -29.5480   16.6410 C   0  0  0  0  0  2  0  0  0  0  0  0
  -35.1030  -28.8540   17.9650 C   0  0  0  0  0  2  0  0  0  0  0  0
  -32.8000  -28.3960   16.9350 C   0  0  0  0  0  0  0  0  0  0  0  0
  -31.6210  -27.6200   16.8900 C   0  0  0  0  0  3  0  0  0  0  0  0
  -31.4350  -26.5420   17.7760 C   0  0  0  0  0  3  0  0  0  0  0  0
  -32.4210  -26.2380   18.7300 C   0  0  0  0  0  3  0  0  0  0  0  0
  -33.5990  -27.0060   18.7900 C   0  0  0  0  0  3  0  0  0  0  0  0
  -36.7070  -28.6530   10.7870 C   0  0  0  0  0  3  0  0  0  0  0  0
  -37.9770  -29.3150   11.4510 C   0  0  1  0  0  0  0  0  0  0  0  0
  -38.0710  -30.8430   11.2310 C   0  0  0  0  0  1  0  0  0  0  0  0
  -37.9950  -29.0600   12.9770 C   0  0  0  0  0  1  0  0  0  0  0  0
  -39.2620  -28.6690   10.8830 C   0  0  0  0  0  1  0  0  0  0  0  0
  -36.7510  -28.8110    9.3250 N   0  0  0  0  0  0  0  0  0  0  0  0
  -36.7910  -27.7990    8.4480 C   0  0  0  0  0  0  0  0  0  0  0  0
  -36.8620  -26.6170    8.7950 O   0  0  0  0  0  0  0  0  0  0  0  0
  -36.6370  -29.7490    8.9680 H   0  0  0  0  0  0  0  0  0  0  0  0
  -35.4250  -27.6540    6.3400 C   0  0  0  0  0  1  0  0  0  0  0  0
  -36.7460  -28.1520    6.9490 C   0  0  0  0  0  3  0  0  0  0  0  0
  -39.1650  -28.2140    6.5250 C   0  0  0  0  0  1  0  0  0  0  0  0
  -37.8840  -27.6030    6.1790 N   0  0  0  0  0  0  0  0  0  0  0  0
  -37.7350  -27.7240    5.1800 H   0  0  0  0  0  0  0  0  0  0  0  0
  -30.3820  -18.6840   17.8170 C   0  0  0  0  0  2  0  0  0  0  0  0
  -28.6910  -20.2080   20.7330 C   0  0  0  0  0  2  0  0  0  0  0  0
  -28.0730  -21.0330   19.6080 C   0  0  0  0  0  2  0  0  0  0  0  0
  -29.9420  -19.5730   20.1140 C   0  0  0  0  0  2  0  0  0  0  0  0
  -28.5110  -20.3170   18.3210 C   0  0  2  0  0  0  0  0  0  0  0  0
  -28.5510  -21.3150   17.1490 C   0  0  0  0  0  1  0  0  0  0  0  0
  -27.5100  -19.1810   17.9940 C   0  0  0  0  0  1  0  0  0  0  0  0
  -29.8750  -19.8040   18.6490 N   0  0  2  0  0  4  0  0  0  0  0  0
  -30.5100  -20.5700   18.4840 H   0  0  0  0  0  0  0  0  0  0  0  0
  1  7  1  0
  2  7  1  0
  3  4  1  0
  3  2  1  0
  5  4  1  0
  5 20  1  0
  5  6  1  0
  7  6  1  0
  8  1  2  0
  9 13  1  0
 10 14  1  0
 11  9  2  0
 12 11  1  0
 12 10  2  0
 13 15  1  0
 14 13  2  0
 15 16  1  0
 15  1  1  0
 17 18  2  0
 18 19  1  0
 18 37  1  0
 19 22  1  0
 20 17  1  0
 20 21  1  0
 21 19  2  0
 22 23  1  0
 23 24  2  0
 25 28  1  0
 25 24  1  0
 26 25  2  0
 27 26  1  0
 27 22  2  0
 28 29  1  0
 29 30  1  0
 30 31  2  0
 32 31  1  0
 32 36  1  0
 33 32  2  0
 34 29  2  0
 34 33  1  0
 35 34  1  0
 37 38  1  0
 38 41  1  0
 38 40  1  0
 39 37  2  0
 42 17  1  0
 43 42  1  0
 44 42  1  0
 45 46  1  0
 45 12  1  0
 47 46  1  0
 48 47  1  0
 49 60  2  0
 49 59  1  0
 50 56  1  0
 50 48  1  0
 51 58  1  0
 51 61  1  0
 52 57  1  0
 53 59  1  0
 53 54  1  0
 54 52  2  0
 54 55  1  0
 55 50  2  0
 57 56  2  0
 58 52  1  0
 59 51  1  0
 61 63  2  0
 61 62  1  0
 64 62  1  0
 65 69  1  0
 65 74  1  0
 66 62  1  0
 66 67  1  0
 66 70  1  0
 67 68  1  0
 68 69  1  0
 70 65  2  0
 71 70  1  0
 71 72  2  0
 72 73  1  0
 73 74  2  0
 75 49  1  0
 75 76  1  0
 76 78  1  1
 77 76  1  0
 79 76  1  0
 80 75  1  0
 81 82  2  0
 81 80  1  0
 83 80  1  0
 85 84  1  0
 85 81  1  0
 87 86  1  0
 87 85  1  0
 88 87  1  0
 89 11  1  0
 89 96  1  0
 91 90  1  0
 92 90  1  0
 93 96  1  0
 93 91  1  0
 93 94  1  6
 95 93  1  0
 96 92  1  0
 96 97  1  1
M  ISO  4   1 100  15 100  47 101  48 101
M  END
>  <TORSDO>  (78) 
F 20

>  <SCORE>  (78) 
-7.515

>  <name>  (78) 
77

>  <ligand_id>  (78) 
77

>  <original_smiles>  (78) 
[H]c1nc(N([H])C(=O)N2C([H])([H])C([H])([H])C([H])([H])C([H])(n3nc(-c4c([H])c([H])c(Oc5c([H])c([H])c(F)c([H])c5F)c([H])c4[H])c(C(=O)N([H])[H])c3N([H])[H])C2([H])[H])c([H])c(C([H])([H])[N+]2([H])C([H])([H])C([H])([H])C([H])([H])C2(C([H])([H])[H])C([H])([H])[H])c1C([H])([H])C([H])([H])C([H])([H])Oc1c([H])c([H])c2c(c1[H])C([H])([H])N(C(=O)C([H])(N([H])C(=O)C([H])(N([H])C([H])([H])[H])C([H])([H])[H])C(C([H])([H])[H])(C([H])([H])[H])C([H])([H])[H])C([H])(C(=O)N([H])C1([H])c3c([H])c([H])c([H])c([H])c3C([H])([H])C([H])([H])C1([H])[H])C2([H])[H]

>  <smiles>  (78) 
[H]c1nc(N([H])C(=O)N2C([H])([H])C([H])([H])C([H])([H])C([H])(n3nc(-c4c([H])c([H])c(Oc5c([H])c([H])c(F)c([H])c5F)c([H])c4[H])c(C(=O)N([H])[H])c3N([H])[H])C2([H])[H])c([H])c(C([H])([H])[N+]2([H])C([H])([H])C([H])([H])C([H])([H])C2(C([H])([H])[H])C([H])([H])[H])c1C([H])([H])C([H])([H])C([H])([H])Oc1c([H])c([H])c2c(c1[H])C([H])([H])N(C(=O)C([H])(N([H])C(=O)C([H])(N([H])C([H])([H])[H])C([H])([H])[H])C(C([H])([H])[H])(C([H])([H])[H])C([H])([H])[H])C([H])(C(=O)N([H])C1([H])c3c([H])c([H])c([H])c([H])c3C([H])([H])C([H])([H])C1([H])[H])C2([H])[H]

$$$$
78:0:0
     RDKit          3D

 92100  0  0  1  0  0  0  0  0999 V2000
  -29.9580  -23.5920   20.1020 C   0  0  0  0  0  3  0  0  0  0  0  0
  -30.3770  -22.2540   19.8510 C   0  0  0  0  0  3  0  0  0  0  0  0
  -27.7090  -22.7980   20.4210 C   0  0  0  0  0  3  0  0  0  0  0  0
  -28.6070  -23.8990   20.3900 C   0  0  0  0  0  0  0  0  0  0  0  0
  -29.4810  -21.1490   19.8810 C   0  0  0  0  0  0  0  0  0  0  0  0
  -28.1200  -21.4540   20.1730 C   0  0  0  0  0  0  0  0  0  0  0  0
  -27.0670  -20.3600   20.2360 C   0  0  0  0  0  1  0  0  0  0  0  0
  -29.9910  -19.7240   19.4470 C   0  0  0  0  0  2  0  0  0  0  0  0
  -29.9830  -18.5700   20.4170 N   0  0  0  0  0  4  0  0  0  0  0  0
  -29.0350  -18.4250   20.7190 H   0  0  0  0  0  0  0  0  0  0  0  0
  -30.5240  -18.8380   21.2220 H   0  0  0  0  0  0  0  0  0  0  0  0
  -30.5390  -17.2660   19.8700 C   0  0  0  0  0  2  0  0  0  0  0  0
  -30.8000  -16.0930   22.1630 C   0  0  0  0  0  1  0  0  0  0  0  0
  -30.3090  -15.9330   20.7120 C   0  0  0  0  0  3  0  0  0  0  0  0
  -30.9740  -14.6400   20.0840 C   0  0  0  0  0  0  0  0  0  0  0  0
  -30.6490  -12.4540   18.9420 C   0  0  0  0  0  2  0  0  0  0  0  0
  -29.6570  -12.6410   17.7740 C   0  0  0  0  0  2  0  0  0  0  0  0
  -28.2020  -12.4970   18.2630 C   0  0  0  0  0  2  0  0  0  0  0  0
  -27.9160  -13.3370   19.5360 C   0  0  0  0  0  3  0  0  0  0  0  0
  -29.0160  -13.1280   20.6010 C   0  0  0  0  0  2  0  0  0  0  0  0
  -30.3080  -13.4470   19.9790 N   0  0  0  0  0  0  0  0  0  0  0  0
  -32.0990  -14.7650   19.5910 O   0  0  0  0  0  0  0  0  0  0  0  0
  -25.5590  -13.9640   20.3510 C   0  0  0  0  0  0  0  0  0  0  0  0
  -24.4950  -13.2030   20.7520 C   0  0  0  0  0  0  0  0  0  0  0  0
  -24.9350  -11.8460   20.6900 C   0  0  0  0  0  0  0  0  0  0  0  0
  -26.5810  -13.0720   20.0690 N   0  0  0  0  0  0  0  0  0  0  0  0
  -26.2120  -11.7920   20.3330 N   0  0  0  0  0  0  0  0  0  0  0  0
  -24.1980  -10.5920   20.8940 C   0  0  0  0  0  0  0  0  0  0  0  0
  -24.6000   -9.6490   21.8650 C   0  0  0  0  0  3  0  0  0  0  0  0
  -23.8650   -8.4590   22.0560 C   0  0  0  0  0  3  0  0  0  0  0  0
  -22.7130   -8.2040   21.2750 C   0  0  0  0  0  0  0  0  0  0  0  0
  -22.3300   -9.1350   20.2930 C   0  0  0  0  0  3  0  0  0  0  0  0
  -23.0670  -10.3160   20.1010 C   0  0  0  0  0  3  0  0  0  0  0  0
  -21.9520   -7.0650   21.3720 O   0  0  0  0  0  0  0  0  0  0  0  0
  -21.7920   -6.4050   22.5650 C   0  0  0  0  0  0  0  0  0  0  0  0
  -21.2510   -7.0440   23.7010 C   0  0  0  0  0  3  0  0  0  0  0  0
  -21.0380   -6.3110   24.8860 C   0  0  0  0  0  3  0  0  0  0  0  0
  -21.3590   -4.9410   24.9340 C   0  0  0  0  0  0  0  0  0  0  0  0
  -21.8930   -4.3030   23.8020 C   0  0  0  0  0  3  0  0  0  0  0  0
  -22.1060   -5.0320   22.6190 C   0  0  0  0  0  0  0  0  0  0  0  0
  -22.6010   -4.4080   21.5240 F   0  0  0  0  0  0  0  0  0  0  0  0
  -21.1480   -4.2350   26.0700 F   0  0  0  0  0  0  0  0  0  0  0  0
  -23.1160  -13.6980   21.0820 C   0  0  0  0  0  0  0  0  0  0  0  0
  -22.4140  -13.0070   21.9740 N   0  0  0  0  0  0  0  0  0  0  0  0
  -22.6710  -14.7310   20.5840 O   0  0  0  0  0  0  0  0  0  0  0  0
  -22.7860  -12.1700   22.3970 H   0  0  0  0  0  0  0  0  0  0  0  0
  -21.4900  -13.3220   22.2380 H   0  0  0  0  0  0  0  0  0  0  0  0
  -25.7370  -15.3340   20.1800 N   0  0  0  0  0  0  0  0  0  0  0  0
  -24.9830  -15.9970   20.3210 H   0  0  0  0  0  0  0  0  0  0  0  0
  -26.5720  -15.7600   19.8010 H   0  0  0  0  0  0  0  0  0  0  0  0
  -28.1380  -25.3190   20.8480 C   0  0  0  0  0  2  0  0  0  0  0  0
  -28.2810  -26.4820   19.9700 O   0  0  0  0  0  0  0  0  0  0  0  0
  -24.6120  -31.8140   23.1160 C   0  0  0  0  0  0  0  0  0  0  0  0
  -27.1800  -27.3310   19.9700 C   0  0  0  0  0  0  0  0  0  0  0  0
  -23.3820  -30.4360   21.4750 C   0  0  0  0  0  3  0  0  0  0  0  0
  -24.8110  -28.9020   20.0130 C   0  0  0  0  0  0  0  0  0  0  0  0
  -25.9140  -30.7670   21.2540 C   0  0  0  0  0  2  0  0  0  0  0  0
  -25.9860  -29.3980   20.5950 C   0  0  0  0  0  0  0  0  0  0  0  0
  -27.1780  -28.6220   20.5670 C   0  0  0  0  0  3  0  0  0  0  0  0
  -25.9890  -26.8700   19.3740 C   0  0  0  0  0  3  0  0  0  0  0  0
  -24.8090  -27.6390   19.3980 C   0  0  0  0  0  3  0  0  0  0  0  0
  -23.5750  -29.7720   20.0860 C   0  0  0  0  0  2  0  0  0  0  0  0
  -24.6550  -31.0220   22.0050 N   0  0  0  0  0  0  0  0  0  0  0  0
  -23.5380  -32.0860   23.6710 O   0  0  0  0  0  0  0  0  0  0  0  0
  -22.7320  -29.4110   22.4340 C   0  0  0  0  0  0  0  0  0  0  0  0
  -21.4030  -29.2480   22.3290 N   0  0  0  0  0  0  0  0  0  0  0  0
  -23.4210  -28.7660   23.2290 O   0  0  0  0  0  0  0  0  0  0  0  0
  -20.9070  -29.8190   21.6610 H   0  0  0  0  0  0  0  0  0  0  0  0
  -18.0220  -28.0900   22.8860 C   0  0  0  0  0  0  0  0  0  0  0  0
  -20.5890  -28.3070   23.1000 C   0  0  0  0  0  3  0  0  0  0  0  0
  -20.6550  -26.8860   22.4930 C   0  0  0  0  0  2  0  0  0  0  0  0
  -19.5240  -26.5990   21.4990 C   0  0  0  0  0  2  0  0  0  0  0  0
  -18.1600  -26.7520   22.1800 C   0  0  0  0  0  2  0  0  0  0  0  0
  -19.1620  -28.8260   23.3040 C   0  0  0  0  0  0  0  0  0  0  0  0
  -18.9770  -30.0790   23.9280 C   0  0  0  0  0  3  0  0  0  0  0  0
  -17.6850  -30.5970   24.1370 C   0  0  0  0  0  3  0  0  0  0  0  0
  -16.5590  -29.8570   23.7330 C   0  0  0  0  0  3  0  0  0  0  0  0
  -16.7290  -28.6060   23.1160 C   0  0  0  0  0  3  0  0  0  0  0  0
  -25.9060  -32.4330   23.7300 C   0  0  0  0  0  3  0  0  0  0  0  0
  -25.6030  -33.8240   24.0910 N   0  0  0  0  0  0  0  0  0  0  0  0
  -25.9310  -34.8910   23.3480 C   0  0  0  0  0  0  0  0  0  0  0  0
  -26.5880  -34.8060   22.3080 O   0  0  0  0  0  0  0  0  0  0  0  0
  -25.0190  -33.9640   24.9010 H   0  0  0  0  0  0  0  0  0  0  0  0
  -24.2030  -36.6950   23.0480 C   0  0  0  0  0  1  0  0  0  0  0  0
  -25.4510  -36.2710   23.8400 C   0  0  0  0  0  3  0  0  0  0  0  0
  -27.5950  -37.1350   24.6650 C   0  0  0  0  0  1  0  0  0  0  0  0
  -26.4840  -37.3250   23.7360 N   0  0  0  0  0  0  0  0  0  0  0  0
  -26.0820  -38.2430   23.9050 H   0  0  0  0  0  0  0  0  0  0  0  0
  -26.4410  -31.6370   24.9840 C   0  0  1  0  0  0  0  0  0  0  0  0
  -25.3640  -31.3770   26.0630 C   0  0  0  0  0  1  0  0  0  0  0  0
  -27.0180  -30.2680   24.5540 C   0  0  0  0  0  1  0  0  0  0  0  0
  -27.6030  -32.4180   25.6420 C   0  0  0  0  0  1  0  0  0  0  0  0
  1  4  1  0
  2  5  1  0
  2  1  2  0
  4  3  2  0
  4 51  1  0
  5  6  2  0
  6  7  1  0
  6  3  1  0
  8  5  1  0
  8  9  1  0
  9 10  1  0
  9 11  1  0
 12  9  1  0
 12 14  1  0
 14 13  1  0
 15 14  1  0
 16 21  1  0
 17 18  1  0
 17 16  1  0
 19 18  1  0
 19 26  1  0
 19 20  1  0
 21 15  1  0
 21 20  1  0
 22 15  2  0
 23 24  2  0
 24 43  1  0
 25 24  1  0
 25 28  1  0
 26 27  1  0
 26 23  1  0
 27 25  2  0
 28 29  1  0
 29 30  2  0
 31 34  1  0
 31 30  1  0
 32 31  2  0
 33 32  1  0
 33 28  2  0
 34 35  1  0
 35 40  2  0
 35 36  1  0
 36 37  2  0
 37 38  1  0
 38 42  1  0
 39 38  2  0
 40 39  1  0
 41 40  1  0
 43 44  1  0
 44 47  1  0
 44 46  1  0
 45 43  2  0
 48 49  1  0
 48 23  1  0
 50 48  1  0
 52 51  1  0
 53 64  2  0
 54 52  1  0
 54 59  1  0
 55 63  1  0
 55 65  1  0
 56 62  1  0
 56 58  1  0
 57 63  1  0
 58 57  1  0
 59 58  2  0
 60 61  1  0
 60 54  2  0
 61 56  2  0
 62 55  1  0
 63 53  1  0
 65 67  2  0
 66 65  1  0
 68 66  1  0
 69 78  2  0
 69 74  1  0
 70 66  1  0
 70 74  1  0
 71 70  1  0
 72 73  1  0
 72 71  1  0
 73 69  1  0
 74 75  2  0
 75 76  1  0
 77 76  2  0
 78 77  1  0
 79 53  1  0
 79 80  1  0
 79 89  1  0
 80 83  1  0
 81 85  1  0
 81 80  1  0
 82 81  2  0
 85 84  1  0
 87 85  1  0
 87 88  1  0
 87 86  1  0
 89 92  1  1
 89 90  1  0
 91 89  1  0
M  ISO  4  14 100  15 100  51 101  52 101
M  END
>  <TORSDO>  (79) 
F 21

>  <SCORE>  (79) 
-12.467

>  <name>  (79) 
78

>  <ligand_id>  (79) 
78

>  <original_smiles>  (79) 
[H]c1c([H])c([H])c2c(c1[H])C([H])([H])C([H])([H])C([H])([H])C2([H])N([H])C(=O)C1([H])N(C(=O)C([H])(N([H])C(=O)C([H])(N([H])C([H])([H])[H])C([H])([H])[H])C(C([H])([H])[H])(C([H])([H])[H])C([H])([H])[H])C([H])([H])c2c([H])c(OC([H])([H])c3c([H])c([H])c(C([H])([H])[N+]([H])([H])C([H])([H])C([H])(C(=O)N4C([H])([H])C([H])([H])C([H])([H])C([H])(n5nc(-c6c([H])c([H])c(Oc7c([H])c([H])c(F)c([H])c7F)c([H])c6[H])c(C(=O)N([H])[H])c5N([H])[H])C4([H])[H])C([H])([H])[H])c(C([H])([H])[H])c3[H])c([H])c([H])c2C1([H])[H]

>  <smiles>  (79) 
[H]c1c([H])c([H])c2c(c1[H])C([H])([H])C([H])([H])C([H])([H])C2([H])N([H])C(=O)C1([H])N(C(=O)C([H])(N([H])C(=O)C([H])(N([H])C([H])([H])[H])C([H])([H])[H])C(C([H])([H])[H])(C([H])([H])[H])C([H])([H])[H])C([H])([H])c2c([H])c(OC([H])([H])c3c([H])c([H])c(C([H])([H])[N+]([H])([H])C([H])([H])C([H])(C(=O)N4C([H])([H])C([H])([H])C([H])([H])C([H])(n5nc(-c6c([H])c([H])c(Oc7c([H])c([H])c(F)c([H])c7F)c([H])c6[H])c(C(=O)N([H])[H])c5N([H])[H])C4([H])[H])C([H])([H])[H])c(C([H])([H])[H])c3[H])c([H])c([H])c2C1([H])[H]

$$$$
79:0:0
     RDKit          3D

 94102  0  0  1  0  0  0  0  0999 V2000
  -26.9300  -22.0570   21.5030 C   0  0  0  0  0  2  0  0  0  0  0  0
  -28.3350  -21.8830   22.0750 C   0  0  0  0  0  2  0  0  0  0  0  0
  -27.0990  -23.0530   20.3460 C   0  0  0  0  0  2  0  0  0  0  0  0
  -29.2650  -22.1360   20.8730 C   0  0  0  0  0  3  0  0  0  0  0  0
  -28.5600  -23.1980   20.0810 N   0  0  2  0  0  4  0  0  0  0  0  0
  -28.7170  -22.8820   19.1290 H   0  0  0  0  0  0  0  0  0  0  0  0
  -29.4540  -20.8280   20.0400 C   0  0  0  0  0  0  0  0  0  0  0  0
  -29.8840  -19.7030   20.6570 N   0  0  0  0  0  0  0  0  0  0  0  0
  -29.1710  -20.8420   18.8390 O   0  0  0  0  0  0  0  0  0  0  0  0
  -30.1150  -19.7810   21.6390 H   0  0  0  0  0  0  0  0  0  0  0  0
  -29.9090  -18.3410   20.0790 C   0  0  0  0  0  2  0  0  0  0  0  0
  -30.7250  -17.3170   20.9280 C   0  0  0  0  0  2  0  0  0  0  0  0
  -31.0180  -14.8920   20.2030 C   0  0  0  0  0  0  0  0  0  0  0  0
  -30.7530  -12.6760   19.1310 C   0  0  0  0  0  2  0  0  0  0  0  0
  -29.8010  -12.8070   17.9240 C   0  0  0  0  0  2  0  0  0  0  0  0
  -28.3310  -12.6680   18.3670 C   0  0  0  0  0  2  0  0  0  0  0  0
  -27.9880  -13.5560   19.5920 C   0  0  0  0  0  3  0  0  0  0  0  0
  -29.0490  -13.3930   20.7030 C   0  0  0  0  0  2  0  0  0  0  0  0
  -30.3650  -13.6990   20.1170 N   0  0  0  0  0  0  0  0  0  0  0  0
  -32.1370  -15.0770   19.7170 O   0  0  0  0  0  0  0  0  0  0  0  0
  -30.3110  -15.9070   20.7450 N   0  0  0  0  0  0  0  0  0  0  0  0
  -29.3950  -15.6630   21.0890 H   0  0  0  0  0  0  0  0  0  0  0  0
  -25.6070  -14.1850   20.3360 C   0  0  0  0  0  0  0  0  0  0  0  0
  -24.5350  -13.4230   20.7160 C   0  0  0  0  0  0  0  0  0  0  0  0
  -24.9810  -12.0660   20.6710 C   0  0  0  0  0  0  0  0  0  0  0  0
  -26.6390  -13.2940   20.0860 N   0  0  0  0  0  0  0  0  0  0  0  0
  -26.2670  -12.0140   20.3450 N   0  0  0  0  0  0  0  0  0  0  0  0
  -24.2430  -10.8110   20.8650 C   0  0  0  0  0  0  0  0  0  0  0  0
  -24.6290   -9.8730   21.8460 C   0  0  0  0  0  3  0  0  0  0  0  0
  -23.8940   -8.6810   22.0260 C   0  0  0  0  0  3  0  0  0  0  0  0
  -22.7590   -8.4190   21.2220 C   0  0  0  0  0  0  0  0  0  0  0  0
  -22.3930   -9.3460   20.2300 C   0  0  0  0  0  3  0  0  0  0  0  0
  -23.1290  -10.5300   20.0500 C   0  0  0  0  0  3  0  0  0  0  0  0
  -22.0000   -7.2780   21.3070 O   0  0  0  0  0  0  0  0  0  0  0  0
  -21.8330   -6.6110   22.4950 C   0  0  0  0  0  0  0  0  0  0  0  0
  -21.2540   -7.2330   23.6220 C   0  0  0  0  0  3  0  0  0  0  0  0
  -21.0370   -6.4910   24.8000 C   0  0  0  0  0  3  0  0  0  0  0  0
  -21.3900   -5.1280   24.8500 C   0  0  0  0  0  0  0  0  0  0  0  0
  -21.9610   -4.5070   23.7260 C   0  0  0  0  0  3  0  0  0  0  0  0
  -22.1800   -5.2460   22.5510 C   0  0  0  0  0  0  0  0  0  0  0  0
  -22.7100   -4.6380   21.4630 F   0  0  0  0  0  0  0  0  0  0  0  0
  -21.1740   -4.4120   25.9790 F   0  0  0  0  0  0  0  0  0  0  0  0
  -23.1460  -13.9130   21.0100 C   0  0  0  0  0  0  0  0  0  0  0  0
  -22.4290  -13.2270   21.8920 N   0  0  0  0  0  0  0  0  0  0  0  0
  -22.7080  -14.9400   20.4930 O   0  0  0  0  0  0  0  0  0  0  0  0
  -22.7970  -12.3970   22.3310 H   0  0  0  0  0  0  0  0  0  0  0  0
  -21.4970  -13.5370   22.1310 H   0  0  0  0  0  0  0  0  0  0  0  0
  -25.7840  -15.5550   20.1620 N   0  0  0  0  0  0  0  0  0  0  0  0
  -25.0240  -16.2150   20.2760 H   0  0  0  0  0  0  0  0  0  0  0  0
  -26.6290  -15.9810   19.8050 H   0  0  0  0  0  0  0  0  0  0  0  0
  -28.9510  -25.2050   21.6220 C   0  0  0  0  0  1  0  0  0  0  0  0
  -29.0750  -24.6220   20.1930 C   0  0  0  0  0  3  0  0  0  0  0  0
  -28.4660  -25.5800   19.1040 C   0  0  0  0  0  2  0  0  0  0  0  0
  -28.4030  -26.9890   19.4690 O   0  0  0  0  0  0  0  0  0  0  0  0
  -24.6260  -31.8250   23.1370 C   0  0  0  0  0  0  0  0  0  0  0  0
  -27.1940  -27.6730   19.5680 C   0  0  0  0  0  0  0  0  0  0  0  0
  -23.3640  -30.5160   21.4650 C   0  0  0  0  0  3  0  0  0  0  0  0
  -24.7670  -29.1390   19.8430 C   0  0  0  0  0  0  0  0  0  0  0  0
  -25.8690  -30.9540   21.1550 C   0  0  0  0  0  2  0  0  0  0  0  0
  -25.9490  -29.6370   20.4030 C   0  0  0  0  0  0  0  0  0  0  0  0
  -27.1600  -28.9120   20.2620 C   0  0  0  0  0  3  0  0  0  0  0  0
  -25.9800  -27.2070   19.0030 C   0  0  0  0  0  3  0  0  0  0  0  0
  -24.7800  -27.9250   19.1420 C   0  0  0  0  0  3  0  0  0  0  0  0
  -23.5080  -29.9550   20.0270 C   0  0  0  0  0  2  0  0  0  0  0  0
  -24.6420  -31.1100   21.9760 N   0  0  0  0  0  0  0  0  0  0  0  0
  -23.5710  -32.0210   23.7570 O   0  0  0  0  0  0  0  0  0  0  0  0
  -22.7980  -29.4030   22.3780 C   0  0  0  0  0  0  0  0  0  0  0  0
  -21.4820  -29.1500   22.2700 N   0  0  0  0  0  0  0  0  0  0  0  0
  -23.5370  -28.7730   23.1380 O   0  0  0  0  0  0  0  0  0  0  0  0
  -20.9440  -29.7140   21.6290 H   0  0  0  0  0  0  0  0  0  0  0  0
  -18.2100  -27.6840   22.7220 C   0  0  0  0  0  0  0  0  0  0  0  0
  -20.7420  -28.1220   23.0020 C   0  0  0  0  0  3  0  0  0  0  0  0
  -20.9500  -26.7280   22.3670 C   0  0  0  0  0  2  0  0  0  0  0  0
  -19.8710  -26.3650   21.3420 C   0  0  0  0  0  2  0  0  0  0  0  0
  -18.4840  -26.3800   21.9930 C   0  0  0  0  0  2  0  0  0  0  0  0
  -19.2700  -28.5100   23.1830 C   0  0  0  0  0  0  0  0  0  0  0  0
  -18.9590  -29.7280   23.8240 C   0  0  0  0  0  3  0  0  0  0  0  0
  -17.6210  -30.1240   24.0100 C   0  0  0  0  0  3  0  0  0  0  0  0
  -16.5770  -29.2950   23.5670 C   0  0  0  0  0  3  0  0  0  0  0  0
  -16.8720  -28.0770   22.9300 C   0  0  0  0  0  3  0  0  0  0  0  0
  -25.9280  -32.4490   23.7290 C   0  0  0  0  0  3  0  0  0  0  0  0
  -25.6140  -33.8240   24.1380 N   0  0  0  0  0  0  0  0  0  0  0  0
  -25.9360  -34.9190   23.4360 C   0  0  0  0  0  0  0  0  0  0  0  0
  -26.6010  -34.8760   22.3980 O   0  0  0  0  0  0  0  0  0  0  0  0
  -25.0260  -33.9310   24.9520 H   0  0  0  0  0  0  0  0  0  0  0  0
  -24.2120  -36.7300   23.1700 C   0  0  0  0  0  1  0  0  0  0  0  0
  -25.4430  -36.2760   23.9720 C   0  0  0  0  0  3  0  0  0  0  0  0
  -27.5630  -37.1090   24.8880 C   0  0  0  0  0  1  0  0  0  0  0  0
  -26.4770  -37.3340   23.9380 N   0  0  0  0  0  0  0  0  0  0  0  0
  -26.0690  -38.2440   24.1320 H   0  0  0  0  0  0  0  0  0  0  0  0
  -26.5150  -31.6260   24.9420 C   0  0  1  0  0  0  0  0  0  0  0  0
  -25.4750  -31.3180   26.0440 C   0  0  0  0  0  1  0  0  0  0  0  0
  -27.1010  -30.2800   24.4560 C   0  0  0  0  0  1  0  0  0  0  0  0
  -27.6810  -32.4090   25.5890 C   0  0  0  0  0  1  0  0  0  0  0  0
  1  2  1  0
  3  1  1  0
  4  7  1  0
  4  2  1  0
  5 52  1  0
  5  3  1  0
  5  4  1  0
  5  6  1  6
  7  8  1  0
  8 10  1  0
  9  7  2  0
 11  8  1  0
 11 12  1  0
 13 21  1  0
 14 19  1  0
 15 16  1  0
 15 14  1  0
 17 16  1  0
 17 26  1  0
 17 18  1  0
 19 13  1  0
 19 18  1  0
 20 13  2  0
 21 12  1  0
 21 22  1  0
 23 24  2  0
 24 43  1  0
 25 24  1  0
 25 28  1  0
 26 23  1  0
 26 27  1  0
 27 25  2  0
 28 29  1  0
 29 30  2  0
 31 34  1  0
 31 30  1  0
 32 31  2  0
 33 32  1  0
 33 28  2  0
 34 35  1  0
 35 40  2  0
 35 36  1  0
 36 37  2  0
 37 38  1  0
 38 42  1  0
 39 38  2  0
 40 39  1  0
 41 40  1  0
 43 44  1  0
 44 47  1  0
 44 46  1  0
 45 43  2  0
 48 49  1  0
 48 23  1  0
 50 48  1  0
 52 51  1  0
 53 54  1  0
 53 52  1  0
 54 56  1  0
 55 66  2  0
 56 61  1  0
 57 65  1  0
 57 67  1  0
 58 64  1  0
 58 60  1  0
 59 65  1  0
 60 59  1  0
 61 60  2  0
 62 63  1  0
 62 56  2  0
 63 58  2  0
 64 57  1  0
 65 55  1  0
 67 69  2  0
 68 67  1  0
 70 68  1  0
 71 80  2  0
 71 76  1  0
 72 68  1  0
 72 76  1  0
 73 72  1  0
 74 75  1  0
 74 73  1  0
 75 71  1  0
 76 77  2  0
 77 78  1  0
 79 78  2  0
 80 79  1  0
 81 55  1  0
 81 82  1  0
 81 91  1  0
 82 85  1  0
 83 87  1  0
 83 82  1  0
 84 83  2  0
 87 86  1  0
 89 87  1  0
 89 90  1  0
 89 88  1  0
 91 94  1  1
 91 92  1  0
 93 91  1  0
M  ISO  4  13 100  21 100  53 101  54 101
M  END
>  <TORSDO>  (80) 
F 21

>  <SCORE>  (80) 
-12.094

>  <name>  (80) 
79

>  <ligand_id>  (80) 
79

>  <original_smiles>  (80) 
[H]c1c([H])c([H])c2c(c1[H])C([H])([H])C([H])([H])C([H])([H])C2([H])N([H])C(=O)C1([H])N(C(=O)C([H])(N([H])C(=O)C([H])(N([H])C([H])([H])[H])C([H])([H])[H])C(C([H])([H])[H])(C([H])([H])[H])C([H])([H])[H])C([H])([H])c2c([H])c(OC([H])([H])C([H])(C([H])([H])[H])[N+]3([H])C([H])([H])C([H])([H])C([H])([H])C3([H])C(=O)N([H])C([H])([H])C([H])([H])N([H])C(=O)N3C([H])([H])C([H])([H])C([H])([H])C([H])(n4nc(-c5c([H])c([H])c(Oc6c([H])c([H])c(F)c([H])c6F)c([H])c5[H])c(C(=O)N([H])[H])c4N([H])[H])C3([H])[H])c([H])c([H])c2C1([H])[H]

>  <smiles>  (80) 
[H]c1c([H])c([H])c2c(c1[H])C([H])([H])C([H])([H])C([H])([H])C2([H])N([H])C(=O)C1([H])N(C(=O)C([H])(N([H])C(=O)C([H])(N([H])C([H])([H])[H])C([H])([H])[H])C(C([H])([H])[H])(C([H])([H])[H])C([H])([H])[H])C([H])([H])c2c([H])c(OC([H])([H])C([H])(C([H])([H])[H])[N+]3([H])C([H])([H])C([H])([H])C([H])([H])C3([H])C(=O)N([H])C([H])([H])C([H])([H])N([H])C(=O)N3C([H])([H])C([H])([H])C([H])([H])C([H])(n4nc(-c5c([H])c([H])c(Oc6c([H])c([H])c(F)c([H])c6F)c([H])c5[H])c(C(=O)N([H])[H])c4N([H])[H])C3([H])[H])c([H])c([H])c2C1([H])[H]

$$$$
80:0:0
     RDKit          3D

 89 97  0  0  1  0  0  0  0  0999 V2000
  -28.0480  -21.8890   19.2140 C   0  0  0  0  0  2  0  0  0  0  0  0
  -29.2330  -22.0010   21.3010 C   0  0  0  0  0  2  0  0  0  0  0  0
  -28.1200  -23.5260   19.0540 C   0  0  0  0  0  2  0  0  0  0  0  0
  -29.2620  -23.6440   21.1720 C   0  0  0  0  0  2  0  0  0  0  0  0
  -29.1940  -21.0510   19.9960 C   0  0  0  0  0  3  0  0  0  0  0  0
  -28.1540  -24.4800   20.3460 C   0  0  0  0  0  3  0  0  0  0  0  0
  -28.9760  -19.4430   20.1490 N   0  0  0  0  0  4  0  0  0  0  0  0
  -28.3230  -19.2430   19.4070 H   0  0  0  0  0  0  0  0  0  0  0  0
  -28.4530  -19.2950   20.9970 H   0  0  0  0  0  0  0  0  0  0  0  0
  -30.0220  -18.2070   20.0110 C   0  0  0  0  0  2  0  0  0  0  0  0
  -28.9560  -16.4130   21.6200 C   0  0  0  0  0  1  0  0  0  0  0  0
  -29.6020  -16.5270   20.2260 C   0  0  0  0  0  3  0  0  0  0  0  0
  -30.4970  -15.0960   19.9370 C   0  0  0  0  0  0  0  0  0  0  0  0
  -30.4220  -12.7390   18.9300 C   0  0  0  0  0  2  0  0  0  0  0  0
  -29.3920  -12.6820   17.7720 C   0  0  0  0  0  2  0  0  0  0  0  0
  -27.9650  -12.4290   18.2960 C   0  0  0  0  0  2  0  0  0  0  0  0
  -27.6360  -13.3050   19.5300 C   0  0  0  0  0  3  0  0  0  0  0  0
  -28.7720  -13.2650   20.5680 C   0  0  0  0  0  2  0  0  0  0  0  0
  -29.9790  -13.7830   19.9050 N   0  0  0  0  0  0  0  0  0  0  0  0
  -31.6800  -15.1810   19.5810 O   0  0  0  0  0  0  0  0  0  0  0  0
  -25.3050  -13.8490   20.4310 C   0  0  0  0  0  0  0  0  0  0  0  0
  -24.2710  -13.0590   20.8520 C   0  0  0  0  0  0  0  0  0  0  0  0
  -24.7390  -11.7130   20.7550 C   0  0  0  0  0  0  0  0  0  0  0  0
  -26.3340  -12.9840   20.1050 N   0  0  0  0  0  0  0  0  0  0  0  0
  -26.0070  -11.6900   20.3630 N   0  0  0  0  0  0  0  0  0  0  0  0
  -24.0300  -10.4410   20.9560 C   0  0  0  0  0  0  0  0  0  0  0  0
  -24.4840   -9.4780   21.8830 C   0  0  0  0  0  3  0  0  0  0  0  0
  -23.7700   -8.2740   22.0720 C   0  0  0  0  0  3  0  0  0  0  0  0
  -22.5900   -8.0250   21.3320 C   0  0  0  0  0  0  0  0  0  0  0  0
  -22.1550   -8.9760   20.3930 C   0  0  0  0  0  3  0  0  0  0  0  0
  -22.8700  -10.1710   20.2010 C   0  0  0  0  0  3  0  0  0  0  0  0
  -21.8480   -6.8720   21.4320 O   0  0  0  0  0  0  0  0  0  0  0  0
  -21.7690   -6.1670   22.6060 C   0  0  0  0  0  0  0  0  0  0  0  0
  -21.2960   -6.7560   23.7990 C   0  0  0  0  0  3  0  0  0  0  0  0
  -21.1630   -5.9770   24.9660 C   0  0  0  0  0  3  0  0  0  0  0  0
  -21.4940   -4.6080   24.9400 C   0  0  0  0  0  0  0  0  0  0  0  0
  -21.9620   -4.0200   23.7530 C   0  0  0  0  0  3  0  0  0  0  0  0
  -22.0950   -4.7960   22.5880 C   0  0  0  0  0  0  0  0  0  0  0  0
  -22.5260   -4.2180   21.4400 F   0  0  0  0  0  0  0  0  0  0  0  0
  -21.3610   -3.8570   26.0590 F   0  0  0  0  0  0  0  0  0  0  0  0
  -22.8920  -13.5230   21.2180 C   0  0  0  0  0  0  0  0  0  0  0  0
  -22.2260  -12.8090   22.1200 N   0  0  0  0  0  0  0  0  0  0  0  0
  -22.4170  -14.5490   20.7420 O   0  0  0  0  0  0  0  0  0  0  0  0
  -22.6270  -11.9790   22.5270 H   0  0  0  0  0  0  0  0  0  0  0  0
  -21.3030  -13.1010   22.4090 H   0  0  0  0  0  0  0  0  0  0  0  0
  -25.4390  -15.2250   20.2800 N   0  0  0  0  0  0  0  0  0  0  0  0
  -24.6670  -15.8550   20.4610 H   0  0  0  0  0  0  0  0  0  0  0  0
  -26.2400  -15.6860   19.8720 H   0  0  0  0  0  0  0  0  0  0  0  0
  -28.3190  -26.0710   20.2490 O   0  0  0  0  0  0  0  0  0  0  0  0
  -24.7010  -31.8520   23.2200 C   0  0  0  0  0  0  0  0  0  0  0  0
  -27.2580  -27.0700   20.2070 C   0  0  0  0  0  0  0  0  0  0  0  0
  -23.4950  -30.4540   21.5900 C   0  0  0  0  0  3  0  0  0  0  0  0
  -24.9380  -28.8590   20.1620 C   0  0  0  0  0  0  0  0  0  0  0  0
  -26.0520  -30.6960   21.4160 C   0  0  0  0  0  2  0  0  0  0  0  0
  -26.1210  -29.2960   20.7690 C   0  0  0  0  0  0  0  0  0  0  0  0
  -27.2840  -28.4220   20.7650 C   0  0  0  0  0  3  0  0  0  0  0  0
  -26.0480  -26.7460   19.5590 C   0  0  0  0  0  3  0  0  0  0  0  0
  -24.9160  -27.6010   19.5370 C   0  0  0  0  0  3  0  0  0  0  0  0
  -23.7180  -29.7740   20.2100 C   0  0  0  0  0  2  0  0  0  0  0  0
  -24.7720  -31.0230   22.1310 N   0  0  0  0  0  0  0  0  0  0  0  0
  -23.6160  -32.1410   23.7480 O   0  0  0  0  0  0  0  0  0  0  0  0
  -22.8160  -29.4530   22.5570 C   0  0  0  0  0  0  0  0  0  0  0  0
  -21.4860  -29.2870   22.4410 N   0  0  0  0  0  0  0  0  0  0  0  0
  -23.4890  -28.8250   23.3790 O   0  0  0  0  0  0  0  0  0  0  0  0
  -20.9990  -29.8540   21.7620 H   0  0  0  0  0  0  0  0  0  0  0  0
  -18.1070  -28.0760   22.9540 C   0  0  0  0  0  0  0  0  0  0  0  0
  -20.6660  -28.3490   23.2150 C   0  0  0  0  0  3  0  0  0  0  0  0
  -20.7710  -26.9130   22.6500 C   0  0  0  0  0  2  0  0  0  0  0  0
  -19.6690  -26.5820   21.6370 C   0  0  0  0  0  2  0  0  0  0  0  0
  -18.2870  -26.7240   22.2800 C   0  0  0  0  0  2  0  0  0  0  0  0
  -19.2240  -28.8430   23.3780 C   0  0  0  0  0  0  0  0  0  0  0  0
  -19.0030  -30.1050   23.9710 C   0  0  0  0  0  3  0  0  0  0  0  0
  -17.6980  -30.6000   24.1420 C   0  0  0  0  0  3  0  0  0  0  0  0
  -16.5950  -29.8310   23.7310 C   0  0  0  0  0  3  0  0  0  0  0  0
  -16.8000  -28.5700   23.1440 C   0  0  0  0  0  3  0  0  0  0  0  0
  -25.9790  -32.4910   23.8440 C   0  0  0  0  0  3  0  0  0  0  0  0
  -26.4970  -31.7200   25.1200 C   0  0  1  0  0  0  0  0  0  0  0  0
  -25.4010  -31.4850   26.1920 C   0  0  0  0  0  1  0  0  0  0  0  0
  -27.0770  -30.3420   24.7280 C   0  0  0  0  0  1  0  0  0  0  0  0
  -27.6510  -32.5140   25.7780 C   0  0  0  0  0  1  0  0  0  0  0  0
  -25.6620  -33.8850   24.1880 N   0  0  0  0  0  0  0  0  0  0  0  0
  -25.9670  -34.9520   23.4360 C   0  0  0  0  0  0  0  0  0  0  0  0
  -26.6130  -34.8620   22.3880 O   0  0  0  0  0  0  0  0  0  0  0  0
  -25.0970  -34.0310   25.0120 H   0  0  0  0  0  0  0  0  0  0  0  0
  -24.2080  -36.7340   23.1620 C   0  0  0  0  0  1  0  0  0  0  0  0
  -25.4830  -36.3320   23.9200 C   0  0  0  0  0  3  0  0  0  0  0  0
  -27.6360  -37.2400   24.6760 C   0  0  0  0  0  1  0  0  0  0  0  0
  -26.4960  -37.4020   23.7770 N   0  0  0  0  0  0  0  0  0  0  0  0
  -26.0840  -38.3140   23.9570 H   0  0  0  0  0  0  0  0  0  0  0  0
  1  5  1  0
  3  1  1  0
  3  6  1  0
  4  2  1  0
  5  7  1  0
  5  2  1  0
  6 49  1  0
  6  4  1  0
  7  9  1  0
  8  7  1  0
 10  7  1  0
 10 12  1  0
 12 11  1  0
 13 12  1  0
 14 19  1  0
 15 16  1  0
 15 14  1  0
 17 16  1  0
 17 24  1  0
 17 18  1  0
 19 13  1  0
 19 18  1  0
 20 13  2  0
 21 22  2  0
 22 41  1  0
 23 22  1  0
 23 26  1  0
 24 25  1  0
 24 21  1  0
 25 23  2  0
 26 27  1  0
 27 28  2  0
 29 32  1  0
 29 28  1  0
 30 29  2  0
 31 30  1  0
 31 26  2  0
 32 33  1  0
 33 34  1  0
 34 35  2  0
 36 35  1  0
 36 40  1  0
 37 36  2  0
 38 33  2  0
 38 37  1  0
 39 38  1  0
 41 42  1  0
 42 45  1  0
 42 44  1  0
 43 41  2  0
 46 21  1  0
 46 47  1  0
 48 46  1  0
 50 61  2  0
 51 49  1  0
 51 56  1  0
 52 60  1  0
 52 62  1  0
 53 59  1  0
 53 55  1  0
 54 60  1  0
 55 54  1  0
 56 55  2  0
 57 51  2  0
 58 57  1  0
 58 53  2  0
 59 52  1  0
 60 50  1  0
 62 64  2  0
 63 62  1  0
 65 63  1  0
 66 75  2  0
 66 71  1  0
 67 63  1  0
 67 71  1  0
 68 67  1  0
 69 70  1  0
 69 68  1  0
 70 66  1  0
 71 72  2  0
 72 73  1  0
 74 73  2  0
 75 74  1  0
 76 50  1  0
 76 81  1  0
 76 77  1  0
 77 80  1  1
 77 78  1  0
 79 77  1  0
 81 84  1  0
 82 86  1  0
 82 81  1  0
 83 82  2  0
 86 85  1  0
 88 86  1  0
 88 89  1  0
 88 87  1  0
M  ISO  4   6 101  12 100  13 100  49 101
M  END
>  <TORSDO>  (81) 
F 19

>  <SCORE>  (81) 
-14.350

>  <name>  (81) 
80

>  <ligand_id>  (81) 
80

>  <original_smiles>  (81) 
[H]c1c([H])c([H])c2c(c1[H])C([H])([H])C([H])([H])C([H])([H])C2([H])N([H])C(=O)C1([H])N(C(=O)C([H])(N([H])C(=O)C([H])(N([H])C([H])([H])[H])C([H])([H])[H])C(C([H])([H])[H])(C([H])([H])[H])C([H])([H])[H])C([H])([H])c2c([H])c(OC3([H])C([H])([H])C([H])([H])C([H])([N+]([H])([H])C([H])([H])C([H])(C(=O)N4C([H])([H])C([H])([H])C([H])([H])C([H])(n5nc(-c6c([H])c([H])c(Oc7c([H])c([H])c(F)c([H])c7F)c([H])c6[H])c(C(=O)N([H])[H])c5N([H])[H])C4([H])[H])C([H])([H])[H])C([H])([H])C3([H])[H])c([H])c([H])c2C1([H])[H]

>  <smiles>  (81) 
[H]c1c([H])c([H])c2c(c1[H])C([H])([H])C([H])([H])C([H])([H])C2([H])N([H])C(=O)C1([H])N(C(=O)C([H])(N([H])C(=O)C([H])(N([H])C([H])([H])[H])C([H])([H])[H])C(C([H])([H])[H])(C([H])([H])[H])C([H])([H])[H])C([H])([H])c2c([H])c(OC3([H])C([H])([H])C([H])([H])C([H])([N+]([H])([H])C([H])([H])C([H])(C(=O)N4C([H])([H])C([H])([H])C([H])([H])C([H])(n5nc(-c6c([H])c([H])c(Oc7c([H])c([H])c(F)c([H])c7F)c([H])c6[H])c(C(=O)N([H])[H])c5N([H])[H])C4([H])[H])C([H])([H])[H])C([H])([H])C3([H])[H])c([H])c([H])c2C1([H])[H]

$$$$
81:0:0
     RDKit          3D

 89 97  0  0  1  0  0  0  0  0999 V2000
  -29.4280  -20.5800   19.4380 C   0  0  0  0  0  0  0  0  0  0  0  0
  -29.1600  -21.7980   20.1260 N   0  0  0  0  0  0  0  0  0  0  0  0
  -29.4820  -20.6240   18.2100 O   0  0  0  0  0  0  0  0  0  0  0  0
  -29.0880  -21.6970   21.1310 H   0  0  0  0  0  0  0  0  0  0  0  0
  -30.7130  -14.9670   19.5400 C   0  0  0  0  0  0  0  0  0  0  0  0
  -30.4710  -12.6520   18.4940 C   0  0  0  0  0  2  0  0  0  0  0  0
  -29.3890  -12.6850   17.3850 C   0  0  0  0  0  2  0  0  0  0  0  0
  -27.9800  -12.4580   17.9740 C   0  0  0  0  0  2  0  0  0  0  0  0
  -27.7460  -13.3010   19.2550 C   0  0  0  0  0  3  0  0  0  0  0  0
  -28.9310  -13.1670   20.2240 C   0  0  0  0  0  2  0  0  0  0  0  0
  -30.1140  -13.6910   19.5140 N   0  0  0  0  0  0  0  0  0  0  0  0
  -31.8290  -15.0350   19.0050 O   0  0  0  0  0  0  0  0  0  0  0  0
  -29.0490  -17.4900   21.9020 C   0  0  0  0  0  2  0  0  0  0  0  0
  -28.6210  -18.7260   21.1010 C   0  0  0  0  0  2  0  0  0  0  0  0
  -29.1290  -16.1870   21.0790 C   0  0  0  0  0  2  0  0  0  0  0  0
  -30.0960  -17.6540   19.2770 C   0  0  0  0  0  2  0  0  0  0  0  0
  -29.7280  -19.0880   20.1140 C   0  0  0  0  0  3  0  0  0  0  0  0
  -30.0050  -16.1850   19.8910 N   0  0  0  0  0  0  0  0  0  0  0  0
  -25.4830  -13.8690   20.3110 C   0  0  0  0  0  0  0  0  0  0  0  0
  -24.4690  -13.0870   20.7860 C   0  0  0  0  0  0  0  0  0  0  0  0
  -24.9100  -11.7360   20.6380 C   0  0  0  0  0  0  0  0  0  0  0  0
  -26.4760  -12.9970   19.9020 N   0  0  0  0  0  0  0  0  0  0  0  0
  -26.1490  -11.7050   20.1620 N   0  0  0  0  0  0  0  0  0  0  0  0
  -24.1970  -10.4710   20.8610 C   0  0  0  0  0  0  0  0  0  0  0  0
  -24.6730   -9.5040   21.7730 C   0  0  0  0  0  3  0  0  0  0  0  0
  -23.9560   -8.3060   21.9830 C   0  0  0  0  0  3  0  0  0  0  0  0
  -22.7490   -8.0680   21.2840 C   0  0  0  0  0  0  0  0  0  0  0  0
  -22.2940   -9.0240   20.3590 C   0  0  0  0  0  3  0  0  0  0  0  0
  -23.0120  -10.2130   20.1460 C   0  0  0  0  0  3  0  0  0  0  0  0
  -21.9990   -6.9240   21.4050 O   0  0  0  0  0  0  0  0  0  0  0  0
  -21.9230   -6.2370   22.5910 C   0  0  0  0  0  0  0  0  0  0  0  0
  -21.4610   -6.8460   23.7780 C   0  0  0  0  0  3  0  0  0  0  0  0
  -21.3320   -6.0830   24.9550 C   0  0  0  0  0  3  0  0  0  0  0  0
  -21.6560   -4.7140   24.9480 C   0  0  0  0  0  0  0  0  0  0  0  0
  -22.1100   -4.1030   23.7650 C   0  0  0  0  0  3  0  0  0  0  0  0
  -22.2400   -4.8620   22.5890 C   0  0  0  0  0  0  0  0  0  0  0  0
  -22.6590   -4.2650   21.4470 F   0  0  0  0  0  0  0  0  0  0  0  0
  -21.5230   -3.9810   26.0760 F   0  0  0  0  0  0  0  0  0  0  0  0
  -23.1250  -13.5610   21.2570 C   0  0  0  0  0  0  0  0  0  0  0  0
  -22.5140  -12.8450   22.1950 N   0  0  0  0  0  0  0  0  0  0  0  0
  -22.6290  -14.6030   20.8260 O   0  0  0  0  0  0  0  0  0  0  0  0
  -22.9270  -12.0000   22.5610 H   0  0  0  0  0  0  0  0  0  0  0  0
  -21.6210  -13.1490   22.5530 H   0  0  0  0  0  0  0  0  0  0  0  0
  -25.6270  -15.2450   20.1660 N   0  0  0  0  0  0  0  0  0  0  0  0
  -24.8960  -15.8960   20.4310 H   0  0  0  0  0  0  0  0  0  0  0  0
  -26.4190  -15.7000   19.7320 H   0  0  0  0  0  0  0  0  0  0  0  0
  -29.1010  -23.3070   19.6300 C   0  0  0  0  0  3  0  0  0  0  0  0
  -28.3220  -24.5890   20.4130 C   0  0  0  0  0  3  0  0  0  0  0  0
  -28.5600  -26.1270   20.2340 O   0  0  0  0  0  0  0  0  0  0  0  0
  -24.8030  -31.7590   23.2160 C   0  0  0  0  0  0  0  0  0  0  0  0
  -27.4890  -27.0930   20.2070 C   0  0  0  0  0  0  0  0  0  0  0  0
  -23.6560  -30.3690   21.5320 C   0  0  0  0  0  3  0  0  0  0  0  0
  -25.1540  -28.8220   20.1280 C   0  0  0  0  0  0  0  0  0  0  0  0
  -26.2110  -30.6550   21.4380 C   0  0  0  0  0  2  0  0  0  0  0  0
  -26.3120  -29.2700   20.7780 C   0  0  0  0  0  0  0  0  0  0  0  0
  -27.4800  -28.4180   20.8020 C   0  0  0  0  0  3  0  0  0  0  0  0
  -26.3090  -26.7470   19.5170 C   0  0  0  0  0  3  0  0  0  0  0  0
  -25.1650  -27.5750   19.4850 C   0  0  0  0  0  3  0  0  0  0  0  0
  -23.9200  -29.7090   20.1520 C   0  0  0  0  0  2  0  0  0  0  0  0
  -24.9080  -30.9510   22.1160 N   0  0  0  0  0  0  0  0  0  0  0  0
  -23.7010  -32.0270   23.7190 O   0  0  0  0  0  0  0  0  0  0  0  0
  -22.9630  -29.3440   22.4650 C   0  0  0  0  0  0  0  0  0  0  0  0
  -21.6400  -29.1660   22.3040 N   0  0  0  0  0  0  0  0  0  0  0  0
  -23.6200  -28.7100   23.2940 O   0  0  0  0  0  0  0  0  0  0  0  0
  -21.1640  -29.7270   21.6120 H   0  0  0  0  0  0  0  0  0  0  0  0
  -18.2610  -27.9310   22.7090 C   0  0  0  0  0  0  0  0  0  0  0  0
  -20.8090  -28.2140   23.0490 C   0  0  0  0  0  3  0  0  0  0  0  0
  -20.9400  -26.7870   22.4660 C   0  0  0  0  0  2  0  0  0  0  0  0
  -19.8690  -26.4640   21.4200 C   0  0  0  0  0  2  0  0  0  0  0  0
  -18.4690  -26.5900   22.0270 C   0  0  0  0  0  2  0  0  0  0  0  0
  -19.3600  -28.7010   23.1760 C   0  0  0  0  0  0  0  0  0  0  0  0
  -19.1130  -29.9550   23.7730 C   0  0  0  0  0  3  0  0  0  0  0  0
  -17.7970  -30.4400   23.9090 C   0  0  0  0  0  3  0  0  0  0  0  0
  -16.7120  -29.6670   23.4610 C   0  0  0  0  0  3  0  0  0  0  0  0
  -16.9450  -28.4140   22.8660 C   0  0  0  0  0  3  0  0  0  0  0  0
  -26.0590  -32.3990   23.8820 C   0  0  0  0  0  3  0  0  0  0  0  0
  -25.7170  -33.7820   24.2490 N   0  0  0  0  0  0  0  0  0  0  0  0
  -26.0400  -34.8660   23.5300 C   0  0  0  0  0  0  0  0  0  0  0  0
  -26.7260  -34.8090   22.5060 O   0  0  0  0  0  0  0  0  0  0  0  0
  -25.1180  -33.9030   25.0520 H   0  0  0  0  0  0  0  0  0  0  0  0
  -24.2840  -36.6370   23.2150 C   0  0  0  0  0  1  0  0  0  0  0  0
  -25.5220  -36.2290   24.0290 C   0  0  0  0  0  3  0  0  0  0  0  0
  -27.6260  -37.1260   24.9190 C   0  0  0  0  0  1  0  0  0  0  0  0
  -26.5350  -37.3060   23.9650 N   0  0  0  0  0  0  0  0  0  0  0  0
  -26.1070  -38.2110   24.1430 H   0  0  0  0  0  0  0  0  0  0  0  0
  -26.5640  -31.6050   25.1480 C   0  0  1  0  0  0  0  0  0  0  0  0
  -25.4560  -31.3180   26.1890 C   0  0  0  0  0  1  0  0  0  0  0  0
  -27.1860  -30.2510   24.7370 C   0  0  0  0  0  1  0  0  0  0  0  0
  -27.6830  -32.4060   25.8570 C   0  0  0  0  0  1  0  0  0  0  0  0
  1  2  1  0
  2  4  1  0
  3  1  2  0
  5 18  1  0
  6 11  1  0
  7  8  1  0
  7  6  1  0
  9  8  1  0
  9 22  1  0
  9 10  1  0
 11  5  1  0
 11 10  1  0
 12  5  2  0
 14 13  1  0
 15 13  1  0
 16 18  1  0
 16 17  1  0
 17  1  1  0
 17 14  1  0
 18 15  1  0
 19 20  2  0
 20 39  1  0
 21 20  1  0
 21 24  1  0
 22 23  1  0
 22 19  1  0
 23 21  2  0
 24 25  1  0
 25 26  2  0
 27 30  1  0
 27 26  1  0
 28 27  2  0
 29 28  1  0
 29 24  2  0
 30 31  1  0
 31 32  1  0
 32 33  2  0
 34 33  1  0
 34 38  1  0
 35 34  2  0
 36 31  2  0
 36 35  1  0
 37 36  1  0
 39 40  1  0
 40 43  1  0
 40 42  1  0
 41 39  2  0
 44 19  1  0
 44 45  1  0
 46 44  1  0
 47  2  1  0
 47 48  2  0
 49 48  1  0
 50 61  2  0
 51 49  1  0
 51 56  1  0
 52 60  1  0
 52 62  1  0
 53 59  1  0
 53 55  1  0
 54 60  1  0
 55 56  2  0
 55 54  1  0
 57 51  2  0
 58 57  1  0
 58 53  2  0
 59 52  1  0
 60 50  1  0
 62 64  2  0
 63 62  1  0
 65 63  1  0
 66 75  2  0
 66 71  1  0
 67 63  1  0
 67 71  1  0
 68 67  1  0
 69 70  1  0
 69 68  1  0
 70 66  1  0
 71 72  2  0
 72 73  1  0
 74 73  2  0
 75 74  1  0
 76 50  1  0
 76 77  1  0
 76 86  1  0
 77 80  1  0
 78 82  1  0
 78 77  1  0
 79 78  2  0
 82 81  1  0
 84 82  1  0
 84 85  1  0
 84 83  1  0
 86 89  1  1
 86 87  1  0
 88 86  1  0
M  ISO  4   5 100  18 100  48 101  49 101
M  END
>  <TORSDO>  (82) 
F 18

>  <SCORE>  (82) 
-11.624

>  <name>  (82) 
81

>  <ligand_id>  (82) 
81

>  <original_smiles>  (82) 
[H]c1c([H])c([H])c2c(c1[H])C([H])([H])C([H])([H])C([H])([H])C2([H])N([H])C(=O)C1([H])N(C(=O)C([H])(N([H])C(=O)C([H])(N([H])C([H])([H])[H])C([H])([H])[H])C(C([H])([H])[H])(C([H])([H])[H])C([H])([H])[H])C([H])([H])c2c([H])c(OC([H])([H])C([H])([H])N([H])C(=O)C3([H])C([H])([H])N(C(=O)N4C([H])([H])C([H])([H])C([H])([H])C([H])(n5nc(-c6c([H])c([H])c(Oc7c([H])c([H])c(F)c([H])c7F)c([H])c6[H])c(C(=O)N([H])[H])c5N([H])[H])C4([H])[H])C([H])([H])C([H])([H])C3([H])[H])c([H])c([H])c2C1([H])[H]

>  <smiles>  (82) 
[H]c1c([H])c([H])c2c(c1[H])C([H])([H])C([H])([H])C([H])([H])C2([H])N([H])C(=O)C1([H])N(C(=O)C([H])(N([H])C(=O)C([H])(N([H])C([H])([H])[H])C([H])([H])[H])C(C([H])([H])[H])(C([H])([H])[H])C([H])([H])[H])C([H])([H])c2c([H])c(OC([H])([H])C([H])([H])N([H])C(=O)C3([H])C([H])([H])N(C(=O)N4C([H])([H])C([H])([H])C([H])([H])C([H])(n5nc(-c6c([H])c([H])c(Oc7c([H])c([H])c(F)c([H])c7F)c([H])c6[H])c(C(=O)N([H])[H])c5N([H])[H])C4([H])[H])C([H])([H])C([H])([H])C3([H])[H])c([H])c([H])c2C1([H])[H]

$$$$
82:0:0
     RDKit          3D

 98106  0  0  1  0  0  0  0  0999 V2000
  -30.8500  -14.7520   20.2830 C   0  0  0  0  0  0  0  0  0  0  0  0
  -30.5830  -12.5030   19.2040 C   0  0  0  0  0  2  0  0  0  0  0  0
  -29.6280  -12.6110   17.9940 C   0  0  0  0  0  2  0  0  0  0  0  0
  -28.1590  -12.4750   18.4410 C   0  0  0  0  0  2  0  0  0  0  0  0
  -27.8250  -13.3600   19.6710 C   0  0  0  0  0  3  0  0  0  0  0  0
  -28.8920  -13.2200   20.7770 C   0  0  0  0  0  2  0  0  0  0  0  0
  -30.1860  -13.5500   20.1680 N   0  0  0  0  0  0  0  0  0  0  0  0
  -32.0540  -14.8130   20.0130 O   0  0  0  0  0  0  0  0  0  0  0  0
  -30.9250  -18.4300   22.9870 C   0  0  0  0  0  3  0  0  0  0  0  0
  -30.7990  -17.2340   22.2680 C   0  0  0  0  0  3  0  0  0  0  0  0
  -30.6170  -19.6810   22.4030 C   0  0  0  0  0  0  0  0  0  0  0  0
  -30.1840  -19.7050   21.0410 C   0  0  0  0  0  0  0  0  0  0  0  0
  -30.3380  -17.2390   20.9440 C   0  0  0  0  0  0  0  0  0  0  0  0
  -30.0290  -18.4800   20.3700 N   0  0  0  0  0  0  0  0  0  0  0  0
  -30.0710  -15.8990   20.3830 N   0  0  0  0  0  0  0  0  0  0  0  0
  -29.0930  -15.7230   20.2300 H   0  0  0  0  0  0  0  0  0  0  0  0
  -25.4590  -14.0260   20.4070 C   0  0  0  0  0  0  0  0  0  0  0  0
  -24.3760  -13.2830   20.7870 C   0  0  0  0  0  0  0  0  0  0  0  0
  -24.8030  -11.9200   20.7650 C   0  0  0  0  0  0  0  0  0  0  0  0
  -26.4780  -13.1150   20.1730 N   0  0  0  0  0  0  0  0  0  0  0  0
  -26.0900  -11.8450   20.4520 N   0  0  0  0  0  0  0  0  0  0  0  0
  -24.0450  -10.6790   20.9660 C   0  0  0  0  0  0  0  0  0  0  0  0
  -24.4690   -9.6950   21.8860 C   0  0  0  0  0  3  0  0  0  0  0  0
  -23.7130   -8.5180   22.0750 C   0  0  0  0  0  3  0  0  0  0  0  0
  -22.5170   -8.3180   21.3440 C   0  0  0  0  0  0  0  0  0  0  0  0
  -22.1120   -9.2900   20.4130 C   0  0  0  0  0  3  0  0  0  0  0  0
  -22.8680  -10.4590   20.2210 C   0  0  0  0  0  3  0  0  0  0  0  0
  -21.7320   -7.1960   21.4430 O   0  0  0  0  0  0  0  0  0  0  0  0
  -21.7160   -6.4260   22.5790 C   0  0  0  0  0  0  0  0  0  0  0  0
  -21.3520   -6.9590   23.8350 C   0  0  0  0  0  3  0  0  0  0  0  0
  -21.2830   -6.1180   24.9630 C   0  0  0  0  0  3  0  0  0  0  0  0
  -21.5670   -4.7440   24.8370 C   0  0  0  0  0  0  0  0  0  0  0  0
  -21.9240   -4.2110   23.5860 C   0  0  0  0  0  3  0  0  0  0  0  0
  -21.9950   -5.0500   22.4600 C   0  0  0  0  0  0  0  0  0  0  0  0
  -22.3190   -4.5270   21.2520 F   0  0  0  0  0  0  0  0  0  0  0  0
  -21.4920   -3.9350   25.9180 F   0  0  0  0  0  0  0  0  0  0  0  0
  -22.9930  -13.7990   21.0580 C   0  0  0  0  0  0  0  0  0  0  0  0
  -22.2590  -13.1440   21.9510 N   0  0  0  0  0  0  0  0  0  0  0  0
  -22.5730  -14.8190   20.5130 O   0  0  0  0  0  0  0  0  0  0  0  0
  -22.6130  -12.3180   22.4100 H   0  0  0  0  0  0  0  0  0  0  0  0
  -21.3320  -13.4740   22.1780 H   0  0  0  0  0  0  0  0  0  0  0  0
  -25.6550  -15.3920   20.2170 N   0  0  0  0  0  0  0  0  0  0  0  0
  -24.8950  -16.0550   20.3230 H   0  0  0  0  0  0  0  0  0  0  0  0
  -26.4900  -15.8130   19.8350 H   0  0  0  0  0  0  0  0  0  0  0  0
  -30.1340  -21.0930   20.2250 C   0  0  0  0  0  2  0  0  0  0  0  0
  -29.0800  -22.1990   20.4480 N   0  0  0  0  0  4  0  0  0  0  0  0
  -28.6500  -22.0680   21.3460 H   0  0  0  0  0  0  0  0  0  0  0  0
  -28.3540  -21.9890   19.7790 H   0  0  0  0  0  0  0  0  0  0  0  0
  -29.4700  -23.6950   20.2830 C   0  0  0  0  0  3  0  0  0  0  0  0
  -28.3010  -24.8190   20.1840 C   0  0  0  0  0  3  0  0  0  0  0  0
  -28.5560  -26.3130   20.1480 O   0  0  0  0  0  0  0  0  0  0  0  0
  -24.5890  -31.6540   23.0970 C   0  0  0  0  0  0  0  0  0  0  0  0
  -27.4420  -27.1870   20.0660 C   0  0  0  0  0  0  0  0  0  0  0  0
  -23.4920  -30.2490   21.3950 C   0  0  0  0  0  3  0  0  0  0  0  0
  -25.0410  -28.7740   19.9910 C   0  0  0  0  0  0  0  0  0  0  0  0
  -26.0310  -30.6370   21.3110 C   0  0  0  0  0  2  0  0  0  0  0  0
  -26.1780  -29.2720   20.6410 C   0  0  0  0  0  0  0  0  0  0  0  0
  -27.3820  -28.4950   20.6620 C   0  0  0  0  0  3  0  0  0  0  0  0
  -26.2800  -26.7700   19.3750 C   0  0  0  0  0  3  0  0  0  0  0  0
  -25.1010  -27.5340   19.3450 C   0  0  0  0  0  3  0  0  0  0  0  0
  -23.7780  -29.6130   20.0110 C   0  0  0  0  0  2  0  0  0  0  0  0
  -24.7220  -30.8650   21.9900 N   0  0  0  0  0  0  0  0  0  0  0  0
  -23.4790  -31.8850   23.5950 O   0  0  0  0  0  0  0  0  0  0  0  0
  -22.8310  -29.1910   22.3110 C   0  0  0  0  0  0  0  0  0  0  0  0
  -21.5060  -29.0050   22.1700 N   0  0  0  0  0  0  0  0  0  0  0  0
  -23.5090  -28.5430   23.1120 O   0  0  0  0  0  0  0  0  0  0  0  0
  -21.0160  -29.5840   21.5030 H   0  0  0  0  0  0  0  0  0  0  0  0
  -18.1270  -27.8020   22.6600 C   0  0  0  0  0  0  0  0  0  0  0  0
  -20.6910  -28.0340   22.9030 C   0  0  0  0  0  3  0  0  0  0  0  0
  -20.7750  -26.6320   22.2560 C   0  0  0  0  0  2  0  0  0  0  0  0
  -19.6560  -26.3660   21.2430 C   0  0  0  0  0  2  0  0  0  0  0  0
  -18.2840  -26.4880   21.9130 C   0  0  0  0  0  2  0  0  0  0  0  0
  -19.2570  -28.5350   23.1110 C   0  0  0  0  0  0  0  0  0  0  0  0
  -19.0540  -29.7660   23.7700 C   0  0  0  0  0  3  0  0  0  0  0  0
  -17.7550  -30.2650   23.9810 C   0  0  0  0  0  3  0  0  0  0  0  0
  -16.6400  -29.5300   23.5430 C   0  0  0  0  0  3  0  0  0  0  0  0
  -16.8270  -28.2990   22.8890 C   0  0  0  0  0  3  0  0  0  0  0  0
  -25.8270  -32.3210   23.7730 C   0  0  0  0  0  3  0  0  0  0  0  0
  -25.4550  -33.7010   24.1170 N   0  0  0  0  0  0  0  0  0  0  0  0
  -25.7690  -34.7790   23.3850 C   0  0  0  0  0  0  0  0  0  0  0  0
  -26.4670  -34.7190   22.3710 O   0  0  0  0  0  0  0  0  0  0  0  0
  -24.8410  -33.8210   24.9080 H   0  0  0  0  0  0  0  0  0  0  0  0
  -23.9860  -36.5150   23.0160 C   0  0  0  0  0  1  0  0  0  0  0  0
  -25.2180  -36.1410   23.8540 C   0  0  0  0  0  3  0  0  0  0  0  0
  -27.2920  -37.0930   24.7640 C   0  0  0  0  0  1  0  0  0  0  0  0
  -26.2150  -37.2330   23.7870 N   0  0  0  0  0  0  0  0  0  0  0  0
  -25.7700  -38.1350   23.9330 H   0  0  0  0  0  0  0  0  0  0  0  0
  -26.3250  -31.5470   25.0560 C   0  0  1  0  0  0  0  0  0  0  0  0
  -25.2050  -31.2530   26.0800 C   0  0  0  0  0  1  0  0  0  0  0  0
  -26.9720  -30.1980   24.6650 C   0  0  0  0  0  1  0  0  0  0  0  0
  -27.4180  -32.3740   25.7730 C   0  0  0  0  0  1  0  0  0  0  0  0
  -30.8460  -20.9330   23.2730 C   0  0  0  0  0  3  0  0  0  0  0  0
  -29.8610  -21.0140   24.3710 N   0  0  0  0  0  4  0  0  0  0  0  0
  -29.9730  -20.2640   25.0280 H   0  0  0  0  0  0  0  0  0  0  0  0
  -28.9150  -20.9840   24.0310 H   0  0  0  0  0  0  0  0  0  0  0  0
  -29.9730  -21.8770   24.8770 H   0  0  0  0  0  0  0  0  0  0  0  0
  -33.3700  -20.8760   22.7370 C   0  0  0  0  0  1  0  0  0  0  0  0
  -32.2910  -21.0220   23.8200 C   0  0  0  0  0  2  0  0  0  0  0  0
  1 15  1  0
  2  7  1  0
  3  4  1  0
  3  2  1  0
  5  4  1  0
  5 20  1  0
  5  6  1  0
  7  1  1  0
  7  6  1  0
  8  1  2  0
 10  9  2  0
 11  9  1  0
 11 92  1  0
 12 11  2  0
 13 10  1  0
 14 13  2  0
 14 12  1  0
 15 13  1  0
 16 15  1  0
 17 18  2  0
 18 37  1  0
 19 18  1  0
 19 22  1  0
 20 17  1  0
 20 21  1  0
 21 19  2  0
 22 23  1  0
 23 24  2  0
 25 28  1  0
 25 24  1  0
 26 25  2  0
 27 26  1  0
 27 22  2  0
 28 29  1  0
 29 30  1  0
 30 31  2  0
 32 31  1  0
 32 36  1  0
 33 32  2  0
 34 29  2  0
 34 33  1  0
 35 34  1  0
 37 38  1  0
 38 41  1  0
 38 40  1  0
 39 37  2  0
 42 43  1  0
 42 17  1  0
 44 42  1  0
 45 46  1  0
 45 12  1  0
 46 47  1  0
 48 46  1  0
 49 46  1  0
 50 49  2  0
 51 50  1  0
 52 63  2  0
 53 51  1  0
 53 58  1  0
 54 62  1  0
 54 64  1  0
 55 61  1  0
 55 57  1  0
 56 62  1  0
 57 58  2  0
 57 56  1  0
 59 53  2  0
 60 59  1  0
 60 55  2  0
 61 54  1  0
 62 52  1  0
 64 66  2  0
 65 64  1  0
 67 65  1  0
 68 77  2  0
 68 73  1  0
 69 65  1  0
 69 73  1  0
 70 69  1  0
 71 72  1  0
 71 70  1  0
 72 68  1  0
 73 74  2  0
 74 75  1  0
 76 75  2  0
 77 76  1  0
 78 52  1  0
 78 79  1  0
 78 88  1  0
 79 82  1  0
 80 84  1  0
 80 79  1  0
 81 80  2  0
 84 83  1  0
 86 84  1  0
 86 87  1  0
 86 85  1  0
 88 91  1  1
 88 89  1  0
 90 88  1  0
 92 98  1  0
 92 93  1  0
 93 96  1  0
 93 94  1  0
 95 93  1  0
 97 98  1  0
M  ISO  4   1 100  15 100  50 101  51 101
M  END
>  <TORSDO>  (83) 
F 22

>  <SCORE>  (83) 
-13.128

>  <name>  (83) 
82

>  <ligand_id>  (83) 
82

>  <original_smiles>  (83) 
[H]c1c(N([H])C(=O)N2C([H])([H])C([H])([H])C([H])([H])C([H])(n3nc(-c4c([H])c([H])c(Oc5c([H])c([H])c(F)c([H])c5F)c([H])c4[H])c(C(=O)N([H])[H])c3N([H])[H])C2([H])[H])nc(C([H])([H])[N+]([H])([H])C([H])([H])C([H])([H])Oc2c([H])c([H])c3c(c2[H])C([H])([H])N(C(=O)C([H])(N([H])C(=O)C([H])(N([H])C([H])([H])[H])C([H])([H])[H])C(C([H])([H])[H])(C([H])([H])[H])C([H])([H])[H])C([H])(C(=O)N([H])C2([H])c4c([H])c([H])c([H])c([H])c4C([H])([H])C([H])([H])C2([H])[H])C3([H])[H])c(C([H])(C([H])([H])C([H])([H])[H])[N+]([H])([H])[H])c1[H]

>  <smiles>  (83) 
[H]c1c(N([H])C(=O)N2C([H])([H])C([H])([H])C([H])([H])C([H])(n3nc(-c4c([H])c([H])c(Oc5c([H])c([H])c(F)c([H])c5F)c([H])c4[H])c(C(=O)N([H])[H])c3N([H])[H])C2([H])[H])nc(C([H])([H])[N+]([H])([H])C([H])([H])C([H])([H])Oc2c([H])c([H])c3c(c2[H])C([H])([H])N(C(=O)C([H])(N([H])C(=O)C([H])(N([H])C([H])([H])[H])C([H])([H])[H])C(C([H])([H])[H])(C([H])([H])[H])C([H])([H])[H])C([H])(C(=O)N([H])C2([H])c4c([H])c([H])c([H])c([H])c4C([H])([H])C([H])([H])C2([H])[H])C3([H])[H])c(C([H])(C([H])([H])C([H])([H])[H])[N+]([H])([H])[H])c1[H]

$$$$
83:0:0
     RDKit          3D

 93101  0  0  1  0  0  0  0  0999 V2000
  -29.4560  -20.5450   20.6700 N   0  0  0  0  0  4  0  0  0  0  0  0
  -30.4300  -20.7890   20.7350 H   0  0  0  0  0  0  0  0  0  0  0  0
  -29.1340  -20.4300   21.6170 H   0  0  0  0  0  0  0  0  0  0  0  0
  -30.5780  -15.0770   20.4190 C   0  0  0  0  0  0  0  0  0  0  0  0
  -30.4960  -12.7150   19.5140 C   0  0  0  0  0  2  0  0  0  0  0  0
  -29.5780  -12.5980   18.2760 C   0  0  0  0  0  2  0  0  0  0  0  0
  -28.1220  -12.3580   18.7110 C   0  0  0  0  0  2  0  0  0  0  0  0
  -27.6650  -13.3230   19.8360 C   0  0  0  0  0  3  0  0  0  0  0  0
  -28.7030  -13.4200   20.9720 C   0  0  0  0  0  2  0  0  0  0  0  0
  -29.9730  -13.8240   20.3570 N   0  0  0  0  0  0  0  0  0  0  0  0
  -31.8120  -15.1100   20.3660 O   0  0  0  0  0  0  0  0  0  0  0  0
  -29.5000  -17.7330   17.9650 C   0  0  0  0  0  3  0  0  0  0  0  0
  -29.4780  -16.3570   18.6870 C   0  0  0  0  0  3  0  0  0  0  0  0
  -29.8250  -17.6850   20.8360 C   0  0  0  0  0  2  0  0  0  0  0  0
  -30.1710  -18.9040   18.7060 C   0  0  0  0  0  3  0  0  0  0  0  0
  -29.3810  -19.0890   20.0270 C   0  0  0  0  0  3  0  0  0  0  0  0
  -29.8260  -16.2660   20.1340 N   0  0  0  0  0  0  0  0  0  0  0  0
  -25.2730  -13.9040   20.5280 C   0  0  0  0  0  0  0  0  0  0  0  0
  -24.2030  -13.1240   20.8750 C   0  0  0  0  0  0  0  0  0  0  0  0
  -24.6820  -11.7780   20.8720 C   0  0  0  0  0  0  0  0  0  0  0  0
  -26.3260  -13.0290   20.3210 N   0  0  0  0  0  0  0  0  0  0  0  0
  -25.9800  -11.7480   20.6000 N   0  0  0  0  0  0  0  0  0  0  0  0
  -23.9680  -10.5090   21.0510 C   0  0  0  0  0  0  0  0  0  0  0  0
  -24.3850   -9.5570   22.0070 C   0  0  0  0  0  3  0  0  0  0  0  0
  -23.6700   -8.3510   22.1760 C   0  0  0  0  0  3  0  0  0  0  0  0
  -22.5240   -8.0900   21.3870 C   0  0  0  0  0  0  0  0  0  0  0  0
  -22.1280   -9.0320   20.4210 C   0  0  0  0  0  3  0  0  0  0  0  0
  -22.8430  -10.2270   20.2500 C   0  0  0  0  0  3  0  0  0  0  0  0
  -21.7810   -6.9370   21.4650 O   0  0  0  0  0  0  0  0  0  0  0  0
  -21.6980   -6.2120   22.6260 C   0  0  0  0  0  0  0  0  0  0  0  0
  -21.1990   -6.7720   23.8230 C   0  0  0  0  0  3  0  0  0  0  0  0
  -21.0700   -5.9720   24.9740 C   0  0  0  0  0  3  0  0  0  0  0  0
  -21.4240   -4.6110   24.9310 C   0  0  0  0  0  0  0  0  0  0  0  0
  -21.9150   -4.0490   23.7400 C   0  0  0  0  0  3  0  0  0  0  0  0
  -22.0490   -4.8470   22.5900 C   0  0  0  0  0  0  0  0  0  0  0  0
  -22.5020   -4.2960   21.4380 F   0  0  0  0  0  0  0  0  0  0  0  0
  -21.2920   -3.8380   26.0350 F   0  0  0  0  0  0  0  0  0  0  0  0
  -22.7940  -13.5900   21.1030 C   0  0  0  0  0  0  0  0  0  0  0  0
  -22.0470  -12.8940   21.9500 N   0  0  0  0  0  0  0  0  0  0  0  0
  -22.3630  -14.6070   20.5610 O   0  0  0  0  0  0  0  0  0  0  0  0
  -22.4080  -12.0740   22.4150 H   0  0  0  0  0  0  0  0  0  0  0  0
  -21.0990  -13.1880   22.1420 H   0  0  0  0  0  0  0  0  0  0  0  0
  -25.4300  -15.2730   20.3420 N   0  0  0  0  0  0  0  0  0  0  0  0
  -24.6580  -15.9250   20.4400 H   0  0  0  0  0  0  0  0  0  0  0  0
  -26.2960  -15.7180   20.0650 H   0  0  0  0  0  0  0  0  0  0  0  0
  -29.5390  -20.4870   16.8210 C   0  0  0  0  0  2  0  0  0  0  0  0
  -30.3690  -20.1360   17.8200 C   0  0  0  0  0  0  0  0  0  0  0  0
  -31.6270  -20.9450   18.1000 C   0  0  0  0  0  1  0  0  0  0  0  0
  -28.6610  -21.8120   20.1200 C   0  0  0  0  0  3  0  0  0  0  0  0
  -28.8740  -23.4100   20.6370 C   0  0  0  0  0  3  0  0  0  0  0  0
  -28.3040  -24.6980   18.4650 C   0  0  0  0  0  1  0  0  0  0  0  0
  -28.0730  -24.7480   19.9840 C   0  0  0  0  0  3  0  0  0  0  0  0
  -28.2350  -26.2560   20.3610 O   0  0  0  0  0  0  0  0  0  0  0  0
  -24.5900  -31.9470   23.2830 C   0  0  0  0  0  0  0  0  0  0  0  0
  -27.1720  -27.2330   20.2620 C   0  0  0  0  0  0  0  0  0  0  0  0
  -23.3900  -30.5460   21.6500 C   0  0  0  0  0  3  0  0  0  0  0  0
  -24.8380  -28.9730   20.2280 C   0  0  0  0  0  0  0  0  0  0  0  0
  -25.9420  -30.8220   21.4750 C   0  0  0  0  0  2  0  0  0  0  0  0
  -26.0180  -29.4270   20.8280 C   0  0  0  0  0  0  0  0  0  0  0  0
  -27.1860  -28.5740   20.8270 C   0  0  0  0  0  3  0  0  0  0  0  0
  -25.9620  -26.8860   19.6210 C   0  0  0  0  0  3  0  0  0  0  0  0
  -24.8210  -27.7160   19.6090 C   0  0  0  0  0  3  0  0  0  0  0  0
  -23.6070  -29.8650   20.2740 C   0  0  0  0  0  2  0  0  0  0  0  0
  -24.6610  -31.1270   22.1910 N   0  0  0  0  0  0  0  0  0  0  0  0
  -23.5050  -32.2280   23.8150 O   0  0  0  0  0  0  0  0  0  0  0  0
  -22.7130  -29.5390   22.6160 C   0  0  0  0  0  0  0  0  0  0  0  0
  -21.3910  -29.3520   22.4760 N   0  0  0  0  0  0  0  0  0  0  0  0
  -23.3840  -28.9320   23.4550 O   0  0  0  0  0  0  0  0  0  0  0  0
  -20.9080  -29.8920   21.7710 H   0  0  0  0  0  0  0  0  0  0  0  0
  -18.0190  -28.1130   22.9480 C   0  0  0  0  0  0  0  0  0  0  0  0
  -20.5700  -28.4140   23.2470 C   0  0  0  0  0  3  0  0  0  0  0  0
  -20.6980  -26.9760   22.6950 C   0  0  0  0  0  2  0  0  0  0  0  0
  -19.6140  -26.6250   21.6710 C   0  0  0  0  0  2  0  0  0  0  0  0
  -18.2220  -26.7590   22.2940 C   0  0  0  0  0  2  0  0  0  0  0  0
  -19.1210  -28.8980   23.3820 C   0  0  0  0  0  0  0  0  0  0  0  0
  -18.8740  -30.1640   23.9550 C   0  0  0  0  0  3  0  0  0  0  0  0
  -17.5590  -30.6460   24.1000 C   0  0  0  0  0  3  0  0  0  0  0  0
  -16.4710  -29.8600   23.6800 C   0  0  0  0  0  3  0  0  0  0  0  0
  -16.7020  -28.5950   23.1100 C   0  0  0  0  0  3  0  0  0  0  0  0
  -25.8680  -32.5870   23.9070 C   0  0  0  0  0  3  0  0  0  0  0  0
  -26.3620  -31.8390   25.2070 C   0  0  1  0  0  0  0  0  0  0  0  0
  -25.2560  -31.6310   26.2660 C   0  0  0  0  0  1  0  0  0  0  0  0
  -26.9420  -30.4510   24.8540 C   0  0  0  0  0  1  0  0  0  0  0  0
  -27.5110  -32.6430   25.8630 C   0  0  0  0  0  1  0  0  0  0  0  0
  -25.5600  -33.9940   24.2120 N   0  0  0  0  0  0  0  0  0  0  0  0
  -25.9060  -35.0330   23.4410 C   0  0  0  0  0  0  0  0  0  0  0  0
  -26.5830  -34.9100   22.4180 O   0  0  0  0  0  0  0  0  0  0  0  0
  -24.9670  -34.1640   25.0100 H   0  0  0  0  0  0  0  0  0  0  0  0
  -24.2020  -36.8400   23.0400 C   0  0  0  0  0  1  0  0  0  0  0  0
  -25.4260  -36.4330   23.8760 C   0  0  0  0  0  3  0  0  0  0  0  0
  -27.5540  -37.3120   24.7310 C   0  0  0  0  0  1  0  0  0  0  0  0
  -26.4700  -37.4760   23.7660 N   0  0  0  0  0  0  0  0  0  0  0  0
  -26.0710  -38.4020   23.8920 H   0  0  0  0  0  0  0  0  0  0  0  0
  1  2  1  0
  1  3  1  0
  5 10  1  0
  6  7  1  0
  6  5  1  0
  8  7  1  0
  8 21  1  0
  8  9  1  0
 10  4  1  0
 10  9  1  0
 11  4  2  0
 12 13  2  0
 12 15  1  0
 13 17  1  0
 15 47  1  0
 15 16  1  0
 16  1  1  0
 16 14  1  0
 17  4  1  0
 17 14  1  0
 18 19  2  0
 19 38  1  0
 20 19  1  0
 20 23  1  0
 21 18  1  0
 21 22  1  0
 22 20  2  0
 23 24  1  0
 24 25  2  0
 26 29  1  0
 26 25  1  0
 27 26  2  0
 28 27  1  0
 28 23  2  0
 29 30  1  0
 30 31  1  0
 31 32  2  0
 33 32  1  0
 33 37  1  0
 34 33  2  0
 35 30  2  0
 35 34  1  0
 36 35  1  0
 38 39  1  0
 39 42  1  0
 39 41  1  0
 40 38  2  0
 43 44  1  0
 43 18  1  0
 45 43  1  0
 46 47  2  0
 47 48  1  0
 49 50  2  0
 49  1  1  0
 52 51  1  0
 52 53  1  0
 52 50  1  0
 54 65  2  0
 55 53  1  0
 55 60  1  0
 56 64  1  0
 56 66  1  0
 57 63  1  0
 57 59  1  0
 58 64  1  0
 59 58  1  0
 60 59  2  0
 61 55  2  0
 62 61  1  0
 62 57  2  0
 63 56  1  0
 64 54  1  0
 66 68  2  0
 67 66  1  0
 69 67  1  0
 70 79  2  0
 70 75  1  0
 71 67  1  0
 71 75  1  0
 72 71  1  0
 73 74  1  0
 73 72  1  0
 74 70  1  0
 75 76  2  0
 76 77  1  0
 78 77  2  0
 79 78  1  0
 80 54  1  0
 80 85  1  0
 80 81  1  0
 81 84  1  1
 81 82  1  0
 83 81  1  0
 85 88  1  0
 86 90  1  0
 86 85  1  0
 87 86  2  0
 90 89  1  0
 92 90  1  0
 92 93  1  0
 92 91  1  0
M  ISO  4   4 100  17 100  52 101  53 101
M  END
>  <TORSDO>  (84) 
F 20

>  <SCORE>  (84) 
-13.508

>  <name>  (84) 
83

>  <ligand_id>  (84) 
83

>  <original_smiles>  (84) 
[H]C([H])=C(C([H])([H])[H])C1([H])C([H])([H])C([H])([H])N(C(=O)N2C([H])([H])C([H])([H])C([H])([H])C([H])(n3nc(-c4c([H])c([H])c(Oc5c([H])c([H])c(F)c([H])c5F)c([H])c4[H])c(C(=O)N([H])[H])c3N([H])[H])C2([H])[H])C([H])([H])C1([H])[N+]([H])([H])C([H])([H])C([H])([H])C([H])(Oc1c([H])c([H])c2c(c1[H])C([H])([H])N(C(=O)C([H])(N([H])C(=O)C([H])(N([H])C([H])([H])[H])C([H])([H])[H])C(C([H])([H])[H])(C([H])([H])[H])C([H])([H])[H])C([H])(C(=O)N([H])C1([H])c3c([H])c([H])c([H])c([H])c3C([H])([H])C([H])([H])C1([H])[H])C2([H])[H])C([H])([H])[H]

>  <smiles>  (84) 
[H]C([H])=C(C([H])([H])[H])C1([H])C([H])([H])C([H])([H])N(C(=O)N2C([H])([H])C([H])([H])C([H])([H])C([H])(n3nc(-c4c([H])c([H])c(Oc5c([H])c([H])c(F)c([H])c5F)c([H])c4[H])c(C(=O)N([H])[H])c3N([H])[H])C2([H])[H])C([H])([H])C1([H])[N+]([H])([H])C([H])([H])C([H])([H])C([H])(Oc1c([H])c([H])c2c(c1[H])C([H])([H])N(C(=O)C([H])(N([H])C(=O)C([H])(N([H])C([H])([H])[H])C([H])([H])[H])C(C([H])([H])[H])(C([H])([H])[H])C([H])([H])[H])C([H])(C(=O)N([H])C1([H])c3c([H])c([H])c([H])c([H])c3C([H])([H])C([H])([H])C1([H])[H])C2([H])[H])C([H])([H])[H]

$$$$
84:0:0
     RDKit          3D

 96105  0  0  1  0  0  0  0  0999 V2000
  -27.8500  -21.8200   19.8850 C   0  0  0  0  0  3  0  0  0  0  0  0
  -27.7410  -23.0700   19.2420 C   0  0  0  0  0  3  0  0  0  0  0  0
  -28.6280  -21.7000   21.0560 C   0  0  0  0  0  0  0  0  0  0  0  0
  -28.4020  -24.1960   19.7740 C   0  0  0  0  0  0  0  0  0  0  0  0
  -29.2230  -22.8940   21.5480 C   0  0  0  0  0  0  0  0  0  0  0  0
  -30.0270  -22.9150   22.8330 C   0  0  0  0  0  1  0  0  0  0  0  0
  -29.1220  -24.0970   20.9200 N   0  0  0  0  0  0  0  0  0  0  0  0
  -28.7340  -20.3200   21.7610 C   0  0  0  0  0  2  0  0  0  0  0  0
  -29.8420  -19.4590   21.2550 N   0  0  0  0  0  4  0  0  0  0  0  0
  -30.6630  -19.6040   21.8210 H   0  0  0  0  0  0  0  0  0  0  0  0
  -30.0550  -19.7900   20.3290 H   0  0  0  0  0  0  0  0  0  0  0  0
  -29.5860  -17.9850   21.1400 C   0  0  0  0  0  2  0  0  0  0  0  0
  -31.1530  -14.7080   20.2430 C   0  0  0  0  0  0  0  0  0  0  0  0
  -30.9000  -12.4130   19.3690 C   0  0  0  0  0  2  0  0  0  0  0  0
  -29.9680  -12.3950   18.1350 C   0  0  0  0  0  2  0  0  0  0  0  0
  -28.4730  -12.4220   18.5230 C   0  0  0  0  0  2  0  0  0  0  0  0
  -28.1240  -13.3590   19.7140 C   0  0  0  0  0  3  0  0  0  0  0  0
  -29.1710  -13.2700   20.8450 C   0  0  0  0  0  2  0  0  0  0  0  0
  -30.4830  -13.5200   20.2420 N   0  0  0  0  0  0  0  0  0  0  0  0
  -32.3770  -14.7620   20.1110 O   0  0  0  0  0  0  0  0  0  0  0  0
  -31.1770  -16.9920   18.0670 C   0  0  0  0  0  2  0  0  0  0  0  0
  -30.0740  -16.0740   18.5870 C   0  0  0  0  0  2  0  0  0  0  0  0
  -31.2230  -18.0050   19.1930 C   0  0  0  0  0  3  0  0  0  0  0  0
  -30.7710  -17.2120   20.4580 C   0  0  0  0  0  3  0  0  0  0  0  0
  -32.5520  -18.7650   19.3340 C   0  0  0  0  0  1  0  0  0  0  0  0
  -30.3910  -15.8330   20.0070 N   0  0  0  0  0  0  0  0  0  0  0  0
  -25.7500  -14.0440   20.4220 C   0  0  0  0  0  0  0  0  0  0  0  0
  -24.6550  -13.3090   20.7830 C   0  0  0  0  0  0  0  0  0  0  0  0
  -25.0760  -11.9410   20.7700 C   0  0  0  0  0  0  0  0  0  0  0  0
  -26.7670  -13.1280   20.2040 N   0  0  0  0  0  0  0  0  0  0  0  0
  -26.3680  -11.8610   20.4800 N   0  0  0  0  0  0  0  0  0  0  0  0
  -24.3080  -10.7030   20.9560 C   0  0  0  0  0  0  0  0  0  0  0  0
  -24.6760   -9.7440   21.9260 C   0  0  0  0  0  3  0  0  0  0  0  0
  -23.9110   -8.5700   22.0980 C   0  0  0  0  0  3  0  0  0  0  0  0
  -22.7640   -8.3460   21.2990 C   0  0  0  0  0  0  0  0  0  0  0  0
  -22.4160   -9.2930   20.3180 C   0  0  0  0  0  3  0  0  0  0  0  0
  -23.1820  -10.4580   20.1440 C   0  0  0  0  0  3  0  0  0  0  0  0
  -21.9780   -7.2220   21.3800 O   0  0  0  0  0  0  0  0  0  0  0  0
  -21.8190   -6.5350   22.5580 C   0  0  0  0  0  0  0  0  0  0  0  0
  -21.3170   -7.1590   23.7200 C   0  0  0  0  0  3  0  0  0  0  0  0
  -21.1030   -6.4010   24.8900 C   0  0  0  0  0  3  0  0  0  0  0  0
  -21.3850   -5.0230   24.8960 C   0  0  0  0  0  0  0  0  0  0  0  0
  -21.8820   -4.3990   23.7390 C   0  0  0  0  0  3  0  0  0  0  0  0
  -22.0960   -5.1530   22.5720 C   0  0  0  0  0  0  0  0  0  0  0  0
  -22.5560   -4.5430   21.4530 F   0  0  0  0  0  0  0  0  0  0  0  0
  -21.1740   -4.2950   26.0180 F   0  0  0  0  0  0  0  0  0  0  0  0
  -23.2690  -13.8280   21.0390 C   0  0  0  0  0  0  0  0  0  0  0  0
  -22.5180  -13.1690   21.9130 N   0  0  0  0  0  0  0  0  0  0  0  0
  -22.8620  -14.8560   20.4970 O   0  0  0  0  0  0  0  0  0  0  0  0
  -22.8560  -12.3330   22.3680 H   0  0  0  0  0  0  0  0  0  0  0  0
  -21.5900  -13.5030   22.1270 H   0  0  0  0  0  0  0  0  0  0  0  0
  -25.9660  -15.4080   20.2370 N   0  0  0  0  0  0  0  0  0  0  0  0
  -25.2240  -16.0940   20.3270 H   0  0  0  0  0  0  0  0  0  0  0  0
  -26.8350  -15.8070   19.9130 H   0  0  0  0  0  0  0  0  0  0  0  0
  -28.4660  -25.5140   18.9700 C   0  0  0  0  0  2  0  0  0  0  0  0
  -28.3690  -26.7630   19.6920 O   0  0  0  0  0  0  0  0  0  0  0  0
  -24.6080  -31.7590   23.1070 C   0  0  0  0  0  0  0  0  0  0  0  0
  -27.1790  -27.4710   19.7280 C   0  0  0  0  0  0  0  0  0  0  0  0
  -23.3600  -30.4310   21.4370 C   0  0  0  0  0  3  0  0  0  0  0  0
  -24.7780  -28.9790   19.8910 C   0  0  0  0  0  0  0  0  0  0  0  0
  -25.8780  -30.8190   21.1740 C   0  0  0  0  0  2  0  0  0  0  0  0
  -25.9520  -29.4760   20.4710 C   0  0  0  0  0  0  0  0  0  0  0  0
  -27.1510  -28.7270   20.3870 C   0  0  0  0  0  3  0  0  0  0  0  0
  -25.9800  -26.9930   19.1510 C   0  0  0  0  0  3  0  0  0  0  0  0
  -24.7890  -27.7400   19.2300 C   0  0  0  0  0  3  0  0  0  0  0  0
  -23.5330  -29.8280   20.0180 C   0  0  0  0  0  2  0  0  0  0  0  0
  -24.6360  -31.0150   21.9650 N   0  0  0  0  0  0  0  0  0  0  0  0
  -23.5430  -31.9890   23.6970 O   0  0  0  0  0  0  0  0  0  0  0  0
  -22.7500  -29.3540   22.3640 C   0  0  0  0  0  0  0  0  0  0  0  0
  -21.4290  -29.1350   22.2480 N   0  0  0  0  0  0  0  0  0  0  0  0
  -23.4630  -28.7170   23.1450 O   0  0  0  0  0  0  0  0  0  0  0  0
  -20.9090  -29.7070   21.5970 H   0  0  0  0  0  0  0  0  0  0  0  0
  -18.1140  -27.7760   22.7050 C   0  0  0  0  0  0  0  0  0  0  0  0
  -20.6560  -28.1440   22.9960 C   0  0  0  0  0  3  0  0  0  0  0  0
  -20.8250  -26.7320   22.3870 C   0  0  0  0  0  2  0  0  0  0  0  0
  -19.7430  -26.3850   21.3590 C   0  0  0  0  0  2  0  0  0  0  0  0
  -18.3530  -26.4510   22.0000 C   0  0  0  0  0  2  0  0  0  0  0  0
  -19.1950  -28.5760   23.1600 C   0  0  0  0  0  0  0  0  0  0  0  0
  -18.9200  -29.8130   23.7820 C   0  0  0  0  0  3  0  0  0  0  0  0
  -17.5940  -30.2570   23.9450 C   0  0  0  0  0  3  0  0  0  0  0  0
  -16.5260  -29.4550   23.5050 C   0  0  0  0  0  3  0  0  0  0  0  0
  -16.7860  -28.2160   22.8940 C   0  0  0  0  0  3  0  0  0  0  0  0
  -25.9050  -32.3750   23.7150 C   0  0  0  0  0  3  0  0  0  0  0  0
  -26.4800  -31.5390   24.9270 C   0  0  1  0  0  0  0  0  0  0  0  0
  -25.4300  -31.2240   26.0180 C   0  0  0  0  0  1  0  0  0  0  0  0
  -27.0600  -30.1940   24.4310 C   0  0  0  0  0  1  0  0  0  0  0  0
  -27.6500  -32.3050   25.5840 C   0  0  0  0  0  1  0  0  0  0  0  0
  -25.5910  -33.7490   24.1310 N   0  0  0  0  0  0  0  0  0  0  0  0
  -25.8920  -34.8460   23.4220 C   0  0  0  0  0  0  0  0  0  0  0  0
  -26.5370  -34.8060   22.3700 O   0  0  0  0  0  0  0  0  0  0  0  0
  -25.0010  -33.8540   24.9430 H   0  0  0  0  0  0  0  0  0  0  0  0
  -24.1320  -36.6280   23.2150 C   0  0  0  0  0  1  0  0  0  0  0  0
  -25.4030  -36.2010   23.9660 C   0  0  0  0  0  3  0  0  0  0  0  0
  -27.5520  -37.0650   24.7760 C   0  0  0  0  0  1  0  0  0  0  0  0
  -26.4190  -37.2720   23.8770 N   0  0  0  0  0  0  0  0  0  0  0  0
  -26.0090  -38.1780   24.0910 H   0  0  0  0  0  0  0  0  0  0  0  0
  1  3  1  0
  2  4  1  0
  2  1  2  0
  3  5  2  0
  3  8  1  0
  4  7  2  0
  5  6  1  0
  7  5  1  0
  9  8  1  0
  9 10  1  0
 11  9  1  0
 12  9  1  0
 14 19  1  0
 15 16  1  0
 15 14  1  0
 17 16  1  0
 17 30  1  0
 17 18  1  0
 19 13  1  0
 19 18  1  0
 20 13  2  0
 21 22  1  0
 21 23  1  0
 22 26  1  0
 23 25  1  0
 23 24  1  0
 24 12  1  0
 26 13  1  0
 26 24  1  0
 27 28  2  0
 28 47  1  0
 29 28  1  0
 29 32  1  0
 30 27  1  0
 30 31  1  0
 31 29  2  0
 32 33  1  0
 33 34  2  0
 35 38  1  0
 35 34  1  0
 36 35  2  0
 37 36  1  0
 37 32  2  0
 38 39  1  0
 39 44  2  0
 39 40  1  0
 40 41  2  0
 41 42  1  0
 42 46  1  0
 43 42  2  0
 44 43  1  0
 45 44  1  0
 47 48  1  0
 48 51  1  0
 48 50  1  0
 49 47  2  0
 52 53  1  0
 52 27  1  0
 54 52  1  0
 55 56  1  0
 55  4  1  0
 56 58  1  0
 57 68  2  0
 58 63  1  0
 59 67  1  0
 59 69  1  0
 60 66  1  0
 60 62  1  0
 61 67  1  0
 62 61  1  0
 63 62  2  0
 64 65  1  0
 64 58  2  0
 65 60  2  0
 66 59  1  0
 67 57  1  0
 69 71  2  0
 70 69  1  0
 72 70  1  0
 73 82  2  0
 73 78  1  0
 74 70  1  0
 74 78  1  0
 75 74  1  0
 76 77  1  0
 76 75  1  0
 77 73  1  0
 78 79  2  0
 79 80  1  0
 81 80  2  0
 82 81  1  0
 83 57  1  0
 83 88  1  0
 83 84  1  0
 84 87  1  1
 84 85  1  0
 86 84  1  0
 88 91  1  0
 89 93  1  0
 89 88  1  0
 90 89  2  0
 93 92  1  0
 95 93  1  0
 95 96  1  0
 95 94  1  0
M  ISO  4  13 100  26 100  55 101  56 101
M  END
>  <TORSDO>  (85) 
F 20

>  <SCORE>  (85) 
-12.542

>  <name>  (85) 
84

>  <ligand_id>  (85) 
84

>  <original_smiles>  (85) 
[H]c1c(C([H])([H])Oc2c([H])c([H])c3c(c2[H])C([H])([H])N(C(=O)C([H])(N([H])C(=O)C([H])(N([H])C([H])([H])[H])C([H])([H])[H])C(C([H])([H])[H])(C([H])([H])[H])C([H])([H])[H])C([H])(C(=O)N([H])C2([H])c4c([H])c([H])c([H])c([H])c4C([H])([H])C([H])([H])C2([H])[H])C3([H])[H])nc(C([H])([H])[H])c(C([H])([H])[N+]([H])([H])C([H])([H])C2([H])N(C(=O)N3C([H])([H])C([H])([H])C([H])([H])C([H])(n4nc(-c5c([H])c([H])c(Oc6c([H])c([H])c(F)c([H])c6F)c([H])c5[H])c(C(=O)N([H])[H])c4N([H])[H])C3([H])[H])C([H])([H])C([H])([H])C2([H])C([H])([H])[H])c1[H]

>  <smiles>  (85) 
[H]c1c(C([H])([H])Oc2c([H])c([H])c3c(c2[H])C([H])([H])N(C(=O)C([H])(N([H])C(=O)C([H])(N([H])C([H])([H])[H])C([H])([H])[H])C(C([H])([H])[H])(C([H])([H])[H])C([H])([H])[H])C([H])(C(=O)N([H])C2([H])c4c([H])c([H])c([H])c([H])c4C([H])([H])C([H])([H])C2([H])[H])C3([H])[H])nc(C([H])([H])[H])c(C([H])([H])[N+]([H])([H])C([H])([H])C2([H])N(C(=O)N3C([H])([H])C([H])([H])C([H])([H])C([H])(n4nc(-c5c([H])c([H])c(Oc6c([H])c([H])c(F)c([H])c6F)c([H])c5[H])c(C(=O)N([H])[H])c4N([H])[H])C3([H])[H])C([H])([H])C([H])([H])C2([H])C([H])([H])[H])c1[H]

$$$$
85:0:0
     RDKit          3D

 92100  0  0  1  0  0  0  0  0999 V2000
  -28.6890  -23.8160   21.0280 C   0  0  0  0  0  3  0  0  0  0  0  0
  -27.5470  -21.4800   20.4280 C   0  0  0  0  0  3  0  0  0  0  0  0
  -27.8410  -20.1500   20.2430 C   0  0  0  0  0  3  0  0  0  0  0  0
  -29.7400  -21.2490   20.5730 C   0  0  0  0  0  3  0  0  0  0  0  0
  -28.7360  -22.2400   20.6530 C   0  0  0  0  0  0  0  0  0  0  0  0
  -29.2120  -19.9440   20.2970 N   0  0  0  0  0  0  0  0  0  0  0  0
  -29.8640  -18.5930   19.9150 C   0  0  0  0  0  2  0  0  0  0  0  0
  -30.3410  -17.4540   20.9670 C   0  0  0  0  0  2  0  0  0  0  0  0
  -30.9060  -14.8660   20.4320 C   0  0  0  0  0  0  0  0  0  0  0  0
  -30.7430  -12.5860   19.4010 C   0  0  0  0  0  2  0  0  0  0  0  0
  -29.8240  -12.6370   18.1600 C   0  0  0  0  0  2  0  0  0  0  0  0
  -28.3390  -12.4920   18.5600 C   0  0  0  0  0  2  0  0  0  0  0  0
  -27.9540  -13.3950   19.7580 C   0  0  0  0  0  3  0  0  0  0  0  0
  -28.9860  -13.2840   20.9010 C   0  0  0  0  0  2  0  0  0  0  0  0
  -30.2940  -13.6370   20.3390 N   0  0  0  0  0  0  0  0  0  0  0  0
  -32.0990  -14.9900   20.1420 O   0  0  0  0  0  0  0  0  0  0  0  0
  -30.0880  -15.9630   20.6780 N   0  0  0  0  0  0  0  0  0  0  0  0
  -29.1230  -15.6980   20.8010 H   0  0  0  0  0  0  0  0  0  0  0  0
  -25.5600  -14.0390   20.4140 C   0  0  0  0  0  0  0  0  0  0  0  0
  -24.4740  -13.2880   20.7680 C   0  0  0  0  0  0  0  0  0  0  0  0
  -24.9170  -11.9300   20.7730 C   0  0  0  0  0  0  0  0  0  0  0  0
  -26.5950  -13.1390   20.2200 N   0  0  0  0  0  0  0  0  0  0  0  0
  -26.2120  -11.8680   20.4960 N   0  0  0  0  0  0  0  0  0  0  0  0
  -24.1670  -10.6800   20.9590 C   0  0  0  0  0  0  0  0  0  0  0  0
  -24.5380   -9.7350   21.9390 C   0  0  0  0  0  3  0  0  0  0  0  0
  -23.7890   -8.5520   22.1110 C   0  0  0  0  0  3  0  0  0  0  0  0
  -22.6550   -8.3040   21.3010 C   0  0  0  0  0  0  0  0  0  0  0  0
  -22.3060   -9.2380   20.3090 C   0  0  0  0  0  3  0  0  0  0  0  0
  -23.0560  -10.4130   20.1360 C   0  0  0  0  0  3  0  0  0  0  0  0
  -21.8840   -7.1720   21.3810 O   0  0  0  0  0  0  0  0  0  0  0  0
  -21.7330   -6.4850   22.5590 C   0  0  0  0  0  0  0  0  0  0  0  0
  -21.1900   -7.0940   23.7130 C   0  0  0  0  0  3  0  0  0  0  0  0
  -20.9880   -6.3330   24.8810 C   0  0  0  0  0  3  0  0  0  0  0  0
  -21.3180   -4.9640   24.8980 C   0  0  0  0  0  0  0  0  0  0  0  0
  -21.8550   -4.3570   23.7500 C   0  0  0  0  0  3  0  0  0  0  0  0
  -22.0570   -5.1140   22.5820 C   0  0  0  0  0  0  0  0  0  0  0  0
  -22.5550   -4.5160   21.4720 F   0  0  0  0  0  0  0  0  0  0  0  0
  -21.1170   -4.2310   26.0190 F   0  0  0  0  0  0  0  0  0  0  0  0
  -23.0760  -13.7890   20.9950 C   0  0  0  0  0  0  0  0  0  0  0  0
  -22.3200  -13.1250   21.8600 N   0  0  0  0  0  0  0  0  0  0  0  0
  -22.6650  -14.8080   20.4400 O   0  0  0  0  0  0  0  0  0  0  0  0
  -22.6640  -12.2990   22.3270 H   0  0  0  0  0  0  0  0  0  0  0  0
  -21.3810  -13.4460   22.0600 H   0  0  0  0  0  0  0  0  0  0  0  0
  -25.7500  -15.4060   20.2170 N   0  0  0  0  0  0  0  0  0  0  0  0
  -24.9860  -16.0690   20.2880 H   0  0  0  0  0  0  0  0  0  0  0  0
  -26.5930  -15.8140   19.8350 H   0  0  0  0  0  0  0  0  0  0  0  0
  -29.3310  -23.7750   23.4500 C   0  0  0  0  0  1  0  0  0  0  0  0
  -29.7110  -24.1300   22.0620 N   0  0  0  0  0  4  0  0  0  0  0  0
  -30.5840  -23.6820   21.8330 H   0  0  0  0  0  0  0  0  0  0  0  0
  -29.8750  -25.1250   22.0480 H   0  0  0  0  0  0  0  0  0  0  0  0
  -28.5710  -25.0070   19.9230 C   0  0  0  0  0  2  0  0  0  0  0  0
  -28.4830  -26.4740   20.2980 O   0  0  0  0  0  0  0  0  0  0  0  0
  -24.7040  -31.9050   23.2260 C   0  0  0  0  0  0  0  0  0  0  0  0
  -27.3420  -27.3080   20.1810 C   0  0  0  0  0  0  0  0  0  0  0  0
  -23.5100  -30.4950   21.5890 C   0  0  0  0  0  3  0  0  0  0  0  0
  -24.9670  -28.9460   20.1510 C   0  0  0  0  0  0  0  0  0  0  0  0
  -26.0490  -30.8160   21.4020 C   0  0  0  0  0  2  0  0  0  0  0  0
  -26.1340  -29.4330   20.7510 C   0  0  0  0  0  0  0  0  0  0  0  0
  -27.3160  -28.6240   20.7540 C   0  0  0  0  0  3  0  0  0  0  0  0
  -26.1500  -26.8870   19.5430 C   0  0  0  0  0  3  0  0  0  0  0  0
  -24.9820  -27.6820   19.5340 C   0  0  0  0  0  3  0  0  0  0  0  0
  -23.7270  -29.8180   20.2090 C   0  0  0  0  0  2  0  0  0  0  0  0
  -24.7730  -31.0930   22.1280 N   0  0  0  0  0  0  0  0  0  0  0  0
  -23.6200  -32.1790   23.7630 O   0  0  0  0  0  0  0  0  0  0  0  0
  -22.8530  -29.4770   22.5540 C   0  0  0  0  0  0  0  0  0  0  0  0
  -21.5270  -29.2960   22.4310 N   0  0  0  0  0  0  0  0  0  0  0  0
  -23.5290  -28.8580   23.3750 O   0  0  0  0  0  0  0  0  0  0  0  0
  -21.0370  -29.8500   21.7420 H   0  0  0  0  0  0  0  0  0  0  0  0
  -18.1560  -28.0600   22.9290 C   0  0  0  0  0  0  0  0  0  0  0  0
  -20.7140  -28.3510   23.2010 C   0  0  0  0  0  3  0  0  0  0  0  0
  -20.8340  -26.9220   22.6300 C   0  0  0  0  0  2  0  0  0  0  0  0
  -19.7370  -26.5840   21.6160 C   0  0  0  0  0  2  0  0  0  0  0  0
  -18.3480  -26.7110   22.2540 C   0  0  0  0  0  2  0  0  0  0  0  0
  -19.2680  -28.8350   23.3570 C   0  0  0  0  0  0  0  0  0  0  0  0
  -19.0340  -30.0920   23.9550 C   0  0  0  0  0  3  0  0  0  0  0  0
  -17.7240  -30.5800   24.1250 C   0  0  0  0  0  3  0  0  0  0  0  0
  -16.6280  -29.8050   23.7090 C   0  0  0  0  0  3  0  0  0  0  0  0
  -16.8450  -28.5450   23.1230 C   0  0  0  0  0  3  0  0  0  0  0  0
  -25.9870  -32.5430   23.8450 C   0  0  0  0  0  3  0  0  0  0  0  0
  -25.6710  -33.9360   24.1980 N   0  0  0  0  0  0  0  0  0  0  0  0
  -25.9960  -35.0030   23.4590 C   0  0  0  0  0  0  0  0  0  0  0  0
  -26.6630  -34.9200   22.4260 O   0  0  0  0  0  0  0  0  0  0  0  0
  -25.0710  -34.0700   24.9990 H   0  0  0  0  0  0  0  0  0  0  0  0
  -24.2620  -36.7990   23.1250 C   0  0  0  0  0  1  0  0  0  0  0  0
  -25.4990  -36.3820   23.9360 C   0  0  0  0  0  3  0  0  0  0  0  0
  -27.6200  -37.2580   24.8050 C   0  0  0  0  0  1  0  0  0  0  0  0
  -26.5300  -37.4390   23.8510 N   0  0  0  0  0  0  0  0  0  0  0  0
  -26.1180  -38.3530   24.0070 H   0  0  0  0  0  0  0  0  0  0  0  0
  -26.5230  -31.7630   25.1120 C   0  0  1  0  0  0  0  0  0  0  0  0
  -25.4420  -31.4980   26.1910 C   0  0  0  0  0  1  0  0  0  0  0  0
  -27.1270  -30.3960   24.7060 C   0  0  0  0  0  1  0  0  0  0  0  0
  -27.6720  -32.5670   25.7730 C   0  0  0  0  0  1  0  0  0  0  0  0
  1 51  1  0
  1 48  1  0
  2  5  1  0
  3  6  1  0
  3  2  2  0
  4  5  2  0
  5  1  1  0
  6  4  1  0
  7  6  1  0
  7  8  1  0
  9 17  1  0
 10 15  1  0
 11 12  1  0
 11 10  1  0
 13 12  1  0
 13 22  1  0
 13 14  1  0
 15  9  1  0
 15 14  1  0
 16  9  2  0
 17 18  1  0
 17  8  1  0
 19 20  2  0
 20 21  1  0
 20 39  1  0
 21 24  1  0
 22 19  1  0
 22 23  1  0
 23 21  2  0
 24 25  1  0
 25 26  2  0
 27 30  1  0
 27 26  1  0
 28 27  2  0
 29 28  1  0
 29 24  2  0
 30 31  1  0
 31 36  2  0
 31 32  1  0
 32 33  2  0
 33 34  1  0
 34 38  1  0
 35 34  2  0
 36 35  1  0
 37 36  1  0
 39 40  1  0
 40 43  1  0
 40 42  1  0
 41 39  2  0
 44 45  1  0
 44 19  1  0
 46 44  1  0
 48 47  1  0
 49 48  1  0
 50 48  1  0
 51 52  1  0
 53 64  2  0
 54 52  1  0
 54 59  1  0
 55 63  1  0
 55 65  1  0
 56 62  1  0
 56 58  1  0
 57 63  1  0
 58 59  2  0
 58 57  1  0
 60 54  2  0
 61 60  1  0
 61 56  2  0
 62 55  1  0
 63 53  1  0
 65 67  2  0
 66 65  1  0
 68 66  1  0
 69 78  2  0
 69 74  1  0
 70 66  1  0
 70 74  1  0
 71 70  1  0
 72 73  1  0
 72 71  1  0
 73 69  1  0
 74 75  2  0
 75 76  1  0
 77 76  2  0
 78 77  1  0
 79 53  1  0
 79 80  1  0
 79 89  1  0
 80 83  1  0
 81 85  1  0
 81 80  1  0
 82 81  2  0
 85 84  1  0
 87 85  1  0
 87 88  1  0
 87 86  1  0
 89 92  1  1
 89 90  1  0
 91 89  1  0
M  ISO  4   9 100  17 100  51 101  52 101
M  END
>  <TORSDO>  (86) 
F 21

>  <SCORE>  (86) 
-12.868

>  <name>  (86) 
85

>  <ligand_id>  (86) 
85

>  <original_smiles>  (86) 
[H]c1c([H])c([H])c2c(c1[H])C([H])([H])C([H])([H])C([H])([H])C2([H])N([H])C(=O)C1([H])N(C(=O)C([H])(N([H])C(=O)C([H])(N([H])C([H])([H])[H])C([H])([H])[H])C(C([H])([H])[H])(C([H])([H])[H])C([H])([H])[H])C([H])([H])c2c([H])c(OC([H])([H])C([H])(c3c([H])c([H])n(C([H])([H])C([H])([H])N([H])C(=O)N4C([H])([H])C([H])([H])C([H])([H])C([H])(n5nc(-c6c([H])c([H])c(Oc7c([H])c([H])c(F)c([H])c7F)c([H])c6[H])c(C(=O)N([H])[H])c5N([H])[H])C4([H])[H])c3[H])[N+]([H])([H])C([H])([H])[H])c([H])c([H])c2C1([H])[H]

>  <smiles>  (86) 
[H]c1c([H])c([H])c2c(c1[H])C([H])([H])C([H])([H])C([H])([H])C2([H])N([H])C(=O)C1([H])N(C(=O)C([H])(N([H])C(=O)C([H])(N([H])C([H])([H])[H])C([H])([H])[H])C(C([H])([H])[H])(C([H])([H])[H])C([H])([H])[H])C([H])([H])c2c([H])c(OC([H])([H])C([H])(c3c([H])c([H])n(C([H])([H])C([H])([H])N([H])C(=O)N4C([H])([H])C([H])([H])C([H])([H])C([H])(n5nc(-c6c([H])c([H])c(Oc7c([H])c([H])c(F)c([H])c7F)c([H])c6[H])c(C(=O)N([H])[H])c5N([H])[H])C4([H])[H])c3[H])[N+]([H])([H])C([H])([H])[H])c([H])c([H])c2C1([H])[H]

$$$$
86:0:0
     RDKit          3D

 88 96  0  0  1  0  0  0  0  0999 V2000
  -29.1980  -20.0960   18.6550 C   0  0  0  0  0  3  0  0  0  0  0  0
  -28.7410  -22.4530   18.6550 C   0  0  0  0  0  3  0  0  0  0  0  0
  -29.2470  -19.9520   20.0600 C   0  0  0  0  0  0  0  0  0  0  0  0
  -28.7010  -22.5970   20.0600 C   0  0  0  0  0  0  0  0  0  0  0  0
  -28.9660  -21.2740   17.9950 N   0  0  0  0  0  0  0  0  0  0  0  0
  -28.9650  -21.2710   20.7210 N   0  0  0  0  0  0  0  0  0  0  0  0
  -28.5710  -24.2770   22.1400 C   0  0  0  0  0  1  0  0  0  0  0  0
  -28.1160  -24.1690   20.6800 C   0  0  0  0  0  3  0  0  0  0  0  0
  -28.2650  -25.7750   20.1940 O   0  0  0  0  0  0  0  0  0  0  0  0
  -24.6750  -31.8390   23.1780 C   0  0  0  0  0  0  0  0  0  0  0  0
  -27.2490  -26.8930   20.2230 C   0  0  0  0  0  0  0  0  0  0  0  0
  -23.4910  -30.4270   21.5490 C   0  0  0  0  0  3  0  0  0  0  0  0
  -24.9480  -28.8050   20.1480 C   0  0  0  0  0  0  0  0  0  0  0  0
  -26.0610  -30.6320   21.4090 C   0  0  0  0  0  2  0  0  0  0  0  0
  -26.1390  -29.2090   20.7660 C   0  0  0  0  0  0  0  0  0  0  0  0
  -27.2840  -28.2800   20.7670 C   0  0  0  0  0  3  0  0  0  0  0  0
  -26.0210  -26.6530   19.5640 C   0  0  0  0  0  3  0  0  0  0  0  0
  -24.9180  -27.5480   19.5240 C   0  0  0  0  0  3  0  0  0  0  0  0
  -23.7270  -29.7280   20.1830 C   0  0  0  0  0  2  0  0  0  0  0  0
  -24.7650  -30.9950   22.0980 N   0  0  0  0  0  0  0  0  0  0  0  0
  -23.5830  -32.1300   23.6950 O   0  0  0  0  0  0  0  0  0  0  0  0
  -22.7940  -29.4400   22.5230 C   0  0  0  0  0  0  0  0  0  0  0  0
  -21.4630  -29.2770   22.4030 N   0  0  0  0  0  0  0  0  0  0  0  0
  -23.4600  -28.8160   23.3530 O   0  0  0  0  0  0  0  0  0  0  0  0
  -20.9790  -29.8270   21.7070 H   0  0  0  0  0  0  0  0  0  0  0  0
  -18.0780  -28.0770   22.9390 C   0  0  0  0  0  0  0  0  0  0  0  0
  -20.6410  -28.3430   23.1820 C   0  0  0  0  0  3  0  0  0  0  0  0
  -20.7360  -26.9090   22.6090 C   0  0  0  0  0  2  0  0  0  0  0  0
  -19.6250  -26.5880   21.6030 C   0  0  0  0  0  2  0  0  0  0  0  0
  -18.2490  -26.7300   22.2580 C   0  0  0  0  0  2  0  0  0  0  0  0
  -19.2000  -28.8410   23.3580 C   0  0  0  0  0  0  0  0  0  0  0  0
  -18.9830  -30.1000   23.9590 C   0  0  0  0  0  3  0  0  0  0  0  0
  -17.6780  -30.5950   24.1430 C   0  0  0  0  0  3  0  0  0  0  0  0
  -16.5710  -29.8280   23.7380 C   0  0  0  0  0  3  0  0  0  0  0  0
  -16.7730  -28.5710   23.1410 C   0  0  0  0  0  3  0  0  0  0  0  0
  -25.9400  -32.4940   23.8110 C   0  0  0  0  0  3  0  0  0  0  0  0
  -25.6100  -33.8910   24.1460 N   0  0  0  0  0  0  0  0  0  0  0  0
  -25.9390  -34.9580   23.4070 C   0  0  0  0  0  0  0  0  0  0  0  0
  -26.6130  -34.8710   22.3780 O   0  0  0  0  0  0  0  0  0  0  0  0
  -25.0060  -34.0290   24.9430 H   0  0  0  0  0  0  0  0  0  0  0  0
  -24.2060  -36.7550   23.0710 C   0  0  0  0  0  1  0  0  0  0  0  0
  -25.4450  -36.3420   23.8820 C   0  0  0  0  0  3  0  0  0  0  0  0
  -27.5710  -37.2250   24.7360 C   0  0  0  0  0  1  0  0  0  0  0  0
  -26.4740  -37.4010   23.7880 N   0  0  0  0  0  0  0  0  0  0  0  0
  -26.0630  -38.3180   23.9460 H   0  0  0  0  0  0  0  0  0  0  0  0
  -26.4490  -31.7370   25.1000 C   0  0  1  0  0  0  0  0  0  0  0  0
  -25.3500  -31.5070   26.1640 C   0  0  0  0  0  1  0  0  0  0  0  0
  -27.0400  -30.3570   24.7340 C   0  0  0  0  0  1  0  0  0  0  0  0
  -27.5930  -32.5420   25.7610 C   0  0  0  0  0  1  0  0  0  0  0  0
  -29.8280  -18.3780   20.6790 C   0  0  0  0  0  2  0  0  0  0  0  0
  -30.3950  -15.4120   20.3210 C   0  0  0  0  0  0  0  0  0  0  0  0
  -30.4300  -12.9390   19.4480 C   0  0  0  0  0  2  0  0  0  0  0  0
  -29.5340  -12.6480   18.2170 C   0  0  0  0  0  2  0  0  0  0  0  0
  -28.0840  -12.3570   18.6440 C   0  0  0  0  0  2  0  0  0  0  0  0
  -27.5970  -13.3370   19.7390 C   0  0  0  0  0  3  0  0  0  0  0  0
  -28.6270  -13.5440   20.8690 C   0  0  0  0  0  2  0  0  0  0  0  0
  -29.8390  -14.0930   20.2310 N   0  0  0  0  0  0  0  0  0  0  0  0
  -31.6300  -15.3870   20.1900 O   0  0  0  0  0  0  0  0  0  0  0  0
  -29.6290  -16.7110   20.3650 N   0  0  0  0  0  0  0  0  0  0  0  0
  -28.6430  -16.5020   20.3200 H   0  0  0  0  0  0  0  0  0  0  0  0
  -25.2150  -13.8790   20.4640 C   0  0  0  0  0  0  0  0  0  0  0  0
  -24.1550  -13.0970   20.8240 C   0  0  0  0  0  0  0  0  0  0  0  0
  -24.6330  -11.7500   20.8110 C   0  0  0  0  0  0  0  0  0  0  0  0
  -26.2680  -13.0100   20.2390 N   0  0  0  0  0  0  0  0  0  0  0  0
  -25.9300  -11.7240   20.5200 N   0  0  0  0  0  0  0  0  0  0  0  0
  -23.9100  -10.4850   21.0010 C   0  0  0  0  0  0  0  0  0  0  0  0
  -24.3280   -9.5300   21.9540 C   0  0  0  0  0  3  0  0  0  0  0  0
  -23.6030   -8.3320   22.1310 C   0  0  0  0  0  3  0  0  0  0  0  0
  -22.4460   -8.0800   21.3560 C   0  0  0  0  0  0  0  0  0  0  0  0
  -22.0480   -9.0240   20.3930 C   0  0  0  0  0  3  0  0  0  0  0  0
  -22.7730  -10.2130   20.2140 C   0  0  0  0  0  3  0  0  0  0  0  0
  -21.6930   -6.9330   21.4430 O   0  0  0  0  0  0  0  0  0  0  0  0
  -21.6200   -6.2080   22.6050 C   0  0  0  0  0  0  0  0  0  0  0  0
  -21.1550   -6.7760   23.8120 C   0  0  0  0  0  3  0  0  0  0  0  0
  -21.0290   -5.9740   24.9640 C   0  0  0  0  0  3  0  0  0  0  0  0
  -21.3560   -4.6060   24.9110 C   0  0  0  0  0  0  0  0  0  0  0  0
  -21.8160   -4.0380   23.7100 C   0  0  0  0  0  3  0  0  0  0  0  0
  -21.9430   -4.8370   22.5590 C   0  0  0  0  0  0  0  0  0  0  0  0
  -22.3640   -4.2780   21.3990 F   0  0  0  0  0  0  0  0  0  0  0  0
  -21.2300   -3.8350   26.0170 F   0  0  0  0  0  0  0  0  0  0  0  0
  -22.7500  -13.5680   21.0640 C   0  0  0  0  0  0  0  0  0  0  0  0
  -22.0060  -12.8750   21.9200 N   0  0  0  0  0  0  0  0  0  0  0  0
  -22.3190  -14.5880   20.5260 O   0  0  0  0  0  0  0  0  0  0  0  0
  -22.3660  -12.0520   22.3790 H   0  0  0  0  0  0  0  0  0  0  0  0
  -21.0630  -13.1760   22.1200 H   0  0  0  0  0  0  0  0  0  0  0  0
  -25.3690  -15.2500   20.2770 N   0  0  0  0  0  0  0  0  0  0  0  0
  -24.5950  -15.8980   20.3800 H   0  0  0  0  0  0  0  0  0  0  0  0
  -26.2100  -15.6910   19.9320 H   0  0  0  0  0  0  0  0  0  0  0  0
  1  3  1  0
  2  4  2  0
  3 50  1  0
  3  6  2  0
  4  8  1  0
  4  6  1  0
  5  2  1  0
  5  1  2  0
  8  7  1  0
  9 11  1  0
  9  8  1  0
 10 21  2  0
 11 16  1  0
 12 20  1  0
 12 22  1  0
 13 19  1  0
 13 15  1  0
 14 20  1  0
 15 16  2  0
 15 14  1  0
 17 11  2  0
 18 17  1  0
 18 13  2  0
 19 12  1  0
 20 10  1  0
 22 24  2  0
 23 22  1  0
 25 23  1  0
 26 35  2  0
 26 31  1  0
 27 23  1  0
 27 31  1  0
 28 27  1  0
 29 30  1  0
 29 28  1  0
 30 26  1  0
 31 32  2  0
 32 33  1  0
 34 33  2  0
 35 34  1  0
 36 10  1  0
 36 37  1  0
 36 46  1  0
 37 40  1  0
 38 42  1  0
 38 37  1  0
 39 38  2  0
 42 41  1  0
 44 42  1  0
 44 45  1  0
 44 43  1  0
 46 49  1  1
 46 47  1  0
 48 46  1  0
 51 59  1  0
 52 57  1  0
 53 54  1  0
 53 52  1  0
 55 54  1  0
 55 64  1  0
 55 56  1  0
 57 51  1  0
 57 56  1  0
 58 51  2  0
 59 50  1  0
 60 59  1  0
 61 62  2  0
 62 81  1  0
 63 62  1  0
 63 66  1  0
 64 61  1  0
 64 65  1  0
 65 63  2  0
 66 67  1  0
 67 68  2  0
 69 72  1  0
 69 68  1  0
 70 69  2  0
 71 70  1  0
 71 66  2  0
 72 73  1  0
 73 74  1  0
 74 75  2  0
 76 75  1  0
 76 80  1  0
 77 76  2  0
 78 73  2  0
 78 77  1  0
 79 78  1  0
 81 82  1  0
 82 85  1  0
 82 84  1  0
 83 81  2  0
 86 87  1  0
 86 61  1  0
 88 86  1  0
M  ISO  4   8 101   9 101  51 100  59 100
M  END
>  <TORSDO>  (87) 
F 18

>  <SCORE>  (87) 
-16.537

>  <name>  (87) 
86

>  <ligand_id>  (87) 
86

>  <original_smiles>  (87) 
[H]c1nc([H])c(C([H])(Oc2c([H])c([H])c3c(c2[H])C([H])([H])N(C(=O)C([H])(N([H])C(=O)C([H])(N([H])C([H])([H])[H])C([H])([H])[H])C(C([H])([H])[H])(C([H])([H])[H])C([H])([H])[H])C([H])(C(=O)N([H])C2([H])c4c([H])c([H])c([H])c([H])c4C([H])([H])C([H])([H])C2([H])[H])C3([H])[H])C([H])([H])[H])nc1C([H])([H])N([H])C(=O)N1C([H])([H])C([H])([H])C([H])([H])C([H])(n2nc(-c3c([H])c([H])c(Oc4c([H])c([H])c(F)c([H])c4F)c([H])c3[H])c(C(=O)N([H])[H])c2N([H])[H])C1([H])[H]

>  <smiles>  (87) 
[H]c1nc([H])c(C([H])(Oc2c([H])c([H])c3c(c2[H])C([H])([H])N(C(=O)C([H])(N([H])C(=O)C([H])(N([H])C([H])([H])[H])C([H])([H])[H])C(C([H])([H])[H])(C([H])([H])[H])C([H])([H])[H])C([H])(C(=O)N([H])C2([H])c4c([H])c([H])c([H])c([H])c4C([H])([H])C([H])([H])C2([H])[H])C3([H])[H])C([H])([H])[H])nc1C([H])([H])N([H])C(=O)N1C([H])([H])C([H])([H])C([H])([H])C([H])(n2nc(-c3c([H])c([H])c(Oc4c([H])c([H])c(F)c([H])c4F)c([H])c3[H])c(C(=O)N([H])[H])c2N([H])[H])C1([H])[H]

$$$$
87:0:0
     RDKit          3D

 93101  0  0  1  0  0  0  0  0999 V2000
  -29.4750  -19.8630   21.1550 C   0  0  0  0  0  3  0  0  0  0  0  0
  -29.7560  -18.6850   20.4670 C   0  0  0  0  0  0  0  0  0  0  0  0
  -29.4740  -19.0350   19.1080 C   0  0  0  0  0  0  0  0  0  0  0  0
  -29.1180  -20.3790   19.0260 C   0  0  0  0  0  0  0  0  0  0  0  0
  -29.5860  -18.0610   17.9590 C   0  0  0  0  0  1  0  0  0  0  0  0
  -29.0660  -20.9310   20.3180 N   0  0  0  0  0  0  0  0  0  0  0  0
  -27.2710  -21.0860   17.4670 C   0  0  0  0  0  1  0  0  0  0  0  0
  -29.6400  -20.9440   16.5740 C   0  0  0  0  0  1  0  0  0  0  0  0
  -28.7610  -21.2010   17.8110 C   0  0  0  0  0  3  0  0  0  0  0  0
  -30.3680  -17.3240   21.0350 C   0  0  0  0  0  2  0  0  0  0  0  0
  -30.6420  -14.7990   20.3980 C   0  0  0  0  0  0  0  0  0  0  0  0
  -30.4390  -12.5520   19.3250 C   0  0  0  0  0  2  0  0  0  0  0  0
  -29.4920  -12.6370   18.1100 C   0  0  0  0  0  2  0  0  0  0  0  0
  -28.0260  -12.4450   18.5460 C   0  0  0  0  0  2  0  0  0  0  0  0
  -27.6530  -13.3090   19.7810 C   0  0  0  0  0  3  0  0  0  0  0  0
  -28.7200  -13.2120   20.8920 C   0  0  0  0  0  2  0  0  0  0  0  0
  -30.0070  -13.5850   20.2930 N   0  0  0  0  0  0  0  0  0  0  0  0
  -31.8300  -14.9020   20.0800 O   0  0  0  0  0  0  0  0  0  0  0  0
  -29.8860  -15.9220   20.6870 N   0  0  0  0  0  0  0  0  0  0  0  0
  -28.9030  -15.7560   20.8370 H   0  0  0  0  0  0  0  0  0  0  0  0
  -25.2610  -13.8690   20.5220 C   0  0  0  0  0  0  0  0  0  0  0  0
  -24.2060  -13.0790   20.8910 C   0  0  0  0  0  0  0  0  0  0  0  0
  -24.6850  -11.7340   20.8490 C   0  0  0  0  0  0  0  0  0  0  0  0
  -26.3140  -13.0020   20.2760 N   0  0  0  0  0  0  0  0  0  0  0  0
  -25.9750  -11.7140   20.5360 N   0  0  0  0  0  0  0  0  0  0  0  0
  -23.9720  -10.4630   21.0320 C   0  0  0  0  0  0  0  0  0  0  0  0
  -24.4020   -9.5070   21.9770 C   0  0  0  0  0  3  0  0  0  0  0  0
  -23.6900   -8.2990   22.1500 C   0  0  0  0  0  3  0  0  0  0  0  0
  -22.5350   -8.0400   21.3750 C   0  0  0  0  0  0  0  0  0  0  0  0
  -22.1250   -8.9860   20.4190 C   0  0  0  0  0  3  0  0  0  0  0  0
  -22.8360  -10.1850   20.2450 C   0  0  0  0  0  3  0  0  0  0  0  0
  -21.7950   -6.8850   21.4550 O   0  0  0  0  0  0  0  0  0  0  0  0
  -21.7180   -6.1590   22.6150 C   0  0  0  0  0  0  0  0  0  0  0  0
  -21.2060   -6.7150   23.8090 C   0  0  0  0  0  3  0  0  0  0  0  0
  -21.0780   -5.9130   24.9610 C   0  0  0  0  0  3  0  0  0  0  0  0
  -21.4530   -4.5560   24.9200 C   0  0  0  0  0  0  0  0  0  0  0  0
  -21.9570   -4.0000   23.7310 C   0  0  0  0  0  3  0  0  0  0  0  0
  -22.0860   -4.8000   22.5820 C   0  0  0  0  0  0  0  0  0  0  0  0
  -22.5520   -4.2530   21.4340 F   0  0  0  0  0  0  0  0  0  0  0  0
  -21.3240   -3.7840   26.0240 F   0  0  0  0  0  0  0  0  0  0  0  0
  -22.8040  -13.5390   21.1690 C   0  0  0  0  0  0  0  0  0  0  0  0
  -22.0800  -12.8210   22.0220 N   0  0  0  0  0  0  0  0  0  0  0  0
  -22.3570  -14.5700   20.6670 O   0  0  0  0  0  0  0  0  0  0  0  0
  -22.4530  -11.9880   22.4530 H   0  0  0  0  0  0  0  0  0  0  0  0
  -21.1390  -13.1090   22.2470 H   0  0  0  0  0  0  0  0  0  0  0  0
  -25.4070  -15.2420   20.3500 N   0  0  0  0  0  0  0  0  0  0  0  0
  -24.6320  -15.8850   20.4640 H   0  0  0  0  0  0  0  0  0  0  0  0
  -26.2420  -15.6930   19.9950 H   0  0  0  0  0  0  0  0  0  0  0  0
  -28.5210  -22.2890   20.8180 C   0  0  0  0  0  3  0  0  0  0  0  0
  -28.8900  -23.7730   20.2450 C   0  0  0  0  0  3  0  0  0  0  0  0
  -28.4920  -25.1890   22.3900 C   0  0  0  0  0  1  0  0  0  0  0  0
  -28.1550  -25.0700   20.8950 C   0  0  0  0  0  3  0  0  0  0  0  0
  -28.3690  -26.4590   20.3570 O   0  0  0  0  0  0  0  0  0  0  0  0
  -24.6310  -31.9730   23.2680 C   0  0  0  0  0  0  0  0  0  0  0  0
  -27.2700  -27.3450   20.3140 C   0  0  0  0  0  0  0  0  0  0  0  0
  -23.4440  -30.5450   21.6420 C   0  0  0  0  0  3  0  0  0  0  0  0
  -24.9090  -28.9740   20.2490 C   0  0  0  0  0  0  0  0  0  0  0  0
  -25.9860  -30.8620   21.4710 C   0  0  0  0  0  2  0  0  0  0  0  0
  -26.0740  -29.4710   20.8470 C   0  0  0  0  0  0  0  0  0  0  0  0
  -27.2610  -28.6700   20.8650 C   0  0  0  0  0  3  0  0  0  0  0  0
  -26.0860  -26.9130   19.6810 C   0  0  0  0  0  3  0  0  0  0  0  0
  -24.9190  -27.7020   19.6540 C   0  0  0  0  0  3  0  0  0  0  0  0
  -23.6710  -29.8480   20.2740 C   0  0  0  0  0  2  0  0  0  0  0  0
  -24.7060  -31.1460   22.1830 N   0  0  0  0  0  0  0  0  0  0  0  0
  -23.5440  -32.2540   23.7920 O   0  0  0  0  0  0  0  0  0  0  0  0
  -22.7770  -29.5420   22.6150 C   0  0  0  0  0  0  0  0  0  0  0  0
  -21.4530  -29.3560   22.4820 N   0  0  0  0  0  0  0  0  0  0  0  0
  -23.4520  -28.9350   23.4510 O   0  0  0  0  0  0  0  0  0  0  0  0
  -20.9660  -29.8980   21.7820 H   0  0  0  0  0  0  0  0  0  0  0  0
  -18.0770  -28.1520   22.9830 C   0  0  0  0  0  0  0  0  0  0  0  0
  -20.6330  -28.4270   23.2630 C   0  0  0  0  0  3  0  0  0  0  0  0
  -20.7440  -26.9860   22.7110 C   0  0  0  0  0  2  0  0  0  0  0  0
  -19.6500  -26.6430   21.6960 C   0  0  0  0  0  2  0  0  0  0  0  0
  -18.2640  -26.7930   22.3290 C   0  0  0  0  0  2  0  0  0  0  0  0
  -19.1900  -28.9260   23.4070 C   0  0  0  0  0  0  0  0  0  0  0  0
  -18.9610  -30.1950   23.9790 C   0  0  0  0  0  3  0  0  0  0  0  0
  -17.6540  -30.6930   24.1290 C   0  0  0  0  0  3  0  0  0  0  0  0
  -16.5550  -29.9170   23.7220 C   0  0  0  0  0  3  0  0  0  0  0  0
  -16.7680  -28.6480   23.1540 C   0  0  0  0  0  3  0  0  0  0  0  0
  -25.9070  -32.6220   23.8880 C   0  0  0  0  0  3  0  0  0  0  0  0
  -25.5890  -34.0230   24.1980 N   0  0  0  0  0  0  0  0  0  0  0  0
  -25.9260  -35.0680   23.4300 C   0  0  0  0  0  0  0  0  0  0  0  0
  -26.6070  -34.9550   22.4070 O   0  0  0  0  0  0  0  0  0  0  0  0
  -24.9860  -34.1850   24.9900 H   0  0  0  0  0  0  0  0  0  0  0  0
  -24.2100  -36.8620   23.0240 C   0  0  0  0  0  1  0  0  0  0  0  0
  -25.4310  -36.4610   23.8670 C   0  0  0  0  0  3  0  0  0  0  0  0
  -27.5450  -37.3510   24.7460 C   0  0  0  0  0  1  0  0  0  0  0  0
  -26.4690  -37.5110   23.7700 N   0  0  0  0  0  0  0  0  0  0  0  0
  -26.0610  -38.4330   23.8980 H   0  0  0  0  0  0  0  0  0  0  0  0
  -26.4190  -31.8730   25.1790 C   0  0  1  0  0  0  0  0  0  0  0  0
  -25.3170  -31.6370   26.2400 C   0  0  0  0  0  1  0  0  0  0  0  0
  -27.0210  -30.4970   24.8130 C   0  0  0  0  0  1  0  0  0  0  0  0
  -27.5540  -32.6870   25.8420 C   0  0  0  0  0  1  0  0  0  0  0  0
  2 10  1  0
  2  1  2  0
  3  2  1  0
  4  3  2  0
  4  6  1  0
  5  3  1  0
  6 49  1  0
  6  1  1  0
  7  9  1  0
  8  9  1  0
  9  4  1  0
 11 19  1  0
 12 17  1  0
 13 14  1  0
 13 12  1  0
 15 14  1  0
 15 24  1  0
 15 16  1  0
 17 11  1  0
 17 16  1  0
 18 11  2  0
 19 20  1  0
 19 10  1  0
 21 22  2  0
 22 41  1  0
 23 22  1  0
 23 26  1  0
 24 21  1  0
 24 25  1  0
 25 23  2  0
 26 27  1  0
 27 28  2  0
 29 32  1  0
 29 28  1  0
 30 29  2  0
 31 30  1  0
 31 26  2  0
 32 33  1  0
 33 34  1  0
 34 35  2  0
 36 35  1  0
 36 40  1  0
 37 36  2  0
 38 33  2  0
 38 37  1  0
 39 38  1  0
 41 42  1  0
 42 45  1  0
 42 44  1  0
 43 41  2  0
 46 47  1  0
 46 21  1  0
 48 46  1  0
 50 49  2  0
 50 52  1  0
 52 51  1  0
 53 52  1  0
 54 65  2  0
 55 53  1  0
 55 60  1  0
 56 64  1  0
 56 66  1  0
 57 63  1  0
 57 59  1  0
 58 64  1  0
 59 60  2  0
 59 58  1  0
 61 55  2  0
 62 61  1  0
 62 57  2  0
 63 56  1  0
 64 54  1  0
 66 68  2  0
 67 66  1  0
 69 67  1  0
 70 79  2  0
 70 75  1  0
 71 67  1  0
 71 75  1  0
 72 71  1  0
 73 74  1  0
 73 72  1  0
 74 70  1  0
 75 76  2  0
 76 77  1  0
 78 77  2  0
 79 78  1  0
 80 54  1  0
 80 81  1  0
 80 90  1  0
 81 84  1  0
 82 86  1  0
 82 81  1  0
 83 82  2  0
 86 85  1  0
 88 86  1  0
 88 89  1  0
 88 87  1  0
 90 93  1  1
 90 91  1  0
 92 90  1  0
M  ISO  4  11 100  19 100  52 101  53 101
M  END
>  <TORSDO>  (88) 
F 21

>  <SCORE>  (88) 
-13.523

>  <name>  (88) 
87

>  <ligand_id>  (88) 
87

>  <original_smiles>  (88) 
[H]c1c([H])c([H])c2c(c1[H])C([H])([H])C([H])([H])C([H])([H])C2([H])N([H])C(=O)C1([H])N(C(=O)C([H])(N([H])C(=O)C([H])(N([H])C([H])([H])[H])C([H])([H])[H])C(C([H])([H])[H])(C([H])([H])[H])C([H])([H])[H])C([H])([H])c2c([H])c(OC([H])(C([H])([H])[H])C([H])([H])C([H])([H])n3c([H])c(C([H])([H])N([H])C(=O)N4C([H])([H])C([H])([H])C([H])([H])C([H])(n5nc(-c6c([H])c([H])c(Oc7c([H])c([H])c(F)c([H])c7F)c([H])c6[H])c(C(=O)N([H])[H])c5N([H])[H])C4([H])[H])c(C([H])([H])[H])c3C([H])(C([H])([H])[H])C([H])([H])[H])c([H])c([H])c2C1([H])[H]

>  <smiles>  (88) 
[H]c1c([H])c([H])c2c(c1[H])C([H])([H])C([H])([H])C([H])([H])C2([H])N([H])C(=O)C1([H])N(C(=O)C([H])(N([H])C(=O)C([H])(N([H])C([H])([H])[H])C([H])([H])[H])C(C([H])([H])[H])(C([H])([H])[H])C([H])([H])[H])C([H])([H])c2c([H])c(OC([H])(C([H])([H])[H])C([H])([H])C([H])([H])n3c([H])c(C([H])([H])N([H])C(=O)N4C([H])([H])C([H])([H])C([H])([H])C([H])(n5nc(-c6c([H])c([H])c(Oc7c([H])c([H])c(F)c([H])c7F)c([H])c6[H])c(C(=O)N([H])[H])c5N([H])[H])C4([H])[H])c(C([H])([H])[H])c3C([H])(C([H])([H])[H])C([H])([H])[H])c([H])c([H])c2C1([H])[H]

$$$$
88:0:0
     RDKit          3D

 95103  0  0  1  0  0  0  0  0999 V2000
  -30.8330  -19.5130   21.1160 C   0  0  0  0  0  2  0  0  0  0  0  0
  -28.3510  -20.1280   19.9540 C   0  0  0  0  0  2  0  0  0  0  0  0
  -29.1940  -21.3010   20.5740 C   0  0  0  0  0  3  0  0  0  0  0  0
  -29.9990  -18.3460   20.5160 C   0  0  0  0  0  3  0  0  0  0  0  0
  -30.6110  -20.8480   20.4980 N   0  0  0  0  0  0  0  0  0  0  0  0
  -28.5810  -18.7890   20.5850 N   0  0  0  0  0  4  0  0  0  0  0  0
  -27.9970  -18.1150   20.1220 H   0  0  0  0  0  0  0  0  0  0  0  0
  -28.2930  -18.8430   21.5490 H   0  0  0  0  0  0  0  0  0  0  0  0
  -32.9070  -21.6670   20.1810 C   0  0  0  0  0  1  0  0  0  0  0  0
  -31.8680  -21.7910   22.4980 C   0  0  0  0  0  1  0  0  0  0  0  0
  -31.6060  -21.8310   20.9790 C   0  0  0  0  0  3  0  0  0  0  0  0
  -28.9420  -22.6710   19.7830 C   0  0  0  0  0  2  0  0  0  0  0  0
  -29.2070  -24.3050   21.8110 C   0  0  0  0  0  1  0  0  0  0  0  0
  -28.4500  -23.9990   20.5110 C   0  0  0  0  0  3  0  0  0  0  0  0
  -28.4990  -25.2740   19.5780 C   0  0  0  0  0  2  0  0  0  0  0  0
  -28.3740  -26.5910   20.2070 O   0  0  0  0  0  0  0  0  0  0  0  0
  -24.5880  -31.8750   23.2400 C   0  0  0  0  0  0  0  0  0  0  0  0
  -27.2000  -27.3420   20.1780 C   0  0  0  0  0  0  0  0  0  0  0  0
  -23.3780  -30.4680   21.6100 C   0  0  0  0  0  3  0  0  0  0  0  0
  -24.8220  -28.9120   20.1900 C   0  0  0  0  0  0  0  0  0  0  0  0
  -25.9130  -30.7960   21.4140 C   0  0  0  0  0  2  0  0  0  0  0  0
  -25.9890  -29.4170   20.7750 C   0  0  0  0  0  0  0  0  0  0  0  0
  -27.1790  -28.6400   20.7620 C   0  0  0  0  0  3  0  0  0  0  0  0
  -26.0020  -26.8640   19.5990 C   0  0  0  0  0  3  0  0  0  0  0  0
  -24.8270  -27.6380   19.5990 C   0  0  0  0  0  3  0  0  0  0  0  0
  -23.5830  -29.7820   20.2340 C   0  0  0  0  0  2  0  0  0  0  0  0
  -24.6460  -31.0620   22.1450 N   0  0  0  0  0  0  0  0  0  0  0  0
  -23.5060  -32.1550   23.7740 O   0  0  0  0  0  0  0  0  0  0  0  0
  -22.7210  -29.4520   22.5750 C   0  0  0  0  0  0  0  0  0  0  0  0
  -21.3960  -29.2730   22.4460 N   0  0  0  0  0  0  0  0  0  0  0  0
  -23.4020  -28.8300   23.3940 O   0  0  0  0  0  0  0  0  0  0  0  0
  -20.9100  -29.8310   21.7580 H   0  0  0  0  0  0  0  0  0  0  0  0
  -18.0160  -28.0880   22.9420 C   0  0  0  0  0  0  0  0  0  0  0  0
  -20.5740  -28.3430   23.2190 C   0  0  0  0  0  3  0  0  0  0  0  0
  -20.6730  -26.9070   22.6520 C   0  0  0  0  0  2  0  0  0  0  0  0
  -19.5730  -26.5820   21.6360 C   0  0  0  0  0  2  0  0  0  0  0  0
  -18.1900  -26.7340   22.2750 C   0  0  0  0  0  2  0  0  0  0  0  0
  -19.1350  -28.8510   23.3700 C   0  0  0  0  0  0  0  0  0  0  0  0
  -18.9180  -30.1200   23.9510 C   0  0  0  0  0  3  0  0  0  0  0  0
  -17.6140  -30.6240   24.1080 C   0  0  0  0  0  3  0  0  0  0  0  0
  -16.5090  -29.8590   23.6970 C   0  0  0  0  0  3  0  0  0  0  0  0
  -16.7110  -28.5940   23.1190 C   0  0  0  0  0  3  0  0  0  0  0  0
  -25.8720  -32.5060   23.8580 C   0  0  0  0  0  3  0  0  0  0  0  0
  -25.5650  -33.9040   24.1870 N   0  0  0  0  0  0  0  0  0  0  0  0
  -25.9020  -34.9540   23.4270 C   0  0  0  0  0  0  0  0  0  0  0  0
  -26.5770  -34.8480   22.3980 O   0  0  0  0  0  0  0  0  0  0  0  0
  -24.9590  -34.0590   24.9800 H   0  0  0  0  0  0  0  0  0  0  0  0
  -24.1800  -36.7510   23.0650 C   0  0  0  0  0  1  0  0  0  0  0  0
  -25.4160  -36.3450   23.8820 C   0  0  0  0  0  3  0  0  0  0  0  0
  -27.5480  -37.2210   24.7270 C   0  0  0  0  0  1  0  0  0  0  0  0
  -26.4530  -37.3940   23.7750 N   0  0  0  0  0  0  0  0  0  0  0  0
  -26.0490  -38.3160   23.9230 H   0  0  0  0  0  0  0  0  0  0  0  0
  -26.3920  -31.7360   25.1350 C   0  0  1  0  0  0  0  0  0  0  0  0
  -25.2970  -31.4950   26.2010 C   0  0  0  0  0  1  0  0  0  0  0  0
  -26.9780  -30.3610   24.7430 C   0  0  0  0  0  1  0  0  0  0  0  0
  -27.5430  -32.5320   25.7950 C   0  0  0  0  0  1  0  0  0  0  0  0
  -30.3460  -17.0000   21.2990 C   0  0  0  0  0  2  0  0  0  0  0  0
  -30.5940  -14.5870   20.4580 C   0  0  0  0  0  0  0  0  0  0  0  0
  -30.3650  -12.3760   19.3500 C   0  0  0  0  0  2  0  0  0  0  0  0
  -29.4170  -12.4990   18.1380 C   0  0  0  0  0  2  0  0  0  0  0  0
  -27.9480  -12.3370   18.5750 C   0  0  0  0  0  2  0  0  0  0  0  0
  -27.5890  -13.2020   19.8120 C   0  0  0  0  0  3  0  0  0  0  0  0
  -28.6480  -13.0470   20.9260 C   0  0  0  0  0  2  0  0  0  0  0  0
  -29.9510  -13.3870   20.3400 N   0  0  0  0  0  0  0  0  0  0  0  0
  -31.7630  -14.7320   20.0890 O   0  0  0  0  0  0  0  0  0  0  0  0
  -29.8430  -15.6590   20.8540 N   0  0  0  0  0  0  0  0  0  0  0  0
  -28.8790  -15.4470   21.0660 H   0  0  0  0  0  0  0  0  0  0  0  0
  -25.1930  -13.8000   20.5200 C   0  0  0  0  0  0  0  0  0  0  0  0
  -24.1280  -13.0260   20.8900 C   0  0  0  0  0  0  0  0  0  0  0  0
  -24.5940  -11.6750   20.8660 C   0  0  0  0  0  0  0  0  0  0  0  0
  -26.2410  -12.9210   20.2930 N   0  0  0  0  0  0  0  0  0  0  0  0
  -25.8850  -11.6380   20.5650 N   0  0  0  0  0  0  0  0  0  0  0  0
  -23.8720  -10.4110   21.0570 C   0  0  0  0  0  0  0  0  0  0  0  0
  -24.3080   -9.4480   21.9920 C   0  0  0  0  0  3  0  0  0  0  0  0
  -23.5870   -8.2470   22.1700 C   0  0  0  0  0  3  0  0  0  0  0  0
  -22.4170   -8.0030   21.4110 C   0  0  0  0  0  0  0  0  0  0  0  0
  -22.0010   -8.9570   20.4660 C   0  0  0  0  0  3  0  0  0  0  0  0
  -22.7220  -10.1490   20.2870 C   0  0  0  0  0  3  0  0  0  0  0  0
  -21.6670   -6.8550   21.5000 O   0  0  0  0  0  0  0  0  0  0  0  0
  -21.6240   -6.1100   22.6510 C   0  0  0  0  0  0  0  0  0  0  0  0
  -21.1940   -6.6590   23.8780 C   0  0  0  0  0  3  0  0  0  0  0  0
  -21.0980   -5.8410   25.0200 C   0  0  0  0  0  3  0  0  0  0  0  0
  -21.4230   -4.4730   24.9380 C   0  0  0  0  0  0  0  0  0  0  0  0
  -21.8470   -3.9230   23.7150 C   0  0  0  0  0  3  0  0  0  0  0  0
  -21.9440   -4.7400   22.5740 C   0  0  0  0  0  0  0  0  0  0  0  0
  -22.3330   -4.2000   21.3930 F   0  0  0  0  0  0  0  0  0  0  0  0
  -21.3240   -3.6850   26.0330 F   0  0  0  0  0  0  0  0  0  0  0  0
  -22.7280  -13.5000   21.1500 C   0  0  0  0  0  0  0  0  0  0  0  0
  -21.9960  -12.8030   22.0100 N   0  0  0  0  0  0  0  0  0  0  0  0
  -22.2920  -14.5250   20.6260 O   0  0  0  0  0  0  0  0  0  0  0  0
  -22.3590  -11.9720   22.4540 H   0  0  0  0  0  0  0  0  0  0  0  0
  -21.0570  -13.1030   22.2290 H   0  0  0  0  0  0  0  0  0  0  0  0
  -25.3560  -15.1690   20.3300 N   0  0  0  0  0  0  0  0  0  0  0  0
  -24.5740  -15.8110   20.4010 H   0  0  0  0  0  0  0  0  0  0  0  0
  -26.1710  -15.5820   19.8970 H   0  0  0  0  0  0  0  0  0  0  0  0
  2  3  1  0
  2  6  1  0
  3 12  1  0
  4  6  1  0
  4  1  1  0
  4 57  1  0
  5  3  1  0
  5 11  1  0
  5  1  1  0
  6  8  1  0
  7  6  1  0
  9 11  1  0
 11 10  1  0
 12 14  1  0
 14 13  1  0
 15 16  1  0
 15 14  1  0
 17 28  2  0
 18 16  1  0
 18 23  1  0
 19 27  1  0
 19 29  1  0
 20 26  1  0
 20 22  1  0
 21 27  1  0
 22 21  1  0
 23 22  2  0
 24 18  2  0
 25 24  1  0
 25 20  2  0
 26 19  1  0
 27 17  1  0
 29 31  2  0
 30 29  1  0
 32 30  1  0
 33 42  2  0
 33 38  1  0
 34 30  1  0
 34 38  1  0
 35 34  1  0
 36 37  1  0
 36 35  1  0
 37 33  1  0
 38 39  2  0
 39 40  1  0
 41 40  2  0
 42 41  1  0
 43 17  1  0
 43 44  1  0
 43 53  1  0
 44 47  1  0
 45 49  1  0
 45 44  1  0
 46 45  2  0
 49 48  1  0
 51 49  1  0
 51 52  1  0
 51 50  1  0
 53 56  1  1
 53 54  1  0
 55 53  1  0
 58 66  1  0
 59 64  1  0
 60 61  1  0
 60 59  1  0
 62 61  1  0
 62 71  1  0
 62 63  1  0
 64 58  1  0
 64 63  1  0
 65 58  2  0
 66 67  1  0
 66 57  1  0
 68 69  2  0
 69 88  1  0
 70 69  1  0
 70 73  1  0
 71 68  1  0
 71 72  1  0
 72 70  2  0
 73 74  1  0
 74 75  2  0
 76 79  1  0
 76 75  1  0
 77 76  2  0
 78 77  1  0
 78 73  2  0
 79 80  1  0
 80 81  1  0
 81 82  2  0
 83 82  1  0
 83 87  1  0
 84 83  2  0
 85 80  2  0
 85 84  1  0
 86 85  1  0
 88 89  1  0
 89 92  1  0
 89 91  1  0
 90 88  2  0
 93 94  1  0
 93 68  1  0
 95 93  1  0
M  ISO  4  15 101  16 101  58 100  66 100
M  END
>  <TORSDO>  (89) 
F 21

>  <SCORE>  (89) 
-13.656

>  <name>  (89) 
88

>  <ligand_id>  (89) 
88

>  <original_smiles>  (89) 
[H]c1c([H])c([H])c2c(c1[H])C([H])([H])C([H])([H])C([H])([H])C2([H])N([H])C(=O)C1([H])N(C(=O)C([H])(N([H])C(=O)C([H])(N([H])C([H])([H])[H])C([H])([H])[H])C(C([H])([H])[H])(C([H])([H])[H])C([H])([H])[H])C([H])([H])c2c([H])c(OC([H])([H])C([H])(C([H])([H])[H])C([H])([H])C3([H])N(C([H])(C([H])([H])[H])C([H])([H])[H])C([H])([H])C([H])(C([H])([H])N([H])C(=O)N4C([H])([H])C([H])([H])C([H])([H])C([H])(n5nc(-c6c([H])c([H])c(Oc7c([H])c([H])c(F)c([H])c7F)c([H])c6[H])c(C(=O)N([H])[H])c5N([H])[H])C4([H])[H])[N+]([H])([H])C3([H])[H])c([H])c([H])c2C1([H])[H]

>  <smiles>  (89) 
[H]c1c([H])c([H])c2c(c1[H])C([H])([H])C([H])([H])C([H])([H])C2([H])N([H])C(=O)C1([H])N(C(=O)C([H])(N([H])C(=O)C([H])(N([H])C([H])([H])[H])C([H])([H])[H])C(C([H])([H])[H])(C([H])([H])[H])C([H])([H])[H])C([H])([H])c2c([H])c(OC([H])([H])C([H])(C([H])([H])[H])C([H])([H])C3([H])N(C([H])(C([H])([H])[H])C([H])([H])[H])C([H])([H])C([H])(C([H])([H])N([H])C(=O)N4C([H])([H])C([H])([H])C([H])([H])C([H])(n5nc(-c6c([H])c([H])c(Oc7c([H])c([H])c(F)c([H])c7F)c([H])c6[H])c(C(=O)N([H])[H])c5N([H])[H])C4([H])[H])[N+]([H])([H])C3([H])[H])c([H])c([H])c2C1([H])[H]

$$$$
89:0:0
     RDKit          3D

 94102  0  0  1  0  0  0  0  0999 V2000
  -29.1330  -24.9100   18.3180 C   0  0  0  0  0  2  0  0  0  0  0  0
  -28.6460  -23.7870   20.5620 C   0  0  0  0  0  2  0  0  0  0  0  0
  -30.3520  -23.9560   18.4390 C   0  0  0  0  0  2  0  0  0  0  0  0
  -28.9070  -22.3930   19.7950 C   0  0  0  0  0  3  0  0  0  0  0  0
  -28.2910  -25.0210   19.6120 C   0  0  0  0  0  3  0  0  0  0  0  0
  -29.9810  -22.5550   18.7820 N   0  0  0  0  0  4  0  0  0  0  0  0
  -30.8040  -22.0860   19.1270 H   0  0  0  0  0  0  0  0  0  0  0  0
  -29.7060  -22.0660   17.9460 H   0  0  0  0  0  0  0  0  0  0  0  0
  -29.1100  -21.0600   20.6530 C   0  0  0  0  0  0  0  0  0  0  0  0
  -29.2770  -19.8130   20.0800 N   0  0  0  0  0  0  0  0  0  0  0  0
  -29.1170  -21.1630   21.8810 O   0  0  0  0  0  0  0  0  0  0  0  0
  -29.2460  -19.7780   19.0690 H   0  0  0  0  0  0  0  0  0  0  0  0
  -29.2690  -18.4540   20.7690 C   0  0  0  0  0  2  0  0  0  0  0  0
  -30.1060  -17.2810   18.6300 C   0  0  0  0  0  1  0  0  0  0  0  0
  -30.1630  -17.2600   20.1690 C   0  0  0  0  0  3  0  0  0  0  0  0
  -30.6390  -14.7200   20.4840 C   0  0  0  0  0  0  0  0  0  0  0  0
  -30.4270  -12.4560   19.4840 C   0  0  0  0  0  2  0  0  0  0  0  0
  -29.5420  -12.5850   18.2250 C   0  0  0  0  0  2  0  0  0  0  0  0
  -28.0520  -12.4520   18.6020 C   0  0  0  0  0  2  0  0  0  0  0  0
  -27.6530  -13.3250   19.8230 C   0  0  0  0  0  3  0  0  0  0  0  0
  -28.6720  -13.1990   20.9770 C   0  0  0  0  0  2  0  0  0  0  0  0
  -30.0000  -13.5070   20.4310 N   0  0  0  0  0  0  0  0  0  0  0  0
  -31.8250  -14.8200   20.1600 O   0  0  0  0  0  0  0  0  0  0  0  0
  -29.8570  -15.8460   20.6370 N   0  0  0  0  0  0  0  0  0  0  0  0
  -28.9070  -15.6750   20.9320 H   0  0  0  0  0  0  0  0  0  0  0  0
  -25.2430  -13.9350   20.4670 C   0  0  0  0  0  0  0  0  0  0  0  0
  -24.1660  -13.1730   20.8210 C   0  0  0  0  0  0  0  0  0  0  0  0
  -24.6220  -11.8180   20.8170 C   0  0  0  0  0  0  0  0  0  0  0  0
  -26.2910  -13.0500   20.2710 N   0  0  0  0  0  0  0  0  0  0  0  0
  -25.9200  -11.7710   20.5440 N   0  0  0  0  0  0  0  0  0  0  0  0
  -23.8840  -10.5630   21.0010 C   0  0  0  0  0  0  0  0  0  0  0  0
  -24.2960   -9.5980   21.9480 C   0  0  0  0  0  3  0  0  0  0  0  0
  -23.5610   -8.4040   22.1210 C   0  0  0  0  0  3  0  0  0  0  0  0
  -22.3980   -8.1680   21.3480 C   0  0  0  0  0  0  0  0  0  0  0  0
  -22.0060   -9.1220   20.3930 C   0  0  0  0  0  3  0  0  0  0  0  0
  -22.7400  -10.3070   20.2190 C   0  0  0  0  0  3  0  0  0  0  0  0
  -21.6350   -7.0280   21.4280 O   0  0  0  0  0  0  0  0  0  0  0  0
  -21.5730   -6.2840   22.5790 C   0  0  0  0  0  0  0  0  0  0  0  0
  -21.1480   -6.8400   23.8040 C   0  0  0  0  0  3  0  0  0  0  0  0
  -21.0320   -6.0230   24.9460 C   0  0  0  0  0  3  0  0  0  0  0  0
  -21.3290   -4.6490   24.8620 C   0  0  0  0  0  0  0  0  0  0  0  0
  -21.7470   -4.0920   23.6410 C   0  0  0  0  0  3  0  0  0  0  0  0
  -21.8660   -4.9080   22.5010 C   0  0  0  0  0  0  0  0  0  0  0  0
  -22.2480   -4.3610   21.3220 F   0  0  0  0  0  0  0  0  0  0  0  0
  -21.2100   -3.8620   25.9570 F   0  0  0  0  0  0  0  0  0  0  0  0
  -22.7620  -13.6600   21.0460 C   0  0  0  0  0  0  0  0  0  0  0  0
  -22.0030  -12.9790   21.8960 N   0  0  0  0  0  0  0  0  0  0  0  0
  -22.3460  -14.6800   20.4990 O   0  0  0  0  0  0  0  0  0  0  0  0
  -22.3510  -12.1570   22.3680 H   0  0  0  0  0  0  0  0  0  0  0  0
  -21.0590  -13.2870   22.0800 H   0  0  0  0  0  0  0  0  0  0  0  0
  -25.4180  -15.3020   20.2680 N   0  0  0  0  0  0  0  0  0  0  0  0
  -24.6320  -15.9420   20.3010 H   0  0  0  0  0  0  0  0  0  0  0  0
  -26.2520  -15.7170   19.8750 H   0  0  0  0  0  0  0  0  0  0  0  0
  -28.3220  -26.4400   20.1250 O   0  0  0  0  0  0  0  0  0  0  0  0
  -24.6380  -31.8930   23.2250 C   0  0  0  0  0  0  0  0  0  0  0  0
  -27.2030  -27.3090   20.0890 C   0  0  0  0  0  0  0  0  0  0  0  0
  -23.4190  -30.5010   21.5990 C   0  0  0  0  0  3  0  0  0  0  0  0
  -24.8480  -28.9620   20.1450 C   0  0  0  0  0  0  0  0  0  0  0  0
  -25.9620  -30.8060   21.3890 C   0  0  0  0  0  2  0  0  0  0  0  0
  -26.0300  -29.4290   20.7320 C   0  0  0  0  0  0  0  0  0  0  0  0
  -27.2060  -28.6100   20.7040 C   0  0  0  0  0  3  0  0  0  0  0  0
  -25.9920  -26.9260   19.4630 C   0  0  0  0  0  3  0  0  0  0  0  0
  -24.8340  -27.7190   19.5040 C   0  0  0  0  0  3  0  0  0  0  0  0
  -23.6140  -29.8390   20.2130 C   0  0  0  0  0  2  0  0  0  0  0  0
  -24.6940  -31.0820   22.1290 N   0  0  0  0  0  0  0  0  0  0  0  0
  -23.5590  -32.1700   23.7690 O   0  0  0  0  0  0  0  0  0  0  0  0
  -22.7690  -29.4760   22.5600 C   0  0  0  0  0  0  0  0  0  0  0  0
  -21.4430  -29.2900   22.4400 N   0  0  0  0  0  0  0  0  0  0  0  0
  -23.4550  -28.8490   23.3720 O   0  0  0  0  0  0  0  0  0  0  0  0
  -20.9440  -29.8490   21.7610 H   0  0  0  0  0  0  0  0  0  0  0  0
  -18.0780  -28.0640   22.9520 C   0  0  0  0  0  0  0  0  0  0  0  0
  -20.6330  -28.3500   23.2180 C   0  0  0  0  0  3  0  0  0  0  0  0
  -20.7470  -26.9160   22.6490 C   0  0  0  0  0  2  0  0  0  0  0  0
  -19.6470  -26.5780   21.6380 C   0  0  0  0  0  2  0  0  0  0  0  0
  -18.2650  -26.7130   22.2820 C   0  0  0  0  0  2  0  0  0  0  0  0
  -19.1890  -28.8390   23.3760 C   0  0  0  0  0  0  0  0  0  0  0  0
  -18.9570  -30.1020   23.9620 C   0  0  0  0  0  3  0  0  0  0  0  0
  -17.6480  -30.5910   24.1280 C   0  0  0  0  0  3  0  0  0  0  0  0
  -16.5510  -29.8130   23.7190 C   0  0  0  0  0  3  0  0  0  0  0  0
  -16.7660  -28.5520   23.1360 C   0  0  0  0  0  3  0  0  0  0  0  0
  -25.9250  -32.5290   23.8340 C   0  0  0  0  0  3  0  0  0  0  0  0
  -26.4590  -31.7520   25.0990 C   0  0  1  0  0  0  0  0  0  0  0  0
  -25.3800  -31.5090   26.1800 C   0  0  0  0  0  1  0  0  0  0  0  0
  -27.0410  -30.3770   24.6960 C   0  0  0  0  0  1  0  0  0  0  0  0
  -27.6180  -32.5480   25.7490 C   0  0  0  0  0  1  0  0  0  0  0  0
  -25.6140  -33.9230   24.1760 N   0  0  0  0  0  0  0  0  0  0  0  0
  -25.9300  -34.9820   23.4190 C   0  0  0  0  0  0  0  0  0  0  0  0
  -26.5850  -34.8880   22.3770 O   0  0  0  0  0  0  0  0  0  0  0  0
  -25.0300  -34.0710   24.9870 H   0  0  0  0  0  0  0  0  0  0  0  0
  -24.1910  -36.7720   23.0960 C   0  0  0  0  0  1  0  0  0  0  0  0
  -25.4430  -36.3650   23.8900 C   0  0  0  0  0  3  0  0  0  0  0  0
  -27.5870  -37.2500   24.6990 C   0  0  0  0  0  1  0  0  0  0  0  0
  -26.4710  -37.4230   23.7730 N   0  0  0  0  0  0  0  0  0  0  0  0
  -26.0630  -38.3400   23.9370 H   0  0  0  0  0  0  0  0  0  0  0  0
  1  3  1  0
  1  5  1  0
  3  6  1  0
  4  2  1  0
  4  9  1  0
  5 54  1  0
  5  2  1  0
  6  7  1  0
  6  4  1  0
  8  6  1  0
  9 11  2  0
 10  9  1  0
 10 13  1  0
 12 10  1  0
 15 14  1  0
 15 24  1  0
 15 13  1  0
 16 24  1  0
 17 22  1  0
 18 19  1  0
 18 17  1  0
 20 19  1  0
 20 29  1  0
 20 21  1  0
 22 16  1  0
 22 21  1  0
 23 16  2  0
 24 25  1  0
 26 27  2  0
 27 46  1  0
 28 27  1  0
 28 31  1  0
 29 26  1  0
 29 30  1  0
 30 28  2  0
 31 32  1  0
 32 33  2  0
 34 37  1  0
 34 33  1  0
 35 34  2  0
 36 35  1  0
 36 31  2  0
 37 38  1  0
 38 39  1  0
 39 40  2  0
 41 40  1  0
 41 45  1  0
 42 41  2  0
 43 38  2  0
 43 42  1  0
 44 43  1  0
 46 47  1  0
 47 50  1  0
 47 49  1  0
 48 46  2  0
 51 52  1  0
 51 26  1  0
 53 51  1  0
 55 66  2  0
 56 54  1  0
 56 61  1  0
 57 65  1  0
 57 67  1  0
 58 64  1  0
 58 60  1  0
 59 65  1  0
 60 59  1  0
 61 60  2  0
 62 63  1  0
 62 56  2  0
 63 58  2  0
 64 57  1  0
 65 55  1  0
 67 69  2  0
 68 67  1  0
 70 68  1  0
 71 80  2  0
 71 76  1  0
 72 68  1  0
 72 76  1  0
 73 72  1  0
 74 75  1  0
 74 73  1  0
 75 71  1  0
 76 77  2  0
 77 78  1  0
 79 78  2  0
 80 79  1  0
 81 55  1  0
 81 86  1  0
 81 82  1  0
 82 85  1  1
 82 83  1  0
 84 82  1  0
 86 89  1  0
 87 91  1  0
 87 86  1  0
 88 87  2  0
 91 90  1  0
 93 91  1  0
 93 94  1  0
 93 92  1  0
M  ISO  4   5 101  16 100  24 100  54 101
M  END
>  <TORSDO>  (90) 
F 19

>  <SCORE>  (90) 
-14.092

>  <name>  (90) 
89

>  <ligand_id>  (90) 
89

>  <original_smiles>  (90) 
[H]c1c([H])c([H])c2c(c1[H])C([H])([H])C([H])([H])C([H])([H])C2([H])N([H])C(=O)C1([H])N(C(=O)C([H])(N([H])C(=O)C([H])(N([H])C([H])([H])[H])C([H])([H])[H])C(C([H])([H])[H])(C([H])([H])[H])C([H])([H])[H])C([H])([H])c2c([H])c(OC3([H])C([H])([H])C([H])([H])[N+]([H])([H])C([H])(C(=O)N([H])C([H])([H])C([H])(N([H])C(=O)N4C([H])([H])C([H])([H])C([H])([H])C([H])(n5nc(-c6c([H])c([H])c(Oc7c([H])c([H])c(F)c([H])c7F)c([H])c6[H])c(C(=O)N([H])[H])c5N([H])[H])C4([H])[H])C([H])([H])[H])C3([H])[H])c([H])c([H])c2C1([H])[H]

>  <smiles>  (90) 
[H]c1c([H])c([H])c2c(c1[H])C([H])([H])C([H])([H])C([H])([H])C2([H])N([H])C(=O)C1([H])N(C(=O)C([H])(N([H])C(=O)C([H])(N([H])C([H])([H])[H])C([H])([H])[H])C(C([H])([H])[H])(C([H])([H])[H])C([H])([H])[H])C([H])([H])c2c([H])c(OC3([H])C([H])([H])C([H])([H])[N+]([H])([H])C([H])(C(=O)N([H])C([H])([H])C([H])(N([H])C(=O)N4C([H])([H])C([H])([H])C([H])([H])C([H])(n5nc(-c6c([H])c([H])c(Oc7c([H])c([H])c(F)c([H])c7F)c([H])c6[H])c(C(=O)N([H])[H])c5N([H])[H])C4([H])[H])C([H])([H])[H])C3([H])[H])c([H])c([H])c2C1([H])[H]

$$$$
90:0:0
     RDKit          3D

 91 99  0  0  1  0  0  0  0  0999 V2000
  -28.2120  -23.0610   20.1160 C   0  0  0  0  0  2  0  0  0  0  0  0
  -30.4360  -23.6550   19.6010 C   0  0  0  0  0  2  0  0  0  0  0  0
  -29.1220  -24.2940   20.0870 C   0  0  0  0  0  3  0  0  0  0  0  0
  -29.1660  -21.9380   20.5780 C   0  0  0  0  0  3  0  0  0  0  0  0
  -30.3470  -22.2410   19.8390 O   0  0  0  0  0  0  0  0  0  0  0  0
  -28.6280  -25.5310   19.2690 C   0  0  0  0  0  2  0  0  0  0  0  0
  -28.4190  -26.6970   20.1040 O   0  0  0  0  0  0  0  0  0  0  0  0
  -24.5970  -31.8820   23.2240 C   0  0  0  0  0  0  0  0  0  0  0  0
  -27.2250  -27.4050   20.1040 C   0  0  0  0  0  0  0  0  0  0  0  0
  -23.3900  -30.4780   21.5920 C   0  0  0  0  0  3  0  0  0  0  0  0
  -24.8320  -28.9360   20.1630 C   0  0  0  0  0  0  0  0  0  0  0  0
  -25.9250  -30.8170   21.3940 C   0  0  0  0  0  2  0  0  0  0  0  0
  -26.0000  -29.4480   20.7400 C   0  0  0  0  0  0  0  0  0  0  0  0
  -27.1960  -28.6900   20.7040 C   0  0  0  0  0  3  0  0  0  0  0  0
  -26.0180  -26.9000   19.5590 C   0  0  0  0  0  3  0  0  0  0  0  0
  -24.8350  -27.6610   19.5770 C   0  0  0  0  0  3  0  0  0  0  0  0
  -23.5950  -29.8040   20.2120 C   0  0  0  0  0  2  0  0  0  0  0  0
  -24.6570  -31.0750   22.1270 N   0  0  0  0  0  0  0  0  0  0  0  0
  -23.5140  -32.1620   23.7610 O   0  0  0  0  0  0  0  0  0  0  0  0
  -22.7410  -29.4570   22.5540 C   0  0  0  0  0  0  0  0  0  0  0  0
  -21.4160  -29.2760   22.4270 N   0  0  0  0  0  0  0  0  0  0  0  0
  -23.4270  -28.8330   23.3680 O   0  0  0  0  0  0  0  0  0  0  0  0
  -20.9290  -29.8280   21.7360 H   0  0  0  0  0  0  0  0  0  0  0  0
  -18.0410  -28.0850   22.9350 C   0  0  0  0  0  0  0  0  0  0  0  0
  -20.6000  -28.3400   23.1990 C   0  0  0  0  0  3  0  0  0  0  0  0
  -20.6990  -26.9100   22.6210 C   0  0  0  0  0  2  0  0  0  0  0  0
  -19.5940  -26.5890   21.6110 C   0  0  0  0  0  2  0  0  0  0  0  0
  -18.2140  -26.7360   22.2580 C   0  0  0  0  0  2  0  0  0  0  0  0
  -19.1610  -28.8460   23.3620 C   0  0  0  0  0  0  0  0  0  0  0  0
  -18.9470  -30.1110   23.9530 C   0  0  0  0  0  3  0  0  0  0  0  0
  -17.6430  -30.6140   24.1220 C   0  0  0  0  0  3  0  0  0  0  0  0
  -16.5360  -29.8500   23.7110 C   0  0  0  0  0  3  0  0  0  0  0  0
  -16.7360  -28.5880   23.1240 C   0  0  0  0  0  3  0  0  0  0  0  0
  -25.8810  -32.5150   23.8410 C   0  0  0  0  0  3  0  0  0  0  0  0
  -25.5690  -33.9130   24.1650 N   0  0  0  0  0  0  0  0  0  0  0  0
  -25.9040  -34.9650   23.4050 C   0  0  0  0  0  0  0  0  0  0  0  0
  -26.5790  -34.8580   22.3770 O   0  0  0  0  0  0  0  0  0  0  0  0
  -24.9580  -34.0670   24.9530 H   0  0  0  0  0  0  0  0  0  0  0  0
  -24.1770  -36.7600   23.0390 C   0  0  0  0  0  1  0  0  0  0  0  0
  -25.4140  -36.3540   23.8570 C   0  0  0  0  0  3  0  0  0  0  0  0
  -27.5500  -37.2360   24.6890 C   0  0  0  0  0  1  0  0  0  0  0  0
  -26.4480  -37.4070   23.7460 N   0  0  0  0  0  0  0  0  0  0  0  0
  -26.0420  -38.3270   23.8970 H   0  0  0  0  0  0  0  0  0  0  0  0
  -26.4020  -31.7480   25.1190 C   0  0  1  0  0  0  0  0  0  0  0  0
  -25.3130  -31.5020   26.1890 C   0  0  0  0  0  1  0  0  0  0  0  0
  -26.9880  -30.3710   24.7270 C   0  0  0  0  0  1  0  0  0  0  0  0
  -27.5540  -32.5470   25.7730 C   0  0  0  0  0  1  0  0  0  0  0  0
  -28.7260  -20.4680   20.2890 C   0  0  0  0  0  2  0  0  0  0  0  0
  -29.6030  -19.4310   20.9240 N   0  0  0  0  0  4  0  0  0  0  0  0
  -29.4830  -19.4980   21.9240 H   0  0  0  0  0  0  0  0  0  0  0  0
  -30.5630  -19.6640   20.7270 H   0  0  0  0  0  0  0  0  0  0  0  0
  -29.3370  -18.0130   20.5150 C   0  0  0  0  0  2  0  0  0  0  0  0
  -30.2880  -16.9530   21.1680 C   0  0  0  0  0  2  0  0  0  0  0  0
  -30.6150  -14.5140   20.4900 C   0  0  0  0  0  0  0  0  0  0  0  0
  -30.3380  -12.3390   19.3430 C   0  0  0  0  0  2  0  0  0  0  0  0
  -29.3940  -12.5310   18.1360 C   0  0  0  0  0  2  0  0  0  0  0  0
  -27.9250  -12.3710   18.5740 C   0  0  0  0  0  2  0  0  0  0  0  0
  -27.5810  -13.2230   19.8240 C   0  0  0  0  0  3  0  0  0  0  0  0
  -28.6350  -13.0130   20.9340 C   0  0  0  0  0  2  0  0  0  0  0  0
  -29.9540  -13.3270   20.3640 N   0  0  0  0  0  0  0  0  0  0  0  0
  -31.7550  -14.6950   20.0590 O   0  0  0  0  0  0  0  0  0  0  0  0
  -29.8770  -15.5400   20.9700 N   0  0  0  0  0  0  0  0  0  0  0  0
  -28.9390  -15.2980   21.2550 H   0  0  0  0  0  0  0  0  0  0  0  0
  -25.1810  -13.8310   20.5250 C   0  0  0  0  0  0  0  0  0  0  0  0
  -24.1150  -13.0600   20.8960 C   0  0  0  0  0  0  0  0  0  0  0  0
  -24.5780  -11.7080   20.8690 C   0  0  0  0  0  0  0  0  0  0  0  0
  -26.2280  -12.9510   20.3000 N   0  0  0  0  0  0  0  0  0  0  0  0
  -25.8680  -11.6690   20.5660 N   0  0  0  0  0  0  0  0  0  0  0  0
  -23.8540  -10.4440   21.0580 C   0  0  0  0  0  0  0  0  0  0  0  0
  -24.2940   -9.4760   21.9880 C   0  0  0  0  0  3  0  0  0  0  0  0
  -23.5730   -8.2760   22.1650 C   0  0  0  0  0  3  0  0  0  0  0  0
  -22.3980   -8.0360   21.4120 C   0  0  0  0  0  0  0  0  0  0  0  0
  -21.9800   -8.9930   20.4720 C   0  0  0  0  0  3  0  0  0  0  0  0
  -22.6990  -10.1850   20.2930 C   0  0  0  0  0  3  0  0  0  0  0  0
  -21.6470   -6.8890   21.5000 O   0  0  0  0  0  0  0  0  0  0  0  0
  -21.6100   -6.1400   22.6480 C   0  0  0  0  0  0  0  0  0  0  0  0
  -21.1920   -6.6850   23.8810 C   0  0  0  0  0  3  0  0  0  0  0  0
  -21.1040   -5.8620   25.0230 C   0  0  0  0  0  3  0  0  0  0  0  0
  -21.4200   -4.4930   24.9300 C   0  0  0  0  0  0  0  0  0  0  0  0
  -21.8310   -3.9470   23.7010 C   0  0  0  0  0  3  0  0  0  0  0  0
  -21.9230   -4.7670   22.5630 C   0  0  0  0  0  0  0  0  0  0  0  0
  -22.2990   -4.2320   21.3780 F   0  0  0  0  0  0  0  0  0  0  0  0
  -21.3270   -3.7010   26.0220 F   0  0  0  0  0  0  0  0  0  0  0  0
  -22.7150  -13.5320   21.1640 C   0  0  0  0  0  0  0  0  0  0  0  0
  -21.9880  -12.8340   22.0290 N   0  0  0  0  0  0  0  0  0  0  0  0
  -22.2780  -14.5590   20.6460 O   0  0  0  0  0  0  0  0  0  0  0  0
  -22.3570  -12.0020   22.4650 H   0  0  0  0  0  0  0  0  0  0  0  0
  -21.0500  -13.1310   22.2530 H   0  0  0  0  0  0  0  0  0  0  0  0
  -25.3490  -15.2010   20.3380 N   0  0  0  0  0  0  0  0  0  0  0  0
  -24.5760  -15.8540   20.4070 H   0  0  0  0  0  0  0  0  0  0  0  0
  -26.1890  -15.6200   19.9590 H   0  0  0  0  0  0  0  0  0  0  0  0
  1  4  1  0
  2  5  1  0
  2  3  1  0
  3  6  1  0
  3  1  1  0
  4 48  1  0
  5  4  1  0
  6  7  1  0
  7  9  1  0
  8 19  2  0
  9 14  1  0
 10 18  1  0
 10 20  1  0
 11 17  1  0
 11 13  1  0
 12 18  1  0
 13 12  1  0
 14 13  2  0
 15 16  1  0
 15  9  2  0
 16 11  2  0
 17 10  1  0
 18  8  1  0
 20 22  2  0
 21 20  1  0
 23 21  1  0
 24 33  2  0
 24 29  1  0
 25 21  1  0
 25 29  1  0
 26 25  1  0
 27 28  1  0
 27 26  1  0
 28 24  1  0
 29 30  2  0
 30 31  1  0
 32 31  2  0
 33 32  1  0
 34  8  1  0
 34 35  1  0
 34 44  1  0
 35 38  1  0
 36 40  1  0
 36 35  1  0
 37 36  2  0
 40 39  1  0
 42 40  1  0
 42 43  1  0
 42 41  1  0
 44 47  1  1
 44 45  1  0
 46 44  1  0
 48 49  1  0
 49 50  1  0
 51 49  1  0
 52 49  1  0
 52 53  1  0
 54 62  1  0
 55 60  1  0
 56 57  1  0
 56 55  1  0
 58 57  1  0
 58 67  1  0
 58 59  1  0
 60 54  1  0
 60 59  1  0
 61 54  2  0
 62 53  1  0
 62 63  1  0
 64 65  2  0
 65 84  1  0
 66 65  1  0
 66 69  1  0
 67 64  1  0
 67 68  1  0
 68 66  2  0
 69 70  1  0
 70 71  2  0
 72 75  1  0
 72 71  1  0
 73 72  2  0
 74 73  1  0
 74 69  2  0
 75 76  1  0
 76 77  1  0
 77 78  2  0
 79 78  1  0
 79 83  1  0
 80 79  2  0
 81 76  2  0
 81 80  1  0
 82 81  1  0
 84 85  1  0
 85 88  1  0
 85 87  1  0
 86 84  2  0
 89 90  1  0
 89 64  1  0
 91 89  1  0
M  ISO  4   6 101   7 101  54 100  62 100
M  END
>  <TORSDO>  (91) 
F 21

>  <SCORE>  (91) 
-13.552

>  <name>  (91) 
90

>  <ligand_id>  (91) 
90

>  <original_smiles>  (91) 
[H]c1c([H])c([H])c2c(c1[H])C([H])([H])C([H])([H])C([H])([H])C2([H])N([H])C(=O)C1([H])N(C(=O)C([H])(N([H])C(=O)C([H])(N([H])C([H])([H])[H])C([H])([H])[H])C(C([H])([H])[H])(C([H])([H])[H])C([H])([H])[H])C([H])([H])c2c([H])c(OC([H])([H])C3([H])C([H])([H])OC([H])(C([H])([H])[N+]([H])([H])C([H])([H])C([H])([H])N([H])C(=O)N4C([H])([H])C([H])([H])C([H])([H])C([H])(n5nc(-c6c([H])c([H])c(Oc7c([H])c([H])c(F)c([H])c7F)c([H])c6[H])c(C(=O)N([H])[H])c5N([H])[H])C4([H])[H])C3([H])[H])c([H])c([H])c2C1([H])[H]

>  <smiles>  (91) 
[H]c1c([H])c([H])c2c(c1[H])C([H])([H])C([H])([H])C([H])([H])C2([H])N([H])C(=O)C1([H])N(C(=O)C([H])(N([H])C(=O)C([H])(N([H])C([H])([H])[H])C([H])([H])[H])C(C([H])([H])[H])(C([H])([H])[H])C([H])([H])[H])C([H])([H])c2c([H])c(OC([H])([H])C3([H])C([H])([H])OC([H])(C([H])([H])[N+]([H])([H])C([H])([H])C([H])([H])N([H])C(=O)N4C([H])([H])C([H])([H])C([H])([H])C([H])(n5nc(-c6c([H])c([H])c(Oc7c([H])c([H])c(F)c([H])c7F)c([H])c6[H])c(C(=O)N([H])[H])c5N([H])[H])C4([H])[H])C3([H])[H])c([H])c([H])c2C1([H])[H]

$$$$
91:0:0
     RDKit          3D

 97105  0  0  1  0  0  0  0  0999 V2000
  -28.9040  -21.5610   20.4860 N   0  0  0  0  0  4  0  0  0  0  0  0
  -28.5520  -21.7670   21.4060 H   0  0  0  0  0  0  0  0  0  0  0  0
  -28.1880  -21.0420   20.0050 H   0  0  0  0  0  0  0  0  0  0  0  0
  -30.0740  -20.6620   20.7310 C   0  0  0  0  0  2  0  0  0  0  0  0
  -30.7330  -14.6030   20.9130 C   0  0  0  0  0  0  0  0  0  0  0  0
  -30.5690  -12.3430   19.9390 C   0  0  0  0  0  2  0  0  0  0  0  0
  -29.7460  -12.4760   18.6400 C   0  0  0  0  0  2  0  0  0  0  0  0
  -28.2410  -12.3280   18.9450 C   0  0  0  0  0  2  0  0  0  0  0  0
  -27.7840  -13.2270   20.1280 C   0  0  0  0  0  3  0  0  0  0  0  0
  -28.7430  -13.1060   21.3370 C   0  0  0  0  0  2  0  0  0  0  0  0
  -30.1040  -13.3920   20.8640 N   0  0  0  0  0  0  0  0  0  0  0  0
  -31.9120  -14.7390   20.5750 O   0  0  0  0  0  0  0  0  0  0  0  0
  -29.9820  -19.2240   20.2030 C   0  0  0  0  0  0  0  0  0  0  0  0
  -30.2000  -18.8070   18.9020 C   0  0  0  0  0  0  0  0  0  0  0  0
  -30.0160  -16.9240   20.5030 C   0  0  0  0  0  0  0  0  0  0  0  0
  -29.8220  -18.1240   21.0890 N   0  0  0  0  0  0  0  0  0  0  0  0
  -29.9590  -15.6760   21.2060 N   0  0  0  0  0  0  0  0  0  0  0  0
  -30.2670  -17.0590   18.7680 S   0  0  0  0  0  0  0  0  0  0  0  0
  -29.0830  -15.4830   21.6690 H   0  0  0  0  0  0  0  0  0  0  0  0
  -25.3400  -13.8510   20.6200 C   0  0  0  0  0  0  0  0  0  0  0  0
  -24.2440  -13.0880   20.9240 C   0  0  0  0  0  0  0  0  0  0  0  0
  -24.7070  -11.7370   20.9730 C   0  0  0  0  0  0  0  0  0  0  0  0
  -26.3990  -12.9640   20.5050 N   0  0  0  0  0  0  0  0  0  0  0  0
  -26.0180  -11.6890   20.7720 N   0  0  0  0  0  0  0  0  0  0  0  0
  -23.9660  -10.4800   21.1370 C   0  0  0  0  0  0  0  0  0  0  0  0
  -24.3460   -9.5200   22.1000 C   0  0  0  0  0  3  0  0  0  0  0  0
  -23.6050   -8.3280   22.2570 C   0  0  0  0  0  3  0  0  0  0  0  0
  -22.4700   -8.0880   21.4460 C   0  0  0  0  0  0  0  0  0  0  0  0
  -22.1100   -9.0370   20.4700 C   0  0  0  0  0  3  0  0  0  0  0  0
  -22.8520  -10.2200   20.3150 C   0  0  0  0  0  3  0  0  0  0  0  0
  -21.7080   -6.9480   21.5070 O   0  0  0  0  0  0  0  0  0  0  0  0
  -21.6170   -6.1990   22.6520 C   0  0  0  0  0  0  0  0  0  0  0  0
  -21.1780   -6.7580   23.8750 C   0  0  0  0  0  3  0  0  0  0  0  0
  -21.0360   -5.9390   25.0100 C   0  0  0  0  0  3  0  0  0  0  0  0
  -21.3200   -4.5620   24.9270 C   0  0  0  0  0  0  0  0  0  0  0  0
  -21.7490   -4.0040   23.7100 C   0  0  0  0  0  3  0  0  0  0  0  0
  -21.8930   -4.8200   22.5750 C   0  0  0  0  0  0  0  0  0  0  0  0
  -22.2860   -4.2710   21.3990 F   0  0  0  0  0  0  0  0  0  0  0  0
  -21.1770   -3.7730   26.0170 F   0  0  0  0  0  0  0  0  0  0  0  0
  -22.8300  -13.5710   21.0650 C   0  0  0  0  0  0  0  0  0  0  0  0
  -22.0340  -12.9100   21.8990 N   0  0  0  0  0  0  0  0  0  0  0  0
  -22.4350  -14.5730   20.4700 O   0  0  0  0  0  0  0  0  0  0  0  0
  -22.3600  -12.1000   22.4040 H   0  0  0  0  0  0  0  0  0  0  0  0
  -21.0830  -13.2230   22.0310 H   0  0  0  0  0  0  0  0  0  0  0  0
  -25.5250  -15.2160   20.4150 N   0  0  0  0  0  0  0  0  0  0  0  0
  -24.7610  -15.8820   20.4420 H   0  0  0  0  0  0  0  0  0  0  0  0
  -26.4070  -15.6430   20.1640 H   0  0  0  0  0  0  0  0  0  0  0  0
  -30.4480  -19.6410   17.6760 C   0  0  0  0  0  2  0  0  0  0  0  0
  -29.4920  -20.1850   15.3630 C   0  0  0  0  0  1  0  0  0  0  0  0
  -27.9370  -19.2430   17.1330 C   0  0  0  0  0  1  0  0  0  0  0  0
  -29.1980  -20.0890   16.8720 C   0  0  0  0  0  3  0  0  0  0  0  0
  -29.1590  -22.8600   19.7710 C   0  0  0  0  0  2  0  0  0  0  0  0
  -26.9160  -23.8980   20.5440 C   0  0  0  0  0  1  0  0  0  0  0  0
  -28.4270  -24.1280   20.3450 C   0  0  0  0  0  3  0  0  0  0  0  0
  -28.4260  -25.3800   18.0070 C   0  0  0  0  0  1  0  0  0  0  0  0
  -28.7380  -25.4390   19.5160 C   0  0  0  0  0  3  0  0  0  0  0  0
  -28.4400  -26.7220   20.1270 O   0  0  0  0  0  0  0  0  0  0  0  0
  -24.5790  -31.8610   23.1840 C   0  0  0  0  0  0  0  0  0  0  0  0
  -27.2290  -27.4040   20.0860 C   0  0  0  0  0  0  0  0  0  0  0  0
  -23.3710  -30.4590   21.5450 C   0  0  0  0  0  3  0  0  0  0  0  0
  -24.8220  -28.9250   20.1070 C   0  0  0  0  0  0  0  0  0  0  0  0
  -25.8920  -30.8170   21.3330 C   0  0  0  0  0  2  0  0  0  0  0  0
  -25.9790  -29.4420   20.6980 C   0  0  0  0  0  0  0  0  0  0  0  0
  -27.1780  -28.6900   20.6850 C   0  0  0  0  0  3  0  0  0  0  0  0
  -26.0450  -26.9110   19.4910 C   0  0  0  0  0  3  0  0  0  0  0  0
  -24.8520  -27.6600   19.4960 C   0  0  0  0  0  3  0  0  0  0  0  0
  -23.5740  -29.7790   20.1640 C   0  0  0  0  0  2  0  0  0  0  0  0
  -24.6330  -31.0600   22.0820 N   0  0  0  0  0  0  0  0  0  0  0  0
  -23.4990  -32.1320   23.7290 O   0  0  0  0  0  0  0  0  0  0  0  0
  -22.7190  -29.4400   22.5070 C   0  0  0  0  0  0  0  0  0  0  0  0
  -21.3920  -29.2730   22.3960 N   0  0  0  0  0  0  0  0  0  0  0  0
  -23.4060  -28.8010   23.3100 O   0  0  0  0  0  0  0  0  0  0  0  0
  -20.8980  -29.8380   21.7180 H   0  0  0  0  0  0  0  0  0  0  0  0
  -18.0130  -28.1050   22.9350 C   0  0  0  0  0  0  0  0  0  0  0  0
  -20.5770  -28.3370   23.1690 C   0  0  0  0  0  3  0  0  0  0  0  0
  -20.6550  -26.9080   22.5820 C   0  0  0  0  0  2  0  0  0  0  0  0
  -19.5360  -26.6070   21.5790 C   0  0  0  0  0  2  0  0  0  0  0  0
  -18.1650  -26.7610   22.2430 C   0  0  0  0  0  2  0  0  0  0  0  0
  -19.1450  -28.8510   23.3560 C   0  0  0  0  0  0  0  0  0  0  0  0
  -18.9470  -30.1100   23.9650 C   0  0  0  0  0  3  0  0  0  0  0  0
  -17.6500  -30.6260   24.1470 C   0  0  0  0  0  3  0  0  0  0  0  0
  -16.5330  -29.8760   23.7380 C   0  0  0  0  0  3  0  0  0  0  0  0
  -16.7160  -28.6150   23.1440 C   0  0  0  0  0  3  0  0  0  0  0  0
  -25.8640  -32.4940   23.8020 C   0  0  0  0  0  3  0  0  0  0  0  0
  -25.5510  -33.8870   24.1510 N   0  0  0  0  0  0  0  0  0  0  0  0
  -25.8830  -34.9500   23.4060 C   0  0  0  0  0  0  0  0  0  0  0  0
  -26.5540  -34.8600   22.3730 O   0  0  0  0  0  0  0  0  0  0  0  0
  -24.9500  -34.0310   24.9510 H   0  0  0  0  0  0  0  0  0  0  0  0
  -24.1490  -36.7360   23.0730 C   0  0  0  0  0  1  0  0  0  0  0  0
  -25.3960  -36.3330   23.8800 C   0  0  0  0  0  3  0  0  0  0  0  0
  -27.5370  -37.2020   24.7050 C   0  0  0  0  0  1  0  0  0  0  0  0
  -26.4260  -37.3890   23.7740 N   0  0  0  0  0  0  0  0  0  0  0  0
  -26.0250  -38.3080   23.9420 H   0  0  0  0  0  0  0  0  0  0  0  0
  -26.4010  -31.7070   25.0580 C   0  0  1  0  0  0  0  0  0  0  0  0
  -25.3220  -31.4410   26.1370 C   0  0  0  0  0  1  0  0  0  0  0  0
  -26.9810  -30.3400   24.6290 C   0  0  0  0  0  1  0  0  0  0  0  0
  -27.5680  -32.4910   25.7060 C   0  0  0  0  0  1  0  0  0  0  0  0
  1  4  1  0
  1  2  1  0
  3  1  1  0
  5 17  1  0
  6 11  1  0
  7  8  1  0
  7  6  1  0
  9  8  1  0
  9 23  1  0
  9 10  1  0
 11  5  1  0
 11 10  1  0
 12  5  2  0
 13  4  1  0
 13 16  1  0
 14 13  2  0
 15 16  2  0
 15 17  1  0
 17 19  1  0
 18 14  1  0
 18 15  1  0
 20 21  2  0
 21 22  1  0
 21 40  1  0
 22 25  1  0
 23 20  1  0
 23 24  1  0
 24 22  2  0
 25 26  1  0
 26 27  2  0
 28 31  1  0
 28 27  1  0
 29 28  2  0
 30 29  1  0
 30 25  2  0
 31 32  1  0
 32 33  1  0
 33 34  2  0
 35 34  1  0
 35 39  1  0
 36 35  2  0
 37 32  2  0
 37 36  1  0
 38 37  1  0
 40 41  1  0
 41 44  1  0
 41 43  1  0
 42 40  2  0
 45 46  1  0
 45 20  1  0
 47 45  1  0
 48 14  1  0
 49 51  1  0
 51 50  1  0
 51 48  1  0
 52 54  1  0
 52  1  1  0
 54 53  1  0
 56 55  1  0
 56 57  1  0
 56 54  1  0
 58 69  2  0
 59 57  1  0
 59 64  1  0
 60 68  1  0
 60 70  1  0
 61 67  1  0
 61 63  1  0
 62 68  1  0
 63 62  1  0
 64 63  2  0
 65 66  1  0
 65 59  2  0
 66 61  2  0
 67 60  1  0
 68 58  1  0
 70 72  2  0
 71 70  1  0
 73 71  1  0
 74 83  2  0
 74 79  1  0
 75 71  1  0
 75 79  1  0
 76 75  1  0
 77 78  1  0
 77 76  1  0
 78 74  1  0
 79 80  2  0
 80 81  1  0
 82 81  2  0
 83 82  1  0
 84 58  1  0
 84 85  1  0
 84 94  1  0
 85 88  1  0
 86 90  1  0
 86 85  1  0
 87 86  2  0
 90 89  1  0
 92 90  1  0
 92 93  1  0
 92 91  1  0
 94 97  1  1
 94 95  1  0
 96 94  1  0
M  ISO  4   5 100  17 100  56 101  57 101
M  END
>  <TORSDO>  (92) 
F 22

>  <SCORE>  (92) 
-13.161

>  <name>  (92) 
91

>  <ligand_id>  (92) 
91

>  <original_smiles>  (92) 
[H]c1c([H])c([H])c2c(c1[H])C([H])([H])C([H])([H])C([H])([H])C2([H])N([H])C(=O)C1([H])N(C(=O)C([H])(N([H])C(=O)C([H])(N([H])C([H])([H])[H])C([H])([H])[H])C(C([H])([H])[H])(C([H])([H])[H])C([H])([H])[H])C([H])([H])c2c([H])c(OC([H])(C([H])([H])[H])C([H])(C([H])([H])[H])C([H])([H])[N+]([H])([H])C([H])([H])c3nc(N([H])C(=O)N4C([H])([H])C([H])([H])C([H])([H])C([H])(n5nc(-c6c([H])c([H])c(Oc7c([H])c([H])c(F)c([H])c7F)c([H])c6[H])c(C(=O)N([H])[H])c5N([H])[H])C4([H])[H])sc3C([H])([H])C([H])(C([H])([H])[H])C([H])([H])[H])c([H])c([H])c2C1([H])[H]

>  <smiles>  (92) 
[H]c1c([H])c([H])c2c(c1[H])C([H])([H])C([H])([H])C([H])([H])C2([H])N([H])C(=O)C1([H])N(C(=O)C([H])(N([H])C(=O)C([H])(N([H])C([H])([H])[H])C([H])([H])[H])C(C([H])([H])[H])(C([H])([H])[H])C([H])([H])[H])C([H])([H])c2c([H])c(OC([H])(C([H])([H])[H])C([H])(C([H])([H])[H])C([H])([H])[N+]([H])([H])C([H])([H])c3nc(N([H])C(=O)N4C([H])([H])C([H])([H])C([H])([H])C([H])(n5nc(-c6c([H])c([H])c(Oc7c([H])c([H])c(F)c([H])c7F)c([H])c6[H])c(C(=O)N([H])[H])c5N([H])[H])C4([H])[H])sc3C([H])([H])C([H])(C([H])([H])[H])C([H])([H])[H])c([H])c([H])c2C1([H])[H]

$$$$
92:0:0
     RDKit          3D

 94102  0  0  1  0  0  0  0  0999 V2000
  -31.0090  -20.9450   19.5350 C   0  0  0  0  0  3  0  0  0  0  0  0
  -30.7870  -21.9900   20.3560 C   0  0  0  0  0  3  0  0  0  0  0  0
  -30.8950  -14.3200   19.4910 C   0  0  0  0  0  0  0  0  0  0  0  0
  -30.4930  -12.0780   18.5570 C   0  0  0  0  0  2  0  0  0  0  0  0
  -29.3690  -12.1820   17.5060 C   0  0  0  0  0  2  0  0  0  0  0  0
  -27.9840  -12.0520   18.1690 C   0  0  0  0  0  2  0  0  0  0  0  0
  -27.8250  -12.9700   19.4100 C   0  0  0  0  0  3  0  0  0  0  0  0
  -29.0440  -12.8380   20.3500 C   0  0  0  0  0  2  0  0  0  0  0  0
  -30.2580  -13.1210   19.5660 N   0  0  0  0  0  0  0  0  0  0  0  0
  -31.9210  -14.4760   18.8170 O   0  0  0  0  0  0  0  0  0  0  0  0
  -29.7660  -17.5620   20.8700 C   0  0  0  0  0  3  0  0  0  0  0  0
  -31.2220  -18.6100   18.8160 C   0  0  0  0  0  3  0  0  0  0  0  0
  -30.6510  -19.5210   19.7270 C   0  0  0  0  0  0  0  0  0  0  0  0
  -29.8760  -18.9670   20.7790 C   0  0  0  0  0  0  0  0  0  0  0  0
  -30.4210  -16.7290   19.9400 C   0  0  0  0  0  0  0  0  0  0  0  0
  -29.1480  -19.8160   21.8080 C   0  0  0  0  0  1  0  0  0  0  0  0
  -31.1120  -17.2720   18.9130 N   0  0  0  0  0  0  0  0  0  0  0  0
  -30.2790  -15.3280   20.1350 N   0  0  0  0  0  0  0  0  0  0  0  0
  -29.5280  -15.0480   20.7440 H   0  0  0  0  0  0  0  0  0  0  0  0
  -25.6400  -13.6000   20.6180 C   0  0  0  0  0  0  0  0  0  0  0  0
  -24.6180  -12.8370   21.1180 C   0  0  0  0  0  0  0  0  0  0  0  0
  -24.9870  -11.4790   20.8760 C   0  0  0  0  0  0  0  0  0  0  0  0
  -26.5700  -12.7060   20.1130 N   0  0  0  0  0  0  0  0  0  0  0  0
  -26.1910  -11.4200   20.3220 N   0  0  0  0  0  0  0  0  0  0  0  0
  -24.2400  -10.2330   21.0900 C   0  0  0  0  0  0  0  0  0  0  0  0
  -24.6940   -9.2450   21.9920 C   0  0  0  0  0  3  0  0  0  0  0  0
  -23.9500   -8.0620   22.1920 C   0  0  0  0  0  3  0  0  0  0  0  0
  -22.7360   -7.8600   21.4910 C   0  0  0  0  0  0  0  0  0  0  0  0
  -22.3020   -8.8360   20.5770 C   0  0  0  0  0  3  0  0  0  0  0  0
  -23.0470  -10.0100   20.3750 C   0  0  0  0  0  3  0  0  0  0  0  0
  -21.9590   -6.7320   21.6030 O   0  0  0  0  0  0  0  0  0  0  0  0
  -21.7720   -6.1060   22.8090 C   0  0  0  0  0  0  0  0  0  0  0  0
  -21.1230   -6.7440   23.8890 C   0  0  0  0  0  3  0  0  0  0  0  0
  -20.8890   -6.0400   25.0860 C   0  0  0  0  0  3  0  0  0  0  0  0
  -21.2930   -4.6960   25.2030 C   0  0  0  0  0  0  0  0  0  0  0  0
  -21.9340   -4.0560   24.1270 C   0  0  0  0  0  3  0  0  0  0  0  0
  -22.1690   -4.7590   22.9340 C   0  0  0  0  0  0  0  0  0  0  0  0
  -22.7680   -4.1320   21.8920 F   0  0  0  0  0  0  0  0  0  0  0  0
  -21.0610   -4.0160   26.3500 F   0  0  0  0  0  0  0  0  0  0  0  0
  -23.3260  -13.3390   21.6970 C   0  0  0  0  0  0  0  0  0  0  0  0
  -22.7510  -12.6030   22.6410 N   0  0  0  0  0  0  0  0  0  0  0  0
  -22.8440  -14.4160   21.3480 O   0  0  0  0  0  0  0  0  0  0  0  0
  -23.1580  -11.7300   22.9440 H   0  0  0  0  0  0  0  0  0  0  0  0
  -21.8920  -12.9160   23.0680 H   0  0  0  0  0  0  0  0  0  0  0  0
  -25.8460  -14.9750   20.5330 N   0  0  0  0  0  0  0  0  0  0  0  0
  -25.1480  -15.6440   20.8410 H   0  0  0  0  0  0  0  0  0  0  0  0
  -26.6330  -15.4100   20.0700 H   0  0  0  0  0  0  0  0  0  0  0  0
  -32.6840  -23.5520   20.6920 C   0  0  0  0  0  1  0  0  0  0  0  0
  -31.2820  -23.4000   20.0820 C   0  0  0  0  0  3  0  0  0  0  0  0
  -30.3350  -24.5070   20.6080 C   0  0  0  0  0  2  0  0  0  0  0  0
  -28.0880  -24.0110   19.4720 C   0  0  0  0  0  1  0  0  0  0  0  0
  -29.2590  -25.0030   19.6150 C   0  0  0  0  0  3  0  0  0  0  0  0
  -28.7490  -26.4100   19.9980 C   0  0  0  0  0  2  0  0  0  0  0  0
  -28.0830  -26.9710   18.8720 O   0  0  0  0  0  0  0  0  0  0  0  0
  -24.6620  -31.5040   23.2010 C   0  0  0  0  0  0  0  0  0  0  0  0
  -26.9650  -27.7070   19.1600 C   0  0  0  0  0  0  0  0  0  0  0  0
  -23.3040  -30.4430   21.4240 C   0  0  0  0  0  3  0  0  0  0  0  0
  -24.6130  -29.1840   19.6350 C   0  0  0  0  0  0  0  0  0  0  0  0
  -25.8150  -30.8110   21.1060 C   0  0  0  0  0  2  0  0  0  0  0  0
  -25.8190  -29.5790   20.2270 C   0  0  0  0  0  0  0  0  0  0  0  0
  -27.0010  -28.8400   20.0000 C   0  0  0  0  0  3  0  0  0  0  0  0
  -25.7510  -27.3240   18.5600 C   0  0  0  0  0  3  0  0  0  0  0  0
  -24.5700  -28.0500   18.8030 C   0  0  0  0  0  3  0  0  0  0  0  0
  -23.3960  -30.0290   19.9320 C   0  0  0  0  0  2  0  0  0  0  0  0
  -24.6160  -30.9240   21.9690 N   0  0  0  0  0  0  0  0  0  0  0  0
  -23.6310  -31.6810   23.8640 O   0  0  0  0  0  0  0  0  0  0  0  0
  -22.7040  -29.2670   22.2280 C   0  0  0  0  0  0  0  0  0  0  0  0
  -21.3800  -29.0750   22.1080 N   0  0  0  0  0  0  0  0  0  0  0  0
  -23.4250  -28.5390   22.9150 O   0  0  0  0  0  0  0  0  0  0  0  0
  -20.8590  -29.7200   21.5310 H   0  0  0  0  0  0  0  0  0  0  0  0
  -18.0540  -27.7110   22.4470 C   0  0  0  0  0  0  0  0  0  0  0  0
  -20.6040  -28.0070   22.7380 C   0  0  0  0  0  3  0  0  0  0  0  0
  -20.7450  -26.6790   21.9580 C   0  0  0  0  0  2  0  0  0  0  0  0
  -19.6420  -26.4720   20.9160 C   0  0  0  0  0  2  0  0  0  0  0  0
  -18.2630  -26.4790   21.5850 C   0  0  0  0  0  2  0  0  0  0  0  0
  -19.1520  -28.4370   22.9770 C   0  0  0  0  0  0  0  0  0  0  0  0
  -18.9020  -29.5940   23.7450 C   0  0  0  0  0  3  0  0  0  0  0  0
  -17.5840  -30.0240   23.9910 C   0  0  0  0  0  3  0  0  0  0  0  0
  -16.5000  -29.2920   23.4790 C   0  0  0  0  0  3  0  0  0  0  0  0
  -16.7340  -28.1380   22.7120 C   0  0  0  0  0  3  0  0  0  0  0  0
  -26.0070  -31.9950   23.8250 C   0  0  0  0  0  3  0  0  0  0  0  0
  -26.5330  -31.0590   24.9810 C   0  0  1  0  0  0  0  0  0  0  0  0
  -25.4750  -30.7570   26.0680 C   0  0  0  0  0  1  0  0  0  0  0  0
  -27.0240  -29.7100   24.4050 C   0  0  0  0  0  1  0  0  0  0  0  0
  -27.7550  -31.7120   25.6680 C   0  0  0  0  0  1  0  0  0  0  0  0
  -25.7890  -33.3600   24.3200 N   0  0  0  0  0  0  0  0  0  0  0  0
  -26.1780  -34.4700   23.6780 C   0  0  0  0  0  0  0  0  0  0  0  0
  -26.8270  -34.4440   22.6280 O   0  0  0  0  0  0  0  0  0  0  0  0
  -25.2200  -33.4570   25.1470 H   0  0  0  0  0  0  0  0  0  0  0  0
  -24.5790  -36.4030   23.5430 C   0  0  0  0  0  1  0  0  0  0  0  0
  -25.7840  -35.8240   24.2990 C   0  0  0  0  0  3  0  0  0  0  0  0
  -27.9570  -36.4680   25.2430 C   0  0  0  0  0  1  0  0  0  0  0  0
  -26.8870  -36.8100   24.3090 N   0  0  0  0  0  0  0  0  0  0  0  0
  -26.5420  -37.7370   24.5480 H   0  0  0  0  0  0  0  0  0  0  0  0
  1 13  1  0
  1  2  2  0
  3  9  1  0
  3 18  1  0
  4  9  1  0
  5  6  1  0
  5  4  1  0
  7  6  1  0
  7 23  1  0
  7  8  1  0
  9  8  1  0
 10  3  2  0
 12 17  2  0
 12 13  1  0
 13 14  2  0
 14 11  1  0
 14 16  1  0
 15 18  1  0
 15 11  2  0
 17 15  1  0
 18 19  1  0
 20 21  2  0
 21 40  1  0
 22 25  1  0
 22 21  1  0
 23 24  1  0
 23 20  1  0
 24 22  2  0
 25 26  1  0
 26 27  2  0
 28 31  1  0
 28 27  1  0
 29 28  2  0
 30 29  1  0
 30 25  2  0
 31 32  1  0
 32 37  2  0
 32 33  1  0
 33 34  2  0
 34 35  1  0
 35 39  1  0
 36 35  2  0
 37 36  1  0
 38 37  1  0
 40 41  1  0
 41 43  1  0
 41 44  1  0
 42 40  2  0
 45 20  1  0
 45 46  1  0
 47 45  1  0
 49  2  1  0
 49 50  1  0
 49 48  1  0
 52 51  1  0
 52 53  1  0
 52 50  1  0
 54 56  1  0
 54 53  1  0
 55 66  2  0
 56 61  1  0
 57 65  1  0
 57 67  1  0
 58 64  1  0
 58 60  1  0
 59 65  1  0
 60 59  1  0
 61 60  2  0
 62 63  1  0
 62 56  2  0
 63 58  2  0
 64 57  1  0
 65 55  1  0
 67 69  2  0
 68 67  1  0
 70 68  1  0
 71 80  2  0
 71 76  1  0
 72 68  1  0
 72 76  1  0
 73 72  1  0
 74 75  1  0
 74 73  1  0
 75 71  1  0
 76 77  2  0
 77 78  1  0
 79 78  2  0
 80 79  1  0
 81 55  1  0
 81 86  1  0
 81 82  1  0
 82 85  1  1
 82 83  1  0
 84 82  1  0
 86 89  1  0
 87 91  1  0
 87 86  1  0
 88 87  2  0
 91 90  1  0
 91 93  1  0
 93 94  1  0
 93 92  1  0
M  ISO  4   3 100  18 100  53 101  54 101
M  END
>  <TORSDO>  (93) 
F 20

>  <SCORE>  (93) 
-10.134

>  <name>  (93) 
92

>  <ligand_id>  (93) 
92

>  <original_smiles>  (93) 
[H]C(=C([H])C([H])(C([H])([H])[H])C([H])([H])C([H])(C([H])([H])[H])C([H])([H])Oc1c([H])c([H])c2c(c1[H])C([H])([H])N(C(=O)C([H])(N([H])C(=O)C([H])(N([H])C([H])([H])[H])C([H])([H])[H])C(C([H])([H])[H])(C([H])([H])[H])C([H])([H])[H])C([H])(C(=O)N([H])C1([H])c3c([H])c([H])c([H])c([H])c3C([H])([H])C([H])([H])C1([H])[H])C2([H])[H])c1c([H])nc(N([H])C(=O)N2C([H])([H])C([H])([H])C([H])([H])C([H])(n3nc(-c4c([H])c([H])c(Oc5c([H])c([H])c(F)c([H])c5F)c([H])c4[H])c(C(=O)N([H])[H])c3N([H])[H])C2([H])[H])c([H])c1C([H])([H])[H]

>  <smiles>  (93) 
[H]C(=C([H])C([H])(C([H])([H])[H])C([H])([H])C([H])(C([H])([H])[H])C([H])([H])Oc1c([H])c([H])c2c(c1[H])C([H])([H])N(C(=O)C([H])(N([H])C(=O)C([H])(N([H])C([H])([H])[H])C([H])([H])[H])C(C([H])([H])[H])(C([H])([H])[H])C([H])([H])[H])C([H])(C(=O)N([H])C1([H])c3c([H])c([H])c([H])c([H])c3C([H])([H])C([H])([H])C1([H])[H])C2([H])[H])c1c([H])nc(N([H])C(=O)N2C([H])([H])C([H])([H])C([H])([H])C([H])(n3nc(-c4c([H])c([H])c(Oc5c([H])c([H])c(F)c([H])c5F)c([H])c4[H])c(C(=O)N([H])[H])c3N([H])[H])C2([H])[H])c([H])c1C([H])([H])[H]

$$$$
93:0:0
     RDKit          3D

 95103  0  0  1  0  0  0  0  0999 V2000
  -27.5790  -19.7030   17.5020 C   0  0  0  0  0  2  0  0  0  0  0  0
  -28.4350  -18.8770   18.4880 C   0  0  0  0  0  2  0  0  0  0  0  0
  -30.2340  -20.5940   18.3310 C   0  0  0  0  0  2  0  0  0  0  0  0
  -27.8200  -21.2210   17.6690 C   0  0  0  0  0  3  0  0  0  0  0  0
  -29.3330  -21.4310   17.3800 C   0  0  0  0  0  3  0  0  0  0  0  0
  -29.8920  -19.1390   18.3130 N   0  0  1  0  0  4  0  0  0  0  0  0
  -30.0970  -18.8420   17.3680 H   0  0  0  0  0  0  0  0  0  0  0  0
  -26.8630  -23.2500   19.0160 C   0  0  0  0  0  1  0  0  0  0  0  0
  -26.0090  -20.9550   19.4970 C   0  0  0  0  0  1  0  0  0  0  0  0
  -27.2420  -21.7600   19.0250 C   0  0  0  0  0  3  0  0  0  0  0  0
  -30.8050  -18.2770   19.1350 C   0  0  0  0  0  2  0  0  0  0  0  0
  -30.1720  -17.5350   20.3530 C   0  0  0  0  0  2  0  0  0  0  0  0
  -31.7760  -15.6440   20.5610 C   0  0  0  0  0  0  0  0  0  0  0  0
  -31.6700  -13.2750   19.8840 C   0  0  0  0  0  2  0  0  0  0  0  0
  -30.8830  -13.1200   18.5660 C   0  0  0  0  0  2  0  0  0  0  0  0
  -29.3750  -12.9820   18.8410 C   0  0  0  0  0  2  0  0  0  0  0  0
  -28.8590  -14.1060   19.7780 C   0  0  0  0  0  3  0  0  0  0  0  0
  -29.7530  -14.2120   21.0330 C   0  0  0  0  0  2  0  0  0  0  0  0
  -31.1360  -14.4470   20.5920 N   0  0  0  0  0  0  0  0  0  0  0  0
  -32.9140  -15.7920   20.1120 O   0  0  0  0  0  0  0  0  0  0  0  0
  -31.1290  -16.6890   21.0940 N   0  0  0  0  0  0  0  0  0  0  0  0
  -31.7900  -17.2720   21.5850 H   0  0  0  0  0  0  0  0  0  0  0  0
  -26.4460  -14.8810   20.2260 C   0  0  0  0  0  0  0  0  0  0  0  0
  -25.3050  -14.1920   20.5130 C   0  0  0  0  0  0  0  0  0  0  0  0
  -25.6840  -12.8150   20.5700 C   0  0  0  0  0  0  0  0  0  0  0  0
  -27.4550  -13.9350   20.1250 N   0  0  0  0  0  0  0  0  0  0  0  0
  -26.9930  -12.6890   20.3900 N   0  0  0  0  0  0  0  0  0  0  0  0
  -24.8730  -11.6040   20.7260 C   0  0  0  0  0  0  0  0  0  0  0  0
  -25.1160  -10.6800   21.7670 C   0  0  0  0  0  3  0  0  0  0  0  0
  -24.3100   -9.5310   21.9000 C   0  0  0  0  0  3  0  0  0  0  0  0
  -23.2490   -9.2950   20.9930 C   0  0  0  0  0  0  0  0  0  0  0  0
  -23.0270  -10.2070   19.9460 C   0  0  0  0  0  3  0  0  0  0  0  0
  -23.8350  -11.3480   19.8110 C   0  0  0  0  0  3  0  0  0  0  0  0
  -22.4330   -8.1900   21.0300 O   0  0  0  0  0  0  0  0  0  0  0  0
  -22.1050   -7.5800   22.2140 C   0  0  0  0  0  0  0  0  0  0  0  0
  -21.4250   -8.2710   23.2410 C   0  0  0  0  0  3  0  0  0  0  0  0
  -21.0440   -7.5880   24.4130 C   0  0  0  0  0  3  0  0  0  0  0  0
  -21.3300   -6.2170   24.5550 C   0  0  0  0  0  0  0  0  0  0  0  0
  -22.0030   -5.5280   23.5320 C   0  0  0  0  0  3  0  0  0  0  0  0
  -22.3830   -6.2070   22.3610 C   0  0  0  0  0  0  0  0  0  0  0  0
  -23.0130   -5.5350   21.3690 F   0  0  0  0  0  0  0  0  0  0  0  0
  -20.9550   -5.5570   25.6770 F   0  0  0  0  0  0  0  0  0  0  0  0
  -23.9190  -14.7590   20.6300 C   0  0  0  0  0  0  0  0  0  0  0  0
  -23.0760  -14.1450   21.4500 N   0  0  0  0  0  0  0  0  0  0  0  0
  -23.5990  -15.7840   20.0270 O   0  0  0  0  0  0  0  0  0  0  0  0
  -23.3560  -13.3130   21.9530 H   0  0  0  0  0  0  0  0  0  0  0  0
  -22.1380  -14.4970   21.5790 H   0  0  0  0  0  0  0  0  0  0  0  0
  -26.7090  -16.2310   20.0180 N   0  0  0  0  0  0  0  0  0  0  0  0
  -25.9460  -16.8940   19.9570 H   0  0  0  0  0  0  0  0  0  0  0  0
  -27.5660  -16.5430   19.5940 H   0  0  0  0  0  0  0  0  0  0  0  0
  -29.6670  -22.8180   17.4200 O   0  0  0  0  0  0  0  0  0  0  0  0
  -30.4010  -23.3360   16.3110 C   0  0  0  0  0  2  0  0  0  0  0  0
  -29.6730  -24.5090   15.5970 C   0  0  0  0  0  2  0  0  0  0  0  0
  -30.0820  -25.8920   16.1710 C   0  0  0  0  0  2  0  0  0  0  0  0
  -29.4320  -27.0270   15.5870 O   0  0  0  0  0  0  0  0  0  0  0  0
  -23.7610  -26.8340   19.9600 C   0  0  0  0  0  0  0  0  0  0  0  0
  -28.0730  -27.1560   15.7640 C   0  0  0  0  0  0  0  0  0  0  0  0
  -23.2790  -27.1740   17.5560 C   0  0  0  0  0  3  0  0  0  0  0  0
  -25.3030  -27.6400   16.0740 C   0  0  0  0  0  0  0  0  0  0  0  0
  -25.5160  -27.9110   18.5510 C   0  0  0  0  0  2  0  0  0  0  0  0
  -26.1410  -27.6400   17.1960 C   0  0  0  0  0  0  0  0  0  0  0  0
  -27.5270  -27.4010   17.0470 C   0  0  0  0  0  3  0  0  0  0  0  0
  -27.2170  -27.1520   14.6460 C   0  0  0  0  0  3  0  0  0  0  0  0
  -25.8360  -27.3900   14.7940 C   0  0  0  0  0  3  0  0  0  0  0  0
  -23.8370  -27.9200   16.3120 C   0  0  0  0  0  2  0  0  0  0  0  0
  -24.1910  -27.2750   18.7430 N   0  0  0  0  0  0  0  0  0  0  0  0
  -22.6140  -26.3950   20.1140 O   0  0  0  0  0  0  0  0  0  0  0  0
  -22.9520  -25.7200   17.1520 C   0  0  0  0  0  0  0  0  0  0  0  0
  -21.9090  -25.5470   16.3240 N   0  0  0  0  0  0  0  0  0  0  0  0
  -23.6490  -24.7840   17.5550 O   0  0  0  0  0  0  0  0  0  0  0  0
  -21.3970  -26.3670   16.0310 H   0  0  0  0  0  0  0  0  0  0  0  0
  -19.5310  -24.0340   14.0610 C   0  0  0  0  0  0  0  0  0  0  0  0
  -21.4470  -24.2710   15.7790 C   0  0  0  0  0  3  0  0  0  0  0  0
  -22.3820  -23.7770   14.6500 C   0  0  0  0  0  2  0  0  0  0  0  0
  -21.9220  -24.2110   13.2540 C   0  0  0  0  0  2  0  0  0  0  0  0
  -20.5180  -23.6740   12.9630 C   0  0  0  0  0  2  0  0  0  0  0  0
  -19.9680  -24.3280   15.3770 C   0  0  0  0  0  0  0  0  0  0  0  0
  -19.0140  -24.6930   16.3530 C   0  0  0  0  0  3  0  0  0  0  0  0
  -17.6460  -24.7620   16.0280 C   0  0  0  0  0  3  0  0  0  0  0  0
  -17.2170  -24.4530   14.7260 C   0  0  0  0  0  3  0  0  0  0  0  0
  -18.1550  -24.0870   13.7470 C   0  0  0  0  0  3  0  0  0  0  0  0
  -24.6820  -26.8850   21.2200 C   0  0  0  0  0  3  0  0  0  0  0  0
  -23.8430  -27.2450   22.3700 N   0  0  0  0  0  0  0  0  0  0  0  0
  -23.7990  -28.4620   22.9280 C   0  0  0  0  0  0  0  0  0  0  0  0
  -24.5270  -29.3910   22.5680 O   0  0  0  0  0  0  0  0  0  0  0  0
  -23.1840  -26.5470   22.6850 H   0  0  0  0  0  0  0  0  0  0  0  0
  -21.5590  -29.4330   23.5230 C   0  0  0  0  0  1  0  0  0  0  0  0
  -22.7850  -28.6860   24.0690 C   0  0  0  0  0  3  0  0  0  0  0  0
  -24.3370  -28.6530   25.9700 C   0  0  0  0  0  1  0  0  0  0  0  0
  -23.3500  -29.4230   25.2190 N   0  0  0  0  0  0  0  0  0  0  0  0
  -22.6150  -29.7100   25.8610 H   0  0  0  0  0  0  0  0  0  0  0  0
  -25.4450  -25.5300   21.4870 C   0  0  1  0  0  0  0  0  0  0  0  0
  -24.5220  -24.2890   21.5030 C   0  0  0  0  0  1  0  0  0  0  0  0
  -26.5300  -25.2930   20.4100 C   0  0  0  0  0  1  0  0  0  0  0  0
  -26.1790  -25.6020   22.8460 C   0  0  0  0  0  1  0  0  0  0  0  0
  1  4  1  0
  1  2  1  0
  4 10  1  0
  5 51  1  0
  5  4  1  0
  5  3  1  0
  6  3  1  0
  6  2  1  0
  6 11  1  0
  6  7  1  6
  8 10  1  0
 10  9  1  0
 11 12  1  0
 12 21  1  0
 13 19  1  0
 13 21  1  0
 14 19  1  0
 15 16  1  0
 15 14  1  0
 17 16  1  0
 17 26  1  0
 17 18  1  0
 19 18  1  0
 20 13  2  0
 21 22  1  0
 23 24  2  0
 24 25  1  0
 24 43  1  0
 25 28  1  0
 26 23  1  0
 26 27  1  0
 27 25  2  0
 28 29  1  0
 29 30  2  0
 31 34  1  0
 31 30  1  0
 32 31  2  0
 33 32  1  0
 33 28  2  0
 34 35  1  0
 35 40  2  0
 35 36  1  0
 36 37  2  0
 37 38  1  0
 38 42  1  0
 39 38  2  0
 40 39  1  0
 41 40  1  0
 43 44  1  0
 44 47  1  0
 44 46  1  0
 45 43  2  0
 48 23  1  0
 49 48  1  0
 50 48  1  0
 52 51  1  0
 53 54  1  0
 53 52  1  0
 55 57  1  0
 55 54  1  0
 56 67  2  0
 57 62  1  0
 58 68  1  0
 58 66  1  0
 59 65  1  0
 59 61  1  0
 60 66  1  0
 61 60  1  0
 62 61  2  0
 63 64  1  0
 63 57  2  0
 64 59  2  0
 65 58  1  0
 66 56  1  0
 68 70  2  0
 69 68  1  0
 71 69  1  0
 72 77  1  0
 73 69  1  0
 74 73  1  0
 75 74  1  0
 76 75  1  0
 76 72  1  0
 77 73  1  0
 77 78  2  0
 79 78  1  0
 80 79  2  0
 81 72  2  0
 81 80  1  0
 82 56  1  0
 82 92  1  0
 82 83  1  0
 83 86  1  0
 83 84  1  0
 84 88  1  0
 85 84  2  0
 88 87  1  0
 88 90  1  0
 90 91  1  0
 90 89  1  0
 92 93  1  1
 92 95  1  0
 94 92  1  0
M  ISO  4  13 100  21 100  54 101  55 101
M  END
>  <TORSDO>  (94) 
F 23

>  <SCORE>  (94) 
-7.329

>  <name>  (94) 
93

>  <ligand_id>  (94) 
93

>  <original_smiles>  (94) 
[H]c1c([H])c([H])c2c(c1[H])C([H])([H])C([H])([H])C([H])([H])C2([H])N([H])C(=O)C1([H])N(C(=O)C([H])(N([H])C(=O)C([H])(N([H])C([H])([H])[H])C([H])([H])[H])C(C([H])([H])[H])(C([H])([H])[H])C([H])([H])[H])C([H])([H])c2c([H])c(OC([H])([H])C([H])([H])C([H])([H])OC3([H])C([H])(C([H])(C([H])([H])[H])C([H])([H])[H])C([H])([H])C([H])([H])[N+]([H])(C([H])([H])C([H])([H])N([H])C(=O)N4C([H])([H])C([H])([H])C([H])([H])C([H])(n5nc(-c6c([H])c([H])c(Oc7c([H])c([H])c(F)c([H])c7F)c([H])c6[H])c(C(=O)N([H])[H])c5N([H])[H])C4([H])[H])C3([H])[H])c([H])c([H])c2C1([H])[H]

>  <smiles>  (94) 
[H]c1c([H])c([H])c2c(c1[H])C([H])([H])C([H])([H])C([H])([H])C2([H])N([H])C(=O)C1([H])N(C(=O)C([H])(N([H])C(=O)C([H])(N([H])C([H])([H])[H])C([H])([H])[H])C(C([H])([H])[H])(C([H])([H])[H])C([H])([H])[H])C([H])([H])c2c([H])c(OC([H])([H])C([H])([H])C([H])([H])OC3([H])C([H])(C([H])(C([H])([H])[H])C([H])([H])[H])C([H])([H])C([H])([H])[N+]([H])(C([H])([H])C([H])([H])N([H])C(=O)N4C([H])([H])C([H])([H])C([H])([H])C([H])(n5nc(-c6c([H])c([H])c(Oc7c([H])c([H])c(F)c([H])c7F)c([H])c6[H])c(C(=O)N([H])[H])c5N([H])[H])C4([H])[H])C3([H])[H])c([H])c([H])c2C1([H])[H]

$$$$
94:0:0
     RDKit          3D

100109  0  0  1  0  0  0  0  0999 V2000
  -29.6840  -23.0740   20.9980 C   0  0  0  0  0  2  0  0  0  0  0  0
  -29.7720  -22.8550   18.5120 C   0  0  0  0  0  2  0  0  0  0  0  0
  -31.0660  -22.4220   21.1200 C   0  0  0  0  0  2  0  0  0  0  0  0
  -31.1260  -22.1290   18.6280 C   0  0  0  0  0  2  0  0  0  0  0  0
  -29.5760  -23.8590   19.6720 C   0  0  0  0  0  3  0  0  0  0  0  0
  -31.3310  -21.3990   19.9860 C   0  0  0  0  0  3  0  0  0  0  0  0
  -29.9870  -17.8480   19.1370 C   0  0  0  0  0  2  0  0  0  0  0  0
  -30.5970  -19.2480   18.9340 C   0  0  0  0  0  2  0  0  0  0  0  0
  -30.9820  -19.3860   21.3970 C   0  0  0  0  0  2  0  0  0  0  0  0
  -30.6300  -17.1430   20.3400 C   0  0  0  0  0  3  0  0  0  0  0  0
  -30.3170  -18.0010   21.5690 C   0  0  0  0  0  3  0  0  0  0  0  0
  -30.5630  -20.1160   20.1560 N   0  0  1  0  0  4  0  0  0  0  0  0
  -29.5950  -20.3670   20.2860 H   0  0  0  0  0  0  0  0  0  0  0  0
  -30.7880  -14.7160   19.9190 C   0  0  0  0  0  0  0  0  0  0  0  0
  -30.4170  -12.4940   18.9510 C   0  0  0  0  0  2  0  0  0  0  0  0
  -29.4200  -12.6270   17.7830 C   0  0  0  0  0  2  0  0  0  0  0  0
  -27.9730  -12.5090   18.2980 C   0  0  0  0  0  2  0  0  0  0  0  0
  -27.6920  -13.4330   19.5140 C   0  0  0  0  0  3  0  0  0  0  0  0
  -28.8030  -13.3040   20.5800 C   0  0  0  0  0  2  0  0  0  0  0  0
  -30.1000  -13.5470   19.9250 N   0  0  0  0  0  0  0  0  0  0  0  0
  -31.8540  -14.8730   19.3200 O   0  0  0  0  0  0  0  0  0  0  0  0
  -30.1710  -15.7590   20.4880 N   0  0  0  0  0  0  0  0  0  0  0  0
  -29.3050  -15.5910   20.9770 H   0  0  0  0  0  0  0  0  0  0  0  0
  -25.3480  -14.0760   20.3660 C   0  0  0  0  0  0  0  0  0  0  0  0
  -24.2980  -13.3180   20.8140 C   0  0  0  0  0  0  0  0  0  0  0  0
  -24.7440  -11.9610   20.7720 C   0  0  0  0  0  0  0  0  0  0  0  0
  -26.3670  -13.1800   20.0800 N   0  0  0  0  0  0  0  0  0  0  0  0
  -26.0110  -11.9050   20.3810 N   0  0  0  0  0  0  0  0  0  0  0  0
  -24.0210  -10.7080   21.0280 C   0  0  0  0  0  0  0  0  0  0  0  0
  -24.4900   -9.7610   21.9650 C   0  0  0  0  0  3  0  0  0  0  0  0
  -23.7660   -8.5730   22.2040 C   0  0  0  0  0  3  0  0  0  0  0  0
  -22.5590   -8.3240   21.5080 C   0  0  0  0  0  0  0  0  0  0  0  0
  -22.1100   -9.2590   20.5600 C   0  0  0  0  0  3  0  0  0  0  0  0
  -22.8330  -10.4390   20.3180 C   0  0  0  0  0  3  0  0  0  0  0  0
  -21.8040   -7.1860   21.6570 O   0  0  0  0  0  0  0  0  0  0  0  0
  -21.7340   -6.5200   22.8540 C   0  0  0  0  0  0  0  0  0  0  0  0
  -21.2930   -7.1570   24.0360 C   0  0  0  0  0  3  0  0  0  0  0  0
  -21.1690   -6.4190   25.2290 C   0  0  0  0  0  3  0  0  0  0  0  0
  -21.4760   -5.0450   25.2430 C   0  0  0  0  0  0  0  0  0  0  0  0
  -21.9090   -4.4090   24.0660 C   0  0  0  0  0  3  0  0  0  0  0  0
  -22.0350   -5.1440   22.8740 C   0  0  0  0  0  0  0  0  0  0  0  0
  -22.4320   -4.5200   21.7390 F   0  0  0  0  0  0  0  0  0  0  0  0
  -21.3500   -4.3320   26.3880 F   0  0  0  0  0  0  0  0  0  0  0  0
  -22.9270  -13.8150   21.1730 C   0  0  0  0  0  0  0  0  0  0  0  0
  -22.2580  -13.1410   22.1020 N   0  0  0  0  0  0  0  0  0  0  0  0
  -22.4600  -14.8300   20.6620 O   0  0  0  0  0  0  0  0  0  0  0  0
  -22.6530  -12.3180   22.5340 H   0  0  0  0  0  0  0  0  0  0  0  0
  -21.3410  -13.4540   22.3870 H   0  0  0  0  0  0  0  0  0  0  0  0
  -25.5180  -15.4390   20.1560 N   0  0  0  0  0  0  0  0  0  0  0  0
  -24.7690  -16.1080   20.3010 H   0  0  0  0  0  0  0  0  0  0  0  0
  -26.3510  -15.8560   19.7620 H   0  0  0  0  0  0  0  0  0  0  0  0
  -30.7810  -17.8740   24.0060 C   0  0  0  0  0  0  0  0  0  0  0  0
  -31.2250  -16.9790   25.1550 C   0  0  0  0  0  1  0  0  0  0  0  0
  -30.7530  -17.3220   22.7870 N   0  0  0  0  0  0  0  0  0  0  0  0
  -30.4670  -19.0460   24.2150 O   0  0  0  0  0  0  0  0  0  0  0  0
  -31.0370  -16.3550   22.6990 H   0  0  0  0  0  0  0  0  0  0  0  0
  -28.0110  -25.2670   18.1830 C   0  0  0  0  0  1  0  0  0  0  0  0
  -28.2760  -24.7010   19.5940 C   0  0  0  0  0  3  0  0  0  0  0  0
  -28.2680  -25.8160   20.6740 C   0  0  0  0  0  2  0  0  0  0  0  0
  -28.3480  -27.1360   20.1370 O   0  0  0  0  0  0  0  0  0  0  0  0
  -24.6010  -32.1220   23.5050 C   0  0  0  0  0  0  0  0  0  0  0  0
  -27.1760  -27.8440   20.1840 C   0  0  0  0  0  0  0  0  0  0  0  0
  -23.3550  -30.7730   21.8480 C   0  0  0  0  0  3  0  0  0  0  0  0
  -24.7740  -29.3070   20.3240 C   0  0  0  0  0  0  0  0  0  0  0  0
  -25.8720  -31.1620   21.5930 C   0  0  0  0  0  2  0  0  0  0  0  0
  -25.9460  -29.8270   20.8890 C   0  0  0  0  0  0  0  0  0  0  0  0
  -27.1550  -29.1070   20.8060 C   0  0  0  0  0  3  0  0  0  0  0  0
  -25.9890  -27.3280   19.6180 C   0  0  0  0  0  3  0  0  0  0  0  0
  -24.7890  -28.0560   19.6830 C   0  0  0  0  0  3  0  0  0  0  0  0
  -23.5230  -30.1440   20.4410 C   0  0  0  0  0  2  0  0  0  0  0  0
  -24.6280  -31.3650   22.3720 N   0  0  0  0  0  0  0  0  0  0  0  0
  -23.5350  -32.3690   24.0870 O   0  0  0  0  0  0  0  0  0  0  0  0
  -22.7360  -29.7140   22.7870 C   0  0  0  0  0  0  0  0  0  0  0  0
  -21.4360  -29.4380   22.6020 N   0  0  0  0  0  0  0  0  0  0  0  0
  -23.4260  -29.1420   23.6350 O   0  0  0  0  0  0  0  0  0  0  0  0
  -20.9430  -29.9550   21.8870 H   0  0  0  0  0  0  0  0  0  0  0  0
  -18.1670  -27.9270   22.8620 C   0  0  0  0  0  0  0  0  0  0  0  0
  -20.6500  -28.4550   23.3450 C   0  0  0  0  0  3  0  0  0  0  0  0
  -20.9460  -27.0220   22.8480 C   0  0  0  0  0  2  0  0  0  0  0  0
  -19.9800  -26.5480   21.7560 C   0  0  0  0  0  2  0  0  0  0  0  0
  -18.5350  -26.5810   22.2590 C   0  0  0  0  0  2  0  0  0  0  0  0
  -19.1610  -28.8150   23.3510 C   0  0  0  0  0  0  0  0  0  0  0  0
  -18.7650  -30.0750   23.8570 C   0  0  0  0  0  3  0  0  0  0  0  0
  -17.4070  -30.4430   23.8880 C   0  0  0  0  0  3  0  0  0  0  0  0
  -16.4270  -29.5540   23.4180 C   0  0  0  0  0  3  0  0  0  0  0  0
  -16.8070  -28.2980   22.9120 C   0  0  0  0  0  3  0  0  0  0  0  0
  -25.9030  -32.7370   24.1090 C   0  0  0  0  0  3  0  0  0  0  0  0
  -26.4000  -31.9910   25.4080 C   0  0  1  0  0  0  0  0  0  0  0  0
  -25.2860  -31.7770   26.4610 C   0  0  0  0  0  1  0  0  0  0  0  0
  -26.9870  -30.6040   25.0560 C   0  0  0  0  0  1  0  0  0  0  0  0
  -27.5440  -32.7950   26.0710 C   0  0  0  0  0  1  0  0  0  0  0  0
  -25.6340  -34.1510   24.4000 N   0  0  0  0  0  0  0  0  0  0  0  0
  -25.9950  -35.1720   23.6110 C   0  0  0  0  0  0  0  0  0  0  0  0
  -26.6670  -35.0230   22.5860 O   0  0  0  0  0  0  0  0  0  0  0  0
  -25.0500  -34.3450   25.2000 H   0  0  0  0  0  0  0  0  0  0  0  0
  -24.3190  -36.9990   23.1890 C   0  0  0  0  0  1  0  0  0  0  0  0
  -25.5380  -36.5820   24.0280 C   0  0  0  0  0  3  0  0  0  0  0  0
  -27.6810  -37.4310   24.8690 C   0  0  0  0  0  1  0  0  0  0  0  0
  -26.5980  -37.6060   23.9060 N   0  0  0  0  0  0  0  0  0  0  0  0
  -26.2130  -38.5390   24.0320 H   0  0  0  0  0  0  0  0  0  0  0  0
  1  3  1  0
  2  4  1  0
  2  5  1  0
  5 58  1  0
  5  1  1  0
  6  4  1  0
  6 12  1  0
  6  3  1  0
  7 10  1  0
  8  7  1  0
  8 12  1  0
  9 11  1  0
 10 22  1  0
 10 11  1  0
 11 54  1  0
 12 13  1  1
 12  9  1  0
 14 20  1  0
 14 22  1  0
 15 20  1  0
 16 17  1  0
 16 15  1  0
 18 17  1  0
 18 27  1  0
 18 19  1  0
 20 19  1  0
 21 14  2  0
 22 23  1  0
 24 25  2  0
 25 44  1  0
 26 25  1  0
 26 29  1  0
 27 24  1  0
 27 28  1  0
 28 26  2  0
 29 30  1  0
 30 31  2  0
 32 35  1  0
 32 31  1  0
 33 32  2  0
 34 33  1  0
 34 29  2  0
 35 36  1  0
 36 41  2  0
 36 37  1  0
 37 38  2  0
 38 39  1  0
 39 43  1  0
 40 39  2  0
 41 40  1  0
 42 41  1  0
 44 45  1  0
 45 48  1  0
 45 47  1  0
 46 44  2  0
 49 50  1  0
 49 24  1  0
 51 49  1  0
 52 55  2  0
 52 53  1  0
 54 52  1  0
 56 54  1  0
 58 57  1  0
 58 59  1  0
 60 62  1  0
 60 59  1  0
 61 72  2  0
 62 67  1  0
 63 71  1  0
 63 73  1  0
 64 70  1  0
 64 66  1  0
 65 71  1  0
 66 65  1  0
 67 66  2  0
 68 69  1  0
 68 62  2  0
 69 64  2  0
 70 63  1  0
 71 61  1  0
 73 75  2  0
 74 73  1  0
 76 74  1  0
 77 86  2  0
 77 82  1  0
 78 74  1  0
 78 82  1  0
 79 78  1  0
 80 81  1  0
 80 79  1  0
 81 77  1  0
 82 83  2  0
 83 84  1  0
 85 84  2  0
 86 85  1  0
 87 61  1  0
 87 92  1  0
 87 88  1  0
 88 91  1  1
 88 89  1  0
 90 88  1  0
 92 95  1  0
 93 97  1  0
 93 92  1  0
 94 93  2  0
 97 96  1  0
 99 97  1  0
 99100  1  0
 99 98  1  0
M  ISO  4  14 100  22 100  59 101  60 101
M  END
>  <TORSDO>  (95) 
F 20

>  <SCORE>  (95) 
-8.233

>  <name>  (95) 
94

>  <ligand_id>  (95) 
94

>  <original_smiles>  (95) 
[H]c1c([H])c([H])c2c(c1[H])C([H])([H])C([H])([H])C([H])([H])C2([H])N([H])C(=O)C1([H])N(C(=O)C([H])(N([H])C(=O)C([H])(N([H])C([H])([H])[H])C([H])([H])[H])C(C([H])([H])[H])(C([H])([H])[H])C([H])([H])[H])C([H])([H])c2c([H])c(OC([H])([H])C([H])(C([H])([H])[H])C3([H])C([H])([H])C([H])([H])C([H])([N+]4([H])C([H])([H])C([H])([H])C([H])(N([H])C(=O)N5C([H])([H])C([H])([H])C([H])([H])C([H])(n6nc(-c7c([H])c([H])c(Oc8c([H])c([H])c(F)c([H])c8F)c([H])c7[H])c(C(=O)N([H])[H])c6N([H])[H])C5([H])[H])C([H])(N([H])C(=O)C([H])([H])[H])C4([H])[H])C([H])([H])C3([H])[H])c([H])c([H])c2C1([H])[H]

>  <smiles>  (95) 
[H]c1c([H])c([H])c2c(c1[H])C([H])([H])C([H])([H])C([H])([H])C2([H])N([H])C(=O)C1([H])N(C(=O)C([H])(N([H])C(=O)C([H])(N([H])C([H])([H])[H])C([H])([H])[H])C(C([H])([H])[H])(C([H])([H])[H])C([H])([H])[H])C([H])([H])c2c([H])c(OC([H])([H])C([H])(C([H])([H])[H])C3([H])C([H])([H])C([H])([H])C([H])([N+]4([H])C([H])([H])C([H])([H])C([H])(N([H])C(=O)N5C([H])([H])C([H])([H])C([H])([H])C([H])(n6nc(-c7c([H])c([H])c(Oc8c([H])c([H])c(F)c([H])c8F)c([H])c7[H])c(C(=O)N([H])[H])c6N([H])[H])C5([H])[H])C([H])(N([H])C(=O)C([H])([H])[H])C4([H])[H])C([H])([H])C3([H])[H])c([H])c([H])c2C1([H])[H]

$$$$
95:0:0
     RDKit          3D

 91 99  0  0  1  0  0  0  0  0999 V2000
  -30.3570  -22.8880   21.5010 C   0  0  0  0  0  1  0  0  0  0  0  0
  -30.8090  -23.0780   19.0560 C   0  0  0  0  0  1  0  0  0  0  0  0
  -29.7480  -22.6850   20.1010 C   0  0  1  0  0  0  0  0  0  0  0  0
  -28.2830  -20.3430   20.1020 C   0  0  0  0  0  3  0  0  0  0  0  0
  -30.4380  -20.0720   19.8430 C   0  0  0  0  0  3  0  0  0  0  0  0
  -29.4960  -21.0950   19.9800 C   0  0  0  0  0  0  0  0  0  0  0  0
  -28.5320  -18.9790   20.1040 C   0  0  0  0  0  0  0  0  0  0  0  0
  -27.5770  -17.8480   20.2910 C   0  0  0  0  0  1  0  0  0  0  0  0
  -29.8960  -18.7610   19.9300 N   0  0  0  0  0  0  0  0  0  0  0  0
  -30.7270  -17.4660   19.9350 C   0  0  0  0  0  2  0  0  0  0  0  0
  -30.8510  -14.8920   20.0300 C   0  0  0  0  0  0  0  0  0  0  0  0
  -30.5920  -12.5750   19.1380 C   0  0  0  0  0  2  0  0  0  0  0  0
  -29.6460  -12.5930   17.9180 C   0  0  0  0  0  2  0  0  0  0  0  0
  -28.1820  -12.4510   18.3740 C   0  0  0  0  0  2  0  0  0  0  0  0
  -27.8250  -13.4050   19.5460 C   0  0  0  0  0  3  0  0  0  0  0  0
  -28.8950  -13.3840   20.6590 C   0  0  0  0  0  2  0  0  0  0  0  0
  -30.1850  -13.6870   20.0290 N   0  0  0  0  0  0  0  0  0  0  0  0
  -32.0370  -14.9320   19.6910 O   0  0  0  0  0  0  0  0  0  0  0  0
  -30.1460  -16.0760   20.1820 N   0  0  0  0  0  0  0  0  0  0  0  0
  -29.1650  -16.0130   20.3940 H   0  0  0  0  0  0  0  0  0  0  0  0
  -25.4630  -14.0450   20.3110 C   0  0  0  0  0  0  0  0  0  0  0  0
  -24.3910  -13.2980   20.7130 C   0  0  0  0  0  0  0  0  0  0  0  0
  -24.8270  -11.9370   20.6810 C   0  0  0  0  0  0  0  0  0  0  0  0
  -26.4860  -13.1450   20.0640 N   0  0  0  0  0  0  0  0  0  0  0  0
  -26.1110  -11.8700   20.3490 N   0  0  0  0  0  0  0  0  0  0  0  0
  -24.0750  -10.6920   20.8900 C   0  0  0  0  0  0  0  0  0  0  0  0
  -24.4840   -9.7370   21.8450 C   0  0  0  0  0  3  0  0  0  0  0  0
  -23.7350   -8.5570   22.0420 C   0  0  0  0  0  3  0  0  0  0  0  0
  -22.5640   -8.3240   21.2820 C   0  0  0  0  0  0  0  0  0  0  0  0
  -22.1730   -9.2690   20.3160 C   0  0  0  0  0  3  0  0  0  0  0  0
  -22.9230  -10.4410   20.1180 C   0  0  0  0  0  3  0  0  0  0  0  0
  -21.7890   -7.1940   21.3860 O   0  0  0  0  0  0  0  0  0  0  0  0
  -21.6860   -6.5000   22.5630 C   0  0  0  0  0  0  0  0  0  0  0  0
  -21.2450   -7.1140   23.7550 C   0  0  0  0  0  3  0  0  0  0  0  0
  -21.0850   -6.3470   24.9260 C   0  0  0  0  0  3  0  0  0  0  0  0
  -21.3600   -4.9660   24.9060 C   0  0  0  0  0  0  0  0  0  0  0  0
  -21.7950   -4.3520   23.7200 C   0  0  0  0  0  3  0  0  0  0  0  0
  -21.9550   -5.1160   22.5510 C   0  0  0  0  0  0  0  0  0  0  0  0
  -22.3530   -4.5150   21.4040 F   0  0  0  0  0  0  0  0  0  0  0  0
  -21.2010   -4.2270   26.0280 F   0  0  0  0  0  0  0  0  0  0  0  0
  -23.0100  -13.8080   21.0040 C   0  0  0  0  0  0  0  0  0  0  0  0
  -22.2880  -13.1440   21.9000 N   0  0  0  0  0  0  0  0  0  0  0  0
  -22.5790  -14.8310   20.4720 O   0  0  0  0  0  0  0  0  0  0  0  0
  -22.6480  -12.3170   22.3540 H   0  0  0  0  0  0  0  0  0  0  0  0
  -21.3610  -13.4700   22.1360 H   0  0  0  0  0  0  0  0  0  0  0  0
  -25.6410  -15.4080   20.1050 N   0  0  0  0  0  0  0  0  0  0  0  0
  -24.8640  -16.0550   20.1730 H   0  0  0  0  0  0  0  0  0  0  0  0
  -26.4390  -15.7970   19.6200 H   0  0  0  0  0  0  0  0  0  0  0  0
  -28.5170  -23.7320   19.8970 C   0  0  0  0  0  2  0  0  0  0  0  0
  -28.3910  -25.2090   20.5970 C   0  0  0  0  0  2  0  0  0  0  0  0
  -28.5220  -26.5670   19.9680 O   0  0  0  0  0  0  0  0  0  0  0  0
  -24.5370  -31.7790   23.1210 C   0  0  0  0  0  0  0  0  0  0  0  0
  -27.3920  -27.4130   19.9720 C   0  0  0  0  0  0  0  0  0  0  0  0
  -23.4260  -30.3860   21.4110 C   0  0  0  0  0  3  0  0  0  0  0  0
  -24.9700  -28.9450   19.9620 C   0  0  0  0  0  0  0  0  0  0  0  0
  -25.9540  -30.8140   21.2860 C   0  0  0  0  0  2  0  0  0  0  0  0
  -26.1080  -29.4600   20.5960 C   0  0  0  0  0  0  0  0  0  0  0  0
  -27.3270  -28.7090   20.5850 C   0  0  0  0  0  3  0  0  0  0  0  0
  -26.2310  -26.9570   19.3180 C   0  0  0  0  0  3  0  0  0  0  0  0
  -25.0360  -27.7020   19.3110 C   0  0  0  0  0  3  0  0  0  0  0  0
  -23.6950  -29.7660   20.0140 C   0  0  0  0  0  2  0  0  0  0  0  0
  -24.6570  -31.0100   21.9960 N   0  0  0  0  0  0  0  0  0  0  0  0
  -23.4330  -31.9910   23.6430 O   0  0  0  0  0  0  0  0  0  0  0  0
  -22.7890  -29.3110   22.3250 C   0  0  0  0  0  0  0  0  0  0  0  0
  -21.4690  -29.1020   22.1850 N   0  0  0  0  0  0  0  0  0  0  0  0
  -23.4830  -28.6700   23.1180 O   0  0  0  0  0  0  0  0  0  0  0  0
  -20.9670  -29.6740   21.5190 H   0  0  0  0  0  0  0  0  0  0  0  0
  -18.1190  -27.8130   22.6490 C   0  0  0  0  0  0  0  0  0  0  0  0
  -20.6750  -28.1080   22.9100 C   0  0  0  0  0  3  0  0  0  0  0  0
  -20.7980  -26.7130   22.2540 C   0  0  0  0  0  2  0  0  0  0  0  0
  -19.6930  -26.4250   21.2330 C   0  0  0  0  0  2  0  0  0  0  0  0
  -18.3150  -26.5070   21.8970 C   0  0  0  0  0  2  0  0  0  0  0  0
  -19.2270  -28.5720   23.1100 C   0  0  0  0  0  0  0  0  0  0  0  0
  -18.9900  -29.7960   23.7730 C   0  0  0  0  0  3  0  0  0  0  0  0
  -17.6780  -30.2600   23.9800 C   0  0  0  0  0  3  0  0  0  0  0  0
  -16.5840  -29.4980   23.5350 C   0  0  0  0  0  3  0  0  0  0  0  0
  -16.8060  -28.2750   22.8750 C   0  0  0  0  0  3  0  0  0  0  0  0
  -25.7780  -32.4440   23.7910 C   0  0  0  0  0  3  0  0  0  0  0  0
  -26.2780  -31.6750   25.0750 C   0  0  1  0  0  0  0  0  0  0  0  0
  -25.1610  -31.3920   26.1070 C   0  0  0  0  0  1  0  0  0  0  0  0
  -26.9130  -30.3180   24.6880 C   0  0  0  0  0  1  0  0  0  0  0  0
  -27.3830  -32.4960   25.7810 C   0  0  0  0  0  1  0  0  0  0  0  0
  -25.4130  -33.8280   24.1280 N   0  0  0  0  0  0  0  0  0  0  0  0
  -25.7250  -34.9010   23.3900 C   0  0  0  0  0  0  0  0  0  0  0  0
  -26.4210  -34.8330   22.3730 O   0  0  0  0  0  0  0  0  0  0  0  0
  -24.7950  -33.9520   24.9180 H   0  0  0  0  0  0  0  0  0  0  0  0
  -23.9420  -36.6390   23.0240 C   0  0  0  0  0  1  0  0  0  0  0  0
  -25.1820  -36.2670   23.8530 C   0  0  0  0  0  3  0  0  0  0  0  0
  -27.2690  -37.2170   24.7320 C   0  0  0  0  0  1  0  0  0  0  0  0
  -26.1780  -37.3560   23.7700 N   0  0  0  0  0  0  0  0  0  0  0  0
  -25.7370  -38.2600   23.9220 H   0  0  0  0  0  0  0  0  0  0  0  0
  3  2  1  6
  3  1  1  0
  4  7  2  0
  5  9  1  0
  5  6  2  0
  6  3  1  0
  6  4  1  0
  7  8  1  0
  9 10  1  0
  9  7  1  0
 10 19  1  0
 11 19  1  0
 12 17  1  0
 13 14  1  0
 13 12  1  0
 15 14  1  0
 15 24  1  0
 15 16  1  0
 17 11  1  0
 17 16  1  0
 18 11  2  0
 19 20  1  0
 21 22  2  0
 22 41  1  0
 23 22  1  0
 23 26  1  0
 24 21  1  0
 24 25  1  0
 25 23  2  0
 26 27  1  0
 27 28  2  0
 29 32  1  0
 29 28  1  0
 30 29  2  0
 31 30  1  0
 31 26  2  0
 32 33  1  0
 33 34  1  0
 34 35  2  0
 36 35  1  0
 36 40  1  0
 37 36  2  0
 38 33  2  0
 38 37  1  0
 39 38  1  0
 41 42  1  0
 42 45  1  0
 42 44  1  0
 43 41  2  0
 46 47  1  0
 46 21  1  0
 48 46  1  0
 49  3  1  0
 49 50  1  0
 51 53  1  0
 51 50  1  0
 52 63  2  0
 53 58  1  0
 54 62  1  0
 54 64  1  0
 55 61  1  0
 55 57  1  0
 56 62  1  0
 57 56  1  0
 58 57  2  0
 59 53  2  0
 60 59  1  0
 60 55  2  0
 61 54  1  0
 62 52  1  0
 64 66  2  0
 65 64  1  0
 67 65  1  0
 68 77  2  0
 68 73  1  0
 69 65  1  0
 69 73  1  0
 70 69  1  0
 71 72  1  0
 71 70  1  0
 72 68  1  0
 73 74  2  0
 74 75  1  0
 76 75  2  0
 77 76  1  0
 78 52  1  0
 78 83  1  0
 78 79  1  0
 79 82  1  1
 79 80  1  0
 81 79  1  0
 83 86  1  0
 84 88  1  0
 84 83  1  0
 85 84  2  0
 88 87  1  0
 90 88  1  0
 90 91  1  0
 90 89  1  0
M  ISO  4  11 100  19 100  50 101  51 101
M  END
>  <TORSDO>  (96) 
F 20

>  <SCORE>  (96) 
-13.743

>  <name>  (96) 
95

>  <ligand_id>  (96) 
95

>  <original_smiles>  (96) 
[H]c1c([H])c([H])c2c(c1[H])C([H])([H])C([H])([H])C([H])([H])C2([H])N([H])C(=O)C1([H])N(C(=O)C([H])(N([H])C(=O)C([H])(N([H])C([H])([H])[H])C([H])([H])[H])C(C([H])([H])[H])(C([H])([H])[H])C([H])([H])[H])C([H])([H])c2c([H])c(OC([H])([H])C([H])([H])C(c3c([H])c(C([H])([H])[H])n(C([H])([H])N([H])C(=O)N4C([H])([H])C([H])([H])C([H])([H])C([H])(n5nc(-c6c([H])c([H])c(Oc7c([H])c([H])c(F)c([H])c7F)c([H])c6[H])c(C(=O)N([H])[H])c5N([H])[H])C4([H])[H])c3[H])(C([H])([H])[H])C([H])([H])[H])c([H])c([H])c2C1([H])[H]

>  <smiles>  (96) 
[H]c1c([H])c([H])c2c(c1[H])C([H])([H])C([H])([H])C([H])([H])C2([H])N([H])C(=O)C1([H])N(C(=O)C([H])(N([H])C(=O)C([H])(N([H])C([H])([H])[H])C([H])([H])[H])C(C([H])([H])[H])(C([H])([H])[H])C([H])([H])[H])C([H])([H])c2c([H])c(OC([H])([H])C([H])([H])C(c3c([H])c(C([H])([H])[H])n(C([H])([H])N([H])C(=O)N4C([H])([H])C([H])([H])C([H])([H])C([H])(n5nc(-c6c([H])c([H])c(Oc7c([H])c([H])c(F)c([H])c7F)c([H])c6[H])c(C(=O)N([H])[H])c5N([H])[H])C4([H])[H])c3[H])(C([H])([H])[H])C([H])([H])[H])c([H])c([H])c2C1([H])[H]

$$$$
96:0:0
     RDKit          3D

 99107  0  0  1  0  0  0  0  0999 V2000
  -30.5730  -14.9850   20.4070 C   0  0  0  0  0  0  0  0  0  0  0  0
  -30.4510  -12.6220   19.4650 C   0  0  0  0  0  2  0  0  0  0  0  0
  -29.5100  -12.4960   18.2440 C   0  0  0  0  0  2  0  0  0  0  0  0
  -28.0610  -12.2140   18.6890 C   0  0  0  0  0  2  0  0  0  0  0  0
  -27.6190  -13.1580   19.8260 C   0  0  0  0  0  3  0  0  0  0  0  0
  -28.6910  -13.2550   20.9510 C   0  0  0  0  0  2  0  0  0  0  0  0
  -29.9440  -13.7290   20.3270 N   0  0  0  0  0  0  0  0  0  0  0  0
  -31.7990  -14.9840   20.2550 O   0  0  0  0  0  0  0  0  0  0  0  0
  -27.6230  -17.5140   19.9230 C   0  0  0  0  0  2  0  0  0  0  0  0
  -28.4710  -16.2380   19.9600 C   0  0  0  0  0  2  0  0  0  0  0  0
  -30.4130  -17.7240   20.4950 C   0  0  0  0  0  2  0  0  0  0  0  0
  -29.4240  -19.0870   20.4750 C   0  0  0  0  0  3  0  0  0  0  0  0
  -28.3490  -18.7520   19.4220 C   0  0  0  0  0  3  0  0  0  0  0  0
  -29.8590  -16.2460   20.4330 N   0  0  0  0  0  0  0  0  0  0  0  0
  -25.2440  -13.7870   20.5690 C   0  0  0  0  0  0  0  0  0  0  0  0
  -24.1720  -13.0240   20.9260 C   0  0  0  0  0  0  0  0  0  0  0  0
  -24.6280  -11.6720   20.8840 C   0  0  0  0  0  0  0  0  0  0  0  0
  -26.2820  -12.8960   20.3300 N   0  0  0  0  0  0  0  0  0  0  0  0
  -25.9180  -11.6210   20.5870 N   0  0  0  0  0  0  0  0  0  0  0  0
  -23.8960  -10.4170   21.0480 C   0  0  0  0  0  0  0  0  0  0  0  0
  -24.3540   -9.4110   21.9240 C   0  0  0  0  0  3  0  0  0  0  0  0
  -23.6230   -8.2140   22.0770 C   0  0  0  0  0  3  0  0  0  0  0  0
  -22.4220   -8.0210   21.3550 C   0  0  0  0  0  0  0  0  0  0  0  0
  -21.9840   -9.0180   20.4650 C   0  0  0  0  0  3  0  0  0  0  0  0
  -22.7160  -10.2060   20.3090 C   0  0  0  0  0  3  0  0  0  0  0  0
  -21.6590   -6.8810   21.4230 O   0  0  0  0  0  0  0  0  0  0  0  0
  -21.6820   -6.0680   22.5270 C   0  0  0  0  0  0  0  0  0  0  0  0
  -21.4000   -6.5610   23.8200 C   0  0  0  0  0  3  0  0  0  0  0  0
  -21.3660   -5.6770   24.9170 C   0  0  0  0  0  3  0  0  0  0  0  0
  -21.6050   -4.3030   24.7230 C   0  0  0  0  0  0  0  0  0  0  0  0
  -21.8830   -3.8110   23.4360 C   0  0  0  0  0  3  0  0  0  0  0  0
  -21.9190   -4.6920   22.3400 C   0  0  0  0  0  0  0  0  0  0  0  0
  -22.1660   -4.2110   21.0980 F   0  0  0  0  0  0  0  0  0  0  0  0
  -21.5650   -3.4520   25.7750 F   0  0  0  0  0  0  0  0  0  0  0  0
  -22.7770  -13.5140   21.1880 C   0  0  0  0  0  0  0  0  0  0  0  0
  -22.0380  -12.8200   22.0450 N   0  0  0  0  0  0  0  0  0  0  0  0
  -22.3530  -14.5460   20.6710 O   0  0  0  0  0  0  0  0  0  0  0  0
  -22.3940  -11.9870   22.4890 H   0  0  0  0  0  0  0  0  0  0  0  0
  -21.1010  -13.1300   22.2630 H   0  0  0  0  0  0  0  0  0  0  0  0
  -25.3960  -15.1580   20.4000 N   0  0  0  0  0  0  0  0  0  0  0  0
  -24.6180  -15.7960   20.5160 H   0  0  0  0  0  0  0  0  0  0  0  0
  -26.2400  -15.6070   20.0770 H   0  0  0  0  0  0  0  0  0  0  0  0
  -27.3740  -19.8400   19.2110 N   0  0  0  0  0  4  0  0  0  0  0  0
  -27.8720  -20.7130   19.2910 H   0  0  0  0  0  0  0  0  0  0  0  0
  -26.6730  -19.8510   19.9350 H   0  0  0  0  0  0  0  0  0  0  0  0
  -26.7120  -19.9020   17.8930 C   0  0  0  0  0  2  0  0  0  0  0  0
  -26.1190  -21.2950   17.6860 C   0  0  0  0  0  0  0  0  0  0  0  0
  -25.8030  -21.6450   16.4320 N   0  0  0  0  0  0  0  0  0  0  0  0
  -25.9790  -22.0510   18.6490 O   0  0  0  0  0  0  0  0  0  0  0  0
  -25.9570  -20.9550   15.7070 H   0  0  0  0  0  0  0  0  0  0  0  0
  -24.0380  -22.7900   15.1620 C   0  0  0  0  0  1  0  0  0  0  0  0
  -26.4090  -23.6890   15.2270 C   0  0  0  0  0  1  0  0  0  0  0  0
  -25.3100  -22.9540   16.0050 C   0  0  0  0  0  3  0  0  0  0  0  0
  -31.2680  -20.8380   21.0510 C   0  0  0  0  0  1  0  0  0  0  0  0
  -29.9390  -20.6780   20.3000 C   0  0  0  0  0  3  0  0  0  0  0  0
  -28.9910  -22.0150   20.6720 C   0  0  0  0  0  2  0  0  0  0  0  0
  -29.2760  -23.5890   20.2260 C   0  0  0  0  0  3  0  0  0  0  0  0
  -28.1300  -24.7810   20.3660 C   0  0  0  0  0  3  0  0  0  0  0  0
  -28.3470  -26.2900   20.1850 O   0  0  0  0  0  0  0  0  0  0  0  0
  -24.6380  -31.8500   23.1910 C   0  0  0  0  0  0  0  0  0  0  0  0
  -27.2440  -27.2050   20.1470 C   0  0  0  0  0  0  0  0  0  0  0  0
  -23.4380  -30.4690   21.5350 C   0  0  0  0  0  3  0  0  0  0  0  0
  -24.8930  -28.9010   20.1140 C   0  0  0  0  0  0  0  0  0  0  0  0
  -25.9890  -30.7450   21.3810 C   0  0  0  0  0  2  0  0  0  0  0  0
  -26.0670  -29.3610   20.7250 C   0  0  0  0  0  0  0  0  0  0  0  0
  -27.2420  -28.5310   20.7220 C   0  0  0  0  0  3  0  0  0  0  0  0
  -26.0430  -26.8280   19.5030 C   0  0  0  0  0  3  0  0  0  0  0  0
  -24.8910  -27.6450   19.4890 C   0  0  0  0  0  3  0  0  0  0  0  0
  -23.6630  -29.7940   20.1560 C   0  0  0  0  0  2  0  0  0  0  0  0
  -24.7070  -31.0410   22.0900 N   0  0  0  0  0  0  0  0  0  0  0  0
  -23.5510  -32.1350   23.7160 O   0  0  0  0  0  0  0  0  0  0  0  0
  -22.7530  -29.4600   22.4880 C   0  0  0  0  0  0  0  0  0  0  0  0
  -21.4240  -29.3060   22.3620 N   0  0  0  0  0  0  0  0  0  0  0  0
  -23.4200  -28.8160   23.3020 O   0  0  0  0  0  0  0  0  0  0  0  0
  -20.9430  -29.8750   21.6780 H   0  0  0  0  0  0  0  0  0  0  0  0
  -18.0310  -28.1390   22.8490 C   0  0  0  0  0  0  0  0  0  0  0  0
  -20.5920  -28.3730   23.1240 C   0  0  0  0  0  3  0  0  0  0  0  0
  -20.6790  -26.9440   22.5410 C   0  0  0  0  0  2  0  0  0  0  0  0
  -19.5760  -26.6390   21.5220 C   0  0  0  0  0  2  0  0  0  0  0  0
  -18.1940  -26.7930   22.1630 C   0  0  0  0  0  2  0  0  0  0  0  0
  -19.1560  -28.8870   23.2860 C   0  0  0  0  0  0  0  0  0  0  0  0
  -18.9480  -30.1470   23.8890 C   0  0  0  0  0  3  0  0  0  0  0  0
  -17.6470  -30.6590   24.0570 C   0  0  0  0  0  3  0  0  0  0  0  0
  -16.5370  -29.9090   23.6330 C   0  0  0  0  0  3  0  0  0  0  0  0
  -16.7290  -28.6500   23.0350 C   0  0  0  0  0  3  0  0  0  0  0  0
  -25.9180  -32.4720   23.8270 C   0  0  0  0  0  3  0  0  0  0  0  0
  -25.5950  -33.8530   24.2200 N   0  0  0  0  0  0  0  0  0  0  0  0
  -25.9080  -34.9420   23.5060 C   0  0  0  0  0  0  0  0  0  0  0  0
  -26.5660  -34.8910   22.4640 O   0  0  0  0  0  0  0  0  0  0  0  0
  -25.0050  -33.9630   25.0310 H   0  0  0  0  0  0  0  0  0  0  0  0
  -24.1490  -36.7270   23.2650 C   0  0  0  0  0  1  0  0  0  0  0  0
  -25.4130  -36.3050   24.0310 C   0  0  0  0  0  3  0  0  0  0  0  0
  -27.5580  -37.1790   24.8460 C   0  0  0  0  0  1  0  0  0  0  0  0
  -26.4290  -37.3750   23.9400 N   0  0  0  0  0  0  0  0  0  0  0  0
  -26.0170  -38.2830   24.1390 H   0  0  0  0  0  0  0  0  0  0  0  0
  -26.4510  -31.6580   25.0700 C   0  0  1  0  0  0  0  0  0  0  0  0
  -25.3690  -31.3770   26.1390 C   0  0  0  0  0  1  0  0  0  0  0  0
  -27.0390  -30.2970   24.6280 C   0  0  0  0  0  1  0  0  0  0  0  0
  -27.6050  -32.4340   25.7480 C   0  0  0  0  0  1  0  0  0  0  0  0
  1 14  1  0
  2  7  1  0
  3  4  1  0
  3  2  1  0
  5  4  1  0
  5 18  1  0
  5  6  1  0
  7  1  1  0
  7  6  1  0
  8  1  2  0
  9 10  1  0
 10 14  1  0
 12 55  1  0
 12 11  1  0
 13 43  1  0
 13  9  1  0
 13 12  1  0
 14 11  1  0
 15 16  2  0
 16 35  1  0
 17 16  1  0
 17 20  1  0
 18 15  1  0
 18 19  1  0
 19 17  2  0
 20 21  1  0
 21 22  2  0
 23 26  1  0
 23 22  1  0
 24 23  2  0
 25 24  1  0
 25 20  2  0
 26 27  1  0
 27 28  1  0
 28 29  2  0
 30 29  1  0
 30 34  1  0
 31 30  2  0
 32 27  2  0
 32 31  1  0
 33 32  1  0
 35 36  1  0
 36 39  1  0
 36 38  1  0
 37 35  2  0
 40 41  1  0
 40 15  1  0
 42 40  1  0
 43 44  1  0
 43 45  1  0
 46 43  1  0
 47 46  1  0
 47 49  2  0
 48 47  1  0
 50 48  1  0
 51 53  1  0
 52 53  1  0
 53 48  1  0
 55 56  1  0
 55 54  1  0
 57 58  2  0
 57 56  1  0
 59 58  1  0
 60 71  2  0
 61 59  1  0
 61 66  1  0
 62 70  1  0
 62 72  1  0
 63 69  1  0
 63 65  1  0
 64 70  1  0
 65 64  1  0
 66 65  2  0
 67 61  2  0
 68 67  1  0
 68 63  2  0
 69 62  1  0
 70 60  1  0
 72 74  2  0
 73 72  1  0
 75 73  1  0
 76 85  2  0
 76 81  1  0
 77 73  1  0
 77 81  1  0
 78 77  1  0
 79 80  1  0
 79 78  1  0
 80 76  1  0
 81 82  2  0
 82 83  1  0
 84 83  2  0
 85 84  1  0
 86 60  1  0
 86 87  1  0
 86 96  1  0
 87 90  1  0
 88 92  1  0
 88 87  1  0
 89 88  2  0
 92 91  1  0
 94 92  1  0
 94 95  1  0
 94 93  1  0
 96 99  1  1
 96 97  1  0
 98 96  1  0
M  ISO  4   1 100  14 100  58 101  59 101
M  END
>  <TORSDO>  (97) 
F 23

>  <SCORE>  (97) 
-8.099

>  <name>  (97) 
96

>  <ligand_id>  (97) 
96

>  <original_smiles>  (97) 
[H]c1c([H])c([H])c2c(c1[H])C([H])([H])C([H])([H])C([H])([H])C2([H])N([H])C(=O)C1([H])N(C(=O)C([H])(N([H])C(=O)C([H])(N([H])C([H])([H])[H])C([H])([H])[H])C(C([H])([H])[H])(C([H])([H])[H])C([H])([H])[H])C([H])([H])c2c([H])c(OC([H])([H])C([H])([H])C([H])([H])C([H])(C([H])([H])[H])C3([H])C([H])([H])N(C(=O)N4C([H])([H])C([H])([H])C([H])([H])C([H])(n5nc(-c6c([H])c([H])c(Oc7c([H])c([H])c(F)c([H])c7F)c([H])c6[H])c(C(=O)N([H])[H])c5N([H])[H])C4([H])[H])C([H])([H])C([H])([H])C3([H])[N+]([H])([H])C([H])([H])C(=O)N([H])C([H])(C([H])([H])[H])C([H])([H])[H])c([H])c([H])c2C1([H])[H]

>  <smiles>  (97) 
[H]c1c([H])c([H])c2c(c1[H])C([H])([H])C([H])([H])C([H])([H])C2([H])N([H])C(=O)C1([H])N(C(=O)C([H])(N([H])C(=O)C([H])(N([H])C([H])([H])[H])C([H])([H])[H])C(C([H])([H])[H])(C([H])([H])[H])C([H])([H])[H])C([H])([H])c2c([H])c(OC([H])([H])C([H])([H])C([H])([H])C([H])(C([H])([H])[H])C3([H])C([H])([H])N(C(=O)N4C([H])([H])C([H])([H])C([H])([H])C([H])(n5nc(-c6c([H])c([H])c(Oc7c([H])c([H])c(F)c([H])c7F)c([H])c6[H])c(C(=O)N([H])[H])c5N([H])[H])C4([H])[H])C([H])([H])C([H])([H])C3([H])[N+]([H])([H])C([H])([H])C(=O)N([H])C([H])(C([H])([H])[H])C([H])([H])[H])c([H])c([H])c2C1([H])[H]

$$$$
97:0:0
     RDKit          3D

 94103  0  0  1  0  0  0  0  0999 V2000
  -28.7230  -23.4490   19.8440 C   0  0  0  0  0  2  0  0  0  0  0  0
  -30.1670  -24.1770   21.7860 C   0  0  0  0  0  2  0  0  0  0  0  0
  -29.5800  -22.1510   19.7330 C   0  0  0  0  0  2  0  0  0  0  0  0
  -30.9780  -22.8740   21.6290 C   0  0  0  0  0  2  0  0  0  0  0  0
  -29.4600  -24.6510   20.4940 C   0  0  0  0  0  3  0  0  0  0  0  0
  -30.1030  -21.6920   21.1230 C   0  0  0  0  0  3  0  0  0  0  0  0
  -30.9410  -18.6650   22.9560 C   0  0  0  0  0  2  0  0  0  0  0  0
  -29.7830  -18.3350   22.0310 C   0  0  0  0  0  2  0  0  0  0  0  0
  -31.3600  -20.0800   22.5410 C   0  0  0  0  0  2  0  0  0  0  0  0
  -30.0690  -19.1390   20.7580 C   0  0  0  0  0  3  0  0  0  0  0  0
  -30.8320  -20.3660   21.1720 N   0  0  1  0  0  4  0  0  0  0  0  0
  -31.6220  -20.4450   20.5480 H   0  0  0  0  0  0  0  0  0  0  0  0
  -30.7790  -18.2660   19.6690 C   0  0  0  0  0  2  0  0  0  0  0  0
  -31.8480  -17.2080   20.0940 C   0  0  0  0  0  2  0  0  0  0  0  0
  -31.9800  -14.6960   19.9850 C   0  0  0  0  0  0  0  0  0  0  0  0
  -31.5370  -12.4550   19.0640 C   0  0  0  0  0  2  0  0  0  0  0  0
  -30.6170  -12.6120   17.8350 C   0  0  0  0  0  2  0  0  0  0  0  0
  -29.1340  -12.6260   18.2580 C   0  0  0  0  0  2  0  0  0  0  0  0
  -28.8550  -13.5950   19.4390 C   0  0  0  0  0  3  0  0  0  0  0  0
  -29.8910  -13.4110   20.5720 C   0  0  0  0  0  2  0  0  0  0  0  0
  -31.2300  -13.5610   19.9830 N   0  0  0  0  0  0  0  0  0  0  0  0
  -33.1370  -14.7270   19.5600 O   0  0  0  0  0  0  0  0  0  0  0  0
  -31.3240  -15.8360   20.2900 N   0  0  0  0  0  0  0  0  0  0  0  0
  -30.3740  -15.7340   20.6160 H   0  0  0  0  0  0  0  0  0  0  0  0
  -26.5430  -14.4500   20.1800 C   0  0  0  0  0  0  0  0  0  0  0  0
  -25.4010  -13.7930   20.5510 C   0  0  0  0  0  0  0  0  0  0  0  0
  -25.7120  -12.4010   20.5020 C   0  0  0  0  0  0  0  0  0  0  0  0
  -27.4850  -13.4640   19.9300 N   0  0  0  0  0  0  0  0  0  0  0  0
  -26.9870  -12.2260   20.1800 N   0  0  0  0  0  0  0  0  0  0  0  0
  -24.8540  -11.2230   20.6830 C   0  0  0  0  0  0  0  0  0  0  0  0
  -25.1590  -10.2260   21.6370 C   0  0  0  0  0  3  0  0  0  0  0  0
  -24.3080   -9.1130   21.8070 C   0  0  0  0  0  3  0  0  0  0  0  0
  -23.1370   -8.9890   21.0220 C   0  0  0  0  0  0  0  0  0  0  0  0
  -22.8510   -9.9710   20.0580 C   0  0  0  0  0  3  0  0  0  0  0  0
  -23.7020  -11.0750   19.8850 C   0  0  0  0  0  3  0  0  0  0  0  0
  -22.2660   -7.9290   21.0990 O   0  0  0  0  0  0  0  0  0  0  0  0
  -22.0290   -7.2770   22.2840 C   0  0  0  0  0  0  0  0  0  0  0  0
  -21.5590   -7.9580   23.4280 C   0  0  0  0  0  3  0  0  0  0  0  0
  -21.2600   -7.2380   24.6030 C   0  0  0  0  0  3  0  0  0  0  0  0
  -21.4250   -5.8400   24.6320 C   0  0  0  0  0  0  0  0  0  0  0  0
  -21.8890   -5.1610   23.4920 C   0  0  0  0  0  3  0  0  0  0  0  0
  -22.1860   -5.8770   22.3210 C   0  0  0  0  0  0  0  0  0  0  0  0
  -22.6130   -5.2140   21.2180 F   0  0  0  0  0  0  0  0  0  0  0  0
  -21.1310   -5.1470   25.7580 F   0  0  0  0  0  0  0  0  0  0  0  0
  -24.0650  -14.4160   20.8380 C   0  0  0  0  0  0  0  0  0  0  0  0
  -23.2870  -13.8160   21.7310 N   0  0  0  0  0  0  0  0  0  0  0  0
  -23.7240  -15.4700   20.3030 O   0  0  0  0  0  0  0  0  0  0  0  0
  -23.5770  -12.9640   22.1880 H   0  0  0  0  0  0  0  0  0  0  0  0
  -22.3870  -14.2150   21.9600 H   0  0  0  0  0  0  0  0  0  0  0  0
  -26.8520  -15.7950   20.0110 N   0  0  0  0  0  0  0  0  0  0  0  0
  -26.1480  -16.5170   20.1150 H   0  0  0  0  0  0  0  0  0  0  0  0
  -27.7190  -16.1400   19.6160 H   0  0  0  0  0  0  0  0  0  0  0  0
  -28.5240  -25.8540   20.8420 C   0  0  0  0  0  2  0  0  0  0  0  0
  -28.3980  -26.8720   19.8380 O   0  0  0  0  0  0  0  0  0  0  0  0
  -24.5620  -31.8270   23.3050 C   0  0  0  0  0  0  0  0  0  0  0  0
  -27.2390  -27.6120   19.9360 C   0  0  0  0  0  0  0  0  0  0  0  0
  -23.3490  -30.4760   21.6270 C   0  0  0  0  0  3  0  0  0  0  0  0
  -24.8040  -29.0490   20.0880 C   0  0  0  0  0  0  0  0  0  0  0  0
  -25.8570  -30.9140   21.3790 C   0  0  0  0  0  2  0  0  0  0  0  0
  -25.9640  -29.5750   20.6740 C   0  0  0  0  0  0  0  0  0  0  0  0
  -27.1850  -28.8620   20.5990 C   0  0  0  0  0  3  0  0  0  0  0  0
  -26.0650  -27.0990   19.3500 C   0  0  0  0  0  3  0  0  0  0  0  0
  -24.8500  -27.8070   19.4270 C   0  0  0  0  0  3  0  0  0  0  0  0
  -23.5390  -29.8700   20.2090 C   0  0  0  0  0  2  0  0  0  0  0  0
  -24.6080  -31.0850   22.1620 N   0  0  0  0  0  0  0  0  0  0  0  0
  -23.4900  -32.0410   23.8870 O   0  0  0  0  0  0  0  0  0  0  0  0
  -22.7500  -29.3910   22.5510 C   0  0  0  0  0  0  0  0  0  0  0  0
  -21.4390  -29.1350   22.4060 N   0  0  0  0  0  0  0  0  0  0  0  0
  -23.4640  -28.7860   23.3550 O   0  0  0  0  0  0  0  0  0  0  0  0
  -20.9210  -29.6800   21.7330 H   0  0  0  0  0  0  0  0  0  0  0  0
  -18.1710  -27.6330   22.7400 C   0  0  0  0  0  0  0  0  0  0  0  0
  -20.6760  -28.1260   23.1420 C   0  0  0  0  0  3  0  0  0  0  0  0
  -20.9410  -26.7090   22.5850 C   0  0  0  0  0  2  0  0  0  0  0  0
  -19.9300  -26.2830   21.5180 C   0  0  0  0  0  2  0  0  0  0  0  0
  -18.5060  -26.3030   22.0860 C   0  0  0  0  0  2  0  0  0  0  0  0
  -19.1900  -28.4960   23.2220 C   0  0  0  0  0  0  0  0  0  0  0  0
  -18.8270  -29.7370   23.7880 C   0  0  0  0  0  3  0  0  0  0  0  0
  -17.4740  -30.1160   23.8820 C   0  0  0  0  0  3  0  0  0  0  0  0
  -16.4670  -29.2520   23.4180 C   0  0  0  0  0  3  0  0  0  0  0  0
  -16.8170  -28.0120   22.8500 C   0  0  0  0  0  3  0  0  0  0  0  0
  -25.8490  -32.4610   23.9220 C   0  0  0  0  0  3  0  0  0  0  0  0
  -26.3720  -31.6940   25.1970 C   0  0  1  0  0  0  0  0  0  0  0  0
  -25.2840  -31.4520   26.2680 C   0  0  0  0  0  1  0  0  0  0  0  0
  -26.9630  -30.3200   24.8030 C   0  0  0  0  0  1  0  0  0  0  0  0
  -27.5200  -32.4940   25.8580 C   0  0  0  0  0  1  0  0  0  0  0  0
  -25.5430  -33.8610   24.2470 N   0  0  0  0  0  0  0  0  0  0  0  0
  -25.8610  -34.9080   23.4730 C   0  0  0  0  0  0  0  0  0  0  0  0
  -26.5150  -34.7980   22.4320 O   0  0  0  0  0  0  0  0  0  0  0  0
  -24.9680  -34.0240   25.0600 H   0  0  0  0  0  0  0  0  0  0  0  0
  -24.1180  -36.6860   23.1350 C   0  0  0  0  0  1  0  0  0  0  0  0
  -25.3760  -36.2970   23.9270 C   0  0  0  0  0  3  0  0  0  0  0  0
  -27.5220  -37.1960   24.7100 C   0  0  0  0  0  1  0  0  0  0  0  0
  -26.4010  -37.3540   23.7870 N   0  0  0  0  0  0  0  0  0  0  0  0
  -25.9930  -38.2720   23.9380 H   0  0  0  0  0  0  0  0  0  0  0  0
  1  5  1  0
  3  1  1  0
  4  2  1  0
  5 53  1  0
  5  2  1  0
  6  3  1  0
  6 11  1  0
  6  4  1  0
  8  7  1  0
  9  7  1  0
 10 13  1  0
 10 11  1  0
 10  8  1  0
 11 12  1  6
 11  9  1  0
 13 14  1  0
 14 23  1  0
 15 23  1  0
 16 21  1  0
 17 18  1  0
 17 16  1  0
 19 18  1  0
 19 28  1  0
 19 20  1  0
 21 15  1  0
 21 20  1  0
 22 15  2  0
 23 24  1  0
 25 26  2  0
 26 45  1  0
 27 26  1  0
 27 30  1  0
 28 25  1  0
 28 29  1  0
 29 27  2  0
 30 31  1  0
 31 32  2  0
 33 36  1  0
 33 32  1  0
 34 33  2  0
 35 34  1  0
 35 30  2  0
 36 37  1  0
 37 42  2  0
 37 38  1  0
 38 39  2  0
 39 40  1  0
 40 44  1  0
 41 40  2  0
 42 41  1  0
 43 42  1  0
 45 46  1  0
 46 49  1  0
 46 48  1  0
 47 45  2  0
 50 51  1  0
 50 25  1  0
 52 50  1  0
 54 56  1  0
 54 53  1  0
 55 66  2  0
 56 61  1  0
 57 65  1  0
 57 67  1  0
 58 64  1  0
 58 60  1  0
 59 65  1  0
 60 59  1  0
 61 60  2  0
 62 63  1  0
 62 56  2  0
 63 58  2  0
 64 57  1  0
 65 55  1  0
 67 69  2  0
 68 67  1  0
 70 68  1  0
 71 80  2  0
 71 76  1  0
 72 68  1  0
 72 76  1  0
 73 72  1  0
 74 75  1  0
 74 73  1  0
 75 71  1  0
 76 77  2  0
 77 78  1  0
 79 78  2  0
 80 79  1  0
 81 55  1  0
 81 86  1  0
 81 82  1  0
 82 85  1  1
 82 83  1  0
 84 82  1  0
 86 89  1  0
 87 91  1  0
 87 86  1  0
 88 87  2  0
 91 90  1  0
 93 91  1  0
 93 94  1  0
 93 92  1  0
M  ISO  4  15 100  23 100  53 101  54 101
M  END
>  <TORSDO>  (98) 
F 20

>  <SCORE>  (98) 
-11.482

>  <name>  (98) 
97

>  <ligand_id>  (98) 
97

>  <original_smiles>  (98) 
[H]c1c([H])c([H])c2c(c1[H])C([H])([H])C([H])([H])C([H])([H])C2([H])N([H])C(=O)C1([H])N(C(=O)C([H])(N([H])C(=O)C([H])(N([H])C([H])([H])[H])C([H])([H])[H])C(C([H])([H])[H])(C([H])([H])[H])C([H])([H])[H])C([H])([H])c2c([H])c(OC([H])([H])C3([H])C([H])([H])C([H])([H])C([H])([N+]4([H])C([H])([H])C([H])([H])C([H])([H])C4([H])C([H])([H])C([H])([H])N([H])C(=O)N4C([H])([H])C([H])([H])C([H])([H])C([H])(n5nc(-c6c([H])c([H])c(Oc7c([H])c([H])c(F)c([H])c7F)c([H])c6[H])c(C(=O)N([H])[H])c5N([H])[H])C4([H])[H])C([H])([H])C3([H])[H])c([H])c([H])c2C1([H])[H]

>  <smiles>  (98) 
[H]c1c([H])c([H])c2c(c1[H])C([H])([H])C([H])([H])C([H])([H])C2([H])N([H])C(=O)C1([H])N(C(=O)C([H])(N([H])C(=O)C([H])(N([H])C([H])([H])[H])C([H])([H])[H])C(C([H])([H])[H])(C([H])([H])[H])C([H])([H])[H])C([H])([H])c2c([H])c(OC([H])([H])C3([H])C([H])([H])C([H])([H])C([H])([N+]4([H])C([H])([H])C([H])([H])C([H])([H])C4([H])C([H])([H])C([H])([H])N([H])C(=O)N4C([H])([H])C([H])([H])C([H])([H])C([H])(n5nc(-c6c([H])c([H])c(Oc7c([H])c([H])c(F)c([H])c7F)c([H])c6[H])c(C(=O)N([H])[H])c5N([H])[H])C4([H])[H])C([H])([H])C3([H])[H])c([H])c([H])c2C1([H])[H]

$$$$
98:0:0
     RDKit          3D

 89 97  0  0  1  0  0  0  0  0999 V2000
  -28.9870  -19.6130   19.3110 C   0  0  0  0  0  3  0  0  0  0  0  0
  -28.7070  -21.0370   19.2370 C   0  0  0  0  0  3  0  0  0  0  0  0
  -30.1900  -19.9760   21.3120 C   0  0  0  0  0  3  0  0  0  0  0  0
  -29.7810  -19.0080   20.3380 C   0  0  0  0  0  0  0  0  0  0  0  0
  -29.1780  -22.0160   20.1790 C   0  0  0  0  0  0  0  0  0  0  0  0
  -29.9130  -21.3980   21.2460 C   0  0  0  0  0  0  0  0  0  0  0  0
  -30.5210  -22.2740   22.3250 C   0  0  0  0  0  1  0  0  0  0  0  0
  -29.1530  -23.6350   19.8890 C   0  0  0  0  0  3  0  0  0  0  0  0
  -28.1480  -24.8030   20.4980 C   0  0  0  0  0  3  0  0  0  0  0  0
  -28.3340  -26.3130   20.2400 O   0  0  0  0  0  0  0  0  0  0  0  0
  -24.6100  -31.8840   23.2540 C   0  0  0  0  0  0  0  0  0  0  0  0
  -27.2360  -27.2300   20.2270 C   0  0  0  0  0  0  0  0  0  0  0  0
  -23.4210  -30.4830   21.6100 C   0  0  0  0  0  3  0  0  0  0  0  0
  -24.8850  -28.9200   20.1930 C   0  0  0  0  0  0  0  0  0  0  0  0
  -25.9710  -30.7770   21.4480 C   0  0  0  0  0  2  0  0  0  0  0  0
  -26.0560  -29.3870   20.8010 C   0  0  0  0  0  0  0  0  0  0  0  0
  -27.2330  -28.5580   20.7990 C   0  0  0  0  0  3  0  0  0  0  0  0
  -26.0400  -26.8530   19.5790 C   0  0  0  0  0  3  0  0  0  0  0  0
  -24.8850  -27.6640   19.5680 C   0  0  0  0  0  3  0  0  0  0  0  0
  -23.6510  -29.8050   20.2320 C   0  0  0  0  0  2  0  0  0  0  0  0
  -24.6880  -31.0670   22.1600 N   0  0  0  0  0  0  0  0  0  0  0  0
  -23.5210  -32.1600   23.7810 O   0  0  0  0  0  0  0  0  0  0  0  0
  -22.7470  -29.4690   22.5690 C   0  0  0  0  0  0  0  0  0  0  0  0
  -21.4200  -29.2900   22.4330 N   0  0  0  0  0  0  0  0  0  0  0  0
  -23.4180  -28.8450   23.3950 O   0  0  0  0  0  0  0  0  0  0  0  0
  -20.9370  -29.8420   21.7400 H   0  0  0  0  0  0  0  0  0  0  0  0
  -18.0390  -28.0960   22.9310 C   0  0  0  0  0  0  0  0  0  0  0  0
  -20.5990  -28.3500   23.2010 C   0  0  0  0  0  3  0  0  0  0  0  0
  -20.6990  -26.9210   22.6170 C   0  0  0  0  0  2  0  0  0  0  0  0
  -19.5940  -26.6080   21.6030 C   0  0  0  0  0  2  0  0  0  0  0  0
  -18.2130  -26.7510   22.2480 C   0  0  0  0  0  2  0  0  0  0  0  0
  -19.1600  -28.8540   23.3650 C   0  0  0  0  0  0  0  0  0  0  0  0
  -18.9420  -30.1130   23.9650 C   0  0  0  0  0  3  0  0  0  0  0  0
  -17.6370  -30.6130   24.1390 C   0  0  0  0  0  3  0  0  0  0  0  0
  -16.5310  -29.8510   23.7210 C   0  0  0  0  0  3  0  0  0  0  0  0
  -16.7340  -28.5960   23.1230 C   0  0  0  0  0  3  0  0  0  0  0  0
  -25.8830  -32.5220   23.8850 C   0  0  0  0  0  3  0  0  0  0  0  0
  -26.3830  -31.7630   25.1780 C   0  0  1  0  0  0  0  0  0  0  0  0
  -25.2760  -31.5380   26.2350 C   0  0  0  0  0  1  0  0  0  0  0  0
  -26.9710  -30.3810   24.8110 C   0  0  0  0  0  1  0  0  0  0  0  0
  -27.5240  -32.5670   25.8460 C   0  0  0  0  0  1  0  0  0  0  0  0
  -25.5710  -33.9250   24.2000 N   0  0  0  0  0  0  0  0  0  0  0  0
  -25.9090  -34.9740   23.4380 C   0  0  0  0  0  0  0  0  0  0  0  0
  -26.5860  -34.8620   22.4120 O   0  0  0  0  0  0  0  0  0  0  0  0
  -24.9710  -34.0850   24.9960 H   0  0  0  0  0  0  0  0  0  0  0  0
  -24.1890  -36.7710   23.0580 C   0  0  0  0  0  1  0  0  0  0  0  0
  -25.4220  -36.3660   23.8820 C   0  0  0  0  0  3  0  0  0  0  0  0
  -27.5470  -37.2560   24.7320 C   0  0  0  0  0  1  0  0  0  0  0  0
  -26.4590  -37.4170   23.7700 N   0  0  0  0  0  0  0  0  0  0  0  0
  -26.0540  -38.3410   23.9010 H   0  0  0  0  0  0  0  0  0  0  0  0
  -30.4720  -17.5260   20.2720 C   0  0  0  0  0  2  0  0  0  0  0  0
  -30.5830  -14.8900   20.3090 C   0  0  0  0  0  0  0  0  0  0  0  0
  -30.3650  -12.5870   19.3290 C   0  0  0  0  0  2  0  0  0  0  0  0
  -29.4260  -12.6220   18.1030 C   0  0  0  0  0  2  0  0  0  0  0  0
  -27.9600  -12.4350   18.5420 C   0  0  0  0  0  2  0  0  0  0  0  0
  -27.5810  -13.3310   19.7520 C   0  0  0  0  0  3  0  0  0  0  0  0
  -28.6500  -13.3020   20.8660 C   0  0  0  0  0  2  0  0  0  0  0  0
  -29.9290  -13.6700   20.2490 N   0  0  0  0  0  0  0  0  0  0  0  0
  -31.7840  -14.9180   20.0280 O   0  0  0  0  0  0  0  0  0  0  0  0
  -29.8800  -16.1000   20.4500 N   0  0  0  0  0  0  0  0  0  0  0  0
  -28.8850  -16.0380   20.6080 H   0  0  0  0  0  0  0  0  0  0  0  0
  -25.1990  -13.9030   20.5030 C   0  0  0  0  0  0  0  0  0  0  0  0
  -24.1370  -13.1230   20.8710 C   0  0  0  0  0  0  0  0  0  0  0  0
  -24.6040  -11.7740   20.8320 C   0  0  0  0  0  0  0  0  0  0  0  0
  -26.2440  -13.0290   20.2560 N   0  0  0  0  0  0  0  0  0  0  0  0
  -25.8950  -11.7430   20.5200 N   0  0  0  0  0  0  0  0  0  0  0  0
  -23.8790  -10.5100   21.0170 C   0  0  0  0  0  0  0  0  0  0  0  0
  -24.2990   -9.5470   21.9610 C   0  0  0  0  0  3  0  0  0  0  0  0
  -23.5740   -8.3490   22.1370 C   0  0  0  0  0  3  0  0  0  0  0  0
  -22.4110   -8.1050   21.3670 C   0  0  0  0  0  0  0  0  0  0  0  0
  -22.0090   -9.0540   20.4130 C   0  0  0  0  0  3  0  0  0  0  0  0
  -22.7350  -10.2440   20.2360 C   0  0  0  0  0  3  0  0  0  0  0  0
  -21.6580   -6.9580   21.4510 O   0  0  0  0  0  0  0  0  0  0  0  0
  -21.5800   -6.2310   22.6110 C   0  0  0  0  0  0  0  0  0  0  0  0
  -21.0920   -6.7930   23.8100 C   0  0  0  0  0  3  0  0  0  0  0  0
  -20.9630   -5.9920   24.9620 C   0  0  0  0  0  3  0  0  0  0  0  0
  -21.3100   -4.6290   24.9160 C   0  0  0  0  0  0  0  0  0  0  0  0
  -21.7890   -4.0650   23.7190 C   0  0  0  0  0  3  0  0  0  0  0  0
  -21.9200   -4.8630   22.5700 C   0  0  0  0  0  0  0  0  0  0  0  0
  -22.3620   -4.3110   21.4150 F   0  0  0  0  0  0  0  0  0  0  0  0
  -21.1780   -3.8570   26.0190 F   0  0  0  0  0  0  0  0  0  0  0  0
  -22.7390  -13.5970   21.1460 C   0  0  0  0  0  0  0  0  0  0  0  0
  -22.0130  -12.8940   22.0080 N   0  0  0  0  0  0  0  0  0  0  0  0
  -22.2990  -14.6240   20.6310 O   0  0  0  0  0  0  0  0  0  0  0  0
  -22.3820  -12.0630   22.4490 H   0  0  0  0  0  0  0  0  0  0  0  0
  -21.0740  -13.1900   22.2340 H   0  0  0  0  0  0  0  0  0  0  0  0
  -25.3570  -15.2740   20.3300 N   0  0  0  0  0  0  0  0  0  0  0  0
  -24.5870  -15.9230   20.4480 H   0  0  0  0  0  0  0  0  0  0  0  0
  -26.1990  -15.7200   19.9910 H   0  0  0  0  0  0  0  0  0  0  0  0
  1  4  1  0
  2  1  2  0
  2  5  1  0
  4  3  2  0
  5  6  2  0
  6  3  1  0
  6  7  1  0
  8  5  1  0
  8  9  2  0
 10  9  1  0
 11 22  2  0
 12 10  1  0
 12 17  1  0
 13 21  1  0
 13 23  1  0
 14 20  1  0
 14 16  1  0
 15 21  1  0
 16 15  1  0
 17 16  2  0
 18 12  2  0
 19 18  1  0
 19 14  2  0
 20 13  1  0
 21 11  1  0
 23 25  2  0
 24 23  1  0
 26 24  1  0
 27 36  2  0
 27 32  1  0
 28 24  1  0
 28 32  1  0
 29 28  1  0
 30 31  1  0
 30 29  1  0
 31 27  1  0
 32 33  2  0
 33 34  1  0
 35 34  2  0
 36 35  1  0
 37 11  1  0
 37 42  1  0
 37 38  1  0
 38 41  1  1
 38 39  1  0
 40 38  1  0
 42 45  1  0
 43 47  1  0
 43 42  1  0
 44 43  2  0
 47 46  1  0
 49 47  1  0
 49 50  1  0
 49 48  1  0
 51  4  1  0
 51 60  1  0
 52 60  1  0
 53 58  1  0
 54 55  1  0
 54 53  1  0
 56 55  1  0
 56 65  1  0
 56 57  1  0
 58 52  1  0
 58 57  1  0
 59 52  2  0
 60 61  1  0
 62 63  2  0
 63 82  1  0
 64 63  1  0
 64 67  1  0
 65 62  1  0
 65 66  1  0
 66 64  2  0
 67 68  1  0
 68 69  2  0
 70 73  1  0
 70 69  1  0
 71 70  2  0
 72 71  1  0
 72 67  2  0
 73 74  1  0
 74 75  1  0
 75 76  2  0
 77 76  1  0
 77 81  1  0
 78 77  2  0
 79 74  2  0
 79 78  1  0
 80 79  1  0
 82 83  1  0
 83 86  1  0
 83 85  1  0
 84 82  2  0
 87 88  1  0
 87 62  1  0
 89 87  1  0
M  ISO  4   9 101  10 101  52 100  60 100
M  END
>  <TORSDO>  (99) 
F 19

>  <SCORE>  (99) 
-14.240

>  <name>  (99) 
98

>  <ligand_id>  (99) 
98

>  <original_smiles>  (99) 
[H]c1c([H])c([H])c2c(c1[H])C([H])([H])C([H])([H])C([H])([H])C2([H])N([H])C(=O)C1([H])N(C(=O)C([H])(N([H])C(=O)C([H])(N([H])C([H])([H])[H])C([H])([H])[H])C(C([H])([H])[H])(C([H])([H])[H])C([H])([H])[H])C([H])([H])c2c([H])c(OC([H])([H])C([H])([H])c3c([H])c([H])c(C([H])([H])N([H])C(=O)N4C([H])([H])C([H])([H])C([H])([H])C([H])(n5nc(-c6c([H])c([H])c(Oc7c([H])c([H])c(F)c([H])c7F)c([H])c6[H])c(C(=O)N([H])[H])c5N([H])[H])C4([H])[H])c([H])c3C([H])([H])[H])c([H])c([H])c2C1([H])[H]

>  <smiles>  (99) 
[H]c1c([H])c([H])c2c(c1[H])C([H])([H])C([H])([H])C([H])([H])C2([H])N([H])C(=O)C1([H])N(C(=O)C([H])(N([H])C(=O)C([H])(N([H])C([H])([H])[H])C([H])([H])[H])C(C([H])([H])[H])(C([H])([H])[H])C([H])([H])[H])C([H])([H])c2c([H])c(OC([H])([H])C([H])([H])c3c([H])c([H])c(C([H])([H])N([H])C(=O)N4C([H])([H])C([H])([H])C([H])([H])C([H])(n5nc(-c6c([H])c([H])c(Oc7c([H])c([H])c(F)c([H])c7F)c([H])c6[H])c(C(=O)N([H])[H])c5N([H])[H])C4([H])[H])c([H])c3C([H])([H])[H])c([H])c([H])c2C1([H])[H]

$$$$
